drugbank_target|P06864 Evolved beta-galactosidase subunit alpha (DB00581)
 OpenBabel12092119243D

  0  0  0     0  0            999 V3000
M  V30 BEGIN CTAB
M  V30 COUNTS 16211 16452 0 0 0
M  V30 BEGIN ATOM
M  V30 1 H -0.908 1.98254 -0.117106 0
M  V30 2 N 0 1.576 0 0
M  V30 3 C 0.933 2.03868 1.02534 0
M  V30 4 C 1.911 0.928543 1.3348 0
M  V30 5 O 3.095 1.19667 1.45644 0
M  V30 6 C 0.222 2.43627 2.35294 0
M  V30 7 C -0.732 3.65373 2.2001 0
M  V30 8 S 0.101 5.13292 1.52614 0
M  V30 9 C 1.257 5.56322 2.86805 0
M  V30 10 H 1.49 2.90518 0.631377 0
M  V30 11 H -0.977 1.52953 0.210867 0
M  V30 12 H 0.981 2.67203 3.11629 0
M  V30 13 H -0.358 1.57376 2.7183 0
M  V30 14 H -1.165 3.90944 3.18086 0
M  V30 15 H -1.563 3.418 1.51819 0
M  V30 16 H 0.729 5.58782 3.83104 0
M  V30 17 H 1.672 6.56266 2.65933 0
M  V30 18 H 2.08 4.83886 2.90714 0
M  V30 19 N 1.4781 -0.272755 1.55222 0
M  V30 20 C 2.4261 -1.35705 1.88909 0
M  V30 21 C 3.4201 -1.5112 0.765456 0
M  V30 22 O 4.6261 -1.52901 0.949802 0
M  V30 23 H 1.0011 -0.453868 0.59959 0
M  V30 24 H 2.9721 -1.04544 2.79487 0
M  V30 25 C 1.7211 -2.71049 2.17779 0
M  V30 26 H 1.0441 -2.59979 3.03728 0
M  V30 27 H 2.4841 -3.45858 2.45272 0
M  V30 28 C 0.9431 -3.22165 0.985473 0
M  V30 29 O 1.4731 -4.01096 0.220233 0
M  V30 30 N -0.3209 -2.7985 0.783108 0
M  V30 31 H -0.7739 -2.15775 1.40708 0
M  V30 32 H -0.8159 -3.14397 -0.0130392 0
M  V30 33 N 2.9562 -1.48159 -0.537278 0
M  V30 34 C 4.3722 -1.34118 -0.865129 0
M  V30 35 C 4.5722 -0.346678 -1.98495 0
M  V30 36 O 3.6282 0.234715 -2.51407 0
M  V30 37 C 4.9412 -2.73963 -1.23954 0
M  V30 38 C 6.4892 -2.82397 -1.34984 0
M  V30 39 C 6.9642 -4.22928 -1.75772 0
M  V30 40 N 8.4552 -4.25566 -1.82887 0
M  V30 41 C 9.1902 -5.31235 -2.15817 0
M  V30 42 N 8.6862 -6.47189 -2.47222 0
M  V30 43 N 10.4792 -5.18624 -2.16761 0
M  V30 44 H 2.6302 -2.1144 0.201715 0
M  V30 45 H 4.8932 -0.947598 0.0275949 0
M  V30 46 H 4.5992 -3.48264 -0.490381 0
M  V30 47 H 4.4732 -3.0702 -2.19132 0
M  V30 48 H 6.8602 -2.08356 -2.08978 0
M  V30 49 H 6.9412 -2.5297 -0.379448 0
M  V30 50 H 6.5852 -4.97482 -1.02341 0
M  V30 51 H 6.5152 -4.49794 -2.73848 0
M  V30 52 H 9.0062 -3.41924 -1.60924 0
M  V30 53 H 9.3192 -7.23564 -2.71433 0
M  V30 54 H 7.6642 -6.50476 -2.44757 0
M  V30 55 H 10.8552 -4.27056 -1.91679 0
M  V30 56 H 11.0282 -6.01078 -2.42093 0
M  V30 57 N 4.4343 0.785586 -1.36625 0
M  V30 58 C 5.6803 1.5452 -1.32269 0
M  V30 59 C 6.0353 1.92159 0.0962266 0
M  V30 60 O 5.3283 1.60158 1.05167 0
M  V30 61 C 5.5223 2.83007 -2.1827 0
M  V30 62 C 5.3513 2.57925 -3.68382 0
M  V30 63 C 4.1213 2.52752 -4.37544 0
M  V30 64 C 6.3193 2.26861 -4.61561 0
M  V30 65 N 4.3013 2.19608 -5.73276 0
M  V30 66 C 5.6723 2.03738 -5.85569 0
M  V30 67 C 7.7273 2.129 -4.50087 0
M  V30 68 C 6.4303 1.68065 -6.9939 0
M  V30 69 C 8.4563 1.78626 -5.63779 0
M  V30 70 C 7.8183 1.56353 -6.86828 0
M  V30 71 H 3.9173 0.566301 -0.539283 0
M  V30 72 H 6.5013 0.917736 -1.71714 0
M  V30 73 H 4.6723 3.43614 -1.81063 0
M  V30 74 H 6.4043 3.48775 -2.05275 0
M  V30 75 H 3.1593 2.6813 -3.90389 0
M  V30 76 H 3.5833 2.05771 -6.44971 0
M  V30 77 H 8.2253 2.28808 -3.55537 0
M  V30 78 H 5.9433 1.50895 -7.93887 0
M  V30 79 H 9.5293 1.68502 -5.56865 0
M  V30 80 H 8.4093 1.30223 -7.73312 0
M  V30 81 N 5.9124 1.20967 1.01018 0
M  V30 82 C 6.8224 0.980157 2.13143 0
M  V30 83 C 7.8384 -0.0660665 1.73875 0
M  V30 84 O 9.0144 0.122821 2.01025 0
M  V30 85 C 6.0794 0.54216 3.42435 0
M  V30 86 C 5.1404 1.65999 3.95908 0
M  V30 87 C 4.3734 1.2428 5.19028 0
M  V30 88 O 4.5964 0.114196 5.70286 0
M  V30 89 O 3.5304 2.05271 5.65816 0
M  V30 90 H 7.3564 1.91913 2.35379 0
M  V30 91 H 4.9414 0.994099 1.11526 0
M  V30 92 H 6.8234 0.30744 4.20277 0
M  V30 93 H 5.4984 -0.36815 3.216 0
M  V30 94 H 4.4054 1.94906 3.19316 0
M  V30 95 H 5.7384 2.54753 4.21143 0
M  V30 96 N 7.3905 -1.2043 1.01659 0
M  V30 97 C 8.3385 -2.25249 0.580143 0
M  V30 98 C 9.3325 -1.65057 -0.381115 0
M  V30 99 O 10.5385 -1.78241 -0.251039 0
M  V30 100 H 6.9135 -0.732695 0.169299 0
M  V30 101 H 8.8845 -2.59389 1.47512 0
M  V30 102 C 7.6335 -3.47638 -0.065788 0
M  V30 103 H 6.9565 -3.94233 0.664874 0
M  V30 104 H 8.3965 -4.2268 -0.334282 0
M  V30 105 C 6.8555 -3.10447 -1.3086 0
M  V30 106 O 7.3855 -3.21981 -2.4019 0
M  V30 107 N 5.5915 -2.64996 -1.1927 0
M  V30 108 H 5.1385 -2.55811 -0.303064 0
M  V30 109 H 5.0965 -2.40482 -2.02523 0
M  V30 110 N 8.8686 -0.792821 -1.36206 0
M  V30 111 C 10.1176 -0.363353 -1.984 0
M  V30 112 C 10.4306 1.07172 -1.63626 0
M  V30 113 O 11.6366 1.60362 -2.19081 0
M  V30 114 C 10.0926 -0.59872 -3.54885 0
M  V30 115 C 9.7006 -2.04543 -3.9858 0
M  V30 116 C 11.4446 -0.233926 -4.23855 0
M  V30 117 C 9.3516 -2.22727 -5.47856 0
M  V30 118 H 8.2816 -0.13212 -0.742334 0
M  V30 119 H 10.9326 -0.974935 -1.55458 0
M  V30 120 H 9.3146 0.0826222 -3.95914 0
M  V30 121 H 10.4886 -2.76345 -3.68741 0
M  V30 122 H 8.8036 -2.36879 -3.42458 0
M  V30 123 H 11.4006 -0.348027 -5.33566 0
M  V30 124 H 11.7436 0.818351 -4.08177 0
M  V30 125 H 12.2766 -0.868639 -3.882 0
M  V30 126 H 9.0156 -3.2635 -5.68486 0
M  V30 127 H 8.5356 -1.55434 -5.7931 0
M  V30 128 H 10.2146 -2.03607 -6.14128 0
M  V30 129 N 10.3467 1.47872 -0.545128 0
M  V30 130 C 11.2787 2.27869 0.246621 0
M  V30 131 C 12.2917 1.36282 0.890561 0
M  V30 132 O 13.4807 1.61207 0.766449 0
M  V30 133 C 10.5807 3.10159 1.36582 0
M  V30 134 C 9.7537 4.29627 0.820954 0
M  V30 135 C 8.8127 4.93607 1.82314 0
M  V30 136 O 7.8387 5.52366 1.37406 0
M  V30 137 N 9.0407 4.87211 3.15603 0
M  V30 138 H 11.8057 2.96459 -0.439539 0
M  V30 139 H 9.3667 1.57367 -0.380421 0
M  V30 140 H 11.3587 3.49829 2.03474 0
M  V30 141 H 9.9287 2.43891 1.9554 0
M  V30 142 H 9.1487 3.94192 -0.0244032 0
M  V30 143 H 10.4367 5.06928 0.436063 0
M  V30 144 H 9.8347 4.40651 3.54744 0
M  V30 145 H 8.3917 5.30937 3.78087 0
M  V30 146 N 11.8248 0.280983 1.55075 0
M  V30 147 C 12.7548 -0.597469 2.25727 0
M  V30 148 C 13.7358 -1.15417 1.24952 0
M  V30 149 O 14.9208 -1.18722 1.53684 0
M  V30 150 C 12.0508 -1.7789 2.98283 0
M  V30 151 C 11.0048 -1.35347 4.06036 0
M  V30 152 C 10.3308 -2.61846 4.66198 0
M  V30 153 C 11.6308 -0.499354 5.19907 0
M  V30 154 H 13.3248 -0.00824265 2.99399 0
M  V30 155 H 10.8708 -0.0025244 1.44 0
M  V30 156 H 12.8238 -2.39937 3.46422 0
M  V30 157 H 11.5478 -2.39405 2.22155 0
M  V30 158 H 10.2068 -0.756156 3.58717 0
M  V30 159 H 9.8548 -3.21632 3.86732 0
M  V30 160 H 9.5548 -2.3409 5.38958 0
M  V30 161 H 11.0788 -3.24732 5.1709 0
M  V30 162 H 12.4928 -1.02498 5.64063 0
M  V30 163 H 10.8898 -0.316424 5.99265 0
M  V30 164 H 11.9598 0.480459 4.82514 0
M  V30 165 N 13.3029 -1.57598 0.00835791 0
M  V30 166 C 14.5309 -1.95214 -0.68549 0
M  V30 167 C 14.9459 -0.883706 -1.66841 0
M  V30 168 O 14.3029 0.136565 -1.81988 0
M  V30 169 C 14.3539 -3.32865 -1.41007 0
M  V30 170 O 14.0749 -4.35609 -0.466552 0
M  V30 171 C 15.5759 -3.84991 -2.19765 0
M  V30 172 H 12.7959 -0.643422 -0.190392 0
M  V30 173 H 15.3399 -2.04406 0.0619607 0
M  V30 174 H 13.4949 -3.24956 -2.10908 0
M  V30 175 H 13.9089 -5.15288 -0.978699 0
M  V30 176 H 15.3829 -4.8371 -2.65948 0
M  V30 177 H 15.8599 -3.18137 -3.02796 0
M  V30 178 H 16.4659 -3.96103 -1.54864 0
M  V30 179 N 14.781 0.264519 -1.55364 0
M  V30 180 C 15.731 1.32966 -1.85214 0
M  V30 181 C 16.715 1.44306 -0.711653 0
M  V30 182 O 17.907 1.47844 -0.973192 0
M  V30 183 C 15.036 2.68839 -2.13495 0
M  V30 184 C 14.122 2.61575 -3.33825 0
M  V30 185 N 14.513 2.23933 -4.53528 0
M  V30 186 C 12.811 2.92621 -3.36584 0
M  V30 187 C 13.512 2.26868 -5.35636 0
M  V30 188 N 12.488 2.65677 -4.74254 0
M  V30 189 H 16.29 1.02884 -2.75304 0
M  V30 190 H 13.804 0.473157 -1.55354 0
M  V30 191 H 15.801 3.45685 -2.33039 0
M  V30 192 H 14.461 2.99802 -1.24694 0
M  V30 193 H 15.472 1.95769 -4.79474 0
M  V30 194 H 12.149 3.2824 -2.58002 0
M  V30 195 H 13.539 2.00254 -6.41364 0
M  V30 196 N 16.2591 1.48442 0.529413 0
M  V30 197 C 17.1691 1.6569 1.66084 0
M  V30 198 C 18.1851 0.539432 1.65427 0
M  V30 199 O 19.3611 0.810572 1.84368 0
M  V30 200 C 16.4261 1.69315 3.02545 0
M  V30 201 C 15.4871 2.92694 3.14052 0
M  V30 202 C 14.7201 2.96137 4.44003 0
M  V30 203 O 14.9431 2.07973 5.31134 0
M  V30 204 O 13.8771 3.88312 4.59888 0
M  V30 205 H 17.7031 2.61483 1.54469 0
M  V30 206 H 15.2881 1.3185 0.702567 0
M  V30 207 H 17.1701 1.74217 3.83701 0
M  V30 208 H 15.8451 0.766966 3.14483 0
M  V30 209 H 14.7521 2.93324 2.32189 0
M  V30 210 H 16.0851 3.84699 3.0703 0
M  V30 211 N 17.7372 -0.778329 1.37039 0
M  V30 212 C 18.6852 -1.91278 1.32345 0
M  V30 213 C 19.6792 -1.68051 0.213331 0
M  V30 214 O 20.8852 -1.75922 0.38098 0
M  V30 215 H 17.2602 -0.628909 0.412283 0
M  V30 216 H 19.2312 -1.92355 2.28127 0
M  V30 217 C 17.9802 -3.28455 1.14073 0
M  V30 218 H 17.3032 -3.46901 1.98746 0
M  V30 219 H 18.7432 -4.08152 1.14837 0
M  V30 220 C 17.2022 -3.36548 -0.154015 0
M  V30 221 O 17.7322 -3.85186 -1.13993 0
M  V30 222 N 15.9382 -2.89894 -0.202475 0
M  V30 223 H 15.4852 -2.50504 0.600476 0
M  V30 224 H 15.4432 -2.9569 -1.06841 0
M  V30 225 N 19.2153 -1.21501 -1.00376 0
M  V30 226 C 20.6313 -0.972629 -1.26539 0
M  V30 227 C 20.8313 0.340257 -1.98606 0
M  V30 228 O 19.8873 1.06561 -2.28913 0
M  V30 229 C 21.2003 -2.16404 -2.08781 0
M  V30 230 C 22.7483 -2.20643 -2.22004 0
M  V30 231 C 23.2233 -3.39306 -3.07629 0
M  V30 232 N 24.7143 -3.39401 -3.15217 0
M  V30 233 C 25.4493 -4.27867 -3.81729 0
M  V30 234 N 24.9453 -5.26533 -4.5026 0
M  V30 235 N 26.7383 -4.15672 -3.78382 0
M  V30 236 H 18.8893 -2.05929 -0.520281 0
M  V30 237 H 21.1523 -0.901803 -0.292328 0
M  V30 238 H 20.8583 -3.11554 -1.63178 0
M  V30 239 H 20.7323 -2.15567 -3.09533 0
M  V30 240 H 23.1193 -1.26048 -2.66825 0
M  V30 241 H 23.2003 -2.25523 -1.20718 0
M  V30 242 H 22.8443 -4.34195 -2.63509 0
M  V30 243 H 22.7743 -3.31665 -4.09031 0
M  V30 244 H 25.2653 -2.67997 -2.66432 0
M  V30 245 H 25.5783 -5.90337 -4.98721 0
M  V30 246 H 23.9233 -5.30457 -4.49044 0
M  V30 247 H 27.1143 -3.3785 -3.23998 0
M  V30 248 H 27.2873 -4.84825 -4.2994 0
M  V30 249 N 20.6934 1.19889 -1.02296 0
M  V30 250 C 21.6234 2.25141 -0.619174 0
M  V30 251 C 22.6044 1.66051 0.368915 0
M  V30 252 O 23.7894 1.92546 0.252941 0
M  V30 253 C 20.9194 3.4728 0.0368783 0
M  V30 254 C 19.8734 4.19005 -0.872865 0
M  V30 255 C 19.1994 5.34637 -0.0822402 0
M  V30 256 C 20.4994 4.74452 -2.18387 0
M  V30 257 H 22.1934 2.59171 -1.49903 0
M  V30 258 H 19.7394 1.24579 -0.722222 0
M  V30 259 H 21.6924 4.20098 0.330958 0
M  V30 260 H 20.4164 3.12433 0.95149 0
M  V30 261 H 19.0754 3.48061 -1.15105 0
M  V30 262 H 18.7234 4.96034 0.83422 0
M  V30 263 H 18.4234 5.83557 -0.688149 0
M  V30 264 H 19.9474 6.10255 0.205238 0
M  V30 265 H 21.3614 5.39055 -1.95172 0
M  V30 266 H 19.7584 5.33834 -2.74119 0
M  V30 267 H 20.8284 3.92844 -2.84257 0
M  V30 268 N 22.1715 0.800033 1.35784 0
M  V30 269 C 23.1345 0.211565 2.28221 0
M  V30 270 C 24.1345 -0.59728 1.49296 0
M  V30 271 O 25.3245 -0.416721 1.69142 0
M  V30 272 C 22.4565 -0.705846 3.33513 0
M  V30 273 H 23.6495 1.02677 2.81776 0
M  V30 274 H 21.2025 0.570211 1.45528 0
M  V30 275 H 21.9375 -1.54498 2.85133 0
M  V30 276 H 21.7225 -0.127655 3.91892 0
M  V30 277 H 23.2125 -1.11211 4.02519 0
M  V30 278 N 23.6496 -1.47581 0.552962 0
M  V30 279 C 25.0606 -1.86324 0.118463 0
M  V30 280 C 25.4116 -1.46006 -1.3106 0
M  V30 281 O 24.5366 -0.861182 -1.98526 0
M  V30 282 C 25.1316 -3.3816 0.20821 0
M  V30 283 C 23.6906 -3.7601 -0.171226 0
M  V30 284 C 22.8376 -2.71634 0.557686 0
M  V30 285 H 25.7886 -1.39159 0.762928 0
M  V30 286 H 25.8096 -3.76141 -0.574278 0
M  V30 287 H 25.3216 -3.67473 1.24841 0
M  V30 288 H 23.4226 -3.52313 -1.21269 0
M  V30 289 H 23.5356 -4.78745 0.184379 0
M  V30 290 H 21.8996 -2.547 0.00125792 0
M  V30 291 H 22.6826 -3.0379 1.59896 0
M  V30 292 N 25.1277 -0.289203 -1.54924 0
M  V30 293 C 26.5437 0.0645403 -1.59469 0
M  V30 294 C 26.7437 1.53419 -1.30632 0
M  V30 295 O 25.7997 2.2852 -1.074 0
M  V30 296 C 27.1127 -0.32278 -2.98963 0
M  V30 297 C 28.6607 -0.270564 -3.11828 0
M  V30 298 C 29.1357 -0.632532 -4.53611 0
M  V30 299 N 30.6267 -0.584617 -4.59496 0
M  V30 300 C 31.3617 -0.837314 -5.67254 0
M  V30 301 N 30.8577 -1.15536 -6.83098 0
M  V30 302 N 32.6507 -0.765166 -5.56868 0
M  V30 303 H 24.8017 -1.24714 -1.71931 0
M  V30 304 H 27.0647 -0.504809 -0.802416 0
M  V30 305 H 26.7707 -1.34541 -3.24948 0
M  V30 306 H 26.6447 0.32944 -3.75759 0
M  V30 307 H 29.0317 0.742805 -2.85598 0
M  V30 308 H 29.1127 -0.957242 -2.37214 0
M  V30 309 H 28.7567 -1.64365 -4.80569 0
M  V30 310 H 28.6867 0.07609 -5.26545 0
M  V30 311 H 31.1777 -0.349248 -3.76283 0
M  V30 312 H 31.4907 -1.33447 -7.61191 0
M  V30 313 H 29.8357 -1.19328 -6.84679 0
M  V30 314 H 33.0267 -0.516432 -4.65243 0
M  V30 315 H 33.1997 -0.965477 -6.40767 0
M  V30 316 N 26.6058 1.57591 -0.0167156 0
M  V30 317 C 27.5688 2.08393 0.954204 0
M  V30 318 C 28.5688 0.996531 1.26198 0
M  V30 319 O 29.7588 1.25858 1.20438 0
M  V30 320 C 26.8908 2.5394 2.27436 0
M  V30 321 H 28.0838 2.95455 0.514451 0
M  V30 322 H 25.6368 1.54582 0.231089 0
M  V30 323 H 26.3718 1.70171 2.76066 0
M  V30 324 H 26.1568 3.33371 2.06412 0
M  V30 325 H 27.6468 2.93512 2.97053 0
M  V30 326 N 28.0839 -0.256276 1.55502 0
M  V30 327 C 29.3139 -1.00196 1.80677 0
M  V30 328 C 29.7219 -1.79805 0.588797 0
M  V30 329 O 29.0649 -1.78055 -0.451883 0
M  V30 330 C 29.1269 -1.99515 2.99055 0
M  V30 331 C 28.7909 -1.38688 4.35448 0
M  V30 332 C 29.7879 -0.794079 5.138 0
M  V30 333 C 27.4729 -1.40906 4.82132 0
M  V30 334 C 29.4669 -0.231562 6.36979 0
M  V30 335 C 27.1539 -0.842684 6.05262 0
M  V30 336 C 28.1519 -0.254953 6.82524 0
M  V30 337 O 27.8399 0.3027 8.0333 0
M  V30 338 H 27.5719 -0.300919 0.60533 0
M  V30 339 H 30.1259 -0.287307 2.03381 0
M  V30 340 H 28.3559 -2.74785 2.72084 0
M  V30 341 H 30.0449 -2.60349 3.11405 0
M  V30 342 H 30.8109 -0.769519 4.78856 0
M  V30 343 H 26.6899 -1.85591 4.21992 0
M  V30 344 H 30.2339 0.227816 6.97228 0
M  V30 345 H 26.1309 -0.86454 6.39684 0
M  V30 346 H 26.8989 0.193662 8.18271 0
M  V30 347 N 29.562 -1.4872 -0.521534 0
M  V30 348 C 30.809 -1.57168 -1.27689 0
M  V30 349 C 31.137 -0.249275 -1.92896 0
M  V30 350 O 30.392 0.761162 -1.80291 0
M  V30 351 C 30.691 -2.66497 -2.38148 0
M  V30 352 C 30.357 -4.08664 -1.90538 0
M  V30 353 C 29.019 -4.47357 -1.77271 0
M  V30 354 C 31.371 -4.97724 -1.54663 0
M  V30 355 C 28.699 -5.72905 -1.26478 0
M  V30 356 C 31.051 -6.2377 -1.05329 0
M  V30 357 C 29.715 -6.61311 -0.906861 0
M  V30 358 H 28.985 -0.575117 -0.467249 0
M  V30 359 H 31.632 -1.82472 -0.581051 0
M  V30 360 H 29.937 -2.35085 -3.13437 0
M  V30 361 H 31.634 -2.70246 -2.96257 0
M  V30 362 H 28.224 -3.78111 -2.01816 0
M  V30 363 H 32.408 -4.68501 -1.63768 0
M  V30 364 H 27.664 -6.00709 -1.13835 0
M  V30 365 H 31.838 -6.9217 -0.76644 0
M  V30 366 H 29.465 -7.5848 -0.511083 0
M  V30 367 N 31.0401 0.771051 -1.3745 0
M  V30 368 C 32.2871 1.52963 -1.32697 0
M  V30 369 C 32.6151 1.94299 0.0883274 0
M  V30 370 O 31.8701 1.64397 1.0617 0
M  V30 371 C 32.1691 2.80676 -2.2126 0
M  V30 372 C 31.8351 2.58389 -3.69521 0
M  V30 373 C 30.4971 2.52019 -4.09927 0
M  V30 374 C 32.8491 2.38469 -4.63446 0
M  V30 375 C 30.1771 2.23721 -5.42371 0
M  V30 376 C 32.5291 2.11694 -5.96128 0
M  V30 377 C 31.1931 2.03769 -6.35637 0
M  V30 378 H 30.4631 0.559732 -0.485573 0
M  V30 379 H 33.1101 0.888083 -1.69662 0
M  V30 380 H 31.4151 3.49392 -1.77291 0
M  V30 381 H 33.1121 3.38557 -2.14895 0
M  V30 382 H 29.7021 2.6421 -3.37478 0
M  V30 383 H 33.8861 2.4238 -4.33089 0
M  V30 384 H 29.1421 2.16081 -5.71943 0
M  V30 385 H 33.3161 1.9528 -6.6846 0
M  V30 386 H 30.9431 1.81606 -7.38189 0
M  V30 387 N 32.5182 1.22032 0.997298 0
M  V30 388 C 33.7432 1.06921 1.77715 0
M  V30 389 C 34.1682 -0.376226 1.84299 0
M  V30 390 O 33.5262 -1.27165 1.29223 0
M  V30 391 C 33.5742 1.67996 3.19076 0
M  V30 392 O 32.6782 0.930653 4.01762 0
M  V30 393 H 32.0192 0.375814 0.547412 0
M  V30 394 H 34.5492 1.61737 1.25309 0
M  V30 395 H 34.5592 1.72538 3.69723 0
M  V30 396 H 33.2342 2.73182 3.13599 0
M  V30 397 H 31.8112 0.960917 3.60307 0
M  V30 398 N 33.9963 -1.19345 1.0293 0
M  V30 399 C 35.2263 -1.92717 0.744563 0
M  V30 400 C 35.6343 -1.75751 -0.700579 0
M  V30 401 O 34.9773 -1.07703 -1.48815 0
M  V30 402 C 35.0393 -3.44828 1.01657 0
M  V30 403 C 34.7033 -3.85564 2.45335 0
M  V30 404 C 35.7003 -3.90286 3.43472 0
M  V30 405 C 33.3853 -4.1719 2.79746 0
M  V30 406 C 35.3793 -4.26065 4.74075 0
M  V30 407 C 33.0663 -4.52642 4.10559 0
M  V30 408 C 34.0643 -4.57054 5.07534 0
M  V30 409 O 33.7523 -4.91685 6.36004 0
M  V30 410 H 33.4843 -0.618977 0.271742 0
M  V30 411 H 36.0383 -1.52415 1.37691 0
M  V30 412 H 34.2683 -3.85314 0.327084 0
M  V30 413 H 35.9573 -3.99437 0.721427 0
M  V30 414 H 36.7233 -3.66002 3.18225 0
M  V30 415 H 32.6023 -4.1294 2.04943 0
M  V30 416 H 36.1463 -4.29423 5.49765 0
M  V30 417 H 32.0433 -4.76383 4.35579 0
M  V30 418 H 32.8113 -5.09631 6.40483 0
M  V30 419 N 35.4744 -0.807222 -1.35358 0
M  V30 420 C 36.7514 -0.311126 -1.9311 0
M  V30 421 C 37.1314 1.19937 -1.73719 0
M  V30 422 O 36.4794 1.99918 -1.10657 0
M  V30 423 C 36.6894 -0.723226 -3.41424 0
M  V30 424 C 38.0374 -0.713078 -4.18569 0
M  V30 425 O 39.0614 -0.664811 -3.49941 0
M  V30 426 O 37.9204 -0.772022 -5.41019 0
M  V30 427 H 35.0144 -0.081526 -0.822972 0
M  V30 428 H 37.5604 -0.890962 -1.4443 0
M  V30 429 H 36.3324 -1.76426 -3.4927 0
M  V30 430 H 35.9554 -0.118232 -3.97424 0
M  V30 431 N 36.9525 1.47285 -0.560781 0
M  V30 432 C 38.1775 2.07359 -0.0410566 0
M  V30 433 C 38.6025 1.41017 1.24483 0
M  V30 434 O 37.9605 0.486368 1.74654 0
M  V30 435 C 38.0085 3.6035 0.134123 0
M  V30 436 O 37.1125 3.94681 1.19587 0
M  V30 437 H 36.4535 0.661887 -0.0529291 0
M  V30 438 H 38.9835 1.89252 -0.777482 0
M  V30 439 H 38.9935 4.0652 0.347207 0
M  V30 440 H 37.6685 4.08034 -0.805047 0
M  V30 441 H 36.2455 3.60251 0.962987 0
M  V30 442 N 38.4306 0.297415 1.54768 0
M  V30 443 C 39.6766 -0.313376 2.00364 0
M  V30 444 C 40.0096 -1.53815 1.18553 0
M  V30 445 O 39.2846 -1.92739 0.261103 0
M  V30 446 C 39.5676 -0.673525 3.53745 0
M  V30 447 C 39.4206 0.560133 4.46299 0
M  V30 448 C 40.7396 -1.50143 4.13697 0
M  V30 449 H 37.8586 -0.112428 0.728374 0
M  V30 450 H 40.5006 0.4088 1.8555 0
M  V30 451 H 38.6506 -1.28881 3.665 0
M  V30 452 H 40.3226 1.19863 4.45455 0
M  V30 453 H 38.5656 1.19405 4.17043 0
M  V30 454 H 39.2366 0.26405 5.51368 0
M  V30 455 H 41.7126 -0.981588 4.04356 0
M  V30 456 H 40.5886 -1.72221 5.21182 0
M  V30 457 H 40.8496 -2.48952 3.65343 0
M  V30 458 N 39.9087 -1.5758 0.0250728 0
M  V30 459 C 40.8717 -2.08896 -0.943139 0
M  V30 460 C 41.8717 -1.00321 -1.25668 0
M  V30 461 O 43.0617 -1.26495 -1.19769 0
M  V30 462 C 40.1937 -2.55143 -2.26086 0
M  V30 463 H 41.3867 -2.95723 -0.498775 0
M  V30 464 H 38.9397 -1.54703 -0.222888 0
M  V30 465 H 39.6747 -1.71633 -2.75159 0
M  V30 466 H 39.4597 -3.34461 -2.04641 0
M  V30 467 H 40.9497 -2.95083 -2.95492 0
M  V30 468 N 41.3868 0.248026 -1.55636 0
M  V30 469 C 42.3188 1.32993 -1.8667 0
M  V30 470 C 43.3318 1.44345 -0.752877 0
M  V30 471 O 44.5208 1.45715 -1.03098 0
M  V30 472 C 41.6208 2.70863 -2.03682 0
M  V30 473 C 40.7938 2.81792 -3.34532 0
M  V30 474 C 39.8528 4.005 -3.41301 0
M  V30 475 O 38.8788 3.9008 -4.14519 0
M  V30 476 N 40.0808 5.13618 -2.70512 0
M  V30 477 H 42.8458 1.06707 -2.8006 0
M  V30 478 H 40.4068 0.438129 -1.55859 0
M  V30 479 H 42.3988 3.48612 -2.05553 0
M  V30 480 H 40.9688 2.89862 -1.17041 0
M  V30 481 H 40.1888 1.90729 -3.44987 0
M  V30 482 H 41.4768 2.86043 -4.20781 0
M  V30 483 H 40.8748 5.24975 -2.10755 0
M  V30 484 H 39.4318 5.89505 -2.78077 0
M  V30 485 N 42.8649 1.48995 0.513639 0
M  V30 486 C 43.8279 1.64229 1.59879 0
M  V30 487 C 44.8279 0.514696 1.5234 0
M  V30 488 O 46.0179 0.78087 1.55718 0
M  V30 489 C 43.1499 1.62783 2.99524 0
M  V30 490 H 44.3429 2.61004 1.47705 0
M  V30 491 H 41.8959 1.37837 0.736936 0
M  V30 492 H 42.6309 0.675461 3.17188 0
M  V30 493 H 42.4159 2.4466 3.06404 0
M  V30 494 H 43.9059 1.76669 3.78388 0
M  V30 495 N 44.343 -0.763751 1.37857 0
M  V30 496 C 45.759 -1.06542 1.18832 0
M  V30 497 C 45.959 -2.01478 0.0299722 0
M  V30 498 O 45.015 -2.4458 -0.627447 0
M  V30 499 C 46.328 -1.65525 2.51042 0
M  V30 500 C 47.876 -1.77745 2.57635 0
M  V30 501 C 48.351 -2.4014 3.89996 0
M  V30 502 N 49.842 -2.47582 3.91481 0
M  V30 503 C 50.577 -2.96732 4.9065 0
M  V30 504 N 50.073 -3.45993 6.00217 0
M  V30 505 N 51.866 -2.95679 4.78048 0
M  V30 506 H 44.017 -0.133556 2.1198 0
M  V30 507 H 46.28 -0.121879 0.940133 0
M  V30 508 H 45.986 -1.03236 3.36207 0
M  V30 509 H 45.86 -2.64719 2.68707 0
M  V30 510 H 48.247 -2.39164 1.72872 0
M  V30 511 H 48.328 -0.772836 2.43846 0
M  V30 512 H 47.972 -1.79358 4.75177 0
M  V30 513 H 47.902 -3.41223 4.01092 0
M  V30 514 H 50.393 -2.1273 3.12337 0
M  V30 515 H 50.706 -3.81922 6.7183 0
M  V30 516 H 49.051 -3.44077 6.03851 0
M  V30 517 H 52.242 -2.56499 3.91568 0
M  V30 518 H 52.415 -3.33672 5.55488 0
M  V30 519 N 45.8211 -1.22559 -0.990812 0
M  V30 520 C 47.0491 -1.07779 -1.76611 0
M  V30 521 C 47.4641 0.371513 -1.85109 0
M  V30 522 O 46.8211 1.25737 -1.32274 0
M  V30 523 C 46.8721 -1.68512 -3.19822 0
M  V30 524 O 46.5931 -3.07774 -3.1178 0
M  V30 525 C 48.0941 -1.59035 -4.13791 0
M  V30 526 H 45.3141 -0.377729 -0.554583 0
M  V30 527 H 47.8581 -1.62195 -1.24551 0
M  V30 528 H 46.0131 -1.18154 -3.68942 0
M  V30 529 H 46.4271 -3.37062 -4.01858 0
M  V30 530 H 47.9011 -2.0625 -5.1202 0
M  V30 531 H 48.3781 -0.547273 -4.35777 0
M  V30 532 H 48.9841 -2.08709 -3.70568 0
M  V30 533 N 47.2992 1.18797 -1.03562 0
M  V30 534 C 48.5462 1.8865 -0.736023 0
M  V30 535 C 48.8742 1.80041 0.735889 0
M  V30 536 O 48.1292 1.19179 1.55225 0
M  V30 537 C 48.4282 3.38692 -1.14117 0
M  V30 538 C 48.0942 3.67504 -2.6125 0
M  V30 539 C 46.7562 3.75078 -3.01447 0
M  V30 540 C 49.1082 3.80293 -3.56408 0
M  V30 541 C 46.4362 3.92915 -4.35701 0
M  V30 542 C 48.7882 3.99645 -4.90374 0
M  V30 543 C 47.4522 4.05453 -5.30249 0
M  V30 544 H 46.7222 0.690321 -0.26933 0
M  V30 545 H 49.3692 1.40641 -1.29971 0
M  V30 546 H 47.6742 3.88645 -0.496202 0
M  V30 547 H 49.3712 3.91072 -0.886789 0
M  V30 548 H 45.9612 3.62223 -2.29113 0
M  V30 549 H 50.1452 3.73779 -3.26501 0
M  V30 550 H 45.4012 3.95653 -4.66121 0
M  V30 551 H 49.5752 4.08482 -5.64017 0
M  V30 552 H 47.2022 4.19027 -6.34288 0
M  V30 553 N 48.7773 0.814389 1.34928 0
M  V30 554 C 49.7403 0.235759 2.27984 0
M  V30 555 C 50.7403 -0.581412 1.49921 0
M  V30 556 O 51.9303 -0.398758 1.69575 0
M  V30 557 C 49.0623 -0.670433 3.34242 0
M  V30 558 H 50.2553 1.05659 2.80671 0
M  V30 559 H 47.8083 0.585614 1.44915 0
M  V30 560 H 48.5433 -1.51466 2.86755 0
M  V30 561 H 48.3283 -0.0860822 3.92005 0
M  V30 562 H 49.8183 -1.06935 4.03676 0
M  V30 563 N 50.2554 -1.46986 0.568584 0
M  V30 564 C 51.6714 -1.57946 0.229189 0
M  V30 565 C 51.8714 -1.56567 -1.26843 0
M  V30 566 O 50.9274 -1.47511 -2.04931 0
M  V30 567 C 52.2404 -2.87963 0.865909 0
M  V30 568 C 53.7884 -3.01568 0.838188 0
M  V30 569 C 54.2634 -4.34301 1.45419 0
M  V30 570 N 55.7544 -4.40965 1.41788 0
M  V30 571 C 56.4894 -5.42256 1.86403 0
M  V30 572 N 55.9854 -6.50297 2.38926 0
M  V30 573 N 57.7784 -5.3337 1.77405 0
M  V30 574 H 49.9294 -1.46126 1.54146 0
M  V30 575 H 52.1924 -0.696156 0.643484 0
M  V30 576 H 51.8984 -2.94742 1.91886 0
M  V30 577 H 51.7724 -3.75423 0.365687 0
M  V30 578 H 54.1594 -2.94379 -0.206106 0
M  V30 579 H 54.2404 -2.1562 1.37629 0
M  V30 580 H 53.8844 -4.42247 2.49761 0
M  V30 581 H 53.8144 -5.19 0.891435 0
M  V30 582 H 56.3054 -3.63484 1.03381 0
M  V30 583 H 56.6184 -7.23777 2.70863 0
M  V30 584 H 54.9634 -6.51155 2.42944 0
M  V30 585 H 58.1544 -4.47865 1.3614 0
M  V30 586 H 58.3274 -6.12169 2.12492 0
M  V30 587 N 51.7335 -0.305618 -1.54608 0
M  V30 588 C 52.6435 0.57778 -2.27374 0
M  V30 589 C 53.6595 1.14451 -1.31061 0
M  V30 590 O 54.8355 1.16831 -1.6405 0
M  V30 591 C 51.9005 1.73123 -3.00382 0
M  V30 592 C 50.9615 1.19812 -4.12242 0
M  V30 593 C 50.1945 2.2966 -4.81759 0
M  V30 594 O 50.4175 3.49651 -4.50666 0
M  V30 595 O 49.3515 1.96091 -5.69062 0
M  V30 596 H 53.1775 -0.012624 -3.03697 0
M  V30 597 H 50.7625 -0.0719184 -1.49227 0
M  V30 598 H 52.6445 2.40315 -3.4616 0
M  V30 599 H 51.3195 2.30815 -2.26949 0
M  V30 600 H 50.2265 0.491798 -3.70853 0
M  V30 601 H 51.5595 0.666566 -4.87666 0
M  V30 602 N 53.2116 1.57565 -0.0334293 0
M  V30 603 C 54.4396 1.9628 0.654347 0
M  V30 604 C 54.8546 0.910138 1.65414 0
M  V30 605 O 54.2116 -0.107595 1.82183 0
M  V30 606 C 54.2626 3.35067 1.35693 0
M  V30 607 O 53.9836 4.36296 0.397191 0
M  V30 608 C 55.4846 3.88439 2.13613 0
M  V30 609 H 52.7046 0.646369 0.180132 0
M  V30 610 H 55.2486 2.04282 -0.0944721 0
M  V30 611 H 53.4036 3.2827 2.05712 0
M  V30 612 H 53.8176 5.1678 0.896597 0
M  V30 613 H 55.2916 4.8788 2.58219 0
M  V30 614 H 55.7686 3.22914 2.97696 0
M  V30 615 H 56.3746 3.98516 1.48543 0
M  V30 616 N 54.6897 -0.239769 1.55765 0
M  V30 617 C 55.9147 -0.988373 1.82335 0
M  V30 618 C 56.3397 -1.77886 0.611421 0
M  V30 619 O 55.6977 -1.75889 -0.439639 0
M  V30 620 C 55.7457 -1.89627 3.06715 0
M  V30 621 O 54.8497 -2.98904 2.84131 0
M  V30 622 H 54.1907 -0.280858 0.601677 0
M  V30 623 H 56.7207 -0.258597 2.02959 0
M  V30 624 H 56.7307 -2.30957 3.36338 0
M  V30 625 H 55.4057 -1.31511 3.9456 0
M  V30 626 H 53.9827 -2.61651 2.65694 0
M  V30 627 N 56.1678 -1.49265 -0.50573 0
M  V30 628 C 57.3928 -1.62478 -1.28902 0
M  V30 629 C 57.8178 -0.294332 -1.85783 0
M  V30 630 O 57.1758 0.737412 -1.65626 0
M  V30 631 C 57.2238 -2.69268 -2.39848 0
M  V30 632 O 56.3278 -2.28113 -3.43567 0
M  V30 633 H 55.6688 -0.54399 -0.380751 0
M  V30 634 H 58.1988 -1.95421 -0.605952 0
M  V30 635 H 58.2088 -2.91291 -2.85681 0
M  V30 636 H 56.8838 -3.65846 -1.97812 0
M  V30 637 H 55.4608 -2.16401 -3.03685 0
M  V30 638 N 57.6459 0.756429 -1.3826 0
M  V30 639 C 58.5759 1.88374 -1.37976 0
M  V30 640 C 59.5569 1.68311 -0.246082 0
M  V30 641 O 60.7419 1.88944 -0.44874 0
M  V30 642 C 57.8719 3.25864 -1.20125 0
M  V30 643 C 56.8259 3.60523 -2.30666 0
M  V30 644 C 56.1519 4.9672 -1.97923 0
M  V30 645 C 57.4519 3.65692 -3.72916 0
M  V30 646 H 59.1459 1.88869 -2.32312 0
M  V30 647 H 56.6919 0.907272 -1.11824 0
M  V30 648 H 58.6449 4.0438 -1.18552 0
M  V30 649 H 57.3689 3.25841 -0.222498 0
M  V30 650 H 56.0279 2.84324 -2.3142 0
M  V30 651 H 55.6759 4.93253 -0.985393 0
M  V30 652 H 55.3759 5.20878 -2.71955 0
M  V30 653 H 56.8999 5.77618 -1.97964 0
M  V30 654 H 58.3139 4.34328 -3.74208 0
M  V30 655 H 56.7109 4.01358 -4.4613 0
M  V30 656 H 57.7809 2.65987 -4.05436 0
M  V30 657 N 59.124 1.23083 0.984299 0
M  V30 658 C 60.371 1.06057 1.72505 0
M  V30 659 C 60.699 -0.403105 1.90277 0
M  V30 660 O 59.954 -1.3149 1.44944 0
M  V30 661 C 60.253 1.72673 3.1292 0
M  V30 662 C 59.919 3.22586 3.15038 0
M  V30 663 C 58.581 3.63489 3.15324 0
M  V30 664 C 60.933 4.185 3.10657 0
M  V30 665 C 58.261 4.98772 3.08939 0
M  V30 666 C 60.613 5.53769 3.05814 0
M  V30 667 C 59.277 5.94041 3.04419 0
M  V30 668 H 58.547 0.388091 0.631242 0
M  V30 669 H 61.194 1.52963 1.15215 0
M  V30 670 H 59.499 1.18116 3.73572 0
M  V30 671 H 61.196 1.56982 3.68996 0
M  V30 672 H 57.786 2.90022 3.15571 0
M  V30 673 H 61.97 3.87911 3.09579 0
M  V30 674 H 57.226 5.29193 3.0621 0
M  V30 675 H 61.4 6.27808 3.0138 0
M  V30 676 H 59.027 6.98833 2.99227 0
M  V30 677 N 60.6021 -1.18246 1.0419 0
M  V30 678 C 61.5321 -2.24127 0.654914 0
M  V30 679 C 62.5131 -1.66617 -0.342451 0
M  V30 680 O 63.6981 -1.92924 -0.222277 0
M  V30 681 C 60.8281 -3.47295 0.0183757 0
M  V30 682 C 59.7821 -4.17563 0.939414 0
M  V30 683 C 59.1081 -5.34438 0.167286 0
M  V30 684 C 60.4081 -4.70917 2.25908 0
M  V30 685 H 62.1021 -2.56753 1.54007 0
M  V30 686 H 59.6481 -1.23414 0.74195 0
M  V30 687 H 61.6011 -4.20572 -0.264082 0
M  V30 688 H 60.3251 -3.13907 -0.901664 0
M  V30 689 H 58.9841 -3.46186 1.20628 0
M  V30 690 H 58.6321 -4.97298 -0.7552 0
M  V30 691 H 58.3321 -5.82388 0.780901 0
M  V30 692 H 59.8561 -6.10504 -0.108125 0
M  V30 693 H 61.2701 -5.35882 2.03724 0
M  V30 694 H 59.6671 -5.29406 2.82577 0
M  V30 695 H 60.7371 -3.88272 2.9047 0
M  V30 696 N 62.0802 -0.821533 -1.34494 0
M  V30 697 C 63.4912 -0.467956 -1.8074 0
M  V30 698 C 63.8422 1.01151 -1.68116 0
M  V30 699 O 62.9672 1.78707 -1.22036 0
M  V30 700 C 63.5622 -0.842627 -3.28154 0
M  V30 701 C 62.1212 -0.541439 -3.72485 0
M  V30 702 C 61.2682 -1.06028 -2.56229 0
M  V30 703 H 64.2192 -1.01183 -1.22261 0
M  V30 704 H 64.2402 -0.145876 -3.8022 0
M  V30 705 H 63.7522 -1.91945 -3.37311 0
M  V30 706 H 61.8532 0.526034 -3.68868 0
M  V30 707 H 61.9662 -1.08453 -4.66663 0
M  V30 708 H 60.3302 -0.481892 -2.501 0
M  V30 709 H 61.1132 -2.14352 -2.68157 0
M  V30 710 N 63.5583 1.46682 -0.576371 0
M  V30 711 C 64.4883 2.33028 0.148397 0
M  V30 712 C 65.4693 1.44961 0.889956 0
M  V30 713 O 66.6543 1.73789 0.866662 0
M  V30 714 C 63.7843 3.27117 1.1667 0
M  V30 715 C 62.7383 4.24575 0.540386 0
M  V30 716 C 62.0643 5.08126 1.6647 0
M  V30 717 C 63.3643 5.19722 -0.518331 0
M  V30 718 H 65.0583 2.93875 -0.572509 0
M  V30 719 H 62.6043 1.41315 -0.276768 0
M  V30 720 H 64.5573 3.86374 1.68204 0
M  V30 721 H 63.2813 2.64364 1.9178 0
M  V30 722 H 61.9403 3.66571 0.0461769 0
M  V30 723 H 61.5883 4.41762 2.40531 0
M  V30 724 H 61.2883 5.74122 1.25131 0
M  V30 725 H 62.8123 5.70246 2.18293 0
M  V30 726 H 64.2263 5.73232 -0.0883058 0
M  V30 727 H 62.6233 5.94026 -0.851679 0
M  V30 728 H 63.6933 4.64037 -1.40703 0
M  V30 729 N 65.0364 0.313813 1.54444 0
M  V30 730 C 66.2614 -0.296681 2.05267 0
M  V30 731 C 66.6864 -1.45757 1.18897 0
M  V30 732 O 66.0444 -1.80239 0.195886 0
M  V30 733 C 66.0924 -0.71831 3.53373 0
M  V30 734 O 65.1964 -1.82175 3.69981 0
M  V30 735 H 64.5374 -0.0554061 0.661684 0
M  V30 736 H 67.0674 0.459387 1.99376 0
M  V30 737 H 67.0774 -1.00364 3.95463 0
M  V30 738 H 65.7524 0.130821 4.15694 0
M  V30 739 H 64.3294 -1.53598 3.39797 0
M  V30 740 N 66.5145 -1.57545 0.0417849 0
M  V30 741 C 67.7625 -1.91937 -0.632829 0
M  V30 742 C 68.0835 -0.919978 -1.71934 0
M  V30 743 O 67.3535 0.0366064 -1.95866 0
M  V30 744 H 65.9335 -0.708493 -0.236742 0
M  V30 745 H 68.5955 -1.9468 0.0925745 0
M  V30 746 H 67.6915 -2.92912 -1.07746 0
M  V30 747 N 67.9926 0.231505 -1.5589 0
M  V30 748 C 68.9246 1.31006 -1.8807 0
M  V30 749 C 69.9376 1.43539 -0.768145 0
M  V30 750 O 71.1266 1.44614 -1.04638 0
M  V30 751 C 68.2266 2.68688 -2.06543 0
M  V30 752 C 67.3996 2.78228 -3.37502 0
M  V30 753 C 66.4586 3.96857 -3.4553 0
M  V30 754 O 65.4846 3.85662 -4.18633 0
M  V30 755 N 66.6866 5.1072 -2.75944 0
M  V30 756 H 69.4516 1.03731 -2.81176 0
M  V30 757 H 67.0126 0.421573 -1.56315 0
M  V30 758 H 69.0046 3.46412 -2.09239 0
M  V30 759 H 67.5746 2.88605 -1.20109 0
M  V30 760 H 66.7946 1.87059 -3.46991 0
M  V30 761 H 68.0826 2.81564 -4.23791 0
M  V30 762 H 67.4806 5.2271 -2.16311 0
M  V30 763 H 66.0376 5.86523 -2.84314 0
M  V30 764 N 69.4707 1.49531 0.497807 0
M  V30 765 C 70.7167 1.60388 1.25089 0
M  V30 766 C 71.0717 0.288328 1.90227 0
M  V30 767 O 70.3647 -0.711706 1.77891 0
M  V30 768 C 70.5587 2.70252 2.33878 0
M  V30 769 C 70.3877 4.12363 1.79408 0
M  V30 770 C 69.1577 4.7911 1.60566 0
M  V30 771 C 71.3557 4.97491 1.30412 0
M  V30 772 N 69.3377 6.05525 1.01059 0
M  V30 773 C 70.7087 6.14411 0.830595 0
M  V30 774 C 72.7637 4.83466 1.19015 0
M  V30 775 C 71.4667 7.1885 0.254371 0
M  V30 776 C 73.4927 5.88057 0.627892 0
M  V30 777 C 72.8547 7.04208 0.16461 0
M  V30 778 H 68.9537 0.641246 0.447579 0
M  V30 779 H 71.5377 1.86549 0.557441 0
M  V30 780 H 69.7087 2.45858 3.0068 0
M  V30 781 H 71.4407 2.70613 3.00917 0
M  V30 782 H 68.1957 4.35961 1.85026 0
M  V30 783 H 68.6197 6.73028 0.732236 0
M  V30 784 H 73.2617 3.93978 1.53431 0
M  V30 785 H 70.9797 8.08036 -0.102052 0
M  V30 786 H 74.5657 5.79266 0.542444 0
M  V30 787 H 73.4457 7.83757 -0.263669 0
M  V30 788 N 70.9488 -0.749086 1.3866 0
M  V30 789 C 71.8968 -1.88428 1.36373 0
M  V30 790 C 72.8908 -1.67561 0.248929 0
M  V30 791 O 74.0968 -1.75074 0.41821 0
M  V30 792 H 70.4718 -0.620023 0.42553 0
M  V30 793 H 72.4428 -1.87473 2.32156 0
M  V30 794 C 71.1918 -3.25961 1.21014 0
M  V30 795 H 70.5148 -3.42607 2.06059 0
M  V30 796 H 71.9548 -4.05625 1.23469 0
M  V30 797 C 70.4138 -3.36799 -0.0825941 0
M  V30 798 O 70.9438 -3.87517 -1.05797 0
M  V30 799 N 69.1498 -2.90258 -0.140939 0
M  V30 800 H 68.6968 -2.49174 0.653477 0
M  V30 801 H 68.6548 -2.97889 -1.00545 0
M  V30 802 N 72.4269 -1.23603 -0.977757 0
M  V30 803 C 73.6739 -1.06971 -1.71941 0
M  V30 804 C 74.0019 0.393009 -1.90488 0
M  V30 805 O 73.2569 1.30719 -1.4564 0
M  V30 806 C 73.5559 -1.7433 -3.11999 0
M  V30 807 C 73.2219 -3.24252 -3.13323 0
M  V30 808 C 71.8839 -3.65156 -3.13392 0
M  V30 809 C 74.2359 -4.20141 -3.08433 0
M  V30 810 C 71.5639 -5.00403 -3.0629 0
M  V30 811 C 73.9159 -5.55384 -3.02873 0
M  V30 812 C 72.5799 -5.95647 -3.01265 0
M  V30 813 H 71.8499 -0.391433 -0.629175 0
M  V30 814 H 74.4969 -1.53572 -1.14403 0
M  V30 815 H 72.8019 -1.20096 -3.7294 0
M  V30 816 H 74.4989 -1.58936 -3.68158 0
M  V30 817 H 71.0889 -2.91692 -3.14029 0
M  V30 818 H 75.2729 -3.89547 -3.07517 0
M  V30 819 H 70.5289 -5.3081 -3.03399 0
M  V30 820 H 74.7029 -6.29398 -2.98046 0
M  V30 821 H 72.3299 -7.0041 -2.95516 0
M  V30 822 N 73.905 1.17692 -1.04816 0
M  V30 823 C 74.855 2.1952 -0.616042 0
M  V30 824 C 75.839 1.57147 0.345485 0
M  V30 825 O 77.031 1.76245 0.163325 0
M  V30 826 C 74.16 3.43298 0.0116917 0
M  V30 827 C 73.246 4.12777 -0.973435 0
M  V30 828 N 73.637 4.5814 -2.14339 0
M  V30 829 C 71.935 4.38747 -0.80108 0
M  V30 830 C 72.636 5.11713 -2.7663 0
M  V30 831 N 71.612 5.03686 -2.04453 0
M  V30 832 H 75.414 2.52293 -1.5075 0
M  V30 833 H 72.928 1.3398 -0.917776 0
M  V30 834 H 74.925 4.15519 0.339006 0
M  V30 835 H 73.585 3.12018 0.898593 0
M  V30 836 H 74.596 4.52349 -2.52191 0
M  V30 837 H 71.273 4.17485 0.0350934 0
M  V30 838 H 72.663 5.56962 -3.75823 0
M  V30 839 N 75.3831 0.828654 1.34056 0
M  V30 840 C 76.6301 0.419458 1.98108 0
M  V30 841 C 76.9581 -1.01886 1.65679 0
M  V30 842 O 76.2131 -1.72539 0.923512 0
M  V30 843 C 76.5121 0.575226 3.52741 0
M  V30 844 C 76.1781 1.98012 4.05095 0
M  V30 845 C 74.8401 2.36442 4.19104 0
M  V30 846 C 77.1921 2.89824 4.33188 0
M  V30 847 C 74.5201 3.66009 4.58535 0
M  V30 848 C 76.8721 4.1886 4.74066 0
M  V30 849 C 75.5361 4.5726 4.86281 0
M  V30 850 H 74.8061 0.153491 0.724929 0
M  V30 851 H 77.4531 1.05371 1.59904 0
M  V30 852 H 75.7581 -0.142385 3.91541 0
M  V30 853 H 77.4551 0.239057 4.00287 0
M  V30 854 H 74.0451 1.67162 3.94658 0
M  V30 855 H 78.2291 2.61375 4.21897 0
M  V30 856 H 73.4851 3.95579 4.66184 0
M  V30 857 H 77.6591 4.90086 4.94761 0
M  V30 858 H 75.2861 5.57707 5.16592 0
M  V30 859 N 76.8612 -1.46375 0.584142 0
M  V30 860 C 78.1082 -2.02378 0.0702675 0
M  V30 861 C 78.4362 -1.45545 -1.29023 0
M  V30 862 O 77.6912 -0.610967 -1.85918 0
M  V30 863 C 77.9902 -3.57373 -0.0439342 0
M  V30 864 C 77.6562 -4.33252 1.24915 0
M  V30 865 C 76.3182 -4.53701 1.60341 0
M  V30 866 C 78.6702 -4.7681 2.1048 0
M  V30 867 C 75.9982 -5.1496 2.81128 0
M  V30 868 C 78.3502 -5.39404 3.30494 0
M  V30 869 C 77.0142 -5.5808 3.66201 0
M  V30 870 H 76.2842 -0.740554 0.0257127 0
M  V30 871 H 78.9312 -1.75727 0.761065 0
M  V30 872 H 77.2362 -3.83169 -0.817869 0
M  V30 873 H 78.9332 -3.98384 -0.457318 0
M  V30 874 H 75.5232 -4.17633 0.963364 0
M  V30 875 H 79.7072 -4.60766 1.84414 0
M  V30 876 H 74.9632 -5.27611 3.08928 0
M  V30 877 H 79.1372 -5.72114 3.97063 0
M  V30 878 H 76.7642 -6.05318 4.59885 0
M  V30 879 N 78.3393 -0.321999 -1.54275 0
M  V30 880 C 79.6163 0.335232 -1.92706 0
M  V30 881 C 79.9963 1.70006 -1.25145 0
M  V30 882 O 79.3443 2.25067 -0.394596 0
M  V30 883 C 79.5543 0.429008 -3.46353 0
M  V30 884 C 80.9023 0.690029 -4.18956 0
M  V30 885 O 81.9263 0.511992 -3.52501 0
M  V30 886 O 80.7853 1.03338 -5.36641 0
M  V30 887 H 77.8793 0.191143 -0.804608 0
M  V30 888 H 80.4253 -0.3716 -1.65581 0
M  V30 889 H 79.1973 -0.529611 -3.87699 0
M  V30 890 H 78.8203 1.18348 -3.79578 0
M  V30 891 N 79.8174 1.5752 -0.0501392 0
M  V30 892 C 80.7674 2.07981 0.934231 0
M  V30 893 C 81.7514 0.984745 1.27246 0
M  V30 894 O 82.9434 1.24809 1.25506 0
M  V30 895 C 80.0724 2.62751 2.20945 0
M  V30 896 C 79.1584 3.79225 1.89865 0
M  V30 897 N 79.5494 4.89036 1.29142 0
M  V30 898 C 77.8474 3.88111 2.19741 0
M  V30 899 C 78.5484 5.70084 1.15669 0
M  V30 900 N 77.5244 5.17659 1.65923 0
M  V30 901 H 81.3264 2.90277 0.460053 0
M  V30 902 H 78.8404 1.61665 0.15434 0
M  V30 903 H 80.8374 2.97205 2.9236 0
M  V30 904 H 79.4974 1.81894 2.6897 0
M  V30 905 H 80.5084 5.08854 0.963756 0
M  V30 906 H 77.1854 3.18194 2.70293 0
M  V30 907 H 78.5754 6.68395 0.685356 0
M  V30 908 N 81.2955 -0.223234 1.56011 0
M  V30 909 C 82.7065 -0.790368 1.69145 0
M  V30 910 C 83.0575 -1.85055 0.651845 0
M  V30 911 O 82.1825 -2.15498 -0.197359 0
M  V30 912 C 82.7775 -1.4404 3.06656 0
M  V30 913 C 81.3365 -1.95494 3.2165 0
M  V30 914 C 80.4835 -0.814506 2.65068 0
M  V30 915 H 83.4345 0.00139011 1.587 0
M  V30 916 H 83.4555 -2.30916 3.0242 0
M  V30 917 H 82.9675 -0.668543 3.82298 0
M  V30 918 H 81.0685 -2.75487 2.50874 0
M  V30 919 H 81.1815 -2.13607 4.28846 0
M  V30 920 H 79.5455 -1.22137 2.23505 0
M  V30 921 H 80.3285 -0.0553515 3.43255 0
M  V30 922 N 82.7736 -1.49793 -0.48987 0
M  V30 923 C 83.7036 -1.70201 -1.59856 0
M  V30 924 C 84.6846 -0.55076 -1.60937 0
M  V30 925 O 85.8696 -0.787841 -1.77501 0
M  V30 926 C 82.9996 -1.77882 -2.98287 0
M  V30 927 C 81.9536 -2.92907 -3.12073 0
M  V30 928 C 81.2796 -2.85712 -4.51965 0
M  V30 929 C 82.5796 -4.3369 -2.91051 0
M  V30 930 H 84.2736 -2.63025 -1.43032 0
M  V30 931 H 81.8196 -1.26574 -0.686664 0
M  V30 932 H 83.7726 -1.90744 -3.75759 0
M  V30 933 H 82.4966 -0.816653 -3.16225 0
M  V30 934 H 81.1556 -2.79665 -2.37029 0
M  V30 935 H 80.8036 -1.8738 -4.66795 0
M  V30 936 H 80.5036 -3.62921 -4.62128 0
M  V30 937 H 82.0276 -3.00598 -5.31482 0
M  V30 938 H 83.4416 -4.47555 -3.58284 0
M  V30 939 H 81.8386 -5.12205 -3.12675 0
M  V30 940 H 82.9086 -4.47362 -1.87071 0
M  V30 941 N 84.2517 0.741722 -1.39055 0
M  V30 942 C 85.1837 1.8657 -1.33133 0
M  V30 943 C 86.1967 1.61001 -0.241329 0
M  V30 944 O 87.3857 1.7136 -0.499784 0
M  V30 945 C 84.4857 3.22457 -1.04283 0
M  V30 946 C 83.6587 3.75435 -2.24427 0
M  V30 947 C 82.7177 4.89867 -1.92138 0
M  V30 948 O 81.7437 5.03879 -2.64754 0
M  V30 949 N 82.9457 5.73738 -0.88347 0
M  V30 950 H 85.7107 1.92156 -2.29991 0
M  V30 951 H 83.2717 0.922172 -1.3307 0
M  V30 952 H 85.2637 3.9657 -0.807128 0
M  V30 953 H 83.8337 3.12181 -0.161807 0
M  V30 954 H 83.0537 2.92751 -2.6399 0
M  V30 955 H 84.3417 4.07563 -3.04581 0
M  V30 956 H 83.7397 5.64999 -0.281517 0
M  V30 957 H 82.2967 6.47947 -0.707662 0
M  V30 958 N 85.7298 1.2412 0.971189 0
M  V30 959 C 86.9758 1.08041 1.71625 0
M  V30 960 C 87.3088 -0.380407 1.90438 0
M  V30 961 O 86.5838 -1.28127 1.46334 0
M  V30 962 C 86.8668 1.81682 3.10908 0
M  V30 963 C 86.7198 3.35493 2.99608 0
M  V30 964 C 88.0388 1.58671 4.10501 0
M  V30 965 H 85.1578 0.39388 0.622919 0
M  V30 966 H 87.7998 1.52743 1.13003 0
M  V30 967 H 85.9498 1.43684 3.60953 0
M  V30 968 H 87.6218 3.83068 2.57015 0
M  V30 969 H 85.8648 3.64052 2.35899 0
M  V30 970 H 86.5358 3.82217 3.98264 0
M  V30 971 H 89.0118 1.91719 3.69301 0
M  V30 972 H 87.8878 2.1266 5.06031 0
M  V30 973 H 88.1488 0.524161 4.38982 0
M  V30 974 N 87.2079 -1.17134 1.05439 0
M  V30 975 C 88.6189 -1.69084 0.791676 0
M  V30 976 C 88.9699 -1.83822 -0.685839 0
M  V30 977 O 88.0949 -1.52757 -1.53278 0
M  V30 978 C 88.6899 -3.07119 1.4305 0
M  V30 979 C 87.2489 -3.56225 1.21577 0
M  V30 980 C 86.3959 -2.32421 1.51247 0
M  V30 981 H 89.3469 -1.01617 1.219 0
M  V30 982 H 89.3679 -3.71087 0.84112 0
M  V30 983 H 88.8799 -2.9636 2.50584 0
M  V30 984 H 86.9809 -3.72257 0.159787 0
M  V30 985 H 87.0939 -4.38837 1.92246 0
M  V30 986 H 85.4579 -2.3701 0.932653 0
M  V30 987 H 86.2409 -2.24268 2.5992 0
M  V30 988 N 88.686 -0.835752 -1.33615 0
M  V30 989 C 89.596 -0.269088 -2.33052 0
M  V30 990 C 90.612 0.603251 -1.63208 0
M  V30 991 O 91.788 0.508112 -1.94885 0
M  V30 992 C 88.853 0.549091 -3.42324 0
M  V30 993 C 87.914 -0.347156 -4.27894 0
M  V30 994 C 87.147 0.43207 -5.31948 0
M  V30 995 O 87.37 1.66409 -5.45586 0
M  V30 996 O 86.304 -0.192298 -6.01593 0
M  V30 997 H 90.13 -1.09243 -2.83372 0
M  V30 998 H 87.715 -0.598198 -1.36901 0
M  V30 999 H 89.597 1.01414 -4.09015 0
M  V30 1000 H 88.272 1.34955 -2.94226 0
M  V30 1001 H 87.179 -0.859979 -3.64081 0
M  V30 1002 H 88.512 -1.1123 -4.79467 0
M  V30 1003 N 90.1641 1.46063 -0.591896 0
M  V30 1004 C 91.1271 2.28854 0.125973 0
M  V30 1005 C 92.1271 1.38903 0.810107 0
M  V30 1006 O 93.3171 1.61186 0.66066 0
M  V30 1007 C 90.4491 3.19526 1.1881 0
M  V30 1008 H 91.6421 2.93802 -0.601717 0
M  V30 1009 H 89.1951 1.52325 -0.350254 0
M  V30 1010 H 89.9301 2.59345 1.94707 0
M  V30 1011 H 89.7151 3.85766 0.701936 0
M  V30 1012 H 91.2051 3.81817 1.69132 0
M  V30 1013 N 91.6422 0.330177 1.54103 0
M  V30 1014 C 92.8892 -0.270405 2.00686 0
M  V30 1015 C 93.2172 -1.51621 1.21825 0
M  V30 1016 O 92.4722 -1.93536 0.29025 0
M  V30 1017 C 92.7712 -0.643134 3.51566 0
M  V30 1018 C 92.4372 0.504251 4.48072 0
M  V30 1019 C 91.0992 0.819163 4.74176 0
M  V30 1020 C 93.4512 1.27465 5.05373 0
M  V30 1021 C 90.7792 1.90708 5.5484 0
M  V30 1022 C 93.1312 2.35271 5.87223 0
M  V30 1023 C 91.7952 2.67336 6.11627 0
M  V30 1024 H 91.0652 -0.0989482 0.734364 0
M  V30 1025 H 93.7122 0.455324 1.86008 0
M  V30 1026 H 92.0172 -1.44938 3.64006 0
M  V30 1027 H 93.7142 -1.11949 3.85056 0
M  V30 1028 H 90.3042 0.248733 4.27878 0
M  V30 1029 H 94.4882 1.04462 4.85182 0
M  V30 1030 H 89.7442 2.15991 5.71977 0
M  V30 1031 H 93.9182 2.95405 6.30641 0
M  V30 1032 H 91.5452 3.51763 6.73919 0
M  V30 1033 N 93.1203 -1.57491 0.0584922 0
M  V30 1034 C 94.3483 -1.97296 -0.623037 0
M  V30 1035 C 94.7633 -0.936338 -1.63946 0
M  V30 1036 O 94.1203 0.0785981 -1.82331 0
M  V30 1037 C 94.1713 -3.37183 -1.30345 0
M  V30 1038 O 93.8923 -4.36872 -0.32773 0
M  V30 1039 C 95.3933 -3.91788 -2.07406 0
M  V30 1040 H 92.6133 -0.649153 -0.169826 0
M  V30 1041 H 95.1573 -2.04106 0.12696 0
M  V30 1042 H 93.3123 -3.31502 -2.00463 0
M  V30 1043 H 93.7263 -5.18141 -0.814269 0
M  V30 1044 H 95.2003 -4.91926 -2.50425 0
M  V30 1045 H 95.6773 -3.27609 -2.92521 0
M  V30 1046 H 96.2833 -4.00829 -1.42184 0
M  V30 1047 N 94.5984 0.214957 -1.56127 0
M  V30 1048 C 95.8234 0.95924 -1.83884 0
M  V30 1049 C 96.2484 1.7689 -0.639644 0
M  V30 1050 O 95.6064 1.76566 0.411601 0
M  V30 1051 C 95.6544 1.84723 -3.09693 0
M  V30 1052 O 94.7584 2.94346 -2.8885 0
M  V30 1053 H 94.0994 0.27125 -0.606069 0
M  V30 1054 H 96.6294 0.226276 -2.03345 0
M  V30 1055 H 96.6394 2.25576 -3.39969 0
M  V30 1056 H 95.3144 1.25218 -3.96602 0
M  V30 1057 H 93.8914 2.57391 -2.69823 0
M  V30 1058 N 96.0765 1.50051 0.48192 0
M  V30 1059 C 96.9865 1.7089 1.60728 0
M  V30 1060 C 98.0025 0.591788 1.63627 0
M  V30 1061 O 99.1785 0.868817 1.81696 0
M  V30 1062 C 96.2435 1.78855 2.97005 0
M  V30 1063 C 95.3045 3.02537 3.04581 0
M  V30 1064 C 94.5375 3.10112 4.34357 0
M  V30 1065 O 94.7605 2.24765 5.24249 0
M  V30 1066 O 93.6945 4.02747 4.47301 0
M  V30 1067 H 97.5205 2.66264 1.46072 0
M  V30 1068 H 95.1055 1.34018 0.660264 0
M  V30 1069 H 96.9875 1.86336 3.77964 0
M  V30 1070 H 95.6625 0.866628 3.11883 0
M  V30 1071 H 94.5695 3.00563 2.22739 0
M  V30 1072 H 95.9025 3.94272 2.94636 0
M  V30 1073 N 97.5546 -0.734337 1.39446 0
M  V30 1074 C 98.4846 -1.86155 1.40955 0
M  V30 1075 C 99.4656 -1.67898 0.272827 0
M  V30 1076 O 100.651 -1.88207 0.478743 0
M  V30 1077 C 97.7806 -3.23912 1.25294 0
M  V30 1078 C 96.7346 -3.56808 2.36373 0
M  V30 1079 C 96.0606 -4.93508 2.058 0
M  V30 1080 C 97.3606 -3.59713 3.78687 0
M  V30 1081 H 99.0546 -1.8515 2.35287 0
M  V30 1082 H 96.6006 -0.889367 1.13253 0
M  V30 1083 H 98.5536 -4.02443 1.2497 0
M  V30 1084 H 97.2776 -3.25446 0.274308 0
M  V30 1085 H 95.9366 -2.80606 2.35914 0
M  V30 1086 H 95.5846 -4.91623 1.06374 0
M  V30 1087 H 95.2846 -5.16486 2.80208 0
M  V30 1088 H 96.8086 -5.74396 2.07128 0
M  V30 1089 H 98.2226 -4.2832 3.81071 0
M  V30 1090 H 96.6196 -3.94209 4.52459 0
M  V30 1091 H 97.6896 -2.59504 4.09617 0
M  V30 1092 N 99.0327 -1.24633 -0.964593 0
M  V30 1093 C 99.9657 -0.984662 -2.05863 0
M  V30 1094 C 100.944 0.0826554 -1.6239 0
M  V30 1095 O 102.128 -0.0549296 -1.8842 0
M  V30 1096 C 99.2547 -0.486529 -3.35187 0
M  V30 1097 C 98.3007 -1.54286 -3.97615 0
M  V30 1098 S 99.1337 -3.12513 -4.34851 0
M  V30 1099 C 100.29 -2.6441 -5.67308 0
M  V30 1100 H 100.523 -1.91104 -2.27743 0
M  V30 1101 H 98.0557 -1.08052 -1.10291 0
M  V30 1102 H 100.014 -0.205757 -4.09984 0
M  V30 1103 H 98.6747 0.419186 -3.1129 0
M  V30 1104 H 97.8677 -1.14481 -4.90826 0
M  V30 1105 H 97.4697 -1.7738 -3.2926 0
M  V30 1106 H 99.7617 -2.07416 -6.44969 0
M  V30 1107 H 100.705 -3.56222 -6.11973 0
M  V30 1108 H 101.113 -2.04734 -5.26065 0
M  V30 1109 N 100.511 1.16574 -1.06058 0
M  V30 1110 C 101.474 2.19085 -0.673392 0
M  V30 1111 C 102.474 1.5835 0.279648 0
M  V30 1112 O 103.664 1.74088 0.0623488 0
M  V30 1113 C 100.796 3.40899 0.00954234 0
M  V30 1114 H 101.989 2.54853 -1.58081 0
M  V30 1115 H 99.5418 1.30808 -0.855516 0
M  V30 1116 H 100.277 3.10684 0.929826 0
M  V30 1117 H 100.062 3.86233 -0.67573 0
M  V30 1118 H 101.552 4.1675 0.266245 0
M  V30 1119 N 101.989 0.842826 1.3317 0
M  V30 1120 C 103.266 0.362216 1.92217 0
M  V30 1121 C 103.646 -1.15289 1.76838 0
M  V30 1122 O 102.994 -1.96914 1.15919 0
M  V30 1123 C 103.204 0.813495 3.39387 0
M  V30 1124 C 104.552 0.823804 4.16532 0
M  V30 1125 O 105.576 0.757358 3.48055 0
M  V30 1126 O 104.435 0.915193 5.38782 0
M  V30 1127 H 101.529 0.103317 0.820521 0
M  V30 1128 H 104.075 0.928942 1.42017 0
M  V30 1129 H 102.847 1.85624 3.4447 0
M  V30 1130 H 102.47 0.223561 3.96971 0
M  V30 1131 N 103.467 -1.45747 0.599634 0
M  V30 1132 C 104.713 -2.03153 0.100263 0
M  V30 1133 C 105.068 -1.46073 -1.25221 0
M  V30 1134 O 104.361 -0.622878 -1.81193 0
M  V30 1135 C 104.555 -3.57399 -0.00602758 0
M  V30 1136 C 104.384 -4.2944 1.3346 0
M  V30 1137 C 103.154 -4.6768 1.91321 0
M  V30 1138 C 105.352 -4.61905 2.2616 0
M  V30 1139 N 103.334 -5.24544 3.18946 0
M  V30 1140 C 104.705 -5.19518 3.3838 0
M  V30 1141 C 106.76 -4.43841 2.25631 0
M  V30 1142 C 105.463 -5.60972 4.50226 0
M  V30 1143 C 107.489 -4.86322 3.36518 0
M  V30 1144 C 106.851 -5.44021 4.4746 0
M  V30 1145 H 102.95 -0.777911 0.0798696 0
M  V30 1146 H 105.534 -1.77674 0.796244 0
M  V30 1147 H 103.705 -3.82556 -0.671212 0
M  V30 1148 H 105.437 -4.01457 -0.51133 0
M  V30 1149 H 102.192 -4.5098 1.44617 0
M  V30 1150 H 102.616 -5.57483 3.84112 0
M  V30 1151 H 107.258 -3.98552 1.41123 0
M  V30 1152 H 104.976 -6.0523 5.35464 0
M  V30 1153 H 108.562 -4.74084 3.37247 0
M  V30 1154 H 107.442 -5.76289 5.31846 0
M  V30 1155 N 104.945 -0.338344 -1.53925 0
M  V30 1156 C 106.193 0.259245 -2.0043 0
M  V30 1157 C 106.514 1.51484 -1.22791 0
M  V30 1158 O 105.784 1.93037 -0.33368 0
M  V30 1159 H 104.364 0.0987845 -0.740439 0
M  V30 1160 H 107.026 -0.458302 -1.89435 0
M  V30 1161 H 106.122 0.505334 -3.07982 0
M  V30 1162 N 106.423 1.57458 -0.0668435 0
M  V30 1163 C 107.373 2.0896 0.912119 0
M  V30 1164 C 108.357 0.998186 1.26195 0
M  V30 1165 O 109.549 1.26133 1.24175 0
M  V30 1166 C 106.678 2.6508 2.18145 0
M  V30 1167 C 105.764 3.81218 1.85832 0
M  V30 1168 N 106.155 4.90378 1.23948 0
M  V30 1169 C 104.453 3.9042 2.15612 0
M  V30 1170 C 105.154 5.71279 1.09616 0
M  V30 1171 N 104.13 5.19389 1.60423 0
M  V30 1172 H 107.932 2.90749 0.42924 0
M  V30 1173 H 105.446 1.6182 0.137184 0
M  V30 1174 H 107.443 3.0029 2.89192 0
M  V30 1175 H 106.103 1.84736 2.67025 0
M  V30 1176 H 107.114 5.09847 0.909731 0
M  V30 1177 H 103.791 3.21043 2.66903 0
M  V30 1178 H 105.181 6.69085 0.614425 0
M  V30 1179 N 107.901 -0.206675 1.56239 0
M  V30 1180 C 109.15 -0.926964 1.79138 0
M  V30 1181 C 109.463 -1.84901 0.638043 0
M  V30 1182 O 110.669 -2.60906 0.751033 0
M  V30 1183 C 109.125 -1.6986 3.17294 0
M  V30 1184 C 108.733 -0.821956 4.40395 0
M  V30 1185 C 110.477 -2.40922 3.4951 0
M  V30 1186 C 108.384 -1.59179 5.69575 0
M  V30 1187 H 107.314 -0.349864 0.667915 0
M  V30 1188 H 109.965 -0.180487 1.8261 0
M  V30 1189 H 108.347 -2.48853 3.08039 0
M  V30 1190 H 109.521 -0.0715019 4.60745 0
M  V30 1191 H 107.836 -0.222741 4.15804 0
M  V30 1192 H 110.433 -2.99047 4.43255 0
M  V30 1193 H 110.776 -3.14542 2.72707 0
M  V30 1194 H 111.309 -1.68905 3.60161 0
M  V30 1195 H 108.048 -0.898589 6.49312 0
M  V30 1196 H 107.568 -2.31648 5.53262 0
M  V30 1197 H 109.247 -2.14862 6.10281 0
M  V30 1198 N 109.379 -1.50304 -0.473955 0
M  V30 1199 C 110.607 -1.64902 -1.24959 0
M  V30 1200 C 111.022 -0.331198 -1.85872 0
M  V30 1201 O 110.379 0.68652 -1.69095 0
M  V30 1202 C 110.43 -2.73803 -2.36038 0
M  V30 1203 O 110.151 -4.00477 -1.77624 0
M  V30 1204 C 111.652 -2.99349 -3.26964 0
M  V30 1205 H 108.872 -0.554383 -0.378022 0
M  V30 1206 H 111.416 -1.9651 -0.566054 0
M  V30 1207 H 109.571 -2.44898 -3.00173 0
M  V30 1208 H 109.985 -4.60678 -2.5075 0
M  V30 1209 H 111.459 -3.79217 -4.01121 0
M  V30 1210 H 111.936 -2.10307 -3.85574 0
M  V30 1211 H 112.542 -3.29774 -2.68569 0
M  V30 1212 N 110.857 0.726932 -1.39834 0
M  V30 1213 C 112.103 1.48884 -1.377 0
M  V30 1214 C 112.436 1.94185 0.0244852 0
M  V30 1215 O 111.711 1.67361 0.990986 0
M  V30 1216 C 111.994 2.72288 -2.3565 0
M  V30 1217 C 111.847 2.32956 -3.84775 0
M  V30 1218 C 113.166 3.74414 -2.31306 0
M  V30 1219 H 110.285 0.540062 -0.5015 0
M  V30 1220 H 112.927 0.830547 -1.70886 0
M  V30 1221 H 111.077 3.28457 -2.07481 0
M  V30 1222 H 112.749 1.82356 -4.23726 0
M  V30 1223 H 110.992 1.65088 -4.01159 0
M  V30 1224 H 111.663 3.21362 -4.4881 0
M  V30 1225 H 114.139 3.27849 -2.56231 0
M  V30 1226 H 113.015 4.58414 -3.01907 0
M  V30 1227 H 113.276 4.21909 -1.32081 0
M  V30 1228 N 112.336 1.25143 0.95797 0
M  V30 1229 C 113.747 1.08851 1.51685 0
M  V30 1230 C 114.098 -0.33687 1.93286 0
M  V30 1231 O 113.223 -1.22644 1.7829 0
M  V30 1232 C 113.818 1.96978 2.75654 0
M  V30 1233 C 112.377 1.84881 3.27866 0
M  V30 1234 C 111.524 1.91329 2.0072 0
M  V30 1235 H 114.475 1.38478 0.77522 0
M  V30 1236 H 114.496 1.5078 3.4935 0
M  V30 1237 H 114.008 3.00712 2.45345 0
M  V30 1238 H 112.109 0.840182 3.63004 0
M  V30 1239 H 112.222 2.6951 3.96107 0
M  V30 1240 H 110.586 1.35174 2.15871 0
M  V30 1241 H 111.369 2.96661 1.72764 0
M  V30 1242 N 113.814 -1.1601 1.06675 0
M  V30 1243 C 114.777 -2.18724 0.685001 0
M  V30 1244 C 115.777 -1.58496 -0.271246 0
M  V30 1245 O 116.967 -1.74119 -0.0531156 0
M  V30 1246 C 114.099 -3.40899 0.00853648 0
M  V30 1247 H 115.292 -2.54011 1.59431 0
M  V30 1248 H 112.845 -1.30352 0.862441 0
M  V30 1249 H 113.58 -3.11173 -0.913337 0
M  V30 1250 H 113.365 -3.8587 0.696204 0
M  V30 1251 H 114.855 -4.16886 -0.24414 0
M  V30 1252 N 115.292 -0.849877 -1.32721 0
M  V30 1253 C 116.225 -0.235903 -2.26977 0
M  V30 1254 C 117.203 0.623355 -1.50177 0
M  V30 1255 O 118.387 0.581207 -1.79316 0
M  V30 1256 C 115.514 0.667712 -3.32053 0
M  V30 1257 C 114.56 -0.11753 -4.26338 0
M  V30 1258 S 115.393 -1.48277 -5.14562 0
M  V30 1259 C 116.549 -0.584741 -6.23163 0
M  V30 1260 H 116.782 -1.03495 -2.78704 0
M  V30 1261 H 114.315 -0.64724 -1.40179 0
M  V30 1262 H 116.273 1.18343 -3.93072 0
M  V30 1263 H 114.934 1.44052 -2.7912 0
M  V30 1264 H 114.127 0.57051 -5.00761 0
M  V30 1265 H 113.729 -0.564668 -3.69713 0
M  V30 1266 H 116.021 0.212968 -6.77165 0
M  V30 1267 H 116.964 -1.29947 -6.96074 0
M  V30 1268 H 117.372 -0.161202 -5.6427 0
M  V30 1269 N 116.77 1.45427 -0.607355 0
M  V30 1270 C 118.016 2.03097 -0.111035 0
M  V30 1271 C 118.371 1.46735 1.24445 0
M  V30 1272 O 117.664 0.632478 1.8086 0
M  V30 1273 C 117.858 3.57398 -0.0129263 0
M  V30 1274 C 117.687 4.28726 -1.35735 0
M  V30 1275 C 116.457 4.66659 -1.93798 0
M  V30 1276 C 118.655 4.60699 -2.28607 0
M  V30 1277 N 116.637 5.22845 -3.21723 0
M  V30 1278 C 118.008 5.17716 -3.41131 0
M  V30 1279 C 120.063 4.42638 -2.27982 0
M  V30 1280 C 118.766 5.58576 -4.53194 0
M  V30 1281 C 120.792 4.84531 -3.39093 0
M  V30 1282 C 120.154 5.4164 -4.50339 0
M  V30 1283 H 116.253 0.777476 -0.083994 0
M  V30 1284 H 118.837 1.77249 -0.805655 0
M  V30 1285 H 117.008 3.82907 0.650914 0
M  V30 1286 H 118.74 4.01722 0.490033 0
M  V30 1287 H 115.495 4.50207 -1.47007 0
M  V30 1288 H 115.919 5.55438 -3.87063 0
M  V30 1289 H 120.561 3.97798 -1.43235 0
M  V30 1290 H 118.279 6.02382 -5.38667 0
M  V30 1291 H 121.865 4.72289 -3.39757 0
M  V30 1292 H 120.745 5.73461 -5.34895 0
M  V30 1293 N 118.248 0.346503 1.53744 0
M  V30 1294 C 119.18 -0.543316 2.22667 0
M  V30 1295 C 120.193 -1.06159 1.23427 0
M  V30 1296 O 121.382 -0.971235 1.49764 0
M  V30 1297 C 118.482 -1.76076 2.89569 0
M  V30 1298 C 117.655 -1.37727 4.15151 0
M  V30 1299 C 116.714 -2.45471 4.65436 0
M  V30 1300 O 115.74 -2.08655 5.29577 0
M  V30 1301 N 116.942 -3.7677 4.41616 0
M  V30 1302 H 119.707 0.0469703 2.99663 0
M  V30 1303 H 117.268 0.170766 1.60997 0
M  V30 1304 H 119.26 -2.47593 3.20125 0
M  V30 1305 H 117.83 -2.25835 2.16142 0
M  V30 1306 H 117.05 -0.492746 3.91108 0
M  V30 1307 H 118.338 -1.09708 4.96832 0
M  V30 1308 H 117.736 -4.09467 3.90325 0
M  V30 1309 H 116.293 -4.44448 4.7677 0
M  V30 1310 N 119.726 -1.57421 0.075193 0
M  V30 1311 C 120.659 -2.08528 -0.926904 0
M  V30 1312 C 121.637 -0.991171 -1.28898 0
M  V30 1313 O 122.821 -1.26479 -1.39769 0
M  V30 1314 C 119.948 -2.54576 -2.23402 0
M  V30 1315 C 118.994 -3.75454 -2.02327 0
M  V30 1316 S 119.827 -5.19989 -1.27951 0
M  V30 1317 C 120.983 -5.69372 -2.59935 0
M  V30 1318 H 121.216 -2.932 -0.492048 0
M  V30 1319 H 118.749 -1.53785 -0.137651 0
M  V30 1320 H 120.707 -2.81767 -2.98526 0
M  V30 1321 H 119.368 -1.70166 -2.64012 0
M  V30 1322 H 118.561 -4.05675 -2.99071 0
M  V30 1323 H 118.163 -3.48654 -1.35339 0
M  V30 1324 H 120.455 -5.76424 -3.56008 0
M  V30 1325 H 121.398 -6.68207 -2.34319 0
M  V30 1326 H 121.806 -4.97205 -2.67296 0
M  V30 1327 N 121.204 0.198386 -1.56346 0
M  V30 1328 C 122.114 1.2664 -1.97483 0
M  V30 1329 C 123.13 1.49989 -0.882002 0
M  V30 1330 O 124.306 1.62668 -1.18748 0
M  V30 1331 C 121.371 2.59141 -2.30319 0
M  V30 1332 C 120.432 2.43892 -3.53292 0
M  V30 1333 C 119.665 3.70074 -3.84553 0
M  V30 1334 O 119.888 4.74101 -3.1715 0
M  V30 1335 O 118.822 3.658 -4.7799 0
M  V30 1336 H 122.648 0.947304 -2.88548 0
M  V30 1337 H 120.233 0.403123 -1.43859 0
M  V30 1338 H 122.115 3.37352 -2.5253 0
M  V30 1339 H 120.79 2.90684 -1.42423 0
M  V30 1340 H 119.697 1.63803 -3.36332 0
M  V30 1341 H 121.03 2.17282 -4.41644 0
M  V30 1342 N 122.682 1.50554 0.465978 0
M  V30 1343 C 123.93 1.61479 1.21528 0
M  V30 1344 C 124.251 0.319596 1.92363 0
M  V30 1345 O 123.521 -0.663194 1.84333 0
M  V30 1346 H 122.101 0.595055 0.451573 0
M  V30 1347 H 124.763 1.87355 0.53704 0
M  V30 1348 H 123.859 2.42846 1.96042 0
M  V30 1349 N 124.16 -0.719506 1.40217 0
M  V30 1350 C 125.11 -1.8251 1.36653 0
M  V30 1351 C 126.094 -1.59028 0.244732 0
M  V30 1352 O 127.286 -1.70268 0.483524 0
M  V30 1353 C 124.415 -3.20599 1.22763 0
M  V30 1354 C 123.501 -3.49858 2.39708 0
M  V30 1355 N 123.892 -3.49957 3.6519 0
M  V30 1356 C 122.19 -3.80297 2.33002 0
M  V30 1357 C 122.891 -3.77449 4.42614 0
M  V30 1358 N 121.867 -3.96002 3.72402 0
M  V30 1359 H 125.669 -1.80914 2.31619 0
M  V30 1360 H 123.183 -0.918455 1.33933 0
M  V30 1361 H 125.18 -3.99766 1.18292 0
M  V30 1362 H 123.84 -3.23424 0.287614 0
M  V30 1363 H 124.851 -3.309 3.98404 0
M  V30 1364 H 121.528 -3.90635 1.47346 0
M  V30 1365 H 122.918 -3.83863 5.51451 0
M  V30 1366 N 125.638 -1.25649 -0.95132 0
M  V30 1367 C 126.886 -1.10375 -1.69298 0
M  V30 1368 C 127.207 0.355339 -1.91735 0
M  V30 1369 O 126.477 1.25188 -1.50681 0
M  V30 1370 H 125.057 -0.405461 -0.627384 0
M  V30 1371 H 127.719 -1.57823 -1.14358 0
M  V30 1372 H 126.815 -1.61465 -2.67087 0
M  V30 1373 N 127.117 1.15442 -1.07289 0
M  V30 1374 C 128.064 2.20161 -0.692653 0
M  V30 1375 C 129.034 1.63073 0.31564 0
M  V30 1376 O 130.219 1.89725 0.202235 0
M  V30 1377 C 127.359 3.44967 -0.0959509 0
M  V30 1378 C 126.472 4.16256 -1.15564 0
M  V30 1379 C 125.607 5.28609 -0.524011 0
M  V30 1380 C 124.646 5.91715 -1.56653 0
M  V30 1381 N 123.783 6.9554 -0.957531 0
M  V30 1382 H 128.623 2.52037 -1.59002 0
M  V30 1383 H 126.16 1.2378 -0.794798 0
M  V30 1384 H 128.118 4.16341 0.267628 0
M  V30 1385 H 126.748 3.1361 0.764772 0
M  V30 1386 H 125.8 3.43385 -1.6368 0
M  V30 1387 H 127.112 4.59268 -1.94613 0
M  V30 1388 H 126.266 6.06604 -0.108032 0
M  V30 1389 H 125.005 4.86787 0.29825 0
M  V30 1390 H 124.01 5.12433 -1.9923 0
M  V30 1391 H 125.235 6.35614 -2.39107 0
M  V30 1392 H 123.181 6.55814 -0.156162 0
M  V30 1393 H 123.098 7.36977 -1.68526 0
M  V30 1394 H 124.366 7.77435 -0.567032 0
M  V30 1395 N 128.595 0.856903 1.32268 0
M  V30 1396 C 129.525 0.31858 2.31316 0
M  V30 1397 C 130.506 -0.583487 1.59779 0
M  V30 1398 O 131.691 -0.503259 1.87566 0
M  V30 1399 C 128.821 -0.491979 3.43798 0
M  V30 1400 C 127.775 0.315849 4.26833 0
M  V30 1401 C 127.101 -0.619586 5.31098 0
M  V30 1402 C 128.401 1.54282 4.98993 0
M  V30 1403 H 130.095 1.14621 2.76591 0
M  V30 1404 H 127.641 0.552613 1.32974 0
M  V30 1405 H 129.594 -0.879012 4.1213 0
M  V30 1406 H 128.318 -1.35299 2.97257 0
M  V30 1407 H 126.977 0.684664 3.6015 0
M  V30 1408 H 126.625 -1.47751 4.8081 0
M  V30 1409 H 126.325 -0.0830621 5.87541 0
M  V30 1410 H 127.849 -1.00375 6.02293 0
M  V30 1411 H 129.263 1.22796 5.59995 0
M  V30 1412 H 127.66 2.01745 5.65172 0
M  V30 1413 H 128.73 2.30285 4.26728 0
M  V30 1414 N 130.073 -1.45103 0.615059 0
M  V30 1415 C 131.005 -2.28786 -0.13762 0
M  V30 1416 C 132.018 -1.40376 -0.824525 0
M  V30 1417 O 133.207 -1.64681 -0.688662 0
M  V30 1418 C 130.307 -3.16322 -1.21628 0
M  V30 1419 C 129.48 -4.33054 -0.615039 0
M  V30 1420 C 128.539 -5.01743 -1.58556 0
M  V30 1421 O 127.565 -5.58293 -1.10895 0
M  V30 1422 N 128.767 -5.01714 -2.91998 0
M  V30 1423 H 131.532 -2.94025 0.580483 0
M  V30 1424 H 129.093 -1.55373 0.45507 0
M  V30 1425 H 131.085 -3.59139 -1.86552 0
M  V30 1426 H 129.655 -2.52943 -1.83681 0
M  V30 1427 H 128.875 -3.93627 0.21245 0
M  V30 1428 H 130.163 -5.08431 -0.193704 0
M  V30 1429 H 129.561 -4.57075 -3.33316 0
M  V30 1430 H 128.118 -5.48371 -3.52325 0
M  V30 1431 N 131.551 -0.354651 -1.53558 0
M  V30 1432 C 132.781 0.239167 -2.05211 0
M  V30 1433 C 133.189 1.43879 -1.22863 0
M  V30 1434 O 132.532 1.81857 -0.259565 0
M  V30 1435 C 132.594 0.707251 -3.52474 0
M  V30 1436 C 132.258 -0.374212 -4.55465 0
M  V30 1437 C 133.255 -1.22054 -5.0537 0
M  V30 1438 C 130.94 -0.531323 -4.99482 0
M  V30 1439 C 132.934 -2.20942 -5.97882 0
M  V30 1440 C 130.621 -1.52358 -5.91802 0
M  V30 1441 C 131.619 -2.36108 -6.40892 0
M  V30 1442 O 131.307 -3.33643 -7.31394 0
M  V30 1443 H 131.039 0.0479716 -0.674296 0
M  V30 1444 H 133.593 -0.508121 -1.99016 0
M  V30 1445 H 131.823 1.50596 -3.56171 0
M  V30 1446 H 133.512 1.22285 -3.87042 0
M  V30 1447 H 134.278 -1.1103 -4.7212 0
M  V30 1448 H 130.157 0.110738 -4.60867 0
M  V30 1449 H 133.701 -2.86348 -6.36121 0
M  V30 1450 H 129.598 -1.63434 -6.24467 0
M  V30 1451 H 130.366 -3.29244 -7.4936 0
M  V30 1452 N 133.029 1.57378 -0.0835403 0
M  V30 1453 C 134.257 1.98263 0.59157 0
M  V30 1454 C 134.672 0.962302 1.62435 0
M  V30 1455 O 134.029 -0.049581 1.82433 0
M  V30 1456 C 134.08 3.39214 1.24965 0
M  V30 1457 O 133.801 4.37339 0.258186 0
M  V30 1458 C 135.302 3.95038 2.01147 0
M  V30 1459 H 132.522 0.651773 0.159477 0
M  V30 1460 H 135.066 2.03878 -0.159415 0
M  V30 1461 H 133.221 3.34649 1.95164 0
M  V30 1462 H 133.635 5.19371 0.731734 0
M  V30 1463 H 135.109 4.95848 2.42567 0
M  V30 1464 H 135.586 3.32222 2.87272 0
M  V30 1465 H 136.192 4.0304 1.35789 0
M  V30 1466 N 134.507 -0.190092 1.56449 0
M  V30 1467 C 135.784 -0.935886 1.71757 0
M  V30 1468 C 136.164 -2.01173 0.639726 0
M  V30 1469 O 135.512 -2.25827 -0.348502 0
M  V30 1470 C 135.722 -1.51775 3.1427 0
M  V30 1471 C 137.07 -1.99794 3.74656 0
M  V30 1472 O 138.094 -1.61607 3.1743 0
M  V30 1473 O 136.953 -2.70079 4.751 0
M  V30 1474 H 134.047 -0.439229 0.700719 0
M  V30 1475 H 136.593 -0.179395 1.68749 0
M  V30 1476 H 135.365 -0.742505 3.84191 0
M  V30 1477 H 134.988 -2.33894 3.21527 0
M  V30 1478 N 135.985 -1.50799 -0.457987 0
M  V30 1479 C 136.895 -1.73426 -1.57989 0
M  V30 1480 C 137.911 -0.617745 -1.62665 0
M  V30 1481 O 139.087 -0.897614 -1.80291 0
M  V30 1482 C 136.152 -1.83557 -2.94122 0
M  V30 1483 C 135.213 -3.07345 -2.99729 0
M  V30 1484 C 134.446 -3.16983 -4.29368 0
M  V30 1485 O 134.669 -2.33077 -5.20607 0
M  V30 1486 O 133.603 -4.09812 -4.40837 0
M  V30 1487 H 137.429 -2.68555 -1.41817 0
M  V30 1488 H 135.014 -1.35052 -0.638859 0
M  V30 1489 H 136.896 -1.92326 -3.74952 0
M  V30 1490 H 135.571 -0.916137 -3.10465 0
M  V30 1491 H 134.478 -3.04068 -2.1793 0
M  V30 1492 H 135.811 -3.9891 -2.88326 0
M  V30 1493 N 137.463 0.71206 -1.40597 0
M  V30 1494 C 138.711 1.46907 -1.38791 0
M  V30 1495 C 139.032 1.94998 0.00780391 0
M  V30 1496 O 138.302 1.70587 0.963174 0
M  V30 1497 H 136.882 0.545043 -0.51082 0
M  V30 1498 H 139.544 0.843882 -1.75683 0
M  V30 1499 H 138.64 2.34021 -2.06496 0
M  V30 1500 N 138.941 1.26152 0.944643 0
M  V30 1501 C 140.188 1.11492 1.69044 0
M  V30 1502 C 140.516 -0.342366 1.91463 0
M  V30 1503 O 139.771 -1.26812 1.49054 0
M  V30 1504 C 140.07 1.82541 3.07268 0
M  V30 1505 C 139.736 3.32445 3.04616 0
M  V30 1506 C 138.398 3.73337 3.036 0
M  V30 1507 C 140.75 4.28171 2.97185 0
M  V30 1508 C 138.078 5.08348 2.92915 0
M  V30 1509 C 140.43 5.63218 2.88041 0
M  V30 1510 C 139.094 6.03426 2.85366 0
M  V30 1511 H 138.364 0.407977 0.618576 0
M  V30 1512 H 141.011 1.56551 1.10291 0
M  V30 1513 H 139.316 1.29941 3.69625 0
M  V30 1514 H 141.013 1.68642 3.63815 0
M  V30 1515 H 137.603 2.99915 3.06185 0
M  V30 1516 H 141.787 3.97563 2.97081 0
M  V30 1517 H 137.043 5.38667 2.89219 0
M  V30 1518 H 141.217 6.37078 2.81254 0
M  V30 1519 H 138.844 7.07999 2.76842 0
M  V30 1520 N 140.419 -1.14872 1.07899 0
M  V30 1521 C 141.83 -1.67367 0.827363 0
M  V30 1522 C 142.181 -1.85236 -0.646693 0
M  V30 1523 O 141.306 -1.55974 -1.50004 0
M  V30 1524 C 141.901 -3.04016 1.49532 0
M  V30 1525 C 140.46 -3.53566 1.29106 0
M  V30 1526 C 139.607 -2.29161 1.56143 0
M  V30 1527 H 142.558 -0.990083 1.24028 0
M  V30 1528 H 142.579 -3.69219 0.919643 0
M  V30 1529 H 142.091 -2.90978 2.56814 0
M  V30 1530 H 140.192 -3.71835 0.238713 0
M  V30 1531 H 140.305 -4.34661 2.01511 0
M  V30 1532 H 138.669 -2.34978 0.982717 0
M  V30 1533 H 139.452 -2.18705 2.64619 0
M  V30 1534 N 141.898 -0.863906 -1.31812 0
M  V30 1535 C 143.145 -0.471836 -1.96926 0
M  V30 1536 C 143.473 0.974578 -1.68322 0
M  V30 1537 O 142.728 1.7003 -0.968933 0
M  V30 1538 C 143.027 -0.668547 -3.51091 0
M  V30 1539 C 142.693 -2.08683 -3.99703 0
M  V30 1540 C 141.355 -2.47471 -4.12688 0
M  V30 1541 C 143.707 -3.01207 -4.25351 0
M  V30 1542 C 141.035 -3.78037 -4.4867 0
M  V30 1543 C 143.387 -4.31282 -4.62794 0
M  V30 1544 C 142.051 -4.69992 -4.73987 0
M  V30 1545 H 141.321 -0.172657 -0.720604 0
M  V30 1546 H 143.968 -1.09573 -1.57054 0
M  V30 1547 H 142.273 0.0385252 -3.91781 0
M  V30 1548 H 143.97 -0.345102 -3.99512 0
M  V30 1549 H 140.56 -1.77566 -3.90087 0
M  V30 1550 H 144.744 -2.72469 -4.14819 0
M  V30 1551 H 140 -4.078 -4.55532 0
M  V30 1552 H 144.174 -5.03031 -4.81594 0
M  V30 1553 H 141.801 -5.71207 -5.01624 0
M  V30 1554 N 143.376 1.44774 -0.622745 0
M  V30 1555 C 144.787 1.85546 -0.207226 0
M  V30 1556 C 145.138 1.52093 1.23944 0
M  V30 1557 O 144.263 0.95492 1.94191 0
M  V30 1558 C 144.858 3.36781 -0.369313 0
M  V30 1559 C 143.417 3.76399 -0.00836847 0
M  V30 1560 C 142.564 2.68664 -0.686651 0
M  V30 1561 H 145.515 1.3536 -0.828454 0
M  V30 1562 H 145.536 3.78453 0.394162 0
M  V30 1563 H 145.048 3.61098 -1.42231 0
M  V30 1564 H 143.149 3.57698 1.04322 0
M  V30 1565 H 143.262 4.7732 -0.412584 0
M  V30 1566 H 141.626 2.54404 -0.122777 0
M  V30 1567 H 142.409 2.95815 -1.74208 0
M  V30 1568 N 144.854 0.36279 1.53368 0
M  V30 1569 C 146.103 -0.22888 2.00397 0
M  V30 1570 C 146.416 -1.50096 1.25421 0
M  V30 1571 O 147.622 -2.17106 1.63025 0
M  V30 1572 C 146.078 -0.458417 3.56969 0
M  V30 1573 C 145.686 0.798877 4.4082 0
M  V30 1574 C 147.43 -1.00789 4.12361 0
M  V30 1575 C 145.337 0.539078 5.88938 0
M  V30 1576 H 144.267 -0.089305 0.748693 0
M  V30 1577 H 146.918 0.481099 1.77081 0
M  V30 1578 H 145.3 -1.22959 3.76427 0
M  V30 1579 H 146.474 1.57262 4.33134 0
M  V30 1580 H 144.789 1.27137 3.96516 0
M  V30 1581 H 147.386 -1.21754 5.20653 0
M  V30 1582 H 147.729 -1.9692 3.66781 0
M  V30 1583 H 148.262 -0.296961 3.9669 0
M  V30 1584 H 145.001 1.47064 6.3879 0
M  V30 1585 H 144.521 -0.196222 5.99479 0
M  V30 1586 H 146.2 0.163542 6.46793 0
M  V30 1587 N 146.332 -1.57332 0.0918853 0
M  V30 1588 C 147.609 -1.85691 -0.614668 0
M  V30 1589 C 147.989 -0.988146 -1.86545 0
M  V30 1590 O 147.337 -0.0597055 -2.28422 0
M  V30 1591 C 147.547 -3.36294 -0.933126 0
M  V30 1592 C 148.895 -4.04275 -1.29796 0
M  V30 1593 O 149.919 -3.41157 -1.02424 0
M  V30 1594 O 148.778 -5.1564 -1.81047 0
M  V30 1595 H 145.872 -0.767802 -0.307261 0
M  V30 1596 H 148.418 -1.69244 0.12434 0
M  V30 1597 H 147.19 -3.91273 -0.0456404 0
M  V30 1598 H 146.813 -3.58076 -1.72822 0
M  V30 1599 N 147.81 0.181792 -1.56548 0
M  V30 1600 C 149.056 0.901431 -1.81665 0
M  V30 1601 C 149.389 1.82347 -0.668075 0
M  V30 1602 O 148.664 1.91669 0.330615 0
M  V30 1603 C 148.947 1.70618 -3.17115 0
M  V30 1604 C 148.8 0.807964 -4.42484 0
M  V30 1605 C 150.119 2.67605 -3.49393 0
M  V30 1606 H 147.238 0.32627 -0.660846 0
M  V30 1607 H 149.88 0.168134 -1.89255 0
M  V30 1608 H 148.03 2.33133 -3.10775 0
M  V30 1609 H 149.702 0.19649 -4.60881 0
M  V30 1610 H 147.945 0.115411 -4.33646 0
M  V30 1611 H 148.616 1.40632 -5.33785 0
M  V30 1612 H 151.092 2.15218 -3.56118 0
M  V30 1613 H 149.968 3.20985 -4.45264 0
M  V30 1614 H 150.229 3.47298 -2.73563 0
M  V30 1615 N 149.288 1.51039 0.449983 0
M  V30 1616 C 150.699 1.557 1.03026 0
M  V30 1617 C 151.05 0.372939 1.92623 0
M  V30 1618 O 150.175 -0.511771 2.10261 0
M  V30 1619 C 150.77 2.82171 1.87523 0
M  V30 1620 C 149.329 2.89444 2.40622 0
M  V30 1621 C 148.476 2.50228 1.19504 0
M  V30 1622 H 151.427 1.56999 0.231745 0
M  V30 1623 H 151.448 2.65219 2.72835 0
M  V30 1624 H 150.96 3.68331 1.22286 0
M  V30 1625 H 149.061 2.07685 3.0935 0
M  V30 1626 H 149.174 3.92816 2.74285 0
M  V30 1627 H 147.538 2.03139 1.53644 0
M  V30 1628 H 148.321 3.38719 0.558972 0
M  V30 1629 N 150.766 -0.704594 1.40972 0
M  V30 1630 C 152.013 -1.46458 1.39844 0
M  V30 1631 C 152.341 -1.94499 0.00447594 0
M  V30 1632 O 151.596 -1.69275 -0.982057 0
M  V30 1633 C 151.895 -2.698 2.34399 0
M  V30 1634 C 151.561 -2.40464 3.81429 0
M  V30 1635 C 150.223 -2.32174 4.21484 0
M  V30 1636 C 152.575 -2.16086 4.74296 0
M  V30 1637 C 149.903 -1.97589 5.52427 0
M  V30 1638 C 152.255 -1.83011 6.05549 0
M  V30 1639 C 150.919 -1.7321 6.44635 0
M  V30 1640 H 150.189 -0.535927 0.511725 0
M  V30 1641 H 152.836 -0.806124 1.73706 0
M  V30 1642 H 151.141 -3.40536 1.93759 0
M  V30 1643 H 152.838 -3.27919 2.30804 0
M  V30 1644 H 149.428 -2.47808 3.49699 0
M  V30 1645 H 153.612 -2.2144 4.4416 0
M  V30 1646 H 148.868 -1.88547 5.81601 0
M  V30 1647 H 153.042 -1.63164 6.77016 0
M  V30 1648 H 150.669 -1.46179 7.46013 0
M  V30 1649 N 152.244 -1.26651 -0.937939 0
M  V30 1650 C 153.49 -1.12553 -1.687 0
M  V30 1651 C 153.823 0.329782 -1.91379 0
M  V30 1652 O 153.098 1.24202 -1.4968 0
M  V30 1653 C 153.381 -1.89862 -3.05981 0
M  V30 1654 C 153.234 -3.43318 -2.90607 0
M  V30 1655 C 154.553 -1.69499 -4.0615 0
M  V30 1656 H 151.672 -0.410257 -0.612257 0
M  V30 1657 H 154.314 -1.55685 -1.08913 0
M  V30 1658 H 152.464 -1.53204 -3.57017 0
M  V30 1659 H 154.136 -3.89747 -2.46769 0
M  V30 1660 H 152.379 -3.70179 -2.26164 0
M  V30 1661 H 153.05 -3.92642 -3.8799 0
M  V30 1662 H 155.526 -2.01442 -3.64088 0
M  V30 1663 H 154.402 -2.26002 -5.00214 0
M  V30 1664 H 154.663 -0.640365 -4.37438 0
M  V30 1665 N 153.722 1.14298 -1.08507 0
M  V30 1666 C 155.133 1.66926 -0.836227 0
M  V30 1667 C 155.484 1.85576 0.63686 0
M  V30 1668 O 154.609 1.56767 1.49175 0
M  V30 1669 C 155.204 3.03219 -1.51142 0
M  V30 1670 C 153.763 3.52876 -1.30979 0
M  V30 1671 C 152.91 2.2833 -1.57356 0
M  V30 1672 H 155.861 0.983491 -1.24552 0
M  V30 1673 H 155.882 3.68726 -0.939211 0
M  V30 1674 H 155.394 2.89612 -2.58353 0
M  V30 1675 H 153.495 3.71703 -0.258429 0
M  V30 1676 H 153.608 4.33586 -2.03814 0
M  V30 1677 H 151.972 2.34454 -0.995164 0
M  V30 1678 H 152.755 2.17298 -2.65775 0
M  V30 1679 N 155.201 0.870884 1.31352 0
M  V30 1680 C 156.426 0.495957 2.01383 0
M  V30 1681 C 156.851 -0.904324 1.64935 0
M  V30 1682 O 156.209 -1.59687 0.858466 0
M  V30 1683 C 156.257 0.661433 3.54482 0
M  V30 1684 O 155.361 -0.298851 4.11316 0
M  V30 1685 H 154.702 0.197158 0.634054 0
M  V30 1686 H 157.232 1.17455 1.67527 0
M  V30 1687 H 157.242 0.555072 4.04207 0
M  V30 1688 H 155.917 1.68246 3.8035 0
M  V30 1689 H 154.494 -0.147368 3.72609 0
M  V30 1690 N 156.679 -1.44442 0.630414 0
M  V30 1691 C 157.956 -1.9549 0.0655657 0
M  V30 1692 C 158.336 -1.5724 -1.40851 0
M  V30 1693 O 157.684 -0.846116 -2.12257 0
M  V30 1694 C 157.894 -3.47812 0.287691 0
M  V30 1695 C 159.242 -4.24216 0.180513 0
M  V30 1696 O 160.266 -3.55526 0.219019 0
M  V30 1697 O 159.125 -5.46434 0.0848493 0
M  V30 1698 H 156.219 -0.826688 -0.0227177 0
M  V30 1699 H 158.765 -1.54496 0.702068 0
M  V30 1700 H 157.537 -3.687 1.31056 0
M  V30 1701 H 157.16 -3.95751 -0.382984 0
M  V30 1702 N 158.157 -0.370918 -1.53173 0
M  V30 1703 C 159.105 0.488101 -2.27421 0
M  V30 1704 C 160.099 1.07884 -1.30604 0
M  V30 1705 O 161.305 1.02143 -1.48212 0
M  V30 1706 H 157.68 0.176134 -0.731082 0
M  V30 1707 H 159.651 -0.159815 -2.97972 0
M  V30 1708 C 158.4 1.61306 -3.08019 0
M  V30 1709 H 157.723 1.1678 -3.82364 0
M  V30 1710 H 159.163 2.18872 -3.63141 0
M  V30 1711 C 157.622 2.55848 -2.19188 0
M  V30 1712 O 158.152 3.58799 -1.80626 0
M  V30 1713 N 156.358 2.2516 -1.83715 0
M  V30 1714 H 155.905 1.41476 -2.15273 0
M  V30 1715 H 155.863 2.8867 -1.24567 0
M  V30 1716 N 159.635 1.57281 -0.100228 0
M  V30 1717 C 161.046 1.81725 0.428107 0
M  V30 1718 C 161.397 1.01619 1.67833 0
M  V30 1719 O 160.522 0.247098 2.14985 0
M  V30 1720 C 161.117 3.29617 0.78347 0
M  V30 1721 C 159.676 3.54808 1.25653 0
M  V30 1722 C 158.823 2.76118 0.255752 0
M  V30 1723 H 161.774 1.55324 -0.325608 0
M  V30 1724 H 161.795 3.4322 1.64256 0
M  V30 1725 H 161.307 3.87893 -0.12665 0
M  V30 1726 H 159.408 3.01868 2.18418 0
M  V30 1727 H 159.521 4.63443 1.21482 0
M  V30 1728 H 157.885 2.43745 0.738956 0
M  V30 1729 H 158.668 3.37145 -0.647136 0
M  V30 1730 N 161.113 -0.173488 1.56642 0
M  V30 1731 C 162.341 -0.906095 1.86004 0
M  V30 1732 C 162.756 -1.75921 0.685355 0
M  V30 1733 O 162.113 -1.79198 -0.345578 0
M  V30 1734 C 162.164 -1.78462 3.14378 0
M  V30 1735 O 161.885 -0.965914 4.27319 0
M  V30 1736 C 163.386 -2.62707 3.57071 0
M  V30 1737 H 160.606 -0.263341 0.617165 0
M  V30 1738 H 163.15 -0.174236 2.03756 0
M  V30 1739 H 161.305 -2.46984 2.98459 0
M  V30 1740 H 161.719 -1.56655 5.00559 0
M  V30 1741 H 163.193 -3.19969 4.49804 0
M  V30 1742 H 163.67 -3.37472 2.81086 0
M  V30 1743 H 164.276 -1.99521 3.75595 0
M  V30 1744 N 162.591 -1.51276 -0.441967 0
M  V30 1745 C 163.839 -1.63392 -1.18943 0
M  V30 1746 C 164.16 -0.350159 -1.9183 0
M  V30 1747 O 163.43 0.633784 -1.85364 0
M  V30 1748 H 162.01 -0.602164 -0.442049 0
M  V30 1749 H 164.672 -1.88186 -0.507165 0
M  V30 1750 H 163.768 -2.45934 -1.92154 0
M  V30 1751 N 164.069 0.697108 -1.41344 0
M  V30 1752 C 165.032 1.79281 -1.42797 0
M  V30 1753 C 166.032 1.57607 -0.318837 0
M  V30 1754 O 167.222 1.64309 -0.578642 0
M  V30 1755 C 164.354 3.17632 -1.23785 0
M  V30 1756 H 165.547 1.79385 -2.40335 0
M  V30 1757 H 163.1 0.904582 -1.27464 0
M  V30 1758 H 163.835 3.23167 -0.270814 0
M  V30 1759 H 163.62 3.34765 -2.04144 0
M  V30 1760 H 165.11 3.97617 -1.27633 0
M  V30 1761 N 165.547 1.27147 0.931209 0
M  V30 1762 C 166.777 1.15914 1.71019 0
M  V30 1763 C 167.185 -0.287112 1.87009 0
M  V30 1764 O 166.528 -1.20761 1.38429 0
M  V30 1765 C 166.59 1.76647 3.13107 0
M  V30 1766 C 166.254 3.25807 3.20467 0
M  V30 1767 C 167.251 4.22489 3.02983 0
M  V30 1768 C 164.936 3.66452 3.43538 0
M  V30 1769 C 166.93 5.57794 3.08454 0
M  V30 1770 C 164.617 5.01888 3.48643 0
M  V30 1771 C 165.615 5.97369 3.31119 0
M  V30 1772 O 165.303 7.30337 3.35952 0
M  V30 1773 H 165.035 0.404062 0.54195 0
M  V30 1774 H 167.589 1.68457 1.17521 0
M  V30 1775 H 165.819 1.18578 3.68071 0
M  V30 1776 H 167.508 1.60179 3.72958 0
M  V30 1777 H 168.274 3.92425 2.85004 0
M  V30 1778 H 164.153 2.92611 3.5623 0
M  V30 1779 H 167.697 6.32298 2.94694 0
M  V30 1780 H 163.594 5.31609 3.66145 0
M  V30 1781 H 164.362 7.38739 3.5243 0
M  V30 1782 N 167.025 -1.13721 1.09112 0
M  V30 1783 C 167.957 -2.1871 0.685467 0
M  V30 1784 C 168.97 -1.60527 -0.271068 0
M  V30 1785 O 170.159 -1.78407 -0.0576148 0
M  V30 1786 C 167.259 -3.38898 -0.0111255 0
M  V30 1787 C 166.432 -4.26597 0.966131 0
M  V30 1788 C 165.491 -5.25324 0.303539 0
M  V30 1789 O 164.517 -5.61213 0.950177 0
M  V30 1790 N 165.719 -5.72779 -0.943651 0
M  V30 1791 H 168.484 -2.54126 1.58871 0
M  V30 1792 H 166.045 -1.29012 0.978143 0
M  V30 1793 H 168.037 -4.02014 -0.465517 0
M  V30 1794 H 166.607 -3.01747 -0.816565 0
M  V30 1795 H 165.827 -3.60306 1.59917 0
M  V30 1796 H 167.115 -4.82048 1.6281 0
M  V30 1797 H 166.513 -5.45762 -1.48862 0
M  V30 1798 H 165.07 -6.37847 -1.34142 0
M  V30 1799 N 168.503 -0.877838 -1.30888 0
M  V30 1800 C 169.919 -0.570844 -1.49042 0
M  V30 1801 C 170.119 0.893159 -1.80624 0
M  V30 1802 O 169.175 1.67485 -1.88958 0
M  V30 1803 C 170.488 -1.47784 -2.61878 0
M  V30 1804 C 172.036 -1.48071 -2.75761 0
M  V30 1805 C 172.511 -2.37347 -3.91702 0
M  V30 1806 N 174.002 -2.35271 -3.99001 0
M  V30 1807 C 174.737 -3.01063 -4.88004 0
M  V30 1808 N 174.233 -3.76055 -5.81854 0
M  V30 1809 N 176.026 -2.90332 -4.81315 0
M  V30 1810 H 168.177 -1.82502 -1.0866 0
M  V30 1811 H 170.44 -0.780797 -0.537644 0
M  V30 1812 H 170.146 -2.51993 -2.45341 0
M  V30 1813 H 170.02 -1.18215 -3.58197 0
M  V30 1814 H 172.407 -0.446166 -2.91708 0
M  V30 1815 H 172.488 -1.81668 -1.80085 0
M  V30 1816 H 172.132 -3.40883 -3.76512 0
M  V30 1817 H 172.062 -2.01071 -4.86701 0
M  V30 1818 H 174.553 -1.80768 -3.3186 0
M  V30 1819 H 174.866 -4.23366 -6.46514 0
M  V30 1820 H 173.211 -3.80163 -5.81808 0
M  V30 1821 H 176.402 -2.31278 -4.06974 0
M  V30 1822 H 176.575 -3.41885 -5.50471 0
M  V30 1823 N 169.982 1.44106 -0.638065 0
M  V30 1824 C 171.231 2.01194 -0.142744 0
M  V30 1825 C 171.544 1.50835 1.24532 0
M  V30 1826 O 172.75 2.00096 1.83504 0
M  V30 1827 C 171.206 3.59319 -0.20442 0
M  V30 1828 C 170.814 4.18674 -1.59423 0
M  V30 1829 C 172.558 4.23854 0.234079 0
M  V30 1830 C 170.465 5.69045 -1.61065 0
M  V30 1831 H 169.395 0.752367 -0.0495998 0
M  V30 1832 H 172.046 1.65246 -0.797881 0
M  V30 1833 H 170.428 3.92598 0.517946 0
M  V30 1834 H 171.602 3.96921 -2.34074 0
M  V30 1835 H 169.917 3.66453 -1.97741 0
M  V30 1836 H 172.514 5.34155 0.241443 0
M  V30 1837 H 172.857 3.96688 1.2627 0
M  V30 1838 H 173.39 3.95403 -0.436025 0
M  V30 1839 H 170.129 6.00956 -2.61787 0
M  V30 1840 H 169.649 5.929 -0.90718 0
M  V30 1841 H 171.328 6.32809 -1.34766 0
M  V30 1842 N 171.46 0.379036 1.52974 0
M  V30 1843 C 172.707 -0.206421 2.01445 0
M  V30 1844 C 173.035 -1.47668 1.26587 0
M  V30 1845 O 172.29 -1.92514 0.351675 0
M  V30 1846 C 172.589 -0.53096 3.53434 0
M  V30 1847 C 172.255 0.646546 4.46241 0
M  V30 1848 C 170.917 0.969604 4.7133 0
M  V30 1849 C 173.269 1.43479 5.01062 0
M  V30 1850 C 170.597 2.08263 5.48492 0
M  V30 1851 C 172.949 2.53834 5.7944 0
M  V30 1852 C 171.613 2.86659 6.02812 0
M  V30 1853 H 170.883 -0.0755349 0.73714 0
M  V30 1854 H 173.53 0.514271 1.84465 0
M  V30 1855 H 171.835 -1.33285 3.68432 0
M  V30 1856 H 173.532 -0.996417 3.88423 0
M  V30 1857 H 170.122 0.384734 4.2687 0
M  V30 1858 H 174.306 1.19844 4.81613 0
M  V30 1859 H 169.562 2.34078 5.64816 0
M  V30 1860 H 173.736 3.15319 6.20924 0
M  V30 1861 H 171.363 3.73026 6.62387 0
M  V30 1862 N 172.938 -1.57226 0.108567 0
M  V30 1863 C 174.166 -1.99179 -0.559954 0
M  V30 1864 C 174.581 -0.988022 -1.60884 0
M  V30 1865 O 173.938 0.0205512 -1.82488 0
M  V30 1866 C 173.989 -3.41159 -1.19552 0
M  V30 1867 O 173.71 -4.37694 -0.188577 0
M  V30 1868 C 175.211 -3.98188 -1.94837 0
M  V30 1869 H 172.431 -0.654228 -0.149088 0
M  V30 1870 H 174.975 -2.03598 0.19183 0
M  V30 1871 H 173.13 -3.37711 -1.89815 0
M  V30 1872 H 173.544 -5.20469 -0.649014 0
M  V30 1873 H 175.018 -4.99644 -2.34648 0
M  V30 1874 H 175.495 -3.3675 -2.81951 0
M  V30 1875 H 176.101 -4.0515 -1.2936 0
M  V30 1876 N 174.416 0.165178 -1.56732 0
M  V30 1877 C 175.346 1.20651 -1.99914 0
M  V30 1878 C 176.327 1.45827 -0.875705 0
M  V30 1879 O 177.512 1.57057 -1.14223 0
M  V30 1880 C 174.642 2.54401 -2.36427 0
M  V30 1881 C 173.596 2.43782 -3.51787 0
M  V30 1882 C 172.922 3.82078 -3.7406 0
M  V30 1883 C 174.222 1.93732 -4.85041 0
M  V30 1884 H 175.916 0.847534 -2.87154 0
M  V30 1885 H 173.462 0.40625 -1.38151 0
M  V30 1886 H 175.415 3.27458 -2.65234 0
M  V30 1887 H 174.139 2.92098 -1.46103 0
M  V30 1888 H 172.798 1.73178 -3.23117 0
M  V30 1889 H 172.446 4.17179 -2.81017 0
M  V30 1890 H 172.146 3.7584 -4.51684 0
M  V30 1891 H 173.67 4.56712 -4.05274 0
M  V30 1892 H 175.084 2.56569 -5.12684 0
M  V30 1893 H 173.481 1.98428 -5.66345 0
M  V30 1894 H 174.551 0.891962 -4.76626 0
M  V30 1895 N 175.894 1.51508 0.433938 0
M  V30 1896 C 177.119 1.68443 1.21003 0
M  V30 1897 C 177.544 0.382636 1.84167 0
M  V30 1898 O 176.902 -0.65755 1.68956 0
M  V30 1899 C 176.95 2.80405 2.26727 0
M  V30 1900 O 176.054 2.44245 3.32292 0
M  V30 1901 H 175.395 0.561536 0.354363 0
M  V30 1902 H 177.925 1.9809 0.512024 0
M  V30 1903 H 177.935 3.0459 2.71457 0
M  V30 1904 H 176.61 3.74867 1.80132 0
M  V30 1905 H 175.187 2.30644 2.93015 0
M  V30 1906 N 177.372 -0.689602 1.41712 0
M  V30 1907 C 178.649 -1.44457 1.31877 0
M  V30 1908 C 179.029 -2.11039 -0.0508537 0
M  V30 1909 O 178.377 -2.02138 -1.06547 0
M  V30 1910 C 178.587 -2.45913 2.47645 0
M  V30 1911 C 179.935 -3.10991 2.89084 0
M  V30 1912 O 180.959 -2.56238 2.47428 0
M  V30 1913 O 179.818 -4.10174 3.61137 0
M  V30 1914 H 176.912 -0.64362 0.519309 0
M  V30 1915 H 179.458 -0.719576 1.53689 0
M  V30 1916 H 178.23 -1.95409 3.39015 0
M  V30 1917 H 177.853 -3.25913 2.27742 0
M  V30 1918 N 178.85 -1.27639 -0.924453 0
M  V30 1919 C 180.098 -1.13941 -1.66918 0
M  V30 1920 C 180.419 0.314589 -1.92446 0
M  V30 1921 O 179.689 1.21964 -1.53303 0
M  V30 1922 H 178.269 -0.418678 -0.618642 0
M  V30 1923 H 180.931 -1.60213 -1.10985 0
M  V30 1924 H 180.027 -1.67094 -2.63602 0
M  V30 1925 N 180.328 1.1314 -1.09713 0
M  V30 1926 C 181.574 1.84967 -0.846104 0
M  V30 1927 C 181.929 1.82082 0.621601 0
M  V30 1928 O 181.222 1.2501 1.452 0
M  V30 1929 C 181.416 3.32167 -1.3191 0
M  V30 1930 C 181.245 3.49386 -2.83125 0
M  V30 1931 C 180.015 3.63456 -3.51038 0
M  V30 1932 C 182.213 3.45179 -3.81256 0
M  V30 1933 N 180.195 3.68966 -4.9065 0
M  V30 1934 C 181.566 3.57094 -5.06837 0
M  V30 1935 C 183.621 3.28598 -3.74069 0
M  V30 1936 C 182.324 3.5414 -6.26081 0
M  V30 1937 C 184.35 3.26953 -4.92804 0
M  V30 1938 C 183.712 3.39422 -6.17229 0
M  V30 1939 H 179.811 0.692899 -0.362512 0
M  V30 1940 H 182.395 1.35506 -1.39808 0
M  V30 1941 H 180.566 3.80186 -0.794535 0
M  V30 1942 H 182.298 3.91815 -1.01308 0
M  V30 1943 H 179.053 3.65256 -3.01471 0
M  V30 1944 H 179.477 3.75404 -5.63383 0
M  V30 1945 H 184.119 3.17858 -2.78794 0
M  V30 1946 H 181.837 3.63653 -7.21653 0
M  V30 1947 H 185.423 3.15316 -4.88945 0
M  V30 1948 H 184.303 3.38114 -7.07565 0
M  V30 1949 N 181.806 0.884767 1.30421 0
M  V30 1950 C 182.738 0.308655 2.27112 0
M  V30 1951 C 183.751 -0.536655 1.53701 0
M  V30 1952 O 184.94 -0.35624 1.74909 0
M  V30 1953 C 182.04 -0.579782 3.33904 0
M  V30 1954 C 181.213 0.236417 4.36761 0
M  V30 1955 C 180.272 -0.582482 5.22966 0
M  V30 1956 O 179.298 -0.00525502 5.692 0
M  V30 1957 N 180.5 -1.89163 5.48815 0
M  V30 1958 H 183.265 1.13964 2.77186 0
M  V30 1959 H 180.826 0.747731 1.43599 0
M  V30 1960 H 182.818 -1.13366 3.88497 0
M  V30 1961 H 181.388 -1.31144 2.83761 0
M  V30 1962 H 180.608 0.97174 3.82035 0
M  V30 1963 H 181.896 0.795924 5.02536 0
M  V30 1964 H 181.294 -2.38352 5.13035 0
M  V30 1965 H 179.851 -2.39296 6.06284 0
M  V30 1966 N 183.284 -1.43765 0.645699 0
M  V30 1967 C 184.532 -2.01499 0.155731 0
M  V30 1968 C 184.853 -1.51151 -1.232 0
M  V30 1969 O 184.123 -0.721044 -1.82148 0
M  V30 1970 H 182.703 -0.745003 0.0545817 0
M  V30 1971 H 185.365 -1.76075 0.835677 0
M  V30 1972 H 184.461 -3.1181 0.134577 0
M  V30 1973 N 184.763 -0.387143 -1.52771 0
M  V30 1974 C 185.71 0.449048 -2.26389 0
M  V30 1975 C 186.68 1.05961 -1.27912 0
M  V30 1976 O 187.865 1.08804 -1.56737 0
M  V30 1977 C 185.005 1.57155 -3.0724 0
M  V30 1978 C 184.118 0.984066 -4.20643 0
M  V30 1979 C 183.253 2.07745 -4.88892 0
M  V30 1980 C 182.292 1.46574 -5.94292 0
M  V30 1981 N 181.429 2.49834 -6.56146 0
M  V30 1982 H 186.269 -0.185205 -2.97424 0
M  V30 1983 H 183.806 -0.103164 -1.46738 0
M  V30 1984 H 185.764 2.23309 -3.52405 0
M  V30 1985 H 184.394 2.17615 -2.38419 0
M  V30 1986 H 183.446 0.212193 -3.79808 0
M  V30 1987 H 184.758 0.497029 -4.96318 0
M  V30 1988 H 183.912 2.81673 -5.3735 0
M  V30 1989 H 182.651 2.59807 -4.12737 0
M  V30 1990 H 181.656 0.711696 -5.45174 0
M  V30 1991 H 182.881 0.953088 -6.72379 0
M  V30 1992 H 180.827 3.0107 -5.82832 0
M  V30 1993 H 180.744 2.05879 -7.27427 0
M  V30 1994 H 182.012 3.23399 -7.09249 0
M  V30 1995 N 186.241 1.57166 -0.116904 0
M  V30 1996 C 187.173 2.12271 0.864507 0
M  V30 1997 C 188.186 1.06494 1.23138 0
M  V30 1998 O 189.375 1.33873 1.18069 0
M  V30 1999 C 186.475 2.60564 2.16702 0
M  V30 2000 C 185.648 3.90416 1.97216 0
M  V30 2001 C 184.707 4.24329 3.11178 0
M  V30 2002 O 183.733 4.93182 2.84184 0
M  V30 2003 N 184.935 3.8148 4.37554 0
M  V30 2004 H 187.7 2.97102 0.393726 0
M  V30 2005 H 185.261 1.61759 0.0675805 0
M  V30 2006 H 187.253 2.80282 2.91932 0
M  V30 2007 H 185.823 1.80623 2.55135 0
M  V30 2008 H 185.043 3.79627 1.06192 0
M  V30 2009 H 186.331 4.75327 1.81499 0
M  V30 2010 H 185.729 3.25943 4.62361 0
M  V30 2011 H 184.286 4.06311 5.09661 0
M  V30 2012 N 187.719 -0.156864 1.56817 0
M  V30 2013 C 188.947 -0.886316 1.86955 0
M  V30 2014 C 189.362 -1.75185 0.703975 0
M  V30 2015 O 188.719 -1.79555 -0.326552 0
M  V30 2016 C 188.77 -1.75117 3.16253 0
M  V30 2017 O 188.491 -0.920537 4.2832 0
M  V30 2018 C 189.992 -2.58905 3.59837 0
M  V30 2019 H 187.212 -0.25678 0.619923 0
M  V30 2020 H 189.756 -0.152615 2.0393 0
M  V30 2021 H 187.911 -2.43805 3.01062 0
M  V30 2022 H 188.325 -1.51337 5.02192 0
M  V30 2023 H 189.799 -3.1518 4.53172 0
M  V30 2024 H 190.276 -3.34472 2.84649 0
M  V30 2025 H 190.882 -1.95526 3.7769 0
M  V30 2026 N 189.197 -1.51736 -0.425897 0
M  V30 2027 C 190.127 -1.76827 -1.52494 0
M  V30 2028 C 191.108 -0.618524 -1.58456 0
M  V30 2029 O 192.293 -0.862416 -1.74 0
M  V30 2030 C 189.423 -1.90374 -2.90474 0
M  V30 2031 C 188.377 -3.0588 -2.99369 0
M  V30 2032 C 187.703 -3.04625 -4.3944 0
M  V30 2033 C 189.003 -4.45644 -2.72394 0
M  V30 2034 H 190.697 -2.68855 -1.31748 0
M  V30 2035 H 188.243 -1.29372 -0.632362 0
M  V30 2036 H 190.196 -2.0651 -3.6733 0
M  V30 2037 H 188.92 -0.95004 -3.12477 0
M  V30 2038 H 187.579 -2.89467 -2.24954 0
M  V30 2039 H 187.227 -2.0701 -4.58428 0
M  V30 2040 H 186.927 -3.82195 -4.46319 0
M  V30 2041 H 188.451 -3.22869 -5.18255 0
M  V30 2042 H 189.865 -4.62348 -3.38979 0
M  V30 2043 H 188.262 -5.25006 -2.9067 0
M  V30 2044 H 189.332 -4.54893 -1.67929 0
M  V30 2045 N 190.675 0.682077 -1.42076 0
M  V30 2046 C 191.924 1.43786 -1.41451 0
M  V30 2047 C 192.237 1.95574 -0.0317074 0
M  V30 2048 O 193.443 2.71326 0.0971462 0
M  V30 2049 C 191.899 2.60071 -2.48779 0
M  V30 2050 C 191.507 2.15013 -3.93031 0
M  V30 2051 C 193.251 3.37626 -2.57311 0
M  V30 2052 C 191.158 3.28336 -4.91883 0
M  V30 2053 H 190.088 0.540143 -0.526082 0
M  V30 2054 H 192.739 0.739157 -1.67955 0
M  V30 2055 H 191.121 3.32275 -2.15429 0
M  V30 2056 H 192.295 1.5001 -4.35699 0
M  V30 2057 H 190.61 1.50416 -3.88284 0
M  V30 2058 H 193.207 4.22012 -3.28345 0
M  V30 2059 H 193.55 3.83727 -1.61429 0
M  V30 2060 H 194.083 2.72488 -2.89819 0
M  V30 2061 H 190.822 2.87234 -5.89217 0
M  V30 2062 H 190.342 3.92145 -4.53853 0
M  V30 2063 H 192.021 3.93913 -5.13265 0
M  V30 2064 N 192.153 1.28127 0.917671 0
M  V30 2065 C 193.1 1.11717 2.0196 0
M  V30 2066 C 194.07 0.0153929 1.66093 0
M  V30 2067 O 195.255 0.179596 1.89953 0
M  V30 2068 C 192.395 0.780927 3.36148 0
M  V30 2069 C 191.508 1.96135 3.84909 0
M  V30 2070 C 190.643 1.56609 5.0759 0
M  V30 2071 C 189.682 2.71339 5.48673 0
M  V30 2072 N 188.819 2.32332 6.62545 0
M  V30 2073 H 193.659 2.06003 2.15329 0
M  V30 2074 H 191.196 1.02535 1.05475 0
M  V30 2075 H 193.154 0.56675 4.13333 0
M  V30 2076 H 191.784 -0.124998 3.22558 0
M  V30 2077 H 190.836 2.28777 3.03916 0
M  V30 2078 H 192.148 2.82165 4.1132 0
M  V30 2079 H 191.302 1.31374 5.92305 0
M  V30 2080 H 190.041 0.677014 4.82978 0
M  V30 2081 H 189.046 2.97276 4.62501 0
M  V30 2082 H 190.271 3.60882 5.75274 0
M  V30 2083 H 188.217 1.45889 6.39572 0
M  V30 2084 H 188.134 3.11899 6.88662 0
M  V30 2085 H 189.402 2.10371 7.50576 0
M  V30 2086 N 193.631 -1.12557 1.10312 0
M  V30 2087 C 194.878 -1.84038 0.844759 0
M  V30 2088 C 195.206 -1.84026 -0.629668 0
M  V30 2089 O 194.461 -1.28026 -1.48013 0
M  V30 2090 C 194.76 -3.31462 1.33669 0
M  V30 2091 C 194.426 -3.51647 2.82232 0
M  V30 2092 C 193.088 -3.56864 3.22802 0
M  V30 2093 C 195.44 -3.58867 3.77974 0
M  V30 2094 C 192.768 -3.66844 4.57867 0
M  V30 2095 C 195.12 -3.70375 5.1284 0
M  V30 2096 C 193.784 -3.73848 5.52986 0
M  V30 2097 H 193.054 -0.673444 0.309119 0
M  V30 2098 H 195.701 -1.32824 1.37949 0
M  V30 2099 H 194.006 -3.85091 0.721949 0
M  V30 2100 H 195.703 -3.85236 1.11329 0
M  V30 2101 H 192.293 -3.48249 2.49842 0
M  V30 2102 H 196.477 -3.54107 3.47738 0
M  V30 2103 H 191.733 -3.67804 4.88396 0
M  V30 2104 H 195.907 -3.74904 5.86873 0
M  V30 2105 H 193.534 -3.81333 6.57639 0
M  V30 2106 N 195.109 -0.891671 -1.2995 0
M  V30 2107 C 196.386 -0.433307 -1.9074 0
M  V30 2108 C 196.766 1.08646 -1.80995 0
M  V30 2109 O 196.114 1.92476 -1.23147 0
M  V30 2110 C 196.324 -0.938895 -3.36134 0
M  V30 2111 C 197.672 -0.977829 -4.13187 0
M  V30 2112 O 198.696 -0.886015 -3.45005 0
M  V30 2113 O 197.555 -1.11453 -5.35015 0
M  V30 2114 H 194.649 -0.133699 -0.816121 0
M  V30 2115 H 197.195 -0.981011 -1.38471 0
M  V30 2116 H 195.967 -1.98281 -3.37343 0
M  V30 2117 H 195.59 -0.37074 -3.95868 0
M  V30 2118 N 196.587 1.43421 -0.653314 0
M  V30 2119 C 197.835 2.01414 -0.166415 0
M  V30 2120 C 198.156 1.51803 1.22397 0
M  V30 2121 O 197.426 0.730693 1.81763 0
M  V30 2122 H 196.006 0.744703 -0.0585319 0
M  V30 2123 H 198.668 1.75629 -0.845003 0
M  V30 2124 H 197.764 3.11734 -0.151111 0
M  V30 2125 N 198.065 0.39524 1.52563 0
M  V30 2126 C 199.311 -0.185318 2.01952 0
M  V30 2127 C 199.644 -1.45964 1.28095 0
M  V30 2128 O 198.919 -1.90689 0.38315 0
M  V30 2129 C 199.202 -0.447193 3.57312 0
M  V30 2130 C 199.055 0.842828 4.41833 0
M  V30 2131 C 200.374 -1.23529 4.22408 0
M  V30 2132 H 197.493 -0.0658788 0.73405 0
M  V30 2133 H 200.135 0.525975 1.82575 0
M  V30 2134 H 198.285 -1.05312 3.73954 0
M  V30 2135 H 199.957 1.4795 4.36931 0
M  V30 2136 H 198.2 1.45686 4.08605 0
M  V30 2137 H 198.871 0.614165 5.48573 0
M  V30 2138 H 201.347 -0.722445 4.0978 0
M  V30 2139 H 200.223 -1.38727 5.3108 0
M  V30 2140 H 200.484 -2.25213 3.80436 0
M  V30 2141 N 199.544 -1.57102 0.125237 0
M  V30 2142 C 200.454 -2.19191 -0.8362 0
M  V30 2143 C 201.47 -1.16985 -1.28805 0
M  V30 2144 O 202.646 -1.49479 -1.34974 0
M  V30 2145 C 199.711 -2.78407 -2.06617 0
M  V30 2146 C 198.772 -3.9567 -1.66565 0
M  V30 2147 C 198.005 -4.52052 -2.83698 0
M  V30 2148 O 198.228 -4.07326 -3.99302 0
M  V30 2149 O 197.162 -5.42645 -2.60423 0
M  V30 2150 H 200.988 -3.01816 -0.337776 0
M  V30 2151 H 198.573 -1.4906 -0.100695 0
M  V30 2152 H 200.455 -3.16129 -2.7864 0
M  V30 2153 H 199.13 -1.9881 -2.55453 0
M  V30 2154 H 198.037 -3.62705 -0.916296 0
M  V30 2155 H 199.37 -4.76722 -1.22464 0
M  V30 2156 N 201.022 0.148545 -1.56898 0
M  V30 2157 C 202.25 0.876389 -1.87422 0
M  V30 2158 C 202.665 1.74809 -0.713256 0
M  V30 2159 O 202.022 1.79725 0.317025 0
M  V30 2160 C 202.073 1.73438 -3.17178 0
M  V30 2161 O 201.794 0.897809 -4.28802 0
M  V30 2162 C 203.295 2.56993 -3.61205 0
M  V30 2163 H 200.515 0.253489 -0.621277 0
M  V30 2164 H 203.059 0.141798 -2.04008 0
M  V30 2165 H 201.214 2.42205 -3.0235 0
M  V30 2166 H 201.628 1.48672 -5.02988 0
M  V30 2167 H 203.102 3.12773 -4.54838 0
M  V30 2168 H 203.579 3.32958 -2.86419 0
M  V30 2169 H 204.185 1.9352 -3.78722 0
M  V30 2170 N 202.5 1.5196 0.417844 0
M  V30 2171 C 203.73 1.69181 1.18581 0
M  V30 2172 C 204.138 0.397104 1.84986 0
M  V30 2173 O 203.481 -0.636011 1.72339 0
M  V30 2174 C 203.543 2.76497 2.29759 0
M  V30 2175 C 203.207 4.18514 1.83563 0
M  V30 2176 C 204.204 5.02648 1.32821 0
M  V30 2177 C 201.889 4.64708 1.90661 0
M  V30 2178 C 203.883 6.31044 0.897894 0
M  V30 2179 C 201.57 5.93096 1.47241 0
M  V30 2180 C 202.568 6.76093 0.968891 0
M  V30 2181 O 202.256 8.02078 0.540924 0
M  V30 2182 H 201.988 0.570457 0.362705 0
M  V30 2183 H 204.542 1.99249 0.498885 0
M  V30 2184 H 202.772 2.41786 3.01789 0
M  V30 2185 H 204.461 2.82403 2.91553 0
M  V30 2186 H 205.227 4.68154 1.26716 0
M  V30 2187 H 201.106 4.00216 2.28797 0
M  V30 2188 H 204.65 6.95776 0.504192 0
M  V30 2189 H 200.547 6.271 1.53022 0
M  V30 2190 H 201.315 8.15794 0.66502 0
M  V30 2191 N 203.978 -0.674533 1.42435 0
M  V30 2192 C 205.225 -1.43459 1.42919 0
M  V30 2193 C 205.553 -1.94446 0.0457312 0
M  V30 2194 O 204.808 -1.7132 -0.94593 0
M  V30 2195 C 205.107 -2.64767 2.40069 0
M  V30 2196 C 204.773 -2.3232 3.86443 0
M  V30 2197 C 203.435 -2.23182 4.26314 0
M  V30 2198 C 205.787 -2.05977 4.78773 0
M  V30 2199 C 203.115 -1.85827 5.56494 0
M  V30 2200 C 205.467 -1.70125 6.09295 0
M  V30 2201 C 204.131 -1.59498 6.48164 0
M  V30 2202 H 203.401 -0.524952 0.522978 0
M  V30 2203 H 206.048 -0.769097 1.75377 0
M  V30 2204 H 204.353 -3.36349 2.00939 0
M  V30 2205 H 206.05 -3.22949 2.37707 0
M  V30 2206 H 202.64 -2.40334 3.54877 0
M  V30 2207 H 206.824 -2.11969 4.48757 0
M  V30 2208 H 202.08 -1.76168 5.8547 0
M  V30 2209 H 206.254 -1.48767 6.80324 0
M  V30 2210 H 203.881 -1.30322 7.48946 0
M  V30 2211 N 205.456 -1.28612 -0.910864 0
M  V30 2212 C 206.366 -1.14643 -2.0468 0
M  V30 2213 C 207.382 -0.0723121 -1.7385 0
M  V30 2214 O 208.558 -0.282178 -1.99413 0
M  V30 2215 C 205.623 -0.812561 -3.37044 0
M  V30 2216 C 204.684 -1.96935 -3.81465 0
M  V30 2217 C 203.917 -1.65131 -5.07511 0
M  V30 2218 O 204.14 -0.567013 -5.67575 0
M  V30 2219 O 203.074 -2.49585 -5.47714 0
M  V30 2220 H 206.9 -2.1001 -2.19384 0
M  V30 2221 H 204.485 -1.07958 -1.03274 0
M  V30 2222 H 206.367 -0.640441 -4.16505 0
M  V30 2223 H 205.042 0.111426 -3.23508 0
M  V30 2224 H 203.949 -2.19664 -3.02818 0
M  V30 2225 H 205.282 -2.87414 -3.99567 0
M  V30 2226 N 206.934 1.1197 -1.10907 0
M  V30 2227 C 208.18 1.8386 -0.855773 0
M  V30 2228 C 208.513 1.84134 0.617103 0
M  V30 2229 O 207.788 1.29041 1.45529 0
M  V30 2230 C 208.071 3.31305 -1.411 0
M  V30 2231 C 207.924 3.39456 -2.9511 0
M  V30 2232 C 209.243 4.2721 -1.05736 0
M  V30 2233 H 206.362 0.667545 -0.312334 0
M  V30 2234 H 209.004 1.31331 -1.37303 0
M  V30 2235 H 207.154 3.76169 -0.97105 0
M  V30 2236 H 208.826 3.03191 -3.47668 0
M  V30 2237 H 207.069 2.79849 -3.31462 0
M  V30 2238 H 207.74 4.43209 -3.29044 0
M  V30 2239 H 210.216 3.90497 -1.43706 0
M  V30 2240 H 209.092 5.28775 -1.47269 0
M  V30 2241 H 209.353 4.42088 0.0325958 0
M  V30 2242 N 208.412 0.89855 1.29475 0
M  V30 2243 C 209.642 0.538479 1.99459 0
M  V30 2244 C 210.05 -0.880922 1.67441 0
M  V30 2245 O 209.393 -1.59283 0.915127 0
M  V30 2246 C 209.455 0.649564 3.53583 0
M  V30 2247 C 209.119 2.03573 4.09154 0
M  V30 2248 C 210.116 3.00675 4.24135 0
M  V30 2249 C 207.801 2.3448 4.44212 0
M  V30 2250 C 209.795 4.26809 4.73405 0
M  V30 2251 C 207.482 3.60857 4.93179 0
M  V30 2252 C 208.48 4.56836 5.0773 0
M  V30 2253 O 208.168 5.80969 5.55635 0
M  V30 2254 H 207.9 0.205372 0.644048 0
M  V30 2255 H 210.454 1.20958 1.66007 0
M  V30 2256 H 208.684 -0.0785592 3.8662 0
M  V30 2257 H 210.373 0.29881 4.04799 0
M  V30 2258 H 211.139 2.78112 3.97339 0
M  V30 2259 H 207.018 1.60534 4.32145 0
M  V30 2260 H 210.562 5.0173 4.84678 0
M  V30 2261 H 206.459 3.83251 5.19412 0
M  V30 2262 H 207.227 5.83542 5.73952 0
M  V30 2263 N 209.89 -1.43072 0.660911 0
M  V30 2264 C 211.136 -2.0202 0.177708 0
M  V30 2265 C 211.469 -1.52066 -1.20787 0
M  V30 2266 O 210.744 -0.716987 -1.80802 0
M  V30 2267 C 211.027 -3.59561 0.197019 0
M  V30 2268 C 210.88 -4.19727 1.61706 0
M  V30 2269 C 212.199 -4.37664 -0.462396 0
M  V30 2270 H 209.318 -0.734034 0.0660494 0
M  V30 2271 H 211.96 -1.70272 0.843058 0
M  V30 2272 H 210.11 -3.86739 -0.369527 0
M  V30 2273 H 211.782 -4.03553 2.23479 0
M  V30 2274 H 210.025 -3.76084 2.16201 0
M  V30 2275 H 210.696 -5.28834 1.58237 0
M  V30 2276 H 213.172 -4.16095 0.0197215 0
M  V30 2277 H 212.048 -5.47305 -0.418188 0
M  V30 2278 H 212.309 -4.14493 -1.53778 0
M  V30 2279 N 211.368 -0.403325 -1.52352 0
M  V30 2280 C 212.316 0.439752 -2.28405 0
M  V30 2281 C 213.31 1.05089 -1.32863 0
M  V30 2282 O 214.516 0.989759 -1.50345 0
M  V30 2283 H 210.891 0.160587 -0.734653 0
M  V30 2284 H 212.862 -0.222983 -2.97566 0
M  V30 2285 C 211.611 1.54736 -3.11371 0
M  V30 2286 H 210.934 1.08643 -3.84755 0
M  V30 2287 H 212.374 2.1112 -3.67701 0
M  V30 2288 C 210.833 2.51141 -2.24566 0
M  V30 2289 O 211.363 3.54887 -1.88196 0
M  V30 2290 N 209.569 2.21213 -1.8845 0
M  V30 2291 H 209.116 1.36878 -2.18225 0
M  V30 2292 H 209.074 2.85963 -1.30662 0
M  V30 2293 N 212.846 1.57033 -0.133567 0
M  V30 2294 C 214.094 1.953 0.519848 0
M  V30 2295 C 214.415 1.01866 1.66278 0
M  V30 2296 O 213.685 0.0776513 1.95746 0
M  V30 2297 H 212.265 0.721091 0.195032 0
M  V30 2298 H 214.927 1.93809 -0.205921 0
M  V30 2299 H 214.023 2.98695 0.904854 0
M  V30 2300 N 214.325 -0.140222 1.56975 0
M  V30 2301 C 215.257 -1.19818 1.95388 0
M  V30 2302 C 216.27 -1.38816 0.850525 0
M  V30 2303 O 217.459 -1.38267 1.12891 0
M  V30 2304 C 214.559 -2.56189 2.21857 0
M  V30 2305 C 213.732 -2.58077 3.5315 0
M  V30 2306 C 212.791 -3.76037 3.6808 0
M  V30 2307 O 211.817 -3.60598 4.40406 0
M  V30 2308 N 213.019 -4.93763 3.05251 0
M  V30 2309 H 215.784 -0.871609 2.86746 0
M  V30 2310 H 213.345 -0.32972 1.58507 0
M  V30 2311 H 215.337 -3.33623 2.2908 0
M  V30 2312 H 213.907 -2.81111 1.36731 0
M  V30 2313 H 213.127 -1.6651 3.57307 0
M  V30 2314 H 214.415 -2.56377 4.39486 0
M  V30 2315 H 213.813 -5.09209 2.46419 0
M  V30 2316 H 212.37 -5.68949 3.18026 0
M  V30 2317 N 215.803 -1.52179 -0.40978 0
M  V30 2318 C 217.033 -1.69807 -1.17682 0
M  V30 2319 C 217.441 -0.406908 -1.84773 0
M  V30 2320 O 216.784 0.626863 -1.72673 0
M  V30 2321 C 216.846 -2.77712 -2.2829 0
M  V30 2322 C 216.51 -4.19481 -1.81341 0
M  V30 2323 C 217.507 -5.03345 -1.30154 0
M  V30 2324 C 215.192 -4.65713 -1.88194 0
M  V30 2325 C 217.186 -6.31511 -0.864416 0
M  V30 2326 C 214.873 -5.93869 -1.44093 0
M  V30 2327 C 215.871 -6.76597 -0.933023 0
M  V30 2328 O 215.559 -8.02354 -0.49838 0
M  V30 2329 H 215.291 -0.572372 -0.359675 0
M  V30 2330 H 217.845 -1.99511 -0.488311 0
M  V30 2331 H 216.075 -2.43383 -3.00502 0
M  V30 2332 H 217.764 -2.83946 -2.90051 0
M  V30 2333 H 218.53 -4.68819 -1.24232 0
M  V30 2334 H 214.409 -4.01424 -2.26671 0
M  V30 2335 H 217.953 -6.96033 -0.467286 0
M  V30 2336 H 213.85 -6.27903 -1.49694 0
M  V30 2337 H 214.618 -8.16135 -0.621747 0
M  V30 2338 N 217.281 0.66697 -1.42791 0
M  V30 2339 C 218.527 1.4291 -1.43891 0
M  V30 2340 C 218.86 1.94114 -0.0578972 0
M  V30 2341 O 218.135 1.71414 0.91911 0
M  V30 2342 C 218.418 2.62049 -2.46987 0
M  V30 2343 C 218.271 2.16426 -3.94309 0
M  V30 2344 C 219.59 3.64266 -2.46978 0
M  V30 2345 H 216.709 0.518306 -0.523954 0
M  V30 2346 H 219.351 0.757321 -1.74255 0
M  V30 2347 H 217.501 3.19361 -2.21225 0
M  V30 2348 H 219.173 1.64221 -4.31079 0
M  V30 2349 H 217.416 1.47925 -4.078 0
M  V30 2350 H 218.087 3.02038 -4.62036 0
M  V30 2351 H 220.563 3.16686 -2.69906 0
M  V30 2352 H 219.439 4.45196 -3.21079 0
M  V30 2353 H 219.7 4.15927 -1.49857 0
M  V30 2354 N 218.759 1.29093 0.90403 0
M  V30 2355 C 220.007 1.16583 1.65085 0
M  V30 2356 C 220.328 -0.283933 1.92922 0
M  V30 2357 O 219.598 -1.19509 1.55224 0
M  V30 2358 H 218.178 0.428467 0.611903 0
M  V30 2359 H 220.84 1.61959 1.08422 0
M  V30 2360 H 219.936 1.71266 2.6091 0
M  V30 2361 N 220.237 -1.11381 1.11499 0
M  V30 2362 C 221.484 -1.83132 0.864231 0
M  V30 2363 C 221.812 -1.84683 -0.610114 0
M  V30 2364 O 221.067 -1.29589 -1.46646 0
M  V30 2365 C 221.366 -3.30026 1.37177 0
M  V30 2366 C 221.032 -3.48634 2.85946 0
M  V30 2367 C 219.694 -3.53421 3.26569 0
M  V30 2368 C 222.046 -3.54837 3.81759 0
M  V30 2369 C 219.374 -3.61967 4.61733 0
M  V30 2370 C 221.726 -3.64915 5.1674 0
M  V30 2371 C 220.39 -3.67962 5.5692 0
M  V30 2372 H 219.66 -0.670127 0.316245 0
M  V30 2373 H 222.307 -1.31354 1.3935 0
M  V30 2374 H 220.612 -3.84304 0.762753 0
M  V30 2375 H 222.309 -3.84034 1.15408 0
M  V30 2376 H 218.899 -3.45579 2.53521 0
M  V30 2377 H 223.083 -3.50399 3.51474 0
M  V30 2378 H 218.339 -3.62603 4.92269 0
M  V30 2379 H 222.513 -3.68658 5.90816 0
M  V30 2380 H 220.14 -3.74336 6.61647 0
M  V30 2381 N 221.715 -0.905404 -1.28997 0
M  V30 2382 C 222.94 -0.549175 -1.99997 0
M  V30 2383 C 223.365 0.860276 -1.67275 0
M  V30 2384 O 222.723 1.57355 -0.900502 0
M  V30 2385 C 222.771 -0.755185 -3.52604 0
M  V30 2386 O 221.875 0.189692 -4.11964 0
M  V30 2387 H 221.216 -0.213899 -0.628604 0
M  V30 2388 H 223.746 -1.21856 -1.64354 0
M  V30 2389 H 223.756 -0.662045 -4.02593 0
M  V30 2390 H 222.431 -1.78271 -3.75755 0
M  V30 2391 H 221.008 0.0485257 -3.72868 0
M  V30 2392 N 223.193 1.4272 -0.668489 0
M  V30 2393 C 224.14 2.30796 0.0137489 0
M  V30 2394 C 225.11 1.4561 0.799177 0
M  V30 2395 O 226.295 1.74453 0.772702 0
M  V30 2396 C 223.435 3.31377 0.963507 0
M  V30 2397 C 222.548 4.31655 0.172569 0
M  V30 2398 C 221.683 5.19312 1.1175 0
M  V30 2399 C 220.722 6.11274 0.317886 0
M  V30 2400 N 219.859 6.91504 1.2152 0
M  V30 2401 H 224.699 2.88585 -0.743161 0
M  V30 2402 H 222.236 1.42154 -0.378226 0
M  V30 2403 H 224.194 3.88214 1.52792 0
M  V30 2404 H 222.824 2.75202 1.68712 0
M  V30 2405 H 221.876 3.76988 -0.508374 0
M  V30 2406 H 223.188 4.96779 -0.448527 0
M  V30 2407 H 222.342 5.80851 1.75206 0
M  V30 2408 H 221.081 4.5435 1.77249 0
M  V30 2409 H 220.086 5.48809 -0.329918 0
M  V30 2410 H 221.311 6.78283 -0.332917 0
M  V30 2411 H 219.257 6.29176 1.85671 0
M  V30 2412 H 219.174 7.53209 0.649036 0
M  V30 2413 H 220.442 7.57535 1.83742 0
M  V30 2414 N 224.671 0.411399 1.52136 0
M  V30 2415 C 225.919 -0.163322 2.01439 0
M  V30 2416 C 226.24 -1.45453 1.29879 0
M  V30 2417 O 225.51 -1.91225 0.4254 0
M  V30 2418 H 224.09 -0.0633447 0.744309 0
M  V30 2419 H 226.752 0.548161 1.87033 0
M  V30 2420 H 225.848 -0.357817 3.10042 0
M  V30 2421 N 226.149 -1.5696 0.141893 0
M  V30 2422 C 227.374 -2.00754 -0.520838 0
M  V30 2423 C 227.799 -1.0213 -1.57959 0
M  V30 2424 O 227.157 0.00371324 -1.813 0
M  V30 2425 C 227.205 -3.43318 -1.10294 0
M  V30 2426 O 226.309 -3.47679 -2.21795 0
M  V30 2427 H 225.65 -0.651564 -0.127908 0
M  V30 2428 H 228.18 -2.03221 0.23712 0
M  V30 2429 H 228.19 -3.82012 -1.43287 0
M  V30 2430 H 226.865 -4.14608 -0.327574 0
M  V30 2431 H 225.442 -3.20824 -1.9007 0
M  V30 2432 N 227.627 0.131896 -1.57047 0
M  V30 2433 C 229.043 0.485031 -1.52051 0
M  V30 2434 C 229.243 1.82563 -0.85281 0
M  V30 2435 O 228.299 2.48817 -0.429694 0
M  V30 2436 C 229.612 0.481409 -2.96821 0
M  V30 2437 C 231.16 0.565868 -3.07842 0
M  V30 2438 C 231.635 0.592762 -4.54148 0
M  V30 2439 N 233.126 0.654564 -4.58552 0
M  V30 2440 C 233.861 0.696608 -5.69153 0
M  V30 2441 N 233.357 0.697078 -6.89284 0
M  V30 2442 N 235.15 0.738639 -5.57226 0
M  V30 2443 H 227.301 -0.746664 -1.98843 0
M  V30 2444 H 229.564 -0.273999 -0.90754 0
M  V30 2445 H 229.27 -0.435731 -3.4899 0
M  V30 2446 H 229.144 1.3139 -3.53577 0
M  V30 2447 H 231.531 1.47343 -2.55684 0
M  V30 2448 H 231.612 -0.29406 -2.54104 0
M  V30 2449 H 231.256 -0.310701 -5.06949 0
M  V30 2450 H 231.186 1.46939 -5.05684 0
M  V30 2451 H 233.677 0.660887 -3.72076 0
M  V30 2452 H 233.99 0.731426 -7.69331 0
M  V30 2453 H 232.335 0.66471 -6.91814 0
M  V30 2454 H 235.526 0.735545 -4.62285 0
M  V30 2455 H 235.699 0.767938 -6.43434 0
M  V30 2456 N 229.106 1.52395 0.401703 0
M  V30 2457 C 230.036 1.79231 1.49661 0
M  V30 2458 C 231.017 0.643654 1.57452 0
M  V30 2459 O 232.202 0.889989 1.72606 0
M  V30 2460 C 229.332 1.94971 2.87409 0
M  V30 2461 C 228.286 3.10604 2.94465 0
M  V30 2462 C 227.612 3.11577 4.34538 0
M  V30 2463 C 228.912 4.49921 2.6527 0
M  V30 2464 H 230.606 2.70917 1.27454 0
M  V30 2465 H 228.152 1.30362 0.6117 0
M  V30 2466 H 230.105 2.12328 3.63999 0
M  V30 2467 H 228.829 0.999632 3.10926 0
M  V30 2468 H 227.488 2.93009 2.20321 0
M  V30 2469 H 227.136 2.14277 4.55076 0
M  V30 2470 H 226.836 3.89247 4.40183 0
M  V30 2471 H 228.36 3.31073 5.13053 0
M  V30 2472 H 229.774 4.67683 3.31581 0
M  V30 2473 H 228.171 5.29564 2.82281 0
M  V30 2474 H 229.241 4.57507 1.60671 0
M  V30 2475 N 230.584 -0.659388 1.43143 0
M  V30 2476 C 231.812 -1.44723 1.47861 0
M  V30 2477 C 232.227 -1.88563 0.0945886 0
M  V30 2478 O 231.584 -1.59108 -0.893915 0
M  V30 2479 C 231.635 -2.68627 2.41913 0
M  V30 2480 O 231.356 -2.26623 3.74932 0
M  V30 2481 C 232.857 -3.62045 2.55809 0
M  V30 2482 H 230.077 -0.444801 0.502387 0
M  V30 2483 H 232.621 -0.808916 1.87821 0
M  V30 2484 H 230.776 -3.28613 2.05164 0
M  V30 2485 H 231.19 -3.06745 4.2545 0
M  V30 2486 H 232.664 -4.45666 3.25708 0
M  V30 2487 H 233.141 -4.08981 1.60099 0
M  V30 2488 H 233.747 -3.07944 2.93344 0
M  V30 2489 N 232.062 -1.29571 -0.897171 0
M  V30 2490 C 233.025 -1.14913 -1.98312 0
M  V30 2491 C 234.025 -0.0838629 -1.60581 0
M  V30 2492 O 235.215 -0.331006 -1.71026 0
M  V30 2493 C 232.347 -0.757835 -3.3237 0
M  V30 2494 H 233.54 -2.11377 -2.12743 0
M  V30 2495 H 231.093 -1.12793 -1.08201 0
M  V30 2496 H 231.828 0.206837 -3.2364 0
M  V30 2497 H 231.613 -1.52755 -3.61121 0
M  V30 2498 H 233.103 -0.678408 -4.12053 0
M  V30 2499 N 233.54 1.10788 -1.12088 0
M  V30 2500 C 234.45 2.20599 -0.798338 0
M  V30 2501 C 235.466 1.72712 0.21135 0
M  V30 2502 O 236.642 2.01348 0.0458477 0
M  V30 2503 C 233.707 3.45771 -0.253674 0
M  V30 2504 C 232.768 4.08411 -1.32283 0
M  V30 2505 C 232.001 5.27608 -0.80406 0
M  V30 2506 O 232.224 5.69241 0.363478 0
M  V30 2507 O 231.158 5.8101 -1.57198 0
M  V30 2508 H 234.984 2.50614 -1.7154 0
M  V30 2509 H 232.569 1.19454 -0.897275 0
M  V30 2510 H 234.451 4.21376 0.0453691 0
M  V30 2511 H 233.126 3.1739 0.636005 0
M  V30 2512 H 232.033 3.34507 -1.67499 0
M  V30 2513 H 233.366 4.40986 -2.18614 0
M  V30 2514 N 235.018 0.912232 1.28515 0
M  V30 2515 C 236.265 0.544599 1.95039 0
M  V30 2516 C 236.593 -0.911435 1.71823 0
M  V30 2517 O 235.848 -1.66317 1.03137 0
M  V30 2518 C 236.147 0.798392 3.48368 0
M  V30 2519 C 235.813 2.23374 3.91682 0
M  V30 2520 C 234.475 2.62617 4.03219 0
M  V30 2521 C 236.827 3.16786 4.13879 0
M  V30 2522 C 234.155 3.94429 4.3433 0
M  V30 2523 C 236.507 4.48161 4.46469 0
M  V30 2524 C 235.171 4.8726 4.56217 0
M  V30 2525 H 234.441 0.199283 0.7137 0
M  V30 2526 H 237.088 1.15327 1.52879 0
M  V30 2527 H 235.393 0.106908 3.91654 0
M  V30 2528 H 237.09 0.493141 3.97956 0
M  V30 2529 H 233.68 1.91922 3.83228 0
M  V30 2530 H 237.864 2.87677 4.0442 0
M  V30 2531 H 233.12 4.24426 4.40082 0
M  V30 2532 H 237.294 5.20559 4.62592 0
M  V30 2533 H 234.921 5.89431 4.80078 0
M  V30 2534 N 236.496 -1.42363 0.676048 0
M  V30 2535 C 237.773 -1.95183 0.127726 0
M  V30 2536 C 238.153 -1.61641 -1.35777 0
M  V30 2537 O 237.501 -0.913216 -2.09458 0
M  V30 2538 C 237.711 -3.46721 0.398199 0
M  V30 2539 C 239.059 -4.23427 0.315383 0
M  V30 2540 O 240.083 -3.54649 0.332016 0
M  V30 2541 O 238.942 -5.45888 0.25865 0
M  V30 2542 H 236.036 -0.826992 0.00359427 0
M  V30 2543 H 238.582 -1.52184 0.750864 0
M  V30 2544 H 237.354 -3.64344 1.4272 0
M  V30 2545 H 236.977 -3.96769 -0.256885 0
M  V30 2546 N 237.974 -0.419461 -1.51915 0
M  V30 2547 C 239.223 0.154346 -2.01109 0
M  V30 2548 C 239.536 1.45338 -1.30905 0
M  V30 2549 O 240.742 2.10906 -1.7097 0
M  V30 2550 C 239.198 0.325615 -3.58424 0
M  V30 2551 C 238.806 -0.961934 -4.37551 0
M  V30 2552 C 240.55 0.854155 -4.15818 0
M  V30 2553 C 238.457 -0.757287 -5.86531 0
M  V30 2554 H 237.387 0.0614563 -0.751491 0
M  V30 2555 H 240.038 -0.54649 -1.75173 0
M  V30 2556 H 238.42 1.08903 -3.80731 0
M  V30 2557 H 239.594 -1.7323 -4.26999 0
M  V30 2558 H 237.909 -1.41766 -3.91524 0
M  V30 2559 H 240.506 1.02346 -5.24814 0
M  V30 2560 H 240.849 1.83172 -3.73837 0
M  V30 2561 H 241.382 0.149528 -3.97519 0
M  V30 2562 H 238.121 -1.70671 -6.32892 0
M  V30 2563 H 237.641 -0.0264061 -5.99794 0
M  V30 2564 H 239.32 -0.403482 -6.45741 0
M  V30 2565 N 239.452 1.56882 -0.150215 0
M  V30 2566 C 240.677 2.01027 0.510184 0
M  V30 2567 C 241.102 1.02966 1.57415 0
M  V30 2568 O 240.46 0.00590158 1.81299 0
M  V30 2569 C 240.508 3.43899 1.08472 0
M  V30 2570 O 239.612 3.4885 2.19948 0
M  V30 2571 H 238.953 0.652233 0.124451 0
M  V30 2572 H 241.483 2.03093 -0.247894 0
M  V30 2573 H 241.493 3.82766 1.41259 0
M  V30 2574 H 240.168 4.14776 0.305582 0
M  V30 2575 H 238.745 3.21827 1.88366 0
M  V30 2576 N 240.93 -0.123565 1.57115 0
M  V30 2577 C 241.893 -1.13583 1.99076 0
M  V30 2578 C 242.893 -1.34564 0.880296 0
M  V30 2579 O 244.083 -1.31158 1.14644 0
M  V30 2580 C 241.215 -2.49128 2.32698 0
M  V30 2581 H 242.408 -0.775287 2.89706 0
M  V30 2582 H 239.961 -0.36771 1.51913 0
M  V30 2583 H 240.696 -2.90111 1.44934 0
M  V30 2584 H 240.481 -2.35255 3.13684 0
M  V30 2585 H 241.971 -3.2199 2.65918 0
M  V30 2586 N 242.408 -1.52605 -0.393616 0
M  V30 2587 C 243.341 -1.71798 -1.50202 0
M  V30 2588 C 244.319 -0.565743 -1.52441 0
M  V30 2589 O 245.503 -0.794987 -1.70916 0
M  V30 2590 C 242.63 -1.7714 -2.88685 0
M  V30 2591 C 241.676 -2.98845 -3.04292 0
M  V30 2592 S 242.509 -4.58909 -2.75976 0
M  V30 2593 C 243.665 -4.6706 -4.1666 0
M  V30 2594 H 243.898 -2.65542 -1.33696 0
M  V30 2595 H 241.431 -1.42839 -0.586195 0
M  V30 2596 H 243.389 -1.80903 -3.68489 0
M  V30 2597 H 242.05 -0.844969 -3.02521 0
M  V30 2598 H 241.243 -2.99111 -4.05646 0
M  V30 2599 H 240.845 -2.9305 -2.32374 0
M  V30 2600 H 243.137 -4.45391 -5.10523 0
M  V30 2601 H 244.08 -5.6905 -4.21412 0
M  V30 2602 H 244.488 -3.95944 -4.02354 0
M  V30 2603 N 243.887 0.651787 -1.4349 0
M  V30 2604 C 245.133 1.41376 -1.45398 0
M  V30 2605 C 245.466 1.94041 -0.0784823 0
M  V30 2606 O 244.741 1.72379 0.900878 0
M  V30 2607 C 245.024 2.59414 -2.49752 0
M  V30 2608 C 244.877 2.12232 -3.96582 0
M  V30 2609 C 246.196 3.61626 -2.50827 0
M  V30 2610 H 243.315 0.512719 -0.529422 0
M  V30 2611 H 245.957 0.738796 -1.75048 0
M  V30 2612 H 244.107 3.16997 -2.246 0
M  V30 2613 H 245.779 1.59639 -4.32797 0
M  V30 2614 H 244.022 1.43592 -4.09346 0
M  V30 2615 H 244.693 2.9712 -4.65214 0
M  V30 2616 H 247.169 3.13805 -2.7325 0
M  V30 2617 H 246.045 4.41766 -3.25783 0
M  V30 2618 H 246.306 4.14314 -1.5426 0
M  V30 2619 N 245.365 1.30045 0.890287 0
M  V30 2620 C 246.312 1.15976 1.99545 0
M  V30 2621 C 247.282 0.0506202 1.66023 0
M  V30 2622 O 248.467 0.219847 1.89529 0
M  V30 2623 C 245.607 0.852054 3.34416 0
M  V30 2624 C 244.72 2.04255 3.80662 0
M  V30 2625 C 243.855 1.6734 5.04154 0
M  V30 2626 C 242.894 2.82916 5.42794 0
M  V30 2627 N 242.031 2.46333 6.57468 0
M  V30 2628 H 246.871 2.10524 2.10911 0
M  V30 2629 H 244.408 1.04749 1.03276 0
M  V30 2630 H 246.366 0.654296 4.12037 0
M  V30 2631 H 244.996 -0.0565502 3.2275 0
M  V30 2632 H 244.048 2.35172 2.98995 0
M  V30 2633 H 245.36 2.90826 4.05242 0
M  V30 2634 H 244.514 1.43908 5.89386 0
M  V30 2635 H 243.253 0.779308 4.81433 0
M  V30 2636 H 242.258 3.0702 4.56091 0
M  V30 2637 H 243.483 3.73004 5.6749 0
M  V30 2638 H 241.429 1.59423 6.36334 0
M  V30 2639 H 241.346 3.26436 6.81891 0
M  V30 2640 H 242.614 2.26244 7.45945 0
M  V30 2641 N 246.843 -1.10192 1.12674 0
M  V30 2642 C 248.071 -1.85983 0.906527 0
M  V30 2643 C 248.486 -1.80783 -0.544333 0
M  V30 2644 O 247.843 -1.19834 -1.37645 0
M  V30 2645 C 247.894 -3.34281 1.37618 0
M  V30 2646 O 247.615 -3.39401 2.77017 0
M  V30 2647 C 249.116 -4.26938 1.19325 0
M  V30 2648 H 246.336 -0.587716 0.323775 0
M  V30 2649 H 248.88 -1.39284 1.49734 0
M  V30 2650 H 247.035 -3.78436 0.828539 0
M  V30 2651 H 247.449 -4.31838 2.97684 0
M  V30 2652 H 248.923 -5.29181 1.57071 0
M  V30 2653 H 249.4 -4.38995 0.134097 0
M  V30 2654 H 250.006 -3.8859 1.72852 0
M  V30 2655 N 248.321 -0.919034 -1.28029 0
M  V30 2656 C 249.569 -0.553838 -1.94363 0
M  V30 2657 C 249.89 0.906357 -1.72656 0
M  V30 2658 O 249.16 1.64143 -1.0693 0
M  V30 2659 H 247.74 -0.201834 -0.719216 0
M  V30 2660 H 250.402 -1.16954 -1.55909 0
M  V30 2661 H 249.498 -0.752758 -3.02886 0
M  V30 2662 N 249.799 1.42003 -0.683588 0
M  V30 2663 C 251.076 1.95112 -0.138075 0
M  V30 2664 C 251.456 1.62359 1.34918 0
M  V30 2665 O 250.804 0.924311 2.08971 0
M  V30 2666 C 251.014 3.46505 -0.416581 0
M  V30 2667 C 252.362 4.23254 -0.337834 0
M  V30 2668 O 253.386 3.54468 -0.35082 0
M  V30 2669 O 252.245 5.45743 -0.287596 0
M  V30 2670 H 249.339 0.826961 -0.00797996 0
M  V30 2671 H 251.885 1.51784 -0.758924 0
M  V30 2672 H 250.657 3.63582 -1.4465 0
M  V30 2673 H 250.28 3.969 0.235839 0
M  V30 2674 N 251.277 0.427512 1.51691 0
M  V30 2675 C 252.225 -0.403359 2.29076 0
M  V30 2676 C 253.219 -1.02962 1.34518 0
M  V30 2677 O 254.425 -0.965715 1.51901 0
M  V30 2678 H 250.8 -0.148879 0.737115 0
M  V30 2679 H 252.771 0.270295 2.97173 0
M  V30 2680 C 251.52 -1.49763 3.13794 0
M  V30 2681 H 250.843 -1.02508 3.86435 0
M  V30 2682 H 252.283 -2.05244 3.71014 0
M  V30 2683 C 250.742 -2.47536 2.28533 0
M  V30 2684 O 251.272 -3.51848 1.93819 0
M  V30 2685 N 249.478 -2.18187 1.91945 0
M  V30 2686 H 249.025 -1.33389 2.20375 0
M  V30 2687 H 248.983 -2.83848 1.35195 0
M  V30 2688 N 252.755 -1.56801 0.158532 0
M  V30 2689 C 253.685 -2.20347 -0.772609 0
M  V30 2690 C 254.666 -1.15518 -1.24859 0
M  V30 2691 O 255.851 -1.43902 -1.30406 0
M  V30 2692 C 252.981 -2.83417 -2.00729 0
M  V30 2693 C 251.935 -3.94174 -1.66765 0
M  V30 2694 C 251.261 -4.44233 -2.97592 0
M  V30 2695 C 252.561 -5.14392 -0.905447 0
M  V30 2696 H 254.255 -2.98413 -0.242959 0
M  V30 2697 H 251.801 -1.43537 -0.115419 0
M  V30 2698 H 253.754 -3.26543 -2.6636 0
M  V30 2699 H 252.478 -2.02701 -2.56086 0
M  V30 2700 H 251.137 -3.51684 -1.03508 0
M  V30 2701 H 250.785 -3.60325 -3.50963 0
M  V30 2702 H 250.485 -5.18945 -2.75626 0
M  V30 2703 H 252.009 -4.90037 -3.64274 0
M  V30 2704 H 253.423 -5.5429 -1.46408 0
M  V30 2705 H 251.82 -5.9494 -0.7853 0
M  V30 2706 H 252.89 -4.84795 0.100668 0
M  V30 2707 N 254.233 0.115231 -1.57178 0
M  V30 2708 C 255.163 1.1423 -2.03651 0
M  V30 2709 C 256.144 1.42967 -0.921655 0
M  V30 2710 O 257.329 1.53343 -1.19162 0
M  V30 2711 C 254.459 2.4675 -2.44401 0
M  V30 2712 C 253.413 2.32467 -3.59365 0
M  V30 2713 C 252.739 3.69984 -3.86026 0
M  V30 2714 C 254.039 1.78203 -4.90959 0
M  V30 2715 H 255.733 0.755749 -2.89705 0
M  V30 2716 H 253.279 0.362093 -1.39373 0
M  V30 2717 H 255.232 3.18854 -2.75517 0
M  V30 2718 H 253.956 2.87302 -1.55322 0
M  V30 2719 H 252.615 1.62811 -3.28463 0
M  V30 2720 H 252.263 4.08028 -2.94147 0
M  V30 2721 H 251.963 3.61279 -4.63412 0
M  V30 2722 H 253.487 4.43587 -4.19599 0
M  V30 2723 H 254.901 2.40128 -5.20587 0
M  V30 2724 H 253.298 1.8031 -5.72371 0
M  V30 2725 H 254.368 0.739876 -4.79222 0
M  V30 2726 N 255.711 1.52812 0.385517 0
M  V30 2727 C 256.951 1.69716 1.13911 0
M  V30 2728 C 257.315 0.42962 1.87132 0
M  V30 2729 O 258.516 0.475071 2.64569 0
M  V30 2730 C 256.787 2.90021 2.0886 0
M  V30 2731 S 258.346 3.27531 2.92009 0
M  V30 2732 H 255.164 0.59739 0.385547 0
M  V30 2733 H 257.766 1.90868 0.423061 0
M  V30 2734 H 256.47 3.80493 1.53797 0
M  V30 2735 H 256.001 2.71213 2.84969 0
M  V30 2736 H 258.016 2.77989 4.11019 0
M  V30 2737 N 257.189 -0.644168 1.43834 0
M  V30 2738 C 258.435 -1.40603 1.46146 0
M  V30 2739 C 258.768 -1.93997 0.0887717 0
M  V30 2740 O 258.043 -1.72854 -0.891724 0
M  V30 2741 C 258.326 -2.58086 2.51124 0
M  V30 2742 C 258.179 -2.10126 3.97702 0
M  V30 2743 C 259.498 -3.60291 2.52742 0
M  V30 2744 H 256.617 -0.509905 0.532134 0
M  V30 2745 H 259.259 -0.729502 1.75437 0
M  V30 2746 H 257.409 -3.15801 2.26278 0
M  V30 2747 H 259.081 -1.57342 4.33637 0
M  V30 2748 H 257.324 -1.41419 4.10101 0
M  V30 2749 H 257.995 -2.94649 4.66783 0
M  V30 2750 H 260.471 -3.12352 2.7491 0
M  V30 2751 H 259.347 -4.40032 3.28121 0
M  V30 2752 H 259.608 -4.1349 1.56455 0
M  V30 2753 N 258.668 -1.30515 -0.883378 0
M  V30 2754 C 260.084 -1.08881 -1.16692 0
M  V30 2755 C 260.284 0.149409 -2.00945 0
M  V30 2756 O 259.34 0.84257 -2.38027 0
M  V30 2757 C 260.653 -2.35319 -1.87204 0
M  V30 2758 C 262.201 -2.40799 -1.99962 0
M  V30 2759 C 262.676 -3.67083 -2.73887 0
M  V30 2760 N 264.167 -3.679 -2.81432 0
M  V30 2761 C 264.902 -4.62303 -3.3921 0
M  V30 2762 N 264.398 -5.67052 -3.98025 0
M  V30 2763 N 266.191 -4.49845 -3.3704 0
M  V30 2764 H 258.342 -2.09951 -0.321633 0
M  V30 2765 H 260.605 -0.92556 -0.205043 0
M  V30 2766 H 260.311 -3.25689 -1.3274 0
M  V30 2767 H 260.185 -2.44089 -2.87577 0
M  V30 2768 H 262.572 -1.50907 -2.53597 0
M  V30 2769 H 262.653 -2.36003 -0.98673 0
M  V30 2770 H 262.297 -4.57334 -2.20925 0
M  V30 2771 H 262.227 -3.69141 -3.75556 0
M  V30 2772 H 264.718 -2.92171 -2.39676 0
M  V30 2773 H 265.031 -6.35184 -4.40183 0
M  V30 2774 H 263.376 -5.70842 -3.96439 0
M  V30 2775 H 266.567 -3.67194 -2.90321 0
M  V30 2776 H 266.74 -5.23597 -3.81772 0
M  V30 2777 N 260.146 1.09593 -1.13257 0
M  V30 2778 C 261.392 1.82003 -0.89458 0
M  V30 2779 C 261.725 1.85402 0.577906 0
M  V30 2780 O 261 1.32099 1.42759 0
M  V30 2781 C 261.283 3.28237 -1.48096 0
M  V30 2782 C 261.136 3.3312 -3.02244 0
M  V30 2783 C 262.455 4.24871 -1.14774 0
M  V30 2784 H 259.574 0.66077 -0.326424 0
M  V30 2785 H 262.216 1.28389 -1.40058 0
M  V30 2786 H 260.366 3.74024 -1.05062 0
M  V30 2787 H 262.038 2.95748 -3.54021 0
M  V30 2788 H 260.281 2.72756 -3.37323 0
M  V30 2789 H 260.952 4.3613 -3.38371 0
M  V30 2790 H 263.428 3.87361 -1.51957 0
M  V30 2791 H 262.304 5.25532 -1.58452 0
M  V30 2792 H 262.565 4.42058 -0.0611849 0
M  V30 2793 N 261.624 0.925811 1.2754 0
M  V30 2794 C 262.557 0.367836 2.25216 0
M  V30 2795 C 263.535 -0.534738 1.53556 0
M  V30 2796 O 264.719 -0.475672 1.824 0
M  V30 2797 C 261.846 -0.47298 3.35381 0
M  V30 2798 C 260.892 0.365898 4.24928 0
M  V30 2799 S 261.725 1.78025 5.05042 0
M  V30 2800 C 262.881 0.947068 6.18693 0
M  V30 2801 H 263.114 1.19568 2.72196 0
M  V30 2802 H 260.647 0.727867 1.36167 0
M  V30 2803 H 262.605 -0.952242 3.99303 0
M  V30 2804 H 261.266 -1.27533 2.87044 0
M  V30 2805 H 260.459 -0.277582 5.03235 0
M  V30 2806 H 260.061 0.779261 3.65792 0
M  V30 2807 H 262.353 0.182201 6.77255 0
M  V30 2808 H 263.296 1.70309 6.87314 0
M  V30 2809 H 263.704 0.489913 5.6237 0
M  V30 2810 N 263.102 -1.41638 0.69111 0
M  V30 2811 C 264.034 -2.29194 -0.0161523 0
M  V30 2812 C 265.047 -1.44549 -0.748955 0
M  V30 2813 O 266.236 -1.681 -0.6004 0
M  V30 2814 C 263.336 -3.22325 -1.0469 0
M  V30 2815 C 262.509 -4.35706 -0.384621 0
M  V30 2816 C 261.568 -5.09443 -1.31737 0
M  V30 2817 O 260.594 -5.63386 -0.811451 0
M  V30 2818 N 261.796 -5.16487 -2.64993 0
M  V30 2819 H 264.561 -2.90534 0.735523 0
M  V30 2820 H 262.122 -1.52742 0.53679 0
M  V30 2821 H 264.114 -3.68522 -1.67252 0
M  V30 2822 H 262.684 -2.62323 -1.70015 0
M  V30 2823 H 261.904 -3.91948 0.420804 0
M  V30 2824 H 263.192 -5.08743 0.0760765 0
M  V30 2825 H 262.59 -4.741 -3.08619 0
M  V30 2826 H 261.147 -5.66276 -3.22761 0
M  V30 2827 N 264.58 -0.43555 -1.51462 0
M  V30 2828 C 265.826 0.123979 -2.03022 0
M  V30 2829 C 266.181 1.4054 -1.31401 0
M  V30 2830 O 265.474 1.86948 -0.419634 0
M  V30 2831 C 265.668 0.39942 -3.55161 0
M  V30 2832 C 265.497 -0.853754 -4.41521 0
M  V30 2833 C 264.267 -1.38675 -4.85898 0
M  V30 2834 C 266.465 -1.73939 -4.83994 0
M  V30 2835 N 264.447 -2.59265 -5.56466 0
M  V30 2836 C 265.818 -2.79135 -5.5361 0
M  V30 2837 C 267.873 -1.75402 -4.65981 0
M  V30 2838 C 266.576 -3.85737 -6.07124 0
M  V30 2839 C 268.602 -2.80938 -5.20411 0
M  V30 2840 C 267.964 -3.84854 -5.89972 0
M  V30 2841 H 264.063 0.00624887 -0.781975 0
M  V30 2842 H 266.647 -0.59582 -1.85359 0
M  V30 2843 H 264.818 1.08825 -3.72843 0
M  V30 2844 H 266.55 0.95015 -3.93388 0
M  V30 2845 H 263.305 -0.94094 -4.64159 0
M  V30 2846 H 263.729 -3.2041 -5.96378 0
M  V30 2847 H 268.371 -0.963926 -4.11665 0
M  V30 2848 H 266.089 -4.65586 -6.60496 0
M  V30 2849 H 269.675 -2.8301 -5.08327 0
M  V30 2850 H 268.555 -4.65176 -6.31333 0
M  V30 2851 N 266.058 1.56714 -0.166846 0
M  V30 2852 C 267.021 2.16539 0.751232 0
M  V30 2853 C 268.021 1.11228 1.16125 0
M  V30 2854 O 269.211 1.36765 1.07894 0
M  V30 2855 C 266.343 2.74462 2.02196 0
M  V30 2856 H 267.536 2.99013 0.230499 0
M  V30 2857 H 265.089 1.56081 0.0826982 0
M  V30 2858 H 265.824 1.95709 2.58589 0
M  V30 2859 H 265.609 3.51527 1.73698 0
M  V30 2860 H 267.099 3.20489 2.67725 0
M  V30 2861 N 267.536 -0.106894 1.57237 0
M  V30 2862 C 268.813 -0.843526 1.76477 0
M  V30 2863 C 269.193 -1.97499 0.745464 0
M  V30 2864 O 268.541 -2.27357 -0.228306 0
M  V30 2865 C 268.751 -1.34903 3.21873 0
M  V30 2866 C 270.099 -1.79654 3.8472 0
M  V30 2867 O 271.123 -1.44554 3.2555 0
M  V30 2868 O 269.982 -2.44515 4.88748 0
M  V30 2869 H 267.076 -0.401468 0.723016 0
M  V30 2870 H 269.622 -0.0896927 1.69463 0
M  V30 2871 H 268.394 -0.53781 3.87586 0
M  V30 2872 H 268.017 -2.16522 3.33473 0
M  V30 2873 N 269.014 -1.53014 -0.377408 0
M  V30 2874 C 270.239 -1.72818 -1.14668 0
M  V30 2875 C 270.664 -0.450725 -1.8262 0
M  V30 2876 O 270.022 0.59439 -1.7128 0
M  V30 2877 C 270.07 -2.88627 -2.16164 0
M  V30 2878 O 269.174 -2.56409 -3.22998 0
M  V30 2879 H 268.515 -0.574301 -0.333278 0
M  V30 2880 H 271.045 -1.99853 -0.438152 0
M  V30 2881 H 271.055 -3.14455 -2.59966 0
M  V30 2882 H 269.73 -3.81294 -1.66095 0
M  V30 2883 H 268.307 -2.4136 -2.84253 0
M  V30 2884 N 270.492 0.636531 -1.44174 0
M  V30 2885 C 271.72 1.42353 -1.50144 0
M  V30 2886 C 272.135 1.88389 -0.124575 0
M  V30 2887 O 271.492 1.6051 0.868489 0
M  V30 2888 C 271.543 2.64744 -2.46156 0
M  V30 2889 O 271.264 2.20629 -3.7849 0
M  V30 2890 C 272.765 3.57929 -2.61537 0
M  V30 2891 H 269.985 0.436752 -0.5094 0
M  V30 2892 H 272.529 0.778933 -1.89084 0
M  V30 2893 H 270.684 3.25307 -2.10366 0
M  V30 2894 H 271.098 2.99938 -4.30276 0
M  V30 2895 H 272.572 4.40428 -3.32757 0
M  V30 2896 H 273.049 4.06382 -1.66585 0
M  V30 2897 H 273.655 3.03238 -2.98206 0
M  V30 2898 N 271.97 1.30982 0.876444 0
M  V30 2899 C 273.2 1.23063 1.65949 0
M  V30 2900 C 273.608 -0.207537 1.88058 0
M  V30 2901 O 272.951 -1.14781 1.43426 0
M  V30 2902 C 273.013 1.89768 3.05333 0
M  V30 2903 C 272.677 3.39106 3.0636 0
M  V30 2904 C 273.674 4.3496 2.84791 0
M  V30 2905 C 271.359 3.80693 3.27686 0
M  V30 2906 C 273.353 5.70375 2.84519 0
M  V30 2907 C 271.04 5.16223 3.27043 0
M  V30 2908 C 272.038 6.10875 3.05485 0
M  V30 2909 O 271.726 7.43928 3.04674 0
M  V30 2910 H 271.458 0.426685 0.524324 0
M  V30 2911 H 274.012 1.7329 1.10271 0
M  V30 2912 H 272.242 1.34082 3.6271 0
M  V30 2913 H 273.931 1.75853 3.65829 0
M  V30 2914 H 274.697 4.0416 2.68103 0
M  V30 2915 H 270.576 3.07457 3.43499 0
M  V30 2916 H 274.12 6.44228 2.67611 0
M  V30 2917 H 270.017 5.4666 3.43269 0
M  V30 2918 H 270.785 7.53022 3.2078 0
M  V30 2919 N 273.449 -1.08991 1.13837 0
M  V30 2920 C 274.695 -1.81526 0.90422 0
M  V30 2921 C 275.028 -1.85706 -0.568066 0
M  V30 2922 O 274.303 -1.32855 -1.42056 0
M  V30 2923 C 274.586 -3.27447 1.49835 0
M  V30 2924 C 274.439 -3.31512 3.04006 0
M  V30 2925 C 275.758 -4.24256 1.17025 0
M  V30 2926 H 272.877 -0.659029 0.329923 0
M  V30 2927 H 275.519 -1.27644 1.40737 0
M  V30 2928 H 273.669 -3.73462 1.07044 0
M  V30 2929 H 275.341 -2.93867 3.55584 0
M  V30 2930 H 273.584 -2.70963 3.38765 0
M  V30 2931 H 274.255 -4.34329 3.40679 0
M  V30 2932 H 276.731 -3.86549 1.54009 0
M  V30 2933 H 275.607 -5.24684 1.61237 0
M  V30 2934 H 275.868 -4.42019 0.0846274 0
M  V30 2935 N 274.927 -0.932562 -1.27047 0
M  V30 2936 C 275.837 -0.441219 -2.30414 0
M  V30 2937 C 276.853 0.480525 -1.67233 0
M  V30 2938 O 278.029 0.362151 -1.98117 0
M  V30 2939 C 275.094 0.293651 -3.45454 0
M  V30 2940 C 274.155 -0.663601 -4.2414 0
M  V30 2941 C 273.388 0.0362932 -5.33688 0
M  V30 2942 O 273.611 1.2548 -5.56427 0
M  V30 2943 O 272.545 -0.638015 -5.98509 0
M  V30 2944 H 276.371 -1.29962 -2.74488 0
M  V30 2945 H 273.956 -0.6981 -1.32087 0
M  V30 2946 H 275.838 0.707951 -4.15411 0
M  V30 2947 H 274.513 1.12758 -3.03426 0
M  V30 2948 H 273.42 -1.12768 -3.56699 0
M  V30 2949 H 274.753 -1.46489 -4.69896 0
M  V30 2950 N 276.405 1.4127 -0.698611 0
M  V30 2951 C 277.682 1.94955 -0.158762 0
M  V30 2952 C 278.062 1.63781 1.33188 0
M  V30 2953 O 277.41 0.946423 2.07979 0
M  V30 2954 C 277.62 3.46044 -0.453309 0
M  V30 2955 C 278.968 4.22872 -0.382707 0
M  V30 2956 O 279.992 3.54076 -0.388396 0
M  V30 2957 O 278.851 5.45407 -0.345463 0
M  V30 2958 H 275.945 0.82683 -0.0167505 0
M  V30 2959 H 278.491 1.50971 -0.77498 0
M  V30 2960 H 277.263 3.62028 -1.48498 0
M  V30 2961 H 276.886 3.97128 0.19373 0
M  V30 2962 N 277.883 0.443576 1.51229 0
M  V30 2963 C 278.815 -0.400608 2.25672 0
M  V30 2964 C 279.828 -0.980945 1.29928 0
M  V30 2965 O 281.017 -0.874024 1.55638 0
M  V30 2966 C 278.117 -1.57304 3.00181 0
M  V30 2967 C 277.29 -1.11046 4.23069 0
M  V30 2968 C 276.349 -2.15374 4.80105 0
M  V30 2969 O 275.375 -1.74554 5.41774 0
M  V30 2970 N 276.577 -3.47922 4.64683 0
M  V30 2971 H 279.342 0.23745 2.98758 0
M  V30 2972 H 276.903 0.272809 1.59585 0
M  V30 2973 H 278.895 -2.26733 3.35223 0
M  V30 2974 H 277.465 -2.11632 2.30066 0
M  V30 2975 H 276.685 -0.243019 3.9345 0
M  V30 2976 H 277.973 -0.778888 5.02803 0
M  V30 2977 H 277.371 -3.83815 4.15575 0
M  V30 2978 H 275.928 -4.13228 5.0407 0
M  V30 2979 N 279.361 -1.56624 0.175154 0
M  V30 2980 C 280.638 -1.88688 -0.515373 0
M  V30 2981 C 281.018 -1.08564 -1.81044 0
M  V30 2982 O 280.366 -0.180703 -2.27784 0
M  V30 2983 C 280.576 -3.40768 -0.753552 0
M  V30 2984 C 281.924 -4.10587 -1.08184 0
M  V30 2985 O 282.948 -3.46106 -0.841961 0
M  V30 2986 O 281.807 -5.24512 -1.53459 0
M  V30 2987 H 278.901 -0.78301 -0.26613 0
M  V30 2988 H 281.447 -1.68347 0.213877 0
M  V30 2989 H 280.219 -3.90965 0.161829 0
M  V30 2990 H 279.842 -3.66733 -1.53598 0
M  V30 2991 N 280.839 0.0985539 -1.57292 0
M  V30 2992 C 281.772 1.15082 -1.97057 0
M  V30 2993 C 282.75 1.39025 -0.843255 0
M  V30 2994 O 283.934 1.52842 -1.10325 0
M  V30 2995 C 281.061 2.50069 -2.28437 0
M  V30 2996 C 280.107 2.42428 -3.509 0
M  V30 2997 S 280.94 1.84414 -5.02744 0
M  V30 2998 C 282.096 3.21032 -5.37298 0
M  V30 2999 H 282.329 0.811815 -2.86002 0
M  V30 3000 H 279.862 0.306102 -1.51335 0
M  V30 3001 H 281.82 3.27729 -2.47192 0
M  V30 3002 H 280.481 2.8114 -1.40069 0
M  V30 3003 H 279.674 3.41911 -3.70288 0
M  V30 3004 H 279.276 1.72896 -3.31637 0
M  V30 3005 H 281.568 4.17297 -5.33731 0
M  V30 3006 H 282.511 3.06452 -6.38352 0
M  V30 3007 H 282.919 3.20404 -4.64759 0
M  V30 3008 N 282.317 1.53212 0.369288 0
M  V30 3009 C 283.563 1.70413 1.11046 0
M  V30 3010 C 283.918 0.448509 1.87099 0
M  V30 3011 O 283.211 -0.558382 1.83283 0
M  V30 3012 C 283.405 2.89101 2.10132 0
M  V30 3013 C 283.234 4.26084 1.43814 0
M  V30 3014 C 282.004 4.90994 1.19384 0
M  V30 3015 C 284.202 5.06754 0.877802 0
M  V30 3016 N 282.184 6.11911 0.49377 0
M  V30 3017 C 283.555 6.1924 0.306891 0
M  V30 3018 C 285.61 4.91814 0.776129 0
M  V30 3019 C 284.313 7.1842 -0.355774 0
M  V30 3020 C 286.339 5.91263 0.127252 0
M  V30 3021 C 285.701 7.03069 -0.432801 0
M  V30 3022 H 281.8 0.676872 0.391623 0
M  V30 3023 H 284.384 1.90603 0.397334 0
M  V30 3024 H 282.555 2.70456 2.78761 0
M  V30 3025 H 284.287 2.95142 2.76899 0
M  V30 3026 H 281.042 4.50074 1.47413 0
M  V30 3027 H 281.466 6.76813 0.159207 0
M  V30 3028 H 286.108 4.05564 1.19489 0
M  V30 3029 H 283.826 8.04264 -0.786499 0
M  V30 3030 H 287.412 5.81779 0.0495613 0
M  V30 3031 H 286.292 7.78702 -0.926958 0
M  V30 3032 N 283.795 -0.628877 1.44509 0
M  V30 3033 C 285.041 -1.38863 1.48623 0
M  V30 3034 C 285.396 -1.92038 0.117933 0
M  V30 3035 O 284.689 -1.70853 -0.86716 0
M  V30 3036 C 284.883 -2.56995 2.48371 0
M  V30 3037 C 284.712 -2.15385 3.94765 0
M  V30 3038 C 283.482 -2.02558 4.62924 0
M  V30 3039 C 285.68 -1.74158 4.83915 0
M  V30 3040 N 283.662 -1.54534 5.94132 0
M  V30 3041 C 285.033 -1.37396 6.04584 0
M  V30 3042 C 287.088 -1.61559 4.7096 0
M  V30 3043 C 285.791 -0.892948 7.13736 0
M  V30 3044 C 287.817 -1.14862 5.80139 0
M  V30 3045 C 287.179 -0.790516 6.9995 0
M  V30 3046 H 283.278 -0.502858 0.59888 0
M  V30 3047 H 285.862 -0.72121 1.8085 0
M  V30 3048 H 284.033 -3.21362 2.1813 0
M  V30 3049 H 285.765 -3.23801 2.42766 0
M  V30 3050 H 282.52 -2.23082 4.1777 0
M  V30 3051 H 282.944 -1.32815 6.63844 0
M  V30 3052 H 287.586 -1.87876 3.78764 0
M  V30 3053 H 285.304 -0.617291 8.05739 0
M  V30 3054 H 288.89 -1.05569 5.72142 0
M  V30 3055 H 287.77 -0.434713 7.82994 0
M  V30 3056 N 285.273 -1.31445 -0.869486 0
M  V30 3057 C 286.498 -1.24256 -1.66058 0
M  V30 3058 C 286.923 0.188928 -1.87149 0
M  V30 3059 O 286.281 1.13522 -1.4136 0
M  V30 3060 C 286.329 -1.9924 -3.00559 0
M  V30 3061 O 285.433 -1.33007 -3.90362 0
M  V30 3062 H 284.774 -0.428973 -0.506831 0
M  V30 3063 H 287.304 -1.73521 -1.08404 0
M  V30 3064 H 287.314 -2.08854 -3.50491 0
M  V30 3065 H 285.989 -3.03342 -2.84528 0
M  V30 3066 H 284.566 -1.31848 -3.48813 0
M  V30 3067 N 286.751 1.08385 -1.14413 0
M  V30 3068 C 287.714 2.13486 -0.834048 0
M  V30 3069 C 288.714 1.59988 0.161418 0
M  V30 3070 O 289.904 1.74071 -0.0669575 0
M  V30 3071 C 287.036 3.4003 -0.243354 0
M  V30 3072 H 288.229 2.42425 -1.7655 0
M  V30 3073 H 285.782 1.24101 -0.950189 0
M  V30 3074 H 286.517 3.16726 0.696807 0
M  V30 3075 H 286.302 3.80157 -0.960367 0
M  V30 3076 H 287.792 4.17577 -0.0436242 0
M  V30 3077 N 288.23 0.939286 1.26551 0
M  V30 3078 C 289.478 0.58469 1.93457 0
M  V30 3079 C 289.799 -0.878774 1.74076 0
M  V30 3080 O 289.069 -1.62421 1.09528 0
M  V30 3081 H 287.649 0.21325 0.715914 0
M  V30 3082 H 290.311 1.1942 1.54029 0
M  V30 3083 H 289.407 0.800849 3.0165 0
M  V30 3084 N 289.708 -1.40897 0.706093 0
M  V30 3085 C 290.957 -2.00284 0.238574 0
M  V30 3086 C 291.27 -1.56604 -1.17194 0
M  V30 3087 O 292.476 -2.08624 -1.73748 0
M  V30 3088 C 290.932 -3.57934 0.375623 0
M  V30 3089 C 290.54 -4.10591 1.79217 0
M  V30 3090 C 292.284 -4.24488 -0.0315857 0
M  V30 3091 C 290.191 -5.60712 1.88032 0
M  V30 3092 H 289.121 -0.749144 0.0854398 0
M  V30 3093 H 291.772 -1.61251 0.875813 0
M  V30 3094 H 290.154 -3.94622 -0.330042 0
M  V30 3095 H 291.328 -3.85301 2.52745 0
M  V30 3096 H 289.643 -3.56601 2.15 0
M  V30 3097 H 292.24 -5.34698 0.0136842 0
M  V30 3098 H 292.583 -4.02261 -1.072 0
M  V30 3099 H 293.116 -3.92873 0.624181 0
M  V30 3100 H 289.855 -5.87781 2.90161 0
M  V30 3101 H 289.375 -5.87896 1.18903 0
M  V30 3102 H 291.054 -6.25658 1.64805 0
M  V30 3103 N 291.186 -0.45159 -1.50991 0
M  V30 3104 C 292.433 0.110074 -2.02201 0
M  V30 3105 C 292.761 1.4146 -1.33489 0
M  V30 3106 O 292.016 1.90617 -0.443125 0
M  V30 3107 C 292.315 0.361728 -3.55565 0
M  V30 3108 C 291.981 -0.858717 -4.42648 0
M  V30 3109 C 290.643 -1.19338 -4.66167 0
M  V30 3110 C 292.995 -1.67221 -4.93646 0
M  V30 3111 C 290.323 -2.34195 -5.37931 0
M  V30 3112 C 292.675 -2.8119 -5.6667 0
M  V30 3113 C 291.339 -3.15094 -5.88449 0
M  V30 3114 H 290.609 0.040279 -0.739904 0
M  V30 3115 H 293.256 -0.601696 -1.81802 0
M  V30 3116 H 291.561 1.15554 -3.74372 0
M  V30 3117 H 293.258 0.80996 -3.92735 0
M  V30 3118 H 289.848 -0.58796 -4.24548 0
M  V30 3119 H 294.032 -1.42686 -4.75347 0
M  V30 3120 H 289.288 -2.6076 -5.53005 0
M  V30 3121 H 293.462 -3.44585 -6.05173 0
M  V30 3122 H 291.089 -4.04204 -6.43835 0
M  V30 3123 N 292.664 1.56529 -0.183458 0
M  V30 3124 C 294.08 1.58664 0.172554 0
M  V30 3125 C 294.28 1.19925 1.61926 0
M  V30 3126 O 293.336 0.916534 2.35278 0
M  V30 3127 C 294.649 3.00463 -0.119262 0
M  V30 3128 C 296.197 3.12945 -0.0584396 0
M  V30 3129 C 296.672 4.56857 -0.323408 0
M  V30 3130 N 298.163 4.62403 -0.271612 0
M  V30 3131 C 298.898 5.71626 -0.450639 0
M  V30 3132 N 298.394 6.89362 -0.689384 0
M  V30 3133 N 300.187 5.60775 -0.385701 0
M  V30 3134 H 292.338 1.79994 -1.12765 0
M  V30 3135 H 294.601 0.834808 -0.449222 0
M  V30 3136 H 294.307 3.33326 -1.12192 0
M  V30 3137 H 294.181 3.72659 0.583544 0
M  V30 3138 H 296.568 2.79902 0.934805 0
M  V30 3139 H 296.649 2.4316 -0.794144 0
M  V30 3140 H 296.293 4.9061 -1.31392 0
M  V30 3141 H 296.223 5.24816 0.43305 0
M  V30 3142 H 298.714 3.77785 -0.0932256 0
M  V30 3143 H 299.027 7.68489 -0.815113 0
M  V30 3144 H 297.372 6.91196 -0.726142 0
M  V30 3145 H 300.563 4.67674 -0.199687 0
M  V30 3146 H 300.736 6.4584 -0.528646 0
M  V30 3147 N 294.142 -0.090211 1.57342 0
M  V30 3148 C 295.419 -0.824761 1.77361 0
M  V30 3149 C 295.799 -1.96698 0.76637 0
M  V30 3150 O 295.147 -2.27586 -0.204179 0
M  V30 3151 C 295.357 -1.31481 3.23286 0
M  V30 3152 C 296.705 -1.75563 3.86604 0
M  V30 3153 O 297.729 -1.41093 3.27065 0
M  V30 3154 O 296.588 -2.39317 4.91314 0
M  V30 3155 H 293.682 -0.393776 0.727234 0
M  V30 3156 H 296.228 -0.0717138 1.69548 0
M  V30 3157 H 295 -0.496671 3.88135 0
M  V30 3158 H 294.623 -2.12973 3.35751 0
M  V30 3159 N 295.62 -1.53406 -0.361157 0
M  V30 3160 C 296.866 -1.70054 -1.10496 0
M  V30 3161 C 297.199 -0.453278 -1.88836 0
M  V30 3162 O 296.474 0.5495 -1.86576 0
M  V30 3163 C 296.757 -2.95317 -2.06058 0
M  V30 3164 C 296.61 -4.3021 -1.31298 0
M  V30 3165 C 297.929 -3.16193 -3.06121 0
M  V30 3166 H 295.048 -0.618799 -0.400321 0
M  V30 3167 H 297.69 -1.86052 -0.385318 0
M  V30 3168 H 295.84 -2.81809 -2.67425 0
M  V30 3169 H 297.512 -4.55538 -0.726807 0
M  V30 3170 H 295.755 -4.29421 -0.614853 0
M  V30 3171 H 296.426 -5.14 -2.01265 0
M  V30 3172 H 298.902 -3.28916 -2.5486 0
M  V30 3173 H 297.778 -4.05266 -3.70204 0
M  V30 3174 H 298.039 -2.31676 -3.76535 0
M  V30 3175 N 297.098 0.621204 -1.44841 0
M  V30 3176 C 298.328 1.40548 -1.51426 0
M  V30 3177 C 298.736 1.88673 -0.141083 0
M  V30 3178 O 298.079 1.62053 0.865128 0
M  V30 3179 C 298.141 2.65325 -2.42576 0
M  V30 3180 C 297.805 2.3893 -3.89566 0
M  V30 3181 C 298.802 2.00138 -4.79834 0
M  V30 3182 C 296.487 2.52263 -4.3436 0
M  V30 3183 C 298.481 1.75021 -6.129 0
M  V30 3184 C 296.168 2.2676 -5.67471 0
M  V30 3185 C 297.166 1.88199 -6.56559 0
M  V30 3186 O 296.854 1.62986 -7.87204 0
M  V30 3187 H 296.586 0.437122 -0.515655 0
M  V30 3188 H 299.14 0.765987 -1.90583 0
M  V30 3189 H 297.37 3.31947 -1.98364 0
M  V30 3190 H 299.059 3.27347 -2.39998 0
M  V30 3191 H 299.825 1.89386 -4.46495 0
M  V30 3192 H 295.704 2.81246 -3.65269 0
M  V30 3193 H 299.248 1.44848 -6.82396 0
M  V30 3194 H 295.145 2.37125 -6.00368 0
M  V30 3195 H 295.913 1.7715 -7.991 0
M  V30 3196 N 298.576 1.31904 0.862503 0
M  V30 3197 C 299.506 1.22782 1.98612 0
M  V30 3198 C 300.487 0.113362 1.69722 0
M  V30 3199 O 301.672 0.299218 1.91881 0
M  V30 3200 C 298.802 0.942058 3.34279 0
M  V30 3201 C 297.756 2.0169 3.77499 0
M  V30 3202 C 297.082 1.58369 5.10709 0
M  V30 3203 C 298.382 3.43096 3.93805 0
M  V30 3204 H 300.076 2.16788 2.06502 0
M  V30 3205 H 297.622 1.04366 0.992154 0
M  V30 3206 H 299.575 0.864818 4.1243 0
M  V30 3207 H 298.299 -0.0336603 3.26583 0
M  V30 3208 H 296.958 2.08416 3.01593 0
M  V30 3209 H 296.606 0.595628 4.99461 0
M  V30 3210 H 296.306 2.30279 5.40597 0
M  V30 3211 H 297.83 1.52067 5.91361 0
M  V30 3212 H 299.244 3.39003 4.62331 0
M  V30 3213 H 297.641 4.13288 4.35101 0
M  V30 3214 H 298.711 3.83334 2.96957 0
M  V30 3215 N 300.054 -1.07777 1.14986 0
M  V30 3216 C 301.3 -1.80557 0.923422 0
M  V30 3217 C 301.633 -1.86298 -0.548337 0
M  V30 3218 O 300.908 -1.34354 -1.40639 0
M  V30 3219 C 301.191 -3.25839 1.53299 0
M  V30 3220 C 301.044 -3.28269 3.07505 0
M  V30 3221 C 302.363 -4.22991 1.21518 0
M  V30 3222 H 299.482 -0.655493 0.336894 0
M  V30 3223 H 302.124 -1.26144 1.42083 0
M  V30 3224 H 300.274 -3.72306 1.10999 0
M  V30 3225 H 301.946 -2.90079 3.58681 0
M  V30 3226 H 300.189 -2.67355 3.4162 0
M  V30 3227 H 300.86 -4.30691 3.45266 0
M  V30 3228 H 303.336 -3.84894 1.581 0
M  V30 3229 H 302.212 -5.22945 1.66793 0
M  V30 3230 H 302.473 -4.41904 0.131505 0
M  V30 3231 N 301.532 -0.945985 -1.26051 0
M  V30 3232 C 302.78 -0.594941 -1.93145 0
M  V30 3233 C 303.101 0.86953 -1.7454 0
M  V30 3234 O 302.371 1.61838 -1.10387 0
M  V30 3235 H 300.951 -0.217044 -0.714773 0
M  V30 3236 H 303.613 -1.20235 -1.53393 0
M  V30 3237 H 302.709 -0.816835 -3.01221 0
M  V30 3238 N 303.011 1.40521 -0.713556 0
M  V30 3239 C 303.958 2.30723 -0.059684 0
M  V30 3240 C 304.928 1.48079 0.752448 0
M  V30 3241 O 306.113 1.76823 0.71681 0
M  V30 3242 C 303.253 3.34274 0.857594 0
M  V30 3243 C 302.366 4.31986 0.0351536 0
M  V30 3244 C 301.501 5.22605 0.951724 0
M  V30 3245 C 300.54 6.11976 0.123253 0
M  V30 3246 N 299.677 6.9502 0.99459 0
M  V30 3247 H 304.517 2.86074 -0.834596 0
M  V30 3248 H 302.054 1.40879 -0.42326 0
M  V30 3249 H 304.012 3.92879 1.40364 0
M  V30 3250 H 302.642 2.8043 1.59871 0
M  V30 3251 H 301.694 3.7518 -0.628052 0
M  V30 3252 H 303.006 4.95101 -0.606347 0
M  V30 3253 H 302.16 5.86131 1.56638 0
M  V30 3254 H 300.899 4.59759 1.62705 0
M  V30 3255 H 299.904 5.47482 -0.50435 0
M  V30 3256 H 301.129 6.76881 -0.548539 0
M  V30 3257 H 299.075 6.34764 1.6556 0
M  V30 3258 H 298.992 7.54892 0.40908 0
M  V30 3259 H 300.26 7.62997 1.59549 0
M  V30 3260 N 304.489 0.459591 1.5075 0
M  V30 3261 C 305.439 -0.358926 2.25157 0
M  V30 3262 C 306.423 -0.971285 1.28276 0
M  V30 3263 O 307.615 -0.885739 1.53244 0
M  V30 3264 C 304.744 -1.44695 3.11317 0
M  V30 3265 C 303.83 -0.842894 4.15639 0
M  V30 3266 N 304.221 0.0299373 5.05791 0
M  V30 3267 C 302.519 -1.10809 4.32015 0
M  V30 3268 C 303.22 0.371563 5.80512 0
M  V30 3269 N 302.196 -0.250409 5.43023 0
M  V30 3270 H 305.998 0.313636 2.92222 0
M  V30 3271 H 303.512 0.273021 1.60089 0
M  V30 3272 H 305.509 -2.04641 3.63218 0
M  V30 3273 H 304.169 -2.12162 2.45799 0
M  V30 3274 H 305.18 0.39797 5.16369 0
M  V30 3275 H 301.857 -1.7786 3.77719 0
M  V30 3276 H 303.247 1.08319 6.63111 0
M  V30 3277 N 305.967 -1.56429 0.191757 0
M  V30 3278 C 306.897 -2.21937 -0.725696 0
M  V30 3279 C 307.878 -1.1814 -1.2238 0
M  V30 3280 O 309.063 -1.46636 -1.27325 0
M  V30 3281 C 306.193 -2.87611 -1.94672 0
M  V30 3282 C 305.147 -3.97623 -1.58366 0
M  V30 3283 C 304.473 -4.50446 -2.88102 0
M  V30 3284 C 305.773 -5.16197 -0.796133 0
M  V30 3285 H 307.467 -2.98861 -0.179606 0
M  V30 3286 H 305.013 -1.43749 -0.0849464 0
M  V30 3287 H 306.966 -3.3212 -2.59373 0
M  V30 3288 H 305.69 -2.08087 -2.51728 0
M  V30 3289 H 304.349 -3.53801 -0.960247 0
M  V30 3290 H 303.997 -3.67688 -3.43241 0
M  V30 3291 H 303.697 -5.24675 -2.64556 0
M  V30 3292 H 305.221 -4.97654 -3.53798 0
M  V30 3293 H 306.635 -5.57271 -1.34618 0
M  V30 3294 H 305.032 -5.96471 -0.658928 0
M  V30 3295 H 306.102 -4.84473 0.203478 0
M  V30 3296 N 307.445 0.0818655 -1.57387 0
M  V30 3297 C 308.673 0.796108 -1.9097 0
M  V30 3298 C 309.088 1.71626 -0.786757 0
M  V30 3299 O 308.445 1.80908 0.240513 0
M  V30 3300 C 308.496 1.59829 -3.24248 0
M  V30 3301 O 308.217 0.715131 -4.32224 0
M  V30 3302 C 309.718 2.41442 -3.7178 0
M  V30 3303 H 306.938 0.22691 -0.631469 0
M  V30 3304 H 309.482 0.0551439 -2.04426 0
M  V30 3305 H 307.637 2.29163 -3.12351 0
M  V30 3306 H 308.051 1.27205 -5.08841 0
M  V30 3307 H 309.525 2.932 -4.67694 0
M  V30 3308 H 310.002 3.2051 -3.00283 0
M  V30 3309 H 310.608 1.77283 -3.86589 0
M  V30 3310 N 308.923 1.53595 0.353017 0
M  V30 3311 C 309.873 1.77299 1.43349 0
M  V30 3312 C 310.857 0.627884 1.48143 0
M  V30 3313 O 312.049 0.88697 1.53173 0
M  V30 3314 C 309.178 1.97757 2.80619 0
M  V30 3315 C 308.264 3.18305 2.80254 0
M  V30 3316 N 308.655 4.39967 2.49526 0
M  V30 3317 C 306.953 3.19283 3.11407 0
M  V30 3318 C 307.654 5.21772 2.57156 0
M  V30 3319 N 306.63 4.58269 2.92388 0
M  V30 3320 H 310.432 2.68963 1.18474 0
M  V30 3321 H 307.946 1.52391 0.561306 0
M  V30 3322 H 309.943 2.1287 3.58458 0
M  V30 3323 H 308.603 1.07329 3.06448 0
M  V30 3324 H 309.614 4.67482 2.22893 0
M  V30 3325 H 306.291 2.3879 3.4247 0
M  V30 3326 H 307.681 6.2885 2.36638 0
M  V30 3327 N 310.401 -0.613514 1.45168 0
M  V30 3328 C 311.65 -1.36874 1.4815 0
M  V30 3329 C 311.963 -1.952 0.124982 0
M  V30 3330 O 313.169 -2.71481 0.0324176 0
M  V30 3331 C 311.625 -2.47905 2.60904 0
M  V30 3332 C 311.233 -1.96016 4.02842 0
M  V30 3333 C 312.977 -3.24965 2.73126 0
M  V30 3334 C 310.884 -3.04494 5.06988 0
M  V30 3335 H 309.814 -0.514428 0.551253 0
M  V30 3336 H 312.465 -0.658182 1.7129 0
M  V30 3337 H 310.847 -3.21618 2.31037 0
M  V30 3338 H 312.021 -1.29051 4.4236 0
M  V30 3339 H 310.336 -1.31719 3.95018 0
M  V30 3340 H 312.933 -4.05865 3.48106 0
M  V30 3341 H 313.276 -3.75588 1.79553 0
M  V30 3342 H 313.809 -2.5835 3.0249 0
M  V30 3343 H 310.548 -2.58795 6.0225 0
M  V30 3344 H 310.068 -3.70044 4.72046 0
M  V30 3345 H 311.747 -3.68976 5.31475 0
M  V30 3346 N 311.879 -1.3236 -0.855495 0
M  V30 3347 C 312.827 -1.2118 -1.9854 0
M  V30 3348 C 313.821 -0.116788 -1.68997 0
M  V30 3349 O 315.027 -0.279657 -1.77814 0
M  V30 3350 H 311.402 -0.375608 -0.651477 0
M  V30 3351 H 313.373 -2.16743 -2.05098 0
M  V30 3352 C 312.122 -0.950849 -3.34446 0
M  V30 3353 H 311.445 -1.78563 -3.57708 0
M  V30 3354 H 312.885 -0.912863 -4.14057 0
M  V30 3355 C 311.344 0.346404 -3.35114 0
M  V30 3356 O 311.874 1.35855 -3.7803 0
M  V30 3357 N 310.08 0.36808 -2.88259 0
M  V30 3358 H 309.627 -0.456102 -2.5353 0
M  V30 3359 H 309.585 1.23591 -2.89089 0
M  V30 3360 N 313.357 1.07166 -1.15556 0
M  V30 3361 C 314.634 1.76546 -0.842069 0
M  V30 3362 C 315.014 2.00453 0.661939 0
M  V30 3363 O 314.362 1.62452 1.60691 0
M  V30 3364 C 314.572 3.07266 -1.65495 0
M  V30 3365 C 315.92 3.81578 -1.86234 0
M  V30 3366 O 316.944 3.17083 -1.62287 0
M  V30 3367 O 315.803 4.97419 -2.26355 0
M  V30 3368 H 312.897 0.766756 -0.309862 0
M  V30 3369 H 315.443 1.13514 -1.26145 0
M  V30 3370 H 314.215 2.85494 -2.67598 0
M  V30 3371 H 313.838 3.7803 -1.23203 0
M  V30 3372 N 314.835 0.952656 1.25548 0
M  V30 3373 C 316.082 0.606373 1.93208 0
M  V30 3374 C 316.41 -0.85631 1.74636 0
M  V30 3375 O 315.665 -1.62951 1.08376 0
M  V30 3376 C 315.964 0.908818 3.45652 0
M  V30 3377 C 315.63 2.35722 3.84378 0
M  V30 3378 C 314.292 2.75312 3.9466 0
M  V30 3379 C 316.644 3.29793 4.03591 0
M  V30 3380 C 313.972 4.08047 4.21562 0
M  V30 3381 C 316.324 4.62138 4.31985 0
M  V30 3382 C 314.988 5.01528 4.40484 0
M  V30 3383 H 314.258 0.221888 0.706998 0
M  V30 3384 H 316.905 1.20132 1.49133 0
M  V30 3385 H 315.21 0.231456 3.91116 0
M  V30 3386 H 316.907 0.619498 3.96186 0
M  V30 3387 H 313.497 2.04017 3.76928 0
M  V30 3388 H 317.681 3.00397 3.95064 0
M  V30 3389 H 312.937 4.38212 4.26357 0
M  V30 3390 H 317.111 5.35012 4.45797 0
M  V30 3391 H 314.738 6.04406 4.61083 0
M  V30 3392 N 316.313 -1.40141 0.720998 0
M  V30 3393 C 317.541 -2.05096 0.272656 0
M  V30 3394 C 317.956 -1.54334 -1.0875 0
M  V30 3395 O 317.313 -0.702211 -1.6845 0
M  V30 3396 C 317.364 -3.60636 0.249835 0
M  V30 3397 O 317.085 -4.09526 1.55629 0
M  V30 3398 C 318.586 -4.42772 -0.216396 0
M  V30 3399 H 315.806 -0.659897 0.121558 0
M  V30 3400 H 318.35 -1.79449 0.980723 0
M  V30 3401 H 316.505 -3.85232 -0.409237 0
M  V30 3402 H 316.919 -5.03758 1.4604 0
M  V30 3403 H 318.393 -5.51702 -0.181212 0
M  V30 3404 H 318.87 -4.20756 -1.25941 0
M  V30 3405 H 319.476 -4.23294 0.412596 0
M  V30 3406 N 317.792 -0.46758 -1.50504 0
M  V30 3407 C 319.038 0.0887532 -2.02606 0
M  V30 3408 C 319.371 1.39686 -1.34913 0
M  V30 3409 O 318.646 1.88644 -0.473694 0
M  V30 3410 C 318.929 0.276206 -3.59039 0
M  V30 3411 C 318.782 -1.05267 -4.37309 0
M  V30 3412 C 320.101 1.03235 -4.27821 0
M  V30 3413 H 317.22 0.0307814 -0.736357 0
M  V30 3414 H 319.862 -0.612485 -1.79857 0
M  V30 3415 H 318.012 0.8735 -3.78553 0
M  V30 3416 H 319.684 -1.68628 -4.29374 0
M  V30 3417 H 317.927 -1.65015 -4.01189 0
M  V30 3418 H 318.598 -0.875197 -5.45018 0
M  V30 3419 H 321.074 0.526111 -4.12761 0
M  V30 3420 H 319.95 1.1323 -5.37094 0
M  V30 3421 H 320.211 2.06806 -3.90748 0
M  V30 3422 N 319.27 1.56325 -0.20005 0
M  V30 3423 C 320.686 1.58839 0.155716 0
M  V30 3424 C 320.886 1.21636 1.60645 0
M  V30 3425 O 319.942 0.941437 2.34293 0
M  V30 3426 C 321.255 3.0032 -0.151124 0
M  V30 3427 C 322.803 3.12866 -0.0916284 0
M  V30 3428 C 323.278 4.56488 -0.371845 0
M  V30 3429 N 324.769 4.62089 -0.320641 0
M  V30 3430 C 325.504 5.71116 -0.511243 0
M  V30 3431 N 325 6.88592 -0.762461 0
M  V30 3432 N 326.793 5.60335 -0.445157 0
M  V30 3433 H 318.944 1.78788 -1.14668 0
M  V30 3434 H 321.207 0.829996 -0.458051 0
M  V30 3435 H 320.913 3.32117 -1.15721 0
M  V30 3436 H 320.787 3.73257 0.543986 0
M  V30 3437 H 323.174 2.80878 0.905065 0
M  V30 3438 H 323.255 2.42304 -0.81989 0
M  V30 3439 H 322.899 4.89189 -1.36588 0
M  V30 3440 H 322.829 5.25246 0.377362 0
M  V30 3441 H 325.32 3.77665 -0.13329 0
M  V30 3442 H 325.633 7.67581 -0.896576 0
M  V30 3443 H 323.978 6.90387 -0.799412 0
M  V30 3444 H 327.169 4.67436 -0.249278 0
M  V30 3445 H 327.342 6.45243 -0.597116 0
M  V30 3446 N 320.748 -0.0735177 1.57428 0
M  V30 3447 C 321.976 -0.785969 1.9139 0
M  V30 3448 C 322.391 -1.71207 0.795847 0
M  V30 3449 O 321.748 -1.81033 -0.230915 0
M  V30 3450 C 321.799 -1.58107 3.25091 0
M  V30 3451 O 321.52 -0.6922 4.32597 0
M  V30 3452 C 323.021 -2.39467 3.73055 0
M  V30 3453 H 320.241 -0.223558 0.632663 0
M  V30 3454 H 322.785 -0.044302 2.04452 0
M  V30 3455 H 320.94 -2.27503 3.13562 0
M  V30 3456 H 321.354 -1.24504 5.09508 0
M  V30 3457 H 322.828 -2.90716 4.69242 0
M  V30 3458 H 323.305 -3.18913 3.01979 0
M  V30 3459 H 323.911 -1.7523 3.87523 0
M  V30 3460 N 322.226 -1.5378 -0.344866 0
M  V30 3461 C 323.503 -1.61589 -1.10219 0
M  V30 3462 C 323.883 -0.436316 -2.06542 0
M  V30 3463 O 323.231 0.571543 -2.21237 0
M  V30 3464 C 323.441 -2.97602 -1.82301 0
M  V30 3465 C 324.789 -3.5291 -2.36093 0
M  V30 3466 O 325.813 -2.99768 -1.924 0
M  V30 3467 O 324.672 -4.45859 -3.16026 0
M  V30 3468 H 321.766 -0.653522 -0.506792 0
M  V30 3469 H 324.312 -1.66126 -0.346465 0
M  V30 3470 H 323.084 -3.74893 -1.12121 0
M  V30 3471 H 322.707 -2.9665 -2.64735 0
M  V30 3472 N 323.704 0.605807 -1.45491 0
M  V30 3473 C 324.951 1.36476 -1.49601 0
M  V30 3474 C 325.279 1.94007 -0.138452 0
M  V30 3475 O 324.534 1.75638 0.863114 0
M  V30 3476 C 324.833 2.53012 -2.52428 0
M  V30 3477 C 324.499 2.13617 -3.97087 0
M  V30 3478 C 323.161 2.02587 -4.36477 0
M  V30 3479 C 325.513 1.82899 -4.88055 0
M  V30 3480 C 322.841 1.59064 -5.64726 0
M  V30 3481 C 325.193 1.40861 -6.16718 0
M  V30 3482 C 323.857 1.28391 -6.55036 0
M  V30 3483 H 323.127 0.499402 -0.547429 0
M  V30 3484 H 325.774 0.684546 -1.78847 0
M  V30 3485 H 324.079 3.26379 -2.16758 0
M  V30 3486 H 325.776 3.1124 -2.52845 0
M  V30 3487 H 322.366 2.23129 -3.65939 0
M  V30 3488 H 326.55 1.90317 -4.58359 0
M  V30 3489 H 321.806 1.48034 -5.93208 0
M  V30 3490 H 325.98 1.16138 -6.86648 0
M  V30 3491 H 323.607 0.944403 -7.54311 0
M  V30 3492 N 325.182 1.32811 0.848464 0
M  V30 3493 C 326.459 1.14334 1.58704 0
M  V30 3494 C 326.839 -0.293948 2.09043 0
M  V30 3495 O 326.187 -1.29153 1.88499 0
M  V30 3496 C 326.397 2.17626 2.72837 0
M  V30 3497 C 327.745 2.51282 3.42261 0
M  V30 3498 O 328.769 2.16219 2.83068 0
M  V30 3499 O 327.628 3.11413 4.49093 0
M  V30 3500 H 324.722 0.441601 0.699226 0
M  V30 3501 H 327.268 1.44362 0.892053 0
M  V30 3502 H 326.04 3.14211 2.3321 0
M  V30 3503 H 325.663 1.88628 3.50008 0
M  V30 3504 N 326.66 -1.06551 1.16123 0
M  V30 3505 C 327.57 -2.17484 0.879662 0
M  V30 3506 C 328.586 -1.73377 -0.147104 0
M  V30 3507 O 329.762 -2.01379 0.0289128 0
M  V30 3508 C 326.827 -3.44591 0.381829 0
M  V30 3509 C 325.888 -4.0322 1.4735 0
M  V30 3510 C 325.121 -5.24261 0.999324 0
M  V30 3511 O 325.344 -5.70198 -0.151957 0
M  V30 3512 O 324.278 -5.74775 1.78653 0
M  V30 3513 H 328.104 -2.44075 1.80724 0
M  V30 3514 H 325.689 -1.16042 0.940992 0
M  V30 3515 H 327.571 -4.21254 0.111053 0
M  V30 3516 H 326.246 -3.19532 -0.51777 0
M  V30 3517 H 325.153 -3.2806 1.79798 0
M  V30 3518 H 326.486 -4.32568 2.34831 0
M  V30 3519 N 328.138 -0.959301 -1.25041 0
M  V30 3520 C 329.101 -0.487677 -2.23952 0
M  V30 3521 C 330.101 0.41119 -1.55454 0
M  V30 3522 O 331.291 0.207825 -1.72956 0
M  V30 3523 C 328.423 0.294807 -3.39623 0
M  V30 3524 H 329.616 -1.36198 -2.67189 0
M  V30 3525 H 327.169 -0.743042 -1.37508 0
M  V30 3526 H 327.904 1.18658 -3.01813 0
M  V30 3527 H 327.689 -0.35012 -3.90534 0
M  V30 3528 H 329.179 0.614089 -4.1306 0
M  V30 3529 N 329.616 1.39756 -0.72842 0
M  V30 3530 C 330.846 2.04651 -0.283117 0
M  V30 3531 C 331.254 1.5502 1.08469 0
M  V30 3532 O 330.597 0.707343 1.69536 0
M  V30 3533 C 330.659 3.58947 -0.199309 0
M  V30 3534 C 330.323 4.31525 -1.5045 0
M  V30 3535 C 331.32 4.5861 -2.44894 0
M  V30 3536 C 329.005 4.70195 -1.76698 0
M  V30 3537 C 330.999 5.23366 -3.63822 0
M  V30 3538 C 328.686 5.3468 -2.95906 0
M  V30 3539 C 329.684 5.61198 -3.89289 0
M  V30 3540 O 329.372 6.24347 -5.06404 0
M  V30 3541 H 329.104 0.664777 -0.122666 0
M  V30 3542 H 331.658 1.79913 -0.990987 0
M  V30 3543 H 329.888 3.82556 0.56461 0
M  V30 3544 H 331.577 4.0534 0.213125 0
M  V30 3545 H 332.343 4.29187 -2.25883 0
M  V30 3546 H 328.222 4.48916 -1.04859 0
M  V30 3547 H 331.766 5.4398 -4.36728 0
M  V30 3548 H 327.663 5.63524 -3.14819 0
M  V30 3549 H 328.431 6.42842 -5.06652 0
M  V30 3550 N 331.094 0.475555 1.50254 0
M  V30 3551 C 332.334 -0.0765802 2.04256 0
M  V30 3552 C 332.698 -1.36587 1.34937 0
M  V30 3553 O 333.899 -2.00066 1.79519 0
M  V30 3554 C 332.17 -0.251668 3.56513 0
M  V30 3555 S 333.729 -0.761716 4.32138 0
M  V30 3556 H 330.547 -0.0138456 0.710865 0
M  V30 3557 H 333.149 0.643714 1.84598 0
M  V30 3558 H 331.853 0.692404 4.04517 0
M  V30 3559 H 331.384 -0.997946 3.80532 0
M  V30 3560 H 333.399 -2.03451 4.52573 0
M  V30 3561 N 332.573 -1.56217 0.208337 0
M  V30 3562 C 333.85 -1.89739 -0.475234 0
M  V30 3563 C 334.23 -1.1238 -1.78701 0
M  V30 3564 O 333.578 -0.228979 -2.2735 0
M  V30 3565 C 333.788 -3.42289 -0.681101 0
M  V30 3566 C 335.136 -4.12789 -0.994507 0
M  V30 3567 O 336.16 -3.47814 -0.768357 0
M  V30 3568 O 335.019 -5.27649 -1.42299 0
M  V30 3569 H 332.113 -0.788478 -0.249461 0
M  V30 3570 H 334.659 -1.67855 0.249538 0
M  V30 3571 H 333.431 -3.90534 0.244722 0
M  V30 3572 H 333.054 -3.69909 -1.45785 0
M  V30 3573 N 334.051 0.0651679 -1.57465 0
M  V30 3574 C 335.014 1.06117 -2.03155 0
M  V30 3575 C 336.014 1.31204 -0.929632 0
M  V30 3576 O 337.204 1.26813 -1.19432 0
M  V30 3577 C 334.336 2.4032 -2.41783 0
M  V30 3578 H 335.529 0.667231 -2.92383 0
M  V30 3579 H 333.082 0.311075 -1.53173 0
M  V30 3580 H 333.817 2.84532 -1.55601 0
M  V30 3581 H 333.602 2.23451 -3.22199 0
M  V30 3582 H 335.092 3.11898 -2.77685 0
M  V30 3583 N 335.529 1.53961 0.336706 0
M  V30 3584 C 336.757 1.75483 1.09605 0
M  V30 3585 C 337.172 0.4972 1.82136 0
M  V30 3586 O 336.529 -0.53149 1.74589 0
M  V30 3587 C 336.58 2.93943 2.10428 0
M  V30 3588 O 336.301 4.14842 1.40846 0
M  V30 3589 C 337.802 3.27571 2.98684 0
M  V30 3590 H 335.022 0.586166 0.326574 0
M  V30 3591 H 337.566 2.00808 0.38683 0
M  V30 3592 H 335.721 2.70929 2.76905 0
M  V30 3593 H 336.135 4.81383 2.08255 0
M  V30 3594 H 337.609 4.13791 3.6535 0
M  V30 3595 H 338.086 2.44168 3.65074 0
M  V30 3596 H 338.692 3.52615 2.37787 0
M  V30 3597 N 337.007 -0.598083 1.45811 0
M  V30 3598 C 337.937 -1.71873 1.58057 0
M  V30 3599 C 338.918 -1.64533 0.431615 0
M  V30 3600 O 340.103 -1.82787 0.65595 0
M  V30 3601 C 337.233 -3.10495 1.55597 0
M  V30 3602 C 336.187 -3.32654 2.69305 0
M  V30 3603 C 335.513 -4.71646 2.51902 0
M  V30 3604 C 336.813 -3.21981 4.11248 0
M  V30 3605 H 338.507 -1.61881 2.51863 0
M  V30 3606 H 336.053 -0.777372 1.21214 0
M  V30 3607 H 338.006 -3.88699 1.6276 0
M  V30 3608 H 336.73 -3.2135 0.583255 0
M  V30 3609 H 335.389 -2.56843 2.61586 0
M  V30 3610 H 335.037 -4.79246 1.52748 0
M  V30 3611 H 334.737 -4.87426 3.2816 0
M  V30 3612 H 336.261 -5.52038 2.60933 0
M  V30 3613 H 337.675 -3.90049 4.20161 0
M  V30 3614 H 336.072 -3.49289 4.87972 0
M  V30 3615 H 337.142 -2.1928 4.32486 0
M  V30 3616 N 338.485 -1.33259 -0.841409 0
M  V30 3617 C 339.71 -1.2775 -1.63385 0
M  V30 3618 C 340.135 0.149188 -1.87507 0
M  V30 3619 O 339.493 1.10498 -1.43736 0
M  V30 3620 C 339.541 -2.05571 -2.96265 0
M  V30 3621 O 338.645 -1.41257 -3.87453 0
M  V30 3622 H 337.986 -0.439627 -0.497618 0
M  V30 3623 H 340.516 -1.75782 -1.04699 0
M  V30 3624 H 340.526 -2.16241 -3.45982 0
M  V30 3625 H 339.201 -3.09309 -2.7803 0
M  V30 3626 H 337.778 -1.39217 -3.45938 0
M  V30 3627 N 339.963 1.05934 -1.16686 0
M  V30 3628 C 341.203 1.80382 -0.961345 0
M  V30 3629 C 341.567 1.85331 0.501643 0
M  V30 3630 O 342.768 2.55795 0.825986 0
M  V30 3631 C 341.039 3.20777 -1.57596 0
M  V30 3632 S 342.598 4.11795 -1.51559 0
M  V30 3633 H 339.416 0.621332 -0.345641 0
M  V30 3634 H 342.018 1.27157 -1.48497 0
M  V30 3635 H 340.722 3.14773 -2.63337 0
M  V30 3636 H 340.253 3.79078 -1.05182 0
M  V30 3637 H 342.268 4.93485 -0.518374 0
M  V30 3638 N 341.441 0.965919 1.2453 0
M  V30 3639 C 342.351 0.502154 2.29163 0
M  V30 3640 C 343.367 -0.436017 1.68448 0
M  V30 3641 O 344.543 -0.309497 1.99008 0
M  V30 3642 C 341.608 -0.201956 3.46111 0
M  V30 3643 C 340.669 0.775821 4.22232 0
M  V30 3644 C 339.902 0.105217 5.33596 0
M  V30 3645 O 340.125 -1.10683 5.59558 0
M  V30 3646 O 339.059 0.796475 5.96607 0
M  V30 3647 H 342.885 1.37194 2.70946 0
M  V30 3648 H 340.47 0.732875 1.30189 0
M  V30 3649 H 342.352 -0.597564 4.17142 0
M  V30 3650 H 341.027 -1.04673 3.06309 0
M  V30 3651 H 339.934 1.22185 3.53584 0
M  V30 3652 H 341.267 1.58896 4.65846 0
M  V30 3653 N 342.919 -1.39368 0.735821 0
M  V30 3654 C 344.165 -2.00794 0.284544 0
M  V30 3655 C 344.498 -1.58255 -1.12557 0
M  V30 3656 O 343.773 -0.811819 -1.76748 0
M  V30 3657 C 344.056 -3.58011 0.387337 0
M  V30 3658 C 343.909 -4.10566 1.83728 0
M  V30 3659 C 345.228 -4.395 -0.22975 0
M  V30 3660 H 342.347 -0.729501 0.104866 0
M  V30 3661 H 344.989 -1.65564 0.93213 0
M  V30 3662 H 343.139 -3.88154 -0.164006 0
M  V30 3663 H 344.811 -3.91139 2.44556 0
M  V30 3664 H 343.054 -3.64095 2.35833 0
M  V30 3665 H 343.725 -5.19702 1.86047 0
M  V30 3666 H 346.201 -4.15406 0.240257 0
M  V30 3667 H 345.077 -5.48752 -0.127485 0
M  V30 3668 H 345.338 -4.22062 -1.3159 0
M  V30 3669 N 344.397 -0.483516 -1.5 0
M  V30 3670 C 345.643 0.0672592 -2.02688 0
M  V30 3671 C 345.976 1.38247 -1.36387 0
M  V30 3672 O 345.251 1.88131 -0.493675 0
M  V30 3673 C 345.534 0.238109 -3.59312 0
M  V30 3674 C 345.387 -1.099 -4.36168 0
M  V30 3675 C 346.706 0.986916 -4.28892 0
M  V30 3676 H 343.825 0.0229696 -0.736642 0
M  V30 3677 H 346.467 -0.631527 -1.79197 0
M  V30 3678 H 344.617 0.8333 -3.79458 0
M  V30 3679 H 346.289 -1.73172 -4.27562 0
M  V30 3680 H 344.532 -1.69261 -3.99416 0
M  V30 3681 H 345.203 -0.932954 -5.44059 0
M  V30 3682 H 347.679 0.482302 -4.13295 0
M  V30 3683 H 346.555 1.07527 -5.38265 0
M  V30 3684 H 346.816 2.0265 -3.92919 0
M  V30 3685 N 345.875 1.56104 -0.216619 0
M  V30 3686 C 346.805 2.23063 0.690296 0
M  V30 3687 C 347.786 1.20072 1.20485 0
M  V30 3688 O 348.971 1.48643 1.24976 0
M  V30 3689 C 346.101 2.90672 1.90072 0
M  V30 3690 C 345.055 4.00092 1.5202 0
M  V30 3691 C 344.381 4.54972 2.80899 0
M  V30 3692 C 345.681 5.17398 0.71391 0
M  V30 3693 H 347.375 2.99109 0.132038 0
M  V30 3694 H 344.921 1.43866 0.0620664 0
M  V30 3695 H 346.874 3.36204 2.54057 0
M  V30 3696 H 345.598 2.12066 2.48386 0
M  V30 3697 H 344.257 3.55283 0.903839 0
M  V30 3698 H 343.905 3.73102 3.37348 0
M  V30 3699 H 343.605 5.28817 2.56176 0
M  V30 3700 H 345.129 5.0322 3.45836 0
M  V30 3701 H 346.543 5.59342 1.25735 0
M  V30 3702 H 344.94 5.97444 0.563951 0
M  V30 3703 H 346.01 4.84088 -0.280527 0
M  V30 3704 N 347.353 -0.0568162 1.57498 0
M  V30 3705 C 348.263 -1.08346 2.08083 0
M  V30 3706 C 349.279 -1.41439 1.01346 0
M  V30 3707 O 350.455 -1.51316 1.32912 0
M  V30 3708 C 347.52 -2.37352 2.52715 0
M  V30 3709 C 346.581 -2.11093 3.73816 0
M  V30 3710 C 345.814 -3.33949 4.1631 0
M  V30 3711 O 346.037 -4.43622 3.58547 0
M  V30 3712 O 344.971 -3.21279 5.08983 0
M  V30 3713 H 348.797 -0.683667 2.95905 0
M  V30 3714 H 346.382 -0.271965 1.46904 0
M  V30 3715 H 348.264 -3.13246 2.81877 0
M  V30 3716 H 346.939 -2.76681 1.68016 0
M  V30 3717 H 345.846 -1.32856 3.49714 0
M  V30 3718 H 347.179 -1.76637 4.59413 0
M  V30 3719 N 348.832 -1.54138 -0.328536 0
M  V30 3720 C 349.78 -1.83894 -1.42428 0
M  V30 3721 C 350.774 -0.710478 -1.53781 0
M  V30 3722 O 351.98 -0.894062 -1.56226 0
M  V30 3723 H 348.355 -0.582837 -0.475189 0
M  V30 3724 H 350.326 -2.75537 -1.14552 0
M  V30 3725 C 349.075 -2.07866 -2.78724 0
M  V30 3726 H 348.398 -2.94158 -2.7076 0
M  V30 3727 H 349.838 -2.32644 -3.54476 0
M  V30 3728 C 348.297 -0.868689 -3.25508 0
M  V30 3729 O 348.827 -0.0754908 -4.01629 0
M  V30 3730 N 347.033 -0.681711 -2.82491 0
M  V30 3731 H 346.58 -1.32838 -2.20708 0
M  V30 3732 H 346.538 0.126374 -3.14146 0
M  V30 3733 N 350.31 0.590341 -1.46126 0
M  V30 3734 C 351.24 1.71032 -1.58966 0
M  V30 3735 C 352.221 1.64302 -0.440335 0
M  V30 3736 O 353.406 1.82436 -0.665634 0
M  V30 3737 C 350.536 3.09665 -1.57241 0
M  V30 3738 C 349.49 3.31221 -2.71066 0
M  V30 3739 C 348.816 4.70303 -2.54399 0
M  V30 3740 C 350.116 3.19796 -4.1295 0
M  V30 3741 H 351.81 1.60543 -2.52718 0
M  V30 3742 H 349.356 0.770933 -1.21625 0
M  V30 3743 H 351.309 3.87831 -1.64819 0
M  V30 3744 H 350.033 3.21036 -0.600289 0
M  V30 3745 H 348.692 2.55452 -2.62944 0
M  V30 3746 H 348.34 4.78429 -1.55288 0
M  V30 3747 H 348.04 4.85679 -3.30741 0
M  V30 3748 H 349.564 5.50647 -2.63857 0
M  V30 3749 H 350.978 3.87815 -4.22223 0
M  V30 3750 H 349.375 3.46696 -4.89818 0
M  V30 3751 H 350.445 2.16983 -4.33643 0
M  V30 3752 N 351.788 1.33704 0.83433 0
M  V30 3753 C 352.751 1.24244 1.92603 0
M  V30 3754 C 353.751 0.160383 1.59998 0
M  V30 3755 O 354.941 0.412228 1.69252 0
M  V30 3756 C 352.073 0.91555 3.28376 0
M  V30 3757 H 353.266 2.21287 2.02416 0
M  V30 3758 H 350.819 1.17827 1.02696 0
M  V30 3759 H 351.554 -0.0521886 3.24258 0
M  V30 3760 H 351.339 1.69811 3.53422 0
M  V30 3761 H 352.829 0.874231 4.08347 0
M  V30 3762 N 353.266 -1.05314 1.17247 0
M  V30 3763 C 354.229 -2.112 0.890357 0
M  V30 3764 C 355.229 -1.60359 -0.118943 0
M  V30 3765 O 356.419 -1.73833 0.113086 0
M  V30 3766 C 353.551 -3.39266 0.333422 0
M  V30 3767 H 354.744 -2.37659 1.82916 0
M  V30 3768 H 352.297 -1.21538 0.982758 0
M  V30 3769 H 353.032 -3.18462 -0.612587 0
M  V30 3770 H 352.817 -3.77477 1.06082 0
M  V30 3771 H 354.307 -4.17315 0.154322 0
M  V30 3772 N 354.744 -0.972509 -1.24016 0
M  V30 3773 C 355.969 -0.654417 -1.96805 0
M  V30 3774 C 356.394 0.770398 -1.716 0
M  V30 3775 O 355.752 1.52361 -0.982647 0
M  V30 3776 C 355.8 -0.941031 -3.48105 0
M  V30 3777 O 354.904 -0.0289472 -4.1239 0
M  V30 3778 H 354.245 -0.24692 -0.616382 0
M  V30 3779 H 356.775 -1.30396 -1.57664 0
M  V30 3780 H 356.785 -0.87452 -3.98517 0
M  V30 3781 H 355.46 -1.97939 -3.65777 0
M  V30 3782 H 354.037 -0.149192 -3.72601 0
M  V30 3783 N 356.222 1.38976 -0.743202 0
M  V30 3784 C 357.633 1.83123 -0.363732 0
M  V30 3785 C 357.984 1.6205 1.10609 0
M  V30 3786 O 357.109 1.11606 1.854 0
M  V30 3787 C 357.704 3.32439 -0.653408 0
M  V30 3788 C 356.263 3.74974 -0.327338 0
M  V30 3789 C 355.41 2.61878 -0.911875 0
M  V30 3790 H 358.361 1.27852 -0.940191 0
M  V30 3791 H 358.382 3.80432 0.0720031 0
M  V30 3792 H 357.894 3.47745 -1.72323 0
M  V30 3793 H 355.995 3.65252 0.736314 0
M  V30 3794 H 356.108 4.72106 -0.815631 0
M  V30 3795 H 354.472 2.52448 -0.337944 0
M  V30 3796 H 355.255 2.79987 -1.98651 0
M  V30 3797 N 357.7 0.491464 1.49741 0
M  V30 3798 C 358.946 -0.0565092 2.02721 0
M  V30 3799 C 359.279 -1.37522 1.37118 0
M  V30 3800 O 358.554 -1.87866 0.503645 0
M  V30 3801 C 358.837 -0.219051 3.59433 0
M  V30 3802 C 358.69 1.12211 4.35579 0
M  V30 3803 C 360.009 -0.964157 4.29409 0
M  V30 3804 H 357.128 -0.0190627 0.736753 0
M  V30 3805 H 359.77 0.641021 1.7886 0
M  V30 3806 H 357.92 -0.813165 3.79895 0
M  V30 3807 H 359.592 1.75437 4.26637 0
M  V30 3808 H 357.835 1.71377 3.98513 0
M  V30 3809 H 358.506 0.961794 5.43556 0
M  V30 3810 H 360.982 -0.460378 4.13545 0
M  V30 3811 H 359.858 -1.04671 5.38828 0
M  V30 3812 H 360.119 -2.00563 3.93988 0
M  V30 3813 N 359.178 -1.55987 0.224894 0
M  V30 3814 C 360.424 -1.98684 -0.406502 0
M  V30 3815 C 360.757 -1.11248 -1.59177 0
M  V30 3816 O 360.032 -0.170909 -1.93748 0
M  V30 3817 C 360.315 -3.50218 -0.837808 0
M  V30 3818 C 360.168 -4.48426 0.351332 0
M  V30 3819 C 361.487 -4.06243 -1.69278 0
M  V30 3820 H 358.606 -0.722337 -0.146283 0
M  V30 3821 H 361.248 -1.87255 0.321799 0
M  V30 3822 H 359.398 -3.60089 -1.45837 0
M  V30 3823 H 361.07 -4.50562 0.989526 0
M  V30 3824 H 359.313 -4.22159 0.998207 0
M  V30 3825 H 359.984 -5.52 0.00655905 0
M  V30 3826 H 362.46 -3.99337 -1.16914 0
M  V30 3827 H 361.336 -5.12581 -1.96346 0
M  V30 3828 H 361.597 -3.53332 -2.65723 0
M  V30 3829 N 360.656 0.0484629 -1.57525 0
M  V30 3830 C 361.884 0.755421 -1.92616 0
M  V30 3831 C 362.299 1.69919 -0.822984 0
M  V30 3832 O 361.656 1.81378 0.202085 0
M  V30 3833 C 361.707 1.52915 -3.27566 0
M  V30 3834 O 361.428 0.62329 -4.33644 0
M  V30 3835 C 362.929 2.33502 -3.76818 0
M  V30 3836 H 360.149 0.213465 -0.63614 0
M  V30 3837 H 362.693 0.0117698 -2.04497 0
M  V30 3838 H 360.848 2.22486 -3.17142 0
M  V30 3839 H 361.262 1.16383 -5.11425 0
M  V30 3840 H 362.736 2.83214 -4.73808 0
M  V30 3841 H 363.213 3.14068 -3.07014 0
M  V30 3842 H 363.819 1.69043 -3.90262 0
M  V30 3843 N 362.134 1.5431 0.320358 0
M  V30 3844 C 363.362 1.76636 1.07738 0
M  V30 3845 C 363.777 0.51649 1.81598 0
M  V30 3846 O 363.134 -0.512942 1.75143 0
M  V30 3847 C 363.185 2.96158 2.07299 0
M  V30 3848 O 362.906 4.16313 1.36438 0
M  V30 3849 C 364.407 3.3072 2.95193 0
M  V30 3850 H 361.627 0.589597 0.320339 0
M  V30 3851 H 364.171 2.01207 0.36551 0
M  V30 3852 H 362.326 2.73851 2.74016 0
M  V30 3853 H 362.74 4.83565 2.03138 0
M  V30 3854 H 364.214 4.17643 3.60941 0
M  V30 3855 H 364.691 2.48026 3.62463 0
M  V30 3856 H 365.297 3.55117 2.34034 0
M  V30 3857 N 363.613 -0.582584 1.46437 0
M  V30 3858 C 364.543 -1.70187 1.59871 0
M  V30 3859 C 365.524 -1.64066 0.449042 0
M  V30 3860 O 366.709 -1.82081 0.6753 0
M  V30 3861 C 363.839 -3.08827 1.58881 0
M  V30 3862 C 362.793 -3.29779 2.72819 0
M  V30 3863 C 362.119 -4.68947 2.5689 0
M  V30 3864 C 363.419 -3.17601 4.1464 0
M  V30 3865 H 365.113 -1.592 2.53566 0
M  V30 3866 H 362.659 -0.764472 1.22032 0
M  V30 3867 H 364.612 -3.86951 1.66873 0
M  V30 3868 H 363.336 -3.20713 0.617306 0
M  V30 3869 H 361.995 -2.54054 2.64296 0
M  V30 3870 H 361.643 -4.77599 1.57823 0
M  V30 3871 H 361.343 -4.83919 3.33312 0
M  V30 3872 H 362.867 -5.4924 2.66773 0
M  V30 3873 H 364.281 -3.8557 4.24274 0
M  V30 3874 H 362.678 -3.44094 4.9165 0
M  V30 3875 H 363.748 -2.14681 4.34788 0
M  V30 3876 N 365.091 -1.34144 -0.827227 0
M  V30 3877 C 366.001 -1.27428 -1.96975 0
M  V30 3878 C 367.017 -0.182728 -1.73038 0
M  V30 3879 O 368.193 -0.408426 -1.97215 0
M  V30 3880 C 365.258 -1.02526 -3.31194 0
M  V30 3881 C 364.319 -2.20796 -3.68168 0
M  V30 3882 C 363.552 -1.97073 -4.95982 0
M  V30 3883 O 363.775 -0.926822 -5.6282 0
M  V30 3884 O 362.709 -2.83912 -5.30733 0
M  V30 3885 H 366.535 -2.23537 -2.05584 0
M  V30 3886 H 364.12 -1.14307 -0.961989 0
M  V30 3887 H 366.002 -0.904026 -4.11589 0
M  V30 3888 H 364.677 -0.0945389 -3.23562 0
M  V30 3889 H 363.584 -2.38477 -2.88235 0
M  V30 3890 H 364.917 -3.12243 -3.8048 0
M  V30 3891 N 366.569 1.04691 -1.17803 0
M  V30 3892 C 367.799 1.81183 -0.992788 0
M  V30 3893 C 368.207 1.8347 0.462098 0
M  V30 3894 O 367.55 1.2643 1.33271 0
M  V30 3895 C 367.612 3.28363 -1.46349 0
M  V30 3896 C 367.276 3.49749 -2.94151 0
M  V30 3897 C 368.273 3.41456 -3.92051 0
M  V30 3898 C 365.958 3.76548 -3.32441 0
M  V30 3899 C 367.952 3.59656 -5.26238 0
M  V30 3900 C 365.639 3.94396 -4.66792 0
M  V30 3901 C 366.637 3.8595 -5.635 0
M  V30 3902 O 366.325 4.03294 -6.9542 0
M  V30 3903 H 366.057 0.577622 -0.351182 0
M  V30 3904 H 368.611 1.32876 -1.5663 0
M  V30 3905 H 366.841 3.77609 -0.833574 0
M  V30 3906 H 368.53 3.86395 -1.24313 0
M  V30 3907 H 369.296 3.20723 -3.63815 0
M  V30 3908 H 365.175 3.82224 -2.57732 0
M  V30 3909 H 368.719 3.52979 -6.01707 0
M  V30 3910 H 364.616 4.14622 -4.94731 0
M  V30 3911 H 365.384 4.2049 -7.02232 0
M  V30 3912 N 368.047 0.979072 1.23499 0
M  V30 3913 C 369.275 0.665202 1.95915 0
M  V30 3914 C 369.69 -0.767571 1.72493 0
M  V30 3915 O 369.047 -1.51635 1.01554 0
M  V30 3916 C 369.098 0.944438 3.48945 0
M  V30 3917 O 368.819 2.3209 3.71572 0
M  V30 3918 C 370.32 0.646336 4.38563 0
M  V30 3919 H 367.54 0.247218 0.623798 0
M  V30 3920 H 370.084 1.31009 1.57025 0
M  V30 3921 H 368.239 0.345575 3.85856 0
M  V30 3922 H 368.653 2.40957 4.65876 0
M  V30 3923 H 370.127 0.892091 5.44744 0
M  V30 3924 H 370.604 -0.419575 4.37191 0
M  V30 3925 H 371.21 1.22562 4.07258 0
M  V30 3926 N 369.525 -1.3858 0.750561 0
M  V30 3927 C 370.455 -2.33102 0.136237 0
M  V30 3928 C 371.436 -1.54713 -0.706965 0
M  V30 3929 O 372.621 -1.83043 -0.648769 0
M  V30 3930 C 369.751 -3.38882 -0.760017 0
M  V30 3931 C 368.705 -4.27995 -0.0197785 0
M  V30 3932 C 368.031 -5.24605 -1.03408 0
M  V30 3933 C 369.331 -5.09554 1.14684 0
M  V30 3934 H 371.025 -2.84726 0.925822 0
M  V30 3935 H 368.571 -1.36898 0.446654 0
M  V30 3936 H 370.524 -4.0397 -1.19943 0
M  V30 3937 H 369.248 -2.85734 -1.58189 0
M  V30 3938 H 367.907 -3.64409 0.400184 0
M  V30 3939 H 367.555 -4.67746 -1.84994 0
M  V30 3940 H 367.255 -5.85081 -0.543464 0
M  V30 3941 H 368.779 -5.9257 -1.47288 0
M  V30 3942 H 370.193 -5.67899 0.785118 0
M  V30 3943 H 368.59 -5.7925 1.56812 0
M  V30 3944 H 369.66 -4.4347 1.96118 0
M  V30 3945 N 371.003 -0.499398 -1.49478 0
M  V30 3946 C 372.25 0.0456899 -2.02448 0
M  V30 3947 C 372.578 1.37142 -1.37921 0
M  V30 3948 O 371.833 1.89111 -0.503544 0
M  V30 3949 C 372.132 0.248424 -3.56536 0
M  V30 3950 C 371.798 -0.999107 -4.39692 0
M  V30 3951 C 370.46 -1.34108 -4.62135 0
M  V30 3952 C 372.812 -1.82842 -4.88076 0
M  V30 3953 C 370.14 -2.51191 -5.30208 0
M  V30 3954 C 372.492 -2.99076 -5.57437 0
M  V30 3955 C 371.156 -3.33655 -5.78127 0
M  V30 3956 H 370.426 0.0167191 -0.740811 0
M  V30 3957 H 373.073 -0.65923 -1.79795 0
M  V30 3958 H 371.378 1.03586 -3.77859 0
M  V30 3959 H 373.075 0.684605 -3.95113 0
M  V30 3960 H 369.665 -0.722729 -4.22463 0
M  V30 3961 H 373.849 -1.57737 -4.70566 0
M  V30 3962 H 369.105 -2.78221 -5.44429 0
M  V30 3963 H 373.279 -3.63664 -5.93904 0
M  V30 3964 H 370.906 -4.24483 -6.30649 0
M  V30 3965 N 372.481 1.55866 -0.233164 0
M  V30 3966 C 373.758 1.90471 0.444988 0
M  V30 3967 C 374.138 1.15209 1.7689 0
M  V30 3968 O 373.486 0.265119 2.26957 0
M  V30 3969 C 373.696 3.4333 0.626559 0
M  V30 3970 C 375.044 4.14319 0.92871 0
M  V30 3971 O 376.068 3.48993 0.712926 0
M  V30 3972 O 374.927 5.29846 1.33887 0
M  V30 3973 H 372.021 0.792347 0.236885 0
M  V30 3974 H 374.567 1.67437 -0.276211 0
M  V30 3975 H 373.339 3.90095 -0.306822 0
M  V30 3976 H 372.962 3.72181 1.39881 0
M  V30 3977 N 373.959 -0.0401083 1.57549 0
M  V30 3978 C 375.207 -0.731677 1.8839 0
M  V30 3979 C 375.528 -1.76481 0.829425 0
M  V30 3980 O 374.798 -1.95411 -0.1383 0
M  V30 3981 H 373.378 -0.273225 0.695239 0
M  V30 3982 H 376.04 -0.00867725 1.94898 0
M  V30 3983 H 375.136 -1.22816 2.86919 0
M  V30 3984 N 375.437 -1.54477 -0.31217 0
M  V30 3985 C 376.347 -1.87695 -1.4074 0
M  V30 3986 C 377.363 -0.769975 -1.56036 0
M  V30 3987 O 378.539 -1.06537 -1.70915 0
M  V30 3988 C 375.604 -2.10755 -2.75287 0
M  V30 3989 C 374.665 -3.34514 -2.69071 0
M  V30 3990 C 373.898 -3.56465 -3.97201 0
M  V30 3991 O 374.121 -2.81637 -4.96021 0
M  V30 3992 O 373.055 -4.49964 -3.9977 0
M  V30 3993 H 376.881 -2.80849 -1.15574 0
M  V30 3994 H 374.466 -1.40526 -0.507228 0
M  V30 3995 H 376.348 -2.27188 -3.54913 0
M  V30 3996 H 375.023 -1.20788 -3.0032 0
M  V30 3997 H 373.93 -3.23456 -1.87955 0
M  V30 3998 H 375.263 -4.24575 -2.48992 0
M  V30 3999 N 376.915 0.57481 -1.46744 0
M  V30 4000 C 378.331 0.898981 -1.31873 0
M  V30 4001 C 378.531 1.99313 -0.29605 0
M  V30 4002 O 377.587 2.50728 0.298621 0
M  V30 4003 C 378.9 1.30886 -2.7072 0
M  V30 4004 C 380.448 1.42127 -2.78871 0
M  V30 4005 C 380.923 1.86478 -4.18318 0
M  V30 4006 N 382.414 1.93658 -4.20774 0
M  V30 4007 C 383.149 2.29267 -5.2557 0
M  V30 4008 N 382.645 2.63612 -6.40688 0
M  V30 4009 N 384.438 2.29889 -5.1294 0
M  V30 4010 H 376.589 -0.147839 -2.11885 0
M  V30 4011 H 378.852 -0.00347013 -0.947994 0
M  V30 4012 H 378.558 0.578853 -3.46904 0
M  V30 4013 H 378.432 2.26874 -3.01343 0
M  V30 4014 H 380.819 2.14213 -2.0297 0
M  V30 4015 H 380.9 0.443705 -2.51922 0
M  V30 4016 H 380.544 1.14968 -4.94717 0
M  V30 4017 H 380.474 2.85207 -4.42679 0
M  V30 4018 H 382.965 1.69574 -3.37718 0
M  V30 4019 H 383.278 2.89759 -7.16421 0
M  V30 4020 H 381.623 2.61232 -6.44036 0
M  V30 4021 H 384.814 2.02485 -4.22039 0
M  V30 4022 H 384.987 2.57312 -5.94722 0
M  V30 4023 N 378.394 1.34581 0.820102 0
M  V30 4024 C 379.64 1.27285 1.57881 0
M  V30 4025 C 379.973 -0.156137 1.93571 0
M  V30 4026 O 379.248 -1.10222 1.60254 0
M  V30 4027 C 379.531 2.16639 2.87645 0
M  V30 4028 C 379.384 3.68088 2.58517 0
M  V30 4029 C 380.703 2.05378 3.8924 0
M  V30 4030 H 377.822 0.463714 0.572833 0
M  V30 4031 H 380.464 1.64859 0.944539 0
M  V30 4032 H 378.614 1.84725 3.41773 0
M  V30 4033 H 380.286 4.10382 2.10676 0
M  V30 4034 H 378.529 3.89038 1.91917 0
M  V30 4035 H 379.2 4.2598 3.51063 0
M  V30 4036 H 381.676 2.33404 3.44473 0
M  V30 4037 H 380.552 2.7012 4.77835 0
M  V30 4038 H 380.813 1.0316 4.29896 0
M  V30 4039 N 379.872 -1.04064 1.18357 0
M  V30 4040 C 381.118 -1.77528 0.980397 0
M  V30 4041 C 381.451 -1.87948 -0.48879 0
M  V30 4042 O 380.726 -1.3876 -1.36293 0
M  V30 4043 C 381.009 -3.20797 1.63588 0
M  V30 4044 C 380.862 -3.1832 3.17793 0
M  V30 4045 C 382.181 -4.18911 1.34914 0
M  V30 4046 H 379.3 -0.644443 0.357578 0
M  V30 4047 H 381.942 -1.2156 1.46024 0
M  V30 4048 H 380.092 -3.68586 1.22788 0
M  V30 4049 H 381.764 -2.78521 3.67728 0
M  V30 4050 H 380.007 -2.56351 3.49952 0
M  V30 4051 H 380.678 -4.19489 3.58794 0
M  V30 4052 H 383.154 -3.7967 1.70265 0
M  V30 4053 H 382.03 -5.17374 1.83346 0
M  V30 4054 H 382.291 -4.41262 0.272027 0
M  V30 4055 N 381.35 -0.985608 -1.22978 0
M  V30 4056 C 382.3 -0.50118 -2.22423 0
M  V30 4057 C 383.284 0.426649 -1.5514 0
M  V30 4058 O 384.476 0.254656 -1.75159 0
M  V30 4059 C 381.605 0.190003 -3.42774 0
M  V30 4060 C 380.691 -0.757703 -4.17276 0
M  V30 4061 N 381.082 -1.90251 -4.68656 0
M  V30 4062 C 379.38 -0.57209 -4.42316 0
M  V30 4063 C 380.081 -2.49676 -5.25392 0
M  V30 4064 N 379.057 -1.78013 -5.13627 0
M  V30 4065 H 382.859 -1.37441 -2.59783 0
M  V30 4066 H 380.373 -0.846941 -1.38567 0
M  V30 4067 H 382.37 0.55439 -4.13197 0
M  V30 4068 H 381.03 1.05946 -3.06929 0
M  V30 4069 H 382.041 -2.28354 -4.64839 0
M  V30 4070 H 378.718 0.251909 -4.16739 0
M  V30 4071 H 380.108 -3.46384 -5.75732 0
M  V30 4072 N 382.828 1.3818 -0.7579 0
M  V30 4073 C 384.053 2.04827 -0.325679 0
M  V30 4074 C 384.478 1.56788 1.03919 0
M  V30 4075 O 383.836 0.721811 1.66312 0
M  V30 4076 C 383.884 3.58774 -0.362447 0
M  V30 4077 O 382.988 4.07372 0.642033 0
M  V30 4078 H 382.329 0.64833 -0.143402 0
M  V30 4079 H 384.859 1.7677 -1.03023 0
M  V30 4080 H 384.869 4.07434 -0.214844 0
M  V30 4081 H 383.544 3.93096 -1.35824 0
M  V30 4082 H 382.121 3.70068 0.458688 0
M  V30 4083 N 384.306 0.507319 1.49211 0
M  V30 4084 C 385.531 -0.033725 2.07373 0
M  V30 4085 C 385.956 -1.29485 1.36437 0
M  V30 4086 O 385.314 -1.76294 0.423087 0
M  V30 4087 C 385.362 -0.263945 3.59633 0
M  V30 4088 O 384.466 -1.33737 3.90113 0
M  V30 4089 H 383.807 0.0290331 0.663365 0
M  V30 4090 H 386.337 0.708749 1.91932 0
M  V30 4091 H 386.347 -0.493536 4.05004 0
M  V30 4092 H 385.022 0.657424 4.10671 0
M  V30 4093 H 383.599 -1.09224 3.56545 0
M  V30 4094 N 385.784 -1.5574 0.241426 0
M  V30 4095 C 386.747 -2.19877 -0.647063 0
M  V30 4096 C 387.747 -1.16642 -1.10686 0
M  V30 4097 O 388.937 -1.41757 -1.01245 0
M  V30 4098 C 386.069 -2.83797 -1.88871 0
M  V30 4099 H 387.262 -2.99772 -0.087574 0
M  V30 4100 H 384.815 -1.56298 -0.00813574 0
M  V30 4101 H 385.55 -2.07824 -2.48957 0
M  V30 4102 H 385.335 -3.59414 -1.56728 0
M  V30 4103 H 386.825 -3.32898 -2.52129 0
M  V30 4104 N 387.262 0.0317525 -1.57568 0
M  V30 4105 C 388.511 0.722131 -1.8833 0
M  V30 4106 C 388.824 1.76664 -0.839587 0
M  V30 4107 O 390.03 2.50942 -1.03635 0
M  V30 4108 C 388.486 1.33544 -3.34207 0
M  V30 4109 C 388.094 0.327415 -4.46802 0
M  V30 4110 C 389.838 2.00585 -3.7412 0
M  V30 4111 C 387.745 0.948915 -5.83738 0
M  V30 4112 H 386.675 0.273466 -0.702661 0
M  V30 4113 H 389.326 -0.0235811 -1.83485 0
M  V30 4114 H 387.708 2.13077 -3.33788 0
M  V30 4115 H 388.882 -0.441006 -4.58685 0
M  V30 4116 H 387.197 -0.240758 -4.15703 0
M  V30 4117 H 389.794 2.47932 -4.73744 0
M  V30 4118 H 390.137 2.82285 -3.05975 0
M  V30 4119 H 390.67 1.27831 -3.76702 0
M  V30 4120 H 387.409 0.171387 -6.55276 0
M  V30 4121 H 386.929 1.68724 -5.7558 0
M  V30 4122 H 388.608 1.45705 -6.3038 0
M  V30 4123 N 388.74 1.54641 0.303973 0
M  V30 4124 C 390.017 1.64455 1.05896 0
M  V30 4125 C 390.397 0.490923 2.05312 0
M  V30 4126 O 389.745 -0.512685 2.22674 0
M  V30 4127 C 389.955 3.02331 1.74347 0
M  V30 4128 C 391.303 3.59045 2.26653 0
M  V30 4129 O 392.327 3.04764 1.84384 0
M  V30 4130 O 391.186 4.54081 3.04093 0
M  V30 4131 H 388.28 0.666729 0.489287 0
M  V30 4132 H 390.826 1.66986 0.302298 0
M  V30 4133 H 389.598 3.77734 1.02142 0
M  V30 4134 H 389.221 3.03565 2.56777 0
M  V30 4135 N 390.218 -0.567019 1.47046 0
M  V30 4136 C 391.168 -1.67018 1.55207 0
M  V30 4137 C 392.152 -1.55543 0.411714 0
M  V30 4138 O 393.344 -1.64192 0.661064 0
M  V30 4139 C 390.473 -3.05801 1.56014 0
M  V30 4140 C 389.559 -3.22515 2.75399 0
M  V30 4141 N 389.95 -3.09329 4.00186 0
M  V30 4142 C 388.248 -3.53493 2.71954 0
M  V30 4143 C 388.949 -3.2847 4.80086 0
M  V30 4144 N 387.925 -3.54352 4.12233 0
M  V30 4145 H 391.727 -1.55377 2.4947 0
M  V30 4146 H 389.241 -0.771503 1.42904 0
M  V30 4147 H 391.238 -3.84996 1.59949 0
M  V30 4148 H 389.898 -3.18561 0.628396 0
M  V30 4149 H 390.909 -2.86863 4.31196 0
M  V30 4150 H 387.586 -3.7284 1.87873 0
M  V30 4151 H 388.976 -3.23326 5.88991 0
M  V30 4152 N 391.696 -1.35014 -0.812953 0
M  V30 4153 C 392.626 -1.30069 -1.93919 0
M  V30 4154 C 393.607 -0.176275 -1.69184 0
M  V30 4155 O 394.792 -0.370227 -1.90638 0
M  V30 4156 C 391.922 -1.06547 -3.30552 0
M  V30 4157 C 390.876 -2.15561 -3.69753 0
M  V30 4158 C 390.202 -1.77214 -5.04479 0
M  V30 4159 C 391.502 -3.57476 -3.808 0
M  V30 4160 H 393.196 -2.24303 -1.98314 0
M  V30 4161 H 390.742 -1.07977 -0.952736 0
M  V30 4162 H 392.695 -1.01729 -4.08937 0
M  V30 4163 H 391.419 -0.0875719 -3.26483 0
M  V30 4164 H 390.078 -2.19466 -2.9365 0
M  V30 4165 H 389.726 -0.780589 -4.96906 0
M  V30 4166 H 389.426 -2.50184 -5.31678 0
M  V30 4167 H 390.95 -1.7391 -5.8531 0
M  V30 4168 H 392.364 -3.55929 -4.4943 0
M  V30 4169 H 390.761 -4.29152 -4.19462 0
M  V30 4170 H 391.831 -3.94091 -2.82525 0
M  V30 4171 N 393.175 1.03435 -1.18907 0
M  V30 4172 C 394.138 2.09756 -0.923844 0
M  V30 4173 C 395.138 1.60528 0.093416 0
M  V30 4174 O 396.328 1.73631 -0.140727 0
M  V30 4175 C 393.46 3.38692 -0.387354 0
M  V30 4176 H 394.653 2.34719 -1.86674 0
M  V30 4177 H 392.206 1.19959 -1.00197 0
M  V30 4178 H 392.941 3.19396 0.561845 0
M  V30 4179 H 392.726 3.75742 -1.12074 0
M  V30 4180 H 394.216 4.17016 -0.220694 0
M  V30 4181 N 394.653 0.992116 1.22453 0
M  V30 4182 C 395.902 0.662992 1.90492 0
M  V30 4183 C 396.215 -0.808407 1.78113 0
M  V30 4184 O 397.421 -1.24908 2.41061 0
M  V30 4185 C 395.877 1.1353 3.41524 0
M  V30 4186 C 395.485 2.63187 3.62542 0
M  V30 4187 C 397.229 0.880465 4.15269 0
M  V30 4188 C 395.136 3.04024 5.0727 0
M  V30 4189 H 394.066 0.244278 0.713333 0
M  V30 4190 H 396.717 1.20157 1.38688 0
M  V30 4191 H 395.099 0.52485 3.92506 0
M  V30 4192 H 396.273 3.2957 3.22056 0
M  V30 4193 H 394.588 2.86543 3.02129 0
M  V30 4194 H 397.185 1.16128 5.21937 0
M  V30 4195 H 397.528 -0.183408 4.15896 0
M  V30 4196 H 398.061 1.45307 3.70312 0
M  V30 4197 H 394.8 4.09584 5.11782 0
M  V30 4198 H 394.32 2.42343 5.48662 0
M  V30 4199 H 395.999 2.95282 5.75689 0
M  V30 4200 N 396.131 -1.37776 0.765217 0
M  V30 4201 C 397.041 -2.34135 0.147666 0
M  V30 4202 C 398.057 -1.59854 -0.687215 0
M  V30 4203 O 399.233 -1.91983 -0.608659 0
M  V30 4204 C 396.298 -3.3901 -0.72617 0
M  V30 4205 C 395.359 -4.2912 0.124417 0
M  V30 4206 C 394.592 -5.28986 -0.707807 0
M  V30 4207 O 394.815 -5.36205 -1.94525 0
M  V30 4208 O 393.749 -6.01779 -0.12046 0
M  V30 4209 H 397.575 -2.88664 0.943758 0
M  V30 4210 H 395.16 -1.39824 0.526277 0
M  V30 4211 H 397.042 -4.03195 -1.22524 0
M  V30 4212 H 395.717 -2.86819 -1.50056 0
M  V30 4213 H 394.624 -3.68057 0.669696 0
M  V30 4214 H 395.957 -4.84598 0.861736 0
M  V30 4215 N 397.609 -0.515225 -1.4894 0
M  V30 4216 C 398.556 0.255567 -2.29381 0
M  V30 4217 C 399.526 0.947387 -1.36432 0
M  V30 4218 O 400.711 0.951288 -1.65394 0
M  V30 4219 C 397.851 1.30551 -3.19453 0
M  V30 4220 C 396.964 0.624029 -4.27469 0
M  V30 4221 C 396.099 1.65563 -5.0474 0
M  V30 4222 C 395.138 0.956802 -6.04576 0
M  V30 4223 N 394.275 1.93326 -6.74959 0
M  V30 4224 H 399.115 -0.436607 -2.94784 0
M  V30 4225 H 396.652 -0.227154 -1.45336 0
M  V30 4226 H 398.61 1.92639 -3.70062 0
M  V30 4227 H 397.24 1.96626 -2.56004 0
M  V30 4228 H 396.292 -0.110459 -3.8024 0
M  V30 4229 H 397.604 0.0746092 -4.98744 0
M  V30 4230 H 396.758 2.35119 -5.59289 0
M  V30 4231 H 395.497 2.23893 -4.3327 0
M  V30 4232 H 394.502 0.247097 -5.49244 0
M  V30 4233 H 395.727 0.379814 -6.78037 0
M  V30 4234 H 393.673 2.50591 -6.06251 0
M  V30 4235 H 393.59 1.43489 -7.42258 0
M  V30 4236 H 394.858 2.62126 -7.34105 0
M  V30 4237 N 399.087 1.5561 -0.249682 0
M  V30 4238 C 400.017 2.24477 0.642826 0
M  V30 4239 C 400.998 1.22601 1.17911 0
M  V30 4240 O 402.183 1.5126 1.21795 0
M  V30 4241 C 399.313 2.94638 1.83863 0
M  V30 4242 C 398.267 4.03227 1.435 0
M  V30 4243 C 397.593 4.60828 2.71186 0
M  V30 4244 C 398.893 5.18796 0.604002 0
M  V30 4245 H 400.587 2.99321 0.0685625 0
M  V30 4246 H 398.133 1.43965 0.0315363 0
M  V30 4247 H 400.086 3.41517 2.46868 0
M  V30 4248 H 398.81 2.17287 2.43832 0
M  V30 4249 H 397.469 3.57121 0.828275 0
M  V30 4250 H 397.117 3.80174 3.29358 0
M  V30 4251 H 396.817 5.34132 2.44901 0
M  V30 4252 H 398.341 5.10442 3.35084 0
M  V30 4253 H 399.755 5.61883 1.13842 0
M  V30 4254 H 398.152 5.98506 0.437097 0
M  V30 4255 H 399.222 4.83384 -0.383147 0
M  V30 4256 N 400.565 -0.0233959 1.57583 0
M  V30 4257 C 401.793 -0.724682 1.93794 0
M  V30 4258 C 402.208 -1.68588 0.849912 0
M  V30 4259 O 401.565 -1.81676 -0.173204 0
M  V30 4260 C 401.616 -1.47684 3.29957 0
M  V30 4261 O 401.337 -0.554222 4.3458 0
M  V30 4262 C 402.838 -2.27477 3.80485 0
M  V30 4263 H 400.058 -0.203317 0.639455 0
M  V30 4264 H 402.602 0.0207653 2.04489 0
M  V30 4265 H 400.757 -2.17412 3.20641 0
M  V30 4266 H 401.171 -1.08232 5.13212 0
M  V30 4267 H 402.645 -2.7564 4.78254 0
M  V30 4268 H 403.122 -3.09144 3.11972 0
M  V30 4269 H 403.728 -1.62813 3.92902 0
M  V30 4270 N 402.043 -1.548 -0.295768 0
M  V30 4271 C 403.268 -1.78653 -1.05346 0
M  V30 4272 C 403.693 -0.546894 -1.79974 0
M  V30 4273 O 403.051 0.502763 -1.7419 0
M  V30 4274 C 403.099 -2.99679 -2.00561 0
M  V30 4275 O 402.203 -2.7317 -3.08953 0
M  V30 4276 H 401.544 -0.59116 -0.302367 0
M  V30 4277 H 404.074 -2.01895 -0.331598 0
M  V30 4278 H 404.084 -3.27793 -2.42932 0
M  V30 4279 H 402.759 -3.89562 -1.4565 0
M  V30 4280 H 401.336 -2.56089 -2.71059 0
M  V30 4281 N 403.521 0.559213 -1.47345 0
M  V30 4282 C 404.484 1.64854 -1.59235 0
M  V30 4283 C 405.484 1.53851 -0.467607 0
M  V30 4284 O 406.674 1.58045 -0.732617 0
M  V30 4285 C 403.806 3.04388 -1.53496 0
M  V30 4286 H 404.999 1.55662 -2.56339 0
M  V30 4287 H 402.552 0.778973 -1.35505 0
M  V30 4288 H 403.287 3.19115 -0.577604 0
M  V30 4289 H 403.072 3.13783 -2.35123 0
M  V30 4290 H 404.562 3.83642 -1.6495 0
M  V30 4291 N 404.999 1.35443 0.805782 0
M  V30 4292 C 406.224 1.32037 1.59941 0
M  V30 4293 C 406.649 -0.0994215 1.87837 0
M  V30 4294 O 406.007 -1.06648 1.46615 0
M  V30 4295 C 406.055 2.13354 2.90711 0
M  V30 4296 O 405.159 1.5148 3.83572 0
M  V30 4297 H 404.5 0.452666 0.485787 0
M  V30 4298 H 407.03 1.78496 1.00002 0
M  V30 4299 H 407.04 2.25338 3.40128 0
M  V30 4300 H 405.715 3.16572 2.69732 0
M  V30 4301 H 404.292 1.4834 3.42125 0
M  V30 4302 N 406.477 -1.02803 1.19454 0
M  V30 4303 C 407.724 -1.76217 0.997693 0
M  V30 4304 C 408.052 -1.887 -0.47144 0
M  V30 4305 O 407.307 -1.4011 -1.3663 0
M  V30 4306 C 407.606 -3.18941 1.6128 0
M  V30 4307 C 407.272 -3.26463 3.11019 0
M  V30 4308 C 405.934 -3.28223 3.51885 0
M  V30 4309 C 408.286 -3.25542 4.07028 0
M  V30 4310 C 405.614 -3.26719 4.8731 0
M  V30 4311 C 407.966 -3.25579 5.42385 0
M  V30 4312 C 406.63 -3.25637 5.82681 0
M  V30 4313 H 405.9 -0.644823 0.365082 0
M  V30 4314 H 408.547 -1.20655 1.4871 0
M  V30 4315 H 406.852 -3.77587 1.04572 0
M  V30 4316 H 408.549 -3.74415 1.43577 0
M  V30 4317 H 405.139 -3.25822 2.78457 0
M  V30 4318 H 409.323 -3.23362 3.76498 0
M  V30 4319 H 404.579 -3.25089 5.1781 0
M  V30 4320 H 408.753 -3.23817 6.16535 0
M  V30 4321 H 406.38 -3.24226 6.87591 0
M  V30 4322 N 407.956 -0.998596 -1.21925 0
M  V30 4323 C 408.919 -0.558679 -2.22287 0
M  V30 4324 C 409.919 0.361525 -1.56683 0
M  V30 4325 O 411.109 0.152695 -1.73529 0
M  V30 4326 C 408.241 0.18661 -3.40389 0
M  V30 4327 H 409.434 -1.4463 -2.62721 0
M  V30 4328 H 406.987 -0.786413 -1.35075 0
M  V30 4329 H 407.722 1.08996 -3.05435 0
M  V30 4330 H 407.507 -0.474188 -3.89222 0
M  V30 4331 H 408.997 0.482367 -4.14805 0
M  V30 4332 N 409.434 1.37368 -0.772513 0
M  V30 4333 C 410.681 1.99673 -0.337182 0
M  V30 4334 C 411.009 1.61324 1.0865 0
M  V30 4335 O 410.264 0.851377 1.7621 0
M  V30 4336 C 410.563 3.54817 -0.428876 0
M  V30 4337 C 410.229 4.12936 -1.81092 0
M  V30 4338 C 408.891 4.28523 -2.1891 0
M  V30 4339 C 411.243 4.44801 -2.71664 0
M  V30 4340 C 408.571 4.73277 -3.46735 0
M  V30 4341 C 410.923 4.90981 -3.98899 0
M  V30 4342 C 409.587 5.04773 -4.36761 0
M  V30 4343 H 408.857 0.730656 -0.123384 0
M  V30 4344 H 411.504 1.64124 -0.986686 0
M  V30 4345 H 409.809 3.90618 0.304167 0
M  V30 4346 H 411.506 4.00933 -0.0733334 0
M  V30 4347 H 408.096 4.01233 -1.50699 0
M  V30 4348 H 412.28 4.32344 -2.43706 0
M  V30 4349 H 407.536 4.82142 -3.75964 0
M  V30 4350 H 411.71 5.14603 -4.69208 0
M  V30 4351 H 409.337 5.39211 -5.35868 0
M  V30 4352 N 410.912 0.523116 1.48665 0
M  V30 4353 C 412.14 -0.0096312 2.06898 0
M  V30 4354 C 412.555 -1.28784 1.38059 0
M  V30 4355 O 411.912 -1.76453 0.465893 0
M  V30 4356 C 411.963 -0.244386 3.60673 0
M  V30 4357 O 411.684 0.983172 4.26925 0
M  V30 4358 C 413.185 -0.818289 4.35682 0
M  V30 4359 H 410.405 0.0304161 0.67031 0
M  V30 4360 H 412.949 0.726799 1.91149 0
M  V30 4361 H 411.104 -0.930847 3.76051 0
M  V30 4362 H 411.518 0.759653 5.1897 0
M  V30 4363 H 412.992 -0.93201 5.44075 0
M  V30 4364 H 413.469 -1.82153 3.99646 0
M  V30 4365 H 414.075 -0.168609 4.24966 0
M  V30 4366 N 412.39 -1.55475 0.257931 0
M  V30 4367 C 413.636 -1.99502 -0.364266 0
M  V30 4368 C 413.969 -1.146 -1.56782 0
M  V30 4369 O 413.244 -0.211968 -1.93342 0
M  V30 4370 C 413.527 -3.51917 -0.763333 0
M  V30 4371 C 413.38 -4.4758 0.446371 0
M  V30 4372 C 414.699 -4.09742 -1.60623 0
M  V30 4373 H 411.818 -0.725277 -0.130929 0
M  V30 4374 H 414.46 -1.8653 0.361446 0
M  V30 4375 H 412.61 -3.63101 -1.38166 0
M  V30 4376 H 414.282 -4.48362 1.08487 0
M  V30 4377 H 412.525 -4.19947 1.08753 0
M  V30 4378 H 413.196 -5.51862 0.123645 0
M  V30 4379 H 415.672 -4.01727 -1.08418 0
M  V30 4380 H 414.548 -5.16631 -1.85429 0
M  V30 4381 H 414.809 -3.58889 -2.58169 0
M  V30 4382 N 413.868 0.0150385 -1.57593 0
M  V30 4383 C 414.778 1.02791 -2.10882 0
M  V30 4384 C 415.794 1.38702 -1.0506 0
M  V30 4385 O 416.97 1.47739 -1.36877 0
M  V30 4386 C 414.035 2.30568 -2.58919 0
M  V30 4387 C 413.096 2.01108 -3.79281 0
M  V30 4388 C 412.329 3.22794 -4.25018 0
M  V30 4389 O 412.552 4.33959 -3.70183 0
M  V30 4390 O 411.486 3.07672 -5.17322 0
M  V30 4391 H 415.312 0.604973 -2.97613 0
M  V30 4392 H 412.897 0.23292 -1.47573 0
M  V30 4393 H 414.779 3.05662 -2.90084 0
M  V30 4394 H 413.454 2.72129 -1.75293 0
M  V30 4395 H 412.361 1.23537 -3.53114 0
M  V30 4396 H 413.694 1.64394 -4.63935 0
M  V30 4397 N 415.346 1.54954 0.287554 0
M  V30 4398 C 416.278 1.83224 1.37701 0
M  V30 4399 C 417.291 0.715898 1.46215 0
M  V30 4400 O 418.48 0.993565 1.48292 0
M  V30 4401 C 415.58 1.96723 2.75959 0
M  V30 4402 C 414.753 3.27253 2.90215 0
M  V30 4403 C 413.812 3.30998 4.09056 0
M  V30 4404 O 412.838 4.04457 4.00503 0
M  V30 4405 N 414.04 2.57353 5.20336 0
M  V30 4406 H 416.805 2.77254 1.138 0
M  V30 4407 H 414.366 1.54694 0.477652 0
M  V30 4408 H 416.358 1.96615 3.5373 0
M  V30 4409 H 414.928 1.09626 2.92747 0
M  V30 4410 H 414.148 3.40022 1.99447 0
M  V30 4411 H 415.436 4.13365 2.96659 0
M  V30 4412 H 414.834 1.97327 5.30169 0
M  V30 4413 H 413.391 2.62984 5.96391 0
M  V30 4414 N 416.824 -0.551391 1.4764 0
M  V30 4415 C 418.235 -1.13349 1.48354 0
M  V30 4416 C 418.586 -1.94709 0.241432 0
M  V30 4417 O 417.711 -2.06306 -0.653205 0
M  V30 4418 C 418.306 -2.0623 2.68802 0
M  V30 4419 C 416.865 -2.597 2.72457 0
M  V30 4420 C 416.012 -1.36201 2.41546 0
M  V30 4421 H 418.963 -0.337698 1.55065 0
M  V30 4422 H 418.984 -2.90196 2.46103 0
M  V30 4423 H 418.496 -1.46987 3.59188 0
M  V30 4424 H 416.597 -3.22724 1.86225 0
M  V30 4425 H 416.71 -3.00296 3.73308 0
M  V30 4426 H 415.074 -1.67068 1.9225 0
M  V30 4427 H 415.857 -0.787425 3.34147 0
M  V30 4428 N 418.302 -1.35869 -0.798587 0
M  V30 4429 C 419.234 -1.25305 -1.91915 0
M  V30 4430 C 420.247 -0.174548 -1.61862 0
M  V30 4431 O 421.436 -0.428499 -1.73281 0
M  V30 4432 C 418.536 -0.9086 -3.26493 0
M  V30 4433 C 417.709 -2.08711 -3.84394 0
M  V30 4434 C 416.768 -1.71717 -4.97393 0
M  V30 4435 O 415.794 -2.43692 -5.14396 0
M  V30 4436 N 416.996 -0.645473 -5.769 0
M  V30 4437 H 419.761 -2.21849 -2.01502 0
M  V30 4438 H 417.322 -1.29143 -0.976408 0
M  V30 4439 H 419.314 -0.642455 -3.99568 0
M  V30 4440 H 417.884 -0.0325815 -3.12583 0
M  V30 4441 H 417.104 -2.51659 -3.03416 0
M  V30 4442 H 418.392 -2.87468 -4.19809 0
M  V30 4443 H 417.79 -0.047648 -5.6568 0
M  V30 4444 H 416.347 -0.43913 -6.50319 0
M  V30 4445 N 419.78 1.02168 -1.19998 0
M  V30 4446 C 420.712 2.10705 -0.901994 0
M  V30 4447 C 421.725 1.6244 0.108216 0
M  V30 4448 O 422.914 1.78082 -0.12214 0
M  V30 4449 C 420.014 3.37291 -0.329834 0
M  V30 4450 C 419.187 4.14714 -1.39035 0
M  V30 4451 C 418.246 5.19606 -0.830432 0
M  V30 4452 O 417.272 5.48809 -1.50989 0
M  V30 4453 N 418.474 5.79366 0.362696 0
M  V30 4454 H 421.239 2.36856 -1.83628 0
M  V30 4455 H 418.8 1.18518 -1.10296 0
M  V30 4456 H 420.792 4.04657 0.0587633 0
M  V30 4457 H 419.362 3.0843 0.508891 0
M  V30 4458 H 418.582 3.42392 -1.9535 0
M  V30 4459 H 419.87 4.63226 -2.10474 0
M  V30 4460 H 419.268 5.57968 0.932081 0
M  V30 4461 H 417.825 6.48106 0.69299 0
M  V30 4462 N 421.258 1.00505 1.21394 0
M  V30 4463 C 422.504 0.698477 1.91031 0
M  V30 4464 C 422.859 -0.762448 1.76648 0
M  V30 4465 O 422.152 -1.54554 1.13241 0
M  V30 4466 C 422.346 1.0546 3.41486 0
M  V30 4467 C 422.175 2.5486 3.70508 0
M  V30 4468 C 420.945 3.21461 3.8986 0
M  V30 4469 C 423.143 3.53019 3.74008 0
M  V30 4470 N 421.125 4.60211 4.06299 0
M  V30 4471 C 422.496 4.77279 3.95733 0
M  V30 4472 C 424.551 3.47154 3.56915 0
M  V30 4473 C 423.254 5.96388 4.02137 0
M  V30 4474 C 425.28 4.65652 3.64585 0
M  V30 4475 C 424.642 5.88717 3.86771 0
M  V30 4476 H 420.741 0.30707 0.719189 0
M  V30 4477 H 423.325 1.28753 1.46051 0
M  V30 4478 H 421.496 0.494007 3.85246 0
M  V30 4479 H 423.228 0.702765 3.98552 0
M  V30 4480 H 419.983 2.71906 3.87768 0
M  V30 4481 H 420.407 5.32216 4.1842 0
M  V30 4482 H 425.049 2.53015 3.38738 0
M  V30 4483 H 422.767 6.90919 4.19114 0
M  V30 4484 H 426.353 4.62717 3.52681 0
M  V30 4485 H 425.233 6.78877 3.92549 0
M  V30 4486 N 422.737 -1.36956 0.779787 0
M  V30 4487 C 423.962 -2.04283 0.358224 0
M  V30 4488 C 424.387 -1.58422 -1.01411 0
M  V30 4489 O 423.745 -0.748179 -1.65142 0
M  V30 4490 C 423.793 -3.58152 0.419479 0
M  V30 4491 O 422.897 -4.08342 -0.577142 0
M  V30 4492 H 422.238 -0.645967 0.153698 0
M  V30 4493 H 424.768 -1.75108 1.05822 0
M  V30 4494 H 424.778 -4.07041 0.279636 0
M  V30 4495 H 423.453 -3.90886 1.42061 0
M  V30 4496 H 422.03 -3.70751 -0.399755 0
M  V30 4497 N 424.215 -0.530993 -1.48385 0
M  V30 4498 C 425.178 0.220497 -2.28137 0
M  V30 4499 C 426.178 0.866851 -1.35434 0
M  V30 4500 O 427.368 0.726746 -1.58316 0
M  V30 4501 C 424.5 1.31921 -3.1434 0
M  V30 4502 H 425.693 -0.479714 -2.96038 0
M  V30 4503 H 423.246 -0.286968 -1.53643 0
M  V30 4504 H 423.981 2.05264 -2.51072 0
M  V30 4505 H 423.766 0.86085 -3.82533 0
M  V30 4506 H 425.256 1.84776 -3.74497 0
M  V30 4507 N 425.693 1.55336 -0.266172 0
M  V30 4508 C 426.603 2.2583 0.635458 0
M  V30 4509 C 427.619 1.28106 1.17749 0
M  V30 4510 O 428.795 1.61024 1.20968 0
M  V30 4511 C 425.86 2.95879 1.80712 0
M  V30 4512 C 424.921 4.09059 1.30265 0
M  V30 4513 C 424.154 4.75759 2.41846 0
M  V30 4514 O 424.377 4.41622 3.61007 0
M  V30 4515 O 423.311 5.63888 2.1051 0
M  V30 4516 H 427.137 3.03631 0.0646693 0
M  V30 4517 H 424.722 1.49361 -0.0339177 0
M  V30 4518 H 426.604 3.39932 2.49047 0
M  V30 4519 H 425.279 2.21002 2.36516 0
M  V30 4520 H 424.186 3.69482 0.586019 0
M  V30 4521 H 425.519 4.85811 0.790458 0
M  V30 4522 N 427.171 -0.0066808 1.57599 0
M  V30 4523 C 428.396 -0.707738 1.94951 0
M  V30 4524 C 428.821 -1.66882 0.867868 0
M  V30 4525 O 428.179 -1.80457 -0.17458 0
M  V30 4526 C 428.227 -1.42162 3.31394 0
M  V30 4527 O 427.331 -2.53578 3.25226 0
M  V30 4528 H 426.672 -0.188752 0.636607 0
M  V30 4529 H 429.202 0.0445193 2.04552 0
M  V30 4530 H 429.212 -1.78655 3.66806 0
M  V30 4531 H 427.887 -0.716903 4.09675 0
M  V30 4532 H 426.464 -2.19463 3.01481 0
M  V30 4533 N 428.649 -1.55105 -0.279332 0
M  V30 4534 C 430.06 -1.66186 -0.850832 0
M  V30 4535 C 430.411 -0.584707 -1.87285 0
M  V30 4536 O 429.536 0.274919 -2.14647 0
M  V30 4537 C 430.131 -3.01264 -1.55001 0
M  V30 4538 C 428.69 -3.14394 -2.06963 0
M  V30 4539 C 427.837 -2.61959 -0.909536 0
M  V30 4540 H 430.788 -1.58602 -0.0558235 0
M  V30 4541 H 430.809 -2.93899 -2.41669 0
M  V30 4542 H 430.321 -3.7964 -0.805931 0
M  V30 4543 H 428.422 -2.4078 -2.84352 0
M  V30 4544 H 428.535 -4.20867 -2.28928 0
M  V30 4545 H 426.899 -2.18957 -1.30116 0
M  V30 4546 H 427.682 -3.42833 -0.179062 0
M  V30 4547 N 430.127 0.543554 -1.4793 0
M  V30 4548 C 431.357 1.32324 -1.58663 0
M  V30 4549 C 431.765 1.8766 -0.240896 0
M  V30 4550 O 431.108 1.66411 0.778011 0
M  V30 4551 C 431.17 2.52094 -2.56299 0
M  V30 4552 C 430.834 2.17944 -4.01683 0
M  V30 4553 C 431.831 1.74422 -4.89768 0
M  V30 4554 C 429.516 2.28884 -4.47121 0
M  V30 4555 C 431.51 1.42287 -6.21316 0
M  V30 4556 C 429.197 1.96361 -5.78693 0
M  V30 4557 C 430.195 1.53132 -6.65612 0
M  V30 4558 O 429.883 1.21029 -7.94737 0
M  V30 4559 H 429.615 0.409174 -0.538101 0
M  V30 4560 H 432.169 0.663887 -1.94375 0
M  V30 4561 H 430.399 3.20965 -2.15681 0
M  V30 4562 H 432.088 3.14165 -2.57012 0
M  V30 4563 H 432.854 1.65452 -4.55907 0
M  V30 4564 H 428.733 2.61488 -3.79664 0
M  V30 4565 H 432.277 1.08472 -6.89115 0
M  V30 4566 H 428.174 2.04967 -6.12094 0
M  V30 4567 H 428.942 1.34543 -8.07366 0
M  V30 4568 N 431.605 1.3629 0.791371 0
M  V30 4569 C 432.535 1.33137 1.91825 0
M  V30 4570 C 433.516 0.203168 1.68882 0
M  V30 4571 O 434.701 0.400509 1.90025 0
M  V30 4572 C 431.831 1.11793 3.28816 0
M  V30 4573 C 430.785 2.21417 3.66277 0
M  V30 4574 C 430.111 1.85218 5.01596 0
M  V30 4575 C 431.411 3.63489 3.75064 0
M  V30 4576 H 433.105 2.2743 1.9472 0
M  V30 4577 H 430.651 1.09479 0.935437 0
M  V30 4578 H 432.604 1.08222 4.07266 0
M  V30 4579 H 431.328 0.139501 3.26302 0
M  V30 4580 H 429.987 2.2411 2.90121 0
M  V30 4581 H 429.635 0.859544 4.95602 0
M  V30 4582 H 429.335 2.58611 5.27631 0
M  V30 4583 H 430.859 1.832 5.82469 0
M  V30 4584 H 432.273 3.63034 4.43711 0
M  V30 4585 H 430.67 4.35771 4.12582 0
M  V30 4586 H 431.74 3.98536 2.76219 0
M  V30 4587 N 433.083 -1.0153 1.20538 0
M  V30 4588 C 434.313 -1.78487 1.04048 0
M  V30 4589 C 434.721 -1.84631 -0.413292 0
M  V30 4590 O 434.064 -1.29919 -1.29872 0
M  V30 4591 C 434.126 -3.24367 1.55003 0
M  V30 4592 C 433.79 -3.41827 3.0332 0
M  V30 4593 C 434.787 -3.30941 4.00966 0
M  V30 4594 C 432.472 -3.67602 3.42307 0
M  V30 4595 C 434.466 -3.45577 5.35589 0
M  V30 4596 C 432.153 -3.81881 4.77085 0
M  V30 4597 C 433.151 -3.70874 5.73534 0
M  V30 4598 O 432.839 -3.84714 7.05868 0
M  V30 4599 H 432.571 -0.568108 0.366373 0
M  V30 4600 H 435.125 -1.28677 1.60098 0
M  V30 4601 H 433.355 -3.75266 0.933397 0
M  V30 4602 H 435.044 -3.82963 1.34514 0
M  V30 4603 H 435.81 -3.10964 3.72191 0
M  V30 4604 H 431.689 -3.75256 2.67776 0
M  V30 4605 H 435.233 -3.36902 6.10854 0
M  V30 4606 H 431.13 -4.01359 5.0555 0
M  V30 4607 H 431.898 -4.01724 7.13134 0
M  V30 4608 N 434.561 -1.01147 -1.20859 0
M  V30 4609 C 435.511 -0.548247 -2.2131 0
M  V30 4610 C 436.495 0.393646 -1.5601 0
M  V30 4611 O 437.687 0.217445 -1.75659 0
M  V30 4612 C 434.816 0.117252 -3.431 0
M  V30 4613 C 433.902 -0.846043 -4.15575 0
M  V30 4614 N 434.293 -2.00149 -4.64515 0
M  V30 4615 C 432.591 -0.665783 -4.41003 0
M  V30 4616 C 433.292 -2.60764 -5.19978 0
M  V30 4617 N 432.268 -1.88868 -5.09735 0
M  V30 4618 H 436.07 -1.42921 -2.56809 0
M  V30 4619 H 433.584 -0.876142 -1.36739 0
M  V30 4620 H 435.581 0.46662 -4.1428 0
M  V30 4621 H 434.241 0.994115 -3.09107 0
M  V30 4622 H 435.252 -2.38162 -4.5989 0
M  V30 4623 H 431.929 0.163456 -4.1718 0
M  V30 4624 H 433.319 -3.58519 -5.68255 0
M  V30 4625 N 436.039 1.36541 -0.78704 0
M  V30 4626 C 436.969 2.32659 -0.197992 0
M  V30 4627 C 437.95 1.56533 0.665697 0
M  V30 4628 O 439.135 1.84698 0.60001 0
M  V30 4629 C 436.265 3.40778 0.669901 0
M  V30 4630 C 435.219 4.27897 -0.0937039 0
M  V30 4631 C 434.545 5.27163 0.894629 0
M  V30 4632 C 435.845 5.06334 -1.28154 0
M  V30 4633 H 437.539 2.82171 -1.00099 0
M  V30 4634 H 435.085 1.35665 -0.482793 0
M  V30 4635 H 437.038 4.07008 1.09191 0
M  V30 4636 H 435.762 2.89827 1.50558 0
M  V30 4637 H 434.421 3.6322 -0.49666 0
M  V30 4638 H 434.069 4.72486 1.72527 0
M  V30 4639 H 433.769 5.86317 0.388149 0
M  V30 4640 H 435.293 5.96266 1.31525 0
M  V30 4641 H 436.707 5.65617 -0.93541 0
M  V30 4642 H 435.104 5.74888 -1.72115 0
M  V30 4643 H 436.174 4.38114 -2.07807 0
M  V30 4644 N 437.518 0.538854 1.48102 0
M  V30 4645 C 438.764 0.00801365 2.02798 0
M  V30 4646 C 439.097 -1.3309 1.41424 0
M  V30 4647 O 438.372 -1.86169 0.563158 0
M  V30 4648 C 438.655 -0.104589 3.59948 0
M  V30 4649 C 438.508 1.26012 4.31788 0
M  V30 4650 C 439.827 -0.827055 4.32259 0
M  V30 4651 H 436.946 0.00438624 0.736987 0
M  V30 4652 H 439.588 0.6976 1.7673 0
M  V30 4653 H 437.738 -0.691893 3.82289 0
M  V30 4654 H 439.41 1.88922 4.2084 0
M  V30 4655 H 437.653 1.83968 3.92859 0
M  V30 4656 H 438.324 1.13424 5.40221 0
M  V30 4657 H 440.8 -0.328578 4.14801 0
M  V30 4658 H 439.676 -0.87476 5.41885 0
M  V30 4659 H 439.937 -1.87927 4.0017 0
M  V30 4660 N 438.996 -1.55193 0.274407 0
M  V30 4661 C 439.929 -2.18606 -0.654712 0
M  V30 4662 C 440.907 -1.14677 -1.15273 0
M  V30 4663 O 442.091 -1.43198 -1.22583 0
M  V30 4664 C 439.218 -2.80875 -1.89281 0
M  V30 4665 C 438.264 -3.981 -1.53032 0
M  V30 4666 S 439.097 -5.32025 -0.609107 0
M  V30 4667 C 440.253 -5.97761 -1.85559 0
M  V30 4668 H 440.486 -2.97074 -0.115894 0
M  V30 4669 H 438.019 -1.54288 0.05867 0
M  V30 4670 H 439.977 -3.17381 -2.60345 0
M  V30 4671 H 438.638 -2.02302 -2.40277 0
M  V30 4672 H 437.831 -4.40356 -2.45158 0
M  V30 4673 H 437.433 -3.63013 -0.899874 0
M  V30 4674 H 439.725 -6.16951 -2.7996 0
M  V30 4675 H 440.668 -6.92545 -1.47605 0
M  V30 4676 H 441.076 -5.27113 -2.02021 0
M  V30 4677 N 440.474 -0.00167713 -1.576 0
M  V30 4678 C 441.702 0.693759 -1.94922 0
M  V30 4679 C 442.117 1.67215 -0.876626 0
M  V30 4680 O 441.474 1.81929 0.144279 0
M  V30 4681 C 441.525 1.42416 -3.32265 0
M  V30 4682 O 441.246 0.485014 -4.35407 0
M  V30 4683 C 442.747 2.21395 -3.84056 0
M  V30 4684 H 439.967 0.193118 -0.642609 0
M  V30 4685 H 442.511 -0.0532952 -2.04431 0
M  V30 4686 H 440.666 2.12284 -3.24059 0
M  V30 4687 H 441.08 1.00053 -5.14868 0
M  V30 4688 H 442.554 2.67996 -4.82578 0
M  V30 4689 H 443.031 3.04142 -3.16851 0
M  V30 4690 H 443.637 1.56542 -3.95443 0
M  V30 4691 N 441.952 1.55251 0.271103 0
M  V30 4692 C 442.882 1.9127 1.33933 0
M  V30 4693 C 443.863 0.77478 1.5143 0
M  V30 4694 O 445.048 1.03307 1.64442 0
M  V30 4695 C 442.178 2.18627 2.69851 0
M  V30 4696 C 441.132 3.34442 2.67081 0
M  V30 4697 C 440.458 3.47284 4.06569 0
M  V30 4698 C 441.758 4.70784 2.26185 0
M  V30 4699 H 443.452 2.80744 1.04035 0
M  V30 4700 H 440.998 1.35077 0.499017 0
M  V30 4701 H 442.951 2.42413 3.44694 0
M  V30 4702 H 441.675 1.25955 3.01335 0
M  V30 4703 H 440.334 3.10627 1.94695 0
M  V30 4704 H 439.982 2.52074 4.35279 0
M  V30 4705 H 439.682 4.25152 4.0561 0
M  V30 4706 H 441.206 3.73363 4.83148 0
M  V30 4707 H 442.62 4.94102 2.90751 0
M  V30 4708 H 441.017 5.51582 2.36384 0
M  V30 4709 H 442.087 4.69478 1.21319 0
M  V30 4710 N 443.43 -0.535701 1.48216 0
M  V30 4711 C 444.377 -1.64083 1.62312 0
M  V30 4712 C 445.347 -1.59448 0.465365 0
M  V30 4713 O 446.532 -1.77959 0.688135 0
M  V30 4714 C 443.672 -3.0236 1.66349 0
M  V30 4715 C 442.785 -3.17273 2.93193 0
M  V30 4716 C 441.92 -4.46075 2.88427 0
M  V30 4717 C 440.959 -4.54496 4.1 0
M  V30 4718 N 440.096 -5.7468 4.03345 0
M  V30 4719 H 444.936 -1.51374 2.5669 0
M  V30 4720 H 442.473 -0.737059 1.27302 0
M  V30 4721 H 444.431 -3.82461 1.66672 0
M  V30 4722 H 443.061 -3.13854 0.754672 0
M  V30 4723 H 442.113 -2.30462 3.02641 0
M  V30 4724 H 443.425 -3.19357 3.83162 0
M  V30 4725 H 442.579 -5.3446 2.87119 0
M  V30 4726 H 441.318 -4.46504 1.96177 0
M  V30 4727 H 440.323 -3.64519 4.11589 0
M  V30 4728 H 441.548 -4.5581 5.03402 0
M  V30 4729 H 439.494 -5.76017 3.13912 0
M  V30 4730 H 439.411 -5.78234 4.87013 0
M  V30 4731 H 440.679 -6.65367 4.06087 0
M  V30 4732 N 444.908 -1.36708 -0.784132 0
M  V30 4733 C 446.185 -1.21776 -1.53069 0
M  V30 4734 C 446.565 0.193876 -2.10208 0
M  V30 4735 O 445.913 1.20012 -1.94446 0
M  V30 4736 C 446.123 -2.30395 -2.62143 0
M  V30 4737 C 447.471 -2.67325 -3.29882 0
M  V30 4738 O 448.495 -2.29478 -2.7243 0
M  V30 4739 O 447.354 -3.32485 -4.33724 0
M  V30 4740 H 444.448 -0.474459 -0.677361 0
M  V30 4741 H 446.994 -1.48454 -0.82216 0
M  V30 4742 H 445.766 -3.2498 -2.17953 0
M  V30 4743 H 445.389 -2.05112 -3.40609 0
M  V30 4744 N 446.386 1.0089 -1.21074 0
M  V30 4745 C 447.349 2.0775 -0.968129 0
M  V30 4746 C 448.349 1.6069 0.0593445 0
M  V30 4747 O 449.539 1.73293 -0.177525 0
M  V30 4748 C 446.671 3.37794 -0.459108 0
M  V30 4749 H 447.864 2.30707 -1.9161 0
M  V30 4750 H 445.417 1.17807 -1.02719 0
M  V30 4751 H 446.152 3.20516 0.49397 0
M  V30 4752 H 445.937 3.7328 -1.20019 0
M  V30 4753 H 447.427 4.16454 -0.309099 0
M  V30 4754 N 447.864 1.01787 1.20321 0
M  V30 4755 C 448.812 0.58254 2.25187 0
M  V30 4756 C 449.806 -0.379359 1.65098 0
M  V30 4757 O 451.012 -0.249142 1.78267 0
M  V30 4758 H 447.387 0.170078 0.732514 0
M  V30 4759 H 449.358 1.47788 2.59232 0
M  V30 4760 C 448.107 -0.0620885 3.47645 0
M  V30 4761 H 447.43 0.669069 3.94162 0
M  V30 4762 H 448.87 -0.329784 4.22716 0
M  V30 4763 C 447.329 -1.3053 3.10586 0
M  V30 4764 O 447.859 -2.39848 3.22236 0
M  V30 4765 N 446.065 -1.18988 2.65123 0
M  V30 4766 H 445.612 -0.300341 2.55843 0
M  V30 4767 H 445.57 -2.02267 2.40698 0
M  V30 4768 N 449.342 -1.36122 0.79427 0
M  V30 4769 C 450.59 -1.98718 0.368177 0
M  V30 4770 C 450.911 -1.63345 -1.06506 0
M  V30 4771 O 450.181 -0.909825 -1.73491 0
M  V30 4772 H 448.761 -0.735038 0.133146 0
M  V30 4773 H 451.423 -1.66239 1.01739 0
M  V30 4774 H 450.519 -3.08633 0.463923 0
M  V30 4775 N 450.82 -0.546701 -1.47814 0
M  V30 4776 C 451.768 0.220048 -2.31557 0
M  V30 4777 C 452.762 0.919472 -1.42275 0
M  V30 4778 O 453.968 0.841953 -1.59095 0
M  V30 4779 H 450.343 0.0898334 -0.746615 0
M  V30 4780 H 452.314 -0.505589 -2.94086 0
M  V30 4781 C 451.063 1.24353 -3.24702 0
M  V30 4782 H 450.386 0.714758 -3.93359 0
M  V30 4783 H 451.826 1.75112 -3.8615 0
M  V30 4784 C 450.285 2.28593 -2.47481 0
M  V30 4785 O 450.815 3.35334 -2.21165 0
M  V30 4786 N 449.021 2.02244 -2.08676 0
M  V30 4787 H 448.568 1.15455 -2.30278 0
M  V30 4788 H 448.526 2.72207 -1.57323 0
M  V30 4789 N 452.299 1.55045 -0.282633 0
M  V30 4790 C 453.545 2.00056 0.332481 0
M  V30 4791 C 453.878 1.1708 1.54939 0
M  V30 4792 O 453.153 0.2427 1.9298 0
M  V30 4793 C 453.436 3.53086 0.70725 0
M  V30 4794 C 453.289 4.46813 -0.517521 0
M  V30 4795 C 454.608 4.12245 1.54084 0
M  V30 4796 H 451.727 0.727268 0.119373 0
M  V30 4797 H 454.369 1.85932 -0.391076 0
M  V30 4798 H 452.519 3.65253 1.32372 0
M  V30 4799 H 454.191 4.46579 -1.15607 0
M  V30 4800 H 452.434 4.18163 -1.1542 0
M  V30 4801 H 453.105 5.51595 -0.211426 0
M  V30 4802 H 455.581 4.03401 1.02013 0
M  V30 4803 H 454.457 5.19515 1.77186 0
M  V30 4804 H 454.718 3.62951 2.52427 0
M  V30 4805 N 453.777 0.010035 1.57597 0
M  V30 4806 C 454.707 -0.976857 2.12084 0
M  V30 4807 C 455.688 -1.35191 1.03235 0
M  V30 4808 O 456.873 -1.43389 1.3097 0
M  V30 4809 C 454.003 -2.26548 2.63236 0
M  V30 4810 C 452.957 -2.03175 3.76701 0
M  V30 4811 C 452.283 -3.38138 4.14206 0
M  V30 4812 C 453.583 -1.38625 5.03568 0
M  V30 4813 H 455.277 -0.523145 2.94794 0
M  V30 4814 H 452.823 -0.250195 1.4181 0
M  V30 4815 H 454.776 -2.95952 2.99984 0
M  V30 4816 H 453.5 -2.74051 1.77661 0
M  V30 4817 H 452.159 -1.36195 3.40362 0
M  V30 4818 H 451.807 -3.83363 3.25641 0
M  V30 4819 H 451.507 -3.23312 4.90656 0
M  V30 4820 H 453.031 -4.08841 4.53521 0
M  V30 4821 H 454.445 -1.98 5.38023 0
M  V30 4822 H 452.842 -1.34256 5.84889 0
M  V30 4823 H 453.912 -0.356722 4.83586 0
M  V30 4824 N 455.255 -1.55392 -0.262866 0
M  V30 4825 C 456.165 -1.92077 -1.34698 0
M  V30 4826 C 457.181 -0.819227 -1.53508 0
M  V30 4827 O 458.357 -1.11921 -1.67439 0
M  V30 4828 C 455.422 -2.19407 -2.68443 0
M  V30 4829 C 454.483 -3.42905 -2.58292 0
M  V30 4830 C 453.716 -3.68921 -3.85659 0
M  V30 4831 O 453.939 -2.97275 -4.8681 0
M  V30 4832 O 452.873 -4.62455 -3.85252 0
M  V30 4833 H 456.699 -2.84384 -1.06581 0
M  V30 4834 H 454.284 -1.42069 -0.462264 0
M  V30 4835 H 456.166 -2.38365 -3.47506 0
M  V30 4836 H 454.841 -1.30282 -2.96325 0
M  V30 4837 H 453.748 -3.29272 -1.7757 0
M  V30 4838 H 455.081 -4.32282 -2.35358 0
M  V30 4839 N 456.733 0.527833 -1.48498 0
M  V30 4840 C 457.979 1.28545 -1.56857 0
M  V30 4841 C 458.312 1.92678 -0.242651 0
M  V30 4842 O 457.587 1.79394 0.751545 0
M  V30 4843 C 457.87 2.37314 -2.70839 0
M  V30 4844 C 457.723 1.77858 -4.13142 0
M  V30 4845 C 459.042 3.39068 -2.80573 0
M  V30 4846 H 456.161 0.466006 -0.570971 0
M  V30 4847 H 458.803 0.587784 -1.8068 0
M  V30 4848 H 456.953 2.96821 -2.50658 0
M  V30 4849 H 458.625 1.22385 -4.44769 0
M  V30 4850 H 456.868 1.08383 -4.20042 0
M  V30 4851 H 457.539 2.56624 -4.88721 0
M  V30 4852 H 460.015 2.89518 -2.98862 0
M  V30 4853 H 458.891 4.12566 -3.6205 0
M  V30 4854 H 459.152 3.9975 -1.88818 0
M  V30 4855 N 458.211 1.37122 0.776871 0
M  V30 4856 C 459.457 1.32243 1.53752 0
M  V30 4857 C 459.79 -0.0944745 1.9397 0
M  V30 4858 O 459.065 -1.05068 1.6368 0
M  V30 4859 C 459.348 2.25681 2.80607 0
M  V30 4860 C 459.201 3.76127 2.46676 0
M  V30 4861 C 460.52 2.17657 3.82509 0
M  V30 4862 H 457.639 0.481704 0.557791 0
M  V30 4863 H 460.281 1.6778 0.891612 0
M  V30 4864 H 458.431 1.95505 3.35723 0
M  V30 4865 H 460.103 4.16877 1.97513 0
M  V30 4866 H 458.346 3.94946 1.79443 0
M  V30 4867 H 459.017 4.36933 3.37333 0
M  V30 4868 H 461.493 2.44245 3.36873 0
M  V30 4869 H 460.369 2.85185 4.69 0
M  V30 4870 H 460.63 1.16785 4.26396 0
M  V30 4871 N 459.689 -1.00246 1.21608 0
M  V30 4872 C 461.1 -1.55511 1.03312 0
M  V30 4873 C 461.451 -1.91946 -0.406332 0
M  V30 4874 O 460.576 -1.73753 -1.28992 0
M  V30 4875 C 461.171 -2.82576 1.86913 0
M  V30 4876 C 459.73 -3.34318 1.72941 0
M  V30 4877 C 458.877 -2.07487 1.83968 0
M  V30 4878 H 461.828 -0.824638 1.35593 0
M  V30 4879 H 461.849 -3.54559 1.38087 0
M  V30 4880 H 461.361 -2.56026 2.91672 0
M  V30 4881 H 459.462 -3.65797 0.70877 0
M  V30 4882 H 459.575 -4.05566 2.55055 0
M  V30 4883 H 457.939 -2.20603 1.27304 0
M  V30 4884 H 458.722 -1.83346 2.9024 0
M  V30 4885 N 461.167 -1.02423 -1.1978 0
M  V30 4886 C 462.099 -0.559152 -2.22275 0
M  V30 4887 C 463.112 0.36251 -1.58713 0
M  V30 4888 O 464.301 0.159641 -1.77785 0
M  V30 4889 C 461.401 0.205094 -3.38279 0
M  V30 4890 C 460.574 -0.720361 -4.31427 0
M  V30 4891 C 459.633 -0.00234368 -5.262 0
M  V30 4892 O 458.659 -0.627378 -5.65732 0
M  V30 4893 N 459.861 1.26996 -5.66438 0
M  V30 4894 H 462.626 -1.44064 -2.62804 0
M  V30 4895 H 460.187 -0.902692 -1.34399 0
M  V30 4896 H 462.179 0.694868 -3.9869 0
M  V30 4897 H 460.749 0.987947 -2.96578 0
M  V30 4898 H 459.969 -1.39031 -3.68869 0
M  V30 4899 H 461.257 -1.3495 -4.90577 0
M  V30 4900 H 460.655 1.79858 -5.36347 0
M  V30 4901 H 459.212 1.70432 -6.29123 0
M  V30 4902 N 462.645 1.35699 -0.801477 0
M  V30 4903 C 464.061 1.52065 -0.484596 0
M  V30 4904 C 464.261 1.75215 0.995084 0
M  V30 4905 O 463.317 1.79061 1.78026 0
M  V30 4906 C 464.63 2.69908 -1.32552 0
M  V30 4907 C 466.178 2.83784 -1.32044 0
M  V30 4908 C 466.653 4.04646 -2.14536 0
M  V30 4909 N 468.144 4.11814 -2.12046 0
M  V30 4910 C 468.879 5.04437 -2.72636 0
M  V30 4911 N 468.375 6.02426 -3.42133 0
M  V30 4912 N 470.168 4.97144 -2.62305 0
M  V30 4913 H 462.319 1.18928 -1.75983 0
M  V30 4914 H 464.582 0.581455 -0.748741 0
M  V30 4915 H 464.288 2.59363 -2.37537 0
M  V30 4916 H 464.162 3.64376 -0.975181 0
M  V30 4917 H 466.549 2.93783 -0.27846 0
M  V30 4918 H 466.63 1.90188 -1.71062 0
M  V30 4919 H 466.274 3.95407 -3.18772 0
M  V30 4920 H 466.204 4.97413 -1.72882 0
M  V30 4921 H 468.695 3.41664 -1.61476 0
M  V30 4922 H 469.008 6.69688 -3.85666 0
M  V30 4923 H 467.353 6.02615 -3.46237 0
M  V30 4924 H 470.544 4.19546 -2.07603 0
M  V30 4925 H 470.717 5.69138 -3.09815 0
M  V30 4926 N 464.123 0.554532 1.47522 0
M  V30 4927 C 465.369 0.0295227 2.02779 0
M  V30 4928 C 465.702 -1.31582 1.42828 0
M  V30 4929 O 464.977 -1.85561 0.582872 0
M  V30 4930 C 465.26 -0.0664057 3.60039 0
M  V30 4931 C 465.113 1.30585 4.30427 0
M  V30 4932 C 466.432 -0.781162 4.33112 0
M  V30 4933 H 463.551 0.0122027 0.736899 0
M  V30 4934 H 466.193 0.716305 1.7598 0
M  V30 4935 H 464.343 -0.651307 3.83002 0
M  V30 4936 H 466.015 1.93374 4.18813 0
M  V30 4937 H 464.258 1.88125 3.90886 0
M  V30 4938 H 464.929 1.19147 5.38988 0
M  V30 4939 H 467.405 -0.284565 4.15126 0
M  V30 4940 H 466.281 -0.817237 5.42782 0
M  V30 4941 H 466.542 -1.83672 4.0214 0
M  V30 4942 N 465.601 -1.54893 0.290851 0
M  V30 4943 C 466.849 -1.99538 -0.320756 0
M  V30 4944 C 467.17 -1.18075 -1.55188 0
M  V30 4945 O 466.44 -0.274162 -1.93972 0
M  V30 4946 H 465.02 -0.737052 -0.121507 0
M  V30 4947 H 467.682 -1.90755 0.399832 0
M  V30 4948 H 466.778 -3.06282 -0.599802 0
M  V30 4949 N 467.08 -0.0183926 -1.57589 0
M  V30 4950 C 468.327 0.662562 -1.91354 0
M  V30 4951 C 468.655 1.72747 -0.893788 0
M  V30 4952 O 467.91 1.9545 0.0988509 0
M  V30 4953 C 468.209 1.32676 -3.31861 0
M  V30 4954 C 467.875 0.393267 -4.49182 0
M  V30 4955 C 466.537 0.136302 -4.81007 0
M  V30 4956 C 468.889 -0.248366 -5.20608 0
M  V30 4957 C 466.217 -0.770282 -5.81621 0
M  V30 4958 C 468.569 -1.14294 -6.22189 0
M  V30 4959 C 467.233 -1.4089 -6.52462 0
M  V30 4960 H 466.503 0.242448 -0.700214 0
M  V30 4961 H 469.15 -0.0778629 -1.91342 0
M  V30 4962 H 467.455 2.14168 -3.28084 0
M  V30 4963 H 469.152 1.86001 -3.55253 0
M  V30 4964 H 465.742 0.603723 -4.24327 0
M  V30 4965 H 469.926 -0.062883 -4.9626 0
M  V30 4966 H 465.182 -0.984154 -6.03427 0
M  V30 4967 H 469.356 -1.64637 -6.76659 0
M  V30 4968 H 466.983 -2.11306 -7.30242 0
M  V30 4969 N 468.558 1.5553 0.254621 0
M  V30 4970 C 469.974 1.4778 0.602753 0
M  V30 4971 C 470.174 0.707047 1.88688 0
M  V30 4972 O 469.23 0.233288 2.5142 0
M  V30 4973 C 470.543 2.92133 0.712648 0
M  V30 4974 C 472.091 3.02458 0.805488 0
M  V30 4975 C 472.566 4.48102 0.947009 0
M  V30 4976 N 474.057 4.52008 1.01207 0
M  V30 4977 C 474.792 5.61939 1.1407 0
M  V30 4978 N 474.288 6.81697 1.23536 0
M  V30 4979 N 476.081 5.49719 1.17325 0
M  V30 4980 H 468.232 2.04085 -0.588463 0
M  V30 4981 H 470.495 0.926229 -0.202001 0
M  V30 4982 H 470.201 3.51332 -0.160766 0
M  V30 4983 H 470.075 3.42187 1.58707 0
M  V30 4984 H 472.462 2.43344 1.66936 0
M  V30 4985 H 472.543 2.55627 -0.0939266 0
M  V30 4986 H 472.187 5.07824 0.087725 0
M  V30 4987 H 472.117 4.92607 1.86135 0
M  V30 4988 H 474.608 3.65749 0.950577 0
M  V30 4989 H 474.921 7.61228 1.33236 0
M  V30 4990 H 473.266 6.84473 1.20508 0
M  V30 4991 H 476.457 4.55095 1.09573 0
M  V30 4992 H 476.63 6.35432 1.27005 0
M  V30 4993 N 470.036 -0.519951 1.48776 0
M  V30 4994 C 471.313 -1.28123 1.47797 0
M  V30 4995 C 471.693 -2.10196 0.195157 0
M  V30 4996 O 471.041 -2.13167 -0.822925 0
M  V30 4997 C 471.251 -2.15413 2.74587 0
M  V30 4998 C 472.599 -2.75225 3.23321 0
M  V30 4999 O 473.623 -2.25694 2.75574 0
M  V30 5000 O 472.482 -3.65346 4.06429 0
M  V30 5001 H 469.576 -0.578793 0.590701 0
M  V30 5002 H 472.122 -0.535779 1.6102 0
M  V30 5003 H 470.894 -1.54617 3.59457 0
M  V30 5004 H 470.517 -2.97186 2.64132 0
M  V30 5005 N 471.514 -1.37532 -0.769588 0
M  V30 5006 C 472.763 -1.32183 -1.5235 0
M  V30 5007 C 473.076 0.0906555 -1.9539 0
M  V30 5008 O 474.282 0.266628 -2.70188 0
M  V30 5009 C 472.738 -2.32029 -2.75119 0
M  V30 5010 C 472.346 -3.78816 -2.3917 0
M  V30 5011 C 474.09 -2.35694 -3.53056 0
M  V30 5012 C 471.997 -4.70388 -3.58453 0
M  V30 5013 H 470.927 -0.491275 -0.571984 0
M  V30 5014 H 473.578 -1.63004 -0.842739 0
M  V30 5015 H 471.96 -1.94229 -3.45096 0
M  V30 5016 H 473.134 -4.25466 -1.76962 0
M  V30 5017 H 471.449 -3.78117 -1.74402 0
M  V30 5018 H 474.046 -3.01312 -4.41718 0
M  V30 5019 H 474.389 -1.37117 -3.93071 0
M  V30 5020 H 474.922 -2.72212 -2.90078 0
M  V30 5021 H 471.661 -5.70102 -3.23518 0
M  V30 5022 H 471.181 -4.28442 -4.19758 0
M  V30 5023 H 472.86 -4.87628 -4.25239 0
M  V30 5024 N 472.992 0.995999 -1.22138 0
M  V30 5025 C 473.939 2.08551 -0.988687 0
M  V30 5026 C 474.909 1.65864 0.0885021 0
M  V30 5027 O 476.094 1.90704 -0.0604589 0
M  V30 5028 C 473.234 3.40374 -0.569191 0
M  V30 5029 C 472.347 3.96421 -1.71681 0
M  V30 5030 C 471.482 5.1639 -1.2456 0
M  V30 5031 C 470.521 5.64567 -2.36497 0
M  V30 5032 N 469.658 6.75777 -1.90445 0
M  V30 5033 H 474.498 2.2779 -1.92135 0
M  V30 5034 H 472.035 1.1168 -0.957388 0
M  V30 5035 H 473.993 4.16068 -0.307166 0
M  V30 5036 H 472.623 3.21145 0.326462 0
M  V30 5037 H 471.675 3.17628 -2.09324 0
M  V30 5038 H 472.987 4.2816 -2.55891 0
M  V30 5039 H 472.141 5.99362 -0.940774 0
M  V30 5040 H 470.88 4.86266 -0.373662 0
M  V30 5041 H 469.885 4.80185 -2.67772 0
M  V30 5042 H 471.11 5.96716 -3.24202 0
M  V30 5043 H 469.056 6.47443 -1.05609 0
M  V30 5044 H 468.973 7.06818 -2.68223 0
M  V30 5045 H 470.241 7.62262 -1.63022 0
M  V30 5046 N 474.47 1.03057 1.19235 0
M  V30 5047 C 475.716 0.729098 1.89241 0
M  V30 5048 C 476.049 -0.740573 1.79525 0
M  V30 5049 O 475.324 -1.53946 1.18874 0
M  V30 5050 C 475.607 1.18304 3.40112 0
M  V30 5051 C 475.46 2.71406 3.5869 0
M  V30 5052 C 476.779 0.765161 4.33397 0
M  V30 5053 H 473.898 0.266338 0.687192 0
M  V30 5054 H 476.54 1.28079 1.40341 0
M  V30 5055 H 474.69 0.713672 3.81889 0
M  V30 5056 H 476.362 3.26303 3.26074 0
M  V30 5057 H 474.605 3.11717 3.01687 0
M  V30 5058 H 475.276 2.98225 4.64506 0
M  V30 5059 H 477.752 1.16889 3.99345 0
M  V30 5060 H 476.628 1.11065 5.37546 0
M  V30 5061 H 476.889 -0.332372 4.40849 0
M  V30 5062 N 475.948 -1.35272 0.808662 0
M  V30 5063 C 477.364 -1.51806 0.492653 0
M  V30 5064 C 477.564 -1.7574 -0.985778 0
M  V30 5065 O 476.62 -1.80003 -1.77074 0
M  V30 5066 C 477.933 -2.69202 1.33981 0
M  V30 5067 C 479.481 -2.8308 1.33547 0
M  V30 5068 C 479.956 -4.03502 2.16679 0
M  V30 5069 N 481.447 -4.10684 2.14227 0
M  V30 5070 C 482.182 -5.02984 2.75308 0
M  V30 5071 N 481.678 -6.00603 3.45323 0
M  V30 5072 N 483.471 -4.95746 2.64938 0
M  V30 5073 H 475.622 -1.17993 1.76611 0
M  V30 5074 H 477.885 -0.577476 0.751814 0
M  V30 5075 H 477.591 -2.581 2.38909 0
M  V30 5076 H 477.465 -3.63854 0.994491 0
M  V30 5077 H 479.852 -2.93631 0.294036 0
M  V30 5078 H 479.933 -1.89278 1.72068 0
M  V30 5079 H 479.577 -3.93711 3.20864 0
M  V30 5080 H 479.507 -4.96489 1.75517 0
M  V30 5081 H 481.998 -3.40802 1.63285 0
M  V30 5082 H 482.311 -6.67633 3.89212 0
M  V30 5083 H 480.656 -6.0077 3.49428 0
M  V30 5084 H 483.847 -4.18439 2.09825 0
M  V30 5085 H 484.02 -5.67487 3.12829 0
M  V30 5086 N 477.426 -0.562348 -1.47226 0
M  V30 5087 C 478.703 0.0256985 -1.95583 0
M  V30 5088 C 479.083 1.48032 -1.50498 0
M  V30 5089 O 478.431 2.15973 -0.746181 0
M  V30 5090 C 478.641 -0.125129 -3.48776 0
M  V30 5091 C 479.989 0.0175728 -4.24596 0
M  V30 5092 O 481.013 -0.0529341 -3.56161 0
M  V30 5093 O 479.872 0.170145 -5.46235 0
M  V30 5094 H 476.966 0.0612565 -0.824728 0
M  V30 5095 H 479.512 -0.629233 -1.57603 0
M  V30 5096 H 478.284 -1.13715 -3.74412 0
M  V30 5097 H 477.907 0.567178 -3.93534 0
M  V30 5098 N 478.904 1.54736 -0.299062 0
M  V30 5099 C 480.152 1.99706 0.31017 0
M  V30 5100 C 480.473 1.18896 1.54559 0
M  V30 5101 O 479.743 0.284445 1.93824 0
M  V30 5102 H 478.323 0.737686 0.117596 0
M  V30 5103 H 480.985 1.9054 -0.409943 0
M  V30 5104 H 480.081 3.06596 0.58355 0
M  V30 5105 N 480.382 0.0267497 1.57577 0
M  V30 5106 C 481.312 -0.954308 2.13108 0
M  V30 5107 C 482.293 -1.34088 1.04663 0
M  V30 5108 O 483.478 -1.41992 1.32484 0
M  V30 5109 C 480.608 -2.23744 2.65624 0
M  V30 5110 C 479.562 -1.99168 3.78835 0
M  V30 5111 C 478.888 -3.33726 4.17769 0
M  V30 5112 C 480.188 -1.33277 5.0501 0
M  V30 5113 H 481.882 -0.491848 2.95332 0
M  V30 5114 H 479.428 -0.23514 1.42067 0
M  V30 5115 H 481.381 -2.92754 3.03106 0
M  V30 5116 H 480.105 -2.72151 1.80558 0
M  V30 5117 H 478.764 -1.32577 3.41788 0
M  V30 5118 H 478.412 -3.79888 3.29688 0
M  V30 5119 H 478.112 -3.18089 4.94058 0
M  V30 5120 H 479.636 -4.04008 4.57832 0
M  V30 5121 H 481.05 -1.92283 5.40093 0
M  V30 5122 H 479.447 -1.28045 5.8628 0
M  V30 5123 H 480.517 -0.305411 4.83937 0
M  V30 5124 N 481.861 -1.55662 -0.24637 0
M  V30 5125 C 483.108 -1.77519 -0.974335 0
M  V30 5126 C 483.436 -0.591165 -1.85298 0
M  V30 5127 O 482.691 0.425497 -1.91018 0
M  V30 5128 C 482.99 -3.04885 -1.86494 0
M  V30 5129 C 482.656 -4.36209 -1.14161 0
M  V30 5130 C 481.318 -4.71896 -0.941701 0
M  V30 5131 C 483.67 -5.17391 -0.628957 0
M  V30 5132 C 480.998 -5.86299 -0.216852 0
M  V30 5133 C 483.35 -6.32546 0.0824273 0
M  V30 5134 C 482.014 -6.66853 0.293807 0
M  V30 5135 H 481.284 -0.649588 -0.356535 0
M  V30 5136 H 483.931 -1.89934 -0.244394 0
M  V30 5137 H 482.236 -2.87484 -2.66196 0
M  V30 5138 H 483.933 -3.18994 -2.42989 0
M  V30 5139 H 480.523 -4.08174 -1.30736 0
M  V30 5140 H 484.707 -4.90276 -0.770943 0
M  V30 5141 H 479.963 -6.11385 -0.0426124 0
M  V30 5142 H 484.137 -6.94693 0.487292 0
M  V30 5143 H 481.764 -7.55349 0.857428 0
M  V30 5144 N 483.339 0.512053 -1.4905 0
M  V30 5145 C 484.585 1.26613 -1.59187 0
M  V30 5146 C 484.94 1.90494 -0.270163 0
M  V30 5147 O 484.233 1.77204 0.728648 0
M  V30 5148 C 484.427 2.36446 -2.68008 0
M  V30 5149 C 484.256 1.83334 -4.10632 0
M  V30 5150 C 483.026 1.65131 -4.77556 0
M  V30 5151 C 485.224 1.35153 -4.96224 0
M  V30 5152 N 483.206 1.06833 -6.04533 0
M  V30 5153 C 484.577 0.889186 -6.13591 0
M  V30 5154 C 486.632 1.23623 -4.82309 0
M  V30 5155 C 485.335 0.322953 -7.18575 0
M  V30 5156 C 487.361 0.683978 -5.87431 0
M  V30 5157 C 486.723 0.2318 -7.04018 0
M  V30 5158 H 482.822 0.453678 -0.636946 0
M  V30 5159 H 485.406 0.575217 -1.86009 0
M  V30 5160 H 483.577 3.03012 -2.42978 0
M  V30 5161 H 485.309 3.03485 -2.67729 0
M  V30 5162 H 482.064 1.89178 -4.34176 0
M  V30 5163 H 482.488 0.796425 -6.72299 0
M  V30 5164 H 487.13 1.57184 -3.92496 0
M  V30 5165 H 484.848 -0.024943 -8.08096 0
M  V30 5166 H 488.434 0.597694 -5.78722 0
M  V30 5167 H 487.314 -0.188869 -7.83973 0
M  V30 5168 N 484.817 1.37938 0.762283 0
M  V30 5169 C 486.066 1.32989 1.51647 0
M  V30 5170 C 486.379 -0.0802922 1.95435 0
M  V30 5171 O 487.585 -0.252295 2.70325 0
M  V30 5172 C 486.041 2.33485 2.73885 0
M  V30 5173 C 485.649 3.80079 2.37157 0
M  V30 5174 C 487.393 2.37563 3.51801 0
M  V30 5175 C 485.3 4.72283 3.55954 0
M  V30 5176 H 484.23 0.494301 0.56937 0
M  V30 5177 H 486.881 1.63448 0.834083 0
M  V30 5178 H 485.263 1.96056 3.44061 0
M  V30 5179 H 486.437 4.26398 1.74704 0
M  V30 5180 H 484.752 3.79037 1.72395 0
M  V30 5181 H 487.349 3.0365 4.40114 0
M  V30 5182 H 487.692 1.39199 3.92338 0
M  V30 5183 H 488.225 2.73747 2.8863 0
M  V30 5184 H 484.964 5.7181 3.2049 0
M  V30 5185 H 484.484 4.30663 4.1748 0
M  V30 5186 H 486.163 4.89876 4.22647 0
M  V30 5187 N 486.295 -0.989507 1.22664 0
M  V30 5188 C 487.243 -2.10148 0.997035 0
M  V30 5189 C 488.237 -1.6929 -0.0609783 0
M  V30 5190 O 489.443 -1.79766 0.0917523 0
M  V30 5191 H 485.818 -0.687256 0.305259 0
M  V30 5192 H 487.789 -2.26685 1.94053 0
M  V30 5193 C 486.538 -3.4257 0.595085 0
M  V30 5194 H 485.861 -3.74453 1.40089 0
M  V30 5195 H 487.301 -4.21344 0.473869 0
M  V30 5196 C 485.76 -3.29638 -0.695725 0
M  V30 5197 O 486.29 -3.61709 -1.74727 0
M  V30 5198 N 484.496 -2.82814 -0.668173 0
M  V30 5199 H 484.043 -2.56914 0.18787 0
M  V30 5200 H 484.001 -2.74544 -1.5321 0
M  V30 5201 N 487.773 -1.03688 -1.18687 0
M  V30 5202 C 488.721 -0.618292 -2.24232 0
M  V30 5203 C 489.715 0.353045 -1.6568 0
M  V30 5204 O 490.921 0.220749 -1.78641 0
M  V30 5205 H 487.296 -0.181711 -0.729716 0
M  V30 5206 H 489.267 -1.51893 -2.56848 0
M  V30 5207 C 488.016 0.00677342 -3.47699 0
M  V30 5208 H 487.339 -0.731692 -3.93047 0
M  V30 5209 H 488.779 0.262492 -4.23187 0
M  V30 5210 C 487.238 1.25572 -3.12623 0
M  V30 5211 O 487.768 2.34691 -3.26011 0
M  V30 5212 N 485.974 1.14755 -2.66982 0
M  V30 5213 H 485.521 0.259601 -2.56289 0
M  V30 5214 H 485.479 1.98412 -2.43885 0
M  V30 5215 N 489.251 1.34841 -0.815825 0
M  V30 5216 C 490.667 1.51543 -0.500697 0
M  V30 5217 C 490.867 1.76261 0.976444 0
M  V30 5218 O 489.923 1.8094 1.76117 0
M  V30 5219 C 491.236 2.68487 -1.35407 0
M  V30 5220 C 492.784 2.82368 -1.35046 0
M  V30 5221 C 493.259 4.02347 -2.18816 0
M  V30 5222 N 494.75 4.09542 -2.16402 0
M  V30 5223 C 495.485 5.01517 -2.77971 0
M  V30 5224 N 494.981 5.98763 -3.48503 0
M  V30 5225 N 496.774 4.94334 -2.67563 0
M  V30 5226 H 488.925 1.17055 -1.77234 0
M  V30 5227 H 491.188 0.573481 -0.754866 0
M  V30 5228 H 490.894 2.56829 -2.40274 0
M  V30 5229 H 490.768 3.63321 -1.01377 0
M  V30 5230 H 493.155 2.93471 -0.309604 0
M  V30 5231 H 493.236 1.88363 -1.73069 0
M  V30 5232 H 492.88 3.92004 -3.22948 0
M  V30 5233 H 492.81 4.95551 -1.78148 0
M  V30 5234 H 495.301 3.39932 -1.65091 0
M  V30 5235 H 495.614 6.6556 -3.92747 0
M  V30 5236 H 493.959 5.98909 -3.52609 0
M  V30 5237 H 497.15 4.1732 -2.12041 0
M  V30 5238 H 497.323 5.6582 -3.15834 0
M  V30 5239 N 490.729 0.570148 1.46925 0
M  V30 5240 C 491.959 0.0561151 2.06524 0
M  V30 5241 C 492.367 -1.24874 1.42137 0
M  V30 5242 O 491.71 -1.76292 0.516417 0
M  V30 5243 C 491.772 -0.197035 3.5896 0
M  V30 5244 C 491.436 1.02033 4.45464 0
M  V30 5245 C 492.433 1.92921 4.82781 0
M  V30 5246 C 490.118 1.23864 4.86788 0
M  V30 5247 C 492.112 3.03999 5.60235 0
M  V30 5248 C 489.799 2.35249 5.64004 0
M  V30 5249 C 490.797 3.25146 6.0064 0
M  V30 5250 O 490.485 4.34598 6.76299 0
M  V30 5251 H 490.217 0.0487409 0.674241 0
M  V30 5252 H 492.771 0.786915 1.89728 0
M  V30 5253 H 491.001 -0.982299 3.74016 0
M  V30 5254 H 492.69 -0.658032 4.00531 0
M  V30 5255 H 493.456 1.77265 4.51444 0
M  V30 5256 H 489.335 0.54805 4.57731 0
M  V30 5257 H 492.879 3.74192 5.8875 0
M  V30 5258 H 488.776 2.50873 5.94755 0
M  V30 5259 H 489.544 4.32808 6.94708 0
M  V30 5260 N 492.207 -1.54576 0.307264 0
M  V30 5261 C 493.453 -2.0056 -0.300612 0
M  V30 5262 C 493.786 -1.1953 -1.53057 0
M  V30 5263 O 493.061 -0.27337 -1.92569 0
M  V30 5264 C 493.344 -3.54167 -0.650987 0
M  V30 5265 C 493.197 -4.45933 0.588539 0
M  V30 5266 C 494.516 -4.14645 -1.47506 0
M  V30 5267 H 491.635 -0.729075 -0.107788 0
M  V30 5268 H 494.277 -1.85286 0.420606 0
M  V30 5269 H 492.427 -3.67313 -1.26544 0
M  V30 5270 H 494.099 -4.44683 1.22697 0
M  V30 5271 H 492.342 -4.16274 1.22058 0
M  V30 5272 H 493.013 -5.51189 0.299153 0
M  V30 5273 H 495.489 -4.04973 -0.955821 0
M  V30 5274 H 494.365 -5.22269 -1.68899 0
M  V30 5275 H 494.626 -3.66921 -2.4662 0
M  V30 5276 N 493.685 -0.035106 -1.57561 0
M  V30 5277 C 494.618 0.979673 -2.06101 0
M  V30 5278 C 495.596 1.31378 -0.958046 0
M  V30 5279 O 496.78 1.42942 -1.22881 0
M  V30 5280 C 493.907 2.29809 -2.48808 0
M  V30 5281 C 492.953 2.11817 -3.70184 0
M  V30 5282 S 493.786 1.41143 -5.16565 0
M  V30 5283 C 494.942 2.74341 -5.62572 0
M  V30 5284 H 495.175 0.566506 -2.91853 0
M  V30 5285 H 492.708 0.176744 -1.53385 0
M  V30 5286 H 494.666 3.056 -2.74078 0
M  V30 5287 H 493.327 2.68257 -1.63392 0
M  V30 5288 H 492.52 3.09299 -3.97933 0
M  V30 5289 H 492.122 1.44168 -3.45097 0
M  V30 5290 H 494.414 3.70562 -5.67177 0
M  V30 5291 H 495.357 2.51249 -6.62027 0
M  V30 5292 H 495.765 2.79863 -4.90242 0
M  V30 5293 N 495.163 1.55791 0.238111 0
M  V30 5294 C 496.093 1.94068 1.29846 0
M  V30 5295 C 497.074 0.806726 1.49753 0
M  V30 5296 O 498.259 1.06772 1.62214 0
M  V30 5297 C 495.389 2.24302 2.65153 0
M  V30 5298 C 494.343 3.40032 2.59927 0
M  V30 5299 C 493.669 3.55829 3.99111 0
M  V30 5300 C 494.969 4.75476 2.16148 0
M  V30 5301 H 496.663 2.82887 0.980563 0
M  V30 5302 H 494.209 1.36105 0.470253 0
M  V30 5303 H 496.162 2.4967 3.39475 0
M  V30 5304 H 494.886 1.32318 2.98596 0
M  V30 5305 H 493.545 3.14687 1.88063 0
M  V30 5306 H 493.193 2.6125 4.29834 0
M  V30 5307 H 492.893 4.3366 3.96501 0
M  V30 5308 H 494.417 3.83528 4.7512 0
M  V30 5309 H 495.831 5.00158 2.80205 0
M  V30 5310 H 494.228 5.56472 2.24631 0
M  V30 5311 H 495.298 4.71946 1.11333 0
M  V30 5312 N 496.642 -0.504142 1.49319 0
M  V30 5313 C 497.592 -1.60284 1.62151 0
M  V30 5314 C 498.576 -1.53657 0.477315 0
M  V30 5315 O 499.768 -1.6124 0.730108 0
M  V30 5316 C 496.897 -2.98909 1.68844 0
M  V30 5317 C 495.983 -3.10544 2.8883 0
M  V30 5318 N 496.374 -2.92078 4.12946 0
M  V30 5319 C 494.672 -3.4164 2.86702 0
M  V30 5320 C 495.373 -3.07812 4.93585 0
M  V30 5321 N 494.349 -3.36549 4.26891 0
M  V30 5322 H 498.151 -1.44656 2.55835 0
M  V30 5323 H 495.665 -0.710198 1.46048 0
M  V30 5324 H 497.662 -3.77865 1.76134 0
M  V30 5325 H 496.322 -3.15609 0.762943 0
M  V30 5326 H 497.333 -2.68316 4.42975 0
M  V30 5327 H 494.01 -3.64537 2.03517 0
M  V30 5328 H 495.4 -2.98054 6.02174 0
M  V30 5329 N 498.12 -1.38341 -0.754957 0
M  V30 5330 C 499.368 -1.34208 -1.51105 0
M  V30 5331 C 499.689 0.0677634 -1.94882 0
M  V30 5332 O 498.959 1.01517 -1.67544 0
M  V30 5333 H 497.539 -0.493819 -0.560493 0
M  V30 5334 H 500.201 -1.73005 -0.897507 0
M  V30 5335 H 499.297 -1.99203 -2.4026 0
M  V30 5336 N 499.598 0.982988 -1.23187 0
M  V30 5337 C 500.844 1.72648 -1.06398 0
M  V30 5338 C 501.177 1.90066 0.398561 0
M  V30 5339 O 500.452 1.45105 1.29518 0
M  V30 5340 C 500.735 3.12627 -1.78707 0
M  V30 5341 C 500.588 3.02795 -3.32618 0
M  V30 5342 C 501.907 4.11997 -1.54747 0
M  V30 5343 H 499.026 0.626649 -0.387918 0
M  V30 5344 H 501.668 1.14455 -1.51658 0
M  V30 5345 H 499.818 3.62308 -1.40234 0
M  V30 5346 H 501.49 2.60659 -3.80598 0
M  V30 5347 H 499.733 2.39362 -3.61785 0
M  V30 5348 H 500.404 4.01893 -3.78399 0
M  V30 5349 H 502.88 3.71114 -1.88186 0
M  V30 5350 H 501.756 5.08037 -2.07821 0
M  V30 5351 H 502.017 4.39462 -0.482249 0
M  V30 5352 N 501.076 1.04316 1.18135 0
M  V30 5353 C 502.024 0.630175 2.23901 0
M  V30 5354 C 503.018 -0.344254 1.65865 0
M  V30 5355 O 504.224 -0.211273 1.78756 0
M  V30 5356 H 500.599 0.185578 0.728742 0
M  V30 5357 H 502.57 1.53253 2.56039 0
M  V30 5358 C 501.319 0.011666 3.47698 0
M  V30 5359 H 500.642 0.752526 3.92654 0
M  V30 5360 H 502.082 -0.240046 4.2332 0
M  V30 5361 C 500.541 -1.23913 3.13285 0
M  V30 5362 O 501.071 -2.32959 3.27251 0
M  V30 5363 N 499.277 -1.13338 2.67587 0
M  V30 5364 H 498.824 -0.246006 2.56423 0
M  V30 5365 H 498.782 -1.97116 2.44934 0
M  V30 5366 N 502.554 -1.34406 0.822964 0
M  V30 5367 C 503.97 -1.51275 0.508727 0
M  V30 5368 C 504.17 -1.76776 -0.967083 0
M  V30 5369 O 503.226 -1.81871 -1.75155 0
M  V30 5370 C 504.539 -2.67765 1.36829 0
M  V30 5371 C 506.087 -2.81647 1.36542 0
M  V30 5372 C 506.562 -4.01181 2.20947 0
M  V30 5373 N 508.053 -4.08388 2.18571 0
M  V30 5374 C 508.788 -5.00036 2.80627 0
M  V30 5375 N 508.284 -5.96906 3.51674 0
M  V30 5376 N 510.077 -4.92908 2.70181 0
M  V30 5377 H 502.228 -1.16113 1.77852 0
M  V30 5378 H 504.491 -0.56947 0.757897 0
M  V30 5379 H 504.197 -2.55551 2.41633 0
M  V30 5380 H 504.071 -3.62779 1.03303 0
M  V30 5381 H 506.458 -2.93303 0.325163 0
M  V30 5382 H 506.539 -1.87443 1.74066 0
M  V30 5383 H 506.183 -3.90286 3.25022 0
M  V30 5384 H 506.113 -4.94599 1.80774 0
M  V30 5385 H 508.604 -3.39051 1.66891 0
M  V30 5386 H 508.917 -6.63468 3.96271 0
M  V30 5387 H 507.262 -5.9703 3.5578 0
M  V30 5388 H 510.453 -4.1619 2.14251 0
M  V30 5389 H 510.626 -5.64137 3.18831 0
M  V30 5390 N 504.032 -0.577932 -1.46621 0
M  V30 5391 C 504.982 0.178869 -2.27297 0
M  V30 5392 C 505.966 0.866279 -1.35589 0
M  V30 5393 O 507.158 0.761163 -1.59798 0
M  V30 5394 C 504.287 1.19499 -3.2183 0
M  V30 5395 C 503.373 0.50994 -4.21023 0
M  V30 5396 N 503.764 -0.43177 -5.03954 0
M  V30 5397 C 502.062 0.761287 -4.39455 0
M  V30 5398 C 502.763 -0.831693 -5.75724 0
M  V30 5399 N 501.739 -0.181897 -5.43296 0
M  V30 5400 H 505.541 -0.544859 -2.88805 0
M  V30 5401 H 503.055 -0.399373 -1.57413 0
M  V30 5402 H 505.052 1.75131 -3.78332 0
M  V30 5403 H 503.712 1.91959 -2.61881 0
M  V30 5404 H 504.723 -0.807045 -5.11573 0
M  V30 5405 H 501.4 1.47282 -3.90659 0
M  V30 5406 H 502.79 -1.6067 -6.52407 0
M  V30 5407 N 505.51 1.54411 -0.315457 0
M  V30 5408 C 506.787 1.92562 0.343398 0
M  V30 5409 C 507.167 1.24423 1.70535 0
M  V30 5410 O 506.515 0.385051 2.25232 0
M  V30 5411 C 506.725 3.46168 0.443687 0
M  V30 5412 C 508.073 4.18659 0.707783 0
M  V30 5413 O 509.097 3.52281 0.52693 0
M  V30 5414 O 507.956 5.36198 1.05612 0
M  V30 5415 H 505.05 0.80379 0.194552 0
M  V30 5416 H 507.596 1.65738 -0.364577 0
M  V30 5417 H 506.368 3.8792 -0.513172 0
M  V30 5418 H 505.991 3.79073 1.19956 0
M  V30 5419 N 506.988 0.0434614 1.5754 0
M  V30 5420 C 507.936 -0.951465 2.1225 0
M  V30 5421 C 508.93 -1.3274 1.05245 0
M  V30 5422 O 510.136 -1.30795 1.23663 0
M  V30 5423 H 506.511 -0.324667 0.678303 0
M  V30 5424 H 508.482 -0.464855 2.94757 0
M  V30 5425 C 507.231 -2.21972 2.67626 0
M  V30 5426 H 506.554 -1.93923 3.4962 0
M  V30 5427 H 507.994 -2.89765 3.09536 0
M  V30 5428 C 506.453 -2.95919 1.61038 0
M  V30 5429 O 506.983 -3.8857 1.01862 0
M  V30 5430 N 505.189 -2.58511 1.32741 0
M  V30 5431 H 504.736 -1.83244 1.81051 0
M  V30 5432 H 504.694 -3.08296 0.616531 0
M  V30 5433 N 508.466 -1.55915 -0.229846 0
M  V30 5434 C 509.743 -1.6932 -0.979295 0
M  V30 5435 C 510.123 -0.588321 -2.02736 0
M  V30 5436 O 509.471 0.40586 -2.24867 0
M  V30 5437 C 509.681 -3.10305 -1.59724 0
M  V30 5438 C 511.029 -3.6945 -2.09264 0
M  V30 5439 O 512.053 -3.13214 -1.69633 0
M  V30 5440 O 510.912 -4.68072 -2.82082 0
M  V30 5441 H 508.006 -0.689314 -0.456919 0
M  V30 5442 H 510.552 -1.68238 -0.222283 0
M  V30 5443 H 509.324 -3.82177 -0.840039 0
M  V30 5444 H 508.947 -3.1547 -2.42001 0
M  V30 5445 N 509.944 0.496216 -1.49584 0
M  V30 5446 C 510.894 1.59422 -1.62999 0
M  V30 5447 C 511.878 1.53402 -0.485457 0
M  V30 5448 O 513.07 1.60851 -0.738649 0
M  V30 5449 C 510.199 2.98009 -1.70427 0
M  V30 5450 C 509.285 3.09008 -2.90473 0
M  V30 5451 N 509.676 2.89884 -4.14489 0
M  V30 5452 C 507.974 3.40115 -2.8851 0
M  V30 5453 C 508.675 3.0519 -4.95211 0
M  V30 5454 N 507.651 3.3428 -4.2867 0
M  V30 5455 H 511.453 1.43297 -2.56599 0
M  V30 5456 H 508.967 0.702443 -1.46422 0
M  V30 5457 H 510.964 3.76926 -1.78136 0
M  V30 5458 H 509.624 3.152 -0.77967 0
M  V30 5459 H 510.635 2.65963 -4.44392 0
M  V30 5460 H 507.312 3.63452 -2.05448 0
M  V30 5461 H 508.702 2.94856 -6.03746 0
M  V30 5462 N 511.423 1.38739 0.74761 0
M  V30 5463 C 512.839 1.20067 1.05148 0
M  V30 5464 C 513.039 0.0534835 2.01429 0
M  V30 5465 O 512.095 -0.59886 2.45296 0
M  V30 5466 C 513.408 2.52957 1.62584 0
M  V30 5467 C 514.956 2.59692 1.74726 0
M  V30 5468 C 515.431 3.92772 2.35573 0
M  V30 5469 N 516.922 3.94343 2.42997 0
M  V30 5470 C 517.657 4.9408 2.90985 0
M  V30 5471 N 517.153 6.04214 3.38965 0
M  V30 5472 N 518.946 4.81466 2.9008 0
M  V30 5473 H 511.097 2.12121 0.108808 0
M  V30 5474 H 513.36 0.941491 0.110899 0
M  V30 5475 H 513.066 3.37389 0.993051 0
M  V30 5476 H 512.94 2.71779 2.61565 0
M  V30 5477 H 515.327 1.75651 2.3713 0
M  V30 5478 H 515.408 2.44731 0.744326 0
M  V30 5479 H 515.052 4.77238 1.738 0
M  V30 5480 H 514.982 4.05046 3.36519 0
M  V30 5481 H 517.473 3.14799 2.0907 0
M  V30 5482 H 517.786 6.76241 3.74056 0
M  V30 5483 H 516.131 6.07825 3.37007 0
M  V30 5484 H 519.322 3.94535 2.51912 0
M  V30 5485 H 519.495 5.59344 3.27166 0
M  V30 5486 N 512.901 -0.976442 1.23707 0
M  V30 5487 C 513.848 -2.06952 1.02174 0
M  V30 5488 C 514.818 -1.65984 -0.0621034 0
M  V30 5489 O 516.003 -1.90584 0.0907906 0
M  V30 5490 C 513.143 -3.39425 0.62327 0
M  V30 5491 C 512.256 -3.9364 1.77966 0
M  V30 5492 C 511.391 -5.14343 1.3276 0
M  V30 5493 C 510.43 -5.60733 2.45449 0
M  V30 5494 N 509.567 -6.72662 2.01172 0
M  V30 5495 H 514.407 -2.24704 1.95734 0
M  V30 5496 H 511.944 -1.10143 0.975034 0
M  V30 5497 H 513.902 -4.15526 0.37332 0
M  V30 5498 H 512.532 -3.21624 -0.275329 0
M  V30 5499 H 511.584 -3.14258 2.14351 0
M  V30 5500 H 512.896 -4.24035 2.62671 0
M  V30 5501 H 512.05 -5.97789 1.03601 0
M  V30 5502 H 510.789 -4.8561 0.450975 0
M  V30 5503 H 509.794 -4.75865 2.75378 0
M  V30 5504 H 511.019 -5.91483 3.33654 0
M  V30 5505 H 508.965 -6.45681 1.15895 0
M  V30 5506 H 508.882 -7.02462 2.79434 0
M  V30 5507 H 510.15 -7.59572 1.75129 0
M  V30 5508 N 514.379 -1.04941 -1.1758 0
M  V30 5509 C 515.627 -0.756492 -1.87408 0
M  V30 5510 C 515.948 0.718478 -1.81281 0
M  V30 5511 O 515.218 1.519 -1.23706 0
M  V30 5512 H 513.798 -0.276841 -0.693807 0
M  V30 5513 H 516.46 -1.32803 -1.42652 0
M  V30 5514 H 515.556 -1.06918 -2.93215 0
M  V30 5515 N 515.857 1.33968 -0.830081 0
M  V30 5516 C 517.273 1.51003 -0.516742 0
M  V30 5517 C 517.473 1.77286 0.957694 0
M  V30 5518 O 516.529 1.82797 1.74188 0
M  V30 5519 C 517.842 2.67036 -1.38247 0
M  V30 5520 C 519.39 2.80919 -1.38034 0
M  V30 5521 C 519.865 4.00004 -2.23071 0
M  V30 5522 N 521.356 4.07224 -2.20733 0
M  V30 5523 C 522.091 4.98541 -2.83275 0
M  V30 5524 N 521.587 5.95033 -3.54835 0
M  V30 5525 N 523.38 4.91469 -2.72791 0
M  V30 5526 H 515.531 1.15168 -1.78466 0
M  V30 5527 H 517.794 0.565443 -0.760906 0
M  V30 5528 H 517.5 2.54266 -2.42985 0
M  V30 5529 H 517.374 3.62226 -1.05225 0
M  V30 5530 H 519.761 2.93127 -0.340713 0
M  V30 5531 H 519.842 1.86517 -1.75057 0
M  V30 5532 H 519.486 3.88557 -3.27087 0
M  V30 5533 H 519.416 4.93634 -1.83394 0
M  V30 5534 H 521.907 3.38162 -1.68687 0
M  V30 5535 H 522.22 6.61357 -3.99784 0
M  V30 5536 H 520.565 5.95135 -3.58942 0
M  V30 5537 H 523.756 4.15048 -2.16456 0
M  V30 5538 H 523.929 5.62439 -3.21818 0
M  V30 5539 N 517.335 0.585699 1.46312 0
M  V30 5540 C 518.298 -0.135673 2.28798 0
M  V30 5541 C 519.298 -0.815988 1.38558 0
M  V30 5542 O 520.488 -0.667487 1.60904 0
M  V30 5543 C 517.62 -1.20163 3.1902 0
M  V30 5544 H 518.813 0.589257 2.94054 0
M  V30 5545 H 516.366 0.343794 1.52472 0
M  V30 5546 H 517.101 -1.95804 2.58517 0
M  V30 5547 H 516.886 -0.718282 3.85465 0
M  V30 5548 H 518.376 -1.70749 3.81096 0
M  V30 5549 N 518.813 -1.54241 0.323641 0
M  V30 5550 C 520.059 -2.00867 -0.279323 0
M  V30 5551 C 520.392 -1.21146 -1.5178 0
M  V30 5552 O 519.667 -0.29378 -1.92269 0
M  V30 5553 C 519.95 -3.54837 -0.613387 0
M  V30 5554 C 519.803 -4.45284 0.635803 0
M  V30 5555 C 521.122 -4.16186 -1.43099 0
M  V30 5556 H 518.241 -0.730177 -0.100049 0
M  V30 5557 H 520.883 -1.84829 0.440235 0
M  V30 5558 H 519.033 -3.68634 -1.22641 0
M  V30 5559 H 520.705 -4.43357 1.27406 0
M  V30 5560 H 518.948 -4.14956 1.26466 0
M  V30 5561 H 519.619 -5.5084 0.357597 0
M  V30 5562 H 522.095 -4.05964 -0.912814 0
M  V30 5563 H 520.971 -5.24031 -1.6335 0
M  V30 5564 H 521.232 -3.69516 -2.42715 0
M  V30 5565 N 520.291 -0.0518155 -1.57515 0
M  V30 5566 C 521.539 0.620595 -1.92336 0
M  V30 5567 C 521.86 1.71345 -0.930907 0
M  V30 5568 O 521.13 1.95885 0.0241341 0
M  V30 5569 H 519.71 0.232226 -0.709986 0
M  V30 5570 H 522.372 -0.104969 -1.94617 0
M  V30 5571 H 521.468 1.05879 -2.93592 0
M  V30 5572 N 521.769 1.56035 0.221574 0
M  V30 5573 C 522.702 1.87427 1.30178 0
M  V30 5574 C 523.68 0.731658 1.45209 0
M  V30 5575 O 524.864 0.980016 1.61022 0
M  V30 5576 C 521.991 2.08127 2.67209 0
M  V30 5577 C 521.037 3.30813 2.69194 0
M  V30 5578 S 521.87 4.86738 2.23263 0
M  V30 5579 C 523.026 5.10474 3.62171 0
M  V30 5580 H 523.259 2.78756 1.03355 0
M  V30 5581 H 520.792 1.48469 0.423813 0
M  V30 5582 H 522.75 2.20736 3.46101 0
M  V30 5583 H 521.411 1.17595 2.91256 0
M  V30 5584 H 520.604 3.42341 3.6989 0
M  V30 5585 H 520.206 3.1706 1.98366 0
M  V30 5586 H 522.498 4.9937 4.5786 0
M  V30 5587 H 523.441 6.12359 3.55558 0
M  V30 5588 H 523.849 4.38208 3.55857 0
M  V30 5589 N 523.247 -0.488276 1.49845 0
M  V30 5590 C 524.524 -1.24959 1.50481 0
M  V30 5591 C 524.904 -2.09735 0.239698 0
M  V30 5592 O 524.252 -2.14865 -0.777524 0
M  V30 5593 C 524.462 -2.0954 2.79095 0
M  V30 5594 C 525.81 -2.68305 3.29086 0
M  V30 5595 O 526.834 -2.19797 2.80299 0
M  V30 5596 O 525.693 -3.56643 4.14087 0
M  V30 5597 H 522.787 -0.566133 0.602845 0
M  V30 5598 H 525.333 -0.501504 1.6212 0
M  V30 5599 H 524.105 -1.46958 3.62656 0
M  V30 5600 H 523.728 -2.91517 2.70377 0
M  V30 5601 N 524.725 -1.39134 -0.740242 0
M  V30 5602 C 526.141 -1.20623 -1.0451 0
M  V30 5603 C 526.341 -0.0641651 -2.01398 0
M  V30 5604 O 525.397 0.585843 -2.4561 0
M  V30 5605 C 526.71 -2.53815 -1.6124 0
M  V30 5606 C 528.258 -2.60615 -1.73346 0
M  V30 5607 C 528.733 -3.94015 -2.33486 0
M  V30 5608 N 530.224 -3.95627 -2.40902 0
M  V30 5609 C 530.959 -4.95616 -2.88361 0
M  V30 5610 N 530.455 -6.06003 -3.35756 0
M  V30 5611 N 532.248 -4.82998 -2.87523 0
M  V30 5612 H 524.399 -2.12176 -0.0975576 0
M  V30 5613 H 526.662 -0.942066 -0.105904 0
M  V30 5614 H 526.368 -3.37911 -0.975144 0
M  V30 5615 H 526.242 -2.73162 -2.6012 0
M  V30 5616 H 528.629 -1.76906 -2.36195 0
M  V30 5617 H 528.71 -2.45123 -0.731336 0
M  V30 5618 H 528.354 -4.78153 -1.71267 0
M  V30 5619 H 528.284 -4.06825 -3.34366 0
M  V30 5620 H 530.775 -3.15903 -2.07398 0
M  V30 5621 H 531.088 -6.78215 -3.70464 0
M  V30 5622 H 529.433 -6.09604 -3.33778 0
M  V30 5623 H 532.624 -3.95866 -2.49816 0
M  V30 5624 H 532.797 -5.61072 -3.24196 0
M  V30 5625 N 526.204 0.969867 -1.24223 0
M  V30 5626 C 527.45 1.7151 -1.08223 0
M  V30 5627 C 527.783 1.90478 0.37838 0
M  V30 5628 O 527.058 1.4647 1.27971 0
M  V30 5629 C 527.341 3.10714 -1.82013 0
M  V30 5630 C 527.194 2.9925 -3.35811 0
M  V30 5631 C 528.513 4.10332 -1.59108 0
M  V30 5632 H 525.632 0.622499 -0.394543 0
M  V30 5633 H 528.274 1.1284 -1.52863 0
M  V30 5634 H 526.424 3.608 -1.44068 0
M  V30 5635 H 528.096 2.56608 -3.83341 0
M  V30 5636 H 526.339 2.35512 -3.64303 0
M  V30 5637 H 527.01 3.97857 -3.82641 0
M  V30 5638 H 529.486 3.69097 -1.92111 0
M  V30 5639 H 528.362 5.05804 -2.13198 0
M  V30 5640 H 528.623 4.38926 -0.528832 0
M  V30 5641 N 527.682 1.05563 1.17022 0
M  V30 5642 C 528.592 0.670758 2.24807 0
M  V30 5643 C 529.608 -0.309865 1.71219 0
M  V30 5644 O 530.784 -0.161025 2.00755 0
M  V30 5645 C 527.849 0.055337 3.46656 0
M  V30 5646 C 526.91 1.08688 4.15314 0
M  V30 5647 C 526.143 0.500736 5.31346 0
M  V30 5648 O 526.366 -0.688718 5.66227 0
M  V30 5649 O 525.3 1.23683 5.89055 0
M  V30 5650 H 529.126 1.56914 2.60023 0
M  V30 5651 H 526.711 0.827428 1.24395 0
M  V30 5652 H 528.593 -0.286492 4.20425 0
M  V30 5653 H 527.268 -0.816638 3.13229 0
M  V30 5654 H 526.175 1.48077 3.43546 0
M  V30 5655 H 527.508 1.93014 4.52777 0
M  V30 5656 N 529.16 -1.33526 0.837174 0
M  V30 5657 C 530.107 -2.29248 0.267169 0
M  V30 5658 C 531.077 -1.54252 -0.616071 0
M  V30 5659 O 532.262 -1.82559 -0.554699 0
M  V30 5660 C 529.402 -3.40638 -0.553152 0
M  V30 5661 C 528.515 -4.30548 0.353921 0
M  V30 5662 C 527.65 -5.29051 -0.477339 0
M  V30 5663 C 526.689 -6.106 0.42823 0
M  V30 5664 N 525.826 -7.01152 -0.364801 0
M  V30 5665 H 530.666 -2.77398 1.08877 0
M  V30 5666 H 528.203 -1.36496 0.54838 0
M  V30 5667 H 530.161 -4.03921 -1.04422 0
M  V30 5668 H 528.791 -2.93685 -1.33973 0
M  V30 5669 H 527.843 -3.68001 0.963289 0
M  V30 5670 H 529.155 -4.87631 1.04964 0
M  V30 5671 H 528.309 -5.97853 -1.0323 0
M  V30 5672 H 527.048 -4.72541 -1.2065 0
M  V30 5673 H 526.053 -5.40718 0.995219 0
M  V30 5674 H 527.278 -6.69193 1.15573 0
M  V30 5675 H 525.224 -6.47092 -1.07738 0
M  V30 5676 H 525.141 -7.5551 0.272238 0
M  V30 5677 H 526.409 -7.74263 -0.902054 0
M  V30 5678 N 530.638 -0.59345 -1.46 0
M  V30 5679 C 531.915 -0.0157933 -1.95594 0
M  V30 5680 C 532.295 1.44807 -1.53604 0
M  V30 5681 O 531.643 2.14342 -0.791824 0
M  V30 5682 C 531.853 -0.199081 -3.48432 0
M  V30 5683 C 533.201 -0.0724943 -4.24538 0
M  V30 5684 O 534.225 -0.128469 -3.55968 0
M  V30 5685 O 533.084 0.0542426 -5.46473 0
M  V30 5686 H 530.178 0.043749 -0.825842 0
M  V30 5687 H 532.724 -0.662522 -1.56233 0
M  V30 5688 H 531.496 -1.21631 -3.71916 0
M  V30 5689 H 531.119 0.483576 -3.94648 0
M  V30 5690 N 532.116 1.54067 -0.331816 0
M  V30 5691 C 533.046 2.27569 0.522932 0
M  V30 5692 C 534.027 1.28679 1.11247 0
M  V30 5693 O 535.212 1.57504 1.13605 0
M  V30 5694 C 532.342 3.0397 1.67987 0
M  V30 5695 C 531.296 4.10267 1.21924 0
M  V30 5696 C 530.622 4.74555 2.46377 0
M  V30 5697 C 531.922 5.21268 0.32815 0
M  V30 5698 H 533.616 2.99264 -0.0901977 0
M  V30 5699 H 531.162 1.4393 -0.044821 0
M  V30 5700 H 533.115 3.54123 2.28418 0
M  V30 5701 H 531.839 2.29906 2.31971 0
M  V30 5702 H 530.498 3.61009 0.637809 0
M  V30 5703 H 530.146 3.97098 3.08743 0
M  V30 5704 H 529.846 5.46363 2.16243 0
M  V30 5705 H 531.37 5.27487 3.07555 0
M  V30 5706 H 532.784 5.67128 0.838978 0
M  V30 5707 H 531.181 5.99982 0.119228 0
M  V30 5708 H 532.251 4.80673 -0.638839 0
M  V30 5709 N 533.594 0.0601682 1.57485 0
M  V30 5710 C 534.526 -0.94047 2.09016 0
M  V30 5711 C 535.539 -1.26897 1.01985 0
M  V30 5712 O 536.728 -1.22819 1.29529 0
M  V30 5713 C 533.828 -2.25955 2.52582 0
M  V30 5714 C 533.001 -2.11163 3.83052 0
M  V30 5715 C 532.06 -3.26273 4.12835 0
M  V30 5716 O 531.086 -3.01779 4.82616 0
M  V30 5717 N 532.288 -4.51022 3.65458 0
M  V30 5718 H 535.053 -0.500578 2.9549 0
M  V30 5719 H 532.614 -0.125852 1.6141 0
M  V30 5720 H 534.606 -3.01846 2.69575 0
M  V30 5721 H 533.176 -2.61481 1.71308 0
M  V30 5722 H 532.396 -1.19808 3.75552 0
M  V30 5723 H 533.684 -1.98517 4.68475 0
M  V30 5724 H 533.082 -4.73811 3.09062 0
M  V30 5725 H 531.639 -5.23978 3.87673 0
M  V30 5726 N 535.072 -1.5615 -0.213296 0
M  V30 5727 C 536.002 -1.96109 -1.26742 0
M  V30 5728 C 536.983 -0.830448 -1.48451 0
M  V30 5729 O 538.168 -1.09339 -1.60495 0
M  V30 5730 C 535.298 -2.28492 -2.61551 0
M  V30 5731 C 534.252 -3.44124 -2.54485 0
M  V30 5732 C 533.578 -3.62134 -3.93399 0
M  V30 5733 C 534.878 -4.78855 -2.08556 0
M  V30 5734 H 536.572 -2.84412 -0.935434 0
M  V30 5735 H 534.118 -1.36836 -0.44854 0
M  V30 5736 H 536.071 -2.55039 -3.3546 0
M  V30 5737 H 534.795 -1.37052 -2.96453 0
M  V30 5738 H 533.454 -3.17639 -1.83033 0
M  V30 5739 H 533.102 -2.68055 -4.25623 0
M  V30 5740 H 532.802 -4.39913 -3.89551 0
M  V30 5741 H 534.326 -3.91038 -4.68958 0
M  V30 5742 H 535.74 -5.04552 -2.72213 0
M  V30 5743 H 534.137 -5.59975 -2.1575 0
M  V30 5744 H 535.207 -4.73657 -1.03811 0
M  V30 5745 N 536.55 0.480323 -1.50102 0
M  V30 5746 C 537.483 1.59789 -1.62919 0
M  V30 5747 C 538.461 1.55429 -0.477557 0
M  V30 5748 O 539.645 1.75186 -0.695851 0
M  V30 5749 C 536.772 2.98351 -1.60325 0
M  V30 5750 C 535.818 3.20899 -2.80938 0
M  V30 5751 S 536.651 3.01791 -4.4236 0
M  V30 5752 C 537.807 4.42712 -4.42444 0
M  V30 5753 H 538.04 1.48676 -2.57454 0
M  V30 5754 H 535.573 0.666996 -1.3925 0
M  V30 5755 H 537.531 3.7824 -1.59514 0
M  V30 5756 H 536.192 3.06862 -0.670419 0
M  V30 5757 H 535.385 4.22102 -2.75401 0
M  V30 5758 H 534.987 2.48768 -2.79268 0
M  V30 5759 H 537.279 5.3518 -4.15438 0
M  V30 5760 H 538.222 4.53294 -5.43995 0
M  V30 5761 H 538.63 4.24359 -3.72263 0
M  V30 5762 N 538.028 1.39524 0.732853 0
M  V30 5763 C 538.975 1.38416 1.84688 0
M  V30 5764 C 539.945 0.243539 1.64305 0
M  V30 5765 O 541.13 0.438979 1.85681 0
M  V30 5766 C 538.27 1.23555 3.22224 0
M  V30 5767 C 537.383 2.47179 3.54298 0
M  V30 5768 C 536.518 2.2489 4.81246 0
M  V30 5769 C 535.557 3.44178 5.0617 0
M  V30 5770 N 534.694 3.21192 6.24323 0
M  V30 5771 H 539.534 2.33645 1.84971 0
M  V30 5772 H 537.071 1.16059 0.903804 0
M  V30 5773 H 539.029 1.12949 4.0162 0
M  V30 5774 H 537.659 0.31954 3.21215 0
M  V30 5775 H 536.711 2.68379 2.69587 0
M  V30 5776 H 538.023 3.36022 3.68633 0
M  V30 5777 H 537.177 2.11538 5.68627 0
M  V30 5778 H 535.916 1.33443 4.69089 0
M  V30 5779 H 534.921 3.58025 4.17251 0
M  V30 5780 H 536.146 4.36528 5.20212 0
M  V30 5781 H 534.092 2.32413 6.1345 0
M  V30 5782 H 534.009 4.03594 6.39256 0
M  V30 5783 H 535.277 3.1154 7.14537 0
M  V30 5784 N 539.506 -0.963266 1.24736 0
M  V30 5785 C 540.438 -2.06162 1.0015 0
M  V30 5786 C 541.451 -1.62771 -0.0305905 0
M  V30 5787 O 542.64 -1.77296 0.206966 0
M  V30 5788 C 539.74 -3.35333 0.490385 0
M  V30 5789 C 538.913 -4.07609 1.58663 0
M  V30 5790 C 537.972 -5.15052 1.0774 0
M  V30 5791 O 536.998 -5.4098 1.77002 0
M  V30 5792 N 538.2 -5.80436 -0.0858605 0
M  V30 5793 H 540.965 -2.27825 1.94719 0
M  V30 5794 H 538.526 -1.13121 1.15825 0
M  V30 5795 H 540.518 -4.04477 0.134371 0
M  V30 5796 H 539.088 -3.10507 -0.361155 0
M  V30 5797 H 538.308 -3.32681 2.11463 0
M  V30 5798 H 539.596 -4.52656 2.32336 0
M  V30 5799 H 538.994 -5.6178 -0.664806 0
M  V30 5800 H 537.551 -6.50674 -0.382981 0
M  V30 5801 N 540.985 -1.06182 -1.16461 0
M  V30 5802 C 541.935 -0.641619 -2.18786 0
M  V30 5803 C 542.919 0.327122 -1.5754 0
M  V30 5804 O 544.111 0.142746 -1.76423 0
M  V30 5805 C 541.24 -0.0283734 -3.43288 0
M  V30 5806 C 540.326 -1.02154 -4.11613 0
M  V30 5807 N 540.717 -2.19671 -4.55608 0
M  V30 5808 C 539.015 -0.852229 -4.37782 0
M  V30 5809 C 539.716 -2.82583 -5.0845 0
M  V30 5810 N 538.692 -2.10318 -5.01266 0
M  V30 5811 H 542.494 -1.53684 -2.50516 0
M  V30 5812 H 540.008 -0.933349 -1.329 0
M  V30 5813 H 542.005 0.29049 -4.15887 0
M  V30 5814 H 540.665 0.862118 -3.13046 0
M  V30 5815 H 541.676 -2.57453 -4.49375 0
M  V30 5816 H 538.353 -0.0136314 -4.17498 0
M  V30 5817 H 539.743 -3.82298 -5.52538 0
M  V30 5818 N 542.463 1.3308 -0.844243 0
M  V30 5819 C 543.411 2.31028 -0.269954 0
M  V30 5820 C 544.405 1.58381 0.600997 0
M  V30 5821 O 545.611 1.73203 0.48996 0
M  V30 5822 H 541.986 0.748866 -0.0685782 0
M  V30 5823 H 543.957 2.76967 -1.11049 0
M  V30 5824 C 542.706 3.43549 0.535676 0
M  V30 5825 H 542.029 3.99604 -0.125202 0
M  V30 5826 H 543.469 4.14267 0.903262 0
M  V30 5827 C 541.928 2.8988 1.71672 0
M  V30 5828 O 542.458 2.86511 2.81557 0
M  V30 5829 N 540.664 2.46416 1.54037 0
M  V30 5830 H 540.211 2.49356 0.64649 0
M  V30 5831 H 540.169 2.1086 2.33207 0
M  V30 5832 N 543.941 0.601185 1.45683 0
M  V30 5833 C 545.19 0.0914953 2.01492 0
M  V30 5834 C 545.503 -1.28331 1.47616 0
M  V30 5835 O 546.709 -1.88537 1.95362 0
M  V30 5836 C 545.165 0.11291 3.59723 0
M  V30 5837 C 544.773 1.48717 4.22596 0
M  V30 5838 C 546.517 -0.341871 4.23121 0
M  V30 5839 C 544.424 1.46531 5.7296 0
M  V30 5840 H 543.354 0.0304365 0.753385 0
M  V30 5841 H 546.005 0.755568 1.67223 0
M  V30 5842 H 544.387 -0.617692 3.91153 0
M  V30 5843 H 545.561 2.23897 4.02749 0
M  V30 5844 H 543.876 1.88351 3.71366 0
M  V30 5845 H 546.473 -0.377304 5.33367 0
M  V30 5846 H 546.816 -1.36325 3.93346 0
M  V30 5847 H 547.349 0.335256 3.96385 0
M  V30 5848 H 544.088 2.46408 6.07423 0
M  V30 5849 H 543.608 0.755997 5.95017 0
M  V30 5850 H 545.287 1.18618 6.36034 0
M  V30 5851 N 545.419 -1.53889 0.339982 0
M  V30 5852 C 546.367 -2.26391 -0.533822 0
M  V30 5853 C 547.361 -1.28404 -1.10493 0
M  V30 5854 O 548.567 -1.46124 -1.05108 0
M  V30 5855 H 544.942 -0.727385 -0.190828 0
M  V30 5856 H 546.913 -2.98233 0.0997484 0
M  V30 5857 C 545.662 -3.04707 -1.67479 0
M  V30 5858 H 544.985 -3.79934 -1.2446 0
M  V30 5859 H 546.425 -3.58657 -2.26144 0
M  V30 5860 C 544.884 -2.13989 -2.60212 0
M  V30 5861 O 545.414 -1.73361 -3.62366 0
M  V30 5862 N 543.62 -1.79141 -2.28816 0
M  V30 5863 H 543.167 -2.12378 -1.45785 0
M  V30 5864 H 543.125 -1.18725 -2.91121 0
M  V30 5865 N 546.897 -0.0685191 -1.57451 0
M  V30 5866 C 548.122 0.613919 -1.98106 0
M  V30 5867 C 548.547 1.62551 -0.946501 0
M  V30 5868 O 547.905 1.81085 0.0882824 0
M  V30 5869 C 547.953 1.26189 -3.378 0
M  V30 5870 O 547.057 2.37773 -3.36954 0
M  V30 5871 H 546.398 0.158163 -0.644888 0
M  V30 5872 H 548.928 -0.142063 -2.04106 0
M  V30 5873 H 548.938 1.60951 -3.74912 0
M  V30 5874 H 547.613 0.520625 -4.12629 0
M  V30 5875 H 546.19 2.04829 -3.11608 0
M  V30 5876 N 548.375 1.56261 0.205012 0
M  V30 5877 C 549.621 1.80306 0.9283 0
M  V30 5878 C 549.954 0.640932 1.83319 0
M  V30 5879 O 549.229 -0.359032 1.91158 0
M  V30 5880 C 549.512 3.14547 1.75306 0
M  V30 5881 C 549.365 4.41236 0.873562 0
M  V30 5882 C 550.684 3.45382 2.72762 0
M  V30 5883 H 547.803 0.655929 0.336044 0
M  V30 5884 H 550.445 1.88984 0.196211 0
M  V30 5885 H 548.595 3.0728 2.37721 0
M  V30 5886 H 550.267 4.60539 0.264887 0
M  V30 5887 H 548.51 4.33427 0.179773 0
M  V30 5888 H 549.181 5.31639 1.48541 0
M  V30 5889 H 551.657 3.52884 2.20481 0
M  V30 5890 H 550.533 4.40449 3.2756 0
M  V30 5891 H 550.794 2.68377 3.51321 0
M  V30 5892 N 549.853 -0.472356 1.50355 0
M  V30 5893 C 551.269 -0.806001 1.37753 0
M  V30 5894 C 551.469 -1.968 0.432649 0
M  V30 5895 O 550.525 -2.52189 -0.12519 0
M  V30 5896 C 551.838 -1.11926 2.79093 0
M  V30 5897 C 553.386 -1.22579 2.87999 0
M  V30 5898 C 553.861 -1.57218 4.3017 0
M  V30 5899 N 555.352 -1.64212 4.33115 0
M  V30 5900 C 556.087 -1.92517 5.40116 0
M  V30 5901 N 555.583 -2.1885 6.57325 0
M  V30 5902 N 557.376 -1.94008 5.27558 0
M  V30 5903 H 549.527 0.293451 2.10363 0
M  V30 5904 H 551.79 0.0687672 0.945503 0
M  V30 5905 H 551.496 -0.338504 3.50067 0
M  V30 5906 H 551.37 -2.05577 3.16256 0
M  V30 5907 H 553.757 -1.99722 2.17245 0
M  V30 5908 H 553.838 -0.269107 2.54381 0
M  V30 5909 H 553.482 -0.806154 5.01461 0
M  V30 5910 H 553.412 -2.54034 4.61275 0
M  V30 5911 H 555.903 -1.45906 3.48597 0
M  V30 5912 H 556.216 -2.39718 7.3468 0
M  V30 5913 H 554.561 -2.16245 6.60502 0
M  V30 5914 H 557.752 -1.72931 4.34986 0
M  V30 5915 H 557.925 -2.15731 6.11035 0
M  V30 5916 N 551.331 -1.39911 -0.725443 0
M  V30 5917 C 552.559 -1.40949 -1.51463 0
M  V30 5918 C 552.974 -0.0065242 -1.88799 0
M  V30 5919 O 552.331 0.967163 -1.54765 0
M  V30 5920 C 552.382 -2.29119 -2.79619 0
M  V30 5921 O 552.103 -3.63952 -2.43866 0
M  V30 5922 C 553.604 -2.38642 -3.73584 0
M  V30 5923 H 550.824 -0.481091 -0.467752 0
M  V30 5924 H 553.368 -1.83843 -0.895651 0
M  V30 5925 H 551.523 -1.89612 -3.37826 0
M  V30 5926 H 551.937 -4.10677 -3.26258 0
M  V30 5927 H 553.411 -3.04563 -4.60375 0
M  V30 5928 H 553.888 -1.40846 -4.16004 0
M  V30 5929 H 554.494 -2.78659 -3.21293 0
M  V30 5930 N 552.809 0.956637 -1.25245 0
M  V30 5931 C 553.772 2.03457 -1.05537 0
M  V30 5932 C 554.772 1.60798 -0.00886317 0
M  V30 5933 O 555.962 1.72384 -0.250865 0
M  V30 5934 C 553.094 3.35543 -0.601965 0
M  V30 5935 H 554.287 2.22372 -2.01223 0
M  V30 5936 H 551.84 1.13344 -1.07623 0
M  V30 5937 H 552.575 3.22323 0.357584 0
M  V30 5938 H 552.36 3.67854 -1.35743 0
M  V30 5939 H 553.85 4.14769 -0.485454 0
M  V30 5940 N 554.287 1.06798 1.15896 0
M  V30 5941 C 555.237 0.653213 2.18443 0
M  V30 5942 C 556.221 -0.318763 1.57711 0
M  V30 5943 O 557.413 -0.133388 1.76497 0
M  V30 5944 C 554.542 0.0465785 3.43268 0
M  V30 5945 C 553.628 1.04336 4.11066 0
M  V30 5946 N 554.019 2.22084 4.54436 0
M  V30 5947 C 552.317 0.875433 4.37324 0
M  V30 5948 C 553.018 2.85276 5.06944 0
M  V30 5949 N 551.994 2.12973 5.00143 0
M  V30 5950 H 555.796 1.55011 2.49698 0
M  V30 5951 H 553.31 0.940384 1.32403 0
M  V30 5952 H 555.307 -0.26843 4.16035 0
M  V30 5953 H 553.967 -0.845504 3.13499 0
M  V30 5954 H 554.978 2.59833 4.48004 0
M  V30 5955 H 551.655 0.0357721 4.17485 0
M  V30 5956 H 553.045 3.85223 5.50503 0
M  V30 5957 N 555.766 -1.3263 0.851289 0
M  V30 5958 C 556.996 -2.01271 0.466222 0
M  V30 5959 C 557.404 -1.64156 -0.940714 0
M  V30 5960 O 556.747 -0.857109 -1.62479 0
M  V30 5961 C 556.809 -3.55695 0.521672 0
M  V30 5962 C 556.473 -4.16227 1.88691 0
M  V30 5963 C 557.47 -4.34699 2.85189 0
M  V30 5964 C 555.155 -4.52377 2.18313 0
M  V30 5965 C 557.149 -4.88484 4.09465 0
M  V30 5966 C 554.836 -5.05868 3.42843 0
M  V30 5967 C 555.834 -5.23869 4.38235 0
M  V30 5968 O 555.522 -5.76218 5.6056 0
M  V30 5969 H 555.254 -0.651034 0.18202 0
M  V30 5970 H 557.808 -1.7026 1.14894 0
M  V30 5971 H 556.038 -3.86086 -0.217888 0
M  V30 5972 H 557.727 -4.05613 0.152682 0
M  V30 5973 H 558.493 -4.07107 2.63607 0
M  V30 5974 H 554.372 -4.37652 1.44851 0
M  V30 5975 H 557.916 -5.02451 4.83931 0
M  V30 5976 H 553.813 -5.32891 3.64277 0
M  V30 5977 H 554.581 -5.94616 5.62471 0
M  V30 5978 N 557.244 -0.608902 -1.45362 0
M  V30 5979 C 558.655 -0.189511 -1.85736 0
M  V30 5980 C 559.006 1.2539 -1.50903 0
M  V30 5981 O 558.131 1.95094 -0.936347 0
M  V30 5982 C 558.726 -0.33716 -3.37118 0
M  V30 5983 C 557.285 0.0275487 -3.7639 0
M  V30 5984 C 556.432 -0.660983 -2.69307 0
M  V30 5985 H 559.383 -0.815499 -1.36144 0
M  V30 5986 H 559.404 0.430257 -3.7806 0
M  V30 5987 H 558.916 -1.38779 -3.62439 0
M  V30 5988 H 557.017 1.0773 -3.56686 0
M  V30 5989 H 557.13 -0.367018 -4.77692 0
M  V30 5990 H 555.494 -0.0984958 -2.54509 0
M  V30 5991 H 556.277 -1.71377 -2.97464 0
M  V30 5992 N 558.722 1.53707 -0.348139 0
M  V30 5993 C 559.67 2.26671 0.521808 0
M  V30 5994 C 560.664 1.28988 1.09811 0
M  V30 5995 O 561.87 1.4668 1.04332 0
M  V30 5996 H 558.245 0.728387 0.186968 0
M  V30 5997 H 560.216 2.98176 -0.115563 0
M  V30 5998 C 558.965 3.05591 1.6586 0
M  V30 5999 H 558.288 3.80589 1.22443 0
M  V30 6000 H 559.728 3.59851 2.24239 0
M  V30 6001 C 558.187 2.15366 2.59073 0
M  V30 6002 O 558.717 1.7528 3.61441 0
M  V30 6003 N 556.923 1.80352 2.27863 0
M  V30 6004 H 556.47 2.13149 1.44656 0
M  V30 6005 H 556.428 1.20268 2.90488 0
M  V30 6006 N 560.2 0.0768682 1.57412 0
M  V30 6007 C 561.477 -0.632359 1.85096 0
M  V30 6008 C 561.857 -1.87479 0.9703 0
M  V30 6009 O 561.205 -2.28469 0.0379062 0
M  V30 6010 C 561.415 -0.965174 3.35388 0
M  V30 6011 C 562.763 -1.33648 4.03018 0
M  V30 6012 O 563.787 -1.05675 3.40164 0
M  V30 6013 O 562.646 -1.85959 5.13889 0
M  V30 6014 H 559.74 -0.314574 0.764835 0
M  V30 6015 H 562.286 0.108184 1.69355 0
M  V30 6016 H 561.058 -0.0829745 3.91212 0
M  V30 6017 H 560.681 -1.76231 3.5641 0
M  V30 6018 N 561.678 -1.56367 -0.196722 0
M  V30 6019 C 563.089 -1.70462 -0.761545 0
M  V30 6020 C 563.44 -0.683161 -1.83922 0
M  V30 6021 O 562.565 0.160753 -2.15802 0
M  V30 6022 C 563.16 -3.09057 -1.38814 0
M  V30 6023 C 561.719 -3.24922 -1.90007 0
M  V30 6024 C 560.866 -2.66412 -0.769399 0
M  V30 6025 H 563.817 -1.58675 0.0283263 0
M  V30 6026 H 563.838 -3.06296 -2.2575 0
M  V30 6027 H 563.35 -3.83378 -0.603559 0
M  V30 6028 H 561.451 -2.55514 -2.71189 0
M  V30 6029 H 561.564 -4.3241 -2.06297 0
M  V30 6030 H 559.928 -2.25546 -1.18326 0
M  V30 6031 H 560.711 -3.433 0.00291773 0
M  V30 6032 N 563.156 0.464375 -1.50603 0
M  V30 6033 C 564.572 0.798684 -1.38178 0
M  V30 6034 C 564.772 1.96568 -0.44308 0
M  V30 6035 O 563.828 2.52252 0.111814 0
M  V30 6036 C 565.141 1.10444 -2.79683 0
M  V30 6037 C 566.689 1.2105 -2.88645 0
M  V30 6038 C 567.164 1.54934 -4.30998 0
M  V30 6039 N 568.655 1.61913 -4.3398 0
M  V30 6040 C 569.39 1.8965 -5.41129 0
M  V30 6041 N 568.886 2.15361 -6.58477 0
M  V30 6042 N 570.679 1.91207 -5.28579 0
M  V30 6043 H 562.83 -0.304603 -2.10204 0
M  V30 6044 H 565.093 -0.0737804 -0.945125 0
M  V30 6045 H 564.799 0.319934 -3.50242 0
M  V30 6046 H 564.673 2.03896 -3.17342 0
M  V30 6047 H 567.06 1.98567 -2.18301 0
M  V30 6048 H 567.141 0.255613 -2.5452 0
M  V30 6049 H 566.785 0.779549 -5.01882 0
M  V30 6050 H 566.715 2.51584 -4.62615 0
M  V30 6051 H 569.206 1.44055 -3.49366 0
M  V30 6052 H 569.519 2.35818 -7.35941 0
M  V30 6053 H 567.864 2.1274 -6.6164 0
M  V30 6054 H 571.055 1.70622 -4.35897 0
M  V30 6055 H 571.228 2.12488 -6.12171 0
M  V30 6056 N 564.634 1.40294 0.718013 0
M  V30 6057 C 565.881 1.3844 1.47786 0
M  V30 6058 C 566.209 -0.0140838 1.94495 0
M  V30 6059 O 565.464 -0.998165 1.68331 0
M  V30 6060 C 565.763 2.31814 2.72024 0
M  V30 6061 C 565.429 3.79117 2.44093 0
M  V30 6062 C 564.091 4.19249 2.36185 0
M  V30 6063 C 566.443 4.72212 2.20602 0
M  V30 6064 C 563.771 5.50516 2.02851 0
M  V30 6065 C 566.123 6.03775 1.88781 0
M  V30 6066 C 564.787 6.42953 1.79354 0
M  V30 6067 H 564.057 0.506588 0.540786 0
M  V30 6068 H 566.704 1.72929 0.822663 0
M  V30 6069 H 565.009 1.90501 3.42369 0
M  V30 6070 H 566.706 2.27664 3.30106 0
M  V30 6071 H 563.296 3.47318 2.51133 0
M  V30 6072 H 567.48 4.42026 2.25669 0
M  V30 6073 H 562.736 5.79776 1.94088 0
M  V30 6074 H 566.91 6.75428 1.69617 0
M  V30 6075 H 564.537 7.44584 1.53291 0
M  V30 6076 N 566.112 -0.949982 1.2575 0
M  V30 6077 C 567.342 -1.72721 1.13363 0
M  V30 6078 C 567.75 -1.86562 -0.314842 0
M  V30 6079 O 567.093 -1.36621 -1.22803 0
M  V30 6080 C 567.155 -3.15695 1.7198 0
M  V30 6081 C 566.819 -3.25268 3.21014 0
M  V30 6082 C 567.816 -3.09222 4.17945 0
M  V30 6083 C 565.501 -3.4894 3.61312 0
M  V30 6084 C 567.495 -3.16701 5.53154 0
M  V30 6085 C 565.182 -3.56055 4.96657 0
M  V30 6086 C 566.18 -3.3995 5.92387 0
M  V30 6087 O 565.868 -3.46757 7.25269 0
M  V30 6088 H 565.6 -0.547888 0.395973 0
M  V30 6089 H 568.154 -1.20009 1.66694 0
M  V30 6090 H 566.384 -3.69791 1.13101 0
M  V30 6091 H 568.073 -3.75295 1.54624 0
M  V30 6092 H 568.839 -2.90798 3.88151 0
M  V30 6093 H 564.718 -3.60534 2.87291 0
M  V30 6094 H 568.262 -3.04048 6.27854 0
M  V30 6095 H 564.159 -3.73997 5.26115 0
M  V30 6096 H 564.927 -3.63358 7.33426 0
M  V30 6097 N 567.59 -1.07411 -1.15328 0
M  V30 6098 C 568.5 -0.706438 -2.23711 0
M  V30 6099 C 569.516 0.282586 -1.7169 0
M  V30 6100 O 570.692 0.129066 -2.00986 0
M  V30 6101 C 567.757 -0.11048 -3.46524 0
M  V30 6102 C 566.818 -1.15282 -4.13532 0
M  V30 6103 C 566.051 -0.585205 -5.30482 0
M  V30 6104 O 566.274 0.598549 -5.67251 0
M  V30 6105 O 565.208 -1.33039 -5.87013 0
M  V30 6106 H 569.034 -1.61031 -2.57493 0
M  V30 6107 H 566.619 -0.847113 -1.23062 0
M  V30 6108 H 568.501 0.21957 -4.20828 0
M  V30 6109 H 567.176 0.766703 -3.14489 0
M  V30 6110 H 566.083 -1.53523 -3.41147 0
M  V30 6111 H 567.416 -2.00192 -4.49649 0
M  V30 6112 N 569.068 1.32177 -0.85831 0
M  V30 6113 C 569.998 2.31282 -0.321041 0
M  V30 6114 C 570.979 1.59841 0.581786 0
M  V30 6115 O 572.164 1.87619 0.501262 0
M  V30 6116 C 569.294 3.4385 0.48832 0
M  V30 6117 C 568.248 4.26799 -0.320391 0
M  V30 6118 C 567.574 5.31164 0.613934 0
M  V30 6119 C 568.874 4.98829 -1.54813 0
M  V30 6120 H 570.568 2.76469 -1.14915 0
M  V30 6121 H 568.114 1.32916 -0.554028 0
M  V30 6122 H 570.067 4.12224 0.874626 0
M  V30 6123 H 568.791 2.97401 1.34983 0
M  V30 6124 H 567.45 3.60077 -0.688497 0
M  V30 6125 H 567.098 4.80967 1.47239 0
M  V30 6126 H 566.798 5.8755 0.0768097 0
M  V30 6127 H 568.322 6.024 0.997336 0
M  V30 6128 H 569.736 5.59864 -1.23392 0
M  V30 6129 H 568.133 5.64957 -2.02346 0
M  V30 6130 H 569.203 4.26483 -2.30739 0
M  V30 6131 N 570.547 0.616602 1.45037 0
M  V30 6132 C 571.787 0.118453 2.04056 0
M  V30 6133 C 572.151 -1.23104 1.47341 0
M  V30 6134 O 573.352 -1.82044 1.97771 0
M  V30 6135 C 571.623 0.0892842 3.57288 0
M  V30 6136 S 573.182 -0.346361 4.37431 0
M  V30 6137 H 570 0.0539728 0.708948 0
M  V30 6138 H 572.602 0.816731 1.77623 0
M  V30 6139 H 571.306 1.07481 3.96076 0
M  V30 6140 H 570.837 -0.630703 3.88311 0
M  V30 6141 H 572.852 -1.59389 4.69904 0
M  V30 6142 N 572.025 -1.5352 0.356285 0
M  V30 6143 C 573.302 -1.93405 -0.292223 0
M  V30 6144 C 573.682 -1.28901 -1.67176 0
M  V30 6145 O 573.03 -0.444632 -2.24132 0
M  V30 6146 C 573.24 -3.47223 -0.35175 0
M  V30 6147 C 574.588 -4.20389 -0.596534 0
M  V30 6148 O 575.612 -3.53554 -0.433344 0
M  V30 6149 O 574.471 -5.3881 -0.913589 0
M  V30 6150 H 571.565 -0.808666 -0.173172 0
M  V30 6151 H 574.111 -1.64713 0.408391 0
M  V30 6152 H 572.883 -3.86423 0.615841 0
M  V30 6153 H 572.506 -3.8212 -1.09864 0
M  V30 6154 N 573.503 -0.0852151 -1.57369 0
M  V30 6155 C 574.752 0.580443 -1.93168 0
M  V30 6156 C 575.065 1.6995 -0.968319 0
M  V30 6157 O 576.271 2.42564 -1.21963 0
M  V30 6158 C 574.727 1.08386 -3.43192 0
M  V30 6159 C 574.335 -0.00491388 -4.48 0
M  V30 6160 C 576.079 1.72281 -3.87968 0
M  V30 6161 C 573.986 0.513299 -5.89168 0
M  V30 6162 H 572.916 0.22059 -0.72101 0
M  V30 6163 H 575.567 -0.159621 -1.82804 0
M  V30 6164 H 573.949 1.8773 -3.48674 0
M  V30 6165 H 575.123 -0.780032 -4.5415 0
M  V30 6166 H 573.438 -0.548453 -4.12772 0
M  V30 6167 H 576.035 2.12108 -4.9083 0
M  V30 6168 H 576.378 2.58811 -3.26071 0
M  V30 6169 H 576.911 0.995359 -3.85146 0
M  V30 6170 H 573.65 -0.315153 -6.54742 0
M  V30 6171 H 573.17 1.25564 -5.8651 0
M  V30 6172 H 574.849 0.985433 -6.39451 0
M  V30 6173 N 574.981 1.5647 0.188427 0
M  V30 6174 C 576.211 1.84863 0.922463 0
M  V30 6175 C 576.619 0.666413 1.77075 0
M  V30 6176 O 575.962 -0.374044 1.79852 0
M  V30 6177 C 576.024 3.07447 1.86324 0
M  V30 6178 C 575.688 4.41066 1.19625 0
M  V30 6179 C 576.685 5.16767 0.569946 0
M  V30 6180 C 574.37 4.87802 1.19811 0
M  V30 6181 C 576.364 6.37384 -0.045594 0
M  V30 6182 C 574.051 6.08353 0.57874 0
M  V30 6183 C 575.049 6.82987 -0.0420259 0
M  V30 6184 O 574.737 8.01254 -0.651675 0
M  V30 6185 H 574.469 0.61784 0.274316 0
M  V30 6186 H 577.023 2.04437 0.198613 0
M  V30 6187 H 575.253 2.83774 2.62696 0
M  V30 6188 H 576.942 3.2243 2.46564 0
M  V30 6189 H 577.708 4.81749 0.560601 0
M  V30 6190 H 573.587 4.29662 1.67069 0
M  V30 6191 H 577.131 6.95578 -0.530731 0
M  V30 6192 H 573.028 6.42838 0.58561 0
M  V30 6193 H 573.796 8.16655 -0.549236 0
M  V30 6194 N 576.459 -0.456382 1.50847 0
M  V30 6195 C 577.707 -1.20497 1.62249 0
M  V30 6196 C 578.028 -1.92156 0.331839 0
M  V30 6197 O 577.298 -1.84751 -0.651443 0
M  V30 6198 H 575.878 -0.447775 0.597918 0
M  V30 6199 H 578.54 -0.525099 1.87693 0
M  V30 6200 H 577.636 -1.94492 2.44089 0
M  V30 6201 N 577.937 -1.40673 -0.710563 0
M  V30 6202 C 578.867 -1.44095 -1.83736 0
M  V30 6203 C 579.848 -0.301286 -1.67411 0
M  V30 6204 O 581.033 -0.510618 -1.87367 0
M  V30 6205 C 578.163 -1.30773 -3.21738 0
M  V30 6206 C 577.117 -2.42395 -3.52745 0
M  V30 6207 C 576.443 -2.14147 -4.89944 0
M  V30 6208 C 577.743 -3.84738 -3.53234 0
M  V30 6209 H 579.437 -2.38396 -1.81129 0
M  V30 6210 H 576.983 -1.14746 -0.870017 0
M  V30 6211 H 578.936 -1.31783 -4.00264 0
M  V30 6212 H 577.66 -0.329507 -3.24934 0
M  V30 6213 H 576.319 -2.40643 -2.76562 0
M  V30 6214 H 575.967 -1.14703 -4.89747 0
M  V30 6215 H 575.667 -2.88934 -5.11655 0
M  V30 6216 H 577.191 -2.16848 -5.70797 0
M  V30 6217 H 578.605 -3.88286 -4.2179 0
M  V30 6218 H 577.002 -4.59085 -3.86473 0
M  V30 6219 H 578.072 -4.13962 -2.52514 0
M  V30 6220 N 579.415 0.9433 -1.26252 0
M  V30 6221 C 580.662 1.68925 -1.11672 0
M  V30 6222 C 580.99 1.91499 0.340329 0
M  V30 6223 O 580.245 1.49189 1.26653 0
M  V30 6224 C 580.544 3.07073 -1.82868 0
M  V30 6225 C 580.21 3.04262 -3.32769 0
M  V30 6226 C 578.872 3.03203 -3.7366 0
M  V30 6227 C 581.224 2.96729 -4.28487 0
M  V30 6228 C 578.552 2.92373 -5.0866 0
M  V30 6229 C 580.904 2.87442 -5.63525 0
M  V30 6230 C 579.568 2.84724 -6.03729 0
M  V30 6231 H 578.838 0.618141 -0.408635 0
M  V30 6232 H 581.485 1.10124 -1.56668 0
M  V30 6233 H 579.79 3.69486 -1.30335 0
M  V30 6234 H 581.487 3.63635 -1.69029 0
M  V30 6235 H 578.077 3.05865 -3.00241 0
M  V30 6236 H 582.261 2.96658 -3.97879 0
M  V30 6237 H 577.517 2.88645 -5.38975 0
M  V30 6238 H 581.691 2.80576 -6.37377 0
M  V30 6239 H 579.318 2.76089 -7.08293 0
M  V30 6240 N 580.893 1.08022 1.14757 0
M  V30 6241 C 582.139 0.808705 1.85978 0
M  V30 6242 C 582.472 -0.663764 1.82504 0
M  V30 6243 O 581.747 -1.48765 1.25296 0
M  V30 6244 C 582.03 1.32623 3.34788 0
M  V30 6245 C 581.883 2.86375 3.46856 0
M  V30 6246 C 583.202 0.948291 4.29762 0
M  V30 6247 H 580.321 0.295244 0.675278 0
M  V30 6248 H 582.963 1.33917 1.34783 0
M  V30 6249 H 581.113 0.875002 3.78518 0
M  V30 6250 H 582.785 3.39839 3.11941 0
M  V30 6251 H 581.028 3.24232 2.88194 0
M  V30 6252 H 581.699 3.17658 4.51439 0
M  V30 6253 H 584.175 1.33722 3.94028 0
M  V30 6254 H 583.051 1.33765 5.32352 0
M  V30 6255 H 583.312 -0.145094 4.41862 0
M  V30 6256 N 582.371 -1.3172 0.865308 0
M  V30 6257 C 583.304 -2.26687 0.262376 0
M  V30 6258 C 584.282 -1.50894 -0.605787 0
M  V30 6259 O 585.466 -1.79982 -0.56024 0
M  V30 6260 C 582.593 -3.3281 -0.628915 0
M  V30 6261 C 581.639 -4.26172 0.167278 0
M  V30 6262 S 582.472 -5.12797 1.54272 0
M  V30 6263 C 583.628 -6.22438 0.657427 0
M  V30 6264 H 583.861 -2.77478 1.0674 0
M  V30 6265 H 581.394 -1.39414 0.663555 0
M  V30 6266 H 583.352 -3.94426 -1.13747 0
M  V30 6267 H 582.013 -2.80782 -1.40785 0
M  V30 6268 H 581.206 -5.01392 -0.51203 0
M  V30 6269 H 580.808 -3.69029 0.607777 0
M  V30 6270 H 583.1 -6.77368 -0.133925 0
M  V30 6271 H 584.043 -6.9451 1.38061 0
M  V30 6272 H 584.451 -5.64043 0.227044 0
M  V30 6273 N 583.85 -0.624285 -1.44708 0
M  V30 6274 C 584.812 0.0749638 -2.29077 0
M  V30 6275 C 585.812 0.778965 -1.40673 0
M  V30 6276 O 587.003 0.624591 -1.62618 0
M  V30 6277 C 584.135 1.11663 -3.22094 0
M  V30 6278 H 585.327 -0.667013 -2.92388 0
M  V30 6279 H 582.88 -0.384098 -1.51507 0
M  V30 6280 H 583.615 1.88881 -2.63618 0
M  V30 6281 H 583.401 0.61583 -3.87234 0
M  V30 6282 H 584.891 1.60585 -3.8549 0
M  V30 6283 N 585.328 1.53329 -0.364422 0
M  V30 6284 C 586.238 2.29414 0.490552 0
M  V30 6285 C 587.254 1.35335 1.09363 0
M  V30 6286 O 588.43 1.68391 1.10483 0
M  V30 6287 C 585.495 3.06772 1.61529 0
M  V30 6288 C 584.556 4.16516 1.03986 0
M  V30 6289 C 583.789 4.90176 2.111 0
M  V30 6290 O 584.012 4.63687 3.32191 0
M  V30 6291 O 582.946 5.76134 1.74222 0
M  V30 6292 H 586.772 3.03428 -0.12856 0
M  V30 6293 H 584.357 1.48843 -0.128837 0
M  V30 6294 H 586.239 3.55082 2.26924 0
M  V30 6295 H 584.914 2.35596 2.21983 0
M  V30 6296 H 583.821 3.7246 0.349856 0
M  V30 6297 H 585.154 4.89855 0.4799 0
M  V30 6298 N 586.806 0.0935595 1.57322 0
M  V30 6299 C 588.034 -0.578934 1.98635 0
M  V30 6300 C 588.449 -1.61819 0.972626 0
M  V30 6301 O 587.806 -1.82461 -0.0379638 0
M  V30 6302 C 587.857 -1.22802 3.40003 0
M  V30 6303 O 587.578 -0.230334 4.37494 0
M  V30 6304 C 589.079 -1.98627 3.96311 0
M  V30 6305 H 586.299 -0.155324 0.652775 0
M  V30 6306 H 588.843 0.172393 2.03772 0
M  V30 6307 H 586.998 -1.93029 3.35885 0
M  V30 6308 H 587.412 -0.698649 5.19826 0
M  V30 6309 H 588.886 -2.39405 4.97382 0
M  V30 6310 H 589.363 -2.85151 3.34044 0
M  V30 6311 H 589.969 -1.3322 4.03897 0
M  V30 6312 N 588.284 -1.56567 -0.180126 0
M  V30 6313 C 589.561 -1.7235 -0.924931 0
M  V30 6314 C 589.941 -0.652523 -2.00762 0
M  V30 6315 O 589.289 0.334115 -2.26044 0
M  V30 6316 C 589.499 -3.1523 -1.49771 0
M  V30 6317 C 590.847 -3.75921 -1.97405 0
M  V30 6318 O 591.871 -3.18452 -1.59583 0
M  V30 6319 O 590.73 -4.7681 -2.67048 0
M  V30 6320 H 587.824 -0.703502 -0.434758 0
M  V30 6321 H 590.37 -1.6886 -0.168647 0
M  V30 6322 H 589.142 -3.84656 -0.718027 0
M  V30 6323 H 588.765 -3.23009 -2.31842 0
M  V30 6324 N 589.762 0.448376 -1.51087 0
M  V30 6325 C 591.008 1.20049 -1.6345 0
M  V30 6326 C 591.341 1.91121 -0.344444 0
M  V30 6327 O 590.616 1.83125 0.655396 0
M  V30 6328 C 590.899 2.22624 -2.83038 0
M  V30 6329 C 590.752 1.55708 -4.21989 0
M  V30 6330 C 592.071 3.23718 -2.98152 0
M  V30 6331 H 589.19 0.435085 -0.59487 0
M  V30 6332 H 591.832 0.491183 -1.83541 0
M  V30 6333 H 589.982 2.83117 -2.66039 0
M  V30 6334 H 591.654 0.986367 -4.50631 0
M  V30 6335 H 589.897 0.859647 -4.25197 0
M  V30 6336 H 590.568 2.30357 -5.01637 0
M  V30 6337 H 593.044 2.73269 -3.13788 0
M  V30 6338 H 591.92 3.92795 -3.83411 0
M  V30 6339 H 592.181 3.89179 -2.09743 0
M  V30 6340 N 591.24 1.41047 0.703093 0
M  V30 6341 C 592.15 1.44645 1.84703 0
M  V30 6342 C 593.166 0.337778 1.7069 0
M  V30 6343 O 594.342 0.584327 1.92737 0
M  V30 6344 C 591.407 1.31928 3.20618 0
M  V30 6345 C 590.468 2.53047 3.46794 0
M  V30 6346 C 589.701 2.40927 4.76224 0
M  V30 6347 O 589.924 1.42978 5.5219 0
M  V30 6348 O 588.858 3.30543 5.03016 0
M  V30 6349 H 592.684 2.41139 1.84624 0
M  V30 6350 H 590.269 1.22504 0.855167 0
M  V30 6351 H 592.151 1.27092 4.01778 0
M  V30 6352 H 590.826 0.385469 3.21397 0
M  V30 6353 H 589.733 2.6346 2.65593 0
M  V30 6354 H 591.066 3.45231 3.50822 0
M  V30 6355 N 592.718 -0.936591 1.26751 0
M  V30 6356 C 593.943 -1.72288 1.15462 0
M  V30 6357 C 594.368 -1.85915 -0.285887 0
M  V30 6358 O 593.726 -1.35272 -1.20711 0
M  V30 6359 C 593.774 -3.10503 1.83359 0
M  V30 6360 O 592.878 -3.96745 1.1255 0
M  V30 6361 H 592.219 -0.52843 0.402067 0
M  V30 6362 H 594.749 -1.17271 1.67656 0
M  V30 6363 H 594.759 -3.60867 1.90365 0
M  V30 6364 H 593.434 -2.99901 2.88153 0
M  V30 6365 H 592.011 -3.55191 1.13551 0
M  V30 6366 N 594.196 -1.08629 -1.14182 0
M  V30 6367 C 595.146 -0.687882 -2.17376 0
M  V30 6368 C 596.13 0.293632 -1.58198 0
M  V30 6369 O 597.322 0.105292 -1.76687 0
M  V30 6370 C 594.451 -0.101184 -3.43151 0
M  V30 6371 C 593.537 -1.10862 -4.09354 0
M  V30 6372 N 593.928 -2.29285 -4.50846 0
M  V30 6373 C 592.226 -0.944897 -4.35876 0
M  V30 6374 C 592.927 -2.93305 -5.02342 0
M  V30 6375 N 591.903 -2.20903 -4.96692 0
M  V30 6376 H 595.705 -1.58963 -2.472 0
M  V30 6377 H 593.219 -0.961329 -1.3089 0
M  V30 6378 H 595.216 0.202209 -4.16409 0
M  V30 6379 H 593.876 0.795522 -3.14804 0
M  V30 6380 H 594.887 -2.66927 -4.43813 0
M  V30 6381 H 591.564 -0.102186 -4.17375 0
M  V30 6382 H 592.954 -3.93932 -5.44304 0
M  V30 6383 N 595.674 1.31259 -0.872281 0
M  V30 6384 C 596.922 1.96233 -0.483409 0
M  V30 6385 C 597.243 1.69276 0.968012 0
M  V30 6386 O 596.513 1.00943 1.67891 0
M  V30 6387 H 595.093 0.726025 -0.175774 0
M  V30 6388 H 597.755 1.60024 -1.11258 0
M  V30 6389 H 596.851 3.05403 -0.643075 0
M  V30 6390 N 597.152 0.631951 1.44375 0
M  V30 6391 C 598.399 0.136767 2.02038 0
M  V30 6392 C 598.727 -1.24168 1.49709 0
M  V30 6393 O 597.982 -1.83809 0.671763 0
M  V30 6394 C 598.281 0.0735861 3.57324 0
M  V30 6395 C 597.947 1.39092 4.28911 0
M  V30 6396 C 596.609 1.75171 4.48184 0
M  V30 6397 C 598.961 2.26042 4.69632 0
M  V30 6398 C 596.289 2.97907 5.05439 0
M  V30 6399 C 598.641 3.4805 5.28246 0
M  V30 6400 C 597.305 3.84351 5.45738 0
M  V30 6401 H 596.575 0.0500466 0.739308 0
M  V30 6402 H 599.222 0.818429 1.7313 0
M  V30 6403 H 597.527 -0.691449 3.8565 0
M  V30 6404 H 599.224 -0.326091 3.99672 0
M  V30 6405 H 595.814 1.10015 4.1424 0
M  V30 6406 H 599.998 1.99463 4.54454 0
M  V30 6407 H 595.254 3.26108 5.17169 0
M  V30 6408 H 599.428 4.15658 5.5875 0
M  V30 6409 H 597.055 4.79538 5.8987 0
M  V30 6410 N 598.631 -1.53133 0.372548 0
M  V30 6411 C 599.594 -2.24569 -0.458389 0
M  V30 6412 C 600.594 -1.25603 -1.00402 0
M  V30 6413 O 601.784 -1.49827 -0.888672 0
M  V30 6414 C 598.916 -2.98783 -1.6414 0
M  V30 6415 H 600.109 -2.99436 0.166799 0
M  V30 6416 H 597.662 -1.55805 0.124357 0
M  V30 6417 H 598.397 -2.28176 -2.30448 0
M  V30 6418 H 598.182 -3.71404 -1.25704 0
M  V30 6419 H 599.672 -3.53068 -2.23008 0
M  V30 6420 N 600.109 -0.101901 -1.5727 0
M  V30 6421 C 601.057 0.872034 -2.15635 0
M  V30 6422 C 602.051 1.28742 -1.10099 0
M  V30 6423 O 603.257 1.26116 -1.28432 0
M  V30 6424 H 599.632 0.299269 -0.689886 0
M  V30 6425 H 601.603 0.355137 -2.96279 0
M  V30 6426 C 600.352 2.11886 -2.7568 0
M  V30 6427 H 599.675 1.80813 -3.56576 0
M  V30 6428 H 601.115 2.78077 -3.20077 0
M  V30 6429 C 599.574 2.89739 -1.7191 0
M  V30 6430 O 600.104 3.84522 -1.16213 0
M  V30 6431 N 598.31 2.53407 -1.42245 0
M  V30 6432 H 597.857 1.76398 -1.87727 0
M  V30 6433 H 597.815 3.05795 -0.730529 0
M  V30 6434 N 601.587 1.56661 0.17182 0
M  V30 6435 C 602.833 1.82235 0.889845 0
M  V30 6436 C 603.166 0.679673 1.81918 0
M  V30 6437 O 602.441 -0.318404 1.91876 0
M  V30 6438 C 602.724 3.18195 1.68595 0
M  V30 6439 C 602.577 4.42989 0.779773 0
M  V30 6440 C 603.896 3.5109 2.65375 0
M  V30 6441 H 601.015 0.66291 0.322056 0
M  V30 6442 H 603.657 1.89358 0.15608 0
M  V30 6443 H 601.807 3.12253 2.3115 0
M  V30 6444 H 603.479 4.60997 0.16714 0
M  V30 6445 H 601.722 4.33711 0.0877964 0
M  V30 6446 H 602.393 5.3467 1.3723 0
M  V30 6447 H 604.869 3.57482 2.12946 0
M  V30 6448 H 603.745 4.47298 3.18144 0
M  V30 6449 H 604.006 2.75768 3.45549 0
M  V30 6450 N 603.065 -0.440357 1.51323 0
M  V30 6451 C 604.313 -1.18769 1.63518 0
M  V30 6452 C 604.634 -1.91793 0.352201 0
M  V30 6453 O 603.904 -1.85432 -0.631811 0
M  V30 6454 H 602.484 -0.441408 0.602634 0
M  V30 6455 H 605.146 -0.505162 1.8824 0
M  V30 6456 H 604.242 -1.91892 2.46138 0
M  V30 6457 N 604.543 -1.41418 -0.695603 0
M  V30 6458 C 605.82 -1.31264 -1.45014 0
M  V30 6459 C 606.2 0.0597994 -2.11015 0
M  V30 6460 O 605.548 1.07403 -2.01685 0
M  V30 6461 C 605.758 -2.466 -2.4696 0
M  V30 6462 C 607.106 -2.87763 -3.12214 0
M  V30 6463 O 608.13 -2.46339 -2.57285 0
M  V30 6464 O 606.989 -3.59395 -4.11701 0
M  V30 6465 H 604.083 -0.516576 -0.645816 0
M  V30 6466 H 606.629 -1.53382 -0.726084 0
M  V30 6467 H 605.401 -3.38183 -1.96845 0
M  V30 6468 H 605.024 -2.26358 -3.26876 0
M  V30 6469 N 606.021 0.929856 -1.27246 0
M  V30 6470 C 607.27 1.67182 -1.12842 0
M  V30 6471 C 607.583 1.9287 0.325666 0
M  V30 6472 O 608.789 2.64999 0.590572 0
M  V30 6473 C 607.245 3.01097 -1.97151 0
M  V30 6474 C 606.853 2.83115 -3.47203 0
M  V30 6475 C 608.597 3.78907 -1.91389 0
M  V30 6476 C 606.504 4.12573 -4.23719 0
M  V30 6477 H 605.434 0.627064 -0.418697 0
M  V30 6478 H 608.085 1.0332 -1.51649 0
M  V30 6479 H 606.467 3.66004 -1.51186 0
M  V30 6480 H 607.641 2.26989 -4.01015 0
M  V30 6481 H 605.956 2.18736 -3.54321 0
M  V30 6482 H 608.553 4.74837 -2.45834 0
M  V30 6483 H 608.896 4.0674 -0.887047 0
M  V30 6484 H 609.429 3.20794 -2.35237 0
M  V30 6485 H 606.168 3.8992 -5.26918 0
M  V30 6486 H 605.688 4.68371 -3.74685 0
M  V30 6487 H 607.367 4.8095 -4.32777 0
M  V30 6488 N 607.499 1.09233 1.13605 0
M  V30 6489 C 608.724 0.849067 1.89224 0
M  V30 6490 C 609.149 -0.593875 1.78479 0
M  V30 6491 O 608.507 -1.41703 1.13092 0
M  V30 6492 C 608.555 1.28642 3.36873 0
M  V30 6493 O 607.659 0.44363 4.10007 0
M  V30 6494 H 607 0.30767 0.588417 0
M  V30 6495 H 609.53 1.45595 1.43748 0
M  V30 6496 H 609.54 1.27096 3.87699 0
M  V30 6497 H 608.215 2.33729 3.44011 0
M  V30 6498 H 606.792 0.523241 3.69211 0
M  V30 6499 N 608.977 -1.30795 0.87923 0
M  V30 6500 C 610.393 -1.48981 0.57243 0
M  V30 6501 C 610.593 -1.80719 -0.891236 0
M  V30 6502 O 609.649 -1.89136 -1.67283 0
M  V30 6503 C 610.962 -2.61721 1.48063 0
M  V30 6504 C 612.51 -2.75603 1.48365 0
M  V30 6505 C 612.985 -3.91449 2.37763 0
M  V30 6506 N 614.476 -3.98751 2.35695 0
M  V30 6507 C 615.211 -4.87684 3.01583 0
M  V30 6508 N 614.707 -5.81454 3.76674 0
M  V30 6509 N 616.5 -4.81005 2.90844 0
M  V30 6510 H 608.651 -1.08465 1.82617 0
M  V30 6511 H 610.914 -0.536813 0.781368 0
M  V30 6512 H 610.62 -2.45073 2.52254 0
M  V30 6513 H 610.494 -3.58071 1.18596 0
M  V30 6514 H 612.881 -2.9166 0.44927 0
M  V30 6515 H 612.962 -1.79891 1.81859 0
M  V30 6516 H 612.606 -3.76149 3.41283 0
M  V30 6517 H 612.536 -4.86487 2.01589 0
M  V30 6518 H 615.027 -3.31668 1.81121 0
M  V30 6519 H 615.34 -6.46063 4.24054 0
M  V30 6520 H 613.685 -5.81403 3.80782 0
M  V30 6521 H 616.876 -4.06728 2.31711 0
M  V30 6522 H 617.049 -5.50107 3.42471 0
M  V30 6523 N 610.455 -0.639598 -1.44038 0
M  V30 6524 C 611.704 -0.144885 -2.01179 0
M  V30 6525 C 612.017 1.24372 -1.50967 0
M  V30 6526 O 613.223 1.83291 -2.00292 0
M  V30 6527 C 611.679 -0.208244 -3.59297 0
M  V30 6528 C 611.287 -1.59869 -4.18504 0
M  V30 6529 C 613.031 0.229568 -4.23879 0
M  V30 6530 C 610.938 -1.61671 -5.68873 0
M  V30 6531 H 609.868 -0.0504005 -0.752314 0
M  V30 6532 H 612.519 -0.799639 -1.65161 0
M  V30 6533 H 610.901 0.513767 -3.92653 0
M  V30 6534 H 612.075 -2.34496 -3.96671 0
M  V30 6535 H 610.39 -1.98131 -3.66242 0
M  V30 6536 H 612.987 0.235758 -5.3418 0
M  V30 6537 H 613.33 1.25848 -3.96822 0
M  V30 6538 H 613.863 -0.440233 -3.95357 0
M  V30 6539 H 610.602 -2.62427 -6.00677 0
M  V30 6540 H 610.122 -0.913489 -5.92803 0
M  V30 6541 H 611.801 -1.35439 -6.32665 0
M  V30 6542 N 611.933 1.52934 -0.380664 0
M  V30 6543 C 613.161 2.05886 0.204599 0
M  V30 6544 C 613.576 1.25305 1.41223 0
M  V30 6545 O 612.933 0.297504 1.80059 0
M  V30 6546 C 612.984 3.56764 0.583249 0
M  V30 6547 O 612.705 4.34292 -0.576398 0
M  V30 6548 C 614.206 4.2603 1.2253 0
M  V30 6549 H 611.426 0.670193 0.0328991 0
M  V30 6550 H 613.97 1.97148 -0.543397 0
M  V30 6551 H 612.125 3.65603 1.28115 0
M  V30 6552 H 612.539 5.23819 -0.267119 0
M  V30 6553 H 614.013 5.32868 1.44068 0
M  V30 6554 H 614.49 3.80698 2.19011 0
M  V30 6555 H 615.096 4.21485 0.568407 0
M  V30 6556 N 613.412 0.11024 1.57214 0
M  V30 6557 C 614.689 -0.592956 1.86396 0
M  V30 6558 C 615.069 -1.85379 1.00985 0
M  V30 6559 O 614.417 -2.28337 0.0863592 0
M  V30 6560 C 614.627 -0.893816 3.3736 0
M  V30 6561 C 615.975 -1.25069 4.05762 0
M  V30 6562 O 616.999 -0.984356 3.42329 0
M  V30 6563 O 615.858 -1.75017 5.17718 0
M  V30 6564 H 612.952 -0.29828 0.771335 0
M  V30 6565 H 615.498 0.144083 1.69087 0
M  V30 6566 H 614.27 2.6031e-05 3.913 0
M  V30 6567 H 613.893 -1.68631 3.60068 0
M  V30 6568 N 614.89 -1.56749 -0.16351 0
M  V30 6569 C 616.167 -1.73321 -0.906599 0
M  V30 6570 C 616.547 -0.673779 -2.00059 0
M  V30 6571 O 615.895 0.310121 -2.26386 0
M  V30 6572 C 616.105 -3.168 -1.46419 0
M  V30 6573 C 617.453 -3.77993 -1.93407 0
M  V30 6574 O 618.477 -3.20127 -1.56196 0
M  V30 6575 O 617.336 -4.79615 -2.61976 0
M  V30 6576 H 614.43 -0.708073 -0.427272 0
M  V30 6577 H 616.976 -1.69029 -0.150727 0
M  V30 6578 H 615.748 -3.85396 -0.677189 0
M  V30 6579 H 615.371 -3.2545 -2.28403 0
M  V30 6580 N 616.368 0.432326 -1.51554 0
M  V30 6581 C 617.779 1.01202 -1.56892 0
M  V30 6582 C 618.13 1.92175 -0.395394 0
M  V30 6583 O 617.255 2.10844 0.487198 0
M  V30 6584 C 617.85 1.84217 -2.8434 0
M  V30 6585 C 616.409 2.37228 -2.92233 0
M  V30 6586 C 615.556 1.16576 -2.51606 0
M  V30 6587 H 618.507 0.213407 -1.57259 0
M  V30 6588 H 618.528 2.69721 -2.68385 0
M  V30 6589 H 618.04 1.17979 -3.69733 0
M  V30 6590 H 616.141 3.06905 -2.11282 0
M  V30 6591 H 616.254 2.69682 -3.95991 0
M  V30 6592 H 614.618 1.51263 -2.04919 0
M  V30 6593 H 615.401 0.519404 -3.39348 0
M  V30 6594 N 617.846 1.41785 0.688094 0
M  V30 6595 C 618.778 1.40159 1.81351 0
M  V30 6596 C 619.791 0.30262 1.59963 0
M  V30 6597 O 620.98 0.564841 1.69327 0
M  V30 6598 C 618.08 1.16517 3.1824 0
M  V30 6599 C 617.253 2.38597 3.66593 0
M  V30 6600 C 616.312 2.10699 4.82174 0
M  V30 6601 O 615.338 2.83798 4.93404 0
M  V30 6602 N 616.54 1.10187 5.69947 0
M  V30 6603 H 619.305 2.3716 1.83236 0
M  V30 6604 H 616.866 1.36494 0.870697 0
M  V30 6605 H 618.858 0.957941 3.93199 0
M  V30 6606 H 617.428 0.280873 3.11336 0
M  V30 6607 H 616.648 2.74974 2.82459 0
M  V30 6608 H 617.936 3.19919 3.95638 0
M  V30 6609 H 617.334 0.497016 5.63512 0
M  V30 6610 H 615.891 0.954518 6.44773 0
M  V30 6611 N 619.324 -0.923095 1.27737 0
M  V30 6612 C 620.57 -1.67409 1.15524 0
M  V30 6613 C 620.925 -1.90124 -0.295072 0
M  V30 6614 O 620.218 -1.48382 -1.21216 0
M  V30 6615 C 620.412 -3.04125 1.8773 0
M  V30 6616 C 620.241 -2.94752 3.39634 0
M  V30 6617 C 619.011 -2.96783 4.0896 0
M  V30 6618 C 621.209 -2.73524 4.35533 0
M  V30 6619 N 619.191 -2.779 5.47398 0
M  V30 6620 C 620.562 -2.63391 5.61271 0
M  V30 6621 C 622.617 -2.58447 4.2557 0
M  V30 6622 C 621.32 -2.3972 6.78179 0
M  V30 6623 C 623.346 -2.36154 5.42204 0
M  V30 6624 C 622.708 -2.26768 6.669 0
M  V30 6625 H 618.807 -0.619196 0.477619 0
M  V30 6626 H 621.391 -1.09094 1.61266 0
M  V30 6627 H 619.562 -3.60545 1.44436 0
M  V30 6628 H 621.294 -3.6819 1.67982 0
M  V30 6629 H 618.049 -3.07186 3.60463 0
M  V30 6630 H 618.473 -2.71576 6.20141 0
M  V30 6631 H 623.115 -2.6446 3.2988 0
M  V30 6632 H 620.833 -2.32447 7.73947 0
M  V30 6633 H 624.419 -2.25367 5.36378 0
M  V30 6634 H 623.299 -2.09751 7.55628 0
M  V30 6635 N 620.802 -1.09834 -1.13024 0
M  V30 6636 C 621.712 -0.753731 -2.22162 0
M  V30 6637 C 622.728 0.246105 -1.72251 0
M  V30 6638 O 623.904 0.0864051 -2.01215 0
M  V30 6639 C 620.969 -0.183958 -3.46212 0
M  V30 6640 C 620.03 -1.24028 -4.10993 0
M  V30 6641 C 619.263 -0.697597 -5.29121 0
M  V30 6642 O 619.486 0.478092 -5.68393 0
M  V30 6643 O 618.42 -1.4546 -5.84059 0
M  V30 6644 H 622.246 -1.66456 -2.5402 0
M  V30 6645 H 619.831 -0.873026 -1.21238 0
M  V30 6646 H 621.713 0.130257 -4.21199 0
M  V30 6647 H 620.388 0.699823 -3.16045 0
M  V30 6648 H 619.295 -1.60725 -3.37814 0
M  V30 6649 H 620.628 -2.09685 -4.45301 0
M  V30 6650 N 622.28 1.30327 -0.886154 0
M  V30 6651 C 623.227 2.28099 -0.352069 0
M  V30 6652 C 624.197 1.56433 0.558397 0
M  V30 6653 O 625.382 1.84492 0.486561 0
M  V30 6654 C 622.522 3.42456 0.426346 0
M  V30 6655 C 621.635 4.28938 -0.513472 0
M  V30 6656 C 620.77 5.30458 0.280657 0
M  V30 6657 C 619.809 6.0859 -0.654556 0
M  V30 6658 N 618.946 7.02022 0.104322 0
M  V30 6659 H 623.786 2.73166 -1.19097 0
M  V30 6660 H 621.323 1.34367 -0.598662 0
M  V30 6661 H 623.281 4.07518 0.893587 0
M  V30 6662 H 621.911 2.98455 1.22981 0
M  V30 6663 H 620.963 3.64173 -1.09921 0
M  V30 6664 H 622.275 4.83399 -1.2299 0
M  V30 6665 H 621.429 6.01273 0.8097 0
M  V30 6666 H 620.168 4.76693 1.03029 0
M  V30 6667 H 619.173 5.36651 -1.19522 0
M  V30 6668 H 620.398 6.64443 -1.4033 0
M  V30 6669 H 618.344 6.50645 0.836472 0
M  V30 6670 H 618.261 7.53979 -0.552453 0
M  V30 6671 H 619.529 7.77077 0.614069 0
M  V30 6672 N 623.758 0.647228 1.43697 0
M  V30 6673 C 625.004 0.158422 2.0218 0
M  V30 6674 C 625.337 -1.22233 1.50907 0
M  V30 6675 O 624.612 -1.81478 0.699702 0
M  V30 6676 C 624.895 0.1627 3.59732 0
M  V30 6677 C 624.748 1.57694 4.21251 0
M  V30 6678 C 626.067 -0.504138 4.37203 0
M  V30 6679 H 623.186 0.059042 0.734631 0
M  V30 6680 H 625.828 0.826772 1.71069 0
M  V30 6681 H 623.978 -0.406414 3.86368 0
M  V30 6682 H 625.65 2.19618 4.05667 0
M  V30 6683 H 623.893 2.12603 3.7813 0
M  V30 6684 H 624.564 1.53183 5.3032 0
M  V30 6685 H 627.04 -0.0199841 4.16095 0
M  V30 6686 H 625.916 -0.470394 5.46881 0
M  V30 6687 H 626.177 -1.57726 4.13007 0
M  V30 6688 N 625.236 -1.5273 0.388769 0
M  V30 6689 C 626.466 -2.05693 -0.193397 0
M  V30 6690 C 626.874 -1.26038 -1.41107 0
M  V30 6691 O 626.217 -0.30001 -1.81234 0
M  V30 6692 C 626.279 -3.53962 -0.628561 0
M  V30 6693 C 625.943 -4.54519 0.475576 0
M  V30 6694 C 626.94 -5.02526 1.33281 0
M  V30 6695 C 624.625 -4.98174 0.642453 0
M  V30 6696 C 626.619 -5.92812 2.34205 0
M  V30 6697 C 624.306 -5.88262 1.65503 0
M  V30 6698 C 625.304 -6.35473 2.50325 0
M  V30 6699 O 624.992 -7.23781 3.49852 0
M  V30 6700 H 624.724 -0.675197 -0.0329395 0
M  V30 6701 H 627.278 -1.97835 0.552326 0
M  V30 6702 H 625.508 -3.59437 -1.42625 0
M  V30 6703 H 627.197 -3.89669 -1.13633 0
M  V30 6704 H 627.963 -4.6953 1.21519 0
M  V30 6705 H 623.842 -4.60999 -0.00805093 0
M  V30 6706 H 627.386 -6.29585 3.00447 0
M  V30 6707 H 623.283 -6.20672 1.77304 0
M  V30 6708 H 624.051 -7.4184 3.45855 0
M  V30 6709 N 626.714 -0.118576 -1.57153 0
M  V30 6710 C 627.96 0.540326 -1.95469 0
M  V30 6711 C 628.293 1.66356 -1.00196 0
M  V30 6712 O 627.568 1.94461 -0.039104 0
M  V30 6713 C 627.851 1.07342 -3.43729 0
M  V30 6714 C 627.704 -0.0463732 -4.49776 0
M  V30 6715 C 629.023 1.96442 -3.93826 0
M  V30 6716 H 626.142 0.19494 -0.710751 0
M  V30 6717 H 628.784 -0.19405 -1.89006 0
M  V30 6718 H 626.934 1.69925 -3.49368 0
M  V30 6719 H 628.606 -0.681648 -4.56236 0
M  V30 6720 H 626.849 -0.709574 -4.27957 0
M  V30 6721 H 627.52 0.367856 -5.50773 0
M  V30 6722 H 629.996 1.43731 -3.90488 0
M  V30 6723 H 628.872 2.3066 -4.98084 0
M  V30 6724 H 629.133 2.89077 -3.34495 0
M  V30 6725 N 628.193 1.56834 0.155195 0
M  V30 6726 C 629.103 2.009 1.21146 0
M  V30 6727 C 630.119 0.923029 1.475 0
M  V30 6728 O 631.295 1.23189 1.59331 0
M  V30 6729 C 628.36 2.37378 2.52691 0
M  V30 6730 C 627.421 3.59883 2.34057 0
M  V30 6731 C 626.654 3.94612 3.59329 0
M  V30 6732 O 626.877 3.30104 4.65175 0
M  V30 6733 O 625.811 4.87895 3.52479 0
M  V30 6734 H 629.637 2.9105 0.867371 0
M  V30 6735 H 627.222 1.44916 0.363298 0
M  V30 6736 H 629.104 2.61737 3.3026 0
M  V30 6737 H 627.779 1.50385 2.86646 0
M  V30 6738 H 626.686 3.40722 1.54465 0
M  V30 6739 H 628.019 4.47468 2.0502 0
M  V30 6740 N 629.671 -0.424282 1.51781 0
M  V30 6741 C 631.087 -0.761768 1.40247 0
M  V30 6742 C 631.287 -1.95324 0.495041 0
M  V30 6743 O 630.343 -2.5246 -0.0448949 0
M  V30 6744 C 631.656 -1.0299 2.82513 0
M  V30 6745 C 633.204 -1.13354 2.91753 0
M  V30 6746 C 633.679 -1.43453 4.34954 0
M  V30 6747 N 635.17 -1.5035 4.3812 0
M  V30 6748 C 635.905 -1.75236 5.45967 0
M  V30 6749 N 635.401 -1.97827 6.63955 0
M  V30 6750 N 637.194 -1.77126 5.33463 0
M  V30 6751 H 629.345 0.360228 2.09323 0
M  V30 6752 H 631.608 0.0988128 0.942836 0
M  V30 6753 H 631.314 -0.226961 3.50967 0
M  V30 6754 H 631.188 -1.95411 3.22637 0
M  V30 6755 H 633.575 -1.92709 2.23489 0
M  V30 6756 H 633.656 -0.188041 2.55108 0
M  V30 6757 H 633.3 -0.646209 5.03772 0
M  V30 6758 H 633.23 -2.3923 4.69123 0
M  V30 6759 H 635.721 -1.34742 3.53062 0
M  V30 6760 H 636.034 -2.16223 7.41935 0
M  V30 6761 H 634.379 -1.95123 6.67047 0
M  V30 6762 H 637.57 -1.59005 4.40267 0
M  V30 6763 H 637.743 -1.96182 6.17589 0
M  V30 6764 N 631.149 -1.42148 -0.680565 0
M  V30 6765 C 632.398 -1.41604 -1.43636 0
M  V30 6766 C 632.711 -0.0337887 -1.95571 0
M  V30 6767 O 633.917 0.0942588 -2.71336 0
M  V30 6768 C 632.373 -2.49056 -2.59806 0
M  V30 6769 C 631.981 -3.9326 -2.14594 0
M  V30 6770 C 633.725 -2.5767 -3.37352 0
M  V30 6771 C 631.632 -4.92232 -3.27813 0
M  V30 6772 H 630.562 -0.526656 -0.539583 0
M  V30 6773 H 633.213 -1.68033 -0.737369 0
M  V30 6774 H 631.595 -2.15782 -3.32045 0
M  V30 6775 H 632.769 -4.35858 -1.49546 0
M  V30 6776 H 631.084 -3.88443 -1.50002 0
M  V30 6777 H 633.681 -3.28794 -4.21662 0
M  V30 6778 H 634.024 -1.61837 -3.83555 0
M  V30 6779 H 634.557 -2.90109 -2.72179 0
M  V30 6780 H 631.296 -5.89522 -2.86607 0
M  V30 6781 H 630.816 -4.5427 -3.91661 0
M  V30 6782 H 632.495 -5.13684 -3.93367 0
M  V30 6783 N 632.627 0.916307 -1.28225 0
M  V30 6784 C 633.873 1.66765 -1.154 0
M  V30 6785 C 634.206 1.91912 0.297251 0
M  V30 6786 O 633.481 1.51766 1.21644 0
M  V30 6787 C 633.764 3.02715 -1.95028 0
M  V30 6788 C 633.617 2.84738 -3.48201 0
M  V30 6789 C 634.936 4.03215 -1.76369 0
M  V30 6790 H 632.055 0.605205 -0.42059 0
M  V30 6791 H 634.697 1.06255 -1.57512 0
M  V30 6792 H 632.847 3.54365 -1.59242 0
M  V30 6793 H 634.519 2.40118 -3.9388 0
M  V30 6794 H 632.762 2.19848 -3.73964 0
M  V30 6795 H 633.433 3.8127 -3.99171 0
M  V30 6796 H 635.909 3.60617 -2.07593 0
M  V30 6797 H 634.785 4.96306 -2.34459 0
M  V30 6798 H 635.046 4.36288 -0.71452 0
M  V30 6799 N 634.105 1.10431 1.1244 0
M  V30 6800 C 635.521 0.836096 1.35947 0
M  V30 6801 C 635.721 -0.544475 1.94004 0
M  V30 6802 O 634.777 -1.29735 2.16622 0
M  V30 6803 C 636.09 1.93575 2.30107 0
M  V30 6804 C 637.638 1.9642 2.43697 0
M  V30 6805 C 638.113 3.05559 3.41171 0
M  V30 6806 N 639.604 3.04865 3.48728 0
M  V30 6807 C 640.339 3.85954 4.24061 0
M  V30 6808 N 639.835 4.76977 5.02458 0
M  V30 6809 N 641.628 3.74172 4.19466 0
M  V30 6810 H 633.779 1.9942 0.731124 0
M  V30 6811 H 636.042 0.866607 0.384312 0
M  V30 6812 H 635.748 2.92943 1.94621 0
M  V30 6813 H 635.622 1.8229 3.30227 0
M  V30 6814 H 638.009 0.97685 2.78463 0
M  V30 6815 H 638.09 2.11782 1.43465 0
M  V30 6816 H 637.734 4.04513 3.07135 0
M  V30 6817 H 637.664 2.87438 4.41234 0
M  V30 6818 H 640.155 2.38908 2.92799 0
M  V30 6819 H 640.468 5.35409 5.57277 0
M  V30 6820 H 638.813 4.81006 5.01655 0
M  V30 6821 H 642.004 3.02412 3.57302 0
M  V30 6822 H 642.177 4.37602 4.77921 0
M  V30 6823 N 635.583 -1.29855 0.893053 0
M  V30 6824 C 636.533 -2.25493 0.337211 0
M  V30 6825 C 637.517 -1.51606 -0.53894 0
M  V30 6826 O 638.709 -1.72828 -0.382043 0
M  V30 6827 C 635.838 -3.40467 -0.440117 0
M  V30 6828 C 634.924 -4.217 0.450578 0
M  V30 6829 N 635.315 -4.81312 1.55476 0
M  V30 6830 C 633.613 -4.45315 0.247154 0
M  V30 6831 C 634.314 -5.42241 2.10593 0
M  V30 6832 N 633.29 -5.25267 1.39982 0
M  V30 6833 H 637.092 -2.69137 1.18079 0
M  V30 6834 H 634.606 -1.44388 0.743359 0
M  V30 6835 H 636.603 -4.08038 -0.855021 0
M  V30 6836 H 635.263 -2.98361 -1.28104 0
M  V30 6837 H 636.274 -4.80291 1.93755 0
M  V30 6838 H 632.951 -4.13782 -0.555939 0
M  V30 6839 H 634.341 -5.99517 3.03362 0
M  V30 6840 N 637.061 -0.65484 -1.43351 0
M  V30 6841 C 638.31 -0.166215 -2.01014 0
M  V30 6842 C 638.623 1.22764 -1.52278 0
M  V30 6843 O 639.829 1.81156 -2.02224 0
M  V30 6844 C 638.285 -0.246341 -3.59056 0
M  V30 6845 C 637.893 -1.64299 -4.16785 0
M  V30 6846 C 639.637 0.184597 -4.24098 0
M  V30 6847 C 637.544 -1.67695 -5.67126 0
M  V30 6848 H 636.474 -0.0583769 -0.751737 0
M  V30 6849 H 639.125 -0.817111 -1.64303 0
M  V30 6850 H 637.507 0.472092 -3.93176 0
M  V30 6851 H 638.681 -2.3869 -3.94162 0
M  V30 6852 H 636.996 -2.02004 -3.6412 0
M  V30 6853 H 639.593 0.179088 -5.344 0
M  V30 6854 H 639.936 1.21632 -3.98135 0
M  V30 6855 H 640.469 -0.482141 -3.94867 0
M  V30 6856 H 637.208 -2.68783 -5.9786 0
M  V30 6857 H 636.728 -0.976313 -5.91801 0
M  V30 6858 H 638.407 -1.42142 -6.31193 0
M  V30 6859 N 638.539 1.52521 -0.396863 0
M  V30 6860 C 639.489 2.2348 0.451722 0
M  V30 6861 C 640.473 1.2415 1.0235 0
M  V30 6862 O 641.665 1.4945 0.948348 0
M  V30 6863 C 638.794 3.05067 1.57445 0
M  V30 6864 C 637.88 4.11799 1.01404 0
M  V30 6865 N 638.271 5.05482 0.179234 0
M  V30 6866 C 636.569 4.27064 1.28578 0
M  V30 6867 C 637.27 5.81552 -0.131202 0
M  V30 6868 N 636.246 5.41523 0.474735 0
M  V30 6869 H 640.048 2.93269 -0.192534 0
M  V30 6870 H 637.562 1.61081 -0.206591 0
M  V30 6871 H 639.559 3.54446 2.19485 0
M  V30 6872 H 638.219 2.36816 2.22145 0
M  V30 6873 H 639.23 5.17573 -0.18411 0
M  V30 6874 H 635.907 3.70042 1.93327 0
M  V30 6875 H 637.297 6.67023 -0.808061 0
M  V30 6876 N 640.017 0.126909 1.57088 0
M  V30 6877 C 640.98 -0.806097 2.14557 0
M  V30 6878 C 641.98 -1.18918 1.08236 0
M  V30 6879 O 643.17 -1.11339 1.33975 0
M  V30 6880 C 640.302 -2.09116 2.69227 0
M  V30 6881 H 641.495 -0.306522 2.98329 0
M  V30 6882 H 639.048 -0.122393 1.5582 0
M  V30 6883 H 639.783 -2.63486 1.89065 0
M  V30 6884 H 639.568 -1.82588 3.46993 0
M  V30 6885 H 641.058 -2.75794 3.13572 0
M  V30 6886 N 641.495 -1.56914 -0.146875 0
M  V30 6887 C 642.427 -1.94878 -1.20645 0
M  V30 6888 C 643.44 -0.844633 -1.39175 0
M  V30 6889 O 644.629 -1.12304 -1.38744 0
M  V30 6890 C 641.729 -2.20769 -2.57127 0
M  V30 6891 C 640.902 -3.52053 -2.59572 0
M  V30 6892 C 639.961 -3.66482 -3.77594 0
M  V30 6893 O 638.987 -4.38873 -3.62462 0
M  V30 6894 N 640.189 -3.03156 -4.95052 0
M  V30 6895 H 642.954 -2.86374 -0.883757 0
M  V30 6896 H 640.515 -1.58366 -0.336436 0
M  V30 6897 H 642.507 -2.27664 -3.34591 0
M  V30 6898 H 641.077 -1.35538 -2.81688 0
M  V30 6899 H 640.297 -3.56598 -1.68023 0
M  V30 6900 H 641.585 -4.38396 -2.58238 0
M  V30 6901 H 640.983 -2.44258 -5.10249 0
M  V30 6902 H 639.54 -3.15611 -5.70292 0
M  V30 6903 N 642.974 0.416227 -1.52004 0
M  V30 6904 C 643.921 1.50666 -1.74838 0
M  V30 6905 C 644.891 1.55245 -0.590599 0
M  V30 6906 O 646.076 1.71928 -0.827374 0
M  V30 6907 C 643.216 2.88185 -1.89851 0
M  V30 6908 C 642.329 2.92971 -3.17478 0
M  V30 6909 C 641.464 4.21745 -3.22962 0
M  V30 6910 C 640.503 4.20478 -4.4482 0
M  V30 6911 N 639.64 5.40811 -4.47736 0
M  V30 6912 H 644.48 1.30498 -2.67907 0
M  V30 6913 H 642.017 0.633568 -1.32757 0
M  V30 6914 H 643.975 3.68007 -1.96537 0
M  V30 6915 H 642.605 3.06865 -1.00169 0
M  V30 6916 H 641.657 2.05684 -3.19997 0
M  V30 6917 H 642.969 2.87899 -4.07328 0
M  V30 6918 H 642.123 5.09954 -3.28682 0
M  V30 6919 H 640.862 4.29503 -2.31038 0
M  V30 6920 H 639.867 3.30659 -4.39254 0
M  V30 6921 H 641.092 4.14366 -5.38031 0
M  V30 6922 H 639.038 5.4925 -3.58692 0
M  V30 6923 H 638.955 5.37705 -5.31422 0
M  V30 6924 H 640.223 6.30993 -4.57676 0
M  V30 6925 N 644.452 1.42507 0.673017 0
M  V30 6926 C 645.4 1.46362 1.80779 0
M  V30 6927 C 646.394 0.339166 1.6597 0
M  V30 6928 O 647.6 0.512262 1.72557 0
M  V30 6929 H 643.975 0.458433 0.596107 0
M  V30 6930 H 645.946 2.41953 1.74646 0
M  V30 6931 C 644.695 1.38462 3.18941 0
M  V30 6932 H 644.018 2.24283 3.30964 0
M  V30 6933 H 645.458 1.45221 3.98355 0
M  V30 6934 C 643.917 0.0996354 3.36753 0
M  V30 6935 O 644.447 -0.846894 3.92671 0
M  V30 6936 N 642.653 0.016211 2.90595 0
M  V30 6937 H 642.2 0.78725 2.45276 0
M  V30 6938 H 642.158 -0.84291 3.0289 0
M  V30 6939 N 645.93 -0.909495 1.28709 0
M  V30 6940 C 646.88 -1.9991 1.09636 0
M  V30 6941 C 647.864 -1.60889 0.01872 0
M  V30 6942 O 649.056 -1.75374 0.239338 0
M  V30 6943 C 646.185 -3.34675 0.764702 0
M  V30 6944 C 645.271 -3.80085 1.8814 0
M  V30 6945 N 645.662 -3.97824 3.12361 0
M  V30 6946 C 643.96 -4.09278 1.77221 0
M  V30 6947 C 644.661 -4.35928 3.85151 0
M  V30 6948 N 643.637 -4.44426 3.13028 0
M  V30 6949 H 647.439 -2.11681 2.03883 0
M  V30 6950 H 644.953 -1.09763 1.1969 0
M  V30 6951 H 646.95 -4.12426 0.609132 0
M  V30 6952 H 645.61 -3.24255 -0.169952 0
M  V30 6953 H 646.621 -3.83626 3.47925 0
M  V30 6954 H 643.298 -4.0747 0.909621 0
M  V30 6955 H 644.688 -4.57581 4.92006 0
M  V30 6956 N 647.408 -1.11026 -1.11852 0
M  V30 6957 C 648.819 -0.873203 -1.65021 0
M  V30 6958 C 649.17 0.595364 -1.86949 0
M  V30 6959 O 648.295 1.45645 -1.60051 0
M  V30 6960 C 648.89 -1.57859 -2.99777 0
M  V30 6961 C 647.449 -1.38807 -3.49871 0
M  V30 6962 C 646.596 -1.62403 -2.24768 0
M  V30 6963 H 649.547 -1.26712 -0.955503 0
M  V30 6964 H 649.568 -1.02111 -3.66543 0
M  V30 6965 H 649.08 -2.6474 -2.83786 0
M  V30 6966 H 647.181 -0.341163 -3.71035 0
M  V30 6967 H 647.294 -2.13421 -4.28938 0
M  V30 6968 H 645.658 -1.04714 -2.32179 0
M  V30 6969 H 646.441 -2.70549 -2.11324 0
M  V30 6970 N 648.886 1.2938 -0.899927 0
M  V30 6971 C 650.111 2.00228 -0.540692 0
M  V30 6972 C 650.536 1.66909 0.867359 0
M  V30 6973 O 649.894 0.893824 1.57735 0
M  V30 6974 C 649.942 3.52921 -0.740232 0
M  V30 6975 O 649.046 4.11879 0.207154 0
M  V30 6976 H 648.387 0.629505 -0.211233 0
M  V30 6977 H 650.917 1.6487 -1.21158 0
M  V30 6978 H 650.927 4.0287 -0.644973 0
M  V30 6979 H 649.602 3.76508 -1.76677 0
M  V30 6980 H 648.179 3.72845 0.0643315 0
M  V30 6981 N 650.364 0.662433 1.43002 0
M  V30 6982 C 651.613 0.176873 2.00923 0
M  V30 6983 C 651.926 -1.21954 1.52927 0
M  V30 6984 O 653.132 -1.80081 2.03182 0
M  V30 6985 C 651.588 0.265379 3.5892 0
M  V30 6986 C 651.196 1.66507 4.15908 0
M  V30 6987 C 652.94 -0.162103 4.2419 0
M  V30 6988 C 650.847 1.707 5.66229 0
M  V30 6989 H 649.777 0.0623627 0.751417 0
M  V30 6990 H 652.428 0.825813 1.63868 0
M  V30 6991 H 650.81 -0.451235 3.93421 0
M  V30 6992 H 651.984 2.40777 3.92891 0
M  V30 6993 H 650.299 2.03932 3.63044 0
M  V30 6994 H 652.896 -0.150745 5.34487 0
M  V30 6995 H 653.239 -1.19519 3.98774 0
M  V30 6996 H 653.772 0.503075 3.94606 0
M  V30 6997 H 650.511 2.7195 5.96426 0
M  V30 6998 H 650.031 1.00768 5.91275 0
M  V30 6999 H 651.71 1.45487 6.3043 0
M  V30 7000 N 651.842 -1.52309 0.404946 0
M  V30 7001 C 653.091 -2.00952 -0.173529 0
M  V30 7002 C 653.404 -1.29512 -1.46581 0
M  V30 7003 O 654.61 -1.6895 -2.12528 0
M  V30 7004 C 653.066 -3.58097 -0.359801 0
M  V30 7005 C 652.674 -4.38449 0.920138 0
M  V30 7006 C 654.418 -4.14984 -0.893794 0
M  V30 7007 C 652.325 -5.87227 0.701285 0
M  V30 7008 H 651.255 -0.750871 -0.0686244 0
M  V30 7009 H 653.906 -1.75687 0.529749 0
M  V30 7010 H 652.288 -3.79675 -1.12531 0
M  V30 7011 H 653.462 -4.28633 1.69147 0
M  V30 7012 H 651.777 -3.92859 1.38024 0
M  V30 7013 H 654.374 -5.23813 -1.0735 0
M  V30 7014 H 654.717 -3.72072 -1.8673 0
M  V30 7015 H 655.25 -3.97358 -0.187453 0
M  V30 7016 H 651.989 -6.34491 1.64624 0
M  V30 7017 H 651.509 -5.99792 -0.0308288 0
M  V30 7018 H 653.188 -6.46096 0.341846 0
M  V30 7019 N 653.32 -0.135238 -1.57019 0
M  V30 7020 C 654.569 0.518694 -1.94917 0
M  V30 7021 C 654.882 1.66783 -1.0219 0
M  V30 7022 O 656.088 2.38561 -1.29619 0
M  V30 7023 C 654.544 0.974123 -3.46466 0
M  V30 7024 C 654.152 -0.147439 -4.47757 0
M  V30 7025 C 655.896 1.59851 -3.93253 0
M  V30 7026 C 653.803 0.325599 -5.90503 0
M  V30 7027 H 652.733 0.19754 -0.727663 0
M  V30 7028 H 655.384 -0.217698 -1.82204 0
M  V30 7029 H 653.766 1.76542 -3.5447 0
M  V30 7030 H 654.94 -0.924122 -4.51438 0
M  V30 7031 H 653.255 -0.679496 -4.10818 0
M  V30 7032 H 655.852 1.96385 -4.9733 0
M  V30 7033 H 656.195 2.48306 -3.3414 0
M  V30 7034 H 656.728 0.872323 -3.88118 0
M  V30 7035 H 653.467 -0.523295 -6.53408 0
M  V30 7036 H 652.987 1.06841 -5.90208 0
M  V30 7037 H 654.666 0.781498 -6.42263 0
M  V30 7038 N 654.798 1.5699 0.138552 0
M  V30 7039 C 656.044 1.84966 0.846116 0
M  V30 7040 C 656.399 0.72038 1.78405 0
M  V30 7041 O 655.692 -0.281076 1.89527 0
M  V30 7042 C 655.886 3.17007 1.65049 0
M  V30 7043 C 655.715 4.42672 0.79194 0
M  V30 7044 C 654.485 5.03254 0.454293 0
M  V30 7045 C 656.683 5.14164 0.118419 0
M  V30 7046 N 654.665 6.12482 -0.416964 0
M  V30 7047 C 656.036 6.16966 -0.61263 0
M  V30 7048 C 658.091 4.97884 0.0399671 0
M  V30 7049 C 656.794 7.0525 -1.41473 0
M  V30 7050 C 658.82 5.86639 -0.748901 0
M  V30 7051 C 658.182 6.88929 -1.4682 0
M  V30 7052 H 654.281 0.727362 0.287172 0
M  V30 7053 H 656.865 1.94383 0.110972 0
M  V30 7054 H 655.036 3.08722 2.35681 0
M  V30 7055 H 656.768 3.3286 2.30187 0
M  V30 7056 H 653.523 4.6693 0.792038 0
M  V30 7057 H 653.947 6.7172 -0.843865 0
M  V30 7058 H 658.589 4.18779 0.581728 0
M  V30 7059 H 656.307 7.83777 -1.96772 0
M  V30 7060 H 659.893 5.7611 -0.811705 0
M  V30 7061 H 658.773 7.56419 -2.06882 0
M  V30 7062 N 656.276 -0.40816 1.52223 0
M  V30 7063 C 657.501 -1.18127 1.70472 0
M  V30 7064 C 657.926 -1.83491 0.41384 0
M  V30 7065 O 657.284 -1.70047 -0.628778 0
M  V30 7066 C 657.332 -2.21935 2.84213 0
M  V30 7067 O 656.436 -3.28099 2.4985 0
M  V30 7068 H 655.777 -0.344781 0.56747 0
M  V30 7069 H 658.307 -0.478328 1.9893 0
M  V30 7070 H 658.317 -2.66248 3.09153 0
M  V30 7071 H 656.992 -1.73744 3.7787 0
M  V30 7072 H 655.569 -2.89058 2.35584 0
M  V30 7073 N 657.755 -1.42862 -0.66545 0
M  V30 7074 C 658.685 -1.49867 -1.79059 0
M  V30 7075 C 659.666 -0.354394 -1.66367 0
M  V30 7076 O 660.851 -0.569969 -1.85647 0
M  V30 7077 C 657.981 -1.40943 -3.17415 0
M  V30 7078 C 656.935 -2.53495 -3.44854 0
M  V30 7079 C 656.261 -2.29626 -4.82883 0
M  V30 7080 C 657.561 -3.95781 -3.40815 0
M  V30 7081 H 659.255 -2.44037 -1.73453 0
M  V30 7082 H 656.801 -1.17456 -0.833071 0
M  V30 7083 H 658.754 -1.4445 -3.95869 0
M  V30 7084 H 657.478 -0.432716 -3.23721 0
M  V30 7085 H 656.137 -2.4932 -2.68766 0
M  V30 7086 H 655.785 -1.30226 -4.8585 0
M  V30 7087 H 655.485 -3.05065 -5.02204 0
M  V30 7088 H 657.009 -2.34897 -5.63609 0
M  V30 7089 H 658.423 -4.01508 -4.09224 0
M  V30 7090 H 656.82 -4.71148 -3.71672 0
M  V30 7091 H 657.89 -4.21786 -2.39216 0
M  V30 7092 N 659.233 0.902656 -1.29189 0
M  V30 7093 C 660.481 1.6496 -1.16758 0
M  V30 7094 C 660.802 1.92952 0.28188 0
M  V30 7095 O 660.072 1.55351 1.19344 0
M  V30 7096 H 658.652 0.611447 -0.429118 0
M  V30 7097 H 661.314 1.0825 -1.62074 0
M  V30 7098 H 660.41 2.60728 -1.71544 0
M  V30 7099 N 660.711 1.11618 1.11262 0
M  V30 7100 C 661.659 0.771291 2.1944 0
M  V30 7101 C 662.653 -0.238073 1.67719 0
M  V30 7102 O 663.859 -0.0971628 1.79738 0
M  V30 7103 H 660.234 0.231548 0.715465 0
M  V30 7104 H 662.205 1.69226 2.45775 0
M  V30 7105 C 660.954 0.232765 3.4692 0
M  V30 7106 H 660.277 1.00072 3.87073 0
M  V30 7107 H 661.717 0.0296561 4.2399 0
M  V30 7108 C 660.176 -1.03738 3.20531 0
M  V30 7109 O 660.706 -2.11675 3.41404 0
M  V30 7110 N 658.912 -0.960906 2.74253 0
M  V30 7111 H 658.459 -0.0824323 2.57468 0
M  V30 7112 H 658.417 -1.8114 2.56974 0
M  V30 7113 N 662.189 -1.289 0.906776 0
M  V30 7114 C 663.099 -2.31256 0.394707 0
M  V30 7115 C 664.115 -1.66231 -0.514121 0
M  V30 7116 O 665.291 -1.97347 -0.401994 0
M  V30 7117 C 662.356 -3.44792 -0.363191 0
M  V30 7118 C 661.417 -4.25391 0.578012 0
M  V30 7119 C 660.65 -5.33506 -0.143811 0
M  V30 7120 O 660.873 -5.53786 -1.36665 0
M  V30 7121 O 659.807 -5.99673 0.5173 0
M  V30 7122 H 663.633 -2.77051 1.24405 0
M  V30 7123 H 661.218 -1.33466 0.671346 0
M  V30 7124 H 663.1 -4.139 -0.791503 0
M  V30 7125 H 661.775 -3.01093 -1.18848 0
M  V30 7126 H 660.682 -3.58899 1.05558 0
M  V30 7127 H 662.015 -4.72752 1.36992 0
M  V30 7128 N 663.667 -0.670007 -1.42649 0
M  V30 7129 C 664.892 -0.196955 -2.06463 0
M  V30 7130 C 665.317 1.1352 -1.49983 0
M  V30 7131 O 664.675 1.705 -0.616397 0
M  V30 7132 C 664.723 -0.137381 -3.60338 0
M  V30 7133 O 663.827 0.895523 -4.02559 0
M  V30 7134 H 663.168 -0.102579 -0.656029 0
M  V30 7135 H 665.698 -0.917669 -1.82866 0
M  V30 7136 H 665.708 0.0403625 -4.0798 0
M  V30 7137 H 664.383 -1.10977 -4.0082 0
M  V30 7138 H 662.96 0.689209 -3.66476 0
M  V30 7139 N 665.145 1.52092 -0.413018 0
M  V30 7140 C 666.393 2.01456 0.161178 0
M  V30 7141 C 666.714 1.30034 1.45314 0
M  V30 7142 O 665.984 0.427435 1.9118 0
M  V30 7143 H 664.564 0.744376 0.0625526 0
M  V30 7144 H 667.226 1.86974 -0.550151 0
M  V30 7145 H 666.322 3.1008 0.354517 0
M  V30 7146 N 666.623 0.143563 1.56945 0
M  V30 7147 C 667.853 -0.514699 2.00086 0
M  V30 7148 C 668.261 -1.59184 1.0226 0
M  V30 7149 O 667.604 -1.83697 0.0110514 0
M  V30 7150 C 667.666 -1.17778 3.39659 0
M  V30 7151 C 667.33 -0.245657 4.56339 0
M  V30 7152 C 668.327 0.525343 5.17239 0
M  V30 7153 C 666.012 -0.149564 5.02077 0
M  V30 7154 C 668.006 1.37992 6.22284 0
M  V30 7155 C 665.693 0.708621 6.06978 0
M  V30 7156 C 666.691 1.47197 6.6695 0
M  V30 7157 O 666.379 2.31586 7.6982 0
M  V30 7158 H 666.111 -0.138789 0.661599 0
M  V30 7159 H 668.665 0.234098 2.04062 0
M  V30 7160 H 666.895 -1.97415 3.32512 0
M  V30 7161 H 668.584 -1.73542 3.6693 0
M  V30 7162 H 669.35 0.461118 4.82803 0
M  V30 7163 H 665.229 -0.733457 4.55128 0
M  V30 7164 H 668.773 1.97621 6.69023 0
M  V30 7165 H 664.67 0.77415 6.40841 0
M  V30 7166 H 665.438 2.24796 7.87025 0
M  V30 7167 N 668.101 -1.57061 -0.130224 0
M  V30 7168 C 669.349 -1.83893 -0.838313 0
M  V30 7169 C 669.67 -0.727046 -1.80939 0
M  V30 7170 O 668.94 0.249927 -1.94299 0
M  V30 7171 H 667.52 -0.67846 -0.312573 0
M  V30 7172 H 670.182 -1.94529 -0.120224 0
M  V30 7173 H 669.278 -2.79419 -1.39038 0
M  V30 7174 N 669.579 0.400081 -1.52437 0
M  V30 7175 C 670.819 1.15526 -1.68622 0
M  V30 7176 C 671.183 1.87533 -0.411744 0
M  V30 7177 O 672.384 2.6501 -0.449804 0
M  V30 7178 C 670.655 2.11618 -2.88015 0
M  V30 7179 S 672.214 2.95121 -3.24729 0
M  V30 7180 H 669.032 0.39123 -0.593683 0
M  V30 7181 H 671.634 0.441255 -1.90455 0
M  V30 7182 H 670.338 1.5742 -3.79008 0
M  V30 7183 H 669.869 2.87544 -2.68481 0
M  V30 7184 H 671.884 4.13653 -2.74055 0
M  V30 7185 N 671.057 1.43213 0.657864 0
M  V30 7186 C 672.005 1.48271 1.79216 0
M  V30 7187 C 672.999 0.35675 1.65601 0
M  V30 7188 O 674.205 0.530535 1.72004 0
M  V30 7189 H 670.58 0.464729 0.591211 0
M  V30 7190 H 672.551 2.43792 1.7207 0
M  V30 7191 C 671.3 1.41837 3.17455 0
M  V30 7192 H 670.623 2.27781 3.28567 0
M  V30 7193 H 672.063 1.49438 3.96793 0
M  V30 7194 C 670.522 0.135347 3.36628 0
M  V30 7195 O 671.052 -0.805199 3.93547 0
M  V30 7196 N 669.258 0.0470316 2.90562 0
M  V30 7197 H 668.805 0.813221 2.44427 0
M  V30 7198 H 668.763 -0.810737 3.03767 0
M  V30 7199 N 672.536 -0.895792 1.29666 0
M  V30 7200 C 673.785 -1.64131 1.17234 0
M  V30 7201 C 674.098 -1.93665 -0.274416 0
M  V30 7202 O 675.304 -2.66472 -0.520105 0
M  V30 7203 C 673.76 -2.95764 2.05065 0
M  V30 7204 C 673.368 -2.7381 3.54587 0
M  V30 7205 C 675.112 -3.737 2.01367 0
M  V30 7206 C 673.019 -4.01194 4.34508 0
M  V30 7207 H 671.949 -0.615742 0.435175 0
M  V30 7208 H 674.6 -0.992626 1.54335 0
M  V30 7209 H 672.982 -3.61867 1.60837 0
M  V30 7210 H 674.156 -2.16277 4.06892 0
M  V30 7211 H 672.471 -2.09265 3.59996 0
M  V30 7212 H 675.068 -4.68152 2.58337 0
M  V30 7213 H 675.411 -4.04245 0.994575 0
M  V30 7214 H 675.944 -3.14444 2.43659 0
M  V30 7215 H 672.683 -3.75813 5.37071 0
M  V30 7216 H 672.203 -4.58272 3.86971 0
M  V30 7217 H 673.882 -4.69307 4.45376 0
M  V30 7218 N 674.014 -1.12206 -1.10668 0
M  V30 7219 C 675.43 -0.857619 -1.346 0
M  V30 7220 C 675.63 0.513542 -1.94846 0
M  V30 7221 O 674.686 1.26273 -2.18658 0
M  V30 7222 C 675.999 -1.97212 -2.26998 0
M  V30 7223 C 677.547 -2.00272 -2.40542 0
M  V30 7224 C 678.022 -3.10948 -3.36267 0
M  V30 7225 N 679.513 -3.10375 -3.43834 0
M  V30 7226 C 680.248 -3.92651 -4.17867 0
M  V30 7227 N 679.744 -4.84911 -4.94807 0
M  V30 7228 N 681.537 -3.80798 -4.1346 0
M  V30 7229 H 673.688 -2.00558 -0.699306 0
M  V30 7230 H 675.951 -0.872612 -0.370477 0
M  V30 7231 H 675.657 -2.96002 -1.89936 0
M  V30 7232 H 675.531 -1.87521 -3.27286 0
M  V30 7233 H 677.918 -1.02103 -2.76874 0
M  V30 7234 H 677.999 -2.14037 -1.40077 0
M  V30 7235 H 677.643 -4.09348 -3.00661 0
M  V30 7236 H 677.573 -2.94421 -4.36605 0
M  V30 7237 H 680.064 -2.43536 -2.88961 0
M  V30 7238 H 680.377 -5.44207 -5.48688 0
M  V30 7239 H 678.722 -4.88926 -4.93939 0
M  V30 7240 H 681.913 -3.08058 -3.52445 0
M  V30 7241 H 682.086 -4.4515 -4.70898 0
M  V30 7242 N 675.492 1.28418 -0.913599 0
M  V30 7243 C 676.455 2.25564 -0.406624 0
M  V30 7244 C 677.455 1.5387 0.466965 0
M  V30 7245 O 678.645 1.72094 0.270042 0
M  V30 7246 C 675.777 3.38339 0.417053 0
M  V30 7247 H 676.97 2.71926 -1.26477 0
M  V30 7248 H 674.523 1.40098 -0.692986 0
M  V30 7249 H 675.258 2.97339 1.29461 0
M  V30 7250 H 675.043 3.91542 -0.209102 0
M  V30 7251 H 676.533 4.10578 0.762602 0
M  V30 7252 N 676.97 0.677563 1.42291 0
M  V30 7253 C 677.903 -0.0492638 2.28147 0
M  V30 7254 C 678.881 -0.805936 1.41221 0
M  V30 7255 O 680.065 -0.80049 1.70659 0
M  V30 7256 C 677.192 -1.07697 3.21122 0
M  V30 7257 C 676.238 -0.41556 4.24471 0
M  V30 7258 S 677.071 0.828876 5.29046 0
M  V30 7259 C 678.227 -0.197687 6.25588 0
M  V30 7260 H 678.46 0.678965 2.89443 0
M  V30 7261 H 675.993 0.467201 1.47162 0
M  V30 7262 H 677.951 -1.66482 3.75225 0
M  V30 7263 H 676.612 -1.77766 2.58956 0
M  V30 7264 H 675.805 -1.19112 4.89723 0
M  V30 7265 H 675.407 0.0987632 3.7387 0
M  V30 7266 H 677.699 -1.05656 6.69211 0
M  V30 7267 H 678.642 0.420437 7.06851 0
M  V30 7268 H 679.05 -0.544401 5.61869 0
M  V30 7269 N 678.448 -1.51871 0.421078 0
M  V30 7270 C 679.678 -2.06057 -0.149723 0
M  V30 7271 C 680.086 -1.29002 -1.38402 0
M  V30 7272 O 679.429 -0.338385 -1.80556 0
M  V30 7273 C 679.491 -3.55216 -0.553339 0
M  V30 7274 C 679.155 -4.53408 0.571879 0
M  V30 7275 C 680.152 -4.99586 1.4391 0
M  V30 7276 C 677.837 -4.967 0.747979 0
M  V30 7277 C 679.831 -5.87711 2.46727 0
M  V30 7278 C 677.518 -5.84619 1.77944 0
M  V30 7279 C 678.516 -6.30021 2.63748 0
M  V30 7280 O 678.204 -7.16197 3.65126 0
M  V30 7281 H 677.936 -0.675744 -0.0186102 0
M  V30 7282 H 680.49 -1.96618 0.594166 0
M  V30 7283 H 678.72 -3.62381 -1.34969 0
M  V30 7284 H 680.409 -3.91992 -1.05342 0
M  V30 7285 H 681.175 -4.66846 1.31451 0
M  V30 7286 H 677.054 -4.60913 0.0897357 0
M  V30 7287 H 680.598 -6.2307 3.13734 0
M  V30 7288 H 676.495 -6.16771 1.90429 0
M  V30 7289 H 677.263 -7.34337 3.61512 0
M  V30 7290 N 679.926 -0.151884 -1.56866 0
M  V30 7291 C 680.876 0.797799 -2.13586 0
M  V30 7292 C 681.86 1.20613 -1.06496 0
M  V30 7293 O 683.052 1.17173 -1.32663 0
M  V30 7294 C 680.181 2.03493 -2.76488 0
M  V30 7295 C 679.267 1.64948 -3.90708 0
M  V30 7296 N 679.658 0.972513 -4.96363 0
M  V30 7297 C 677.956 1.94186 -4.01507 0
M  V30 7298 C 678.657 0.785661 -5.7637 0
M  V30 7299 N 677.633 1.32105 -5.27304 0
M  V30 7300 H 681.435 0.271403 -2.92644 0
M  V30 7301 H 678.949 0.049487 -1.62325 0
M  V30 7302 H 680.946 2.72532 -3.15487 0
M  V30 7303 H 679.606 2.56646 -1.98904 0
M  V30 7304 H 680.617 0.632724 -5.1402 0
M  V30 7305 H 677.294 2.49154 -3.35005 0
M  V30 7306 H 678.684 0.251749 -6.71428 0
M  V30 7307 N 681.404 1.57128 0.121893 0
M  V30 7308 C 682.367 1.99197 1.13372 0
M  V30 7309 C 683.367 0.881728 1.3447 0
M  V30 7310 O 684.557 1.14783 1.31036 0
M  V30 7311 C 681.689 2.32963 2.4888 0
M  V30 7312 H 682.882 2.89788 0.772204 0
M  V30 7313 H 680.435 1.51952 0.366093 0
M  V30 7314 H 681.17 1.45243 2.89957 0
M  V30 7315 H 680.955 3.13934 2.34921 0
M  V30 7316 H 682.445 2.66261 3.21706 0
M  V30 7317 N 682.882 -0.391992 1.52647 0
M  V30 7318 C 683.845 -1.46135 1.7657 0
M  V30 7319 C 684.845 -1.47701 0.635698 0
M  V30 7320 O 686.035 -1.48924 0.903728 0
M  V30 7321 C 683.167 -2.85443 1.86374 0
M  V30 7322 H 684.36 -1.26208 2.72051 0
M  V30 7323 H 681.913 -0.623549 1.43323 0
M  V30 7324 H 682.648 -3.10718 0.928685 0
M  V30 7325 H 682.433 -2.85708 2.68539 0
M  V30 7326 H 683.923 -3.62933 2.06566 0
M  V30 7327 N 684.36 -1.4356 -0.65026 0
M  V30 7328 C 685.307 -1.48948 -1.76304 0
M  V30 7329 C 686.277 -0.338919 -1.62605 0
M  V30 7330 O 687.462 -0.54649 -1.82806 0
M  V30 7331 C 684.602 -1.42131 -3.14472 0
M  V30 7332 C 683.715 -2.67415 -3.39284 0
M  V30 7333 C 682.85 -2.52565 -4.67316 0
M  V30 7334 C 681.889 -3.73103 -4.85243 0
M  V30 7335 N 681.026 -3.57046 -6.04535 0
M  V30 7336 H 685.866 -2.44032 -1.71034 0
M  V30 7337 H 683.403 -1.21131 -0.834601 0
M  V30 7338 H 685.361 -1.36172 -3.94351 0
M  V30 7339 H 683.991 -0.506273 -3.18805 0
M  V30 7340 H 683.043 -2.8364 -2.53481 0
M  V30 7341 H 684.355 -3.56943 -3.48415 0
M  V30 7342 H 683.509 -2.44331 -5.55326 0
M  V30 7343 H 682.248 -1.60566 -4.60511 0
M  V30 7344 H 681.253 -3.81743 -3.95667 0
M  V30 7345 H 682.478 -4.66115 -4.93876 0
M  V30 7346 H 680.424 -2.67783 -5.98856 0
M  V30 7347 H 680.341 -4.40178 -6.14638 0
M  V30 7348 H 681.609 -3.52669 -6.95158 0
M  V30 7349 N 685.838 0.888903 -1.30139 0
M  V30 7350 C 686.801 1.97576 -1.16174 0
M  V30 7351 C 687.801 1.60525 -0.094086 0
M  V30 7352 O 688.991 1.70812 -0.341889 0
M  V30 7353 C 686.123 3.3188 -0.778983 0
M  V30 7354 H 687.316 2.11393 -2.12728 0
M  V30 7355 H 684.869 1.0748 -1.1348 0
M  V30 7356 H 685.604 3.23765 0.186225 0
M  V30 7357 H 685.389 3.60141 -1.55051 0
M  V30 7358 H 686.879 4.11612 -0.704631 0
M  V30 7359 N 687.317 1.12792 1.10072 0
M  V30 7360 C 688.247 0.821688 2.18565 0
M  V30 7361 C 689.228 -0.21612 1.68721 0
M  V30 7362 O 690.413 -0.0764932 1.94049 0
M  V30 7363 C 687.543 0.279624 3.46172 0
M  V30 7364 C 686.497 1.25092 4.09312 0
M  V30 7365 C 685.823 0.568916 5.31665 0
M  V30 7366 C 687.123 2.60699 4.52585 0
M  V30 7367 H 688.817 1.72888 2.44438 0
M  V30 7368 H 686.363 0.832702 1.17482 0
M  V30 7369 H 688.316 0.053099 4.21367 0
M  V30 7370 H 687.04 -0.662929 3.19801 0
M  V30 7371 H 685.699 1.46332 3.36129 0
M  V30 7372 H 685.347 -0.378898 5.01571 0
M  V30 7373 H 685.047 1.21687 5.74862 0
M  V30 7374 H 686.571 0.351517 6.09587 0
M  V30 7375 H 687.985 2.43465 5.19035 0
M  V30 7376 H 686.382 3.21608 5.06644 0
M  V30 7377 H 687.452 3.1886 3.65317 0
M  V30 7378 N 688.795 -1.27931 0.920396 0
M  V30 7379 C 690.072 -1.89728 0.475687 0
M  V30 7380 C 690.452 -1.8337 -1.04588 0
M  V30 7381 O 689.8 -1.27404 -1.89685 0
M  V30 7382 C 690.01 -3.33959 1.01354 0
M  V30 7383 C 691.358 -4.10907 1.06963 0
M  V30 7384 O 692.382 -3.42945 0.962646 0
M  V30 7385 O 691.241 -5.32399 1.23343 0
M  V30 7386 H 688.335 -0.81294 0.151845 0
M  V30 7387 H 690.881 -1.36252 1.01161 0
M  V30 7388 H 689.653 -3.32843 2.05746 0
M  V30 7389 H 689.276 -3.94944 0.458829 0
M  V30 7390 N 690.273 -0.685099 -1.4193 0
M  V30 7391 C 691.55 -0.140152 -1.95097 0
M  V30 7392 C 691.93 1.34745 -1.62502 0
M  V30 7393 O 691.278 2.08872 -0.926534 0
M  V30 7394 C 691.488 -0.420268 -3.4646 0
M  V30 7395 C 692.836 -0.342338 -4.23218 0
M  V30 7396 O 693.86 -0.354592 -3.54431 0
M  V30 7397 O 692.719 -0.293404 -5.45712 0
M  V30 7398 H 689.813 -0.00885998 -0.826953 0
M  V30 7399 H 692.359 -0.760539 -1.51703 0
M  V30 7400 H 691.131 -1.45037 -3.63428 0
M  V30 7401 H 690.754 0.231616 -3.96925 0
M  V30 7402 N 691.751 1.51645 -0.429126 0
M  V30 7403 C 692.979 2.06433 0.138994 0
M  V30 7404 C 693.394 1.29735 1.37165 0
M  V30 7405 O 692.751 0.354638 1.79021 0
M  V30 7406 C 692.802 3.58439 0.469452 0
M  V30 7407 O 692.523 4.32238 -0.714273 0
M  V30 7408 C 694.024 4.29712 1.08914 0
M  V30 7409 H 691.244 0.6709 0.0115608 0
M  V30 7410 H 693.788 1.9532 -0.605843 0
M  V30 7411 H 691.943 3.69494 1.16419 0
M  V30 7412 H 692.357 5.22704 -0.433633 0
M  V30 7413 H 693.831 5.37182 1.27042 0
M  V30 7414 H 694.308 3.87473 2.06788 0
M  V30 7415 H 694.914 4.2308 0.434028 0
M  V30 7416 N 693.229 0.160201 1.56784 0
M  V30 7417 C 694.645 -0.196089 1.58391 0
M  V30 7418 C 694.845 -1.63689 1.17508 0
M  V30 7419 O 693.901 -2.36613 0.881506 0
M  V30 7420 C 695.214 0.0746449 3.00607 0
M  V30 7421 C 696.762 0.0119762 3.12998 0
M  V30 7422 C 697.237 0.255551 4.57286 0
M  V30 7423 N 698.728 0.202938 4.62755 0
M  V30 7424 C 699.463 0.365731 5.72232 0
M  V30 7425 N 698.959 0.586972 6.90309 0
M  V30 7426 N 700.752 0.302411 5.61286 0
M  V30 7427 H 692.903 1.1008 1.81648 0
M  V30 7428 H 695.166 0.436779 0.841384 0
M  V30 7429 H 694.872 1.07231 3.34954 0
M  V30 7430 H 694.746 -0.638802 3.71751 0
M  V30 7431 H 697.133 -0.976254 2.78484 0
M  V30 7432 H 697.214 0.75796 2.44313 0
M  V30 7433 H 696.858 1.24094 4.92507 0
M  V30 7434 H 696.788 -0.510912 5.24116 0
M  V30 7435 H 699.279 0.0371328 3.77882 0
M  V30 7436 H 699.592 0.700941 7.69615 0
M  V30 7437 H 697.937 0.623453 6.92198 0
M  V30 7438 H 701.128 0.130238 4.67919 0
M  V30 7439 H 701.301 0.432712 6.46554 0
M  V30 7440 N 694.707 -1.5719 -0.113559 0
M  V30 7441 C 695.637 -2.03772 -1.14013 0
M  V30 7442 C 696.618 -0.923176 -1.42869 0
M  V30 7443 O 697.803 -1.19325 -1.53216 0
M  V30 7444 C 694.933 -2.44663 -2.4649 0
M  V30 7445 C 693.887 -3.59612 -2.32085 0
M  V30 7446 C 693.213 -3.8642 -3.69573 0
M  V30 7447 C 694.513 -4.91149 -1.7768 0
M  V30 7448 H 696.207 -2.89785 -0.752665 0
M  V30 7449 H 693.753 -1.39412 -0.360609 0
M  V30 7450 H 695.706 -2.75857 -3.18561 0
M  V30 7451 H 694.43 -1.55628 -2.87137 0
M  V30 7452 H 693.089 -3.28636 -1.62461 0
M  V30 7453 H 692.737 -2.94581 -4.07715 0
M  V30 7454 H 692.437 -4.63797 -3.60786 0
M  V30 7455 H 693.961 -4.2007 -4.4314 0
M  V30 7456 H 695.375 -5.20843 -2.39574 0
M  V30 7457 H 693.772 -5.72562 -1.79701 0
M  V30 7458 H 694.842 -4.79301 -0.734776 0
M  V30 7459 N 696.185 0.383891 -1.52853 0
M  V30 7460 C 697.431 1.13009 -1.68395 0
M  V30 7461 C 697.764 1.89488 -0.425195 0
M  V30 7462 O 697.039 1.8574 0.577136 0
M  V30 7463 C 697.322 2.10419 -2.92226 0
M  V30 7464 C 697.175 1.3767 -4.28214 0
M  V30 7465 C 698.494 3.10781 -3.11614 0
M  V30 7466 H 695.613 0.409463 -0.612788 0
M  V30 7467 H 698.255 0.412895 -1.85459 0
M  V30 7468 H 696.405 2.71579 -2.77808 0
M  V30 7469 H 698.077 0.794352 -4.54409 0
M  V30 7470 H 696.32 0.678533 -4.2846 0
M  V30 7471 H 696.991 2.08874 -5.10956 0
M  V30 7472 H 699.467 2.59715 -3.25096 0
M  V30 7473 H 698.343 3.76179 -3.99725 0
M  V30 7474 H 698.604 3.79933 -2.2606 0
M  V30 7475 N 697.663 1.43903 0.642637 0
M  V30 7476 C 698.613 1.46321 1.74854 0
M  V30 7477 C 699.597 0.330361 1.57472 0
M  V30 7478 O 700.789 0.574881 1.67404 0
M  V30 7479 C 697.918 1.39919 3.13493 0
M  V30 7480 C 697.004 2.58274 3.36385 0
M  V30 7481 N 697.395 3.83578 3.29699 0
M  V30 7482 C 695.693 2.53224 3.67142 0
M  V30 7483 C 696.394 4.62375 3.52965 0
M  V30 7484 N 695.37 3.93269 3.75287 0
M  V30 7485 H 699.172 2.41062 1.68126 0
M  V30 7486 H 696.686 1.38704 0.844693 0
M  V30 7487 H 698.683 1.39735 3.92785 0
M  V30 7488 H 697.343 0.46207 3.21395 0
M  V30 7489 H 698.354 4.15713 3.08874 0
M  V30 7490 H 695.031 1.68252 3.82096 0
M  V30 7491 H 696.421 5.714 3.53485 0
M  V30 7492 N 699.141 -0.881989 1.30609 0
M  V30 7493 C 700.371 -1.66469 1.22359 0
M  V30 7494 C 700.779 -1.87969 -0.215507 0
M  V30 7495 O 700.122 -1.42938 -1.15388 0
M  V30 7496 C 700.184 -3.06135 1.88472 0
M  V30 7497 C 699.848 -3.07795 3.37804 0
M  V30 7498 C 700.845 -2.86633 4.33749 0
M  V30 7499 C 698.53 -3.29297 3.793 0
M  V30 7500 C 700.524 -2.86934 5.69164 0
M  V30 7501 C 698.211 -3.29228 5.14832 0
M  V30 7502 C 699.209 -3.08071 6.09574 0
M  V30 7503 O 698.897 -3.07824 7.4263 0
M  V30 7504 H 698.629 -0.526129 0.424458 0
M  V30 7505 H 701.183 -1.11004 1.72821 0
M  V30 7506 H 699.413 -3.63276 1.32543 0
M  V30 7507 H 701.102 -3.66571 1.74301 0
M  V30 7508 H 701.868 -2.69814 4.0302 0
M  V30 7509 H 697.747 -3.44799 3.05998 0
M  V30 7510 H 701.291 -2.70339 6.43088 0
M  V30 7511 H 697.188 -3.45583 5.452 0
M  V30 7512 H 697.956 -3.2397 7.51656 0
M  V30 7513 N 700.619 -1.13374 -1.09472 0
M  V30 7514 C 701.529 -0.824029 -2.19652 0
M  V30 7515 C 702.545 0.19118 -1.72947 0
M  V30 7516 O 703.721 0.0223464 -2.01388 0
M  V30 7517 C 700.786 -0.294009 -3.45451 0
M  V30 7518 C 699.847 -1.3704 -4.0684 0
M  V30 7519 C 699.08 -0.86558 -5.26634 0
M  V30 7520 O 699.303 0.29702 -5.69626 0
M  V30 7521 O 698.237 -1.63968 -5.79136 0
M  V30 7522 H 702.063 -1.74454 -2.48595 0
M  V30 7523 H 699.648 -0.911155 -1.18399 0
M  V30 7524 H 701.53 -0.00381039 -4.214 0
M  V30 7525 H 700.205 0.598921 -3.18111 0
M  V30 7526 H 699.112 -1.71391 -3.3253 0
M  V30 7527 H 700.445 -2.23746 -4.38405 0
M  V30 7528 N 702.098 1.27442 -0.927168 0
M  V30 7529 C 703.008 2.30599 -0.431448 0
M  V30 7530 C 704.024 1.67028 0.48761 0
M  V30 7531 O 705.2 1.97962 0.370546 0
M  V30 7532 C 702.265 3.45327 0.308292 0
M  V30 7533 C 701.326 4.24418 -0.645615 0
M  V30 7534 C 700.559 5.33667 0.0589164 0
M  V30 7535 O 700.782 5.5589 1.27838 0
M  V30 7536 O 699.716 5.98774 -0.612638 0
M  V30 7537 H 703.542 2.75036 -1.28797 0
M  V30 7538 H 701.127 1.32382 -0.692495 0
M  V30 7539 H 703.009 4.15107 0.725555 0
M  V30 7540 H 701.684 3.02945 1.14043 0
M  V30 7541 H 700.591 3.57174 -1.11255 0
M  V30 7542 H 701.924 4.70512 -1.44496 0
M  V30 7543 N 703.576 0.692616 1.41565 0
M  V30 7544 C 704.853 0.150496 1.9502 0
M  V30 7545 C 705.233 -1.33881 1.63215 0
M  V30 7546 O 704.581 -2.08378 0.937598 0
M  V30 7547 C 704.791 0.438636 3.46233 0
M  V30 7548 C 706.139 0.364777 4.2303 0
M  V30 7549 O 707.163 0.373383 3.54238 0
M  V30 7550 O 706.022 0.32234 5.45549 0
M  V30 7551 H 703.116 0.0132454 0.826894 0
M  V30 7552 H 705.662 0.768574 1.51298 0
M  V30 7553 H 704.434 1.46962 3.62654 0
M  V30 7554 H 704.057 -0.210562 3.97042 0
M  V30 7555 N 705.054 -1.51416 0.437162 0
M  V30 7556 C 706.47 -1.59349 0.0894459 0
M  V30 7557 C 706.67 -1.44809 -1.40116 0
M  V30 7558 O 705.726 -1.28924 -2.17106 0
M  V30 7559 C 707.039 -2.9446 0.609398 0
M  V30 7560 C 708.587 -3.07769 0.569824 0
M  V30 7561 C 709.062 -4.45404 1.06675 0
M  V30 7562 N 710.553 -4.51723 1.02473 0
M  V30 7563 C 711.288 -5.56544 1.3801 0
M  V30 7564 N 710.784 -6.68784 1.80831 0
M  V30 7565 N 712.577 -5.46901 1.29828 0
M  V30 7566 H 704.728 -1.59112 1.40703 0
M  V30 7567 H 706.991 -0.750031 0.579791 0
M  V30 7568 H 706.697 -3.1047 1.65231 0
M  V30 7569 H 706.571 -3.77184 0.0342236 0
M  V30 7570 H 708.958 -2.91428 -0.464107 0
M  V30 7571 H 709.039 -2.26885 1.1814 0
M  V30 7572 H 708.683 -4.62492 2.09914 0
M  V30 7573 H 708.613 -5.24827 0.431712 0
M  V30 7574 H 711.104 -3.71165 0.710258 0
M  V30 7575 H 711.417 -7.44787 2.06185 0
M  V30 7576 H 709.762 -6.69992 1.84757 0
M  V30 7577 H 712.953 -4.581 0.962397 0
M  V30 7578 H 713.126 -6.2848 1.57851 0
M  V30 7579 N 706.532 -0.168513 -1.56696 0
M  V30 7580 C 707.809 0.523367 -1.88468 0
M  V30 7581 C 708.189 1.81503 -1.07796 0
M  V30 7582 O 707.537 2.27859 -0.171045 0
M  V30 7583 C 707.747 0.767991 -3.40445 0
M  V30 7584 C 709.095 1.09924 -4.10124 0
M  V30 7585 O 710.119 0.856625 -3.45746 0
M  V30 7586 O 708.978 1.55681 -5.23856 0
M  V30 7587 H 706.072 0.269447 -0.781874 0
M  V30 7588 H 708.618 -0.206739 -1.68436 0
M  V30 7589 H 707.39 -0.145254 -3.9103 0
M  V30 7590 H 707.013 1.55151 -3.66079 0
M  V30 7591 N 708.01 1.57248 0.105221 0
M  V30 7592 C 708.973 2.00388 1.11252 0
M  V30 7593 C 709.973 0.89594 1.33527 0
M  V30 7594 O 711.163 1.16166 1.29811 0
M  V30 7595 C 708.295 2.35589 2.46395 0
M  V30 7596 H 709.488 2.90591 0.741424 0
M  V30 7597 H 707.041 1.52332 0.349956 0
M  V30 7598 H 707.776 1.4831 2.884 0
M  V30 7599 H 707.561 3.16408 2.31578 0
M  V30 7600 H 709.051 2.69658 3.18864 0
M  V30 7601 N 709.488 -0.375779 1.53054 0
M  V30 7602 C 710.398 -1.48381 1.81715 0
M  V30 7603 C 711.414 -1.59087 0.704795 0
M  V30 7604 O 712.59 -1.75174 0.993785 0
M  V30 7605 C 709.655 -2.83767 1.99192 0
M  V30 7606 C 708.716 -2.82673 3.23102 0
M  V30 7607 C 707.949 -4.11601 3.39736 0
M  V30 7608 O 708.172 -5.07243 2.60885 0
M  V30 7609 O 707.106 -4.18034 4.33049 0
M  V30 7610 H 710.932 -1.27089 2.7583 0
M  V30 7611 H 708.517 -0.564902 1.38308 0
M  V30 7612 H 710.399 -3.64004 2.12318 0
M  V30 7613 H 709.074 -3.05057 1.08267 0
M  V30 7614 H 707.981 -2.0117 3.15407 0
M  V30 7615 H 709.314 -2.66335 4.13916 0
M  V30 7616 N 710.966 -1.44241 -0.634997 0
M  V30 7617 C 712.212 -1.47038 -1.39669 0
M  V30 7618 C 712.545 -0.101122 -1.93937 0
M  V30 7619 O 711.82 0.880699 -1.73418 0
M  V30 7620 C 712.103 -2.52763 -2.56482 0
M  V30 7621 C 711.956 -3.99032 -2.07589 0
M  V30 7622 C 713.275 -2.55031 -3.58674 0
M  V30 7623 H 710.394 -0.53537 -0.506506 0
M  V30 7624 H 713.036 -1.75898 -0.718317 0
M  V30 7625 H 711.186 -2.28284 -3.14354 0
M  V30 7626 H 712.858 -4.3463 -1.54577 0
M  V30 7627 H 711.101 -4.10994 -1.38804 0
M  V30 7628 H 711.772 -4.68649 -2.91671 0
M  V30 7629 H 714.248 -2.76893 -3.10595 0
M  V30 7630 H 713.124 -3.30916 -4.37934 0
M  V30 7631 H 713.385 -1.59085 -4.12486 0
M  V30 7632 N 712.444 0.87505 -1.31075 0
M  V30 7633 C 713.69 1.63009 -1.20647 0
M  V30 7634 C 714.023 1.9276 0.236045 0
M  V30 7635 O 713.298 1.55559 1.16754 0
M  V30 7636 C 713.581 2.96357 -2.0456 0
M  V30 7637 C 713.434 2.73516 -3.57084 0
M  V30 7638 C 714.753 3.974 -1.89107 0
M  V30 7639 H 711.872 0.591518 -0.439631 0
M  V30 7640 H 714.514 1.0119 -1.60812 0
M  V30 7641 H 712.664 3.49119 -1.70435 0
M  V30 7642 H 714.336 2.27465 -4.01319 0
M  V30 7643 H 712.579 2.0784 -3.80769 0
M  V30 7644 H 713.25 3.68377 -4.11099 0
M  V30 7645 H 715.726 3.5383 -2.18961 0
M  V30 7646 H 714.602 4.88596 -2.5013 0
M  V30 7647 H 714.863 4.33794 -0.85296 0
M  V30 7648 N 713.922 1.13953 1.08869 0
M  V30 7649 C 715.199 0.815768 1.77777 0
M  V30 7650 C 715.579 -0.691624 1.99449 0
M  V30 7651 O 714.927 -1.63085 1.60049 0
M  V30 7652 C 715.137 1.60916 3.09689 0
M  V30 7653 C 716.485 1.80549 3.84301 0
M  V30 7654 O 717.509 1.57562 3.19457 0
M  V30 7655 O 716.368 2.18946 5.00724 0
M  V30 7656 H 713.462 0.298445 0.771271 0
M  V30 7657 H 716.008 1.24446 1.15374 0
M  V30 7658 H 714.78 2.6333 2.89435 0
M  V30 7659 H 714.403 1.17578 3.79817 0
M  V30 7660 N 715.4 -1.26948 0.933913 0
M  V30 7661 C 716.649 -1.93378 0.573409 0
M  V30 7662 C 716.962 -1.74148 -0.890614 0
M  V30 7663 O 718.168 -2.34971 -1.36017 0
M  V30 7664 C 716.624 -3.46449 0.974747 0
M  V30 7665 C 716.232 -3.74425 2.45988 0
M  V30 7666 C 717.976 -4.18924 0.685791 0
M  V30 7667 C 715.883 -5.209 2.8003 0
M  V30 7668 H 714.813 -0.723952 0.210736 0
M  V30 7669 H 717.464 -1.44143 1.13557 0
M  V30 7670 H 715.846 -3.94528 0.341181 0
M  V30 7671 H 717.02 -3.37079 3.14188 0
M  V30 7672 H 715.335 -3.15167 2.72138 0
M  V30 7673 H 717.932 -5.26786 0.916546 0
M  V30 7674 H 718.275 -4.14587 -0.377217 0
M  V30 7675 H 718.808 -3.76687 1.27874 0
M  V30 7676 H 715.547 -5.30332 3.85264 0
M  V30 7677 H 715.067 -5.59369 2.16485 0
M  V30 7678 H 716.746 -5.88837 2.68105 0
M  V30 7679 N 716.879 -0.700114 -1.41195 0
M  V30 7680 C 718.128 -0.230082 -2.00383 0
M  V30 7681 C 718.441 1.17857 -1.56106 0
M  V30 7682 O 719.647 1.74631 -2.07885 0
M  V30 7683 C 718.103 -0.360447 -3.5809 0
M  V30 7684 C 717.711 -1.77475 -4.11347 0
M  V30 7685 C 719.455 0.0495799 -4.24471 0
M  V30 7686 C 717.362 -1.85653 -5.61504 0
M  V30 7687 H 716.292 -0.0822633 -0.749499 0
M  V30 7688 H 718.943 -0.868969 -1.6162 0
M  V30 7689 H 717.325 0.346768 -3.94479 0
M  V30 7690 H 718.499 -2.51109 -3.86369 0
M  V30 7691 H 716.814 -2.13486 -3.57509 0
M  V30 7692 H 719.411 0.00898219 -5.34699 0
M  V30 7693 H 719.754 1.08904 -4.01803 0
M  V30 7694 H 720.287 -0.607521 -3.93134 0
M  V30 7695 H 717.026 -2.87667 -5.89006 0
M  V30 7696 H 716.546 -1.1641 -5.88395 0
M  V30 7697 H 718.225 -1.62151 -6.26351 0
M  V30 7698 N 718.357 1.51182 -0.445186 0
M  V30 7699 C 719.582 2.07056 0.119445 0
M  V30 7700 C 720.007 1.30966 1.35016 0
M  V30 7701 O 719.365 0.349827 1.77893 0
M  V30 7702 C 719.413 3.58234 0.412428 0
M  V30 7703 O 718.517 3.84249 1.49754 0
M  V30 7704 H 717.858 0.663998 -0.00157797 0
M  V30 7705 H 720.388 1.94699 -0.628779 0
M  V30 7706 H 720.398 4.02617 0.660583 0
M  V30 7707 H 719.073 4.13038 -0.487049 0
M  V30 7708 H 717.65 3.51724 1.23873 0
M  V30 7709 N 719.835 0.176821 1.56605 0
M  V30 7710 C 721.063 -0.472828 2.01425 0
M  V30 7711 C 721.478 -1.56436 1.05703 0
M  V30 7712 O 720.835 -1.82405 0.058808 0
M  V30 7713 C 720.886 -1.04607 3.46034 0
M  V30 7714 O 720.607 0.00189608 4.381 0
M  V30 7715 C 722.108 -1.7734 4.06282 0
M  V30 7716 H 719.328 -0.120503 0.660091 0
M  V30 7717 H 721.872 0.280166 2.02572 0
M  V30 7718 H 720.027 -1.74953 3.45645 0
M  V30 7719 H 720.441 -0.422118 5.22799 0
M  V30 7720 H 721.915 -2.12703 5.09374 0
M  V30 7721 H 722.392 -2.67043 3.4869 0
M  V30 7722 H 722.998 -1.11623 4.10391 0
M  V30 7723 N 721.313 -1.57302 -0.09688 0
M  V30 7724 C 722.246 -1.97179 -1.14872 0
M  V30 7725 C 723.224 -0.844734 -1.38935 0
M  V30 7726 O 724.408 -1.10487 -1.52725 0
M  V30 7727 C 721.535 -2.28703 -2.49826 0
M  V30 7728 C 720.581 -3.51158 -2.42054 0
M  V30 7729 S 721.414 -5.0294 -1.83879 0
M  V30 7730 C 722.57 -5.37639 -3.2046 0
M  V30 7731 H 722.803 -2.86088 -0.808771 0
M  V30 7732 H 720.336 -1.51368 -0.304492 0
M  V30 7733 H 722.294 -2.47541 -3.27466 0
M  V30 7734 H 720.955 -1.40368 -2.8099 0
M  V30 7735 H 720.148 -3.70651 -3.41517 0
M  V30 7736 H 719.75 -3.31821 -1.72543 0
M  V30 7737 H 722.042 -5.34175 -4.16729 0
M  V30 7738 H 722.985 -6.38677 -3.05773 0
M  V30 7739 H 723.393 -4.651 -3.19909 0
M  V30 7740 N 722.791 0.367657 -1.53252 0
M  V30 7741 C 724.021 1.12955 -1.72988 0
M  V30 7742 C 724.429 1.8358 -0.457708 0
M  V30 7743 O 723.772 1.74336 0.579006 0
M  V30 7744 C 723.834 2.20545 -2.83902 0
M  V30 7745 C 723.498 1.69704 -4.24323 0
M  V30 7746 C 724.495 1.16223 -5.06743 0
M  V30 7747 C 722.18 1.7528 -4.70725 0
M  V30 7748 C 724.174 0.689935 -6.33655 0
M  V30 7749 C 721.861 1.27662 -5.97617 0
M  V30 7750 C 722.859 0.746083 -6.78913 0
M  V30 7751 O 722.547 0.276925 -8.03423 0
M  V30 7752 H 722.279 0.343753 -0.582074 0
M  V30 7753 H 724.833 0.433106 -2.00782 0
M  V30 7754 H 723.063 2.93676 -2.51577 0
M  V30 7755 H 724.752 2.82111 -2.91836 0
M  V30 7756 H 725.518 1.11256 -4.72067 0
M  V30 7757 H 721.397 2.15515 -4.07522 0
M  V30 7758 H 724.941 0.275164 -6.97057 0
M  V30 7759 H 720.838 1.32322 -6.31792 0
M  V30 7760 H 721.606 0.396445 -8.17539 0
M  V30 7761 N 724.269 1.44576 0.627338 0
M  V30 7762 C 725.497 1.51048 1.41394 0
M  V30 7763 C 725.912 0.136568 1.88305 0
M  V30 7764 O 725.269 -0.858251 1.6106 0
M  V30 7765 C 725.32 2.47837 2.63172 0
M  V30 7766 O 725.041 3.79887 2.18215 0
M  V30 7767 C 726.542 2.63811 3.56257 0
M  V30 7768 H 723.762 0.512171 0.4335 0
M  V30 7769 H 726.306 1.89576 0.766878 0
M  V30 7770 H 724.461 2.12433 3.23961 0
M  V30 7771 H 724.875 4.32177 2.97192 0
M  V30 7772 H 726.349 3.35554 4.38301 0
M  V30 7773 H 726.826 1.69169 4.05313 0
M  V30 7774 H 727.432 3.0013 3.01333 0
M  V30 7775 N 725.747 -0.868086 1.31537 0
M  V30 7776 C 727.163 -1.15414 1.10235 0
M  V30 7777 C 727.363 -2.01106 -0.125947 0
M  V30 7778 O 726.419 -2.38994 -0.814734 0
M  V30 7779 C 727.732 -1.84445 2.37488 0
M  V30 7780 C 729.28 -1.97139 2.43116 0
M  V30 7781 C 729.755 -2.69585 3.70254 0
M  V30 7782 N 731.246 -2.77119 3.71159 0
M  V30 7783 C 731.981 -3.33791 4.6623 0
M  V30 7784 N 731.477 -3.9138 5.71659 0
M  V30 7785 N 733.27 -3.31767 4.53747 0
M  V30 7786 H 725.421 -0.297109 2.10312 0
M  V30 7787 H 727.684 -0.194227 0.92789 0
M  V30 7788 H 727.39 -1.2893 3.27215 0
M  V30 7789 H 727.264 -2.84709 2.47428 0
M  V30 7790 H 729.651 -2.51818 1.53856 0
M  V30 7791 H 729.732 -0.95912 2.37138 0
M  V30 7792 H 729.376 -2.15572 4.59881 0
M  V30 7793 H 729.306 -3.71223 3.73499 0
M  V30 7794 H 731.797 -2.3625 2.94948 0
M  V30 7795 H 732.11 -4.3274 6.40278 0
M  V30 7796 H 730.455 -3.8975 5.7543 0
M  V30 7797 H 733.646 -2.86016 3.70557 0
M  V30 7798 H 733.819 -3.75636 5.28017 0
M  V30 7799 N 727.225 -1.14528 -1.08264 0
M  V30 7800 C 728.471 -0.91576 -1.80947 0
M  V30 7801 C 728.804 0.55623 -1.86064 0
M  V30 7802 O 728.079 1.41207 -1.33756 0
M  V30 7803 C 728.362 -1.51917 -3.26486 0
M  V30 7804 C 728.215 -3.06111 -3.2957 0
M  V30 7805 C 729.534 -1.19724 -4.23502 0
M  V30 7806 H 726.653 -0.334113 -0.656915 0
M  V30 7807 H 729.295 -1.41547 -1.26746 0
M  V30 7808 H 727.445 -1.0942 -3.72773 0
M  V30 7809 H 729.117 -3.57448 -2.91597 0
M  V30 7810 H 727.36 -3.40483 -2.688 0
M  V30 7811 H 728.031 -3.43438 -4.32151 0
M  V30 7812 H 730.507 -1.56467 -3.85561 0
M  V30 7813 H 729.383 -1.64575 -5.23647 0
M  V30 7814 H 729.644 -0.112771 -4.41956 0
M  V30 7815 N 728.703 1.26451 -0.940633 0
M  V30 7816 C 730.114 1.75726 -0.630653 0
M  V30 7817 C 730.465 1.76631 0.854167 0
M  V30 7818 O 729.59 1.37807 1.66848 0
M  V30 7819 C 730.185 3.19114 -1.13805 0
M  V30 7820 C 728.744 3.66005 -0.878497 0
M  V30 7821 C 727.891 2.45505 -1.28928 0
M  V30 7822 H 730.842 1.12535 -1.119 0
M  V30 7823 H 730.863 3.77311 -0.491625 0
M  V30 7824 H 730.375 3.18424 -2.21874 0
M  V30 7825 H 728.476 3.72126 0.187833 0
M  V30 7826 H 728.589 4.54844 -1.50512 0
M  V30 7827 H 726.953 2.4467 -0.707713 0
M  V30 7828 H 727.736 2.47516 -2.37888 0
M  V30 7829 N 730.181 0.707592 1.40822 0
M  V30 7830 C 731.111 0.0644925 2.33411 0
M  V30 7831 C 732.092 -0.754205 1.52466 0
M  V30 7832 O 733.277 -0.704749 1.80961 0
M  V30 7833 C 730.407 -0.863865 3.36385 0
M  V30 7834 C 729.361 -0.15138 4.27732 0
M  V30 7835 C 728.687 -1.19491 5.21177 0
M  V30 7836 C 729.987 0.989607 5.12839 0
M  V30 7837 H 731.681 0.837829 2.87438 0
M  V30 7838 H 729.227 0.404346 1.38207 0
M  V30 7839 H 731.18 -1.32309 4.0009 0
M  V30 7840 H 729.904 -1.66901 2.80734 0
M  V30 7841 H 728.563 0.287937 3.65467 0
M  V30 7842 H 728.211 -1.9929 4.61836 0
M  V30 7843 H 727.911 -0.723123 5.83134 0
M  V30 7844 H 729.435 -1.6544 5.8776 0
M  V30 7845 H 730.849 0.610114 5.70044 0
M  V30 7846 H 729.246 1.38926 5.83798 0
M  V30 7847 H 730.316 1.82389 4.49291 0
M  V30 7848 N 731.66 -1.50943 0.453197 0
M  V30 7849 C 732.593 -2.24742 -0.395787 0
M  V30 7850 C 733.571 -1.27316 -1.01141 0
M  V30 7851 O 734.755 -1.56494 -1.05081 0
M  V30 7852 C 731.882 -3.00999 -1.55298 0
M  V30 7853 C 730.928 -4.13207 -1.0565 0
M  V30 7854 S 731.761 -5.35498 0.01435 0
M  V30 7855 C 732.917 -6.15298 -1.14714 0
M  V30 7856 H 733.15 -2.96403 0.23071 0
M  V30 7857 H 730.683 -1.52557 0.237874 0
M  V30 7858 H 732.641 -3.45529 -2.2163 0
M  V30 7859 H 731.302 -2.28896 -2.15094 0
M  V30 7860 H 730.495 -4.65901 -1.9223 0
M  V30 7861 H 730.097 -3.7102 -0.471182 0
M  V30 7862 H 732.389 -6.45346 -2.06239 0
M  V30 7863 H 733.332 -7.05019 -0.659842 0
M  V30 7864 H 733.74 -5.47046 -1.39288 0
M  V30 7865 N 733.138 -0.185124 -1.56509 0
M  V30 7866 C 734.086 0.756505 -2.19954 0
M  V30 7867 C 735.08 1.22725 -1.16769 0
M  V30 7868 O 736.286 1.1913 -1.34937 0
M  V30 7869 H 732.661 0.262279 -0.704779 0
M  V30 7870 H 734.632 0.197587 -2.97745 0
M  V30 7871 C 733.381 1.96975 -2.86524 0
M  V30 7872 H 732.704 1.61658 -3.65659 0
M  V30 7873 H 734.144 2.60719 -3.34367 0
M  V30 7874 C 732.603 2.80219 -1.87027 0
M  V30 7875 O 733.133 3.77821 -1.36433 0
M  V30 7876 N 731.339 2.4551 -1.55477 0
M  V30 7877 H 730.886 1.66199 -1.96813 0
M  V30 7878 H 730.844 3.01493 -0.891597 0
M  V30 7879 N 734.616 1.57351 0.0885366 0
M  V30 7880 C 735.526 2.05858 1.12516 0
M  V30 7881 C 736.542 0.984758 1.43452 0
M  V30 7882 O 737.718 1.29836 1.53963 0
M  V30 7883 C 734.783 2.47882 2.42395 0
M  V30 7884 C 733.844 3.69487 2.18582 0
M  V30 7885 C 733.077 4.09497 3.42268 0
M  V30 7886 O 733.3 3.49536 4.50755 0
M  V30 7887 O 732.234 5.02406 3.31469 0
M  V30 7888 H 736.06 2.94467 0.743146 0
M  V30 7889 H 733.645 1.46326 0.301507 0
M  V30 7890 H 735.527 2.75509 3.18862 0
M  V30 7891 H 734.202 1.62408 2.8001 0
M  V30 7892 H 733.109 3.46967 1.39875 0
M  V30 7893 H 734.442 4.55761 1.85857 0
M  V30 7894 N 736.094 -0.359525 1.53444 0
M  V30 7895 C 737.341 -1.10152 1.6992 0
M  V30 7896 C 737.669 -1.89125 0.4541 0
M  V30 7897 O 736.924 -1.87396 -0.564023 0
M  V30 7898 C 737.223 -2.08287 2.90433 0
M  V30 7899 C 736.889 -1.45749 4.26694 0
M  V30 7900 C 735.551 -1.28421 4.63747 0
M  V30 7901 C 737.903 -1.00557 5.11408 0
M  V30 7902 C 735.231 -0.644951 5.83144 0
M  V30 7903 C 737.583 -0.380288 6.31456 0
M  V30 7904 C 736.247 -0.194557 6.67216 0
M  V30 7905 H 735.517 -0.403076 0.621781 0
M  V30 7906 H 738.164 -0.382612 1.87639 0
M  V30 7907 H 736.469 -2.86503 2.67251 0
M  V30 7908 H 738.166 -2.65662 3.00374 0
M  V30 7909 H 734.756 -1.6023 3.97523 0
M  V30 7910 H 738.94 -1.12735 4.83326 0
M  V30 7911 H 734.196 -0.48952 6.09437 0
M  V30 7912 H 738.37 -0.0219455 6.96397 0
M  V30 7913 H 735.997 0.30285 7.59597 0
M  V30 7914 N 737.572 -1.44907 -0.619662 0
M  V30 7915 C 738.82 -1.47999 -1.37625 0
M  V30 7916 C 739.141 -0.118295 -1.94641 0
M  V30 7917 O 738.411 0.85086 -1.76457 0
M  V30 7918 H 736.991 -0.544993 -0.510873 0
M  V30 7919 H 739.653 -1.80772 -0.728522 0
M  V30 7920 H 738.749 -2.21196 -2.20179 0
M  V30 7921 N 739.05 0.861098 -1.31996 0
M  V30 7922 C 739.96 2.00154 -1.22374 0
M  V30 7923 C 740.976 1.73447 -0.138631 0
M  V30 7924 O 742.152 1.98191 -0.358104 0
M  V30 7925 C 739.217 3.33696 -0.940645 0
M  V30 7926 C 738.278 3.73668 -2.11355 0
M  V30 7927 C 737.511 5.00837 -1.84386 0
M  V30 7928 O 737.734 5.64996 -0.783287 0
M  V30 7929 O 736.668 5.37787 -2.70313 0
M  V30 7930 H 740.494 2.11207 -2.18233 0
M  V30 7931 H 738.079 0.990768 -1.11822 0
M  V30 7932 H 739.961 4.13756 -0.798987 0
M  V30 7933 H 738.636 3.23698 -0.0121636 0
M  V30 7934 H 737.543 2.94211 -2.31065 0
M  V30 7935 H 738.876 3.88303 -3.02459 0
M  V30 7936 N 740.528 1.15101 1.07655 0
M  V30 7937 C 741.758 0.946357 1.83651 0
M  V30 7938 C 742.166 -0.508641 1.82235 0
M  V30 7939 O 741.509 -1.36445 1.22997 0
M  V30 7940 C 741.571 1.37945 3.31981 0
M  V30 7941 C 741.235 2.85155 3.57122 0
M  V30 7942 C 742.232 3.83234 3.51323 0
M  V30 7943 C 739.917 3.2275 3.84887 0
M  V30 7944 C 741.911 5.16914 3.72932 0
M  V30 7945 C 739.598 4.56604 4.06148 0
M  V30 7946 C 740.596 5.53495 4.00165 0
M  V30 7947 O 740.284 6.84931 4.20861 0
M  V30 7948 H 740.016 0.336368 0.586372 0
M  V30 7949 H 742.57 1.53198 1.36819 0
M  V30 7950 H 740.8 0.737205 3.79608 0
M  V30 7951 H 742.489 1.14439 3.89434 0
M  V30 7952 H 743.255 3.55535 3.29878 0
M  V30 7953 H 739.134 2.47921 3.88659 0
M  V30 7954 H 742.678 5.92529 3.68178 0
M  V30 7955 H 738.575 4.84019 4.27078 0
M  V30 7956 H 739.343 6.91304 4.38226 0
M  V30 7957 N 742.006 -1.2595 0.947325 0
M  V30 7958 C 743.417 -1.75389 0.639963 0
M  V30 7959 C 743.768 -1.77081 -0.844788 0
M  V30 7960 O 742.893 -1.3869 -1.66114 0
M  V30 7961 C 743.488 -3.18506 1.15496 0
M  V30 7962 C 742.047 -3.65534 0.897894 0
M  V30 7963 C 741.194 -2.44818 1.30228 0
M  V30 7964 H 744.145 -1.1194 1.12495 0
M  V30 7965 H 744.166 -3.77045 0.511627 0
M  V30 7966 H 743.678 -3.17243 2.23559 0
M  V30 7967 H 741.779 -3.72221 -0.168096 0
M  V30 7968 H 741.892 -4.54039 1.52922 0
M  V30 7969 H 740.256 -2.44291 0.720678 0
M  V30 7970 H 741.039 -2.46251 2.39198 0
M  V30 7971 N 743.484 -0.715051 -1.40445 0
M  V30 7972 C 744.434 -0.038591 -2.27967 0
M  V30 7973 C 745.418 0.733099 -1.43229 0
M  V30 7974 O 746.61 0.605388 -1.66325 0
M  V30 7975 C 743.739 0.882801 -3.31755 0
M  V30 7976 C 742.825 0.106325 -4.23967 0
M  V30 7977 N 743.216 -0.910143 -4.97544 0
M  V30 7978 C 741.514 0.33896 -4.4471 0
M  V30 7979 C 742.215 -1.37665 -5.65175 0
M  V30 7980 N 741.191 -0.698905 -5.39088 0
M  V30 7981 H 744.993 -0.81765 -2.82297 0
M  V30 7982 H 742.507 -0.547591 -1.5289 0
M  V30 7983 H 744.504 1.38273 -3.93302 0
M  V30 7984 H 743.164 1.66124 -2.78985 0
M  V30 7985 H 744.175 -1.29097 -5.01552 0
M  V30 7986 H 740.852 1.09377 -4.02918 0
M  V30 7987 H 742.242 -2.22122 -6.34123 0
M  V30 7988 N 744.962 1.50701 -0.461195 0
M  V30 7989 C 746.373 1.867 -0.00370227 0
M  V30 7990 C 746.724 1.37673 1.39787 0
M  V30 7991 O 745.849 0.737515 2.03445 0
M  V30 7992 C 746.444 3.388 5.75786e-05 0
M  V30 7993 C 745.003 3.74247 0.402044 0
M  V30 7994 C 744.15 2.74549 -0.389652 0
M  V30 7995 H 747.101 1.43585 -0.675942 0
M  V30 7996 H 747.122 3.719 0.804414 0
M  V30 7997 H 746.634 3.74452 -1.02015 0
M  V30 7998 H 744.735 3.44192 1.42697 0
M  V30 7999 H 744.848 4.78973 0.110265 0
M  V30 8000 H 743.212 2.54226 0.155314 0
M  V30 8001 H 743.995 3.13044 -1.40919 0
M  V30 8002 N 746.441 0.193421 1.56409 0
M  V30 8003 C 747.388 -0.728124 2.19014 0
M  V30 8004 C 748.358 -1.21098 1.13686 0
M  V30 8005 O 749.543 -1.27517 1.4193 0
M  V30 8006 C 746.683 -1.94277 2.8522 0
M  V30 8007 C 745.796 -1.50143 4.05069 0
M  V30 8008 C 744.931 -2.67145 4.59137 0
M  V30 8009 C 743.97 -2.19609 5.71348 0
M  V30 8010 N 743.107 -3.29782 6.19829 0
M  V30 8011 H 747.947 -0.187499 2.9741 0
M  V30 8012 H 745.484 -0.0808064 1.46878 0
M  V30 8013 H 747.442 -2.65551 3.21774 0
M  V30 8014 H 746.072 -2.45673 2.09391 0
M  V30 8015 H 745.124 -0.684624 3.74189 0
M  V30 8016 H 746.436 -1.11266 4.86232 0
M  V30 8017 H 745.59 -3.46544 4.97988 0
M  V30 8018 H 744.329 -3.09295 3.77078 0
M  V30 8019 H 743.334 -1.38664 5.32027 0
M  V30 8020 H 744.559 -1.78492 6.55223 0
M  V30 8021 H 742.505 -3.71466 5.40693 0
M  V30 8022 H 742.422 -2.95069 6.96039 0
M  V30 8023 H 743.69 -4.094 6.63334 0
M  V30 8024 N 747.919 -1.57396 -0.0801906 0
M  V30 8025 C 749.33 -1.75642 -0.633002 0
M  V30 8026 C 749.681 -0.817708 -1.78348 0
M  V30 8027 O 748.806 0.000233743 -2.164 0
M  V30 8028 C 749.401 -3.18502 -1.15507 0
M  V30 8029 C 747.96 -3.38121 -1.65381 0
M  V30 8030 C 747.107 -2.71386 -0.569661 0
M  V30 8031 H 750.058 -1.58027 0.145949 0
M  V30 8032 H 750.079 -3.22198 -2.02408 0
M  V30 8033 H 749.591 -3.86799 -0.317515 0
M  V30 8034 H 747.692 -2.74926 -2.51488 0
M  V30 8035 H 747.805 -4.46521 -1.73654 0
M  V30 8036 H 746.169 -2.33702 -1.0127 0
M  V30 8037 H 746.952 -3.42332 0.257561 0
M  V30 8038 N 749.397 0.351382 -1.53633 0
M  V30 8039 C 750.813 0.693987 -1.43722 0
M  V30 8040 C 751.013 1.9274 -0.587669 0
M  V30 8041 O 750.069 2.52387 -0.0756082 0
M  V30 8042 C 751.382 0.893937 -2.87105 0
M  V30 8043 C 752.93 0.993051 -2.96829 0
M  V30 8044 C 753.405 1.22537 -4.41303 0
M  V30 8045 N 754.896 1.29275 -4.44795 0
M  V30 8046 C 755.631 1.48988 -5.53706 0
M  V30 8047 N 755.127 1.65924 -6.72637 0
M  V30 8048 N 756.92 1.51472 -5.41306 0
M  V30 8049 H 749.071 -0.459688 -2.07366 0
M  V30 8050 H 751.334 -0.143684 -0.937048 0
M  V30 8051 H 751.04 0.0592517 -3.5165 0
M  V30 8052 H 750.914 1.79795 -3.31592 0
M  V30 8053 H 753.301 1.81827 -2.32429 0
M  V30 8054 H 753.382 0.0661119 -2.55715 0
M  V30 8055 H 753.026 0.405117 -5.06282 0
M  V30 8056 H 752.956 2.16575 -4.80003 0
M  V30 8057 H 755.447 1.17743 -3.59089 0
M  V30 8058 H 755.76 1.80578 -7.51406 0
M  V30 8059 H 754.105 1.63075 -6.75597 0
M  V30 8060 H 757.296 1.37818 -4.47352 0
M  V30 8061 H 757.469 1.66493 -6.26246 0
M  V30 8062 N 750.875 1.45233 0.611969 0
M  V30 8063 C 752.124 1.48296 1.36716 0
M  V30 8064 C 752.437 0.12706 1.95187 0
M  V30 8065 O 753.643 0.0353066 2.71477 0
M  V30 8066 C 752.099 2.61168 2.47627 0
M  V30 8067 C 751.707 4.03051 1.95587 0
M  V30 8068 C 753.451 2.73472 3.24674 0
M  V30 8069 C 751.358 5.07312 3.03954 0
M  V30 8070 H 750.288 0.5518 0.513841 0
M  V30 8071 H 752.939 1.7136 0.656359 0
M  V30 8072 H 751.321 2.31379 3.21372 0
M  V30 8073 H 752.495 4.42497 1.2858 0
M  V30 8074 H 750.81 3.95158 1.31298 0
M  V30 8075 H 753.407 3.48537 4.05494 0
M  V30 8076 H 753.75 1.79953 3.75397 0
M  V30 8077 H 754.283 3.02765 2.58028 0
M  V30 8078 H 751.022 6.02525 2.58154 0
M  V30 8079 H 750.542 4.7244 3.69541 0
M  V30 8080 H 752.221 5.31867 3.6841 0
M  V30 8081 N 752.353 -0.854086 1.3245 0
M  V30 8082 C 753.602 -1.60318 1.22397 0
M  V30 8083 C 753.915 -1.9444 -0.212664 0
M  V30 8084 O 755.121 -2.67991 -0.435066 0
M  V30 8085 C 753.577 -2.8909 2.1437 0
M  V30 8086 C 753.185 -2.62391 3.63119 0
M  V30 8087 C 754.929 -3.67104 2.13155 0
M  V30 8088 C 752.836 -3.87167 4.47052 0
M  V30 8089 H 751.766 -0.601586 0.454544 0
M  V30 8090 H 754.417 -0.943023 1.57415 0
M  V30 8091 H 752.799 -3.56567 1.72268 0
M  V30 8092 H 753.973 -2.03222 4.13567 0
M  V30 8093 H 752.288 -1.97706 3.66471 0
M  V30 8094 H 754.885 -4.59696 2.731 0
M  V30 8095 H 755.228 -4.00876 1.12268 0
M  V30 8096 H 755.761 -3.06533 2.5354 0
M  V30 8097 H 752.5 -3.58536 5.48755 0
M  V30 8098 H 752.02 -4.45729 4.01355 0
M  V30 8099 H 753.699 -4.549 4.60081 0
M  V30 8100 N 753.831 -1.1567 -1.07043 0
M  V30 8101 C 755.071 -0.944089 -1.81291 0
M  V30 8102 C 755.435 0.519305 -1.84844 0
M  V30 8103 O 756.636 0.850357 -2.54995 0
M  V30 8104 C 754.907 -1.54528 -3.22267 0
M  V30 8105 S 756.466 -1.47623 -4.13223 0
M  V30 8106 H 753.284 -0.339696 -0.624602 0
M  V30 8107 H 755.886 -1.47277 -1.28568 0
M  V30 8108 H 754.59 -2.60321 -3.17271 0
M  V30 8109 H 754.121 -1.0156 -3.80065 0
M  V30 8110 H 756.136 -0.471261 -4.93957 0
M  V30 8111 N 755.309 1.25446 -0.953992 0
M  V30 8112 C 756.219 2.29632 -0.480264 0
M  V30 8113 C 757.235 1.68025 0.452071 0
M  V30 8114 O 758.411 1.98703 0.328472 0
M  V30 8115 C 755.476 3.45903 0.234974 0
M  V30 8116 C 754.537 4.22953 -0.735495 0
M  V30 8117 C 753.77 5.33672 -0.0542957 0
M  V30 8118 O 753.993 5.58477 1.16018 0
M  V30 8119 O 752.927 5.9734 -0.739509 0
M  V30 8120 H 756.753 2.72242 -1.34602 0
M  V30 8121 H 754.338 1.30883 -0.720419 0
M  V30 8122 H 756.22 4.16552 0.637341 0
M  V30 8123 H 754.895 3.05296 1.07592 0
M  V30 8124 H 753.802 3.54734 -1.18806 0
M  V30 8125 H 755.135 4.67341 -1.54444 0
M  V30 8126 N 756.787 0.722489 1.40064 0
M  V30 8127 C 758.017 0.274439 2.04769 0
M  V30 8128 C 758.425 -1.09125 1.54559 0
M  V30 8129 O 757.768 -1.69834 0.700149 0
M  V30 8130 C 757.83 0.184091 3.59028 0
M  V30 8131 C 757.494 1.48619 4.32159 0
M  V30 8132 C 758.491 2.42947 4.59644 0
M  V30 8133 C 756.176 1.74703 4.7094 0
M  V30 8134 C 758.17 3.616 5.24904 0
M  V30 8135 C 755.857 2.93636 5.3593 0
M  V30 8136 C 756.855 3.86907 5.62843 0
M  V30 8137 O 756.543 5.03753 6.26489 0
M  V30 8138 H 756.275 0.119847 0.665292 0
M  V30 8139 H 758.829 0.983352 1.80331 0
M  V30 8140 H 757.059 -0.580821 3.82313 0
M  V30 8141 H 758.748 -0.230306 4.05246 0
M  V30 8142 H 759.514 2.24062 4.30141 0
M  V30 8143 H 755.393 1.02955 4.49356 0
M  V30 8144 H 758.937 4.34418 5.45827 0
M  V30 8145 H 754.834 3.12428 5.64853 0
M  V30 8146 H 755.602 5.03922 6.44984 0
M  V30 8147 N 758.265 -1.50454 0.469181 0
M  V30 8148 C 759.228 -2.2703 -0.314643 0
M  V30 8149 C 760.228 -1.31734 -0.922111 0
M  V30 8150 O 761.418 -1.55176 -0.791588 0
M  V30 8151 C 758.55 -3.08616 -1.44806 0
M  V30 8152 H 759.743 -2.97769 0.356892 0
M  V30 8153 H 757.296 -1.54698 0.223191 0
M  V30 8154 H 758.031 -2.42369 -2.1547 0
M  V30 8155 H 757.816 -3.78647 -1.01829 0
M  V30 8156 H 759.306 -3.66536 -2.00103 0
M  V30 8157 N 759.743 -0.201713 -1.56304 0
M  V30 8158 C 760.693 0.729444 -2.16016 0
M  V30 8159 C 761.677 1.17164 -1.10279 0
M  V30 8160 O 762.869 1.12893 -1.36324 0
M  V30 8161 C 759.998 1.94594 -2.82822 0
M  V30 8162 C 759.084 1.52434 -3.95758 0
M  V30 8163 N 759.475 0.814106 -4.99205 0
M  V30 8164 C 757.773 1.81314 -4.07481 0
M  V30 8165 C 758.474 0.601896 -5.78578 0
M  V30 8166 N 757.45 1.15263 -5.3124 0
M  V30 8167 H 761.252 0.178163 -2.93359 0
M  V30 8168 H 758.766 -0.00218038 -1.624 0
M  V30 8169 H 760.763 2.62357 -3.23998 0
M  V30 8170 H 759.423 2.50188 -2.06969 0
M  V30 8171 H 760.434 0.468872 -5.15773 0
M  V30 8172 H 757.111 2.3837 -3.42762 0
M  V30 8173 H 758.501 0.0380119 -6.71889 0
M  V30 8174 N 761.222 1.57436 0.0718424 0
M  V30 8175 C 762.185 2.02703 1.06977 0
M  V30 8176 C 763.185 0.924062 1.31597 0
M  V30 8177 O 764.375 1.18894 1.27318 0
M  V30 8178 C 761.507 2.40763 2.41342 0
M  V30 8179 H 762.7 2.92098 0.679619 0
M  V30 8180 H 760.253 1.5304 0.317565 0
M  V30 8181 H 760.988 1.54394 2.8519 0
M  V30 8182 H 760.773 3.21249 2.24814 0
M  V30 8183 H 762.263 2.76361 3.13073 0
M  V30 8184 N 762.7 -0.34323 1.53817 0
M  V30 8185 C 763.633 -1.44472 1.76644 0
M  V30 8186 C 764.611 -1.50498 0.615556 0
M  V30 8187 O 765.795 -1.6821 0.850751 0
M  V30 8188 C 762.922 -2.82705 1.86536 0
M  V30 8189 C 761.968 -2.94302 3.08688 0
M  V30 8190 S 762.801 -2.60739 4.67735 0
M  V30 8191 C 763.957 -4.01079 4.80506 0
M  V30 8192 H 764.19 -1.24893 2.69794 0
M  V30 8193 H 761.723 -0.538915 1.4469 0
M  V30 8194 H 763.681 -3.62342 1.92921 0
M  V30 8195 H 762.342 -2.9958 0.943975 0
M  V30 8196 H 761.535 -3.95593 3.12286 0
M  V30 8197 H 761.137 -2.22614 3.00531 0
M  V30 8198 H 763.429 -4.95603 4.61935 0
M  V30 8199 H 764.372 -4.02475 5.82597 0
M  V30 8200 H 764.78 -3.89119 4.08958 0
M  V30 8201 N 764.178 -1.45556 -0.604258 0
M  V30 8202 C 765.426 -1.4945 -1.36048 0
M  V30 8203 C 765.747 -0.138933 -1.94504 0
M  V30 8204 O 765.017 0.832097 -1.7735 0
M  V30 8205 H 763.597 -0.550381 -0.505064 0
M  V30 8206 H 766.259 -1.81535 -0.709308 0
M  V30 8207 H 765.355 -2.23519 -2.17821 0
M  V30 8208 N 765.656 0.84705 -1.32902 0
M  V30 8209 C 766.604 1.97765 -1.22441 0
M  V30 8210 C 767.598 1.68919 -0.127546 0
M  V30 8211 O 768.804 1.77633 -0.290973 0
M  V30 8212 H 765.179 0.649072 -0.379748 0
M  V30 8213 H 767.15 2.03713 -2.18044 0
M  V30 8214 C 765.899 3.33834 -0.972125 0
M  V30 8215 H 765.222 3.56564 -1.80837 0
M  V30 8216 H 766.662 4.13467 -0.939209 0
M  V30 8217 C 765.121 3.35328 0.325059 0
M  V30 8218 O 765.651 3.78887 1.33445 0
M  V30 8219 N 763.857 2.88488 0.349718 0
M  V30 8220 H 763.404 2.53234 -0.472236 0
M  V30 8221 H 763.362 2.8987 1.21748 0
M  V30 8222 N 767.134 1.16236 1.06428 0
M  V30 8223 C 768.382 0.941171 1.78847 0
M  V30 8224 C 768.703 -0.53248 1.87589 0
M  V30 8225 O 767.973 -1.38686 1.38358 0
M  V30 8226 H 766.553 0.345228 0.66244 0
M  V30 8227 H 769.215 1.46479 1.28569 0
M  V30 8228 H 768.311 1.35871 2.80972 0
M  V30 8229 N 768.612 -1.24939 0.960631 0
M  V30 8230 C 770.023 -1.74701 0.658529 0
M  V30 8231 C 770.374 -1.77967 -0.825959 0
M  V30 8232 O 769.499 -1.40444 -1.64634 0
M  V30 8233 C 770.094 -3.17263 1.18867 0
M  V30 8234 C 768.653 -3.64561 0.936614 0
M  V30 8235 C 767.8 -2.43423 1.32817 0
M  V30 8236 H 770.751 -1.10741 1.13676 0
M  V30 8237 H 770.772 -3.76481 0.551589 0
M  V30 8238 H 770.284 -3.14854 2.26912 0
M  V30 8239 H 768.385 -3.72378 -0.128608 0
M  V30 8240 H 768.498 -4.52392 1.57729 0
M  V30 8241 H 766.862 -2.43513 0.746548 0
M  V30 8242 H 767.645 -2.437 2.41796 0
M  V30 8243 N 770.09 -0.729906 -1.39679 0
M  V30 8244 C 771.338 -0.275077 -2.00219 0
M  V30 8245 C 771.659 1.1401 -1.58199 0
M  V30 8246 O 770.929 1.77546 -0.827904 0
M  V30 8247 H 769.509 -0.0987127 -0.740449 0
M  V30 8248 H 772.171 -0.93873 -1.70804 0
M  V30 8249 H 771.267 -0.319446 -3.10461 0
M  V30 8250 N 771.568 1.50203 -0.477153 0
M  V30 8251 C 772.816 2.01959 0.0755889 0
M  V30 8252 C 773.137 1.3608 1.39668 0
M  V30 8253 O 772.407 0.508136 1.89195 0
M  V30 8254 H 770.987 0.74636 0.0309248 0
M  V30 8255 H 773.649 1.84473 -0.628959 0
M  V30 8256 H 772.745 3.11305 0.222683 0
M  V30 8257 N 773.046 0.209999 1.56195 0
M  V30 8258 C 773.976 -0.699746 2.22769 0
M  V30 8259 C 774.957 -1.20993 1.1956 0
M  V30 8260 O 776.142 -1.25605 1.48112 0
M  V30 8261 C 773.272 -1.91302 2.89863 0
M  V30 8262 C 772.226 -1.53715 3.99444 0
M  V30 8263 C 771.552 -2.82826 4.53777 0
M  V30 8264 C 772.852 -0.735836 5.17091 0
M  V30 8265 H 774.546 -0.144716 2.9905 0
M  V30 8266 H 772.092 -0.0681645 1.43839 0
M  V30 8267 H 774.045 -2.5548 3.35124 0
M  V30 8268 H 772.769 -2.49283 2.11011 0
M  V30 8269 H 771.428 -0.918892 3.54897 0
M  V30 8270 H 771.076 -3.38927 3.71669 0
M  V30 8271 H 770.776 -2.58415 5.27727 0
M  V30 8272 H 772.3 -3.47966 5.01749 0
M  V30 8273 H 773.714 -1.28105 5.58804 0
M  V30 8274 H 772.111 -0.589272 5.972 0
M  V30 8275 H 773.181 0.260004 4.84202 0
M  V30 8276 N 774.524 -1.57472 -0.0634922 0
M  V30 8277 C 775.752 -1.91887 -0.773767 0
M  V30 8278 C 776.167 -0.806733 -1.70696 0
M  V30 8279 O 775.524 0.219383 -1.81177 0
M  V30 8280 C 775.575 -3.26092 -1.56034 0
M  V30 8281 O 775.296 -4.33029 -0.66464 0
M  V30 8282 C 776.797 -3.74573 -2.37087 0
M  V30 8283 H 774.017 -0.634074 -0.219525 0
M  V30 8284 H 776.561 -2.04476 -0.0312828 0
M  V30 8285 H 774.716 -3.15004 -2.25502 0
M  V30 8286 H 775.13 -5.10291 -1.21258 0
M  V30 8287 H 776.604 -4.71084 -2.87722 0
M  V30 8288 H 777.081 -3.04003 -3.16984 0
M  V30 8289 H 777.687 -3.88631 -1.72759 0
M  V30 8290 N 776.003 0.335068 -1.53997 0
M  V30 8291 C 776.913 1.43511 -1.85585 0
M  V30 8292 C 777.929 1.57162 -0.746726 0
M  V30 8293 O 779.105 1.72477 -1.03988 0
M  V30 8294 C 776.17 2.78386 -2.06646 0
M  V30 8295 C 775.231 2.74007 -3.30483 0
M  V30 8296 C 774.464 4.02449 -3.50529 0
M  V30 8297 O 774.687 5.00147 -2.74242 0
M  V30 8298 O 773.621 4.06405 -4.4398 0
M  V30 8299 H 777.447 1.19731 -2.79102 0
M  V30 8300 H 775.032 0.528033 -1.39758 0
M  V30 8301 H 776.914 3.58247 -2.21894 0
M  V30 8302 H 775.589 3.0208 -1.16317 0
M  V30 8303 H 774.496 1.92736 -3.2063 0
M  V30 8304 H 775.829 2.55267 -4.20832 0
M  V30 8305 N 777.481 1.45874 0.596531 0
M  V30 8306 C 778.711 1.5379 1.37958 0
M  V30 8307 C 779.119 0.173086 1.88407 0
M  V30 8308 O 778.462 -0.837498 1.63498 0
M  V30 8309 C 778.524 2.47044 2.61169 0
M  V30 8310 C 778.188 3.93565 2.32283 0
M  V30 8311 C 779.185 4.83162 1.91965 0
M  V30 8312 C 776.87 4.38579 2.44854 0
M  V30 8313 C 778.864 6.15782 1.64593 0
M  V30 8314 C 776.551 5.71238 2.17095 0
M  V30 8315 C 777.549 6.59659 1.77028 0
M  V30 8316 O 777.237 7.89857 1.49601 0
M  V30 8317 H 776.969 0.523 0.428307 0
M  V30 8318 H 779.523 1.91855 0.733529 0
M  V30 8319 H 777.753 2.0397 3.28532 0
M  V30 8320 H 779.442 2.4552 3.23226 0
M  V30 8321 H 780.208 4.49646 1.8178 0
M  V30 8322 H 776.087 3.6999 2.75006 0
M  V30 8323 H 779.631 6.84757 1.33245 0
M  V30 8324 H 775.528 6.04306 2.26901 0
M  V30 8325 H 776.296 8.01991 1.63561 0
M  V30 8326 N 778.959 -0.83999 1.33349 0
M  V30 8327 C 779.891 -1.95678 1.19344 0
M  V30 8328 C 780.904 -1.62322 0.124692 0
M  V30 8329 O 782.093 -1.74516 0.375012 0
M  V30 8330 C 779.193 -3.29133 0.807771 0
M  V30 8331 C 778.366 -3.9063 1.96792 0
M  V30 8332 C 777.425 -5.02438 1.56341 0
M  V30 8333 O 776.451 -5.21646 2.27759 0
M  V30 8334 N 777.653 -5.78612 0.467767 0
M  V30 8335 H 780.418 -2.08229 2.15548 0
M  V30 8336 H 777.979 -1.01566 1.26079 0
M  V30 8337 H 779.971 -4.01355 0.519282 0
M  V30 8338 H 778.541 -3.12535 -0.063555 0
M  V30 8339 H 777.761 -3.11011 2.4221 0
M  V30 8340 H 779.049 -4.2845 2.74422 0
M  V30 8341 H 778.447 -5.65559 -0.126324 0
M  V30 8342 H 777.004 -6.51362 0.238945 0
M  V30 8343 N 780.437 -1.16799 -1.0581 0
M  V30 8344 C 781.385 -0.875111 -2.1551 0
M  V30 8345 C 782.379 0.157781 -1.68664 0
M  V30 8346 O 783.585 0.011297 -1.79996 0
M  V30 8347 H 779.96 -0.26542 -0.703602 0
M  V30 8348 H 781.931 -1.8076 -2.37421 0
M  V30 8349 C 780.68 -0.39802 -3.45414 0
M  V30 8350 H 780.003 -1.18425 -3.81858 0
M  V30 8351 H 781.443 -0.231913 -4.23365 0
M  V30 8352 C 779.902 0.88327 -3.25115 0
M  V30 8353 O 780.432 1.95145 -3.51114 0
M  V30 8354 N 778.638 0.828961 -2.78526 0
M  V30 8355 H 778.185 -0.0405029 -2.57568 0
M  V30 8356 H 778.143 1.68673 -2.65324 0
M  V30 8357 N 781.915 1.24427 -0.967243 0
M  V30 8358 C 783.161 1.92772 -0.629812 0
M  V30 8359 C 783.494 1.75436 0.832827 0
M  V30 8360 O 782.769 1.10716 1.59913 0
M  V30 8361 C 783.052 3.45798 -1.00477 0
M  V30 8362 C 782.905 3.72304 -2.52407 0
M  V30 8363 C 784.224 4.36787 -0.538999 0
M  V30 8364 H 781.343 0.700099 -0.230282 0
M  V30 8365 H 783.985 1.46805 -1.20616 0
M  V30 8366 H 782.135 3.8508 -0.514336 0
M  V30 8367 H 783.807 3.42584 -3.08924 0
M  V30 8368 H 782.05 3.17472 -2.95625 0
M  V30 8369 H 782.721 4.7937 -2.73693 0
M  V30 8370 H 785.197 4.04877 -0.959874 0
M  V30 8371 H 784.073 5.4259 -0.829926 0
M  V30 8372 H 784.334 4.38527 0.560923 0
M  V30 8373 N 783.393 0.737304 1.3929 0
M  V30 8374 C 784.64 0.286257 2.00467 0
M  V30 8375 C 784.968 -1.1272 1.58507 0
M  V30 8376 O 784.223 -1.7832 0.806257 0
M  V30 8377 C 784.522 0.338438 3.55794 0
M  V30 8378 C 784.188 1.70524 4.17411 0
M  V30 8379 C 782.85 2.07934 4.33955 0
M  V30 8380 C 785.202 2.60256 4.51571 0
M  V30 8381 C 782.53 3.34578 4.81948 0
M  V30 8382 C 784.882 3.86275 5.00974 0
M  V30 8383 C 783.546 4.23774 5.15725 0
M  V30 8384 H 782.816 0.104749 0.733559 0
M  V30 8385 H 785.463 0.944598 1.66582 0
M  V30 8386 H 783.768 -0.403478 3.89717 0
M  V30 8387 H 785.465 -0.0287255 4.0099 0
M  V30 8388 H 782.055 1.40439 4.04938 0
M  V30 8389 H 786.239 2.32624 4.38406 0
M  V30 8390 H 781.495 3.63572 4.91554 0
M  V30 8391 H 785.669 4.5596 5.26378 0
M  V30 8392 H 783.296 5.21972 5.52674 0
M  V30 8393 N 784.871 -1.49948 0.485112 0
M  V30 8394 C 786.101 -2.06506 -0.0621921 0
M  V30 8395 C 786.509 -1.34756 -1.32806 0
M  V30 8396 O 785.852 -0.41466 -1.78959 0
M  V30 8397 C 785.914 -3.57243 -0.402182 0
M  V30 8398 C 785.578 -4.50574 0.763671 0
M  V30 8399 C 786.575 -4.93032 1.6497 0
M  V30 8400 C 784.26 -4.9308 0.957973 0
M  V30 8401 C 786.254 -5.76718 2.71432 0
M  V30 8402 C 783.941 -5.76546 2.0258 0
M  V30 8403 C 784.939 -6.18267 2.90232 0
M  V30 8404 O 784.627 -7.00066 3.95174 0
M  V30 8405 H 784.359 -0.675925 0.0100672 0
M  V30 8406 H 786.913 -1.93922 0.677023 0
M  V30 8407 H 785.143 -3.6778 -1.19478 0
M  V30 8408 H 786.832 -3.96107 -0.886219 0
M  V30 8409 H 787.598 -4.60851 1.51134 0
M  V30 8410 H 783.477 -4.60117 0.285144 0
M  V30 8411 H 787.021 -6.09203 3.39878 0
M  V30 8412 H 782.918 -6.0814 2.16417 0
M  V30 8413 H 783.686 -7.18343 3.92333 0
M  V30 8414 N 786.349 -0.21828 -1.56081 0
M  V30 8415 C 787.296 0.693189 -2.20144 0
M  V30 8416 C 788.266 1.19274 -1.15598 0
M  V30 8417 O 789.451 1.25243 -1.4394 0
M  V30 8418 C 786.591 1.89715 -2.88275 0
M  V30 8419 C 785.704 1.4368 -4.07407 0
M  V30 8420 C 784.839 2.59807 -4.63329 0
M  V30 8421 C 783.878 2.10492 -5.74769 0
M  V30 8422 N 783.015 3.1988 -6.24997 0
M  V30 8423 H 787.855 0.14016 -2.9767 0
M  V30 8424 H 785.392 0.0574292 -1.46988 0
M  V30 8425 H 787.35 2.60398 -3.25958 0
M  V30 8426 H 785.98 2.42311 -2.13273 0
M  V30 8427 H 785.032 0.625007 -3.7523 0
M  V30 8428 H 786.344 1.03517 -4.8794 0
M  V30 8429 H 785.498 3.38577 -5.03438 0
M  V30 8430 H 784.237 3.03256 -3.81951 0
M  V30 8431 H 783.242 1.30182 -5.34165 0
M  V30 8432 H 784.467 1.68045 -6.5798 0
M  V30 8433 H 782.413 3.62817 -5.46534 0
M  V30 8434 H 782.33 2.83958 -7.00645 0
M  V30 8435 H 783.598 3.98796 -6.69763 0
M  V30 8436 N 787.827 1.57504 0.0551401 0
M  V30 8437 C 788.777 2.0128 1.071 0
M  V30 8438 C 789.761 0.897592 1.33537 0
M  V30 8439 O 790.953 1.16151 1.33558 0
M  V30 8440 C 788.082 2.47414 2.37994 0
M  V30 8441 C 787.168 3.65703 2.14761 0
M  V30 8442 N 787.559 4.79323 1.61504 0
M  V30 8443 C 785.857 3.72574 2.45162 0
M  V30 8444 C 786.558 5.61089 1.53472 0
M  V30 8445 N 785.534 5.05426 2.00114 0
M  V30 8446 H 789.336 2.86558 0.652829 0
M  V30 8447 H 786.85 1.60274 0.26193 0
M  V30 8448 H 788.847 2.77023 3.11551 0
M  V30 8449 H 787.507 1.6353 2.80514 0
M  V30 8450 H 788.518 5.01284 1.30134 0
M  V30 8451 H 785.195 2.99439 2.90934 0
M  V30 8452 H 786.585 6.62328 1.13008 0
M  V30 8453 N 789.305 -0.326896 1.54172 0
M  V30 8454 C 790.582 -1.08326 1.62864 0
M  V30 8455 C 790.962 -2.06018 0.46039 0
M  V30 8456 O 790.31 -2.21889 -0.545685 0
M  V30 8457 C 790.52 -1.78816 2.9971 0
M  V30 8458 C 791.868 -2.31958 3.55641 0
M  V30 8459 O 792.892 -1.88888 3.01993 0
M  V30 8460 O 791.751 -3.10801 4.49517 0
M  V30 8461 H 788.845 -0.499131 0.659392 0
M  V30 8462 H 791.391 -0.327054 1.66519 0
M  V30 8463 H 790.163 -1.07739 3.76176 0
M  V30 8464 H 789.786 -2.61255 2.99719 0
M  V30 8465 N 790.784 -1.46188 -0.588786 0
M  V30 8466 C 792.024 -1.52738 -1.35833 0
M  V30 8467 C 792.388 -0.172403 -1.91224 0
M  V30 8468 O 793.589 -0.112633 -2.68564 0
M  V30 8469 C 791.86 -2.59085 -2.4619 0
M  V30 8470 S 793.419 -2.84997 -3.3365 0
M  V30 8471 H 790.237 -0.539713 -0.462851 0
M  V30 8472 H 792.839 -1.83386 -0.677489 0
M  V30 8473 H 791.543 -3.56177 -2.03878 0
M  V30 8474 H 791.074 -2.3015 -3.19053 0
M  V30 8475 H 793.089 -2.19804 -4.4486 0
M  V30 8476 N 792.262 0.832906 -1.33792 0
M  V30 8477 C 793.511 1.58351 -1.24932 0
M  V30 8478 C 793.824 1.94754 0.181703 0
M  V30 8479 O 795.03 2.6865 0.392375 0
M  V30 8480 C 793.486 2.85643 -2.18943 0
M  V30 8481 C 793.094 2.56581 -3.67247 0
M  V30 8482 C 794.838 3.63667 -2.18968 0
M  V30 8483 C 792.745 3.80006 -4.53155 0
M  V30 8484 H 791.675 0.594278 -0.464058 0
M  V30 8485 H 794.326 0.91786 -1.58895 0
M  V30 8486 H 792.708 3.53781 -1.77919 0
M  V30 8487 H 793.882 1.96617 -4.16747 0
M  V30 8488 H 792.197 1.91851 -3.6957 0
M  V30 8489 H 794.794 4.55293 -2.80379 0
M  V30 8490 H 795.137 3.99039 -1.18631 0
M  V30 8491 H 795.67 3.0246 -2.58384 0
M  V30 8492 H 792.409 3.4976 -5.5439 0
M  V30 8493 H 791.929 4.39288 -4.08395 0
M  V30 8494 H 793.608 4.47523 -4.6726 0
M  V30 8495 N 793.74 1.17359 1.05189 0
M  V30 8496 C 794.672 0.848078 2.12933 0
M  V30 8497 C 795.685 -0.149521 1.62112 0
M  V30 8498 O 796.874 0.0767797 1.78335 0
M  V30 8499 C 793.974 0.243889 3.38021 0
M  V30 8500 C 793.147 1.28436 4.18118 0
M  V30 8501 C 792.206 0.697926 5.21551 0
M  V30 8502 O 791.232 1.36973 5.52473 0
M  V30 8503 N 792.434 -0.510024 5.78255 0
M  V30 8504 H 795.199 1.7754 2.41453 0
M  V30 8505 H 792.76 1.07244 1.21286 0
M  V30 8506 H 794.752 -0.161727 4.04377 0
M  V30 8507 H 793.322 -0.58722 3.07035 0
M  V30 8508 H 792.542 1.86573 3.47252 0
M  V30 8509 H 793.83 1.98617 4.68432 0
M  V30 8510 H 793.228 -1.07378 5.55416 0
M  V30 8511 H 791.785 -0.857705 6.46132 0
M  V30 8512 N 795.218 -1.23913 0.973828 0
M  V30 8513 C 796.466 -1.91771 0.637817 0
M  V30 8514 C 796.787 -1.76434 -0.830435 0
M  V30 8515 O 796.057 -1.13965 -1.59339 0
M  V30 8516 H 794.637 -0.709761 0.232912 0
M  V30 8517 H 797.299 -1.50677 1.23622 0
M  V30 8518 H 796.395 -2.99327 0.883731 0
M  V30 8519 N 796.696 -0.74468 -1.38897 0
M  V30 8520 C 797.646 -0.0869375 -2.27834 0
M  V30 8521 C 798.63 0.702553 -1.44751 0
M  V30 8522 O 799.822 0.569972 -1.67572 0
M  V30 8523 C 796.951 0.812232 -3.33553 0
M  V30 8524 C 796.037 0.0163713 -4.24097 0
M  V30 8525 N 796.428 -1.01547 -4.95502 0
M  V30 8526 C 794.726 0.244554 -4.45329 0
M  V30 8527 C 795.427 -1.49622 -5.62128 0
M  V30 8528 N 794.403 -0.813097 -5.37485 0
M  V30 8529 H 798.205 -0.877345 -2.80499 0
M  V30 8530 H 795.719 -0.579898 -1.51694 0
M  V30 8531 H 797.716 1.299 -3.96146 0
M  V30 8532 H 796.376 1.60169 -2.82446 0
M  V30 8533 H 797.387 -1.39707 -4.98701 0
M  V30 8534 H 794.064 1.00806 -4.05147 0
M  V30 8535 H 795.454 -2.35523 -6.29268 0
M  V30 8536 N 798.174 1.49689 -0.493057 0
M  V30 8537 C 799.404 2.06536 0.0512397 0
M  V30 8538 C 799.812 1.35459 1.32089 0
M  V30 8539 O 799.155 0.424145 1.78736 0
M  V30 8540 C 799.217 3.57452 0.383231 0
M  V30 8541 C 798.881 4.50163 -0.787555 0
M  V30 8542 C 799.878 4.92151 -1.67582 0
M  V30 8543 C 797.563 4.92565 -0.984109 0
M  V30 8544 C 799.557 5.7527 -2.74487 0
M  V30 8545 C 797.244 5.75463 -2.05634 0
M  V30 8546 C 798.242 6.16719 -2.93507 0
M  V30 8547 O 797.93 6.97961 -3.98881 0
M  V30 8548 H 797.662 0.675862 -0.0136516 0
M  V30 8549 H 800.216 1.9356 -0.687298 0
M  V30 8550 H 798.446 3.68408 1.17526 0
M  V30 8551 H 800.135 3.96572 0.8652 0
M  V30 8552 H 800.901 4.60043 -1.53575 0
M  V30 8553 H 796.78 4.5996 -0.309541 0
M  V30 8554 H 800.324 6.07392 -3.43104 0
M  V30 8555 H 796.221 6.06983 -2.19639 0
M  V30 8556 H 796.989 7.16253 -3.96137 0
M  V30 8557 N 799.652 0.226554 1.55963 0
M  V30 8558 C 800.898 -0.404387 1.98727 0
M  V30 8559 C 801.231 -1.59059 1.11418 0
M  V30 8560 O 800.506 -1.93729 0.172971 0
M  V30 8561 C 800.789 -0.834081 3.50307 0
M  V30 8562 C 800.642 0.356104 4.48388 0
M  V30 8563 C 801.961 -1.68845 4.06423 0
M  V30 8564 H 799.08 -0.145515 0.722492 0
M  V30 8565 H 801.722 0.323791 1.87221 0
M  V30 8566 H 799.872 -1.45454 3.60244 0
M  V30 8567 H 801.544 0.99432 4.50456 0
M  V30 8568 H 799.787 1.0027 4.22053 0
M  V30 8569 H 800.458 0.0124333 5.51999 0
M  V30 8570 H 802.934 -1.16489 3.99461 0
M  V30 8571 H 801.81 -1.958 5.1279 0
M  V30 8572 H 802.071 -2.65347 3.53615 0
M  V30 8573 N 801.13 -1.57531 -0.0467866 0
M  V30 8574 C 802.376 -1.89584 -0.736837 0
M  V30 8575 C 802.731 -0.82317 -1.73901 0
M  V30 8576 O 802.024 0.170098 -1.90843 0
M  V30 8577 C 802.218 -3.26091 -1.46285 0
M  V30 8578 C 802.047 -4.46536 -0.532502 0
M  V30 8579 C 800.817 -5.05046 -0.160109 0
M  V30 8580 C 803.015 -5.13979 0.181555 0
M  V30 8581 N 800.997 -6.09009 0.773349 0
M  V30 8582 C 802.368 -6.12345 0.971297 0
M  V30 8583 C 804.423 -4.9727 0.250382 0
M  V30 8584 C 803.126 -6.95802 1.82351 0
M  V30 8585 C 805.152 -5.81275 1.08965 0
M  V30 8586 C 804.514 -6.79197 1.86737 0
M  V30 8587 H 800.613 -0.742868 -0.244277 0
M  V30 8588 H 803.197 -1.947 0.0025481 0
M  V30 8589 H 801.368 -3.21938 -2.1728 0
M  V30 8590 H 803.1 -3.45715 -2.10389 0
M  V30 8591 H 799.855 -4.70754 -0.518457 0
M  V30 8592 H 800.279 -6.65658 1.23406 0
M  V30 8593 H 804.921 -4.21458 -0.336578 0
M  V30 8594 H 802.639 -7.70971 2.42134 0
M  V30 8595 H 806.225 -5.70397 1.14621 0
M  V30 8596 H 805.105 -7.4307 2.50631 0
M  V30 8597 N 802.608 0.318715 -1.54344 0
M  V30 8598 C 803.518 1.41535 -1.87097 0
M  V30 8599 C 804.534 1.56361 -0.763353 0
M  V30 8600 O 805.71 1.71365 -1.05811 0
M  V30 8601 C 802.775 2.76178 -2.09587 0
M  V30 8602 C 801.836 2.70486 -3.3337 0
M  V30 8603 C 801.069 3.98708 -3.54778 0
M  V30 8604 O 801.292 4.9721 -2.79532 0
M  V30 8605 O 800.226 4.01674 -4.48266 0
M  V30 8606 H 804.052 1.16764 -2.80357 0
M  V30 8607 H 801.637 0.51318 -1.4031 0
M  V30 8608 H 803.519 3.55873 -2.25682 0
M  V30 8609 H 802.194 3.00829 -1.19514 0
M  V30 8610 H 801.101 1.89325 -3.22656 0
M  V30 8611 H 802.434 2.50789 -4.23516 0
M  V30 8612 N 804.086 1.46499 0.581025 0
M  V30 8613 C 805.332 1.53108 1.33901 0
M  V30 8614 C 805.687 0.181007 1.91547 0
M  V30 8615 O 804.98 -0.810518 1.73612 0
M  V30 8616 C 805.174 2.56686 2.48691 0
M  V30 8617 C 805.003 4.01633 2.0229 0
M  V30 8618 C 803.773 4.69333 1.87228 0
M  V30 8619 C 805.971 4.89379 1.58154 0
M  V30 8620 N 803.953 5.98891 1.34917 0
M  V30 8621 C 805.324 6.08775 1.17445 0
M  V30 8622 C 807.379 4.76017 1.45987 0
M  V30 8623 C 806.082 7.16286 0.657805 0
M  V30 8624 C 808.108 5.83601 0.95726 0
M  V30 8625 C 807.47 7.02171 0.55996 0
M  V30 8626 H 803.569 0.61509 0.482896 0
M  V30 8627 H 806.153 1.83123 0.661361 0
M  V30 8628 H 804.324 2.28578 3.14017 0
M  V30 8629 H 806.056 2.5328 3.15644 0
M  V30 8630 H 802.811 4.24878 2.09226 0
M  V30 8631 H 803.235 6.67852 1.10917 0
M  V30 8632 H 807.877 3.84736 1.75322 0
M  V30 8633 H 805.595 8.07333 0.352047 0
M  V30 8634 H 809.181 5.75304 0.867007 0
M  V30 8635 H 808.061 7.84 0.177046 0
M  V30 8636 N 805.565 -0.825799 1.34232 0
M  V30 8637 C 806.805 -1.59541 1.27773 0
M  V30 8638 C 807.169 -1.91405 -0.150998 0
M  V30 8639 O 808.37 -2.66644 -0.339728 0
M  V30 8640 C 806.641 -2.86183 2.14089 0
M  V30 8641 S 808.2 -3.76751 2.24953 0
M  V30 8642 H 805.018 -0.546871 0.454371 0
M  V30 8643 H 807.62 -0.975677 1.69413 0
M  V30 8644 H 806.324 -2.60767 3.16905 0
M  V30 8645 H 805.855 -3.53155 1.73335 0
M  V30 8646 H 807.87 -4.75442 1.4202 0
M  V30 8647 N 807.043 -1.17915 -1.04565 0
M  V30 8648 C 808.32 -0.881187 -1.74627 0
M  V30 8649 C 808.7 0.617123 -2.01878 0
M  V30 8650 O 808.048 1.57032 -1.65991 0
M  V30 8651 C 808.258 -1.72299 -3.03503 0
M  V30 8652 C 809.606 -1.94688 -3.77335 0
M  V30 8653 O 810.63 -1.6931 -3.13389 0
M  V30 8654 O 809.489 -2.37379 -4.92253 0
M  V30 8655 H 806.583 -0.326864 -0.759664 0
M  V30 8656 H 809.129 -1.28642 -1.10676 0
M  V30 8657 H 807.901 -2.73891 -2.79462 0
M  V30 8658 H 807.524 -1.31593 -3.75192 0
M  V30 8659 N 808.521 1.23394 -0.980386 0
M  V30 8660 C 809.471 2.22634 -0.491747 0
M  V30 8661 C 810.455 1.54958 0.433222 0
M  V30 8662 O 811.647 1.75049 0.262078 0
M  V30 8663 C 808.776 3.4269 0.204531 0
M  V30 8664 C 807.862 4.17594 -0.740007 0
M  V30 8665 N 808.253 4.69458 -1.88263 0
M  V30 8666 C 806.551 4.42554 -0.553335 0
M  V30 8667 C 807.252 5.26446 -2.47446 0
M  V30 8668 N 806.228 5.14377 -1.75834 0
M  V30 8669 H 810.03 2.60363 -1.36339 0
M  V30 8670 H 807.544 1.38924 -0.841059 0
M  V30 8671 H 809.541 4.12959 0.571901 0
M  V30 8672 H 808.201 3.06477 1.07246 0
M  V30 8673 H 809.212 4.65803 -2.26381 0
M  V30 8674 H 805.889 4.16629 0.269573 0
M  V30 8675 H 807.279 5.77195 -3.43941 0
M  V30 8676 N 809.999 0.752036 1.385 0
M  V30 8677 C 811.247 0.306895 1.99756 0
M  V30 8678 C 811.568 -1.11478 1.59992 0
M  V30 8679 O 810.838 -1.76206 0.856045 0
M  V30 8680 H 809.418 0.11048 0.738785 0
M  V30 8681 H 812.08 0.965785 1.69289 0
M  V30 8682 H 811.176 0.368797 3.09913 0
M  V30 8683 N 811.477 -1.49425 0.500989 0
M  V30 8684 C 812.726 -2.01649 -0.04538 0
M  V30 8685 C 813.039 -1.38572 -1.38047 0
M  V30 8686 O 814.245 -1.82124 -2.01353 0
M  V30 8687 C 812.701 -3.5966 -0.131337 0
M  V30 8688 C 812.309 -4.3171 1.19711 0
M  V30 8689 C 814.053 -4.19828 -0.628071 0
M  V30 8690 C 811.96 -5.81579 1.07332 0
M  V30 8691 H 810.89 -0.753715 -0.0207329 0
M  V30 8692 H 813.541 -1.71962 0.640407 0
M  V30 8693 H 811.923 -3.86063 -0.881574 0
M  V30 8694 H 813.097 -4.17008 1.96064 0
M  V30 8695 H 811.412 -3.83286 1.62729 0
M  V30 8696 H 814.009 -5.2958 -0.738198 0
M  V30 8697 H 814.352 -3.83194 -1.6269 0
M  V30 8698 H 814.885 -3.97746 0.0656314 0
M  V30 8699 H 811.624 -6.22738 2.04642 0
M  V30 8700 H 811.144 -5.98774 0.350679 0
M  V30 8701 H 812.823 -6.42614 0.752047 0
M  V30 8702 N 812.955 -0.234822 -1.55841 0
M  V30 8703 C 813.887 0.702346 -2.18174 0
M  V30 8704 C 814.9 1.14776 -1.15457 0
M  V30 8705 O 816.089 1.07662 -1.42377 0
M  V30 8706 C 813.189 1.96483 -2.76129 0
M  V30 8707 C 812.362 1.67283 -4.04148 0
M  V30 8708 C 811.421 2.7837 -4.46539 0
M  V30 8709 O 810.447 2.46272 -5.13166 0
M  V30 8710 N 811.649 4.07611 -4.1332 0
M  V30 8711 H 814.414 0.169074 -2.99223 0
M  V30 8712 H 811.975 -0.0543164 -1.61809 0
M  V30 8713 H 813.967 2.70016 -3.01452 0
M  V30 8714 H 812.537 2.40822 -1.99307 0
M  V30 8715 H 811.757 0.773278 -3.86541 0
M  V30 8716 H 813.045 1.45222 -4.87635 0
M  V30 8717 H 812.443 4.36527 -3.59806 0
M  V30 8718 H 811 4.77646 -4.43506 0
M  V30 8719 N 814.433 1.57553 0.0384317 0
M  V30 8720 C 815.396 2.04927 1.02653 0
M  V30 8721 C 816.396 0.951768 1.29607 0
M  V30 8722 O 817.586 1.21568 1.24768 0
M  V30 8723 C 814.718 2.45828 2.36181 0
M  V30 8724 H 815.911 2.93474 0.617508 0
M  V30 8725 H 813.464 1.53679 0.285031 0
M  V30 8726 H 814.199 1.60408 2.8185 0
M  V30 8727 H 813.984 3.25945 2.1795 0
M  V30 8728 H 815.474 2.82939 3.0714 0
M  V30 8729 N 815.911 -0.310526 1.54511 0
M  V30 8730 C 816.843 -1.40405 1.8116 0
M  V30 8731 C 817.856 -1.47261 0.694114 0
M  V30 8732 O 819.045 -1.49751 0.971441 0
M  V30 8733 C 816.145 -2.78849 1.92604 0
M  V30 8734 C 815.318 -2.95041 3.22908 0
M  V30 8735 C 814.377 -4.13925 3.24889 0
M  V30 8736 O 813.403 -4.06463 3.98467 0
M  V30 8737 N 814.605 -5.24099 2.496 0
M  V30 8738 H 817.37 -1.17903 2.75534 0
M  V30 8739 H 814.931 -0.500564 1.53967 0
M  V30 8740 H 816.923 -3.5661 1.91342 0
M  V30 8741 H 815.493 -2.94342 1.05268 0
M  V30 8742 H 814.713 -2.04472 3.37023 0
M  V30 8743 H 816.001 -3.02763 4.08916 0
M  V30 8744 H 815.399 -5.33039 1.89435 0
M  V30 8745 H 813.956 -6.0023 2.54102 0
M  V30 8746 N 817.389 -1.46805 -0.573248 0
M  V30 8747 C 818.666 -1.43082 -1.33368 0
M  V30 8748 C 819.046 -0.119252 -2.10763 0
M  V30 8749 O 818.394 0.899239 -2.10062 0
M  V30 8750 C 818.604 -2.66643 -2.25172 0
M  V30 8751 C 819.952 -3.13188 -2.86702 0
M  V30 8752 O 820.976 -2.67258 -2.35482 0
M  V30 8753 O 819.835 -3.92994 -3.79761 0
M  V30 8754 H 816.929 -0.569451 -0.599712 0
M  V30 8755 H 819.475 -1.58984 -0.59348 0
M  V30 8756 H 818.247 -3.53649 -1.67475 0
M  V30 8757 H 817.87 -2.53247 -3.06516 0
M  V30 8758 N 818.867 0.818669 -1.34668 0
M  V30 8759 C 820.144 1.56118 -1.17841 0
M  V30 8760 C 820.524 2.09646 0.24731 0
M  V30 8761 O 819.872 1.91329 1.24922 0
M  V30 8762 C 820.082 2.67922 -2.23649 0
M  V30 8763 C 821.43 3.36579 -2.58843 0
M  V30 8764 O 822.454 2.78182 -2.22471 0
M  V30 8765 O 821.313 4.42045 -3.21339 0
M  V30 8766 H 818.407 0.689216 -0.457067 0
M  V30 8767 H 820.953 0.859674 -1.46314 0
M  V30 8768 H 819.725 2.26153 -3.19328 0
M  V30 8769 H 819.348 3.45719 -1.96377 0
M  V30 8770 N 820.346 1.18468 1.03938 0
M  V30 8771 C 821.296 0.880799 2.103 0
M  V30 8772 C 822.28 -0.150008 1.60199 0
M  V30 8773 O 823.472 0.054213 1.76917 0
M  V30 8774 C 820.601 0.409723 3.40846 0
M  V30 8775 C 819.687 1.47267 3.9771 0
M  V30 8776 N 820.078 2.68945 4.28371 0
M  V30 8777 C 818.376 1.33349 4.25598 0
M  V30 8778 C 819.077 3.37341 4.73894 0
M  V30 8779 N 818.053 2.64725 4.74786 0
M  V30 8780 H 821.855 1.80574 2.31884 0
M  V30 8781 H 819.369 1.07527 1.21703 0
M  V30 8782 H 821.366 0.17352 4.16539 0
M  V30 8783 H 820.026 -0.508862 3.20688 0
M  V30 8784 H 821.037 3.05801 4.17978 0
M  V30 8785 H 817.714 0.477548 4.1476 0
M  V30 8786 H 819.104 4.41338 5.06627 0
M  V30 8787 N 821.824 -1.22873 0.986916 0
M  V30 8788 C 823.072 -1.91084 0.658121 0
M  V30 8789 C 823.393 -1.77304 -0.811675 0
M  V30 8790 O 822.663 -1.15649 -1.58121 0
M  V30 8791 H 821.243 -0.707251 0.240427 0
M  V30 8792 H 823.905 -1.49357 1.25213 0
M  V30 8793 H 823.001 -2.98373 0.915428 0
M  V30 8794 N 823.302 -0.75937 -1.38099 0
M  V30 8795 C 824.25 -0.124954 -2.32264 0
M  V30 8796 C 825.244 0.698863 -1.54312 0
M  V30 8797 O 826.45 0.597312 -1.698 0
M  V30 8798 H 822.825 -0.0216142 -0.751689 0
M  V30 8799 H 824.796 -0.935115 -2.83369 0
M  V30 8800 C 823.545 0.749463 -3.39527 0
M  V30 8801 H 822.868 0.124932 -3.99605 0
M  V30 8802 H 824.308 1.16055 -4.07808 0
M  V30 8803 C 822.767 1.89464 -2.78577 0
M  V30 8804 O 823.297 2.98923 -2.68343 0
M  V30 8805 N 821.503 1.69145 -2.36301 0
M  V30 8806 H 821.05 0.801157 -2.44825 0
M  V30 8807 H 821.008 2.45936 -1.95864 0
M  V30 8808 N 824.78 1.49157 -0.508906 0
M  V30 8809 C 826.026 2.02773 0.0328469 0
M  V30 8810 C 826.359 1.38714 1.35912 0
M  V30 8811 O 825.634 0.525536 1.87266 0
M  V30 8812 C 825.917 3.59664 0.177088 0
M  V30 8813 C 825.77 4.34239 -1.17287 0
M  V30 8814 C 827.089 4.30505 0.913977 0
M  V30 8815 H 824.208 0.736926 0.0104631 0
M  V30 8816 H 826.85 1.781 -0.661851 0
M  V30 8817 H 825 3.80818 0.768774 0
M  V30 8818 H 826.672 4.24561 -1.80404 0
M  V30 8819 H 824.915 3.96486 -1.76016 0
M  V30 8820 H 825.586 5.42397 -1.02516 0
M  V30 8821 H 828.062 4.14054 0.412084 0
M  V30 8822 H 826.938 5.40012 0.983759 0
M  V30 8823 H 827.199 3.96302 1.95951 0
M  V30 8824 N 826.258 0.243083 1.55714 0
M  V30 8825 C 827.504 -0.376428 1.99886 0
M  V30 8826 C 827.859 -1.55843 1.12831 0
M  V30 8827 O 827.152 -1.90724 0.182996 0
M  V30 8828 C 827.346 -0.839621 3.47398 0
M  V30 8829 C 827.175 0.295954 4.48725 0
M  V30 8830 C 825.945 0.769392 4.99408 0
M  V30 8831 C 828.143 1.12165 5.0192 0
M  V30 8832 N 826.125 1.87778 5.84477 0
M  V30 8833 C 827.496 2.07848 5.84123 0
M  V30 8834 C 829.551 1.15864 4.84231 0
M  V30 8835 C 828.254 3.06937 6.50524 0
M  V30 8836 C 830.28 2.13782 5.51409 0
M  V30 8837 C 829.642 3.08202 6.33396 0
M  V30 8838 H 825.741 -0.103809 0.775079 0
M  V30 8839 H 828.325 0.359788 1.91347 0
M  V30 8840 H 826.496 -1.54514 3.56343 0
M  V30 8841 H 828.228 -1.43376 3.78451 0
M  V30 8842 H 824.983 0.354201 4.72274 0
M  V30 8843 H 825.407 2.43462 6.31708 0
M  V30 8844 H 830.049 0.442532 4.20478 0
M  V30 8845 H 827.767 3.79499 7.13447 0
M  V30 8846 H 831.353 2.17345 5.39678 0
M  V30 8847 H 830.233 3.82732 6.8446 0
M  V30 8848 N 827.736 -1.57571 -0.0300757 0
M  V30 8849 C 828.966 -1.93204 -0.731828 0
M  V30 8850 C 829.374 -0.841156 -1.69473 0
M  V30 8851 O 828.717 0.191231 -1.82702 0
M  V30 8852 C 828.779 -3.2463 -1.54453 0
M  V30 8853 C 828.443 -4.50862 -0.746507 0
M  V30 8854 C 829.44 -5.19879 -0.0472309 0
M  V30 8855 C 827.125 -4.9738 -0.701347 0
M  V30 8856 C 829.119 -6.33692 0.686518 0
M  V30 8857 C 826.806 -6.11089 0.036148 0
M  V30 8858 C 827.804 -6.791 0.728841 0
M  V30 8859 O 827.492 -7.90635 1.45436 0
M  V30 8860 H 827.224 -0.6423 -0.210775 0
M  V30 8861 H 829.778 -2.05398 0.00804194 0
M  V30 8862 H 828.008 -3.0876 -2.32818 0
M  V30 8863 H 829.697 -3.45597 -2.1288 0
M  V30 8864 H 830.463 -4.84945 -0.0731582 0
M  V30 8865 H 826.342 -4.44288 -1.23001 0
M  V30 8866 H 829.886 -6.86711 1.22773 0
M  V30 8867 H 825.783 -6.45468 0.064002 0
M  V30 8868 H 826.551 -8.06988 1.36794 0
M  V30 8869 N 829.214 0.302327 -1.54673 0
M  V30 8870 C 830.161 1.37282 -1.85532 0
M  V30 8871 C 831.131 1.50437 -0.704129 0
M  V30 8872 O 832.316 1.65317 -0.952627 0
M  V30 8873 C 829.456 2.73309 -2.10704 0
M  V30 8874 C 828.569 2.68614 -3.38335 0
M  V30 8875 C 827.704 3.96626 -3.53357 0
M  V30 8876 C 826.743 3.86324 -4.74784 0
M  V30 8877 N 825.88 5.06109 -4.86619 0
M  V30 8878 H 830.72 1.10265 -2.76849 0
M  V30 8879 H 828.257 0.533346 -1.37091 0
M  V30 8880 H 830.215 3.52414 -2.23294 0
M  V30 8881 H 828.845 2.98589 -1.22656 0
M  V30 8882 H 827.897 1.81381 -3.34373 0
M  V30 8883 H 829.209 2.56891 -4.27561 0
M  V30 8884 H 828.363 4.84168 -3.65604 0
M  V30 8885 H 827.102 4.11182 -2.62261 0
M  V30 8886 H 826.107 2.97166 -4.62572 0
M  V30 8887 H 827.332 3.73315 -5.67286 0
M  V30 8888 H 825.278 5.2113 -3.98446 0
M  V30 8889 H 825.195 4.96804 -5.69844 0
M  V30 8890 H 826.463 5.95306 -5.03221 0
M  V30 8891 N 830.692 1.47107 0.565454 0
M  V30 8892 C 831.939 1.53308 1.32299 0
M  V30 8893 C 832.267 0.1919 1.93551 0
M  V30 8894 O 831.522 -0.81435 1.77952 0
M  V30 8895 C 831.821 2.59309 2.45954 0
M  V30 8896 C 831.487 4.02827 2.02586 0
M  V30 8897 C 830.149 4.41897 1.90474 0
M  V30 8898 C 832.501 4.92913 1.6937 0
M  V30 8899 C 829.829 5.68898 1.4343 0
M  V30 8900 C 832.181 6.20368 1.238 0
M  V30 8901 C 830.845 6.58327 1.10278 0
M  V30 8902 H 830.115 0.560993 0.484116 0
M  V30 8903 H 832.762 1.80667 0.634965 0
M  V30 8904 H 831.067 2.25676 3.20277 0
M  V30 8905 H 832.764 2.61332 3.04149 0
M  V30 8906 H 829.354 3.71953 2.12952 0
M  V30 8907 H 833.538 4.63433 1.77605 0
M  V30 8908 H 828.794 5.97065 1.31618 0
M  V30 8909 H 832.968 6.89589 0.971586 0
M  V30 8910 H 830.595 7.56628 0.736027 0
M  V30 8911 N 832.17 -0.811516 1.35101 0
M  V30 8912 C 833.418 -1.56525 1.27845 0
M  V30 8913 C 833.739 -1.94435 -0.14829 0
M  V30 8914 O 833.009 -1.63203 -1.08359 0
M  V30 8915 H 831.589 -0.580433 0.47022 0
M  V30 8916 H 834.251 -0.968277 1.69146 0
M  V30 8917 H 833.347 -2.48291 1.89097 0
M  V30 8918 N 833.648 -1.19017 -1.03309 0
M  V30 8919 C 834.896 -0.988258 -1.76289 0
M  V30 8920 C 835.217 0.482557 -1.88935 0
M  V30 8921 O 834.487 1.34969 -1.41987 0
M  V30 8922 H 833.067 -0.36267 -0.653054 0
M  V30 8923 H 835.729 -1.49836 -1.2464 0
M  V30 8924 H 834.825 -1.43273 -2.77271 0
M  V30 8925 N 835.127 1.22348 -0.993418 0
M  V30 8926 C 836.404 1.86632 -0.585495 0
M  V30 8927 C 836.784 1.89156 0.937187 0
M  V30 8928 O 836.132 1.38247 1.81934 0
M  V30 8929 C 836.342 3.27481 -1.20652 0
M  V30 8930 C 837.69 4.03971 -1.30738 0
M  V30 8931 O 838.714 3.3675 -1.16096 0
M  V30 8932 O 837.573 5.24302 -1.54173 0
M  V30 8933 H 834.667 0.802704 -0.198984 0
M  V30 8934 H 837.213 1.30122 -1.08933 0
M  V30 8935 H 835.985 3.20281 -2.24802 0
M  V30 8936 H 835.608 3.91597 -0.688312 0
M  V30 8937 N 836.605 0.766683 1.37694 0
M  V30 8938 C 837.835 0.339446 2.03792 0
M  V30 8939 C 838.243 -1.04153 1.57952 0
M  V30 8940 O 837.586 -1.67521 0.753826 0
M  V30 8941 C 837.648 0.29822 3.58261 0
M  V30 8942 C 837.312 1.62293 4.27212 0
M  V30 8943 C 838.309 2.57447 4.51682 0
M  V30 8944 C 835.994 1.89597 4.65143 0
M  V30 8945 C 837.988 3.78117 5.13134 0
M  V30 8946 C 835.675 3.10538 5.26317 0
M  V30 8947 C 836.673 4.04617 5.50249 0
M  V30 8948 O 836.361 5.23429 6.10145 0
M  V30 8949 H 836.093 0.140952 0.661142 0
M  V30 8950 H 838.647 1.04022 1.77111 0
M  V30 8951 H 836.877 -0.458897 3.83967 0
M  V30 8952 H 838.566 -0.101263 4.05774 0
M  V30 8953 H 839.332 2.37633 4.22795 0
M  V30 8954 H 835.211 1.17199 4.45854 0
M  V30 8955 H 838.755 4.51563 5.3173 0
M  V30 8956 H 834.652 3.3024 5.54628 0
M  V30 8957 H 835.42 5.24187 6.28626 0
M  V30 8958 N 838.083 -1.48885 0.516809 0
M  V30 8959 C 839.331 -2.02088 -0.0220166 0
M  V30 8960 C 839.652 -1.39735 -1.36011 0
M  V30 8961 O 838.922 -0.558119 -1.87781 0
M  V30 8962 H 837.502 -0.746917 -0.0111255 0
M  V30 8963 H 840.164 -1.8274 0.677647 0
M  V30 8964 H 839.26 -3.11786 -0.140067 0
M  V30 8965 N 839.561 -0.251338 -1.55583 0
M  V30 8966 C 840.838 0.422729 -1.90977 0
M  V30 8967 C 841.218 1.75534 -1.17265 0
M  V30 8968 O 840.566 2.26632 -0.291588 0
M  V30 8969 C 840.776 0.586448 -3.44037 0
M  V30 8970 C 842.124 0.880294 -4.15375 0
M  V30 8971 O 843.148 0.672148 -3.49801 0
M  V30 8972 O 842.007 1.27694 -5.31372 0
M  V30 8973 H 839.101 0.227622 -0.795058 0
M  V30 8974 H 841.647 -0.295733 -1.67103 0
M  V30 8975 H 840.419 -0.352327 -3.89711 0
M  V30 8976 H 840.042 1.35528 -3.73789 0
M  V30 8977 N 841.039 1.57585 0.0217189 0
M  V30 8978 C 842.269 1.9359 0.721572 0
M  V30 8979 C 842.677 0.850132 1.69025 0
M  V30 8980 O 842.02 -0.181539 1.82801 0
M  V30 8981 C 842.082 3.25445 1.52729 0
M  V30 8982 C 841.746 4.51251 0.722586 0
M  V30 8983 C 842.743 5.19896 0.0196598 0
M  V30 8984 C 840.428 4.97745 0.674959 0
M  V30 8985 C 842.422 6.33319 -0.720114 0
M  V30 8986 C 840.109 6.11062 -0.068555 0
M  V30 8987 C 841.107 6.78704 -0.764845 0
M  V30 8988 O 840.795 7.89852 -1.49627 0
M  V30 8989 H 840.527 0.643409 0.207366 0
M  V30 8990 H 843.081 2.05391 -0.0189346 0
M  V30 8991 H 841.311 3.0999 2.31178 0
M  V30 8992 H 843 3.46721 2.11044 0
M  V30 8993 H 843.766 4.84977 0.0474394 0
M  V30 8994 H 839.645 4.44934 1.20643 0
M  V30 8995 H 843.189 6.86051 -1.26413 0
M  V30 8996 H 839.086 6.45425 -0.0982318 0
M  V30 8997 H 839.854 8.06251 -1.41071 0
M  V30 8998 N 842.517 -0.29412 1.54831 0
M  V30 8999 C 843.928 -0.866651 1.65366 0
M  V30 9000 C 844.279 -1.87834 0.56681 0
M  V30 9001 O 843.404 -2.14374 -0.295389 0
M  V30 9002 C 843.999 -1.57869 2.99771 0
M  V30 9003 C 842.558 -2.09954 3.12404 0
M  V30 9004 C 841.705 -0.934492 2.6108 0
M  V30 9005 H 844.656 -0.0709551 1.58541 0
M  V30 9006 H 844.677 -2.44462 2.91579 0
M  V30 9007 H 844.189 -0.84212 3.78853 0
M  V30 9008 H 842.29 -2.86637 2.38055 0
M  V30 9009 H 842.403 -2.32934 4.18663 0
M  V30 9010 H 840.767 -1.32199 2.17705 0
M  V30 9011 H 841.55 -0.211768 3.42646 0
M  V30 9012 N 843.995 -1.47404 -0.557645 0
M  V30 9013 C 844.943 -1.60265 -1.68576 0
M  V30 9014 C 845.937 -0.469982 -1.6275 0
M  V30 9015 O 847.143 -0.647764 -1.67941 0
M  V30 9016 H 843.518 -0.504353 -0.557792 0
M  V30 9017 H 845.489 -2.55066 -1.54867 0
M  V30 9018 C 844.238 -1.63369 -3.0693 0
M  V30 9019 H 843.561 -2.49874 -3.12095 0
M  V30 9020 H 845.001 -1.76417 -3.85556 0
M  V30 9021 C 843.46 -0.366921 -3.34896 0
M  V30 9022 O 843.99 0.53218 -3.98159 0
M  V30 9023 N 842.196 -0.247082 -2.89548 0
M  V30 9024 H 841.743 -0.979669 -2.38244 0
M  V30 9025 H 841.701 0.599552 -3.0863 0
M  V30 9026 N 845.473 0.80434 -1.35529 0
M  V30 9027 C 846.421 1.93769 -1.28671 0
M  V30 9028 C 847.415 1.68428 -0.181222 0
M  V30 9029 O 848.621 1.76617 -0.347338 0
M  V30 9030 H 844.996 0.636663 -0.400206 0
M  V30 9031 H 846.967 1.96673 -2.24415 0
M  V30 9032 C 845.716 3.30572 -1.07784 0
M  V30 9033 H 845.039 3.5063 -1.9209 0
M  V30 9034 H 846.479 4.1027 -1.07027 0
M  V30 9035 C 844.938 3.36193 0.218213 0
M  V30 9036 O 845.468 3.82941 1.21323 0
M  V30 9037 N 843.674 2.89455 0.257761 0
M  V30 9038 H 843.221 2.51604 -0.552562 0
M  V30 9039 H 843.179 2.93597 1.12465 0
M  V30 9040 N 846.951 1.19563 1.02676 0
M  V30 9041 C 848.181 1.0234 1.79472 0
M  V30 9042 C 848.589 -0.430891 1.84228 0
M  V30 9043 O 847.932 -1.31106 1.28674 0
M  V30 9044 C 847.994 1.51901 3.25832 0
M  V30 9045 C 847.658 3.00045 3.44706 0
M  V30 9046 C 848.655 3.9779 3.34752 0
M  V30 9047 C 846.34 3.38784 3.70851 0
M  V30 9048 C 848.334 5.32267 3.50672 0
M  V30 9049 C 846.021 4.73419 3.86416 0
M  V30 9050 C 847.019 5.69969 3.7633 0
M  V30 9051 O 846.707 7.02165 3.91432 0
M  V30 9052 H 846.439 0.360936 0.571578 0
M  V30 9053 H 848.993 1.58863 1.30198 0
M  V30 9054 H 847.223 0.897546 3.7614 0
M  V30 9055 H 848.912 1.30853 3.84229 0
M  V30 9056 H 849.678 3.69207 3.14502 0
M  V30 9057 H 845.557 2.64183 3.77794 0
M  V30 9058 H 849.101 6.07612 3.42715 0
M  V30 9059 H 844.998 5.01697 4.06165 0
M  V30 9060 H 845.766 7.09268 4.08511 0
M  V30 9061 N 848.429 -1.21819 0.999893 0
M  V30 9062 C 849.377 -2.26027 0.549047 0
M  V30 9063 C 850.371 -1.64516 -0.403826 0
M  V30 9064 O 851.577 -1.77878 -0.275578 0
M  V30 9065 H 847.952 -0.734958 0.159185 0
M  V30 9066 H 849.923 -2.61398 1.43923 0
M  V30 9067 C 848.672 -3.47514 -0.11369 0
M  V30 9068 H 847.995 -3.95112 0.610482 0
M  V30 9069 H 849.435 -4.22179 -0.3925 0
M  V30 9070 C 847.894 -3.08614 -1.35126 0
M  V30 9071 O 848.424 -3.1864 -2.44605 0
M  V30 9072 N 846.63 -2.63327 -1.22911 0
M  V30 9073 H 846.177 -2.55369 -0.338288 0
M  V30 9074 H 846.135 -2.37668 -2.05818 0
M  V30 9075 N 849.908 -0.773975 -1.37286 0
M  V30 9076 C 851.155 -0.339306 -1.99637 0
M  V30 9077 C 851.483 1.08478 -1.61439 0
M  V30 9078 O 850.738 1.7612 -0.853252 0
M  V30 9079 C 851.037 -0.432651 -3.54772 0
M  V30 9080 C 850.703 -1.81531 -4.12744 0
M  V30 9081 C 849.365 -2.19366 -4.2829 0
M  V30 9082 C 851.717 -2.72137 -4.44512 0
M  V30 9083 C 849.045 -3.47239 -4.72908 0
M  V30 9084 C 851.397 -3.99421 -4.90556 0
M  V30 9085 C 850.061 -4.37298 -5.04308 0
M  V30 9086 H 849.331 -0.124161 -0.730524 0
M  V30 9087 H 851.978 -0.988432 -1.64019 0
M  V30 9088 H 850.283 0.30001 -3.9065 0
M  V30 9089 H 851.98 -0.0776 -4.00925 0
M  V30 9090 H 848.57 -1.51126 -4.01072 0
M  V30 9091 H 852.754 -2.44165 -4.32084 0
M  V30 9092 H 848.01 -3.76477 -4.81742 0
M  V30 9093 H 852.184 -4.69756 -5.14104 0
M  V30 9094 H 849.811 -5.36442 -5.38641 0
M  V30 9095 N 851.386 1.48609 -0.524698 0
M  V30 9096 C 852.626 2.04398 0.00938367 0
M  V30 9097 C 852.99 1.39355 1.32077 0
M  V30 9098 O 854.191 1.86 1.94055 0
M  V30 9099 C 852.462 3.57148 0.134318 0
M  V30 9100 S 854.021 4.34409 0.619227 0
M  V30 9101 H 850.839 0.710936 -0.00953362 0
M  V30 9102 H 853.441 1.82382 -0.704058 0
M  V30 9103 H 852.145 4.02022 -0.825027 0
M  V30 9104 H 851.676 3.83607 0.872296 0
M  V30 9105 H 853.691 4.59017 1.88462 0
M  V30 9106 N 852.864 0.259585 1.55447 0
M  V30 9107 C 853.794 -0.62852 2.24882 0
M  V30 9108 C 854.775 -1.17128 1.23349 0
M  V30 9109 O 855.96 -1.20829 1.52033 0
M  V30 9110 C 853.09 -1.81983 2.95803 0
M  V30 9111 C 852.044 -1.40929 4.04132 0
M  V30 9112 C 851.37 -2.68246 4.62545 0
M  V30 9113 C 852.67 -0.570956 5.1917 0
M  V30 9114 H 854.364 -0.0495021 2.99359 0
M  V30 9115 H 851.91 -0.0223688 1.43983 0
M  V30 9116 H 853.863 -2.44689 3.43082 0
M  V30 9117 H 852.587 -2.42444 2.18835 0
M  V30 9118 H 851.246 -0.805519 3.57641 0
M  V30 9119 H 850.894 -3.26931 3.82263 0
M  V30 9120 H 850.594 -2.41495 5.35681 0
M  V30 9121 H 852.118 -3.31827 5.12565 0
M  V30 9122 H 853.532 -1.10262 5.62597 0
M  V30 9123 H 851.929 -0.398979 5.98772 0
M  V30 9124 H 852.999 0.413918 4.8313 0
M  V30 9125 N 854.342 -1.57594 -0.0133615 0
M  V30 9126 C 855.619 -1.81173 -0.737273 0
M  V30 9127 C 855.999 -0.861395 -1.92726 0
M  V30 9128 O 855.347 0.0929324 -2.28311 0
M  V30 9129 C 855.557 -3.29314 -1.15557 0
M  V30 9130 C 856.905 -3.94707 -1.56498 0
M  V30 9131 O 857.929 -3.33557 -1.24973 0
M  V30 9132 O 856.788 -5.02402 -2.15069 0
M  V30 9133 H 853.882 -0.745575 -0.357837 0
M  V30 9134 H 856.428 -1.69696 0.0110674 0
M  V30 9135 H 855.2 -3.90096 -0.30677 0
M  V30 9136 H 854.823 -3.45739 -1.96343 0
M  V30 9137 N 855.82 0.285905 -1.54985 0
M  V30 9138 C 857.068 1.01718 -1.74636 0
M  V30 9139 C 857.389 1.87277 -0.543342 0
M  V30 9140 O 856.659 1.90847 0.442078 0
M  V30 9141 H 855.239 0.378549 -0.643979 0
M  V30 9142 H 857.901 0.313247 -1.92366 0
M  V30 9143 H 856.997 1.66159 -2.64192 0
M  V30 9144 N 857.298 1.47698 0.54982 0
M  V30 9145 C 858.228 1.63622 1.66583 0
M  V30 9146 C 859.209 0.485477 1.63025 0
M  V30 9147 O 860.394 0.715692 1.80531 0
M  V30 9148 C 857.524 1.65721 3.05211 0
M  V30 9149 C 856.478 2.80097 3.2362 0
M  V30 9150 C 855.804 2.67272 4.63109 0
M  V30 9151 C 857.104 4.21612 3.08286 0
M  V30 9152 H 858.798 2.57049 1.53512 0
M  V30 9153 H 856.344 1.23705 0.737099 0
M  V30 9154 H 858.297 1.75451 3.83138 0
M  V30 9155 H 857.021 0.688593 3.19258 0
M  V30 9156 H 855.68 2.69889 2.48104 0
M  V30 9157 H 855.328 1.68422 4.73965 0
M  V30 9158 H 855.028 3.44008 4.76374 0
M  V30 9159 H 856.552 2.78942 5.43161 0
M  V30 9160 H 857.966 4.32758 3.76024 0
M  V30 9161 H 856.363 4.99193 3.33057 0
M  V30 9162 H 857.433 4.39462 2.04942 0
M  V30 9163 N 858.776 -0.797141 1.35954 0
M  V30 9164 C 860.025 -1.54983 1.29086 0
M  V30 9165 C 860.338 -1.95167 -0.130003 0
M  V30 9166 O 861.544 -2.69596 -0.32101 0
M  V30 9167 C 860 -2.79738 2.26439 0
M  V30 9168 C 859.608 -2.46753 3.73921 0
M  V30 9169 C 861.352 -3.57733 2.28533 0
M  V30 9170 C 859.259 -3.67858 4.63071 0
M  V30 9171 H 858.189 -0.581766 0.479651 0
M  V30 9172 H 860.84 -0.87541 1.61273 0
M  V30 9173 H 859.222 -3.48939 1.87236 0
M  V30 9174 H 860.396 -1.85499 4.21814 0
M  V30 9175 H 858.711 -1.81985 3.74527 0
M  V30 9176 H 861.308 -4.47699 2.92351 0
M  V30 9177 H 861.651 -3.95754 1.29169 0
M  V30 9178 H 862.184 -2.95504 2.66313 0
M  V30 9179 H 858.923 -3.34939 5.63468 0
M  V30 9180 H 858.443 -4.28305 4.19898 0
M  V30 9181 H 860.122 -4.34977 4.78961 0
M  V30 9182 N 860.254 -1.20106 -1.0204 0
M  V30 9183 C 861.484 -1.0329 -1.78927 0
M  V30 9184 C 861.892 0.421115 -1.84454 0
M  V30 9185 O 861.235 1.30422 -1.29367 0
M  V30 9186 C 861.297 -1.53627 -3.25021 0
M  V30 9187 C 860.961 -3.01869 -3.4311 0
M  V30 9188 C 861.958 -3.9956 -3.32638 0
M  V30 9189 C 859.643 -3.40746 -3.6905 0
M  V30 9190 C 861.637 -5.34119 -3.47844 0
M  V30 9191 C 859.324 -4.75462 -3.839 0
M  V30 9192 C 860.322 -5.71957 -3.73302 0
M  V30 9193 O 860.01 -7.04231 -3.87703 0
M  V30 9194 H 859.742 -0.363962 -0.569656 0
M  V30 9195 H 862.296 -1.59551 -1.29354 0
M  V30 9196 H 860.526 -0.917481 -3.75658 0
M  V30 9197 H 862.215 -1.32889 -3.8353 0
M  V30 9198 H 862.981 -3.70869 -3.12539 0
M  V30 9199 H 858.86 -2.66182 -3.76388 0
M  V30 9200 H 862.404 -6.09421 -3.39488 0
M  V30 9201 H 858.301 -5.03844 -4.03499 0
M  V30 9202 H 859.069 -7.11425 -4.04744 0
M  V30 9203 N 861.732 1.21287 -1.00634 0
M  V30 9204 C 862.957 1.94925 -0.708441 0
M  V30 9205 C 863.382 1.73659 0.722783 0
M  V30 9206 O 862.74 1.02429 1.49593 0
M  V30 9207 C 862.788 3.45377 -1.03667 0
M  V30 9208 O 861.892 4.12153 -0.142661 0
M  V30 9209 H 861.233 0.609338 -0.263824 0
M  V30 9210 H 863.763 1.54008 -1.34695 0
M  V30 9211 H 863.773 3.95954 -0.984086 0
M  V30 9212 H 862.448 3.6018 -2.0795 0
M  V30 9213 H 861.025 3.72048 -0.251888 0
M  V30 9214 N 863.21 0.781244 1.36873 0
M  V30 9215 C 864.487 0.274217 1.93668 0
M  V30 9216 C 864.867 -1.2323 1.71399 0
M  V30 9217 O 864.215 -2.01993 1.06822 0
M  V30 9218 C 864.425 0.657939 3.42742 0
M  V30 9219 C 865.773 0.63307 4.19854 0
M  V30 9220 O 866.797 0.597909 3.51146 0
M  V30 9221 O 865.656 0.668636 5.42394 0
M  V30 9222 H 862.75 0.0658059 0.824378 0
M  V30 9223 H 865.296 0.863238 1.46104 0
M  V30 9224 H 864.068 1.69728 3.52573 0
M  V30 9225 H 863.691 0.0423678 3.97577 0
M  V30 9226 N 864.689 -1.48329 0.532571 0
M  V30 9227 C 865.621 -2.27652 -0.265931 0
M  V30 9228 C 866.634 -1.35522 -0.902083 0
M  V30 9229 O 867.823 -1.60552 -0.780088 0
M  V30 9230 C 864.923 -3.0899 -1.39207 0
M  V30 9231 C 864.096 -4.28915 -0.857349 0
M  V30 9232 C 863.155 -4.92044 -1.86493 0
M  V30 9233 O 862.181 -5.51181 -1.42084 0
M  V30 9234 N 863.383 -4.84518 -3.19723 0
M  V30 9235 H 866.148 -2.96821 0.414389 0
M  V30 9236 H 863.709 -1.57684 0.367066 0
M  V30 9237 H 865.701 -3.48091 -2.06433 0
M  V30 9238 H 864.271 -2.42224 -1.97601 0
M  V30 9239 H 863.491 -3.94199 -0.00901765 0
M  V30 9240 H 864.779 -5.0654 -0.479025 0
M  V30 9241 H 864.177 -4.37628 -3.58467 0
M  V30 9242 H 862.734 -5.27712 -3.82575 0
M  V30 9243 N 866.167 -0.267825 -1.55308 0
M  V30 9244 C 867.395 0.354587 -2.03839 0
M  V30 9245 C 867.81 1.50007 -1.14644 0
M  V30 9246 O 867.167 1.81752 -0.165055 0
M  V30 9247 C 867.218 0.84254 -3.51544 0
M  V30 9248 O 866.939 -0.257318 -4.37344 0
M  V30 9249 C 868.44 1.53351 -4.15931 0
M  V30 9250 H 865.66 0.0818131 -0.665994 0
M  V30 9251 H 868.204 -0.397795 -2.00594 0
M  V30 9252 H 866.359 1.54503 -3.55257 0
M  V30 9253 H 866.773 0.116593 -5.2437 0
M  V30 9254 H 868.247 1.82643 -5.20908 0
M  V30 9255 H 868.724 2.4626 -3.63666 0
M  V30 9256 H 869.33 0.87506 -4.162 0
M  V30 9257 N 867.645 1.57599 0.00500368 0
M  V30 9258 C 869.056 1.78462 0.54848 0
M  V30 9259 C 869.407 0.901869 1.74243 0
M  V30 9260 O 868.532 0.103014 2.16155 0
M  V30 9261 C 869.127 3.2365 1.00179 0
M  V30 9262 C 867.686 3.45627 1.49061 0
M  V30 9263 C 866.833 2.73794 0.439531 0
M  V30 9264 H 869.784 1.57151 -0.22118 0
M  V30 9265 H 869.805 3.31488 1.86805 0
M  V30 9266 H 869.317 3.87873 0.132607 0
M  V30 9267 H 867.418 2.86612 2.38085 0
M  V30 9268 H 867.531 4.54298 1.52152 0
M  V30 9269 H 865.895 2.38267 0.900043 0
M  V30 9270 H 866.678 3.40714 -0.420599 0
M  V30 9271 N 869.123 -0.277682 1.55134 0
M  V30 9272 C 870.371 -1.00791 1.75173 0
M  V30 9273 C 870.692 -1.86987 0.553266 0
M  V30 9274 O 869.962 -1.91079 -0.43195 0
M  V30 9275 H 868.542 -0.375129 0.645978 0
M  V30 9276 H 871.204 -0.303041 1.9253 0
M  V30 9277 H 870.3 -1.64756 2.6507 0
M  V30 9278 N 870.601 -1.47988 -0.541979 0
M  V30 9279 C 872.012 -1.49073 -1.12402 0
M  V30 9280 C 872.363 -0.253825 -1.94551 0
M  V30 9281 O 871.488 0.640056 -2.06718 0
M  V30 9282 C 872.083 -2.7011 -2.04514 0
M  V30 9283 C 870.642 -2.74105 -2.5796 0
M  V30 9284 C 869.789 -2.42409 -1.3466 0
M  V30 9285 H 872.74 -1.55277 -0.327818 0
M  V30 9286 H 872.761 -2.47946 -2.88623 0
M  V30 9287 H 872.273 -3.60117 -1.44697 0
M  V30 9288 H 870.374 -1.88276 -3.21532 0
M  V30 9289 H 870.487 -3.75213 -2.97913 0
M  V30 9290 H 868.851 -1.9331 -1.65841 0
M  V30 9291 H 869.634 -3.34642 -0.766133 0
M  V30 9292 N 872.079 0.78992 -1.36375 0
M  V30 9293 C 873.327 1.54472 -1.30319 0
M  V30 9294 C 873.648 1.94647 0.117338 0
M  V30 9295 O 872.918 1.64906 1.05748 0
M  V30 9296 H 871.498 0.572879 -0.479394 0
M  V30 9297 H 874.16 0.941245 -1.70665 0
M  V30 9298 H 873.256 2.45252 -1.93024 0
M  V30 9299 N 873.557 1.20646 1.01402 0
M  V30 9300 C 874.487 0.98155 2.11867 0
M  V30 9301 C 875.468 -0.0903712 1.6986 0
M  V30 9302 O 876.653 0.0676586 1.94082 0
M  V30 9303 C 873.783 0.535636 3.43145 0
M  V30 9304 C 872.737 1.55109 3.98905 0
M  V30 9305 C 872.063 0.961725 5.2598 0
M  V30 9306 C 873.363 2.93552 4.32001 0
M  V30 9307 H 875.057 1.90544 2.3094 0
M  V30 9308 H 872.603 0.917554 1.10982 0
M  V30 9309 H 874.556 0.365512 4.19812 0
M  V30 9310 H 873.28 -0.423882 3.23838 0
M  V30 9311 H 871.939 1.70862 3.24348 0
M  V30 9312 H 871.587 -0.00580108 5.03 0
M  V30 9313 H 871.287 1.63993 5.64252 0
M  V30 9314 H 872.811 0.802726 6.053 0
M  V30 9315 H 874.225 2.81295 4.99546 0
M  V30 9316 H 872.622 3.58303 4.81393 0
M  V30 9317 H 873.692 3.4508 3.40658 0
M  V30 9318 N 875.035 -1.20752 1.01276 0
M  V30 9319 C 875.982 -2.234 0.579732 0
M  V30 9320 C 876.952 -1.61256 -0.398206 0
M  V30 9321 O 878.137 -1.8845 -0.29851 0
M  V30 9322 C 875.277 -3.45008 -0.0797006 0
M  V30 9323 C 874.39 -4.21597 0.942343 0
M  V30 9324 C 873.525 -5.30591 0.254364 0
M  V30 9325 C 872.564 -5.98919 1.26343 0
M  V30 9326 N 871.701 -6.99511 0.602384 0
M  V30 9327 H 876.541 -2.59801 1.45971 0
M  V30 9328 H 874.078 -1.27663 0.730787 0
M  V30 9329 H 876.036 -4.1444 -0.479125 0
M  V30 9330 H 874.666 -3.09312 -0.923354 0
M  V30 9331 H 873.718 -3.51268 1.45996 0
M  V30 9332 H 875.03 -4.68576 1.70992 0
M  V30 9333 H 874.184 -6.06368 -0.200763 0
M  V30 9334 H 872.923 -4.84639 -0.545553 0
M  V30 9335 H 871.928 -5.21906 1.72898 0
M  V30 9336 H 873.153 -6.46957 2.06456 0
M  V30 9337 H 871.099 -6.55759 -0.177734 0
M  V30 9338 H 871.016 -7.44597 1.30809 0
M  V30 9339 H 872.284 -7.79313 0.17072 0
M  V30 9340 N 876.513 -0.788492 -1.36457 0
M  V30 9341 C 877.423 -0.187385 -2.3385 0
M  V30 9342 C 878.439 0.659984 -1.60998 0
M  V30 9343 O 879.615 0.575986 -1.92988 0
M  V30 9344 C 876.68 0.668525 -3.40194 0
M  V30 9345 C 875.741 -0.197234 -4.28847 0
M  V30 9346 C 874.974 0.61792 -5.30111 0
M  V30 9347 O 875.197 1.85396 -5.3943 0
M  V30 9348 O 874.131 0.0183016 -6.01897 0
M  V30 9349 H 877.957 -0.992617 -2.87021 0
M  V30 9350 H 875.542 -0.549934 -1.3891 0
M  V30 9351 H 877.424 1.15663 -4.05216 0
M  V30 9352 H 876.099 1.45166 -2.89324 0
M  V30 9353 H 875.006 -0.73207 -3.66867 0
M  V30 9354 H 876.339 -0.943863 -4.83065 0
M  V30 9355 N 877.991 1.48044 -0.54043 0
M  V30 9356 C 879.221 2.06595 -0.0144943 0
M  V30 9357 C 879.629 1.39593 1.27713 0
M  V30 9358 O 878.972 0.480794 1.77297 0
M  V30 9359 C 879.034 3.5849 0.269316 0
M  V30 9360 C 878.698 4.47429 -0.930372 0
M  V30 9361 C 879.695 4.8657 -1.83155 0
M  V30 9362 C 877.38 4.89185 -1.14032 0
M  V30 9363 C 879.374 5.66246 -2.92649 0
M  V30 9364 C 877.061 5.6863 -2.23838 0
M  V30 9365 C 878.059 6.07069 -3.12979 0
M  V30 9366 O 877.747 6.84917 -4.20884 0
M  V30 9367 H 877.479 0.675086 -0.0351467 0
M  V30 9368 H 880.033 1.91275 -0.74853 0
M  V30 9369 H 878.263 3.71961 1.05745 0
M  V30 9370 H 879.952 3.99124 0.738595 0
M  V30 9371 H 880.718 4.54924 -1.68134 0
M  V30 9372 H 876.597 4.58742 -0.455717 0
M  V30 9373 H 880.141 5.96169 -3.62254 0
M  V30 9374 H 876.038 5.99688 -2.38839 0
M  V30 9375 H 876.806 7.03287 -4.18723 0
M  V30 9376 N 879.47 0.276058 1.55163 0
M  V30 9377 C 880.417 -0.611006 2.22565 0
M  V30 9378 C 881.387 -1.14902 1.19945 0
M  V30 9379 O 882.572 -1.19815 1.48489 0
M  V30 9380 C 879.712 -1.78885 2.95117 0
M  V30 9381 C 878.825 -1.2846 4.12458 0
M  V30 9382 C 877.96 -2.42432 4.72652 0
M  V30 9383 C 876.999 -1.89015 5.82185 0
M  V30 9384 N 876.136 -2.96463 6.36439 0
M  V30 9385 H 880.976 -0.0295849 2.97985 0
M  V30 9386 H 878.513 -0.00283607 1.471 0
M  V30 9387 H 880.471 -2.48121 3.35398 0
M  V30 9388 H 879.101 -2.34229 2.22119 0
M  V30 9389 H 878.153 -0.485312 3.77292 0
M  V30 9390 H 879.465 -0.853358 4.91446 0
M  V30 9391 H 878.619 -3.19659 5.15658 0
M  V30 9392 H 877.358 -2.88872 3.92943 0
M  V30 9393 H 876.363 -1.10267 5.38629 0
M  V30 9394 H 877.588 -1.43509 6.63763 0
M  V30 9395 H 875.534 -3.42283 5.59623 0
M  V30 9396 H 875.451 -2.57759 7.10701 0
M  V30 9397 H 876.719 -3.73663 6.84103 0
M  V30 9398 N 880.948 -1.576 0.00335426 0
M  V30 9399 C 881.88 -2.0549 -1.01521 0
M  V30 9400 C 882.893 -0.973441 -1.30491 0
M  V30 9401 O 884.082 -1.25017 -1.27409 0
M  V30 9402 C 881.182 -2.44272 -2.34914 0
M  V30 9403 C 880.355 -3.75191 -2.24835 0
M  V30 9404 C 879.414 -4.00804 -3.40944 0
M  V30 9405 O 878.44 -4.71423 -3.18981 0
M  V30 9406 N 879.642 -3.48961 -4.63904 0
M  V30 9407 H 882.407 -2.93493 -0.60678 0
M  V30 9408 H 879.968 -1.60851 -0.18396 0
M  V30 9409 H 881.96 -2.58518 -3.11369 0
M  V30 9410 H 880.53 -1.6177 -2.67487 0
M  V30 9411 H 879.75 -3.70989 -1.3327 0
M  V30 9412 H 881.038 -4.61013 -2.15277 0
M  V30 9413 H 880.436 -2.9178 -4.84645 0
M  V30 9414 H 878.993 -3.68531 -5.37613 0
M  V30 9415 N 882.426 0.269451 -1.5528 0
M  V30 9416 C 883.672 1.00206 -1.76314 0
M  V30 9417 C 884.005 1.85812 -0.564581 0
M  V30 9418 O 883.28 1.89509 0.437769 0
M  V30 9419 C 883.563 1.88163 -3.07029 0
M  V30 9420 C 883.416 1.05527 -4.37246 0
M  V30 9421 C 884.735 2.8681 -3.33808 0
M  V30 9422 H 881.854 0.36288 -0.641473 0
M  V30 9423 H 884.496 0.274188 -1.88011 0
M  V30 9424 H 882.646 2.50224 -2.97187 0
M  V30 9425 H 884.318 0.455094 -4.5905 0
M  V30 9426 H 882.561 0.358842 -4.32313 0
M  V30 9427 H 883.232 1.70397 -5.25042 0
M  V30 9428 H 885.708 2.34884 -3.43466 0
M  V30 9429 H 884.584 3.45492 -4.26528 0
M  V30 9430 H 884.845 3.62118 -2.5362 0
M  V30 9431 N 883.904 1.48273 0.534124 0
M  V30 9432 C 885.153 1.55334 1.28663 0
M  V30 9433 C 885.466 0.230345 1.94239 0
M  V30 9434 O 886.672 0.179161 2.70908 0
M  V30 9435 C 885.128 2.73927 2.33435 0
M  V30 9436 C 884.736 4.12852 1.73947 0
M  V30 9437 C 886.48 2.90298 3.09722 0
M  V30 9438 C 884.387 5.22711 2.76636 0
M  V30 9439 H 883.317 0.578262 0.483869 0
M  V30 9440 H 885.968 1.74598 0.564602 0
M  V30 9441 H 884.35 2.48089 3.08655 0
M  V30 9442 H 885.524 4.48691 1.04944 0
M  V30 9443 H 883.839 4.01562 1.10167 0
M  V30 9444 H 886.436 3.69542 3.86449 0
M  V30 9445 H 886.779 1.99598 3.6533 0
M  V30 9446 H 887.312 3.16017 2.41616 0
M  V30 9447 H 884.051 6.15362 2.25852 0
M  V30 9448 H 883.571 4.91364 3.43979 0
M  V30 9449 H 885.25 5.50648 3.39699 0
M  V30 9450 N 885.382 -0.782676 1.36792 0
M  V30 9451 C 886.345 -1.8772 1.31507 0
M  V30 9452 C 887.345 -1.59269 0.221349 0
M  V30 9453 O 888.535 -1.67555 0.476544 0
M  V30 9454 C 885.667 -3.24641 1.04025 0
M  V30 9455 H 886.86 -1.9382 2.28853 0
M  V30 9456 H 884.413 -0.981226 1.21662 0
M  V30 9457 H 885.148 -3.24221 0.0716439 0
M  V30 9458 H 884.933 -3.46681 1.8318 0
M  V30 9459 H 886.423 -4.04711 1.02949 0
M  V30 9460 N 886.86 -1.21182 -1.00761 0
M  V30 9461 C 888.271 -1.02652 -1.55947 0
M  V30 9462 C 888.622 0.414466 -1.91772 0
M  V30 9463 O 887.747 1.29727 -1.73204 0
M  V30 9464 C 888.342 -1.85713 -2.83366 0
M  V30 9465 C 886.901 -1.71523 -3.35048 0
M  V30 9466 C 886.048 -1.83087 -2.08265 0
M  V30 9467 H 888.999 -1.35242 -0.830379 0
M  V30 9468 H 889.02 -1.36583 -3.55141 0
M  V30 9469 H 888.532 -2.90584 -2.5726 0
M  V30 9470 H 886.633 -0.693257 -3.66094 0
M  V30 9471 H 886.746 -2.53333 -4.06644 0
M  V30 9472 H 885.11 -1.26367 -2.21141 0
M  V30 9473 H 885.893 -2.8946 -1.84575 0
M  V30 9474 N 888.338 1.20213 -1.01915 0
M  V30 9475 C 889.584 1.89928 -0.711007 0
M  V30 9476 C 889.917 1.7881 0.75767 0
M  V30 9477 O 889.192 1.17399 1.55073 0
M  V30 9478 C 889.475 3.41225 -1.15053 0
M  V30 9479 C 889.328 3.61264 -2.67971 0
M  V30 9480 C 890.647 4.34108 -0.72377 0
M  V30 9481 H 887.766 0.689702 -0.259768 0
M  V30 9482 H 890.408 1.41557 -1.26734 0
M  V30 9483 H 888.558 3.82552 -0.677199 0
M  V30 9484 H 890.23 3.29173 -3.23176 0
M  V30 9485 H 888.473 3.04647 -3.08824 0
M  V30 9486 H 889.144 4.67331 -2.93779 0
M  V30 9487 H 891.62 4.00442 -1.13073 0
M  V30 9488 H 890.496 5.38581 -1.05931 0
M  V30 9489 H 890.757 4.40512 0.374424 0
M  V30 9490 N 889.816 0.795718 1.36037 0
M  V30 9491 C 890.763 0.196548 2.29962 0
M  V30 9492 C 891.733 -0.663213 1.52285 0
M  V30 9493 O 892.918 -0.610574 1.80767 0
M  V30 9494 C 890.058 -0.657639 3.38776 0
M  V30 9495 C 889.171 0.221358 4.31433 0
M  V30 9496 C 888.306 -0.6398 5.27333 0
M  V30 9497 C 887.345 0.240265 6.11628 0
M  V30 9498 N 886.482 -0.580237 6.99698 0
M  V30 9499 H 891.322 1.00295 2.80615 0
M  V30 9500 H 888.859 0.506147 1.38118 0
M  V30 9501 H 890.817 -1.16793 4.00519 0
M  V30 9502 H 889.447 -1.42941 2.89426 0
M  V30 9503 H 888.499 0.84967 3.70789 0
M  V30 9504 H 889.811 0.899195 4.90628 0
M  V30 9505 H 888.965 -1.21566 5.94396 0
M  V30 9506 H 887.704 -1.35124 4.68607 0
M  V30 9507 H 886.709 0.828474 5.43522 0
M  V30 9508 H 887.934 0.949403 6.72431 0
M  V30 9509 H 885.88 -1.27585 6.43473 0
M  V30 9510 H 885.797 0.0397853 7.5599 0
M  V30 9511 H 887.065 -1.13972 7.71123 0
M  V30 9512 N 891.294 -1.47756 0.548274 0
M  V30 9513 C 892.543 -2.01691 0.0187961 0
M  V30 9514 C 892.856 -1.42894 -1.33569 0
M  V30 9515 O 894.062 -1.88438 -1.95457 0
M  V30 9516 C 892.518 -3.59896 -0.016847 0
M  V30 9517 C 892.126 -4.27683 1.33385 0
M  V30 9518 C 893.87 -4.21614 -0.494188 0
M  V30 9519 C 891.777 -5.7787 1.2578 0
M  V30 9520 H 890.707 -0.753993 0.00325648 0
M  V30 9521 H 893.358 -1.69838 0.694792 0
M  V30 9522 H 891.74 -3.88672 -0.758304 0
M  V30 9523 H 892.914 -4.10559 2.09232 0
M  V30 9524 H 891.229 -3.77915 1.7484 0
M  V30 9525 H 893.826 -5.3166 -0.569342 0
M  V30 9526 H 894.169 -3.88176 -1.50417 0
M  V30 9527 H 894.702 -3.97336 0.192138 0
M  V30 9528 H 891.441 -6.15912 2.2435 0
M  V30 9529 H 890.961 -5.97355 0.540997 0
M  V30 9530 H 892.64 -6.39897 0.956109 0
M  V30 9531 N 892.772 -0.284283 -1.55015 0
M  V30 9532 C 893.722 0.613913 -2.19579 0
M  V30 9533 C 894.706 1.11153 -1.16335 0
M  V30 9534 O 895.898 1.05508 -1.42116 0
M  V30 9535 C 893.027 1.79329 -2.92739 0
M  V30 9536 C 892.113 1.31242 -4.03282 0
M  V30 9537 N 892.504 0.548344 -5.02819 0
M  V30 9538 C 890.802 1.5946 -4.1652 0
M  V30 9539 C 891.503 0.294358 -5.80955 0
M  V30 9540 N 890.479 0.869406 -5.36603 0
M  V30 9541 H 894.281 0.0224088 -2.93891 0
M  V30 9542 H 891.795 -0.0882619 -1.6216 0
M  V30 9543 H 893.792 2.44814 -3.37449 0
M  V30 9544 H 892.452 2.38865 -2.1994 0
M  V30 9545 H 893.463 0.194812 -5.17533 0
M  V30 9546 H 890.14 2.19866 -3.54916 0
M  V30 9547 H 891.53 -0.318195 -6.71146 0
M  V30 9548 N 894.251 1.57596 -0.0117121 0
M  V30 9549 C 895.214 2.08089 0.960816 0
M  V30 9550 C 896.214 0.992519 1.26514 0
M  V30 9551 O 897.404 1.25475 1.20837 0
M  V30 9552 C 894.536 2.53217 2.28241 0
M  V30 9553 H 895.729 2.9529 0.523829 0
M  V30 9554 H 893.282 1.54508 0.235995 0
M  V30 9555 H 894.017 1.69294 2.76604 0
M  V30 9556 H 893.802 3.32714 2.0747 0
M  V30 9557 H 895.292 2.92568 2.97983 0
M  V30 9558 N 895.729 -0.261212 1.5542 0
M  V30 9559 C 897.145 -0.609012 1.47524 0
M  V30 9560 C 897.345 -1.88986 0.699042 0
M  V30 9561 O 896.401 -2.51517 0.222628 0
M  V30 9562 C 897.714 -0.725025 2.91828 0
M  V30 9563 C 899.262 -0.818302 3.02114 0
M  V30 9564 C 899.737 -0.965996 4.47697 0
M  V30 9565 N 901.228 -1.03123 4.51575 0
M  V30 9566 C 901.963 -1.16451 5.6145 0
M  V30 9567 N 901.459 -1.26425 6.81167 0
M  V30 9568 N 903.252 -1.19655 5.49217 0
M  V30 9569 H 895.403 0.579807 2.04333 0
M  V30 9570 H 897.666 0.198072 0.927077 0
M  V30 9571 H 897.372 0.145871 3.51397 0
M  V30 9572 H 897.246 -1.60156 3.41511 0
M  V30 9573 H 899.633 -1.67966 2.42634 0
M  V30 9574 H 899.714 0.0830895 2.55665 0
M  V30 9575 H 899.358 -0.109251 5.07782 0
M  V30 9576 H 899.288 -1.88221 4.91813 0
M  V30 9577 H 901.779 -0.966072 3.65343 0
M  V30 9578 H 902.092 -1.36462 7.60656 0
M  V30 9579 H 900.437 -1.23408 6.83956 0
M  V30 9580 H 903.628 -1.11501 4.54626 0
M  V30 9581 H 903.801 -1.29698 6.34888 0
M  V30 9582 N 897.207 -1.48554 -0.526253 0
M  V30 9583 C 898.484 -1.47252 -1.28748 0
M  V30 9584 C 898.864 -0.186245 -2.10277 0
M  V30 9585 O 898.212 0.831954 -2.12816 0
M  V30 9586 C 898.422 -2.73672 -2.16575 0
M  V30 9587 C 899.77 -3.22151 -2.76593 0
M  V30 9588 O 900.794 -2.74614 -2.2686 0
M  V30 9589 O 899.653 -4.04877 -3.67066 0
M  V30 9590 H 896.747 -0.588242 -0.581292 0
M  V30 9591 H 899.293 -1.60792 -0.5426 0
M  V30 9592 H 898.065 -3.58798 -1.56139 0
M  V30 9593 H 897.688 -2.6287 -2.98304 0
M  V30 9594 N 898.685 0.775411 -1.37205 0
M  V30 9595 C 899.615 1.90258 -1.35367 0
M  V30 9596 C 900.596 1.68634 -0.222864 0
M  V30 9597 O 901.781 1.89545 -0.422659 0
M  V30 9598 C 898.911 3.27488 -1.15623 0
M  V30 9599 C 897.865 3.63668 -2.25676 0
M  V30 9600 C 897.191 4.994 -1.91059 0
M  V30 9601 C 898.491 3.70797 -3.67841 0
M  V30 9602 H 900.185 1.92053 -2.29687 0
M  V30 9603 H 897.731 0.922597 -1.10563 0
M  V30 9604 H 899.684 4.05976 -1.12968 0
M  V30 9605 H 898.408 3.26117 -0.177573 0
M  V30 9606 H 897.067 2.87486 -2.2748 0
M  V30 9607 H 896.715 4.94565 -0.917324 0
M  V30 9608 H 896.415 5.24576 -2.64751 0
M  V30 9609 H 897.939 5.80291 -1.89985 0
M  V30 9610 H 899.353 4.39444 -3.68187 0
M  V30 9611 H 897.75 4.07468 -4.40556 0
M  V30 9612 H 898.82 2.71549 -4.01732 0
M  V30 9613 N 900.163 1.21714 1.00117 0
M  V30 9614 C 901.391 1.06278 1.77518 0
M  V30 9615 C 901.806 -0.387193 1.84787 0
M  V30 9616 O 901.163 -1.26854 1.31203 0
M  V30 9617 C 901.214 1.65795 3.21239 0
M  V30 9618 O 900.935 3.05119 3.14378 0
M  V30 9619 C 902.436 1.55521 4.15124 0
M  V30 9620 H 899.656 0.373013 0.557765 0
M  V30 9621 H 902.2 1.61133 1.25922 0
M  V30 9622 H 900.355 1.15022 3.69931 0
M  V30 9623 H 900.769 3.33643 4.04701 0
M  V30 9624 H 902.243 2.01902 5.13751 0
M  V30 9625 H 902.72 0.510307 4.36225 0
M  V30 9626 H 903.326 2.0556 3.72324 0
M  V30 9627 N 901.641 -1.19671 1.02551 0
M  V30 9628 C 903.057 -1.41305 0.741963 0
M  V30 9629 C 903.257 -1.89865 -0.674807 0
M  V30 9630 O 902.313 -2.07323 -1.44129 0
M  V30 9631 C 903.626 -2.42706 1.77522 0
M  V30 9632 C 905.174 -2.56458 1.79438 0
M  V30 9633 C 905.649 -3.61111 2.81715 0
M  V30 9634 N 907.14 -3.68603 2.8051 0
M  V30 9635 C 907.875 -4.49262 3.56302 0
M  V30 9636 N 907.371 -5.33653 4.41799 0
M  V30 9637 N 909.164 -4.43879 3.44859 0
M  V30 9638 H 901.315 -0.8647 1.94002 0
M  V30 9639 H 903.578 -0.442206 0.838545 0
M  V30 9640 H 903.284 -2.14042 2.79068 0
M  V30 9641 H 903.158 -3.41831 1.59472 0
M  V30 9642 H 905.545 -2.84447 0.78573 0
M  V30 9643 H 905.626 -1.57499 2.01563 0
M  V30 9644 H 905.27 -3.33864 3.82749 0
M  V30 9645 H 905.2 -4.59713 2.56849 0
M  V30 9646 H 907.691 -3.08329 2.18498 0
M  V30 9647 H 908.004 -5.92308 4.96378 0
M  V30 9648 H 906.349 -5.33125 4.45873 0
M  V30 9649 H 909.54 -3.7699 2.77482 0
M  V30 9650 H 909.713 -5.06501 4.04179 0
M  V30 9651 N 903.119 -0.802921 -1.35613 0
M  V30 9652 C 904.367 -0.380822 -1.9848 0
M  V30 9653 C 904.688 1.05464 -1.6402 0
M  V30 9654 O 903.958 1.72908 -0.920854 0
M  V30 9655 H 902.538 -0.137824 -0.734176 0
M  V30 9656 H 905.2 -1.02795 -1.65587 0
M  V30 9657 H 904.296 -0.483565 -3.08331 0
M  V30 9658 N 904.597 1.47463 -0.556102 0
M  V30 9659 C 905.507 2.33785 0.195378 0
M  V30 9660 C 906.523 1.48123 0.913 0
M  V30 9661 O 907.699 1.81053 0.882141 0
M  V30 9662 C 904.764 3.24795 1.21282 0
M  V30 9663 C 903.825 4.26346 0.502747 0
M  V30 9664 C 903.058 5.13007 1.47172 0
M  V30 9665 O 903.281 5.02103 2.70646 0
M  V30 9666 O 902.215 5.93588 0.996814 0
M  V30 9667 H 906.041 2.99341 -0.512676 0
M  V30 9668 H 903.626 1.46004 -0.31673 0
M  V30 9669 H 905.508 3.81015 1.80016 0
M  V30 9670 H 904.183 2.61868 1.90282 0
M  V30 9671 H 903.09 3.73889 -0.125757 0
M  V30 9672 H 904.423 4.91984 -0.145779 0
M  V30 9673 N 906.075 0.2925 1.54862 0
M  V30 9674 C 907.005 -0.580677 2.26165 0
M  V30 9675 C 907.986 -1.14485 1.25806 0
M  V30 9676 O 909.171 -1.17577 1.54562 0
M  V30 9677 C 906.301 -1.75668 2.99596 0
M  V30 9678 C 905.255 -1.32325 4.07031 0
M  V30 9679 C 904.581 -2.58374 4.68131 0
M  V30 9680 C 905.881 -0.460703 5.20264 0
M  V30 9681 H 907.575 0.0140075 2.99397 0
M  V30 9682 H 905.121 0.00817706 1.43998 0
M  V30 9683 H 907.074 -2.37356 3.48195 0
M  V30 9684 H 905.798 -2.37747 2.23928 0
M  V30 9685 H 904.457 -0.729477 3.59269 0
M  V30 9686 H 904.105 -3.18749 3.89112 0
M  V30 9687 H 903.805 -2.30078 5.40683 0
M  V30 9688 H 905.329 -3.2088 5.19489 0
M  V30 9689 H 906.743 -0.983037 5.64809 0
M  V30 9690 H 905.14 -0.271881 5.99484 0
M  V30 9691 H 906.21 0.516304 4.82143 0
M  V30 9692 N 907.553 -1.57587 0.0200696 0
M  V30 9693 C 908.5 -2.09667 -0.964791 0
M  V30 9694 C 909.47 -0.99664 -1.32877 0
M  V30 9695 O 910.655 -1.2703 -1.42366 0
M  V30 9696 C 907.795 -2.62101 -2.24493 0
M  V30 9697 C 906.908 -3.8608 -1.93821 0
M  V30 9698 C 906.043 -4.26939 -3.16064 0
M  V30 9699 C 905.082 -5.43701 -2.81169 0
M  V30 9700 N 904.219 -5.79759 -3.9601 0
M  V30 9701 H 909.059 -2.93538 -0.513751 0
M  V30 9702 H 906.596 -1.45096 -0.242 0
M  V30 9703 H 908.554 -2.90587 -2.99358 0
M  V30 9704 H 907.184 -1.81074 -2.6723 0
M  V30 9705 H 906.236 -3.64378 -1.09237 0
M  V30 9706 H 907.548 -4.71028 -1.64115 0
M  V30 9707 H 906.702 -4.56814 -3.99257 0
M  V30 9708 H 905.441 -3.40739 -3.48924 0
M  V30 9709 H 904.446 -5.13529 -1.96387 0
M  V30 9710 H 905.671 -6.31593 -2.49535 0
M  V30 9711 H 903.617 -4.96516 -4.28729 0
M  V30 9712 H 903.534 -6.59327 -3.69896 0
M  V30 9713 H 904.802 -6.14235 -4.79933 0
M  V30 9714 N 909.032 0.252966 -1.55557 0
M  V30 9715 C 910.278 0.983306 -1.77367 0
M  V30 9716 C 910.611 1.85203 -0.584258 0
M  V30 9717 O 909.886 1.89963 0.417644 0
M  V30 9718 C 910.169 1.84896 -3.09007 0
M  V30 9719 C 910.022 1.00883 -4.38341 0
M  V30 9720 C 911.341 2.83254 -3.36831 0
M  V30 9721 H 908.46 0.356056 -0.645286 0
M  V30 9722 H 911.102 0.254232 -1.88291 0
M  V30 9723 H 909.252 2.47058 -2.99825 0
M  V30 9724 H 910.924 0.40638 -4.59507 0
M  V30 9725 H 909.167 0.31297 -4.3267 0
M  V30 9726 H 909.838 1.64818 -5.2682 0
M  V30 9727 H 912.314 2.31228 -3.45937 0
M  V30 9728 H 911.19 3.40949 -4.30169 0
M  V30 9729 H 911.451 3.59407 -2.57447 0
M  V30 9730 N 910.51 1.48831 0.518367 0
M  V30 9731 C 911.42 1.6692 1.64848 0
M  V30 9732 C 912.436 0.551711 1.65022 0
M  V30 9733 O 913.612 0.824251 1.83761 0
M  V30 9734 C 910.677 1.71559 3.01278 0
M  V30 9735 C 909.738 2.9502 3.11868 0
M  V30 9736 C 908.971 2.99428 4.4179 0
M  V30 9737 O 909.194 2.11914 5.29574 0
M  V30 9738 O 908.128 3.91719 4.5699 0
M  V30 9739 H 911.954 2.62623 1.52521 0
M  V30 9740 H 909.539 1.32368 0.692749 0
M  V30 9741 H 911.421 1.77064 3.82396 0
M  V30 9742 H 910.096 0.790316 3.13904 0
M  V30 9743 H 909.003 2.95042 2.30003 0
M  V30 9744 H 910.336 3.8697 3.04163 0
M  V30 9745 N 911.988 -0.768124 1.37614 0
M  V30 9746 C 912.936 -1.9029 1.33763 0
M  V30 9747 C 913.93 -1.67888 0.225814 0
M  V30 9748 O 915.136 -1.75634 0.394043 0
M  V30 9749 H 911.511 -0.625828 0.416945 0
M  V30 9750 H 913.482 -1.90654 2.29551 0
M  V30 9751 C 912.231 -3.27598 1.16511 0
M  V30 9752 H 911.554 -3.45414 2.01318 0
M  V30 9753 H 912.994 -4.07288 1.17867 0
M  V30 9754 C 911.453 -3.36653 -0.129001 0
M  V30 9755 O 911.983 -3.86023 -1.11128 0
M  V30 9756 N 910.189 -2.90036 -0.180926 0
M  V30 9757 H 909.736 -2.5005 0.619076 0
M  V30 9758 H 909.694 -2.96475 -1.04641 0
M  V30 9759 N 913.466 -1.22244 -0.994698 0
M  V30 9760 C 914.413 -0.990906 -2.08446 0
M  V30 9761 C 915.383 0.086737 -1.65873 0
M  V30 9762 O 916.568 -0.0624882 -1.90698 0
M  V30 9763 C 913.708 -0.572813 -3.40313 0
M  V30 9764 C 912.821 -1.72103 -3.96238 0
M  V30 9765 C 911.956 -1.2511 -5.16257 0
M  V30 9766 C 910.995 -2.37098 -5.64315 0
M  V30 9767 N 910.132 -1.91164 -6.75574 0
M  V30 9768 H 914.972 -1.92377 -2.27585 0
M  V30 9769 H 912.509 -0.958576 -1.11578 0
M  V30 9770 H 914.467 -0.311594 -4.16035 0
M  V30 9771 H 913.097 0.323044 -3.21179 0
M  V30 9772 H 912.149 -2.09662 -3.17405 0
M  V30 9773 H 913.461 -2.56347 -4.27888 0
M  V30 9774 H 912.615 -0.947152 -5.99261 0
M  V30 9775 H 911.354 -0.378836 -4.86226 0
M  V30 9776 H 910.359 -2.68283 -4.799 0
M  V30 9777 H 911.584 -3.24837 -5.96371 0
M  V30 9778 H 909.53 -1.06298 -6.47331 0
M  V30 9779 H 909.447 -2.68975 -7.06533 0
M  V30 9780 H 910.715 -1.63833 -7.62088 0
M  V30 9781 N 914.944 1.19125 -1.03184 0
M  V30 9782 C 915.874 2.24675 -0.635889 0
M  V30 9783 C 916.855 1.66321 0.356565 0
M  V30 9784 O 918.04 1.92728 0.238625 0
M  V30 9785 C 915.17 3.47298 0.011069 0
M  V30 9786 C 914.124 4.18345 -0.903979 0
M  V30 9787 C 913.45 5.34561 -0.12197 0
M  V30 9788 C 914.75 4.72816 -2.21907 0
M  V30 9789 H 916.444 2.5805 -1.51825 0
M  V30 9790 H 913.99 1.24039 -0.73146 0
M  V30 9791 H 915.943 4.20333 0.299729 0
M  V30 9792 H 914.667 3.13131 0.928245 0
M  V30 9793 H 913.326 3.47196 -1.17688 0
M  V30 9794 H 912.974 4.9664 0.797334 0
M  V30 9795 H 912.674 5.83029 -0.731498 0
M  V30 9796 H 914.198 6.10391 0.159881 0
M  V30 9797 H 915.612 5.3759 -1.99173 0
M  V30 9798 H 914.009 5.31782 -2.78078 0
M  V30 9799 H 915.079 3.9072 -2.87168 0
M  V30 9800 N 916.422 0.810101 1.35185 0
M  V30 9801 C 917.668 0.401839 1.99391 0
M  V30 9802 C 918.023 -1.02059 1.63101 0
M  V30 9803 O 917.316 -1.69889 0.8859 0
M  V30 9804 C 917.51 0.526561 3.535 0
M  V30 9805 C 917.339 1.95956 4.04761 0
M  V30 9806 C 916.109 2.58869 4.33953 0
M  V30 9807 C 918.307 2.92459 4.23051 0
M  V30 9808 N 916.289 3.93542 4.71166 0
M  V30 9809 C 917.66 4.12011 4.633 0
M  V30 9810 C 919.715 2.89244 4.05268 0
M  V30 9811 C 918.418 5.28784 4.87627 0
M  V30 9812 C 920.444 4.05223 4.30753 0
M  V30 9813 C 919.806 5.23524 4.71277 0
M  V30 9814 H 915.905 0.194886 0.757327 0
M  V30 9815 H 918.489 1.05209 1.63827 0
M  V30 9816 H 916.66 -0.0937151 3.88287 0
M  V30 9817 H 918.392 0.0925434 4.04594 0
M  V30 9818 H 915.147 2.10198 4.24398 0
M  V30 9819 H 915.571 4.62889 4.94027 0
M  V30 9820 H 920.213 1.98932 3.73076 0
M  V30 9821 H 917.931 6.19666 5.18691 0
M  V30 9822 H 921.517 4.04121 4.18542 0
M  V30 9823 H 920.397 6.11776 4.90612 0
M  V30 9824 N 917.9 -1.47166 0.563914 0
M  V30 9825 C 919.147 -2.02456 0.042371 0
M  V30 9826 C 919.475 -1.43753 -1.31016 0
M  V30 9827 O 918.73 -0.585287 -1.86743 0
M  V30 9828 C 919.029 -3.57279 -0.0931797 0
M  V30 9829 C 918.695 -4.34932 1.18933 0
M  V30 9830 C 917.357 -4.55867 1.54073 0
M  V30 9831 C 919.709 -4.79665 2.03889 0
M  V30 9832 C 917.037 -5.18785 2.74005 0
M  V30 9833 C 919.389 -5.43907 3.23029 0
M  V30 9834 C 918.053 -5.63074 3.58475 0
M  V30 9835 H 917.323 -0.740838 0.0155047 0
M  V30 9836 H 919.97 -1.76759 0.736776 0
M  V30 9837 H 918.275 -3.82005 -0.870596 0
M  V30 9838 H 919.972 -3.97716 -0.512176 0
M  V30 9839 H 916.562 -4.18921 0.905718 0
M  V30 9840 H 920.746 -4.63264 1.78046 0
M  V30 9841 H 916.002 -5.31818 3.01628 0
M  V30 9842 H 920.176 -5.77531 3.89141 0
M  V30 9843 H 917.803 -6.11598 4.515 0
M  V30 9844 N 919.378 -0.300708 -1.54705 0
M  V30 9845 C 920.606 0.31127 -2.04545 0
M  V30 9846 C 921.021 1.47542 -1.178 0
M  V30 9847 O 920.378 1.81361 -0.203571 0
M  V30 9848 C 920.429 0.767783 -3.53253 0
M  V30 9849 O 920.15 -0.350027 -4.36699 0
M  V30 9850 C 921.651 1.44494 -4.1909 0
M  V30 9851 H 918.871 0.067668 -0.667579 0
M  V30 9852 H 921.415 -0.440254 -1.99705 0
M  V30 9853 H 919.57 1.46933 -3.58454 0
M  V30 9854 H 919.984 0.00534038 -5.245 0
M  V30 9855 H 921.458 1.71553 -5.24665 0
M  V30 9856 H 921.935 2.3849 -3.68808 0
M  V30 9857 H 922.541 0.786581 -4.17963 0
M  V30 9858 N 920.856 1.57574 -0.0284266 0
M  V30 9859 C 922.084 1.96071 0.660575 0
M  V30 9860 C 922.499 0.904881 1.65703 0
M  V30 9861 O 921.856 -0.113379 1.82147 0
M  V30 9862 C 921.907 3.34634 1.36756 0
M  V30 9863 O 921.628 4.36167 0.411041 0
M  V30 9864 C 923.129 3.87758 2.14845 0
M  V30 9865 H 920.349 0.645794 0.182183 0
M  V30 9866 H 922.893 2.04311 -0.0879858 0
M  V30 9867 H 921.048 3.27616 2.06753 0
M  V30 9868 H 921.462 5.16493 0.913 0
M  V30 9869 H 922.936 4.87058 2.59767 0
M  V30 9870 H 923.413 3.21967 2.9872 0
M  V30 9871 H 924.019 3.98043 1.49807 0
M  V30 9872 N 922.334 -0.244713 1.55689 0
M  V30 9873 C 923.264 -1.30667 1.93516 0
M  V30 9874 C 924.245 -1.50094 0.800371 0
M  V30 9875 O 925.43 -1.62665 1.06083 0
M  V30 9876 C 922.56 -2.66101 2.23176 0
M  V30 9877 C 921.514 -2.61366 3.38927 0
M  V30 9878 C 920.84 -4.00616 3.54134 0
M  V30 9879 C 922.14 -2.18161 4.74555 0
M  V30 9880 H 923.834 -0.992546 2.82469 0
M  V30 9881 H 921.38 -0.476018 1.35905 0
M  V30 9882 H 923.333 -3.4053 2.48228 0
M  V30 9883 H 922.057 -2.99154 1.31051 0
M  V30 9884 H 920.716 -1.89395 3.13887 0
M  V30 9885 H 920.364 -4.30938 2.59426 0
M  V30 9886 H 920.064 -3.98335 4.31975 0
M  V30 9887 H 921.588 -4.76741 3.8151 0
M  V30 9888 H 923.002 -2.82323 4.98965 0
M  V30 9889 H 921.399 -2.26988 5.55515 0
M  V30 9890 H 922.469 -1.13333 4.7147 0
M  V30 9891 N 923.813 -1.49104 -0.510467 0
M  V30 9892 C 925.09 -1.48609 -1.27179 0
M  V30 9893 C 925.47 -0.208537 -2.10067 0
M  V30 9894 O 924.818 0.809335 -2.13687 0
M  V30 9895 C 925.028 -2.75953 -2.1366 0
M  V30 9896 C 926.376 -3.25067 -2.73161 0
M  V30 9897 O 927.4 -2.77005 -2.23934 0
M  V30 9898 O 926.259 -4.08747 -3.62751 0
M  V30 9899 H 923.353 -0.594374 -0.57502 0
M  V30 9900 H 925.899 -1.61358 -0.525515 0
M  V30 9901 H 924.671 -3.60434 -1.52325 0
M  V30 9902 H 924.294 -2.66019 -2.95499 0
M  V30 9903 N 925.291 0.760815 -1.38019 0
M  V30 9904 C 926.568 1.5098 -1.24356 0
M  V30 9905 C 926.948 2.10507 0.158169 0
M  V30 9906 O 926.296 1.96455 1.16695 0
M  V30 9907 C 926.506 2.58195 -2.34811 0
M  V30 9908 C 927.854 3.25297 -2.72886 0
M  V30 9909 O 928.878 2.68496 -2.34069 0
M  V30 9910 O 927.737 4.28018 -3.39799 0
M  V30 9911 H 924.831 0.66921 -0.485888 0
M  V30 9912 H 927.377 0.796844 -1.49828 0
M  V30 9913 H 926.149 2.12406 -3.28633 0
M  V30 9914 H 925.772 3.37079 -2.10864 0
M  V30 9915 N 926.769 1.22769 0.988202 0
M  V30 9916 C 927.999 1.07998 1.76125 0
M  V30 9917 C 928.407 -0.372062 1.85506 0
M  V30 9918 O 927.75 -1.26946 1.3278 0
M  V30 9919 C 927.812 1.6219 3.20834 0
M  V30 9920 C 927.476 3.1086 3.34986 0
M  V30 9921 C 928.473 4.08239 3.21927 0
M  V30 9922 C 926.158 3.50411 3.59886 0
M  V30 9923 C 928.152 5.43154 3.33561 0
M  V30 9924 C 925.839 4.85473 3.71159 0
M  V30 9925 C 926.837 5.81653 3.58006 0
M  V30 9926 O 926.525 7.14263 3.68895 0
M  V30 9927 H 926.257 0.378937 0.559806 0
M  V30 9928 H 928.811 1.62925 1.25078 0
M  V30 9929 H 927.041 1.01676 3.73094 0
M  V30 9930 H 928.73 1.43011 3.79872 0
M  V30 9931 H 929.496 3.79025 3.02597 0
M  V30 9932 H 925.375 2.76068 3.69198 0
M  V30 9933 H 928.919 6.18207 3.23211 0
M  V30 9934 H 924.816 5.14365 3.89998 0
M  V30 9935 H 925.584 7.21906 3.85739 0
M  V30 9936 N 928.247 -1.18576 1.03814 0
M  V30 9937 C 929.475 -1.92437 0.759966 0
M  V30 9938 C 929.89 -1.76031 -0.682526 0
M  V30 9939 O 929.247 -1.08829 -1.46501 0
M  V30 9940 C 929.298 -3.43923 1.11351 0
M  V30 9941 O 929.019 -3.5981 2.49937 0
M  V30 9942 C 930.52 -4.34888 0.859472 0
M  V30 9943 H 927.74 -0.610998 0.277349 0
M  V30 9944 H 930.284 -1.50448 1.38512 0
M  V30 9945 H 928.439 -3.83711 0.533362 0
M  V30 9946 H 928.853 -4.53569 2.63393 0
M  V30 9947 H 930.327 -5.39744 1.15672 0
M  V30 9948 H 930.804 -4.38717 -0.205839 0
M  V30 9949 H 931.41 -4.00795 1.42279 0
M  V30 9950 N 929.725 -0.817259 -1.34754 0
M  V30 9951 C 930.655 -0.249769 -2.3216 0
M  V30 9952 C 931.636 0.630663 -1.57977 0
M  V30 9953 O 932.821 0.558719 -1.85989 0
M  V30 9954 C 929.951 0.593825 -3.42186 0
M  V30 9955 C 928.905 -0.188997 -4.27583 0
M  V30 9956 C 928.231 0.776979 -5.29025 0
M  V30 9957 C 929.531 -1.39401 -5.03354 0
M  V30 9958 H 931.225 -1.06359 -2.79872 0
M  V30 9959 H 928.771 -0.512894 -1.34556 0
M  V30 9960 H 930.724 1.00097 -4.09339 0
M  V30 9961 H 929.448 1.44064 -2.93109 0
M  V30 9962 H 928.107 -0.577445 -3.62024 0
M  V30 9963 H 927.755 1.61959 -4.76212 0
M  V30 9964 H 927.455 0.257448 -5.87036 0
M  V30 9965 H 928.979 1.18211 -5.99048 0
M  V30 9966 H 930.393 -1.06117 -5.63393 0
M  V30 9967 H 928.79 -1.84878 -5.70912 0
M  V30 9968 H 929.86 -2.17515 -4.33377 0
M  V30 9969 N 931.203 1.46865 -0.571711 0
M  V30 9970 C 932.153 2.27219 0.188503 0
M  V30 9971 C 933.137 1.35221 0.872019 0
M  V30 9972 O 934.329 1.59474 0.76793 0
M  V30 9973 C 931.458 3.21321 1.20862 0
M  V30 9974 C 930.544 4.20803 0.527783 0
M  V30 9975 N 930.935 5.04132 -0.410403 0
M  V30 9976 C 929.233 4.39128 0.779909 0
M  V30 9977 C 929.934 5.76071 -0.80728 0
M  V30 9978 N 928.91 5.43368 -0.158865 0
M  V30 9979 H 932.712 2.89034 -0.532611 0
M  V30 9980 H 930.226 1.57581 -0.392696 0
M  V30 9981 H 932.223 3.77586 1.76733 0
M  V30 9982 H 930.883 2.61065 1.93067 0
M  V30 9983 H 931.894 5.11911 -0.785351 0
M  V30 9984 H 928.571 3.90031 1.48937 0
M  V30 9985 H 929.961 6.53082 -1.57903 0
M  V30 9986 N 932.681 0.308908 1.54543 0
M  V30 9987 C 933.644 -0.550857 2.22482 0
M  V30 9988 C 934.644 -1.0551 1.21344 0
M  V30 9989 O 935.834 -0.949866 1.46025 0
M  V30 9990 C 932.966 -1.76354 2.9174 0
M  V30 9991 H 934.159 0.0428395 2.99869 0
M  V30 9992 H 931.712 0.059825 1.56185 0
M  V30 9993 H 932.447 -2.39686 2.18451 0
M  V30 9994 H 932.232 -1.40954 3.65889 0
M  V30 9995 H 933.722 -2.37417 3.43545 0
M  V30 9996 N 934.159 -1.57557 0.0367827 0
M  V30 9997 C 935.069 -2.14148 -0.958017 0
M  V30 9998 C 936.085 -1.09564 -1.35173 0
M  V30 9999 O 937.261 -1.4166 -1.43158 0
M  V30 10000 C 934.326 -2.6636 -2.21931 0
M  V30 10001 C 933.387 -3.85688 -1.8853 0
M  V30 10002 C 932.62 -4.35401 -3.08645 0
M  V30 10003 O 932.843 -3.8425 -4.21554 0
M  V30 10004 O 931.777 -5.27158 -2.90497 0
M  V30 10005 H 935.603 -2.99442 -0.506797 0
M  V30 10006 H 933.188 -1.48259 -0.184275 0
M  V30 10007 H 935.07 -2.99976 -2.9596 0
M  V30 10008 H 933.745 -1.84145 -2.66219 0
M  V30 10009 H 932.652 -3.56985 -1.11861 0
M  V30 10010 H 933.985 -4.69089 -1.49052 0
M  V30 10011 N 935.637 0.236453 -1.55816 0
M  V30 10012 C 936.883 0.964439 -1.784 0
M  V30 10013 C 937.216 1.84573 -0.603868 0
M  V30 10014 O 936.491 1.90395 0.397473 0
M  V30 10015 C 936.774 1.81608 -3.10951 0
M  V30 10016 C 936.627 0.962283 -4.39386 0
M  V30 10017 C 937.946 2.79665 -3.39817 0
M  V30 10018 H 935.065 0.349192 -0.649026 0
M  V30 10019 H 937.707 0.234247 -1.8855 0
M  V30 10020 H 935.857 2.43864 -3.02428 0
M  V30 10021 H 937.529 0.35762 -4.59912 0
M  V30 10022 H 935.772 0.267062 -4.32977 0
M  V30 10023 H 936.443 1.59222 -5.28538 0
M  V30 10024 H 938.919 2.27546 -3.4837 0
M  V30 10025 H 937.795 3.36367 -4.33761 0
M  V30 10026 H 938.056 3.56657 -2.61244 0
M  V30 10027 N 937.115 1.49373 0.502552 0
M  V30 10028 C 938.531 1.36101 0.833591 0
M  V30 10029 C 938.731 0.392911 1.97632 0
M  V30 10030 O 937.787 -0.175975 2.51886 0
M  V30 10031 C 939.1 2.76782 1.17526 0
M  V30 10032 C 940.648 2.85471 1.28356 0
M  V30 10033 C 941.123 4.26915 1.65853 0
M  V30 10034 N 942.614 4.29719 1.72905 0
M  V30 10035 C 943.349 5.36127 2.0336 0
M  V30 10036 N 942.845 6.52782 2.32049 0
M  V30 10037 N 944.638 5.23542 2.04598 0
M  V30 10038 H 936.789 2.10912 -0.251008 0
M  V30 10039 H 939.052 0.946696 -0.0497037 0
M  V30 10040 H 938.758 3.49314 0.408965 0
M  V30 10041 H 938.632 3.1205 2.11907 0
M  V30 10042 H 941.019 2.13177 2.04058 0
M  V30 10043 H 941.1 2.53787 0.320304 0
M  V30 10044 H 940.744 4.99735 0.907022 0
M  V30 10045 H 940.674 4.56063 2.63276 0
M  V30 10046 H 943.165 3.45586 1.529 0
M  V30 10047 H 943.478 7.29701 2.54471 0
M  V30 10048 H 941.823 6.56011 2.29509 0
M  V30 10049 H 945.014 4.31413 1.8166 0
M  V30 10050 H 945.187 6.06565 2.27998 0
M  V30 10051 N 938.594 -0.753485 1.38421 0
M  V30 10052 C 939.557 -1.84888 1.35459 0
M  V30 10053 C 940.557 -1.58764 0.255083 0
M  V30 10054 O 941.747 -1.66507 0.511978 0
M  V30 10055 C 938.879 -3.22361 1.10888 0
M  V30 10056 H 940.072 -1.88922 2.32913 0
M  V30 10057 H 937.625 -0.955199 1.23716 0
M  V30 10058 H 938.36 -3.23996 0.1404 0
M  V30 10059 H 938.145 -3.42717 1.90492 0
M  V30 10060 H 939.635 -4.02437 1.1151 0
M  V30 10061 N 940.072 -1.23292 -0.981677 0
M  V30 10062 C 940.982 -1.02964 -2.10798 0
M  V30 10063 C 941.998 0.0254674 -1.73981 0
M  V30 10064 O 943.174 -0.169706 -2.00684 0
M  V30 10065 C 940.239 -0.621934 -3.41076 0
M  V30 10066 C 939.3 -1.75194 -3.91926 0
M  V30 10067 C 938.533 -1.36359 -5.15986 0
M  V30 10068 O 938.756 -0.247265 -5.69864 0
M  V30 10069 O 937.69 -2.18421 -5.60871 0
M  V30 10070 H 941.516 -1.97354 -2.30836 0
M  V30 10071 H 939.101 -1.01986 -1.09175 0
M  V30 10072 H 940.983 -0.405446 -4.19445 0
M  V30 10073 H 939.658 0.29299 -3.22371 0
M  V30 10074 H 938.565 -2.02305 -3.1468 0
M  V30 10075 H 939.898 -2.64513 -4.15083 0
M  V30 10076 N 941.55 1.18024 -1.04442 0
M  V30 10077 C 942.798 1.87727 -0.74854 0
M  V30 10078 C 943.119 1.80975 0.726156 0
M  V30 10079 O 942.389 1.23061 1.52423 0
M  V30 10080 H 940.969 0.694974 -0.273897 0
M  V30 10081 H 943.631 1.43213 -1.32197 0
M  V30 10082 H 942.727 2.93665 -1.05674 0
M  V30 10083 N 943.028 0.824394 1.34319 0
M  V30 10084 C 943.938 0.24932 2.33271 0
M  V30 10085 C 944.954 -0.617066 1.62691 0
M  V30 10086 O 946.13 -0.524616 1.94447 0
M  V30 10087 C 943.195 -0.578094 3.41846 0
M  V30 10088 C 942.256 0.310866 4.28173 0
M  V30 10089 C 941.489 -0.477153 5.31563 0
M  V30 10090 O 941.712 -1.71028 5.44156 0
M  V30 10091 O 940.646 0.141287 6.01734 0
M  V30 10092 H 944.472 1.06837 2.84288 0
M  V30 10093 H 942.057 0.58657 1.37403 0
M  V30 10094 H 943.939 -1.04878 4.0814 0
M  V30 10095 H 942.614 -1.37444 2.93071 0
M  V30 10096 H 941.521 0.829081 3.64797 0
M  V30 10097 H 942.854 1.07161 4.80393 0
M  V30 10098 N 944.506 -1.46559 0.579492 0
M  V30 10099 C 945.734 -2.06784 0.0693648 0
M  V30 10100 C 946.149 -1.42875 -1.23419 0
M  V30 10101 O 945.506 -0.532919 -1.74546 0
M  V30 10102 C 945.557 -3.61343 -0.106511 0
M  V30 10103 O 945.278 -4.22861 1.14545 0
M  V30 10104 C 946.779 -4.38489 -0.651359 0
M  V30 10105 H 943.999 -0.66866 0.0559848 0
M  V30 10106 H 946.543 -1.88235 0.799245 0
M  V30 10107 H 944.698 -3.7933 -0.786601 0
M  V30 10108 H 945.112 -5.15691 0.95723 0
M  V30 10109 H 946.586 -5.47237 -0.723615 0
M  V30 10110 H 947.063 -4.06309 -1.66763 0
M  V30 10111 H 947.669 -4.253 -0.0062433 0
M  V30 10112 N 945.984 -0.3171 -1.54377 0
M  V30 10113 C 946.914 0.544623 -2.2706 0
M  V30 10114 C 947.895 1.12469 -1.27611 0
M  V30 10115 O 949.08 1.15103 -1.56413 0
M  V30 10116 C 946.21 1.70879 -3.02353 0
M  V30 10117 C 945.164 1.25833 -4.09084 0
M  V30 10118 C 944.49 2.50894 -4.72182 0
M  V30 10119 C 945.79 0.377876 -5.20931 0
M  V30 10120 H 947.484 -0.0616372 -2.99337 0
M  V30 10121 H 945.03 -0.0310848 -1.43966 0
M  V30 10122 H 946.983 2.31787 -3.51927 0
M  V30 10123 H 945.707 2.34155 -2.27682 0
M  V30 10124 H 944.366 0.672228 -3.60384 0
M  V30 10125 H 944.014 3.12518 -3.94134 0
M  V30 10126 H 943.714 2.21447 -5.44275 0
M  V30 10127 H 945.238 3.12575 -5.24528 0
M  V30 10128 H 946.652 0.893056 -5.66302 0
M  V30 10129 H 945.049 0.176474 -5.9984 0
M  V30 10130 H 946.119 -0.592943 -4.81261 0
M  V30 10131 N 947.462 1.57535 -0.0451378 0
M  V30 10132 C 948.425 2.1008 0.916461 0
M  V30 10133 C 949.425 1.01913 1.2438 0
M  V30 10134 O 950.615 1.2801 1.18148 0
M  V30 10135 C 947.747 2.58001 2.22818 0
M  V30 10136 H 948.94 2.96334 0.461076 0
M  V30 10137 H 946.493 1.54974 0.203169 0
M  V30 10138 H 947.228 1.75123 2.72951 0
M  V30 10139 H 947.013 3.3704 2.00366 0
M  V30 10140 H 948.503 2.98822 2.9171 0
M  V30 10141 N 948.94 -0.228186 1.55939 0
M  V30 10142 C 950.168 -0.970618 1.8272 0
M  V30 10143 C 950.583 -1.78212 0.623385 0
M  V30 10144 O 949.94 -1.77879 -0.408063 0
M  V30 10145 C 949.991 -1.89352 3.07942 0
M  V30 10146 O 949.712 -1.11483 4.23678 0
M  V30 10147 C 951.213 -2.75039 3.47661 0
M  V30 10148 H 948.433 -0.284772 0.607574 0
M  V30 10149 H 950.977 -0.245419 2.03022 0
M  V30 10150 H 949.132 -2.57275 2.89635 0
M  V30 10151 H 949.546 -1.74073 4.94772 0
M  V30 10152 H 951.02 -3.35511 4.38334 0
M  V30 10153 H 951.497 -3.471 2.69106 0
M  V30 10154 H 952.103 -2.1254 3.68384 0
M  V30 10155 N 950.418 -1.49637 -0.494624 0
M  V30 10156 C 951.35 -1.62902 -1.61231 0
M  V30 10157 C 952.363 -0.511425 -1.54558 0
M  V30 10158 O 953.552 -0.783724 -1.60375 0
M  V30 10159 C 950.652 -1.57564 -3.00045 0
M  V30 10160 C 949.825 -2.84964 -3.31835 0
M  V30 10161 C 948.884 -2.72591 -4.5009 0
M  V30 10162 O 947.91 -3.46532 -4.51558 0
M  V30 10163 N 949.112 -1.84563 -5.50379 0
M  V30 10164 H 951.877 -2.59301 -1.50276 0
M  V30 10165 H 949.438 -1.46806 -0.68262 0
M  V30 10166 H 951.43 -1.46932 -3.77085 0
M  V30 10167 H 950 -0.689974 -3.0489 0
M  V30 10168 H 949.22 -3.099 -2.4363 0
M  V30 10169 H 950.508 -3.69412 -3.49875 0
M  V30 10170 H 949.906 -1.23758 -5.51997 0
M  V30 10171 H 948.463 -1.79849 -6.26496 0
M  V30 10172 N 951.896 0.746133 -1.38819 0
M  V30 10173 C 952.828 1.86991 -1.3254 0
M  V30 10174 C 953.841 1.61077 -0.236216 0
M  V30 10175 O 955.03 1.71518 -0.494341 0
M  V30 10176 C 952.13 3.22786 -1.03258 0
M  V30 10177 C 951.303 3.76145 -2.23234 0
M  V30 10178 C 950.362 4.90474 -1.90581 0
M  V30 10179 O 949.388 5.04717 -2.63153 0
M  V30 10180 N 950.59 5.74015 -0.86525 0
M  V30 10181 H 953.355 1.92885 -2.2938 0
M  V30 10182 H 950.916 0.926392 -1.32776 0
M  V30 10183 H 952.908 3.96824 -0.794533 0
M  V30 10184 H 951.478 3.12231 -0.151895 0
M  V30 10185 H 950.698 2.93587 -2.63059 0
M  V30 10186 H 951.986 4.08528 -3.03285 0
M  V30 10187 H 951.384 5.65086 -0.263577 0
M  V30 10188 H 949.941 6.48168 -0.687087 0
M  V30 10189 N 953.375 1.23811 0.975125 0
M  V30 10190 C 954.624 1.06741 1.71141 0
M  V30 10191 C 954.937 -0.394986 1.9157 0
M  V30 10192 O 956.143 -0.685723 2.62698 0
M  V30 10193 C 954.599 1.86168 3.08009 0
M  V30 10194 C 954.207 3.36771 2.95448 0
M  V30 10195 C 955.951 1.77604 3.85561 0
M  V30 10196 C 953.858 4.0857 4.2758 0
M  V30 10197 H 952.788 0.395819 0.64175 0
M  V30 10198 H 955.439 1.47825 1.0872 0
M  V30 10199 H 953.821 1.37893 3.71216 0
M  V30 10200 H 954.995 3.92571 2.41298 0
M  V30 10201 H 953.31 3.46205 2.31368 0
M  V30 10202 H 955.907 2.28556 4.83391 0
M  V30 10203 H 956.25 0.739837 4.09673 0
M  V30 10204 H 956.783 2.23519 3.29065 0
M  V30 10205 H 953.522 5.12518 4.08663 0
M  V30 10206 H 953.042 3.57556 4.81574 0
M  V30 10207 H 954.721 4.15157 4.9624 0
M  V30 10208 N 954.853 -1.17469 1.05066 0
M  V30 10209 C 955.8 -2.21443 0.650512 0
M  V30 10210 C 956.77 -1.62441 -0.346702 0
M  V30 10211 O 957.955 -1.89305 -0.238404 0
M  V30 10212 C 955.095 -3.45087 0.0301014 0
M  V30 10213 C 954.208 -4.18385 1.07599 0
M  V30 10214 C 953.343 -5.29513 0.423038 0
M  V30 10215 C 952.382 -5.94596 1.45333 0
M  V30 10216 N 951.519 -6.97241 0.824623 0
M  V30 10217 H 956.359 -2.55025 1.54163 0
M  V30 10218 H 953.896 -1.25274 0.771032 0
M  V30 10219 H 955.854 -4.15754 -0.347032 0
M  V30 10220 H 954.484 -3.12093 -0.824481 0
M  V30 10221 H 953.536 -3.46446 1.57097 0
M  V30 10222 H 954.848 -4.62899 1.85813 0
M  V30 10223 H 954.002 -6.067 -0.00774975 0
M  V30 10224 H 952.741 -4.86129 -0.391092 0
M  V30 10225 H 951.746 -5.16142 1.89415 0
M  V30 10226 H 952.971 -6.40061 2.26934 0
M  V30 10227 H 950.917 -6.55993 0.0309804 0
M  V30 10228 H 950.834 -7.40059 1.54432 0
M  V30 10229 H 952.102 -7.78375 0.418567 0
M  V30 10230 N 956.331 -0.831506 -1.3388 0
M  V30 10231 C 957.261 -0.274378 -2.31882 0
M  V30 10232 C 958.242 0.613872 -1.58637 0
M  V30 10233 O 959.427 0.538961 -1.86571 0
M  V30 10234 C 956.557 0.557498 -3.42796 0
M  V30 10235 C 955.511 -0.234337 -4.27358 0
M  V30 10236 C 954.837 0.720825 -5.29819 0
M  V30 10237 C 956.137 -1.44732 -5.01847 0
M  V30 10238 H 957.831 -1.09322 -2.78728 0
M  V30 10239 H 955.377 -0.527136 -1.34005 0
M  V30 10240 H 957.33 0.957501 -4.10378 0
M  V30 10241 H 956.054 1.40947 -2.94621 0
M  V30 10242 H 954.713 -0.61581 -3.61391 0
M  V30 10243 H 954.361 1.569 -4.77903 0
M  V30 10244 H 954.061 0.195171 -5.87276 0
M  V30 10245 H 955.585 1.1185 -6.00268 0
M  V30 10246 H 956.999 -1.12087 -5.62236 0
M  V30 10247 H 955.396 -1.90923 -5.68919 0
M  V30 10248 H 956.466 -2.22099 -4.31045 0
M  V30 10249 N 957.809 1.4625 -0.587256 0
M  V30 10250 C 959.225 1.57641 -0.249284 0
M  V30 10251 C 959.425 1.58169 1.24839 0
M  V30 10252 O 958.481 1.50109 2.03036 0
M  V30 10253 C 959.794 2.86837 -0.902509 0
M  V30 10254 C 961.342 3.00476 -0.876524 0
M  V30 10255 C 961.817 4.32414 -1.50938 0
M  V30 10256 N 963.308 4.39124 -1.47392 0
M  V30 10257 C 964.043 5.39838 -1.93293 0
M  V30 10258 N 963.539 6.47202 -2.47188 0
M  V30 10259 N 965.332 5.31068 -1.84183 0
M  V30 10260 H 957.483 1.44151 -1.55994 0
M  V30 10261 H 959.746 0.687905 -0.652297 0
M  V30 10262 H 959.452 2.92274 -1.95624 0
M  V30 10263 H 959.326 3.74927 -0.413466 0
M  V30 10264 H 961.713 2.94618 0.168601 0
M  V30 10265 H 961.794 2.1385 -1.40363 0
M  V30 10266 H 961.438 4.3903 -2.55372 0
M  V30 10267 H 961.368 5.17823 -0.957455 0
M  V30 10268 H 963.859 3.62138 -1.08002 0
M  V30 10269 H 964.172 7.20269 -2.80058 0
M  V30 10270 H 962.517 6.48009 -2.51216 0
M  V30 10271 H 965.708 4.46095 -1.41833 0
M  V30 10272 H 965.881 6.09414 -2.2027 0
M  V30 10273 N 959.287 0.325282 1.54207 0
M  V30 10274 C 960.564 -0.33113 1.92777 0
M  V30 10275 C 960.944 -1.69739 1.25506 0
M  V30 10276 O 960.292 -2.24983 0.399385 0
M  V30 10277 C 960.502 -0.421636 3.46444 0
M  V30 10278 C 961.85 -0.681111 4.19101 0
M  V30 10279 O 962.874 -0.504488 3.52609 0
M  V30 10280 O 961.733 -1.02196 5.3686 0
M  V30 10281 H 958.827 -0.18943 0.805013 0
M  V30 10282 H 961.373 0.375123 1.65502 0
M  V30 10283 H 960.145 0.537862 3.87586 0
M  V30 10284 H 959.768 -1.1754 3.79829 0
M  V30 10285 N 960.765 -1.57509 0.0534917 0
M  V30 10286 C 962.011 -1.93068 -0.62069 0
M  V30 10287 C 962.344 -0.932313 -1.70357 0
M  V30 10288 O 961.619 0.0413393 -1.94456 0
M  V30 10289 C 961.902 -3.38997 -1.21463 0
M  V30 10290 C 961.755 -4.49583 -0.13965 0
M  V30 10291 C 963.074 -3.85366 -2.12558 0
M  V30 10292 H 960.193 -0.702083 -0.224163 0
M  V30 10293 H 962.835 -1.89647 0.115729 0
M  V30 10294 H 960.985 -3.42043 -1.84226 0
M  V30 10295 H 962.657 -4.58664 0.492411 0
M  V30 10296 H 960.9 -4.30525 0.532006 0
M  V30 10297 H 961.571 -5.48781 -0.595287 0
M  V30 10298 H 964.047 -3.8421 -1.59755 0
M  V30 10299 H 962.923 -4.8812 -2.51058 0
M  V30 10300 H 963.184 -3.22256 -3.02661 0
M  V30 10301 N 962.243 0.219913 -1.56058 0
M  V30 10302 C 963.206 1.25606 -1.91718 0
M  V30 10303 C 964.206 1.39721 -0.795912 0
M  V30 10304 O 965.396 1.37958 -1.06364 0
M  V30 10305 C 962.528 2.62961 -2.16943 0
M  V30 10306 H 963.721 0.951909 -2.84392 0
M  V30 10307 H 961.274 0.460398 -1.49365 0
M  V30 10308 H 962.009 2.98472 -1.26826 0
M  V30 10309 H 961.794 2.54093 -2.98629 0
M  V30 10310 H 963.284 3.37727 -2.45622 0
M  V30 10311 N 963.721 1.49897 0.486681 0
M  V30 10312 C 965.132 1.53142 1.06792 0
M  V30 10313 C 965.483 0.325856 1.93475 0
M  V30 10314 O 964.608 -0.562893 2.08951 0
M  V30 10315 C 965.203 2.77514 1.94348 0
M  V30 10316 C 963.762 2.83491 2.47609 0
M  V30 10317 C 962.909 2.47239 1.2557 0
M  V30 10318 H 965.86 1.56387 0.269962 0
M  V30 10319 H 965.881 2.58487 2.79221 0
M  V30 10320 H 965.393 3.65239 1.31232 0
M  V30 10321 H 963.494 2.0008 3.14323 0
M  V30 10322 H 963.607 3.86011 2.83782 0
M  V30 10323 H 961.971 1.99332 1.58552 0
M  V30 10324 H 962.754 3.37255 0.641404 0
M  V30 10325 N 965.199 -0.738761 1.39212 0
M  V30 10326 C 966.147 -1.8741 1.3777 0
M  V30 10327 C 967.141 -1.67371 0.261375 0
M  V30 10328 O 968.347 -1.74759 0.431209 0
M  V30 10329 H 964.722 -0.616843 0.430126 0
M  V30 10330 H 966.693 -1.85742 2.33543 0
M  V30 10331 C 965.442 -3.25053 1.23433 0
M  V30 10332 H 964.765 -3.41066 2.086 0
M  V30 10333 H 966.205 -4.04696 1.2648 0
M  V30 10334 C 964.664 -3.36851 -0.0575624 0
M  V30 10335 O 965.194 -3.88293 -1.02915 0
M  V30 10336 N 963.4 -2.90355 -0.119364 0
M  V30 10337 H 962.947 -2.48681 0.671976 0
M  V30 10338 H 962.905 -2.98628 -0.983286 0
M  V30 10339 N 966.677 -1.24326 -0.968545 0
M  V30 10340 C 967.902 -1.1104 -1.75171 0
M  V30 10341 C 968.327 0.333109 -1.85127 0
M  V30 10342 O 967.685 1.24115 -1.32156 0
M  V30 10343 C 967.733 -1.75397 -3.15068 0
M  V30 10344 O 966.837 -1.02417 -3.9948 0
M  V30 10345 H 966.178 -0.388488 -0.538491 0
M  V30 10346 H 968.708 -1.64617 -1.215 0
M  V30 10347 H 968.718 -1.8112 -3.65595 0
M  V30 10348 H 967.393 -2.80427 -3.07138 0
M  V30 10349 H 965.97 -1.04475 -3.57966 0
M  V30 10350 N 968.156 1.1691 -1.05688 0
M  V30 10351 C 969.066 2.24735 -0.67315 0
M  V30 10352 C 970.082 1.71252 0.308043 0
M  V30 10353 O 971.258 2.00772 0.158889 0
M  V30 10354 C 968.323 3.4665 -0.059026 0
M  V30 10355 C 967.384 4.15198 -1.0913 0
M  V30 10356 C 966.617 5.31292 -0.50639 0
M  V30 10357 O 966.84 5.663 0.682692 0
M  V30 10358 O 965.774 5.88923 -1.2431 0
M  V30 10359 H 969.6 2.59855 -1.57191 0
M  V30 10360 H 967.185 1.24306 -0.828751 0
M  V30 10361 H 969.067 4.20455 0.282018 0
M  V30 10362 H 967.742 3.13316 0.813304 0
M  V30 10363 H 966.649 3.43389 -1.48442 0
M  V30 10364 H 967.982 4.52571 -1.93495 0
M  V30 10365 N 969.634 0.838594 1.33437 0
M  V30 10366 C 970.597 0.276843 2.27522 0
M  V30 10367 C 971.597 -0.554275 1.50945 0
M  V30 10368 O 972.787 -0.368107 1.70266 0
M  V30 10369 C 969.919 -0.610036 3.35397 0
M  V30 10370 H 971.112 1.10705 2.78719 0
M  V30 10371 H 968.665 0.611657 1.43835 0
M  V30 10372 H 969.4 -1.46269 2.89441 0
M  V30 10373 H 969.185 -0.0153615 3.92097 0
M  V30 10374 H 970.675 -0.996368 4.05539 0
M  V30 10375 N 971.112 -1.45937 0.595003 0
M  V30 10376 C 972.523 -1.85908 0.171779 0
M  V30 10377 C 972.874 -1.497 -1.26824 0
M  V30 10378 O 971.999 -0.917688 -1.95978 0
M  V30 10379 C 972.594 -3.37425 0.304976 0
M  V30 10380 C 971.153 -3.76346 -0.0634635 0
M  V30 10381 C 970.3 -2.69926 0.635255 0
M  V30 10382 H 973.251 -1.36916 0.802471 0
M  V30 10383 H 973.272 -3.77632 -0.466313 0
M  V30 10384 H 972.784 -3.63747 1.35314 0
M  V30 10385 H 970.885 -3.55642 -1.11129 0
M  V30 10386 H 970.998 -4.78021 0.321419 0
M  V30 10387 H 969.362 -2.54592 0.0742054 0
M  V30 10388 H 970.145 -2.99086 1.68531 0
M  V30 10389 N 972.59 -0.333456 -1.54032 0
M  V30 10390 C 973.52 0.52051 -2.27625 0
M  V30 10391 C 974.501 1.1111 -1.28797 0
M  V30 10392 O 975.686 1.13438 -1.57625 0
M  V30 10393 C 972.816 1.67663 -3.04149 0
M  V30 10394 C 971.77 1.21487 -4.10396 0
M  V30 10395 C 971.096 2.45872 -4.74817 0
M  V30 10396 C 972.396 0.322603 -5.21303 0
M  V30 10397 H 974.09 -0.0933823 -2.99254 0
M  V30 10398 H 971.636 -0.0463526 -1.43925 0
M  V30 10399 H 973.589 2.28041 -3.54366 0
M  V30 10400 H 972.313 2.31727 -2.30153 0
M  V30 10401 H 970.972 0.633966 -3.61077 0
M  V30 10402 H 970.62 3.0832 -3.97426 0
M  V30 10403 H 970.32 2.15662 -5.46593 0
M  V30 10404 H 971.844 3.06994 -5.27814 0
M  V30 10405 H 973.258 0.832942 -5.67217 0
M  V30 10406 H 971.655 0.112843 -5.99994 0
M  V30 10407 H 972.725 -0.643954 -4.80605 0
M  V30 10408 N 974.068 1.57479 -0.061844 0
M  V30 10409 C 975 2.09116 0.938245 0
M  V30 10410 C 976.013 1.0212 1.26788 0
M  V30 10411 O 977.202 1.2966 1.22681 0
M  V30 10412 C 974.302 2.52822 2.25686 0
M  V30 10413 C 973.475 3.83277 2.10755 0
M  V30 10414 C 972.534 4.13182 3.25833 0
M  V30 10415 O 971.56 4.82937 3.01265 0
M  V30 10416 N 972.762 3.65938 4.50633 0
M  V30 10417 H 975.527 2.95543 0.497433 0
M  V30 10418 H 973.088 1.61423 0.124134 0
M  V30 10419 H 975.08 2.69896 3.01559 0
M  V30 10420 H 973.65 1.71586 2.61299 0
M  V30 10421 H 972.87 3.7568 1.19409 0
M  V30 10422 H 974.158 4.68686 1.98018 0
M  V30 10423 H 973.556 3.09566 4.73482 0
M  V30 10424 H 972.113 3.8823 5.23565 0
M  V30 10425 N 975.546 -0.211634 1.56173 0
M  V30 10426 C 976.795 -0.932647 1.78842 0
M  V30 10427 C 977.108 -1.85103 0.63217 0
M  V30 10428 O 978.314 -2.61143 0.742746 0
M  V30 10429 C 976.77 -1.70866 3.16753 0
M  V30 10430 C 976.378 -0.835934 4.40132 0
M  V30 10431 C 978.122 -2.4203 3.48743 0
M  V30 10432 C 976.029 -1.60987 5.69067 0
M  V30 10433 H 974.959 -0.351983 0.666801 0
M  V30 10434 H 977.61 -0.186284 1.82552 0
M  V30 10435 H 975.992 -2.4983 3.07247 0
M  V30 10436 H 977.166 -0.0861298 4.60719 0
M  V30 10437 H 975.481 -0.235941 4.15731 0
M  V30 10438 H 978.078 -3.00453 4.42303 0
M  V30 10439 H 978.421 -3.15406 2.71707 0
M  V30 10440 H 978.954 -1.70048 3.59623 0
M  V30 10441 H 975.693 -0.9192 6.49023 0
M  V30 10442 H 975.213 -2.33403 5.52524 0
M  V30 10443 H 976.892 -2.16798 6.09596 0
M  V30 10444 N 977.024 -1.50153 -0.478725 0
M  V30 10445 C 978.252 -1.64505 -1.25482 0
M  V30 10446 C 978.667 -0.325295 -1.85977 0
M  V30 10447 O 978.024 0.691885 -1.68876 0
M  V30 10448 C 978.075 -2.73052 -2.36906 0
M  V30 10449 O 977.796 -3.99911 -1.78894 0
M  V30 10450 C 979.297 -2.98309 -3.27912 0
M  V30 10451 H 976.517 -0.55318 -0.379781 0
M  V30 10452 H 979.061 -1.96329 -0.57229 0
M  V30 10453 H 977.216 -2.43944 -3.00949 0
M  V30 10454 H 977.63 -4.5988 -2.52211 0
M  V30 10455 H 979.104 -3.77942 -4.02323 0
M  V30 10456 H 979.581 -2.09082 -3.8624 0
M  V30 10457 H 980.187 -3.2892 -2.69614 0
M  V30 10458 N 978.502 0.731368 -1.39602 0
M  V30 10459 C 979.432 1.85855 -1.41351 0
M  V30 10460 C 980.413 1.67839 -0.2764 0
M  V30 10461 O 981.598 1.88104 -0.482747 0
M  V30 10462 C 978.728 3.23644 -1.25983 0
M  V30 10463 C 977.682 3.56304 -2.37132 0
M  V30 10464 C 977.008 4.93069 -2.0685 0
M  V30 10465 C 978.308 3.58906 -3.79452 0
M  V30 10466 H 980.002 1.84648 -2.3568 0
M  V30 10467 H 977.548 0.886955 -1.13442 0
M  V30 10468 H 979.501 4.02176 -1.25826 0
M  V30 10469 H 978.225 3.25387 -0.281234 0
M  V30 10470 H 976.884 2.80104 -2.36511 0
M  V30 10471 H 976.532 4.91396 -1.0742 0
M  V30 10472 H 976.232 5.15888 -2.81306 0
M  V30 10473 H 977.756 5.73953 -2.0835 0
M  V30 10474 H 979.17 4.27508 -3.81982 0
M  V30 10475 H 977.567 3.93246 -4.53297 0
M  V30 10476 H 978.637 2.58631 -4.10168 0
M  V30 10477 N 979.98 1.24838 0.961938 0
M  V30 10478 C 981.391 1.08369 1.5203 0
M  V30 10479 C 981.742 -0.343005 1.93178 0
M  V30 10480 O 980.867 -1.2321 1.779 0
M  V30 10481 C 981.462 1.96102 2.76278 0
M  V30 10482 C 980.021 1.8384 3.28451 0
M  V30 10483 C 979.168 1.9069 2.01327 0
M  V30 10484 H 982.119 1.38231 0.779613 0
M  V30 10485 H 982.14 1.4967 3.49827 0
M  V30 10486 H 981.652 2.99931 2.46298 0
M  V30 10487 H 979.753 0.828653 3.63269 0
M  V30 10488 H 979.866 2.68251 3.96961 0
M  V30 10489 H 978.23 1.34488 2.16299 0
M  V30 10490 H 979.013 2.96111 1.73705 0
M  V30 10491 N 981.458 -1.16348 1.06306 0
M  V30 10492 C 982.39 -2.20316 0.631929 0
M  V30 10493 C 983.403 -1.59819 -0.310133 0
M  V30 10494 O 984.592 -1.78213 -0.101103 0
M  V30 10495 C 981.692 -3.3877 -0.0937645 0
M  V30 10496 C 980.865 -4.28826 0.861816 0
M  V30 10497 C 979.924 -5.25908 0.175346 0
M  V30 10498 O 978.95 -5.63363 0.813039 0
M  V30 10499 N 980.152 -5.70307 -1.08305 0
M  V30 10500 H 982.917 -2.57925 1.52626 0
M  V30 10501 H 980.478 -1.31358 0.946392 0
M  V30 10502 H 982.47 -4.00759 -0.563412 0
M  V30 10503 H 981.04 -2.99666 -0.889904 0
M  V30 10504 H 980.26 -3.64098 1.51083 0
M  V30 10505 H 981.548 -4.85875 1.51007 0
M  V30 10506 H 980.946 -5.4197 -1.62127 0
M  V30 10507 H 979.503 -6.34387 -1.49656 0
M  V30 10508 N 982.937 -0.845659 -1.3299 0
M  V30 10509 C 983.867 -0.298957 -2.31578 0
M  V30 10510 C 984.848 0.597012 -1.59279 0
M  V30 10511 O 986.033 0.519142 -1.87132 0
M  V30 10512 C 983.163 0.521109 -3.43368 0
M  V30 10513 C 982.117 -0.279651 -4.27085 0
M  V30 10514 C 981.443 0.664591 -5.30554 0
M  V30 10515 C 982.743 -1.50046 -5.00283 0
M  V30 10516 H 984.437 -1.12272 -2.77552 0
M  V30 10517 H 981.983 -0.54132 -1.33438 0
M  V30 10518 H 983.936 0.913921 -4.1137 0
M  V30 10519 H 982.66 1.37815 -2.96099 0
M  V30 10520 H 981.319 -0.654106 -3.60717 0
M  V30 10521 H 980.967 1.51822 -4.79541 0
M  V30 10522 H 980.667 0.132871 -5.8745 0
M  V30 10523 H 982.191 1.05477 -6.01421 0
M  V30 10524 H 983.605 -1.18044 -5.61016 0
M  V30 10525 H 982.002 -1.96946 -5.66862 0
M  V30 10526 H 983.072 -2.26659 -4.28665 0
M  V30 10527 N 984.415 1.45619 -0.602734 0
M  V30 10528 C 985.692 1.9558 -0.0282472 0
M  V30 10529 C 986.072 1.54523 1.43826 0
M  V30 10530 O 985.42 0.805456 2.13833 0
M  V30 10531 C 985.63 3.48298 -0.221263 0
M  V30 10532 C 986.978 4.24483 -0.0995249 0
M  V30 10533 O 988.002 3.55879 -0.151132 0
M  V30 10534 O 986.861 5.46497 0.0194454 0
M  V30 10535 H 983.955 0.826104 0.0384897 0
M  V30 10536 H 986.501 1.55808 -0.672456 0
M  V30 10537 H 985.273 3.71134 -1.23997 0
M  V30 10538 H 984.896 3.94948 0.458437 0
M  V30 10539 N 985.893 0.34162 1.53853 0
M  V30 10540 C 986.856 -0.503541 2.236 0
M  V30 10541 C 987.856 -1.02912 1.23554 0
M  V30 10542 O 989.046 -0.918678 1.48007 0
M  V30 10543 C 986.178 -1.70126 2.95415 0
M  V30 10544 H 987.371 0.106437 2.99711 0
M  V30 10545 H 984.924 0.0929408 1.56023 0
M  V30 10546 H 985.659 -2.34999 2.23486 0
M  V30 10547 H 985.444 -1.33161 3.68796 0
M  V30 10548 H 986.934 -2.30077 3.48503 0
M  V30 10549 N 987.371 -1.57444 0.0701946 0
M  V30 10550 C 988.787 -1.57009 -0.286431 0
M  V30 10551 C 988.987 -1.07946 -1.70147 0
M  V30 10552 O 988.043 -0.744622 -2.41271 0
M  V30 10553 C 989.356 -3.00542 -0.0975466 0
M  V30 10554 C 990.904 -3.12553 -0.167205 0
M  V30 10555 C 991.379 -4.58 -0.00662047 0
M  V30 10556 N 992.87 -4.63158 -0.0622778 0
M  V30 10557 C 993.605 -5.73388 0.0375831 0
M  V30 10558 N 993.101 -6.92537 0.190873 0
M  V30 10559 N 994.894 -5.62097 -0.0193672 0
M  V30 10560 H 987.045 -1.87651 0.995023 0
M  V30 10561 H 989.308 -0.865006 0.387902 0
M  V30 10562 H 989.014 -3.40543 0.878822 0
M  V30 10563 H 988.888 -3.67485 -0.850547 0
M  V30 10564 H 991.275 -2.72439 -1.13406 0
M  V30 10565 H 991.356 -2.48251 0.616871 0
M  V30 10566 H 991 -4.98803 0.956992 0
M  V30 10567 H 990.93 -5.20332 -0.810081 0
M  V30 10568 H 993.421 -3.77475 -0.179229 0
M  V30 10569 H 993.734 -7.72365 0.25926 0
M  V30 10570 H 992.079 -6.94632 0.226214 0
M  V30 10571 H 995.27 -4.67897 -0.137815 0
M  V30 10572 H 995.443 -6.4797 0.0619121 0
M  V30 10573 N 988.849 0.203349 -1.56283 0
M  V30 10574 C 989.759 1.27266 -1.9708 0
M  V30 10575 C 990.775 1.50268 -0.877236 0
M  V30 10576 O 991.951 1.63044 -1.18231 0
M  V30 10577 C 989.016 2.59871 -2.29495 0
M  V30 10578 C 988.077 2.45012 -3.52516 0
M  V30 10579 C 987.31 3.71293 -3.83376 0
M  V30 10580 O 987.533 4.75106 -3.15643 0
M  V30 10581 O 986.467 3.67316 -4.76826 0
M  V30 10582 H 990.293 0.956461 -2.88246 0
M  V30 10583 H 987.878 0.407688 -1.4373 0
M  V30 10584 H 989.76 3.38152 -2.51458 0
M  V30 10585 H 988.435 2.91135 -1.415 0
M  V30 10586 H 987.342 1.6487 -3.35811 0
M  V30 10587 H 988.675 2.18683 -4.40952 0
M  V30 10588 N 990.327 1.50405 0.470755 0
M  V30 10589 C 991.29 1.68741 1.5511 0
M  V30 10590 C 992.29 0.558116 1.50804 0
M  V30 10591 O 993.48 0.825149 1.53418 0
M  V30 10592 C 990.612 1.71295 2.94739 0
M  V30 10593 H 991.805 2.65127 1.40169 0
M  V30 10594 H 989.358 1.39891 0.697156 0
M  V30 10595 H 990.093 0.766029 3.15123 0
M  V30 10596 H 989.878 2.53336 2.99271 0
M  V30 10597 H 991.368 1.87434 3.73173 0
M  V30 10598 N 991.805 -0.723954 1.39988 0
M  V30 10599 C 993.052 -1.48371 1.37812 0
M  V30 10600 C 993.38 -1.94487 -0.0223285 0
M  V30 10601 O 992.635 -1.67906 -1.00529 0
M  V30 10602 C 992.934 -2.73004 2.30659 0
M  V30 10603 C 992.6 -2.45698 3.78078 0
M  V30 10604 C 991.262 -2.37961 4.18244 0
M  V30 10605 C 993.614 -2.22601 4.71273 0
M  V30 10606 C 990.942 -2.05183 5.49652 0
M  V30 10607 C 993.294 -1.91339 6.0297 0
M  V30 10608 C 991.958 -1.82078 6.42187 0
M  V30 10609 H 991.228 -0.542929 0.504291 0
M  V30 10610 H 993.875 -0.829986 1.72579 0
M  V30 10611 H 992.18 -3.43174 1.89048 0
M  V30 10612 H 993.877 -3.31068 2.26263 0
M  V30 10613 H 990.467 -2.52603 3.46251 0
M  V30 10614 H 994.651 -2.2754 4.41066 0
M  V30 10615 H 989.907 -1.96544 5.78948 0
M  V30 10616 H 994.081 -1.72479 6.74703 0
M  V30 10617 H 991.708 -1.56446 7.43928 0
M  V30 10618 N 993.283 -1.25346 -0.955304 0
M  V30 10619 C 994.213 -1.08152 -2.06943 0
M  V30 10620 C 995.194 0.00922598 -1.70097 0
M  V30 10621 O 996.379 -0.160181 -1.93538 0
M  V30 10622 C 993.509 -0.698745 -3.40198 0
M  V30 10623 C 992.463 -1.73965 -3.9105 0
M  V30 10624 C 991.789 -1.21158 -5.20792 0
M  V30 10625 C 993.089 -3.13829 -4.17503 0
M  V30 10626 H 994.783 -2.01345 -2.21586 0
M  V30 10627 H 992.329 -0.969459 -1.06478 0
M  V30 10628 H 994.282 -0.565394 -4.1759 0
M  V30 10629 H 993.006 0.268892 -3.25491 0
M  V30 10630 H 991.665 -1.86143 -3.15827 0
M  V30 10631 H 991.313 -0.234193 -5.02455 0
M  V30 10632 H 991.013 -1.90728 -5.55785 0
M  V30 10633 H 992.537 -1.09061 -6.00781 0
M  V30 10634 H 993.951 -3.04809 -4.85556 0
M  V30 10635 H 992.348 -3.80863 -4.63749 0
M  V30 10636 H 993.418 -3.6094 -3.23806 0
M  V30 10637 N 994.761 1.15782 -1.06922 0
M  V30 10638 C 995.709 2.22441 -0.679893 0
M  V30 10639 C 996.703 1.66591 0.307221 0
M  V30 10640 O 997.909 1.79182 0.171402 0
M  V30 10641 H 994.284 0.724427 -0.201765 0
M  V30 10642 H 996.255 2.52562 -1.58918 0
M  V30 10643 C 995.004 3.47586 -0.0891142 0
M  V30 10644 H 994.327 3.9088 -0.839805 0
M  V30 10645 H 995.767 4.2375 0.14569 0
M  V30 10646 C 994.226 3.15967 1.16903 0
M  V30 10647 O 994.756 3.32359 2.25611 0
M  V30 10648 N 992.962 2.70046 1.07349 0
M  V30 10649 H 992.509 2.56907 0.188825 0
M  V30 10650 H 992.467 2.49264 1.91611 0
M  V30 10651 N 996.239 0.8527 1.3254 0
M  V30 10652 C 997.488 0.45136 1.96585 0
M  V30 10653 C 997.801 -0.997773 1.68237 0
M  V30 10654 O 999.007 -1.50445 2.26006 0
M  V30 10655 C 997.463 0.75619 3.51866 0
M  V30 10656 C 997.071 2.22092 3.89075 0
M  V30 10657 C 998.815 0.422478 4.22392 0
M  V30 10658 C 996.722 2.46908 5.37392 0
M  V30 10659 H 995.652 0.165052 0.735713 0
M  V30 10660 H 998.303 1.04321 1.50962 0
M  V30 10661 H 996.685 0.0937988 3.95889 0
M  V30 10662 H 997.859 2.92494 3.56067 0
M  V30 10663 H 996.174 2.51896 3.31568 0
M  V30 10664 H 998.771 0.58533 5.31487 0
M  V30 10665 H 999.114 -0.635737 4.11417 0
M  V30 10666 H 999.647 1.04068 3.83946 0
M  V30 10667 H 996.386 3.51346 5.53386 0
M  V30 10668 H 995.906 1.81082 5.71812 0
M  V30 10669 H 997.585 2.30758 6.0445 0
M  V30 10670 N 997.718 -1.45297 0.610449 0
M  V30 10671 C 998.946 -2.0659 0.113211 0
M  V30 10672 C 999.361 -1.4546 -1.20361 0
M  V30 10673 O 998.718 -0.569823 -1.73376 0
M  V30 10674 C 998.769 -3.61488 -0.0298411 0
M  V30 10675 O 998.49 -4.20336 1.23488 0
M  V30 10676 C 999.991 -4.39772 -0.558202 0
M  V30 10677 H 997.211 -0.667322 0.0701555 0
M  V30 10678 H 999.755 -1.86497 0.838993 0
M  V30 10679 H 997.91 -3.80913 -0.705963 0
M  V30 10680 H 998.324 -5.13545 1.0664 0
M  V30 10681 H 999.798 -5.48648 -0.607375 0
M  V30 10682 H 1000.27 -4.09755 -1.58107 0
M  V30 10683 H 1000.88 -4.25217 0.0839704 0
M  V30 10684 N 999.196 -0.349774 -1.5367 0
M  V30 10685 C 1000.44 0.245189 -2.01312 0
M  V30 10686 C 1000.77 1.49702 -1.23705 0
M  V30 10687 O 1000.05 1.91742 -0.326371 0
M  V30 10688 C 1000.33 0.553071 -3.55827 0
M  V30 10689 C 1000.19 -0.71129 -4.4414 0
M  V30 10690 C 1001.5 1.36015 -4.18555 0
M  V30 10691 H 998.624 0.0876415 -0.73177 0
M  V30 10692 H 1001.27 -0.471543 -1.84056 0
M  V30 10693 H 999.416 1.16367 -3.70663 0
M  V30 10694 H 1001.09 -1.34913 -4.41131 0
M  V30 10695 H 999.331 -1.33491 -4.1275 0
M  V30 10696 H 1000 -0.45104 -5.50154 0
M  V30 10697 H 1002.48 0.843778 -4.07455 0
M  V30 10698 H 1001.35 1.54432 -5.26728 0
M  V30 10699 H 1001.61 2.36408 -3.73582 0
M  V30 10700 N 1000.67 1.57404 -0.0785433 0
M  V30 10701 C 1001.9 1.98074 0.597862 0
M  V30 10702 C 1002.32 0.95714 1.6274 0
M  V30 10703 O 1001.67 -0.0553728 1.82416 0
M  V30 10704 C 1001.72 3.38815 1.26041 0
M  V30 10705 O 1001.45 4.37254 0.27207 0
M  V30 10706 C 1002.95 3.94397 2.024 0
M  V30 10707 H 1000.17 0.651263 0.161546 0
M  V30 10708 H 1002.71 2.03927 -0.152941 0
M  V30 10709 H 1000.87 3.34028 1.96225 0
M  V30 10710 H 1001.28 5.19136 0.74822 0
M  V30 10711 H 1002.75 4.95075 2.4414 0
M  V30 10712 H 1003.23 3.31308 2.88326 0
M  V30 10713 H 1003.84 4.02607 1.37068 0
M  V30 10714 N 1002.15 -0.195058 1.56388 0
M  V30 10715 C 1003.1 -1.24175 1.94549 0
M  V30 10716 C 1004.07 -1.45229 0.806089 0
M  V30 10717 O 1005.25 -1.58362 1.06425 0
M  V30 10718 C 1002.39 -2.58145 2.29031 0
M  V30 10719 C 1001.51 -2.44669 3.56035 0
M  V30 10720 C 1000.64 -3.71342 3.7984 0
M  V30 10721 C 999.681 -3.52699 5.0027 0
M  V30 10722 N 998.818 -4.71385 5.20328 0
M  V30 10723 H 1003.66 -0.909319 2.83788 0
M  V30 10724 H 1001.19 -0.437641 1.40439 0
M  V30 10725 H 1003.15 -3.36195 2.4704 0
M  V30 10726 H 1001.78 -2.8943 1.42933 0
M  V30 10727 H 1000.83 -1.57916 3.46073 0
M  V30 10728 H 1002.15 -2.26827 4.44242 0
M  V30 10729 H 1001.3 -4.57832 3.98088 0
M  V30 10730 H 1000.04 -3.92138 2.89964 0
M  V30 10731 H 999.045 -2.64594 4.81944 0
M  V30 10732 H 1000.27 -3.33349 5.91655 0
M  V30 10733 H 998.216 -4.92444 4.33399 0
M  V30 10734 H 998.133 -4.56368 6.02714 0
M  V30 10735 H 999.401 -5.59226 5.43035 0
M  V30 10736 N 1003.63 -1.50653 -0.462772 0
M  V30 10737 C 1004.91 -1.5258 -1.22387 0
M  V30 10738 C 1005.29 -0.275263 -2.09298 0
M  V30 10739 O 1004.63 0.740943 -2.16153 0
M  V30 10740 C 1004.84 -2.82611 -2.04773 0
M  V30 10741 C 1006.19 -3.33592 -2.62681 0
M  V30 10742 O 1007.22 -2.83989 -2.15008 0
M  V30 10743 O 1006.08 -4.20081 -3.49563 0
M  V30 10744 H 1003.17 -0.612367 -0.55582 0
M  V30 10745 H 1005.72 -1.62948 -0.473914 0
M  V30 10746 H 1004.49 -3.65098 -1.40781 0
M  V30 10747 H 1004.11 -2.75286 -2.86886 0
M  V30 10748 N 1005.11 0.71652 -1.4037 0
M  V30 10749 C 1006.33 1.51069 -1.42102 0
M  V30 10750 C 1006.76 1.88087 -0.0222387 0
M  V30 10751 O 1006.12 1.53204 0.969448 0
M  V30 10752 C 1006.16 2.76307 -2.31704 0
M  V30 10753 O 1005.27 3.72975 -1.75964 0
M  V30 10754 H 1004.61 0.455502 -0.483129 0
M  V30 10755 H 1007.14 0.882514 -1.84588 0
M  V30 10756 H 1007.15 3.24846 -2.46859 0
M  V30 10757 H 1005.82 2.48698 -3.3335 0
M  V30 10758 H 1004.4 3.31818 -1.70151 0
M  V30 10759 N 1006.59 1.25851 0.948643 0
M  V30 10760 C 1008 1.02802 1.22081 0
M  V30 10761 C 1008.2 -0.251461 1.99925 0
M  V30 10762 O 1007.26 -0.962592 2.33432 0
M  V30 10763 C 1008.57 2.25489 1.98936 0
M  V30 10764 C 1010.12 2.30312 2.11956 0
M  V30 10765 C 1010.59 3.52671 2.92211 0
M  V30 10766 N 1012.09 3.53103 2.99787 0
M  V30 10767 C 1012.82 4.44445 3.62294 0
M  V30 10768 N 1012.32 5.46065 4.26362 0
M  V30 10769 N 1014.11 4.32113 3.59493 0
M  V30 10770 H 1006.26 2.08042 0.428044 0
M  V30 10771 H 1008.52 0.913928 0.251872 0
M  V30 10772 H 1008.23 3.18513 1.4914 0
M  V30 10773 H 1008.1 2.2914 2.99624 0
M  V30 10774 H 1010.49 1.37808 2.60946 0
M  V30 10775 H 1010.57 2.30676 1.10554 0
M  V30 10776 H 1010.22 4.45501 2.43909 0
M  V30 10777 H 1010.15 3.49554 3.93853 0
M  V30 10778 H 1012.64 2.79597 2.54232 0
M  V30 10779 H 1012.95 6.11964 4.71932 0
M  V30 10780 H 1011.29 5.49931 4.24972 0
M  V30 10781 H 1014.49 3.51946 3.08629 0
M  V30 10782 H 1014.66 5.03493 4.0792 0
M  V30 10783 N 1008.06 -1.15214 1.07534 0
M  V30 10784 C 1009.29 -1.89922 0.820804 0
M  V30 10785 C 1009.71 -1.78114 -0.626177 0
M  V30 10786 O 1009.06 -1.13435 -1.42964 0
M  V30 10787 C 1009.12 -3.40207 1.22236 0
M  V30 10788 O 1008.84 -3.51676 2.61257 0
M  V30 10789 C 1010.34 -4.31934 0.997393 0
M  V30 10790 H 1007.56 -0.601865 0.296647 0
M  V30 10791 H 1010.1 -1.45965 1.43229 0
M  V30 10792 H 1008.26 -3.8182 0.655167 0
M  V30 10793 H 1008.67 -4.44959 2.77689 0
M  V30 10794 H 1010.14 -5.35791 1.32785 0
M  V30 10795 H 1010.62 -4.3915 -0.0661599 0
M  V30 10796 H 1011.23 -3.96066 1.54958 0
M  V30 10797 N 1009.54 -0.859717 -1.32086 0
M  V30 10798 C 1010.96 -0.55025 -1.49815 0
M  V30 10799 C 1011.16 0.917966 -1.79376 0
M  V30 10800 O 1010.21 1.70073 -1.86632 0
M  V30 10801 C 1011.53 -1.44161 -2.6389 0
M  V30 10802 C 1013.08 -1.44257 -2.77775 0
M  V30 10803 C 1013.55 -2.31926 -3.94936 0
M  V30 10804 N 1015.04 -2.2975 -4.02206 0
M  V30 10805 C 1015.78 -2.9431 -4.92107 0
M  V30 10806 N 1015.27 -3.68001 -5.86981 0
M  V30 10807 N 1017.07 -2.83671 -4.8527 0
M  V30 10808 H 1009.22 -1.80987 -1.11164 0
M  V30 10809 H 1011.48 -0.773313 -0.548353 0
M  V30 10810 H 1011.19 -2.48588 -2.4879 0
M  V30 10811 H 1011.06 -1.13268 -3.59792 0
M  V30 10812 H 1013.45 -0.405923 -2.92295 0
M  V30 10813 H 1013.53 -1.79169 -1.82571 0
M  V30 10814 H 1013.17 -3.35661 -3.81174 0
M  V30 10815 H 1013.1 -1.94344 -4.89426 0
M  V30 10816 H 1015.59 -1.76177 -3.3432 0
M  V30 10817 H 1015.91 -4.14417 -6.52287 0
M  V30 10818 H 1014.25 -3.72109 -5.86992 0
M  V30 10819 H 1017.44 -2.25647 -4.10123 0
M  V30 10820 H 1017.61 -3.34267 -5.5513 0
M  V30 10821 N 1011.02 1.44971 -0.618145 0
M  V30 10822 C 1012.25 2.06228 -0.123985 0
M  V30 10823 C 1012.66 1.46166 1.20134 0
M  V30 10824 O 1012 0.574099 1.74499 0
M  V30 10825 C 1012.06 3.59413 0.0789098 0
M  V30 10826 C 1011.73 4.41869 -1.16624 0
M  V30 10827 C 1012.72 4.76177 -2.0869 0
M  V30 10828 C 1010.41 4.82453 -1.39802 0
M  V30 10829 C 1012.4 5.49938 -3.22254 0
M  V30 10830 C 1010.09 5.55965 -2.53665 0
M  V30 10831 C 1011.09 5.89626 -3.44718 0
M  V30 10832 O 1010.78 6.61644 -4.56598 0
M  V30 10833 H 1010.51 0.672274 -0.0708822 0
M  V30 10834 H 1013.06 1.87038 -0.848868 0
M  V30 10835 H 1011.29 3.77043 0.8588 0
M  V30 10836 H 1012.98 4.02478 0.52599 0
M  V30 10837 H 1013.75 4.45372 -1.92012 0
M  V30 10838 H 1009.63 4.55681 -0.698245 0
M  V30 10839 H 1013.17 5.76129 -3.93347 0
M  V30 10840 H 1009.07 5.86185 -2.70291 0
M  V30 10841 H 1009.84 6.80103 -4.55414 0
M  V30 10842 N 1012.5 0.357919 1.53482 0
M  V30 10843 C 1013.72 -0.237769 2.06033 0
M  V30 10844 C 1014.15 -1.42292 1.23023 0
M  V30 10845 O 1013.51 -1.79604 0.247427 0
M  V30 10846 C 1013.55 -0.616806 3.55286 0
M  V30 10847 O 1012.66 -1.71503 3.75047 0
M  V30 10848 H 1012 -0.0364322 0.663 0
M  V30 10849 H 1014.53 0.516301 1.97979 0
M  V30 10850 H 1014.54 -0.88996 3.98175 0
M  V30 10851 H 1013.21 0.249825 4.15149 0
M  V30 10852 H 1011.79 -1.43803 3.44057 0
M  V30 10853 N 1013.98 -1.5736 0.0868897 0
M  V30 10854 C 1014.89 -2.17087 -0.889402 0
M  V30 10855 C 1015.9 -1.13809 -1.31619 0
M  V30 10856 O 1017.08 -1.46143 -1.38579 0
M  V30 10857 C 1014.14 -2.73286 -2.13344 0
M  V30 10858 C 1013.2 -3.91491 -1.76164 0
M  V30 10859 C 1012.44 -4.45 -2.94637 0
M  V30 10860 O 1012.66 -3.97467 -4.09116 0
M  V30 10861 O 1011.59 -5.36133 -2.73579 0
M  V30 10862 H 1015.42 -3.00902 -0.411275 0
M  V30 10863 H 1013.01 -1.4877 -0.137015 0
M  V30 10864 H 1014.89 -3.0924 -2.86266 0
M  V30 10865 H 1013.56 -1.92521 -2.60225 0
M  V30 10866 H 1012.47 -3.60363 -1.00447 0
M  V30 10867 H 1013.8 -4.73593 -1.34053 0
M  V30 10868 N 1015.45 0.186762 -1.56489 0
M  V30 10869 C 1016.42 1.21511 -1.94339 0
M  V30 10870 C 1017.42 1.38001 -0.82537 0
M  V30 10871 O 1018.61 1.3567 -1.09266 0
M  V30 10872 C 1015.74 2.583 -2.22472 0
M  V30 10873 H 1016.93 0.891371 -2.86347 0
M  V30 10874 H 1014.49 0.428612 -1.50308 0
M  V30 10875 H 1015.22 2.95715 -1.33129 0
M  V30 10876 H 1015.01 2.47701 -3.03951 0
M  V30 10877 H 1016.5 3.32441 -2.5273 0
M  V30 10878 N 1016.93 1.50896 0.454776 0
M  V30 10879 C 1018.18 1.62378 1.20324 0
M  V30 10880 C 1018.5 0.333883 1.9212 0
M  V30 10881 O 1017.77 -0.649477 1.8482 0
M  V30 10882 H 1016.35 0.598395 0.447139 0
M  V30 10883 H 1019.01 1.87749 0.523102 0
M  V30 10884 H 1018.11 2.44296 1.94232 0
M  V30 10885 N 1018.41 -0.709066 1.40748 0
M  V30 10886 C 1019.36 -1.8149 1.38005 0
M  V30 10887 C 1020.34 -1.58842 0.256544 0
M  V30 10888 O 1021.54 -1.69904 0.496164 0
M  V30 10889 C 1018.67 -3.19678 1.25143 0
M  V30 10890 C 1017.75 -3.48067 2.42301 0
M  V30 10891 N 1018.14 -3.47234 3.6778 0
M  V30 10892 C 1016.44 -3.78555 2.35822 0
M  V30 10893 C 1017.14 -3.74149 4.45407 0
M  V30 10894 N 1016.12 -3.93224 3.75335 0
M  V30 10895 H 1019.92 -1.79188 2.32957 0
M  V30 10896 H 1017.43 -0.908477 1.34612 0
M  V30 10897 H 1019.43 -3.98875 1.2126 0
M  V30 10898 H 1018.09 -3.23201 0.311642 0
M  V30 10899 H 1019.1 -3.2793 4.00852 0
M  V30 10900 H 1015.78 -3.89529 1.50245 0
M  V30 10901 H 1017.17 -3.79755 5.54289 0
M  V30 10902 N 1019.89 -1.26353 -0.941956 0
M  V30 10903 C 1021.3 -1.10774 -1.50287 0
M  V30 10904 C 1021.65 0.312229 -1.937 0
M  V30 10905 O 1020.78 1.20364 -1.79838 0
M  V30 10906 C 1021.37 -2.00473 -2.73123 0
M  V30 10907 C 1019.93 -1.89042 -3.25485 0
M  V30 10908 C 1019.08 -1.93869 -1.98267 0
M  V30 10909 H 1022.03 -1.39454 -0.757523 0
M  V30 10910 H 1022.05 -1.55216 -3.47402 0
M  V30 10911 H 1021.56 -3.03812 -2.41495 0
M  V30 10912 H 1019.66 -0.886341 -3.61904 0
M  V30 10913 H 1019.78 -2.74533 -3.92643 0
M  V30 10914 H 1018.14 -1.37912 -2.14132 0
M  V30 10915 H 1018.92 -2.98837 -1.68972 0
M  V30 10916 N 1021.37 1.14642 -1.08144 0
M  V30 10917 C 1022.62 1.84964 -0.804437 0
M  V30 10918 C 1022.93 1.8369 0.672106 0
M  V30 10919 O 1024.14 2.49775 1.06417 0
M  V30 10920 C 1022.59 3.32015 -1.38904 0
M  V30 10921 C 1022.2 3.41713 -2.89718 0
M  V30 10922 C 1023.94 4.07467 -1.19041 0
M  V30 10923 C 1021.85 4.82958 -3.41329 0
M  V30 10924 H 1020.78 0.692932 -0.297256 0
M  V30 10925 H 1023.43 1.29255 -1.30251 0
M  V30 10926 H 1021.81 3.87445 -0.818679 0
M  V30 10927 H 1022.99 2.96347 -3.52867 0
M  V30 10928 H 1021.3 2.79713 -3.08463 0
M  V30 10929 H 1023.9 5.1172 -1.55069 0
M  V30 10930 H 1024.24 4.16097 -0.130027 0
M  V30 10931 H 1024.78 3.58329 -1.72757 0
M  V30 10932 H 1021.51 4.79515 -4.46929 0
M  V30 10933 H 1021.03 5.28873 -2.82937 0
M  V30 10934 H 1022.71 5.51841 -3.37759 0
M  V30 10935 N 1022.85 0.866709 1.31628 0
M  V30 10936 C 1023.81 0.325041 2.26883 0
M  V30 10937 C 1024.81 -0.522133 1.52087 0
M  V30 10938 O 1026 -0.331908 1.71009 0
M  V30 10939 C 1023.13 -0.538756 3.36616 0
M  V30 10940 H 1024.32 1.16592 2.76308 0
M  V30 10941 H 1021.88 0.642029 1.42505 0
M  V30 10942 H 1022.61 -1.40096 2.92478 0
M  V30 10943 H 1022.4 0.0678115 3.92041 0
M  V30 10944 H 1023.89 -0.910123 4.07562 0
M  V30 10945 N 1024.32 -1.44642 0.625825 0
M  V30 10946 C 1025.55 -2.06458 0.135116 0
M  V30 10947 C 1025.97 -1.46729 -1.18811 0
M  V30 10948 O 1025.32 -0.58818 -1.72762 0
M  V30 10949 C 1025.37 -3.61499 0.00850114 0
M  V30 10950 O 1025.1 -4.19002 1.2794 0
M  V30 10951 C 1026.6 -4.40339 -0.511527 0
M  V30 10952 H 1023.82 -0.666541 0.0772294 0
M  V30 10953 H 1026.36 -1.85597 0.858726 0
M  V30 10954 H 1024.52 -3.81641 -0.665522 0
M  V30 10955 H 1024.93 -5.12385 1.12081 0
M  V30 10956 H 1026.4 -5.49262 -0.549149 0
M  V30 10957 H 1026.88 -4.11409 -1.53752 0
M  V30 10958 H 1027.49 -4.25104 0.129066 0
M  V30 10959 N 1025.8 -0.366053 -1.5329 0
M  V30 10960 C 1027.03 0.22391 -2.05383 0
M  V30 10961 C 1027.44 1.42962 -1.23929 0
M  V30 10962 O 1026.78 1.81659 -0.273072 0
M  V30 10963 C 1026.84 0.681038 -3.5299 0
M  V30 10964 C 1026.51 -0.40805 -4.55175 0
M  V30 10965 C 1027.51 -1.25806 -5.04449 0
M  V30 10966 C 1025.19 -0.568428 -4.99073 0
M  V30 10967 C 1027.18 -2.25379 -5.96224 0
M  V30 10968 C 1024.87 -1.56752 -5.90654 0
M  V30 10969 C 1025.87 -2.40864 -6.39119 0
M  V30 10970 O 1025.56 -3.39069 -7.28895 0
M  V30 10971 H 1025.29 0.0429593 -0.674634 0
M  V30 10972 H 1027.84 -0.522897 -1.98633 0
M  V30 10973 H 1026.07 1.47945 -3.5728 0
M  V30 10974 H 1027.76 1.19406 -3.8794 0
M  V30 10975 H 1028.53 -1.14536 -4.71282 0
M  V30 10976 H 1024.41 0.0764858 -4.60937 0
M  V30 10977 H 1027.95 -2.91068 -6.33976 0
M  V30 10978 H 1023.85 -1.6807 -6.23236 0
M  V30 10979 H 1024.62 -3.34804 -7.46893 0
M  V30 10980 N 1027.28 1.57312 -0.0952337 0
M  V30 10981 C 1028.21 2.11059 0.893678 0
M  V30 10982 C 1029.22 1.04787 1.24594 0
M  V30 10983 O 1030.41 1.32233 1.19903 0
M  V30 10984 C 1027.51 2.57552 2.20272 0
M  V30 10985 C 1026.69 3.87661 2.02578 0
M  V30 10986 C 1025.75 4.2 3.16996 0
M  V30 10987 O 1024.77 4.89219 2.90953 0
M  V30 10988 N 1025.97 3.75414 4.42769 0
M  V30 10989 H 1028.74 2.96532 0.434632 0
M  V30 10990 H 1026.3 1.6165 0.0898661 0
M  V30 10991 H 1028.29 2.76232 2.95766 0
M  V30 10992 H 1026.86 1.7709 2.576 0
M  V30 10993 H 1026.08 3.78128 1.11413 0
M  V30 10994 H 1027.37 4.7278 1.88032 0
M  V30 10995 H 1026.77 3.1954 4.66809 0
M  V30 10996 H 1025.32 3.99249 5.15212 0
M  V30 10997 N 1028.76 -0.17846 1.56586 0
M  V30 10998 C 1030 -0.896235 1.81587 0
M  V30 10999 C 1030.33 -1.82553 0.671168 0
M  V30 11000 O 1029.59 -1.92688 -0.342046 0
M  V30 11001 C 1029.89 -1.73063 3.12704 0
M  V30 11002 C 1029.55 -0.950877 4.4076 0
M  V30 11003 C 1028.21 -0.735647 4.75544 0
M  V30 11004 C 1030.57 -0.403419 5.19636 0
M  V30 11005 C 1027.89 0.0382562 5.86688 0
M  V30 11006 C 1030.25 0.357359 6.3159 0
M  V30 11007 C 1028.91 0.583455 6.64945 0
M  V30 11008 H 1028.18 -0.327956 0.664474 0
M  V30 11009 H 1030.83 -0.161586 1.90817 0
M  V30 11010 H 1029.13 -2.53446 2.98785 0
M  V30 11011 H 1030.83 -2.28891 3.29257 0
M  V30 11012 H 1027.42 -1.12866 4.13472 0
M  V30 11013 H 1031.6 -0.557059 4.93164 0
M  V30 11014 H 1026.86 0.223237 6.10992 0
M  V30 11015 H 1031.03 0.788861 6.91918 0
M  V30 11016 H 1028.66 1.18502 7.50907 0
M  V30 11017 N 1030.24 -1.51135 -0.446768 0
M  V30 11018 C 1031.65 -1.55919 -1.02694 0
M  V30 11019 C 1032 -0.377038 -1.92543 0
M  V30 11020 O 1031.12 0.507295 -2.1037 0
M  V30 11021 C 1031.72 -2.8257 -1.86922 0
M  V30 11022 C 1030.28 -2.89956 -2.40005 0
M  V30 11023 C 1029.42 -2.50482 -1.18971 0
M  V30 11024 H 1032.37 -1.57048 -0.228403 0
M  V30 11025 H 1032.4 -2.65799 -2.7227 0
M  V30 11026 H 1031.91 -3.6859 -1.21502 0
M  V30 11027 H 1030.01 -2.08343 -3.08907 0
M  V30 11028 H 1030.12 -3.93399 -2.73448 0
M  V30 11029 H 1028.49 -2.03466 -1.53211 0
M  V30 11030 H 1029.27 -3.38837 -0.551762 0
M  V30 11031 N 1031.71 0.701592 -1.41122 0
M  V30 11032 C 1032.64 1.82815 -1.45262 0
M  V30 11033 C 1033.62 1.67215 -0.311939 0
M  V30 11034 O 1034.81 1.87038 -0.522538 0
M  V30 11035 C 1031.94 3.20899 -1.32819 0
M  V30 11036 C 1030.89 3.51194 -2.44636 0
M  V30 11037 C 1030.22 4.8857 -2.17263 0
M  V30 11038 C 1031.52 3.50777 -3.86979 0
M  V30 11039 H 1033.21 1.79608 -2.39544 0
M  V30 11040 H 1030.76 0.862693 -1.15298 0
M  V30 11041 H 1032.71 3.99417 -1.34329 0
M  V30 11042 H 1031.44 3.24717 -0.350191 0
M  V30 11043 H 1030.1 2.75024 -2.42399 0
M  V30 11044 H 1029.74 4.89007 -1.17819 0
M  V30 11045 H 1029.44 5.09805 -2.92186 0
M  V30 11046 H 1030.97 5.69405 -2.20478 0
M  V30 11047 H 1032.38 4.19309 -3.90964 0
M  V30 11048 H 1030.78 3.83542 -4.61536 0
M  V30 11049 H 1031.85 2.49873 -4.15562 0
M  V30 11050 N 1033.19 1.2685 0.935242 0
M  V30 11051 C 1034.14 1.08923 2.03481 0
M  V30 11052 C 1035.11 -0.00749786 1.66098 0
M  V30 11053 O 1036.29 0.153401 1.90182 0
M  V30 11054 C 1033.43 0.734529 3.37192 0
M  V30 11055 C 1032.55 1.90812 3.87576 0
M  V30 11056 C 1031.68 1.49599 5.097 0
M  V30 11057 C 1030.72 2.63752 5.5236 0
M  V30 11058 N 1029.86 2.23179 6.65684 0
M  V30 11059 H 1034.7 2.03016 2.18148 0
M  V30 11060 H 1032.23 1.01072 1.06878 0
M  V30 11061 H 1034.19 0.509734 4.14074 0
M  V30 11062 H 1032.82 -0.169438 3.22355 0
M  V30 11063 H 1031.87 2.24567 3.0704 0
M  V30 11064 H 1033.19 2.7647 4.1517 0
M  V30 11065 H 1032.34 1.23199 5.9406 0
M  V30 11066 H 1031.08 0.61039 4.83865 0
M  V30 11067 H 1030.08 2.90874 4.66554 0
M  V30 11068 H 1031.31 3.5292 5.80193 0
M  V30 11069 H 1029.26 1.37061 6.41522 0
M  V30 11070 H 1029.17 3.02379 6.92895 0
M  V30 11071 H 1030.44 2.00007 7.53404 0
M  V30 11072 N 1034.67 -1.14067 1.0875 0
M  V30 11073 C 1035.58 -2.22871 0.732498 0
M  V30 11074 C 1036.6 -1.72008 -0.26253 0
M  V30 11075 O 1037.77 -2.01123 -0.105601 0
M  V30 11076 C 1034.84 -3.46371 0.150913 0
M  V30 11077 C 1033.9 -4.12158 1.201 0
M  V30 11078 C 1033.13 -5.29763 0.647075 0
M  V30 11079 O 1033.35 -5.67911 -0.532307 0
M  V30 11080 O 1032.29 -5.8542 1.3988 0
M  V30 11081 H 1036.11 -2.55596 1.64025 0
M  V30 11082 H 1033.7 -1.22065 0.861417 0
M  V30 11083 H 1035.58 -4.21055 -0.170442 0
M  V30 11084 H 1034.26 -3.15362 -0.729948 0
M  V30 11085 H 1033.16 -3.39332 1.57494 0
M  V30 11086 H 1034.5 -4.47282 2.05426 0
M  V30 11087 N 1036.15 -0.873678 -1.31166 0
M  V30 11088 C 1037.1 -0.321349 -2.3037 0
M  V30 11089 C 1038.09 0.565568 -1.5968 0
M  V30 11090 O 1039.3 0.451257 -1.74252 0
M  V30 11091 H 1035.67 -0.0852425 -0.747153 0
M  V30 11092 H 1037.64 -1.17191 -2.74425 0
M  V30 11093 C 1036.39 0.459016 -3.44657 0
M  V30 11094 H 1035.71 -0.214185 -3.99226 0
M  V30 11095 H 1037.15 0.810758 -4.16176 0
M  V30 11096 C 1035.61 1.65173 -2.93632 0
M  V30 11097 O 1036.14 2.75105 -2.92711 0
M  V30 11098 N 1034.35 1.4851 -2.49786 0
M  V30 11099 H 1033.9 0.590785 -2.50734 0
M  V30 11100 H 1033.85 2.28452 -2.16002 0
M  V30 11101 N 1037.63 1.44308 -0.633487 0
M  V30 11102 C 1038.85 2.06384 -0.146063 0
M  V30 11103 C 1039.27 1.47357 1.18031 0
M  V30 11104 O 1038.63 0.597334 1.72448 0
M  V30 11105 C 1038.68 3.61489 -0.0276722 0
M  V30 11106 O 1038.4 4.18318 -1.3016 0
M  V30 11107 C 1039.9 4.40604 0.488168 0
M  V30 11108 H 1037.12 0.666122 -0.0807632 0
M  V30 11109 H 1039.66 1.85139 -0.868557 0
M  V30 11110 H 1037.82 3.81988 0.645273 0
M  V30 11111 H 1038.23 5.11783 -1.14797 0
M  V30 11112 H 1039.71 5.49545 0.520013 0
M  V30 11113 H 1040.18 4.12218 1.51568 0
M  V30 11114 H 1040.79 4.2503 -0.151608 0
M  V30 11115 N 1039.1 0.374177 1.53094 0
M  V30 11116 C 1040.07 -0.455999 2.24618 0
M  V30 11117 C 1041.07 -1.00269 1.25709 0
M  V30 11118 O 1042.26 -0.887077 1.49922 0
M  V30 11119 C 1039.39 -1.63822 2.98957 0
M  V30 11120 H 1040.58 0.169986 2.99418 0
M  V30 11121 H 1038.14 0.126015 1.55791 0
M  V30 11122 H 1038.87 -2.30205 2.28421 0
M  V30 11123 H 1038.66 -1.25308 3.71538 0
M  V30 11124 H 1040.15 -2.22633 3.53305 0
M  V30 11125 N 1040.58 -1.57259 0.103575 0
M  V30 11126 C 1041.51 -2.1153 -0.882472 0
M  V30 11127 C 1042.53 -1.05446 -1.24036 0
M  V30 11128 O 1043.72 -1.32867 -1.192 0
M  V30 11129 C 1040.82 -2.58717 -2.18903 0
M  V30 11130 C 1039.99 -3.8873 -2.00519 0
M  V30 11131 C 1039.05 -4.21675 -3.14764 0
M  V30 11132 O 1038.07 -4.90755 -2.88355 0
M  V30 11133 N 1039.28 -3.77757 -4.40772 0
M  V30 11134 H 1042.04 -2.96758 -0.418901 0
M  V30 11135 H 1039.6 -1.61696 -0.0812921 0
M  V30 11136 H 1041.59 -2.77797 -2.94297 0
M  V30 11137 H 1040.16 -1.78454 -2.56657 0
M  V30 11138 H 1039.38 -3.78714 -1.09406 0
M  V30 11139 H 1040.67 -4.73771 -1.85522 0
M  V30 11140 H 1040.07 -3.22011 -4.65108 0
M  V30 11141 H 1038.63 -4.01975 -5.13088 0
M  V30 11142 N 1042.06 0.170153 -1.56679 0
M  V30 11143 C 1043.47 0.732502 -1.7173 0
M  V30 11144 C 1043.82 1.82736 -0.71428 0
M  V30 11145 O 1042.95 2.16044 0.124102 0
M  V30 11146 C 1043.54 1.33548 -3.11368 0
M  V30 11147 C 1042.1 1.84464 -3.281 0
M  V30 11148 C 1041.25 0.724069 -2.6768 0
M  V30 11149 H 1044.2 -0.0552543 -1.58604 0
M  V30 11150 H 1044.22 2.20519 -3.10083 0
M  V30 11151 H 1043.73 0.5384 -3.84347 0
M  V30 11152 H 1041.83 2.66813 -2.6008 0
M  V30 11153 H 1041.95 1.98928 -4.35849 0
M  V30 11154 H 1040.31 1.14481 -2.27522 0
M  V30 11155 H 1041.09 -0.0611861 -3.43245 0
M  V30 11156 N 1043.54 1.5137 0.438746 0
M  V30 11157 C 1044.78 1.64211 1.19006 0
M  V30 11158 C 1045.12 0.356607 1.90898 0
M  V30 11159 O 1044.39 -0.643722 1.83539 0
M  V30 11160 C 1044.68 2.8445 2.20817 0
M  V30 11161 C 1044.53 4.22972 1.53018 0
M  V30 11162 C 1045.85 3.00207 3.21813 0
M  V30 11163 H 1042.97 0.597628 0.431288 0
M  V30 11164 H 1045.61 1.8385 0.479487 0
M  V30 11165 H 1043.76 2.67836 2.81418 0
M  V30 11166 H 1045.43 4.5125 0.957654 0
M  V30 11167 H 1043.67 4.25736 0.832556 0
M  V30 11168 H 1044.34 5.03094 2.27158 0
M  V30 11169 H 1046.82 3.15522 2.71266 0
M  V30 11170 H 1045.7 3.85904 3.90345 0
M  V30 11171 H 1045.96 2.12216 3.87836 0
M  V30 11172 N 1045.02 -0.694098 1.41492 0
M  V30 11173 C 1046.43 -1.27407 1.36471 0
M  V30 11174 C 1046.78 -1.9614 0.0485209 0
M  V30 11175 O 1045.9 -1.98871 -0.853188 0
M  V30 11176 C 1046.5 -2.31698 2.47188 0
M  V30 11177 C 1045.06 -2.85268 2.45559 0
M  V30 11178 C 1044.2 -1.59325 2.2696 0
M  V30 11179 H 1047.16 -0.488756 1.50986 0
M  V30 11180 H 1047.18 -3.1302 2.1633 0
M  V30 11181 H 1046.69 -1.81644 3.42968 0
M  V30 11182 H 1044.79 -3.39494 1.5354 0
M  V30 11183 H 1044.9 -3.35598 3.41922 0
M  V30 11184 H 1043.27 -1.85188 1.74864 0
M  V30 11185 H 1044.05 -1.11265 3.24769 0
M  V30 11186 N 1046.49 -1.27344 -0.928501 0
M  V30 11187 C 1047.74 -1.13635 -1.6761 0
M  V30 11188 C 1048.07 0.317957 -1.91884 0
M  V30 11189 O 1047.32 1.24904 -1.50657 0
M  V30 11190 C 1047.62 -1.86439 -3.04918 0
M  V30 11191 C 1047.29 -3.36298 -3.00358 0
M  V30 11192 C 1045.95 -3.77173 -2.98821 0
M  V30 11193 C 1048.3 -4.31921 -2.91708 0
M  V30 11194 C 1045.63 -5.12037 -2.86417 0
M  V30 11195 C 1047.98 -5.66841 -2.80846 0
M  V30 11196 C 1046.65 -6.07011 -2.77659 0
M  V30 11197 H 1045.92 -0.415821 -0.61333 0
M  V30 11198 H 1048.56 -1.57943 -1.08288 0
M  V30 11199 H 1046.87 -1.34638 -3.6794 0
M  V30 11200 H 1048.57 -1.73261 -3.61637 0
M  V30 11201 H 1045.16 -3.0379 -3.0234 0
M  V30 11202 H 1049.34 -4.01314 -2.91994 0
M  V30 11203 H 1044.6 -5.42307 -2.82336 0
M  V30 11204 H 1048.77 -6.40608 -2.73119 0
M  V30 11205 H 1046.4 -7.11467 -2.67804 0
M  V30 11206 N 1047.97 1.13488 -1.09353 0
M  V30 11207 C 1048.94 2.17066 -0.735863 0
M  V30 11208 C 1049.94 1.59086 0.234181 0
M  V30 11209 O 1051.13 1.74196 0.012463 0
M  V30 11210 C 1048.26 3.40786 -0.0880975 0
M  V30 11211 H 1049.45 2.50221 -1.65316 0
M  V30 11212 H 1047 1.28304 -0.89263 0
M  V30 11213 H 1047.74 3.1322 0.840462 0
M  V30 11214 H 1047.52 3.8414 -0.786073 0
M  V30 11215 H 1049.01 4.17342 0.146775 0
M  V30 11216 N 1049.45 0.880621 1.30701 0
M  V30 11217 C 1050.86 0.547993 1.78477 0
M  V30 11218 C 1051.21 -0.935633 1.72454 0
M  V30 11219 O 1050.34 -1.73094 1.29874 0
M  V30 11220 C 1050.93 0.98795 3.24076 0
M  V30 11221 C 1049.49 0.706805 3.69704 0
M  V30 11222 C 1048.64 1.17335 2.51252 0
M  V30 11223 H 1051.59 1.06528 1.17633 0
M  V30 11224 H 1051.61 0.31508 3.79193 0
M  V30 11225 H 1051.12 2.06778 3.28427 0
M  V30 11226 H 1049.22 -0.36122 3.70845 0
M  V30 11227 H 1049.34 1.2913 4.6137 0
M  V30 11228 H 1047.7 0.592808 2.47705 0
M  V30 11229 H 1048.48 2.26083 2.58343 0
M  V30 11230 N 1050.93 -1.4397 0.641131 0
M  V30 11231 C 1051.88 -2.32495 -0.0698668 0
M  V30 11232 C 1052.87 -1.47922 -0.825555 0
M  V30 11233 O 1054.08 -1.64206 -0.737323 0
M  V30 11234 H 1050.45 -0.750861 -0.0413706 0
M  V30 11235 H 1052.42 -2.90201 0.694682 0
M  V30 11236 C 1051.17 -3.32063 -1.03098 0
M  V30 11237 H 1050.5 -3.97157 -0.458923 0
M  V30 11238 H 1051.94 -3.96664 -1.49778 0
M  V30 11239 C 1050.39 -2.61743 -2.12113 0
M  V30 11240 O 1050.92 -2.42385 -3.20332 0
M  V30 11241 N 1049.13 -2.21316 -1.88328 0
M  V30 11242 H 1048.68 -2.37261 -1.00324 0
M  V30 11243 H 1048.64 -1.74594 -2.61465 0
M  V30 11244 N 1052.41 -0.382291 -1.52893 0
M  V30 11245 C 1053.36 0.471187 -2.27778 0
M  V30 11246 C 1054.35 1.0691 -1.31402 0
M  V30 11247 O 1055.56 1.01038 -1.48967 0
M  V30 11248 H 1051.93 0.170696 -0.732371 0
M  V30 11249 H 1053.9 -0.181954 -2.97845 0
M  V30 11250 C 1052.65 1.59012 -3.09209 0
M  V30 11251 H 1051.97 1.13935 -3.83222 0
M  V30 11252 H 1053.41 2.16167 -3.64757 0
M  V30 11253 C 1051.87 2.54212 -2.21084 0
M  V30 11254 O 1052.4 3.57447 -1.83288 0
M  V30 11255 N 1050.61 2.23789 -1.85383 0
M  V30 11256 H 1050.16 1.39872 -2.16318 0
M  V30 11257 H 1050.11 2.87737 -1.26708 0
M  V30 11258 N 1053.89 1.57202 -0.111913 0
M  V30 11259 C 1054.85 2.13778 0.826534 0
M  V30 11260 C 1055.85 1.07097 1.19945 0
M  V30 11261 O 1057.04 1.32906 1.12613 0
M  V30 11262 C 1054.17 2.6722 2.11675 0
M  V30 11263 H 1055.36 2.98023 0.334975 0
M  V30 11264 H 1052.92 1.55696 0.137256 0
M  V30 11265 H 1053.65 1.86542 2.65278 0
M  V30 11266 H 1053.44 3.45235 1.8589 0
M  V30 11267 H 1054.93 3.10926 2.78774 0
M  V30 11268 N 1055.36 -0.161842 1.56767 0
M  V30 11269 C 1056.78 -0.51396 1.51098 0
M  V30 11270 C 1056.98 -1.84158 0.817815 0
M  V30 11271 O 1056.04 -2.49592 0.382133 0
M  V30 11272 C 1057.35 -0.537966 2.95849 0
M  V30 11273 C 1058.9 -0.624512 3.06706 0
M  V30 11274 C 1059.37 -0.679322 4.52934 0
M  V30 11275 N 1060.86 -0.741953 4.57219 0
M  V30 11276 C 1061.6 -0.805096 5.6772 0
M  V30 11277 N 1061.09 -0.828492 6.87828 0
M  V30 11278 N 1062.89 -0.844843 5.55715 0
M  V30 11279 H 1055.04 0.708581 2.00232 0
M  V30 11280 H 1057.3 0.25663 0.912603 0
M  V30 11281 H 1057.01 0.369052 3.49758 0
M  V30 11282 H 1056.88 -1.38113 3.51005 0
M  V30 11283 H 1059.27 -1.52195 2.52825 0
M  V30 11284 H 1059.35 0.245515 2.54619 0
M  V30 11285 H 1058.99 0.213901 5.07449 0
M  V30 11286 H 1058.92 -1.56563 5.02788 0
M  V30 11287 H 1061.41 -0.731772 3.70747 0
M  V30 11288 H 1061.73 -0.878109 7.67795 0
M  V30 11289 H 1060.07 -0.796612 6.9042 0
M  V30 11290 H 1063.26 -0.823632 4.60797 0
M  V30 11291 H 1063.44 -0.890588 6.41851 0
M  V30 11292 N 1056.84 -1.516 -0.430713 0
M  V30 11293 C 1058.25 -1.57 -1.01035 0
M  V30 11294 C 1058.6 -0.397439 -1.92132 0
M  V30 11295 O 1057.73 0.484954 -2.10896 0
M  V30 11296 C 1058.32 -2.84536 -1.83915 0
M  V30 11297 C 1056.88 -2.92485 -2.36917 0
M  V30 11298 C 1056.03 -2.5173 -1.16308 0
M  V30 11299 H 1058.98 -1.57281 -0.211734 0
M  V30 11300 H 1059 -2.68672 -2.69435 0
M  V30 11301 H 1058.51 -3.69858 -1.17586 0
M  V30 11302 H 1056.61 -2.11608 -3.0668 0
M  V30 11303 H 1056.73 -3.96277 -2.6926 0
M  V30 11304 H 1055.09 -2.05079 -1.51045 0
M  V30 11305 H 1055.87 -3.39403 -0.515793 0
M  V30 11306 N 1058.32 0.686584 -1.41858 0
M  V30 11307 C 1059.25 1.81264 -1.47193 0
M  V30 11308 C 1060.23 1.66875 -0.329657 0
M  V30 11309 O 1061.42 1.86473 -0.542347 0
M  V30 11310 C 1058.55 3.19472 -1.36216 0
M  V30 11311 C 1057.5 3.4858 -2.48347 0
M  V30 11312 C 1056.83 4.86239 -2.22432 0
M  V30 11313 C 1058.13 3.46653 -3.90678 0
M  V30 11314 H 1059.82 1.77057 -2.41436 0
M  V30 11315 H 1057.37 0.850415 -1.16206 0
M  V30 11316 H 1059.32 3.97969 -1.38558 0
M  V30 11317 H 1058.04 3.24327 -0.384611 0
M  V30 11318 H 1056.7 2.72437 -2.45303 0
M  V30 11319 H 1056.35 4.8773 -1.22999 0
M  V30 11320 H 1056.05 5.06677 -2.97577 0
M  V30 11321 H 1057.57 5.67034 -2.26505 0
M  V30 11322 H 1058.99 4.15139 -3.95389 0
M  V30 11323 H 1057.38 3.78625 -4.65578 0
M  V30 11324 H 1058.45 2.45451 -4.18189 0
M  V30 11325 N 1059.8 1.27835 0.921735 0
M  V30 11326 C 1061.03 1.17352 1.704 0
M  V30 11327 C 1061.44 -0.268892 1.86875 0
M  V30 11328 O 1060.8 -1.18253 1.39005 0
M  V30 11329 C 1060.85 1.85889 3.10045 0
M  V30 11330 O 1060.57 3.24495 2.94338 0
M  V30 11331 C 1062.07 1.81607 4.04393 0
M  V30 11332 H 1059.29 0.40773 0.532914 0
M  V30 11333 H 1061.83 1.68815 1.15419 0
M  V30 11334 H 1059.99 1.38316 3.61867 0
M  V30 11335 H 1060.4 3.58705 3.82663 0
M  V30 11336 H 1061.88 2.34165 4.99871 0
M  V30 11337 H 1062.35 0.786697 4.32097 0
M  V30 11338 H 1062.96 2.28822 3.58498 0
M  V30 11339 N 1061.28 -1.12907 1.09954 0
M  V30 11340 C 1062.21 -2.20585 0.765799 0
M  V30 11341 C 1063.19 -1.68117 -0.258989 0
M  V30 11342 O 1064.37 -1.93792 -0.125853 0
M  V30 11343 C 1061.5 -3.46772 0.191435 0
M  V30 11344 C 1060.46 -4.12363 1.14635 0
M  V30 11345 C 1059.78 -5.3294 0.433426 0
M  V30 11346 C 1061.08 -4.59073 2.49096 0
M  V30 11347 H 1062.78 -2.48759 1.66612 0
M  V30 11348 H 1060.32 -1.19563 0.802534 0
M  V30 11349 H 1062.27 -4.21365 -0.0541535 0
M  V30 11350 H 1061 -3.18011 -0.744101 0
M  V30 11351 H 1059.66 -3.39744 1.37731 0
M  V30 11352 H 1059.31 -5.00444 -0.506422 0
M  V30 11353 H 1059.01 -5.77772 1.07018 0
M  V30 11354 H 1060.53 -6.10284 0.196267 0
M  V30 11355 H 1061.94 -5.25063 2.30177 0
M  V30 11356 H 1060.34 -5.14665 3.0861 0
M  V30 11357 H 1061.41 -3.73313 3.0946 0
M  V30 11358 N 1062.75 -0.88754 -1.30232 0
M  V30 11359 C 1063.66 -0.360333 -2.31816 0
M  V30 11360 C 1064.68 0.538741 -1.6545 0
M  V30 11361 O 1065.86 0.431246 -1.96729 0
M  V30 11362 C 1062.92 0.414336 -3.44215 0
M  V30 11363 C 1061.98 -0.514799 -4.26202 0
M  V30 11364 C 1061.21 0.222994 -5.33234 0
M  V30 11365 O 1061.44 1.44871 -5.51696 0
M  V30 11366 O 1060.37 -0.428221 -6.00375 0
M  V30 11367 H 1064.2 -1.20279 -2.78867 0
M  V30 11368 H 1061.78 -0.651459 -1.34448 0
M  V30 11369 H 1063.66 0.852859 -4.12679 0
M  V30 11370 H 1062.34 1.23305 -2.99295 0
M  V30 11371 H 1061.25 -1.00219 -3.60426 0
M  V30 11372 H 1062.58 -1.29959 -4.74733 0
M  V30 11373 N 1064.23 1.43628 -0.648757 0
M  V30 11374 C 1065.51 1.95391 -0.0904551 0
M  V30 11375 C 1065.89 1.59021 1.38837 0
M  V30 11376 O 1065.24 0.873078 2.11163 0
M  V30 11377 C 1065.45 3.47418 -0.33196 0
M  V30 11378 C 1066.8 4.23952 -0.234521 0
M  V30 11379 O 1067.82 3.55218 -0.264276 0
M  V30 11380 O 1066.68 5.46282 -0.154428 0
M  V30 11381 H 1063.77 0.82691 0.0121884 0
M  V30 11382 H 1066.32 1.5359 -0.721685 0
M  V30 11383 H 1065.09 3.67001 -1.35741 0
M  V30 11384 H 1064.71 3.96207 0.332556 0
M  V30 11385 N 1065.71 0.390394 1.52688 0
M  V30 11386 C 1066.99 -0.249068 1.94008 0
M  V30 11387 C 1067.37 -1.64263 1.32593 0
M  V30 11388 O 1066.72 -2.23086 0.494448 0
M  V30 11389 C 1066.93 -0.274318 3.4792 0
M  V30 11390 C 1068.27 -0.502743 4.21613 0
M  V30 11391 O 1069.3 -0.35448 3.54432 0
M  V30 11392 O 1068.16 -0.79334 5.40711 0
M  V30 11393 H 1065.25 -0.155116 0.812323 0
M  V30 11394 H 1067.8 0.44498 1.63762 0
M  V30 11395 H 1066.57 0.701766 3.84956 0
M  V30 11396 H 1066.19 -1.01324 3.84473 0
M  V30 11397 N 1067.19 -1.57141 0.120249 0
M  V30 11398 C 1068.6 -1.5784 -0.236335 0
M  V30 11399 C 1068.8 -1.13304 -1.66626 0
M  V30 11400 O 1067.86 -0.821004 -2.3878 0
M  V30 11401 C 1069.17 -3.007 -0.00188211 0
M  V30 11402 C 1070.72 -3.12927 -0.0676838 0
M  V30 11403 C 1071.2 -4.57789 0.139092 0
M  V30 11404 N 1072.69 -4.63122 0.085104 0
M  V30 11405 C 1073.42 -5.72978 0.219983 0
M  V30 11406 N 1072.92 -6.91579 0.411102 0
M  V30 11407 N 1074.71 -5.61874 0.159469 0
M  V30 11408 H 1066.86 -1.84391 1.05422 0
M  V30 11409 H 1069.13 -0.852228 0.415225 0
M  V30 11410 H 1068.83 -3.37575 0.986718 0
M  V30 11411 H 1068.71 -3.70005 -0.733203 0
M  V30 11412 H 1071.09 -2.75909 -1.04681 0
M  V30 11413 H 1071.17 -2.46162 0.695538 0
M  V30 11414 H 1070.82 -4.95506 1.1152 0
M  V30 11415 H 1070.75 -5.22646 -0.644131 0
M  V30 11416 H 1073.24 -3.77854 -0.0590479 0
M  V30 11417 H 1073.55 -7.71149 0.504851 0
M  V30 11418 H 1071.9 -6.9356 0.447091 0
M  V30 11419 H 1075.09 -4.68099 0.0111131 0
M  V30 11420 H 1075.26 -6.47445 0.268028 0
M  V30 11421 N 1068.67 0.153526 -1.5685 0
M  V30 11422 C 1069.6 1.19162 -2.00805 0
M  V30 11423 C 1070.58 1.45172 -0.886518 0
M  V30 11424 O 1071.76 1.56203 -1.15387 0
M  V30 11425 C 1068.89 2.52637 -2.38311 0
M  V30 11426 C 1067.85 2.41161 -3.53589 0
M  V30 11427 C 1067.17 3.79287 -3.76889 0
M  V30 11428 C 1068.47 1.90122 -4.86468 0
M  V30 11429 H 1070.17 0.82617 -2.87776 0
M  V30 11430 H 1067.71 0.395972 -1.38449 0
M  V30 11431 H 1069.67 3.25478 -2.6766 0
M  V30 11432 H 1068.39 2.91005 -1.4827 0
M  V30 11433 H 1067.05 1.70772 -3.24395 0
M  V30 11434 H 1066.7 4.15079 -2.84109 0
M  V30 11435 H 1066.4 3.72472 -4.54465 0
M  V30 11436 H 1067.92 4.53687 -4.08657 0
M  V30 11437 H 1069.33 2.52752 -5.14577 0
M  V30 11438 H 1067.73 1.94214 -5.67804 0
M  V30 11439 H 1068.8 0.856517 -4.77275 0
M  V30 11440 N 1070.14 1.51827 0.422667 0
M  V30 11441 C 1071.37 1.69337 1.19748 0
M  V30 11442 C 1071.79 0.396312 1.83878 0
M  V30 11443 O 1071.15 -0.644976 1.6944 0
M  V30 11444 C 1071.2 2.82082 2.24637 0
M  V30 11445 O 1070.3 2.46708 3.30468 0
M  V30 11446 H 1069.65 0.564154 0.35018 0
M  V30 11447 H 1072.18 1.98465 0.497289 0
M  V30 11448 H 1072.19 3.06599 2.69186 0
M  V30 11449 H 1070.86 3.76195 1.77341 0
M  V30 11450 H 1069.44 2.32815 2.91293 0
M  V30 11451 N 1071.62 -0.679052 1.4222 0
M  V30 11452 C 1072.86 -1.45118 1.43945 0
M  V30 11453 C 1073.23 -1.91928 0.0524851 0
M  V30 11454 O 1074.43 -2.68743 -0.0555318 0
M  V30 11455 C 1072.7 -2.6191 2.43183 0
M  V30 11456 S 1074.26 -3.50819 2.63574 0
M  V30 11457 H 1071.08 -0.495695 0.509713 0
M  V30 11458 H 1073.68 -0.790842 1.7879 0
M  V30 11459 H 1072.38 -2.25752 3.42731 0
M  V30 11460 H 1071.91 -3.3282 2.09748 0
M  V30 11461 H 1073.93 -4.57735 1.91555 0
M  V30 11462 N 1073.1 -1.28322 -0.914942 0
M  V30 11463 C 1074.33 -1.18254 -1.69775 0
M  V30 11464 C 1074.74 0.258978 -1.87015 0
M  V30 11465 O 1074.1 1.17514 -1.3963 0
M  V30 11466 C 1074.15 -1.8753 -3.09054 0
M  V30 11467 O 1073.87 -3.26051 -2.92613 0
M  V30 11468 C 1075.37 -1.83749 -4.03424 0
M  V30 11469 H 1072.59 -0.41055 -0.530744 0
M  V30 11470 H 1075.14 -1.69425 -1.14523 0
M  V30 11471 H 1073.29 -1.40233 -3.61128 0
M  V30 11472 H 1073.71 -3.60729 -3.80756 0
M  V30 11473 H 1075.18 -2.36813 -4.98622 0
M  V30 11474 H 1075.66 -0.809601 -4.31674 0
M  V30 11475 H 1076.26 -2.3072 -3.57279 0
M  V30 11476 N 1074.58 1.12322 -1.10551 0
M  V30 11477 C 1075.82 1.8413 -0.849932 0
M  V30 11478 C 1076.16 1.83938 0.622946 0
M  V30 11479 O 1075.43 1.28579 1.45937 0
M  V30 11480 C 1075.72 3.31751 -1.40048 0
M  V30 11481 C 1075.57 3.40391 -2.9403 0
M  V30 11482 C 1076.89 4.27543 -1.04379 0
M  V30 11483 H 1074.01 0.668533 -0.310213 0
M  V30 11484 H 1076.65 1.31766 -1.36886 0
M  V30 11485 H 1074.8 3.76475 -0.959102 0
M  V30 11486 H 1076.47 3.04294 -3.46703 0
M  V30 11487 H 1074.71 2.809 -3.30571 0
M  V30 11488 H 1075.38 4.44252 -3.27635 0
M  V30 11489 H 1077.86 3.90951 -1.42466 0
M  V30 11490 H 1076.74 5.2924 -1.4559 0
M  V30 11491 H 1077 4.42075 0.0466316 0
M  V30 11492 N 1076.06 0.894434 1.2976 0
M  V30 11493 C 1077.47 0.589778 1.48303 0
M  V30 11494 C 1077.67 -0.870085 1.81746 0
M  V30 11495 O 1076.73 -1.65065 1.91076 0
M  V30 11496 C 1078.04 1.51107 2.59975 0
M  V30 11497 C 1079.59 1.51571 2.73853 0
M  V30 11498 C 1080.06 2.42316 3.88648 0
M  V30 11499 N 1081.56 2.40333 3.95973 0
M  V30 11500 C 1082.29 3.07254 4.84131 0
M  V30 11501 N 1081.79 3.83435 5.77018 0
M  V30 11502 N 1083.58 2.96438 4.77578 0
M  V30 11503 H 1075.73 1.83871 1.06327 0
M  V30 11504 H 1077.99 0.78758 0.527657 0
M  V30 11505 H 1077.7 2.55097 2.42112 0
M  V30 11506 H 1077.57 1.22767 3.56662 0
M  V30 11507 H 1079.96 0.483277 2.91116 0
M  V30 11508 H 1080.04 1.83946 1.77757 0
M  V30 11509 H 1079.69 3.4565 3.72141 0
M  V30 11510 H 1079.62 2.07252 4.84101 0
M  V30 11511 H 1082.11 1.84979 3.29532 0
M  V30 11512 H 1082.42 4.31565 6.4107 0
M  V30 11513 H 1080.76 3.87542 5.7692 0
M  V30 11514 H 1083.96 2.36442 4.03996 0
M  V30 11515 H 1084.13 3.48867 5.46073 0
M  V30 11516 N 1077.53 -1.43282 0.656365 0
M  V30 11517 C 1078.78 -2.01378 0.170702 0
M  V30 11518 C 1079.1 -1.52063 -1.22073 0
M  V30 11519 O 1078.37 -0.73456 -1.81607 0
M  V30 11520 H 1076.95 -0.744577 0.0601168 0
M  V30 11521 H 1079.62 -1.75449 0.848739 0
M  V30 11522 H 1078.71 -3.11701 0.157745 0
M  V30 11523 N 1079.01 -0.398486 -1.52479 0
M  V30 11524 C 1080.24 0.180295 -2.05812 0
M  V30 11525 C 1080.65 1.40301 -1.26934 0
M  V30 11526 O 1079.99 1.81039 -0.311544 0
M  V30 11527 C 1080.06 0.60601 -3.54355 0
M  V30 11528 C 1079.72 -0.504508 -4.54207 0
M  V30 11529 C 1080.72 -1.36478 -5.01667 0
M  V30 11530 C 1078.4 -0.674161 -4.97755 0
M  V30 11531 C 1080.4 -2.37975 -5.91309 0
M  V30 11532 C 1078.08 -1.69246 -5.87196 0
M  V30 11533 C 1079.08 -2.54367 -6.33866 0
M  V30 11534 O 1078.77 -3.54454 -7.21538 0
M  V30 11535 H 1078.5 0.0286396 -0.675393 0
M  V30 11536 H 1081.06 -0.564912 -1.97479 0
M  V30 11537 H 1079.29 1.40334 -3.60338 0
M  V30 11538 H 1080.97 1.1115 -3.90385 0
M  V30 11539 H 1081.74 -1.24506 -4.68746 0
M  V30 11540 H 1077.62 -0.0213029 -4.60995 0
M  V30 11541 H 1081.16 -3.0445 -6.27659 0
M  V30 11542 H 1077.06 -1.81252 -6.1953 0
M  V30 11543 H 1077.83 -3.50571 -7.39623 0
M  V30 11544 N 1080.49 1.57075 -0.12858 0
M  V30 11545 C 1081.44 2.17084 0.835308 0
M  V30 11546 C 1082.43 1.12268 1.26855 0
M  V30 11547 O 1083.64 1.30554 1.23917 0
M  V30 11548 H 1080.01 0.694866 0.287516 0
M  V30 11549 H 1081.99 2.96839 0.304798 0
M  V30 11550 C 1080.73 2.79237 2.07177 0
M  V30 11551 H 1080.06 3.59594 1.74735 0
M  V30 11552 H 1081.5 3.24751 2.72604 0
M  V30 11553 C 1079.96 1.76803 2.86779 0
M  V30 11554 O 1080.49 1.22723 3.82494 0
M  V30 11555 N 1078.69 1.46525 2.50956 0
M  V30 11556 H 1078.24 1.90694 1.73187 0
M  V30 11557 H 1078.2 0.782326 3.04511 0
M  V30 11558 N 1081.97 -0.145205 1.5693 0
M  V30 11559 C 1083.22 -0.857516 1.83447 0
M  V30 11560 C 1083.54 -1.81088 0.709739 0
M  V30 11561 O 1082.8 -1.9337 -0.301097 0
M  V30 11562 C 1083.1 -1.66391 3.16305 0
M  V30 11563 C 1082.76 -0.857171 4.42678 0
M  V30 11564 C 1081.43 -0.634611 4.76997 0
M  V30 11565 C 1083.78 -0.293105 5.20375 0
M  V30 11566 C 1081.11 0.162693 5.86474 0
M  V30 11567 C 1083.46 0.491248 6.3069 0
M  V30 11568 C 1082.12 0.724368 6.63558 0
M  V30 11569 H 1081.39 -0.313787 0.671281 0
M  V30 11570 H 1084.04 -0.121074 1.91117 0
M  V30 11571 H 1082.34 -2.47051 3.04094 0
M  V30 11572 H 1084.04 -2.21855 3.34038 0
M  V30 11573 H 1080.63 -1.0407 4.15773 0
M  V30 11574 H 1084.82 -0.452326 4.94234 0
M  V30 11575 H 1080.07 0.352788 6.10381 0
M  V30 11576 H 1084.25 0.935449 6.90089 0
M  V30 11577 H 1081.87 1.34403 7.48224 0
M  V30 11578 N 1083.45 -1.52049 -0.414609 0
M  V30 11579 C 1084.41 -1.74382 -1.4874 0
M  V30 11580 C 1085.41 -0.613701 -1.48628 0
M  V30 11581 O 1086.6 -0.88152 -1.50249 0
M  V30 11582 C 1083.73 -1.82116 -2.88178 0
M  V30 11583 H 1084.93 -2.70147 -1.30233 0
M  V30 11584 H 1082.48 -1.42382 -0.644756 0
M  V30 11585 H 1083.21 -0.882457 -3.12063 0
M  V30 11586 H 1083 -2.64268 -2.89663 0
M  V30 11587 H 1084.49 -2.01155 -3.65959 0
M  V30 11588 N 1084.93 0.6715 -1.42579 0
M  V30 11589 C 1086.17 1.42731 -1.42516 0
M  V30 11590 C 1086.49 1.95545 -0.0462407 0
M  V30 11591 O 1087.69 2.71391 0.0769798 0
M  V30 11592 C 1086.15 2.58215 -2.50705 0
M  V30 11593 C 1085.76 2.12086 -3.94618 0
M  V30 11594 C 1087.5 3.35705 -2.59813 0
M  V30 11595 C 1085.41 3.24672 -4.9431 0
M  V30 11596 H 1084.34 0.536218 -0.530081 0
M  V30 11597 H 1086.99 0.726655 -1.68499 0
M  V30 11598 H 1085.37 3.30665 -2.17892 0
M  V30 11599 H 1086.55 1.46768 -4.36802 0
M  V30 11600 H 1084.86 1.47526 -3.89391 0
M  V30 11601 H 1087.46 4.1956 -3.31472 0
M  V30 11602 H 1087.8 3.82517 -1.64276 0
M  V30 11603 H 1088.33 2.70326 -2.91836 0
M  V30 11604 H 1085.07 2.82848 -5.91335 0
M  V30 11605 H 1084.59 3.88761 -4.56755 0
M  V30 11606 H 1086.27 3.90088 -5.16179 0
M  V30 11607 N 1086.4 1.28806 0.908124 0
M  V30 11608 C 1087.63 1.19153 1.69146 0
M  V30 11609 C 1088.05 -0.249056 1.8715 0
M  V30 11610 O 1087.4 -1.16772 1.40251 0
M  V30 11611 C 1087.45 1.89167 3.08055 0
M  V30 11612 O 1087.18 3.27599 2.90879 0
M  V30 11613 C 1088.68 1.85886 4.02444 0
M  V30 11614 H 1085.9 0.413359 0.528559 0
M  V30 11615 H 1088.44 1.7003 1.13622 0
M  V30 11616 H 1086.6 1.42146 3.60379 0
M  V30 11617 H 1087.01 3.62743 3.78837 0
M  V30 11618 H 1088.48 2.39454 4.97359 0
M  V30 11619 H 1088.96 0.832483 4.31238 0
M  V30 11620 H 1089.57 2.32612 3.5605 0
M  V30 11621 N 1087.88 -1.11734 1.11145 0
M  V30 11622 C 1089.13 -1.83405 0.858413 0
M  V30 11623 C 1089.46 -1.84488 -0.615975 0
M  V30 11624 O 1088.71 -1.29123 -1.47057 0
M  V30 11625 C 1089.01 -3.3046 1.36129 0
M  V30 11626 C 1088.68 -3.4954 2.84837 0
M  V30 11627 C 1087.34 -3.54456 3.25445 0
M  V30 11628 C 1089.69 -3.56048 3.8063 0
M  V30 11629 C 1087.02 -3.63431 4.60581 0
M  V30 11630 C 1089.37 -3.66554 5.15579 0
M  V30 11631 C 1088.03 -3.69728 5.55749 0
M  V30 11632 H 1087.3 -0.671128 0.314115 0
M  V30 11633 H 1089.95 -1.31795 1.38933 0
M  V30 11634 H 1088.26 -3.84544 0.750547 0
M  V30 11635 H 1089.95 -3.84398 1.14188 0
M  V30 11636 H 1086.54 -3.46382 2.52423 0
M  V30 11637 H 1090.73 -3.51513 3.5036 0
M  V30 11638 H 1085.98 -3.64164 4.91116 0
M  V30 11639 H 1090.16 -3.70532 5.89643 0
M  V30 11640 H 1087.78 -3.76435 6.60455 0
M  V30 11641 N 1089.36 -0.901303 -1.29284 0
M  V30 11642 C 1090.58 -0.542823 -2.0017 0
M  V30 11643 C 1091.01 0.865583 -1.67001 0
M  V30 11644 O 1090.37 1.5764 -0.895502 0
M  V30 11645 C 1090.42 -0.743987 -3.52842 0
M  V30 11646 O 1089.52 0.202771 -4.11901 0
M  V30 11647 H 1088.86 -0.211903 -0.62928 0
M  V30 11648 H 1091.39 -1.21333 -1.64741 0
M  V30 11649 H 1091.4 -0.64926 -4.02801 0
M  V30 11650 H 1090.08 -1.77077 -3.7632 0
M  V30 11651 H 1088.65 0.0603637 -3.72851 0
M  V30 11652 N 1090.84 1.42931 -0.663954 0
M  V30 11653 C 1091.78 2.3079 0.0210764 0
M  V30 11654 C 1092.75 1.45356 0.803796 0
M  V30 11655 O 1093.94 1.74207 0.778237 0
M  V30 11656 C 1091.08 3.31069 0.974023 0
M  V30 11657 C 1090.19 4.31598 0.186273 0
M  V30 11658 C 1089.33 5.18955 1.13399 0
M  V30 11659 C 1088.37 6.1117 0.337292 0
M  V30 11660 N 1087.5 6.91114 1.23715 0
M  V30 11661 H 1092.34 2.88819 -0.733995 0
M  V30 11662 H 1089.88 1.42274 -0.373711 0
M  V30 11663 H 1091.84 3.87727 1.54024 0
M  V30 11664 H 1090.47 2.74665 1.69585 0
M  V30 11665 H 1089.52 3.77147 -0.496402 0
M  V30 11666 H 1090.83 4.96919 -0.432753 0
M  V30 11667 H 1089.99 5.80292 1.77049 0
M  V30 11668 H 1088.73 4.53785 1.78691 0
M  V30 11669 H 1087.73 5.48911 -0.312492 0
M  V30 11670 H 1088.96 6.78386 -0.31138 0
M  V30 11671 H 1086.9 6.28583 1.87668 0
M  V30 11672 H 1086.82 7.52999 0.672946 0
M  V30 11673 H 1088.09 7.56948 1.86146 0
M  V30 11674 N 1092.32 0.406567 1.52266 0
M  V30 11675 C 1093.25 -0.464709 2.23418 0
M  V30 11676 C 1094.23 -1.05008 1.24146 0
M  V30 11677 O 1095.41 -1.09843 1.53188 0
M  V30 11678 C 1092.54 -1.64481 2.96081 0
M  V30 11679 C 1091.58 -1.18307 4.09763 0
M  V30 11680 S 1092.42 -0.150326 5.35289 0
M  V30 11681 C 1093.57 -1.3358 6.11479 0
M  V30 11682 H 1093.81 0.139455 2.96973 0
M  V30 11683 H 1091.34 0.19085 1.53216 0
M  V30 11684 H 1093.3 -2.3215 3.38551 0
M  V30 11685 H 1091.96 -2.22031 2.22174 0
M  V30 11686 H 1091.15 -2.06466 4.59769 0
M  V30 11687 H 1090.75 -0.58505 3.69396 0
M  V30 11688 H 1093.04 -2.25986 6.38699 0
M  V30 11689 H 1093.99 -0.876328 7.02656 0
M  V30 11690 H 1094.4 -1.56044 5.42504 0
M  V30 11691 N 1093.79 -1.57004 0.136909 0
M  V30 11692 C 1095.02 -2.00587 -0.527209 0
M  V30 11693 C 1095.44 -1.01628 -1.58283 0
M  V30 11694 O 1094.8 0.00946934 -1.81298 0
M  V30 11695 C 1094.85 -3.42967 -1.11384 0
M  V30 11696 O 1093.95 -3.46973 -2.22898 0
M  V30 11697 H 1093.3 -0.651155 -0.129976 0
M  V30 11698 H 1095.83 -2.03296 0.230667 0
M  V30 11699 H 1095.84 -3.81555 -1.44499 0
M  V30 11700 H 1094.51 -4.14502 -0.340736 0
M  V30 11701 H 1093.09 -3.20219 -1.91087 0
M  V30 11702 N 1095.27 0.136881 -1.57004 0
M  V30 11703 C 1096.52 0.8461 -1.83536 0
M  V30 11704 C 1096.84 1.81246 -0.71937 0
M  V30 11705 O 1096.11 1.94191 0.258161 0
M  V30 11706 H 1094.69 0.315446 -0.677128 0
M  V30 11707 H 1097.35 0.128469 -1.94476 0
M  V30 11708 H 1096.45 1.40221 -2.78827 0
M  V30 11709 N 1096.75 1.52266 0.40654 0
M  V30 11710 C 1097.7 1.75794 1.4955 0
M  V30 11711 C 1098.67 0.600472 1.54866 0
M  V30 11712 O 1099.85 0.838305 1.71397 0
M  V30 11713 C 1096.99 1.91682 2.86971 0
M  V30 11714 C 1096.11 3.19337 2.90943 0
M  V30 11715 C 1095.24 3.25641 4.1968 0
M  V30 11716 C 1094.28 4.47488 4.17637 0
M  V30 11717 N 1093.42 4.51171 5.37949 0
M  V30 11718 H 1098.26 2.68733 1.28789 0
M  V30 11719 H 1095.79 1.33157 0.625102 0
M  V30 11720 H 1097.75 1.98877 3.66748 0
M  V30 11721 H 1096.38 1.02121 3.06221 0
M  V30 11722 H 1095.43 3.21301 2.03642 0
M  V30 11723 H 1096.75 4.09153 2.85299 0
M  V30 11724 H 1095.9 3.31922 5.07851 0
M  V30 11725 H 1094.64 2.33769 4.28023 0
M  V30 11726 H 1093.64 4.41351 3.27856 0
M  V30 11727 H 1094.87 5.40659 4.10932 0
M  V30 11728 H 1092.81 3.62182 5.46955 0
M  V30 11729 H 1092.73 5.34835 5.3431 0
M  V30 11730 H 1094 4.61685 6.28066 0
M  V30 11731 N 1098.23 -0.663929 1.42933 0
M  V30 11732 C 1099.64 -1.24484 1.39143 0
M  V30 11733 C 1099.99 -1.95993 0.0901142 0
M  V30 11734 O 1099.12 -2.00636 -0.810812 0
M  V30 11735 C 1099.71 -2.26402 2.52047 0
M  V30 11736 C 1098.27 -2.79995 2.51555 0
M  V30 11737 C 1097.42 -1.54475 2.30289 0
M  V30 11738 H 1100.37 -0.456619 1.51989 0
M  V30 11739 H 1100.39 -3.08361 2.22921 0
M  V30 11740 H 1099.9 -1.74328 3.46744 0
M  V30 11741 H 1098 -3.36161 1.60707 0
M  V30 11742 H 1098.11 -3.2827 3.48964 0
M  V30 11743 H 1096.48 -1.81437 1.78753 0
M  V30 11744 H 1097.26 -1.04351 3.27056 0
M  V30 11745 N 1099.71 -1.29285 -0.901281 0
M  V30 11746 C 1100.93 -1.20048 -1.68511 0
M  V30 11747 C 1101.35 0.239128 -1.8728 0
M  V30 11748 O 1100.71 1.16027 -1.40869 0
M  V30 11749 C 1100.76 -1.90798 -3.07048 0
M  V30 11750 O 1100.48 -3.29137 -2.89138 0
M  V30 11751 C 1101.98 -1.88017 -4.01453 0
M  V30 11752 H 1099.2 -0.416157 -0.52636 0
M  V30 11753 H 1101.74 -1.7063 -1.12719 0
M  V30 11754 H 1099.9 -1.44055 -3.5962 0
M  V30 11755 H 1100.31 -3.64747 -3.76908 0
M  V30 11756 H 1101.79 -2.42088 -4.96082 0
M  V30 11757 H 1102.26 -0.855341 -4.30791 0
M  V30 11758 H 1102.87 -2.34497 -3.54812 0
M  V30 11759 N 1101.18 1.11143 -1.11736 0
M  V30 11760 C 1102.41 1.87285 -0.891007 0
M  V30 11761 C 1102.83 1.79758 0.553971 0
M  V30 11762 O 1102.19 1.16221 1.39149 0
M  V30 11763 C 1102.24 3.33924 -1.36114 0
M  V30 11764 O 1101.34 4.08917 -0.534851 0
M  V30 11765 H 1100.69 0.581418 -0.320701 0
M  V30 11766 H 1103.22 1.40469 -1.4876 0
M  V30 11767 H 1103.23 3.84772 -1.35701 0
M  V30 11768 H 1101.9 3.38719 -2.41334 0
M  V30 11769 H 1100.48 3.67954 -0.605355 0
M  V30 11770 N 1102.66 0.908147 1.28804 0
M  V30 11771 C 1103.91 0.548635 1.95861 0
M  V30 11772 C 1104.26 -0.896789 1.70222 0
M  V30 11773 O 1103.56 -1.6285 1.00948 0
M  V30 11774 C 1103.75 0.787327 3.4862 0
M  V30 11775 C 1103.58 2.2544 3.8911 0
M  V30 11776 C 1102.35 2.90345 4.13555 0
M  V30 11777 C 1104.55 3.23034 4.00192 0
M  V30 11778 N 1102.53 4.27408 4.40676 0
M  V30 11779 C 1103.9 4.45242 4.31462 0
M  V30 11780 C 1105.96 3.18509 3.82696 0
M  V30 11781 C 1104.66 5.63498 4.47059 0
M  V30 11782 C 1106.68 4.36059 3.99508 0
M  V30 11783 C 1106.05 5.5704 4.31145 0
M  V30 11784 H 1102.15 0.250526 0.740784 0
M  V30 11785 H 1104.73 1.17071 1.55571 0
M  V30 11786 H 1102.9 0.194565 3.87912 0
M  V30 11787 H 1104.63 0.392407 4.02793 0
M  V30 11788 H 1101.39 2.411 4.07637 0
M  V30 11789 H 1101.81 4.98259 4.5833 0
M  V30 11790 H 1106.45 2.26058 3.57292 0
M  V30 11791 H 1104.17 6.56434 4.71296 0
M  V30 11792 H 1107.76 4.34054 3.87413 0
M  V30 11793 H 1106.64 6.46483 4.4388 0
M  V30 11794 N 1104.14 -1.42577 0.671525 0
M  V30 11795 C 1105.07 -2.2915 -0.0477361 0
M  V30 11796 C 1106.09 -1.43503 -0.768805 0
M  V30 11797 O 1107.27 -1.67256 -0.623509 0
M  V30 11798 C 1104.37 -3.20851 -1.09122 0
M  V30 11799 C 1103.55 -4.35134 -0.44463 0
M  V30 11800 C 1102.61 -5.07579 -1.38745 0
M  V30 11801 O 1101.63 -5.62215 -0.889015 0
M  V30 11802 N 1102.83 -5.12786 -2.72086 0
M  V30 11803 H 1105.6 -2.9152 0.695415 0
M  V30 11804 H 1103.16 -1.53467 0.515689 0
M  V30 11805 H 1105.15 -3.66183 -1.72315 0
M  V30 11806 H 1103.72 -2.59956 -1.73614 0
M  V30 11807 H 1102.94 -3.9249 0.36675 0
M  V30 11808 H 1104.23 -5.088 0.00595927 0
M  V30 11809 H 1103.63 -4.69802 -3.15123 0
M  V30 11810 H 1102.19 -5.61774 -3.30535 0
M  V30 11811 N 1105.62 -0.414636 -1.52048 0
M  V30 11812 C 1106.86 0.159585 -2.02171 0
M  V30 11813 C 1107.2 1.44321 -1.29943 0
M  V30 11814 O 1106.47 1.90185 -0.407402 0
M  V30 11815 C 1106.76 0.401655 -3.57853 0
M  V30 11816 C 1106.61 -0.899026 -4.40724 0
M  V30 11817 C 1107.93 1.1814 -4.23947 0
M  V30 11818 H 1105.05 0.0565257 -0.734829 0
M  V30 11819 H 1107.69 -0.549183 -1.8189 0
M  V30 11820 H 1105.84 1.00541 -3.75265 0
M  V30 11821 H 1107.51 -1.53502 -4.35011 0
M  V30 11822 H 1105.75 -1.50877 -4.06717 0
M  V30 11823 H 1106.42 -0.683974 -5.47746 0
M  V30 11824 H 1108.9 0.670203 -4.10667 0
M  V30 11825 H 1107.78 1.31953 -5.32804 0
M  V30 11826 H 1108.04 2.2035 -3.83273 0
M  V30 11827 N 1107.1 1.56929 -0.145233 0
M  V30 11828 C 1108.04 2.17958 0.812237 0
M  V30 11829 C 1109.04 1.13608 1.25657 0
M  V30 11830 O 1110.24 1.31861 1.22526 0
M  V30 11831 H 1106.62 0.697876 0.28013 0
M  V30 11832 H 1108.59 2.97146 0.273297 0
M  V30 11833 C 1107.34 2.81418 2.04203 0
M  V30 11834 H 1106.66 3.61427 1.70911 0
M  V30 11835 H 1108.1 3.27624 2.69144 0
M  V30 11836 C 1106.56 1.79835 2.84888 0
M  V30 11837 O 1107.09 1.26773 3.81171 0
M  V30 11838 N 1105.3 1.49179 2.49387 0
M  V30 11839 H 1104.84 1.9252 1.71154 0
M  V30 11840 H 1104.8 0.81458 3.03664 0
M  V30 11841 N 1108.58 -0.128553 1.57075 0
M  V30 11842 C 1109.82 -0.836355 1.83982 0
M  V30 11843 C 1110.14 -1.80862 0.728971 0
M  V30 11844 O 1109.41 -1.94326 -0.247859 0
M  V30 11845 H 1107.99 -0.31185 0.678792 0
M  V30 11846 H 1110.66 -0.118153 1.94542 0
M  V30 11847 H 1109.75 -1.38741 2.79567 0
M  V30 11848 N 1110.05 -1.5248 -0.398459 0
M  V30 11849 C 1110.96 -1.79492 -1.51062 0
M  V30 11850 C 1111.98 -0.681101 -1.60116 0
M  V30 11851 O 1113.16 -0.967671 -1.7663 0
M  V30 11852 C 1110.22 -1.94958 -2.86692 0
M  V30 11853 C 1109.28 -3.1887 -2.87438 0
M  V30 11854 C 1108.51 -3.33588 -4.16599 0
M  V30 11855 O 1108.74 -2.53327 -5.11059 0
M  V30 11856 O 1107.67 -4.26795 -4.24416 0
M  V30 11857 H 1111.5 -2.73913 -1.31169 0
M  V30 11858 H 1109.08 -1.37455 -0.585372 0
M  V30 11859 H 1110.96 -2.06891 -3.67116 0
M  V30 11860 H 1109.64 -1.03726 -3.06631 0
M  V30 11861 H 1108.55 -3.12386 -2.0583 0
M  V30 11862 H 1109.88 -4.09917 -2.7245 0
M  V30 11863 N 1111.53 0.65634 -1.43283 0
M  V30 11864 C 1112.76 1.44906 -1.48382 0
M  V30 11865 C 1113.18 1.87823 -0.101993 0
M  V30 11866 O 1112.54 1.57178 0.903597 0
M  V30 11867 C 1112.59 2.66231 -2.43215 0
M  V30 11868 O 1111.69 3.65176 -1.91625 0
M  V30 11869 H 1111.03 0.434601 -0.502014 0
M  V30 11870 H 1113.56 0.803429 -1.88165 0
M  V30 11871 H 1113.57 3.14083 -2.60414 0
M  V30 11872 H 1112.25 2.34336 -3.43598 0
M  V30 11873 H 1110.82 3.24302 -1.84072 0
M  V30 11874 N 1113.01 1.29761 0.894412 0
M  V30 11875 C 1113.94 1.17902 2.01547 0
M  V30 11876 C 1114.92 0.0719402 1.69948 0
M  V30 11877 O 1116.11 0.252338 1.92554 0
M  V30 11878 C 1113.24 0.860262 3.36477 0
M  V30 11879 C 1112.19 1.92424 3.82305 0
M  V30 11880 C 1111.52 1.45868 5.14419 0
M  V30 11881 C 1112.82 3.33391 4.02054 0
M  V30 11882 H 1114.51 2.11688 2.11727 0
M  V30 11883 H 1112.06 1.01916 1.01731 0
M  V30 11884 H 1114.01 0.763987 4.14417 0
M  V30 11885 H 1112.73 -0.113289 3.26403 0
M  V30 11886 H 1111.39 2.00999 3.06586 0
M  V30 11887 H 1111.04 0.473654 5.00765 0
M  V30 11888 H 1110.74 2.17028 5.46052 0
M  V30 11889 H 1112.26 1.37601 5.94894 0
M  V30 11890 H 1113.68 3.27628 4.7046 0
M  V30 11891 H 1112.07 4.02555 4.4505 0
M  V30 11892 H 1113.14 3.75978 3.06216 0
M  V30 11893 N 1114.49 -1.10549 1.12324 0
M  V30 11894 C 1115.42 -2.18911 0.812416 0
M  V30 11895 C 1116.4 -1.68628 -0.22327 0
M  V30 11896 O 1117.58 -1.94015 -0.0847184 0
M  V30 11897 C 1114.71 -3.46288 0.264947 0
M  V30 11898 C 1113.67 -4.09838 1.23356 0
M  V30 11899 C 1112.99 -5.31901 0.546374 0
M  V30 11900 C 1114.29 -4.53686 2.58778 0
M  V30 11901 H 1115.99 -2.45169 1.71851 0
M  V30 11902 H 1113.53 -1.17834 0.827715 0
M  V30 11903 H 1115.49 -4.21385 0.0352364 0
M  V30 11904 H 1114.21 -3.19517 -0.676479 0
M  V30 11905 H 1112.87 -3.36746 1.44906 0
M  V30 11906 H 1112.52 -5.01406 -0.400157 0
M  V30 11907 H 1112.22 -5.75372 1.19249 0
M  V30 11908 H 1113.74 -6.09731 0.325673 0
M  V30 11909 H 1115.16 -5.20063 2.41263 0
M  V30 11910 H 1113.55 -5.08003 3.19457 0
M  V30 11911 H 1114.62 -3.66665 3.17309 0
M  V30 11912 N 1115.97 -0.914965 -1.28321 0
M  V30 11913 C 1117.19 -0.564654 -1.99046 0
M  V30 11914 C 1117.61 0.854345 -1.68364 0
M  V30 11915 O 1116.97 1.56605 -0.937068 0
M  V30 11916 C 1117.02 -0.765663 -3.53299 0
M  V30 11917 O 1116.74 -2.12883 -3.829 0
M  V30 11918 C 1118.24 -0.422347 -4.41283 0
M  V30 11919 H 1115.46 -0.215158 -0.635569 0
M  V30 11920 H 1118 -1.2285 -1.63487 0
M  V30 11921 H 1116.16 -0.148795 -3.87114 0
M  V30 11922 H 1116.57 -2.1694 -4.77533 0
M  V30 11923 H 1118.05 -0.613757 -5.48577 0
M  V30 11924 H 1118.52 0.641484 -4.3449 0
M  V30 11925 H 1119.13 -1.01681 -4.12966 0
M  V30 11926 N 1117.44 1.42219 -0.679077 0
M  V30 11927 C 1118.86 1.55737 -0.349034 0
M  V30 11928 C 1119.06 1.65789 1.14527 0
M  V30 11929 O 1118.12 1.62717 1.93079 0
M  V30 11930 C 1119.43 2.80516 -1.0831 0
M  V30 11931 C 1120.98 2.94294 -1.06584 0
M  V30 11932 C 1121.45 4.2194 -1.78132 0
M  V30 11933 N 1122.94 4.28861 -1.75021 0
M  V30 11934 C 1123.68 5.26453 -2.27234 0
M  V30 11935 N 1123.17 6.30171 -2.87847 0
M  V30 11936 N 1124.97 5.1828 -2.17584 0
M  V30 11937 H 1117.12 1.33939 -1.64846 0
M  V30 11938 H 1119.38 0.645029 -0.694725 0
M  V30 11939 H 1119.09 2.79241 -2.13816 0
M  V30 11940 H 1118.96 3.71539 -0.651069 0
M  V30 11941 H 1121.35 2.95094 -0.0191061 0
M  V30 11942 H 1121.43 2.04491 -1.53679 0
M  V30 11943 H 1121.07 4.21901 -2.82776 0
M  V30 11944 H 1121 5.10685 -1.28483 0
M  V30 11945 H 1123.49 3.54537 -1.30814 0
M  V30 11946 H 1123.81 7.01 -3.25298 0
M  V30 11947 H 1122.15 6.30721 -2.91918 0
M  V30 11948 H 1125.34 4.36172 -1.69916 0
M  V30 11949 H 1125.52 5.94172 -2.58581 0
M  V30 11950 N 1118.92 0.422693 1.51826 0
M  V30 11951 C 1119.83 -0.40261 2.31119 0
M  V30 11952 C 1120.85 -1.04117 1.39412 0
M  V30 11953 O 1122.02 -1.03973 1.72486 0
M  V30 11954 C 1119.09 -1.49699 3.12716 0
M  V30 11955 C 1118.15 -0.880088 4.20182 0
M  V30 11956 C 1117.38 -1.92232 4.97878 0
M  V30 11957 O 1117.61 -3.14246 4.76031 0
M  V30 11958 O 1116.54 -1.521 5.82365 0
M  V30 11959 H 1120.37 0.244308 3.02716 0
M  V30 11960 H 1117.95 0.185569 1.48243 0
M  V30 11961 H 1119.83 -2.13202 3.63487 0
M  V30 11962 H 1118.51 -2.12826 2.43899 0
M  V30 11963 H 1117.41 -0.207404 3.73525 0
M  V30 11964 H 1118.75 -0.292535 4.9133 0
M  V30 11965 N 1120.4 -1.5685 0.153553 0
M  V30 11966 C 1121.81 -1.83074 -0.36618 0
M  V30 11967 C 1122.16 -1.07257 -1.64288 0
M  V30 11968 O 1121.29 -0.319925 -2.14022 0
M  V30 11969 C 1121.88 -3.32086 -0.671142 0
M  V30 11970 C 1120.44 -3.58868 -1.13537 0
M  V30 11971 C 1119.59 -2.76827 -0.161887 0
M  V30 11972 H 1122.54 -1.54129 0.378139 0
M  V30 11973 H 1122.56 -3.48598 -1.52512 0
M  V30 11974 H 1122.07 -3.8724 0.258234 0
M  V30 11975 H 1120.17 -3.09107 -2.08047 0
M  V30 11976 H 1120.29 -4.67299 -1.05682 0
M  V30 11977 H 1118.65 -2.46112 -0.6558 0
M  V30 11978 H 1119.43 -3.34755 0.761195 0
M  V30 11979 N 1121.88 0.120221 -1.57141 0
M  V30 11980 C 1122.82 1.14751 -2.00252 0
M  V30 11981 C 1123.79 1.41217 -0.874462 0
M  V30 11982 O 1124.98 1.53104 -1.13859 0
M  V30 11983 C 1122.12 2.46923 -2.41087 0
M  V30 11984 C 1121.23 2.27403 -3.67303 0
M  V30 11985 C 1120.37 3.52797 -3.97125 0
M  V30 11986 C 1119.41 3.28429 -5.16528 0
M  V30 11987 N 1118.54 4.46022 -5.42226 0
M  V30 11988 H 1123.38 0.772884 -2.87803 0
M  V30 11989 H 1120.92 0.370137 -1.42367 0
M  V30 11990 H 1122.88 3.24025 -2.62799 0
M  V30 11991 H 1121.51 2.82281 -1.5658 0
M  V30 11992 H 1120.56 1.41224 -3.53214 0
M  V30 11993 H 1121.87 2.05373 -4.54558 0
M  V30 11994 H 1121.03 4.38318 -4.19479 0
M  V30 11995 H 1119.77 3.77857 -3.08343 0
M  V30 11996 H 1118.77 2.41299 -4.94019 0
M  V30 11997 H 1120 3.0474 -6.06886 0
M  V30 11998 H 1117.94 4.71205 -4.56401 0
M  V30 11999 H 1117.86 4.27092 -6.23802 0
M  V30 12000 H 1119.13 5.3268 -5.69098 0
M  V30 12001 N 1123.36 1.52689 0.390367 0
M  V30 12002 C 1124.61 1.6689 1.13272 0
M  V30 12003 C 1124.92 0.414433 1.91159 0
M  V30 12004 O 1126.12 0.436559 2.67967 0
M  V30 12005 C 1124.58 2.94929 2.06264 0
M  V30 12006 C 1124.19 4.27551 1.33805 0
M  V30 12007 C 1125.93 3.18497 2.80642 0
M  V30 12008 C 1123.84 5.46698 2.25554 0
M  V30 12009 H 1122.77 0.621749 0.426549 0
M  V30 12010 H 1125.42 1.79185 0.395615 0
M  V30 12011 H 1123.8 2.76378 2.83604 0
M  V30 12012 H 1124.98 4.56651 0.616997 0
M  V30 12013 H 1123.29 4.10234 0.713913 0
M  V30 12014 H 1125.89 4.04693 3.49467 0
M  V30 12015 H 1126.23 2.33511 3.44642 0
M  V30 12016 H 1126.76 3.37607 2.10395 0
M  V30 12017 H 1123.5 6.34088 1.66171 0
M  V30 12018 H 1123.02 5.21913 2.95579 0
M  V30 12019 H 1124.7 5.80519 2.85668 0
M  V30 12020 N 1124.83 -0.648732 1.43629 0
M  V30 12021 C 1125.78 -1.78269 1.49409 0
M  V30 12022 C 1126.78 -1.6537 0.367288 0
M  V30 12023 O 1127.98 -1.71663 0.541476 0
M  V30 12024 H 1124.36 -0.58824 0.468484 0
M  V30 12025 H 1126.33 -1.70514 2.44883 0
M  V30 12026 C 1125.08 -3.16545 1.43856 0
M  V30 12027 H 1124.4 -3.2711 2.29868 0
M  V30 12028 H 1125.84 -3.95833 1.51961 0
M  V30 12029 C 1124.3 -3.36535 0.156779 0
M  V30 12030 O 1124.83 -3.94052 -0.780124 0
M  V30 12031 N 1123.04 -2.90526 0.0655319 0
M  V30 12032 H 1122.58 -2.43904 0.828768 0
M  V30 12033 H 1122.54 -3.04277 -0.791379 0
M  V30 12034 N 1126.31 -1.30234 -0.887518 0
M  V30 12035 C 1127.56 -1.1891 -1.6391 0
M  V30 12036 C 1127.89 0.256749 -1.92798 0
M  V30 12037 O 1127.14 1.20047 -1.54555 0
M  V30 12038 C 1127.44 -1.96046 -2.98832 0
M  V30 12039 C 1127.11 -3.45683 -2.89507 0
M  V30 12040 C 1125.77 -3.86489 -2.8667 0
M  V30 12041 C 1128.12 -4.40983 -2.7782 0
M  V30 12042 C 1125.45 -5.2089 -2.69982 0
M  V30 12043 C 1127.8 -5.75489 -2.6267 0
M  V30 12044 C 1126.47 -6.15537 -2.58207 0
M  V30 12045 H 1125.74 -0.435123 -0.599791 0
M  V30 12046 H 1128.38 -1.61308 -1.03209 0
M  V30 12047 H 1126.69 -1.46275 -3.6347 0
M  V30 12048 H 1128.38 -1.84678 -3.55942 0
M  V30 12049 H 1124.97 -3.13255 -2.92523 0
M  V30 12050 H 1129.16 -4.10401 -2.79079 0
M  V30 12051 H 1124.41 -5.51014 -2.6494 0
M  V30 12052 H 1128.59 -6.48973 -2.526 0
M  V30 12053 H 1126.22 -7.19627 -2.45034 0
M  V30 12054 N 1127.79 1.09952 -1.12909 0
M  V30 12055 C 1129.04 1.82016 -0.887482 0
M  V30 12056 C 1129.37 1.85445 0.586546 0
M  V30 12057 O 1128.62 1.31446 1.44984 0
M  V30 12058 C 1128.92 3.28252 -1.41369 0
M  V30 12059 C 1128.59 3.44965 -2.90362 0
M  V30 12060 C 1127.25 3.49233 -3.31043 0
M  V30 12061 C 1129.6 3.49947 -3.86247 0
M  V30 12062 C 1126.93 3.56057 -4.66305 0
M  V30 12063 C 1129.28 3.58305 -5.21345 0
M  V30 12064 C 1127.94 3.6084 -5.61561 0
M  V30 12065 H 1127.21 0.666046 -0.324753 0
M  V30 12066 H 1129.86 1.29568 -1.41012 0
M  V30 12067 H 1128.17 3.83301 -0.81163 0
M  V30 12068 H 1129.86 3.82533 -1.20289 0
M  V30 12069 H 1126.45 3.42323 -2.57901 0
M  V30 12070 H 1130.64 3.45895 -3.55908 0
M  V30 12071 H 1125.89 3.56305 -4.96847 0
M  V30 12072 H 1130.07 3.61104 -5.95463 0
M  V30 12073 H 1127.69 3.6588 -6.6636 0
M  V30 12074 N 1129.27 0.921757 1.27833 0
M  V30 12075 C 1130.22 0.414838 2.27041 0
M  V30 12076 C 1131.19 -0.515045 1.57913 0
M  V30 12077 O 1132.37 -0.435499 1.85763 0
M  V30 12078 C 1129.51 -0.331744 3.43502 0
M  V30 12079 C 1128.62 0.631565 4.27358 0
M  V30 12080 C 1127.76 -0.134265 5.3103 0
M  V30 12081 C 1126.8 0.822138 6.06554 0
M  V30 12082 N 1125.93 0.0893149 7.02043 0
M  V30 12083 H 1130.77 1.26585 2.69778 0
M  V30 12084 H 1128.31 0.635488 1.32665 0
M  V30 12085 H 1130.27 -0.780866 4.09827 0
M  V30 12086 H 1128.9 -1.14704 3.01733 0
M  V30 12087 H 1127.95 1.19922 3.61003 0
M  V30 12088 H 1129.26 1.36274 4.79824 0
M  V30 12089 H 1128.42 -0.643579 6.03277 0
M  V30 12090 H 1127.16 -0.898443 4.79353 0
M  V30 12091 H 1126.16 1.34275 5.33151 0
M  V30 12092 H 1127.39 1.586 6.6032 0
M  V30 12093 H 1125.33 -0.656725 6.52704 0
M  V30 12094 H 1125.25 0.760167 7.52169 0
M  V30 12095 H 1126.52 -0.399541 7.78475 0
M  V30 12096 N 1130.75 -1.41857 0.686609 0
M  V30 12097 C 1132.16 -1.84439 0.289662 0
M  V30 12098 C 1132.51 -1.57462 -1.17047 0
M  V30 12099 O 1131.63 -1.04046 -1.89745 0
M  V30 12100 C 1132.23 -3.34802 0.518948 0
M  V30 12101 C 1130.79 -3.75988 0.176007 0
M  V30 12102 C 1129.93 -2.65339 0.805632 0
M  V30 12103 H 1132.89 -1.31536 0.88792 0
M  V30 12104 H 1132.91 -3.79833 -0.225209 0
M  V30 12105 H 1132.42 -3.54405 1.58173 0
M  V30 12106 H 1130.52 -3.61989 -0.882865 0
M  V30 12107 H 1130.63 -4.75009 0.624772 0
M  V30 12108 H 1129 -2.53605 0.235966 0
M  V30 12109 H 1129.78 -2.87762 1.8721 0
M  V30 12110 N 1132.22 -0.430739 -1.51599 0
M  V30 12111 C 1133.16 0.429107 -2.24129 0
M  V30 12112 C 1134.14 1.03019 -1.25801 0
M  V30 12113 O 1135.32 1.07392 -1.54917 0
M  V30 12114 C 1132.45 1.59749 -2.9866 0
M  V30 12115 C 1131.49 1.11773 -4.11593 0
M  V30 12116 S 1132.33 0.0651468 -5.3546 0
M  V30 12117 C 1133.48 1.23835 -6.13527 0
M  V30 12118 H 1133.71 -0.186683 -2.96713 0
M  V30 12119 H 1131.25 -0.215201 -1.52893 0
M  V30 12120 H 1133.21 2.26735 -3.42201 0
M  V30 12121 H 1131.87 2.18468 -2.25678 0
M  V30 12122 H 1131.06 1.99125 -4.62996 0
M  V30 12123 H 1130.66 0.526209 -3.7028 0
M  V30 12124 H 1132.95 2.15796 -6.42214 0
M  V30 12125 H 1133.9 0.76443 -7.03962 0
M  V30 12126 H 1134.3 1.47393 -5.44918 0
M  V30 12127 N 1133.7 1.56767 -0.161869 0
M  V30 12128 C 1134.95 1.95769 0.485536 0
M  V30 12129 C 1135.26 1.05006 1.65025 0
M  V30 12130 O 1136.47 1.33649 2.36326 0
M  V30 12131 C 1134.93 3.4807 0.915176 0
M  V30 12132 C 1134.53 4.47443 -0.223416 0
M  V30 12133 C 1136.28 3.95909 1.53153 0
M  V30 12134 C 1134.19 5.90971 0.225325 0
M  V30 12135 H 1133.12 0.730911 0.185161 0
M  V30 12136 H 1135.77 1.81808 -0.248592 0
M  V30 12137 H 1134.15 3.57415 1.705 0
M  V30 12138 H 1135.32 4.49805 -1.00061 0
M  V30 12139 H 1133.64 4.09606 -0.749127 0
M  V30 12140 H 1136.23 5.00592 1.87915 0
M  V30 12141 H 1136.58 3.38307 2.42599 0
M  V30 12142 H 1137.11 3.89542 0.806322 0
M  V30 12143 H 1133.85 6.52426 -0.634124 0
M  V30 12144 H 1133.37 5.91936 0.96808 0
M  V30 12145 H 1135.05 6.43497 0.672373 0
M  V30 12146 N 1135.18 -0.111886 1.57202 0
M  V30 12147 C 1136.46 -0.849125 1.76208 0
M  V30 12148 C 1136.84 -1.97735 0.73919 0
M  V30 12149 O 1136.19 -2.27283 -0.235523 0
M  V30 12150 C 1136.4 -1.35924 3.21443 0
M  V30 12151 C 1137.74 -1.80874 3.84148 0
M  V30 12152 O 1138.77 -1.45587 3.25089 0
M  V30 12153 O 1137.63 -2.46065 4.87969 0
M  V30 12154 H 1134.72 -0.403761 0.721738 0
M  V30 12155 H 1137.27 -0.0950726 1.69433 0
M  V30 12156 H 1136.04 -0.550113 3.87414 0
M  V30 12157 H 1135.66 -2.17579 3.32784 0
M  V30 12158 N 1136.66 -1.52894 -0.382264 0
M  V30 12159 C 1137.61 -1.78799 -1.48774 0
M  V30 12160 C 1138.6 -0.65624 -1.56173 0
M  V30 12161 O 1139.81 -0.838856 -1.59258 0
M  V30 12162 H 1136.18 -0.565855 -0.49529 0
M  V30 12163 H 1138.15 -2.7136 -1.24122 0
M  V30 12164 C 1136.9 -1.97987 -2.85826 0
M  V30 12165 H 1136.22 -2.84505 -2.80886 0
M  V30 12166 H 1137.66 -2.20099 -3.62398 0
M  V30 12167 C 1136.12 -0.75427 -3.28348 0
M  V30 12168 O 1136.65 0.0650749 -4.01647 0
M  V30 12169 N 1134.86 -0.582457 -2.84703 0
M  V30 12170 H 1134.41 -1.25034 -2.2522 0
M  V30 12171 H 1134.36 0.236208 -3.13511 0
M  V30 12172 N 1138.14 0.641106 -1.43971 0
M  V30 12173 C 1139.09 1.74699 -1.46507 0
M  V30 12174 C 1140.07 1.57437 -0.332037 0
M  V30 12175 O 1141.26 1.67343 -0.576663 0
M  V30 12176 C 1138.39 3.13344 -1.40252 0
M  V30 12177 C 1137.48 3.3611 -2.58632 0
M  V30 12178 N 1137.87 3.29291 -3.83929 0
M  V30 12179 C 1136.17 3.66873 -2.53615 0
M  V30 12180 C 1136.87 3.52472 -4.62751 0
M  V30 12181 N 1135.84 3.74868 -3.93668 0
M  V30 12182 H 1139.65 1.67869 -2.41241 0
M  V30 12183 H 1137.16 0.843217 -1.38793 0
M  V30 12184 H 1139.16 3.92636 -1.40153 0
M  V30 12185 H 1137.82 3.21346 -0.46549 0
M  V30 12186 H 1138.83 3.08431 -4.16041 0
M  V30 12187 H 1135.51 3.81917 -1.68659 0
M  V30 12188 H 1136.9 3.52876 -5.71776 0
M  V30 12189 N 1139.62 1.30703 0.880598 0
M  V30 12190 C 1140.56 1.17455 1.98678 0
M  V30 12191 C 1141.53 0.0629569 1.65981 0
M  V30 12192 O 1142.72 0.233926 1.89361 0
M  V30 12193 C 1139.86 0.876882 3.33774 0
M  V30 12194 C 1138.97 2.07078 3.79134 0
M  V30 12195 C 1138.11 1.71082 5.02896 0
M  V30 12196 C 1137.14 2.86942 5.40676 0
M  V30 12197 N 1136.28 2.51212 6.55619 0
M  V30 12198 H 1141.12 2.12086 2.09341 0
M  V30 12199 H 1138.66 1.05514 1.02495 0
M  V30 12200 H 1140.62 0.684899 4.1154 0
M  V30 12201 H 1139.25 -0.0325633 3.22784 0
M  V30 12202 H 1138.3 2.37388 2.97239 0
M  V30 12203 H 1139.61 2.9383 4.0307 0
M  V30 12204 H 1138.76 1.48284 5.883 0
M  V30 12205 H 1137.5 0.815064 4.80841 0
M  V30 12206 H 1136.51 3.10401 4.53797 0
M  V30 12207 H 1137.73 3.77211 5.64703 0
M  V30 12208 H 1135.68 1.64147 6.35131 0
M  V30 12209 H 1135.6 3.31495 6.79446 0
M  V30 12210 H 1136.86 2.31781 7.44243 0
M  V30 12211 N 1141.09 -1.09351 1.1349 0
M  V30 12212 C 1142.03 -2.15852 0.770763 0
M  V30 12213 C 1143.04 -1.61468 -0.207866 0
M  V30 12214 O 1144.23 -1.78496 0.0124385 0
M  V30 12215 C 1141.33 -3.38681 0.121871 0
M  V30 12216 C 1140.5 -4.22477 1.13279 0
M  V30 12217 C 1139.56 -5.23728 0.509448 0
M  V30 12218 O 1138.59 -5.57052 1.16967 0
M  V30 12219 N 1139.79 -5.76041 -0.718159 0
M  V30 12220 H 1142.55 -2.47696 1.6872 0
M  V30 12221 H 1140.11 -1.25074 1.02801 0
M  V30 12222 H 1142.11 -4.03531 -0.307404 0
M  V30 12223 H 1140.68 -3.04718 -0.697527 0
M  V30 12224 H 1139.9 -3.53753 1.73933 0
M  V30 12225 H 1141.18 -4.75288 1.81601 0
M  V30 12226 H 1140.58 -5.51183 -1.27331 0
M  V30 12227 H 1139.14 -6.4262 -1.09008 0
M  V30 12228 N 1142.57 -0.928524 -1.27343 0
M  V30 12229 C 1143.48 -0.433901 -2.30553 0
M  V30 12230 C 1144.5 0.485832 -1.6708 0
M  V30 12231 O 1145.67 0.36844 -1.98001 0
M  V30 12232 C 1142.74 0.304617 -3.45359 0
M  V30 12233 C 1141.8 -0.650131 -4.24349 0
M  V30 12234 C 1141.03 0.0532372 -5.33673 0
M  V30 12235 O 1141.26 1.27246 -5.56026 0
M  V30 12236 O 1140.19 -0.619009 -5.98709 0
M  V30 12237 H 1144.02 -1.2909 -2.74899 0
M  V30 12238 H 1141.6 -0.693903 -1.32308 0
M  V30 12239 H 1143.48 0.721137 -4.15184 0
M  V30 12240 H 1142.16 1.13721 -3.03066 0
M  V30 12241 H 1141.06 -1.11635 -3.57055 0
M  V30 12242 H 1142.4 -1.44996 -4.70358 0
M  V30 12243 N 1144.05 1.41491 -0.694123 0
M  V30 12244 C 1145.28 2.0528 -0.233128 0
M  V30 12245 C 1145.69 1.52329 1.12217 0
M  V30 12246 O 1145.03 0.66579 1.7121 0
M  V30 12247 C 1145.09 3.59326 -0.111718 0
M  V30 12248 C 1144.76 4.35065 -1.39882 0
M  V30 12249 C 1145.75 4.64446 -2.33637 0
M  V30 12250 C 1143.44 4.74364 -1.65179 0
M  V30 12251 C 1145.43 5.32083 -3.50951 0
M  V30 12252 C 1143.12 5.41737 -2.82779 0
M  V30 12253 C 1144.12 5.70524 -3.75488 0
M  V30 12254 O 1143.81 6.36511 -4.91029 0
M  V30 12255 H 1143.54 0.667571 -0.106418 0
M  V30 12256 H 1146.09 1.82276 -0.94682 0
M  V30 12257 H 1144.32 3.81065 0.65773 0
M  V30 12258 H 1146.01 4.047 0.311906 0
M  V30 12259 H 1146.78 4.34568 -2.1535 0
M  V30 12260 H 1142.66 4.5134 -0.93881 0
M  V30 12261 H 1146.2 5.54468 -4.23333 0
M  V30 12262 H 1142.1 5.71033 -3.00984 0
M  V30 12263 H 1142.86 6.55006 -4.90825 0
M  V30 12264 N 1145.53 0.438773 1.51369 0
M  V30 12265 C 1146.44 -0.378074 2.31534 0
M  V30 12266 C 1147.45 -1.02632 1.40508 0
M  V30 12267 O 1148.63 -1.02138 1.73579 0
M  V30 12268 C 1145.69 -1.46374 3.14286 0
M  V30 12269 C 1144.76 -0.835473 4.21092 0
M  V30 12270 C 1143.99 -1.86941 4.99889 0
M  V30 12271 O 1144.21 -3.0918 4.79337 0
M  V30 12272 O 1143.15 -1.45914 5.83946 0
M  V30 12273 H 1146.97 0.276401 3.0244 0
M  V30 12274 H 1144.56 0.201281 1.48038 0
M  V30 12275 H 1146.44 -2.09335 3.65728 0
M  V30 12276 H 1145.11 -2.10227 2.46143 0
M  V30 12277 H 1144.02 -0.167775 3.73724 0
M  V30 12278 H 1145.35 -0.240406 4.91613 0
M  V30 12279 N 1147.01 -1.56678 0.170181 0
M  V30 12280 C 1148.25 -1.9646 -0.474125 0
M  V30 12281 C 1148.57 -1.05719 -1.63855 0
M  V30 12282 O 1147.84 -0.123316 -1.95511 0
M  V30 12283 H 1146.42 -0.725446 -0.178149 0
M  V30 12284 H 1149.09 -1.93276 0.251099 0
M  V30 12285 H 1148.18 -3.00726 -0.834894 0
M  V30 12286 N 1148.48 0.103547 -1.57259 0
M  V30 12287 C 1149.41 1.12714 -2.04494 0
M  V30 12288 C 1150.39 1.42278 -0.932255 0
M  V30 12289 O 1151.58 1.52453 -1.20298 0
M  V30 12290 C 1148.71 2.44927 -2.46228 0
M  V30 12291 C 1147.66 2.2979 -3.61082 0
M  V30 12292 C 1146.99 3.67105 -3.88765 0
M  V30 12293 C 1148.29 1.7455 -4.9227 0
M  V30 12294 H 1149.98 0.734198 -2.90258 0
M  V30 12295 H 1147.53 0.351725 -1.39638 0
M  V30 12296 H 1149.48 3.16798 -2.77879 0
M  V30 12297 H 1148.21 2.8614 -1.57453 0
M  V30 12298 H 1146.87 1.60366 -3.29664 0
M  V30 12299 H 1146.51 4.05831 -2.97171 0
M  V30 12300 H 1146.21 3.57825 -4.66084 0
M  V30 12301 H 1147.74 4.40456 -4.22884 0
M  V30 12302 H 1149.15 2.36253 -5.22358 0
M  V30 12303 H 1147.55 1.76051 -5.73695 0
M  V30 12304 H 1148.62 0.704242 -4.79759 0
M  V30 12305 N 1149.96 1.53094 0.37415 0
M  V30 12306 C 1151.21 1.70059 1.11586 0
M  V30 12307 C 1151.56 0.442567 1.87241 0
M  V30 12308 O 1150.86 -0.564198 1.83105 0
M  V30 12309 C 1151.05 2.88432 2.11049 0
M  V30 12310 C 1150.88 4.25625 1.45166 0
M  V30 12311 C 1149.65 4.90613 1.20942 0
M  V30 12312 C 1151.85 5.06472 0.893887 0
M  V30 12313 N 1149.83 6.11751 0.513196 0
M  V30 12314 C 1151.2 6.19139 0.326549 0
M  V30 12315 C 1153.25 4.91565 0.791739 0
M  V30 12316 C 1151.96 7.18529 -0.332963 0
M  V30 12317 C 1153.98 5.9122 0.146023 0
M  V30 12318 C 1153.35 7.03203 -0.410477 0
M  V30 12319 H 1149.44 0.675625 0.39377 0
M  V30 12320 H 1152.03 1.90475 0.403383 0
M  V30 12321 H 1150.2 2.6957 2.79619 0
M  V30 12322 H 1151.93 2.94261 2.77835 0
M  V30 12323 H 1148.69 4.49604 1.48841 0
M  V30 12324 H 1149.11 6.76759 0.180695 0
M  V30 12325 H 1153.75 4.05183 1.20776 0
M  V30 12326 H 1151.47 8.04509 -0.76096 0
M  V30 12327 H 1155.06 5.8176 0.0680321 0
M  V30 12328 H 1153.94 7.78993 -0.90223 0
M  V30 12329 N 1151.44 -0.633461 1.44309 0
M  V30 12330 C 1152.37 -1.75868 1.4698 0
M  V30 12331 C 1153.38 -1.58691 0.363469 0
M  V30 12332 O 1154.57 -1.67048 0.629075 0
M  V30 12333 C 1151.67 -3.1356 1.28582 0
M  V30 12334 C 1150.85 -3.57217 2.52418 0
M  V30 12335 C 1149.91 -4.73779 2.28954 0
M  V30 12336 O 1148.93 -4.8221 3.02428 0
M  V30 12337 N 1150.13 -5.65324 1.31866 0
M  V30 12338 H 1152.9 -1.74048 2.43983 0
M  V30 12339 H 1150.46 -0.817952 1.39718 0
M  V30 12340 H 1152.45 -3.89255 1.10736 0
M  V30 12341 H 1151.02 -3.10036 0.399529 0
M  V30 12342 H 1150.24 -2.71755 2.85557 0
M  V30 12343 H 1151.53 -3.83136 3.3479 0
M  V30 12344 H 1150.93 -5.61204 0.71179 0
M  V30 12345 H 1149.48 -6.40659 1.19998 0
M  V30 12346 N 1152.92 -1.31168 -0.873655 0
M  V30 12347 C 1154.33 -1.18584 -1.44203 0
M  V30 12348 C 1154.68 0.209114 -1.95082 0
M  V30 12349 O 1153.81 1.10662 -1.85965 0
M  V30 12350 C 1154.4 -2.14668 -2.62112 0
M  V30 12351 C 1152.96 -2.06029 -3.15006 0
M  V30 12352 C 1152.11 -2.04106 -1.87712 0
M  V30 12353 H 1155.06 -1.43273 -0.682536 0
M  V30 12354 H 1155.08 -1.73413 -3.38686 0
M  V30 12355 H 1154.59 -3.16186 -2.25051 0
M  V30 12356 H 1152.69 -1.07693 -3.56697 0
M  V30 12357 H 1152.8 -2.9496 -3.77539 0
M  V30 12358 H 1151.17 -1.49069 -2.0652 0
M  V30 12359 H 1151.95 -3.07373 -1.52894 0
M  V30 12360 N 1154.4 1.08748 -1.14068 0
M  V30 12361 C 1155.34 2.17667 -0.819981 0
M  V30 12362 C 1156.34 1.68207 0.200654 0
M  V30 12363 O 1157.54 1.79909 0.0571014 0
M  V30 12364 H 1153.92 0.710129 -0.247427 0
M  V30 12365 H 1155.89 2.41944 -1.74659 0
M  V30 12366 C 1154.64 3.46315 -0.309985 0
M  V30 12367 H 1153.96 3.84748 -1.08669 0
M  V30 12368 H 1155.4 4.23818 -0.124094 0
M  V30 12369 C 1153.86 3.22762 0.965724 0
M  V30 12370 O 1154.39 3.46034 2.04018 0
M  V30 12371 N 1152.6 2.76326 0.899576 0
M  V30 12372 H 1152.14 2.57588 0.0250598 0
M  V30 12373 H 1152.1 2.60945 1.75371 0
M  V30 12374 N 1155.87 0.935264 1.26849 0
M  V30 12375 C 1156.82 0.411166 2.24262 0
M  V30 12376 C 1157.81 -0.488804 1.53296 0
M  V30 12377 O 1159 -0.325015 1.7399 0
M  V30 12378 C 1156.13 -0.327941 3.4173 0
M  V30 12379 C 1155.22 0.58898 4.1999 0
M  V30 12380 N 1155.61 1.71216 4.7594 0
M  V30 12381 C 1153.9 0.393431 4.44261 0
M  V30 12382 C 1154.61 2.28306 5.35024 0
M  V30 12383 N 1153.58 1.57176 5.20381 0
M  V30 12384 H 1157.38 1.26864 2.65109 0
M  V30 12385 H 1154.9 0.790429 1.41866 0
M  V30 12386 H 1156.89 -0.720404 4.10629 0
M  V30 12387 H 1155.55 -1.18225 3.02412 0
M  V30 12388 H 1156.57 2.09441 4.73661 0
M  V30 12389 H 1153.24 -0.419596 4.15386 0
M  V30 12390 H 1154.63 3.22909 5.89219 0
M  V30 12391 N 1157.35 -1.41121 0.701616 0
M  V30 12392 C 1158.28 -2.33436 0.0545974 0
M  V30 12393 C 1159.26 -1.52144 -0.760662 0
M  V30 12394 O 1160.45 -1.80661 -0.712414 0
M  V30 12395 C 1157.58 -3.36015 -0.878117 0
M  V30 12396 C 1156.53 -4.27664 -0.169511 0
M  V30 12397 C 1155.86 -5.20666 -1.21699 0
M  V30 12398 C 1157.16 -5.13254 0.967859 0
M  V30 12399 H 1158.85 -2.87791 0.825637 0
M  V30 12400 H 1156.4 -1.38377 0.398484 0
M  V30 12401 H 1158.35 -3.99526 -1.34004 0
M  V30 12402 H 1157.08 -2.80024 -1.68089 0
M  V30 12403 H 1155.73 -3.65586 0.272441 0
M  V30 12404 H 1155.38 -4.60987 -2.01246 0
M  V30 12405 H 1155.08 -5.82822 -0.747836 0
M  V30 12406 H 1156.61 -5.87053 -1.6793 0
M  V30 12407 H 1158.02 -5.70298 0.585944 0
M  V30 12408 H 1156.42 -5.84381 1.3645 0
M  V30 12409 H 1157.49 -4.5006 1.80483 0
M  V30 12410 N 1158.83 -0.446794 -1.51134 0
M  V30 12411 C 1159.76 0.395804 -2.25757 0
M  V30 12412 C 1160.78 0.978178 -1.30137 0
M  V30 12413 O 1161.96 0.87071 -1.55823 0
M  V30 12414 C 1159.06 1.56665 -3.00515 0
M  V30 12415 C 1158.24 1.10146 -4.23305 0
M  V30 12416 C 1157.3 2.14352 -4.80562 0
M  V30 12417 O 1156.32 1.73401 -5.42145 0
M  V30 12418 N 1157.52 3.46932 -4.65423 0
M  V30 12419 H 1160.29 -0.243808 -2.98707 0
M  V30 12420 H 1157.85 -0.276205 -1.59527 0
M  V30 12421 H 1159.84 2.26019 -3.35704 0
M  V30 12422 H 1158.41 2.11142 -2.30516 0
M  V30 12423 H 1157.63 0.234644 -3.93501 0
M  V30 12424 H 1158.92 0.768185 -5.02968 0
M  V30 12425 H 1158.32 3.82929 -4.16391 0
M  V30 12426 H 1156.88 4.12154 -5.04948 0
M  V30 12427 N 1160.31 1.56586 -0.178487 0
M  V30 12428 C 1161.56 1.96273 0.464745 0
M  V30 12429 C 1161.87 1.0675 1.63902 0
M  V30 12430 O 1163.08 1.36148 2.34896 0
M  V30 12431 C 1161.53 3.49021 0.878207 0
M  V30 12432 C 1161.14 4.4718 -0.270861 0
M  V30 12433 C 1162.88 3.97512 1.48946 0
M  V30 12434 C 1160.79 5.91176 0.162632 0
M  V30 12435 H 1159.72 0.732834 0.177398 0
M  V30 12436 H 1162.37 1.81534 -0.267861 0
M  V30 12437 H 1160.75 3.59203 1.667 0
M  V30 12438 H 1161.93 4.48718 -1.04826 0
M  V30 12439 H 1160.24 4.08788 -0.792529 0
M  V30 12440 H 1162.84 5.02556 1.82595 0
M  V30 12441 H 1163.18 3.40861 2.38997 0
M  V30 12442 H 1163.72 3.90376 0.76496 0
M  V30 12443 H 1160.46 6.51716 -0.703286 0
M  V30 12444 H 1159.98 5.9293 0.905243 0
M  V30 12445 H 1161.65 6.44174 0.604084 0
M  V30 12446 N 1161.79 -0.095206 1.57312 0
M  V30 12447 C 1162.72 -1.14662 1.97301 0
M  V30 12448 C 1163.7 -1.38845 0.846212 0
M  V30 12449 O 1164.88 -1.52607 1.1065 0
M  V30 12450 C 1162.01 -2.49582 2.28968 0
M  V30 12451 C 1161.05 -2.41681 3.51415 0
M  V30 12452 S 1161.89 -1.83343 5.03136 0
M  V30 12453 C 1163.04 -3.19888 5.3798 0
M  V30 12454 H 1163.28 -0.805726 2.86174 0
M  V30 12455 H 1160.81 -0.302881 1.514 0
M  V30 12456 H 1162.77 -3.27202 2.47889 0
M  V30 12457 H 1161.43 -2.80841 1.40667 0
M  V30 12458 H 1160.62 -3.41122 3.71015 0
M  V30 12459 H 1160.22 -1.7219 3.32004 0
M  V30 12460 H 1162.52 -4.16161 5.34618 0
M  V30 12461 H 1163.46 -3.05093 6.39002 0
M  V30 12462 H 1163.87 -3.19414 4.6544 0
M  V30 12463 N 1163.26 -1.53291 -0.366026 0
M  V30 12464 C 1164.2 -1.75981 -1.46845 0
M  V30 12465 C 1165.21 -0.640574 -1.49668 0
M  V30 12466 O 1166.4 -0.916823 -1.53155 0
M  V30 12467 C 1163.5 -1.82426 -2.85611 0
M  V30 12468 C 1162.67 -3.12062 -3.0649 0
M  V30 12469 C 1161.73 -3.09755 -4.25368 0
M  V30 12470 O 1160.76 -3.83555 -4.20564 0
M  V30 12471 N 1161.96 -2.30544 -5.32757 0
M  V30 12472 H 1164.72 -2.71104 -1.2776 0
M  V30 12473 H 1162.28 -1.52063 -0.555745 0
M  V30 12474 H 1164.28 -1.78361 -3.63276 0
M  V30 12475 H 1162.85 -0.945888 -2.97946 0
M  V30 12476 H 1162.07 -3.29433 -2.16489 0
M  V30 12477 H 1163.35 -3.97735 -3.17308 0
M  V30 12478 H 1162.75 -1.70095 -5.39522 0
M  V30 12479 H 1161.31 -2.32298 -6.09 0
M  V30 12480 N 1164.74 0.6258 -1.44643 0
M  V30 12481 C 1165.65 1.76611 -1.5442 0
M  V30 12482 C 1166.67 1.68614 -0.429576 0
M  V30 12483 O 1167.84 1.89296 -0.687686 0
M  V30 12484 C 1164.91 3.13015 -1.49071 0
M  V30 12485 C 1163.97 3.32604 -2.71428 0
M  V30 12486 C 1163.2 4.62501 -2.66325 0
M  V30 12487 O 1163.43 5.43651 -1.72626 0
M  V30 12488 O 1162.36 4.84408 -3.57258 0
M  V30 12489 H 1166.19 1.71315 -2.50769 0
M  V30 12490 H 1163.77 0.787677 -1.26949 0
M  V30 12491 H 1165.65 3.94318 -1.48631 0
M  V30 12492 H 1164.33 3.18842 -0.558686 0
M  V30 12493 H 1163.24 2.50959 -2.77435 0
M  V30 12494 H 1164.57 3.31642 -3.63695 0
M  V30 12495 N 1166.22 1.31629 0.866686 0
M  V30 12496 C 1167.17 1.16149 1.96197 0
M  V30 12497 C 1168.15 0.0716068 1.60741 0
M  V30 12498 O 1169.35 0.296868 1.74493 0
M  V30 12499 C 1166.48 0.874322 3.3198 0
M  V30 12500 C 1165.56 2.00534 3.73693 0
M  V30 12501 N 1165.95 3.25272 3.87339 0
M  V30 12502 C 1164.25 1.90582 4.0323 0
M  V30 12503 C 1164.95 3.99275 4.2303 0
M  V30 12504 N 1163.93 3.27471 4.33894 0
M  V30 12505 H 1167.73 2.10732 2.04864 0
M  V30 12506 H 1165.24 1.23234 1.05769 0
M  V30 12507 H 1167.24 0.7444 4.102 0
M  V30 12508 H 1165.9 -0.0632521 3.24638 0
M  V30 12509 H 1166.91 3.60349 3.71979 0
M  V30 12510 H 1163.59 1.0431 4.0426 0
M  V30 12511 H 1164.98 5.06784 4.41157 0
M  V30 12512 N 1167.7 -1.08142 1.14644 0
M  V30 12513 C 1168.63 -2.17139 0.858667 0
M  V30 12514 C 1169.61 -1.69064 -0.187452 0
M  V30 12515 O 1170.8 -1.94151 -0.0435458 0
M  V30 12516 C 1167.93 -3.45648 0.33834 0
M  V30 12517 C 1166.88 -4.07129 1.32021 0
M  V30 12518 C 1166.21 -5.30623 0.659075 0
M  V30 12519 C 1167.51 -4.48095 2.68343 0
M  V30 12520 H 1169.2 -2.41468 1.77012 0
M  V30 12521 H 1166.75 -1.16052 0.852523 0
M  V30 12522 H 1168.7 -4.21216 0.124611 0
M  V30 12523 H 1167.42 -3.2088 -0.608553 0
M  V30 12524 H 1166.08 -3.33596 1.52016 0
M  V30 12525 H 1165.73 -5.02142 -0.293711 0
M  V30 12526 H 1165.43 -5.72714 1.31427 0
M  V30 12527 H 1166.95 -6.08903 0.454933 0
M  V30 12528 H 1168.37 -5.14828 2.5224 0
M  V30 12529 H 1166.76 -5.01113 3.30161 0
M  V30 12530 H 1167.83 -3.59852 3.25015 0
M  V30 12531 N 1169.18 -0.941978 -1.26351 0
M  V30 12532 C 1170.59 -0.644413 -1.46012 0
M  V30 12533 C 1170.79 0.802031 -1.84851 0
M  V30 12534 O 1169.85 1.57859 -1.9707 0
M  V30 12535 C 1171.16 -1.60652 -2.54188 0
M  V30 12536 C 1172.71 -1.6163 -2.68038 0
M  V30 12537 C 1173.19 -2.56573 -3.79387 0
M  V30 12538 N 1174.68 -2.54863 -3.8678 0
M  V30 12539 C 1175.41 -3.2501 -4.72394 0
M  V30 12540 N 1174.91 -4.04586 -5.6239 0
M  V30 12541 N 1176.7 -3.13958 -4.66247 0
M  V30 12542 H 1168.85 -1.8769 -0.994293 0
M  V30 12543 H 1171.11 -0.806621 -0.498063 0
M  V30 12544 H 1170.82 -2.63907 -2.32478 0
M  V30 12545 H 1170.69 -1.3592 -3.5186 0
M  V30 12546 H 1173.08 -0.59099 -2.89122 0
M  V30 12547 H 1173.16 -1.90417 -1.70807 0
M  V30 12548 H 1172.81 -3.59223 -3.59056 0
M  V30 12549 H 1172.74 -2.25077 -4.76076 0
M  V30 12550 H 1175.23 -1.97082 -3.22439 0
M  V30 12551 H 1175.54 -4.55061 -6.24612 0
M  V30 12552 H 1173.89 -4.08687 -5.62139 0
M  V30 12553 H 1177.08 -2.51273 -3.94943 0
M  V30 12554 H 1177.25 -3.68894 -5.32749 0
M  V30 12555 N 1170.66 1.40747 -0.709091 0
M  V30 12556 C 1171.93 1.94831 -0.173246 0
M  V30 12557 C 1172.31 1.64766 1.31967 0
M  V30 12558 O 1171.66 0.961853 2.07269 0
M  V30 12559 C 1171.87 3.45697 -0.479013 0
M  V30 12560 C 1173.22 4.22576 -0.414122 0
M  V30 12561 O 1174.24 3.53778 -0.414699 0
M  V30 12562 O 1173.1 5.45135 -0.385986 0
M  V30 12563 H 1170.2 0.826683 -0.0228947 0
M  V30 12564 H 1172.74 1.50391 -0.786178 0
M  V30 12565 H 1171.51 3.60914 -1.51185 0
M  V30 12566 H 1171.14 3.97261 0.164211 0
M  V30 12567 N 1172.13 0.454803 1.50895 0
M  V30 12568 C 1173.38 -0.10577 2.02224 0
M  V30 12569 C 1173.71 -1.41176 1.33789 0
M  V30 12570 O 1172.96 -1.90522 0.447181 0
M  V30 12571 C 1173.26 -0.354159 3.55641 0
M  V30 12572 C 1172.93 0.868136 4.42464 0
M  V30 12573 C 1171.59 1.2033 4.65912 0
M  V30 12574 C 1173.94 1.68272 4.93289 0
M  V30 12575 C 1171.27 2.3534 5.37431 0
M  V30 12576 C 1173.62 2.82396 5.6607 0
M  V30 12577 C 1172.29 3.16346 5.87777 0
M  V30 12578 H 1171.56 -0.0387041 0.739989 0
M  V30 12579 H 1174.2 0.605564 1.81673 0
M  V30 12580 H 1172.51 -1.14757 3.74617 0
M  V30 12581 H 1174.21 -0.8016 3.92906 0
M  V30 12582 H 1170.8 0.596995 4.24422 0
M  V30 12583 H 1174.98 1.43698 4.75042 0
M  V30 12584 H 1170.24 2.61936 5.52449 0
M  V30 12585 H 1174.41 3.45873 6.04438 0
M  V30 12586 H 1172.04 4.05574 6.42973 0
M  V30 12587 N 1173.61 -1.56489 0.186789 0
M  V30 12588 C 1174.57 -2.17478 -0.723596 0
M  V30 12589 C 1175.57 -1.12698 -1.14699 0
M  V30 12590 O 1176.76 -1.38128 -1.06143 0
M  V30 12591 C 1173.9 -2.77015 -1.98685 0
M  V30 12592 H 1175.09 -2.99282 -0.192403 0
M  V30 12593 H 1172.64 -1.56174 -0.0628153 0
M  V30 12594 H 1173.38 -1.98987 -2.56076 0
M  V30 12595 H 1173.16 -3.53711 -1.69207 0
M  V30 12596 H 1174.65 -3.23872 -2.63622 0
M  V30 12597 N 1175.09 0.086862 -1.5736 0
M  V30 12598 C 1176.34 0.790008 -1.8678 0
M  V30 12599 C 1176.67 1.77977 -0.777042 0
M  V30 12600 O 1175.94 1.93317 0.21419 0
M  V30 12601 C 1176.23 1.51143 -3.26845 0
M  V30 12602 C 1176.08 0.539106 -4.46558 0
M  V30 12603 C 1177.4 2.46003 -3.64926 0
M  V30 12604 H 1174.52 0.285741 -0.679354 0
M  V30 12605 H 1177.16 0.0534655 -1.89925 0
M  V30 12606 H 1175.31 2.13928 -3.24295 0
M  V30 12607 H 1176.98 -0.0823679 -4.61226 0
M  V30 12608 H 1175.22 -0.146842 -4.33551 0
M  V30 12609 H 1175.9 1.0812 -5.41308 0
M  V30 12610 H 1178.37 1.93306 -3.68473 0
M  V30 12611 H 1177.25 2.93493 -4.63846 0
M  V30 12612 H 1177.51 3.30133 -2.94049 0
M  V30 12613 N 1176.57 1.53483 0.357892 0
M  V30 12614 C 1177.48 1.83434 1.4625 0
M  V30 12615 C 1178.49 0.723313 1.58254 0
M  V30 12616 O 1179.67 1.01416 1.74002 0
M  V30 12617 C 1176.73 2.0249 2.81423 0
M  V30 12618 C 1175.8 3.26378 2.78883 0
M  V30 12619 C 1175.03 3.44516 4.07608 0
M  V30 12620 O 1175.25 2.66787 5.04163 0
M  V30 12621 O 1174.19 4.37898 4.12952 0
M  V30 12622 H 1178.01 2.77294 1.23861 0
M  V30 12623 H 1175.6 1.38958 0.548722 0
M  V30 12624 H 1177.48 2.16552 3.61501 0
M  V30 12625 H 1176.15 1.11819 3.03773 0
M  V30 12626 H 1175.06 3.17733 1.97475 0
M  V30 12627 H 1176.39 4.16996 2.61486 0
M  V30 12628 N 1178.05 -0.61812 1.44973 0
M  V30 12629 C 1178.98 -1.74299 1.48837 0
M  V30 12630 C 1179.99 -1.58296 0.38028 0
M  V30 12631 O 1181.18 -1.66371 0.646757 0
M  V30 12632 C 1178.28 -3.12179 1.31901 0
M  V30 12633 C 1177.45 -3.54519 2.56193 0
M  V30 12634 C 1176.51 -4.71324 2.33966 0
M  V30 12635 O 1175.54 -4.78975 3.07525 0
M  V30 12636 N 1176.74 -5.63894 1.37854 0
M  V30 12637 H 1179.5 -1.7145 2.45815 0
M  V30 12638 H 1177.07 -0.803087 1.40578 0
M  V30 12639 H 1179.06 -3.88059 1.14858 0
M  V30 12640 H 1177.63 -3.09595 0.43239 0
M  V30 12641 H 1176.85 -2.68711 2.88423 0
M  V30 12642 H 1178.14 -3.79563 3.38835 0
M  V30 12643 H 1177.53 -5.60418 0.771273 0
M  V30 12644 H 1176.09 -6.3935 1.26787 0
M  V30 12645 N 1179.52 -1.32087 -0.859693 0
M  V30 12646 C 1180.75 -1.25486 -1.6513 0
M  V30 12647 C 1181.17 0.175015 -1.87284 0
M  V30 12648 O 1180.53 1.12468 -1.42199 0
M  V30 12649 C 1180.58 -2.01469 -2.9907 0
M  V30 12650 O 1179.68 -1.35904 -3.89363 0
M  V30 12651 H 1179.02 -0.432728 -0.503629 0
M  V30 12652 H 1181.55 -1.74322 -1.07112 0
M  V30 12653 H 1181.56 -2.11452 -3.4893 0
M  V30 12654 H 1180.24 -3.05448 -2.82266 0
M  V30 12655 H 1178.82 -1.34437 -3.47823 0
M  V30 12656 N 1181 1.07532 -1.15215 0
M  V30 12657 C 1182.28 1.76813 -0.83646 0
M  V30 12658 C 1182.66 2.00242 0.6683 0
M  V30 12659 O 1182.01 1.61941 1.61206 0
M  V30 12660 C 1182.22 3.0779 -1.64519 0
M  V30 12661 C 1183.56 3.82168 -1.85022 0
M  V30 12662 O 1184.59 3.17596 -1.61279 0
M  V30 12663 O 1183.45 4.98135 -2.24775 0
M  V30 12664 H 1180.54 0.767736 -0.307426 0
M  V30 12665 H 1183.09 1.13914 -1.25784 0
M  V30 12666 H 1181.86 2.86342 -2.6669 0
M  V30 12667 H 1181.48 3.78419 -1.22002 0
M  V30 12668 N 1182.48 0.948665 1.2585 0
M  V30 12669 C 1183.73 0.59905 1.93018 0
M  V30 12670 C 1184.05 -0.865813 1.74725 0
M  V30 12671 O 1183.32 -1.61602 1.10732 0
M  V30 12672 H 1181.9 0.218565 0.71431 0
M  V30 12673 H 1184.56 1.20561 1.53137 0
M  V30 12674 H 1183.66 0.823244 3.01047 0
M  V30 12675 N 1183.96 -1.40369 0.716545 0
M  V30 12676 C 1184.87 -2.34508 0.065658 0
M  V30 12677 C 1185.88 -1.57352 -0.742723 0
M  V30 12678 O 1187.06 -1.89735 -0.675456 0
M  V30 12679 C 1184.13 -3.36262 -0.844337 0
M  V30 12680 C 1183.19 -4.29292 -0.0257971 0
M  V30 12681 C 1182.42 -5.26185 -0.892452 0
M  V30 12682 O 1182.64 -5.29071 -2.13166 0
M  V30 12683 O 1181.58 -6.0099 -0.330933 0
M  V30 12684 H 1185.4 -2.91789 0.842184 0
M  V30 12685 H 1182.99 -1.41579 0.477034 0
M  V30 12686 H 1184.87 -3.98661 -1.36555 0
M  V30 12687 H 1183.54 -2.81393 -1.59999 0
M  V30 12688 H 1182.45 -3.70175 0.540512 0
M  V30 12689 H 1183.78 -4.87316 0.69166 0
M  V30 12690 N 1185.44 -0.462799 -1.50652 0
M  V30 12691 C 1186.68 0.0951853 -2.02576 0
M  V30 12692 C 1187.02 1.40113 -1.34469 0
M  V30 12693 O 1186.29 1.88793 -0.467702 0
M  V30 12694 C 1186.57 0.287603 -3.5895 0
M  V30 12695 C 1186.43 -1.03878 -4.37641 0
M  V30 12696 C 1187.75 1.04593 -4.27491 0
M  V30 12697 H 1184.86 0.0331191 -0.736255 0
M  V30 12698 H 1187.51 -0.606772 -1.80051 0
M  V30 12699 H 1185.66 0.885514 -3.78274 0
M  V30 12700 H 1187.33 -1.67263 -4.29908 0
M  V30 12701 H 1185.57 -1.6374 -4.01711 0
M  V30 12702 H 1186.24 -0.857889 -5.45293 0
M  V30 12703 H 1188.72 0.539213 -4.12591 0
M  V30 12704 H 1187.59 1.14935 -5.36732 0
M  V30 12705 H 1187.86 2.08045 -3.90089 0
M  V30 12706 N 1186.91 1.56388 -0.195085 0
M  V30 12707 C 1187.84 2.22091 0.720971 0
M  V30 12708 C 1188.83 1.184 1.22128 0
M  V30 12709 O 1190.01 1.46907 1.27012 0
M  V30 12710 C 1187.14 2.88025 1.94059 0
M  V30 12711 C 1186.09 3.97959 1.5752 0
M  V30 12712 C 1185.42 4.51058 2.87143 0
M  V30 12713 C 1186.72 5.16365 0.785145 0
M  V30 12714 H 1188.41 2.98898 0.173245 0
M  V30 12715 H 1185.96 1.43767 0.0818868 0
M  V30 12716 H 1187.91 3.32671 2.58666 0
M  V30 12717 H 1186.64 2.08623 2.51285 0
M  V30 12718 H 1185.3 3.54004 0.952715 0
M  V30 12719 H 1184.94 3.68418 3.42458 0
M  V30 12720 H 1184.64 5.25237 2.63439 0
M  V30 12721 H 1186.17 4.98406 3.52738 0
M  V30 12722 H 1187.58 5.57556 1.33431 0
M  V30 12723 H 1185.98 5.9661 0.646231 0
M  V30 12724 H 1187.05 4.84428 -0.213789 0
M  V30 12725 N 1188.39 -0.0785156 1.57404 0
M  V30 12726 C 1189.64 -0.777722 1.86103 0
M  V30 12727 C 1189.95 -1.79079 0.786771 0
M  V30 12728 O 1191.16 -2.53908 0.961393 0
M  V30 12729 C 1189.62 -1.43407 3.30095 0
M  V30 12730 C 1189.22 -0.459912 4.45633 0
M  V30 12731 C 1190.97 -2.11603 3.68 0
M  V30 12732 C 1188.88 -1.12179 5.80663 0
M  V30 12733 H 1187.81 -0.294205 0.694233 0
M  V30 12734 H 1190.46 -0.0309003 1.83474 0
M  V30 12735 H 1188.84 -2.22892 3.27315 0
M  V30 12736 H 1190.01 0.304642 4.59792 0
M  V30 12737 H 1188.33 0.117242 4.16235 0
M  V30 12738 H 1190.92 -2.61887 4.66175 0
M  V30 12739 H 1191.27 -2.91244 2.9746 0
M  V30 12740 H 1191.8 -1.38958 3.72741 0
M  V30 12741 H 1188.54 -0.365842 6.54478 0
M  V30 12742 H 1188.06 -1.85737 5.70317 0
M  V30 12743 H 1189.74 -1.64355 6.25777 0
M  V30 12744 N 1189.87 -1.5367 -0.349747 0
M  V30 12745 C 1191.12 -1.69835 -1.08807 0
M  V30 12746 C 1191.43 -0.46497 -1.89993 0
M  V30 12747 O 1192.64 -0.507452 -2.66716 0
M  V30 12748 C 1191.09 -3.00294 -1.98372 0
M  V30 12749 C 1190.7 -4.30949 -1.22422 0
M  V30 12750 C 1192.45 -3.25826 -2.72099 0
M  V30 12751 C 1190.35 -5.52486 -2.1098 0
M  V30 12752 H 1189.28 -0.63284 -0.409915 0
M  V30 12753 H 1191.93 -1.80171 -0.347968 0
M  V30 12754 H 1190.32 -2.838 -2.76176 0
M  V30 12755 H 1191.49 -4.58126 -0.495707 0
M  V30 12756 H 1189.81 -4.11983 -0.604896 0
M  V30 12757 H 1192.4 -4.13817 -3.38615 0
M  V30 12758 H 1192.75 -2.42566 -3.3833 0
M  V30 12759 H 1193.28 -3.43067 -2.0137 0
M  V30 12760 H 1190.02 -6.38271 -1.49301 0
M  V30 12761 H 1189.54 -5.29566 -2.81638 0
M  V30 12762 H 1191.22 -5.87889 -2.70176 0
M  V30 12763 N 1191.35 0.610423 -1.45298 0
M  V30 12764 C 1192.57 1.40112 -1.52917 0
M  V30 12765 C 1193 1.87404 -0.161696 0
M  V30 12766 O 1192.36 1.59973 0.853135 0
M  V30 12767 C 1192.4 2.58359 -2.51561 0
M  V30 12768 O 1191.51 3.58895 -2.03146 0
M  V30 12769 H 1190.85 0.41841 -0.515586 0
M  V30 12770 H 1193.38 0.743159 -1.90626 0
M  V30 12771 H 1193.39 3.0564 -2.70275 0
M  V30 12772 H 1192.06 2.23286 -3.50879 0
M  V30 12773 H 1190.64 3.18282 -1.94296 0
M  V30 12774 N 1192.83 1.32541 0.852676 0
M  V30 12775 C 1194.24 1.11575 1.14119 0
M  V30 12776 C 1194.44 -0.102469 2.01239 0
M  V30 12777 O 1193.5 -0.786786 2.39929 0
M  V30 12778 C 1194.81 2.39624 1.81661 0
M  V30 12779 C 1196.36 2.454 1.94288 0
M  V30 12780 C 1196.83 3.73375 2.65245 0
M  V30 12781 N 1198.33 3.74368 2.72769 0
M  V30 12782 C 1199.06 4.70094 3.28328 0
M  V30 12783 N 1198.56 5.76187 3.84682 0
M  V30 12784 N 1200.35 4.57588 3.26449 0
M  V30 12785 H 1192.5 2.10644 0.272544 0
M  V30 12786 H 1194.76 0.930094 0.183385 0
M  V30 12787 H 1194.47 3.28698 1.25102 0
M  V30 12788 H 1194.34 2.50734 2.81802 0
M  V30 12789 H 1196.73 1.56784 2.50005 0
M  V30 12790 H 1196.81 2.38241 0.931379 0
M  V30 12791 H 1196.46 4.62366 2.10191 0
M  V30 12792 H 1196.39 3.77806 3.66838 0
M  V30 12793 H 1198.88 2.97685 2.32791 0
M  V30 12794 H 1199.19 6.45285 4.25238 0
M  V30 12795 H 1197.53 5.79939 3.83008 0
M  V30 12796 H 1200.73 3.7387 2.81672 0
M  V30 12797 H 1200.9 5.32365 3.69448 0
M  V30 12798 N 1194.3 -1.0692 1.15784 0
M  V30 12799 C 1195.53 -1.8331 0.959422 0
M  V30 12800 C 1195.95 -1.82268 -0.492332 0
M  V30 12801 O 1195.3 -1.23727 -1.34156 0
M  V30 12802 C 1195.36 -3.30202 1.47135 0
M  V30 12803 O 1195.08 -3.31328 2.86624 0
M  V30 12804 C 1196.58 -4.23346 1.31504 0
M  V30 12805 H 1193.8 -0.578202 0.340475 0
M  V30 12806 H 1196.34 -1.34939 1.53661 0
M  V30 12807 H 1194.5 -3.75908 0.936587 0
M  V30 12808 H 1194.91 -4.23135 3.0993 0
M  V30 12809 H 1196.38 -5.24465 1.72163 0
M  V30 12810 H 1196.86 -4.38431 0.259773 0
M  V30 12811 H 1197.47 -3.8348 1.83911 0
M  V30 12812 N 1195.78 -0.955326 -1.25345 0
M  V30 12813 C 1197.03 -0.611388 -1.93365 0
M  V30 12814 C 1197.36 0.84953 -1.74633 0
M  V30 12815 O 1196.64 1.60962 -1.09185 0
M  V30 12816 C 1196.92 -0.971732 -3.46741 0
M  V30 12817 C 1196.77 -2.48843 -3.74696 0
M  V30 12818 C 1198.09 -0.497295 -4.37281 0
M  V30 12819 H 1195.21 -0.223591 -0.702265 0
M  V30 12820 H 1197.85 -1.1921 -1.47949 0
M  V30 12821 H 1196 -0.477568 -3.85554 0
M  V30 12822 H 1197.67 -3.05641 -3.45516 0
M  V30 12823 H 1195.92 -2.92582 -3.20278 0
M  V30 12824 H 1196.59 -2.69107 -4.8196 0
M  V30 12825 H 1199.06 -0.921196 -4.05775 0
M  V30 12826 H 1197.94 -0.778113 -5.43357 0
M  V30 12827 H 1198.2 0.602743 -4.37972 0
M  V30 12828 N 1197.26 1.39987 -0.723979 0
M  V30 12829 C 1198.51 1.99964 -0.26406 0
M  V30 12830 C 1198.82 1.58084 1.1519 0
M  V30 12831 O 1200.03 2.10819 1.71077 0
M  V30 12832 C 1198.49 3.57427 -0.421174 0
M  V30 12833 C 1198.09 4.08276 -1.84432 0
M  V30 12834 C 1199.84 4.24494 -0.0224734 0
M  V30 12835 C 1197.74 5.58272 -1.95157 0
M  V30 12836 H 1196.67 0.747995 -0.0949728 0
M  V30 12837 H 1199.33 1.60122 -0.896276 0
M  V30 12838 H 1197.71 3.95011 0.279762 0
M  V30 12839 H 1198.88 3.82051 -2.57631 0
M  V30 12840 H 1197.2 3.53834 -2.19523 0
M  V30 12841 H 1199.79 5.34637 -0.0817744 0
M  V30 12842 H 1200.14 4.03593 1.02069 0
M  V30 12843 H 1200.67 3.92046 -0.67416 0
M  V30 12844 H 1197.41 5.84038 -2.97623 0
M  V30 12845 H 1196.93 5.86335 -1.2638 0
M  V30 12846 H 1198.61 6.23509 -1.72759 0
M  V30 12847 N 1198.74 0.470782 1.50404 0
M  V30 12848 C 1199.7 -0.312227 2.27063 0
M  V30 12849 C 1200.7 -0.920709 1.31832 0
M  V30 12850 O 1201.89 -0.789937 1.5526 0
M  V30 12851 C 1199.02 -1.44477 3.0877 0
M  V30 12852 H 1200.22 0.36006 2.97731 0
M  V30 12853 H 1197.77 0.224837 1.54674 0
M  V30 12854 H 1198.51 -2.15212 2.42599 0
M  V30 12855 H 1198.29 -1.01426 3.78755 0
M  V30 12856 H 1199.78 -1.99713 3.66749 0
M  V30 12857 N 1200.22 -1.56282 0.203376 0
M  V30 12858 C 1201.63 -1.84146 -0.307752 0
M  V30 12859 C 1201.98 -1.12429 -1.60792 0
M  V30 12860 O 1201.1 -0.387852 -2.12896 0
M  V30 12861 C 1201.7 -3.34053 -0.565152 0
M  V30 12862 C 1200.26 -3.62298 -1.02063 0
M  V30 12863 C 1199.41 -2.77202 -0.0737343 0
M  V30 12864 H 1202.36 -1.52848 0.426983 0
M  V30 12865 H 1202.38 -3.53273 -1.41345 0
M  V30 12866 H 1201.89 -3.86222 0.381301 0
M  V30 12867 H 1199.99 -3.1557 -1.98107 0
M  V30 12868 H 1200.1 -4.70424 -0.907614 0
M  V30 12869 H 1198.47 -2.48074 -0.577169 0
M  V30 12870 H 1199.25 -3.32164 0.86731 0
M  V30 12871 N 1201.7 0.070167 -1.57444 0
M  V30 12872 C 1203.11 0.621805 -1.76041 0
M  V30 12873 C 1203.46 1.77824 -0.829047 0
M  V30 12874 O 1202.58 2.16396 -0.0135453 0
M  V30 12875 C 1203.18 1.13476 -3.19231 0
M  V30 12876 C 1201.74 1.63225 -3.39167 0
M  V30 12877 C 1200.88 0.552369 -2.71743 0
M  V30 12878 H 1203.83 -0.156009 -1.57931 0
M  V30 12879 H 1203.86 2.00352 -3.2348 0
M  V30 12880 H 1203.37 0.29288 -3.86993 0
M  V30 12881 H 1201.47 2.49733 -2.76522 0
M  V30 12882 H 1201.58 1.70807 -4.47618 0
M  V30 12883 H 1199.95 0.997797 -2.34342 0
M  V30 12884 H 1200.73 -0.279354 -3.42162 0
M  V30 12885 N 1203.17 1.53854 0.341593 0
M  V30 12886 C 1204.42 1.71447 1.08322 0
M  V30 12887 C 1204.75 0.477289 1.88243 0
M  V30 12888 O 1204.03 -0.525695 1.87261 0
M  V30 12889 C 1204.31 2.97917 2.02281 0
M  V30 12890 C 1204.16 4.31847 1.25809 0
M  V30 12891 C 1205.48 3.20065 3.0207 0
M  V30 12892 H 1202.6 0.623847 0.392408 0
M  V30 12893 H 1205.24 1.86527 0.361594 0
M  V30 12894 H 1203.39 2.85191 2.63815 0
M  V30 12895 H 1205.07 4.56427 0.668737 0
M  V30 12896 H 1203.31 4.30169 0.560119 0
M  V30 12897 H 1203.98 5.16522 1.94704 0
M  V30 12898 H 1206.46 3.32135 2.50651 0
M  V30 12899 H 1205.33 4.09947 3.65013 0
M  V30 12900 H 1205.59 2.36452 3.73554 0
M  V30 12901 N 1204.65 -0.602709 1.4562 0
M  V30 12902 C 1205.9 -1.36158 1.49891 0
M  V30 12903 C 1206.23 -1.93977 0.142581 0
M  V30 12904 O 1205.48 -1.75822 -0.859374 0
M  V30 12905 C 1205.78 -2.52474 2.52966 0
M  V30 12906 C 1205.45 -2.12772 3.97541 0
M  V30 12907 C 1204.11 -2.01658 4.36907 0
M  V30 12908 C 1206.46 -1.8186 4.88443 0
M  V30 12909 C 1203.79 -1.57862 5.65063 0
M  V30 12910 C 1206.14 -1.39548 6.17016 0
M  V30 12911 C 1204.8 -1.26997 6.55308 0
M  V30 12912 H 1204.07 -0.498236 0.54849 0
M  V30 12913 H 1206.72 -0.680738 1.78992 0
M  V30 12914 H 1205.03 -3.25917 2.17452 0
M  V30 12915 H 1206.72 -3.10701 2.53507 0
M  V30 12916 H 1203.31 -2.22349 3.66413 0
M  V30 12917 H 1207.5 -1.89341 4.58763 0
M  V30 12918 H 1202.75 -1.46771 5.93522 0
M  V30 12919 H 1206.93 -1.14677 6.86893 0
M  V30 12920 H 1204.55 -0.928346 7.5451 0
M  V30 12921 N 1206.13 -1.32992 -0.845635 0
M  V30 12922 C 1207.41 -1.14671 -1.58461 0
M  V30 12923 C 1207.79 0.289498 -2.09106 0
M  V30 12924 O 1207.13 1.28751 -1.88773 0
M  V30 12925 C 1207.34 -2.18206 -2.72373 0
M  V30 12926 C 1208.69 -2.5201 -3.41726 0
M  V30 12927 O 1209.72 -2.16821 -2.82608 0
M  V30 12928 O 1208.58 -3.12368 -4.48429 0
M  V30 12929 H 1205.67 -0.443088 -0.698285 0
M  V30 12930 H 1208.22 -1.44552 -0.888978 0
M  V30 12931 H 1206.99 -3.14707 -2.32541 0
M  V30 12932 H 1206.61 -1.89372 -3.49605 0
M  V30 12933 N 1207.61 1.06304 -1.1635 0
M  V30 12934 C 1208.85 1.79101 -0.94494 0
M  V30 12935 C 1209.18 1.87217 0.527251 0
M  V30 12936 O 1208.44 1.35992 1.40729 0
M  V30 12937 C 1208.74 3.23589 -1.51741 0
M  V30 12938 C 1208.4 3.35552 -3.0119 0
M  V30 12939 C 1207.06 3.38525 -3.41986 0
M  V30 12940 C 1209.42 3.37482 -3.97184 0
M  V30 12941 C 1206.74 3.41042 -4.77396 0
M  V30 12942 C 1209.1 3.41537 -5.3248 0
M  V30 12943 C 1207.76 3.42792 -5.72757 0
M  V30 12944 H 1207.03 0.655377 -0.345778 0
M  V30 12945 H 1209.68 1.25017 -1.45062 0
M  V30 12946 H 1207.98 3.80525 -0.933164 0
M  V30 12947 H 1209.68 3.78512 -1.32399 0
M  V30 12948 H 1206.27 3.33944 -2.68662 0
M  V30 12949 H 1210.45 3.34397 -3.66732 0
M  V30 12950 H 1205.71 3.40317 -5.07931 0
M  V30 12951 H 1209.88 3.41977 -6.0665 0
M  V30 12952 H 1207.51 3.44495 -6.77663 0
M  V30 12953 N 1209.09 0.96196 1.24836 0
M  V30 12954 C 1210.33 0.619489 1.92371 0
M  V30 12955 C 1210.65 -0.847233 1.75633 0
M  V30 12956 O 1209.92 -1.60419 1.12439 0
M  V30 12957 H 1208.5 0.226129 0.711951 0
M  V30 12958 H 1211.17 1.22179 1.5185 0
M  V30 12959 H 1210.26 0.855128 3.00157 0
M  V30 12960 N 1210.56 -1.39601 0.731392 0
M  V30 12961 C 1211.5 -2.28169 0.0378735 0
M  V30 12962 C 1212.47 -1.44195 -0.751434 0
M  V30 12963 O 1213.66 -1.7359 -0.734753 0
M  V30 12964 C 1210.79 -3.24999 -0.953589 0
M  V30 12965 C 1209.83 -4.25748 -0.253203 0
M  V30 12966 S 1210.66 -5.25496 1.03025 0
M  V30 12967 C 1211.82 -6.25886 0.0412927 0
M  V30 12968 H 1212.05 -2.8664 0.788973 0
M  V30 12969 H 1209.59 -1.45271 0.523044 0
M  V30 12970 H 1211.54 -3.81308 -1.52035 0
M  V30 12971 H 1210.21 -2.65554 -1.6775 0
M  V30 12972 H 1209.4 -4.93913 -1.00328 0
M  V30 12973 H 1209 -3.7322 0.241426 0
M  V30 12974 H 1211.29 -6.72757 -0.800305 0
M  V30 12975 H 1212.24 -7.0473 0.68999 0
M  V30 12976 H 1212.64 -5.63538 -0.329495 0
M  V30 12977 N 1212.04 -0.478751 -1.50152 0
M  V30 12978 C 1213.46 -0.133356 -1.59042 0
M  V30 12979 C 1213.66 1.36069 -1.48618 0
M  V30 12980 O 1212.71 2.13468 -1.34862 0
M  V30 12981 C 1214.03 -0.690369 -2.92668 0
M  V30 12982 C 1215.58 -0.654481 -3.06081 0
M  V30 12983 C 1216.05 -1.18917 -4.42293 0
M  V30 12984 N 1217.54 -1.14891 -4.48725 0
M  V30 12985 C 1218.28 -1.53305 -5.52526 0
M  V30 12986 N 1217.77 -1.99205 -6.63543 0
M  V30 12987 N 1219.57 -1.4486 -5.43113 0
M  V30 12988 H 1211.72 -1.45037 -1.55171 0
M  V30 12989 H 1213.98 -0.600254 -0.733757 0
M  V30 12990 H 1213.69 -1.7373 -3.05795 0
M  V30 12991 H 1213.56 -0.138227 -3.76947 0
M  V30 12992 H 1215.95 0.383564 -2.92597 0
M  V30 12993 H 1216.03 -1.24352 -2.2354 0
M  V30 12994 H 1215.67 -2.22588 -4.56527 0
M  V30 12995 H 1215.6 -0.57628 -5.23437 0
M  V30 12996 H 1218.09 -0.812344 -3.69066 0
M  V30 12997 H 1218.41 -2.26645 -7.38818 0
M  V30 12998 H 1216.75 -2.03164 -6.64642 0
M  V30 12999 H 1219.94 -1.08836 -4.55272 0
M  V30 13000 H 1220.11 -1.75123 -6.23888 0
M  V30 13001 N 1213.52 1.56172 -0.211661 0
M  V30 13002 C 1214.76 1.9994 0.424672 0
M  V30 13003 C 1215.12 1.09598 1.57646 0
M  V30 13004 O 1216.33 1.4267 2.27813 0
M  V30 13005 C 1214.6 3.46961 0.857497 0
M  V30 13006 S 1216.16 4.12752 1.48933 0
M  V30 13007 H 1212.97 0.698031 0.135179 0
M  V30 13008 H 1215.58 1.92886 -0.318625 0
M  V30 13009 H 1214.28 4.10399 0.009398 0
M  V30 13010 H 1213.81 3.57867 1.63385 0
M  V30 13011 H 1215.83 4.11125 2.77833 0
M  V30 13012 N 1215 -0.0618163 1.57479 0
M  V30 13013 C 1216.23 -0.771724 1.91969 0
M  V30 13014 C 1216.64 -1.7061 0.808549 0
M  V30 13015 O 1216 -1.812 -0.217455 0
M  V30 13016 C 1216.05 -1.55687 3.26257 0
M  V30 13017 O 1215.77 -0.660032 4.331 0
M  V30 13018 C 1217.27 -2.36688 3.74825 0
M  V30 13019 H 1214.49 -0.21885 0.634307 0
M  V30 13020 H 1217.04 -0.0291068 2.04479 0
M  V30 13021 H 1215.19 -2.25167 3.15244 0
M  V30 13022 H 1215.6 -1.20715 5.1042 0
M  V30 13023 H 1217.08 -2.8722 4.7139 0
M  V30 13024 H 1217.56 -3.1666 3.0434 0
M  V30 13025 H 1218.16 -1.72346 3.88815 0
M  V30 13026 N 1216.48 -1.54033 -0.333429 0
M  V30 13027 C 1217.71 -1.75461 -1.09073 0
M  V30 13028 C 1218.11 -0.498488 -1.82515 0
M  V30 13029 O 1217.46 0.540029 -1.75583 0
M  V30 13030 C 1217.52 -2.88744 -2.14166 0
M  V30 13031 C 1217.18 -4.27998 -1.60209 0
M  V30 13032 C 1218.18 -5.09206 -1.04907 0
M  V30 13033 C 1215.87 -4.74513 -1.6475 0
M  V30 13034 C 1217.86 -6.35035 -0.548615 0
M  V30 13035 C 1215.55 -6.00312 -1.14318 0
M  V30 13036 C 1216.54 -6.80406 -0.594667 0
M  V30 13037 O 1216.23 -8.0384 -0.097891 0
M  V30 13038 H 1215.96 -0.589586 -0.330702 0
M  V30 13039 H 1218.52 -2.01697 -0.388274 0
M  V30 13040 H 1216.75 -2.58057 -2.87999 0
M  V30 13041 H 1218.44 -2.98048 -2.7554 0
M  V30 13042 H 1219.2 -4.74428 -1.00713 0
M  V30 13043 H 1215.08 -4.12222 -2.06384 0
M  V30 13044 H 1218.63 -6.97497 -0.119823 0
M  V30 13045 H 1214.52 -6.34583 -1.18215 0
M  V30 13046 H 1215.29 -8.1822 -0.214237 0
M  V30 13047 N 1217.95 0.594978 -1.45938 0
M  V30 13048 C 1219.2 1.34976 -1.49881 0
M  V30 13049 C 1219.52 1.95025 -0.14983 0
M  V30 13050 O 1220.72 2.71417 -0.0669868 0
M  V30 13051 C 1219.18 2.44563 -2.6404 0
M  V30 13052 C 1218.79 1.9087 -4.05306 0
M  V30 13053 C 1220.53 3.21461 -2.77242 0
M  V30 13054 C 1218.44 2.98013 -5.10825 0
M  V30 13055 H 1217.37 0.507366 -0.55776 0
M  V30 13056 H 1220.02 0.636316 -1.72114 0
M  V30 13057 H 1218.4 3.1865 -2.35114 0
M  V30 13058 H 1219.57 1.23408 -4.43968 0
M  V30 13059 H 1217.89 1.26678 -3.96663 0
M  V30 13060 H 1220.49 4.01399 -3.53246 0
M  V30 13061 H 1220.83 3.73271 -1.84321 0
M  V30 13062 H 1221.36 2.54477 -3.05756 0
M  V30 13063 H 1218.1 2.51104 -6.05497 0
M  V30 13064 H 1217.62 3.64003 -4.7672 0
M  V30 13065 H 1219.3 3.62178 -5.36131 0
M  V30 13066 N 1219.43 1.33438 0.838571 0
M  V30 13067 C 1220.68 1.26106 1.59589 0
M  V30 13068 C 1221.03 -0.171524 1.91634 0
M  V30 13069 O 1220.33 -1.11368 1.55909 0
M  V30 13070 C 1220.52 2.07002 2.9135 0
M  V30 13071 C 1220.35 3.57981 2.72175 0
M  V30 13072 C 1219.12 4.27293 2.69719 0
M  V30 13073 C 1221.32 4.52308 2.4479 0
M  V30 13074 N 1219.3 5.64221 2.41925 0
M  V30 13075 C 1220.67 5.77127 2.26549 0
M  V30 13076 C 1222.73 4.4139 2.3039 0
M  V30 13077 C 1221.43 6.9226 1.95368 0
M  V30 13078 C 1223.45 5.56339 2.00602 0
M  V30 13079 C 1222.82 6.80167 1.83173 0
M  V30 13080 H 1218.92 0.516656 0.587018 0
M  V30 13081 H 1221.5 1.67982 0.984382 0
M  V30 13082 H 1219.67 1.67446 3.50452 0
M  V30 13083 H 1221.4 1.91437 3.56558 0
M  V30 13084 H 1218.16 3.79571 2.83236 0
M  V30 13085 H 1218.58 6.36403 2.30911 0
M  V30 13086 H 1223.22 3.46289 2.42577 0
M  V30 13087 H 1220.94 7.87357 1.81918 0
M  V30 13088 H 1224.53 5.49827 1.90214 0
M  V30 13089 H 1223.41 7.67609 1.60455 0
M  V30 13090 N 1220.91 -1.05686 1.16912 0
M  V30 13091 C 1222.33 -1.30744 0.915327 0
M  V30 13092 C 1222.53 -1.96895 -0.428344 0
M  V30 13093 O 1221.58 -2.23941 -1.16647 0
M  V30 13094 C 1222.9 -2.18209 2.06894 0
M  V30 13095 C 1224.44 -2.31607 2.1054 0
M  V30 13096 C 1224.92 -3.2243 3.25273 0
M  V30 13097 N 1226.41 -3.30015 3.2503 0
M  V30 13098 C 1227.14 -4.00401 4.10447 0
M  V30 13099 N 1226.64 -4.73256 5.05965 0
M  V30 13100 N 1228.43 -3.96514 3.98413 0
M  V30 13101 H 1220.58 -0.611449 2.03409 0
M  V30 13102 H 1222.85 -0.332188 0.887894 0
M  V30 13103 H 1222.55 -1.76887 3.0398 0
M  V30 13104 H 1222.43 -3.18823 2.01573 0
M  V30 13105 H 1224.81 -2.72173 1.14044 0
M  V30 13106 H 1224.9 -1.30639 2.19925 0
M  V30 13107 H 1224.54 -2.82579 4.22032 0
M  V30 13108 H 1224.47 -4.23392 3.13125 0
M  V30 13109 H 1226.96 -2.781 2.55869 0
M  V30 13110 H 1227.27 -5.24509 5.67547 0
M  V30 13111 H 1225.62 -4.72215 5.09939 0
M  V30 13112 H 1228.81 -3.38719 3.2309 0
M  V30 13113 H 1228.98 -4.511 4.65202 0
M  V30 13114 N 1222.39 -0.968567 -1.24324 0
M  V30 13115 C 1223.64 -0.626519 -1.91723 0
M  V30 13116 C 1223.95 0.84225 -1.76538 0
M  V30 13117 O 1225.16 1.29486 -2.38633 0
M  V30 13118 C 1223.61 -1.06992 -3.43629 0
M  V30 13119 C 1223.22 -2.5622 -3.67499 0
M  V30 13120 C 1224.96 -0.801057 -4.16873 0
M  V30 13121 C 1222.87 -2.94288 -5.1298 0
M  V30 13122 H 1221.8 -0.23062 -0.717865 0
M  V30 13123 H 1224.45 -1.17489 -1.40956 0
M  V30 13124 H 1222.83 -0.44985 -3.93437 0
M  V30 13125 H 1224.01 -3.23364 -3.28287 0
M  V30 13126 H 1222.32 -2.80726 -3.07542 0
M  V30 13127 H 1224.92 -1.06147 -5.24058 0
M  V30 13128 H 1225.26 0.262742 -4.1547 0
M  V30 13129 H 1225.8 -1.38213 -3.73017 0
M  V30 13130 H 1222.54 -3.99743 -5.19506 0
M  V30 13131 H 1222.06 -2.31829 -5.53187 0
M  V30 13132 H 1223.73 -2.84242 -5.81219 0
M  V30 13133 N 1223.87 1.39211 -0.738786 0
M  V30 13134 C 1224.83 2.28937 -0.109746 0
M  V30 13135 C 1225.83 1.46488 0.663157 0
M  V30 13136 O 1227.02 1.67119 0.491614 0
M  V30 13137 C 1224.15 3.30039 0.853633 0
M  V30 13138 H 1225.34 2.86068 -0.900295 0
M  V30 13139 H 1222.9 1.47922 -0.504853 0
M  V30 13140 H 1223.63 2.77971 1.6704 0
M  V30 13141 H 1223.42 3.90935 0.302007 0
M  V30 13142 H 1224.91 3.97169 1.29022 0
M  V30 13143 N 1225.34 0.486708 1.49896 0
M  V30 13144 C 1226.31 -0.288126 2.27382 0
M  V30 13145 C 1227.31 -0.906675 1.32801 0
M  V30 13146 O 1228.5 -0.773425 1.56089 0
M  V30 13147 C 1225.63 -1.41194 3.10285 0
M  V30 13148 H 1226.82 0.391618 2.97332 0
M  V30 13149 H 1224.38 0.24123 1.54427 0
M  V30 13150 H 1225.11 -2.12627 2.44868 0
M  V30 13151 H 1224.9 -0.974033 3.79809 0
M  V30 13152 H 1226.39 -1.95812 3.68846 0
M  V30 13153 N 1226.82 -1.56058 0.219941 0
M  V30 13154 C 1228.1 -1.90087 -0.46112 0
M  V30 13155 C 1228.48 -1.13705 -1.77861 0
M  V30 13156 O 1227.83 -0.245868 -2.27173 0
M  V30 13157 C 1228.04 -3.42786 -0.655644 0
M  V30 13158 C 1229.39 -4.13517 -0.963803 0
M  V30 13159 O 1230.41 -3.48376 -0.742488 0
M  V30 13160 O 1229.27 -5.28692 -1.38374 0
M  V30 13161 H 1226.36 -0.790311 -0.243595 0
M  V30 13162 H 1228.91 -1.67665 0.262005 0
M  V30 13163 H 1227.68 -3.90341 0.273738 0
M  V30 13164 H 1227.3 -3.70982 -1.43032 0
M  V30 13165 N 1228.3 0.053464 -1.57509 0
M  V30 13166 C 1229.55 0.747622 -1.87763 0
M  V30 13167 C 1229.87 1.77178 -0.814433 0
M  V30 13168 O 1229.14 1.95287 0.154862 0
M  V30 13169 H 1227.72 0.279109 -0.692898 0
M  V30 13170 H 1230.38 0.0252006 -1.94884 0
M  V30 13171 H 1229.48 1.25244 -2.85868 0
M  V30 13172 N 1229.78 1.54207 0.325255 0
M  V30 13173 C 1230.71 1.79812 1.42128 0
M  V30 13174 C 1231.72 0.68003 1.47917 0
M  V30 13175 O 1232.91 0.957107 1.50671 0
M  V30 13176 C 1230.01 1.89935 2.80674 0
M  V30 13177 C 1229.19 3.20078 2.98108 0
M  V30 13178 C 1228.25 3.20924 4.17006 0
M  V30 13179 O 1227.27 3.94571 4.10247 0
M  V30 13180 N 1228.47 2.44588 5.26457 0
M  V30 13181 H 1231.24 2.74396 1.20527 0
M  V30 13182 H 1228.8 1.53483 0.515233 0
M  V30 13183 H 1230.79 1.8793 3.58419 0
M  V30 13184 H 1229.36 1.02455 2.95333 0
M  V30 13185 H 1228.58 3.35057 2.07679 0
M  V30 13186 H 1229.87 4.06008 3.06651 0
M  V30 13187 H 1229.27 1.8434 5.34823 0
M  V30 13188 H 1227.82 2.48363 6.02627 0
M  V30 13189 N 1231.26 -0.58723 1.46251 0
M  V30 13190 C 1232.5 -1.3476 1.51551 0
M  V30 13191 C 1232.84 -1.93499 0.16483 0
M  V30 13192 O 1232.11 -1.7622 -0.823207 0
M  V30 13193 C 1232.39 -2.48033 2.61059 0
M  V30 13194 C 1232.25 -1.94358 4.05642 0
M  V30 13195 C 1233.57 -3.50096 2.66685 0
M  V30 13196 H 1230.69 -0.48863 0.551733 0
M  V30 13197 H 1233.33 -0.660097 1.78165 0
M  V30 13198 H 1231.48 -3.06679 2.38496 0
M  V30 13199 H 1233.15 -1.40204 4.39478 0
M  V30 13200 H 1231.39 -1.25217 4.15335 0
M  V30 13201 H 1232.06 -2.76105 4.77986 0
M  V30 13202 H 1234.54 -3.01324 2.86955 0
M  V30 13203 H 1233.42 -4.26817 3.45135 0
M  V30 13204 H 1233.68 -4.07032 1.7256 0
M  V30 13205 N 1232.74 -1.33881 -0.831482 0
M  V30 13206 C 1233.68 -1.24741 -1.96322 0
M  V30 13207 C 1234.68 -0.147251 -1.68759 0
M  V30 13208 O 1235.88 -0.311684 -1.77281 0
M  V30 13209 H 1232.26 -0.387298 -0.644596 0
M  V30 13210 H 1234.23 -2.20407 -2.01155 0
M  V30 13211 C 1232.98 -1.01102 -3.32677 0
M  V30 13212 H 1232.3 -1.84986 -3.54429 0
M  V30 13213 H 1233.74 -0.987398 -4.12343 0
M  V30 13214 C 1232.2 0.285903 -3.35685 0
M  V30 13215 O 1232.73 1.29014 -3.80419 0
M  V30 13216 N 1230.94 0.316026 -2.88877 0
M  V30 13217 H 1230.48 -0.501758 -2.52666 0
M  V30 13218 H 1230.44 1.18357 -2.91271 0
M  V30 13219 N 1234.21 1.05064 -1.1747 0
M  V30 13220 C 1235.46 1.78352 -0.965311 0
M  V30 13221 C 1235.79 1.87527 0.504707 0
M  V30 13222 O 1235.07 1.376 1.37465 0
M  V30 13223 C 1235.35 3.22173 -1.60862 0
M  V30 13224 C 1235.2 3.21003 -3.15083 0
M  V30 13225 C 1236.52 4.2004 -1.31358 0
M  V30 13226 H 1233.64 0.647452 -0.352101 0
M  V30 13227 H 1236.28 1.22794 -1.44988 0
M  V30 13228 H 1234.43 3.69613 -1.19658 0
M  V30 13229 H 1236.11 2.81629 -3.65353 0
M  V30 13230 H 1234.35 2.59309 -3.47766 0
M  V30 13231 H 1235.02 4.22516 -3.55224 0
M  V30 13232 H 1237.5 3.81099 -1.6704 0
M  V30 13233 H 1236.37 5.1891 -1.78953 0
M  V30 13234 H 1236.63 4.41477 -0.234606 0
M  V30 13235 N 1235.69 0.975146 1.23809 0
M  V30 13236 C 1236.65 0.516157 2.23312 0
M  V30 13237 C 1237.65 -0.39136 1.55965 0
M  V30 13238 O 1238.84 -0.185783 1.73206 0
M  V30 13239 C 1235.98 -0.251534 3.39971 0
M  V30 13240 H 1237.17 1.3959 2.65433 0
M  V30 13241 H 1234.72 0.760493 1.36551 0
M  V30 13242 H 1235.46 -1.14805 3.03299 0
M  V30 13243 H 1235.24 0.399825 3.90056 0
M  V30 13244 H 1236.73 -0.561438 4.13809 0
M  V30 13245 N 1237.17 -1.38817 0.746158 0
M  V30 13246 C 1238.1 -2.33144 0.128836 0
M  V30 13247 C 1239.08 -1.54487 -0.711873 0
M  V30 13248 O 1240.27 -1.82836 -0.654577 0
M  V30 13249 C 1237.4 -3.38639 -0.770772 0
M  V30 13250 C 1236.35 -4.27987 -0.0333669 0
M  V30 13251 C 1235.68 -5.24274 -1.05073 0
M  V30 13252 C 1236.98 -5.09915 1.13066 0
M  V30 13253 H 1238.67 -2.85019 0.916778 0
M  V30 13254 H 1236.22 -1.37039 0.442306 0
M  V30 13255 H 1238.17 -4.03587 -1.21225 0
M  V30 13256 H 1236.89 -2.8523 -1.59095 0
M  V30 13257 H 1235.55 -3.64534 0.388612 0
M  V30 13258 H 1235.2 -4.67156 -1.86478 0
M  V30 13259 H 1234.9 -5.84906 -0.562037 0
M  V30 13260 H 1236.42 -5.92099 -1.49169 0
M  V30 13261 H 1237.84 -5.68145 0.767084 0
M  V30 13262 H 1236.23 -5.79744 1.54972 0
M  V30 13263 H 1237.3 -4.4409 1.94709 0
M  V30 13264 N 1238.65 -0.49465 -1.49636 0
M  V30 13265 C 1239.87 0.051305 -2.07337 0
M  V30 13266 C 1240.3 1.30637 -1.35335 0
M  V30 13267 O 1239.66 1.76647 -0.408126 0
M  V30 13268 C 1239.7 0.294425 -3.59396 0
M  V30 13269 O 1238.81 1.3704 -3.88965 0
M  V30 13270 H 1238.15 -0.023408 -0.663587 0
M  V30 13271 H 1240.68 -0.692451 -1.92526 0
M  V30 13272 H 1240.69 0.527854 -4.04571 0
M  V30 13273 H 1239.36 -0.622583 -4.11214 0
M  V30 13274 H 1237.94 1.12242 -3.55607 0
M  V30 13275 N 1240.13 1.55939 -0.228214 0
M  V30 13276 C 1241.37 1.98084 0.400884 0
M  V30 13277 C 1241.69 1.11727 1.59819 0
M  V30 13278 O 1240.96 0.195794 1.94919 0
M  V30 13279 H 1239.54 0.731558 0.151102 0
M  V30 13280 H 1242.21 1.92211 -0.322659 0
M  V30 13281 H 1241.3 3.03617 0.722706 0
M  V30 13282 N 1241.6 -0.0451101 1.57535 0
M  V30 13283 C 1242.51 -1.06796 2.08882 0
M  V30 13284 C 1243.53 -1.40682 1.02394 0
M  V30 13285 O 1244.71 -1.50324 1.34033 0
M  V30 13286 C 1241.77 -2.35467 2.54472 0
M  V30 13287 C 1240.83 -2.0831 3.75374 0
M  V30 13288 C 1240.07 -3.30846 4.1878 0
M  V30 13289 O 1240.29 -4.40945 3.61834 0
M  V30 13290 O 1239.22 -3.17488 5.11356 0
M  V30 13291 H 1243.05 -0.661658 2.96405 0
M  V30 13292 H 1240.63 -0.26104 1.47102 0
M  V30 13293 H 1242.52 -3.11143 2.84198 0
M  V30 13294 H 1241.19 -2.75425 1.70068 0
M  V30 13295 H 1240.1 -1.30254 3.50692 0
M  V30 13296 H 1241.43 -1.73218 4.60713 0
M  V30 13297 N 1243.08 -1.54377 -0.317073 0
M  V30 13298 C 1244.5 -1.45232 -0.6618 0
M  V30 13299 C 1244.7 -0.630457 -1.91383 0
M  V30 13300 O 1243.75 -0.13181 -2.52156 0
M  V30 13301 C 1245.07 -2.89025 -0.829761 0
M  V30 13302 C 1246.62 -2.98967 -0.926685 0
M  V30 13303 C 1247.09 -4.43923 -1.12677 0
M  V30 13304 N 1248.58 -4.47564 -1.19335 0
M  V30 13305 C 1249.32 -5.56887 -1.36617 0
M  V30 13306 N 1248.81 -6.76167 -1.50899 0
M  V30 13307 N 1250.61 -5.44546 -1.39377 0
M  V30 13308 H 1242.76 -2.0629 0.505766 0
M  V30 13309 H 1245.02 -0.933615 0.164522 0
M  V30 13310 H 1244.73 -3.51695 0.0190945 0
M  V30 13311 H 1244.6 -3.35515 -1.72364 0
M  V30 13312 H 1246.99 -2.36421 -1.76604 0
M  V30 13313 H 1247.07 -2.55798 -0.00913402 0
M  V30 13314 H 1246.71 -5.07059 -0.29224 0
M  V30 13315 H 1246.64 -4.84708 -2.05829 0
M  V30 13316 H 1249.13 -3.61623 -1.09715 0
M  V30 13317 H 1249.45 -7.55242 -1.63796 0
M  V30 13318 H 1247.79 -6.79062 -1.47985 0
M  V30 13319 H 1250.98 -4.50311 -1.27819 0
M  V30 13320 H 1251.15 -6.29799 -1.52502 0
M  V30 13321 N 1244.56 0.579466 -1.4656 0
M  V30 13322 C 1245.79 1.36153 -1.55389 0
M  V30 13323 C 1246.2 1.88192 -0.195062 0
M  V30 13324 O 1245.54 1.64464 0.81836 0
M  V30 13325 C 1245.6 2.58269 -2.50075 0
M  V30 13326 C 1245.27 2.27675 -3.96249 0
M  V30 13327 C 1246.26 1.86313 -4.85369 0
M  V30 13328 C 1243.95 2.39719 -4.41407 0
M  V30 13329 C 1245.94 1.57395 -6.17661 0
M  V30 13330 C 1243.63 2.10414 -5.73733 0
M  V30 13331 C 1244.63 1.69317 -6.6168 0
M  V30 13332 O 1244.32 1.40373 -7.9155 0
M  V30 13333 H 1244.05 0.422174 -0.527963 0
M  V30 13334 H 1246.6 0.711089 -1.92698 0
M  V30 13335 H 1244.83 3.26129 -2.0779 0
M  V30 13336 H 1246.52 3.20339 -2.49275 0
M  V30 13337 H 1247.29 1.7652 -4.51736 0
M  V30 13338 H 1243.17 2.70669 -3.73175 0
M  V30 13339 H 1246.71 1.25244 -6.86265 0
M  V30 13340 H 1242.61 2.19833 -6.06913 0
M  V30 13341 H 1243.38 1.54191 -8.03845 0
M  V30 13342 N 1246.04 1.3432 0.824371 0
M  V30 13343 C 1247.29 1.26345 1.57738 0
M  V30 13344 C 1247.61 -0.166836 1.94285 0
M  V30 13345 O 1246.88 -1.09911 1.62162 0
M  V30 13346 H 1245.46 0.46466 0.584893 0
M  V30 13347 H 1248.12 1.68214 0.984373 0
M  V30 13348 H 1247.22 1.8672 2.50084 0
M  V30 13349 N 1247.52 -1.0444 1.18026 0
M  V30 13350 C 1248.79 -1.74533 0.883045 0
M  V30 13351 C 1249.17 -2.01944 -0.614975 0
M  V30 13352 O 1248.52 -1.66158 -1.56855 0
M  V30 13353 C 1248.73 -3.0332 1.72621 0
M  V30 13354 C 1250.08 -3.77128 1.9509 0
M  V30 13355 O 1251.1 -3.13209 1.69643 0
M  V30 13356 O 1249.96 -4.92001 2.37903 0
M  V30 13357 H 1247.06 -0.759315 0.327673 0
M  V30 13358 H 1249.6 -1.10539 1.2876 0
M  V30 13359 H 1248.37 -2.79171 2.74188 0
M  V30 13360 H 1248 -3.75052 1.31993 0
M  V30 13361 N 1248.99 -0.981699 -1.2329 0
M  V30 13362 C 1250.22 -0.668399 -1.95489 0
M  V30 13363 C 1250.63 0.768976 -1.72868 0
M  V30 13364 O 1249.98 1.52925 -1.01783 0
M  V30 13365 C 1250.04 -0.880535 -3.4855 0
M  V30 13366 C 1249.7 -2.30023 -3.9489 0
M  V30 13367 C 1250.7 -3.27899 -4.03458 0
M  V30 13368 C 1248.38 -2.63167 -4.27842 0
M  V30 13369 C 1250.38 -4.56999 -4.44332 0
M  V30 13370 C 1248.06 -3.92489 -4.68397 0
M  V30 13371 C 1249.06 -4.89216 -4.76609 0
M  V30 13372 O 1248.75 -6.16229 -5.16253 0
M  V30 13373 H 1248.48 -0.247255 -0.629159 0
M  V30 13374 H 1251.04 -1.31606 -1.57699 0
M  V30 13375 H 1249.27 -0.175698 -3.86301 0
M  V30 13376 H 1250.96 -0.564198 -4.0196 0
M  V30 13377 H 1251.72 -3.03624 -3.78203 0
M  V30 13378 H 1247.6 -1.88588 -4.20661 0
M  V30 13379 H 1251.14 -5.32498 -4.50656 0
M  V30 13380 H 1247.04 -4.16558 -4.93102 0
M  V30 13381 H 1247.81 -6.20001 -5.34361 0
M  V30 13382 N 1250.47 1.3842 -0.753509 0
M  V30 13383 C 1251.88 1.82847 -0.377331 0
M  V30 13384 C 1252.23 1.62867 1.09401 0
M  V30 13385 O 1251.36 1.12981 1.84565 0
M  V30 13386 C 1251.95 3.31945 -0.678095 0
M  V30 13387 C 1250.51 3.7472 -0.355196 0
M  V30 13388 C 1249.66 2.61193 -0.931311 0
M  V30 13389 H 1252.61 1.2715 -0.949667 0
M  V30 13390 H 1252.63 3.80475 0.0437292 0
M  V30 13391 H 1252.14 3.46455 -1.74902 0
M  V30 13392 H 1250.25 3.65789 0.70915 0
M  V30 13393 H 1250.36 4.71487 -0.850693 0
M  V30 13394 H 1248.72 2.5219 -0.356695 0
M  V30 13395 H 1249.51 2.78503 -2.00727 0
M  V30 13396 N 1251.95 0.502579 1.49372 0
M  V30 13397 C 1252.9 -0.294292 2.26093 0
M  V30 13398 C 1253.88 -0.934147 1.31006 0
M  V30 13399 O 1255.08 -0.841486 1.55718 0
M  V30 13400 C 1252.21 -1.3572 3.15333 0
M  V30 13401 C 1251.29 -0.723506 4.17883 0
M  V30 13402 N 1251.68 0.174787 5.05498 0
M  V30 13403 C 1249.98 -0.983906 4.35012 0
M  V30 13404 C 1250.68 0.537673 5.7921 0
M  V30 13405 N 1249.66 -0.0947799 5.43517 0
M  V30 13406 H 1253.46 0.397202 2.91204 0
M  V30 13407 H 1250.97 0.31876 1.59241 0
M  V30 13408 H 1252.97 -1.94154 3.6893 0
M  V30 13409 H 1251.63 -2.05036 2.51775 0
M  V30 13410 H 1252.64 0.545699 5.15017 0
M  V30 13411 H 1249.32 -1.66969 3.82658 0
M  V30 13412 H 1250.71 1.27266 6.59737 0
M  V30 13413 N 1253.43 -1.55816 0.23648 0
M  V30 13414 C 1254.68 -1.97862 -0.391579 0
M  V30 13415 C 1254.99 -1.1276 -1.59827 0
M  V30 13416 O 1256.2 -1.44772 -2.29681 0
M  V30 13417 C 1254.65 -3.5204 -0.748065 0
M  V30 13418 C 1254.26 -4.45867 0.436643 0
M  V30 13419 C 1256 -4.02766 -1.3409 0
M  V30 13420 C 1253.91 -5.91373 0.0568909 0
M  V30 13421 H 1252.84 -0.738913 -0.150078 0
M  V30 13422 H 1255.49 -1.80415 0.335052 0
M  V30 13423 H 1253.87 -3.65143 -1.53254 0
M  V30 13424 H 1255.05 -4.44519 1.21408 0
M  V30 13425 H 1253.36 -4.05565 0.943702 0
M  V30 13426 H 1255.96 -5.08987 -1.63817 0
M  V30 13427 H 1256.3 -3.49496 -2.26182 0
M  V30 13428 H 1256.84 -3.92946 -0.619548 0
M  V30 13429 H 1253.58 -6.48657 0.944682 0
M  V30 13430 H 1253.1 -5.95881 -0.684557 0
M  V30 13431 H 1254.77 -6.45972 -0.364586 0
M  V30 13432 N 1254.91 0.036755 -1.57557 0
M  V30 13433 C 1256.16 0.728107 -1.881 0
M  V30 13434 C 1256.47 1.7693 -0.833974 0
M  V30 13435 O 1257.67 2.5127 -1.02837 0
M  V30 13436 C 1256.13 1.34604 -3.33781 0
M  V30 13437 C 1255.74 0.341599 -4.46696 0
M  V30 13438 C 1257.48 2.01772 -3.73481 0
M  V30 13439 C 1255.39 0.967444 -5.83433 0
M  V30 13440 H 1254.32 0.275695 -0.701789 0
M  V30 13441 H 1256.97 -0.0177555 -1.83491 0
M  V30 13442 H 1255.35 2.14135 -3.3311 0
M  V30 13443 H 1256.53 -0.426441 -4.58823 0
M  V30 13444 H 1254.84 -0.227558 -4.15778 0
M  V30 13445 H 1257.44 2.49435 -4.72955 0
M  V30 13446 H 1257.78 2.83255 -3.05077 0
M  V30 13447 H 1258.31 1.29026 -3.76294 0
M  V30 13448 H 1255.05 0.19219 -6.55218 0
M  V30 13449 H 1254.57 1.70551 -5.75041 0
M  V30 13450 H 1256.25 1.47705 -6.29914 0
M  V30 13451 N 1256.39 1.54543 0.308881 0
M  V30 13452 C 1257.8 1.64532 0.882392 0
M  V30 13453 C 1258.15 0.54886 1.88367 0
M  V30 13454 O 1257.27 -0.315832 2.14083 0
M  V30 13455 C 1257.87 2.98251 1.60722 0
M  V30 13456 C 1256.43 3.10387 2.12925 0
M  V30 13457 C 1255.57 2.60176 0.959362 0
M  V30 13458 H 1258.52 1.58466 0.0860803 0
M  V30 13459 H 1258.55 2.89233 2.47233 0
M  V30 13460 H 1258.06 3.78033 0.878233 0
M  V30 13461 H 1256.16 2.35309 2.88895 0
M  V30 13462 H 1256.27 4.16421 2.36918 0
M  V30 13463 H 1254.64 2.16434 1.3427 0
M  V30 13464 H 1255.42 3.42429 0.244454 0
M  V30 13465 N 1257.86 -0.571685 1.46866 0
M  V30 13466 C 1259.1 -1.34041 1.54313 0
M  V30 13467 C 1259.47 -1.9101 0.194708 0
M  V30 13468 O 1260.67 -2.68414 0.143968 0
M  V30 13469 C 1258.94 -2.4315 2.61941 0
M  V30 13470 S 1260.5 -3.30301 2.88871 0
M  V30 13471 H 1257.32 -0.45652 0.545078 0
M  V30 13472 H 1259.92 -0.656041 1.84164 0
M  V30 13473 H 1258.62 -1.99707 3.58532 0
M  V30 13474 H 1258.15 -3.16345 2.33858 0
M  V30 13475 H 1260.17 -4.42265 2.24981 0
M  V30 13476 N 1259.34 -1.34755 -0.817236 0
M  V30 13477 C 1260.59 -1.26771 -1.56882 0
M  V30 13478 C 1260.9 0.158962 -1.94953 0
M  V30 13479 O 1262.11 0.360996 -2.69089 0
M  V30 13480 C 1260.57 -2.22261 -2.83069 0
M  V30 13481 C 1260.17 -3.70216 -2.52277 0
M  V30 13482 C 1261.92 -2.23197 -3.61086 0
M  V30 13483 C 1259.82 -4.57559 -3.74691 0
M  V30 13484 H 1258.75 -0.470961 -0.588822 0
M  V30 13485 H 1261.41 -1.59955 -0.899254 0
M  V30 13486 H 1259.79 -1.82036 -3.5168 0
M  V30 13487 H 1260.96 -4.19014 -1.9174 0
M  V30 13488 H 1259.28 -3.71784 -1.87525 0
M  V30 13489 H 1261.87 -2.85673 -4.5199 0
M  V30 13490 H 1262.22 -1.2328 -3.97628 0
M  V30 13491 H 1262.75 -2.61897 -2.99424 0
M  V30 13492 H 1259.49 -5.58434 -3.43267 0
M  V30 13493 H 1259.01 -4.13494 -4.34491 0
M  V30 13494 H 1260.69 -4.72451 -4.42039 0
M  V30 13495 N 1260.82 1.03812 -1.18578 0
M  V30 13496 C 1262.07 1.76706 -0.980776 0
M  V30 13497 C 1262.39 1.88729 0.490562 0
M  V30 13498 O 1261.66 1.41413 1.35569 0
M  V30 13499 H 1260.24 0.654586 -0.359898 0
M  V30 13500 H 1262.9 1.25274 -1.49306 0
M  V30 13501 H 1262 2.77876 -1.42096 0
M  V30 13502 N 1262.3 0.988223 1.22768 0
M  V30 13503 C 1263.54 0.661461 1.91392 0
M  V30 13504 C 1263.87 -0.805942 1.77016 0
M  V30 13505 O 1263.13 -1.5978 1.12999 0
M  V30 13506 C 1263.43 1.00744 3.42907 0
M  V30 13507 C 1263.09 2.46634 3.77469 0
M  V30 13508 C 1261.75 2.86503 3.86613 0
M  V30 13509 C 1264.11 3.41217 3.9398 0
M  V30 13510 C 1261.43 4.19954 4.09702 0
M  V30 13511 C 1263.79 4.74321 4.18572 0
M  V30 13512 C 1262.45 5.13938 4.25939 0
M  V30 13513 H 1261.72 0.242046 0.700353 0
M  V30 13514 H 1264.37 1.24354 1.45631 0
M  V30 13515 H 1262.67 0.34338 3.90292 0
M  V30 13516 H 1264.37 0.732714 3.94249 0
M  V30 13517 H 1260.96 2.14729 3.70931 0
M  V30 13518 H 1265.14 3.11589 3.86298 0
M  V30 13519 H 1260.4 4.50243 4.13631 0
M  V30 13520 H 1264.57 5.47561 4.30291 0
M  V30 13521 H 1262.2 6.17364 4.43583 0
M  V30 13522 N 1263.78 -1.38018 0.760839 0
M  V30 13523 C 1265 -2.04231 0.331285 0
M  V30 13524 C 1265.42 -1.57385 -1.04285 0
M  V30 13525 O 1264.78 -0.750168 -1.66369 0
M  V30 13526 C 1264.83 -3.59772 0.353021 0
M  V30 13527 O 1264.55 -4.049 1.67294 0
M  V30 13528 C 1266.05 -4.4321 -0.0894942 0
M  V30 13529 H 1263.27 -0.656145 0.140408 0
M  V30 13530 H 1265.81 -1.76567 1.03172 0
M  V30 13531 H 1263.97 -3.86246 -0.298735 0
M  V30 13532 H 1264.38 -4.99369 1.60408 0
M  V30 13533 H 1265.86 -5.51995 -0.0231262 0
M  V30 13534 H 1266.33 -4.2419 -1.13839 0
M  V30 13535 H 1266.94 -4.21939 0.533661 0
M  V30 13536 N 1265.25 -0.510493 -1.49103 0
M  V30 13537 C 1266.19 0.309697 -2.26089 0
M  V30 13538 C 1267.16 0.962061 -1.31084 0
M  V30 13539 O 1268.35 0.990296 -1.60391 0
M  V30 13540 C 1265.48 1.43693 -3.06708 0
M  V30 13541 C 1264.52 0.897978 -4.1694 0
M  V30 13542 S 1265.35 -0.218781 -5.35053 0
M  V30 13543 C 1266.51 0.911396 -6.19229 0
M  V30 13544 H 1266.74 -0.343702 -2.95307 0
M  V30 13545 H 1264.28 -0.295944 -1.51537 0
M  V30 13546 H 1266.23 2.08277 -3.53739 0
M  V30 13547 H 1264.9 2.06198 -2.36941 0
M  V30 13548 H 1264.09 1.74303 -4.729 0
M  V30 13549 H 1263.69 0.329192 -3.72548 0
M  V30 13550 H 1265.98 1.8145 -6.5275 0
M  V30 13551 H 1266.93 0.390201 -7.07024 0
M  V30 13552 H 1267.33 1.18301 -5.51965 0
M  V30 13553 N 1266.73 1.55688 -0.24474 0
M  V30 13554 C 1267.98 1.98498 0.379852 0
M  V30 13555 C 1268.3 1.13416 1.58625 0
M  V30 13556 O 1267.57 0.216456 1.947 0
M  V30 13557 H 1266.15 0.73312 0.143334 0
M  V30 13558 H 1268.81 1.91858 -0.343027 0
M  V30 13559 H 1267.91 3.04367 0.690463 0
M  V30 13560 N 1268.21 -0.0283989 1.57574 0
M  V30 13561 C 1269.46 -0.718121 1.88483 0
M  V30 13562 C 1269.77 -1.76485 0.843345 0
M  V30 13563 O 1270.98 -2.50721 1.04169 0
M  V30 13564 C 1269.43 -1.32832 3.3449 0
M  V30 13565 C 1269.04 -0.317905 4.46871 0
M  V30 13566 C 1270.79 -1.99788 3.74546 0
M  V30 13567 C 1268.69 -0.936489 5.83938 0
M  V30 13568 H 1267.62 -0.271969 0.703242 0
M  V30 13569 H 1270.27 0.0274862 1.83479 0
M  V30 13570 H 1268.66 -2.12366 3.34241 0
M  V30 13571 H 1269.83 0.450767 4.5859 0
M  V30 13572 H 1268.14 0.249605 4.15651 0
M  V30 13573 H 1270.74 -2.46923 4.74271 0
M  V30 13574 H 1271.08 -2.81633 3.06575 0
M  V30 13575 H 1271.62 -1.27029 3.76973 0
M  V30 13576 H 1268.36 -0.15744 6.55311 0
M  V30 13577 H 1267.88 -1.67499 5.75938 0
M  V30 13578 H 1269.56 -1.44363 6.30689 0
M  V30 13579 N 1269.69 -1.54705 -0.300681 0
M  V30 13580 C 1270.64 -1.86433 -1.39087 0
M  V30 13581 C 1271.63 -0.738101 -1.52474 0
M  V30 13582 O 1272.84 -0.922096 -1.54588 0
M  V30 13583 H 1269.21 -0.591314 -0.464599 0
M  V30 13584 H 1271.18 -2.77558 -1.09563 0
M  V30 13585 C 1269.93 -2.1286 -2.74929 0
M  V30 13586 H 1269.25 -2.98994 -2.6541 0
M  V30 13587 H 1270.69 -2.39 -3.50222 0
M  V30 13588 C 1269.15 -0.92726 -3.23888 0
M  V30 13589 O 1269.68 -0.147921 -4.01428 0
M  V30 13590 N 1267.89 -0.732553 -2.81215 0
M  V30 13591 H 1267.44 -1.36797 -2.18276 0
M  V30 13592 H 1267.39 0.0696902 -3.14323 0
M  V30 13593 N 1271.17 0.563888 -1.47167 0
M  V30 13594 C 1272.41 1.31875 -1.53145 0
M  V30 13595 C 1272.74 1.94047 -0.192518 0
M  V30 13596 O 1272.01 1.79577 0.782872 0
M  V30 13597 H 1270.59 0.489694 -0.5641 0
M  V30 13598 H 1273.25 0.658976 -1.83422 0
M  V30 13599 H 1272.34 2.11574 -2.2944 0
M  V30 13600 N 1272.64 1.35187 0.810078 0
M  V30 13601 C 1273.55 1.29926 1.95337 0
M  V30 13602 C 1274.57 0.204748 1.72791 0
M  V30 13603 O 1275.75 0.433507 1.96679 0
M  V30 13604 C 1272.81 1.06736 3.29861 0
M  V30 13605 C 1271.87 2.25466 3.65326 0
M  V30 13606 C 1271.11 2.03373 4.93432 0
M  V30 13607 O 1271.33 0.998419 5.61594 0
M  V30 13608 O 1270.26 2.90648 5.27075 0
M  V30 13609 H 1274.09 2.26137 2.02721 0
M  V30 13610 H 1271.67 1.15523 0.947354 0
M  V30 13611 H 1273.56 0.956367 4.10404 0
M  V30 13612 H 1272.23 0.135735 3.23415 0
M  V30 13613 H 1271.14 2.42129 2.85175 0
M  V30 13614 H 1272.47 3.17063 3.76473 0
M  V30 13615 N 1274.12 -1.03182 1.19127 0
M  V30 13616 C 1275.35 -1.79904 1.01578 0
M  V30 13617 C 1275.76 -1.84044 -0.438697 0
M  V30 13618 O 1275.1 -1.28117 -1.3165 0
M  V30 13619 C 1275.17 -3.26473 1.50519 0
M  V30 13620 C 1274.83 -3.45975 2.98581 0
M  V30 13621 C 1275.83 -3.36436 3.96367 0
M  V30 13622 C 1273.51 -3.72284 3.37209 0
M  V30 13623 C 1275.51 -3.52925 5.30775 0
M  V30 13624 C 1273.19 -3.8842 4.71777 0
M  V30 13625 C 1274.19 -3.78742 5.68369 0
M  V30 13626 O 1273.88 -3.94405 7.005 0
M  V30 13627 H 1273.61 -0.573103 0.35851 0
M  V30 13628 H 1276.16 -1.30871 1.5831 0
M  V30 13629 H 1274.39 -3.76517 0.881593 0
M  V30 13630 H 1276.08 -3.84781 1.29223 0
M  V30 13631 H 1276.85 -3.16064 3.6787 0
M  V30 13632 H 1272.73 -3.78911 2.62579 0
M  V30 13633 H 1276.27 -3.45288 6.06153 0
M  V30 13634 H 1272.17 -4.08288 4.99971 0
M  V30 13635 H 1272.94 -4.11514 7.0753 0
M  V30 13636 N 1275.6 -0.99472 -1.22242 0
M  V30 13637 C 1276.88 -0.587481 -1.86569 0
M  V30 13638 C 1277.26 0.935174 -1.89256 0
M  V30 13639 O 1276.61 1.81787 -1.3844 0
M  V30 13640 C 1276.82 -1.21001 -3.27353 0
M  V30 13641 C 1278.16 -1.31167 -4.03832 0
M  V30 13642 O 1279.19 -1.16454 -3.36626 0
M  V30 13643 O 1278.05 -1.54731 -5.24138 0
M  V30 13644 H 1275.14 -0.199838 -0.802492 0
M  V30 13645 H 1277.69 -1.09071 -1.30006 0
M  V30 13646 H 1276.46 -2.25143 -3.20041 0
M  V30 13647 H 1276.08 -0.692479 -3.91523 0
M  V30 13648 N 1277.08 1.37613 -0.768148 0
M  V30 13649 C 1278.01 2.28935 -0.110234 0
M  V30 13650 C 1279.02 1.48459 0.668122 0
M  V30 13651 O 1280.21 1.71154 0.506808 0
M  V30 13652 C 1277.31 3.27606 0.867598 0
M  V30 13653 C 1276.49 4.37163 0.143819 0
M  V30 13654 C 1275.54 5.15931 1.03449 0
M  V30 13655 O 1274.57 5.67003 0.499605 0
M  V30 13656 N 1275.77 5.30311 2.36114 0
M  V30 13657 H 1278.54 2.86037 -0.894585 0
M  V30 13658 H 1276.1 1.4955 -0.620185 0
M  V30 13659 H 1278.09 3.77183 1.4668 0
M  V30 13660 H 1276.66 2.71298 1.55294 0
M  V30 13661 H 1275.88 3.89031 -0.636257 0
M  V30 13662 H 1277.17 5.0755 -0.356446 0
M  V30 13663 H 1276.57 4.90394 2.82011 0
M  V30 13664 H 1275.12 5.83209 2.9105 0
M  V30 13665 N 1278.56 0.518393 1.4883 0
M  V30 13666 C 1279.8 -0.0199348 2.0279 0
M  V30 13667 C 1280.14 -1.35026 1.39576 0
M  V30 13668 O 1279.41 -1.86927 0.537449 0
M  V30 13669 C 1279.69 -0.154184 3.5977 0
M  V30 13670 C 1279.55 1.2005 4.33484 0
M  V30 13671 C 1280.87 -0.886547 4.31078 0
M  V30 13672 H 1277.98 -0.00577061 0.736977 0
M  V30 13673 H 1280.63 0.673178 1.77675 0
M  V30 13674 H 1278.78 -0.74451 3.81299 0
M  V30 13675 H 1280.45 1.83104 4.23404 0
M  V30 13676 H 1278.69 1.78537 3.95357 0
M  V30 13677 H 1279.36 1.05968 5.41733 0
M  V30 13678 H 1281.84 -0.385711 4.14308 0
M  V30 13679 H 1280.71 -0.949355 5.40628 0
M  V30 13680 H 1280.98 -1.93424 3.97542 0
M  V30 13681 N 1280.03 -1.55556 0.252993 0
M  V30 13682 C 1281 -2.20351 -0.630705 0
M  V30 13683 C 1282 -1.17461 -1.09816 0
M  V30 13684 O 1283.19 -1.42505 -1.00189 0
M  V30 13685 C 1280.32 -2.85192 -1.86757 0
M  V30 13686 H 1281.51 -2.99829 -0.0652939 0
M  V30 13687 H 1279.07 -1.563 0.00347982 0
M  V30 13688 H 1279.8 -2.09669 -2.47406 0
M  V30 13689 H 1279.59 -3.60569 -1.54053 0
M  V30 13690 H 1281.08 -3.34762 -2.49648 0
M  V30 13691 N 1281.51 0.0200419 -1.57587 0
M  V30 13692 C 1282.74 0.719511 -1.93666 0
M  V30 13693 C 1283.15 1.68934 -0.85193 0
M  V30 13694 O 1282.49 1.8282 0.179593 0
M  V30 13695 C 1282.56 1.52382 -3.25607 0
M  V30 13696 C 1282.22 0.717784 -4.51328 0
M  V30 13697 C 1283.22 0.0141272 -5.19898 0
M  V30 13698 C 1280.9 0.669662 -4.97816 0
M  V30 13699 C 1282.9 -0.726853 -6.33242 0
M  V30 13700 C 1280.58 -0.0750577 -6.11054 0
M  V30 13701 C 1281.58 -0.772067 -6.78622 0
M  V30 13702 O 1281.27 -1.50468 -7.89693 0
M  V30 13703 H 1281 0.206681 -0.643629 0
M  V30 13704 H 1283.55 -0.0211203 -2.05389 0
M  V30 13705 H 1281.78 2.30848 -3.10236 0
M  V30 13706 H 1283.47 2.10675 -3.46945 0
M  V30 13707 H 1284.24 0.0422784 -4.84982 0
M  V30 13708 H 1280.12 1.20169 -4.45062 0
M  V30 13709 H 1283.66 -1.27143 -6.85916 0
M  V30 13710 H 1279.56 -0.1051 -6.45414 0
M  V30 13711 H 1280.33 -1.41929 -8.06101 0
M  V30 13712 N 1282.99 1.54862 0.292472 0
M  V30 13713 C 1284.22 1.78291 1.04383 0
M  V30 13714 C 1284.63 0.546703 1.81129 0
M  V30 13715 O 1283.97 -0.493286 1.76953 0
M  V30 13716 C 1284.03 2.94321 2.06435 0
M  V30 13717 C 1283.7 4.32095 1.48806 0
M  V30 13718 C 1284.69 5.11808 0.91369 0
M  V30 13719 C 1282.38 4.78714 1.52112 0
M  V30 13720 C 1284.37 6.36266 0.380053 0
M  V30 13721 C 1282.06 6.03132 0.983613 0
M  V30 13722 C 1283.06 6.81744 0.41406 0
M  V30 13723 O 1282.75 8.03817 -0.115268 0
M  V30 13724 H 1282.48 0.598147 0.314954 0
M  V30 13725 H 1285.03 2.02655 0.334661 0
M  V30 13726 H 1283.26 2.65602 2.81056 0
M  V30 13727 H 1284.95 3.05249 2.67541 0
M  V30 13728 H 1285.72 4.76931 0.880988 0
M  V30 13729 H 1281.6 4.17549 1.95382 0
M  V30 13730 H 1285.14 6.9757 -0.0651481 0
M  V30 13731 H 1281.04 6.37494 1.01349 0
M  V30 13732 H 1281.81 8.185 -0.00277496 0
M  V30 13733 N 1284.47 -0.556076 1.47464 0
M  V30 13734 C 1285.72 -1.31061 1.53842 0
M  V30 13735 C 1286.04 -1.93943 0.202806 0
M  V30 13736 O 1285.31 -1.7999 -0.773338 0
M  V30 13737 H 1283.89 -0.486696 0.566689 0
M  V30 13738 H 1286.55 -0.64924 1.83769 0
M  V30 13739 H 1285.65 -2.10354 2.30559 0
M  V30 13740 N 1285.95 -1.35615 -0.802897 0
M  V30 13741 C 1287.36 -1.15733 -1.099 0
M  V30 13742 C 1287.56 0.0277094 -2.01481 0
M  V30 13743 O 1286.62 0.697196 -2.42684 0
M  V30 13744 C 1287.93 -2.46201 -1.72643 0
M  V30 13745 C 1289.48 -2.52442 -1.85046 0
M  V30 13746 C 1289.96 -3.82962 -2.51205 0
M  V30 13747 N 1291.45 -3.84234 -2.58686 0
M  V30 13748 C 1292.18 -4.81956 -3.10654 0
M  V30 13749 N 1291.68 -5.90068 -3.63032 0
M  V30 13750 N 1293.47 -4.69389 -3.09241 0
M  V30 13751 H 1285.62 -2.11511 -0.194177 0
M  V30 13752 H 1287.88 -0.936259 -0.148739 0
M  V30 13753 H 1287.59 -3.33114 -1.12817 0
M  V30 13754 H 1287.46 -2.6102 -2.72302 0
M  V30 13755 H 1289.85 -1.65955 -2.44014 0
M  V30 13756 H 1289.93 -2.41534 -0.842316 0
M  V30 13757 H 1289.58 -4.69848 -1.92885 0
M  V30 13758 H 1289.51 -3.9116 -3.52564 0
M  V30 13759 H 1292 -3.0612 -2.21582 0
M  V30 13760 H 1292.31 -6.60623 -4.00996 0
M  V30 13761 H 1290.66 -5.93755 -3.6122 0
M  V30 13762 H 1293.85 -3.84066 -2.67602 0
M  V30 13763 H 1294.02 -5.4571 -3.49435 0
M  V30 13764 N 1287.43 1.02549 -1.19673 0
M  V30 13765 C 1288.67 1.75656 -0.999463 0
M  V30 13766 C 1288.99 1.89238 0.470517 0
M  V30 13767 O 1288.26 1.42843 1.34062 0
M  V30 13768 H 1286.84 0.650732 -0.366821 0
M  V30 13769 H 1289.51 1.23684 -1.50627 0
M  V30 13770 H 1288.6 2.76353 -1.45035 0
M  V30 13771 N 1288.9 1.00119 1.21713 0
M  V30 13772 C 1290.31 0.715611 1.72441 0
M  V30 13773 C 1290.67 -0.767 1.80587 0
M  V30 13774 O 1289.79 -1.59928 1.45781 0
M  V30 13775 C 1290.39 1.29234 3.13184 0
M  V30 13776 C 1288.94 1.05597 3.61284 0
M  V30 13777 C 1288.09 1.40749 2.38925 0
M  V30 13778 H 1291.04 1.17255 1.06943 0
M  V30 13779 H 1291.06 0.67507 3.74464 0
M  V30 13780 H 1290.58 2.37141 3.07223 0
M  V30 13781 H 1288.68 -0.00610816 3.72599 0
M  V30 13782 H 1288.79 1.72517 4.46961 0
M  V30 13783 H 1287.15 0.826207 2.40927 0
M  V30 13784 H 1287.94 2.49678 2.35618 0
M  V30 13785 N 1290.38 -1.37203 0.775435 0
M  V30 13786 C 1291.63 -1.99207 0.340756 0
M  V30 13787 C 1291.95 -1.61861 -1.08747 0
M  V30 13788 O 1291.22 -0.88583 -1.74728 0
M  V30 13789 H 1289.8 -0.736803 0.123004 0
M  V30 13790 H 1292.46 -1.67625 0.994379 0
M  V30 13791 H 1291.56 -3.09243 0.421346 0
M  V30 13792 N 1291.86 -0.526279 -1.48553 0
M  V30 13793 C 1292.77 0.24244 -2.33344 0
M  V30 13794 C 1293.79 0.942658 -1.46253 0
M  V30 13795 O 1294.96 0.91844 -1.79239 0
M  V30 13796 C 1292.03 1.27801 -3.22285 0
M  V30 13797 C 1291.09 0.588543 -4.25247 0
M  V30 13798 C 1290.32 1.57478 -5.09938 0
M  V30 13799 O 1290.54 2.80707 -4.96548 0
M  V30 13800 O 1289.48 1.11621 -5.9146 0
M  V30 13801 H 1293.3 -0.452262 -3.00314 0
M  V30 13802 H 1290.89 -0.287249 -1.46613 0
M  V30 13803 H 1292.77 1.87656 -3.7731 0
M  V30 13804 H 1291.45 1.95519 -2.57981 0
M  V30 13805 H 1290.35 -0.0504022 -3.74066 0
M  V30 13806 H 1291.69 -0.046627 -4.92178 0
M  V30 13807 N 1293.34 1.5542 -0.261239 0
M  V30 13808 C 1294.29 2.23382 0.648324 0
M  V30 13809 C 1295.28 1.22615 1.16884 0
M  V30 13810 O 1296.49 1.40587 1.12407 0
M  V30 13811 H 1292.86 0.716733 0.227592 0
M  V30 13812 H 1294.83 2.98354 0.0521289 0
M  V30 13813 C 1293.58 2.9579 1.82766 0
M  V30 13814 H 1292.9 3.73109 1.4363 0
M  V30 13815 H 1294.34 3.46686 2.441 0
M  V30 13816 C 1292.8 2.00472 2.70763 0
M  V30 13817 O 1293.33 1.54698 3.70717 0
M  V30 13818 N 1291.54 1.67267 2.37635 0
M  V30 13819 H 1291.09 2.04685 1.56402 0
M  V30 13820 H 1291.04 1.03759 2.96785 0
M  V30 13821 N 1294.82 -0.0116844 1.57596 0
M  V30 13822 C 1296.05 -0.70923 1.94045 0
M  V30 13823 C 1296.45 -1.6848 0.860877 0
M  V30 13824 O 1295.8 -1.82913 -0.169896 0
M  V30 13825 C 1295.86 -1.50653 3.2641 0
M  V30 13826 C 1295.52 -0.693838 4.51702 0
M  V30 13827 C 1296.52 0.0134445 5.19898 0
M  V30 13828 C 1294.2 -0.643252 4.98164 0
M  V30 13829 C 1296.2 0.760426 6.32848 0
M  V30 13830 C 1293.89 0.107462 6.11006 0
M  V30 13831 C 1294.88 0.808045 6.78203 0
M  V30 13832 O 1294.57 1.54654 7.88884 0
M  V30 13833 H 1294.3 -0.203265 0.644716 0
M  V30 13834 H 1296.86 0.0320123 2.05375 0
M  V30 13835 H 1295.09 -2.29199 3.11456 0
M  V30 13836 H 1296.78 -2.08832 3.48058 0
M  V30 13837 H 1297.54 -0.016558 4.84997 0
M  V30 13838 H 1293.42 -1.17807 4.45693 0
M  V30 13839 H 1296.97 1.30779 6.85232 0
M  V30 13840 H 1292.86 0.139327 6.4535 0
M  V30 13841 H 1293.63 1.46202 8.05337 0
M  V30 13842 N 1296.29 -1.55015 -0.284256 0
M  V30 13843 C 1297.26 -1.8636 -1.33426 0
M  V30 13844 C 1298.26 -0.737457 -1.42892 0
M  V30 13845 O 1299.45 -1.00569 -1.42238 0
M  V30 13846 C 1296.58 -2.05884 -2.71707 0
M  V30 13847 H 1297.77 -2.80212 -1.06869 0
M  V30 13848 H 1295.32 -1.47334 -0.521767 0
M  V30 13849 H 1296.06 -1.14376 -3.03461 0
M  V30 13850 H 1295.84 -2.87867 -2.66224 0
M  V30 13851 H 1297.33 -2.31447 -3.47595 0
M  V30 13852 N 1297.77 0.548248 -1.47757 0
M  V30 13853 C 1299.05 1.3092 -1.45325 0
M  V30 13854 C 1299.43 2.1053 -0.155008 0
M  V30 13855 O 1298.78 2.11558 0.863455 0
M  V30 13856 C 1298.99 2.20614 -2.70426 0
M  V30 13857 C 1300.33 2.81345 -3.18009 0
M  V30 13858 O 1301.36 2.30911 -2.71216 0
M  V30 13859 O 1300.22 3.73036 -3.99383 0
M  V30 13860 H 1297.31 0.58996 -0.579548 0
M  V30 13861 H 1299.86 0.56641 -1.59968 0
M  V30 13862 H 1298.63 1.61449 -3.56441 0
M  V30 13863 H 1298.25 3.02173 -2.58413 0
M  V30 13864 N 1299.25 1.36039 0.795694 0
M  V30 13865 C 1300.47 1.33222 1.58955 0
M  V30 13866 C 1300.9 -0.0854596 1.87906 0
M  V30 13867 O 1300.26 -1.05555 1.47403 0
M  V30 13868 C 1300.31 2.15508 2.89117 0
M  V30 13869 O 1299.41 1.54327 3.82436 0
M  V30 13870 H 1298.75 0.456264 0.48241 0
M  V30 13871 H 1301.28 1.79234 0.986726 0
M  V30 13872 H 1301.29 2.2786 3.38444 0
M  V30 13873 H 1299.97 3.18568 2.67371 0
M  V30 13874 H 1298.54 1.50879 3.41013 0
M  V30 13875 N 1300.73 -1.01913 1.20215 0
M  V30 13876 C 1301.66 -2.10513 0.906476 0
M  V30 13877 C 1302.67 -1.62463 -0.104758 0
M  V30 13878 O 1303.86 -1.78055 0.12593 0
M  V30 13879 C 1300.96 -3.3722 0.337012 0
M  V30 13880 C 1300.14 -4.14417 1.39917 0
M  V30 13881 C 1299.19 -5.19428 0.841489 0
M  V30 13882 O 1298.22 -5.48486 1.52157 0
M  V30 13883 N 1299.42 -5.79442 -0.350365 0
M  V30 13884 H 1302.19 -2.36465 1.84132 0
M  V30 13885 H 1299.75 -1.18283 1.10548 0
M  V30 13886 H 1301.74 -4.04669 -0.0501507 0
M  V30 13887 H 1300.31 -3.08538 -0.502325 0
M  V30 13888 H 1299.53 -3.41975 1.96078 0
M  V30 13889 H 1300.82 -4.62777 2.1146 0
M  V30 13890 H 1300.22 -5.58166 -0.920204 0
M  V30 13891 H 1298.77 -6.48252 -0.679194 0
M  V30 13892 N 1302.21 -1.00763 -1.2118 0
M  V30 13893 C 1303.14 -0.528468 -2.23024 0
M  V30 13894 C 1304.15 0.384348 -1.58198 0
M  V30 13895 O 1305.34 0.184127 -1.77548 0
M  V30 13896 C 1302.44 0.251693 -3.37964 0
M  V30 13897 C 1301.61 -0.660838 -4.32379 0
M  V30 13898 C 1300.67 0.0701723 -5.26153 0
M  V30 13899 O 1299.7 -0.549355 -5.66543 0
M  V30 13900 N 1300.9 1.34791 -5.64634 0
M  V30 13901 H 1303.67 -1.40428 -2.64764 0
M  V30 13902 H 1301.23 -0.884085 -1.3563 0
M  V30 13903 H 1303.22 0.749746 -3.97694 0
M  V30 13904 H 1301.79 1.02872 -2.95188 0
M  V30 13905 H 1301.01 -1.33934 -3.7075 0
M  V30 13906 H 1302.3 -1.28177 -4.9239 0
M  V30 13907 H 1301.69 1.87232 -5.33817 0
M  V30 13908 H 1300.25 1.79086 -6.26715 0
M  V30 13909 N 1303.68 1.3679 -0.7827 0
M  V30 13910 C 1304.65 2.28472 -0.182525 0
M  V30 13911 C 1305.65 1.48524 0.616217 0
M  V30 13912 O 1306.84 1.68599 0.438197 0
M  V30 13913 C 1303.97 3.32588 0.748202 0
M  V30 13914 H 1305.16 2.83059 -0.99085 0
M  V30 13915 H 1302.72 1.46241 -0.551658 0
M  V30 13916 H 1303.45 2.83145 1.58112 0
M  V30 13917 H 1303.24 3.91698 0.177481 0
M  V30 13918 H 1304.73 4.01073 1.16321 0
M  V30 13919 N 1305.16 0.53415 1.48272 0
M  V30 13920 C 1306.11 -0.239672 2.31362 0
M  V30 13921 C 1307.1 -0.931501 1.4149 0
M  V30 13922 O 1308.31 -0.855411 1.58375 0
M  V30 13923 H 1304.69 -0.09616 0.745827 0
M  V30 13924 H 1306.66 0.480638 2.94504 0
M  V30 13925 C 1305.41 -1.27102 3.23636 0
M  V30 13926 H 1304.73 -0.748082 3.92739 0
M  V30 13927 H 1306.17 -1.78379 3.84652 0
M  V30 13928 C 1304.63 -2.30683 2.45534 0
M  V30 13929 O 1305.16 -3.37197 2.18314 0
M  V30 13930 N 1303.36 -2.04006 2.06954 0
M  V30 13931 H 1302.91 -1.17403 2.29291 0
M  V30 13932 H 1302.87 -2.73531 1.5501 0
M  V30 13933 N 1306.64 -1.55279 0.269478 0
M  V30 13934 C 1307.89 -1.98649 -0.349522 0
M  V30 13935 C 1308.2 -1.16125 -1.57399 0
M  V30 13936 O 1309.41 -1.49612 -2.26558 0
M  V30 13937 C 1307.86 -3.53547 -0.673224 0
M  V30 13938 C 1307.47 -4.44841 0.531119 0
M  V30 13939 C 1309.22 -4.05519 -1.25516 0
M  V30 13940 C 1307.12 -5.91119 0.182317 0
M  V30 13941 H 1306.05 -0.74193 -0.13437 0
M  V30 13942 H 1308.7 -1.79664 0.373246 0
M  V30 13943 H 1307.09 -3.68311 -1.45474 0
M  V30 13944 H 1308.26 -4.41843 1.3081 0
M  V30 13945 H 1306.58 -4.03472 1.02952 0
M  V30 13946 H 1309.17 -5.12347 -1.52984 0
M  V30 13947 H 1309.52 -3.54215 -2.18718 0
M  V30 13948 H 1310.05 -3.94172 -0.536059 0
M  V30 13949 H 1306.79 -6.46507 1.08206 0
M  V30 13950 H 1306.31 -5.97199 -0.558008 0
M  V30 13951 H 1307.99 -6.466 -0.227484 0
M  V30 13952 N 1308.12 0.00332656 -1.576 0
M  V30 13953 C 1309.37 0.688044 -1.89602 0
M  V30 13954 C 1309.68 1.75121 -0.871316 0
M  V30 13955 O 1310.89 2.49032 -1.08144 0
M  V30 13956 C 1309.34 1.27494 -3.36561 0
M  V30 13957 C 1308.95 0.246771 -4.4732 0
M  V30 13958 C 1310.69 1.93804 -3.77677 0
M  V30 13959 C 1308.6 0.843471 -5.85354 0
M  V30 13960 H 1307.53 0.260747 -0.707479 0
M  V30 13961 H 1310.18 -0.0566727 -1.83412 0
M  V30 13962 H 1308.56 2.07022 -3.37577 0
M  V30 13963 H 1309.74 -0.523668 -4.57815 0
M  V30 13964 H 1308.05 -0.3157 -4.15202 0
M  V30 13965 H 1310.65 2.39347 -4.78139 0
M  V30 13966 H 1310.99 2.7672 -3.11017 0
M  V30 13967 H 1311.53 1.21015 -3.78946 0
M  V30 13968 H 1308.27 0.0531655 -6.55478 0
M  V30 13969 H 1307.79 1.58315 -5.7853 0
M  V30 13970 H 1309.46 1.34311 -6.32906 0
M  V30 13971 N 1309.6 1.55164 0.276031 0
M  V30 13972 C 1310.87 1.66338 1.02913 0
M  V30 13973 C 1311.25 0.527876 2.04393 0
M  V30 13974 O 1310.6 -0.472437 2.23563 0
M  V30 13975 C 1310.81 3.05427 1.68865 0
M  V30 13976 C 1312.16 3.63075 2.2014 0
M  V30 13977 O 1313.18 3.0804 1.78857 0
M  V30 13978 O 1312.04 4.59492 2.95854 0
M  V30 13979 H 1309.14 0.675446 0.477181 0
M  V30 13980 H 1311.68 1.67504 0.272129 0
M  V30 13981 H 1310.45 3.79514 0.953125 0
M  V30 13982 H 1310.08 3.08147 2.5126 0
M  V30 13983 N 1311.07 -0.540404 1.48045 0
M  V30 13984 C 1312.32 -1.2932 1.54787 0
M  V30 13985 C 1312.64 -1.94335 0.222109 0
M  V30 13986 O 1313.84 -2.70982 0.167675 0
M  V30 13987 C 1312.3 -2.34594 2.72935 0
M  V30 13988 C 1311.91 -1.75696 4.1211 0
M  V30 13989 C 1313.65 -3.10949 2.88982 0
M  V30 13990 C 1311.56 -2.78849 5.21534 0
M  V30 13991 H 1310.49 -0.486315 0.576206 0
M  V30 13992 H 1313.14 -0.571998 1.74357 0
M  V30 13993 H 1311.52 -3.09704 2.46778 0
M  V30 13994 H 1312.69 -1.06845 4.48242 0
M  V30 13995 H 1311.01 -1.11869 4.01091 0
M  V30 13996 H 1313.61 -3.88012 3.679 0
M  V30 13997 H 1313.95 -3.66173 1.98048 0
M  V30 13998 H 1314.48 -2.42953 3.1499 0
M  V30 13999 H 1311.22 -2.28459 6.144 0
M  V30 14000 H 1310.74 -3.46059 4.89901 0
M  V30 14001 H 1312.42 -3.4203 5.49203 0
M  V30 14002 N 1312.55 -1.36459 -0.788468 0
M  V30 14003 C 1313.8 -1.31942 -1.54799 0
M  V30 14004 C 1314.15 0.100282 -1.92138 0
M  V30 14005 O 1313.45 1.05505 -1.59935 0
M  V30 14006 C 1313.64 -2.17672 -2.83467 0
M  V30 14007 C 1313.47 -3.67836 -2.58702 0
M  V30 14008 C 1312.24 -4.37009 -2.53675 0
M  V30 14009 C 1314.44 -4.61081 -2.27835 0
M  V30 14010 N 1312.42 -5.72811 -2.20817 0
M  V30 14011 C 1313.79 -5.85137 -2.04973 0
M  V30 14012 C 1315.85 -4.49636 -2.13849 0
M  V30 14013 C 1314.55 -6.99034 -1.69541 0
M  V30 14014 C 1316.57 -5.63401 -1.79816 0
M  V30 14015 C 1315.94 -6.86497 -1.57803 0
M  V30 14016 H 1312.04 -0.538087 -0.567438 0
M  V30 14017 H 1314.62 -1.7152 -0.921358 0
M  V30 14018 H 1312.79 -1.80338 -3.43995 0
M  V30 14019 H 1314.52 -2.04539 -3.49208 0
M  V30 14020 H 1311.28 -3.89822 -2.68953 0
M  V30 14021 H 1311.7 -6.44535 -2.07132 0
M  V30 14022 H 1316.34 -3.55054 -2.29558 0
M  V30 14023 H 1314.06 -7.93567 -1.52571 0
M  V30 14024 H 1317.65 -5.56508 -1.69677 0
M  V30 14025 H 1316.53 -7.73036 -1.31855 0
M  V30 14026 N 1314.03 1.01274 -1.20754 0
M  V30 14027 C 1315.45 1.27256 -0.963221 0
M  V30 14028 C 1315.65 1.98349 0.354972 0
M  V30 14029 O 1314.7 2.28116 1.08255 0
M  V30 14030 C 1316.02 2.1038 -2.14851 0
M  V30 14031 C 1317.56 2.23633 -2.18991 0
M  V30 14032 C 1318.04 3.10136 -3.37016 0
M  V30 14033 N 1319.53 3.17724 -3.37054 0
M  V30 14034 C 1320.26 3.84891 -4.25025 0
M  V30 14035 N 1319.76 4.54152 -5.23181 0
M  V30 14036 N 1321.55 3.81454 -4.12855 0
M  V30 14037 H 1313.7 0.535534 -2.05538 0
M  V30 14038 H 1315.97 0.299006 -0.899611 0
M  V30 14039 H 1315.67 1.65484 -3.10335 0
M  V30 14040 H 1315.55 3.11122 -2.13267 0
M  V30 14041 H 1317.93 2.67753 -1.24067 0
M  V30 14042 H 1318.02 1.22387 -2.24622 0
M  V30 14043 H 1317.66 2.66721 -4.32229 0
M  V30 14044 H 1317.59 4.11478 -3.28623 0
M  V30 14045 H 1320.08 2.68412 -2.66014 0
M  V30 14046 H 1320.39 5.03084 -5.86623 0
M  V30 14047 H 1318.74 4.52964 -5.27113 0
M  V30 14048 H 1321.93 3.26494 -3.35439 0
M  V30 14049 H 1322.1 4.33523 -4.81624 0
M  V30 14050 N 1315.51 1.01404 1.20644 0
M  V30 14051 C 1316.73 0.720839 1.9447 0
M  V30 14052 C 1317.16 -0.711711 1.74116 0
M  V30 14053 O 1316.52 -1.48938 1.03379 0
M  V30 14054 C 1316.57 1.05864 3.4471 0
M  V30 14055 O 1315.67 0.168901 4.12054 0
M  V30 14056 H 1315.01 0.267698 0.607646 0
M  V30 14057 H 1317.54 1.35672 1.53147 0
M  V30 14058 H 1317.55 1.00928 3.9532 0
M  V30 14059 H 1316.23 2.1024 3.58848 0
M  V30 14060 H 1314.8 0.275572 3.7188 0
M  V30 14061 N 1316.99 -1.36373 0.789944 0
M  V30 14062 C 1318.22 -2.03482 0.37453 0
M  V30 14063 C 1318.63 -1.59562 -1.00923 0
M  V30 14064 O 1317.99 -0.785289 -1.64741 0
M  V30 14065 C 1318.04 -3.58942 0.429255 0
M  V30 14066 O 1317.76 -4.01261 1.75845 0
M  V30 14067 C 1319.26 -4.433 0.00453729 0
M  V30 14068 H 1316.48 -0.653019 0.154295 0
M  V30 14069 H 1319.02 -1.74339 1.06894 0
M  V30 14070 H 1317.18 -3.86793 -0.21674 0
M  V30 14071 H 1317.59 -4.95854 1.70964 0
M  V30 14072 H 1319.07 -5.5192 0.0939653 0
M  V30 14073 H 1319.54 -4.26509 -1.04816 0
M  V30 14074 H 1320.15 -4.20712 0.623041 0
M  V30 14075 N 1318.47 -0.542005 -1.47987 0
M  V30 14076 C 1319.71 -0.0123299 -2.02796 0
M  V30 14077 C 1320.04 1.32789 -1.41707 0
M  V30 14078 O 1319.32 1.86048 -0.567119 0
M  V30 14079 C 1319.6 0.0969277 -3.5997 0
M  V30 14080 C 1319.46 -1.26931 -4.31519 0
M  V30 14081 C 1320.77 0.817854 -4.32434 0
M  V30 14082 H 1317.89 -0.00595479 -0.736976 0
M  V30 14083 H 1320.54 -0.70136 -1.76581 0
M  V30 14084 H 1318.69 0.683755 -3.82436 0
M  V30 14085 H 1320.36 -1.89817 -4.20437 0
M  V30 14086 H 1318.6 -1.84804 -3.92467 0
M  V30 14087 H 1319.27 -1.14573 -5.39979 0
M  V30 14088 H 1321.75 0.319749 -4.1487 0
M  V30 14089 H 1320.62 0.863225 -5.4207 0
M  V30 14090 H 1320.88 1.87075 -4.00569 0
M  V30 14091 N 1319.94 1.55134 -0.277709 0
M  V30 14092 C 1321.22 1.91667 0.390253 0
M  V30 14093 C 1321.6 1.20228 1.73518 0
M  V30 14094 O 1320.95 0.330013 2.26104 0
M  V30 14095 C 1321.16 3.44983 0.52797 0
M  V30 14096 C 1322.51 4.16809 0.809665 0
M  V30 14097 O 1323.53 3.50891 0.612679 0
M  V30 14098 O 1322.39 5.33463 1.18656 0
M  V30 14099 H 1319.48 0.798807 0.214095 0
M  V30 14100 H 1322.03 1.66577 -0.324053 0
M  V30 14101 H 1320.8 3.89056 -0.418422 0
M  V30 14102 H 1320.42 3.76035 1.29164 0
M  V30 14103 N 1321.42 0.00503138 1.57599 0
M  V30 14104 C 1322.38 -0.969628 2.0768 0
M  V30 14105 C 1323.38 -1.26933 0.987148 0
M  V30 14106 O 1324.57 -1.21368 1.24962 0
M  V30 14107 C 1321.71 -2.29312 2.52247 0
M  V30 14108 H 1322.9 -0.536342 2.95065 0
M  V30 14109 H 1320.45 -0.242543 1.54407 0
M  V30 14110 H 1321.19 -2.7732 1.6812 0
M  V30 14111 H 1320.97 -2.08878 3.31832 0
M  V30 14112 H 1322.46 -2.99221 2.91302 0
M  V30 14113 N 1322.9 -1.55308 -0.267798 0
M  V30 14114 C 1323.83 -1.8348 -1.35685 0
M  V30 14115 C 1324.81 -0.688228 -1.47317 0
M  V30 14116 O 1325.99 -0.931781 -1.6386 0
M  V30 14117 C 1323.12 -2.00103 -2.7327 0
M  V30 14118 C 1322.17 -3.22675 -2.78896 0
M  V30 14119 S 1323 -4.79895 -2.37615 0
M  V30 14120 C 1324.16 -4.99497 -3.77165 0
M  V30 14121 H 1324.39 -2.75565 -1.11585 0
M  V30 14122 H 1321.92 -1.47146 -0.467703 0
M  V30 14123 H 1323.88 -2.10364 -3.52501 0
M  V30 14124 H 1322.54 -1.08897 -2.94619 0
M  V30 14125 H 1321.73 -3.31209 -3.7989 0
M  V30 14126 H 1321.34 -3.11031 -2.07691 0
M  V30 14127 H 1323.63 -4.85558 -4.72483 0
M  V30 14128 H 1324.57 -6.01534 -3.73581 0
M  V30 14129 H 1324.98 -4.2745 -3.68709 0
M  V30 14130 N 1324.38 0.532545 -1.4833 0
M  V30 14131 C 1325.62 1.28851 -1.56217 0
M  V30 14132 C 1325.95 1.93076 -0.234967 0
M  V30 14133 O 1325.21 1.79722 0.774508 0
M  V30 14134 C 1325.51 2.40117 -2.64724 0
M  V30 14135 C 1325.17 1.93562 -4.0724 0
M  V30 14136 C 1323.83 1.80583 -4.46031 0
M  V30 14137 C 1326.19 1.58349 -4.96563 0
M  V30 14138 C 1323.51 1.30722 -5.71952 0
M  V30 14139 C 1325.87 1.09951 -6.22972 0
M  V30 14140 C 1324.53 0.955866 -6.60621 0
M  V30 14141 H 1323.8 0.4715 -0.571637 0
M  V30 14142 H 1326.45 0.594564 -1.82036 0
M  V30 14143 H 1324.75 3.15171 -2.32754 0
M  V30 14144 H 1326.45 2.98252 -2.68042 0
M  V30 14145 H 1323.04 2.04614 -3.76605 0
M  V30 14146 H 1327.22 1.67237 -4.67274 0
M  V30 14147 H 1322.48 1.18286 -5.99849 0
M  V30 14148 H 1326.65 0.817736 -6.91582 0
M  V30 14149 H 1324.28 0.567302 -7.5808 0
M  V30 14150 N 1325.86 1.36875 0.78122 0
M  V30 14151 C 1326.77 1.3404 1.92537 0
M  V30 14152 C 1327.78 0.241354 1.72318 0
M  V30 14153 O 1328.96 0.475128 1.95715 0
M  V30 14154 C 1326.02 1.13708 3.27523 0
M  V30 14155 C 1325.08 2.33165 3.60462 0
M  V30 14156 C 1324.32 2.13793 4.89007 0
M  V30 14157 O 1324.54 1.11732 5.5935 0
M  V30 14158 O 1323.47 3.01762 5.20791 0
M  V30 14159 H 1327.3 2.30386 1.97879 0
M  V30 14160 H 1324.88 1.17506 0.922637 0
M  V30 14161 H 1326.77 1.0432 4.08283 0
M  V30 14162 H 1325.44 0.204306 3.23055 0
M  V30 14163 H 1324.35 2.48123 2.79974 0
M  V30 14164 H 1325.68 3.24977 3.69663 0
M  V30 14165 N 1327.33 -1.00632 1.21289 0
M  V30 14166 C 1328.28 -2.11502 0.96798 0
M  V30 14167 C 1329.28 -1.6919 -0.0843024 0
M  V30 14168 O 1330.48 -1.79875 0.06697 0
M  V30 14169 H 1326.86 -0.691398 0.295759 0
M  V30 14170 H 1328.83 -2.29337 1.90911 0
M  V30 14171 C 1327.58 -3.43357 0.547818 0
M  V30 14172 H 1326.9 -3.76348 1.34915 0
M  V30 14173 H 1328.34 -4.21957 0.415759 0
M  V30 14174 C 1326.8 -3.28648 -0.741086 0
M  V30 14175 O 1327.33 -3.59267 -1.79695 0
M  V30 14176 N 1325.53 -2.81866 -0.707084 0
M  V30 14177 H 1325.08 -2.57149 0.152447 0
M  V30 14178 H 1325.04 -2.72406 -1.56979 0
M  V30 14179 N 1328.81 -1.02043 -1.20104 0
M  V30 14180 C 1330.04 -0.730255 -1.93264 0
M  V30 14181 C 1330.45 0.71359 -1.75227 0
M  V30 14182 O 1329.79 1.49609 -1.06597 0
M  V30 14183 C 1329.85 -0.990978 -3.45572 0
M  V30 14184 C 1329.52 -2.4247 -3.87373 0
M  V30 14185 C 1330.52 -3.40569 -3.92822 0
M  V30 14186 C 1328.2 -2.76645 -4.19253 0
M  V30 14187 C 1330.19 -4.70904 -4.29568 0
M  V30 14188 C 1327.88 -4.07192 -4.55673 0
M  V30 14189 C 1328.88 -5.04132 -4.60804 0
M  V30 14190 O 1328.57 -6.32341 -4.96386 0
M  V30 14191 H 1328.3 -0.267146 -0.620974 0
M  V30 14192 H 1330.85 -1.36557 -1.53432 0
M  V30 14193 H 1329.08 -0.298508 -3.85546 0
M  V30 14194 H 1330.77 -0.691793 -3.99961 0
M  V30 14195 H 1331.54 -3.15503 -3.68352 0
M  V30 14196 H 1327.42 -2.01876 -4.14448 0
M  V30 14197 H 1330.96 -5.46566 -4.33487 0
M  V30 14198 H 1326.86 -4.32035 -4.796 0
M  V30 14199 H 1327.63 -6.36687 -5.14365 0
M  V30 14200 N 1330.29 1.35952 -0.797165 0
M  V30 14201 C 1331.7 1.81554 -0.435311 0
M  V30 14202 C 1332.05 1.66266 1.04164 0
M  V30 14203 O 1331.18 1.18796 1.80877 0
M  V30 14204 C 1331.77 3.29619 -0.783358 0
M  V30 14205 C 1330.33 3.73401 -0.47423 0
M  V30 14206 C 1329.48 2.58098 -1.01394 0
M  V30 14207 H 1332.43 1.24064 -0.989638 0
M  V30 14208 H 1332.45 3.80421 -0.0773381 0
M  V30 14209 H 1331.96 3.40715 -1.85836 0
M  V30 14210 H 1330.06 3.6786 0.592418 0
M  V30 14211 H 1330.18 4.68542 -1.00026 0
M  V30 14212 H 1328.54 2.50927 -0.436747 0
M  V30 14213 H 1329.32 2.71976 -2.09485 0
M  V30 14214 N 1331.77 0.549846 1.47697 0
M  V30 14215 C 1333.02 0.0230503 2.02487 0
M  V30 14216 C 1333.34 -1.32382 1.42497 0
M  V30 14217 O 1332.6 -1.87293 0.567441 0
M  V30 14218 C 1332.9 -0.127268 3.57173 0
M  V30 14219 C 1332.56 1.14777 4.36047 0
M  V30 14220 C 1331.23 1.49716 4.57317 0
M  V30 14221 C 1333.58 1.99302 4.81589 0
M  V30 14222 C 1330.91 2.69042 5.21376 0
M  V30 14223 C 1333.26 3.17824 5.46965 0
M  V30 14224 C 1331.92 3.53086 5.66469 0
M  V30 14225 H 1331.19 0.00843471 0.740952 0
M  V30 14226 H 1333.84 0.719876 1.77454 0
M  V30 14227 H 1332.14 -0.907008 3.81157 0
M  V30 14228 H 1333.84 -0.550103 3.97209 0
M  V30 14229 H 1330.43 0.865703 4.19766 0
M  V30 14230 H 1334.61 1.73618 4.64942 0
M  V30 14231 H 1329.87 2.9654 5.34672 0
M  V30 14232 H 1334.04 3.83612 5.81218 0
M  V30 14233 H 1331.67 4.45643 6.15878 0
M  V30 14234 N 1333.25 -1.54984 0.285932 0
M  V30 14235 C 1334.66 -1.85519 -0.209707 0
M  V30 14236 C 1335.01 -1.20794 -1.54606 0
M  V30 14237 O 1334.13 -0.500159 -2.10541 0
M  V30 14238 C 1334.73 -3.36579 -0.387283 0
M  V30 14239 C 1333.29 -3.67199 -0.827148 0
M  V30 14240 C 1332.43 -2.77203 0.073308 0
M  V30 14241 H 1335.39 -1.5037 0.507404 0
M  V30 14242 H 1335.41 -3.60269 -1.2242 0
M  V30 14243 H 1334.92 -3.83658 0.585493 0
M  V30 14244 H 1333.02 -3.25627 -1.81101 0
M  V30 14245 H 1333.13 -4.74574 -0.656976 0
M  V30 14246 H 1331.5 -2.50785 -0.444859 0
M  V30 14247 H 1332.28 -3.27099 1.04216 0
M  V30 14248 N 1334.72 -0.0133892 -1.57594 0
M  V30 14249 C 1335.66 1.00211 -2.06132 0
M  V30 14250 C 1336.67 1.29869 -0.98173 0
M  V30 14251 O 1337.86 1.2661 -1.25826 0
M  V30 14252 C 1334.96 2.33354 -2.45763 0
M  V30 14253 C 1334.13 2.22441 -3.76615 0
M  V30 14254 C 1333.19 3.38385 -4.02967 0
M  V30 14255 O 1332.22 3.15973 -4.73445 0
M  V30 14256 N 1333.42 4.61672 -3.51908 0
M  V30 14257 H 1336.18 0.588079 -2.93874 0
M  V30 14258 H 1333.74 0.173714 -1.60965 0
M  V30 14259 H 1335.74 3.09716 -2.60496 0
M  V30 14260 H 1334.31 2.66451 -1.6347 0
M  V30 14261 H 1333.53 1.30905 -3.7183 0
M  V30 14262 H 1334.81 2.12337 -4.62375 0
M  V30 14263 H 1334.21 4.82777 -2.9486 0
M  V30 14264 H 1332.77 5.35256 -3.71947 0
M  V30 14265 N 1336.2 1.55448 0.259558 0
M  V30 14266 C 1337.15 1.90056 1.34096 0
M  V30 14267 C 1338.14 0.778267 1.50464 0
M  V30 14268 O 1339.35 0.962758 1.52089 0
M  V30 14269 H 1335.73 0.603424 0.448758 0
M  V30 14270 H 1337.7 2.80365 1.02166 0
M  V30 14271 C 1336.45 2.20074 2.69189 0
M  V30 14272 H 1335.77 3.05926 2.57389 0
M  V30 14273 H 1337.21 2.48201 3.43762 0
M  V30 14274 C 1335.67 1.01281 3.21316 0
M  V30 14275 O 1336.2 0.2543 4.00894 0
M  V30 14276 N 1334.4 0.806855 2.79174 0
M  V30 14277 H 1333.95 1.42536 2.14572 0
M  V30 14278 H 1333.91 0.0136714 3.14397 0
M  V30 14279 N 1337.68 -0.524672 1.4861 0
M  V30 14280 C 1338.63 -1.64965 1.6398 0
M  V30 14281 C 1339.62 -1.61663 0.506118 0
M  V30 14282 O 1340.83 -1.66456 0.685013 0
M  V30 14283 H 1337.2 -0.546419 0.516653 0
M  V30 14284 H 1339.17 -1.49146 2.58453 0
M  V30 14285 C 1337.92 -3.03215 1.70165 0
M  V30 14286 H 1337.25 -3.06451 2.56764 0
M  V30 14287 H 1338.69 -3.8153 1.84962 0
M  V30 14288 C 1337.15 -3.33996 0.44143 0
M  V30 14289 O 1337.68 -3.99246 -0.443356 0
M  V30 14290 N 1335.88 -2.88925 0.311518 0
M  V30 14291 H 1335.43 -2.36003 1.0325 0
M  V30 14292 H 1335.39 -3.09889 -0.530655 0
M  V30 14293 N 1339.16 -1.37287 -0.77395 0
M  V30 14294 C 1340.41 -1.32112 -1.5294 0
M  V30 14295 C 1340.73 0.0946137 -1.9477 0
M  V30 14296 O 1340 1.03817 -1.66129 0
M  V30 14297 H 1338.58 -0.486047 -0.567245 0
M  V30 14298 H 1341.24 -1.71752 -0.921263 0
M  V30 14299 H 1340.34 -1.95873 -2.42982 0
M  V30 14300 N 1340.64 0.999871 -1.21821 0
M  V30 14301 C 1341.58 2.10985 -0.979183 0
M  V30 14302 C 1342.58 1.69232 0.0753287 0
M  V30 14303 O 1343.78 1.79837 -0.0765083 0
M  V30 14304 H 1340.16 0.689819 -0.299421 0
M  V30 14305 H 1342.13 2.28322 -1.92124 0
M  V30 14306 C 1340.88 3.43062 -0.56602 0
M  V30 14307 H 1340.2 3.75627 -1.36909 0
M  V30 14308 H 1341.64 4.2173 -0.43813 0
M  V30 14309 C 1340.1 3.29036 0.723647 0
M  V30 14310 O 1340.63 3.60214 1.77788 0
M  V30 14311 N 1338.84 2.82237 0.692126 0
M  V30 14312 H 1338.38 2.57064 -0.166082 0
M  V30 14313 H 1338.34 2.73235 1.55532 0
M  V30 14314 N 1342.11 1.02678 1.19562 0
M  V30 14315 C 1343.53 0.743467 1.41226 0
M  V30 14316 C 1343.73 -0.672786 1.89936 0
M  V30 14317 O 1342.79 -1.43908 2.07477 0
M  V30 14318 C 1344.1 1.77781 2.42517 0
M  V30 14319 C 1345.65 1.79711 2.56267 0
M  V30 14320 C 1346.12 2.82099 3.60811 0
M  V30 14321 N 1347.61 2.80902 3.68304 0
M  V30 14322 C 1348.35 3.5678 4.48882 0
M  V30 14323 N 1347.84 4.42367 5.33182 0
M  V30 14324 N 1349.64 3.45331 4.43512 0
M  V30 14325 H 1341.79 1.94094 0.862635 0
M  V30 14326 H 1344.05 0.839015 0.441313 0
M  V30 14327 H 1343.76 2.79295 2.13745 0
M  V30 14328 H 1343.63 1.59836 3.41661 0
M  V30 14329 H 1346.02 0.788756 2.84364 0
M  V30 14330 H 1346.1 2.01731 1.57284 0
M  V30 14331 H 1345.74 3.83104 3.33457 0
M  V30 14332 H 1345.67 2.57338 4.5944 0
M  V30 14333 H 1348.16 2.18826 3.08097 0
M  V30 14334 H 1348.48 4.97008 5.9178 0
M  V30 14335 H 1346.82 4.4644 5.3265 0
M  V30 14336 H 1350.01 2.77883 3.76695 0
M  V30 14337 H 1350.19 4.04718 5.06071 0
M  V30 14338 N 1343.59 -1.35528 0.804364 0
M  V30 14339 C 1344.52 -2.28562 0.170893 0
M  V30 14340 C 1345.54 -1.50178 -0.628526 0
M  V30 14341 O 1346.73 -1.72438 -0.461252 0
M  V30 14342 C 1343.83 -3.29792 -0.780434 0
M  V30 14343 C 1343 -4.37391 -0.0278619 0
M  V30 14344 C 1342.06 -5.18492 -0.897341 0
M  V30 14345 O 1341.08 -5.68128 -0.349098 0
M  V30 14346 N 1342.29 -5.36385 -2.21971 0
M  V30 14347 H 1345.05 -2.83565 0.970108 0
M  V30 14348 H 1342.61 -1.47854 0.659617 0
M  V30 14349 H 1344.6 -3.80939 -1.36628 0
M  V30 14350 H 1343.17 -2.7532 -1.48046 0
M  V30 14351 H 1342.39 -3.87208 0.739178 0
M  V30 14352 H 1343.68 -5.06426 0.490889 0
M  V30 14353 H 1343.08 -4.97699 -2.6891 0
M  V30 14354 H 1341.64 -5.90721 -2.75485 0
M  V30 14355 N 1345.07 -0.557671 -1.47404 0
M  V30 14356 C 1346.02 0.210176 -2.27029 0
M  V30 14357 C 1347.01 0.884882 -1.34382 0
M  V30 14358 O 1348.2 0.783112 -1.58734 0
M  V30 14359 C 1345.33 1.23923 -3.20153 0
M  V30 14360 C 1344.41 0.567913 -4.2028 0
M  V30 14361 N 1344.8 -0.362279 -5.04501 0
M  V30 14362 C 1343.1 0.821776 -4.38364 0
M  V30 14363 C 1343.8 -0.752273 -5.76815 0
M  V30 14364 N 1342.78 -0.107008 -5.43495 0
M  V30 14365 H 1346.58 -0.505007 -2.89529 0
M  V30 14366 H 1344.09 -0.377642 -1.57948 0
M  V30 14367 H 1346.09 1.80328 -3.75882 0
M  V30 14368 H 1344.75 1.9555 -2.59211 0
M  V30 14369 H 1345.76 -0.736468 -5.12637 0
M  V30 14370 H 1342.44 1.52652 -3.88592 0
M  V30 14371 H 1343.83 -1.51664 -6.54559 0
M  V30 14372 N 1346.55 1.54831 -0.294147 0
M  V30 14373 C 1347.8 2.00298 0.317605 0
M  V30 14374 C 1348.13 1.18228 1.54064 0
M  V30 14375 O 1347.4 0.257034 1.92794 0
M  V30 14376 C 1347.69 3.53602 0.680991 0
M  V30 14377 C 1347.54 4.46416 -0.550711 0
M  V30 14378 C 1348.86 4.13379 1.51016 0
M  V30 14379 H 1345.98 0.728135 0.113965 0
M  V30 14380 H 1348.62 1.85636 -0.404883 0
M  V30 14381 H 1346.77 3.66227 1.29654 0
M  V30 14382 H 1348.44 4.45707 -1.18922 0
M  V30 14383 H 1346.68 4.17294 -1.18524 0
M  V30 14384 H 1347.36 5.51423 -0.252412 0
M  V30 14385 H 1349.83 4.04148 0.99012 0
M  V30 14386 H 1348.71 5.20818 1.73321 0
M  V30 14387 H 1348.97 3.64817 2.49722 0
M  V30 14388 N 1348.03 0.0217466 1.57585 0
M  V30 14389 C 1349.44 -0.334576 1.56054 0
M  V30 14390 C 1349.64 -1.73386 1.02663 0
M  V30 14391 O 1348.7 -2.43447 0.670078 0
M  V30 14392 C 1350.01 -0.189919 3.001 0
M  V30 14393 C 1351.56 -0.263238 3.11891 0
M  V30 14394 C 1352.04 -0.147455 4.57763 0
M  V30 14395 N 1353.53 -0.204672 4.62748 0
M  V30 14396 C 1354.26 -0.138755 5.73232 0
M  V30 14397 N 1353.76 -0.0221762 6.92796 0
M  V30 14398 N 1355.55 -0.192206 5.61771 0
M  V30 14399 H 1347.7 0.936849 1.90622 0
M  V30 14400 H 1349.96 0.361119 0.876526 0
M  V30 14401 H 1349.67 0.773687 3.43084 0
M  V30 14402 H 1349.54 -0.963148 3.64696 0
M  V30 14403 H 1351.93 -1.2173 2.68823 0
M  V30 14404 H 1352.01 0.540241 2.5003 0
M  V30 14405 H 1351.66 0.803155 5.0151 0
M  V30 14406 H 1351.59 -0.969703 5.17595 0
M  V30 14407 H 1354.08 -0.29522 3.76745 0
M  V30 14408 H 1354.39 0.021631 7.72797 0
M  V30 14409 H 1352.74 0.0125033 6.94999 0
M  V30 14410 H 1355.93 -0.28163 4.67252 0
M  V30 14411 H 1356.1 -0.137372 6.47854 0
M  V30 14412 N 1349.51 -1.55583 -0.251311 0
M  V30 14413 C 1350.75 -1.78389 -0.977194 0
M  V30 14414 C 1351.11 -0.589958 -1.83132 0
M  V30 14415 O 1350.4 0.416909 -1.87009 0
M  V30 14416 C 1350.59 -3.04291 -1.87461 0
M  V30 14417 C 1350.42 -4.35815 -1.10885 0
M  V30 14418 C 1349.19 -4.98672 -0.815731 0
M  V30 14419 C 1351.39 -5.11974 -0.488591 0
M  V30 14420 N 1349.37 -6.13895 -0.0254438 0
M  V30 14421 C 1350.74 -6.19776 0.166483 0
M  V30 14422 C 1352.8 -4.96302 -0.398613 0
M  V30 14423 C 1351.5 -7.13611 0.90289 0
M  V30 14424 C 1353.53 -5.9051 0.324252 0
M  V30 14425 C 1352.89 -6.97717 0.96798 0
M  V30 14426 H 1348.99 -0.70478 -0.338836 0
M  V30 14427 H 1351.57 -1.93079 -0.250746 0
M  V30 14428 H 1349.74 -2.90937 -2.57313 0
M  V30 14429 H 1351.48 -3.15409 -2.53573 0
M  V30 14430 H 1348.23 -4.60009 -1.12642 0
M  V30 14431 H 1348.65 -6.76055 0.357664 0
M  V30 14432 H 1353.3 -4.13499 -0.881967 0
M  V30 14433 H 1351.01 -7.95918 1.39786 0
M  V30 14434 H 1354.6 -5.80461 0.39448 0
M  V30 14435 H 1353.48 -7.6936 1.5184 0
M  V30 14436 N 1350.98 0.516783 -1.48886 0
M  V30 14437 C 1352.21 1.29628 -1.61258 0
M  V30 14438 C 1352.63 1.86744 -0.27786 0
M  V30 14439 O 1351.98 1.67061 0.734639 0
M  V30 14440 C 1352.03 2.43779 -2.66935 0
M  V30 14441 O 1351.76 1.89014 -3.95228 0
M  V30 14442 C 1353.26 3.35398 -2.89867 0
M  V30 14443 H 1350.48 0.393736 -0.543335 0
M  V30 14444 H 1353.02 0.622069 -1.94809 0
M  V30 14445 H 1351.18 3.0706 -2.36206 0
M  V30 14446 H 1351.59 2.63833 -4.53312 0
M  V30 14447 H 1353.06 4.11812 -3.6758 0
M  V30 14448 H 1353.54 3.91436 -1.99185 0
M  V30 14449 H 1354.15 2.77898 -3.21952 0
M  V30 14450 N 1352.46 1.37696 0.766659 0
M  V30 14451 C 1353.42 1.33688 1.86172 0
M  V30 14452 C 1354.42 0.239922 1.59 0
M  V30 14453 O 1355.61 0.496066 1.66988 0
M  V30 14454 C 1352.75 1.07807 3.23405 0
M  V30 14455 H 1353.94 2.311 1.91136 0
M  V30 14456 H 1351.49 1.22799 0.966961 0
M  V30 14457 H 1352.23 0.109477 3.24115 0
M  V30 14458 H 1352.01 1.87213 3.4452 0
M  V30 14459 H 1353.5 1.07665 4.03482 0
M  V30 14460 N 1353.94 -0.993397 1.22349 0
M  V30 14461 C 1354.87 -2.10171 1.01737 0
M  V30 14462 C 1355.85 -1.69989 -0.0615276 0
M  V30 14463 O 1357.04 -1.93939 0.100591 0
M  V30 14464 C 1354.17 -3.42186 0.593801 0
M  V30 14465 C 1353.12 -3.96215 1.61858 0
M  V30 14466 C 1352.45 -5.24272 1.05086 0
M  V30 14467 C 1353.75 -4.26956 3.00842 0
M  V30 14468 H 1355.44 -2.27673 1.94436 0
M  V30 14469 H 1352.99 -1.09408 0.936258 0
M  V30 14470 H 1354.94 -4.19131 0.436715 0
M  V30 14471 H 1353.66 -3.2451 -0.368855 0
M  V30 14472 H 1352.32 -3.21401 1.76343 0
M  V30 14473 H 1351.97 -5.02937 0.0795747 0
M  V30 14474 H 1351.67 -5.61387 1.73547 0
M  V30 14475 H 1353.19 -6.03851 0.905349 0
M  V30 14476 H 1354.61 -4.94699 2.89734 0
M  V30 14477 H 1353 -4.75242 3.66422 0
M  V30 14478 H 1354.07 -3.34752 3.50812 0
M  V30 14479 N 1355.42 -1.03311 -1.19015 0
M  V30 14480 C 1356.65 -0.751802 -1.92758 0
M  V30 14481 C 1357.06 0.689982 -1.7574 0
M  V30 14482 O 1356.42 1.46961 -1.08207 0
M  V30 14483 C 1356.47 -1.09892 -3.44392 0
M  V30 14484 O 1356.19 -2.48409 -3.60866 0
M  V30 14485 C 1357.69 -0.841029 -4.35249 0
M  V30 14486 H 1354.91 -0.274757 -0.612168 0
M  V30 14487 H 1357.45 -1.37873 -1.51034 0
M  V30 14488 H 1355.61 -0.517092 -3.83933 0
M  V30 14489 H 1356.02 -2.61468 -4.54681 0
M  V30 14490 H 1357.5 -1.13383 -5.4023 0
M  V30 14491 H 1357.97 0.224434 -4.38626 0
M  V30 14492 H 1358.58 -1.40579 -4.01395 0
M  V30 14493 N 1356.9 1.35099 -0.81154 0
M  V30 14494 C 1357.84 2.31618 -0.213536 0
M  V30 14495 C 1358.84 1.56868 0.63944 0
M  V30 14496 O 1360.04 1.71957 0.532051 0
M  V30 14497 H 1356.42 0.750316 -0.0502963 0
M  V30 14498 H 1358.39 2.79593 -1.04262 0
M  V30 14499 C 1357.14 3.4214 0.619293 0
M  V30 14500 H 1356.46 3.9979 -0.0277192 0
M  V30 14501 H 1357.9 4.11941 1.00401 0
M  V30 14502 C 1356.36 2.85607 1.7869 0
M  V30 14503 O 1356.89 2.7956 2.8846 0
M  V30 14504 N 1355.1 2.42587 1.6 0
M  V30 14505 H 1354.64 2.47705 0.707105 0
M  V30 14506 H 1354.6 2.0511 2.38279 0
M  V30 14507 N 1358.37 0.56548 1.47106 0
M  V30 14508 C 1359.79 0.225855 1.57994 0
M  V30 14509 C 1359.99 -1.27173 1.56299 0
M  V30 14510 O 1359.05 -2.05242 1.47078 0
M  V30 14511 C 1360.36 0.859829 2.88145 0
M  V30 14512 C 1361.91 0.831821 3.01744 0
M  V30 14513 C 1362.38 1.44502 4.34607 0
M  V30 14514 N 1363.87 1.40857 4.41263 0
M  V30 14515 C 1364.61 1.85258 5.42648 0
M  V30 14516 N 1364.1 2.37553 6.508 0
M  V30 14517 N 1365.9 1.76279 5.33744 0
M  V30 14518 H 1358.05 1.53837 1.46451 0
M  V30 14519 H 1360.31 0.642013 0.697512 0
M  V30 14520 H 1360.02 1.91264 2.95146 0
M  V30 14521 H 1359.89 0.357762 3.755 0
M  V30 14522 H 1362.28 -0.212319 2.94335 0
M  V30 14523 H 1362.36 1.37173 2.1591 0
M  V30 14524 H 1362 2.48827 4.42773 0
M  V30 14525 H 1361.93 0.880479 5.19187 0
M  V30 14526 H 1364.42 1.02614 3.63702 0
M  V30 14527 H 1364.74 2.69335 7.24347 0
M  V30 14528 H 1363.08 2.41569 6.51667 0
M  V30 14529 H 1366.27 1.35195 4.48152 0
M  V30 14530 H 1366.45 2.11199 6.12616 0
M  V30 14531 N 1359.85 -1.54672 0.302354 0
M  V30 14532 C 1360.8 -2.20281 -0.588245 0
M  V30 14533 C 1361.79 -1.17624 -1.09788 0
M  V30 14534 O 1362.98 -1.43338 -1.03842 0
M  V30 14535 C 1360.11 -2.94812 -1.759 0
M  V30 14536 C 1359.19 -4.04786 -1.26526 0
M  V30 14537 N 1359.58 -5.03425 -0.489625 0
M  V30 14538 C 1357.88 -4.18352 -1.54588 0
M  V30 14539 C 1358.58 -5.81259 -0.226538 0
M  V30 14540 N 1357.56 -5.37581 -0.806723 0
M  V30 14541 H 1361.36 -2.93898 0.0118911 0
M  V30 14542 H 1358.88 -1.62046 0.107181 0
M  V30 14543 H 1360.87 -3.40283 -2.40859 0
M  V30 14544 H 1359.53 -2.22712 -2.36282 0
M  V30 14545 H 1360.54 -5.17726 -0.134401 0
M  V30 14546 H 1357.22 -3.57458 -2.15709 0
M  V30 14547 H 1358.61 -6.70729 0.396499 0
M  V30 14548 N 1361.33 -0.0301034 -1.57571 0
M  V30 14549 C 1362.58 0.647042 -1.91462 0
M  V30 14550 C 1362.9 1.72612 -0.907206 0
M  V30 14551 O 1362.17 1.95833 0.0511268 0
M  V30 14552 H 1360.75 0.241988 -0.706718 0
M  V30 14553 H 1363.41 -0.0781385 -1.94743 0
M  V30 14554 H 1362.51 1.09915 -2.92105 0
M  V30 14555 N 1362.81 1.55714 0.243056 0
M  V30 14556 C 1363.76 1.91467 1.32072 0
M  V30 14557 C 1364.75 0.794182 1.4963 0
M  V30 14558 O 1365.96 0.978835 1.51059 0
M  V30 14559 H 1362.33 0.60815 0.442333 0
M  V30 14560 H 1364.3 2.81433 0.991865 0
M  V30 14561 C 1363.05 2.22917 2.6684 0
M  V30 14562 H 1362.37 3.08639 2.5413 0
M  V30 14563 H 1363.81 2.51833 3.4111 0
M  V30 14564 C 1362.27 1.04683 3.20223 0
M  V30 14565 O 1362.8 0.296806 4.00602 0
M  V30 14566 N 1361.01 0.836419 2.78303 0
M  V30 14567 H 1360.56 1.44804 2.13048 0
M  V30 14568 H 1360.51 0.0470167 3.14365 0
M  V30 14569 N 1364.29 -0.50888 1.49158 0
M  V30 14570 C 1365.53 -1.261 1.57934 0
M  V30 14571 C 1365.86 -1.93199 0.264405 0
M  V30 14572 O 1365.13 -1.82359 -0.715684 0
M  V30 14573 H 1363.71 -0.468421 0.581886 0
M  V30 14574 H 1366.37 -0.590447 1.85741 0
M  V30 14575 H 1365.46 -2.02913 2.37135 0
M  V30 14576 N 1365.76 -1.381 -0.759346 0
M  V30 14577 C 1366.69 -1.37578 -1.88665 0
M  V30 14578 C 1367.68 -0.242529 -1.68362 0
M  V30 14579 O 1368.86 -0.444751 -1.89039 0
M  V30 14580 C 1365.99 -1.19437 -3.26117 0
M  V30 14581 C 1364.94 -2.29905 -3.61009 0
M  V30 14582 C 1364.27 -1.96874 -4.97136 0
M  V30 14583 C 1365.57 -3.72143 -3.66479 0
M  V30 14584 H 1367.26 -2.31912 -1.89359 0
M  V30 14585 H 1364.81 -1.11632 -0.909631 0
M  V30 14586 H 1366.76 -1.17698 -4.0463 0
M  V30 14587 H 1365.49 -0.21562 -3.25887 0
M  V30 14588 H 1364.15 -2.3082 -2.84812 0
M  V30 14589 H 1363.79 -0.974979 -4.9346 0
M  V30 14590 H 1363.49 -2.70855 -5.21451 0
M  V30 14591 H 1365.02 -1.96744 -5.78035 0
M  V30 14592 H 1366.43 -3.73291 -4.35117 0
M  V30 14593 H 1364.83 -4.45282 -4.02299 0
M  V30 14594 H 1365.9 -4.04874 -2.66843 0
M  V30 14595 N 1367.24 0.986894 -1.22875 0
M  V30 14596 C 1368.17 2.09628 -1.0285 0
M  V30 14597 C 1369.15 1.70019 0.0525118 0
M  V30 14598 O 1370.34 1.93883 -0.110874 0
M  V30 14599 C 1367.47 3.41866 -0.61194 0
M  V30 14600 C 1366.42 3.95351 -1.63956 0
M  V30 14601 C 1365.75 5.23707 -1.07865 0
M  V30 14602 C 1367.05 4.25354 -3.03102 0
M  V30 14603 H 1368.74 2.26639 -1.95641 0
M  V30 14604 H 1366.29 1.0891 -0.942048 0
M  V30 14605 H 1368.24 4.18893 -0.458936 0
M  V30 14606 H 1366.97 3.24701 0.35164 0
M  V30 14607 H 1365.62 3.20462 -1.78045 0
M  V30 14608 H 1365.27 5.02888 -0.106246 0
M  V30 14609 H 1364.97 5.60459 -1.76522 0
M  V30 14610 H 1366.5 6.03362 -0.937359 0
M  V30 14611 H 1367.91 4.93156 -2.92353 0
M  V30 14612 H 1366.31 4.73292 -3.68938 0
M  V30 14613 H 1367.38 3.32887 -3.52583 0
M  V30 14614 N 1368.72 1.0394 1.18466 0
M  V30 14615 C 1369.97 0.743141 1.88694 0
M  V30 14616 C 1370.3 -0.727211 1.8007 0
M  V30 14617 O 1369.57 -1.53058 1.20014 0
M  V30 14618 C 1369.86 1.20829 3.39223 0
M  V30 14619 C 1369.71 2.74064 3.56664 0
M  V30 14620 C 1371.03 0.797348 4.32817 0
M  V30 14621 H 1368.15 0.271437 0.685194 0
M  V30 14622 H 1370.79 1.29119 1.39386 0
M  V30 14623 H 1368.94 0.742033 3.81348 0
M  V30 14624 H 1370.61 3.28717 3.2364 0
M  V30 14625 H 1368.86 3.1395 2.99362 0
M  V30 14626 H 1369.53 3.01668 4.62277 0
M  V30 14627 H 1372 1.19854 3.98465 0
M  V30 14628 H 1370.88 1.15057 5.36706 0
M  V30 14629 H 1371.14 -0.299601 4.41084 0
M  V30 14630 N 1370.2 -1.34667 0.818693 0
M  V30 14631 C 1371.44 -1.98708 0.405359 0
M  V30 14632 C 1371.78 -1.64767 -1.02788 0
M  V30 14633 O 1371.05 -0.91714 -1.71519 0
M  V30 14634 C 1371.34 -3.55016 0.602966 0
M  V30 14635 C 1371.19 -3.98713 2.08201 0
M  V30 14636 C 1372.51 -4.40085 0.0362489 0
M  V30 14637 H 1369.63 -0.721831 0.148756 0
M  V30 14638 H 1372.27 -1.59628 1.03047 0
M  V30 14639 H 1370.42 -3.88435 0.0708453 0
M  V30 14640 H 1372.09 -3.75647 2.67745 0
M  V30 14641 H 1370.33 -3.49179 2.57403 0
M  V30 14642 H 1371 -5.0751 2.17111 0
M  V30 14643 H 1373.48 -4.13195 0.490837 0
M  V30 14644 H 1372.36 -5.4852 0.204344 0
M  V30 14645 H 1372.62 -4.29243 -1.05845 0
M  V30 14646 N 1371.68 -0.573274 -1.46804 0
M  V30 14647 C 1373.09 -0.144162 -1.86143 0
M  V30 14648 C 1373.44 1.29033 -1.47801 0
M  V30 14649 O 1372.56 1.97319 -0.888494 0
M  V30 14650 C 1373.16 -0.254851 -3.3784 0
M  V30 14651 C 1371.72 0.119325 -3.76211 0
M  V30 14652 C 1370.86 -0.595115 -2.70839 0
M  V30 14653 H 1373.82 -0.782057 -1.38093 0
M  V30 14654 H 1373.84 0.522321 -3.76898 0
M  V30 14655 H 1373.35 -1.29899 -3.65715 0
M  V30 14656 H 1371.45 1.16396 -3.53953 0
M  V30 14657 H 1371.56 -0.250421 -4.78445 0
M  V30 14658 H 1369.93 -0.0364028 -2.54674 0
M  V30 14659 H 1370.71 -1.64072 -3.01555 0
M  V30 14660 N 1373.15 1.5451 -0.310553 0
M  V30 14661 C 1374.09 2.2134 0.595098 0
M  V30 14662 C 1375.1 1.20917 1.09009 0
M  V30 14663 O 1376.29 1.47458 1.0059 0
M  V30 14664 C 1373.39 2.85384 1.82782 0
M  V30 14665 C 1372.56 4.11826 1.47372 0
M  V30 14666 C 1371.62 4.59584 2.56259 0
M  V30 14667 O 1370.65 5.24567 2.20949 0
M  V30 14668 N 1371.85 4.32709 3.86967 0
M  V30 14669 H 1374.61 2.99691 0.0229291 0
M  V30 14670 H 1372.17 1.61351 -0.133173 0
M  V30 14671 H 1374.17 3.14263 2.54992 0
M  V30 14672 H 1372.74 2.10816 2.30815 0
M  V30 14673 H 1371.96 3.89853 0.583826 0
M  V30 14674 H 1373.24 4.94138 1.21265 0
M  V30 14675 H 1372.64 3.80669 4.18458 0
M  V30 14676 H 1371.2 4.66275 4.55446 0
M  V30 14677 N 1374.63 0.0384594 1.57553 0
M  V30 14678 C 1376.05 -0.318006 1.564 0
M  V30 14679 C 1376.25 -1.72287 1.04496 0
M  V30 14680 O 1375.31 -2.42722 0.695861 0
M  V30 14681 C 1376.62 -0.158079 3.00284 0
M  V30 14682 C 1378.17 -0.230143 3.12153 0
M  V30 14683 C 1378.64 -0.0988948 4.57893 0
M  V30 14684 N 1380.13 -0.15558 4.62939 0
M  V30 14685 C 1380.87 -0.077948 5.73347 0
M  V30 14686 N 1380.36 0.0513054 6.92781 0
M  V30 14687 N 1382.16 -0.132612 5.61944 0
M  V30 14688 H 1374.31 0.957014 1.89618 0
M  V30 14689 H 1376.57 0.370396 0.872646 0
M  V30 14690 H 1376.28 0.810032 3.42245 0
M  V30 14691 H 1376.15 -0.924413 3.65697 0
M  V30 14692 H 1378.54 -1.18872 2.70099 0
M  V30 14693 H 1378.62 0.56673 2.49443 0
M  V30 14694 H 1378.26 0.856301 5.00629 0
M  V30 14695 H 1378.19 -0.91475 5.18594 0
M  V30 14696 H 1380.68 -0.255245 3.77037 0
M  V30 14697 H 1381 0.103595 7.72731 0
M  V30 14698 H 1379.34 0.0862166 6.94947 0
M  V30 14699 H 1382.53 -0.232056 4.67524 0
M  V30 14700 H 1382.71 -0.0686506 6.47964 0
M  V30 14701 N 1376.11 -1.55841 -0.234795 0
M  V30 14702 C 1377.52 -1.68555 -0.802886 0
M  V30 14703 C 1377.87 -0.638107 -1.85533 0
M  V30 14704 O 1377 0.21333 -2.15346 0
M  V30 14705 C 1377.59 -3.0558 -1.46309 0
M  V30 14706 C 1376.15 -3.20192 -1.97874 0
M  V30 14707 C 1375.3 -2.64457 -0.834136 0
M  V30 14708 H 1378.25 -1.58697 -0.0103759 0
M  V30 14709 H 1378.27 -3.007 -2.33152 0
M  V30 14710 H 1377.78 -3.81792 -0.696868 0
M  V30 14711 H 1375.88 -2.48825 -2.77339 0
M  V30 14712 H 1376 -4.27251 -2.1678 0
M  V30 14713 H 1374.36 -2.22593 -1.23791 0
M  V30 14714 H 1375.14 -3.43205 -0.0807988 0
M  V30 14715 N 1377.59 0.500963 -1.49426 0
M  V30 14716 C 1378.84 1.25171 -1.58162 0
M  V30 14717 C 1379.15 1.93678 -0.273556 0
M  V30 14718 O 1380.36 2.70442 -0.239462 0
M  V30 14719 C 1378.81 2.27276 -2.79059 0
M  V30 14720 C 1378.42 1.64708 -4.16624 0
M  V30 14721 C 1380.17 3.03178 -2.97125 0
M  V30 14722 C 1378.07 2.64923 -5.28743 0
M  V30 14723 H 1377 0.470867 -0.588897 0
M  V30 14724 H 1379.65 0.525569 -1.75812 0
M  V30 14725 H 1378.04 3.03052 -2.54903 0
M  V30 14726 H 1379.21 0.949231 -4.50917 0
M  V30 14727 H 1377.52 1.01195 -4.03916 0
M  V30 14728 H 1380.12 3.78122 -3.78058 0
M  V30 14729 H 1380.46 3.60793 -2.07687 0
M  V30 14730 H 1381 2.34517 -3.2132 0
M  V30 14731 H 1377.74 2.12089 -6.20241 0
M  V30 14732 H 1377.26 3.32948 -4.98904 0
M  V30 14733 H 1378.94 3.27349 -5.58079 0
M  V30 14734 N 1379.07 1.38501 0.752011 0
M  V30 14735 C 1380.02 1.35975 1.88716 0
M  V30 14736 C 1381.01 0.245392 1.67613 0
M  V30 14737 O 1382.22 0.414514 1.75162 0
M  V30 14738 H 1378.59 0.424221 0.620919 0
M  V30 14739 H 1380.56 2.3176 1.87962 0
M  V30 14740 C 1379.31 1.20326 3.26216 0
M  V30 14741 H 1378.63 2.05336 3.43041 0
M  V30 14742 H 1380.07 1.22613 4.05884 0
M  V30 14743 C 1378.53 -0.0897029 3.36781 0
M  V30 14744 O 1379.06 -1.06615 3.87293 0
M  V30 14745 N 1377.27 -0.147065 2.90228 0
M  V30 14746 H 1376.82 0.648216 2.49311 0
M  V30 14747 H 1376.77 -1.01174 2.97676 0
M  V30 14748 N 1380.55 -0.980364 1.23396 0
M  V30 14749 C 1381.79 -1.72166 1.06607 0
M  V30 14750 C 1382.12 -1.90405 -0.397029 0
M  V30 14751 O 1381.38 -1.45363 -1.31027 0
M  V30 14752 C 1381.67 -3.12367 1.73671 0
M  V30 14753 C 1381.34 -3.14007 3.2359 0
M  V30 14754 C 1380 -3.14162 3.64494 0
M  V30 14755 C 1382.35 -3.09319 4.19489 0
M  V30 14756 C 1379.68 -3.07345 4.99756 0
M  V30 14757 C 1382.03 -3.04044 5.54743 0
M  V30 14758 C 1380.7 -3.02521 5.9501 0
M  V30 14759 H 1379.97 -0.63 0.390104 0
M  V30 14760 H 1382.62 -1.14727 1.5333 0
M  V30 14761 H 1380.92 -3.73193 1.19308 0
M  V30 14762 H 1382.62 -3.68493 1.58159 0
M  V30 14763 H 1379.21 -3.14644 2.91028 0
M  V30 14764 H 1383.39 -3.08339 3.88897 0
M  V30 14765 H 1378.65 -3.04519 5.30168 0
M  V30 14766 H 1382.82 -2.99374 6.28767 0
M  V30 14767 H 1380.45 -2.96994 6.99785 0
M  V30 14768 N 1382.02 -1.04567 -1.17913 0
M  V30 14769 C 1383.25 -0.772146 -1.92491 0
M  V30 14770 C 1383.67 0.665297 -1.75942 0
M  V30 14771 O 1383.03 1.46144 -1.07292 0
M  V30 14772 C 1383.08 -1.14966 -3.41782 0
M  V30 14773 O 1382.18 -0.278091 -4.11461 0
M  V30 14774 H 1381.52 -0.283715 -0.600335 0
M  V30 14775 H 1384.05 -1.39685 -1.49496 0
M  V30 14776 H 1384.06 -1.11374 -3.92505 0
M  V30 14777 H 1382.74 -2.1968 -3.53148 0
M  V30 14778 H 1381.32 -0.374073 -3.71019 0
M  V30 14779 N 1383.5 1.34231 -0.825823 0
M  V30 14780 C 1384.46 2.27776 -0.25512 0
M  V30 14781 C 1385.46 1.50409 0.568654 0
M  V30 14782 O 1386.65 1.69907 0.384337 0
M  V30 14783 C 1383.79 3.348 0.642013 0
M  V30 14784 H 1384.98 2.79763 -1.0804 0
M  V30 14785 H 1382.53 1.44412 -0.597904 0
M  V30 14786 H 1383.27 2.88032 1.49024 0
M  V30 14787 H 1383.05 3.92064 0.0527756 0
M  V30 14788 H 1384.54 4.0457 1.03502 0
M  V30 14789 N 1384.98 0.581051 1.46498 0
M  V30 14790 C 1386.23 0.07442 2.03264 0
M  V30 14791 C 1386.58 -1.27069 1.44469 0
M  V30 14792 O 1385.87 -1.8197 0.599785 0
M  V30 14793 C 1386.07 -0.0514774 3.57363 0
M  V30 14794 C 1385.9 1.27988 4.31102 0
M  V30 14795 C 1384.67 1.85358 4.70075 0
M  V30 14796 C 1386.86 2.20268 4.64743 0
M  V30 14797 N 1384.85 3.1225 5.28558 0
M  V30 14798 C 1386.22 3.31746 5.23779 0
M  V30 14799 C 1388.27 2.19969 4.46675 0
M  V30 14800 C 1386.98 4.43056 5.66652 0
M  V30 14801 C 1389 3.30307 4.90562 0
M  V30 14802 C 1388.36 4.40505 5.49667 0
M  V30 14803 H 1384.46 0.0699705 0.778863 0
M  V30 14804 H 1387.05 0.773585 1.78672 0
M  V30 14805 H 1385.22 -0.719807 3.81672 0
M  V30 14806 H 1386.95 -0.562342 4.00774 0
M  V30 14807 H 1383.7 1.3887 4.52782 0
M  V30 14808 H 1384.13 3.76992 5.62322 0
M  V30 14809 H 1388.77 1.36044 4.00315 0
M  V30 14810 H 1386.49 5.27724 6.11991 0
M  V30 14811 H 1390.07 3.31191 4.78334 0
M  V30 14812 H 1388.95 5.24475 5.83006 0
M  V30 14813 N 1386.46 -1.54343 0.318742 0
M  V30 14814 C 1387.41 -2.20892 -0.564849 0
M  V30 14815 C 1388.39 -1.18782 -1.08534 0
M  V30 14816 O 1389.58 -1.44431 -1.02316 0
M  V30 14817 C 1386.71 -2.96661 -1.72763 0
M  V30 14818 C 1385.8 -4.06105 -1.22226 0
M  V30 14819 N 1386.19 -5.03916 -0.436203 0
M  V30 14820 C 1384.49 -4.19968 -1.50142 0
M  V30 14821 C 1385.19 -5.81466 -0.164875 0
M  V30 14822 N 1384.16 -5.38406 -0.74966 0
M  V30 14823 H 1387.97 -2.93868 0.0430622 0
M  V30 14824 H 1385.48 -1.61923 0.124362 0
M  V30 14825 H 1387.48 -3.42819 -2.37236 0
M  V30 14826 H 1386.14 -2.25206 -2.33907 0
M  V30 14827 H 1387.15 -5.17839 -0.0794815 0
M  V30 14828 H 1383.83 -3.59726 -2.11905 0
M  V30 14829 H 1385.22 -6.70271 0.467617 0
M  V30 14830 N 1387.94 -0.0468143 -1.5753 0
M  V30 14831 C 1389.17 0.636723 -1.96544 0
M  V30 14832 C 1389.57 1.65169 -0.922814 0
M  V30 14833 O 1388.92 1.83417 0.101892 0
M  V30 14834 C 1388.98 1.38435 -3.31777 0
M  V30 14835 C 1388.64 0.525714 -4.53966 0
M  V30 14836 C 1389.64 -0.206392 -5.1949 0
M  V30 14837 C 1387.32 0.457919 -5.00208 0
M  V30 14838 C 1389.32 -0.994779 -6.29589 0
M  V30 14839 C 1387.01 -0.334159 -6.10186 0
M  V30 14840 C 1388 -1.0592 -6.74737 0
M  V30 14841 O 1387.69 -1.83826 -7.826 0
M  V30 14842 H 1387.42 0.179197 -0.651816 0
M  V30 14843 H 1389.98 -0.108214 -2.05115 0
M  V30 14844 H 1388.21 2.17482 -3.19748 0
M  V30 14845 H 1389.9 1.9577 -3.55568 0
M  V30 14846 H 1390.66 -0.163457 -4.84724 0
M  V30 14847 H 1386.54 1.01185 -4.49758 0
M  V30 14848 H 1390.09 -1.56121 -6.79906 0
M  V30 14849 H 1385.98 -0.378748 -6.44388 0
M  V30 14850 H 1386.75 -1.75991 -7.99356 0
M  V30 14851 N 1389.41 1.55964 0.226527 0
M  V30 14852 C 1390.64 1.82823 0.968673 0
M  V30 14853 C 1391.06 0.625281 1.78145 0
M  V30 14854 O 1390.41 -0.40617 1.77923 0
M  V30 14855 C 1390.47 3.08143 1.89024 0
M  V30 14856 O 1390.19 4.23797 1.11032 0
M  V30 14857 C 1391.69 3.47954 2.74669 0
M  V30 14858 H 1388.91 0.607876 0.284126 0
M  V30 14859 H 1391.45 2.03048 0.243258 0
M  V30 14860 H 1389.61 2.89908 2.56967 0
M  V30 14861 H 1390.02 4.94957 1.73546 0
M  V30 14862 H 1391.49 4.38691 3.35044 0
M  V30 14863 H 1391.97 2.69476 3.46813 0
M  V30 14864 H 1392.58 3.6861 2.12147 0
M  V30 14865 N 1390.89 -0.493031 1.4969 0
M  V30 14866 C 1391.82 -1.61058 1.63074 0
M  V30 14867 C 1392.84 -1.54504 0.513069 0
M  V30 14868 O 1394.03 -1.60291 0.785431 0
M  V30 14869 C 1391.13 -2.99877 1.57883 0
M  V30 14870 C 1390.3 -3.31531 2.85317 0
M  V30 14871 C 1389.36 -4.49799 2.7307 0
M  V30 14872 O 1388.38 -4.51189 3.47012 0
M  V30 14873 N 1389.59 -5.50182 1.85148 0
M  V30 14874 H 1392.35 -1.5 2.59461 0
M  V30 14875 H 1389.91 -0.681057 1.46878 0
M  V30 14876 H 1391.9 -3.76928 1.47333 0
M  V30 14877 H 1390.47 -3.04817 0.693218 0
M  V30 14878 H 1389.69 -2.433 3.10159 0
M  V30 14879 H 1390.98 -3.49481 3.69784 0
M  V30 14880 H 1390.38 -5.51865 1.24345 0
M  V30 14881 H 1388.94 -6.26305 1.80516 0
M  V30 14882 N 1392.37 -1.38898 -0.744656 0
M  V30 14883 C 1393.28 -1.39098 -1.88915 0
M  V30 14884 C 1394.3 -0.286956 -1.71617 0
M  V30 14885 O 1395.47 -0.526852 -1.94387 0
M  V30 14886 C 1392.54 -1.22352 -3.24393 0
M  V30 14887 C 1391.6 -2.4264 -3.54153 0
M  V30 14888 C 1390.83 -2.26683 -4.83167 0
M  V30 14889 O 1391.05 -1.26523 -5.56191 0
M  V30 14890 O 1389.99 -3.15464 -5.12607 0
M  V30 14891 H 1393.81 -2.35551 -1.91701 0
M  V30 14892 H 1391.4 -1.19911 -0.891158 0
M  V30 14893 H 1393.28 -1.15109 -4.05374 0
M  V30 14894 H 1391.96 -0.289886 -3.22399 0
M  V30 14895 H 1390.86 -2.55459 -2.73298 0
M  V30 14896 H 1392.2 -3.34664 -3.60917 0
M  V30 14897 N 1393.85 0.973806 -1.23914 0
M  V30 14898 C 1394.8 2.08861 -1.02372 0
M  V30 14899 C 1395.79 1.69354 0.039415 0
M  V30 14900 O 1397 1.79635 -0.114637 0
M  V30 14901 H 1393.37 0.683313 -0.313986 0
M  V30 14902 H 1395.34 2.24195 -1.96924 0
M  V30 14903 C 1394.09 3.41784 -0.638661 0
M  V30 14904 H 1393.41 3.72639 -1.44846 0
M  V30 14905 H 1394.85 4.20706 -0.527487 0
M  V30 14906 C 1393.31 3.30497 0.65369 0
M  V30 14907 O 1393.84 3.63905 1.70107 0
M  V30 14908 N 1392.05 2.83642 0.632104 0
M  V30 14909 H 1391.6 2.56654 -0.220571 0
M  V30 14910 H 1391.55 2.76472 1.49701 0
M  V30 14911 N 1395.33 1.05191 1.17357 0
M  V30 14912 C 1396.58 0.757104 1.86951 0
M  V30 14913 C 1396.89 -0.718637 1.8192 0
M  V30 14914 O 1398.09 -1.12739 2.46986 0
M  V30 14915 C 1396.55 1.30409 3.35442 0
M  V30 14916 C 1396.16 2.80928 3.48975 0
M  V30 14917 C 1397.9 1.08633 4.10365 0
M  V30 14918 C 1395.81 3.28927 4.91488 0
M  V30 14919 H 1394.74 0.279525 0.700273 0
M  V30 14920 H 1397.39 1.2692 1.32528 0
M  V30 14921 H 1395.77 0.719812 3.89403 0
M  V30 14922 H 1396.95 3.45211 3.05231 0
M  V30 14923 H 1395.26 3.01245 2.87473 0
M  V30 14924 H 1397.86 1.41996 5.15501 0
M  V30 14925 H 1398.2 0.0240903 4.16293 0
M  V30 14926 H 1398.73 1.63581 3.6261 0
M  V30 14927 H 1395.47 4.34581 4.90734 0
M  V30 14928 H 1394.99 2.69386 5.35902 0
M  V30 14929 H 1396.67 3.23605 5.60258 0
M  V30 14930 N 1396.8 -1.33791 0.83293 0
M  V30 14931 C 1397.75 -2.26795 0.234069 0
M  V30 14932 C 1398.74 -1.48991 -0.60749 0
M  V30 14933 O 1399.93 -1.70907 -0.46043 0
M  V30 14934 C 1397.06 -3.38107 -0.594863 0
M  V30 14935 C 1396.15 -4.23315 0.257877 0
M  V30 14936 N 1396.54 -4.87899 1.33373 0
M  V30 14937 C 1394.83 -4.45978 0.0438997 0
M  V30 14938 C 1395.54 -5.51278 1.85655 0
M  V30 14939 N 1394.51 -5.31103 1.15892 0
M  V30 14940 H 1398.31 -2.7424 1.05688 0
M  V30 14941 H 1395.83 -1.47627 0.676767 0
M  V30 14942 H 1397.82 -4.03716 -1.04014 0
M  V30 14943 H 1396.48 -2.92212 -1.41571 0
M  V30 14944 H 1397.5 -4.88624 1.71659 0
M  V30 14945 H 1394.17 -4.10818 -0.743985 0
M  V30 14946 H 1395.56 -6.12723 2.75717 0
M  V30 14947 N 1398.28 -0.588812 -1.46187 0
M  V30 14948 C 1399.25 0.130803 -2.28826 0
M  V30 14949 C 1400.25 0.813037 -1.38731 0
M  V30 14950 O 1401.44 0.664061 -1.61046 0
M  V30 14951 C 1398.57 1.19484 -3.19275 0
M  V30 14952 H 1399.76 -0.595514 -2.93928 0
M  V30 14953 H 1397.31 -0.347038 -1.52399 0
M  V30 14954 H 1398.05 1.95254 -2.58933 0
M  V30 14955 H 1397.83 0.710077 -3.85617 0
M  V30 14956 H 1399.32 1.69938 -3.81459 0
M  V30 14957 N 1399.76 1.54172 -0.326923 0
M  V30 14958 C 1400.72 2.2311 0.524855 0
M  V30 14959 C 1401.72 1.22567 1.04087 0
M  V30 14960 O 1402.91 1.47123 0.932759 0
M  V30 14961 C 1400.05 2.93778 1.72937 0
M  V30 14962 H 1401.24 2.99799 -0.0778327 0
M  V30 14963 H 1398.79 1.56105 -0.0780484 0
M  V30 14964 H 1399.53 2.21234 2.3712 0
M  V30 14965 H 1399.31 3.67509 1.36674 0
M  V30 14966 H 1400.8 3.46292 2.33392 0
M  V30 14967 N 1401.24 0.0551678 1.57503 0
M  V30 14968 C 1402.17 -0.947102 2.08717 0
M  V30 14969 C 1403.18 -1.2722 1.01582 0
M  V30 14970 O 1404.37 -1.23229 1.29139 0
M  V30 14971 C 1401.47 -2.26756 2.51863 0
M  V30 14972 C 1400.65 -2.12378 3.8238 0
M  V30 14973 C 1399.7 -3.27582 4.11797 0
M  V30 14974 O 1398.73 -3.03309 4.81656 0
M  V30 14975 N 1399.93 -4.5218 3.64024 0
M  V30 14976 H 1402.7 -0.509957 2.9533 0
M  V30 14977 H 1400.26 -0.130976 1.61369 0
M  V30 14978 H 1402.25 -3.02701 2.68616 0
M  V30 14979 H 1400.82 -2.62024 1.70477 0
M  V30 14980 H 1400.04 -1.21 3.7517 0
M  V30 14981 H 1401.33 -2.00003 4.67842 0
M  V30 14982 H 1400.73 -4.7479 3.07556 0
M  V30 14983 H 1399.28 -5.25206 3.86008 0
M  V30 14984 N 1402.72 -1.56081 -0.218252 0
M  V30 14985 C 1403.67 -1.89082 -1.27405 0
M  V30 14986 C 1404.65 -0.754204 -1.42129 0
M  V30 14987 O 1405.84 -1.01668 -1.44888 0
M  V30 14988 C 1402.97 -2.21387 -2.62379 0
M  V30 14989 C 1402.06 -3.41448 -2.51543 0
M  V30 14990 N 1402.45 -4.5998 -2.10362 0
M  V30 14991 C 1400.75 -3.45128 -2.82494 0
M  V30 14992 C 1401.45 -5.42139 -2.10857 0
M  V30 14993 N 1400.42 -4.81936 -2.51472 0
M  V30 14994 H 1404.23 -2.78238 -0.946609 0
M  V30 14995 H 1401.74 -1.56691 -0.426801 0
M  V30 14996 H 1403.74 -2.43205 -3.38611 0
M  V30 14997 H 1402.4 -1.33545 -2.95966 0
M  V30 14998 H 1403.41 -4.85077 -1.8144 0
M  V30 14999 H 1400.08 -2.67638 -3.20431 0
M  V30 15000 H 1401.47 -6.47029 -1.81114 0
M  V30 15001 N 1404.2 0.485086 -1.49949 0
M  V30 15002 C 1405.44 1.24816 -1.61865 0
M  V30 15003 C 1405.8 1.8955 -0.305741 0
M  V30 15004 O 1407 2.67118 -0.300216 0
M  V30 15005 C 1405.27 2.27464 -2.75672 0
M  V30 15006 S 1406.83 3.12898 -3.07637 0
M  V30 15007 H 1403.65 0.423964 -0.570767 0
M  V30 15008 H 1406.25 0.547552 -1.87676 0
M  V30 15009 H 1404.95 1.78464 -3.69566 0
M  V30 15010 H 1404.49 3.02172 -2.51904 0
M  V30 15011 H 1406.5 4.28395 -2.50384 0
M  V30 15012 N 1405.67 1.39291 0.737279 0
M  V30 15013 C 1406.62 1.37969 1.87263 0
M  V30 15014 C 1407.62 0.263156 1.67344 0
M  V30 15015 O 1408.82 0.433069 1.74713 0
M  V30 15016 H 1405.2 0.430782 0.616385 0
M  V30 15017 H 1407.17 2.33741 1.85494 0
M  V30 15018 C 1405.92 1.23779 3.24922 0
M  V30 15019 H 1405.24 2.08963 3.40844 0
M  V30 15020 H 1406.68 1.26911 4.04561 0
M  V30 15021 C 1405.14 -0.0539778 3.36857 0
M  V30 15022 O 1405.67 -1.02501 3.88402 0
M  V30 15023 N 1403.87 -0.116275 2.90367 0
M  V30 15024 H 1403.42 0.674622 2.48609 0
M  V30 15025 H 1403.38 -0.980107 2.98733 0
M  V30 15026 N 1407.15 -0.967221 1.24429 0
M  V30 15027 C 1408.06 -2.09582 1.05417 0
M  V30 15028 C 1409.08 -1.73999 -0.00516127 0
M  V30 15029 O 1410.25 -2.00472 0.193115 0
M  V30 15030 C 1407.32 -3.40327 0.661697 0
M  V30 15031 C 1406.38 -3.89854 1.79756 0
M  V30 15032 C 1405.61 -5.1436 1.42372 0
M  V30 15033 O 1405.84 -5.69536 0.313754 0
M  V30 15034 O 1404.77 -5.58283 2.24952 0
M  V30 15035 H 1408.6 -2.28517 2.00034 0
M  V30 15036 H 1406.18 -1.07978 1.03253 0
M  V30 15037 H 1408.06 -4.18943 0.454369 0
M  V30 15038 H 1406.74 -3.22691 -0.255348 0
M  V30 15039 H 1405.64 -3.12297 2.05964 0
M  V30 15040 H 1406.98 -4.11967 2.69339 0
M  V30 15041 N 1408.63 -1.05812 -1.16797 0
M  V30 15042 C 1409.56 -0.685778 -2.23202 0
M  V30 15043 C 1410.54 0.319428 -1.67074 0
M  V30 15044 O 1411.73 0.195635 -1.93212 0
M  V30 15045 C 1408.86 -0.0662958 -3.47237 0
M  V30 15046 C 1407.81 -0.996943 -4.16227 0
M  V30 15047 C 1407.14 -0.241015 -5.34157 0
M  V30 15048 C 1408.44 -2.32384 -4.67755 0
M  V30 15049 H 1410.13 -1.57535 -2.54604 0
M  V30 15050 H 1407.68 -0.758909 -1.22379 0
M  V30 15051 H 1409.63 0.206024 -4.20896 0
M  V30 15052 H 1408.35 0.858263 -3.15121 0
M  V30 15053 H 1407.01 -1.25393 -3.44488 0
M  V30 15054 H 1406.66 0.686508 -4.98293 0
M  V30 15055 H 1406.36 -0.861188 -5.81255 0
M  V30 15056 H 1407.88 0.0238739 -6.10595 0
M  V30 15057 H 1409.3 -2.11099 -5.3302 0
M  V30 15058 H 1407.69 -2.89855 -5.25456 0
M  V30 15059 H 1408.76 -2.958 -3.84227 0
M  V30 15060 N 1410.11 1.33347 -0.840014 0
M  V30 15061 C 1411.04 2.28029 -0.231432 0
M  V30 15062 C 1412.05 1.51792 0.588488 0
M  V30 15063 O 1413.24 1.736 0.415371 0
M  V30 15064 C 1410.34 3.31745 0.692721 0
M  V30 15065 C 1409.51 4.37311 -0.0881144 0
M  V30 15066 C 1408.57 5.20689 0.759557 0
M  V30 15067 O 1407.6 5.68854 0.198347 0
M  V30 15068 N 1408.8 5.42082 2.07672 0
M  V30 15069 H 1411.57 2.80893 -1.04495 0
M  V30 15070 H 1409.13 1.46053 -0.698586 0
M  V30 15071 H 1411.12 3.84428 1.2648 0
M  V30 15072 H 1409.69 2.79148 1.40695 0
M  V30 15073 H 1408.91 3.85112 -0.841579 0
M  V30 15074 H 1410.2 5.04947 -0.624986 0
M  V30 15075 H 1409.6 5.04654 2.55619 0
M  V30 15076 H 1408.15 5.97817 2.59726 0
M  V30 15077 N 1411.59 0.596556 1.45873 0
M  V30 15078 C 1413 0.259317 1.57479 0
M  V30 15079 C 1413.2 -1.23829 1.58961 0
M  V30 15080 O 1412.26 -2.02076 1.51399 0
M  V30 15081 C 1413.57 0.920755 2.86256 0
M  V30 15082 C 1415.12 0.895638 2.99912 0
M  V30 15083 C 1415.59 1.53688 4.31444 0
M  V30 15084 N 1417.08 1.50186 4.38176 0
M  V30 15085 C 1417.82 1.96727 5.38596 0
M  V30 15086 N 1417.32 2.51304 6.45615 0
M  V30 15087 N 1419.11 1.87561 5.29884 0
M  V30 15088 H 1411.26 1.56909 1.43155 0
M  V30 15089 H 1413.52 0.656664 0.683737 0
M  V30 15090 H 1413.23 1.97481 2.91023 0
M  V30 15091 H 1413.1 0.437331 3.74656 0
M  V30 15092 H 1415.49 -0.149838 2.94719 0
M  V30 15093 H 1415.57 1.41722 2.12952 0
M  V30 15094 H 1415.21 2.58163 4.37395 0
M  V30 15095 H 1415.14 0.990408 5.17203 0
M  V30 15096 H 1417.64 1.10305 3.61443 0
M  V30 15097 H 1417.95 2.84639 7.18471 0
M  V30 15098 H 1416.29 2.55337 6.46396 0
M  V30 15099 H 1419.48 1.4467 4.45183 0
M  V30 15100 H 1419.66 2.24146 6.07999 0
M  V30 15101 N 1413.06 -1.53996 0.335095 0
M  V30 15102 C 1414.29 -2.05657 -0.268328 0
M  V30 15103 C 1414.71 -1.20897 -1.44102 0
M  V30 15104 O 1414.07 -0.220737 -1.79951 0
M  V30 15105 C 1414.12 -3.54331 -0.669481 0
M  V30 15106 O 1413.22 -3.7246 -1.77052 0
M  V30 15107 H 1412.56 -0.662386 -0.0462705 0
M  V30 15108 H 1415.09 -1.98723 0.486854 0
M  V30 15109 H 1415.1 -3.9681 -0.948971 0
M  V30 15110 H 1413.78 -4.15474 0.188168 0
M  V30 15111 H 1412.36 -3.41884 -1.48895 0
M  V30 15112 N 1414.54 -0.0635198 -1.57472 0
M  V30 15113 C 1415.82 0.648029 -1.84553 0
M  V30 15114 C 1416.2 1.88295 -0.954371 0
M  V30 15115 O 1415.55 2.28492 -0.0185351 0
M  V30 15116 C 1415.76 0.993573 -3.34558 0
M  V30 15117 C 1417.1 1.3706 -4.0187 0
M  V30 15118 O 1418.13 1.08555 -3.39255 0
M  V30 15119 O 1416.99 1.90309 -5.12294 0
M  V30 15120 H 1414.08 0.321047 -0.76214 0
M  V30 15121 H 1416.63 -0.0938223 -1.6944 0
M  V30 15122 H 1415.4 0.116139 -3.91128 0
M  V30 15123 H 1415.02 1.79246 -3.54904 0
M  V30 15124 N 1416.02 1.56195 0.209972 0
M  V30 15125 C 1417.3 1.70553 0.957653 0
M  V30 15126 C 1417.68 0.614091 2.01971 0
M  V30 15127 O 1417.02 -0.377192 2.25365 0
M  V30 15128 C 1417.23 3.12314 1.55759 0
M  V30 15129 C 1418.58 3.72085 2.04543 0
M  V30 15130 O 1419.61 3.15349 1.65631 0
M  V30 15131 O 1418.47 4.71627 2.76099 0
M  V30 15132 H 1415.56 0.695077 0.448104 0
M  V30 15133 H 1418.11 1.68507 0.20084 0
M  V30 15134 H 1416.88 3.83215 0.791302 0
M  V30 15135 H 1416.5 3.18526 2.37964 0
M  V30 15136 N 1417.5 -0.477127 1.50204 0
M  V30 15137 C 1418.75 -1.22639 1.60133 0
M  V30 15138 C 1419.06 -1.93218 0.304333 0
M  V30 15139 O 1420.27 -2.70027 0.282457 0
M  V30 15140 C 1418.72 -2.22807 2.82639 0
M  V30 15141 C 1418.33 -1.58059 4.19191 0
M  V30 15142 C 1420.07 -2.98413 3.01911 0
M  V30 15143 C 1417.98 -2.56478 5.32891 0
M  V30 15144 H 1416.91 -0.461439 0.596314 0
M  V30 15145 H 1419.56 -0.497533 1.76626 0
M  V30 15146 H 1417.94 -2.98959 2.59692 0
M  V30 15147 H 1419.12 -0.877374 4.5237 0
M  V30 15148 H 1417.43 -0.947563 4.05475 0
M  V30 15149 H 1420.03 -3.72059 3.84026 0
M  V30 15150 H 1420.37 -3.57444 2.134 0
M  V30 15151 H 1420.91 -2.29375 3.25011 0
M  V30 15152 H 1417.64 -2.02194 6.23536 0
M  V30 15153 H 1417.16 -3.24969 5.04138 0
M  V30 15154 H 1418.84 -3.18429 5.63216 0
M  V30 15155 N 1418.98 -1.3968 -0.729882 0
M  V30 15156 C 1420.2 -1.40467 -1.5191 0
M  V30 15157 C 1420.62 -0.000529943 -1.888 0
M  V30 15158 O 1419.98 0.972072 -1.54457 0
M  V30 15159 C 1420.03 -2.2823 -2.80345 0
M  V30 15160 O 1419.75 -3.63176 -2.4502 0
M  V30 15161 C 1421.25 -2.37455 -3.74339 0
M  V30 15162 H 1418.47 -0.479604 -0.469277 0
M  V30 15163 H 1421.01 -1.83558 -0.901484 0
M  V30 15164 H 1419.17 -1.88538 -3.38426 0
M  V30 15165 H 1419.58 -4.0964 -3.2756 0
M  V30 15166 H 1421.06 -3.031 -4.6134 0
M  V30 15167 H 1421.53 -1.39525 -4.16449 0
M  V30 15168 H 1422.14 -2.77638 -3.22176 0
M  V30 15169 N 1420.45 0.960609 -1.2494 0
M  V30 15170 C 1421.38 2.074 -1.07274 0
M  V30 15171 C 1422.37 1.70092 0.0164365 0
M  V30 15172 O 1423.55 1.93604 -0.151975 0
M  V30 15173 C 1420.68 3.40491 -0.684317 0
M  V30 15174 C 1419.63 3.91784 -1.72306 0
M  V30 15175 C 1418.96 5.21301 -1.18949 0
M  V30 15176 C 1420.26 4.18829 -3.12056 0
M  V30 15177 H 1421.95 2.22438 -2.00404 0
M  V30 15178 H 1419.5 1.06888 -0.964937 0
M  V30 15179 H 1421.45 4.17826 -0.547686 0
M  V30 15180 H 1420.18 3.25374 0.282687 0
M  V30 15181 H 1418.84 3.16613 -1.84802 0
M  V30 15182 H 1418.48 5.02549 -0.212892 0
M  V30 15183 H 1418.18 5.56588 -1.8837 0
M  V30 15184 H 1419.71 6.01238 -1.06513 0
M  V30 15185 H 1421.12 4.86844 -3.02748 0
M  V30 15186 H 1419.52 4.6536 -3.78894 0
M  V30 15187 H 1420.59 3.25333 -3.59564 0
M  V30 15188 N 1421.93 1.0643 1.16234 0
M  V30 15189 C 1422.88 0.670457 2.22728 0
M  V30 15190 C 1423.87 -0.31428 1.66459 0
M  V30 15191 O 1425.08 -0.178996 1.79108 0
M  V30 15192 H 1421.46 0.198692 0.725276 0
M  V30 15193 H 1423.43 1.57846 2.53233 0
M  V30 15194 C 1422.18 0.074379 3.4762 0
M  V30 15195 H 1421.5 0.823227 3.91233 0
M  V30 15196 H 1422.94 -0.163652 4.23684 0
M  V30 15197 C 1421.4 -1.18242 3.15469 0
M  V30 15198 O 1421.93 -2.27018 3.314 0
M  V30 15199 N 1420.13 -1.08493 2.69588 0
M  V30 15200 H 1419.68 -0.199714 2.56825 0
M  V30 15201 H 1419.64 -1.92666 2.48449 0
M  V30 15202 N 1423.41 -1.329 0.847073 0
M  V30 15203 C 1424.34 -2.31546 0.301422 0
M  V30 15204 C 1425.32 -1.59342 -0.595317 0
M  V30 15205 O 1426.51 -1.87188 -0.517151 0
M  V30 15206 C 1423.64 -3.43423 -0.517454 0
M  V30 15207 C 1422.59 -4.27055 0.284195 0
M  V30 15208 C 1421.92 -5.30624 -0.658944 0
M  V30 15209 C 1423.22 -5.00123 1.50578 0
M  V30 15210 H 1424.91 -2.77433 1.12567 0
M  V30 15211 H 1422.46 -1.3338 0.542739 0
M  V30 15212 H 1424.41 -4.11467 -0.909543 0
M  V30 15213 H 1423.13 -2.96246 -1.37499 0
M  V30 15214 H 1421.79 -3.60648 0.657944 0
M  V30 15215 H 1421.44 -4.79702 -1.51311 0
M  V30 15216 H 1421.14 -5.87464 -0.12662 0
M  V30 15217 H 1422.66 -6.01533 -1.04837 0
M  V30 15218 H 1424.08 -5.6089 1.18641 0
M  V30 15219 H 1422.48 -5.66652 1.97549 0
M  V30 15220 H 1423.55 -4.28424 2.27115 0
M  V30 15221 N 1424.89 -0.604284 -1.45555 0
M  V30 15222 C 1426.17 -0.0303285 -1.95576 0
M  V30 15223 C 1426.55 1.43661 -1.54676 0
M  V30 15224 O 1425.89 2.13747 -0.807731 0
M  V30 15225 C 1426.1 -0.22497 -3.48274 0
M  V30 15226 C 1427.45 -0.104042 -4.24473 0
M  V30 15227 O 1428.48 -0.154919 -3.55863 0
M  V30 15228 O 1427.33 0.0136297 -5.46498 0
M  V30 15229 H 1424.43 0.0376106 -0.826144 0
M  V30 15230 H 1426.97 -0.674114 -1.55736 0
M  V30 15231 H 1425.75 -1.24391 -3.71002 0
M  V30 15232 H 1425.37 0.454234 -3.94997 0
M  V30 15233 N 1426.37 1.53816 -0.343257 0
M  V30 15234 C 1427.32 2.21763 0.529635 0
M  V30 15235 C 1428.3 1.20494 1.06631 0
M  V30 15236 O 1429.49 1.46041 1.00006 0
M  V30 15237 C 1426.62 2.99372 1.68022 0
M  V30 15238 C 1425.71 4.07999 1.1575 0
M  V30 15239 N 1426.1 5.04546 0.355979 0
M  V30 15240 C 1424.4 4.22304 1.43442 0
M  V30 15241 C 1425.1 5.81655 0.0723481 0
M  V30 15242 N 1424.07 5.39531 0.66391 0
M  V30 15243 H 1427.88 2.93763 -0.0898087 0
M  V30 15244 H 1425.39 1.61705 -0.150107 0
M  V30 15245 H 1427.39 3.4655 2.31752 0
M  V30 15246 H 1426.05 2.28899 2.30294 0
M  V30 15247 H 1427.06 5.179 -0.00291228 0
M  V30 15248 H 1423.73 3.63051 2.06155 0
M  V30 15249 H 1425.12 6.69442 -0.574192 0
M  V30 15250 N 1427.84 0.0718701 1.57436 0
M  V30 15251 C 1428.78 -0.924911 2.09709 0
M  V30 15252 C 1429.79 -1.26136 1.02925 0
M  V30 15253 O 1430.98 -1.21853 1.30438 0
M  V30 15254 C 1428.08 -2.24072 2.54254 0
M  V30 15255 C 1427.25 -2.0831 3.84611 0
M  V30 15256 C 1426.31 -3.23196 4.15248 0
M  V30 15257 O 1425.34 -2.98184 4.84846 0
M  V30 15258 N 1426.54 -4.48293 3.688 0
M  V30 15259 H 1429.3 -0.478605 2.95854 0
M  V30 15260 H 1426.86 -0.113853 1.61499 0
M  V30 15261 H 1428.86 -2.99835 2.71811 0
M  V30 15262 H 1427.43 -2.60201 1.73246 0
M  V30 15263 H 1426.65 -1.17014 3.76432 0
M  V30 15264 H 1427.93 -1.9503 4.69937 0
M  V30 15265 H 1427.33 -4.71501 3.12575 0
M  V30 15266 H 1425.89 -5.21082 3.91556 0
M  V30 15267 N 1429.32 -1.56304 -0.201686 0
M  V30 15268 C 1430.25 -1.97046 -1.25281 0
M  V30 15269 C 1431.23 -0.841458 -1.47829 0
M  V30 15270 O 1432.42 -1.10529 -1.59678 0
M  V30 15271 C 1429.55 -2.30429 -2.59845 0
M  V30 15272 C 1428.5 -3.46006 -2.5192 0
M  V30 15273 C 1427.83 -3.65047 -3.90697 0
M  V30 15274 C 1429.13 -4.80391 -2.04992 0
M  V30 15275 H 1430.82 -2.85099 -0.914272 0
M  V30 15276 H 1428.37 -1.37166 -0.438359 0
M  V30 15277 H 1430.32 -2.57525 -3.33555 0
M  V30 15278 H 1429.05 -1.39251 -2.95426 0
M  V30 15279 H 1427.7 -3.18991 -1.80667 0
M  V30 15280 H 1427.35 -2.71211 -4.2362 0
M  V30 15281 H 1427.05 -4.42796 -3.86271 0
M  V30 15282 H 1428.58 -3.94512 -4.66039 0
M  V30 15283 H 1429.99 -5.06561 -2.68456 0
M  V30 15284 H 1428.39 -5.61563 -2.11582 0
M  V30 15285 H 1429.46 -4.74416 -1.00288 0
M  V30 15286 N 1430.8 0.469154 -1.50455 0
M  V30 15287 C 1431.73 1.57493 -1.7239 0
M  V30 15288 C 1432.71 1.60161 -0.572915 0
M  V30 15289 O 1433.9 1.76397 -0.812259 0
M  V30 15290 C 1431.03 2.95804 -1.81981 0
M  V30 15291 C 1429.98 3.08001 -2.97185 0
M  V30 15292 C 1429.31 4.4798 -2.91922 0
M  V30 15293 C 1430.61 2.85039 -4.37665 0
M  V30 15294 H 1432.3 1.39389 -2.64974 0
M  V30 15295 H 1429.85 0.669133 -1.27509 0
M  V30 15296 H 1431.8 3.73091 -1.95911 0
M  V30 15297 H 1430.52 3.15068 -0.86021 0
M  V30 15298 H 1429.18 2.33148 -2.82909 0
M  V30 15299 H 1428.83 4.64165 -1.93803 0
M  V30 15300 H 1428.53 4.57076 -3.69263 0
M  V30 15301 H 1430.05 5.27284 -3.07903 0
M  V30 15302 H 1431.47 3.52074 -4.52456 0
M  V30 15303 H 1429.87 3.05578 -5.16471 0
M  V30 15304 H 1430.94 1.8088 -4.499 0
M  V30 15305 N 1432.28 1.40065 0.722464 0
M  V30 15306 C 1433.53 1.37698 1.47932 0
M  V30 15307 C 1433.85 -0.0222608 1.94987 0
M  V30 15308 O 1433.12 -0.975795 1.69868 0
M  V30 15309 H 1431.7 0.506766 0.548815 0
M  V30 15310 H 1434.36 1.75053 0.856884 0
M  V30 15311 H 1433.46 2.04756 2.35545 0
M  V30 15312 N 1433.76 -0.95397 1.25448 0
M  V30 15313 C 1434.69 -2.06828 1.08372 0
M  V30 15314 C 1435.67 -1.70098 -0.00741585 0
M  V30 15315 O 1436.85 -1.93521 0.16224 0
M  V30 15316 C 1433.98 -3.40124 0.702365 0
M  V30 15317 C 1432.94 -3.90865 1.74381 0
M  V30 15318 C 1432.26 -5.20663 1.21712 0
M  V30 15319 C 1433.56 -4.17169 3.14273 0
M  V30 15320 H 1435.26 -2.21372 2.01581 0
M  V30 15321 H 1432.8 -1.06374 0.970592 0
M  V30 15322 H 1434.76 -4.17529 0.569837 0
M  V30 15323 H 1433.48 -3.2552 -0.265428 0
M  V30 15324 H 1432.14 -3.15628 1.86479 0
M  V30 15325 H 1431.79 -5.02429 0.23954 0
M  V30 15326 H 1431.49 -5.55581 1.91319 0
M  V30 15327 H 1433.01 -6.00665 1.097 0
M  V30 15328 H 1434.43 -4.85231 3.05325 0
M  V30 15329 H 1432.82 -4.63344 3.81356 0
M  V30 15330 H 1433.89 -3.23421 3.61285 0
M  V30 15331 N 1435.24 -1.07045 -1.15668 0
M  V30 15332 C 1436.48 -0.790172 -1.86013 0
M  V30 15333 C 1436.8 0.685663 -1.82548 0
M  V30 15334 O 1436.07 1.49644 -1.26426 0
M  V30 15335 H 1434.65 -0.28931 -0.688701 0
M  V30 15336 H 1437.32 -1.35354 -1.40233 0
M  V30 15337 H 1436.41 -1.1219 -2.91239 0
M  V30 15338 N 1436.71 1.32449 -0.85411 0
M  V30 15339 C 1437.94 2.01997 -0.470307 0
M  V30 15340 C 1438.36 1.63772 0.925225 0
M  V30 15341 O 1437.72 0.838089 1.60766 0
M  V30 15342 C 1437.77 3.55294 -0.616301 0
M  V30 15343 O 1436.87 4.10902 0.351133 0
M  V30 15344 H 1436.21 0.63651 -0.189079 0
M  V30 15345 H 1438.74 1.69008 -1.15315 0
M  V30 15346 H 1438.75 4.0488 -0.503624 0
M  V30 15347 H 1437.43 3.82459 -1.63396 0
M  V30 15348 H 1436.01 3.72391 0.194741 0
M  V30 15349 N 1438.19 0.611994 1.45232 0
M  V30 15350 C 1439.14 -0.116695 2.32307 0
M  V30 15351 C 1440.13 -0.85519 1.46229 0
M  V30 15352 O 1441.34 -0.770257 1.62687 0
M  V30 15353 H 1437.71 -0.0564902 0.749875 0
M  V30 15354 H 1439.69 0.636073 2.91542 0
M  V30 15355 C 1438.43 -1.09768 3.29919 0
M  V30 15356 H 1437.76 -0.538848 3.96152 0
M  V30 15357 H 1439.2 -1.57739 3.93566 0
M  V30 15358 C 1437.66 -2.17344 2.57417 0
M  V30 15359 O 1438.19 -3.2515 2.35882 0
M  V30 15360 N 1436.39 -1.92749 2.17477 0
M  V30 15361 H 1435.94 -1.05084 2.35192 0
M  V30 15362 H 1435.9 -2.6493 1.69291 0
M  V30 15363 N 1439.67 -1.53632 0.351409 0
M  V30 15364 C 1440.89 -2.0593 -0.246501 0
M  V30 15365 C 1441.32 -1.22419 -1.42812 0
M  V30 15366 O 1440.68 -0.239811 -1.79707 0
M  V30 15367 C 1440.73 -3.55021 -0.631862 0
M  V30 15368 O 1439.83 -3.74317 -1.73092 0
M  V30 15369 H 1439.17 -0.662839 -0.0392424 0
M  V30 15370 H 1441.7 -1.98196 0.507904 0
M  V30 15371 H 1441.71 -3.97795 -0.906831 0
M  V30 15372 H 1440.39 -4.15251 0.232224 0
M  V30 15373 H 1438.96 -3.43444 -1.4526 0
M  V30 15374 N 1441.15 -0.0802183 -1.57396 0
M  V30 15375 C 1442.39 0.581779 -1.94902 0
M  V30 15376 C 1442.75 1.66708 -0.960532 0
M  V30 15377 O 1442.04 1.91593 0.0158677 0
M  V30 15378 C 1442.24 1.19551 -3.36812 0
M  V30 15379 C 1442.06 0.171196 -4.49374 0
M  V30 15380 C 1440.83 -0.247104 -5.04695 0
M  V30 15381 C 1443.03 -0.594852 -5.10848 0
M  V30 15382 N 1441.01 -1.26125 -6.00804 0
M  V30 15383 C 1442.39 -1.46124 -6.02535 0
M  V30 15384 C 1444.44 -0.65 -4.93639 0
M  V30 15385 C 1443.14 -2.37789 -6.78859 0
M  V30 15386 C 1445.17 -1.55419 -5.70613 0
M  V30 15387 C 1444.53 -2.40824 -6.61954 0
M  V30 15388 H 1440.63 0.183663 -0.760126 0
M  V30 15389 H 1443.21 -0.159324 -1.94047 0
M  V30 15390 H 1441.39 1.90651 -3.38389 0
M  V30 15391 H 1443.12 1.81867 -3.61534 0
M  V30 15392 H 1439.87 0.137694 -4.734 0
M  V30 15393 H 1440.3 -1.76608 -6.53558 0
M  V30 15394 H 1444.94 -0.00389787 -4.228 0
M  V30 15395 H 1442.66 -3.03431 -7.4897 0
M  V30 15396 H 1446.24 -1.60181 -5.59315 0
M  V30 15397 H 1445.12 -3.09654 -7.20475 0
M  V30 15398 N 1442.63 1.56409 0.193394 0
M  V30 15399 C 1443.87 1.80367 0.911717 0
M  V30 15400 C 1444.19 0.653561 1.83721 0
M  V30 15401 O 1443.46 -0.328001 1.93135 0
M  V30 15402 H 1442.04 0.665316 0.339652 0
M  V30 15403 H 1444.71 1.93887 0.198496 0
M  V30 15404 H 1443.8 2.7359 1.50182 0
M  V30 15405 N 1444.1 -0.461169 1.50702 0
M  V30 15406 C 1445.33 -1.24019 1.66235 0
M  V30 15407 C 1445.75 -1.84827 0.349388 0
M  V30 15408 O 1445.11 -1.67743 -0.687888 0
M  V30 15409 C 1445.16 -2.31743 2.76274 0
M  V30 15410 O 1444.26 -3.3664 2.38217 0
M  V30 15411 H 1443.6 -0.364424 0.55506 0
M  V30 15412 H 1446.13 -0.547636 1.97135 0
M  V30 15413 H 1446.14 -2.76902 2.99649 0
M  V30 15414 H 1444.82 -1.86858 3.7156 0
M  V30 15415 H 1443.4 -2.97123 2.25327 0
M  V30 15416 N 1445.58 -1.40446 -0.715026 0
M  V30 15417 C 1446.49 -1.43074 -1.85922 0
M  V30 15418 C 1447.51 -0.323294 -1.7097 0
M  V30 15419 O 1448.68 -0.567966 -1.93226 0
M  V30 15420 C 1445.75 -1.29206 -3.21725 0
M  V30 15421 C 1444.81 -2.50097 -3.48927 0
M  V30 15422 C 1444.04 -2.36881 -4.7825 0
M  V30 15423 O 1444.27 -1.38292 -5.53382 0
M  V30 15424 O 1443.2 -3.26266 -5.058 0
M  V30 15425 H 1447.03 -2.39565 -1.86661 0
M  V30 15426 H 1444.61 -1.21775 -0.865522 0
M  V30 15427 H 1446.49 -1.23681 -4.02841 0
M  V30 15428 H 1445.17 -0.358207 -3.21712 0
M  V30 15429 H 1444.07 -2.61199 -2.67817 0
M  V30 15430 H 1445.41 -3.42244 -3.53737 0
M  V30 15431 N 1447.06 0.947303 -1.25952 0
M  V30 15432 C 1448.31 1.6953 -1.11299 0
M  V30 15433 C 1448.64 1.9113 0.343961 0
M  V30 15434 O 1447.91 1.48755 1.25309 0
M  V30 15435 C 1448.2 3.0738 -1.87588 0
M  V30 15436 C 1448.05 2.93145 -3.41154 0
M  V30 15437 C 1449.37 4.07396 -1.66483 0
M  V30 15438 H 1446.49 0.615281 -0.405707 0
M  V30 15439 H 1449.13 1.10064 -1.54874 0
M  V30 15440 H 1447.28 3.58143 -1.50553 0
M  V30 15441 H 1448.95 2.49651 -3.87907 0
M  V30 15442 H 1447.19 2.28902 -3.68492 0
M  V30 15443 H 1447.87 3.9089 -3.89755 0
M  V30 15444 H 1450.34 3.65572 -1.98738 0
M  V30 15445 H 1449.22 5.01876 -2.22287 0
M  V30 15446 H 1449.48 4.379 -0.607916 0
M  V30 15447 N 1448.54 1.07657 1.15099 0
M  V30 15448 C 1449.47 0.721201 2.22083 0
M  V30 15449 C 1450.45 -0.292808 1.67561 0
M  V30 15450 O 1451.63 -0.164872 1.93499 0
M  V30 15451 C 1448.76 0.12153 3.47087 0
M  V30 15452 C 1447.72 1.06303 4.14588 0
M  V30 15453 C 1447.04 0.325964 5.33706 0
M  V30 15454 C 1448.34 2.39796 4.63999 0
M  V30 15455 H 1450.04 1.61566 2.52065 0
M  V30 15456 H 1447.58 0.778282 1.21156 0
M  V30 15457 H 1449.54 -0.139037 4.21171 0
M  V30 15458 H 1448.26 -0.808022 3.16447 0
M  V30 15459 H 1446.92 1.30858 3.4245 0
M  V30 15460 H 1446.57 -0.607147 4.99322 0
M  V30 15461 H 1446.27 0.953552 5.79811 0
M  V30 15462 H 1447.79 0.0732695 6.10556 0
M  V30 15463 H 1449.21 2.19552 5.29594 0
M  V30 15464 H 1447.6 2.98178 5.20778 0
M  V30 15465 H 1448.67 3.01876 3.79472 0
M  V30 15466 N 1450.02 -1.31994 0.861122 0
M  V30 15467 C 1451.29 -1.91699 0.388705 0
M  V30 15468 C 1451.67 -1.78412 -1.12838 0
M  V30 15469 O 1451.02 -1.18625 -1.95296 0
M  V30 15470 C 1451.23 -3.38232 0.860248 0
M  V30 15471 C 1452.58 -4.15355 0.881201 0
M  V30 15472 O 1453.6 -3.46977 0.805313 0
M  V30 15473 O 1452.46 -5.37468 0.98945 0
M  V30 15474 H 1449.56 -0.819017 0.114629 0
M  V30 15475 H 1452.1 -1.40721 0.94845 0
M  V30 15476 H 1450.87 -3.41876 1.9036 0
M  V30 15477 H 1450.5 -3.96625 0.278316 0
M  V30 15478 N 1451.49 -0.619688 -1.44906 0
M  V30 15479 C 1452.72 -0.124598 -2.07025 0
M  V30 15480 C 1453.14 1.18698 -1.45919 0
M  V30 15481 O 1452.5 1.72552 -0.556366 0
M  V30 15482 C 1452.55 -0.0112238 -3.60598 0
M  V30 15483 O 1451.65 1.03582 -3.9918 0
M  V30 15484 H 1451 -0.0795631 -0.659216 0
M  V30 15485 H 1453.53 -0.853127 -1.85965 0
M  V30 15486 H 1453.54 0.183079 -4.07589 0
M  V30 15487 H 1452.21 -0.968849 -4.04458 0
M  V30 15488 H 1450.79 0.817008 -3.6384 0
M  V30 15489 N 1452.97 1.53444 -0.359552 0
M  V30 15490 C 1454.22 2.02152 0.224969 0
M  V30 15491 C 1454.57 1.24236 1.46912 0
M  V30 15492 O 1453.87 0.325976 1.88807 0
M  V30 15493 C 1454.06 3.5273 0.575863 0
M  V30 15494 C 1453.89 4.45226 -0.63273 0
M  V30 15495 C 1452.66 4.92204 -1.14296 0
M  V30 15496 C 1454.86 4.92058 -1.49611 0
M  V30 15497 N 1452.84 5.68692 -2.31221 0
M  V30 15498 C 1454.21 5.66829 -2.51208 0
M  V30 15499 C 1456.27 4.74141 -1.51969 0
M  V30 15500 C 1454.97 6.25587 -3.55012 0
M  V30 15501 C 1456.99 5.33761 -2.54663 0
M  V30 15502 C 1456.36 6.08412 -3.54984 0
M  V30 15503 H 1452.46 0.780693 0.0451987 0
M  V30 15504 H 1455.04 1.88097 -0.502735 0
M  V30 15505 H 1453.21 3.66958 1.27265 0
M  V30 15506 H 1454.94 3.88166 1.14495 0
M  V30 15507 H 1451.7 4.6827 -0.70853 0
M  V30 15508 H 1452.12 6.116 -2.90301 0
M  V30 15509 H 1456.76 4.15956 -0.757639 0
M  V30 15510 H 1454.48 6.82871 -4.32102 0
M  V30 15511 H 1458.07 5.21795 -2.57334 0
M  V30 15512 H 1456.95 6.53724 -4.33145 0
M  V30 15513 N 1454.45 0.0885642 1.57351 0
M  V30 15514 C 1455.87 -0.268088 1.57332 0
M  V30 15515 C 1456.07 -1.68875 1.09924 0
M  V30 15516 O 1455.12 -2.40385 0.772729 0
M  V30 15517 C 1456.44 -0.0624654 3.00635 0
M  V30 15518 C 1457.98 -0.130717 3.12727 0
M  V30 15519 C 1458.46 0.0468305 4.57976 0
M  V30 15520 N 1459.95 -0.00822093 4.63199 0
M  V30 15521 C 1460.68 0.104497 5.73305 0
M  V30 15522 N 1460.18 0.271682 6.92267 0
M  V30 15523 N 1461.97 0.0462333 5.62081 0
M  V30 15524 H 1454.12 1.01686 1.86477 0
M  V30 15525 H 1456.39 0.397971 0.86042 0
M  V30 15526 H 1456.09 0.918505 3.39494 0
M  V30 15527 H 1455.97 -0.807602 3.68453 0
M  V30 15528 H 1458.35 -1.10219 2.73744 0
M  V30 15529 H 1458.44 0.645801 2.47514 0
M  V30 15530 H 1458.08 1.01514 4.97652 0
M  V30 15531 H 1458.01 -0.7493 5.21242 0
M  V30 15532 H 1460.5 -0.135164 3.77658 0
M  V30 15533 H 1460.81 0.349381 7.7201 0
M  V30 15534 H 1459.16 0.307265 6.9432 0
M  V30 15535 H 1462.35 -0.0831995 4.68026 0
M  V30 15536 H 1462.52 0.137529 6.47854 0
M  V30 15537 N 1455.93 -1.56509 -0.185096 0
M  V30 15538 C 1457.17 -1.81474 -0.905263 0
M  V30 15539 C 1457.51 -0.664225 -1.82488 0
M  V30 15540 O 1456.78 0.33466 -1.91599 0
M  V30 15541 C 1457.07 -3.16754 -1.71287 0
M  V30 15542 C 1456.92 -4.42312 -0.817302 0
M  V30 15543 C 1458.24 -3.48828 -2.68342 0
M  V30 15544 H 1455.36 -0.660155 -0.327664 0
M  V30 15545 H 1458 -1.89219 -0.172129 0
M  V30 15546 H 1456.15 -3.10282 -2.33789 0
M  V30 15547 H 1457.82 -4.60839 -0.206218 0
M  V30 15548 H 1456.06 -4.33621 -0.124564 0
M  V30 15549 H 1456.73 -5.33487 -1.41758 0
M  V30 15550 H 1459.21 -3.55663 -2.15969 0
M  V30 15551 H 1458.09 -4.44585 -3.21924 0
M  V30 15552 H 1458.35 -2.72829 -3.47875 0
M  V30 15553 N 1457.41 0.45317 -1.50944 0
M  V30 15554 C 1458.65 1.20269 -1.64033 0
M  V30 15555 C 1459.01 1.89287 -0.344707 0
M  V30 15556 O 1458.3 1.79927 0.65855 0
M  V30 15557 C 1458.49 2.25747 -2.7708 0
M  V30 15558 C 1458.32 1.67079 -4.1751 0
M  V30 15559 C 1457.09 1.46264 -4.83668 0
M  V30 15560 C 1459.29 1.15577 -5.01145 0
M  V30 15561 N 1457.27 0.830278 -6.08259 0
M  V30 15562 C 1458.64 0.647721 -6.16607 0
M  V30 15563 C 1460.7 1.04601 -4.86788 0
M  V30 15564 C 1459.4 0.0407277 -7.19288 0
M  V30 15565 C 1461.43 0.452936 -5.89663 0
M  V30 15566 C 1460.79 -0.0446434 -7.04386 0
M  V30 15567 H 1456.89 0.428334 -0.654259 0
M  V30 15568 H 1459.47 0.501782 -1.88123 0
M  V30 15569 H 1457.64 2.93244 -2.54681 0
M  V30 15570 H 1459.38 2.92745 -2.79432 0
M  V30 15571 H 1456.13 1.71995 -4.41265 0
M  V30 15572 H 1456.56 0.531994 -6.74907 0
M  V30 15573 H 1461.2 1.41661 -3.98362 0
M  V30 15574 H 1458.92 -0.34203 -8.07376 0
M  V30 15575 H 1462.5 0.370136 -5.80621 0
M  V30 15576 H 1461.38 -0.496363 -7.82628 0
M  V30 15577 N 1458.88 1.40823 0.707568 0
M  V30 15578 C 1460.13 1.39535 1.46753 0
M  V30 15579 C 1460.46 0.000370511 1.945 0
M  V30 15580 O 1459.71 -0.985628 1.69068 0
M  V30 15581 C 1460.01 2.33829 2.70294 0
M  V30 15582 C 1459.68 3.8092 2.41269 0
M  V30 15583 C 1458.34 4.20993 2.33063 0
M  V30 15584 C 1460.69 4.73839 2.17086 0
M  V30 15585 C 1458.02 5.52009 1.98754 0
M  V30 15586 C 1460.37 6.05161 1.84289 0
M  V30 15587 C 1459.04 6.44268 1.74571 0
M  V30 15588 H 1458.31 0.510593 0.537006 0
M  V30 15589 H 1460.95 1.73536 0.809789 0
M  V30 15590 H 1459.26 1.9304 3.40944 0
M  V30 15591 H 1460.96 2.30111 3.28405 0
M  V30 15592 H 1457.55 3.49175 2.48545 0
M  V30 15593 H 1461.73 4.43691 2.22377 0
M  V30 15594 H 1456.99 5.81202 1.89774 0
M  V30 15595 H 1461.16 6.7667 1.64593 0
M  V30 15596 H 1458.79 7.45703 1.47753 0
M  V30 15597 N 1460.36 -0.94061 1.26453 0
M  V30 15598 C 1461.78 -1.21424 1.03578 0
M  V30 15599 C 1461.98 -2.00081 -0.238726 0
M  V30 15600 O 1461.03 -2.3404 -0.947709 0
M  V30 15601 C 1462.35 -1.97496 2.26751 0
M  V30 15602 C 1463.9 -2.10485 2.31657 0
M  V30 15603 C 1464.37 -2.89959 3.54525 0
M  V30 15604 N 1465.86 -2.97533 3.55005 0
M  V30 15605 C 1466.6 -3.59456 4.46742 0
M  V30 15606 N 1466.09 -4.22876 5.48769 0
M  V30 15607 N 1467.89 -3.56734 4.34393 0
M  V30 15608 H 1460.04 -0.414788 2.08311 0
M  V30 15609 H 1462.3 -0.246047 0.915513 0
M  V30 15610 H 1462.01 -1.47109 3.19456 0
M  V30 15611 H 1461.88 -2.98159 2.31043 0
M  V30 15612 H 1464.27 -2.60064 1.39466 0
M  V30 15613 H 1464.35 -1.09082 2.31376 0
M  V30 15614 H 1463.99 -2.41067 4.47045 0
M  V30 15615 H 1463.92 -3.91619 3.52054 0
M  V30 15616 H 1466.41 -2.52446 2.81211 0
M  V30 15617 H 1466.73 -4.68026 6.14956 0
M  V30 15618 H 1465.07 -4.21461 5.52626 0
M  V30 15619 H 1468.26 -3.06381 3.53904 0
M  V30 15620 H 1468.43 -4.04706 5.0608 0
M  V30 15621 N 1461.84 -1.08266 -1.14527 0
M  V30 15622 C 1463.12 -0.724254 -1.81697 0
M  V30 15623 C 1463.5 0.792212 -1.95671 0
M  V30 15624 O 1462.85 1.71017 -1.51543 0
M  V30 15625 C 1463.06 -1.44949 -3.17475 0
M  V30 15626 C 1464.4 -1.60761 -3.9299 0
M  V30 15627 O 1465.43 -1.41103 -3.2706 0
M  V30 15628 O 1464.29 -1.93184 -5.11216 0
M  V30 15629 H 1461.38 -0.258814 -0.785458 0
M  V30 15630 H 1463.93 -1.18414 -1.21557 0
M  V30 15631 H 1462.7 -2.48262 -3.02459 0
M  V30 15632 H 1462.32 -0.980993 -3.85308 0
M  V30 15633 N 1463.32 1.31536 -0.86811 0
M  V30 15634 C 1464.57 1.96775 -0.47812 0
M  V30 15635 C 1464.89 1.68632 0.9692 0
M  V30 15636 O 1464.15 0.974357 1.6972 0
M  V30 15637 C 1464.45 3.50876 -0.679752 0
M  V30 15638 C 1464.11 3.99034 -2.09958 0
M  V30 15639 C 1462.78 4.11896 -2.48787 0
M  V30 15640 C 1465.13 4.24387 -3.02564 0
M  V30 15641 C 1462.46 4.47461 -3.79468 0
M  V30 15642 C 1464.81 4.61415 -4.32757 0
M  V30 15643 C 1463.47 4.72484 -4.71503 0
M  V30 15644 H 1462.74 0.720049 -0.174957 0
M  V30 15645 H 1465.39 1.56703 -1.10074 0
M  V30 15646 H 1463.69 3.91791 0.0260174 0
M  V30 15647 H 1465.39 3.994 -0.357855 0
M  V30 15648 H 1461.98 3.89518 -1.78811 0
M  V30 15649 H 1466.17 4.13947 -2.73791 0
M  V30 15650 H 1461.42 4.54227 -4.09252 0
M  V30 15651 H 1465.6 4.79985 -5.04566 0
M  V30 15652 H 1463.22 4.99798 -5.72806 0
M  V30 15653 N 1464.8 0.627364 1.44575 0
M  V30 15654 C 1466.02 0.135576 2.06956 0
M  V30 15655 C 1466.45 -1.17922 1.46547 0
M  V30 15656 O 1465.81 -1.72255 0.565509 0
M  V30 15657 C 1465.85 0.030347 3.60587 0
M  V30 15658 O 1464.96 -1.01464 3.99724 0
M  V30 15659 H 1464.3 0.083058 0.658785 0
M  V30 15660 H 1466.83 0.862977 1.8551 0
M  V30 15661 H 1466.84 -0.161461 4.0768 0
M  V30 15662 H 1465.51 0.990285 4.03938 0
M  V30 15663 H 1464.09 -0.797701 3.64268 0
M  V30 15664 N 1466.28 -1.53251 0.367684 0
M  V30 15665 C 1467.51 -2.05407 -0.221725 0
M  V30 15666 C 1467.91 -1.24081 -1.4283 0
M  V30 15667 O 1467.26 -0.275005 -1.8163 0
M  V30 15668 C 1467.32 -3.53063 -0.677281 0
M  V30 15669 C 1466.98 -4.55131 0.412894 0
M  V30 15670 C 1467.98 -5.04315 1.26343 0
M  V30 15671 C 1465.66 -4.99013 0.573739 0
M  V30 15672 C 1467.66 -5.95984 2.26014 0
M  V30 15673 C 1465.35 -5.90487 1.57381 0
M  V30 15674 C 1466.34 -6.38863 2.41544 0
M  V30 15675 O 1466.03 -7.28533 3.39845 0
M  V30 15676 H 1465.76 -0.674679 -0.0422413 0
M  V30 15677 H 1468.32 -1.98577 0.52501 0
M  V30 15678 H 1466.55 -3.57437 -1.47565 0
M  V30 15679 H 1468.24 -3.88066 -1.18993 0
M  V30 15680 H 1469 -4.7116 1.15037 0
M  V30 15681 H 1464.88 -4.60944 -0.0715806 0
M  V30 15682 H 1468.43 -6.33666 2.91742 0
M  V30 15683 H 1464.32 -6.23056 1.68734 0
M  V30 15684 H 1465.09 -7.46536 3.35598 0
M  V30 15685 N 1467.75 -0.0969077 -1.57302 0
M  V30 15686 C 1469 0.565254 -1.94034 0
M  V30 15687 C 1469.32 1.68609 -0.9796 0
M  V30 15688 O 1468.59 1.95874 -0.0319788 0
M  V30 15689 H 1467.17 0.211796 -0.716346 0
M  V30 15690 H 1469.83 -0.160665 -1.94237 0
M  V30 15691 H 1468.93 0.974268 -2.96504 0
M  V30 15692 N 1469.23 1.56605 0.176793 0
M  V30 15693 C 1470.48 1.81682 0.894302 0
M  V30 15694 C 1470.81 0.67311 1.82481 0
M  V30 15695 O 1470.06 -0.339995 1.92724 0
M  V30 15696 C 1470.36 3.12888 1.7273 0
M  V30 15697 C 1470.03 4.40861 0.946186 0
M  V30 15698 C 1468.69 4.75622 0.730586 0
M  V30 15699 C 1471.04 5.19679 0.397889 0
M  V30 15700 C 1468.37 5.86683 -0.0444995 0
M  V30 15701 C 1470.72 6.31551 -0.36408 0
M  V30 15702 C 1469.38 6.64883 -0.59053 0
M  V30 15703 H 1468.65 0.664823 0.327248 0
M  V30 15704 H 1471.3 1.90834 0.159555 0
M  V30 15705 H 1469.61 2.99055 2.53128 0
M  V30 15706 H 1471.3 3.295 2.2854 0
M  V30 15707 H 1467.89 4.13592 1.12426 0
M  V30 15708 H 1472.08 4.93223 0.55181 0
M  V30 15709 H 1467.33 6.10968 -0.229739 0
M  V30 15710 H 1471.51 6.91833 -0.796223 0
M  V30 15711 H 1469.13 7.50781 -1.19301 0
M  V30 15712 N 1470.71 -0.445159 1.51182 0
M  V30 15713 C 1471.94 -1.21787 1.67259 0
M  V30 15714 C 1472.35 -1.85206 0.366641 0
M  V30 15715 O 1471.71 -1.70376 -0.654095 0
M  V30 15716 C 1471.76 -2.30765 2.78262 0
M  V30 15717 O 1471.48 -1.69942 4.03796 0
M  V30 15718 C 1472.98 -3.21186 3.05539 0
M  V30 15719 H 1470.2 -0.367364 0.561502 0
M  V30 15720 H 1472.75 -0.528415 1.97555 0
M  V30 15721 H 1470.9 -2.9544 2.50587 0
M  V30 15722 H 1471.32 -2.41905 4.65384 0
M  V30 15723 H 1472.79 -3.93805 3.8681 0
M  V30 15724 H 1473.27 -3.81487 2.17634 0
M  V30 15725 H 1473.87 -2.62221 3.34844 0
M  V30 15726 N 1472.19 -1.41197 -0.700089 0
M  V30 15727 C 1473.12 -1.45456 -1.8266 0
M  V30 15728 C 1474.1 -0.313719 -1.67182 0
M  V30 15729 O 1475.28 -0.524528 -1.86982 0
M  V30 15730 C 1472.41 -1.33161 -3.20758 0
M  V30 15731 C 1471.37 -2.4501 -3.50933 0
M  V30 15732 C 1470.69 -2.17782 -4.88339 0
M  V30 15733 C 1471.99 -3.87352 -3.50365 0
M  V30 15734 H 1473.69 -2.39735 -1.79353 0
M  V30 15735 H 1471.23 -1.1539 -0.861465 0
M  V30 15736 H 1473.19 -1.34754 -3.99274 0
M  V30 15737 H 1471.91 -0.353646 -3.2468 0
M  V30 15738 H 1470.57 -2.42692 -2.74766 0
M  V30 15739 H 1470.22 -1.1834 -4.88881 0
M  V30 15740 H 1469.92 -2.92728 -5.09494 0
M  V30 15741 H 1471.44 -2.21083 -5.6917 0
M  V30 15742 H 1472.86 -3.9141 -4.18893 0
M  V30 15743 H 1471.25 -4.61944 -3.83051 0
M  V30 15744 H 1472.32 -4.15827 -2.4943 0
M  V30 15745 N 1473.67 0.933891 -1.2695 0
M  V30 15746 C 1474.6 2.05078 -1.11649 0
M  V30 15747 C 1475.58 1.70089 -0.0196463 0
M  V30 15748 O 1476.76 1.93239 -0.193007 0
M  V30 15749 C 1473.89 3.38963 -0.756387 0
M  V30 15750 C 1472.85 3.88041 -1.80577 0
M  V30 15751 C 1472.17 5.18661 -1.2998 0
M  V30 15752 C 1473.47 4.12116 -3.2087 0
M  V30 15753 H 1475.17 2.18137 -2.05077 0
M  V30 15754 H 1472.71 1.04817 -0.987392 0
M  V30 15755 H 1474.66 4.1657 -0.63619 0
M  V30 15756 H 1473.39 3.25901 0.213607 0
M  V30 15757 H 1472.05 3.12622 -1.91477 0
M  V30 15758 H 1471.7 5.01985 -0.319442 0
M  V30 15759 H 1471.4 5.52467 -2.00134 0
M  V30 15760 H 1472.92 5.98844 -1.19242 0
M  V30 15761 H 1474.33 4.80312 -3.13006 0
M  V30 15762 H 1472.73 4.57218 -3.88679 0
M  V30 15763 H 1473.8 3.17633 -3.66384 0
M  V30 15764 N 1475.14 1.08871 1.13951 0
M  V30 15765 C 1476.55 0.841552 1.66658 0
M  V30 15766 C 1476.91 -0.630932 1.85779 0
M  V30 15767 O 1476.03 -1.48673 1.57243 0
M  V30 15768 C 1476.63 1.52109 3.02735 0
M  V30 15769 C 1475.18 1.32105 3.52456 0
M  V30 15770 C 1474.33 1.58084 2.27826 0
M  V30 15771 H 1477.28 1.24865 0.97951 0
M  V30 15772 H 1477.3 0.950978 3.68425 0
M  V30 15773 H 1476.82 2.59276 2.88786 0
M  V30 15774 H 1474.92 0.270294 3.71618 0
M  V30 15775 H 1475.03 2.05197 4.32933 0
M  V30 15776 H 1473.39 1.00264 2.34135 0
M  V30 15777 H 1474.18 2.66467 2.16449 0
M  V30 15778 N 1476.62 -1.31073 0.875073 0
M  V30 15779 C 1477.87 -1.96809 0.489273 0
M  V30 15780 C 1478.2 -1.68979 -0.957073 0
M  V30 15781 O 1477.48 -0.989061 -1.67475 0
M  V30 15782 C 1477.76 -3.52139 0.752998 0
M  V30 15783 C 1477.61 -3.89524 2.24925 0
M  V30 15784 C 1478.93 -4.39535 0.222871 0
M  V30 15785 H 1476.05 -0.714873 0.179238 0
M  V30 15786 H 1478.69 -1.55114 1.09725 0
M  V30 15787 H 1476.84 -3.87785 0.23553 0
M  V30 15788 H 1478.51 -3.63953 2.83436 0
M  V30 15789 H 1476.76 -3.37948 2.71981 0
M  V30 15790 H 1477.43 -4.97845 2.38441 0
M  V30 15791 H 1479.9 -4.10741 0.665645 0
M  V30 15792 H 1478.78 -5.47159 0.436806 0
M  V30 15793 H 1479.04 -4.33346 -0.875445 0
M  V30 15794 N 1478.1 -0.635022 -1.4424 0
M  V30 15795 C 1479.33 -0.146549 -2.06882 0
M  V30 15796 C 1479.75 1.17143 -1.4717 0
M  V30 15797 O 1479.11 1.71952 -0.574636 0
M  V30 15798 C 1479.16 -0.0494694 -3.60566 0
M  V30 15799 O 1478.26 0.993423 -4.00256 0
M  V30 15800 H 1477.6 -0.0865505 -0.658335 0
M  V30 15801 H 1480.13 -0.872803 -1.85049 0
M  V30 15802 H 1480.14 0.139839 -4.0776 0
M  V30 15803 H 1478.82 -1.01169 -4.03407 0
M  V30 15804 H 1477.39 0.778372 -3.64686 0
M  V30 15805 N 1479.58 1.53054 -0.375806 0
M  V30 15806 C 1480.83 2.01003 0.210257 0
M  V30 15807 C 1481.15 1.26451 1.48442 0
M  V30 15808 O 1480.42 0.380687 1.92166 0
M  V30 15809 H 1479 0.74263 0.0806861 0
M  V30 15810 H 1481.66 1.8826 -0.504393 0
M  V30 15811 H 1480.76 3.09123 0.430027 0
M  V30 15812 N 1481.06 0.105248 1.57248 0
M  V30 15813 C 1482.3 -0.554956 1.94331 0
M  V30 15814 C 1482.63 -1.68087 0.988528 0
M  V30 15815 O 1481.9 -1.95854 0.042366 0
M  V30 15816 H 1480.48 -0.207994 0.717459 0
M  V30 15817 H 1483.14 0.170964 1.94149 0
M  V30 15818 H 1482.23 -0.95853 2.97016 0
M  V30 15819 N 1482.53 -1.56697 -0.168486 0
M  V30 15820 C 1483.44 -1.99866 -1.22845 0
M  V30 15821 C 1484.46 -0.910491 -1.48277 0
M  V30 15822 O 1485.64 -1.21834 -1.6037 0
M  V30 15823 C 1482.7 -2.35227 -2.54694 0
M  V30 15824 C 1481.76 -3.57886 -2.37099 0
M  V30 15825 C 1481 -3.91551 -3.62661 0
M  V30 15826 O 1481.22 -3.26148 -4.67957 0
M  V30 15827 O 1480.15 -4.8489 -3.56603 0
M  V30 15828 H 1483.98 -2.90305 -0.892015 0
M  V30 15829 H 1481.56 -1.44602 -0.375571 0
M  V30 15830 H 1483.45 -2.58928 -3.32467 0
M  V30 15831 H 1482.12 -1.4795 -2.87911 0
M  V30 15832 H 1481.03 -3.394 -1.57348 0
M  V30 15833 H 1482.36 -4.45714 -2.08806 0
M  V30 15834 N 1484.01 0.437135 -1.51416 0
M  V30 15835 C 1484.98 1.51313 -1.72154 0
M  V30 15836 C 1485.98 1.49523 -0.59157 0
M  V30 15837 O 1487.17 1.51541 -0.859118 0
M  V30 15838 C 1484.3 2.9085 -1.77818 0
M  V30 15839 H 1485.49 1.34229 -2.68184 0
M  V30 15840 H 1483.04 0.665822 -1.41409 0
M  V30 15841 H 1483.78 3.13338 -0.836033 0
M  V30 15842 H 1483.56 2.93554 -2.59939 0
M  V30 15843 H 1485.05 3.68905 -1.957 0
M  V30 15844 N 1485.49 1.41566 0.692592 0
M  V30 15845 C 1486.72 1.44445 1.48132 0
M  V30 15846 C 1487.13 0.0505867 1.88732 0
M  V30 15847 O 1486.49 -0.930779 1.5698 0
M  V30 15848 C 1486.54 2.35582 2.74196 0
M  V30 15849 O 1486.26 3.69545 2.35305 0
M  V30 15850 C 1487.76 2.47296 3.67912 0
M  V30 15851 H 1484.98 0.491877 0.456396 0
M  V30 15852 H 1487.53 1.85884 0.852499 0
M  V30 15853 H 1485.68 1.97445 3.33308 0
M  V30 15854 H 1486.1 4.1818 3.16584 0
M  V30 15855 H 1487.57 3.15225 4.53141 0
M  V30 15856 H 1488.05 1.50517 4.12603 0
M  V30 15857 H 1488.65 2.86082 3.14702 0
M  V30 15858 N 1486.97 -0.927146 1.27443 0
M  V30 15859 C 1487.93 -2.00938 1.10257 0
M  V30 15860 C 1488.93 -1.60733 0.0463898 0
M  V30 15861 O 1490.12 -1.71752 0.291029 0
M  V30 15862 C 1487.25 -3.34047 0.680115 0
M  V30 15863 H 1488.45 -2.17615 2.06358 0
M  V30 15864 H 1486 -1.10802 1.10239 0
M  V30 15865 H 1486.73 -3.23069 -0.282259 0
M  V30 15866 H 1486.52 -3.64585 1.44291 0
M  V30 15867 H 1488.01 -4.13523 0.582126 0
M  V30 15868 N 1488.45 -1.09474 -1.13372 0
M  V30 15869 C 1489.38 -0.692446 -2.1849 0
M  V30 15870 C 1490.39 0.265942 -1.60613 0
M  V30 15871 O 1491.58 0.0519189 -1.78424 0
M  V30 15872 C 1488.68 0.000306083 -3.389 0
M  V30 15873 C 1487.85 -0.979745 -4.26286 0
M  V30 15874 C 1486.91 -0.320309 -5.25224 0
M  V30 15875 O 1485.94 -0.968089 -5.60907 0
M  V30 15876 N 1487.14 0.92536 -5.73077 0
M  V30 15877 H 1489.91 -1.59681 -2.53618 0
M  V30 15878 H 1487.47 -0.982256 -1.28699 0
M  V30 15879 H 1489.46 0.45268 -4.0216 0
M  V30 15880 H 1488.03 0.806927 -3.02006 0
M  V30 15881 H 1487.25 -1.61067 -3.59793 0
M  V30 15882 H 1488.54 -1.64348 -4.81526 0
M  V30 15883 H 1487.93 1.47119 -5.46235 0
M  V30 15884 H 1486.49 1.32105 -6.38272 0
M  V30 15885 N 1489.92 1.30607 -0.882012 0
M  V30 15886 C 1491.15 2.00954 -0.513048 0
M  V30 15887 C 1491.57 1.65697 0.890279 0
M  V30 15888 O 1490.93 0.872001 1.58952 0
M  V30 15889 C 1490.98 3.53907 -0.691525 0
M  V30 15890 O 1490.08 4.11555 0.263896 0
M  V30 15891 H 1489.43 0.632356 -0.202537 0
M  V30 15892 H 1491.96 1.66524 -1.18874 0
M  V30 15893 H 1491.97 4.0372 -0.589392 0
M  V30 15894 H 1490.64 3.78907 -1.71471 0
M  V30 15895 H 1489.22 3.7272 0.115707 0
M  V30 15896 N 1491.4 0.642663 1.43901 0
M  V30 15897 C 1492.33 -0.0419756 2.33462 0
M  V30 15898 C 1493.31 -0.822923 1.48869 0
M  V30 15899 O 1494.5 -0.786508 1.7756 0
M  V30 15900 C 1491.63 -1.01631 3.32097 0
M  V30 15901 C 1490.58 -0.346206 4.26597 0
M  V30 15902 C 1489.91 -1.43125 5.15189 0
M  V30 15903 C 1491.21 0.754799 5.16817 0
M  V30 15904 H 1492.9 0.705929 2.90959 0
M  V30 15905 H 1490.45 0.340924 1.39906 0
M  V30 15906 H 1492.4 -1.5041 3.93643 0
M  V30 15907 H 1491.13 -1.79525 2.72834 0
M  V30 15908 H 1489.78 0.121038 3.664 0
M  V30 15909 H 1489.43 -2.20135 4.52271 0
M  V30 15910 H 1489.13 -0.988194 5.79231 0
M  V30 15911 H 1490.66 -1.92061 5.79607 0
M  V30 15912 H 1492.07 0.349624 5.72233 0
M  V30 15913 H 1490.47 1.12169 5.89524 0
M  V30 15914 H 1491.54 1.61718 4.57138 0
M  V30 15915 N 1492.88 -1.52852 0.383918 0
M  V30 15916 C 1493.84 -2.24904 -0.441687 0
M  V30 15917 C 1494.84 -1.26345 -0.99466 0
M  V30 15918 O 1496.03 -1.50484 -0.877513 0
M  V30 15919 C 1493.17 -2.99994 -1.61915 0
M  V30 15920 H 1494.36 -2.99304 0.189047 0
M  V30 15921 H 1491.91 -1.55708 0.135932 0
M  V30 15922 H 1492.65 -2.29882 -2.28746 0
M  V30 15923 H 1492.43 -3.72328 -1.2294 0
M  V30 15924 H 1493.92 -3.54716 -2.20378 0
M  V30 15925 N 1494.36 -0.113586 -1.5719 0
M  V30 15926 C 1495.58 0.556928 -1.99783 0
M  V30 15927 C 1496.01 1.59774 -0.992669 0
M  V30 15928 O 1495.37 1.81263 0.0363821 0
M  V30 15929 C 1495.42 1.16463 -3.41275 0
M  V30 15930 O 1494.52 2.28024 -3.43626 0
M  V30 15931 H 1493.86 0.139628 -0.649153 0
M  V30 15932 H 1496.39 -0.200462 -2.03616 0
M  V30 15933 H 1496.4 1.50147 -3.79368 0
M  V30 15934 H 1495.08 0.402232 -4.1395 0
M  V30 15935 H 1493.65 1.9582 -3.17347 0
M  V30 15936 N 1495.84 1.56784 0.160173 0
M  V30 15937 C 1497.07 1.86496 0.888969 0
M  V30 15938 C 1497.48 0.698244 1.75844 0
M  V30 15939 O 1496.82 -0.341543 1.80497 0
M  V30 15940 C 1496.88 3.10758 1.80748 0
M  V30 15941 C 1496.54 4.43152 1.1165 0
M  V30 15942 C 1497.54 5.1771 0.476643 0
M  V30 15943 C 1495.23 4.89883 1.10993 0
M  V30 15944 C 1497.22 6.37198 -0.160552 0
M  V30 15945 C 1494.91 6.09298 0.468916 0
M  V30 15946 C 1495.91 6.828 -0.165211 0
M  V30 15947 O 1495.59 7.99948 -0.796092 0
M  V30 15948 H 1495.33 0.622688 0.263128 0
M  V30 15949 H 1497.88 2.04762 0.161706 0
M  V30 15950 H 1496.11 2.88466 2.57535 0
M  V30 15951 H 1497.8 3.26825 2.40708 0
M  V30 15952 H 1498.56 4.82682 0.473616 0
M  V30 15953 H 1494.44 4.32605 1.59292 0
M  V30 15954 H 1497.99 6.94508 -0.656107 0
M  V30 15955 H 1493.88 6.4379 0.469565 0
M  V30 15956 H 1494.65 8.15532 -0.696448 0
M  V30 15957 N 1497.32 -0.429099 1.51646 0
M  V30 15958 C 1498.23 -1.54648 1.76412 0
M  V30 15959 C 1499.24 -1.61455 0.648703 0
M  V30 15960 O 1500.42 -1.78544 0.931888 0
M  V30 15961 C 1497.48 -2.90562 1.89142 0
M  V30 15962 C 1496.54 -2.93804 3.13014 0
M  V30 15963 C 1495.78 -4.23235 3.25127 0
M  V30 15964 O 1496 -5.1606 2.42979 0
M  V30 15965 O 1494.93 -4.32929 4.18158 0
M  V30 15966 H 1498.76 -1.36661 2.71215 0
M  V30 15967 H 1496.34 -0.612946 1.36247 0
M  V30 15968 H 1498.23 -3.7121 1.99453 0
M  V30 15969 H 1496.9 -3.08659 0.975272 0
M  V30 15970 H 1495.81 -2.12082 3.08175 0
M  V30 15971 H 1497.14 -2.80654 4.04344 0
M  V30 15972 N 1498.79 -1.41931 -0.685074 0
M  V30 15973 C 1500.04 -1.41852 -1.44514 0
M  V30 15974 C 1500.37 -0.0313137 -1.94475 0
M  V30 15975 O 1499.62 0.958606 -1.70614 0
M  V30 15976 C 1499.92 -2.38099 -2.6654 0
M  V30 15977 C 1499.59 -3.8471 -2.35178 0
M  V30 15978 C 1498.25 -4.24647 -2.26336 0
M  V30 15979 C 1500.6 -4.77232 -2.0952 0
M  V30 15980 C 1497.93 -5.55101 -1.89947 0
M  V30 15981 C 1500.28 -6.08017 -1.74638 0
M  V30 15982 C 1498.95 -6.46964 -1.64299 0
M  V30 15983 H 1498.22 -0.519072 -0.528815 0
M  V30 15984 H 1500.86 -1.74802 -0.782078 0
M  V30 15985 H 1499.17 -1.9844 -3.3783 0
M  V30 15986 H 1500.87 -2.35306 -3.24703 0
M  V30 15987 H 1497.46 -3.53085 -2.42959 0
M  V30 15988 H 1501.64 -4.47173 -2.1529 0
M  V30 15989 H 1496.9 -5.84148 -1.80503 0
M  V30 15990 H 1501.07 -6.79203 -1.53807 0
M  V30 15991 H 1498.7 -7.47959 -1.35871 0
M  V30 15992 N 1500.27 0.920374 -1.27933 0
M  V30 15993 C 1501.52 1.66554 -1.14474 0
M  V30 15994 C 1501.84 1.92545 0.308444 0
M  V30 15995 O 1501.11 1.53691 1.21473 0
M  V30 15996 H 1499.69 0.617302 -0.420651 0
M  V30 15997 H 1502.35 1.10473 -1.60567 0
M  V30 15998 H 1501.45 2.63067 -1.67935 0
M  V30 15999 N 1501.75 1.10074 1.1279 0
M  V30 16000 C 1502.71 0.74967 2.16593 0
M  V30 16001 C 1503.71 -0.224046 1.59232 0
M  V30 16002 O 1504.9 -0.00137104 1.742 0
M  V30 16003 C 1502.03 0.109795 3.40723 0
M  V30 16004 H 1503.23 1.66906 2.49164 0
M  V30 16005 H 1500.78 0.900781 1.27733 0
M  V30 16006 H 1501.52 -0.820501 3.13749 0
M  V30 16007 H 1501.3 0.810517 3.83631 0
M  V30 16008 H 1502.79 -0.120198 4.17427 0
M  V30 16009 N 1503.23 -1.30138 0.888926 0
M  V30 16010 C 1504.48 -1.95602 0.508359 0
M  V30 16011 C 1504.8 -1.70495 -0.946377 0
M  V30 16012 O 1504.07 -1.03073 -1.66592 0
M  V30 16013 H 1502.65 -0.723728 0.185006 0
M  V30 16014 H 1505.31 -1.58594 1.13286 0
M  V30 16015 H 1504.4 -3.04559 0.681915 0
M  V30 16016 N 1504.71 -0.650285 -1.43559 0
M  V30 16017 C 1505.95 -0.162484 -2.01847 0
M  V30 16018 C 1506.28 1.22251 -1.51278 0
M  V30 16019 O 1505.54 1.82939 -0.695115 0
M  V30 16020 C 1505.83 -0.119084 -3.57202 0
M  V30 16021 C 1505.5 -1.44543 -4.27104 0
M  V30 16022 C 1504.16 -1.80864 -4.45917 0
M  V30 16023 C 1506.51 -2.32005 -4.66715 0
M  V30 16024 C 1503.84 -3.04319 -5.01604 0
M  V30 16025 C 1506.19 -3.54748 -5.23771 0
M  V30 16026 C 1504.86 -3.9127 -5.408 0
M  V30 16027 H 1504.13 -0.0594573 -0.738611 0
M  V30 16028 H 1506.78 -0.84041 -1.72074 0
M  V30 16029 H 1505.08 0.642282 -3.865 0
M  V30 16030 H 1506.78 0.275168 -4.00055 0
M  V30 16031 H 1503.37 -1.15281 -4.12805 0
M  V30 16032 H 1507.55 -2.05234 -4.51877 0
M  V30 16033 H 1502.81 -3.32668 -5.12974 0
M  V30 16034 H 1506.98 -4.2274 -5.53411 0
M  V30 16035 H 1504.61 -4.87011 -5.83716 0
M  V30 16036 N 1506.18 1.52647 -0.392018 0
M  V30 16037 C 1507.43 2.01613 0.1893 0
M  V30 16038 C 1507.76 1.27837 1.46588 0
M  V30 16039 O 1507.01 0.368018 1.92209 0
M  V30 16040 C 1507.31 3.53872 0.500914 0
M  V30 16041 C 1506.98 4.45675 -0.684434 0
M  V30 16042 C 1505.64 4.70489 -1.00961 0
M  V30 16043 C 1507.99 4.99825 -1.4773 0
M  V30 16044 C 1505.32 5.46703 -2.12915 0
M  V30 16045 C 1507.67 5.77263 -2.58747 0
M  V30 16046 C 1506.34 6.00355 -2.9177 0
M  V30 16047 H 1505.61 0.737755 0.0692697 0
M  V30 16048 H 1508.25 1.84022 -0.529924 0
M  V30 16049 H 1506.56 3.69551 1.3015 0
M  V30 16050 H 1508.26 3.89256 0.963382 0
M  V30 16051 H 1504.85 4.26527 -0.420985 0
M  V30 16052 H 1509.03 4.80577 -1.23932 0
M  V30 16053 H 1504.29 5.62807 -2.38868 0
M  V30 16054 H 1508.46 6.18223 -3.20583 0
M  V30 16055 H 1506.09 6.59194 -3.7864 0
M  V30 16056 N 1507.66 0.121921 1.57128 0
M  V30 16057 C 1508.89 -0.546325 2.00075 0
M  V30 16058 C 1509.31 -1.59245 1.00113 0
M  V30 16059 O 1508.67 -1.8128 -0.0267687 0
M  V30 16060 C 1508.72 -1.14651 3.41888 0
M  V30 16061 O 1507.82 -2.26199 3.4483 0
M  V30 16062 H 1507.16 -0.136184 0.649885 0
M  V30 16063 H 1509.69 0.211257 2.03506 0
M  V30 16064 H 1509.7 -1.48133 3.80159 0
M  V30 16065 H 1508.38 -0.380273 4.14158 0
M  V30 16066 H 1506.96 -1.94134 3.18381 0
M  V30 16067 N 1509.14 -1.56867 -0.151857 0
M  V30 16068 C 1510.37 -1.87237 -0.880343 0
M  V30 16069 C 1510.78 -0.709565 -1.74959 0
M  V30 16070 O 1510.14 0.320818 -1.79658 0
M  V30 16071 C 1510.19 -3.16811 -1.74107 0
M  V30 16072 O 1509.91 -4.28611 -0.906858 0
M  V30 16073 C 1511.41 -3.60662 -2.57755 0
M  V30 16074 H 1508.63 -0.62074 -0.254799 0
M  V30 16075 H 1511.18 -2.03977 -0.146104 0
M  V30 16076 H 1509.33 -3.01838 -2.42842 0
M  V30 16077 H 1509.75 -5.02673 -1.49733 0
M  V30 16078 H 1511.22 -4.54176 -3.13732 0
M  V30 16079 H 1511.7 -2.85716 -3.33561 0
M  V30 16080 H 1512.3 -3.78312 -1.94319 0
M  V30 16081 N 1510.62 0.421051 -1.51871 0
M  V30 16082 C 1511.57 1.53277 -1.74954 0
M  V30 16083 C 1512.56 1.57792 -0.616282 0
M  V30 16084 O 1513.77 1.61342 -0.798054 0
M  V30 16085 H 1510.14 0.50953 -0.553067 0
M  V30 16086 H 1512.11 1.30988 -2.68113 0
M  V30 16087 C 1510.86 2.90772 -1.90649 0
M  V30 16088 H 1510.18 2.88035 -2.77265 0
M  V30 16089 H 1511.62 3.67882 -2.10805 0
M  V30 16090 C 1510.08 3.30161 -0.670463 0
M  V30 16091 O 1510.61 4.01352 0.167271 0
M  V30 16092 N 1508.82 2.86093 -0.509813 0
M  V30 16093 H 1508.37 2.28329 -1.19262 0
M  V30 16094 H 1508.32 3.12809 0.315918 0
M  V30 16095 N 1512.1 1.42293 0.677538 0
M  V30 16096 C 1513.03 1.48344 1.80323 0
M  V30 16097 C 1514.01 0.340276 1.66662 0
M  V30 16098 O 1515.19 0.554209 1.86124 0
M  V30 16099 C 1512.32 1.38247 3.18599 0
M  V30 16100 C 1511.28 2.50562 3.46991 0
M  V30 16101 C 1510.6 2.25524 4.84812 0
M  V30 16102 C 1511.9 3.92877 3.44158 0
M  V30 16103 H 1513.6 2.42558 1.75516 0
M  V30 16104 H 1511.14 1.16746 0.842999 0
M  V30 16105 H 1513.1 1.41089 3.97079 0
M  V30 16106 H 1511.82 0.405255 3.24076 0
M  V30 16107 H 1510.48 2.47032 2.7087 0
M  V30 16108 H 1510.13 1.26102 4.86937 0
M  V30 16109 H 1509.83 3.00797 5.04772 0
M  V30 16110 H 1511.35 2.3011 5.65581 0
M  V30 16111 H 1512.76 3.98024 4.12613 0
M  V30 16112 H 1511.16 4.6798 3.75653 0
M  V30 16113 H 1512.23 4.19743 2.42783 0
M  V30 16114 N 1513.57 -0.913576 1.28419 0
M  V30 16115 C 1514.52 -2.00257 1.09001 0
M  V30 16116 C 1515.51 -1.60894 0.0136118 0
M  V30 16117 O 1516.7 -1.75449 0.233769 0
M  V30 16118 C 1513.83 -3.34916 0.754073 0
M  V30 16119 C 1512.92 -3.8068 1.86932 0
M  V30 16120 N 1513.31 -3.98814 3.11096 0
M  V30 16121 C 1511.6 -4.09839 1.75921 0
M  V30 16122 C 1512.31 -4.37149 3.83765 0
M  V30 16123 N 1511.28 -4.45417 3.11616 0
M  V30 16124 H 1515.08 -2.12327 2.0321 0
M  V30 16125 H 1512.6 -1.10143 1.19341 0
M  V30 16126 H 1514.59 -4.12617 0.596035 0
M  V30 16127 H 1513.25 -3.24199 -0.180246 0
M  V30 16128 H 1514.27 -3.84729 3.46705 0
M  V30 16129 H 1510.94 -4.07757 0.896679 0
M  V30 16130 H 1512.33 -4.5914 4.9055 0
M  V30 16131 N 1515.05 -1.1067 -1.12204 0
M  V30 16132 C 1516.28 -0.873095 -1.88127 0
M  V30 16133 C 1516.7 0.571099 -1.79221 0
M  V30 16134 O 1516.06 1.40251 -1.14888 0
M  V30 16135 C 1516.11 -1.32922 -3.35208 0
M  V30 16136 O 1515.21 -0.495807 -4.09409 0
M  V30 16137 H 1514.55 -0.315138 -0.584452 0
M  V30 16138 H 1517.08 -1.47413 -1.41882 0
M  V30 16139 H 1517.09 -1.32023 -3.86049 0
M  V30 16140 H 1515.77 -2.38091 -3.41007 0
M  V30 16141 H 1514.35 -0.570216 -3.68515 0
M  V30 16142 N 1516.53 1.29665 -0.895815 0
M  V30 16143 C 1517.44 2.31582 -0.375086 0
M  V30 16144 C 1518.46 1.65789 0.528196 0
M  V30 16145 O 1519.63 1.96999 0.41871 0
M  V30 16146 C 1516.7 3.44472 0.39241 0
M  V30 16147 C 1515.76 4.25866 -0.541926 0
M  V30 16148 C 1514.99 5.33365 0.189037 0
M  V30 16149 O 1515.21 5.52607 1.41355 0
M  V30 16150 O 1514.15 6.0009 -0.466441 0
M  V30 16151 H 1517.97 2.78095 -1.22052 0
M  V30 16152 H 1515.56 1.34031 -0.660007 0
M  V30 16153 H 1517.44 4.13214 0.826565 0
M  V30 16154 H 1516.12 3.00074 1.21397 0
M  V30 16155 H 1515.02 3.59781 -1.02512 0
M  V30 16156 H 1516.36 4.73896 -1.32979 0
M  V30 16157 N 1518.01 0.657889 1.43212 0
M  V30 16158 C 1518.96 -0.0427288 2.32561 0
M  V30 16159 C 1519.95 -0.808236 1.48875 0
M  V30 16160 O 1521.16 -0.718109 1.65055 0
M  V30 16161 H 1517.53 -0.0326049 0.751293 0
M  V30 16162 H 1519.5 0.728503 2.89371 0
M  V30 16163 C 1518.25 -0.99216 3.33244 0
M  V30 16164 H 1517.57 -0.412542 3.97666 0
M  V30 16165 H 1519.01 -1.45138 3.98385 0
M  V30 16166 C 1517.47 -2.09044 2.64201 0
M  V30 16167 O 1518 -3.17481 2.46107 0
M  V30 16168 N 1516.21 -1.85732 2.23499 0
M  V30 16169 H 1515.76 -0.975483 2.38416 0
M  V30 16170 H 1515.71 -2.5941 1.77634 0
M  V30 16171 N 1519.49 -1.52437 0.400108 0
M  V30 16172 C 1520.43 -2.26763 -0.429799 0
M  V30 16173 C 1521.4 -1.28808 -1.0487 0
M  V30 16174 O 1522.59 -1.57655 -1.07468 0
M  V30 16175 C 1519.73 -3.08564 -1.54539 0
M  V30 16176 C 1518.84 -4.21463 -0.948294 0
M  V30 16177 C 1517.98 -4.9064 -2.03584 0
M  V30 16178 C 1517.02 -5.95515 -1.4152 0
M  V30 16179 N 1516.15 -6.58245 -2.4425 0
M  V30 16180 H 1520.99 -2.97256 0.210467 0
M  V30 16181 H 1518.53 -1.46645 0.115627 0
M  V30 16182 H 1520.49 -3.54289 -2.20307 0
M  V30 16183 H 1519.12 -2.40259 -2.15582 0
M  V30 16184 H 1518.17 -3.79974 -0.179918 0
M  V30 16185 H 1519.48 -4.96722 -0.454845 0
M  V30 16186 H 1518.64 -5.39724 -2.77097 0
M  V30 16187 H 1517.37 -4.14929 -2.56291 0
M  V30 16188 H 1516.38 -5.45759 -0.665354 0
M  V30 16189 H 1517.6 -6.73164 -0.89593 0
M  V30 16190 H 1515.55 -5.85369 -2.96107 0
M  V30 16191 H 1515.47 -7.2915 -1.99692 0
M  V30 16192 H 1516.74 -7.1197 -3.17362 0
M  V30 16193 N 1520.96 -0.130252 -1.57061 0
M  V30 16194 C 1521.9 0.846442 -2.12998 0
M  V30 16195 C 1522.91 1.22229 -1.07536 0
M  V30 16196 O 1524.1 1.16928 -1.34871 0
M  V30 16197 C 1521.2 2.14481 -2.62395 0
M  V30 16198 C 1520.37 1.93892 -3.92077 0
M  V30 16199 C 1519.43 3.07562 -4.26957 0
M  V30 16200 O 1518.46 2.79983 -4.95578 0
M  V30 16201 N 1519.66 4.34297 -3.85184 0
M  V30 16202 H 1522.42 0.368471 -2.97426 0
M  V30 16203 H 1519.98 0.0538355 -1.6181 0
M  V30 16204 H 1521.98 2.8954 -2.82752 0
M  V30 16205 H 1520.55 2.53592 -1.82784 0
M  V30 16206 H 1519.77 1.02962 -3.80516 0
M  V30 16207 H 1521.05 1.77454 -4.76852 0
M  V30 16208 H 1520.45 4.59575 -3.29859 0
M  V30 16209 H 1519.01 5.06191 -4.10626 0
M  V30 16210 O 1522.48 1.61498 0.00882132 0
M  V30 16211 H 1523.17 1.83282 0.626686 0
M  V30 END ATOM
M  V30 BEGIN BOND
M  V30 END BOND
M  V30 END CTAB
M  END
$$$$
