drugbank_target|P06881 Calcitonin gene-related peptide 1 (DB04869; DB12228; DB14040; DB14041; DB14042)
 OpenBabel12092119473D

  0  0  0     0  0            999 V3000
M  V30 BEGIN CTAB
M  V30 COUNTS 5264 5650 0 0 0
M  V30 BEGIN ATOM
M  V30 1 H -1.547 9.37743 -1.21644 0
M  V30 2 O -1.44 8.89599 -0.40059 0
M  V30 3 P 0 8.91 0 0
M  V30 4 O 0.22 10.1746 0.733838 0
M  V30 5 O 0.79 8.73346 -1.23964 0
M  V30 6 O 0.25 7.66872 0.971405 0
M  V30 7 C -0.69 7.42405 2.04668 0
M  V30 8 C 0.04 6.86059 3.24661 0
M  V30 9 O 0.25 5.42934 3.03695 0
M  V30 10 C 1.44 7.41287 3.50796 0
M  V30 11 O 1.83 7.27073 4.86816 0
M  V30 12 C 2.32 6.5273 2.63741 0
M  V30 13 C 1.61 5.1842 2.73198 0
M  V30 14 N 1.66 4.38762 1.4784 0
M  V30 15 H -1.178 8.36899 2.3252 0
M  V30 16 H -1.45 6.70391 1.71179 0
M  V30 17 H -0.582 7.03638 4.13219 0
M  V30 18 H 2.073 4.59931 3.54016 0
M  V30 19 H 2.353 6.88995 1.59871 0
M  V30 20 H 3.344 6.4684 3.0373 0
M  V30 21 H 1.51 8.47002 3.20749 0
M  V30 22 P 3.37998 7.20834 5.23717 0
M  V30 23 O 3.59998 7.79853 6.57286 0
M  V30 24 O 4.16998 7.79239 4.12957 0
M  V30 25 O 3.62998 5.63315 5.29344 0
M  V30 26 C 2.68998 4.80255 6.01876 0
M  V30 27 C 3.41998 3.64202 6.65911 0
M  V30 28 O 3.62998 2.60694 5.64732 0
M  V30 29 C 4.81998 3.93473 7.1943 0
M  V30 30 O 5.20998 3.02071 8.21205 0
M  V30 31 C 5.69998 3.73047 5.97036 0
M  V30 32 C 4.98998 2.58828 5.25741 0
M  V30 33 N 5.03998 2.68068 3.77503 0
M  V30 34 C 4.95998 3.79715 2.96723 0
M  V30 35 N 5.03998 3.5377 1.68852 0
M  V30 36 C 5.17998 2.15054 1.63254 0
M  V30 37 C 5.30998 1.28964 0.518571 0
M  V30 38 O 5.32998 1.56826 -0.679156 0
M  V30 39 N 5.42998 -0.0538097 0.918425 0
M  V30 40 C 5.42998 -0.494275 2.22578 0
M  V30 41 N 5.55998 -1.81086 2.40434 0
M  V30 42 N 5.29998 0.313645 3.27502 0
M  V30 43 C 5.17998 1.61829 2.91033 0
M  V30 44 H 2.20098 5.40332 6.79951 0
M  V30 45 H 1.93098 4.41613 5.32378 0
M  V30 46 H 2.79798 3.26331 7.47797 0
M  V30 47 H 5.45298 1.63422 5.56814 0
M  V30 48 H 5.73198 4.63374 5.34244 0
M  V30 49 H 6.72398 3.44728 6.25838 0
M  V30 50 H 4.88998 4.96652 7.57263 0
M  V30 51 H 4.84098 4.80617 3.3614 0
M  V30 52 H 5.52298 -0.742702 0.199384 0
M  V30 53 H 5.55998 -2.20598 3.35588 0
M  V30 54 H 5.66098 -2.43518 1.58945 0
M  V30 55 P 6.75996 2.75334 8.47391 0
M  V30 56 O 6.97996 2.44571 9.90142 0
M  V30 57 O 7.54996 3.87688 7.92115 0
M  V30 58 O 7.00996 1.4459 7.59357 0
M  V30 59 C 6.06996 0.347608 7.69215 0
M  V30 60 C 6.79996 -0.96767 7.52806 0
M  V30 61 O 7.00996 -1.21036 6.1011 0
M  V30 62 C 8.19996 -1.04544 8.13308 0
M  V30 63 O 8.58996 -2.38311 8.41922 0
M  V30 64 C 9.07996 -0.491279 7.02284 0
M  V30 65 C 8.36996 -0.996264 5.77469 0
M  V30 66 N 8.41996 -0.0501916 4.62973 0
M  V30 67 H 5.58096 0.374722 8.67691 0
M  V30 68 H 5.31096 0.443485 6.90277 0
M  V30 69 H 6.17796 -1.75537 7.96793 0
M  V30 70 P 10.1399 -2.75334 8.47391 0
M  V30 71 O 10.3599 -3.84128 9.44797 0
M  V30 72 O 10.9299 -1.51947 8.68712 0
M  V30 73 O 10.3899 -3.29363 6.99321 0
M  V30 74 C 9.44994 -4.24011 6.4274 0
M  V30 75 C 10.1799 -5.20775 5.52155 0
M  V30 76 O 10.3899 -4.56534 4.22446 0
M  V30 77 C 11.5799 -5.62629 5.96531 0
M  V30 78 O 11.9699 -6.87667 5.41053 0
M  V30 79 C 12.4599 -4.52537 5.39283 0
M  V30 80 C 11.7499 -4.20027 4.08623 0
M  V30 81 N 11.7999 -2.76189 3.71603 0
M  V30 82 H 8.96094 -4.797 7.24003 0
M  V30 83 H 8.69094 -3.69856 5.84513 0
M  V30 84 H 9.55794 -6.10356 5.41441 0
M  V30 85 P 13.5199 -7.20834 5.23717 0
M  V30 86 O 13.7399 -8.66104 5.38572 0
M  V30 87 O 14.3099 -6.33544 6.1349 0
M  V30 88 O 13.7699 -6.7751 3.72168 0
M  V30 89 C 12.8299 -7.20825 2.7076 0
M  V30 90 C 13.5599 -7.45864 1.40599 0
M  V30 91 O 13.7699 -6.17651 0.734225 0
M  V30 92 C 14.9599 -8.05808 1.51899 0
M  V30 93 O 15.3499 -8.74358 0.335205 0
M  V30 94 C 15.8399 -6.83093 1.70294 0
M  V30 95 C 15.1299 -5.79992 0.836974 0
M  V30 96 N 15.1799 -4.41864 1.38293 0
M  V30 97 H 12.3409 -8.13644 3.0377 0
M  V30 98 H 12.0709 -6.42788 2.55485 0
M  V30 99 H 12.9379 -8.12039 0.792769 0
M  V30 100 P 16.8999 -8.91 1.09116e-15 0
M  V30 101 O 17.1199 -10.1726 -0.733694 0
M  V30 102 O 17.6899 -8.73148 1.23936 0
M  V30 103 O 17.1499 -7.66872 -0.971405 0
M  V30 104 C 16.2099 -7.42309 -2.04641 0
M  V30 105 C 16.9399 -6.86059 -3.24661 0
M  V30 106 O 17.1499 -5.42847 -3.03646 0
M  V30 107 C 18.3399 -7.41196 -3.50753 0
M  V30 108 O 18.7299 -7.27073 -4.86816 0
M  V30 109 C 19.2199 -6.5273 -2.63741 0
M  V30 110 C 18.5099 -5.1842 -2.73198 0
M  V30 111 N 18.5599 -4.38762 -1.4784 0
M  V30 112 H 15.7209 -8.36803 -2.32493 0
M  V30 113 H 15.4509 -6.70197 -1.71129 0
M  V30 114 H 16.3179 -7.03551 -4.13168 0
M  V30 115 P 20.2799 -7.20834 -5.23717 0
M  V30 116 O 20.4999 -7.79853 -6.57286 0
M  V30 117 O 21.0699 -7.79239 -4.12957 0
M  V30 118 O 20.5299 -5.63315 -5.29344 0
M  V30 119 C 19.5899 -4.80255 -6.01876 0
M  V30 120 C 20.3199 -3.64202 -6.65911 0
M  V30 121 O 20.5299 -2.60694 -5.64732 0
M  V30 122 C 21.7199 -3.93473 -7.1943 0
M  V30 123 O 22.1099 -3.02071 -8.21205 0
M  V30 124 C 22.5999 -3.73047 -5.97036 0
M  V30 125 C 21.8899 -2.58828 -5.25741 0
M  V30 126 N 21.9399 -2.68068 -3.77503 0
M  V30 127 H 19.1009 -5.40332 -6.79951 0
M  V30 128 H 18.8309 -4.41613 -5.32378 0
M  V30 129 H 19.6979 -3.26331 -7.47797 0
M  V30 130 P 23.6599 -2.75334 -8.47391 0
M  V30 131 O 23.8799 -2.44571 -9.90142 0
M  V30 132 O 24.4499 -3.87688 -7.92115 0
M  V30 133 O 23.9099 -1.4459 -7.59357 0
M  V30 134 C 22.9699 -0.347608 -7.69215 0
M  V30 135 C 23.6999 0.96767 -7.52806 0
M  V30 136 O 23.9099 1.21036 -6.1011 0
M  V30 137 C 25.0999 1.04544 -8.13308 0
M  V30 138 O 25.4899 2.38311 -8.41922 0
M  V30 139 C 25.9799 0.491279 -7.02284 0
M  V30 140 C 25.2699 0.996264 -5.77469 0
M  V30 141 N 25.3199 0.0501916 -4.62973 0
M  V30 142 H 22.4809 -0.374722 -8.67691 0
M  V30 143 H 22.2109 -0.443485 -6.90277 0
M  V30 144 H 23.0779 1.75537 -7.96793 0
M  V30 145 P 27.0398 2.75334 -8.47391 0
M  V30 146 O 27.2598 3.84128 -9.44797 0
M  V30 147 O 27.8298 1.51947 -8.68712 0
M  V30 148 O 27.2898 3.29363 -6.99321 0
M  V30 149 C 26.3498 4.24011 -6.4274 0
M  V30 150 C 27.0798 5.20775 -5.52155 0
M  V30 151 O 27.2898 4.56534 -4.22446 0
M  V30 152 C 28.4798 5.62629 -5.96531 0
M  V30 153 O 28.8698 6.87667 -5.41053 0
M  V30 154 C 29.3598 4.52537 -5.39283 0
M  V30 155 C 28.6498 4.20027 -4.08623 0
M  V30 156 N 28.6998 2.76189 -3.71603 0
M  V30 157 H 25.8608 4.797 -7.24003 0
M  V30 158 H 25.5908 3.69856 -5.84513 0
M  V30 159 H 26.4578 6.10356 -5.41441 0
M  V30 160 P 30.4198 7.20834 -5.23717 0
M  V30 161 O 30.6398 8.66104 -5.38572 0
M  V30 162 O 31.2098 6.33544 -6.1349 0
M  V30 163 O 30.6698 6.7751 -3.72168 0
M  V30 164 C 29.7298 7.20825 -2.7076 0
M  V30 165 C 30.4598 7.45864 -1.40599 0
M  V30 166 O 30.6698 6.17651 -0.734225 0
M  V30 167 C 31.8598 8.05808 -1.51899 0
M  V30 168 O 32.2498 8.74358 -0.335205 0
M  V30 169 C 32.7398 6.83093 -1.70294 0
M  V30 170 C 32.0298 5.79992 -0.836974 0
M  V30 171 N 32.0798 4.41864 -1.38293 0
M  V30 172 H 29.2408 8.13644 -3.0377 0
M  V30 173 H 28.9708 6.42788 -2.55485 0
M  V30 174 H 29.8378 8.12039 -0.792769 0
M  V30 175 P 33.7998 8.91 -2.18232e-15 0
M  V30 176 O 34.0198 10.1746 0.733838 0
M  V30 177 O 34.5898 8.73346 -1.23964 0
M  V30 178 O 34.0498 7.66872 0.971405 0
M  V30 179 C 33.1098 7.42405 2.04668 0
M  V30 180 C 33.8398 6.86059 3.24661 0
M  V30 181 O 34.0498 5.42934 3.03695 0
M  V30 182 C 35.2398 7.41287 3.50796 0
M  V30 183 O 35.6298 7.27073 4.86816 0
M  V30 184 C 36.1198 6.5273 2.63741 0
M  V30 185 C 35.4098 5.1842 2.73198 0
M  V30 186 N 35.4598 4.38762 1.4784 0
M  V30 187 C 35.3798 4.83651 0.183876 0
M  V30 188 N 35.4498 3.88759 -0.699393 0
M  V30 189 C 35.5998 2.7404 0.0575568 0
M  V30 190 C 35.7298 1.37902 -0.293928 0
M  V30 191 N 35.7398 0.938021 -1.54797 0
M  V30 192 N 35.8498 0.491817 0.70549 0
M  V30 193 C 35.8398 0.931735 1.95979 0
M  V30 194 N 35.7198 2.16017 2.41481 0
M  V30 195 C 35.5998 3.02547 1.39121 0
M  V30 196 H 32.6218 8.36899 2.3252 0
M  V30 197 H 32.3498 6.70391 1.71179 0
M  V30 198 H 33.2178 7.03638 4.13219 0
M  V30 199 H 35.8728 4.59931 3.54016 0
M  V30 200 H 36.1528 6.88995 1.59871 0
M  V30 201 H 37.1438 6.4684 3.0373 0
M  V30 202 H 35.3098 8.47002 3.20749 0
M  V30 203 H 35.2688 5.8885 -0.0765548 0
M  V30 204 H 35.6498 1.60276 -2.32875 0
M  V30 205 H 35.8388 -0.0699355 -1.73859 0
M  V30 206 H 35.9468 0.165507 2.71897 0
M  V30 207 P 37.1798 7.20834 5.23717 0
M  V30 208 O 37.3998 7.79853 6.57286 0
M  V30 209 O 37.9698 7.79239 4.12957 0
M  V30 210 O 37.4298 5.63315 5.29344 0
M  V30 211 C 36.4898 4.80255 6.01876 0
M  V30 212 C 37.2198 3.64202 6.65911 0
M  V30 213 O 37.4298 2.60694 5.64732 0
M  V30 214 C 38.6198 3.93473 7.1943 0
M  V30 215 O 39.0098 3.02071 8.21205 0
M  V30 216 C 39.4998 3.73047 5.97036 0
M  V30 217 C 38.7898 2.58828 5.25741 0
M  V30 218 N 38.8398 2.68068 3.77503 0
M  V30 219 H 36.0008 5.40332 6.79951 0
M  V30 220 H 35.7308 4.41613 5.32378 0
M  V30 221 H 36.5978 3.26331 7.47797 0
M  V30 222 P 40.5598 2.75334 8.47391 0
M  V30 223 O 40.7798 2.44571 9.90142 0
M  V30 224 O 41.3498 3.87688 7.92115 0
M  V30 225 O 40.8098 1.4459 7.59357 0
M  V30 226 C 39.8698 0.347608 7.69215 0
M  V30 227 C 40.5998 -0.96767 7.52806 0
M  V30 228 O 40.8098 -1.21036 6.1011 0
M  V30 229 C 41.9998 -1.04544 8.13308 0
M  V30 230 O 42.3898 -2.38311 8.41922 0
M  V30 231 C 42.8798 -0.491279 7.02284 0
M  V30 232 C 42.1698 -0.996264 5.77469 0
M  V30 233 N 42.2198 -0.0501916 4.62973 0
M  V30 234 H 39.3808 0.374722 8.67691 0
M  V30 235 H 39.1108 0.443485 6.90277 0
M  V30 236 H 39.9778 -1.75537 7.96793 0
M  V30 237 P 43.9397 -2.75334 8.47391 0
M  V30 238 O 44.1597 -3.84128 9.44797 0
M  V30 239 O 44.7297 -1.51947 8.68712 0
M  V30 240 O 44.1897 -3.29363 6.99321 0
M  V30 241 C 43.2497 -4.24011 6.4274 0
M  V30 242 C 43.9797 -5.20775 5.52155 0
M  V30 243 O 44.1897 -4.56534 4.22446 0
M  V30 244 C 45.3797 -5.62629 5.96531 0
M  V30 245 O 45.7697 -6.87667 5.41053 0
M  V30 246 C 46.2597 -4.52537 5.39283 0
M  V30 247 C 45.5497 -4.20027 4.08623 0
M  V30 248 N 45.5997 -2.76189 3.71603 0
M  V30 249 H 42.7607 -4.797 7.24003 0
M  V30 250 H 42.4907 -3.69856 5.84513 0
M  V30 251 H 43.3577 -6.10356 5.41441 0
M  V30 252 P 47.3197 -7.20834 5.23717 0
M  V30 253 O 47.5397 -8.66104 5.38572 0
M  V30 254 O 48.1097 -6.33544 6.1349 0
M  V30 255 O 47.5697 -6.7751 3.72168 0
M  V30 256 C 46.6297 -7.20825 2.7076 0
M  V30 257 C 47.3597 -7.45864 1.40599 0
M  V30 258 O 47.5697 -6.17651 0.734225 0
M  V30 259 C 48.7597 -8.05808 1.51899 0
M  V30 260 O 49.1497 -8.74358 0.335205 0
M  V30 261 C 49.6397 -6.83093 1.70294 0
M  V30 262 C 48.9297 -5.79992 0.836974 0
M  V30 263 N 48.9797 -4.41864 1.38293 0
M  V30 264 H 46.1407 -8.13644 3.0377 0
M  V30 265 H 45.8707 -6.42788 2.55485 0
M  V30 266 H 46.7377 -8.12039 0.792769 0
M  V30 267 P 50.6997 -8.91 3.27348e-15 0
M  V30 268 O 50.9197 -10.1726 -0.733694 0
M  V30 269 O 51.4897 -8.73148 1.23936 0
M  V30 270 O 50.9497 -7.66872 -0.971405 0
M  V30 271 C 50.0097 -7.42309 -2.04641 0
M  V30 272 C 50.7397 -6.86059 -3.24661 0
M  V30 273 O 50.9497 -5.42847 -3.03646 0
M  V30 274 C 52.1397 -7.41196 -3.50753 0
M  V30 275 O 52.5297 -7.27073 -4.86816 0
M  V30 276 C 53.0197 -6.5273 -2.63741 0
M  V30 277 C 52.3097 -5.1842 -2.73198 0
M  V30 278 N 52.3597 -4.38762 -1.4784 0
M  V30 279 H 49.5207 -8.36803 -2.32493 0
M  V30 280 H 49.2507 -6.70197 -1.71129 0
M  V30 281 H 50.1177 -7.03551 -4.13168 0
M  V30 282 P 54.0797 -7.20834 -5.23717 0
M  V30 283 O 54.2997 -7.79853 -6.57286 0
M  V30 284 O 54.8697 -7.79239 -4.12957 0
M  V30 285 O 54.3297 -5.63315 -5.29344 0
M  V30 286 C 53.3897 -4.80255 -6.01876 0
M  V30 287 C 54.1197 -3.64202 -6.65911 0
M  V30 288 O 54.3297 -2.60694 -5.64732 0
M  V30 289 C 55.5197 -3.93473 -7.1943 0
M  V30 290 O 55.9097 -3.02071 -8.21205 0
M  V30 291 C 56.3997 -3.73047 -5.97036 0
M  V30 292 C 55.6897 -2.58828 -5.25741 0
M  V30 293 N 55.7397 -2.68068 -3.77503 0
M  V30 294 H 52.9007 -5.40332 -6.79951 0
M  V30 295 H 52.6307 -4.41613 -5.32378 0
M  V30 296 H 53.4977 -3.26331 -7.47797 0
M  V30 297 P 57.4597 -2.75334 -8.47391 0
M  V30 298 O 57.6797 -2.44571 -9.90142 0
M  V30 299 O 58.2497 -3.87688 -7.92115 0
M  V30 300 O 57.7097 -1.4459 -7.59357 0
M  V30 301 C 56.7697 -0.347608 -7.69215 0
M  V30 302 C 57.4997 0.96767 -7.52806 0
M  V30 303 O 57.7097 1.21036 -6.1011 0
M  V30 304 C 58.8997 1.04544 -8.13308 0
M  V30 305 O 59.2897 2.38311 -8.41922 0
M  V30 306 C 59.7797 0.491279 -7.02284 0
M  V30 307 C 59.0697 0.996264 -5.77469 0
M  V30 308 N 59.1197 0.0501916 -4.62973 0
M  V30 309 H 56.2807 -0.374722 -8.67691 0
M  V30 310 H 56.0107 -0.443485 -6.90277 0
M  V30 311 H 56.8777 1.75537 -7.96793 0
M  V30 312 P 60.8396 2.75334 -8.47391 0
M  V30 313 O 61.0596 3.84128 -9.44797 0
M  V30 314 O 61.6296 1.51947 -8.68712 0
M  V30 315 O 61.0896 3.29363 -6.99321 0
M  V30 316 C 60.1496 4.24011 -6.4274 0
M  V30 317 C 60.8796 5.20775 -5.52155 0
M  V30 318 O 61.0896 4.56534 -4.22446 0
M  V30 319 C 62.2796 5.62629 -5.96531 0
M  V30 320 O 62.6696 6.87667 -5.41053 0
M  V30 321 C 63.1596 4.52537 -5.39283 0
M  V30 322 C 62.4496 4.20027 -4.08623 0
M  V30 323 N 62.4996 2.76189 -3.71603 0
M  V30 324 H 59.6606 4.797 -7.24003 0
M  V30 325 H 59.3906 3.69856 -5.84513 0
M  V30 326 H 60.2576 6.10356 -5.41441 0
M  V30 327 P 64.2196 7.20834 -5.23717 0
M  V30 328 O 64.4396 8.66274 -5.38678 0
M  V30 329 O 65.0096 6.33687 -6.13629 0
M  V30 330 O 64.4696 6.7751 -3.72168 0
M  V30 331 C 63.5296 7.20919 -2.70795 0
M  V30 332 C 64.2596 7.45864 -1.40599 0
M  V30 333 O 64.4696 6.17751 -0.734343 0
M  V30 334 C 65.6596 8.05906 -1.51917 0
M  V30 335 O 66.0496 8.74358 -0.335205 0
M  V30 336 C 66.5396 6.83093 -1.70294 0
M  V30 337 C 65.8296 5.79992 -0.836974 0
M  V30 338 N 65.8796 4.41864 -1.38293 0
M  V30 339 C 65.7996 4.02089 -2.69407 0
M  V30 340 N 65.8696 2.73403 -2.85089 0
M  V30 341 C 66.0196 2.25086 -1.5642 0
M  V30 342 C 66.1496 0.942887 -1.04836 0
M  V30 343 N 66.1596 -0.150999 -1.80369 0
M  V30 344 N 66.2696 0.812565 0.28167 0
M  V30 345 C 66.2596 1.90572 1.03784 0
M  V30 346 N 66.1396 3.167 0.683905 0
M  V30 347 C 66.0196 3.26538 -0.652815 0
M  V30 348 H 63.0416 8.13738 -3.03804 0
M  V30 349 H 62.7696 6.42974 -2.55559 0
M  V30 350 H 63.6376 8.12139 -0.792866 0
M  V30 351 H 66.2926 5.80178 0.160643 0
M  V30 352 H 66.5726 6.51379 -2.75643 0
M  V30 353 H 67.5636 7.01832 -1.3448 0
M  V30 354 H 65.7296 8.73771 -2.38364 0
M  V30 355 H 65.6886 4.7189 -3.52311 0
M  V30 356 H 66.0696 -0.0721434 -2.82608 0
M  V30 357 H 66.2586 -1.0785 -1.36544 0
M  V30 358 H 66.3666 1.73207 2.10241 0
M  V30 359 P 67.5996 8.91 -4.36464e-15 0
M  V30 360 O 67.8196 10.1726 0.733694 0
M  V30 361 O 68.3896 8.73148 -1.23936 0
M  V30 362 O 67.8496 7.66872 0.971405 0
M  V30 363 C 66.9096 7.42309 2.04641 0
M  V30 364 C 67.6396 6.86059 3.24661 0
M  V30 365 O 67.8496 5.42847 3.03646 0
M  V30 366 C 69.0396 7.41196 3.50753 0
M  V30 367 O 69.4296 7.27073 4.86816 0
M  V30 368 C 69.9196 6.5273 2.63741 0
M  V30 369 C 69.2096 5.1842 2.73198 0
M  V30 370 N 69.2596 4.38762 1.4784 0
M  V30 371 C 69.1796 4.81605 0.168631 0
M  V30 372 N 69.2596 3.85454 -0.713363 0
M  V30 373 C 69.3996 2.6994 0.0566958 0
M  V30 374 C 69.5296 1.34815 -0.338502 0
M  V30 375 O 69.5496 0.869548 -1.47125 0
M  V30 376 N 69.6496 0.496304 0.77465 0
M  V30 377 C 69.6496 0.908403 2.09122 0
M  V30 378 N 69.7796 -0.0517805 3.00955 0
M  V30 379 N 69.5196 2.17875 2.46519 0
M  V30 380 C 69.3996 3.01988 1.4033 0
M  V30 381 H 66.4206 8.36803 2.32493 0
M  V30 382 H 66.1506 6.70197 1.71129 0
M  V30 383 H 67.0176 7.03551 4.13168 0
M  V30 384 H 69.6726 4.59498 3.54415 0
M  V30 385 H 69.9516 6.88898 1.59848 0
M  V30 386 H 70.9436 6.46749 3.03687 0
M  V30 387 H 69.1096 8.46908 3.20714 0
M  V30 388 H 69.0606 5.86405 -0.105564 0
M  V30 389 H 69.7426 -0.483664 0.597855 0
M  V30 390 H 69.7796 0.187865 4.0116 0
M  V30 391 H 69.8806 -1.03585 2.71726 0
M  V30 392 P 70.9796 7.20834 5.23717 0
M  V30 393 O 71.1996 7.79853 6.57286 0
M  V30 394 O 71.7696 7.79239 4.12957 0
M  V30 395 O 71.2296 5.63315 5.29344 0
M  V30 396 C 70.2896 4.80255 6.01876 0
M  V30 397 C 71.0196 3.64202 6.65911 0
M  V30 398 O 71.2296 2.60694 5.64732 0
M  V30 399 C 72.4196 3.93473 7.1943 0
M  V30 400 O 72.8096 3.02071 8.21205 0
M  V30 401 C 73.2996 3.73047 5.97036 0
M  V30 402 C 72.5896 2.58828 5.25741 0
M  V30 403 N 72.6396 2.68068 3.77503 0
M  V30 404 H 69.8006 5.40332 6.79951 0
M  V30 405 H 69.5306 4.41613 5.32378 0
M  V30 406 H 70.3976 3.26331 7.47797 0
M  V30 407 P 74.3596 2.75334 8.47391 0
M  V30 408 O 74.5796 2.44571 9.90142 0
M  V30 409 O 75.1496 3.87688 7.92115 0
M  V30 410 O 74.6096 1.4459 7.59357 0
M  V30 411 C 73.6696 0.347608 7.69215 0
M  V30 412 C 74.3996 -0.96767 7.52806 0
M  V30 413 O 74.6096 -1.21036 6.1011 0
M  V30 414 C 75.7996 -1.04544 8.13308 0
M  V30 415 O 76.1896 -2.38311 8.41922 0
M  V30 416 C 76.6796 -0.491279 7.02284 0
M  V30 417 C 75.9696 -0.996264 5.77469 0
M  V30 418 N 76.0196 -0.0501916 4.62973 0
M  V30 419 H 73.1806 0.374722 8.67691 0
M  V30 420 H 72.9106 0.443485 6.90277 0
M  V30 421 H 73.7776 -1.75537 7.96793 0
M  V30 422 P 77.7395 -2.75334 8.47391 0
M  V30 423 O 77.9595 -3.84204 9.44982 0
M  V30 424 O 78.5295 -1.51982 8.68909 0
M  V30 425 O 77.9895 -3.29363 6.99321 0
M  V30 426 C 77.0495 -4.24066 6.42823 0
M  V30 427 C 77.7795 -5.20775 5.52155 0
M  V30 428 O 77.9895 -4.56607 4.22514 0
M  V30 429 C 79.1795 -5.62697 5.96604 0
M  V30 430 O 79.5695 -6.87667 5.41053 0
M  V30 431 C 80.0595 -4.52537 5.39283 0
M  V30 432 C 79.3495 -4.20027 4.08623 0
M  V30 433 N 79.3995 -2.76189 3.71603 0
M  V30 434 H 76.5615 -4.79756 7.24086 0
M  V30 435 H 76.2895 -3.69963 5.84682 0
M  V30 436 H 77.1575 -6.10431 5.41508 0
M  V30 437 H 79.8125 -4.78816 3.28024 0
M  V30 438 H 80.0925 -3.64957 6.05871 0
M  V30 439 H 81.0835 -4.88748 5.21323 0
M  V30 440 H 79.2495 -5.66789 7.0643 0
M  V30 441 P 81.1195 -7.20834 5.23717 0
M  V30 442 O 81.3395 -8.66274 5.38678 0
M  V30 443 O 81.9095 -6.33687 6.13629 0
M  V30 444 O 81.3695 -6.7751 3.72168 0
M  V30 445 C 80.4295 -7.20919 2.70795 0
M  V30 446 C 81.1595 -7.45864 1.40599 0
M  V30 447 O 81.3695 -6.17751 0.734343 0
M  V30 448 C 82.5595 -8.05906 1.51917 0
M  V30 449 O 82.9495 -8.74358 0.335205 0
M  V30 450 C 83.4395 -6.83093 1.70294 0
M  V30 451 C 82.7295 -5.79992 0.836974 0
M  V30 452 N 82.7795 -4.41864 1.38293 0
M  V30 453 C 82.6995 -4.02089 2.69407 0
M  V30 454 N 82.7695 -2.73403 2.85089 0
M  V30 455 C 82.9195 -2.25086 1.5642 0
M  V30 456 C 83.0495 -0.942887 1.04836 0
M  V30 457 N 83.0595 0.150999 1.80369 0
M  V30 458 N 83.1695 -0.812565 -0.28167 0
M  V30 459 C 83.1595 -1.90572 -1.03784 0
M  V30 460 N 83.0395 -3.167 -0.683905 0
M  V30 461 C 82.9195 -3.26538 0.652815 0
M  V30 462 H 79.9415 -8.13738 3.03804 0
M  V30 463 H 79.6695 -6.42974 2.55559 0
M  V30 464 H 80.5375 -8.12139 0.792866 0
M  V30 465 H 83.1925 -5.80178 -0.160643 0
M  V30 466 H 83.4725 -6.51379 2.75643 0
M  V30 467 H 84.4635 -7.01832 1.3448 0
M  V30 468 H 82.6295 -8.73771 2.38364 0
M  V30 469 H 82.5885 -4.7189 3.52311 0
M  V30 470 H 82.9695 0.0721434 2.82608 0
M  V30 471 H 83.1585 1.0785 1.36544 0
M  V30 472 H 83.2665 -1.73207 -2.10241 0
M  V30 473 P 84.4995 -8.91 5.4558e-15 0
M  V30 474 O 84.7195 -10.1746 -0.733838 0
M  V30 475 O 85.2895 -8.73346 1.23964 0
M  V30 476 O 84.7495 -7.66872 -0.971405 0
M  V30 477 C 83.8095 -7.42405 -2.04668 0
M  V30 478 C 84.5395 -6.86059 -3.24661 0
M  V30 479 O 84.7495 -5.42934 -3.03695 0
M  V30 480 C 85.9395 -7.41287 -3.50796 0
M  V30 481 O 86.3295 -7.27073 -4.86816 0
M  V30 482 C 86.8195 -6.5273 -2.63741 0
M  V30 483 C 86.1095 -5.1842 -2.73198 0
M  V30 484 N 86.1595 -4.38762 -1.4784 0
M  V30 485 C 86.0795 -4.83651 -0.183876 0
M  V30 486 N 86.1495 -3.88759 0.699393 0
M  V30 487 C 86.2995 -2.7404 -0.0575568 0
M  V30 488 C 86.4295 -1.37902 0.293928 0
M  V30 489 N 86.4395 -0.938021 1.54797 0
M  V30 490 N 86.5495 -0.491817 -0.70549 0
M  V30 491 C 86.5395 -0.931735 -1.95979 0
M  V30 492 N 86.4195 -2.16017 -2.41481 0
M  V30 493 C 86.2995 -3.02547 -1.39121 0
M  V30 494 H 83.3215 -8.36899 -2.3252 0
M  V30 495 H 83.0495 -6.70391 -1.71179 0
M  V30 496 H 83.9175 -7.03638 -4.13219 0
M  V30 497 H 86.5725 -4.59931 -3.54016 0
M  V30 498 H 86.8525 -6.88995 -1.59871 0
M  V30 499 H 87.8435 -6.4684 -3.0373 0
M  V30 500 H 86.0095 -8.47002 -3.20749 0
M  V30 501 H 85.9685 -5.8885 0.0765548 0
M  V30 502 H 86.3495 -1.60276 2.32875 0
M  V30 503 H 86.5385 0.0699355 1.73859 0
M  V30 504 H 86.6465 -0.165507 -2.71897 0
M  V30 505 P 87.8795 -7.20834 -5.23717 0
M  V30 506 O 88.0995 -7.79853 -6.57286 0
M  V30 507 O 88.6695 -7.79239 -4.12957 0
M  V30 508 O 88.1295 -5.63315 -5.29344 0
M  V30 509 C 87.1895 -4.80255 -6.01876 0
M  V30 510 C 87.9195 -3.64202 -6.65911 0
M  V30 511 O 88.1295 -2.60694 -5.64732 0
M  V30 512 C 89.3195 -3.93473 -7.1943 0
M  V30 513 O 89.7095 -3.02071 -8.21205 0
M  V30 514 C 90.1995 -3.73047 -5.97036 0
M  V30 515 C 89.4895 -2.58828 -5.25741 0
M  V30 516 N 89.5395 -2.68068 -3.77503 0
M  V30 517 H 86.7005 -5.40332 -6.79951 0
M  V30 518 H 86.4305 -4.41613 -5.32378 0
M  V30 519 H 87.2975 -3.26331 -7.47797 0
M  V30 520 P 91.2595 -2.75334 -8.47391 0
M  V30 521 O 91.4795 -2.44571 -9.90142 0
M  V30 522 O 92.0495 -3.87688 -7.92115 0
M  V30 523 O 91.5095 -1.4459 -7.59357 0
M  V30 524 C 90.5695 -0.347608 -7.69215 0
M  V30 525 C 91.2995 0.96767 -7.52806 0
M  V30 526 O 91.5095 1.21036 -6.1011 0
M  V30 527 C 92.6995 1.04544 -8.13308 0
M  V30 528 O 93.0895 2.38311 -8.41922 0
M  V30 529 C 93.5795 0.491279 -7.02284 0
M  V30 530 C 92.8695 0.996264 -5.77469 0
M  V30 531 N 92.9195 0.0501916 -4.62973 0
M  V30 532 H 90.0805 -0.374722 -8.67691 0
M  V30 533 H 89.8105 -0.443485 -6.90277 0
M  V30 534 H 90.6775 1.75537 -7.96793 0
M  V30 535 P 94.6394 2.75334 -8.47391 0
M  V30 536 O 94.8594 3.84128 -9.44797 0
M  V30 537 O 95.4294 1.51947 -8.68712 0
M  V30 538 O 94.8894 3.29363 -6.99321 0
M  V30 539 C 93.9494 4.24011 -6.4274 0
M  V30 540 C 94.6794 5.20775 -5.52155 0
M  V30 541 O 94.8894 4.56534 -4.22446 0
M  V30 542 C 96.0794 5.62629 -5.96531 0
M  V30 543 O 96.4694 6.87667 -5.41053 0
M  V30 544 C 96.9594 4.52537 -5.39283 0
M  V30 545 C 96.2494 4.20027 -4.08623 0
M  V30 546 N 96.2994 2.76189 -3.71603 0
M  V30 547 C 96.2194 1.64862 -4.52822 0
M  V30 548 N 96.2994 0.512671 -3.88633 0
M  V30 549 C 96.4394 0.888083 -2.54977 0
M  V30 550 C 96.5694 0.094668 -1.38677 0
M  V30 551 N 96.6894 0.890102 -0.232633 0
M  V30 552 C 96.6894 2.26958 -0.21772 0
M  V30 553 N 96.8194 2.84626 0.97925 0
M  V30 554 N 96.5594 3.0178 -1.31033 0
M  V30 555 C 96.4394 2.26781 -2.43843 0
M  V30 556 H 93.4604 4.797 -7.24003 0
M  V30 557 H 93.1904 3.69856 -5.84513 0
M  V30 558 H 94.0574 6.10356 -5.41441 0
M  V30 559 P 98.0194 7.20834 -5.23717 0
M  V30 560 O 98.2394 8.66104 -5.38572 0
M  V30 561 O 98.8094 6.33544 -6.1349 0
M  V30 562 O 98.2694 6.7751 -3.72168 0
M  V30 563 C 97.3294 7.20825 -2.7076 0
M  V30 564 C 98.0594 7.45864 -1.40599 0
M  V30 565 O 98.2694 6.17651 -0.734225 0
M  V30 566 C 99.4594 8.05808 -1.51899 0
M  V30 567 O 99.8494 8.74358 -0.335205 0
M  V30 568 C 100.339 6.83093 -1.70294 0
M  V30 569 C 99.6294 5.79992 -0.836974 0
M  V30 570 N 99.6794 4.41864 -1.38293 0
M  V30 571 H 96.8404 8.13644 -3.0377 0
M  V30 572 H 96.5704 6.42788 -2.55485 0
M  V30 573 H 97.4374 8.12039 -0.792769 0
M  V30 574 P 101.399 8.91 -6.54696e-15 0
M  V30 575 O 101.619 10.1746 0.733838 0
M  V30 576 O 102.189 8.73346 -1.23964 0
M  V30 577 O 101.649 7.66872 0.971405 0
M  V30 578 C 100.709 7.42405 2.04668 0
M  V30 579 C 101.439 6.86059 3.24661 0
M  V30 580 O 101.649 5.42934 3.03695 0
M  V30 581 C 102.839 7.41287 3.50796 0
M  V30 582 O 103.229 7.27073 4.86816 0
M  V30 583 C 103.719 6.5273 2.63741 0
M  V30 584 C 103.009 5.1842 2.73198 0
M  V30 585 N 103.059 4.38762 1.4784 0
M  V30 586 C 102.979 4.83651 0.183876 0
M  V30 587 N 103.049 3.88759 -0.699393 0
M  V30 588 C 103.199 2.7404 0.0575568 0
M  V30 589 C 103.329 1.37902 -0.293928 0
M  V30 590 N 103.339 0.938021 -1.54797 0
M  V30 591 N 103.449 0.491817 0.70549 0
M  V30 592 C 103.439 0.931735 1.95979 0
M  V30 593 N 103.319 2.16017 2.41481 0
M  V30 594 C 103.199 3.02547 1.39121 0
M  V30 595 H 100.221 8.36899 2.3252 0
M  V30 596 H 99.9494 6.70391 1.71179 0
M  V30 597 H 100.817 7.03638 4.13219 0
M  V30 598 H 103.472 4.59931 3.54016 0
M  V30 599 H 103.752 6.88995 1.59871 0
M  V30 600 H 104.743 6.4684 3.0373 0
M  V30 601 H 102.909 8.47002 3.20749 0
M  V30 602 H 102.868 5.8885 -0.0765548 0
M  V30 603 H 103.249 1.60276 -2.32875 0
M  V30 604 H 103.438 -0.0699355 -1.73859 0
M  V30 605 H 103.546 0.165507 2.71897 0
M  V30 606 P 104.779 7.20834 5.23717 0
M  V30 607 O 104.999 7.79853 6.57286 0
M  V30 608 O 105.569 7.79239 4.12957 0
M  V30 609 O 105.029 5.63315 5.29344 0
M  V30 610 C 104.089 4.80255 6.01876 0
M  V30 611 C 104.819 3.64202 6.65911 0
M  V30 612 O 105.029 2.60694 5.64732 0
M  V30 613 C 106.219 3.93473 7.1943 0
M  V30 614 O 106.609 3.02071 8.21205 0
M  V30 615 C 107.099 3.73047 5.97036 0
M  V30 616 C 106.389 2.58828 5.25741 0
M  V30 617 N 106.439 2.68068 3.77503 0
M  V30 618 H 103.6 5.40332 6.79951 0
M  V30 619 H 103.33 4.41613 5.32378 0
M  V30 620 H 104.197 3.26331 7.47797 0
M  V30 621 P 108.159 2.75334 8.47391 0
M  V30 622 O 108.379 2.44571 9.90142 0
M  V30 623 O 108.949 3.87688 7.92115 0
M  V30 624 O 108.409 1.4459 7.59357 0
M  V30 625 C 107.469 0.347608 7.69215 0
M  V30 626 C 108.199 -0.96767 7.52806 0
M  V30 627 O 108.409 -1.21036 6.1011 0
M  V30 628 C 109.599 -1.04544 8.13308 0
M  V30 629 O 109.989 -2.38311 8.41922 0
M  V30 630 C 110.479 -0.491279 7.02284 0
M  V30 631 C 109.769 -0.996264 5.77469 0
M  V30 632 N 109.819 -0.0501916 4.62973 0
M  V30 633 H 106.98 0.374722 8.67691 0
M  V30 634 H 106.71 0.443485 6.90277 0
M  V30 635 H 107.577 -1.75537 7.96793 0
M  V30 636 P 111.539 -2.75334 8.47391 0
M  V30 637 O 111.759 -3.84128 9.44797 0
M  V30 638 O 112.329 -1.51947 8.68712 0
M  V30 639 O 111.789 -3.29363 6.99321 0
M  V30 640 C 110.849 -4.24011 6.4274 0
M  V30 641 C 111.579 -5.20775 5.52155 0
M  V30 642 O 111.789 -4.56534 4.22446 0
M  V30 643 C 112.979 -5.62629 5.96531 0
M  V30 644 O 113.369 -6.87667 5.41053 0
M  V30 645 C 113.859 -4.52537 5.39283 0
M  V30 646 C 113.149 -4.20027 4.08623 0
M  V30 647 N 113.199 -2.76189 3.71603 0
M  V30 648 H 110.36 -4.797 7.24003 0
M  V30 649 H 110.09 -3.69856 5.84513 0
M  V30 650 H 110.957 -6.10356 5.41441 0
M  V30 651 P 114.919 -7.20834 5.23717 0
M  V30 652 O 115.139 -8.66104 5.38572 0
M  V30 653 O 115.709 -6.33544 6.1349 0
M  V30 654 O 115.169 -6.7751 3.72168 0
M  V30 655 C 114.229 -7.20825 2.7076 0
M  V30 656 C 114.959 -7.45864 1.40599 0
M  V30 657 O 115.169 -6.17651 0.734225 0
M  V30 658 C 116.359 -8.05808 1.51899 0
M  V30 659 O 116.749 -8.74358 0.335205 0
M  V30 660 C 117.239 -6.83093 1.70294 0
M  V30 661 C 116.529 -5.79992 0.836974 0
M  V30 662 N 116.579 -4.41864 1.38293 0
M  V30 663 H 113.74 -8.13644 3.0377 0
M  V30 664 H 113.47 -6.42788 2.55485 0
M  V30 665 H 114.337 -8.12039 0.792769 0
M  V30 666 P 118.299 -8.91 7.63812e-15 0
M  V30 667 O 118.519 -10.1726 -0.733694 0
M  V30 668 O 119.089 -8.73148 1.23936 0
M  V30 669 O 118.549 -7.66872 -0.971405 0
M  V30 670 C 117.609 -7.42309 -2.04641 0
M  V30 671 C 118.339 -6.86059 -3.24661 0
M  V30 672 O 118.549 -5.42847 -3.03646 0
M  V30 673 C 119.739 -7.41196 -3.50753 0
M  V30 674 O 120.129 -7.27073 -4.86816 0
M  V30 675 C 120.619 -6.5273 -2.63741 0
M  V30 676 C 119.909 -5.1842 -2.73198 0
M  V30 677 N 119.959 -4.38762 -1.4784 0
M  V30 678 H 117.12 -8.36803 -2.32493 0
M  V30 679 H 116.85 -6.70197 -1.71129 0
M  V30 680 H 117.717 -7.03551 -4.13168 0
M  V30 681 P 121.679 -7.20834 -5.23717 0
M  V30 682 O 121.899 -7.80006 -6.57415 0
M  V30 683 O 122.469 -7.79416 -4.13051 0
M  V30 684 O 121.929 -5.63315 -5.29344 0
M  V30 685 C 120.989 -4.80318 -6.01954 0
M  V30 686 C 121.719 -3.64202 -6.65911 0
M  V30 687 O 121.929 -2.60736 -5.64823 0
M  V30 688 C 123.119 -3.93521 -7.19518 0
M  V30 689 O 123.509 -3.02071 -8.21205 0
M  V30 690 C 123.999 -3.73047 -5.97036 0
M  V30 691 C 123.289 -2.58828 -5.25741 0
M  V30 692 N 123.339 -2.68068 -3.77503 0
M  V30 693 C 123.259 -3.80474 -2.99159 0
M  V30 694 N 123.329 -3.55622 -1.71925 0
M  V30 695 C 123.479 -2.1832 -1.65733 0
M  V30 696 C 123.609 -1.28842 -0.572777 0
M  V30 697 N 123.619 -1.66875 0.70098 0
M  V30 698 N 123.729 0.016788 -0.859836 0
M  V30 699 C 123.719 0.398145 -2.13316 0
M  V30 700 N 123.599 -0.328224 -3.22333 0
M  V30 701 C 123.479 -1.62992 -2.90383 0
M  V30 702 H 120.501 -5.40394 -6.8003 0
M  V30 703 H 120.229 -4.41741 -5.32532 0
M  V30 704 H 121.097 -3.26371 -7.47889 0
M  V30 705 H 123.752 -1.64007 -5.56746 0
M  V30 706 H 124.032 -4.63439 -5.3432 0
M  V30 707 H 125.023 -3.44776 -6.25925 0
M  V30 708 H 123.189 -4.96707 -7.57347 0
M  V30 709 H 123.148 -4.8089 -3.39924 0
M  V30 710 H 123.529 -2.66547 0.941919 0
M  V30 711 H 123.718 -0.965341 1.44766 0
M  V30 712 H 123.826 1.46427 -2.29697 0
M  V30 713 P 125.059 -2.75334 -8.47391 0
M  V30 714 O 125.279 -2.44571 -9.90142 0
M  V30 715 O 125.849 -3.87688 -7.92115 0
M  V30 716 O 125.309 -1.4459 -7.59357 0
M  V30 717 C 124.369 -0.347608 -7.69215 0
M  V30 718 C 125.099 0.96767 -7.52806 0
M  V30 719 O 125.309 1.21036 -6.1011 0
M  V30 720 C 126.499 1.04544 -8.13308 0
M  V30 721 O 126.889 2.38311 -8.41922 0
M  V30 722 C 127.379 0.491279 -7.02284 0
M  V30 723 C 126.669 0.996264 -5.77469 0
M  V30 724 N 126.719 0.0501916 -4.62973 0
M  V30 725 H 123.88 -0.374722 -8.67691 0
M  V30 726 H 123.61 -0.443485 -6.90277 0
M  V30 727 H 124.477 1.75537 -7.96793 0
M  V30 728 P 128.439 2.75334 -8.47391 0
M  V30 729 O 128.659 3.84128 -9.44797 0
M  V30 730 O 129.229 1.51947 -8.68712 0
M  V30 731 O 128.689 3.29363 -6.99321 0
M  V30 732 C 127.749 4.24011 -6.4274 0
M  V30 733 C 128.479 5.20775 -5.52155 0
M  V30 734 O 128.689 4.56534 -4.22446 0
M  V30 735 C 129.879 5.62629 -5.96531 0
M  V30 736 O 130.269 6.87667 -5.41053 0
M  V30 737 C 130.759 4.52537 -5.39283 0
M  V30 738 C 130.049 4.20027 -4.08623 0
M  V30 739 N 130.099 2.76189 -3.71603 0
M  V30 740 H 127.26 4.797 -7.24003 0
M  V30 741 H 126.99 3.69856 -5.84513 0
M  V30 742 H 127.857 6.10356 -5.41441 0
M  V30 743 P 131.819 7.20834 -5.23717 0
M  V30 744 O 132.039 8.66274 -5.38678 0
M  V30 745 O 132.609 6.33687 -6.13629 0
M  V30 746 O 132.069 6.7751 -3.72168 0
M  V30 747 C 131.129 7.20919 -2.70795 0
M  V30 748 C 131.859 7.45864 -1.40599 0
M  V30 749 O 132.069 6.17751 -0.734343 0
M  V30 750 C 133.259 8.05906 -1.51917 0
M  V30 751 O 133.649 8.74358 -0.335205 0
M  V30 752 C 134.139 6.83093 -1.70294 0
M  V30 753 C 133.429 5.79992 -0.836974 0
M  V30 754 N 133.479 4.41864 -1.38293 0
M  V30 755 C 133.399 4.02089 -2.69407 0
M  V30 756 N 133.469 2.73403 -2.85089 0
M  V30 757 C 133.619 2.25086 -1.5642 0
M  V30 758 C 133.749 0.942887 -1.04836 0
M  V30 759 N 133.759 -0.150999 -1.80369 0
M  V30 760 N 133.869 0.812565 0.28167 0
M  V30 761 C 133.859 1.90572 1.03784 0
M  V30 762 N 133.739 3.167 0.683905 0
M  V30 763 C 133.619 3.26538 -0.652815 0
M  V30 764 H 130.641 8.13738 -3.03804 0
M  V30 765 H 130.369 6.42974 -2.55559 0
M  V30 766 H 131.237 8.12139 -0.792866 0
M  V30 767 H 133.892 5.80178 0.160643 0
M  V30 768 H 134.172 6.51379 -2.75643 0
M  V30 769 H 135.163 7.01832 -1.3448 0
M  V30 770 H 133.329 8.73771 -2.38364 0
M  V30 771 H 133.288 4.7189 -3.52311 0
M  V30 772 H 133.669 -0.0721434 -2.82608 0
M  V30 773 H 133.858 -1.0785 -1.36544 0
M  V30 774 H 133.966 1.73207 2.10241 0
M  V30 775 P 135.199 8.91 -8.72928e-15 0
M  V30 776 O 135.419 10.1736 0.733766 0
M  V30 777 O 135.989 8.73247 -1.2395 0
M  V30 778 O 135.449 7.66872 0.971405 0
M  V30 779 C 134.509 7.42212 2.04614 0
M  V30 780 C 135.239 6.86059 3.24661 0
M  V30 781 O 135.449 5.42847 3.03646 0
M  V30 782 C 136.639 7.41196 3.50753 0
M  V30 783 O 137.029 7.27073 4.86816 0
M  V30 784 C 137.519 6.5273 2.63741 0
M  V30 785 C 136.809 5.1842 2.73198 0
M  V30 786 N 136.859 4.38668 1.47808 0
M  V30 787 C 137.009 3.02239 1.60048 0
M  V30 788 O 137.099 2.46459 2.67869 0
M  V30 789 N 137.049 2.32436 0.408571 0
M  V30 790 C 136.959 2.85471 -0.854993 0
M  V30 791 O 137.009 2.12566 -1.8531 0
M  V30 792 C 136.809 4.28918 -0.887335 0
M  V30 793 C 136.699 4.91066 -2.24619 0
M  V30 794 C 136.759 5.00349 0.255399 0
M  V30 795 H 134.019 8.36803 2.32493 0
M  V30 796 H 133.75 6.701 1.71105 0
M  V30 797 H 134.617 7.03551 4.13168 0
M  V30 798 H 137.272 4.59773 3.53894 0
M  V30 799 H 137.551 6.88995 1.59871 0
M  V30 800 H 138.543 6.46749 3.03687 0
M  V30 801 H 136.709 8.46908 3.20714 0
M  V30 802 H 136.638 6.08548 0.206986 0
M  V30 803 H 137.668 5.34836 -2.53099 0
M  V30 804 H 135.931 5.69638 -2.2291 0
M  V30 805 H 136.419 4.13971 -2.98044 0
M  V30 806 H 137.155 1.33211 0.474216 0
M  V30 807 P 138.579 7.20834 5.23717 0
M  V30 808 O 138.799 7.79853 6.57286 0
M  V30 809 O 139.369 7.79239 4.12957 0
M  V30 810 O 138.829 5.63315 5.29344 0
M  V30 811 C 137.889 4.80255 6.01876 0
M  V30 812 C 138.619 3.64202 6.65911 0
M  V30 813 O 138.829 2.60694 5.64732 0
M  V30 814 C 140.019 3.93473 7.1943 0
M  V30 815 O 140.409 3.02071 8.21205 0
M  V30 816 C 140.899 3.73047 5.97036 0
M  V30 817 C 140.189 2.58828 5.25741 0
M  V30 818 N 140.239 2.68068 3.77503 0
M  V30 819 H 137.4 5.40332 6.79951 0
M  V30 820 H 137.13 4.41613 5.32378 0
M  V30 821 H 137.997 3.26331 7.47797 0
M  V30 822 P 141.959 2.75334 8.47391 0
M  V30 823 O 142.179 2.44571 9.90142 0
M  V30 824 O 142.749 3.87688 7.92115 0
M  V30 825 O 142.209 1.4459 7.59357 0
M  V30 826 C 141.269 0.347608 7.69215 0
M  V30 827 C 141.999 -0.96767 7.52806 0
M  V30 828 O 142.209 -1.21036 6.1011 0
M  V30 829 C 143.399 -1.04544 8.13308 0
M  V30 830 O 143.789 -2.38311 8.41922 0
M  V30 831 C 144.279 -0.491279 7.02284 0
M  V30 832 C 143.569 -0.996264 5.77469 0
M  V30 833 N 143.619 -0.0501916 4.62973 0
M  V30 834 H 140.78 0.374722 8.67691 0
M  V30 835 H 140.51 0.443485 6.90277 0
M  V30 836 H 141.377 -1.75537 7.96793 0
M  V30 837 P 145.339 -2.75334 8.47391 0
M  V30 838 O 145.559 -3.84128 9.44797 0
M  V30 839 O 146.129 -1.51947 8.68712 0
M  V30 840 O 145.589 -3.29363 6.99321 0
M  V30 841 C 144.649 -4.24011 6.4274 0
M  V30 842 C 145.379 -5.20775 5.52155 0
M  V30 843 O 145.589 -4.56534 4.22446 0
M  V30 844 C 146.779 -5.62629 5.96531 0
M  V30 845 O 147.169 -6.87667 5.41053 0
M  V30 846 C 147.659 -4.52537 5.39283 0
M  V30 847 C 146.949 -4.20027 4.08623 0
M  V30 848 N 146.999 -2.76189 3.71603 0
M  V30 849 H 144.16 -4.797 7.24003 0
M  V30 850 H 143.89 -3.69856 5.84513 0
M  V30 851 H 144.757 -6.10356 5.41441 0
M  V30 852 P 148.719 -7.20834 5.23717 0
M  V30 853 O 148.939 -8.66104 5.38572 0
M  V30 854 O 149.509 -6.33544 6.1349 0
M  V30 855 O 148.969 -6.7751 3.72168 0
M  V30 856 C 148.029 -7.20825 2.7076 0
M  V30 857 C 148.759 -7.45864 1.40599 0
M  V30 858 O 148.969 -6.17651 0.734225 0
M  V30 859 C 150.159 -8.05808 1.51899 0
M  V30 860 O 150.549 -8.74358 0.335205 0
M  V30 861 C 151.039 -6.83093 1.70294 0
M  V30 862 C 150.329 -5.79992 0.836974 0
M  V30 863 N 150.379 -4.41864 1.38293 0
M  V30 864 H 147.54 -8.13644 3.0377 0
M  V30 865 H 147.27 -6.42788 2.55485 0
M  V30 866 H 148.137 -8.12039 0.792769 0
M  V30 867 P 152.099 -8.91 9.82044e-15 0
M  V30 868 O 152.319 -10.1726 -0.733694 0
M  V30 869 O 152.889 -8.73148 1.23936 0
M  V30 870 O 152.349 -7.66872 -0.971405 0
M  V30 871 C 151.409 -7.42309 -2.04641 0
M  V30 872 C 152.139 -6.86059 -3.24661 0
M  V30 873 O 152.349 -5.42847 -3.03646 0
M  V30 874 C 153.539 -7.41196 -3.50753 0
M  V30 875 O 153.929 -7.27073 -4.86816 0
M  V30 876 C 154.419 -6.5273 -2.63741 0
M  V30 877 C 153.709 -5.1842 -2.73198 0
M  V30 878 N 153.759 -4.38762 -1.4784 0
M  V30 879 H 150.92 -8.36803 -2.32493 0
M  V30 880 H 150.65 -6.70197 -1.71129 0
M  V30 881 H 151.517 -7.03551 -4.13168 0
M  V30 882 P 155.479 -7.20834 -5.23717 0
M  V30 883 O 155.699 -7.80006 -6.57415 0
M  V30 884 O 156.269 -7.79416 -4.13051 0
M  V30 885 O 155.729 -5.63315 -5.29344 0
M  V30 886 C 154.789 -4.80318 -6.01954 0
M  V30 887 C 155.519 -3.64202 -6.65911 0
M  V30 888 O 155.729 -2.60736 -5.64823 0
M  V30 889 C 156.919 -3.93521 -7.19518 0
M  V30 890 O 157.309 -3.02071 -8.21205 0
M  V30 891 C 157.799 -3.73047 -5.97036 0
M  V30 892 C 157.089 -2.58828 -5.25741 0
M  V30 893 N 157.139 -2.68068 -3.77503 0
M  V30 894 C 157.059 -3.80474 -2.99159 0
M  V30 895 N 157.129 -3.55622 -1.71925 0
M  V30 896 C 157.279 -2.1832 -1.65733 0
M  V30 897 C 157.409 -1.28842 -0.572777 0
M  V30 898 N 157.419 -1.66875 0.70098 0
M  V30 899 N 157.529 0.016788 -0.859836 0
M  V30 900 C 157.519 0.398145 -2.13316 0
M  V30 901 N 157.399 -0.328224 -3.22333 0
M  V30 902 C 157.279 -1.62992 -2.90383 0
M  V30 903 H 154.301 -5.40394 -6.8003 0
M  V30 904 H 154.029 -4.41741 -5.32532 0
M  V30 905 H 154.897 -3.26371 -7.47889 0
M  V30 906 H 157.552 -1.64007 -5.56746 0
M  V30 907 H 157.832 -4.63439 -5.3432 0
M  V30 908 H 158.823 -3.44776 -6.25925 0
M  V30 909 H 156.989 -4.96707 -7.57347 0
M  V30 910 H 156.948 -4.8089 -3.39924 0
M  V30 911 H 157.329 -2.66547 0.941919 0
M  V30 912 H 157.518 -0.965341 1.44766 0
M  V30 913 H 157.626 1.46427 -2.29697 0
M  V30 914 P 158.859 -2.75334 -8.47391 0
M  V30 915 O 159.079 -2.44571 -9.90142 0
M  V30 916 O 159.649 -3.87688 -7.92115 0
M  V30 917 O 159.109 -1.4459 -7.59357 0
M  V30 918 C 158.169 -0.347608 -7.69215 0
M  V30 919 C 158.899 0.96767 -7.52806 0
M  V30 920 O 159.109 1.21036 -6.1011 0
M  V30 921 C 160.299 1.04544 -8.13308 0
M  V30 922 O 160.689 2.38311 -8.41922 0
M  V30 923 C 161.179 0.491279 -7.02284 0
M  V30 924 C 160.469 0.996264 -5.77469 0
M  V30 925 N 160.519 0.0501916 -4.62973 0
M  V30 926 C 160.439 -1.32786 -4.63244 0
M  V30 927 N 160.519 -1.86957 -3.44545 0
M  V30 928 C 160.659 -0.780241 -2.58481 0
M  V30 929 C 160.789 -0.738536 -1.17757 0
M  V30 930 N 160.909 0.58337 -0.711393 0
M  V30 931 C 160.909 1.70816 -1.51017 0
M  V30 932 N 161.039 2.87826 -0.880757 0
M  V30 933 N 160.779 1.67126 -2.8339 0
M  V30 934 C 160.659 0.401421 -3.30572 0
M  V30 935 H 157.68 -0.374722 -8.67691 0
M  V30 936 H 157.41 -0.443485 -6.90277 0
M  V30 937 H 158.277 1.75537 -7.96793 0
M  V30 938 P 162.239 2.75334 -8.47391 0
M  V30 939 O 162.459 3.84128 -9.44797 0
M  V30 940 O 163.029 1.51947 -8.68712 0
M  V30 941 O 162.489 3.29363 -6.99321 0
M  V30 942 C 161.549 4.24011 -6.4274 0
M  V30 943 C 162.279 5.20775 -5.52155 0
M  V30 944 O 162.489 4.56534 -4.22446 0
M  V30 945 C 163.679 5.62629 -5.96531 0
M  V30 946 O 164.069 6.87667 -5.41053 0
M  V30 947 C 164.559 4.52537 -5.39283 0
M  V30 948 C 163.849 4.20027 -4.08623 0
M  V30 949 N 163.899 2.76189 -3.71603 0
M  V30 950 H 161.06 4.797 -7.24003 0
M  V30 951 H 160.79 3.69856 -5.84513 0
M  V30 952 H 161.657 6.10356 -5.41441 0
M  V30 953 P 165.619 7.20834 -5.23717 0
M  V30 954 O 165.839 8.66104 -5.38572 0
M  V30 955 O 166.409 6.33544 -6.1349 0
M  V30 956 O 165.869 6.7751 -3.72168 0
M  V30 957 C 164.929 7.20825 -2.7076 0
M  V30 958 C 165.659 7.45864 -1.40599 0
M  V30 959 O 165.869 6.17651 -0.734225 0
M  V30 960 C 167.059 8.05808 -1.51899 0
M  V30 961 O 167.449 8.74358 -0.335205 0
M  V30 962 C 167.939 6.83093 -1.70294 0
M  V30 963 C 167.229 5.79992 -0.836974 0
M  V30 964 N 167.279 4.41864 -1.38293 0
M  V30 965 H 164.44 8.13644 -3.0377 0
M  V30 966 H 164.17 6.42788 -2.55485 0
M  V30 967 H 165.037 8.12039 -0.792769 0
M  V30 968 P 168.999 8.91 -1.09116e-14 0
M  V30 969 O 169.219 10.1726 0.733694 0
M  V30 970 O 169.789 8.73148 -1.23936 0
M  V30 971 O 169.249 7.66872 0.971405 0
M  V30 972 C 168.309 7.42309 2.04641 0
M  V30 973 C 169.039 6.86059 3.24661 0
M  V30 974 O 169.249 5.42847 3.03646 0
M  V30 975 C 170.439 7.41196 3.50753 0
M  V30 976 O 170.829 7.27073 4.86816 0
M  V30 977 C 171.319 6.5273 2.63741 0
M  V30 978 C 170.609 5.1842 2.73198 0
M  V30 979 N 170.659 4.38762 1.4784 0
M  V30 980 H 167.82 8.36803 2.32493 0
M  V30 981 H 167.55 6.70197 1.71129 0
M  V30 982 H 168.417 7.03551 4.13168 0
M  V30 983 P 172.379 7.20834 5.23717 0
M  V30 984 O 172.599 7.80006 6.57415 0
M  V30 985 O 173.169 7.79416 4.13051 0
M  V30 986 O 172.629 5.63315 5.29344 0
M  V30 987 C 171.689 4.80318 6.01954 0
M  V30 988 C 172.419 3.64202 6.65911 0
M  V30 989 O 172.629 2.60736 5.64823 0
M  V30 990 C 173.819 3.93521 7.19518 0
M  V30 991 O 174.209 3.02071 8.21205 0
M  V30 992 C 174.699 3.73047 5.97036 0
M  V30 993 C 173.989 2.58828 5.25741 0
M  V30 994 N 174.039 2.68068 3.77503 0
M  V30 995 C 173.959 3.80474 2.99159 0
M  V30 996 N 174.029 3.55622 1.71925 0
M  V30 997 C 174.179 2.1832 1.65733 0
M  V30 998 C 174.309 1.28842 0.572777 0
M  V30 999 N 174.319 1.66875 -0.70098 0
M  V30 1000 N 174.429 -0.016788 0.859836 0
M  V30 1001 C 174.419 -0.398145 2.13316 0
M  V30 1002 N 174.299 0.328224 3.22333 0
M  V30 1003 C 174.179 1.62992 2.90383 0
M  V30 1004 H 171.201 5.40394 6.8003 0
M  V30 1005 H 170.929 4.41741 5.32532 0
M  V30 1006 H 171.797 3.26371 7.47889 0
M  V30 1007 H 174.452 1.64007 5.56746 0
M  V30 1008 H 174.732 4.63439 5.3432 0
M  V30 1009 H 175.723 3.44776 6.25925 0
M  V30 1010 H 173.889 4.96707 7.57347 0
M  V30 1011 H 173.848 4.8089 3.39924 0
M  V30 1012 H 174.229 2.66547 -0.941919 0
M  V30 1013 H 174.418 0.965341 -1.44766 0
M  V30 1014 H 174.526 -1.46427 2.29697 0
M  V30 1015 P 175.759 2.75334 8.47391 0
M  V30 1016 O 175.979 2.44619 9.90336 0
M  V30 1017 O 176.549 3.87776 7.92294 0
M  V30 1018 O 176.009 1.4459 7.59357 0
M  V30 1019 C 175.069 0.347653 7.69315 0
M  V30 1020 C 175.799 -0.96767 7.52806 0
M  V30 1021 O 176.009 -1.21055 6.10208 0
M  V30 1022 C 177.199 -1.04557 8.13408 0
M  V30 1023 O 177.589 -2.38311 8.41922 0
M  V30 1024 C 178.079 -0.491279 7.02284 0
M  V30 1025 C 177.369 -0.996264 5.77469 0
M  V30 1026 N 177.419 -0.0501916 4.62973 0
M  V30 1027 C 177.339 1.31969 4.65661 0
M  V30 1028 N 177.409 1.86649 3.48119 0
M  V30 1029 C 177.559 0.792089 2.62406 0
M  V30 1030 C 177.689 0.705684 1.2207 0
M  V30 1031 N 177.699 1.76207 0.413762 0
M  V30 1032 N 177.809 -0.518981 0.685754 0
M  V30 1033 C 177.799 -1.57595 1.49174 0
M  V30 1034 N 177.679 -1.62909 2.80066 0
M  V30 1035 C 177.559 -0.388195 3.3073 0
M  V30 1036 H 174.581 0.374765 8.67791 0
M  V30 1037 H 174.309 0.443613 6.90476 0
M  V30 1038 H 175.177 -1.75559 7.96891 0
M  V30 1039 H 177.832 -1.94563 5.46818 0
M  V30 1040 H 178.112 0.608651 7.04676 0
M  V30 1041 H 179.103 -0.889796 7.09039 0
M  V30 1042 H 177.269 -0.433128 9.04664 0
M  V30 1043 H 177.228 1.89246 5.57664 0
M  V30 1044 H 177.609 2.71005 0.804694 0
M  V30 1045 H 177.798 1.63189 -0.603768 0
M  V30 1046 H 177.906 -2.53475 0.997614 0
M  V30 1047 P 179.139 -2.75334 8.47391 0
M  V30 1048 O 179.359 -3.84128 9.44797 0
M  V30 1049 O 179.929 -1.51947 8.68712 0
M  V30 1050 O 179.389 -3.29363 6.99321 0
M  V30 1051 C 178.449 -4.24011 6.4274 0
M  V30 1052 C 179.179 -5.20775 5.52155 0
M  V30 1053 O 179.389 -4.56534 4.22446 0
M  V30 1054 C 180.579 -5.62629 5.96531 0
M  V30 1055 O 180.969 -6.87667 5.41053 0
M  V30 1056 C 181.459 -4.52537 5.39283 0
M  V30 1057 C 180.749 -4.20027 4.08623 0
M  V30 1058 N 180.799 -2.76189 3.71603 0
M  V30 1059 H 177.96 -4.797 7.24003 0
M  V30 1060 H 177.69 -3.69856 5.84513 0
M  V30 1061 H 178.557 -6.10356 5.41441 0
M  V30 1062 P 182.519 -7.20834 5.23717 0
M  V30 1063 O 182.739 -8.66104 5.38572 0
M  V30 1064 O 183.309 -6.33544 6.1349 0
M  V30 1065 O 182.769 -6.7751 3.72168 0
M  V30 1066 C 181.829 -7.20825 2.7076 0
M  V30 1067 C 182.559 -7.45864 1.40599 0
M  V30 1068 O 182.769 -6.17651 0.734225 0
M  V30 1069 C 183.959 -8.05808 1.51899 0
M  V30 1070 O 184.349 -8.74358 0.335205 0
M  V30 1071 C 184.839 -6.83093 1.70294 0
M  V30 1072 C 184.129 -5.79992 0.836974 0
M  V30 1073 N 184.179 -4.41864 1.38293 0
M  V30 1074 H 181.34 -8.13644 3.0377 0
M  V30 1075 H 181.07 -6.42788 2.55485 0
M  V30 1076 H 181.937 -8.12039 0.792769 0
M  V30 1077 P 185.899 -8.91 -8.29613e-14 0
M  V30 1078 O 186.119 -10.1726 -0.733694 0
M  V30 1079 O 186.689 -8.73148 1.23936 0
M  V30 1080 O 186.149 -7.66872 -0.971405 0
M  V30 1081 C 185.209 -7.42309 -2.04641 0
M  V30 1082 C 185.939 -6.86059 -3.24661 0
M  V30 1083 O 186.149 -5.42847 -3.03646 0
M  V30 1084 C 187.339 -7.41196 -3.50753 0
M  V30 1085 O 187.729 -7.27073 -4.86816 0
M  V30 1086 C 188.219 -6.5273 -2.63741 0
M  V30 1087 C 187.509 -5.1842 -2.73198 0
M  V30 1088 N 187.559 -4.38762 -1.4784 0
M  V30 1089 H 184.72 -8.36803 -2.32493 0
M  V30 1090 H 184.45 -6.70197 -1.71129 0
M  V30 1091 H 185.317 -7.03551 -4.13168 0
M  V30 1092 P 189.279 -7.20834 -5.23717 0
M  V30 1093 O 189.499 -7.79853 -6.57286 0
M  V30 1094 O 190.069 -7.79239 -4.12957 0
M  V30 1095 O 189.529 -5.63315 -5.29344 0
M  V30 1096 C 188.589 -4.80255 -6.01876 0
M  V30 1097 C 189.319 -3.64202 -6.65911 0
M  V30 1098 O 189.529 -2.60694 -5.64732 0
M  V30 1099 C 190.719 -3.93473 -7.1943 0
M  V30 1100 O 191.109 -3.02071 -8.21205 0
M  V30 1101 C 191.599 -3.73047 -5.97036 0
M  V30 1102 C 190.889 -2.58828 -5.25741 0
M  V30 1103 N 190.939 -2.68068 -3.77503 0
M  V30 1104 H 188.1 -5.40332 -6.79951 0
M  V30 1105 H 187.83 -4.41613 -5.32378 0
M  V30 1106 H 188.697 -3.26331 -7.47797 0
M  V30 1107 P 192.659 -2.75334 -8.47391 0
M  V30 1108 O 192.879 -2.44595 -9.90239 0
M  V30 1109 O 193.449 -3.87732 -7.92204 0
M  V30 1110 O 192.909 -1.4459 -7.59357 0
M  V30 1111 C 191.969 -0.347563 -7.69115 0
M  V30 1112 C 192.699 0.96767 -7.52806 0
M  V30 1113 O 192.909 1.21036 -6.1011 0
M  V30 1114 C 194.099 1.04544 -8.13308 0
M  V30 1115 O 194.489 2.38311 -8.41922 0
M  V30 1116 C 194.979 0.491279 -7.02284 0
M  V30 1117 C 194.269 0.996264 -5.77469 0
M  V30 1118 N 194.319 0.0501808 -4.62873 0
M  V30 1119 C 194.469 0.588177 -3.36904 0
M  V30 1120 O 194.559 1.78598 -3.17173 0
M  V30 1121 N 194.509 -0.329694 -2.33686 0
M  V30 1122 C 194.419 -1.6953 -2.45079 0
M  V30 1123 C 194.269 -2.16933 -3.80505 0
M  V30 1124 C 194.219 -1.30326 -4.83752 0
M  V30 1125 H 191.479 -0.374722 -8.67691 0
M  V30 1126 H 191.21 -0.443421 -6.90177 0
M  V30 1127 H 192.077 1.75537 -7.96793 0
M  V30 1128 H 194.732 1.94496 -5.46629 0
M  V30 1129 H 195.011 -0.608651 -7.04676 0
M  V30 1130 H 196.003 0.889672 -7.08939 0
M  V30 1131 H 194.169 0.43308 -9.04564 0
M  V30 1132 H 194.098 -1.68366 -5.8516 0
M  V30 1133 P 196.039 2.75334 -8.47391 0
M  V30 1134 O 196.259 3.84128 -9.44797 0
M  V30 1135 O 196.829 1.51947 -8.68712 0
M  V30 1136 O 196.289 3.29363 -6.99321 0
M  V30 1137 C 195.349 4.24011 -6.4274 0
M  V30 1138 C 196.079 5.20775 -5.52155 0
M  V30 1139 O 196.289 4.56534 -4.22446 0
M  V30 1140 C 197.479 5.62629 -5.96531 0
M  V30 1141 O 197.869 6.87667 -5.41053 0
M  V30 1142 C 198.359 4.52537 -5.39283 0
M  V30 1143 C 197.649 4.20027 -4.08623 0
M  V30 1144 N 197.699 2.76189 -3.71603 0
M  V30 1145 H 194.86 4.797 -7.24003 0
M  V30 1146 H 194.59 3.69856 -5.84513 0
M  V30 1147 H 195.457 6.10356 -5.41441 0
M  V30 1148 P 199.419 7.20834 -5.23717 0
M  V30 1149 O 199.639 8.66104 -5.38572 0
M  V30 1150 O 200.209 6.33544 -6.1349 0
M  V30 1151 O 199.669 6.7751 -3.72168 0
M  V30 1152 C 198.729 7.20825 -2.7076 0
M  V30 1153 C 199.459 7.45864 -1.40599 0
M  V30 1154 O 199.669 6.17651 -0.734225 0
M  V30 1155 C 200.859 8.05808 -1.51899 0
M  V30 1156 O 201.249 8.74358 -0.335205 0
M  V30 1157 C 201.739 6.83093 -1.70294 0
M  V30 1158 C 201.029 5.79992 -0.836974 0
M  V30 1159 N 201.079 4.41864 -1.38293 0
M  V30 1160 H 198.24 8.13644 -3.0377 0
M  V30 1161 H 197.97 6.42788 -2.55485 0
M  V30 1162 H 198.837 8.12039 -0.792769 0
M  V30 1163 P 202.799 8.91 2.40144e-13 0
M  V30 1164 O 203.019 10.1746 0.733838 0
M  V30 1165 O 203.589 8.73346 -1.23964 0
M  V30 1166 O 203.049 7.66872 0.971405 0
M  V30 1167 C 202.109 7.42405 2.04668 0
M  V30 1168 C 202.839 6.86059 3.24661 0
M  V30 1169 O 203.049 5.42934 3.03695 0
M  V30 1170 C 204.239 7.41287 3.50796 0
M  V30 1171 O 204.629 7.27073 4.86816 0
M  V30 1172 C 205.119 6.5273 2.63741 0
M  V30 1173 C 204.409 5.1842 2.73198 0
M  V30 1174 N 204.459 4.38762 1.4784 0
M  V30 1175 H 201.621 8.36899 2.3252 0
M  V30 1176 H 201.349 6.70391 1.71179 0
M  V30 1177 H 202.217 7.03638 4.13219 0
M  V30 1178 H 204.872 4.59931 3.54016 0
M  V30 1179 H 205.152 6.88995 1.59871 0
M  V30 1180 H 206.143 6.4684 3.0373 0
M  V30 1181 H 204.309 8.47002 3.20749 0
M  V30 1182 P 206.179 7.20834 5.23717 0
M  V30 1183 O 206.399 7.79853 6.57286 0
M  V30 1184 O 206.969 7.79239 4.12957 0
M  V30 1185 O 206.429 5.63315 5.29344 0
M  V30 1186 C 205.489 4.80255 6.01876 0
M  V30 1187 C 206.219 3.64202 6.65911 0
M  V30 1188 O 206.429 2.60694 5.64732 0
M  V30 1189 C 207.619 3.93473 7.1943 0
M  V30 1190 O 208.009 3.02071 8.21205 0
M  V30 1191 C 208.499 3.73047 5.97036 0
M  V30 1192 C 207.789 2.58828 5.25741 0
M  V30 1193 N 207.839 2.68068 3.77503 0
M  V30 1194 H 205 5.40332 6.79951 0
M  V30 1195 H 204.73 4.41613 5.32378 0
M  V30 1196 H 205.597 3.26331 7.47797 0
M  V30 1197 P 209.559 2.75334 8.47391 0
M  V30 1198 O 209.779 2.44619 9.90336 0
M  V30 1199 O 210.349 3.87776 7.92294 0
M  V30 1200 O 209.809 1.4459 7.59357 0
M  V30 1201 C 208.869 0.347653 7.69315 0
M  V30 1202 C 209.599 -0.96767 7.52806 0
M  V30 1203 O 209.809 -1.21055 6.10208 0
M  V30 1204 C 210.999 -1.04557 8.13408 0
M  V30 1205 O 211.389 -2.38311 8.41922 0
M  V30 1206 C 211.879 -0.491279 7.02284 0
M  V30 1207 C 211.169 -0.996264 5.77469 0
M  V30 1208 N 211.219 -0.0501916 4.62973 0
M  V30 1209 C 211.139 1.31969 4.65661 0
M  V30 1210 N 211.209 1.86649 3.48119 0
M  V30 1211 C 211.359 0.792089 2.62406 0
M  V30 1212 C 211.489 0.705684 1.2207 0
M  V30 1213 N 211.499 1.76207 0.413762 0
M  V30 1214 N 211.609 -0.518981 0.685754 0
M  V30 1215 C 211.599 -1.57595 1.49174 0
M  V30 1216 N 211.479 -1.62909 2.80066 0
M  V30 1217 C 211.359 -0.388195 3.3073 0
M  V30 1218 H 208.381 0.374765 8.67791 0
M  V30 1219 H 208.109 0.443613 6.90476 0
M  V30 1220 H 208.977 -1.75559 7.96891 0
M  V30 1221 H 211.632 -1.94563 5.46818 0
M  V30 1222 H 211.912 0.608651 7.04676 0
M  V30 1223 H 212.903 -0.889796 7.09039 0
M  V30 1224 H 211.069 -0.433128 9.04664 0
M  V30 1225 H 211.028 1.89246 5.57664 0
M  V30 1226 H 211.409 2.71005 0.804694 0
M  V30 1227 H 211.598 1.63189 -0.603768 0
M  V30 1228 H 211.706 -2.53475 0.997614 0
M  V30 1229 P 212.939 -2.75334 8.47391 0
M  V30 1230 O 213.159 -3.84128 9.44797 0
M  V30 1231 O 213.729 -1.51947 8.68712 0
M  V30 1232 O 213.189 -3.29363 6.99321 0
M  V30 1233 C 212.249 -4.24011 6.4274 0
M  V30 1234 C 212.979 -5.20775 5.52155 0
M  V30 1235 O 213.189 -4.56534 4.22446 0
M  V30 1236 C 214.379 -5.62629 5.96531 0
M  V30 1237 O 214.769 -6.87667 5.41053 0
M  V30 1238 C 215.259 -4.52537 5.39283 0
M  V30 1239 C 214.549 -4.20027 4.08623 0
M  V30 1240 N 214.599 -2.76189 3.71603 0
M  V30 1241 H 211.76 -4.797 7.24003 0
M  V30 1242 H 211.49 -3.69856 5.84513 0
M  V30 1243 H 212.357 -6.10356 5.41441 0
M  V30 1244 P 216.319 -7.20834 5.23717 0
M  V30 1245 O 216.539 -8.66104 5.38572 0
M  V30 1246 O 217.109 -6.33544 6.1349 0
M  V30 1247 O 216.569 -6.7751 3.72168 0
M  V30 1248 C 215.629 -7.20825 2.7076 0
M  V30 1249 C 216.359 -7.45864 1.40599 0
M  V30 1250 O 216.569 -6.17651 0.734225 0
M  V30 1251 C 217.759 -8.05808 1.51899 0
M  V30 1252 O 218.149 -8.74358 0.335205 0
M  V30 1253 C 218.639 -6.83093 1.70294 0
M  V30 1254 C 217.929 -5.79992 0.836974 0
M  V30 1255 N 217.979 -4.41864 1.38293 0
M  V30 1256 H 215.14 -8.13644 3.0377 0
M  V30 1257 H 214.87 -6.42788 2.55485 0
M  V30 1258 H 215.737 -8.12039 0.792769 0
M  V30 1259 P 219.699 -8.91 -3.97326e-13 0
M  V30 1260 O 219.919 -10.1726 -0.733694 0
M  V30 1261 O 220.489 -8.73148 1.23936 0
M  V30 1262 O 219.949 -7.66872 -0.971405 0
M  V30 1263 C 219.009 -7.42309 -2.04641 0
M  V30 1264 C 219.739 -6.86059 -3.24661 0
M  V30 1265 O 219.949 -5.42847 -3.03646 0
M  V30 1266 C 221.139 -7.41196 -3.50753 0
M  V30 1267 O 221.529 -7.27073 -4.86816 0
M  V30 1268 C 222.019 -6.5273 -2.63741 0
M  V30 1269 C 221.309 -5.1842 -2.73198 0
M  V30 1270 N 221.359 -4.38762 -1.4784 0
M  V30 1271 H 218.52 -8.36803 -2.32493 0
M  V30 1272 H 218.25 -6.70197 -1.71129 0
M  V30 1273 H 219.117 -7.03551 -4.13168 0
M  V30 1274 P 223.079 -7.20834 -5.23717 0
M  V30 1275 O 223.299 -7.79853 -6.57286 0
M  V30 1276 O 223.869 -7.79239 -4.12957 0
M  V30 1277 O 223.329 -5.63315 -5.29344 0
M  V30 1278 C 222.389 -4.80255 -6.01876 0
M  V30 1279 C 223.119 -3.64202 -6.65911 0
M  V30 1280 O 223.329 -2.60694 -5.64732 0
M  V30 1281 C 224.519 -3.93473 -7.1943 0
M  V30 1282 O 224.909 -3.02071 -8.21205 0
M  V30 1283 C 225.399 -3.73047 -5.97036 0
M  V30 1284 C 224.689 -2.58828 -5.25741 0
M  V30 1285 N 224.739 -2.68068 -3.77503 0
M  V30 1286 H 221.9 -5.40332 -6.79951 0
M  V30 1287 H 221.63 -4.41613 -5.32378 0
M  V30 1288 H 222.497 -3.26331 -7.47797 0
M  V30 1289 P 226.459 -2.75334 -8.47391 0
M  V30 1290 O 226.679 -2.44571 -9.90142 0
M  V30 1291 O 227.249 -3.87688 -7.92115 0
M  V30 1292 O 226.709 -1.4459 -7.59357 0
M  V30 1293 C 225.769 -0.347608 -7.69215 0
M  V30 1294 C 226.499 0.96767 -7.52806 0
M  V30 1295 O 226.709 1.21036 -6.1011 0
M  V30 1296 C 227.899 1.04544 -8.13308 0
M  V30 1297 O 228.289 2.38311 -8.41922 0
M  V30 1298 C 228.779 0.491279 -7.02284 0
M  V30 1299 C 228.069 0.996264 -5.77469 0
M  V30 1300 N 228.119 0.0501916 -4.62973 0
M  V30 1301 H 225.28 -0.374722 -8.67691 0
M  V30 1302 H 225.01 -0.443485 -6.90277 0
M  V30 1303 H 225.877 1.75537 -7.96793 0
M  V30 1304 P 229.839 2.75334 -8.47391 0
M  V30 1305 O 230.059 3.84128 -9.44797 0
M  V30 1306 O 230.629 1.51947 -8.68712 0
M  V30 1307 O 230.089 3.29363 -6.99321 0
M  V30 1308 C 229.149 4.24011 -6.4274 0
M  V30 1309 C 229.879 5.20775 -5.52155 0
M  V30 1310 O 230.089 4.56534 -4.22446 0
M  V30 1311 C 231.279 5.62629 -5.96531 0
M  V30 1312 O 231.669 6.87667 -5.41053 0
M  V30 1313 C 232.159 4.52537 -5.39283 0
M  V30 1314 C 231.449 4.20027 -4.08623 0
M  V30 1315 N 231.499 2.76189 -3.71603 0
M  V30 1316 H 228.66 4.797 -7.24003 0
M  V30 1317 H 228.39 3.69856 -5.84513 0
M  V30 1318 H 229.257 6.10356 -5.41441 0
M  V30 1319 P 233.219 7.20834 -5.23717 0
M  V30 1320 O 233.439 8.66104 -5.38572 0
M  V30 1321 O 234.009 6.33544 -6.1349 0
M  V30 1322 O 233.469 6.7751 -3.72168 0
M  V30 1323 C 232.529 7.20825 -2.7076 0
M  V30 1324 C 233.259 7.45864 -1.40599 0
M  V30 1325 O 233.469 6.17651 -0.734225 0
M  V30 1326 C 234.659 8.05808 -1.51899 0
M  V30 1327 O 235.049 8.74358 -0.335205 0
M  V30 1328 C 235.539 6.83093 -1.70294 0
M  V30 1329 C 234.829 5.79992 -0.836974 0
M  V30 1330 N 234.879 4.41864 -1.38293 0
M  V30 1331 H 232.04 8.13644 -3.0377 0
M  V30 1332 H 231.77 6.42788 -2.55485 0
M  V30 1333 H 232.637 8.12039 -0.792769 0
M  V30 1334 P 236.599 8.91 5.54508e-13 0
M  V30 1335 O 236.819 10.1726 0.733694 0
M  V30 1336 O 237.389 8.73148 -1.23936 0
M  V30 1337 O 236.849 7.66872 0.971405 0
M  V30 1338 C 235.909 7.42309 2.04641 0
M  V30 1339 C 236.639 6.86059 3.24661 0
M  V30 1340 O 236.849 5.42847 3.03646 0
M  V30 1341 C 238.039 7.41196 3.50753 0
M  V30 1342 O 238.429 7.27073 4.86816 0
M  V30 1343 C 238.919 6.5273 2.63741 0
M  V30 1344 C 238.209 5.1842 2.73198 0
M  V30 1345 N 238.259 4.38762 1.4784 0
M  V30 1346 H 235.42 8.36803 2.32493 0
M  V30 1347 H 235.15 6.70197 1.71129 0
M  V30 1348 H 236.017 7.03551 4.13168 0
M  V30 1349 P 239.979 7.20834 5.23717 0
M  V30 1350 O 240.199 7.79853 6.57286 0
M  V30 1351 O 240.769 7.79239 4.12957 0
M  V30 1352 O 240.229 5.63315 5.29344 0
M  V30 1353 C 239.289 4.80255 6.01876 0
M  V30 1354 C 240.019 3.64202 6.65911 0
M  V30 1355 O 240.229 2.60694 5.64732 0
M  V30 1356 C 241.419 3.93473 7.1943 0
M  V30 1357 O 241.809 3.02071 8.21205 0
M  V30 1358 C 242.299 3.73047 5.97036 0
M  V30 1359 C 241.589 2.58828 5.25741 0
M  V30 1360 N 241.639 2.68068 3.77503 0
M  V30 1361 C 241.559 3.79715 2.96723 0
M  V30 1362 N 241.639 3.5377 1.68852 0
M  V30 1363 C 241.779 2.15054 1.63254 0
M  V30 1364 C 241.909 1.28964 0.518571 0
M  V30 1365 N 242.029 -0.0538097 0.918425 0
M  V30 1366 C 242.029 -0.494275 2.22578 0
M  V30 1367 N 242.159 -1.81086 2.40434 0
M  V30 1368 N 241.899 0.313645 3.27502 0
M  V30 1369 C 241.779 1.61829 2.91033 0
M  V30 1370 H 238.8 5.40332 6.79951 0
M  V30 1371 H 238.53 4.41613 5.32378 0
M  V30 1372 H 239.397 3.26331 7.47797 0
M  V30 1373 P 243.359 2.75334 8.47391 0
M  V30 1374 O 243.579 2.44571 9.90142 0
M  V30 1375 O 244.149 3.87688 7.92115 0
M  V30 1376 O 243.609 1.4459 7.59357 0
M  V30 1377 C 242.669 0.347608 7.69215 0
M  V30 1378 C 243.399 -0.96767 7.52806 0
M  V30 1379 O 243.609 -1.21036 6.1011 0
M  V30 1380 C 244.799 -1.04544 8.13308 0
M  V30 1381 O 245.189 -2.38311 8.41922 0
M  V30 1382 C 245.679 -0.491279 7.02284 0
M  V30 1383 C 244.969 -0.996264 5.77469 0
M  V30 1384 N 245.019 -0.0501916 4.62973 0
M  V30 1385 H 242.18 0.374722 8.67691 0
M  V30 1386 H 241.91 0.443485 6.90277 0
M  V30 1387 H 242.777 -1.75537 7.96793 0
M  V30 1388 P 246.739 -2.75334 8.47391 0
M  V30 1389 O 246.959 -3.84128 9.44797 0
M  V30 1390 O 247.529 -1.51947 8.68712 0
M  V30 1391 O 246.989 -3.29363 6.99321 0
M  V30 1392 C 246.049 -4.24011 6.4274 0
M  V30 1393 C 246.779 -5.20775 5.52155 0
M  V30 1394 O 246.989 -4.56534 4.22446 0
M  V30 1395 C 248.179 -5.62629 5.96531 0
M  V30 1396 O 248.569 -6.87667 5.41053 0
M  V30 1397 C 249.059 -4.52537 5.39283 0
M  V30 1398 C 248.349 -4.20027 4.08623 0
M  V30 1399 N 248.399 -2.76189 3.71603 0
M  V30 1400 C 248.319 -1.64862 4.52822 0
M  V30 1401 N 248.399 -0.512671 3.88633 0
M  V30 1402 C 248.539 -0.888083 2.54977 0
M  V30 1403 C 248.669 -0.094668 1.38677 0
M  V30 1404 O 248.689 1.13053 1.28163 0
M  V30 1405 N 248.789 -0.890102 0.232633 0
M  V30 1406 C 248.789 -2.26958 0.21772 0
M  V30 1407 N 248.919 -2.84626 -0.97925 0
M  V30 1408 N 248.659 -3.0178 1.31033 0
M  V30 1409 C 248.539 -2.26781 2.43843 0
M  V30 1410 H 245.56 -4.797 7.24003 0
M  V30 1411 H 245.29 -3.69856 5.84513 0
M  V30 1412 H 246.157 -6.10356 5.41441 0
M  V30 1413 H 248.812 -4.79061 3.27488 0
M  V30 1414 H 249.091 -3.64906 6.05785 0
M  V30 1415 H 250.083 -4.8868 5.2125 0
M  V30 1416 H 248.249 -5.66726 7.06352 0
M  V30 1417 H 248.2 -1.71169 5.60966 0
M  V30 1418 H 248.882 -0.419134 -0.644739 0
M  V30 1419 H 248.919 -3.87332 -1.06098 0
M  V30 1420 H 249.02 -2.26417 -1.82483 0
M  V30 1421 P 250.119 -7.20834 5.23717 0
M  V30 1422 O 250.339 -8.66104 5.38572 0
M  V30 1423 O 250.909 -6.33544 6.1349 0
M  V30 1424 O 250.369 -6.7751 3.72168 0
M  V30 1425 C 249.429 -7.20825 2.7076 0
M  V30 1426 C 250.159 -7.45864 1.40599 0
M  V30 1427 O 250.369 -6.17651 0.734225 0
M  V30 1428 C 251.559 -8.05808 1.51899 0
M  V30 1429 O 251.949 -8.74358 0.335205 0
M  V30 1430 C 252.439 -6.83093 1.70294 0
M  V30 1431 C 251.729 -5.79992 0.836974 0
M  V30 1432 N 251.779 -4.41864 1.38293 0
M  V30 1433 H 248.94 -8.13644 3.0377 0
M  V30 1434 H 248.67 -6.42788 2.55485 0
M  V30 1435 H 249.537 -8.12039 0.792769 0
M  V30 1436 P 253.498 -8.91 -7.1169e-13 0
M  V30 1437 O 253.718 -10.1726 -0.733694 0
M  V30 1438 O 254.288 -8.73148 1.23936 0
M  V30 1439 O 253.748 -7.66872 -0.971405 0
M  V30 1440 C 252.808 -7.42309 -2.04641 0
M  V30 1441 C 253.538 -6.86059 -3.24661 0
M  V30 1442 O 253.748 -5.42847 -3.03646 0
M  V30 1443 C 254.938 -7.41196 -3.50753 0
M  V30 1444 O 255.328 -7.27073 -4.86816 0
M  V30 1445 C 255.818 -6.5273 -2.63741 0
M  V30 1446 C 255.108 -5.1842 -2.73198 0
M  V30 1447 N 255.158 -4.38762 -1.4784 0
M  V30 1448 C 255.078 -4.81605 -0.168631 0
M  V30 1449 N 255.158 -3.85454 0.713363 0
M  V30 1450 C 255.298 -2.6994 -0.0566958 0
M  V30 1451 C 255.428 -1.34815 0.338502 0
M  V30 1452 N 255.548 -0.496304 -0.77465 0
M  V30 1453 C 255.548 -0.908403 -2.09122 0
M  V30 1454 N 255.678 0.0517805 -3.00955 0
M  V30 1455 N 255.418 -2.17875 -2.46519 0
M  V30 1456 C 255.298 -3.01988 -1.4033 0
M  V30 1457 H 252.319 -8.36803 -2.32493 0
M  V30 1458 H 252.049 -6.70197 -1.71129 0
M  V30 1459 H 252.916 -7.03551 -4.13168 0
M  V30 1460 P 256.878 -7.20834 -5.23717 0
M  V30 1461 O 257.098 -7.79853 -6.57286 0
M  V30 1462 O 257.668 -7.79239 -4.12957 0
M  V30 1463 O 257.128 -5.63315 -5.29344 0
M  V30 1464 C 256.188 -4.80255 -6.01876 0
M  V30 1465 C 256.918 -3.64202 -6.65911 0
M  V30 1466 O 257.128 -2.60694 -5.64732 0
M  V30 1467 C 258.318 -3.93473 -7.1943 0
M  V30 1468 O 258.708 -3.02071 -8.21205 0
M  V30 1469 C 259.198 -3.73047 -5.97036 0
M  V30 1470 C 258.488 -2.58828 -5.25741 0
M  V30 1471 N 258.538 -2.68068 -3.77503 0
M  V30 1472 H 255.699 -5.40332 -6.79951 0
M  V30 1473 H 255.429 -4.41613 -5.32378 0
M  V30 1474 H 256.296 -3.26331 -7.47797 0
M  V30 1475 P 260.258 -2.75334 -8.47391 0
M  V30 1476 O 260.478 -2.44571 -9.90142 0
M  V30 1477 O 261.048 -3.87688 -7.92115 0
M  V30 1478 O 260.508 -1.4459 -7.59357 0
M  V30 1479 C 259.568 -0.347608 -7.69215 0
M  V30 1480 C 260.298 0.96767 -7.52806 0
M  V30 1481 O 260.508 1.21036 -6.1011 0
M  V30 1482 C 261.698 1.04544 -8.13308 0
M  V30 1483 O 262.088 2.38311 -8.41922 0
M  V30 1484 C 262.578 0.491279 -7.02284 0
M  V30 1485 C 261.868 0.996264 -5.77469 0
M  V30 1486 N 261.918 0.0501916 -4.62973 0
M  V30 1487 H 259.079 -0.374722 -8.67691 0
M  V30 1488 H 258.809 -0.443485 -6.90277 0
M  V30 1489 H 259.676 1.75537 -7.96793 0
M  V30 1490 P 263.638 2.75334 -8.47391 0
M  V30 1491 O 263.858 3.84204 -9.44982 0
M  V30 1492 O 264.428 1.51982 -8.68909 0
M  V30 1493 O 263.888 3.29363 -6.99321 0
M  V30 1494 C 262.948 4.24066 -6.42823 0
M  V30 1495 C 263.678 5.20775 -5.52155 0
M  V30 1496 O 263.888 4.56607 -4.22514 0
M  V30 1497 C 265.078 5.62697 -5.96604 0
M  V30 1498 O 265.468 6.87667 -5.41053 0
M  V30 1499 C 265.958 4.52537 -5.39283 0
M  V30 1500 C 265.248 4.20027 -4.08623 0
M  V30 1501 N 265.298 2.76189 -3.71603 0
M  V30 1502 C 265.218 1.66944 -4.54297 0
M  V30 1503 N 265.288 0.536169 -3.91344 0
M  V30 1504 C 265.438 0.901569 -2.58849 0
M  V30 1505 C 265.568 0.146599 -1.40236 0
M  V30 1506 N 265.578 -1.18234 -1.37046 0
M  V30 1507 N 265.688 0.822941 -0.249738 0
M  V30 1508 C 265.678 2.15179 -0.280525 0
M  V30 1509 N 265.558 2.96414 -1.30822 0
M  V30 1510 C 265.438 2.25804 -2.44748 0
M  V30 1511 H 262.46 4.79756 -7.24086 0
M  V30 1512 H 262.188 3.69963 -5.84682 0
M  V30 1513 H 263.056 6.10431 -5.41508 0
M  V30 1514 H 265.711 4.78816 -3.28024 0
M  V30 1515 H 265.991 3.64957 -6.05871 0
M  V30 1516 H 266.982 4.88748 -5.21323 0
M  V30 1517 H 265.148 5.66789 -7.0643 0
M  V30 1518 H 265.107 1.74684 -5.62396 0
M  V30 1519 H 265.488 -1.71949 -2.24394 0
M  V30 1520 H 265.677 -1.67511 -0.470742 0
M  V30 1521 H 265.785 2.63704 0.6828 0
M  V30 1522 P 267.018 7.20834 -5.23717 0
M  V30 1523 O 267.238 8.66104 -5.38572 0
M  V30 1524 O 267.808 6.33544 -6.1349 0
M  V30 1525 O 267.268 6.7751 -3.72168 0
M  V30 1526 C 266.328 7.20825 -2.7076 0
M  V30 1527 C 267.058 7.45864 -1.40599 0
M  V30 1528 O 267.268 6.17651 -0.734225 0
M  V30 1529 C 268.458 8.05808 -1.51899 0
M  V30 1530 O 268.848 8.74358 -0.335205 0
M  V30 1531 C 269.338 6.83093 -1.70294 0
M  V30 1532 C 268.628 5.79992 -0.836974 0
M  V30 1533 N 268.678 4.41864 -1.38293 0
M  V30 1534 H 265.839 8.13644 -3.0377 0
M  V30 1535 H 265.569 6.42788 -2.55485 0
M  V30 1536 H 266.436 8.12039 -0.792769 0
M  V30 1537 P 270.398 8.91 8.68872e-13 0
M  V30 1538 O 270.618 10.1726 0.733694 0
M  V30 1539 O 271.188 8.73148 -1.23936 0
M  V30 1540 O 270.648 7.66872 0.971405 0
M  V30 1541 C 269.708 7.42309 2.04641 0
M  V30 1542 C 270.438 6.86059 3.24661 0
M  V30 1543 O 270.648 5.42847 3.03646 0
M  V30 1544 C 271.838 7.41196 3.50753 0
M  V30 1545 O 272.228 7.27073 4.86816 0
M  V30 1546 C 272.718 6.5273 2.63741 0
M  V30 1547 C 272.008 5.1842 2.73198 0
M  V30 1548 N 272.058 4.38762 1.4784 0
M  V30 1549 H 269.219 8.36803 2.32493 0
M  V30 1550 H 268.949 6.70197 1.71129 0
M  V30 1551 H 269.816 7.03551 4.13168 0
M  V30 1552 P 273.778 7.20834 5.23717 0
M  V30 1553 O 273.998 7.79853 6.57286 0
M  V30 1554 O 274.568 7.79239 4.12957 0
M  V30 1555 O 274.028 5.63315 5.29344 0
M  V30 1556 C 273.088 4.80255 6.01876 0
M  V30 1557 C 273.818 3.64202 6.65911 0
M  V30 1558 O 274.028 2.60694 5.64732 0
M  V30 1559 C 275.218 3.93473 7.1943 0
M  V30 1560 O 275.608 3.02071 8.21205 0
M  V30 1561 C 276.098 3.73047 5.97036 0
M  V30 1562 C 275.388 2.58828 5.25741 0
M  V30 1563 N 275.438 2.68068 3.77503 0
M  V30 1564 C 275.358 3.79715 2.96723 0
M  V30 1565 N 275.438 3.5377 1.68852 0
M  V30 1566 C 275.578 2.15054 1.63254 0
M  V30 1567 C 275.708 1.28964 0.518571 0
M  V30 1568 N 275.828 -0.0538097 0.918425 0
M  V30 1569 C 275.828 -0.494275 2.22578 0
M  V30 1570 N 275.958 -1.81086 2.40434 0
M  V30 1571 N 275.698 0.313645 3.27502 0
M  V30 1572 C 275.578 1.61829 2.91033 0
M  V30 1573 H 272.599 5.40332 6.79951 0
M  V30 1574 H 272.329 4.41613 5.32378 0
M  V30 1575 H 273.196 3.26331 7.47797 0
M  V30 1576 P 277.158 2.75334 8.47391 0
M  V30 1577 O 277.378 2.44619 9.90336 0
M  V30 1578 O 277.948 3.87776 7.92294 0
M  V30 1579 O 277.408 1.4459 7.59357 0
M  V30 1580 C 276.468 0.347653 7.69315 0
M  V30 1581 C 277.198 -0.96767 7.52806 0
M  V30 1582 O 277.408 -1.21055 6.10208 0
M  V30 1583 C 278.598 -1.04557 8.13408 0
M  V30 1584 O 278.988 -2.38311 8.41922 0
M  V30 1585 C 279.478 -0.491279 7.02284 0
M  V30 1586 C 278.768 -0.996264 5.77469 0
M  V30 1587 N 278.818 -0.0501916 4.62973 0
M  V30 1588 C 278.738 1.31969 4.65661 0
M  V30 1589 N 278.808 1.86649 3.48119 0
M  V30 1590 C 278.958 0.792089 2.62406 0
M  V30 1591 C 279.088 0.705684 1.2207 0
M  V30 1592 N 279.098 1.76207 0.413762 0
M  V30 1593 N 279.208 -0.518981 0.685754 0
M  V30 1594 C 279.198 -1.57595 1.49174 0
M  V30 1595 N 279.078 -1.62909 2.80066 0
M  V30 1596 C 278.958 -0.388195 3.3073 0
M  V30 1597 H 275.98 0.374765 8.67791 0
M  V30 1598 H 275.708 0.443613 6.90476 0
M  V30 1599 H 276.576 -1.75559 7.96891 0
M  V30 1600 H 279.231 -1.94563 5.46818 0
M  V30 1601 H 279.511 0.608651 7.04676 0
M  V30 1602 H 280.502 -0.889796 7.09039 0
M  V30 1603 H 278.668 -0.433128 9.04664 0
M  V30 1604 H 278.627 1.89246 5.57664 0
M  V30 1605 H 279.008 2.71005 0.804694 0
M  V30 1606 H 279.197 1.63189 -0.603768 0
M  V30 1607 H 279.305 -2.53475 0.997614 0
M  V30 1608 P 280.538 -2.75334 8.47391 0
M  V30 1609 O 280.758 -3.84166 9.4489 0
M  V30 1610 O 281.328 -1.51964 8.6881 0
M  V30 1611 O 280.788 -3.29363 6.99321 0
M  V30 1612 C 279.848 -4.24011 6.4274 0
M  V30 1613 C 280.578 -5.20775 5.52155 0
M  V30 1614 O 280.788 -4.56534 4.22446 0
M  V30 1615 C 281.978 -5.62629 5.96531 0
M  V30 1616 O 282.368 -6.87667 5.41053 0
M  V30 1617 C 282.858 -4.52537 5.39283 0
M  V30 1618 C 282.148 -4.20027 4.08623 0
M  V30 1619 N 282.198 -2.7613 3.71522 0
M  V30 1620 C 282.348 -2.43702 2.37085 0
M  V30 1621 O 282.438 -3.3531 1.54039 0
M  V30 1622 N 282.398 -0.951103 2.10621 0
M  V30 1623 C 282.298 -0.165021 2.93537 0
M  V30 1624 N 282.348 1.09723 2.53253 0
M  V30 1625 C 282.148 -0.469576 4.32458 0
M  V30 1626 C 282.098 -1.78658 4.65921 0
M  V30 1627 H 279.358 -4.79645 7.23919 0
M  V30 1628 H 279.089 -3.69802 5.84429 0
M  V30 1629 H 279.956 -6.10431 5.41508 0
M  V30 1630 H 282.611 -4.78733 3.27967 0
M  V30 1631 H 282.89 -3.64957 6.05871 0
M  V30 1632 H 283.882 -4.8868 5.2125 0
M  V30 1633 H 282.048 -5.66726 7.06352 0
M  V30 1634 H 281.976 -2.06987 5.70299 0
M  V30 1635 H 282.078 0.314383 5.07728 0
M  V30 1636 H 282.466 1.31363 1.5319 0
M  V30 1637 H 282.269 1.85978 3.21943 0
M  V30 1638 P 283.918 -7.20834 5.23717 0
M  V30 1639 O 284.138 -8.66104 5.38572 0
M  V30 1640 O 284.708 -6.33544 6.1349 0
M  V30 1641 O 284.168 -6.7751 3.72168 0
M  V30 1642 C 283.228 -7.20825 2.7076 0
M  V30 1643 C 283.958 -7.45864 1.40599 0
M  V30 1644 O 284.168 -6.17651 0.734225 0
M  V30 1645 C 285.358 -8.05808 1.51899 0
M  V30 1646 O 285.748 -8.74358 0.335205 0
M  V30 1647 C 286.238 -6.83093 1.70294 0
M  V30 1648 C 285.528 -5.79992 0.836974 0
M  V30 1649 N 285.578 -4.41864 1.38293 0
M  V30 1650 H 282.739 -8.13644 3.0377 0
M  V30 1651 H 282.469 -6.42788 2.55485 0
M  V30 1652 H 283.336 -8.12039 0.792769 0
M  V30 1653 P 287.298 -8.91 -1.02605e-12 0
M  V30 1654 O 287.518 -10.1736 -0.733766 0
M  V30 1655 O 288.088 -8.73247 1.2395 0
M  V30 1656 O 287.548 -7.66872 -0.971405 0
M  V30 1657 C 286.608 -7.42212 -2.04614 0
M  V30 1658 C 287.338 -6.86059 -3.24661 0
M  V30 1659 O 287.548 -5.42847 -3.03646 0
M  V30 1660 C 288.738 -7.41196 -3.50753 0
M  V30 1661 O 289.128 -7.27073 -4.86816 0
M  V30 1662 C 289.618 -6.5273 -2.63741 0
M  V30 1663 C 288.908 -5.1842 -2.73198 0
M  V30 1664 N 288.958 -4.38668 -1.47808 0
M  V30 1665 C 289.108 -3.02239 -1.60048 0
M  V30 1666 O 289.198 -2.46459 -2.67869 0
M  V30 1667 N 289.148 -2.32436 -0.408571 0
M  V30 1668 C 289.058 -2.85471 0.854993 0
M  V30 1669 O 289.108 -2.12566 1.8531 0
M  V30 1670 C 288.908 -4.28918 0.887335 0
M  V30 1671 C 288.798 -4.91066 2.24619 0
M  V30 1672 C 288.858 -5.00349 -0.255399 0
M  V30 1673 H 286.118 -8.36803 -2.32493 0
M  V30 1674 H 285.849 -6.701 -1.71105 0
M  V30 1675 H 286.716 -7.03551 -4.13168 0
M  V30 1676 H 289.371 -4.59773 -3.53894 0
M  V30 1677 H 289.65 -6.88995 -1.59871 0
M  V30 1678 H 290.642 -6.46749 -3.03687 0
M  V30 1679 H 288.808 -8.46908 -3.20714 0
M  V30 1680 H 288.737 -6.08548 -0.206986 0
M  V30 1681 H 289.767 -5.34836 2.53099 0
M  V30 1682 H 288.03 -5.69638 2.2291 0
M  V30 1683 H 288.518 -4.13971 2.98044 0
M  V30 1684 H 289.254 -1.33211 -0.474216 0
M  V30 1685 P 290.678 -7.20834 -5.23717 0
M  V30 1686 O 290.898 -7.80006 -6.57415 0
M  V30 1687 O 291.468 -7.79416 -4.13051 0
M  V30 1688 O 290.928 -5.63315 -5.29344 0
M  V30 1689 C 289.988 -4.80318 -6.01954 0
M  V30 1690 C 290.718 -3.64202 -6.65911 0
M  V30 1691 O 290.928 -2.60736 -5.64823 0
M  V30 1692 C 292.118 -3.93521 -7.19518 0
M  V30 1693 O 292.508 -3.02071 -8.21205 0
M  V30 1694 C 292.998 -3.73047 -5.97036 0
M  V30 1695 C 292.288 -2.58828 -5.25741 0
M  V30 1696 N 292.338 -2.68068 -3.77503 0
M  V30 1697 C 292.258 -3.80474 -2.99159 0
M  V30 1698 N 292.328 -3.55622 -1.71925 0
M  V30 1699 C 292.478 -2.1832 -1.65733 0
M  V30 1700 C 292.608 -1.28842 -0.572777 0
M  V30 1701 N 292.618 -1.66875 0.70098 0
M  V30 1702 N 292.728 0.016788 -0.859836 0
M  V30 1703 C 292.718 0.398145 -2.13316 0
M  V30 1704 N 292.598 -0.328224 -3.22333 0
M  V30 1705 C 292.478 -1.62992 -2.90383 0
M  V30 1706 H 289.5 -5.40394 -6.8003 0
M  V30 1707 H 289.228 -4.41741 -5.32532 0
M  V30 1708 H 290.096 -3.26371 -7.47889 0
M  V30 1709 H 292.751 -1.64007 -5.56746 0
M  V30 1710 H 293.031 -4.63439 -5.3432 0
M  V30 1711 H 294.022 -3.44776 -6.25925 0
M  V30 1712 H 292.188 -4.96707 -7.57347 0
M  V30 1713 H 292.147 -4.8089 -3.39924 0
M  V30 1714 H 292.528 -2.66547 0.941919 0
M  V30 1715 H 292.717 -0.965341 1.44766 0
M  V30 1716 H 292.825 1.46427 -2.29697 0
M  V30 1717 P 294.058 -2.75334 -8.47391 0
M  V30 1718 O 294.278 -2.44595 -9.90239 0
M  V30 1719 O 294.848 -3.87732 -7.92204 0
M  V30 1720 O 294.308 -1.4459 -7.59357 0
M  V30 1721 C 293.368 -0.347563 -7.69115 0
M  V30 1722 C 294.098 0.96767 -7.52806 0
M  V30 1723 O 294.308 1.21036 -6.1011 0
M  V30 1724 C 295.498 1.04544 -8.13308 0
M  V30 1725 O 295.888 2.38311 -8.41922 0
M  V30 1726 C 296.378 0.491279 -7.02284 0
M  V30 1727 C 295.668 0.996264 -5.77469 0
M  V30 1728 N 295.718 0.0501808 -4.62873 0
M  V30 1729 C 295.868 0.588177 -3.36904 0
M  V30 1730 O 295.958 1.78598 -3.17173 0
M  V30 1731 N 295.908 -0.329694 -2.33686 0
M  V30 1732 C 295.818 -1.6953 -2.45079 0
M  V30 1733 O 295.868 -2.41926 -1.44899 0
M  V30 1734 C 295.668 -2.16933 -3.80505 0
M  V30 1735 C 295.558 -3.65373 -3.97621 0
M  V30 1736 C 295.618 -1.30326 -4.83752 0
M  V30 1737 H 292.878 -0.374722 -8.67691 0
M  V30 1738 H 292.609 -0.443421 -6.90177 0
M  V30 1739 H 293.476 1.75537 -7.96793 0
M  V30 1740 H 296.131 1.94496 -5.46629 0
M  V30 1741 H 296.41 -0.608651 -7.04676 0
M  V30 1742 H 297.402 0.889672 -7.08939 0
M  V30 1743 H 295.568 0.43308 -9.04564 0
M  V30 1744 H 295.497 -1.68366 -5.8516 0
M  V30 1745 H 296.527 -4.05985 -4.30448 0
M  V30 1746 H 294.79 -3.88028 -4.72875 0
M  V30 1747 H 295.278 -4.11381 -3.01609 0
M  V30 1748 H 296.014 0.0393617 -1.41345 0
M  V30 1749 P 297.438 2.75334 -8.47391 0
M  V30 1750 O 297.658 3.84166 -9.4489 0
M  V30 1751 O 298.228 1.51964 -8.6881 0
M  V30 1752 O 297.688 3.29363 -6.99321 0
M  V30 1753 C 296.748 4.24011 -6.4274 0
M  V30 1754 C 297.478 5.20775 -5.52155 0
M  V30 1755 O 297.688 4.56534 -4.22446 0
M  V30 1756 C 298.878 5.62629 -5.96531 0
M  V30 1757 O 299.268 6.87667 -5.41053 0
M  V30 1758 C 299.758 4.52537 -5.39283 0
M  V30 1759 C 299.048 4.20027 -4.08623 0
M  V30 1760 N 299.098 2.7613 -3.71522 0
M  V30 1761 C 299.248 2.43702 -2.37085 0
M  V30 1762 O 299.338 3.3531 -1.54039 0
M  V30 1763 N 299.298 0.951103 -2.10621 0
M  V30 1764 C 299.198 0.165021 -2.93537 0
M  V30 1765 N 299.248 -1.09723 -2.53253 0
M  V30 1766 C 299.048 0.469576 -4.32458 0
M  V30 1767 C 298.998 1.78658 -4.65921 0
M  V30 1768 H 296.258 4.79645 -7.23919 0
M  V30 1769 H 295.989 3.69802 -5.84429 0
M  V30 1770 H 296.856 6.10431 -5.41508 0
M  V30 1771 H 299.511 4.78733 -3.27967 0
M  V30 1772 H 299.79 3.64957 -6.05871 0
M  V30 1773 H 300.782 4.8868 -5.2125 0
M  V30 1774 H 298.948 5.66726 -7.06352 0
M  V30 1775 H 298.876 2.06987 -5.70299 0
M  V30 1776 H 298.978 -0.314383 -5.07728 0
M  V30 1777 H 299.366 -1.31363 -1.5319 0
M  V30 1778 H 299.169 -1.85978 -3.21943 0
M  V30 1779 P 300.818 7.20834 -5.23717 0
M  V30 1780 O 301.038 8.66104 -5.38572 0
M  V30 1781 O 301.608 6.33544 -6.1349 0
M  V30 1782 O 301.068 6.7751 -3.72168 0
M  V30 1783 C 300.128 7.20825 -2.7076 0
M  V30 1784 C 300.858 7.45864 -1.40599 0
M  V30 1785 O 301.068 6.17651 -0.734225 0
M  V30 1786 C 302.258 8.05808 -1.51899 0
M  V30 1787 O 302.648 8.74358 -0.335205 0
M  V30 1788 C 303.138 6.83093 -1.70294 0
M  V30 1789 C 302.428 5.79992 -0.836974 0
M  V30 1790 N 302.478 4.41864 -1.38293 0
M  V30 1791 H 299.639 8.13644 -3.0377 0
M  V30 1792 H 299.369 6.42788 -2.55485 0
M  V30 1793 H 300.236 8.12039 -0.792769 0
M  V30 1794 P 304.198 8.91 1.18324e-12 0
M  V30 1795 O 304.418 10.1736 0.733766 0
M  V30 1796 O 304.988 8.73247 -1.2395 0
M  V30 1797 O 304.448 7.66872 0.971405 0
M  V30 1798 C 303.508 7.42212 2.04614 0
M  V30 1799 C 304.238 6.86059 3.24661 0
M  V30 1800 O 304.448 5.42847 3.03646 0
M  V30 1801 C 305.638 7.41196 3.50753 0
M  V30 1802 O 306.028 7.27073 4.86816 0
M  V30 1803 C 306.518 6.5273 2.63741 0
M  V30 1804 C 305.808 5.1842 2.73198 0
M  V30 1805 N 305.858 4.38668 1.47808 0
M  V30 1806 C 306.008 3.02239 1.60048 0
M  V30 1807 O 306.098 2.46459 2.67869 0
M  V30 1808 N 306.048 2.32436 0.408571 0
M  V30 1809 C 305.958 2.85471 -0.854993 0
M  V30 1810 O 306.008 2.12566 -1.8531 0
M  V30 1811 C 305.808 4.28918 -0.887335 0
M  V30 1812 C 305.698 4.91066 -2.24619 0
M  V30 1813 C 305.758 5.00349 0.255399 0
M  V30 1814 H 303.018 8.36803 2.32493 0
M  V30 1815 H 302.749 6.701 1.71105 0
M  V30 1816 H 303.616 7.03551 4.13168 0
M  V30 1817 H 306.271 4.59773 3.53894 0
M  V30 1818 H 306.55 6.88995 1.59871 0
M  V30 1819 H 307.542 6.46749 3.03687 0
M  V30 1820 H 305.708 8.46908 3.20714 0
M  V30 1821 H 305.637 6.08548 0.206986 0
M  V30 1822 H 306.667 5.34836 -2.53099 0
M  V30 1823 H 304.93 5.69638 -2.2291 0
M  V30 1824 H 305.418 4.13971 -2.98044 0
M  V30 1825 H 306.154 1.33211 0.474216 0
M  V30 1826 P 307.578 7.20834 5.23717 0
M  V30 1827 O 307.798 7.80006 6.57415 0
M  V30 1828 O 308.368 7.79416 4.13051 0
M  V30 1829 O 307.828 5.63315 5.29344 0
M  V30 1830 C 306.888 4.80318 6.01954 0
M  V30 1831 C 307.618 3.64202 6.65911 0
M  V30 1832 O 307.828 2.60736 5.64823 0
M  V30 1833 C 309.018 3.93521 7.19518 0
M  V30 1834 O 309.408 3.02071 8.21205 0
M  V30 1835 C 309.898 3.73047 5.97036 0
M  V30 1836 C 309.188 2.58828 5.25741 0
M  V30 1837 N 309.238 2.68068 3.77503 0
M  V30 1838 H 306.4 5.40394 6.8003 0
M  V30 1839 H 306.128 4.41741 5.32532 0
M  V30 1840 H 306.996 3.26371 7.47889 0
M  V30 1841 H 309.651 1.64007 5.56746 0
M  V30 1842 H 309.931 4.63439 5.3432 0
M  V30 1843 H 310.922 3.44776 6.25925 0
M  V30 1844 H 309.088 4.96707 7.57347 0
M  V30 1845 P 310.958 2.75334 8.47391 0
M  V30 1846 O 311.178 2.44571 9.90142 0
M  V30 1847 O 311.748 3.87688 7.92115 0
M  V30 1848 O 311.208 1.4459 7.59357 0
M  V30 1849 C 310.268 0.347608 7.69215 0
M  V30 1850 C 310.998 -0.96767 7.52806 0
M  V30 1851 O 311.208 -1.21036 6.1011 0
M  V30 1852 C 312.398 -1.04544 8.13308 0
M  V30 1853 O 312.788 -2.38311 8.41922 0
M  V30 1854 C 313.278 -0.491279 7.02284 0
M  V30 1855 C 312.568 -0.996264 5.77469 0
M  V30 1856 N 312.618 -0.0501916 4.62973 0
M  V30 1857 C 312.538 1.32786 4.63244 0
M  V30 1858 N 312.618 1.86957 3.44545 0
M  V30 1859 C 312.758 0.780241 2.58481 0
M  V30 1860 C 312.888 0.738536 1.17757 0
M  V30 1861 N 313.008 -0.58337 0.711393 0
M  V30 1862 C 313.008 -1.70816 1.51017 0
M  V30 1863 N 313.138 -2.87826 0.880757 0
M  V30 1864 N 312.878 -1.67126 2.8339 0
M  V30 1865 C 312.758 -0.401421 3.30572 0
M  V30 1866 H 309.779 0.374722 8.67691 0
M  V30 1867 H 309.509 0.443485 6.90277 0
M  V30 1868 H 310.376 -1.75537 7.96793 0
M  V30 1869 P 314.338 -2.75334 8.47391 0
M  V30 1870 O 314.558 -3.84128 9.44797 0
M  V30 1871 O 315.128 -1.51947 8.68712 0
M  V30 1872 O 314.588 -3.29363 6.99321 0
M  V30 1873 C 313.648 -4.24011 6.4274 0
M  V30 1874 C 314.378 -5.20775 5.52155 0
M  V30 1875 O 314.588 -4.56534 4.22446 0
M  V30 1876 C 315.778 -5.62629 5.96531 0
M  V30 1877 O 316.168 -6.87667 5.41053 0
M  V30 1878 C 316.658 -4.52537 5.39283 0
M  V30 1879 C 315.948 -4.20027 4.08623 0
M  V30 1880 N 315.998 -2.76189 3.71603 0
M  V30 1881 H 313.159 -4.797 7.24003 0
M  V30 1882 H 312.889 -3.69856 5.84513 0
M  V30 1883 H 313.756 -6.10356 5.41441 0
M  V30 1884 P 317.718 -7.20834 5.23717 0
M  V30 1885 O 317.938 -8.66274 5.38678 0
M  V30 1886 O 318.508 -6.33687 6.13629 0
M  V30 1887 O 317.968 -6.7751 3.72168 0
M  V30 1888 C 317.028 -7.20919 2.70795 0
M  V30 1889 C 317.758 -7.45864 1.40599 0
M  V30 1890 O 317.968 -6.17751 0.734343 0
M  V30 1891 C 319.158 -8.05906 1.51917 0
M  V30 1892 O 319.548 -8.74358 0.335205 0
M  V30 1893 C 320.038 -6.83093 1.70294 0
M  V30 1894 C 319.328 -5.79992 0.836974 0
M  V30 1895 N 319.378 -4.41864 1.38293 0
M  V30 1896 C 319.298 -4.02089 2.69407 0
M  V30 1897 N 319.368 -2.73403 2.85089 0
M  V30 1898 C 319.518 -2.25086 1.5642 0
M  V30 1899 C 319.648 -0.942887 1.04836 0
M  V30 1900 N 319.658 0.150999 1.80369 0
M  V30 1901 N 319.768 -0.812565 -0.28167 0
M  V30 1902 C 319.758 -1.90572 -1.03784 0
M  V30 1903 N 319.638 -3.167 -0.683905 0
M  V30 1904 C 319.518 -3.26538 0.652815 0
M  V30 1905 H 316.54 -8.13738 3.03804 0
M  V30 1906 H 316.268 -6.42974 2.55559 0
M  V30 1907 H 317.136 -8.12139 0.792866 0
M  V30 1908 H 319.791 -5.80178 -0.160643 0
M  V30 1909 H 320.071 -6.51379 2.75643 0
M  V30 1910 H 321.062 -7.01832 1.3448 0
M  V30 1911 H 319.228 -8.73771 2.38364 0
M  V30 1912 H 319.187 -4.7189 3.52311 0
M  V30 1913 H 319.568 0.0721434 2.82608 0
M  V30 1914 H 319.757 1.0785 1.36544 0
M  V30 1915 H 319.865 -1.73207 -2.10241 0
M  V30 1916 P 321.098 -8.91 -1.34042e-12 0
M  V30 1917 O 321.318 -10.1726 -0.733694 0
M  V30 1918 O 321.888 -8.73148 1.23936 0
M  V30 1919 O 321.348 -7.66872 -0.971405 0
M  V30 1920 C 320.408 -7.42309 -2.04641 0
M  V30 1921 C 321.138 -6.86059 -3.24661 0
M  V30 1922 O 321.348 -5.42847 -3.03646 0
M  V30 1923 C 322.538 -7.41196 -3.50753 0
M  V30 1924 O 322.928 -7.27073 -4.86816 0
M  V30 1925 C 323.418 -6.5273 -2.63741 0
M  V30 1926 C 322.708 -5.1842 -2.73198 0
M  V30 1927 N 322.758 -4.38762 -1.4784 0
M  V30 1928 C 322.678 -4.81605 -0.168631 0
M  V30 1929 N 322.758 -3.85454 0.713363 0
M  V30 1930 C 322.898 -2.6994 -0.0566958 0
M  V30 1931 C 323.028 -1.34815 0.338502 0
M  V30 1932 O 323.048 -0.869548 1.47125 0
M  V30 1933 N 323.148 -0.496304 -0.77465 0
M  V30 1934 C 323.148 -0.908403 -2.09122 0
M  V30 1935 N 323.278 0.0517805 -3.00955 0
M  V30 1936 N 323.018 -2.17875 -2.46519 0
M  V30 1937 C 322.898 -3.01988 -1.4033 0
M  V30 1938 H 319.919 -8.36803 -2.32493 0
M  V30 1939 H 319.649 -6.70197 -1.71129 0
M  V30 1940 H 320.516 -7.03551 -4.13168 0
M  V30 1941 H 323.171 -4.59498 -3.54415 0
M  V30 1942 H 323.45 -6.88898 -1.59848 0
M  V30 1943 H 324.442 -6.46749 -3.03687 0
M  V30 1944 H 322.608 -8.46908 -3.20714 0
M  V30 1945 H 322.559 -5.86405 0.105564 0
M  V30 1946 H 323.241 0.483664 -0.597855 0
M  V30 1947 H 323.278 -0.187865 -4.0116 0
M  V30 1948 H 323.379 1.03585 -2.71726 0
M  V30 1949 P 324.478 -7.20834 -5.23717 0
M  V30 1950 O 324.698 -7.79853 -6.57286 0
M  V30 1951 O 325.268 -7.79239 -4.12957 0
M  V30 1952 O 324.728 -5.63315 -5.29344 0
M  V30 1953 C 323.788 -4.80255 -6.01876 0
M  V30 1954 C 324.518 -3.64202 -6.65911 0
M  V30 1955 O 324.728 -2.60694 -5.64732 0
M  V30 1956 C 325.918 -3.93473 -7.1943 0
M  V30 1957 O 326.308 -3.02071 -8.21205 0
M  V30 1958 C 326.798 -3.73047 -5.97036 0
M  V30 1959 C 326.088 -2.58828 -5.25741 0
M  V30 1960 N 326.138 -2.68068 -3.77503 0
M  V30 1961 H 323.299 -5.40332 -6.79951 0
M  V30 1962 H 323.029 -4.41613 -5.32378 0
M  V30 1963 H 323.896 -3.26331 -7.47797 0
M  V30 1964 P 327.858 -2.75334 -8.47391 0
M  V30 1965 O 328.078 -2.44571 -9.90142 0
M  V30 1966 O 328.648 -3.87688 -7.92115 0
M  V30 1967 O 328.108 -1.4459 -7.59357 0
M  V30 1968 C 327.168 -0.347608 -7.69215 0
M  V30 1969 C 327.898 0.96767 -7.52806 0
M  V30 1970 O 328.108 1.21036 -6.1011 0
M  V30 1971 C 329.298 1.04544 -8.13308 0
M  V30 1972 O 329.688 2.38311 -8.41922 0
M  V30 1973 C 330.178 0.491279 -7.02284 0
M  V30 1974 C 329.468 0.996264 -5.77469 0
M  V30 1975 N 329.518 0.0501916 -4.62973 0
M  V30 1976 H 326.679 -0.374722 -8.67691 0
M  V30 1977 H 326.409 -0.443485 -6.90277 0
M  V30 1978 H 327.276 1.75537 -7.96793 0
M  V30 1979 P 331.238 2.75334 -8.47391 0
M  V30 1980 O 331.458 3.84128 -9.44797 0
M  V30 1981 O 332.028 1.51947 -8.68712 0
M  V30 1982 O 331.488 3.29363 -6.99321 0
M  V30 1983 C 330.548 4.24011 -6.4274 0
M  V30 1984 C 331.278 5.20775 -5.52155 0
M  V30 1985 O 331.488 4.56534 -4.22446 0
M  V30 1986 C 332.678 5.62629 -5.96531 0
M  V30 1987 O 333.068 6.87667 -5.41053 0
M  V30 1988 C 333.558 4.52537 -5.39283 0
M  V30 1989 C 332.848 4.20027 -4.08623 0
M  V30 1990 N 332.898 2.76189 -3.71603 0
M  V30 1991 H 330.059 4.797 -7.24003 0
M  V30 1992 H 329.789 3.69856 -5.84513 0
M  V30 1993 H 330.656 6.10356 -5.41441 0
M  V30 1994 P 334.618 7.20834 -5.23717 0
M  V30 1995 O 334.838 8.66104 -5.38572 0
M  V30 1996 O 335.408 6.33544 -6.1349 0
M  V30 1997 O 334.868 6.7751 -3.72168 0
M  V30 1998 C 333.928 7.20825 -2.7076 0
M  V30 1999 C 334.658 7.45864 -1.40599 0
M  V30 2000 O 334.868 6.17651 -0.734225 0
M  V30 2001 C 336.058 8.05808 -1.51899 0
M  V30 2002 O 336.448 8.74358 -0.335205 0
M  V30 2003 C 336.938 6.83093 -1.70294 0
M  V30 2004 C 336.228 5.79992 -0.836974 0
M  V30 2005 N 336.278 4.41864 -1.38293 0
M  V30 2006 C 336.198 3.99538 -2.69438 0
M  V30 2007 N 336.278 2.69909 -2.84277 0
M  V30 2008 C 336.418 2.21719 -1.5408 0
M  V30 2009 C 336.548 0.891712 -1.06628 0
M  V30 2010 N 336.668 0.856846 0.334985 0
M  V30 2011 C 336.668 1.9641 1.15789 0
M  V30 2012 N 336.798 1.72708 2.46522 0
M  V30 2013 N 336.538 3.21165 0.713741 0
M  V30 2014 C 336.418 3.26797 -0.639748 0
M  V30 2015 H 333.439 8.13644 -3.0377 0
M  V30 2016 H 333.169 6.42788 -2.55485 0
M  V30 2017 H 334.036 8.12039 -0.792769 0
M  V30 2018 P 337.998 8.91 1.4976e-12 0
M  V30 2019 O 338.218 10.1726 0.733694 0
M  V30 2020 O 338.788 8.73148 -1.23936 0
M  V30 2021 O 338.248 7.66872 0.971405 0
M  V30 2022 C 337.308 7.42309 2.04641 0
M  V30 2023 C 338.038 6.86059 3.24661 0
M  V30 2024 O 338.248 5.42847 3.03646 0
M  V30 2025 C 339.438 7.41196 3.50753 0
M  V30 2026 O 339.828 7.27073 4.86816 0
M  V30 2027 C 340.318 6.5273 2.63741 0
M  V30 2028 C 339.608 5.1842 2.73198 0
M  V30 2029 N 339.658 4.38762 1.4784 0
M  V30 2030 H 336.819 8.36803 2.32493 0
M  V30 2031 H 336.549 6.70197 1.71129 0
M  V30 2032 H 337.416 7.03551 4.13168 0
M  V30 2033 P 341.378 7.20834 5.23717 0
M  V30 2034 O 341.598 7.79853 6.57286 0
M  V30 2035 O 342.168 7.79239 4.12957 0
M  V30 2036 O 341.628 5.63315 5.29344 0
M  V30 2037 C 340.688 4.80255 6.01876 0
M  V30 2038 C 341.418 3.64202 6.65911 0
M  V30 2039 O 341.628 2.60694 5.64732 0
M  V30 2040 C 342.818 3.93473 7.1943 0
M  V30 2041 O 343.208 3.02071 8.21205 0
M  V30 2042 C 343.698 3.73047 5.97036 0
M  V30 2043 C 342.988 2.58828 5.25741 0
M  V30 2044 N 343.038 2.68068 3.77503 0
M  V30 2045 C 342.958 3.79715 2.96723 0
M  V30 2046 N 343.038 3.5377 1.68852 0
M  V30 2047 C 343.178 2.15054 1.63254 0
M  V30 2048 C 343.308 1.28964 0.518571 0
M  V30 2049 O 343.328 1.56826 -0.679156 0
M  V30 2050 N 343.428 -0.0538097 0.918425 0
M  V30 2051 C 343.428 -0.494275 2.22578 0
M  V30 2052 N 343.558 -1.81086 2.40434 0
M  V30 2053 N 343.298 0.313645 3.27502 0
M  V30 2054 C 343.178 1.61829 2.91033 0
M  V30 2055 H 340.199 5.40332 6.79951 0
M  V30 2056 H 339.929 4.41613 5.32378 0
M  V30 2057 H 340.796 3.26331 7.47797 0
M  V30 2058 H 343.451 1.63422 5.56814 0
M  V30 2059 H 343.73 4.63374 5.34244 0
M  V30 2060 H 344.722 3.44728 6.25838 0
M  V30 2061 H 342.888 4.96652 7.57263 0
M  V30 2062 H 342.839 4.80617 3.3614 0
M  V30 2063 H 343.521 -0.742702 0.199384 0
M  V30 2064 H 343.558 -2.20598 3.35588 0
M  V30 2065 H 343.659 -2.43518 1.58945 0
M  V30 2066 P 344.758 2.75334 8.47391 0
M  V30 2067 O 344.978 2.44571 9.90142 0
M  V30 2068 O 345.548 3.87688 7.92115 0
M  V30 2069 O 345.008 1.4459 7.59357 0
M  V30 2070 C 344.068 0.347608 7.69215 0
M  V30 2071 C 344.798 -0.96767 7.52806 0
M  V30 2072 O 345.008 -1.21036 6.1011 0
M  V30 2073 C 346.198 -1.04544 8.13308 0
M  V30 2074 O 346.588 -2.38311 8.41922 0
M  V30 2075 C 347.078 -0.491279 7.02284 0
M  V30 2076 C 346.368 -0.996264 5.77469 0
M  V30 2077 N 346.418 -0.0501916 4.62973 0
M  V30 2078 C 346.338 1.32786 4.63244 0
M  V30 2079 N 346.418 1.86957 3.44545 0
M  V30 2080 C 346.558 0.780241 2.58481 0
M  V30 2081 C 346.688 0.738536 1.17757 0
M  V30 2082 O 346.708 1.66794 0.372349 0
M  V30 2083 N 346.808 -0.58337 0.711393 0
M  V30 2084 C 346.808 -1.70816 1.51017 0
M  V30 2085 N 346.938 -2.87826 0.880757 0
M  V30 2086 N 346.678 -1.67126 2.8339 0
M  V30 2087 C 346.558 -0.401421 3.30572 0
M  V30 2088 H 343.579 0.374722 8.67691 0
M  V30 2089 H 343.309 0.443485 6.90277 0
M  V30 2090 H 344.176 -1.75537 7.96793 0
M  V30 2091 H 346.831 -1.95076 5.46529 0
M  V30 2092 H 347.11 0.608565 7.04577 0
M  V30 2093 H 348.102 -0.889672 7.08939 0
M  V30 2094 H 346.268 -0.43308 9.04564 0
M  V30 2095 H 346.219 1.91249 5.54442 0
M  V30 2096 H 346.901 -0.718054 -0.275244 0
M  V30 2097 H 346.938 -3.75721 1.41832 0
M  V30 2098 H 347.039 -2.90436 -0.145468 0
M  V30 2099 P 348.138 -2.75334 8.47391 0
M  V30 2100 O 348.358 -3.84128 9.44797 0
M  V30 2101 O 348.928 -1.51947 8.68712 0
M  V30 2102 O 348.388 -3.29363 6.99321 0
M  V30 2103 C 347.448 -4.24011 6.4274 0
M  V30 2104 C 348.178 -5.20775 5.52155 0
M  V30 2105 O 348.388 -4.56534 4.22446 0
M  V30 2106 C 349.578 -5.62629 5.96531 0
M  V30 2107 O 349.968 -6.87667 5.41053 0
M  V30 2108 C 350.458 -4.52537 5.39283 0
M  V30 2109 C 349.748 -4.20027 4.08623 0
M  V30 2110 N 349.798 -2.76189 3.71603 0
M  V30 2111 H 346.959 -4.797 7.24003 0
M  V30 2112 H 346.689 -3.69856 5.84513 0
M  V30 2113 H 347.556 -6.10356 5.41441 0
M  V30 2114 P 351.518 -7.20834 5.23717 0
M  V30 2115 O 351.738 -8.66104 5.38572 0
M  V30 2116 O 352.308 -6.33544 6.1349 0
M  V30 2117 O 351.768 -6.7751 3.72168 0
M  V30 2118 C 350.828 -7.20825 2.7076 0
M  V30 2119 C 351.558 -7.45864 1.40599 0
M  V30 2120 O 351.768 -6.17651 0.734225 0
M  V30 2121 C 352.958 -8.05808 1.51899 0
M  V30 2122 O 353.348 -8.74358 0.335205 0
M  V30 2123 C 353.838 -6.83093 1.70294 0
M  V30 2124 C 353.128 -5.79992 0.836974 0
M  V30 2125 N 353.178 -4.41864 1.38293 0
M  V30 2126 H 350.339 -8.13644 3.0377 0
M  V30 2127 H 350.069 -6.42788 2.55485 0
M  V30 2128 H 350.936 -8.12039 0.792769 0
M  V30 2129 P 354.898 -8.91 -1.65478e-12 0
M  V30 2130 O 355.118 -10.1726 -0.733694 0
M  V30 2131 O 355.688 -8.73148 1.23936 0
M  V30 2132 O 355.148 -7.66872 -0.971405 0
M  V30 2133 C 354.208 -7.42309 -2.04641 0
M  V30 2134 C 354.938 -6.86059 -3.24661 0
M  V30 2135 O 355.148 -5.42847 -3.03646 0
M  V30 2136 C 356.338 -7.41196 -3.50753 0
M  V30 2137 O 356.728 -7.27073 -4.86816 0
M  V30 2138 C 357.218 -6.5273 -2.63741 0
M  V30 2139 C 356.508 -5.1842 -2.73198 0
M  V30 2140 N 356.558 -4.38762 -1.4784 0
M  V30 2141 H 353.719 -8.36803 -2.32493 0
M  V30 2142 H 353.449 -6.70197 -1.71129 0
M  V30 2143 H 354.316 -7.03551 -4.13168 0
M  V30 2144 P 358.278 -7.20834 -5.23717 0
M  V30 2145 O 358.498 -7.79853 -6.57286 0
M  V30 2146 O 359.068 -7.79239 -4.12957 0
M  V30 2147 O 358.528 -5.63315 -5.29344 0
M  V30 2148 C 357.588 -4.80255 -6.01876 0
M  V30 2149 C 358.318 -3.64202 -6.65911 0
M  V30 2150 O 358.528 -2.60694 -5.64732 0
M  V30 2151 C 359.718 -3.93473 -7.1943 0
M  V30 2152 O 360.108 -3.02071 -8.21205 0
M  V30 2153 C 360.598 -3.73047 -5.97036 0
M  V30 2154 C 359.888 -2.58828 -5.25741 0
M  V30 2155 N 359.938 -2.68068 -3.77503 0
M  V30 2156 H 357.099 -5.40332 -6.79951 0
M  V30 2157 H 356.829 -4.41613 -5.32378 0
M  V30 2158 H 357.696 -3.26331 -7.47797 0
M  V30 2159 P 361.658 -2.75334 -8.47391 0
M  V30 2160 O 361.878 -2.44571 -9.90142 0
M  V30 2161 O 362.448 -3.87688 -7.92115 0
M  V30 2162 O 361.908 -1.4459 -7.59357 0
M  V30 2163 C 360.968 -0.347608 -7.69215 0
M  V30 2164 C 361.698 0.96767 -7.52806 0
M  V30 2165 O 361.908 1.21036 -6.1011 0
M  V30 2166 C 363.098 1.04544 -8.13308 0
M  V30 2167 O 363.488 2.38311 -8.41922 0
M  V30 2168 C 363.978 0.491279 -7.02284 0
M  V30 2169 C 363.268 0.996264 -5.77469 0
M  V30 2170 N 363.318 0.0501916 -4.62973 0
M  V30 2171 H 360.479 -0.374722 -8.67691 0
M  V30 2172 H 360.209 -0.443485 -6.90277 0
M  V30 2173 H 361.076 1.75537 -7.96793 0
M  V30 2174 P 365.038 2.75334 -8.47391 0
M  V30 2175 O 365.258 3.84128 -9.44797 0
M  V30 2176 O 365.828 1.51947 -8.68712 0
M  V30 2177 O 365.288 3.29363 -6.99321 0
M  V30 2178 C 364.348 4.24011 -6.4274 0
M  V30 2179 C 365.078 5.20775 -5.52155 0
M  V30 2180 O 365.288 4.56534 -4.22446 0
M  V30 2181 C 366.478 5.62629 -5.96531 0
M  V30 2182 O 366.868 6.87667 -5.41053 0
M  V30 2183 C 367.358 4.52537 -5.39283 0
M  V30 2184 C 366.648 4.20027 -4.08623 0
M  V30 2185 N 366.698 2.76189 -3.71603 0
M  V30 2186 H 363.859 4.797 -7.24003 0
M  V30 2187 H 363.589 3.69856 -5.84513 0
M  V30 2188 H 364.456 6.10356 -5.41441 0
M  V30 2189 P 368.418 7.20834 -5.23717 0
M  V30 2190 O 368.638 8.66104 -5.38572 0
M  V30 2191 O 369.208 6.33544 -6.1349 0
M  V30 2192 O 368.668 6.7751 -3.72168 0
M  V30 2193 C 367.728 7.20825 -2.7076 0
M  V30 2194 C 368.458 7.45864 -1.40599 0
M  V30 2195 O 368.668 6.17651 -0.734225 0
M  V30 2196 C 369.858 8.05808 -1.51899 0
M  V30 2197 O 370.248 8.74358 -0.335205 0
M  V30 2198 C 370.738 6.83093 -1.70294 0
M  V30 2199 C 370.028 5.79992 -0.836974 0
M  V30 2200 N 370.078 4.41864 -1.38293 0
M  V30 2201 H 367.239 8.13644 -3.0377 0
M  V30 2202 H 366.969 6.42788 -2.55485 0
M  V30 2203 H 367.836 8.12039 -0.792769 0
M  V30 2204 P 371.798 8.91 1.81197e-12 0
M  V30 2205 O 372.018 10.1726 0.733694 0
M  V30 2206 O 372.588 8.73148 -1.23936 0
M  V30 2207 O 372.048 7.66872 0.971405 0
M  V30 2208 C 371.108 7.42309 2.04641 0
M  V30 2209 C 371.838 6.86059 3.24661 0
M  V30 2210 O 372.048 5.42847 3.03646 0
M  V30 2211 C 373.238 7.41196 3.50753 0
M  V30 2212 O 373.628 7.27073 4.86816 0
M  V30 2213 C 374.118 6.5273 2.63741 0
M  V30 2214 C 373.408 5.1842 2.73198 0
M  V30 2215 N 373.458 4.38762 1.4784 0
M  V30 2216 H 370.619 8.36803 2.32493 0
M  V30 2217 H 370.349 6.70197 1.71129 0
M  V30 2218 H 371.216 7.03551 4.13168 0
M  V30 2219 P 375.178 7.20834 5.23717 0
M  V30 2220 O 375.398 7.7993 6.57351 0
M  V30 2221 O 375.968 7.79328 4.13004 0
M  V30 2222 O 375.428 5.63315 5.29344 0
M  V30 2223 C 374.488 4.80193 6.01798 0
M  V30 2224 C 375.218 3.64202 6.65911 0
M  V30 2225 O 375.428 2.60694 5.64732 0
M  V30 2226 C 376.618 3.93473 7.1943 0
M  V30 2227 O 377.008 3.02071 8.21205 0
M  V30 2228 C 377.498 3.73047 5.97036 0
M  V30 2229 C 376.788 2.58828 5.25741 0
M  V30 2230 N 376.838 2.6801 3.77422 0
M  V30 2231 C 376.988 1.50443 3.07133 0
M  V30 2232 O 377.078 0.419406 3.61576 0
M  V30 2233 N 377.028 1.6403 1.69677 0
M  V30 2234 C 376.938 2.81206 0.986255 0
M  V30 2235 O 376.988 2.80892 -0.249754 0
M  V30 2236 C 376.788 3.99158 1.80325 0
M  V30 2237 C 376.678 5.29309 1.06921 0
M  V30 2238 C 376.738 3.89779 3.1476 0
M  V30 2239 H 373.998 5.40332 6.79951 0
M  V30 2240 H 373.729 4.41549 5.32301 0
M  V30 2241 H 374.596 3.26331 7.47797 0
M  V30 2242 H 377.251 1.6395 5.56554 0
M  V30 2243 H 377.53 4.63439 5.3432 0
M  V30 2244 H 378.522 3.44728 6.25838 0
M  V30 2245 H 376.688 4.96652 7.57263 0
M  V30 2246 H 376.617 4.80159 3.74441 0
M  V30 2247 H 377.647 5.81459 1.09608 0
M  V30 2248 H 375.91 5.9187 1.54487 0
M  V30 2249 H 376.398 5.10095 0.0220288 0
M  V30 2250 H 377.134 0.798962 1.16664 0
M  V30 2251 P 378.558 2.75334 8.47391 0
M  V30 2252 O 378.778 2.44571 9.90142 0
M  V30 2253 O 379.348 3.87688 7.92115 0
M  V30 2254 O 378.808 1.4459 7.59357 0
M  V30 2255 C 377.868 0.347608 7.69215 0
M  V30 2256 C 378.598 -0.96767 7.52806 0
M  V30 2257 O 378.808 -1.21036 6.1011 0
M  V30 2258 C 379.998 -1.04544 8.13308 0
M  V30 2259 O 380.388 -2.38311 8.41922 0
M  V30 2260 C 380.878 -0.491279 7.02284 0
M  V30 2261 C 380.168 -0.996264 5.77469 0
M  V30 2262 N 380.218 -0.0501916 4.62973 0
M  V30 2263 H 377.379 0.374722 8.67691 0
M  V30 2264 H 377.109 0.443485 6.90277 0
M  V30 2265 H 377.976 -1.75537 7.96793 0
M  V30 2266 P 381.938 -2.75334 8.47391 0
M  V30 2267 O 382.158 -3.84128 9.44797 0
M  V30 2268 O 382.728 -1.51947 8.68712 0
M  V30 2269 O 382.188 -3.29363 6.99321 0
M  V30 2270 C 381.248 -4.24011 6.4274 0
M  V30 2271 C 381.978 -5.20775 5.52155 0
M  V30 2272 O 382.188 -4.56534 4.22446 0
M  V30 2273 C 383.378 -5.62629 5.96531 0
M  V30 2274 O 383.768 -6.87667 5.41053 0
M  V30 2275 C 384.258 -4.52537 5.39283 0
M  V30 2276 C 383.548 -4.20027 4.08623 0
M  V30 2277 N 383.598 -2.76189 3.71603 0
M  V30 2278 H 380.759 -4.797 7.24003 0
M  V30 2279 H 380.489 -3.69856 5.84513 0
M  V30 2280 H 381.356 -6.10356 5.41441 0
M  V30 2281 P 385.318 -7.20834 5.23717 0
M  V30 2282 O 385.538 -8.66104 5.38572 0
M  V30 2283 O 386.108 -6.33544 6.1349 0
M  V30 2284 O 385.568 -6.7751 3.72168 0
M  V30 2285 C 384.628 -7.20825 2.7076 0
M  V30 2286 C 385.358 -7.45864 1.40599 0
M  V30 2287 O 385.568 -6.17651 0.734225 0
M  V30 2288 C 386.758 -8.05808 1.51899 0
M  V30 2289 O 387.148 -8.74358 0.335205 0
M  V30 2290 C 387.638 -6.83093 1.70294 0
M  V30 2291 C 386.928 -5.79992 0.836974 0
M  V30 2292 N 386.978 -4.41864 1.38293 0
M  V30 2293 C 386.898 -3.99538 2.69438 0
M  V30 2294 N 386.978 -2.69909 2.84277 0
M  V30 2295 C 387.118 -2.21719 1.5408 0
M  V30 2296 C 387.248 -0.891712 1.06628 0
M  V30 2297 O 387.268 0.161298 1.70137 0
M  V30 2298 N 387.368 -0.856846 -0.334985 0
M  V30 2299 C 387.368 -1.9641 -1.15789 0
M  V30 2300 N 387.498 -1.72708 -2.46522 0
M  V30 2301 N 387.238 -3.21165 -0.713741 0
M  V30 2302 C 387.118 -3.26797 0.639748 0
M  V30 2303 H 384.139 -8.13644 3.0377 0
M  V30 2304 H 383.869 -6.42788 2.55485 0
M  V30 2305 H 384.736 -8.12039 0.792769 0
M  V30 2306 H 387.391 -5.80061 -0.166416 0
M  V30 2307 H 387.67 -6.51287 2.75604 0
M  V30 2308 H 388.662 -7.01734 1.34462 0
M  V30 2309 H 386.828 -8.73674 2.38337 0
M  V30 2310 H 386.779 -4.68207 3.53221 0
M  V30 2311 H 387.461 0.0398818 -0.767965 0
M  V30 2312 H 387.498 -2.50995 -3.13503 0
M  V30 2313 H 387.599 -0.759148 -2.80716 0
M  V30 2314 P 388.698 -8.91 -1.96915e-12 0
M  V30 2315 O 388.918 -10.1726 -0.733694 0
M  V30 2316 O 389.488 -8.73148 1.23936 0
M  V30 2317 O 388.948 -7.66872 -0.971405 0
M  V30 2318 C 388.008 -7.42309 -2.04641 0
M  V30 2319 C 388.738 -6.86059 -3.24661 0
M  V30 2320 O 388.948 -5.42847 -3.03646 0
M  V30 2321 C 390.138 -7.41196 -3.50753 0
M  V30 2322 O 390.528 -7.27073 -4.86816 0
M  V30 2323 C 391.018 -6.5273 -2.63741 0
M  V30 2324 C 390.308 -5.1842 -2.73198 0
M  V30 2325 N 390.358 -4.38762 -1.4784 0
M  V30 2326 H 387.519 -8.36803 -2.32493 0
M  V30 2327 H 387.249 -6.70197 -1.71129 0
M  V30 2328 H 388.116 -7.03551 -4.13168 0
M  V30 2329 P 392.078 -7.20834 -5.23717 0
M  V30 2330 O 392.298 -7.79853 -6.57286 0
M  V30 2331 O 392.868 -7.79239 -4.12957 0
M  V30 2332 O 392.328 -5.63315 -5.29344 0
M  V30 2333 C 391.388 -4.80255 -6.01876 0
M  V30 2334 C 392.118 -3.64202 -6.65911 0
M  V30 2335 O 392.328 -2.60694 -5.64732 0
M  V30 2336 C 393.518 -3.93473 -7.1943 0
M  V30 2337 O 393.908 -3.02071 -8.21205 0
M  V30 2338 C 394.398 -3.73047 -5.97036 0
M  V30 2339 C 393.688 -2.58828 -5.25741 0
M  V30 2340 N 393.738 -2.68068 -3.77503 0
M  V30 2341 H 390.899 -5.40332 -6.79951 0
M  V30 2342 H 390.629 -4.41613 -5.32378 0
M  V30 2343 H 391.496 -3.26331 -7.47797 0
M  V30 2344 P 395.458 -2.75334 -8.47391 0
M  V30 2345 O 395.678 -2.44619 -9.90336 0
M  V30 2346 O 396.248 -3.87776 -7.92294 0
M  V30 2347 O 395.708 -1.4459 -7.59357 0
M  V30 2348 C 394.768 -0.347653 -7.69315 0
M  V30 2349 C 395.498 0.96767 -7.52806 0
M  V30 2350 O 395.708 1.21055 -6.10208 0
M  V30 2351 C 396.898 1.04557 -8.13408 0
M  V30 2352 O 397.288 2.38311 -8.41922 0
M  V30 2353 C 397.778 0.491279 -7.02284 0
M  V30 2354 C 397.068 0.996264 -5.77469 0
M  V30 2355 N 397.118 0.0501916 -4.62973 0
M  V30 2356 C 397.038 -1.31969 -4.65661 0
M  V30 2357 N 397.108 -1.86649 -3.48119 0
M  V30 2358 C 397.258 -0.792089 -2.62406 0
M  V30 2359 C 397.388 -0.705684 -1.2207 0
M  V30 2360 N 397.398 -1.76207 -0.413762 0
M  V30 2361 N 397.508 0.518981 -0.685754 0
M  V30 2362 C 397.498 1.57595 -1.49174 0
M  V30 2363 N 397.378 1.62909 -2.80066 0
M  V30 2364 C 397.258 0.388195 -3.3073 0
M  V30 2365 H 394.28 -0.374765 -8.67791 0
M  V30 2366 H 394.008 -0.443613 -6.90476 0
M  V30 2367 H 394.876 1.75559 -7.96891 0
M  V30 2368 H 397.531 1.94563 -5.46818 0
M  V30 2369 H 397.811 -0.608651 -7.04676 0
M  V30 2370 H 398.802 0.889796 -7.09039 0
M  V30 2371 H 396.968 0.433128 -9.04664 0
M  V30 2372 H 396.927 -1.89246 -5.57664 0
M  V30 2373 H 397.308 -2.71005 -0.804694 0
M  V30 2374 H 397.497 -1.63189 0.603768 0
M  V30 2375 H 397.605 2.53475 -0.997614 0
M  V30 2376 P 398.838 2.75334 -8.47391 0
M  V30 2377 O 399.058 3.84128 -9.44797 0
M  V30 2378 O 399.628 1.51947 -8.68712 0
M  V30 2379 O 399.088 3.29363 -6.99321 0
M  V30 2380 C 398.148 4.24011 -6.4274 0
M  V30 2381 C 398.878 5.20775 -5.52155 0
M  V30 2382 O 399.088 4.56534 -4.22446 0
M  V30 2383 C 400.278 5.62629 -5.96531 0
M  V30 2384 O 400.668 6.87667 -5.41053 0
M  V30 2385 C 401.158 4.52537 -5.39283 0
M  V30 2386 C 400.448 4.20027 -4.08623 0
M  V30 2387 N 400.498 2.76189 -3.71603 0
M  V30 2388 H 397.659 4.797 -7.24003 0
M  V30 2389 H 397.389 3.69856 -5.84513 0
M  V30 2390 H 398.256 6.10356 -5.41441 0
M  V30 2391 P 402.218 7.20834 -5.23717 0
M  V30 2392 O 402.438 8.66104 -5.38572 0
M  V30 2393 O 403.008 6.33544 -6.1349 0
M  V30 2394 O 402.468 6.7751 -3.72168 0
M  V30 2395 C 401.528 7.20825 -2.7076 0
M  V30 2396 C 402.258 7.45864 -1.40599 0
M  V30 2397 O 402.468 6.17651 -0.734225 0
M  V30 2398 C 403.658 8.05808 -1.51899 0
M  V30 2399 O 404.048 8.74358 -0.335205 0
M  V30 2400 C 404.538 6.83093 -1.70294 0
M  V30 2401 C 403.828 5.79992 -0.836974 0
M  V30 2402 N 403.878 4.41864 -1.38293 0
M  V30 2403 C 403.798 3.99538 -2.69438 0
M  V30 2404 N 403.878 2.69909 -2.84277 0
M  V30 2405 C 404.018 2.21719 -1.5408 0
M  V30 2406 C 404.148 0.891712 -1.06628 0
M  V30 2407 O 404.168 -0.161298 -1.70137 0
M  V30 2408 N 404.268 0.856846 0.334985 0
M  V30 2409 C 404.268 1.9641 1.15789 0
M  V30 2410 N 404.398 1.72708 2.46522 0
M  V30 2411 N 404.138 3.21165 0.713741 0
M  V30 2412 C 404.018 3.26797 -0.639748 0
M  V30 2413 H 401.039 8.13644 -3.0377 0
M  V30 2414 H 400.769 6.42788 -2.55485 0
M  V30 2415 H 401.636 8.12039 -0.792769 0
M  V30 2416 H 404.291 5.80061 0.166416 0
M  V30 2417 H 404.57 6.51287 -2.75604 0
M  V30 2418 H 405.562 7.01734 -1.34462 0
M  V30 2419 H 403.728 8.73674 -2.38337 0
M  V30 2420 H 403.679 4.68207 -3.53221 0
M  V30 2421 H 404.361 -0.0398818 0.767965 0
M  V30 2422 H 404.398 2.50995 3.13503 0
M  V30 2423 H 404.499 0.759148 2.80716 0
M  V30 2424 P 405.598 8.91 2.12633e-12 0
M  V30 2425 O 405.818 10.1726 0.733694 0
M  V30 2426 O 406.388 8.73148 -1.23936 0
M  V30 2427 O 405.848 7.66872 0.971405 0
M  V30 2428 C 404.908 7.42309 2.04641 0
M  V30 2429 C 405.638 6.86059 3.24661 0
M  V30 2430 O 405.848 5.42847 3.03646 0
M  V30 2431 C 407.038 7.41196 3.50753 0
M  V30 2432 O 407.428 7.27073 4.86816 0
M  V30 2433 C 407.918 6.5273 2.63741 0
M  V30 2434 C 407.208 5.1842 2.73198 0
M  V30 2435 N 407.258 4.38762 1.4784 0
M  V30 2436 C 407.178 4.81605 0.168631 0
M  V30 2437 N 407.258 3.85454 -0.713363 0
M  V30 2438 C 407.398 2.6994 0.0566958 0
M  V30 2439 C 407.528 1.34815 -0.338502 0
M  V30 2440 N 407.648 0.496304 0.77465 0
M  V30 2441 C 407.648 0.908403 2.09122 0
M  V30 2442 N 407.778 -0.0517805 3.00955 0
M  V30 2443 N 407.518 2.17875 2.46519 0
M  V30 2444 C 407.398 3.01988 1.4033 0
M  V30 2445 H 404.419 8.36803 2.32493 0
M  V30 2446 H 404.149 6.70197 1.71129 0
M  V30 2447 H 405.016 7.03551 4.13168 0
M  V30 2448 P 408.978 7.20834 5.23717 0
M  V30 2449 O 409.198 7.79853 6.57286 0
M  V30 2450 O 409.768 7.79239 4.12957 0
M  V30 2451 O 409.228 5.63315 5.29344 0
M  V30 2452 C 408.288 4.80255 6.01876 0
M  V30 2453 C 409.018 3.64202 6.65911 0
M  V30 2454 O 409.228 2.60694 5.64732 0
M  V30 2455 C 410.418 3.93473 7.1943 0
M  V30 2456 O 410.808 3.02071 8.21205 0
M  V30 2457 C 411.298 3.73047 5.97036 0
M  V30 2458 C 410.588 2.58828 5.25741 0
M  V30 2459 N 410.638 2.68068 3.77503 0
M  V30 2460 C 410.558 3.79715 2.96723 0
M  V30 2461 N 410.638 3.5377 1.68852 0
M  V30 2462 C 410.778 2.15054 1.63254 0
M  V30 2463 C 410.908 1.28964 0.518571 0
M  V30 2464 N 411.028 -0.0538097 0.918425 0
M  V30 2465 C 411.028 -0.494275 2.22578 0
M  V30 2466 N 411.158 -1.81086 2.40434 0
M  V30 2467 N 410.898 0.313645 3.27502 0
M  V30 2468 C 410.778 1.61829 2.91033 0
M  V30 2469 H 407.799 5.40332 6.79951 0
M  V30 2470 H 407.529 4.41613 5.32378 0
M  V30 2471 H 408.396 3.26331 7.47797 0
M  V30 2472 P 412.358 2.75334 8.47391 0
M  V30 2473 O 412.578 2.44571 9.90142 0
M  V30 2474 O 413.148 3.87688 7.92115 0
M  V30 2475 O 412.608 1.4459 7.59357 0
M  V30 2476 C 411.668 0.347608 7.69215 0
M  V30 2477 C 412.398 -0.96767 7.52806 0
M  V30 2478 O 412.608 -1.21036 6.1011 0
M  V30 2479 C 413.798 -1.04544 8.13308 0
M  V30 2480 O 414.188 -2.38311 8.41922 0
M  V30 2481 C 414.678 -0.491279 7.02284 0
M  V30 2482 C 413.968 -0.996264 5.77469 0
M  V30 2483 N 414.018 -0.0501916 4.62973 0
M  V30 2484 C 413.938 1.32786 4.63244 0
M  V30 2485 N 414.018 1.86957 3.44545 0
M  V30 2486 C 414.158 0.780241 2.58481 0
M  V30 2487 C 414.288 0.738536 1.17757 0
M  V30 2488 N 414.408 -0.58337 0.711393 0
M  V30 2489 C 414.408 -1.70816 1.51017 0
M  V30 2490 N 414.538 -2.87826 0.880757 0
M  V30 2491 N 414.278 -1.67126 2.8339 0
M  V30 2492 C 414.158 -0.401421 3.30572 0
M  V30 2493 H 411.179 0.374722 8.67691 0
M  V30 2494 H 410.909 0.443485 6.90277 0
M  V30 2495 H 411.776 -1.75537 7.96793 0
M  V30 2496 P 415.738 -2.75334 8.47391 0
M  V30 2497 O 415.958 -3.84128 9.44797 0
M  V30 2498 O 416.528 -1.51947 8.68712 0
M  V30 2499 O 415.988 -3.29363 6.99321 0
M  V30 2500 C 415.048 -4.24011 6.4274 0
M  V30 2501 C 415.778 -5.20775 5.52155 0
M  V30 2502 O 415.988 -4.56534 4.22446 0
M  V30 2503 C 417.178 -5.62629 5.96531 0
M  V30 2504 O 417.568 -6.87667 5.41053 0
M  V30 2505 C 418.058 -4.52537 5.39283 0
M  V30 2506 C 417.348 -4.20027 4.08623 0
M  V30 2507 N 417.398 -2.76189 3.71603 0
M  V30 2508 C 417.318 -1.64862 4.52822 0
M  V30 2509 N 417.398 -0.512671 3.88633 0
M  V30 2510 C 417.538 -0.888083 2.54977 0
M  V30 2511 C 417.668 -0.094668 1.38677 0
M  V30 2512 N 417.788 -0.890102 0.232633 0
M  V30 2513 C 417.788 -2.26958 0.21772 0
M  V30 2514 N 417.918 -2.84626 -0.97925 0
M  V30 2515 N 417.658 -3.0178 1.31033 0
M  V30 2516 C 417.538 -2.26781 2.43843 0
M  V30 2517 H 414.559 -4.797 7.24003 0
M  V30 2518 H 414.289 -3.69856 5.84513 0
M  V30 2519 H 415.156 -6.10356 5.41441 0
M  V30 2520 P 419.118 -7.20834 5.23717 0
M  V30 2521 O 419.338 -8.66104 5.38572 0
M  V30 2522 O 419.908 -6.33544 6.1349 0
M  V30 2523 O 419.368 -6.7751 3.72168 0
M  V30 2524 C 418.428 -7.20825 2.7076 0
M  V30 2525 C 419.158 -7.45864 1.40599 0
M  V30 2526 O 419.368 -6.17651 0.734225 0
M  V30 2527 C 420.558 -8.05808 1.51899 0
M  V30 2528 O 420.948 -8.74358 0.335205 0
M  V30 2529 C 421.438 -6.83093 1.70294 0
M  V30 2530 C 420.728 -5.79992 0.836974 0
M  V30 2531 N 420.778 -4.41864 1.38293 0
M  V30 2532 H 417.939 -8.13644 3.0377 0
M  V30 2533 H 417.669 -6.42788 2.55485 0
M  V30 2534 H 418.536 -8.12039 0.792769 0
M  V30 2535 P 422.497 -8.91 -2.28351e-12 0
M  V30 2536 O 422.717 -10.1726 -0.733694 0
M  V30 2537 O 423.287 -8.73148 1.23936 0
M  V30 2538 O 422.747 -7.66872 -0.971405 0
M  V30 2539 C 421.807 -7.42309 -2.04641 0
M  V30 2540 C 422.537 -6.86059 -3.24661 0
M  V30 2541 O 422.747 -5.42847 -3.03646 0
M  V30 2542 C 423.937 -7.41196 -3.50753 0
M  V30 2543 O 424.327 -7.27073 -4.86816 0
M  V30 2544 C 424.817 -6.5273 -2.63741 0
M  V30 2545 C 424.107 -5.1842 -2.73198 0
M  V30 2546 N 424.157 -4.38762 -1.4784 0
M  V30 2547 H 421.318 -8.36803 -2.32493 0
M  V30 2548 H 421.048 -6.70197 -1.71129 0
M  V30 2549 H 421.915 -7.03551 -4.13168 0
M  V30 2550 P 425.877 -7.20834 -5.23717 0
M  V30 2551 O 426.097 -7.79853 -6.57286 0
M  V30 2552 O 426.667 -7.79239 -4.12957 0
M  V30 2553 O 426.127 -5.63315 -5.29344 0
M  V30 2554 C 425.187 -4.80255 -6.01876 0
M  V30 2555 C 425.917 -3.64202 -6.65911 0
M  V30 2556 O 426.127 -2.60694 -5.64732 0
M  V30 2557 C 427.317 -3.93473 -7.1943 0
M  V30 2558 O 427.707 -3.02071 -8.21205 0
M  V30 2559 C 428.197 -3.73047 -5.97036 0
M  V30 2560 C 427.487 -2.58828 -5.25741 0
M  V30 2561 N 427.537 -2.68068 -3.77503 0
M  V30 2562 H 424.698 -5.40332 -6.79951 0
M  V30 2563 H 424.428 -4.41613 -5.32378 0
M  V30 2564 H 425.295 -3.26331 -7.47797 0
M  V30 2565 P 429.257 -2.75334 -8.47391 0
M  V30 2566 O 429.477 -2.44619 -9.90336 0
M  V30 2567 O 430.047 -3.87776 -7.92294 0
M  V30 2568 O 429.507 -1.4459 -7.59357 0
M  V30 2569 C 428.567 -0.347653 -7.69315 0
M  V30 2570 C 429.297 0.96767 -7.52806 0
M  V30 2571 O 429.507 1.21055 -6.10208 0
M  V30 2572 C 430.697 1.04557 -8.13408 0
M  V30 2573 O 431.087 2.38311 -8.41922 0
M  V30 2574 C 431.577 0.491279 -7.02284 0
M  V30 2575 C 430.867 0.996264 -5.77469 0
M  V30 2576 N 430.917 0.0501916 -4.62973 0
M  V30 2577 C 430.837 -1.31969 -4.65661 0
M  V30 2578 N 430.907 -1.86649 -3.48119 0
M  V30 2579 C 431.057 -0.792089 -2.62406 0
M  V30 2580 C 431.187 -0.705684 -1.2207 0
M  V30 2581 N 431.197 -1.76207 -0.413762 0
M  V30 2582 N 431.307 0.518981 -0.685754 0
M  V30 2583 C 431.297 1.57595 -1.49174 0
M  V30 2584 N 431.177 1.62909 -2.80066 0
M  V30 2585 C 431.057 0.388195 -3.3073 0
M  V30 2586 H 428.079 -0.374765 -8.67791 0
M  V30 2587 H 427.807 -0.443613 -6.90476 0
M  V30 2588 H 428.675 1.75559 -7.96891 0
M  V30 2589 H 431.33 1.94563 -5.46818 0
M  V30 2590 H 431.61 -0.608651 -7.04676 0
M  V30 2591 H 432.601 0.889796 -7.09039 0
M  V30 2592 H 430.767 0.433128 -9.04664 0
M  V30 2593 H 430.726 -1.89246 -5.57664 0
M  V30 2594 H 431.107 -2.71005 -0.804694 0
M  V30 2595 H 431.296 -1.63189 0.603768 0
M  V30 2596 H 431.404 2.53475 -0.997614 0
M  V30 2597 H 430.956 2.92663 -7.63961 0
M  V30 2598 H 434.978 0.0909867 9.51056 0
M  V30 2599 O 434.858 0.778697 8.86988 0
M  V30 2600 P 433.417 1.17771 8.83182 0
M  V30 2601 O 433.197 2.07206 9.98732 0
M  V30 2602 O 432.627 -0.0743816 8.81969 0
M  V30 2603 O 433.167 1.97652 7.47304 0
M  V30 2604 C 434.107 3.01055 7.08599 0
M  V30 2605 C 433.377 4.12613 6.37049 0
M  V30 2606 O 433.167 3.72827 4.97879 0
M  V30 2607 C 431.977 4.45719 6.88164 0
M  V30 2608 O 431.587 5.7877 6.5624 0
M  V30 2609 C 431.097 3.47768 6.11991 0
M  V30 2610 C 431.807 3.39356 4.77615 0
M  V30 2611 N 431.757 2.04571 4.15244 0
M  V30 2612 C 431.607 1.98587 2.78314 0
M  V30 2613 O 431.517 2.98134 2.08835 0
M  V30 2614 N 431.567 0.714467 2.24925 0
M  V30 2615 C 431.657 -0.470001 2.94169 0
M  V30 2616 O 431.607 -1.55587 2.35195 0
M  V30 2617 C 431.807 -0.312541 4.36783 0
M  V30 2618 C 431.917 -1.57711 5.16352 0
M  V30 2619 C 431.857 0.914512 4.92583 0
M  V30 2620 H 434.598 3.41169 7.98575 0
M  V30 2621 H 434.867 2.58295 6.41556 0
M  V30 2622 H 434 5.02657 6.42673 0
M  V30 2623 H 431.345 4.11637 4.08885 0
M  V30 2624 H 431.066 2.49626 6.61679 0
M  V30 2625 H 430.074 3.86566 6.00778 0
M  V30 2626 H 431.908 4.29943 7.96918 0
M  V30 2627 H 431.979 1.00937 6.00374 0
M  V30 2628 H 430.949 -1.80153 5.63503 0
M  V30 2629 H 432.686 -1.4566 5.94104 0
M  V30 2630 H 432.198 -2.40664 4.49645 0
M  V30 2631 H 431.462 0.647622 1.25697 0
M  V30 2632 P 430.037 6.144 6.45285 0
M  V30 2633 O 429.817 7.54673 6.86199 0
M  V30 2634 O 429.247 5.12391 7.179 0
M  V30 2635 O 429.787 5.99158 4.88404 0
M  V30 2636 C 430.727 6.60234 3.96415 0
M  V30 2637 C 429.997 7.08259 2.72856 0
M  V30 2638 O 429.787 5.9427 1.83651 0
M  V30 2639 C 428.597 7.64886 2.9555 0
M  V30 2640 O 428.207 8.53963 1.90717 0
M  V30 2641 C 427.717 6.4116 2.90739 0
M  V30 2642 C 428.427 5.55375 1.86963 0
M  V30 2643 N 428.377 4.09664 2.15742 0
M  V30 2644 H 431.216 7.45574 4.45629 0
M  V30 2645 H 431.488 5.86232 3.67314 0
M  V30 2646 H 430.62 7.84412 2.24479 0
M  V30 2647 P 426.657 8.7635 1.60911 0
M  V30 2648 O 426.437 10.1388 1.11561 0
M  V30 2649 O 425.867 8.36503 2.79617 0
M  V30 2650 O 426.407 7.71806 0.42951 0
M  V30 2651 C 427.347 7.67148 -0.673689 0
M  V30 2652 C 426.617 7.33374 -1.95559 0
M  V30 2653 O 426.407 5.88721 -2.00726 0
M  V30 2654 C 425.217 7.92526 -2.10483 0
M  V30 2655 O 424.827 8.02971 -3.47653 0
M  V30 2656 C 424.337 6.89602 -1.41652 0
M  V30 2657 C 425.047 5.59201 -1.75185 0
M  V30 2658 N 424.997 4.58235 -0.662552 0
M  V30 2659 H 427.836 8.65116 -0.777161 0
M  V30 2660 H 428.108 6.90173 -0.474152 0
M  V30 2661 H 427.24 7.66548 -2.79458 0
M  V30 2662 P 423.278 8.03563 -3.84925 0
M  V30 2663 O 423.058 8.85821 -5.0569 0
M  V30 2664 O 422.488 8.41101 -2.65469 0
M  V30 2665 O 423.028 6.4965 -4.18908 0
M  V30 2666 C 423.968 5.81037 -5.05421 0
M  V30 2667 C 423.238 4.78366 -5.89277 0
M  V30 2668 O 423.028 3.58302 -5.08433 0
M  V30 2669 C 421.838 5.17448 -6.36119 0
M  V30 2670 O 421.448 4.45271 -7.53232 0
M  V30 2671 C 420.958 4.74639 -5.19936 0
M  V30 2672 C 421.668 3.49432 -4.70418 0
M  V30 2673 N 421.618 3.32099 -3.22613 0
M  V30 2674 H 424.457 6.54213 -5.71376 0
M  V30 2675 H 424.729 5.30936 -4.43503 0
M  V30 2676 H 423.861 4.55889 -6.76652 0
M  V30 2677 H 421.206 2.61715 -5.17932 0
M  V30 2678 H 420.926 5.52155 -4.41878 0
M  V30 2679 H 419.935 4.51981 -5.53374 0
M  V30 2680 H 421.769 6.25124 -6.55234 0
M  V30 2681 P 419.898 4.23843 -7.83734 0
M  V30 2682 O 419.678 4.19407 -9.29784 0
M  V30 2683 O 419.108 5.24426 -7.09156 0
M  V30 2684 O 419.648 2.7935 -7.20758 0
M  V30 2685 C 420.588 1.72945 -7.50224 0
M  V30 2686 C 419.858 0.406376 -7.57911 0
M  V30 2687 O 419.648 -0.0897726 -6.21935 0
M  V30 2688 C 418.458 0.438983 -8.18724 0
M  V30 2689 O 418.068 -0.825065 -8.71101 0
M  V30 2690 C 417.578 0.783689 -6.99524 0
M  V30 2691 C 418.288 0.0619086 -5.85867 0
M  V30 2692 N 418.238 0.78573 -4.56183 0
M  V30 2693 C 418.088 0.0292889 -3.41887 0
M  V30 2694 O 417.998 -1.18445 -3.4419 0
M  V30 2695 N 418.048 0.744061 -2.23964 0
M  V30 2696 C 418.138 2.10932 -2.10362 0
M  V30 2697 C 418.288 2.8202 -3.34994 0
M  V30 2698 C 418.338 2.15547 -4.52261 0
M  V30 2699 H 421.079 1.93379 -8.46595 0
M  V30 2700 H 421.348 1.68132 -6.70852 0
M  V30 2701 H 420.481 -0.289041 -8.15388 0
M  V30 2702 H 417.826 -0.926847 -5.72749 0
M  V30 2703 H 417.547 1.86973 -6.82036 0
M  V30 2704 H 416.555 0.403896 -7.13257 0
M  V30 2705 H 418.389 1.20585 -8.97435 0
M  V30 2706 H 418.46 2.71231 -5.45042 0
M  V30 2707 P 416.518 -1.17771 -8.83182 0
M  V30 2708 O 416.298 -2.07206 -9.98732 0
M  V30 2709 O 415.728 0.0743816 -8.81969 0
M  V30 2710 O 416.268 -1.97652 -7.47304 0
M  V30 2711 C 417.208 -3.01055 -7.08599 0
M  V30 2712 C 416.478 -4.12613 -6.37049 0
M  V30 2713 O 416.268 -3.72827 -4.97879 0
M  V30 2714 C 415.078 -4.45719 -6.88164 0
M  V30 2715 O 414.688 -5.7877 -6.5624 0
M  V30 2716 C 414.198 -3.47768 -6.11991 0
M  V30 2717 C 414.908 -3.39356 -4.77615 0
M  V30 2718 N 414.858 -2.04571 -4.15244 0
M  V30 2719 C 414.708 -1.98587 -2.78314 0
M  V30 2720 O 414.618 -2.98134 -2.08835 0
M  V30 2721 N 414.668 -0.714467 -2.24925 0
M  V30 2722 C 414.758 0.470001 -2.94169 0
M  V30 2723 C 414.908 0.312541 -4.36783 0
M  V30 2724 C 414.958 -0.914512 -4.92583 0
M  V30 2725 H 417.699 -3.41169 -7.98575 0
M  V30 2726 H 417.968 -2.58295 -6.41556 0
M  V30 2727 H 417.101 -5.02657 -6.42673 0
M  V30 2728 H 414.446 -4.11637 -4.08885 0
M  V30 2729 H 414.167 -2.49626 -6.61679 0
M  V30 2730 H 413.175 -3.86566 -6.00778 0
M  V30 2731 H 415.009 -4.29943 -7.96918 0
M  V30 2732 H 415.08 -1.00937 -6.00374 0
M  V30 2733 P 413.138 -6.144 -6.45285 0
M  V30 2734 O 412.918 -7.54673 -6.86199 0
M  V30 2735 O 412.348 -5.12391 -7.179 0
M  V30 2736 O 412.888 -5.99158 -4.88404 0
M  V30 2737 C 413.828 -6.60062 -3.96313 0
M  V30 2738 C 413.098 -7.08259 -2.72856 0
M  V30 2739 O 412.888 -5.9427 -1.83651 0
M  V30 2740 C 411.698 -7.65087 -2.94749 0
M  V30 2741 O 411.308 -8.53963 -1.90717 0
M  V30 2742 C 410.818 -6.41069 -2.90698 0
M  V30 2743 C 411.528 -5.5528 -1.86931 0
M  V30 2744 N 411.478 -4.09575 -2.15696 0
M  V30 2745 C 411.328 -3.24249 -1.08435 0
M  V30 2746 O 411.238 -3.63946 0.0628747 0
M  V30 2747 N 411.288 -1.90009 -1.39973 0
M  V30 2748 C 411.378 -1.34884 -2.65614 0
M  V30 2749 C 411.528 -2.3145 -3.71736 0
M  V30 2750 C 411.578 -3.63518 -3.44754 0
M  V30 2751 H 414.319 -7.45402 -4.45526 0
M  V30 2752 H 414.588 -5.86062 -3.67208 0
M  V30 2753 H 413.721 -7.84412 -2.24479 0
M  V30 2754 H 411.066 -5.73358 -0.888409 0
M  V30 2755 H 410.787 -5.90877 -3.88583 0
M  V30 2756 H 409.795 -6.65867 -2.58821 0
M  V30 2757 H 411.629 -8.16248 -3.92006 0
M  V30 2758 H 411.7 -4.34551 -4.26383 0
M  V30 2759 P 409.758 -8.7635 -1.60911 0
M  V30 2760 O 409.538 -10.1388 -1.11561 0
M  V30 2761 O 408.968 -8.36503 -2.79617 0
M  V30 2762 O 409.508 -7.71806 -0.42951 0
M  V30 2763 C 410.448 -7.66948 0.673514 0
M  V30 2764 C 409.718 -7.33374 1.95559 0
M  V30 2765 O 409.508 -5.88721 2.00726 0
M  V30 2766 C 408.318 -7.92218 2.1125 0
M  V30 2767 O 407.928 -8.02971 3.47653 0
M  V30 2768 C 407.438 -6.89504 1.41631 0
M  V30 2769 C 408.148 -5.59106 1.75155 0
M  V30 2770 N 408.098 -4.58136 0.662409 0
M  V30 2771 C 407.948 -3.26059 1.02863 0
M  V30 2772 O 407.858 -2.90743 2.19009 0
M  V30 2773 N 407.908 -2.35995 -0.0155585 0
M  V30 2774 C 407.998 -2.65248 -1.35603 0
M  V30 2775 C 408.148 -4.05747 -1.64698 0
M  V30 2776 C 408.198 -4.96734 -0.652411 0
M  V30 2777 H 410.939 -8.64917 0.776982 0
M  V30 2778 H 411.208 -6.89974 0.474015 0
M  V30 2779 H 410.341 -7.66548 2.79458 0
M  V30 2780 H 407.686 -5.16076 2.65138 0
M  V30 2781 H 407.407 -7.06433 0.329384 0
M  V30 2782 H 406.415 -6.90829 1.81996 0
M  V30 2783 H 408.249 -8.90774 1.62639 0
M  V30 2784 H 408.32 -6.02181 -0.895285 0
M  V30 2785 P 406.378 -8.03563 3.84925 0
M  V30 2786 O 406.158 -8.85821 5.0569 0
M  V30 2787 O 405.588 -8.41101 2.65469 0
M  V30 2788 O 406.128 -6.49734 4.18962 0
M  V30 2789 C 407.068 -5.81037 5.05421 0
M  V30 2790 C 406.338 -4.79018 5.88876 0
M  V30 2791 O 406.128 -3.58359 5.08515 0
M  V30 2792 C 404.938 -5.17448 6.36119 0
M  V30 2793 O 404.548 -4.45322 7.53318 0
M  V30 2794 C 404.058 -4.74639 5.19936 0
M  V30 2795 C 404.768 -3.49432 4.70418 0
M  V30 2796 N 404.718 -3.31776 3.22945 0
M  V30 2797 C 404.568 -2.02742 2.72939 0
M  V30 2798 O 404.478 -1.08301 3.52749 0
M  V30 2799 N 404.518 -1.96117 1.22063 0
M  V30 2800 C 404.618 -2.8878 0.551566 0
M  V30 2801 N 404.568 -2.65609 -0.750198 0
M  V30 2802 C 404.768 -4.22457 1.03707 0
M  V30 2803 C 404.818 -4.37979 2.39113 0
M  V30 2804 H 407.558 -6.54138 5.7131 0
M  V30 2805 H 407.828 -5.30492 4.44033 0
M  V30 2806 H 406.961 -4.55945 6.76735 0
M  V30 2807 H 404.306 -2.6176 5.18021 0
M  V30 2808 H 404.026 -5.52233 4.41941 0
M  V30 2809 H 403.035 -4.52045 5.53452 0
M  V30 2810 H 404.869 -6.25124 6.55234 0
M  V30 2811 H 404.941 -5.37936 2.80552 0
M  V30 2812 H 404.839 -5.07528 0.359553 0
M  V30 2813 H 404.451 -1.69403 -1.09847 0
M  V30 2814 H 404.647 -3.43701 -1.41792 0
M  V30 2815 P 402.998 -4.23843 7.83734 0
M  V30 2816 O 402.778 -4.19407 9.29784 0
M  V30 2817 O 402.208 -5.24426 7.09156 0
M  V30 2818 O 402.748 -2.7935 7.20758 0
M  V30 2819 C 403.688 -1.7299 7.50419 0
M  V30 2820 C 402.958 -0.406376 7.57911 0
M  V30 2821 O 402.748 0.0897726 6.21935 0
M  V30 2822 C 401.558 -0.447224 8.1878 0
M  V30 2823 O 401.168 0.825065 8.71101 0
M  V30 2824 C 400.678 -0.783801 6.99623 0
M  V30 2825 C 401.388 -0.0619192 5.85967 0
M  V30 2826 N 401.338 -0.7859 4.56281 0
M  V30 2827 H 404.177 -1.93423 8.4679 0
M  V30 2828 H 404.449 -1.68181 6.71046 0
M  V30 2829 H 403.581 0.289041 8.15388 0
M  V30 2830 P 399.618 1.17771 8.83182 0
M  V30 2831 O 399.398 2.07206 9.98732 0
M  V30 2832 O 398.828 -0.0743816 8.81969 0
M  V30 2833 O 399.368 1.97652 7.47304 0
M  V30 2834 C 400.308 3.01055 7.08599 0
M  V30 2835 C 399.578 4.12613 6.37049 0
M  V30 2836 O 399.368 3.72827 4.97879 0
M  V30 2837 C 398.178 4.45719 6.88164 0
M  V30 2838 O 397.788 5.7877 6.5624 0
M  V30 2839 C 397.298 3.47768 6.11991 0
M  V30 2840 C 398.008 3.39356 4.77615 0
M  V30 2841 N 397.958 2.04571 4.15244 0
M  V30 2842 C 397.808 1.98587 2.78314 0
M  V30 2843 O 397.718 2.98134 2.08835 0
M  V30 2844 N 397.768 0.714467 2.24925 0
M  V30 2845 C 397.858 -0.470001 2.94169 0
M  V30 2846 O 397.808 -1.55587 2.35195 0
M  V30 2847 C 398.008 -0.312541 4.36783 0
M  V30 2848 C 398.118 -1.57711 5.16352 0
M  V30 2849 C 398.058 0.914512 4.92583 0
M  V30 2850 H 400.799 3.41169 7.98575 0
M  V30 2851 H 401.068 2.58295 6.41556 0
M  V30 2852 H 400.201 5.02657 6.42673 0
M  V30 2853 H 397.546 4.11637 4.08885 0
M  V30 2854 H 397.267 2.49626 6.61679 0
M  V30 2855 H 396.275 3.86566 6.00778 0
M  V30 2856 H 398.109 4.29943 7.96918 0
M  V30 2857 H 398.18 1.00937 6.00374 0
M  V30 2858 H 397.15 -1.80153 5.63503 0
M  V30 2859 H 398.887 -1.4566 5.94104 0
M  V30 2860 H 398.399 -2.40664 4.49645 0
M  V30 2861 H 397.663 0.647622 1.25697 0
M  V30 2862 P 396.238 6.144 6.45285 0
M  V30 2863 O 396.018 7.54673 6.86199 0
M  V30 2864 O 395.448 5.12391 7.179 0
M  V30 2865 O 395.988 5.99158 4.88404 0
M  V30 2866 C 396.928 6.60234 3.96415 0
M  V30 2867 C 396.198 7.08259 2.72856 0
M  V30 2868 O 395.988 5.9427 1.83651 0
M  V30 2869 C 394.798 7.64886 2.9555 0
M  V30 2870 O 394.408 8.53963 1.90717 0
M  V30 2871 C 393.918 6.4116 2.90739 0
M  V30 2872 C 394.628 5.55375 1.86963 0
M  V30 2873 N 394.578 4.09448 2.16152 0
M  V30 2874 H 397.417 7.45574 4.45629 0
M  V30 2875 H 397.689 5.85864 3.679 0
M  V30 2876 H 396.821 7.84412 2.24479 0
M  V30 2877 H 394.166 5.73457 0.888562 0
M  V30 2878 H 393.886 5.90877 3.88583 0
M  V30 2879 H 392.895 6.6596 2.58858 0
M  V30 2880 H 394.729 8.16339 3.92049 0
M  V30 2881 P 392.858 8.7635 1.60911 0
M  V30 2882 O 392.638 10.1388 1.11561 0
M  V30 2883 O 392.068 8.36503 2.79617 0
M  V30 2884 O 392.608 7.71806 0.42951 0
M  V30 2885 C 393.548 7.67148 -0.673689 0
M  V30 2886 C 392.818 7.33374 -1.95559 0
M  V30 2887 O 392.608 5.88721 -2.00726 0
M  V30 2888 C 391.418 7.92526 -2.10483 0
M  V30 2889 O 391.028 8.02971 -3.47653 0
M  V30 2890 C 390.538 6.89602 -1.41652 0
M  V30 2891 C 391.248 5.59201 -1.75185 0
M  V30 2892 N 391.198 4.58301 -0.657969 0
M  V30 2893 H 394.037 8.65116 -0.777161 0
M  V30 2894 H 394.309 6.9022 -0.46725 0
M  V30 2895 H 393.441 7.66548 -2.79458 0
M  V30 2896 H 390.786 5.16165 -2.65183 0
M  V30 2897 H 390.506 7.06433 -0.329384 0
M  V30 2898 H 389.515 6.90926 -1.82021 0
M  V30 2899 H 391.349 8.90873 -1.62657 0
M  V30 2900 P 389.478 8.03563 -3.84925 0
M  V30 2901 O 389.258 8.85821 -5.0569 0
M  V30 2902 O 388.688 8.41101 -2.65469 0
M  V30 2903 O 389.228 6.49734 -4.18962 0
M  V30 2904 C 390.168 5.81037 -5.05421 0
M  V30 2905 C 389.438 4.79018 -5.88876 0
M  V30 2906 O 389.228 3.58359 -5.08515 0
M  V30 2907 C 388.038 5.17448 -6.36119 0
M  V30 2908 O 387.648 4.45322 -7.53318 0
M  V30 2909 C 387.158 4.74639 -5.19936 0
M  V30 2910 C 387.868 3.49432 -4.70418 0
M  V30 2911 N 387.818 3.31776 -3.22945 0
M  V30 2912 C 387.668 2.02742 -2.72939 0
M  V30 2913 O 387.578 1.08301 -3.52749 0
M  V30 2914 N 387.618 1.96117 -1.22063 0
M  V30 2915 C 387.718 2.8878 -0.551566 0
M  V30 2916 N 387.668 2.65609 0.750198 0
M  V30 2917 C 387.868 4.22457 -1.03707 0
M  V30 2918 C 387.918 4.37979 -2.39113 0
M  V30 2919 H 390.658 6.54138 -5.7131 0
M  V30 2920 H 390.928 5.30492 -4.44033 0
M  V30 2921 H 390.061 4.55945 -6.76735 0
M  V30 2922 H 387.406 2.6176 -5.18021 0
M  V30 2923 H 387.126 5.52233 -4.41941 0
M  V30 2924 H 386.135 4.52045 -5.53452 0
M  V30 2925 H 387.969 6.25124 -6.55234 0
M  V30 2926 H 388.041 5.37936 -2.80552 0
M  V30 2927 H 387.939 5.07528 -0.359553 0
M  V30 2928 H 387.551 1.69403 1.09847 0
M  V30 2929 H 387.747 3.43701 1.41792 0
M  V30 2930 P 386.098 4.23843 -7.83734 0
M  V30 2931 O 385.878 4.19407 -9.29784 0
M  V30 2932 O 385.308 5.24426 -7.09156 0
M  V30 2933 O 385.848 2.7935 -7.20758 0
M  V30 2934 C 386.788 1.7299 -7.50419 0
M  V30 2935 C 386.058 0.406376 -7.57911 0
M  V30 2936 O 385.848 -0.0897726 -6.21935 0
M  V30 2937 C 384.658 0.447224 -8.1878 0
M  V30 2938 O 384.268 -0.825065 -8.71101 0
M  V30 2939 C 383.778 0.783801 -6.99623 0
M  V30 2940 C 384.488 0.0619192 -5.85967 0
M  V30 2941 N 384.438 0.7859 -4.56281 0
M  V30 2942 H 387.277 1.93423 -8.4679 0
M  V30 2943 H 387.549 1.68181 -6.71046 0
M  V30 2944 H 386.681 -0.289041 -8.15388 0
M  V30 2945 P 382.718 -1.17771 -8.83182 0
M  V30 2946 O 382.498 -2.07206 -9.98732 0
M  V30 2947 O 381.928 0.0743816 -8.81969 0
M  V30 2948 O 382.468 -1.97652 -7.47304 0
M  V30 2949 C 383.408 -3.01133 -7.08783 0
M  V30 2950 C 382.678 -4.12613 -6.37049 0
M  V30 2951 O 382.468 -3.72827 -4.97879 0
M  V30 2952 C 381.278 -4.45085 -6.88694 0
M  V30 2953 O 380.888 -5.7877 -6.5624 0
M  V30 2954 C 380.398 -3.47817 -6.12078 0
M  V30 2955 C 381.108 -3.39414 -4.77697 0
M  V30 2956 N 381.058 -2.04615 -4.15333 0
M  V30 2957 H 383.897 -3.41248 -7.98759 0
M  V30 2958 H 384.169 -2.5837 -6.41742 0
M  V30 2959 H 383.301 -5.02657 -6.42673 0
M  V30 2960 P 379.338 -6.144 -6.45285 0
M  V30 2961 O 379.118 -7.54673 -6.86199 0
M  V30 2962 O 378.548 -5.12391 -7.179 0
M  V30 2963 O 379.088 -5.99158 -4.88404 0
M  V30 2964 C 380.028 -6.60234 -3.96415 0
M  V30 2965 C 379.298 -7.08259 -2.72856 0
M  V30 2966 O 379.088 -5.9427 -1.83651 0
M  V30 2967 C 377.898 -7.64886 -2.9555 0
M  V30 2968 O 377.508 -8.53963 -1.90717 0
M  V30 2969 C 377.018 -6.4116 -2.90739 0
M  V30 2970 C 377.728 -5.55375 -1.86963 0
M  V30 2971 N 377.678 -4.09448 -2.16152 0
M  V30 2972 C 377.758 -3.46824 -3.37593 0
M  V30 2973 N 377.688 -2.17422 -3.29777 0
M  V30 2974 C 377.538 -1.93065 -1.94427 0
M  V30 2975 C 377.408 -0.738053 -1.20141 0
M  V30 2976 N 377.398 0.474256 -1.74676 0
M  V30 2977 N 377.288 -0.850049 0.13045 0
M  V30 2978 C 377.298 -2.06169 0.676992 0
M  V30 2979 N 377.418 -3.23842 0.101312 0
M  V30 2980 C 377.538 -3.09402 -1.23122 0
M  V30 2981 H 380.517 -7.45574 -4.45629 0
M  V30 2982 H 380.789 -5.85864 -3.679 0
M  V30 2983 H 379.921 -7.84412 -2.24479 0
M  V30 2984 H 377.266 -5.73457 -0.888562 0
M  V30 2985 H 376.986 -5.90877 -3.88583 0
M  V30 2986 H 375.995 -6.6596 -2.58858 0
M  V30 2987 H 377.829 -8.16339 -3.92049 0
M  V30 2988 H 377.87 -4.00505 -4.3174 0
M  V30 2989 H 377.489 0.581337 -2.76658 0
M  V30 2990 H 377.3 1.30811 -1.14888 0
M  V30 2991 H 377.192 -2.08295 1.75542 0
M  V30 2992 P 375.958 -8.7635 -1.60911 0
M  V30 2993 O 375.738 -10.1388 -1.11561 0
M  V30 2994 O 375.168 -8.36503 -2.79617 0
M  V30 2995 O 375.708 -7.71806 -0.42951 0
M  V30 2996 C 376.648 -7.67148 0.673689 0
M  V30 2997 C 375.918 -7.33374 1.95559 0
M  V30 2998 O 375.708 -5.88721 2.00726 0
M  V30 2999 C 374.518 -7.92526 2.10483 0
M  V30 3000 O 374.128 -8.02971 3.47653 0
M  V30 3001 C 373.638 -6.89602 1.41652 0
M  V30 3002 C 374.348 -5.59201 1.75185 0
M  V30 3003 N 374.298 -4.58235 0.662552 0
M  V30 3004 H 377.137 -8.65116 0.777161 0
M  V30 3005 H 377.409 -6.90173 0.474152 0
M  V30 3006 H 376.541 -7.66548 2.79458 0
M  V30 3007 P 372.578 -8.03563 3.84925 0
M  V30 3008 O 372.358 -8.85821 5.0569 0
M  V30 3009 O 371.788 -8.41101 2.65469 0
M  V30 3010 O 372.328 -6.4965 4.18908 0
M  V30 3011 C 373.268 -5.81037 5.05421 0
M  V30 3012 C 372.538 -4.78366 5.89277 0
M  V30 3013 O 372.328 -3.58302 5.08433 0
M  V30 3014 C 371.138 -5.17448 6.36119 0
M  V30 3015 O 370.748 -4.45271 7.53232 0
M  V30 3016 C 370.258 -4.74639 5.19936 0
M  V30 3017 C 370.968 -3.49432 4.70418 0
M  V30 3018 N 370.918 -3.31776 3.22945 0
M  V30 3019 H 373.757 -6.54213 5.71376 0
M  V30 3020 H 374.029 -5.30492 4.44033 0
M  V30 3021 H 373.161 -4.55889 6.76652 0
M  V30 3022 P 369.198 -4.23843 7.83734 0
M  V30 3023 O 368.978 -4.19407 9.29784 0
M  V30 3024 O 368.408 -5.24426 7.09156 0
M  V30 3025 O 368.948 -2.7935 7.20758 0
M  V30 3026 C 369.888 -1.7299 7.50419 0
M  V30 3027 C 369.158 -0.406376 7.57911 0
M  V30 3028 O 368.948 0.0897726 6.21935 0
M  V30 3029 C 367.758 -0.447224 8.1878 0
M  V30 3030 O 367.368 0.825065 8.71101 0
M  V30 3031 C 366.878 -0.783801 6.99623 0
M  V30 3032 C 367.588 -0.0619192 5.85967 0
M  V30 3033 N 367.538 -0.7859 4.56281 0
M  V30 3034 H 370.377 -1.93423 8.4679 0
M  V30 3035 H 370.649 -1.68181 6.71046 0
M  V30 3036 H 369.781 0.289041 8.15388 0
M  V30 3037 P 365.818 1.17771 8.83182 0
M  V30 3038 O 365.598 2.07206 9.98732 0
M  V30 3039 O 365.028 -0.0743816 8.81969 0
M  V30 3040 O 365.568 1.97652 7.47304 0
M  V30 3041 C 366.508 3.01133 7.08783 0
M  V30 3042 C 365.778 4.12613 6.37049 0
M  V30 3043 O 365.568 3.72827 4.97879 0
M  V30 3044 C 364.378 4.45085 6.88694 0
M  V30 3045 O 363.988 5.7877 6.5624 0
M  V30 3046 C 363.498 3.47817 6.12078 0
M  V30 3047 C 364.208 3.39414 4.77697 0
M  V30 3048 N 364.158 2.04615 4.15333 0
M  V30 3049 H 366.997 3.41248 7.98759 0
M  V30 3050 H 367.269 2.5837 6.41742 0
M  V30 3051 H 366.401 5.02657 6.42673 0
M  V30 3052 P 362.438 6.144 6.45285 0
M  V30 3053 O 362.218 7.54673 6.86199 0
M  V30 3054 O 361.648 5.12391 7.179 0
M  V30 3055 O 362.188 5.99158 4.88404 0
M  V30 3056 C 363.128 6.60234 3.96415 0
M  V30 3057 C 362.398 7.08259 2.72856 0
M  V30 3058 O 362.188 5.9427 1.83651 0
M  V30 3059 C 360.998 7.64886 2.9555 0
M  V30 3060 O 360.608 8.53963 1.90717 0
M  V30 3061 C 360.118 6.4116 2.90739 0
M  V30 3062 C 360.828 5.55375 1.86963 0
M  V30 3063 N 360.778 4.09664 2.15742 0
M  V30 3064 H 363.617 7.45574 4.45629 0
M  V30 3065 H 363.889 5.86232 3.67314 0
M  V30 3066 H 363.021 7.84412 2.24479 0
M  V30 3067 P 359.058 8.7635 1.60911 0
M  V30 3068 O 358.838 10.1388 1.11561 0
M  V30 3069 O 358.268 8.36503 2.79617 0
M  V30 3070 O 358.808 7.71806 0.42951 0
M  V30 3071 C 359.748 7.67148 -0.673689 0
M  V30 3072 C 359.018 7.33374 -1.95559 0
M  V30 3073 O 358.808 5.88721 -2.00726 0
M  V30 3074 C 357.618 7.92526 -2.10483 0
M  V30 3075 O 357.228 8.02971 -3.47653 0
M  V30 3076 C 356.738 6.89602 -1.41652 0
M  V30 3077 C 357.448 5.59201 -1.75185 0
M  V30 3078 N 357.398 4.58301 -0.657969 0
M  V30 3079 H 360.237 8.65116 -0.777161 0
M  V30 3080 H 360.509 6.9022 -0.46725 0
M  V30 3081 H 359.641 7.66548 -2.79458 0
M  V30 3082 H 356.986 5.16165 -2.65183 0
M  V30 3083 H 356.706 7.06433 -0.329384 0
M  V30 3084 H 355.715 6.90926 -1.82021 0
M  V30 3085 H 357.549 8.90873 -1.62657 0
M  V30 3086 P 355.678 8.03563 -3.84925 0
M  V30 3087 O 355.458 8.85821 -5.0569 0
M  V30 3088 O 354.888 8.41101 -2.65469 0
M  V30 3089 O 355.428 6.4965 -4.18908 0
M  V30 3090 C 356.368 5.81037 -5.05421 0
M  V30 3091 C 355.638 4.78366 -5.89277 0
M  V30 3092 O 355.428 3.58302 -5.08433 0
M  V30 3093 C 354.238 5.17448 -6.36119 0
M  V30 3094 O 353.848 4.45271 -7.53232 0
M  V30 3095 C 353.358 4.74639 -5.19936 0
M  V30 3096 C 354.068 3.49432 -4.70418 0
M  V30 3097 N 354.018 3.31776 -3.22945 0
M  V30 3098 H 356.857 6.54213 -5.71376 0
M  V30 3099 H 357.129 5.30492 -4.44033 0
M  V30 3100 H 356.261 4.55889 -6.76652 0
M  V30 3101 P 352.298 4.23843 -7.83734 0
M  V30 3102 O 352.078 4.19407 -9.29784 0
M  V30 3103 O 351.508 5.24426 -7.09156 0
M  V30 3104 O 352.048 2.7935 -7.20758 0
M  V30 3105 C 352.988 1.7299 -7.50419 0
M  V30 3106 C 352.258 0.406376 -7.57911 0
M  V30 3107 O 352.048 -0.0897726 -6.21935 0
M  V30 3108 C 350.858 0.447224 -8.1878 0
M  V30 3109 O 350.468 -0.825065 -8.71101 0
M  V30 3110 C 349.978 0.783801 -6.99623 0
M  V30 3111 C 350.688 0.0619192 -5.85967 0
M  V30 3112 N 350.638 0.7859 -4.56281 0
M  V30 3113 H 353.477 1.93423 -8.4679 0
M  V30 3114 H 353.749 1.68181 -6.71046 0
M  V30 3115 H 352.881 -0.289041 -8.15388 0
M  V30 3116 P 348.918 -1.17771 -8.83182 0
M  V30 3117 O 348.698 -2.07206 -9.98732 0
M  V30 3118 O 348.128 0.0743816 -8.81969 0
M  V30 3119 O 348.668 -1.97678 -7.474 0
M  V30 3120 C 349.608 -3.01133 -7.08783 0
M  V30 3121 C 348.878 -4.1203 -6.37546 0
M  V30 3122 O 348.668 -3.72887 -4.9796 0
M  V30 3123 C 347.478 -4.45085 -6.88694 0
M  V30 3124 O 347.088 -5.78836 -6.56315 0
M  V30 3125 C 346.598 -3.47817 -6.12078 0
M  V30 3126 C 347.308 -3.39414 -4.77697 0
M  V30 3127 N 347.258 -2.04615 -4.15333 0
M  V30 3128 C 347.108 -1.96929 -2.77162 0
M  V30 3129 O 347.018 -3.02017 -2.12006 0
M  V30 3130 N 347.058 -0.55485 -2.24237 0
M  V30 3131 C 347.158 0.367808 -2.9169 0
M  V30 3132 N 347.108 1.53426 -2.29427 0
M  V30 3133 C 347.308 0.319148 -4.33828 0
M  V30 3134 C 347.358 -0.920672 -4.90433 0
M  V30 3135 H 350.098 -3.41209 -7.98667 0
M  V30 3136 H 350.368 -2.5837 -6.41742 0
M  V30 3137 H 349.501 -5.02718 -6.42752 0
M  V30 3138 H 346.846 -4.11779 -4.09026 0
M  V30 3139 H 346.566 -2.49661 -6.61772 0
M  V30 3140 H 345.575 -3.86674 -6.00946 0
M  V30 3141 H 347.409 -4.29991 -7.97006 0
M  V30 3142 H 347.481 -1.00589 -5.98303 0
M  V30 3143 H 347.379 1.22639 -4.93799 0
M  V30 3144 H 346.991 1.56819 -1.27167 0
M  V30 3145 H 347.187 2.41062 -2.83063 0
M  V30 3146 P 345.538 -6.144 -6.45285 0
M  V30 3147 O 345.318 -7.54673 -6.86199 0
M  V30 3148 O 344.748 -5.12391 -7.179 0
M  V30 3149 O 345.288 -5.99236 -4.88467 0
M  V30 3150 C 346.228 -6.60234 -3.96415 0
M  V30 3151 C 345.498 -7.08079 -2.736 0
M  V30 3152 O 345.288 -5.94365 -1.8368 0
M  V30 3153 C 344.098 -7.64886 -2.9555 0
M  V30 3154 O 343.708 -8.5406 -1.90739 0
M  V30 3155 C 343.218 -6.4116 -2.90739 0
M  V30 3156 C 343.928 -5.55375 -1.86963 0
M  V30 3157 N 343.878 -4.09664 -2.15742 0
M  V30 3158 C 343.728 -3.22231 -1.08477 0
M  V30 3159 O 343.638 -3.68951 0.0600489 0
M  V30 3160 N 343.678 -1.76692 -1.48799 0
M  V30 3161 C 343.778 -1.41695 -2.57602 0
M  V30 3162 N 343.728 -0.107296 -2.75791 0
M  V30 3163 C 343.928 -2.29178 -3.69733 0
M  V30 3164 C 343.978 -3.62753 -3.42653 0
M  V30 3165 H 346.718 -7.45488 -4.45578 0
M  V30 3166 H 346.988 -5.86232 -3.67314 0
M  V30 3167 H 346.121 -7.84508 -2.24507 0
M  V30 3168 H 343.466 -5.73556 -0.888715 0
M  V30 3169 H 343.186 -5.9096 -3.88638 0
M  V30 3170 H 342.195 -6.66053 -2.58894 0
M  V30 3171 H 344.029 -8.16339 -3.92049 0
M  V30 3172 H 344.101 -4.33052 -4.24913 0
M  V30 3173 H 343.999 -1.9103 -4.71577 0
M  V30 3174 H 343.611 0.521221 -1.95056 0
M  V30 3175 H 343.807 0.286429 -3.70695 0
M  V30 3176 P 342.158 -8.7635 -1.60911 0
M  V30 3177 O 341.938 -10.1388 -1.11561 0
M  V30 3178 O 341.368 -8.36503 -2.79617 0
M  V30 3179 O 341.908 -7.71806 -0.42951 0
M  V30 3180 C 342.848 -7.67148 0.673689 0
M  V30 3181 C 342.118 -7.33374 1.95559 0
M  V30 3182 O 341.908 -5.88721 2.00726 0
M  V30 3183 C 340.718 -7.92526 2.10483 0
M  V30 3184 O 340.328 -8.02971 3.47653 0
M  V30 3185 C 339.838 -6.89602 1.41652 0
M  V30 3186 C 340.548 -5.59201 1.75185 0
M  V30 3187 N 340.498 -4.58301 0.657969 0
M  V30 3188 H 343.337 -8.65116 0.777161 0
M  V30 3189 H 343.609 -6.9022 0.46725 0
M  V30 3190 H 342.741 -7.66548 2.79458 0
M  V30 3191 H 340.086 -5.16165 2.65183 0
M  V30 3192 H 339.806 -7.06433 0.329384 0
M  V30 3193 H 338.815 -6.90926 1.82021 0
M  V30 3194 H 340.649 -8.90873 1.62657 0
M  V30 3195 P 338.778 -8.03563 3.84925 0
M  V30 3196 O 338.558 -8.85821 5.0569 0
M  V30 3197 O 337.988 -8.41101 2.65469 0
M  V30 3198 O 338.528 -6.4965 4.18908 0
M  V30 3199 C 339.468 -5.80886 5.05289 0
M  V30 3200 C 338.738 -4.78366 5.89277 0
M  V30 3201 O 338.528 -3.58302 5.08433 0
M  V30 3202 C 337.338 -5.16748 6.36559 0
M  V30 3203 O 336.948 -4.45271 7.53232 0
M  V30 3204 C 336.458 -4.74572 5.19863 0
M  V30 3205 C 337.168 -3.49373 4.70338 0
M  V30 3206 N 337.118 -3.31704 3.22876 0
M  V30 3207 C 336.968 -2.03326 2.74871 0
M  V30 3208 O 336.878 -1.06486 3.48076 0
M  V30 3209 N 336.928 -1.91838 1.37456 0
M  V30 3210 C 337.018 -2.94295 0.462035 0
M  V30 3211 C 337.168 -4.25064 1.05249 0
M  V30 3212 C 337.218 -4.40214 2.39192 0
M  V30 3213 H 339.959 -6.54063 5.71245 0
M  V30 3214 H 340.228 -5.30339 4.43905 0
M  V30 3215 H 339.361 -4.55889 6.76652 0
M  V30 3216 H 336.706 -2.6167 5.17842 0
M  V30 3217 H 336.427 -5.52155 4.41878 0
M  V30 3218 H 335.435 -4.51918 5.53297 0
M  V30 3219 H 337.269 -6.25055 6.55162 0
M  V30 3220 H 337.34 -5.39798 2.81523 0
M  V30 3221 P 335.398 -4.23843 7.83734 0
M  V30 3222 O 335.178 -4.19407 9.29784 0
M  V30 3223 O 334.608 -5.24426 7.09156 0
M  V30 3224 O 335.148 -2.7935 7.20758 0
M  V30 3225 C 336.088 -1.7299 7.50419 0
M  V30 3226 C 335.358 -0.406376 7.57911 0
M  V30 3227 O 335.148 0.0897726 6.21935 0
M  V30 3228 C 333.958 -0.447224 8.1878 0
M  V30 3229 O 333.568 0.825065 8.71101 0
M  V30 3230 C 333.078 -0.783801 6.99623 0
M  V30 3231 C 333.788 -0.0619192 5.85967 0
M  V30 3232 N 333.738 -0.790462 4.56202 0
M  V30 3233 H 336.577 -1.93423 8.4679 0
M  V30 3234 H 336.849 -1.68852 6.70877 0
M  V30 3235 H 335.981 0.289041 8.15388 0
M  V30 3236 H 333.326 0.927006 5.72848 0
M  V30 3237 H 333.046 -1.86973 6.82036 0
M  V30 3238 H 332.055 -0.403953 7.13357 0
M  V30 3239 H 333.889 -1.20599 8.97534 0
M  V30 3240 P 332.018 1.17771 8.83182 0
M  V30 3241 O 331.798 2.07206 9.98732 0
M  V30 3242 O 331.228 -0.0743816 8.81969 0
M  V30 3243 O 331.768 1.97652 7.47304 0
M  V30 3244 C 332.708 3.01133 7.08783 0
M  V30 3245 C 331.978 4.12613 6.37049 0
M  V30 3246 O 331.768 3.72827 4.97879 0
M  V30 3247 C 330.578 4.45085 6.88694 0
M  V30 3248 O 330.188 5.7877 6.5624 0
M  V30 3249 C 329.698 3.47817 6.12078 0
M  V30 3250 C 330.408 3.39414 4.77697 0
M  V30 3251 N 330.358 2.04615 4.15333 0
M  V30 3252 H 333.197 3.41248 7.98759 0
M  V30 3253 H 333.469 2.5837 6.41742 0
M  V30 3254 H 332.601 5.02657 6.42673 0
M  V30 3255 P 328.638 6.144 6.45285 0
M  V30 3256 O 328.418 7.54673 6.86199 0
M  V30 3257 O 327.848 5.12391 7.179 0
M  V30 3258 O 328.388 5.99158 4.88404 0
M  V30 3259 C 329.328 6.60234 3.96415 0
M  V30 3260 C 328.598 7.08259 2.72856 0
M  V30 3261 O 328.388 5.9427 1.83651 0
M  V30 3262 C 327.198 7.64886 2.9555 0
M  V30 3263 O 326.808 8.53963 1.90717 0
M  V30 3264 C 326.318 6.4116 2.90739 0
M  V30 3265 C 327.028 5.55375 1.86963 0
M  V30 3266 N 326.978 4.09664 2.15742 0
M  V30 3267 H 329.817 7.45574 4.45629 0
M  V30 3268 H 330.089 5.86232 3.67314 0
M  V30 3269 H 329.221 7.84412 2.24479 0
M  V30 3270 P 325.258 8.7635 1.60911 0
M  V30 3271 O 325.038 10.1388 1.11561 0
M  V30 3272 O 324.468 8.36503 2.79617 0
M  V30 3273 O 325.008 7.71906 0.429565 0
M  V30 3274 C 325.948 7.67148 -0.673689 0
M  V30 3275 C 325.218 7.33666 -1.94851 0
M  V30 3276 O 325.008 5.88816 -2.00759 0
M  V30 3277 C 323.818 7.92526 -2.10483 0
M  V30 3278 O 323.428 8.03063 -3.47693 0
M  V30 3279 C 322.938 6.89602 -1.41652 0
M  V30 3280 C 323.648 5.59201 -1.75185 0
M  V30 3281 N 323.598 4.58235 -0.662552 0
M  V30 3282 C 323.448 3.24451 -1.01643 0
M  V30 3283 O 323.358 2.94958 -2.21722 0
M  V30 3284 N 323.398 2.30408 0.165238 0
M  V30 3285 C 323.498 2.66048 1.25118 0
M  V30 3286 N 323.448 1.70787 2.16813 0
M  V30 3287 C 323.648 4.02732 1.64413 0
M  V30 3288 C 323.698 4.9488 0.63991 0
M  V30 3289 H 326.438 8.65017 -0.777072 0
M  V30 3290 H 326.708 6.90173 -0.474152 0
M  V30 3291 H 325.841 7.66642 -2.79492 0
M  V30 3292 H 323.186 5.16254 -2.65229 0
M  V30 3293 H 322.906 7.06532 -0.329431 0
M  V30 3294 H 321.915 6.91023 -1.82047 0
M  V30 3295 H 323.749 8.90873 -1.62657 0
M  V30 3296 H 323.821 6.00104 0.892197 0
M  V30 3297 H 323.719 4.31733 2.69229 0
M  V30 3298 H 323.331 0.724835 1.8844 0
M  V30 3299 H 323.527 1.94716 3.16734 0
M  V30 3300 P 321.878 8.03563 -3.84925 0
M  V30 3301 O 321.658 8.85821 -5.0569 0
M  V30 3302 O 321.088 8.41101 -2.65469 0
M  V30 3303 O 321.628 6.4965 -4.18908 0
M  V30 3304 C 322.568 5.80886 -5.05289 0
M  V30 3305 C 321.838 4.78366 -5.89277 0
M  V30 3306 O 321.628 3.58302 -5.08433 0
M  V30 3307 C 320.438 5.16748 -6.36559 0
M  V30 3308 O 320.048 4.45271 -7.53232 0
M  V30 3309 C 319.558 4.74572 -5.19863 0
M  V30 3310 C 320.268 3.49373 -4.70338 0
M  V30 3311 N 320.218 3.31704 -3.22876 0
M  V30 3312 C 320.068 2.03326 -2.74871 0
M  V30 3313 O 319.978 1.06486 -3.48076 0
M  V30 3314 N 320.028 1.91838 -1.37456 0
M  V30 3315 C 320.118 2.94295 -0.462035 0
M  V30 3316 O 320.068 2.71763 0.752928 0
M  V30 3317 C 320.268 4.25064 -1.05249 0
M  V30 3318 C 320.378 5.39815 -0.095697 0
M  V30 3319 C 320.318 4.40214 -2.39192 0
M  V30 3320 H 323.059 6.54063 -5.71245 0
M  V30 3321 H 323.328 5.30339 -4.43905 0
M  V30 3322 H 322.461 4.55889 -6.76652 0
M  V30 3323 H 319.806 2.6167 -5.17842 0
M  V30 3324 H 319.527 5.52155 -4.41878 0
M  V30 3325 H 318.535 4.51918 -5.53297 0
M  V30 3326 H 320.369 6.25055 -6.55162 0
M  V30 3327 H 320.44 5.39798 -2.81523 0
M  V30 3328 H 319.41 5.91593 -0.0279582 0
M  V30 3329 H 321.147 6.10038 -0.450573 0
M  V30 3330 H 320.659 5.02007 0.89937 0
M  V30 3331 H 319.923 0.995326 -1.00435 0
M  V30 3332 P 318.498 4.23843 -7.83734 0
M  V30 3333 O 318.278 4.19407 -9.29784 0
M  V30 3334 O 317.708 5.24426 -7.09156 0
M  V30 3335 O 318.248 2.7935 -7.20758 0
M  V30 3336 C 319.188 1.7299 -7.50419 0
M  V30 3337 C 318.458 0.406376 -7.57911 0
M  V30 3338 O 318.248 -0.0897726 -6.21935 0
M  V30 3339 C 317.058 0.447224 -8.1878 0
M  V30 3340 O 316.668 -0.825065 -8.71101 0
M  V30 3341 C 316.178 0.783801 -6.99623 0
M  V30 3342 C 316.888 0.0619192 -5.85967 0
M  V30 3343 N 316.838 0.7859 -4.56281 0
M  V30 3344 H 319.677 1.93423 -8.4679 0
M  V30 3345 H 319.949 1.68181 -6.71046 0
M  V30 3346 H 319.081 -0.289041 -8.15388 0
M  V30 3347 P 315.118 -1.17771 -8.83182 0
M  V30 3348 O 314.898 -2.07206 -9.98732 0
M  V30 3349 O 314.328 0.0743816 -8.81969 0
M  V30 3350 O 314.868 -1.97652 -7.47304 0
M  V30 3351 C 315.808 -3.01055 -7.08599 0
M  V30 3352 C 315.078 -4.12613 -6.37049 0
M  V30 3353 O 314.868 -3.72827 -4.97879 0
M  V30 3354 C 313.678 -4.45719 -6.88164 0
M  V30 3355 O 313.288 -5.7877 -6.5624 0
M  V30 3356 C 312.798 -3.47768 -6.11991 0
M  V30 3357 C 313.508 -3.39356 -4.77615 0
M  V30 3358 N 313.458 -2.04571 -4.15244 0
M  V30 3359 C 313.308 -1.98587 -2.78314 0
M  V30 3360 O 313.218 -2.98134 -2.08835 0
M  V30 3361 N 313.268 -0.714467 -2.24925 0
M  V30 3362 C 313.358 0.470001 -2.94169 0
M  V30 3363 C 313.508 0.312541 -4.36783 0
M  V30 3364 C 313.558 -0.914512 -4.92583 0
M  V30 3365 H 316.299 -3.41169 -7.98575 0
M  V30 3366 H 316.568 -2.58295 -6.41556 0
M  V30 3367 H 315.701 -5.02657 -6.42673 0
M  V30 3368 H 313.046 -4.11637 -4.08885 0
M  V30 3369 H 312.767 -2.49626 -6.61679 0
M  V30 3370 H 311.775 -3.86566 -6.00778 0
M  V30 3371 H 313.609 -4.29943 -7.96918 0
M  V30 3372 H 313.68 -1.00937 -6.00374 0
M  V30 3373 P 311.738 -6.144 -6.45285 0
M  V30 3374 O 311.518 -7.54673 -6.86199 0
M  V30 3375 O 310.948 -5.12391 -7.179 0
M  V30 3376 O 311.488 -5.99158 -4.88404 0
M  V30 3377 C 312.428 -6.60234 -3.96415 0
M  V30 3378 C 311.698 -7.08259 -2.72856 0
M  V30 3379 O 311.488 -5.9427 -1.83651 0
M  V30 3380 C 310.298 -7.64886 -2.9555 0
M  V30 3381 O 309.908 -8.53963 -1.90717 0
M  V30 3382 C 309.418 -6.4116 -2.90739 0
M  V30 3383 C 310.128 -5.55375 -1.86963 0
M  V30 3384 N 310.078 -4.09664 -2.15742 0
M  V30 3385 H 312.917 -7.45574 -4.45629 0
M  V30 3386 H 313.189 -5.86232 -3.67314 0
M  V30 3387 H 312.321 -7.84412 -2.24479 0
M  V30 3388 P 308.358 -8.7635 -1.60911 0
M  V30 3389 O 308.138 -10.1388 -1.11561 0
M  V30 3390 O 307.568 -8.36503 -2.79617 0
M  V30 3391 O 308.108 -7.71806 -0.42951 0
M  V30 3392 C 309.048 -7.67148 0.673689 0
M  V30 3393 C 308.318 -7.33374 1.95559 0
M  V30 3394 O 308.108 -5.88721 2.00726 0
M  V30 3395 C 306.918 -7.92526 2.10483 0
M  V30 3396 O 306.528 -8.02971 3.47653 0
M  V30 3397 C 306.038 -6.89602 1.41652 0
M  V30 3398 C 306.748 -5.59201 1.75185 0
M  V30 3399 N 306.698 -4.58301 0.657969 0
M  V30 3400 C 306.778 -4.79019 -0.692603 0
M  V30 3401 N 306.708 -3.69736 -1.38998 0
M  V30 3402 C 306.558 -2.70474 -0.438135 0
M  V30 3403 C 306.428 -1.30327 -0.538142 0
M  V30 3404 N 306.418 -0.64304 -1.69192 0
M  V30 3405 N 306.308 -0.611027 0.605183 0
M  V30 3406 C 306.318 -1.27002 1.75953 0
M  V30 3407 N 306.438 -2.56038 1.98546 0
M  V30 3408 C 306.558 -3.22681 0.822541 0
M  V30 3409 H 309.537 -8.65116 0.777161 0
M  V30 3410 H 309.809 -6.9022 0.46725 0
M  V30 3411 H 308.941 -7.66548 2.79458 0
M  V30 3412 H 306.286 -5.16165 2.65183 0
M  V30 3413 H 306.006 -7.06433 0.329384 0
M  V30 3414 H 305.015 -6.90926 1.82021 0
M  V30 3415 H 306.849 -8.90873 1.62657 0
M  V30 3416 H 306.89 -5.77785 -1.13874 0
M  V30 3417 H 306.509 -1.15585 -2.57991 0
M  V30 3418 H 306.32 0.382989 -1.69835 0
M  V30 3419 H 306.212 -0.653331 2.64449 0
M  V30 3420 P 304.978 -8.03563 3.84925 0
M  V30 3421 O 304.758 -8.85821 5.0569 0
M  V30 3422 O 304.188 -8.41101 2.65469 0
M  V30 3423 O 304.728 -6.4965 4.18908 0
M  V30 3424 C 305.668 -5.81037 5.05421 0
M  V30 3425 C 304.938 -4.78366 5.89277 0
M  V30 3426 O 304.728 -3.58302 5.08433 0
M  V30 3427 C 303.538 -5.17448 6.36119 0
M  V30 3428 O 303.148 -4.45271 7.53232 0
M  V30 3429 C 302.658 -4.74639 5.19936 0
M  V30 3430 C 303.368 -3.49432 4.70418 0
M  V30 3431 N 303.318 -3.31776 3.22945 0
M  V30 3432 H 306.157 -6.54213 5.71376 0
M  V30 3433 H 306.429 -5.30492 4.44033 0
M  V30 3434 H 305.561 -4.55889 6.76652 0
M  V30 3435 P 301.598 -4.23843 7.83734 0
M  V30 3436 O 301.378 -4.19407 9.29784 0
M  V30 3437 O 300.808 -5.24426 7.09156 0
M  V30 3438 O 301.348 -2.7935 7.20758 0
M  V30 3439 C 302.288 -1.7299 7.50419 0
M  V30 3440 C 301.558 -0.406376 7.57911 0
M  V30 3441 O 301.348 0.0897726 6.21935 0
M  V30 3442 C 300.158 -0.447224 8.1878 0
M  V30 3443 O 299.768 0.825065 8.71101 0
M  V30 3444 C 299.278 -0.783801 6.99623 0
M  V30 3445 C 299.988 -0.0619192 5.85967 0
M  V30 3446 N 299.938 -0.7859 4.56281 0
M  V30 3447 C 300.018 -2.14308 4.31736 0
M  V30 3448 N 299.938 -2.46106 3.05116 0
M  V30 3449 C 299.798 -1.23422 2.4014 0
M  V30 3450 C 299.668 -0.938381 1.02409 0
M  V30 3451 O 299.648 -1.70876 0.0650402 0
M  V30 3452 N 299.548 0.444647 0.805413 0
M  V30 3453 C 299.548 1.40829 1.79435 0
M  V30 3454 N 299.418 2.67213 1.38558 0
M  V30 3455 N 299.678 1.12947 3.09005 0
M  V30 3456 C 299.798 -0.204887 3.32369 0
M  V30 3457 H 302.777 -1.93423 8.4679 0
M  V30 3458 H 303.049 -1.68181 6.71046 0
M  V30 3459 H 302.181 0.289041 8.15388 0
M  V30 3460 H 299.526 0.927166 5.72947 0
M  V30 3461 H 299.246 -1.87 6.82132 0
M  V30 3462 H 298.255 -0.404009 7.13457 0
M  V30 3463 H 300.089 -1.20612 8.97633 0
M  V30 3464 H 300.138 -2.88284 5.10874 0
M  V30 3465 H 299.456 0.755087 -0.140242 0
M  V30 3466 H 299.419 3.43967 2.0729 0
M  V30 3467 H 299.318 2.88096 0.380644 0
M  V30 3468 P 298.218 1.17771 8.83182 0
M  V30 3469 O 297.998 2.07206 9.98732 0
M  V30 3470 O 297.428 -0.0743816 8.81969 0
M  V30 3471 O 297.968 1.97652 7.47304 0
M  V30 3472 C 298.908 3.01133 7.08783 0
M  V30 3473 C 298.178 4.12613 6.37049 0
M  V30 3474 O 297.968 3.72827 4.97879 0
M  V30 3475 C 296.778 4.45085 6.88694 0
M  V30 3476 O 296.388 5.7877 6.5624 0
M  V30 3477 C 295.898 3.47817 6.12078 0
M  V30 3478 C 296.608 3.39414 4.77697 0
M  V30 3479 N 296.558 2.04199 4.15538 0
M  V30 3480 C 296.638 0.821545 4.76977 0
M  V30 3481 N 296.568 -0.1794 3.94592 0
M  V30 3482 C 296.418 0.419121 2.70776 0
M  V30 3483 C 296.288 -0.109072 1.40577 0
M  V30 3484 N 296.278 -1.4104 1.1344 0
M  V30 3485 N 296.168 0.764381 0.39411 0
M  V30 3486 C 296.178 2.06587 0.664135 0
M  V30 3487 N 296.298 2.67948 1.82153 0
M  V30 3488 C 296.418 1.77942 2.8147 0
M  V30 3489 H 299.397 3.41248 7.98759 0
M  V30 3490 H 299.669 2.57728 6.42 0
M  V30 3491 H 298.801 5.02657 6.42673 0
M  V30 3492 H 296.146 4.11708 4.08956 0
M  V30 3493 H 295.866 2.49626 6.61679 0
M  V30 3494 H 294.875 3.8662 6.00862 0
M  V30 3495 H 296.709 4.29991 7.97006 0
M  V30 3496 H 296.75 0.702451 5.84696 0
M  V30 3497 H 296.369 -2.09647 1.89651 0
M  V30 3498 H 296.18 -1.73358 0.160575 0
M  V30 3499 H 296.072 2.71695 -0.195838 0
M  V30 3500 P 294.838 6.144 6.45285 0
M  V30 3501 O 294.618 7.54673 6.86199 0
M  V30 3502 O 294.048 5.12391 7.179 0
M  V30 3503 O 294.588 5.99158 4.88404 0
M  V30 3504 C 295.528 6.60062 3.96313 0
M  V30 3505 C 294.798 7.08259 2.72856 0
M  V30 3506 O 294.588 5.9427 1.83651 0
M  V30 3507 C 293.398 7.65087 2.94749 0
M  V30 3508 O 293.008 8.53963 1.90717 0
M  V30 3509 C 292.518 6.41069 2.90698 0
M  V30 3510 C 293.228 5.5528 1.86931 0
M  V30 3511 N 293.178 4.09575 2.15696 0
M  V30 3512 C 293.028 3.24249 1.08435 0
M  V30 3513 O 292.938 3.63946 -0.0628747 0
M  V30 3514 N 292.988 1.90009 1.39973 0
M  V30 3515 C 293.078 1.34884 2.65614 0
M  V30 3516 O 293.028 0.123716 2.81728 0
M  V30 3517 C 293.228 2.3145 3.71736 0
M  V30 3518 C 293.338 1.75913 5.10438 0
M  V30 3519 C 293.278 3.63518 3.44754 0
M  V30 3520 H 296.019 7.45402 4.45526 0
M  V30 3521 H 296.288 5.86062 3.67208 0
M  V30 3522 H 295.421 7.84412 2.24479 0
M  V30 3523 H 292.766 5.73358 0.888409 0
M  V30 3524 H 292.487 5.90877 3.88583 0
M  V30 3525 H 291.495 6.65867 2.58821 0
M  V30 3526 H 293.329 8.16248 3.92006 0
M  V30 3527 H 293.4 4.34551 4.26383 0
M  V30 3528 H 292.37 1.85471 5.61775 0
M  V30 3529 H 294.107 2.31364 5.66257 0
M  V30 3530 H 293.619 0.695936 5.05229 0
M  V30 3531 H 292.883 1.26277 0.63625 0
M  V30 3532 P 291.458 8.7635 1.60911 0
M  V30 3533 O 291.238 10.1388 1.11561 0
M  V30 3534 O 290.668 8.36503 2.79617 0
M  V30 3535 O 291.208 7.71806 0.42951 0
M  V30 3536 C 292.148 7.67148 -0.673689 0
M  V30 3537 C 291.418 7.33374 -1.95559 0
M  V30 3538 O 291.208 5.88721 -2.00726 0
M  V30 3539 C 290.018 7.92526 -2.10483 0
M  V30 3540 O 289.628 8.02971 -3.47653 0
M  V30 3541 C 289.138 6.89602 -1.41652 0
M  V30 3542 C 289.848 5.59201 -1.75185 0
M  V30 3543 N 289.798 4.58301 -0.657969 0
M  V30 3544 C 289.878 4.79019 0.692603 0
M  V30 3545 N 289.808 3.69736 1.38998 0
M  V30 3546 C 289.658 2.70474 0.438135 0
M  V30 3547 C 289.528 1.30327 0.538142 0
M  V30 3548 N 289.518 0.64304 1.69192 0
M  V30 3549 N 289.408 0.611027 -0.605183 0
M  V30 3550 C 289.418 1.27002 -1.75953 0
M  V30 3551 N 289.538 2.56038 -1.98546 0
M  V30 3552 C 289.658 3.22681 -0.822541 0
M  V30 3553 H 292.637 8.65116 -0.777161 0
M  V30 3554 H 292.909 6.9022 -0.46725 0
M  V30 3555 H 292.041 7.66548 -2.79458 0
M  V30 3556 H 289.386 5.16165 -2.65183 0
M  V30 3557 H 289.106 7.06433 -0.329384 0
M  V30 3558 H 288.115 6.90926 -1.82021 0
M  V30 3559 H 289.949 8.90873 -1.62657 0
M  V30 3560 H 289.99 5.77785 1.13874 0
M  V30 3561 H 289.609 1.15585 2.57991 0
M  V30 3562 H 289.42 -0.382989 1.69835 0
M  V30 3563 H 289.312 0.653331 -2.64449 0
M  V30 3564 P 288.078 8.03563 -3.84925 0
M  V30 3565 O 287.858 8.85821 -5.0569 0
M  V30 3566 O 287.288 8.41101 -2.65469 0
M  V30 3567 O 287.828 6.4965 -4.18908 0
M  V30 3568 C 288.768 5.81037 -5.05421 0
M  V30 3569 C 288.038 4.78366 -5.89277 0
M  V30 3570 O 287.828 3.58302 -5.08433 0
M  V30 3571 C 286.638 5.17448 -6.36119 0
M  V30 3572 O 286.248 4.45271 -7.53232 0
M  V30 3573 C 285.758 4.74639 -5.19936 0
M  V30 3574 C 286.468 3.49432 -4.70418 0
M  V30 3575 N 286.418 3.32099 -3.22613 0
M  V30 3576 H 289.257 6.54213 -5.71376 0
M  V30 3577 H 289.529 5.30936 -4.43503 0
M  V30 3578 H 288.661 4.55889 -6.76652 0
M  V30 3579 H 286.006 2.61715 -5.17932 0
M  V30 3580 H 285.726 5.52155 -4.41878 0
M  V30 3581 H 284.735 4.51981 -5.53374 0
M  V30 3582 H 286.569 6.25124 -6.55234 0
M  V30 3583 P 284.698 4.23843 -7.83734 0
M  V30 3584 O 284.478 4.19407 -9.29784 0
M  V30 3585 O 283.908 5.24426 -7.09156 0
M  V30 3586 O 284.448 2.7935 -7.20758 0
M  V30 3587 C 285.388 1.7299 -7.50419 0
M  V30 3588 C 284.658 0.406376 -7.57911 0
M  V30 3589 O 284.448 -0.0897726 -6.21935 0
M  V30 3590 C 283.258 0.447224 -8.1878 0
M  V30 3591 O 282.868 -0.825065 -8.71101 0
M  V30 3592 C 282.378 0.783801 -6.99623 0
M  V30 3593 C 283.088 0.0619192 -5.85967 0
M  V30 3594 N 283.038 0.7859 -4.56281 0
M  V30 3595 C 283.118 2.14308 -4.31736 0
M  V30 3596 N 283.038 2.46106 -3.05116 0
M  V30 3597 C 282.898 1.23422 -2.4014 0
M  V30 3598 C 282.768 0.938381 -1.02409 0
M  V30 3599 O 282.748 1.70876 -0.0650402 0
M  V30 3600 N 282.648 -0.444647 -0.805413 0
M  V30 3601 C 282.648 -1.40829 -1.79435 0
M  V30 3602 N 282.518 -2.67213 -1.38558 0
M  V30 3603 N 282.778 -1.12947 -3.09005 0
M  V30 3604 C 282.898 0.204887 -3.32369 0
M  V30 3605 H 285.877 1.93423 -8.4679 0
M  V30 3606 H 286.149 1.68181 -6.71046 0
M  V30 3607 H 285.281 -0.289041 -8.15388 0
M  V30 3608 H 282.626 -0.927166 -5.72947 0
M  V30 3609 H 282.346 1.87 -6.82132 0
M  V30 3610 H 281.355 0.404009 -7.13457 0
M  V30 3611 H 283.189 1.20612 -8.97633 0
M  V30 3612 H 283.238 2.88284 -5.10874 0
M  V30 3613 H 282.556 -0.755087 0.140242 0
M  V30 3614 H 282.519 -3.43967 -2.0729 0
M  V30 3615 H 282.418 -2.88096 -0.380644 0
M  V30 3616 P 281.318 -1.17771 -8.83182 0
M  V30 3617 O 281.098 -2.07206 -9.98732 0
M  V30 3618 O 280.528 0.0743816 -8.81969 0
M  V30 3619 O 281.068 -1.97652 -7.47304 0
M  V30 3620 C 282.008 -3.01055 -7.08599 0
M  V30 3621 C 281.278 -4.12613 -6.37049 0
M  V30 3622 O 281.068 -3.72827 -4.97879 0
M  V30 3623 C 279.878 -4.45719 -6.88164 0
M  V30 3624 O 279.488 -5.7877 -6.5624 0
M  V30 3625 C 278.998 -3.47768 -6.11991 0
M  V30 3626 C 279.708 -3.39356 -4.77615 0
M  V30 3627 N 279.658 -2.04571 -4.15244 0
M  V30 3628 C 279.508 -1.98587 -2.78314 0
M  V30 3629 O 279.418 -2.98134 -2.08835 0
M  V30 3630 N 279.468 -0.714467 -2.24925 0
M  V30 3631 C 279.558 0.470001 -2.94169 0
M  V30 3632 O 279.508 1.55587 -2.35195 0
M  V30 3633 C 279.708 0.312541 -4.36783 0
M  V30 3634 C 279.818 1.57711 -5.16352 0
M  V30 3635 C 279.758 -0.914512 -4.92583 0
M  V30 3636 H 282.499 -3.41169 -7.98575 0
M  V30 3637 H 282.768 -2.58295 -6.41556 0
M  V30 3638 H 281.901 -5.02657 -6.42673 0
M  V30 3639 H 279.246 -4.11637 -4.08885 0
M  V30 3640 H 278.967 -2.49626 -6.61679 0
M  V30 3641 H 277.975 -3.86566 -6.00778 0
M  V30 3642 H 279.809 -4.29943 -7.96918 0
M  V30 3643 H 279.88 -1.00937 -6.00374 0
M  V30 3644 H 278.85 1.80153 -5.63503 0
M  V30 3645 H 280.587 1.4566 -5.94104 0
M  V30 3646 H 280.099 2.40664 -4.49645 0
M  V30 3647 H 279.363 -0.647622 -1.25697 0
M  V30 3648 P 277.938 -6.144 -6.45285 0
M  V30 3649 O 277.718 -7.54673 -6.86199 0
M  V30 3650 O 277.148 -5.12391 -7.179 0
M  V30 3651 O 277.688 -5.99158 -4.88404 0
M  V30 3652 C 278.628 -6.60062 -3.96313 0
M  V30 3653 C 277.898 -7.08259 -2.72856 0
M  V30 3654 O 277.688 -5.9427 -1.83651 0
M  V30 3655 C 276.498 -7.65087 -2.94749 0
M  V30 3656 O 276.108 -8.53963 -1.90717 0
M  V30 3657 C 275.618 -6.41069 -2.90698 0
M  V30 3658 C 276.328 -5.5528 -1.86931 0
M  V30 3659 N 276.278 -4.09575 -2.15696 0
M  V30 3660 C 276.128 -3.24249 -1.08435 0
M  V30 3661 O 276.038 -3.63946 0.0628747 0
M  V30 3662 N 276.088 -1.90009 -1.39973 0
M  V30 3663 C 276.178 -1.34884 -2.65614 0
M  V30 3664 C 276.328 -2.3145 -3.71736 0
M  V30 3665 C 276.378 -3.63518 -3.44754 0
M  V30 3666 H 279.119 -7.45402 -4.45526 0
M  V30 3667 H 279.388 -5.86062 -3.67208 0
M  V30 3668 H 278.521 -7.84412 -2.24479 0
M  V30 3669 H 275.866 -5.73358 -0.888409 0
M  V30 3670 H 275.587 -5.90877 -3.88583 0
M  V30 3671 H 274.595 -6.65867 -2.58821 0
M  V30 3672 H 276.429 -8.16248 -3.92006 0
M  V30 3673 H 276.5 -4.34551 -4.26383 0
M  V30 3674 P 274.558 -8.7635 -1.60911 0
M  V30 3675 O 274.338 -10.1388 -1.11561 0
M  V30 3676 O 273.768 -8.36503 -2.79617 0
M  V30 3677 O 274.308 -7.71806 -0.42951 0
M  V30 3678 C 275.248 -7.67148 0.673689 0
M  V30 3679 C 274.518 -7.33374 1.95559 0
M  V30 3680 O 274.308 -5.88721 2.00726 0
M  V30 3681 C 273.118 -7.92526 2.10483 0
M  V30 3682 O 272.728 -8.02971 3.47653 0
M  V30 3683 C 272.238 -6.89602 1.41652 0
M  V30 3684 C 272.948 -5.59201 1.75185 0
M  V30 3685 N 272.898 -4.58301 0.657969 0
M  V30 3686 H 275.737 -8.65116 0.777161 0
M  V30 3687 H 276.009 -6.9022 0.46725 0
M  V30 3688 H 275.141 -7.66548 2.79458 0
M  V30 3689 H 272.486 -5.16165 2.65183 0
M  V30 3690 H 272.206 -7.06433 0.329384 0
M  V30 3691 H 271.215 -6.90926 1.82021 0
M  V30 3692 H 273.049 -8.90873 1.62657 0
M  V30 3693 P 271.178 -8.03563 3.84925 0
M  V30 3694 O 270.958 -8.85821 5.0569 0
M  V30 3695 O 270.388 -8.41101 2.65469 0
M  V30 3696 O 270.928 -6.4965 4.18908 0
M  V30 3697 C 271.868 -5.81037 5.05421 0
M  V30 3698 C 271.138 -4.78366 5.89277 0
M  V30 3699 O 270.928 -3.58302 5.08433 0
M  V30 3700 C 269.738 -5.17448 6.36119 0
M  V30 3701 O 269.348 -4.45271 7.53232 0
M  V30 3702 C 268.858 -4.74639 5.19936 0
M  V30 3703 C 269.568 -3.49432 4.70418 0
M  V30 3704 N 269.518 -3.31776 3.22945 0
M  V30 3705 H 272.357 -6.54213 5.71376 0
M  V30 3706 H 272.629 -5.30492 4.44033 0
M  V30 3707 H 271.761 -4.55889 6.76652 0
M  V30 3708 P 267.798 -4.23843 7.83734 0
M  V30 3709 O 267.578 -4.19407 9.29784 0
M  V30 3710 O 267.008 -5.24426 7.09156 0
M  V30 3711 O 267.548 -2.7935 7.20758 0
M  V30 3712 C 268.488 -1.72945 7.50224 0
M  V30 3713 C 267.758 -0.406376 7.57911 0
M  V30 3714 O 267.548 0.0897726 6.21935 0
M  V30 3715 C 266.358 -0.438983 8.18724 0
M  V30 3716 O 265.968 0.825065 8.71101 0
M  V30 3717 C 265.478 -0.783689 6.99524 0
M  V30 3718 C 266.188 -0.0619086 5.85867 0
M  V30 3719 N 266.138 -0.78573 4.56183 0
M  V30 3720 C 265.988 -0.0292889 3.41887 0
M  V30 3721 O 265.898 1.18445 3.4419 0
M  V30 3722 N 265.948 -0.744061 2.23964 0
M  V30 3723 C 266.038 -2.10932 2.10362 0
M  V30 3724 O 265.988 -2.64117 0.98825 0
M  V30 3725 C 266.188 -2.8202 3.34994 0
M  V30 3726 C 266.298 -4.31095 3.25037 0
M  V30 3727 C 266.238 -2.15547 4.52261 0
M  V30 3728 H 268.979 -1.93379 8.46595 0
M  V30 3729 H 269.248 -1.68132 6.70852 0
M  V30 3730 H 268.381 0.289041 8.15388 0
M  V30 3731 H 265.726 0.926847 5.72749 0
M  V30 3732 H 265.447 -1.86973 6.82036 0
M  V30 3733 H 264.455 -0.403896 7.13257 0
M  V30 3734 H 266.289 -1.20585 8.97435 0
M  V30 3735 H 266.36 -2.71231 5.45042 0
M  V30 3736 H 265.33 -4.76966 3.49992 0
M  V30 3737 H 267.067 -4.67047 3.95024 0
M  V30 3738 H 266.579 -4.58996 2.22312 0
M  V30 3739 H 265.843 -0.214893 1.39758 0
M  V30 3740 P 264.418 1.17771 8.83182 0
M  V30 3741 O 264.198 2.07206 9.98732 0
M  V30 3742 O 263.628 -0.0743816 8.81969 0
M  V30 3743 O 264.168 1.97652 7.47304 0
M  V30 3744 C 265.108 3.01133 7.08783 0
M  V30 3745 C 264.378 4.12613 6.37049 0
M  V30 3746 O 264.168 3.72827 4.97879 0
M  V30 3747 C 262.978 4.45085 6.88694 0
M  V30 3748 O 262.588 5.7877 6.5624 0
M  V30 3749 C 262.098 3.47817 6.12078 0
M  V30 3750 C 262.808 3.39414 4.77697 0
M  V30 3751 N 262.758 2.04615 4.15333 0
M  V30 3752 H 265.597 3.41248 7.98759 0
M  V30 3753 H 265.869 2.5837 6.41742 0
M  V30 3754 H 265.001 5.02657 6.42673 0
M  V30 3755 P 261.038 6.144 6.45285 0
M  V30 3756 O 260.818 7.54673 6.86199 0
M  V30 3757 O 260.248 5.12391 7.179 0
M  V30 3758 O 260.788 5.99158 4.88404 0
M  V30 3759 C 261.728 6.60234 3.96415 0
M  V30 3760 C 260.998 7.08259 2.72856 0
M  V30 3761 O 260.788 5.9427 1.83651 0
M  V30 3762 C 259.598 7.64886 2.9555 0
M  V30 3763 O 259.208 8.53963 1.90717 0
M  V30 3764 C 258.718 6.4116 2.90739 0
M  V30 3765 C 259.428 5.55375 1.86963 0
M  V30 3766 N 259.378 4.09664 2.15742 0
M  V30 3767 H 262.217 7.45574 4.45629 0
M  V30 3768 H 262.489 5.86232 3.67314 0
M  V30 3769 H 261.621 7.84412 2.24479 0
M  V30 3770 P 257.658 8.7635 1.60911 0
M  V30 3771 O 257.438 10.1388 1.11561 0
M  V30 3772 O 256.868 8.36503 2.79617 0
M  V30 3773 O 257.408 7.71806 0.42951 0
M  V30 3774 C 258.348 7.66948 -0.673514 0
M  V30 3775 C 257.618 7.33374 -1.95559 0
M  V30 3776 O 257.408 5.88721 -2.00726 0
M  V30 3777 C 256.218 7.92218 -2.1125 0
M  V30 3778 O 255.828 8.02971 -3.47653 0
M  V30 3779 C 255.338 6.89504 -1.41631 0
M  V30 3780 C 256.048 5.59106 -1.75155 0
M  V30 3781 N 255.998 4.58136 -0.662409 0
M  V30 3782 C 255.848 3.26059 -1.02863 0
M  V30 3783 O 255.758 2.90743 -2.19009 0
M  V30 3784 N 255.808 2.35995 0.0155585 0
M  V30 3785 C 255.898 2.65248 1.35603 0
M  V30 3786 C 256.048 4.05747 1.64698 0
M  V30 3787 C 256.098 4.96734 0.652411 0
M  V30 3788 H 258.839 8.64917 -0.776982 0
M  V30 3789 H 259.108 6.89974 -0.474015 0
M  V30 3790 H 258.241 7.66548 -2.79458 0
M  V30 3791 H 255.586 5.16076 -2.65138 0
M  V30 3792 H 255.307 7.06433 -0.329384 0
M  V30 3793 H 254.315 6.90829 -1.81996 0
M  V30 3794 H 256.149 8.90774 -1.62639 0
M  V30 3795 H 256.22 6.02181 0.895285 0
M  V30 3796 P 254.279 8.03563 -3.84925 0
M  V30 3797 O 254.059 8.85821 -5.0569 0
M  V30 3798 O 253.489 8.41101 -2.65469 0
M  V30 3799 O 254.029 6.4965 -4.18908 0
M  V30 3800 C 254.969 5.81037 -5.05421 0
M  V30 3801 C 254.239 4.78366 -5.89277 0
M  V30 3802 O 254.029 3.58302 -5.08433 0
M  V30 3803 C 252.839 5.17448 -6.36119 0
M  V30 3804 O 252.449 4.45271 -7.53232 0
M  V30 3805 C 251.959 4.74639 -5.19936 0
M  V30 3806 C 252.669 3.49432 -4.70418 0
M  V30 3807 N 252.619 3.32099 -3.22613 0
M  V30 3808 H 255.458 6.54213 -5.71376 0
M  V30 3809 H 255.73 5.30936 -4.43503 0
M  V30 3810 H 254.862 4.55889 -6.76652 0
M  V30 3811 H 252.207 2.61715 -5.17932 0
M  V30 3812 H 251.927 5.52155 -4.41878 0
M  V30 3813 H 250.936 4.51981 -5.53374 0
M  V30 3814 H 252.77 6.25124 -6.55234 0
M  V30 3815 P 250.899 4.23843 -7.83734 0
M  V30 3816 O 250.679 4.19407 -9.29784 0
M  V30 3817 O 250.109 5.24426 -7.09156 0
M  V30 3818 O 250.649 2.79386 -7.20852 0
M  V30 3819 C 251.589 1.7299 -7.50419 0
M  V30 3820 C 250.859 0.41401 -7.5797 0
M  V30 3821 O 250.649 -0.089787 -6.22035 0
M  V30 3822 C 249.459 0.447224 -8.1878 0
M  V30 3823 O 249.069 -0.825159 -8.71201 0
M  V30 3824 C 248.579 0.783801 -6.99623 0
M  V30 3825 C 249.289 0.0619192 -5.85967 0
M  V30 3826 N 249.239 0.7859 -4.56281 0
M  V30 3827 C 249.089 0.0359258 -3.39981 0
M  V30 3828 O 248.999 -1.19723 -3.49038 0
M  V30 3829 N 249.039 0.869151 -2.14025 0
M  V30 3830 C 249.139 2.01207 -2.14363 0
M  V30 3831 N 249.089 2.58978 -0.954287 0
M  V30 3832 C 249.289 2.80817 -3.32215 0
M  V30 3833 C 249.339 2.13785 -4.50884 0
M  V30 3834 H 252.079 1.93401 -8.46693 0
M  V30 3835 H 252.349 1.68181 -6.71046 0
M  V30 3836 H 251.482 -0.289076 -8.15488 0
M  V30 3837 H 248.827 -0.927166 -5.72947 0
M  V30 3838 H 248.547 1.87 -6.82132 0
M  V30 3839 H 247.556 0.404009 -7.13457 0
M  V30 3840 H 249.39 1.20599 -8.97534 0
M  V30 3841 H 249.462 2.70295 -5.43162 0
M  V30 3842 H 249.36 3.89465 -3.27406 0
M  V30 3843 H 248.972 2.01616 -0.107046 0
M  V30 3844 H 249.168 3.61403 -0.873101 0
M  V30 3845 P 247.519 -1.17771 -8.83182 0
M  V30 3846 O 247.299 -2.07206 -9.98732 0
M  V30 3847 O 246.729 0.0743816 -8.81969 0
M  V30 3848 O 247.269 -1.97652 -7.47304 0
M  V30 3849 C 248.209 -3.01133 -7.08783 0
M  V30 3850 C 247.479 -4.12613 -6.37049 0
M  V30 3851 O 247.269 -3.72827 -4.97879 0
M  V30 3852 C 246.079 -4.45085 -6.88694 0
M  V30 3853 O 245.689 -5.7877 -6.5624 0
M  V30 3854 C 245.199 -3.47817 -6.12078 0
M  V30 3855 C 245.909 -3.39414 -4.77697 0
M  V30 3856 N 245.859 -2.04615 -4.15333 0
M  V30 3857 H 248.698 -3.41248 -7.98759 0
M  V30 3858 H 248.97 -2.5837 -6.41742 0
M  V30 3859 H 248.102 -5.02657 -6.42673 0
M  V30 3860 P 244.139 -6.144 -6.45285 0
M  V30 3861 O 243.919 -7.54673 -6.86199 0
M  V30 3862 O 243.349 -5.12391 -7.179 0
M  V30 3863 O 243.889 -5.99158 -4.88404 0
M  V30 3864 C 244.829 -6.60062 -3.96313 0
M  V30 3865 C 244.099 -7.08259 -2.72856 0
M  V30 3866 O 243.889 -5.9427 -1.83651 0
M  V30 3867 C 242.699 -7.65087 -2.94749 0
M  V30 3868 O 242.309 -8.53963 -1.90717 0
M  V30 3869 C 241.819 -6.41069 -2.90698 0
M  V30 3870 C 242.529 -5.5528 -1.86931 0
M  V30 3871 N 242.479 -4.09575 -2.15696 0
M  V30 3872 C 242.329 -3.24249 -1.08435 0
M  V30 3873 O 242.239 -3.63946 0.0628747 0
M  V30 3874 N 242.289 -1.90009 -1.39973 0
M  V30 3875 C 242.379 -1.34884 -2.65614 0
M  V30 3876 C 242.529 -2.3145 -3.71736 0
M  V30 3877 C 242.579 -3.63518 -3.44754 0
M  V30 3878 H 245.32 -7.45402 -4.45526 0
M  V30 3879 H 245.589 -5.86062 -3.67208 0
M  V30 3880 H 244.722 -7.84412 -2.24479 0
M  V30 3881 H 242.067 -5.73358 -0.888409 0
M  V30 3882 H 241.788 -5.90877 -3.88583 0
M  V30 3883 H 240.796 -6.65867 -2.58821 0
M  V30 3884 H 242.63 -8.16248 -3.92006 0
M  V30 3885 H 242.701 -4.34551 -4.26383 0
M  V30 3886 P 240.759 -8.7635 -1.60911 0
M  V30 3887 O 240.539 -10.1388 -1.11561 0
M  V30 3888 O 239.969 -8.36503 -2.79617 0
M  V30 3889 O 240.509 -7.71806 -0.42951 0
M  V30 3890 C 241.449 -7.67148 0.673689 0
M  V30 3891 C 240.719 -7.33374 1.95559 0
M  V30 3892 O 240.509 -5.88721 2.00726 0
M  V30 3893 C 239.319 -7.92526 2.10483 0
M  V30 3894 O 238.929 -8.02971 3.47653 0
M  V30 3895 C 238.439 -6.89602 1.41652 0
M  V30 3896 C 239.149 -5.59201 1.75185 0
M  V30 3897 N 239.099 -4.58235 0.662552 0
M  V30 3898 H 241.938 -8.65116 0.777161 0
M  V30 3899 H 242.21 -6.90173 0.474152 0
M  V30 3900 H 241.342 -7.66548 2.79458 0
M  V30 3901 P 237.379 -8.03563 3.84925 0
M  V30 3902 O 237.159 -8.85821 5.0569 0
M  V30 3903 O 236.589 -8.41101 2.65469 0
M  V30 3904 O 237.129 -6.4965 4.18908 0
M  V30 3905 C 238.069 -5.81037 5.05421 0
M  V30 3906 C 237.339 -4.78366 5.89277 0
M  V30 3907 O 237.129 -3.58302 5.08433 0
M  V30 3908 C 235.939 -5.17448 6.36119 0
M  V30 3909 O 235.549 -4.45271 7.53232 0
M  V30 3910 C 235.059 -4.74639 5.19936 0
M  V30 3911 C 235.769 -3.49432 4.70418 0
M  V30 3912 N 235.719 -3.31776 3.22945 0
M  V30 3913 H 238.558 -6.54213 5.71376 0
M  V30 3914 H 238.83 -5.30492 4.44033 0
M  V30 3915 H 237.962 -4.55889 6.76652 0
M  V30 3916 P 233.999 -4.23843 7.83734 0
M  V30 3917 O 233.779 -4.19407 9.29784 0
M  V30 3918 O 233.209 -5.24426 7.09156 0
M  V30 3919 O 233.749 -2.7935 7.20758 0
M  V30 3920 C 234.689 -1.7299 7.50419 0
M  V30 3921 C 233.959 -0.406376 7.57911 0
M  V30 3922 O 233.749 0.0897726 6.21935 0
M  V30 3923 C 232.559 -0.447224 8.1878 0
M  V30 3924 O 232.169 0.825065 8.71101 0
M  V30 3925 C 231.679 -0.783801 6.99623 0
M  V30 3926 C 232.389 -0.0619192 5.85967 0
M  V30 3927 N 232.339 -0.7859 4.56281 0
M  V30 3928 H 235.178 -1.93423 8.4679 0
M  V30 3929 H 235.45 -1.68181 6.71046 0
M  V30 3930 H 234.582 0.289041 8.15388 0
M  V30 3931 P 230.619 1.17771 8.83182 0
M  V30 3932 O 230.399 2.07206 9.98732 0
M  V30 3933 O 229.829 -0.0743816 8.81969 0
M  V30 3934 O 230.369 1.97652 7.47304 0
M  V30 3935 C 231.309 3.01133 7.08783 0
M  V30 3936 C 230.579 4.12613 6.37049 0
M  V30 3937 O 230.369 3.72827 4.97879 0
M  V30 3938 C 229.179 4.45085 6.88694 0
M  V30 3939 O 228.789 5.7877 6.5624 0
M  V30 3940 C 228.299 3.47817 6.12078 0
M  V30 3941 C 229.009 3.39414 4.77697 0
M  V30 3942 N 228.959 2.04615 4.15333 0
M  V30 3943 H 231.798 3.41248 7.98759 0
M  V30 3944 H 232.07 2.5837 6.41742 0
M  V30 3945 H 231.202 5.02657 6.42673 0
M  V30 3946 P 227.239 6.144 6.45285 0
M  V30 3947 O 227.019 7.54673 6.86199 0
M  V30 3948 O 226.449 5.12391 7.179 0
M  V30 3949 O 226.989 5.99158 4.88404 0
M  V30 3950 C 227.929 6.60234 3.96415 0
M  V30 3951 C 227.199 7.08259 2.72856 0
M  V30 3952 O 226.989 5.9427 1.83651 0
M  V30 3953 C 225.799 7.64886 2.9555 0
M  V30 3954 O 225.409 8.53963 1.90717 0
M  V30 3955 C 224.919 6.4116 2.90739 0
M  V30 3956 C 225.629 5.55375 1.86963 0
M  V30 3957 N 225.579 4.09664 2.15742 0
M  V30 3958 H 228.418 7.45574 4.45629 0
M  V30 3959 H 228.69 5.86232 3.67314 0
M  V30 3960 H 227.822 7.84412 2.24479 0
M  V30 3961 P 223.859 8.7635 1.60911 0
M  V30 3962 O 223.639 10.1388 1.11561 0
M  V30 3963 O 223.069 8.36503 2.79617 0
M  V30 3964 O 223.609 7.71806 0.42951 0
M  V30 3965 C 224.549 7.67148 -0.673689 0
M  V30 3966 C 223.819 7.33374 -1.95559 0
M  V30 3967 O 223.609 5.88721 -2.00726 0
M  V30 3968 C 222.419 7.92526 -2.10483 0
M  V30 3969 O 222.029 8.02971 -3.47653 0
M  V30 3970 C 221.539 6.89602 -1.41652 0
M  V30 3971 C 222.249 5.59201 -1.75185 0
M  V30 3972 N 222.199 4.58235 -0.662552 0
M  V30 3973 H 225.038 8.65116 -0.777161 0
M  V30 3974 H 225.31 6.90173 -0.474152 0
M  V30 3975 H 224.442 7.66548 -2.79458 0
M  V30 3976 P 220.479 8.03563 -3.84925 0
M  V30 3977 O 220.259 8.85821 -5.0569 0
M  V30 3978 O 219.689 8.41101 -2.65469 0
M  V30 3979 O 220.229 6.4965 -4.18908 0
M  V30 3980 C 221.169 5.81037 -5.05421 0
M  V30 3981 C 220.439 4.78366 -5.89277 0
M  V30 3982 O 220.229 3.58302 -5.08433 0
M  V30 3983 C 219.039 5.17448 -6.36119 0
M  V30 3984 O 218.649 4.45271 -7.53232 0
M  V30 3985 C 218.159 4.74639 -5.19936 0
M  V30 3986 C 218.869 3.49432 -4.70418 0
M  V30 3987 N 218.819 3.31776 -3.22945 0
M  V30 3988 H 221.658 6.54213 -5.71376 0
M  V30 3989 H 221.93 5.30492 -4.44033 0
M  V30 3990 H 221.062 4.55889 -6.76652 0
M  V30 3991 P 217.099 4.23843 -7.83734 0
M  V30 3992 O 216.879 4.19407 -9.29784 0
M  V30 3993 O 216.309 5.24426 -7.09156 0
M  V30 3994 O 216.849 2.7935 -7.20758 0
M  V30 3995 C 217.789 1.7299 -7.50419 0
M  V30 3996 C 217.059 0.406376 -7.57911 0
M  V30 3997 O 216.849 -0.0897726 -6.21935 0
M  V30 3998 C 215.659 0.447224 -8.1878 0
M  V30 3999 O 215.269 -0.825065 -8.71101 0
M  V30 4000 C 214.779 0.783801 -6.99623 0
M  V30 4001 C 215.489 0.0619192 -5.85967 0
M  V30 4002 N 215.439 0.790462 -4.56202 0
M  V30 4003 H 218.278 1.93423 -8.4679 0
M  V30 4004 H 218.55 1.68852 -6.70877 0
M  V30 4005 H 217.682 -0.289041 -8.15388 0
M  V30 4006 H 215.027 -0.927006 -5.72848 0
M  V30 4007 H 214.747 1.86973 -6.82036 0
M  V30 4008 H 213.756 0.403953 -7.13357 0
M  V30 4009 H 215.59 1.20599 -8.97534 0
M  V30 4010 P 213.719 -1.17771 -8.83182 0
M  V30 4011 O 213.499 -2.07206 -9.98732 0
M  V30 4012 O 212.929 0.0743816 -8.81969 0
M  V30 4013 O 213.469 -1.97652 -7.47304 0
M  V30 4014 C 214.409 -3.01055 -7.08599 0
M  V30 4015 C 213.679 -4.12613 -6.37049 0
M  V30 4016 O 213.469 -3.72827 -4.97879 0
M  V30 4017 C 212.279 -4.45719 -6.88164 0
M  V30 4018 O 211.889 -5.7877 -6.5624 0
M  V30 4019 C 211.399 -3.47768 -6.11991 0
M  V30 4020 C 212.109 -3.39356 -4.77615 0
M  V30 4021 N 212.059 -2.04571 -4.15244 0
M  V30 4022 C 211.909 -1.98587 -2.78314 0
M  V30 4023 O 211.819 -2.98134 -2.08835 0
M  V30 4024 N 211.869 -0.714467 -2.24925 0
M  V30 4025 C 211.959 0.470001 -2.94169 0
M  V30 4026 O 211.909 1.55587 -2.35195 0
M  V30 4027 C 212.109 0.312541 -4.36783 0
M  V30 4028 C 212.219 1.57711 -5.16352 0
M  V30 4029 C 212.159 -0.914512 -4.92583 0
M  V30 4030 H 214.9 -3.41169 -7.98575 0
M  V30 4031 H 215.169 -2.58295 -6.41556 0
M  V30 4032 H 214.302 -5.02657 -6.42673 0
M  V30 4033 H 211.647 -4.11637 -4.08885 0
M  V30 4034 H 211.368 -2.49626 -6.61679 0
M  V30 4035 H 210.376 -3.86566 -6.00778 0
M  V30 4036 H 212.21 -4.29943 -7.96918 0
M  V30 4037 H 212.281 -1.00937 -6.00374 0
M  V30 4038 H 211.251 1.80153 -5.63503 0
M  V30 4039 H 212.988 1.4566 -5.94104 0
M  V30 4040 H 212.5 2.40664 -4.49645 0
M  V30 4041 H 211.764 -0.647622 -1.25697 0
M  V30 4042 P 210.339 -6.144 -6.45285 0
M  V30 4043 O 210.119 -7.54673 -6.86199 0
M  V30 4044 O 209.549 -5.12391 -7.179 0
M  V30 4045 O 210.089 -5.99158 -4.88404 0
M  V30 4046 C 211.029 -6.60234 -3.96415 0
M  V30 4047 C 210.299 -7.08259 -2.72856 0
M  V30 4048 O 210.089 -5.9427 -1.83651 0
M  V30 4049 C 208.899 -7.64886 -2.9555 0
M  V30 4050 O 208.509 -8.53963 -1.90717 0
M  V30 4051 C 208.019 -6.4116 -2.90739 0
M  V30 4052 C 208.729 -5.55375 -1.86963 0
M  V30 4053 N 208.679 -4.09448 -2.16152 0
M  V30 4054 H 211.518 -7.45574 -4.45629 0
M  V30 4055 H 211.79 -5.85864 -3.679 0
M  V30 4056 H 210.922 -7.84412 -2.24479 0
M  V30 4057 H 208.267 -5.73457 -0.888562 0
M  V30 4058 H 207.987 -5.90877 -3.88583 0
M  V30 4059 H 206.996 -6.6596 -2.58858 0
M  V30 4060 H 208.83 -8.16339 -3.92049 0
M  V30 4061 P 206.959 -8.7635 -1.60911 0
M  V30 4062 O 206.739 -10.1388 -1.11561 0
M  V30 4063 O 206.169 -8.36503 -2.79617 0
M  V30 4064 O 206.709 -7.71806 -0.42951 0
M  V30 4065 C 207.649 -7.67148 0.673689 0
M  V30 4066 C 206.919 -7.33374 1.95559 0
M  V30 4067 O 206.709 -5.88721 2.00726 0
M  V30 4068 C 205.519 -7.92526 2.10483 0
M  V30 4069 O 205.129 -8.02971 3.47653 0
M  V30 4070 C 204.639 -6.89602 1.41652 0
M  V30 4071 C 205.349 -5.59201 1.75185 0
M  V30 4072 N 205.299 -4.58235 0.662552 0
M  V30 4073 H 208.138 -8.65116 0.777161 0
M  V30 4074 H 208.41 -6.90173 0.474152 0
M  V30 4075 H 207.542 -7.66548 2.79458 0
M  V30 4076 P 203.579 -8.03563 3.84925 0
M  V30 4077 O 203.359 -8.85821 5.0569 0
M  V30 4078 O 202.789 -8.41101 2.65469 0
M  V30 4079 O 203.329 -6.4965 4.18908 0
M  V30 4080 C 204.269 -5.81037 5.05421 0
M  V30 4081 C 203.539 -4.78366 5.89277 0
M  V30 4082 O 203.329 -3.58302 5.08433 0
M  V30 4083 C 202.139 -5.17448 6.36119 0
M  V30 4084 O 201.749 -4.45271 7.53232 0
M  V30 4085 C 201.259 -4.74639 5.19936 0
M  V30 4086 C 201.969 -3.49432 4.70418 0
M  V30 4087 N 201.919 -3.31776 3.22945 0
M  V30 4088 H 204.758 -6.54213 5.71376 0
M  V30 4089 H 205.03 -5.30492 4.44033 0
M  V30 4090 H 204.162 -4.55889 6.76652 0
M  V30 4091 P 200.199 -4.23843 7.83734 0
M  V30 4092 O 199.979 -4.19407 9.29784 0
M  V30 4093 O 199.409 -5.24426 7.09156 0
M  V30 4094 O 199.949 -2.7935 7.20758 0
M  V30 4095 C 200.889 -1.7299 7.50419 0
M  V30 4096 C 200.159 -0.406376 7.57911 0
M  V30 4097 O 199.949 0.0897726 6.21935 0
M  V30 4098 C 198.759 -0.447224 8.1878 0
M  V30 4099 O 198.369 0.825065 8.71101 0
M  V30 4100 C 197.879 -0.783801 6.99623 0
M  V30 4101 C 198.589 -0.0619192 5.85967 0
M  V30 4102 N 198.539 -0.7859 4.56281 0
M  V30 4103 H 201.378 -1.93423 8.4679 0
M  V30 4104 H 201.65 -1.68181 6.71046 0
M  V30 4105 H 200.782 0.289041 8.15388 0
M  V30 4106 P 196.819 1.17771 8.83182 0
M  V30 4107 O 196.599 2.07206 9.98732 0
M  V30 4108 O 196.029 -0.0743816 8.81969 0
M  V30 4109 O 196.569 1.97652 7.47304 0
M  V30 4110 C 197.509 3.01133 7.08783 0
M  V30 4111 C 196.779 4.12613 6.37049 0
M  V30 4112 O 196.569 3.72827 4.97879 0
M  V30 4113 C 195.379 4.45085 6.88694 0
M  V30 4114 O 194.989 5.7877 6.5624 0
M  V30 4115 C 194.499 3.47817 6.12078 0
M  V30 4116 C 195.209 3.39414 4.77697 0
M  V30 4117 N 195.159 2.04615 4.15333 0
M  V30 4118 C 195.239 0.803897 4.75249 0
M  V30 4119 N 195.159 -0.197615 3.91502 0
M  V30 4120 C 195.019 0.413002 2.66823 0
M  V30 4121 C 194.889 -0.157221 1.38007 0
M  V30 4122 N 194.769 0.833136 0.390236 0
M  V30 4123 C 194.769 2.19402 0.623885 0
M  V30 4124 N 194.639 2.97622 -0.449677 0
M  V30 4125 N 194.899 2.73005 1.83601 0
M  V30 4126 C 195.019 1.78786 2.80935 0
M  V30 4127 H 197.998 3.41248 7.98759 0
M  V30 4128 H 198.27 2.5837 6.41742 0
M  V30 4129 H 197.402 5.02657 6.42673 0
M  V30 4130 P 193.439 6.144 6.45285 0
M  V30 4131 O 193.219 7.54673 6.86199 0
M  V30 4132 O 192.649 5.12391 7.179 0
M  V30 4133 O 193.189 5.99158 4.88404 0
M  V30 4134 C 194.129 6.60234 3.96415 0
M  V30 4135 C 193.399 7.08259 2.72856 0
M  V30 4136 O 193.189 5.9427 1.83651 0
M  V30 4137 C 191.999 7.64886 2.9555 0
M  V30 4138 O 191.609 8.53963 1.90717 0
M  V30 4139 C 191.119 6.4116 2.90739 0
M  V30 4140 C 191.829 5.55375 1.86963 0
M  V30 4141 N 191.779 4.09664 2.15742 0
M  V30 4142 H 194.618 7.45574 4.45629 0
M  V30 4143 H 194.89 5.86232 3.67314 0
M  V30 4144 H 194.022 7.84412 2.24479 0
M  V30 4145 P 190.059 8.7635 1.60911 0
M  V30 4146 O 189.839 10.1388 1.11561 0
M  V30 4147 O 189.269 8.36503 2.79617 0
M  V30 4148 O 189.809 7.71806 0.42951 0
M  V30 4149 C 190.749 7.67148 -0.673689 0
M  V30 4150 C 190.019 7.33374 -1.95559 0
M  V30 4151 O 189.809 5.88721 -2.00726 0
M  V30 4152 C 188.619 7.92526 -2.10483 0
M  V30 4153 O 188.229 8.02971 -3.47653 0
M  V30 4154 C 187.739 6.89602 -1.41652 0
M  V30 4155 C 188.449 5.59201 -1.75185 0
M  V30 4156 N 188.399 4.58235 -0.662552 0
M  V30 4157 H 191.238 8.65116 -0.777161 0
M  V30 4158 H 191.51 6.90173 -0.474152 0
M  V30 4159 H 190.642 7.66548 -2.79458 0
M  V30 4160 P 186.679 8.03563 -3.84925 0
M  V30 4161 O 186.459 8.85821 -5.0569 0
M  V30 4162 O 185.889 8.41101 -2.65469 0
M  V30 4163 O 186.429 6.4965 -4.18908 0
M  V30 4164 C 187.369 5.81037 -5.05421 0
M  V30 4165 C 186.639 4.78366 -5.89277 0
M  V30 4166 O 186.429 3.58302 -5.08433 0
M  V30 4167 C 185.239 5.17448 -6.36119 0
M  V30 4168 O 184.849 4.45271 -7.53232 0
M  V30 4169 C 184.359 4.74639 -5.19936 0
M  V30 4170 C 185.069 3.49432 -4.70418 0
M  V30 4171 N 185.019 3.31776 -3.22945 0
M  V30 4172 H 187.858 6.54213 -5.71376 0
M  V30 4173 H 188.13 5.30492 -4.44033 0
M  V30 4174 H 187.262 4.55889 -6.76652 0
M  V30 4175 P 183.299 4.23843 -7.83734 0
M  V30 4176 O 183.079 4.19407 -9.29784 0
M  V30 4177 O 182.509 5.24426 -7.09156 0
M  V30 4178 O 183.049 2.7935 -7.20758 0
M  V30 4179 C 183.989 1.7299 -7.50419 0
M  V30 4180 C 183.259 0.406376 -7.57911 0
M  V30 4181 O 183.049 -0.0897726 -6.21935 0
M  V30 4182 C 181.859 0.447224 -8.1878 0
M  V30 4183 O 181.469 -0.825065 -8.71101 0
M  V30 4184 C 180.979 0.783801 -6.99623 0
M  V30 4185 C 181.689 0.0619192 -5.85967 0
M  V30 4186 N 181.639 0.7859 -4.56281 0
M  V30 4187 H 184.478 1.93423 -8.4679 0
M  V30 4188 H 184.75 1.68181 -6.71046 0
M  V30 4189 H 183.882 -0.289041 -8.15388 0
M  V30 4190 P 179.919 -1.17771 -8.83182 0
M  V30 4191 O 179.699 -2.07206 -9.98732 0
M  V30 4192 O 179.129 0.0743816 -8.81969 0
M  V30 4193 O 179.669 -1.97652 -7.47304 0
M  V30 4194 C 180.609 -3.01055 -7.08599 0
M  V30 4195 C 179.879 -4.12613 -6.37049 0
M  V30 4196 O 179.669 -3.72827 -4.97879 0
M  V30 4197 C 178.479 -4.45719 -6.88164 0
M  V30 4198 O 178.089 -5.7877 -6.5624 0
M  V30 4199 C 177.599 -3.47768 -6.11991 0
M  V30 4200 C 178.309 -3.39356 -4.77615 0
M  V30 4201 N 178.259 -2.04571 -4.15244 0
M  V30 4202 C 178.109 -1.98587 -2.78314 0
M  V30 4203 O 178.019 -2.98134 -2.08835 0
M  V30 4204 N 178.069 -0.714467 -2.24925 0
M  V30 4205 C 178.159 0.470001 -2.94169 0
M  V30 4206 O 178.109 1.55587 -2.35195 0
M  V30 4207 C 178.309 0.312541 -4.36783 0
M  V30 4208 C 178.419 1.57711 -5.16352 0
M  V30 4209 C 178.359 -0.914512 -4.92583 0
M  V30 4210 H 181.1 -3.41169 -7.98575 0
M  V30 4211 H 181.369 -2.58295 -6.41556 0
M  V30 4212 H 180.502 -5.02657 -6.42673 0
M  V30 4213 H 177.847 -4.11637 -4.08885 0
M  V30 4214 H 177.568 -2.49626 -6.61679 0
M  V30 4215 H 176.576 -3.86566 -6.00778 0
M  V30 4216 H 178.41 -4.29943 -7.96918 0
M  V30 4217 H 178.481 -1.00937 -6.00374 0
M  V30 4218 H 177.451 1.80153 -5.63503 0
M  V30 4219 H 179.188 1.4566 -5.94104 0
M  V30 4220 H 178.7 2.40664 -4.49645 0
M  V30 4221 H 177.964 -0.647622 -1.25697 0
M  V30 4222 P 176.539 -6.144 -6.45285 0
M  V30 4223 O 176.319 -7.54673 -6.86199 0
M  V30 4224 O 175.749 -5.12391 -7.179 0
M  V30 4225 O 176.289 -5.99158 -4.88404 0
M  V30 4226 C 177.229 -6.60062 -3.96313 0
M  V30 4227 C 176.499 -7.08259 -2.72856 0
M  V30 4228 O 176.289 -5.9427 -1.83651 0
M  V30 4229 C 175.099 -7.65087 -2.94749 0
M  V30 4230 O 174.709 -8.53963 -1.90717 0
M  V30 4231 C 174.219 -6.41069 -2.90698 0
M  V30 4232 C 174.929 -5.5528 -1.86931 0
M  V30 4233 N 174.879 -4.09575 -2.15696 0
M  V30 4234 C 174.729 -3.24249 -1.08435 0
M  V30 4235 O 174.639 -3.63946 0.0628747 0
M  V30 4236 N 174.689 -1.90009 -1.39973 0
M  V30 4237 C 174.779 -1.34884 -2.65614 0
M  V30 4238 O 174.729 -0.123716 -2.81728 0
M  V30 4239 C 174.929 -2.3145 -3.71736 0
M  V30 4240 C 175.039 -1.75913 -5.10438 0
M  V30 4241 C 174.979 -3.63518 -3.44754 0
M  V30 4242 H 177.72 -7.45402 -4.45526 0
M  V30 4243 H 177.989 -5.86062 -3.67208 0
M  V30 4244 H 177.122 -7.84412 -2.24479 0
M  V30 4245 H 174.467 -5.73358 -0.888409 0
M  V30 4246 H 174.188 -5.90877 -3.88583 0
M  V30 4247 H 173.196 -6.65867 -2.58821 0
M  V30 4248 H 175.03 -8.16248 -3.92006 0
M  V30 4249 H 175.101 -4.34551 -4.26383 0
M  V30 4250 H 174.071 -1.85471 -5.61775 0
M  V30 4251 H 175.808 -2.31364 -5.66257 0
M  V30 4252 H 175.32 -0.695936 -5.05229 0
M  V30 4253 H 174.584 -1.26277 -0.63625 0
M  V30 4254 P 173.159 -8.7635 -1.60911 0
M  V30 4255 O 172.939 -10.1388 -1.11561 0
M  V30 4256 O 172.369 -8.36503 -2.79617 0
M  V30 4257 O 172.909 -7.71806 -0.42951 0
M  V30 4258 C 173.849 -7.67148 0.673689 0
M  V30 4259 C 173.119 -7.33374 1.95559 0
M  V30 4260 O 172.909 -5.88721 2.00726 0
M  V30 4261 C 171.719 -7.92526 2.10483 0
M  V30 4262 O 171.329 -8.02971 3.47653 0
M  V30 4263 C 170.839 -6.89602 1.41652 0
M  V30 4264 C 171.549 -5.59201 1.75185 0
M  V30 4265 N 171.499 -4.58235 0.662552 0
M  V30 4266 H 174.338 -8.65116 0.777161 0
M  V30 4267 H 174.61 -6.90173 0.474152 0
M  V30 4268 H 173.742 -7.66548 2.79458 0
M  V30 4269 P 169.779 -8.03563 3.84925 0
M  V30 4270 O 169.559 -8.85821 5.0569 0
M  V30 4271 O 168.989 -8.41101 2.65469 0
M  V30 4272 O 169.529 -6.4965 4.18908 0
M  V30 4273 C 170.469 -5.81037 5.05421 0
M  V30 4274 C 169.739 -4.78366 5.89277 0
M  V30 4275 O 169.529 -3.58302 5.08433 0
M  V30 4276 C 168.339 -5.17448 6.36119 0
M  V30 4277 O 167.949 -4.45271 7.53232 0
M  V30 4278 C 167.459 -4.74639 5.19936 0
M  V30 4279 C 168.169 -3.49432 4.70418 0
M  V30 4280 N 168.119 -3.31776 3.22945 0
M  V30 4281 H 170.958 -6.54213 5.71376 0
M  V30 4282 H 171.23 -5.30492 4.44033 0
M  V30 4283 H 170.362 -4.55889 6.76652 0
M  V30 4284 P 166.399 -4.23843 7.83734 0
M  V30 4285 O 166.179 -4.19407 9.29784 0
M  V30 4286 O 165.609 -5.24426 7.09156 0
M  V30 4287 O 166.149 -2.7935 7.20758 0
M  V30 4288 C 167.089 -1.7299 7.50419 0
M  V30 4289 C 166.359 -0.406376 7.57911 0
M  V30 4290 O 166.149 0.0897726 6.21935 0
M  V30 4291 C 164.959 -0.447224 8.1878 0
M  V30 4292 O 164.569 0.825065 8.71101 0
M  V30 4293 C 164.079 -0.783801 6.99623 0
M  V30 4294 C 164.789 -0.0619192 5.85967 0
M  V30 4295 N 164.739 -0.7859 4.56281 0
M  V30 4296 H 167.578 -1.93423 8.4679 0
M  V30 4297 H 167.85 -1.68181 6.71046 0
M  V30 4298 H 166.982 0.289041 8.15388 0
M  V30 4299 P 163.019 1.17771 8.83182 0
M  V30 4300 O 162.799 2.07206 9.98732 0
M  V30 4301 O 162.229 -0.0743816 8.81969 0
M  V30 4302 O 162.769 1.97652 7.47304 0
M  V30 4303 C 163.709 3.01055 7.08599 0
M  V30 4304 C 162.979 4.12613 6.37049 0
M  V30 4305 O 162.769 3.72827 4.97879 0
M  V30 4306 C 161.579 4.45719 6.88164 0
M  V30 4307 O 161.189 5.7877 6.5624 0
M  V30 4308 C 160.699 3.47768 6.11991 0
M  V30 4309 C 161.409 3.39356 4.77615 0
M  V30 4310 N 161.359 2.04571 4.15244 0
M  V30 4311 C 161.209 1.98587 2.78314 0
M  V30 4312 O 161.119 2.98134 2.08835 0
M  V30 4313 N 161.169 0.714467 2.24925 0
M  V30 4314 C 161.259 -0.470001 2.94169 0
M  V30 4315 C 161.409 -0.312541 4.36783 0
M  V30 4316 C 161.459 0.914512 4.92583 0
M  V30 4317 H 164.2 3.41169 7.98575 0
M  V30 4318 H 164.469 2.58295 6.41556 0
M  V30 4319 H 163.602 5.02657 6.42673 0
M  V30 4320 H 160.947 4.11637 4.08885 0
M  V30 4321 H 160.668 2.49626 6.61679 0
M  V30 4322 H 159.676 3.86566 6.00778 0
M  V30 4323 H 161.51 4.29943 7.96918 0
M  V30 4324 H 161.581 1.00937 6.00374 0
M  V30 4325 P 159.639 6.144 6.45285 0
M  V30 4326 O 159.419 7.54673 6.86199 0
M  V30 4327 O 158.849 5.12391 7.179 0
M  V30 4328 O 159.389 5.99158 4.88404 0
M  V30 4329 C 160.329 6.60062 3.96313 0
M  V30 4330 C 159.599 7.08259 2.72856 0
M  V30 4331 O 159.389 5.9427 1.83651 0
M  V30 4332 C 158.199 7.65087 2.94749 0
M  V30 4333 O 157.809 8.53963 1.90717 0
M  V30 4334 C 157.319 6.41069 2.90698 0
M  V30 4335 C 158.029 5.5528 1.86931 0
M  V30 4336 N 157.979 4.09575 2.15696 0
M  V30 4337 C 157.829 3.24249 1.08435 0
M  V30 4338 O 157.739 3.63946 -0.0628747 0
M  V30 4339 N 157.789 1.90009 1.39973 0
M  V30 4340 C 157.879 1.34884 2.65614 0
M  V30 4341 O 157.829 0.123716 2.81728 0
M  V30 4342 C 158.029 2.3145 3.71736 0
M  V30 4343 C 158.139 1.75913 5.10438 0
M  V30 4344 C 158.079 3.63518 3.44754 0
M  V30 4345 H 160.82 7.45402 4.45526 0
M  V30 4346 H 161.089 5.86062 3.67208 0
M  V30 4347 H 160.222 7.84412 2.24479 0
M  V30 4348 H 157.567 5.73358 0.888409 0
M  V30 4349 H 157.288 5.90877 3.88583 0
M  V30 4350 H 156.296 6.65867 2.58821 0
M  V30 4351 H 158.13 8.16248 3.92006 0
M  V30 4352 H 158.201 4.34551 4.26383 0
M  V30 4353 H 157.171 1.85471 5.61775 0
M  V30 4354 H 158.908 2.31364 5.66257 0
M  V30 4355 H 158.42 0.695936 5.05229 0
M  V30 4356 H 157.684 1.26277 0.63625 0
M  V30 4357 P 156.259 8.7635 1.60911 0
M  V30 4358 O 156.039 10.1388 1.11561 0
M  V30 4359 O 155.469 8.36503 2.79617 0
M  V30 4360 O 156.009 7.71806 0.42951 0
M  V30 4361 C 156.949 7.67148 -0.673689 0
M  V30 4362 C 156.219 7.33374 -1.95559 0
M  V30 4363 O 156.009 5.88721 -2.00726 0
M  V30 4364 C 154.819 7.92526 -2.10483 0
M  V30 4365 O 154.429 8.02971 -3.47653 0
M  V30 4366 C 153.939 6.89602 -1.41652 0
M  V30 4367 C 154.649 5.59201 -1.75185 0
M  V30 4368 N 154.599 4.58235 -0.662552 0
M  V30 4369 H 157.438 8.65116 -0.777161 0
M  V30 4370 H 157.71 6.90173 -0.474152 0
M  V30 4371 H 156.842 7.66548 -2.79458 0
M  V30 4372 P 152.879 8.03563 -3.84925 0
M  V30 4373 O 152.659 8.85821 -5.0569 0
M  V30 4374 O 152.089 8.41101 -2.65469 0
M  V30 4375 O 152.629 6.4965 -4.18908 0
M  V30 4376 C 153.569 5.81037 -5.05421 0
M  V30 4377 C 152.839 4.78366 -5.89277 0
M  V30 4378 O 152.629 3.58302 -5.08433 0
M  V30 4379 C 151.439 5.17448 -6.36119 0
M  V30 4380 O 151.049 4.45271 -7.53232 0
M  V30 4381 C 150.559 4.74639 -5.19936 0
M  V30 4382 C 151.269 3.49432 -4.70418 0
M  V30 4383 N 151.219 3.32099 -3.22613 0
M  V30 4384 H 154.058 6.54213 -5.71376 0
M  V30 4385 H 154.33 5.30936 -4.43503 0
M  V30 4386 H 153.462 4.55889 -6.76652 0
M  V30 4387 H 150.807 2.61715 -5.17932 0
M  V30 4388 H 150.527 5.52155 -4.41878 0
M  V30 4389 H 149.536 4.51981 -5.53374 0
M  V30 4390 H 151.37 6.25124 -6.55234 0
M  V30 4391 P 149.499 4.23843 -7.83734 0
M  V30 4392 O 149.279 4.19407 -9.29784 0
M  V30 4393 O 148.709 5.24426 -7.09156 0
M  V30 4394 O 149.249 2.7935 -7.20758 0
M  V30 4395 C 150.189 1.7299 -7.50419 0
M  V30 4396 C 149.459 0.406376 -7.57911 0
M  V30 4397 O 149.249 -0.0897726 -6.21935 0
M  V30 4398 C 148.059 0.447224 -8.1878 0
M  V30 4399 O 147.669 -0.825065 -8.71101 0
M  V30 4400 C 147.179 0.783801 -6.99623 0
M  V30 4401 C 147.889 0.0619192 -5.85967 0
M  V30 4402 N 147.839 0.7859 -4.56281 0
M  V30 4403 H 150.678 1.93423 -8.4679 0
M  V30 4404 H 150.95 1.68181 -6.71046 0
M  V30 4405 H 150.082 -0.289041 -8.15388 0
M  V30 4406 P 146.119 -1.17771 -8.83182 0
M  V30 4407 O 145.899 -2.07206 -9.98732 0
M  V30 4408 O 145.329 0.0743816 -8.81969 0
M  V30 4409 O 145.869 -1.97652 -7.47304 0
M  V30 4410 C 146.809 -3.01133 -7.08783 0
M  V30 4411 C 146.079 -4.12613 -6.37049 0
M  V30 4412 O 145.869 -3.72827 -4.97879 0
M  V30 4413 C 144.679 -4.45085 -6.88694 0
M  V30 4414 O 144.289 -5.7877 -6.5624 0
M  V30 4415 C 143.799 -3.47817 -6.12078 0
M  V30 4416 C 144.509 -3.39414 -4.77697 0
M  V30 4417 N 144.459 -2.04199 -4.15538 0
M  V30 4418 H 147.298 -3.41248 -7.98759 0
M  V30 4419 H 147.57 -2.57728 -6.42 0
M  V30 4420 H 146.702 -5.02657 -6.42673 0
M  V30 4421 H 144.047 -4.11708 -4.08956 0
M  V30 4422 H 143.767 -2.49626 -6.61679 0
M  V30 4423 H 142.776 -3.8662 -6.00862 0
M  V30 4424 H 144.61 -4.29991 -7.97006 0
M  V30 4425 P 142.739 -6.144 -6.45285 0
M  V30 4426 O 142.519 -7.54673 -6.86199 0
M  V30 4427 O 141.949 -5.12391 -7.179 0
M  V30 4428 O 142.489 -5.99158 -4.88404 0
M  V30 4429 C 143.429 -6.60234 -3.96415 0
M  V30 4430 C 142.699 -7.08259 -2.72856 0
M  V30 4431 O 142.489 -5.9427 -1.83651 0
M  V30 4432 C 141.299 -7.64886 -2.9555 0
M  V30 4433 O 140.909 -8.53963 -1.90717 0
M  V30 4434 C 140.419 -6.4116 -2.90739 0
M  V30 4435 C 141.129 -5.55375 -1.86963 0
M  V30 4436 N 141.079 -4.09664 -2.15742 0
M  V30 4437 H 143.918 -7.45574 -4.45629 0
M  V30 4438 H 144.19 -5.86232 -3.67314 0
M  V30 4439 H 143.322 -7.84412 -2.24479 0
M  V30 4440 P 139.359 -8.7635 -1.60911 0
M  V30 4441 O 139.139 -10.1388 -1.11561 0
M  V30 4442 O 138.569 -8.36503 -2.79617 0
M  V30 4443 O 139.109 -7.71806 -0.42951 0
M  V30 4444 C 140.049 -7.67148 0.673689 0
M  V30 4445 C 139.319 -7.33374 1.95559 0
M  V30 4446 O 139.109 -5.88721 2.00726 0
M  V30 4447 C 137.919 -7.92526 2.10483 0
M  V30 4448 O 137.529 -8.02971 3.47653 0
M  V30 4449 C 137.039 -6.89602 1.41652 0
M  V30 4450 C 137.749 -5.59201 1.75185 0
M  V30 4451 N 137.699 -4.58301 0.657969 0
M  V30 4452 C 137.779 -4.79019 -0.692603 0
M  V30 4453 N 137.709 -3.69736 -1.38998 0
M  V30 4454 C 137.559 -2.70474 -0.438135 0
M  V30 4455 C 137.429 -1.30327 -0.538142 0
M  V30 4456 N 137.419 -0.64304 -1.69192 0
M  V30 4457 N 137.309 -0.611027 0.605183 0
M  V30 4458 C 137.319 -1.27002 1.75953 0
M  V30 4459 N 137.439 -2.56038 1.98546 0
M  V30 4460 C 137.559 -3.22681 0.822541 0
M  V30 4461 H 140.538 -8.65116 0.777161 0
M  V30 4462 H 140.81 -6.9022 0.46725 0
M  V30 4463 H 139.942 -7.66548 2.79458 0
M  V30 4464 H 137.287 -5.16165 2.65183 0
M  V30 4465 H 137.007 -7.06433 0.329384 0
M  V30 4466 H 136.016 -6.90926 1.82021 0
M  V30 4467 H 137.85 -8.90873 1.62657 0
M  V30 4468 H 137.891 -5.77785 -1.13874 0
M  V30 4469 H 137.51 -1.15585 -2.57991 0
M  V30 4470 H 137.321 0.382989 -1.69835 0
M  V30 4471 H 137.213 -0.653331 2.64449 0
M  V30 4472 P 135.979 -8.03563 3.84925 0
M  V30 4473 O 135.759 -8.85821 5.0569 0
M  V30 4474 O 135.189 -8.41101 2.65469 0
M  V30 4475 O 135.729 -6.4965 4.18908 0
M  V30 4476 C 136.669 -5.80886 5.05289 0
M  V30 4477 C 135.939 -4.78366 5.89277 0
M  V30 4478 O 135.729 -3.58302 5.08433 0
M  V30 4479 C 134.539 -5.16748 6.36559 0
M  V30 4480 O 134.149 -4.45271 7.53232 0
M  V30 4481 C 133.659 -4.74572 5.19863 0
M  V30 4482 C 134.369 -3.49373 4.70338 0
M  V30 4483 N 134.319 -3.31704 3.22876 0
M  V30 4484 C 134.169 -2.03326 2.74871 0
M  V30 4485 O 134.079 -1.06486 3.48076 0
M  V30 4486 N 134.129 -1.91838 1.37456 0
M  V30 4487 C 134.219 -2.94295 0.462035 0
M  V30 4488 O 134.169 -2.71763 -0.752928 0
M  V30 4489 C 134.369 -4.25064 1.05249 0
M  V30 4490 C 134.479 -5.39815 0.095697 0
M  V30 4491 C 134.419 -4.40214 2.39192 0
M  V30 4492 H 137.16 -6.54063 5.71245 0
M  V30 4493 H 137.429 -5.30339 4.43905 0
M  V30 4494 H 136.562 -4.55889 6.76652 0
M  V30 4495 H 133.907 -2.6167 5.17842 0
M  V30 4496 H 133.628 -5.52155 4.41878 0
M  V30 4497 H 132.636 -4.51918 5.53297 0
M  V30 4498 H 134.47 -6.25055 6.55162 0
M  V30 4499 H 134.541 -5.39798 2.81523 0
M  V30 4500 H 133.511 -5.91593 0.0279582 0
M  V30 4501 H 135.248 -6.10038 0.450573 0
M  V30 4502 H 134.76 -5.02007 -0.89937 0
M  V30 4503 H 134.024 -0.995326 1.00435 0
M  V30 4504 P 132.599 -4.23843 7.83734 0
M  V30 4505 O 132.379 -4.19407 9.29784 0
M  V30 4506 O 131.809 -5.24426 7.09156 0
M  V30 4507 O 132.349 -2.7935 7.20758 0
M  V30 4508 C 133.289 -1.7299 7.50419 0
M  V30 4509 C 132.559 -0.406376 7.57911 0
M  V30 4510 O 132.349 0.0897726 6.21935 0
M  V30 4511 C 131.159 -0.447224 8.1878 0
M  V30 4512 O 130.769 0.825065 8.71101 0
M  V30 4513 C 130.279 -0.783801 6.99623 0
M  V30 4514 C 130.989 -0.0619192 5.85967 0
M  V30 4515 N 130.939 -0.7859 4.56281 0
M  V30 4516 H 133.778 -1.93423 8.4679 0
M  V30 4517 H 134.05 -1.68181 6.71046 0
M  V30 4518 H 133.182 0.289041 8.15388 0
M  V30 4519 P 129.219 1.17771 8.83182 0
M  V30 4520 O 128.999 2.07206 9.98732 0
M  V30 4521 O 128.429 -0.0743816 8.81969 0
M  V30 4522 O 128.969 1.97652 7.47304 0
M  V30 4523 C 129.909 3.01133 7.08783 0
M  V30 4524 C 129.179 4.12613 6.37049 0
M  V30 4525 O 128.969 3.72827 4.97879 0
M  V30 4526 C 127.779 4.45085 6.88694 0
M  V30 4527 O 127.389 5.7877 6.5624 0
M  V30 4528 C 126.899 3.47817 6.12078 0
M  V30 4529 C 127.609 3.39414 4.77697 0
M  V30 4530 N 127.559 2.04199 4.15538 0
M  V30 4531 H 130.398 3.41248 7.98759 0
M  V30 4532 H 130.67 2.57728 6.42 0
M  V30 4533 H 129.802 5.02657 6.42673 0
M  V30 4534 H 127.147 4.11708 4.08956 0
M  V30 4535 H 126.867 2.49626 6.61679 0
M  V30 4536 H 125.876 3.8662 6.00862 0
M  V30 4537 H 127.71 4.29991 7.97006 0
M  V30 4538 P 125.839 6.144 6.45285 0
M  V30 4539 O 125.619 7.54673 6.86199 0
M  V30 4540 O 125.049 5.12391 7.179 0
M  V30 4541 O 125.589 5.99158 4.88404 0
M  V30 4542 C 126.529 6.60062 3.96313 0
M  V30 4543 C 125.799 7.08259 2.72856 0
M  V30 4544 O 125.589 5.9427 1.83651 0
M  V30 4545 C 124.399 7.65087 2.94749 0
M  V30 4546 O 124.009 8.53963 1.90717 0
M  V30 4547 C 123.519 6.41069 2.90698 0
M  V30 4548 C 124.229 5.5528 1.86931 0
M  V30 4549 N 124.179 4.09575 2.15696 0
M  V30 4550 C 124.029 3.24249 1.08435 0
M  V30 4551 O 123.939 3.63946 -0.0628747 0
M  V30 4552 N 123.989 1.90009 1.39973 0
M  V30 4553 C 124.079 1.34884 2.65614 0
M  V30 4554 O 124.029 0.123716 2.81728 0
M  V30 4555 C 124.229 2.3145 3.71736 0
M  V30 4556 C 124.339 1.75913 5.10438 0
M  V30 4557 C 124.279 3.63518 3.44754 0
M  V30 4558 H 127.02 7.45402 4.45526 0
M  V30 4559 H 127.289 5.86062 3.67208 0
M  V30 4560 H 126.422 7.84412 2.24479 0
M  V30 4561 H 123.767 5.73358 0.888409 0
M  V30 4562 H 123.488 5.90877 3.88583 0
M  V30 4563 H 122.496 6.65867 2.58821 0
M  V30 4564 H 124.33 8.16248 3.92006 0
M  V30 4565 H 124.401 4.34551 4.26383 0
M  V30 4566 H 123.371 1.85471 5.61775 0
M  V30 4567 H 125.108 2.31364 5.66257 0
M  V30 4568 H 124.62 0.695936 5.05229 0
M  V30 4569 H 123.884 1.26277 0.63625 0
M  V30 4570 P 122.459 8.7635 1.60911 0
M  V30 4571 O 122.239 10.1388 1.11561 0
M  V30 4572 O 121.669 8.36503 2.79617 0
M  V30 4573 O 122.209 7.71806 0.42951 0
M  V30 4574 C 123.149 7.67148 -0.673689 0
M  V30 4575 C 122.419 7.33374 -1.95559 0
M  V30 4576 O 122.209 5.88721 -2.00726 0
M  V30 4577 C 121.019 7.92526 -2.10483 0
M  V30 4578 O 120.629 8.02971 -3.47653 0
M  V30 4579 C 120.139 6.89602 -1.41652 0
M  V30 4580 C 120.849 5.59201 -1.75185 0
M  V30 4581 N 120.799 4.58235 -0.662552 0
M  V30 4582 H 123.638 8.65116 -0.777161 0
M  V30 4583 H 123.91 6.90173 -0.474152 0
M  V30 4584 H 123.042 7.66548 -2.79458 0
M  V30 4585 P 119.079 8.03563 -3.84925 0
M  V30 4586 O 118.859 8.85821 -5.0569 0
M  V30 4587 O 118.289 8.41101 -2.65469 0
M  V30 4588 O 118.829 6.4965 -4.18908 0
M  V30 4589 C 119.769 5.81037 -5.05421 0
M  V30 4590 C 119.039 4.78366 -5.89277 0
M  V30 4591 O 118.829 3.58302 -5.08433 0
M  V30 4592 C 117.639 5.17448 -6.36119 0
M  V30 4593 O 117.249 4.45271 -7.53232 0
M  V30 4594 C 116.759 4.74639 -5.19936 0
M  V30 4595 C 117.469 3.49432 -4.70418 0
M  V30 4596 N 117.419 3.32099 -3.22613 0
M  V30 4597 H 120.258 6.54213 -5.71376 0
M  V30 4598 H 120.53 5.30936 -4.43503 0
M  V30 4599 H 119.662 4.55889 -6.76652 0
M  V30 4600 H 117.007 2.61715 -5.17932 0
M  V30 4601 H 116.727 5.52155 -4.41878 0
M  V30 4602 H 115.736 4.51981 -5.53374 0
M  V30 4603 H 117.57 6.25124 -6.55234 0
M  V30 4604 P 115.699 4.23843 -7.83734 0
M  V30 4605 O 115.479 4.19407 -9.29784 0
M  V30 4606 O 114.909 5.24426 -7.09156 0
M  V30 4607 O 115.449 2.7935 -7.20758 0
M  V30 4608 C 116.389 1.7299 -7.50419 0
M  V30 4609 C 115.659 0.406376 -7.57911 0
M  V30 4610 O 115.449 -0.0897726 -6.21935 0
M  V30 4611 C 114.259 0.447224 -8.1878 0
M  V30 4612 O 113.869 -0.825065 -8.71101 0
M  V30 4613 C 113.379 0.783801 -6.99623 0
M  V30 4614 C 114.089 0.0619192 -5.85967 0
M  V30 4615 N 114.039 0.790462 -4.56202 0
M  V30 4616 H 116.878 1.93423 -8.4679 0
M  V30 4617 H 117.15 1.68852 -6.70877 0
M  V30 4618 H 116.282 -0.289041 -8.15388 0
M  V30 4619 H 113.627 -0.927006 -5.72848 0
M  V30 4620 H 113.347 1.86973 -6.82036 0
M  V30 4621 H 112.356 0.403953 -7.13357 0
M  V30 4622 H 114.19 1.20599 -8.97534 0
M  V30 4623 P 112.319 -1.17771 -8.83182 0
M  V30 4624 O 112.099 -2.07206 -9.98732 0
M  V30 4625 O 111.529 0.0743816 -8.81969 0
M  V30 4626 O 112.069 -1.97652 -7.47304 0
M  V30 4627 C 113.009 -3.01133 -7.08783 0
M  V30 4628 C 112.279 -4.12613 -6.37049 0
M  V30 4629 O 112.069 -3.72827 -4.97879 0
M  V30 4630 C 110.879 -4.45085 -6.88694 0
M  V30 4631 O 110.489 -5.7877 -6.5624 0
M  V30 4632 C 109.999 -3.47817 -6.12078 0
M  V30 4633 C 110.709 -3.39414 -4.77697 0
M  V30 4634 N 110.659 -2.04615 -4.15333 0
M  V30 4635 H 113.498 -3.41248 -7.98759 0
M  V30 4636 H 113.77 -2.5837 -6.41742 0
M  V30 4637 H 112.902 -5.02657 -6.42673 0
M  V30 4638 P 108.939 -6.144 -6.45285 0
M  V30 4639 O 108.719 -7.54673 -6.86199 0
M  V30 4640 O 108.149 -5.12391 -7.179 0
M  V30 4641 O 108.689 -5.99158 -4.88404 0
M  V30 4642 C 109.629 -6.60234 -3.96415 0
M  V30 4643 C 108.899 -7.08259 -2.72856 0
M  V30 4644 O 108.689 -5.9427 -1.83651 0
M  V30 4645 C 107.499 -7.64886 -2.9555 0
M  V30 4646 O 107.109 -8.53963 -1.90717 0
M  V30 4647 C 106.619 -6.4116 -2.90739 0
M  V30 4648 C 107.329 -5.55375 -1.86963 0
M  V30 4649 N 107.279 -4.09664 -2.15742 0
M  V30 4650 H 110.118 -7.45574 -4.45629 0
M  V30 4651 H 110.39 -5.86232 -3.67314 0
M  V30 4652 H 109.522 -7.84412 -2.24479 0
M  V30 4653 P 105.559 -8.7635 -1.60911 0
M  V30 4654 O 105.339 -10.1388 -1.11561 0
M  V30 4655 O 104.769 -8.36503 -2.79617 0
M  V30 4656 O 105.309 -7.71806 -0.42951 0
M  V30 4657 C 106.249 -7.66948 0.673514 0
M  V30 4658 C 105.519 -7.33374 1.95559 0
M  V30 4659 O 105.309 -5.88721 2.00726 0
M  V30 4660 C 104.119 -7.92218 2.1125 0
M  V30 4661 O 103.729 -8.02971 3.47653 0
M  V30 4662 C 103.239 -6.89504 1.41631 0
M  V30 4663 C 103.949 -5.59106 1.75155 0
M  V30 4664 N 103.899 -4.58136 0.662409 0
M  V30 4665 C 103.749 -3.26059 1.02863 0
M  V30 4666 O 103.659 -2.90743 2.19009 0
M  V30 4667 N 103.709 -2.35995 -0.0155585 0
M  V30 4668 C 103.799 -2.65248 -1.35603 0
M  V30 4669 O 103.749 -1.75605 -2.20651 0
M  V30 4670 C 103.949 -4.05747 -1.64698 0
M  V30 4671 C 104.059 -4.42345 -3.09553 0
M  V30 4672 C 103.999 -4.96734 -0.652411 0
M  V30 4673 H 106.74 -8.64917 0.776982 0
M  V30 4674 H 107.009 -6.89974 0.474015 0
M  V30 4675 H 106.142 -7.66548 2.79458 0
M  V30 4676 H 103.487 -5.16076 2.65138 0
M  V30 4677 H 103.208 -7.06433 0.329384 0
M  V30 4678 H 102.216 -6.90829 1.81996 0
M  V30 4679 H 104.05 -8.90774 1.62639 0
M  V30 4680 H 104.121 -6.02181 -0.895285 0
M  V30 4681 H 103.091 -4.80252 -3.45468 0
M  V30 4682 H 104.828 -5.20015 -3.22119 0
M  V30 4683 H 104.34 -3.53269 -3.67833 0
M  V30 4684 H 103.604 -1.39558 0.227499 0
M  V30 4685 P 102.179 -8.03563 3.84925 0
M  V30 4686 O 101.959 -8.85821 5.0569 0
M  V30 4687 O 101.389 -8.41101 2.65469 0
M  V30 4688 O 101.929 -6.4965 4.18908 0
M  V30 4689 C 102.869 -5.81037 5.05421 0
M  V30 4690 C 102.139 -4.78366 5.89277 0
M  V30 4691 O 101.929 -3.58302 5.08433 0
M  V30 4692 C 100.739 -5.17448 6.36119 0
M  V30 4693 O 100.349 -4.45271 7.53232 0
M  V30 4694 C 99.8594 -4.74639 5.19936 0
M  V30 4695 C 100.569 -3.49432 4.70418 0
M  V30 4696 N 100.519 -3.32099 3.22613 0
M  V30 4697 H 103.358 -6.54213 5.71376 0
M  V30 4698 H 103.63 -5.30936 4.43503 0
M  V30 4699 H 102.762 -4.55889 6.76652 0
M  V30 4700 H 100.107 -2.61715 5.17932 0
M  V30 4701 H 99.8274 -5.52155 4.41878 0
M  V30 4702 H 98.8364 -4.51981 5.53374 0
M  V30 4703 H 100.67 -6.25124 6.55234 0
M  V30 4704 P 98.7994 -4.23843 7.83734 0
M  V30 4705 O 98.5794 -4.19407 9.29784 0
M  V30 4706 O 98.0094 -5.24426 7.09156 0
M  V30 4707 O 98.5494 -2.7935 7.20758 0
M  V30 4708 C 99.4894 -1.72945 7.50224 0
M  V30 4709 C 98.7594 -0.406376 7.57911 0
M  V30 4710 O 98.5494 0.0897726 6.21935 0
M  V30 4711 C 97.3594 -0.438983 8.18724 0
M  V30 4712 O 96.9694 0.825065 8.71101 0
M  V30 4713 C 96.4794 -0.783689 6.99524 0
M  V30 4714 C 97.1894 -0.0619086 5.85867 0
M  V30 4715 N 97.1394 -0.78573 4.56183 0
M  V30 4716 C 96.9894 -0.0292889 3.41887 0
M  V30 4717 O 96.8994 1.18445 3.4419 0
M  V30 4718 N 96.9494 -0.744061 2.23964 0
M  V30 4719 C 97.0394 -2.10932 2.10362 0
M  V30 4720 C 97.1894 -2.8202 3.34994 0
M  V30 4721 C 97.2394 -2.15547 4.52261 0
M  V30 4722 H 99.9804 -1.93379 8.46595 0
M  V30 4723 H 100.249 -1.68132 6.70852 0
M  V30 4724 H 99.3824 0.289041 8.15388 0
M  V30 4725 H 96.7274 0.926847 5.72749 0
M  V30 4726 H 96.4484 -1.86973 6.82036 0
M  V30 4727 H 95.4564 -0.403896 7.13257 0
M  V30 4728 H 97.2904 -1.20585 8.97435 0
M  V30 4729 H 97.3614 -2.71231 5.45042 0
M  V30 4730 P 95.4195 1.17771 8.83182 0
M  V30 4731 O 95.1995 2.07206 9.98732 0
M  V30 4732 O 94.6295 -0.0743816 8.81969 0
M  V30 4733 O 95.1695 1.97652 7.47304 0
M  V30 4734 C 96.1095 3.01133 7.08783 0
M  V30 4735 C 95.3795 4.12613 6.37049 0
M  V30 4736 O 95.1695 3.72827 4.97879 0
M  V30 4737 C 93.9795 4.45085 6.88694 0
M  V30 4738 O 93.5895 5.7877 6.5624 0
M  V30 4739 C 93.0995 3.47817 6.12078 0
M  V30 4740 C 93.8095 3.39414 4.77697 0
M  V30 4741 N 93.7595 2.04615 4.15333 0
M  V30 4742 H 96.5985 3.41248 7.98759 0
M  V30 4743 H 96.8705 2.5837 6.41742 0
M  V30 4744 H 96.0025 5.02657 6.42673 0
M  V30 4745 P 92.0395 6.144 6.45285 0
M  V30 4746 O 91.8195 7.54673 6.86199 0
M  V30 4747 O 91.2495 5.12391 7.179 0
M  V30 4748 O 91.7895 5.99158 4.88404 0
M  V30 4749 C 92.7295 6.60234 3.96415 0
M  V30 4750 C 91.9995 7.08259 2.72856 0
M  V30 4751 O 91.7895 5.9427 1.83651 0
M  V30 4752 C 90.5995 7.64886 2.9555 0
M  V30 4753 O 90.2095 8.53963 1.90717 0
M  V30 4754 C 89.7195 6.4116 2.90739 0
M  V30 4755 C 90.4295 5.55375 1.86963 0
M  V30 4756 N 90.3795 4.09664 2.15742 0
M  V30 4757 H 93.2185 7.45574 4.45629 0
M  V30 4758 H 93.4905 5.86232 3.67314 0
M  V30 4759 H 92.6225 7.84412 2.24479 0
M  V30 4760 P 88.6595 8.7635 1.60911 0
M  V30 4761 O 88.4395 10.1388 1.11561 0
M  V30 4762 O 87.8695 8.36503 2.79617 0
M  V30 4763 O 88.4095 7.71806 0.42951 0
M  V30 4764 C 89.3495 7.66948 -0.673514 0
M  V30 4765 C 88.6195 7.33374 -1.95559 0
M  V30 4766 O 88.4095 5.88721 -2.00726 0
M  V30 4767 C 87.2195 7.92218 -2.1125 0
M  V30 4768 O 86.8295 8.02971 -3.47653 0
M  V30 4769 C 86.3395 6.89504 -1.41631 0
M  V30 4770 C 87.0495 5.59106 -1.75155 0
M  V30 4771 N 86.9995 4.58136 -0.662409 0
M  V30 4772 C 86.8495 3.26059 -1.02863 0
M  V30 4773 O 86.7595 2.90743 -2.19009 0
M  V30 4774 N 86.8095 2.35995 0.0155585 0
M  V30 4775 C 86.8995 2.65248 1.35603 0
M  V30 4776 O 86.8495 1.75605 2.20651 0
M  V30 4777 C 87.0495 4.05747 1.64698 0
M  V30 4778 C 87.1595 4.42345 3.09553 0
M  V30 4779 C 87.0995 4.96734 0.652411 0
M  V30 4780 H 89.8405 8.64917 -0.776982 0
M  V30 4781 H 90.1095 6.89974 -0.474015 0
M  V30 4782 H 89.2425 7.66548 -2.79458 0
M  V30 4783 H 86.5875 5.16076 -2.65138 0
M  V30 4784 H 86.3085 7.06433 -0.329384 0
M  V30 4785 H 85.3165 6.90829 -1.81996 0
M  V30 4786 H 87.1505 8.90774 -1.62639 0
M  V30 4787 H 87.2215 6.02181 0.895285 0
M  V30 4788 H 86.1915 4.80252 3.45468 0
M  V30 4789 H 87.9285 5.20015 3.22119 0
M  V30 4790 H 87.4405 3.53269 3.67833 0
M  V30 4791 H 86.7045 1.39558 -0.227499 0
M  V30 4792 P 85.2795 8.03563 -3.84925 0
M  V30 4793 O 85.0595 8.85821 -5.0569 0
M  V30 4794 O 84.4895 8.41101 -2.65469 0
M  V30 4795 O 85.0295 6.4965 -4.18908 0
M  V30 4796 C 85.9695 5.80886 -5.05289 0
M  V30 4797 C 85.2395 4.78366 -5.89277 0
M  V30 4798 O 85.0295 3.58302 -5.08433 0
M  V30 4799 C 83.8395 5.16748 -6.36559 0
M  V30 4800 O 83.4495 4.45271 -7.53232 0
M  V30 4801 C 82.9595 4.74572 -5.19863 0
M  V30 4802 C 83.6695 3.49373 -4.70338 0
M  V30 4803 N 83.6195 3.31704 -3.22876 0
M  V30 4804 C 83.4695 2.03326 -2.74871 0
M  V30 4805 O 83.3795 1.06486 -3.48076 0
M  V30 4806 N 83.4295 1.91838 -1.37456 0
M  V30 4807 C 83.5195 2.94295 -0.462035 0
M  V30 4808 O 83.4695 2.71763 0.752928 0
M  V30 4809 C 83.6695 4.25064 -1.05249 0
M  V30 4810 C 83.7795 5.39815 -0.095697 0
M  V30 4811 C 83.7195 4.40214 -2.39192 0
M  V30 4812 H 86.4605 6.54063 -5.71245 0
M  V30 4813 H 86.7295 5.30339 -4.43905 0
M  V30 4814 H 85.8625 4.55889 -6.76652 0
M  V30 4815 H 83.2075 2.6167 -5.17842 0
M  V30 4816 H 82.9285 5.52155 -4.41878 0
M  V30 4817 H 81.9365 4.51918 -5.53297 0
M  V30 4818 H 83.7705 6.25055 -6.55162 0
M  V30 4819 H 83.8415 5.39798 -2.81523 0
M  V30 4820 H 82.8115 5.91593 -0.0279582 0
M  V30 4821 H 84.5485 6.10038 -0.450573 0
M  V30 4822 H 84.0605 5.02007 0.89937 0
M  V30 4823 H 83.3245 0.995326 -1.00435 0
M  V30 4824 P 81.8995 4.23843 -7.83734 0
M  V30 4825 O 81.6795 4.19407 -9.29784 0
M  V30 4826 O 81.1095 5.24426 -7.09156 0
M  V30 4827 O 81.6495 2.7935 -7.20758 0
M  V30 4828 C 82.5895 1.7299 -7.50419 0
M  V30 4829 C 81.8595 0.406376 -7.57911 0
M  V30 4830 O 81.6495 -0.0897726 -6.21935 0
M  V30 4831 C 80.4595 0.447224 -8.1878 0
M  V30 4832 O 80.0695 -0.825065 -8.71101 0
M  V30 4833 C 79.5795 0.783801 -6.99623 0
M  V30 4834 C 80.2895 0.0619192 -5.85967 0
M  V30 4835 N 80.2395 0.7859 -4.56281 0
M  V30 4836 H 83.0785 1.93423 -8.4679 0
M  V30 4837 H 83.3505 1.68181 -6.71046 0
M  V30 4838 H 82.4825 -0.289041 -8.15388 0
M  V30 4839 P 78.5196 -1.17771 -8.83182 0
M  V30 4840 O 78.2996 -2.07206 -9.98732 0
M  V30 4841 O 77.7296 0.0743816 -8.81969 0
M  V30 4842 O 78.2696 -1.97652 -7.47304 0
M  V30 4843 C 79.2096 -3.01133 -7.08783 0
M  V30 4844 C 78.4796 -4.12613 -6.37049 0
M  V30 4845 O 78.2696 -3.72827 -4.97879 0
M  V30 4846 C 77.0796 -4.45085 -6.88694 0
M  V30 4847 O 76.6896 -5.7877 -6.5624 0
M  V30 4848 C 76.1996 -3.47817 -6.12078 0
M  V30 4849 C 76.9096 -3.39414 -4.77697 0
M  V30 4850 N 76.8596 -2.04615 -4.15333 0
M  V30 4851 H 79.6986 -3.41248 -7.98759 0
M  V30 4852 H 79.9706 -2.5837 -6.41742 0
M  V30 4853 H 79.1026 -5.02657 -6.42673 0
M  V30 4854 P 75.1396 -6.144 -6.45285 0
M  V30 4855 O 74.9196 -7.54673 -6.86199 0
M  V30 4856 O 74.3496 -5.12391 -7.179 0
M  V30 4857 O 74.8896 -5.99158 -4.88404 0
M  V30 4858 C 75.8296 -6.60234 -3.96415 0
M  V30 4859 C 75.0996 -7.08259 -2.72856 0
M  V30 4860 O 74.8896 -5.9427 -1.83651 0
M  V30 4861 C 73.6996 -7.64886 -2.9555 0
M  V30 4862 O 73.3096 -8.53963 -1.90717 0
M  V30 4863 C 72.8196 -6.4116 -2.90739 0
M  V30 4864 C 73.5296 -5.55375 -1.86963 0
M  V30 4865 N 73.4796 -4.09448 -2.16152 0
M  V30 4866 H 76.3186 -7.45574 -4.45629 0
M  V30 4867 H 76.5906 -5.85864 -3.679 0
M  V30 4868 H 75.7226 -7.84412 -2.24479 0
M  V30 4869 H 73.0676 -5.73457 -0.888562 0
M  V30 4870 H 72.7876 -5.90877 -3.88583 0
M  V30 4871 H 71.7966 -6.6596 -2.58858 0
M  V30 4872 H 73.6306 -8.16339 -3.92049 0
M  V30 4873 P 71.7596 -8.7635 -1.60911 0
M  V30 4874 O 71.5396 -10.1388 -1.11561 0
M  V30 4875 O 70.9696 -8.36503 -2.79617 0
M  V30 4876 O 71.5096 -7.71906 -0.429565 0
M  V30 4877 C 72.4496 -7.67148 0.673689 0
M  V30 4878 C 71.7196 -7.33666 1.94851 0
M  V30 4879 O 71.5096 -5.88816 2.00759 0
M  V30 4880 C 70.3196 -7.92526 2.10483 0
M  V30 4881 O 69.9296 -8.03063 3.47693 0
M  V30 4882 C 69.4396 -6.89602 1.41652 0
M  V30 4883 C 70.1496 -5.59201 1.75185 0
M  V30 4884 N 70.0996 -4.58235 0.662552 0
M  V30 4885 C 69.9496 -3.24451 1.01643 0
M  V30 4886 O 69.8596 -2.94958 2.21722 0
M  V30 4887 N 69.8996 -2.30408 -0.165238 0
M  V30 4888 C 69.9996 -2.66048 -1.25118 0
M  V30 4889 N 69.9496 -1.70787 -2.16813 0
M  V30 4890 C 70.1496 -4.02732 -1.64413 0
M  V30 4891 C 70.1996 -4.9488 -0.63991 0
M  V30 4892 H 72.9396 -8.65017 0.777072 0
M  V30 4893 H 73.2096 -6.90173 0.474152 0
M  V30 4894 H 72.3426 -7.66642 2.79492 0
M  V30 4895 H 69.6876 -5.16254 2.65229 0
M  V30 4896 H 69.4076 -7.06532 0.329431 0
M  V30 4897 H 68.4166 -6.91023 1.82047 0
M  V30 4898 H 70.2506 -8.90873 1.62657 0
M  V30 4899 H 70.3226 -6.00104 -0.892197 0
M  V30 4900 H 70.2206 -4.31733 -2.69229 0
M  V30 4901 H 69.8326 -0.724835 -1.8844 0
M  V30 4902 H 70.0286 -1.94716 -3.16734 0
M  V30 4903 P 68.3796 -8.03563 3.84925 0
M  V30 4904 O 68.1596 -8.85821 5.0569 0
M  V30 4905 O 67.5896 -8.41101 2.65469 0
M  V30 4906 O 68.1296 -6.4965 4.18908 0
M  V30 4907 C 69.0696 -5.80886 5.05289 0
M  V30 4908 C 68.3396 -4.78366 5.89277 0
M  V30 4909 O 68.1296 -3.58302 5.08433 0
M  V30 4910 C 66.9396 -5.16748 6.36559 0
M  V30 4911 O 66.5496 -4.45271 7.53232 0
M  V30 4912 C 66.0596 -4.74572 5.19863 0
M  V30 4913 C 66.7696 -3.49373 4.70338 0
M  V30 4914 N 66.7196 -3.31704 3.22876 0
M  V30 4915 C 66.5696 -2.03326 2.74871 0
M  V30 4916 O 66.4796 -1.06486 3.48076 0
M  V30 4917 N 66.5296 -1.91838 1.37456 0
M  V30 4918 C 66.6196 -2.94295 0.462035 0
M  V30 4919 O 66.5696 -2.71763 -0.752928 0
M  V30 4920 C 66.7696 -4.25064 1.05249 0
M  V30 4921 C 66.8796 -5.39815 0.095697 0
M  V30 4922 C 66.8196 -4.40214 2.39192 0
M  V30 4923 H 69.5606 -6.54063 5.71245 0
M  V30 4924 H 69.8296 -5.30339 4.43905 0
M  V30 4925 H 68.9626 -4.55889 6.76652 0
M  V30 4926 H 66.3076 -2.6167 5.17842 0
M  V30 4927 H 66.0286 -5.52155 4.41878 0
M  V30 4928 H 65.0366 -4.51918 5.53297 0
M  V30 4929 H 66.8706 -6.25055 6.55162 0
M  V30 4930 H 66.9416 -5.39798 2.81523 0
M  V30 4931 H 65.9116 -5.91593 0.0279582 0
M  V30 4932 H 67.6486 -6.10038 0.450573 0
M  V30 4933 H 67.1606 -5.02007 -0.89937 0
M  V30 4934 H 66.4246 -0.995326 1.00435 0
M  V30 4935 P 64.9996 -4.23843 7.83734 0
M  V30 4936 O 64.7796 -4.19407 9.29784 0
M  V30 4937 O 64.2096 -5.24426 7.09156 0
M  V30 4938 O 64.7496 -2.7935 7.20758 0
M  V30 4939 C 65.6896 -1.7299 7.50419 0
M  V30 4940 C 64.9596 -0.406376 7.57911 0
M  V30 4941 O 64.7496 0.0897726 6.21935 0
M  V30 4942 C 63.5596 -0.447224 8.1878 0
M  V30 4943 O 63.1696 0.825065 8.71101 0
M  V30 4944 C 62.6796 -0.783801 6.99623 0
M  V30 4945 C 63.3896 -0.0619192 5.85967 0
M  V30 4946 N 63.3396 -0.7859 4.56281 0
M  V30 4947 H 66.1786 -1.93423 8.4679 0
M  V30 4948 H 66.4506 -1.68181 6.71046 0
M  V30 4949 H 65.5826 0.289041 8.15388 0
M  V30 4950 P 61.6197 1.17771 8.83182 0
M  V30 4951 O 61.3997 2.07206 9.98732 0
M  V30 4952 O 60.8297 -0.0743816 8.81969 0
M  V30 4953 O 61.3697 1.97652 7.47304 0
M  V30 4954 C 62.3097 3.01133 7.08783 0
M  V30 4955 C 61.5797 4.12613 6.37049 0
M  V30 4956 O 61.3697 3.72827 4.97879 0
M  V30 4957 C 60.1797 4.45085 6.88694 0
M  V30 4958 O 59.7897 5.7877 6.5624 0
M  V30 4959 C 59.2997 3.47817 6.12078 0
M  V30 4960 C 60.0097 3.39414 4.77697 0
M  V30 4961 N 59.9597 2.04615 4.15333 0
M  V30 4962 H 62.7987 3.41248 7.98759 0
M  V30 4963 H 63.0707 2.5837 6.41742 0
M  V30 4964 H 62.2027 5.02657 6.42673 0
M  V30 4965 P 58.2397 6.144 6.45285 0
M  V30 4966 O 58.0197 7.54673 6.86199 0
M  V30 4967 O 57.4497 5.12391 7.179 0
M  V30 4968 O 57.9897 5.99158 4.88404 0
M  V30 4969 C 58.9297 6.60234 3.96415 0
M  V30 4970 C 58.1997 7.08259 2.72856 0
M  V30 4971 O 57.9897 5.9427 1.83651 0
M  V30 4972 C 56.7997 7.64886 2.9555 0
M  V30 4973 O 56.4097 8.53963 1.90717 0
M  V30 4974 C 55.9197 6.4116 2.90739 0
M  V30 4975 C 56.6297 5.55375 1.86963 0
M  V30 4976 N 56.5797 4.09664 2.15742 0
M  V30 4977 H 59.4187 7.45574 4.45629 0
M  V30 4978 H 59.6907 5.86232 3.67314 0
M  V30 4979 H 58.8227 7.84412 2.24479 0
M  V30 4980 P 54.8597 8.7635 1.60911 0
M  V30 4981 O 54.6397 10.1388 1.11561 0
M  V30 4982 O 54.0697 8.36503 2.79617 0
M  V30 4983 O 54.6097 7.71806 0.42951 0
M  V30 4984 C 55.5497 7.67148 -0.673689 0
M  V30 4985 C 54.8197 7.33374 -1.95559 0
M  V30 4986 O 54.6097 5.88721 -2.00726 0
M  V30 4987 C 53.4197 7.92526 -2.10483 0
M  V30 4988 O 53.0297 8.02971 -3.47653 0
M  V30 4989 C 52.5397 6.89602 -1.41652 0
M  V30 4990 C 53.2497 5.59201 -1.75185 0
M  V30 4991 N 53.1997 4.58235 -0.662552 0
M  V30 4992 H 56.0387 8.65116 -0.777161 0
M  V30 4993 H 56.3107 6.90173 -0.474152 0
M  V30 4994 H 55.4427 7.66548 -2.79458 0
M  V30 4995 P 51.4797 8.03563 -3.84925 0
M  V30 4996 O 51.2597 8.85821 -5.0569 0
M  V30 4997 O 50.6897 8.41101 -2.65469 0
M  V30 4998 O 51.2297 6.4965 -4.18908 0
M  V30 4999 C 52.1697 5.81037 -5.05421 0
M  V30 5000 C 51.4397 4.78366 -5.89277 0
M  V30 5001 O 51.2297 3.58302 -5.08433 0
M  V30 5002 C 50.0397 5.17448 -6.36119 0
M  V30 5003 O 49.6497 4.45271 -7.53232 0
M  V30 5004 C 49.1597 4.74639 -5.19936 0
M  V30 5005 C 49.8697 3.49432 -4.70418 0
M  V30 5006 N 49.8197 3.31776 -3.22945 0
M  V30 5007 H 52.6587 6.54213 -5.71376 0
M  V30 5008 H 52.9307 5.30492 -4.44033 0
M  V30 5009 H 52.0627 4.55889 -6.76652 0
M  V30 5010 P 48.0997 4.23843 -7.83734 0
M  V30 5011 O 47.8797 4.19407 -9.29784 0
M  V30 5012 O 47.3097 5.24426 -7.09156 0
M  V30 5013 O 47.8497 2.7935 -7.20758 0
M  V30 5014 C 48.7897 1.7299 -7.50419 0
M  V30 5015 C 48.0597 0.406376 -7.57911 0
M  V30 5016 O 47.8497 -0.0897726 -6.21935 0
M  V30 5017 C 46.6597 0.447224 -8.1878 0
M  V30 5018 O 46.2697 -0.825065 -8.71101 0
M  V30 5019 C 45.7797 0.783801 -6.99623 0
M  V30 5020 C 46.4897 0.0619192 -5.85967 0
M  V30 5021 N 46.4397 0.7859 -4.56281 0
M  V30 5022 H 49.2787 1.93423 -8.4679 0
M  V30 5023 H 49.5507 1.68181 -6.71046 0
M  V30 5024 H 48.6827 -0.289041 -8.15388 0
M  V30 5025 P 44.7198 -1.17771 -8.83182 0
M  V30 5026 O 44.4998 -2.07206 -9.98732 0
M  V30 5027 O 43.9298 0.0743816 -8.81969 0
M  V30 5028 O 44.4698 -1.97652 -7.47304 0
M  V30 5029 C 45.4098 -3.01133 -7.08783 0
M  V30 5030 C 44.6798 -4.12613 -6.37049 0
M  V30 5031 O 44.4698 -3.72827 -4.97879 0
M  V30 5032 C 43.2798 -4.45085 -6.88694 0
M  V30 5033 O 42.8898 -5.7877 -6.5624 0
M  V30 5034 C 42.3998 -3.47817 -6.12078 0
M  V30 5035 C 43.1098 -3.39414 -4.77697 0
M  V30 5036 N 43.0598 -2.04199 -4.15538 0
M  V30 5037 H 45.8988 -3.41248 -7.98759 0
M  V30 5038 H 46.1708 -2.57728 -6.42 0
M  V30 5039 H 45.3028 -5.02657 -6.42673 0
M  V30 5040 H 42.6478 -4.11708 -4.08956 0
M  V30 5041 H 42.3678 -2.49626 -6.61679 0
M  V30 5042 H 41.3768 -3.8662 -6.00862 0
M  V30 5043 H 43.2108 -4.29991 -7.97006 0
M  V30 5044 P 41.3398 -6.144 -6.45285 0
M  V30 5045 O 41.1198 -7.54673 -6.86199 0
M  V30 5046 O 40.5498 -5.12391 -7.179 0
M  V30 5047 O 41.0898 -5.99158 -4.88404 0
M  V30 5048 C 42.0298 -6.60234 -3.96415 0
M  V30 5049 C 41.2998 -7.08259 -2.72856 0
M  V30 5050 O 41.0898 -5.9427 -1.83651 0
M  V30 5051 C 39.8998 -7.64886 -2.9555 0
M  V30 5052 O 39.5098 -8.53963 -1.90717 0
M  V30 5053 C 39.0198 -6.4116 -2.90739 0
M  V30 5054 C 39.7298 -5.55375 -1.86963 0
M  V30 5055 N 39.6798 -4.09664 -2.15742 0
M  V30 5056 H 42.5188 -7.45574 -4.45629 0
M  V30 5057 H 42.7908 -5.86232 -3.67314 0
M  V30 5058 H 41.9228 -7.84412 -2.24479 0
M  V30 5059 P 37.9598 -8.7635 -1.60911 0
M  V30 5060 O 37.7398 -10.1388 -1.11561 0
M  V30 5061 O 37.1698 -8.36503 -2.79617 0
M  V30 5062 O 37.7098 -7.71806 -0.42951 0
M  V30 5063 C 38.6498 -7.66948 0.673514 0
M  V30 5064 C 37.9198 -7.33374 1.95559 0
M  V30 5065 O 37.7098 -5.88721 2.00726 0
M  V30 5066 C 36.5198 -7.92218 2.1125 0
M  V30 5067 O 36.1298 -8.02971 3.47653 0
M  V30 5068 C 35.6398 -6.89504 1.41631 0
M  V30 5069 C 36.3498 -5.59106 1.75155 0
M  V30 5070 N 36.2998 -4.58136 0.662409 0
M  V30 5071 C 36.1498 -3.26059 1.02863 0
M  V30 5072 O 36.0598 -2.90743 2.19009 0
M  V30 5073 N 36.1098 -2.35995 -0.0155585 0
M  V30 5074 C 36.1998 -2.65248 -1.35603 0
M  V30 5075 O 36.1498 -1.75605 -2.20651 0
M  V30 5076 C 36.3498 -4.05747 -1.64698 0
M  V30 5077 C 36.4598 -4.42345 -3.09553 0
M  V30 5078 C 36.3998 -4.96734 -0.652411 0
M  V30 5079 H 39.1408 -8.64917 0.776982 0
M  V30 5080 H 39.4098 -6.89974 0.474015 0
M  V30 5081 H 38.5428 -7.66548 2.79458 0
M  V30 5082 H 35.8878 -5.16076 2.65138 0
M  V30 5083 H 35.6088 -7.06433 0.329384 0
M  V30 5084 H 34.6168 -6.90829 1.81996 0
M  V30 5085 H 36.4508 -8.90774 1.62639 0
M  V30 5086 H 36.5218 -6.02181 -0.895285 0
M  V30 5087 H 35.4918 -4.80252 -3.45468 0
M  V30 5088 H 37.2288 -5.20015 -3.22119 0
M  V30 5089 H 36.7408 -3.53269 -3.67833 0
M  V30 5090 H 36.0048 -1.39558 0.227499 0
M  V30 5091 P 34.5798 -8.03563 3.84925 0
M  V30 5092 O 34.3598 -8.85821 5.0569 0
M  V30 5093 O 33.7898 -8.41101 2.65469 0
M  V30 5094 O 34.3298 -6.4965 4.18908 0
M  V30 5095 C 35.2698 -5.81037 5.05421 0
M  V30 5096 C 34.5398 -4.78366 5.89277 0
M  V30 5097 O 34.3298 -3.58302 5.08433 0
M  V30 5098 C 33.1398 -5.17448 6.36119 0
M  V30 5099 O 32.7498 -4.45271 7.53232 0
M  V30 5100 C 32.2598 -4.74639 5.19936 0
M  V30 5101 C 32.9698 -3.49432 4.70418 0
M  V30 5102 N 32.9198 -3.31776 3.22945 0
M  V30 5103 H 35.7588 -6.54213 5.71376 0
M  V30 5104 H 36.0308 -5.30492 4.44033 0
M  V30 5105 H 35.1628 -4.55889 6.76652 0
M  V30 5106 P 31.1998 -4.23843 7.83734 0
M  V30 5107 O 30.9798 -4.19407 9.29784 0
M  V30 5108 O 30.4098 -5.24426 7.09156 0
M  V30 5109 O 30.9498 -2.7935 7.20758 0
M  V30 5110 C 31.8898 -1.7299 7.50419 0
M  V30 5111 C 31.1598 -0.406376 7.57911 0
M  V30 5112 O 30.9498 0.0897726 6.21935 0
M  V30 5113 C 29.7598 -0.447224 8.1878 0
M  V30 5114 O 29.3698 0.825065 8.71101 0
M  V30 5115 C 28.8798 -0.783801 6.99623 0
M  V30 5116 C 29.5898 -0.0619192 5.85967 0
M  V30 5117 N 29.5398 -0.7859 4.56281 0
M  V30 5118 H 32.3788 -1.93423 8.4679 0
M  V30 5119 H 32.6508 -1.68181 6.71046 0
M  V30 5120 H 31.7828 0.289041 8.15388 0
M  V30 5121 P 27.8199 1.17771 8.83182 0
M  V30 5122 O 27.5999 2.07206 9.98732 0
M  V30 5123 O 27.0299 -0.0743816 8.81969 0
M  V30 5124 O 27.5699 1.97652 7.47304 0
M  V30 5125 C 28.5099 3.01133 7.08783 0
M  V30 5126 C 27.7799 4.12613 6.37049 0
M  V30 5127 O 27.5699 3.72827 4.97879 0
M  V30 5128 C 26.3799 4.45085 6.88694 0
M  V30 5129 O 25.9899 5.7877 6.5624 0
M  V30 5130 C 25.4999 3.47817 6.12078 0
M  V30 5131 C 26.2099 3.39414 4.77697 0
M  V30 5132 N 26.1599 2.04615 4.15333 0
M  V30 5133 H 28.9989 3.41248 7.98759 0
M  V30 5134 H 29.2709 2.5837 6.41742 0
M  V30 5135 H 28.4029 5.02657 6.42673 0
M  V30 5136 P 24.4399 6.144 6.45285 0
M  V30 5137 O 24.2199 7.54673 6.86199 0
M  V30 5138 O 23.6499 5.12391 7.179 0
M  V30 5139 O 24.1899 5.99158 4.88404 0
M  V30 5140 C 25.1299 6.60234 3.96415 0
M  V30 5141 C 24.3999 7.08259 2.72856 0
M  V30 5142 O 24.1899 5.9427 1.83651 0
M  V30 5143 C 22.9999 7.64886 2.9555 0
M  V30 5144 O 22.6099 8.53963 1.90717 0
M  V30 5145 C 22.1199 6.4116 2.90739 0
M  V30 5146 C 22.8299 5.55375 1.86963 0
M  V30 5147 N 22.7799 4.09448 2.16152 0
M  V30 5148 H 25.6189 7.45574 4.45629 0
M  V30 5149 H 25.8909 5.85864 3.679 0
M  V30 5150 H 25.0229 7.84412 2.24479 0
M  V30 5151 H 22.3679 5.73457 0.888562 0
M  V30 5152 H 22.0879 5.90877 3.88583 0
M  V30 5153 H 21.0969 6.6596 2.58858 0
M  V30 5154 H 22.9309 8.16339 3.92049 0
M  V30 5155 P 21.0599 8.7635 1.60911 0
M  V30 5156 O 20.8399 10.1388 1.11561 0
M  V30 5157 O 20.2699 8.36503 2.79617 0
M  V30 5158 O 20.8099 7.71806 0.42951 0
M  V30 5159 C 21.7499 7.67148 -0.673689 0
M  V30 5160 C 21.0199 7.33374 -1.95559 0
M  V30 5161 O 20.8099 5.88721 -2.00726 0
M  V30 5162 C 19.6199 7.92526 -2.10483 0
M  V30 5163 O 19.2299 8.02971 -3.47653 0
M  V30 5164 C 18.7399 6.89602 -1.41652 0
M  V30 5165 C 19.4499 5.59201 -1.75185 0
M  V30 5166 N 19.3999 4.58235 -0.662552 0
M  V30 5167 H 22.2389 8.65116 -0.777161 0
M  V30 5168 H 22.5109 6.90173 -0.474152 0
M  V30 5169 H 21.6429 7.66548 -2.79458 0
M  V30 5170 P 17.6799 8.03563 -3.84925 0
M  V30 5171 O 17.4599 8.85821 -5.0569 0
M  V30 5172 O 16.8899 8.41101 -2.65469 0
M  V30 5173 O 17.4299 6.4965 -4.18908 0
M  V30 5174 C 18.3699 5.81037 -5.05421 0
M  V30 5175 C 17.6399 4.78366 -5.89277 0
M  V30 5176 O 17.4299 3.58302 -5.08433 0
M  V30 5177 C 16.2399 5.17448 -6.36119 0
M  V30 5178 O 15.8499 4.45271 -7.53232 0
M  V30 5179 C 15.3599 4.74639 -5.19936 0
M  V30 5180 C 16.0699 3.49432 -4.70418 0
M  V30 5181 N 16.0199 3.32099 -3.22613 0
M  V30 5182 H 18.8589 6.54213 -5.71376 0
M  V30 5183 H 19.1309 5.30936 -4.43503 0
M  V30 5184 H 18.2629 4.55889 -6.76652 0
M  V30 5185 H 15.6079 2.61715 -5.17932 0
M  V30 5186 H 15.3279 5.52155 -4.41878 0
M  V30 5187 H 14.3369 4.51981 -5.53374 0
M  V30 5188 H 16.1709 6.25124 -6.55234 0
M  V30 5189 P 14.2999 4.23843 -7.83734 0
M  V30 5190 O 14.0799 4.19407 -9.29784 0
M  V30 5191 O 13.5099 5.24426 -7.09156 0
M  V30 5192 O 14.0499 2.7935 -7.20758 0
M  V30 5193 C 14.9899 1.7299 -7.50419 0
M  V30 5194 C 14.2599 0.406376 -7.57911 0
M  V30 5195 O 14.0499 -0.0897726 -6.21935 0
M  V30 5196 C 12.8599 0.447224 -8.1878 0
M  V30 5197 O 12.4699 -0.825065 -8.71101 0
M  V30 5198 C 11.9799 0.783801 -6.99623 0
M  V30 5199 C 12.6899 0.0619192 -5.85967 0
M  V30 5200 N 12.6399 0.7859 -4.56281 0
M  V30 5201 H 15.4789 1.93423 -8.4679 0
M  V30 5202 H 15.7509 1.68181 -6.71046 0
M  V30 5203 H 14.8829 -0.289041 -8.15388 0
M  V30 5204 P 10.92 -1.17771 -8.83182 0
M  V30 5205 O 10.7 -2.07206 -9.98732 0
M  V30 5206 O 10.13 0.0743816 -8.81969 0
M  V30 5207 O 10.67 -1.97652 -7.47304 0
M  V30 5208 C 11.61 -3.01133 -7.08783 0
M  V30 5209 C 10.88 -4.12613 -6.37049 0
M  V30 5210 O 10.67 -3.72827 -4.97879 0
M  V30 5211 C 9.47996 -4.45085 -6.88694 0
M  V30 5212 O 9.08996 -5.7877 -6.5624 0
M  V30 5213 C 8.59996 -3.47817 -6.12078 0
M  V30 5214 C 9.30996 -3.39414 -4.77697 0
M  V30 5215 N 9.25996 -2.04615 -4.15333 0
M  V30 5216 H 12.099 -3.41248 -7.98759 0
M  V30 5217 H 12.371 -2.5837 -6.41742 0
M  V30 5218 H 11.503 -5.02657 -6.42673 0
M  V30 5219 P 7.53998 -6.144 -6.45285 0
M  V30 5220 O 7.31998 -7.54673 -6.86199 0
M  V30 5221 O 6.74998 -5.12391 -7.179 0
M  V30 5222 O 7.28998 -5.99236 -4.88467 0
M  V30 5223 C 8.22998 -6.60234 -3.96415 0
M  V30 5224 C 7.49998 -7.08079 -2.736 0
M  V30 5225 O 7.28998 -5.94365 -1.8368 0
M  V30 5226 C 6.09998 -7.64886 -2.9555 0
M  V30 5227 O 5.70998 -8.5406 -1.90739 0
M  V30 5228 C 5.21998 -6.4116 -2.90739 0
M  V30 5229 C 5.92998 -5.55375 -1.86963 0
M  V30 5230 N 5.87998 -4.09664 -2.15742 0
M  V30 5231 C 5.72998 -3.22231 -1.08477 0
M  V30 5232 O 5.63998 -3.68951 0.0600489 0
M  V30 5233 N 5.67998 -1.76692 -1.48799 0
M  V30 5234 C 5.77998 -1.41695 -2.57602 0
M  V30 5235 N 5.72998 -0.107296 -2.75791 0
M  V30 5236 C 5.92998 -2.29178 -3.69733 0
M  V30 5237 C 5.97998 -3.62753 -3.42653 0
M  V30 5238 H 8.71998 -7.45488 -4.45578 0
M  V30 5239 H 8.98998 -5.86232 -3.67314 0
M  V30 5240 H 8.12298 -7.84508 -2.24507 0
M  V30 5241 H 5.46798 -5.73556 -0.888715 0
M  V30 5242 H 5.18798 -5.9096 -3.88638 0
M  V30 5243 H 4.19698 -6.66053 -2.58894 0
M  V30 5244 H 6.03098 -8.16339 -3.92049 0
M  V30 5245 H 6.10298 -4.33052 -4.24913 0
M  V30 5246 H 6.00098 -1.9103 -4.71577 0
M  V30 5247 H 5.61298 0.521221 -1.95056 0
M  V30 5248 H 5.80898 0.286429 -3.70695 0
M  V30 5249 P 4.16 -8.7635 -1.60911 0
M  V30 5250 O 3.94 -10.1388 -1.11561 0
M  V30 5251 O 3.37 -8.36503 -2.79617 0
M  V30 5252 O 3.91 -7.71806 -0.42951 0
M  V30 5253 C 4.85 -7.67148 0.673689 0
M  V30 5254 C 4.12 -7.33374 1.95559 0
M  V30 5255 O 3.91 -5.88721 2.00726 0
M  V30 5256 C 2.72 -7.92526 2.10483 0
M  V30 5257 O 2.33 -8.02971 3.47653 0
M  V30 5258 C 1.84 -6.89602 1.41652 0
M  V30 5259 C 2.55 -5.59201 1.75185 0
M  V30 5260 N 2.5 -4.58235 0.662552 0
M  V30 5261 H 5.339 -8.65116 0.777161 0
M  V30 5262 H 5.611 -6.90173 0.474152 0
M  V30 5263 H 4.743 -7.66548 2.79458 0
M  V30 5264 H 1.613 -8.66322 3.55694 0
M  V30 END ATOM
M  V30 BEGIN BOND
M  V30 END BOND
M  V30 END CTAB
M  END
$$$$
