drugbank_target|P06858 Lipoprotein lipase (DB06439; DB09568; DB13751)
 OpenBabel12092119273D

  0  0  0     0  0            999 V3000
M  V30 BEGIN CTAB
M  V30 COUNTS 7449 7540 0 0 0
M  V30 BEGIN ATOM
M  V30 1 H -0.908 1.98254 -0.117106 0
M  V30 2 N 0 1.576 0 0
M  V30 3 C 0.933 2.03868 1.02534 0
M  V30 4 C 1.911 0.928543 1.3348 0
M  V30 5 O 3.095 1.19667 1.45644 0
M  V30 6 C 0.222 2.43627 2.35294 0
M  V30 7 C -0.732 3.65373 2.2001 0
M  V30 8 S 0.101 5.13292 1.52614 0
M  V30 9 C 1.257 5.56322 2.86805 0
M  V30 10 H 1.49 2.90518 0.631377 0
M  V30 11 H -0.977 1.52953 0.210867 0
M  V30 12 H 0.981 2.67203 3.11629 0
M  V30 13 H -0.358 1.57376 2.7183 0
M  V30 14 H -1.165 3.90944 3.18086 0
M  V30 15 H -1.563 3.418 1.51819 0
M  V30 16 H 0.729 5.58782 3.83104 0
M  V30 17 H 1.672 6.56266 2.65933 0
M  V30 18 H 2.08 4.83886 2.90714 0
M  V30 19 N 1.4781 -0.272755 1.55222 0
M  V30 20 C 2.3881 -1.35918 1.91216 0
M  V30 21 C 3.4041 -1.54026 0.809436 0
M  V30 22 O 4.5801 -1.68148 1.10852 0
M  V30 23 C 1.6451 -2.69834 2.17693 0
M  V30 24 C 0.7061 -2.6047 3.41253 0
M  V30 25 C -0.0609 -3.88 3.66458 0
M  V30 26 O 0.1621 -4.88693 2.94169 0
M  V30 27 O -0.9039 -3.88189 4.59992 0
M  V30 28 H 2.9221 -1.0839 2.83699 0
M  V30 29 H 0.5071 -0.471301 1.41771 0
M  V30 30 H 2.3891 -3.49017 2.36147 0
M  V30 31 H 1.0641 -2.97148 1.28392 0
M  V30 32 H -0.0289 -1.79663 3.28134 0
M  V30 33 H 1.3041 -2.38106 4.30774 0
M  V30 34 N 2.9562 -1.48159 -0.537278 0
M  V30 35 C 4.1812 -1.59707 -1.32319 0
M  V30 36 C 4.6062 -0.254859 -1.86365 0
M  V30 37 O 3.9642 0.772378 -1.64024 0
M  V30 38 C 4.0122 -2.6412 -2.45505 0
M  V30 39 O 3.1162 -2.20774 -3.48328 0
M  V30 40 H 2.4572 -0.535791 -0.392204 0
M  V30 41 H 4.9872 -1.94092 -0.647268 0
M  V30 42 H 4.9972 -2.85166 -2.91795 0
M  V30 43 H 3.6722 -3.61567 -2.05528 0
M  V30 44 H 2.2492 -2.09911 -3.08207 0
M  V30 45 N 4.4343 0.785586 -1.36625 0
M  V30 46 C 5.3813 1.89838 -1.31264 0
M  V30 47 C 6.3513 1.65115 -0.180633 0
M  V30 48 O 7.5363 1.87222 -0.36777 0
M  V30 49 C 4.6763 3.26706 -1.11163 0
M  V30 50 C 3.7893 3.63476 -2.33472 0
M  V30 51 C 2.9243 4.89481 -2.06353 0
M  V30 52 C 1.9633 5.18941 -3.24602 0
M  V30 53 N 1.1003 6.36131 -2.97123 0
M  V30 54 H 5.9403 1.93756 -2.26413 0
M  V30 55 H 3.4773 0.947454 -1.12524 0
M  V30 56 H 5.4353 4.05639 -0.975337 0
M  V30 57 H 4.0653 3.222 -0.196674 0
M  V30 58 H 3.1173 2.79636 -2.57891 0
M  V30 59 H 4.4293 3.81193 -3.21704 0
M  V30 60 H 3.5833 5.76288 -1.89675 0
M  V30 61 H 2.3223 4.73841 -1.15437 0
M  V30 62 H 1.3273 4.30615 -3.41834 0
M  V30 63 H 2.5523 5.36498 -4.16349 0
M  V30 64 H 0.4983 6.21875 -2.08823 0
M  V30 65 H 0.4153 6.54198 -3.78894 0
M  V30 66 H 1.6833 7.2591 -2.84033 0
M  V30 67 N 5.9124 1.20967 1.01018 0
M  V30 68 C 6.8754 0.965918 2.07853 0
M  V30 69 C 7.8754 -0.0610545 1.60684 0
M  V30 70 O 9.0654 0.175681 1.73312 0
M  V30 71 C 6.1974 0.455513 3.37843 0
M  V30 72 H 7.3904 1.91365 2.3091 0
M  V30 73 H 4.9434 1.02594 1.17916 0
M  V30 74 H 5.6784 -0.497381 3.20463 0
M  V30 75 H 5.4634 1.19622 3.73407 0
M  V30 76 H 6.9534 0.304667 4.16487 0
M  V30 77 N 7.3905 -1.2043 1.01659 0
M  V30 78 C 8.3205 -2.25466 0.607226 0
M  V30 79 C 9.3015 -1.65853 -0.377716 0
M  V30 80 O 10.4865 -1.92409 -0.263149 0
M  V30 81 C 7.6165 -3.47256 -0.0552949 0
M  V30 82 C 6.5705 -4.19462 0.850632 0
M  V30 83 C 5.8965 -5.34673 0.0538859 0
M  V30 84 C 7.1965 -4.75603 2.15868 0
M  V30 85 H 8.8905 -2.59962 1.48526 0
M  V30 86 H 6.4365 -1.2496 0.715605 0
M  V30 87 H 8.3895 -4.19917 -0.353233 0
M  V30 88 H 7.1135 -3.11924 -0.968045 0
M  V30 89 H 5.7725 -3.48667 1.13257 0
M  V30 90 H 5.4205 -4.95585 -0.860514 0
M  V30 91 H 5.1205 -5.83913 0.657192 0
M  V30 92 H 6.6445 -6.10138 -0.237598 0
M  V30 93 H 8.0585 -5.40083 1.92311 0
M  V30 94 H 6.4555 -5.3528 2.71284 0
M  V30 95 H 7.5255 -3.94346 2.82169 0
M  V30 96 N 8.8686 -0.792821 -1.36206 0
M  V30 97 C 9.7986 -0.207853 -2.32573 0
M  V30 98 C 10.7796 0.659055 -1.56813 0
M  V30 99 O 11.9646 0.592176 -1.84951 0
M  V30 100 C 9.0946 0.655449 -3.41059 0
M  V30 101 C 8.0486 -0.111842 -4.27854 0
M  V30 102 C 7.3746 0.872274 -5.27537 0
M  V30 103 C 8.6746 -1.30299 -5.05786 0
M  V30 104 H 10.3686 -1.01294 -2.81744 0
M  V30 105 H 7.9146 -0.48854 -1.3546 0
M  V30 106 H 9.8676 1.07464 -4.07467 0
M  V30 107 H 8.5916 1.49328 -2.90463 0
M  V30 108 H 7.2506 -0.512053 -3.63006 0
M  V30 109 H 6.8986 1.70523 -4.73214 0
M  V30 110 H 6.5986 0.363291 -5.86476 0
M  V30 111 H 8.1226 1.28996 -5.96818 0
M  V30 112 H 9.5366 -0.959379 -5.65216 0
M  V30 113 H 7.9336 -1.7455 -5.74154 0
M  V30 114 H 9.0036 -2.09663 -4.37229 0
M  V30 115 N 10.3467 1.47872 -0.545128 0
M  V30 116 C 11.5927 2.02793 -0.0166104 0
M  V30 117 C 11.9257 1.41987 1.32489 0
M  V30 118 O 11.2007 0.571045 1.85928 0
M  V30 119 C 11.4837 3.59989 0.0893294 0
M  V30 120 C 11.3367 4.3125 -1.27841 0
M  V30 121 C 12.6557 4.32606 0.808724 0
M  V30 122 H 9.7747 0.736962 -0.00751035 0
M  V30 123 H 12.4167 1.76433 -0.705085 0
M  V30 124 H 10.5667 3.82579 0.675681 0
M  V30 125 H 12.2387 4.20035 -1.90704 0
M  V30 126 H 10.4817 3.92076 -1.85632 0
M  V30 127 H 11.1527 5.39736 -1.15713 0
M  V30 128 H 13.6287 4.14936 0.310992 0
M  V30 129 H 12.5047 5.42251 0.851782 0
M  V30 130 H 12.7657 4.00963 1.86229 0
M  V30 131 N 11.8248 0.280983 1.55075 0
M  V30 132 C 12.7548 -0.597469 2.25727 0
M  V30 133 C 13.7358 -1.15417 1.24952 0
M  V30 134 O 14.9208 -1.18722 1.53684 0
M  V30 135 C 12.0508 -1.7789 2.98283 0
M  V30 136 C 11.0048 -1.35347 4.06036 0
M  V30 137 C 10.3308 -2.61846 4.66198 0
M  V30 138 C 11.6308 -0.499354 5.19907 0
M  V30 139 H 13.3248 -0.00824265 2.99399 0
M  V30 140 H 10.8708 -0.0025244 1.44 0
M  V30 141 H 12.8238 -2.39937 3.46422 0
M  V30 142 H 11.5478 -2.39405 2.22155 0
M  V30 143 H 10.2068 -0.756156 3.58717 0
M  V30 144 H 9.8548 -3.21632 3.86732 0
M  V30 145 H 9.5548 -2.3409 5.38958 0
M  V30 146 H 11.0788 -3.24732 5.1709 0
M  V30 147 H 12.4928 -1.02498 5.64063 0
M  V30 148 H 10.8898 -0.316424 5.99265 0
M  V30 149 H 11.9598 0.480459 4.82514 0
M  V30 150 N 13.3029 -1.57598 0.00835791 0
M  V30 151 C 14.5309 -1.95214 -0.68549 0
M  V30 152 C 14.9459 -0.883706 -1.66841 0
M  V30 153 O 14.3029 0.136565 -1.81988 0
M  V30 154 C 14.3539 -3.32865 -1.41007 0
M  V30 155 O 14.0749 -4.35609 -0.466552 0
M  V30 156 C 15.5759 -3.84991 -2.19765 0
M  V30 157 H 12.7959 -0.643422 -0.190392 0
M  V30 158 H 15.3399 -2.04406 0.0619607 0
M  V30 159 H 13.4949 -3.24956 -2.10908 0
M  V30 160 H 13.9089 -5.15288 -0.978699 0
M  V30 161 H 15.3829 -4.8371 -2.65948 0
M  V30 162 H 15.8599 -3.18137 -3.02796 0
M  V30 163 H 16.4659 -3.96103 -1.54864 0
M  V30 164 N 14.781 0.264519 -1.55364 0
M  V30 165 C 15.711 1.33121 -1.91836 0
M  V30 166 C 16.692 1.51101 -0.781192 0
M  V30 167 O 17.877 1.64003 -1.04003 0
M  V30 168 C 15.007 2.68921 -2.19769 0
M  V30 169 C 13.961 2.65661 -3.35571 0
M  V30 170 C 13.287 4.05093 -3.49004 0
M  V30 171 C 14.587 2.24187 -4.71739 0
M  V30 172 H 16.281 1.02844 -2.81182 0
M  V30 173 H 13.827 0.493286 -1.35287 0
M  V30 174 H 15.78 3.43663 -2.43872 0
M  V30 175 H 14.504 3.00799 -1.27231 0
M  V30 176 H 13.163 1.93377 -3.1145 0
M  V30 177 H 12.811 4.34206 -2.53917 0
M  V30 178 H 12.511 4.03804 -4.26868 0
M  V30 179 H 14.035 4.81561 -3.75408 0
M  V30 180 H 15.449 2.88654 -4.9533 0
M  V30 181 H 13.846 2.34044 -5.52579 0
M  V30 182 H 14.916 1.19327 -4.69988 0
M  V30 183 N 16.2591 1.48442 0.529413 0
M  V30 184 C 17.2221 1.62524 1.61612 0
M  V30 185 C 18.2221 0.498509 1.52877 0
M  V30 186 O 19.4121 0.76431 1.56537 0
M  V30 187 C 16.5441 1.59597 3.01233 0
M  V30 188 H 17.7371 2.59423 1.50465 0
M  V30 189 H 15.2901 1.37047 0.751514 0
M  V30 190 H 16.0251 0.641781 3.17886 0
M  V30 191 H 15.8101 2.41397 3.08982 0
M  V30 192 H 17.3001 1.72646 3.80241 0
M  V30 193 N 17.7372 -0.778329 1.37039 0
M  V30 194 C 18.9832 -1.53892 1.32079 0
M  V30 195 C 19.3162 -1.9396 -0.0965386 0
M  V30 196 O 18.5912 -1.63568 -1.05242 0
M  V30 197 C 18.8742 -2.80847 2.25382 0
M  V30 198 C 18.7272 -2.47076 3.75864 0
M  V30 199 C 20.0462 -3.82741 2.1725 0
M  V30 200 H 17.1652 -0.558303 0.48111 0
M  V30 201 H 19.8072 -0.893397 1.67685 0
M  V30 202 H 17.9572 -3.35931 1.95148 0
M  V30 203 H 19.6292 -1.97957 4.16666 0
M  V30 204 H 17.8722 -1.79863 3.94755 0
M  V30 205 H 18.5432 -3.37798 4.36574 0
M  V30 206 H 21.0192 -3.37133 2.43887 0
M  V30 207 H 19.8952 -4.69303 2.84686 0
M  V30 208 H 20.1562 -4.2652 1.16331 0
M  V30 209 N 19.2153 -1.21501 -1.00376 0
M  V30 210 C 20.4613 -1.04457 -1.74529 0
M  V30 211 C 20.8163 0.417386 -1.87818 0
M  V30 212 O 20.1093 1.30556 -1.40234 0
M  V30 213 C 20.3033 -1.67673 -3.15627 0
M  V30 214 C 20.1323 -3.19865 -3.16096 0
M  V30 215 C 18.9023 -3.88915 -3.22604 0
M  V30 216 C 21.1003 -4.16936 -3.01112 0
M  V30 217 N 19.0823 -5.28284 -3.12712 0
M  V30 218 C 20.4533 -5.43066 -2.99131 0
M  V30 219 C 22.5083 -4.07968 -2.85423 0
M  V30 220 C 21.2113 -6.6126 -2.83068 0
M  V30 221 C 23.2373 -5.258 -2.70718 0
M  V30 222 C 22.5993 -6.50842 -2.69414 0
M  V30 223 H 18.6983 -0.436584 -0.648782 0
M  V30 224 H 21.2823 -1.53875 -1.19293 0
M  V30 225 H 19.4533 -1.20822 -3.6913 0
M  V30 226 H 21.1853 -1.43824 -3.78281 0
M  V30 227 H 17.9403 -3.39847 -3.2985 0
M  V30 228 H 18.3643 -6.01284 -3.11105 0
M  V30 229 H 23.0063 -3.1209 -2.85236 0
M  V30 230 H 20.7243 -7.57298 -2.82002 0
M  V30 231 H 24.3103 -5.20683 -2.59577 0
M  V30 232 H 23.1903 -7.40485 -2.5817 0
M  V30 233 N 20.6934 1.19889 -1.02296 0
M  V30 234 C 21.6234 2.25141 -0.619174 0
M  V30 235 C 22.6044 1.66051 0.368915 0
M  V30 236 O 23.7894 1.92546 0.252941 0
M  V30 237 C 20.9194 3.4728 0.0368783 0
M  V30 238 C 19.8734 4.19005 -0.872865 0
M  V30 239 C 19.1994 5.34637 -0.0822402 0
M  V30 240 C 20.4994 4.74452 -2.18387 0
M  V30 241 H 22.1934 2.59171 -1.49903 0
M  V30 242 H 19.7394 1.24579 -0.722222 0
M  V30 243 H 21.6924 4.20098 0.330958 0
M  V30 244 H 20.4164 3.12433 0.95149 0
M  V30 245 H 19.0754 3.48061 -1.15105 0
M  V30 246 H 18.7234 4.96034 0.83422 0
M  V30 247 H 18.4234 5.83557 -0.688149 0
M  V30 248 H 19.9474 6.10255 0.205238 0
M  V30 249 H 21.3614 5.39055 -1.95172 0
M  V30 250 H 19.7584 5.33834 -2.74119 0
M  V30 251 H 20.8284 3.92844 -2.84257 0
M  V30 252 N 22.1715 0.800033 1.35784 0
M  V30 253 C 23.1035 0.163596 2.28615 0
M  V30 254 C 24.1165 -0.633317 1.49976 0
M  V30 255 O 25.3055 -0.466754 1.72289 0
M  V30 256 C 22.4055 -0.790958 3.29541 0
M  V30 257 C 21.5785 -0.0418255 4.3738 0
M  V30 258 C 20.6375 -0.91389 5.18203 0
M  V30 259 O 19.6635 -0.367234 5.68014 0
M  V30 260 N 20.8655 -2.23682 5.35674 0
M  V30 261 H 23.6305 0.96105 2.83873 0
M  V30 262 H 21.1915 0.654894 1.48063 0
M  V30 263 H 23.1835 -1.37844 3.80501 0
M  V30 264 H 21.7535 -1.48925 2.74846 0
M  V30 265 H 20.9735 0.726813 3.87442 0
M  V30 266 H 22.2615 0.474719 5.06581 0
M  V30 267 H 21.6595 -2.70497 4.96838 0
M  V30 268 H 20.2165 -2.77369 5.89839 0
M  V30 269 N 23.6496 -1.47581 0.552962 0
M  V30 270 C 24.8746 -2.07378 0.0300593 0
M  V30 271 C 25.2996 -1.40355 -1.25229 0
M  V30 272 O 24.6576 -0.477099 -1.7491 0
M  V30 273 C 24.7056 -3.60274 -0.153231 0
M  V30 274 O 23.8096 -3.94041 -1.21678 0
M  V30 275 H 23.1506 -0.662158 0.0494182 0
M  V30 276 H 25.6806 -1.89662 0.767434 0
M  V30 277 H 25.6906 -4.0633 -0.368761 0
M  V30 278 H 24.3656 -4.08455 0.783397 0
M  V30 279 H 22.9426 -3.59735 -0.982079 0
M  V30 280 N 25.1277 -0.289203 -1.54924 0
M  V30 281 C 26.0577 0.58549 -2.2604 0
M  V30 282 C 27.0387 1.14753 -1.25562 0
M  V30 283 O 28.2237 1.17906 -1.54311 0
M  V30 284 C 25.3537 1.76305 -2.99222 0
M  V30 285 C 24.3077 1.33191 -4.06748 0
M  V30 286 C 23.6337 2.5937 -4.6758 0
M  V30 287 C 24.9337 0.471775 -5.20165 0
M  V30 288 H 26.6277 -0.00763532 -2.99399 0
M  V30 289 H 24.1737 -0.00511229 -1.43999 0
M  V30 290 H 26.1267 2.38097 -3.47689 0
M  V30 291 H 24.8507 2.38223 -2.23422 0
M  V30 292 H 23.5097 0.737121 -3.59113 0
M  V30 293 H 23.1577 3.19576 -3.88433 0
M  V30 294 H 22.8577 2.31228 -5.40192 0
M  V30 295 H 24.3817 3.21985 -5.18804 0
M  V30 296 H 25.7957 0.995056 -5.64599 0
M  V30 297 H 24.1927 0.284639 -5.99425 0
M  V30 298 H 25.2627 -0.506041 -4.82252 0
M  V30 299 N 26.6058 1.57591 -0.0167156 0
M  V30 300 C 27.8338 1.95575 0.675128 0
M  V30 301 C 28.2488 0.892542 1.6637 0
M  V30 302 O 27.6058 -0.126912 1.82058 0
M  V30 303 C 27.6568 3.33608 1.39239 0
M  V30 304 O 27.3778 4.3585 0.443444 0
M  V30 305 C 28.8788 3.86151 2.17721 0
M  V30 306 H 26.0988 0.644423 0.186978 0
M  V30 307 H 28.6428 2.0437 -0.0728 0
M  V30 308 H 26.7978 3.2607 2.09182 0
M  V30 309 H 27.2118 5.158 0.951358 0
M  V30 310 H 28.6858 4.85114 2.63379 0
M  V30 311 H 29.1628 3.19738 3.01105 0
M  V30 312 H 29.7688 3.96918 1.52761 0
M  V30 313 N 28.0839 -0.256276 1.55502 0
M  V30 314 C 29.0469 -1.30047 1.88734 0
M  V30 315 C 30.0469 -1.4154 0.763086 0
M  V30 316 O 31.2369 -1.40403 1.03115 0
M  V30 317 C 28.3689 -2.67953 2.10747 0
M  V30 318 H 29.5619 -1.01802 2.82093 0
M  V30 319 H 27.1149 -0.495134 1.4825 0
M  V30 320 H 27.8499 -3.01351 1.19825 0
M  V30 321 H 27.6349 -2.60993 2.92617 0
M  V30 322 H 29.1249 -3.43368 2.37673 0
M  V30 323 N 29.562 -1.4872 -0.521534 0
M  V30 324 C 30.787 -1.61101 -1.30618 0
M  V30 325 C 31.212 -0.274611 -1.86085 0
M  V30 326 O 30.57 0.754937 -1.64834 0
M  V30 327 C 30.618 -2.66709 -2.4269 0
M  V30 328 O 29.722 -2.24456 -3.45967 0
M  V30 329 H 29.063 -0.539921 -0.386499 0
M  V30 330 H 31.593 -1.94767 -0.626645 0
M  V30 331 H 31.603 -2.88245 -2.88754 0
M  V30 332 H 30.278 -3.63727 -2.01682 0
M  V30 333 H 28.855 -2.13168 -3.05964 0
M  V30 334 N 31.0401 0.771051 -1.3745 0
M  V30 335 C 32.4561 1.07171 -1.18265 0
M  V30 336 C 32.6561 2.01491 -0.019287 0
M  V30 337 O 31.7121 2.44244 0.640408 0
M  V30 338 C 33.0251 1.66854 -2.50161 0
M  V30 339 C 34.5731 1.79109 -2.56689 0
M  V30 340 C 35.0481 2.42205 -3.88717 0
M  V30 341 N 36.5391 2.49655 -3.90162 0
M  V30 342 C 37.2741 2.9933 -4.8907 0
M  V30 343 N 36.7701 3.49172 -5.98374 0
M  V30 344 N 38.5631 2.9821 -4.76474 0
M  V30 345 H 30.7141 0.144796 -2.11906 0
M  V30 346 H 32.9771 0.126863 -0.939473 0
M  V30 347 H 32.6831 1.05017 -3.35655 0
M  V30 348 H 32.5571 2.6614 -2.673 0
M  V30 349 H 34.9441 2.40077 -1.71601 0
M  V30 350 H 35.0251 0.785757 -2.43433 0
M  V30 351 H 34.6691 1.81875 -4.74219 0
M  V30 352 H 34.5991 3.43345 -3.99276 0
M  V30 353 H 37.0901 2.14383 -3.11205 0
M  V30 354 H 37.4031 3.8548 -6.69795 0
M  V30 355 H 35.7481 3.47275 -6.02018 0
M  V30 356 H 38.9391 2.58572 -3.90203 0
M  V30 357 H 39.1121 3.36613 -5.53711 0
M  V30 358 N 32.5182 1.22032 0.997298 0
M  V30 359 C 33.7662 1.04016 1.73278 0
M  V30 360 C 34.0872 -0.426255 1.90284 0
M  V30 361 O 33.3572 -1.30694 1.45931 0
M  V30 362 H 31.9372 0.381897 0.642 0
M  V30 363 H 34.5992 1.5347 1.20137 0
M  V30 364 H 33.6952 1.51441 2.72896 0
M  V30 365 N 33.9963 -1.19345 1.0293 0
M  V30 366 C 35.2443 -1.88665 0.724574 0
M  V30 367 C 35.5653 -1.80036 -0.749144 0
M  V30 368 O 34.8353 -1.2111 -1.53978 0
M  V30 369 H 33.4153 -0.698406 0.265025 0
M  V30 370 H 36.0773 -1.44885 1.30362 0
M  V30 371 H 35.1733 -2.94987 1.01926 0
M  V30 372 N 35.4744 -0.807222 -1.35358 0
M  V30 373 C 36.7204 -0.388463 -1.99045 0
M  V30 374 C 37.0534 1.04184 -1.63888 0
M  V30 375 O 36.3284 1.72292 -0.902535 0
M  V30 376 C 36.6114 -0.572783 -3.55515 0
M  V30 377 C 36.4644 -2.04807 -4.00468 0
M  V30 378 C 37.7834 0.00114064 -4.401 0
M  V30 379 H 34.9024 -0.142619 -0.723069 0
M  V30 380 H 37.5444 -1.01687 -1.60498 0
M  V30 381 H 35.6944 -0.0378425 -3.88482 0
M  V30 382 H 37.3664 -2.64544 -3.77908 0
M  V30 383 H 35.6094 -2.54427 -3.51353 0
M  V30 384 H 36.2804 -2.12792 -5.09337 0
M  V30 385 H 38.7564 -0.455716 -4.13597 0
M  V30 386 H 37.6324 -0.157737 -5.48673 0
M  V30 387 H 37.8934 1.09488 -4.28328 0
M  V30 388 N 36.9525 1.47285 -0.560781 0
M  V30 389 C 37.9155 2.28535 0.174488 0
M  V30 390 C 38.9155 1.37153 0.839388 0
M  V30 391 O 40.1055 1.59748 0.694702 0
M  V30 392 C 37.2375 3.16934 1.25561 0
M  V30 393 H 38.4305 2.95012 -0.539262 0
M  V30 394 H 35.9835 1.53034 -0.317865 0
M  V30 395 H 36.7185 2.55157 2.00164 0
M  V30 396 H 36.5035 3.8419 0.783604 0
M  V30 397 H 37.9935 3.78143 1.77193 0
M  V30 398 N 38.4306 0.297415 1.54768 0
M  V30 399 C 39.3936 -0.567375 2.22066 0
M  V30 400 C 40.3936 -1.06409 1.20556 0
M  V30 401 O 41.5836 -0.960691 1.45315 0
M  V30 402 C 38.7156 -1.78517 2.90421 0
M  V30 403 H 39.9086 0.0205534 2.99893 0
M  V30 404 H 37.4616 0.0482163 1.56226 0
M  V30 405 H 38.1966 -2.41303 2.16664 0
M  V30 406 H 37.9816 -1.43669 3.64831 0
M  V30 407 H 39.4716 -2.39964 3.41771 0
M  V30 408 N 39.9087 -1.5758 0.0250728 0
M  V30 409 C 40.8717 -2.08896 -0.943139 0
M  V30 410 C 41.8717 -1.00321 -1.25668 0
M  V30 411 O 43.0617 -1.26495 -1.19769 0
M  V30 412 C 40.1937 -2.55143 -2.26086 0
M  V30 413 H 41.3867 -2.95723 -0.498775 0
M  V30 414 H 38.9397 -1.54703 -0.222888 0
M  V30 415 H 39.6747 -1.71633 -2.75159 0
M  V30 416 H 39.4597 -3.34461 -2.04641 0
M  V30 417 H 40.9497 -2.95083 -2.95492 0
M  V30 418 N 41.3868 0.248026 -1.55636 0
M  V30 419 C 42.6638 0.998988 -1.68165 0
M  V30 420 C 43.0438 2.03409 -0.564621 0
M  V30 421 O 42.3918 2.24378 0.432076 0
M  V30 422 C 42.6018 1.63334 -3.0842 0
M  V30 423 C 43.9498 2.13562 -3.66983 0
M  V30 424 O 44.9738 1.73277 -3.11213 0
M  V30 425 O 43.8328 2.87526 -4.64749 0
M  V30 426 H 40.9268 0.464933 -0.683935 0
M  V30 427 H 43.4728 0.241902 -1.67967 0
M  V30 428 H 42.2448 0.884583 -3.8117 0
M  V30 429 H 41.8678 2.45666 -3.12624 0
M  V30 430 N 42.8649 1.48995 0.513639 0
M  V30 431 C 43.7969 1.60836 1.63293 0
M  V30 432 C 44.8099 0.491701 1.55197 0
M  V30 433 O 45.9989 0.763238 1.6136 0
M  V30 434 C 43.0989 1.53731 3.02027 0
M  V30 435 C 42.2719 2.80715 3.35437 0
M  V30 436 C 41.3309 2.66837 4.53525 0
M  V30 437 O 40.3569 3.40753 4.55934 0
M  V30 438 N 41.5589 1.77539 5.52684 0
M  V30 439 H 44.3239 2.57366 1.53566 0
M  V30 440 H 41.8849 1.45925 0.701259 0
M  V30 441 H 43.8769 1.42118 3.78926 0
M  V30 442 H 42.4469 0.651092 3.05744 0
M  V30 443 H 41.6669 3.06772 2.47557 0
M  V30 444 H 42.9549 3.64927 3.54551 0
M  V30 445 H 42.3529 1.16719 5.53528 0
M  V30 446 H 40.9099 1.71856 6.28736 0
M  V30 447 N 44.343 -0.763751 1.37857 0
M  V30 448 C 45.759 -1.06542 1.18832 0
M  V30 449 C 45.959 -2.01478 0.0299722 0
M  V30 450 O 45.015 -2.4458 -0.627447 0
M  V30 451 C 46.328 -1.65525 2.51042 0
M  V30 452 C 47.876 -1.77745 2.57635 0
M  V30 453 C 48.351 -2.4014 3.89996 0
M  V30 454 N 49.842 -2.47582 3.91481 0
M  V30 455 C 50.577 -2.96732 4.9065 0
M  V30 456 N 50.073 -3.45993 6.00217 0
M  V30 457 N 51.866 -2.95679 4.78048 0
M  V30 458 H 44.017 -0.133556 2.1198 0
M  V30 459 H 46.28 -0.121879 0.940133 0
M  V30 460 H 45.986 -1.03236 3.36207 0
M  V30 461 H 45.86 -2.64719 2.68707 0
M  V30 462 H 48.247 -2.39164 1.72872 0
M  V30 463 H 48.328 -0.772836 2.43846 0
M  V30 464 H 47.972 -1.79358 4.75177 0
M  V30 465 H 47.902 -3.41223 4.01092 0
M  V30 466 H 50.393 -2.1273 3.12337 0
M  V30 467 H 50.706 -3.81922 6.7183 0
M  V30 468 H 49.051 -3.44077 6.03851 0
M  V30 469 H 52.242 -2.56499 3.91568 0
M  V30 470 H 52.415 -3.33672 5.55488 0
M  V30 471 N 45.8211 -1.22559 -0.990812 0
M  V30 472 C 47.2371 -0.985996 -1.255 0
M  V30 473 C 47.4371 0.319173 -1.98956 0
M  V30 474 O 46.4931 1.04127 -2.3003 0
M  V30 475 C 47.8061 -2.18607 -2.06474 0
M  V30 476 C 49.3541 -2.22985 -2.19651 0
M  V30 477 C 49.8291 -3.4255 -3.04012 0
M  V30 478 N 51.3201 -3.42725 -3.11599 0
M  V30 479 C 52.0551 -4.31892 -3.7717 0
M  V30 480 N 51.5511 -5.31279 -4.44651 0
M  V30 481 N 53.3441 -4.19662 -3.73952 0
M  V30 482 H 45.4951 -2.06469 -0.49841 0
M  V30 483 H 47.7581 -0.904853 -0.282747 0
M  V30 484 H 47.4641 -3.13267 -1.59865 0
M  V30 485 H 47.3381 -2.18838 -3.07229 0
M  V30 486 H 49.7251 -1.28871 -2.65474 0
M  V30 487 H 49.8061 -2.26791 -1.18319 0
M  V30 488 H 49.4501 -4.36965 -2.58889 0
M  V30 489 H 49.3801 -3.35984 -4.0549 0
M  V30 490 H 51.8711 -2.70807 -2.63575 0
M  V30 491 H 52.1841 -5.95593 -4.92431 0
M  V30 492 H 50.5291 -5.3519 -4.43392 0
M  V30 493 H 53.7201 -3.41268 -3.20396 0
M  V30 494 H 53.8931 -4.89358 -4.24774 0
M  V30 495 N 47.2992 1.18797 -1.03562 0
M  V30 496 C 48.5762 1.84469 -0.650434 0
M  V30 497 C 48.9562 1.92319 0.870433 0
M  V30 498 O 48.3042 1.44528 1.76986 0
M  V30 499 C 48.5142 3.2306 -1.32036 0
M  V30 500 C 49.8622 3.9915 -1.44792 0
M  V30 501 O 50.8862 3.32481 -1.27806 0
M  V30 502 O 49.7452 5.18587 -1.72423 0
M  V30 503 H 46.8392 0.795251 -0.226946 0
M  V30 504 H 49.3852 1.26231 -1.13419 0
M  V30 505 H 48.1572 3.1222 -2.3587 0
M  V30 506 H 47.7802 3.88949 -0.8249 0
M  V30 507 N 48.7773 0.814389 1.34928 0
M  V30 508 C 50.0243 0.398423 1.98542 0
M  V30 509 C 50.3523 -1.03638 1.64589 0
M  V30 510 O 49.6073 -1.73509 0.90516 0
M  V30 511 C 49.9063 0.537781 3.53331 0
M  V30 512 C 49.5723 1.93704 4.07172 0
M  V30 513 C 48.2343 2.31984 4.21589 0
M  V30 514 C 50.5863 2.85213 4.36237 0
M  V30 515 C 47.9143 3.61125 4.62391 0
M  V30 516 C 50.2663 4.13809 4.78482 0
M  V30 517 C 48.9303 4.52077 4.91104 0
M  V30 518 H 48.2003 0.145793 0.726516 0
M  V30 519 H 50.8473 1.03669 1.61012 0
M  V30 520 H 49.1523 -0.183906 3.91368 0
M  V30 521 H 50.8493 0.196588 4.00518 0
M  V30 522 H 47.4393 1.62966 3.96409 0
M  V30 523 H 51.6233 2.56885 4.24645 0
M  V30 524 H 46.8793 3.90612 4.70353 0
M  V30 525 H 51.0533 4.84811 4.99932 0
M  V30 526 H 48.6803 5.52196 5.22478 0
M  V30 527 N 50.2554 -1.46986 0.568584 0
M  V30 528 C 51.5044 -2.01646 0.0465894 0
M  V30 529 C 51.8174 -1.44721 -1.31587 0
M  V30 530 O 53.0234 -1.91113 -1.92842 0
M  V30 531 C 51.4794 -3.59885 0.032752 0
M  V30 532 C 51.0874 -4.25804 1.39266 0
M  V30 533 C 52.8314 -4.22255 -0.436038 0
M  V30 534 C 50.7384 -5.76081 1.33732 0
M  V30 535 H 49.6684 -0.753876 0.013647 0
M  V30 536 H 52.3194 -1.68864 0.718131 0
M  V30 537 H 50.7014 -3.8968 -0.704669 0
M  V30 538 H 51.8754 -4.07637 2.1487 0
M  V30 539 H 50.1904 -3.7547 1.80032 0
M  V30 540 H 52.7874 -5.32394 -0.49602 0
M  V30 541 H 53.1304 -3.90212 -1.45053 0
M  V30 542 H 53.6634 -3.97033 0.246877 0
M  V30 543 H 50.4024 -6.12761 2.32817 0
M  V30 544 H 49.9224 -5.96553 0.623267 0
M  V30 545 H 51.6014 -6.38518 1.0442 0
M  V30 546 N 51.7335 -0.305618 -1.54608 0
M  V30 547 C 53.0105 0.355652 -1.92339 0
M  V30 548 C 53.3905 1.71324 -1.23335 0
M  V30 549 O 52.7385 2.25473 -0.370702 0
M  V30 550 C 52.9485 0.46572 -3.45879 0
M  V30 551 C 54.2965 0.734426 -4.182 0
M  V30 552 O 55.3205 0.54935 -3.51938 0
M  V30 553 O 54.1795 1.09024 -5.35515 0
M  V30 554 H 51.2735 0.199666 -0.802535 0
M  V30 555 H 53.8195 -0.354017 -1.65966 0
M  V30 556 H 52.5915 -0.488461 -3.88239 0
M  V30 557 H 52.2145 1.22367 -3.78301 0
M  V30 558 N 53.2116 1.57565 -0.0334293 0
M  V30 559 C 54.4606 1.91155 0.643639 0
M  V30 560 C 54.7736 0.91192 1.73042 0
M  V30 561 O 55.9796 1.13923 2.46442 0
M  V30 562 C 54.4356 3.39443 1.1961 0
M  V30 563 C 54.0436 4.47774 0.142381 0
M  V30 564 C 55.7876 3.82094 1.84944 0
M  V30 565 C 53.6946 5.87162 0.706727 0
M  V30 566 H 52.6246 0.713368 0.244176 0
M  V30 567 H 55.2756 1.8323 -0.0994323 0
M  V30 568 H 53.6576 3.42313 1.99092 0
M  V30 569 H 54.8316 4.56469 -0.630296 0
M  V30 570 H 53.1466 4.14352 -0.412446 0
M  V30 571 H 55.7436 4.83591 2.2813 0
M  V30 572 H 56.0866 3.17386 2.69392 0
M  V30 573 H 56.6196 3.81665 1.12145 0
M  V30 574 H 53.3586 6.55424 -0.0997178 0
M  V30 575 H 52.8786 5.82064 1.44779 0
M  V30 576 H 54.5576 6.35866 1.19514 0
M  V30 577 N 54.6897 -0.239769 1.55765 0
M  V30 578 C 55.5997 -1.31831 1.94056 0
M  V30 579 C 56.6157 -1.52275 0.841925 0
M  V30 580 O 57.7917 -1.65759 1.14394 0
M  V30 581 C 54.8567 -2.65156 2.23368 0
M  V30 582 C 53.9177 -2.53173 3.46701 0
M  V30 583 C 53.1507 -3.8014 3.74606 0
M  V30 584 O 53.3737 -4.82343 3.04469 0
M  V30 585 O 52.3077 -3.78344 4.68123 0
M  V30 586 H 56.1337 -1.02347 2.85935 0
M  V30 587 H 53.7187 -0.441123 1.42739 0
M  V30 588 H 55.6007 -3.43929 2.43497 0
M  V30 589 H 54.2757 -2.94358 1.34666 0
M  V30 590 H 53.1827 -1.72662 3.31871 0
M  V30 591 H 54.5157 -2.28915 4.35728 0
M  V30 592 N 56.1678 -1.49265 -0.50573 0
M  V30 593 C 57.3928 -1.62478 -1.28902 0
M  V30 594 C 57.8178 -0.294332 -1.85783 0
M  V30 595 O 57.1758 0.737412 -1.65626 0
M  V30 596 C 57.2238 -2.69268 -2.39848 0
M  V30 597 O 56.3278 -2.28113 -3.43567 0
M  V30 598 H 55.6688 -0.54399 -0.380751 0
M  V30 599 H 58.1988 -1.95421 -0.605952 0
M  V30 600 H 58.2088 -2.91291 -2.85681 0
M  V30 601 H 56.8838 -3.65846 -1.97812 0
M  V30 602 H 55.4608 -2.16401 -3.03685 0
M  V30 603 N 57.6459 0.756429 -1.3826 0
M  V30 604 C 58.5929 1.87011 -1.35261 0
M  V30 605 C 59.5629 1.64695 -0.215616 0
M  V30 606 O 60.7479 1.864 -0.407399 0
M  V30 607 C 57.8879 3.24275 -1.18068 0
M  V30 608 C 57.0009 3.58442 -2.41129 0
M  V30 609 C 56.1359 4.84994 -2.16689 0
M  V30 610 C 55.1749 5.11939 -3.35537 0
M  V30 611 N 54.3119 6.29685 -3.10549 0
M  V30 612 H 59.1519 1.8891 -2.30472 0
M  V30 613 H 56.6889 0.923373 -1.14509 0
M  V30 614 H 58.6469 4.03479 -1.06116 0
M  V30 615 H 57.2769 3.21711 -0.264973 0
M  V30 616 H 56.3289 2.74103 -2.63764 0
M  V30 617 H 57.6409 3.74283 -3.29717 0
M  V30 618 H 56.7949 5.72135 -2.01857 0
M  V30 619 H 55.5339 4.71286 -1.25462 0
M  V30 620 H 54.5389 4.23268 -3.50891 0
M  V30 621 H 55.7639 5.27546 -4.27635 0
M  V30 622 H 53.7099 6.17306 -2.21967 0
M  V30 623 H 53.6269 6.46014 -3.92686 0
M  V30 624 H 54.8949 7.19722 -2.99367 0
M  V30 625 N 59.124 1.23083 0.984299 0
M  V30 626 C 60.371 1.06057 1.72505 0
M  V30 627 C 60.699 -0.403105 1.90277 0
M  V30 628 O 59.954 -1.3149 1.44944 0
M  V30 629 C 60.253 1.72673 3.1292 0
M  V30 630 C 59.919 3.22586 3.15038 0
M  V30 631 C 58.581 3.63489 3.15324 0
M  V30 632 C 60.933 4.185 3.10657 0
M  V30 633 C 58.261 4.98772 3.08939 0
M  V30 634 C 60.613 5.53769 3.05814 0
M  V30 635 C 59.277 5.94041 3.04419 0
M  V30 636 H 58.547 0.388091 0.631242 0
M  V30 637 H 61.194 1.52963 1.15215 0
M  V30 638 H 59.499 1.18116 3.73572 0
M  V30 639 H 61.196 1.56982 3.68996 0
M  V30 640 H 57.786 2.90022 3.15571 0
M  V30 641 H 61.97 3.87911 3.09579 0
M  V30 642 H 57.226 5.29193 3.0621 0
M  V30 643 H 61.4 6.27808 3.0138 0
M  V30 644 H 59.027 6.98833 2.99227 0
M  V30 645 N 60.6021 -1.18246 1.0419 0
M  V30 646 C 61.5651 -2.20128 0.638452 0
M  V30 647 C 62.5651 -1.57885 -0.304805 0
M  V30 648 O 63.7551 -1.73967 -0.0900369 0
M  V30 649 C 60.8871 -3.4084 -0.0637751 0
M  V30 650 H 62.0801 -2.57336 1.54007 0
M  V30 651 H 59.6331 -1.32152 0.834598 0
M  V30 652 H 60.3681 -3.09166 -0.979136 0
M  V30 653 H 60.1531 -3.8726 0.614198 0
M  V30 654 H 61.6431 -4.16274 -0.332512 0
M  V30 655 N 62.0802 -0.821533 -1.34494 0
M  V30 656 C 63.0102 -0.257138 -2.3208 0
M  V30 657 C 63.9912 0.625645 -1.58176 0
M  V30 658 O 65.1762 0.552811 -1.86166 0
M  V30 659 C 62.3062 0.582958 -3.42372 0
M  V30 660 C 61.2602 -0.202571 -4.2752 0
M  V30 661 C 60.5862 0.760179 -5.29269 0
M  V30 662 C 61.8862 -1.40998 -5.02908 0
M  V30 663 H 63.5802 -1.07247 -2.79532 0
M  V30 664 H 61.1262 -0.517163 -1.34393 0
M  V30 665 H 63.0792 0.987972 -4.09655 0
M  V30 666 H 61.8032 1.43133 -2.93565 0
M  V30 667 H 60.4622 -0.588936 -3.61838 0
M  V30 668 H 60.1102 1.60447 -4.76724 0
M  V30 669 H 59.8102 0.238809 -5.87115 0
M  V30 670 H 61.3342 1.16308 -5.9942 0
M  V30 671 H 62.7482 -1.07905 -5.63054 0
M  V30 672 H 61.1452 -1.86689 -5.70322 0
M  V30 673 H 62.2152 -2.1889 -4.32684 0
M  V30 674 N 63.5583 1.46682 -0.576371 0
M  V30 675 C 64.9743 1.57822 -0.237562 0
M  V30 676 C 65.1743 1.57237 1.26011 0
M  V30 677 O 64.2303 1.48596 2.04146 0
M  V30 678 C 65.5433 2.87499 -0.881168 0
M  V30 679 C 67.0913 3.01119 -0.85417 0
M  V30 680 C 67.5663 4.33524 -1.4772 0
M  V30 681 N 69.0573 4.40207 -1.44125 0
M  V30 682 C 69.7923 5.4126 -1.89276 0
M  V30 683 N 69.2883 6.49021 -2.42371 0
M  V30 684 N 71.0813 5.32422 -1.80231 0
M  V30 685 H 63.2323 1.45306 -1.54919 0
M  V30 686 H 65.4953 0.692733 -0.647167 0
M  V30 687 H 65.2013 2.9372 -1.93447 0
M  V30 688 H 65.0753 3.75224 -0.385592 0
M  V30 689 H 67.4623 2.94485 0.190491 0
M  V30 690 H 67.5433 2.14887 -1.3877 0
M  V30 691 H 67.1873 4.40916 -2.52103 0
M  V30 692 H 67.1173 5.1852 -0.918947 0
M  V30 693 H 69.6083 3.62931 -1.05307 0
M  V30 694 H 69.9213 7.2233 -2.74698 0
M  V30 695 H 68.2663 6.49858 -2.46393 0
M  V30 696 H 71.4573 4.47137 -1.38514 0
M  V30 697 H 71.6303 6.11034 -2.15735 0
M  V30 698 N 65.0364 0.313813 1.54444 0
M  V30 699 C 66.2644 -0.293918 2.04802 0
M  V30 700 C 66.6794 -1.46537 1.19047 0
M  V30 701 O 66.0364 -1.81182 0.218939 0
M  V30 702 C 66.0874 -0.737806 3.53891 0
M  V30 703 O 65.8084 0.387038 4.36387 0
M  V30 704 C 67.3094 -1.40936 4.203 0
M  V30 705 H 64.5294 -0.0620057 0.668129 0
M  V30 706 H 67.0734 0.457169 1.99324 0
M  V30 707 H 65.2284 -1.43889 3.59687 0
M  V30 708 H 65.6424 0.0391274 5.24485 0
M  V30 709 H 67.1164 -1.67099 5.26101 0
M  V30 710 H 67.5934 -2.35355 3.70816 0
M  V30 711 H 68.1994 -0.751117 4.18615 0
M  V30 712 N 66.5145 -1.57545 0.0417849 0
M  V30 713 C 67.9255 -1.80011 -0.495259 0
M  V30 714 C 68.2765 -0.953199 -1.71489 0
M  V30 715 O 67.4015 -0.167138 -2.15754 0
M  V30 716 C 67.9965 -3.26482 -0.905265 0
M  V30 717 C 66.5555 -3.499 -1.38734 0
M  V30 718 C 65.7025 -2.74979 -0.358056 0
M  V30 719 H 68.6535 -1.56425 0.267736 0
M  V30 720 H 68.6745 -3.36887 -1.76882 0
M  V30 721 H 68.1865 -3.88096 -0.017401 0
M  V30 722 H 66.2875 -2.93553 -2.29471 0
M  V30 723 H 66.4005 -4.58615 -1.38598 0
M  V30 724 H 64.7645 -2.40834 -0.828912 0
M  V30 725 H 65.5475 -3.39315 0.521561 0
M  V30 726 N 67.9926 0.231505 -1.5589 0
M  V30 727 C 68.9026 1.308 -1.94752 0
M  V30 728 C 69.9186 1.51826 -0.849989 0
M  V30 729 O 71.0946 1.6515 -1.15271 0
M  V30 730 C 68.1596 2.63968 -2.24771 0
M  V30 731 C 67.2206 2.51331 -3.48039 0
M  V30 732 C 66.4536 3.78148 -3.76616 0
M  V30 733 O 66.6766 4.80722 -3.07022 0
M  V30 734 O 65.6106 3.75857 -4.70123 0
M  V30 735 H 69.4366 1.0083 -2.86474 0
M  V30 736 H 67.0216 0.433547 -1.42971 0
M  V30 737 H 68.9036 3.42633 -2.45318 0
M  V30 738 H 67.5786 2.9364 -1.36225 0
M  V30 739 H 66.4856 1.709 -3.32782 0
M  V30 740 H 67.8186 2.26601 -4.36936 0
M  V30 741 N 69.4707 1.49531 0.497807 0
M  V30 742 C 70.7477 1.49682 1.25915 0
M  V30 743 C 71.1277 0.226339 2.09883 0
M  V30 744 O 70.4757 -0.791189 2.14365 0
M  V30 745 C 70.6857 2.77755 2.11313 0
M  V30 746 C 72.0337 3.27371 2.70395 0
M  V30 747 O 73.0577 2.78894 2.21578 0
M  V30 748 O 71.9167 4.11808 3.59272 0
M  V30 749 H 69.0107 0.599228 0.56996 0
M  V30 750 H 71.5567 1.61798 0.511816 0
M  V30 751 H 70.3287 3.61713 1.49264 0
M  V30 752 H 69.9517 2.68515 2.93233 0
M  V30 753 N 70.9488 -0.749086 1.3866 0
M  V30 754 C 72.1768 -1.53834 1.38358 0
M  V30 755 C 72.5918 -1.88783 -0.0255219 0
M  V30 756 O 71.9488 -1.53101 -0.993292 0
M  V30 757 C 71.9998 -2.83468 2.2434 0
M  V30 758 O 71.7208 -2.50008 3.5976 0
M  V30 759 C 73.2218 -3.7758 2.32267 0
M  V30 760 H 70.4418 -0.47585 0.473083 0
M  V30 761 H 72.9858 -0.926726 1.82297 0
M  V30 762 H 71.1408 -3.40995 1.83851 0
M  V30 763 H 71.5548 -3.33182 4.05081 0
M  V30 764 H 73.0288 -4.65478 2.96706 0
M  V30 765 H 73.5058 -4.18334 1.33765 0
M  V30 766 H 74.1118 -3.25976 2.73166 0
M  V30 767 N 72.4269 -1.23603 -0.977757 0
M  V30 768 C 73.3899 -1.02069 -2.05218 0
M  V30 769 C 74.3899 0.0184305 -1.60789 0
M  V30 770 O 75.5799 -0.221569 -1.72785 0
M  V30 771 C 72.7119 -0.544926 -3.36517 0
M  V30 772 H 73.9049 -1.9742 -2.25755 0
M  V30 773 H 71.4579 -1.05684 -1.15155 0
M  V30 774 H 72.1929 0.412241 -3.21669 0
M  V30 775 H 71.9779 -1.2948 -3.70105 0
M  V30 776 H 73.4679 -0.414985 -4.15533 0
M  V30 777 N 73.905 1.17692 -1.04816 0
M  V30 778 C 74.815 2.25229 -0.65643 0
M  V30 779 C 75.831 1.71018 0.320761 0
M  V30 780 O 77.007 2.00649 0.173805 0
M  V30 781 C 74.072 3.46684 -0.0332629 0
M  V30 782 C 73.133 4.15997 -1.06042 0
M  V30 783 C 72.366 5.31654 -0.466893 0
M  V30 784 O 72.589 5.65777 0.724758 0
M  V30 785 O 71.523 5.89831 -1.1993 0
M  V30 786 H 75.349 2.61016 -1.55255 0
M  V30 787 H 72.934 1.24919 -0.81949 0
M  V30 788 H 74.816 4.20234 0.313256 0
M  V30 789 H 73.491 3.12703 0.836566 0
M  V30 790 H 72.398 3.44482 -1.45886 0
M  V30 791 H 73.731 4.53996 -1.90127 0
M  V30 792 N 75.3831 0.828654 1.34056 0
M  V30 793 C 76.6601 0.341809 1.9259 0
M  V30 794 C 77.0401 -1.17158 1.75605 0
M  V30 795 O 76.3881 -1.98132 1.13824 0
M  V30 796 C 76.5981 0.777453 3.4023 0
M  V30 797 C 77.9461 0.779579 4.17382 0
M  V30 798 O 78.9701 0.7204 3.48839 0
M  V30 799 O 77.8291 0.857996 5.39723 0
M  V30 800 H 74.9231 0.0946085 0.821571 0
M  V30 801 H 77.4691 0.913827 1.42994 0
M  V30 802 H 76.2411 1.8196 3.46419 0
M  V30 803 H 75.8641 0.181444 3.97186 0
M  V30 804 N 76.8612 -1.46375 0.584142 0
M  V30 805 C 78.0892 -2.06761 0.0759296 0
M  V30 806 C 78.5042 -1.43266 -1.22965 0
M  V30 807 O 77.8612 -0.538458 -1.74376 0
M  V30 808 C 77.9122 -3.61375 -0.0950384 0
M  V30 809 O 77.6332 -4.22495 1.15887 0
M  V30 810 C 79.1342 -4.38693 -0.637434 0
M  V30 811 H 76.3542 -0.668479 0.0581075 0
M  V30 812 H 78.8982 -1.8798 0.805218 0
M  V30 813 H 77.0532 -3.79578 -0.774554 0
M  V30 814 H 77.4672 -5.15385 0.973598 0
M  V30 815 H 78.9412 -5.47464 -0.706237 0
M  V30 816 H 79.4182 -4.06836 -1.65472 0
M  V30 817 H 80.0242 -4.25299 0.00725967 0
M  V30 818 N 78.3393 -0.321999 -1.54275 0
M  V30 819 C 79.5793 0.281657 -2.0245 0
M  V30 820 C 79.9433 1.49468 -1.20513 0
M  V30 821 O 81.1443 2.17109 -1.58484 0
M  V30 822 C 79.4153 0.609014 -3.52173 0
M  V30 823 S 80.9743 1.19255 -4.22284 0
M  V30 824 H 77.7923 0.0852825 -0.705867 0
M  V30 825 H 80.3943 -0.454758 -1.90137 0
M  V30 826 H 79.0983 -0.281982 -4.0943 0
M  V30 827 H 78.6293 1.37567 -3.68563 0
M  V30 828 H 80.6443 2.47944 -4.29812 0
M  V30 829 N 79.8174 1.5752 -0.0501392 0
M  V30 830 C 80.7674 2.07981 0.934231 0
M  V30 831 C 81.7514 0.984745 1.27246 0
M  V30 832 O 82.9434 1.24809 1.25506 0
M  V30 833 C 80.0724 2.62751 2.20945 0
M  V30 834 C 79.1584 3.79225 1.89865 0
M  V30 835 N 79.5494 4.89036 1.29142 0
M  V30 836 C 77.8474 3.88111 2.19741 0
M  V30 837 C 78.5484 5.70084 1.15669 0
M  V30 838 N 77.5244 5.17659 1.65923 0
M  V30 839 H 81.3264 2.90277 0.460053 0
M  V30 840 H 78.8404 1.61665 0.15434 0
M  V30 841 H 80.8374 2.97205 2.9236 0
M  V30 842 H 79.4974 1.81894 2.6897 0
M  V30 843 H 80.5084 5.08854 0.963756 0
M  V30 844 H 77.1854 3.18194 2.70293 0
M  V30 845 H 78.5754 6.68395 0.685356 0
M  V30 846 N 81.2955 -0.223234 1.56011 0
M  V30 847 C 82.2255 -1.27988 1.95298 0
M  V30 848 C 83.2065 -1.48976 0.820979 0
M  V30 849 O 84.3915 -1.61188 1.08315 0
M  V30 850 C 81.5215 -2.63 2.26822 0
M  V30 851 C 80.4755 -2.56671 3.42497 0
M  V30 852 C 79.8015 -3.95697 3.59622 0
M  V30 853 C 81.1015 -2.11601 4.77517 0
M  V30 854 H 82.7955 -0.953525 2.8381 0
M  V30 855 H 80.3415 -0.457244 1.36548 0
M  V30 856 H 82.2945 -3.37077 2.52898 0
M  V30 857 H 81.0185 -2.9732 1.35161 0
M  V30 858 H 79.6775 -1.85051 3.16467 0
M  V30 859 H 79.3255 -4.27322 2.6534 0
M  V30 860 H 79.0255 -3.92345 4.37424 0
M  V30 861 H 80.5495 -4.71438 3.88044 0
M  V30 862 H 81.9635 -2.7542 5.02809 0
M  V30 863 H 80.3605 -2.19311 5.5859 0
M  V30 864 H 81.4305 -1.06824 4.72987 0
M  V30 865 N 82.7736 -1.49793 -0.48987 0
M  V30 866 C 84.0226 -1.59085 -1.23995 0
M  V30 867 C 84.3356 -0.287907 -1.9347 0
M  V30 868 O 85.5416 -0.259506 -2.70257 0
M  V30 869 C 83.9976 -2.80736 -2.252 0
M  V30 870 C 83.6056 -4.17833 -1.61614 0
M  V30 871 C 85.3496 -2.99364 -3.00967 0
M  V30 872 C 83.2566 -5.30693 -2.60996 0
M  V30 873 H 82.1866 -0.592372 -0.466488 0
M  V30 874 H 84.8376 -1.76197 -0.51252 0
M  V30 875 H 83.2196 -2.57142 -3.01154 0
M  V30 876 H 84.3936 -4.51608 -0.915774 0
M  V30 877 H 82.7086 -4.04656 -0.981977 0
M  V30 878 H 85.3056 -3.80851 -3.75308 0
M  V30 879 H 85.6486 -2.10356 -3.59244 0
M  V30 880 H 86.1816 -3.2305 -2.32128 0
M  V30 881 H 82.9206 -6.21796 -2.07485 0
M  V30 882 H 82.4406 -5.01359 -3.2924 0
M  V30 883 H 84.1196 -5.6049 -3.23202 0
M  V30 884 N 84.2517 0.741722 -1.39055 0
M  V30 885 C 85.6627 1.31966 -1.32068 0
M  V30 886 C 86.0137 1.96192 0.0180797 0
M  V30 887 O 85.1387 1.95861 0.920196 0
M  V30 888 C 85.7337 2.39954 -2.39181 0
M  V30 889 C 84.2927 2.93438 -2.35735 0
M  V30 890 C 83.4397 1.66936 -2.21422 0
M  V30 891 H 86.3907 0.539721 -1.4924 0
M  V30 892 H 86.4117 3.20182 -2.05581 0
M  V30 893 H 85.9237 1.9318 -3.36605 0
M  V30 894 H 84.0247 3.4451 -1.41929 0
M  V30 895 H 84.1377 3.4701 -3.30335 0
M  V30 896 H 82.5017 1.91016 -1.68478 0
M  V30 897 H 83.2847 1.22224 -3.20806 0
M  V30 898 N 85.7298 1.2412 0.971189 0
M  V30 899 C 86.9778 1.07668 1.71032 0
M  V30 900 C 87.2988 -0.385797 1.91146 0
M  V30 901 O 86.5688 -1.27569 1.4867 0
M  V30 902 H 85.1488 0.395429 0.633755 0
M  V30 903 H 87.8108 1.55984 1.16855 0
M  V30 904 H 86.9068 1.57195 2.69622 0
M  V30 905 N 87.2079 -1.17134 1.05439 0
M  V30 906 C 88.4539 -1.87733 0.767077 0
M  V30 907 C 88.7869 -1.8098 -0.704253 0
M  V30 908 O 88.0619 -1.21951 -1.5152 0
M  V30 909 C 88.3449 -3.37659 1.25133 0
M  V30 910 C 88.1979 -3.53149 2.78578 0
M  V30 911 C 89.5169 -4.31768 0.852324 0
M  V30 912 H 86.6359 -0.681687 0.280129 0
M  V30 913 H 89.2779 -1.37732 1.30881 0
M  V30 914 H 87.4279 -3.80373 0.790469 0
M  V30 915 H 89.0999 -3.19434 3.32806 0
M  V30 916 H 87.3429 -2.95345 3.17732 0
M  V30 917 H 88.0139 -4.58403 3.07523 0
M  V30 918 H 90.4899 -3.96909 1.24911 0
M  V30 919 H 89.3659 -5.35199 1.21873 0
M  V30 920 H 89.6269 -4.41429 -0.243485 0
M  V30 921 N 88.686 -0.835752 -1.33615 0
M  V30 922 C 89.649 -0.272 -2.2758 0
M  V30 923 C 90.649 0.557487 -1.50827 0
M  V30 924 O 91.839 0.37173 -1.70188 0
M  V30 925 C 88.971 0.617173 -3.35267 0
M  V30 926 H 90.164 -1.10111 -2.78954 0
M  V30 927 H 87.717 -0.608594 -1.43965 0
M  V30 928 H 88.452 1.46884 -2.89129 0
M  V30 929 H 88.237 0.0237066 -3.92093 0
M  V30 930 H 89.727 1.005 -4.05326 0
M  V30 931 N 90.1641 1.46063 -0.591896 0
M  V30 932 C 91.0741 2.34192 0.13831 0
M  V30 933 C 92.0901 1.50305 0.876608 0
M  V30 934 O 93.2661 1.8315 0.837728 0
M  V30 935 C 90.3311 3.27656 1.13326 0
M  V30 936 C 89.3921 4.27445 0.39863 0
M  V30 937 C 88.6251 5.16443 1.34618 0
M  V30 938 O 88.8481 5.08553 2.58321 0
M  V30 939 O 87.7821 5.95843 0.851768 0
M  V30 940 H 91.6081 2.98002 -0.58552 0
M  V30 941 H 89.1931 1.45188 -0.352239 0
M  V30 942 H 91.0751 3.85291 1.70671 0
M  V30 943 H 89.7501 2.6643 1.83839 0
M  V30 944 H 88.6571 3.73471 -0.216895 0
M  V30 945 H 89.9901 4.91482 -0.265709 0
M  V30 946 N 91.6422 0.330177 1.54103 0
M  V30 947 C 92.8672 -0.274893 2.0557 0
M  V30 948 C 93.2922 -1.44487 1.20437 0
M  V30 949 O 92.6502 -1.80021 0.214991 0
M  V30 950 C 92.6982 -0.68079 3.54115 0
M  V30 951 O 91.8022 -1.7824 3.71893 0
M  V30 952 H 91.1432 -0.0483849 0.662235 0
M  V30 953 H 93.6732 0.480508 1.98878 0
M  V30 954 H 93.6832 -0.961635 3.96505 0
M  V30 955 H 92.3582 0.174903 4.15532 0
M  V30 956 H 90.9352 -1.49985 3.41407 0
M  V30 957 N 93.1203 -1.57491 0.0584922 0
M  V30 958 C 94.3663 -1.93264 -0.614558 0
M  V30 959 C 94.6993 -0.937717 -1.7006 0
M  V30 960 O 93.9743 0.0351652 -1.94468 0
M  V30 961 C 94.2573 -3.3938 -1.20386 0
M  V30 962 C 94.1103 -4.49625 -0.125375 0
M  V30 963 C 95.4293 -3.86039 -2.11334 0
M  V30 964 H 92.5483 -0.702791 -0.221933 0
M  V30 965 H 95.1903 -1.8961 0.12175 0
M  V30 966 H 93.3403 -3.42626 -1.83139 0
M  V30 967 H 95.0123 -4.58506 0.506971 0
M  V30 968 H 93.2553 -4.30354 0.545672 0
M  V30 969 H 93.9263 -5.48967 -0.577861 0
M  V30 970 H 96.4023 -3.84716 -1.58534 0
M  V30 971 H 95.2783 -4.88914 -2.49507 0
M  V30 972 H 95.5393 -3.23215 -3.01636 0
M  V30 973 N 94.5984 0.214957 -1.56127 0
M  V30 974 C 95.5614 1.24997 -1.92116 0
M  V30 975 C 96.5614 1.39467 -0.800344 0
M  V30 976 O 97.7514 1.37619 -1.06802 0
M  V30 977 C 94.8834 2.62271 -2.17777 0
M  V30 978 H 96.0764 0.942875 -2.84693 0
M  V30 979 H 93.6294 0.455654 -1.49511 0
M  V30 980 H 94.3644 2.98068 -1.27773 0
M  V30 981 H 94.1494 2.53143 -2.99434 0
M  V30 982 H 95.6394 3.36946 -2.46693 0
M  V30 983 N 96.0765 1.50051 0.48192 0
M  V30 984 C 97.3045 1.64237 1.25832 0
M  V30 985 C 97.7195 0.321336 1.86045 0
M  V30 986 O 97.0765 -0.695478 1.68729 0
M  V30 987 C 97.1275 2.72548 2.37487 0
M  V30 988 O 96.8485 3.99529 1.79745 0
M  V30 989 C 98.3495 2.9761 3.28547 0
M  V30 990 H 95.5695 0.55237 0.380957 0
M  V30 991 H 98.1135 1.96207 0.576467 0
M  V30 992 H 96.2685 2.43303 3.01467 0
M  V30 993 H 96.6825 4.59342 2.5319 0
M  V30 994 H 98.1565 3.77084 4.03127 0
M  V30 995 H 98.6335 2.0826 3.86684 0
M  V30 996 H 99.2395 3.28345 2.70314 0
M  V30 997 N 97.5546 -0.734337 1.39446 0
M  V30 998 C 98.7946 -1.50655 1.38139 0
M  V30 999 C 99.1586 -1.91986 -0.0228701 0
M  V30 1000 O 100.36 -2.68318 -0.160947 0
M  V30 1001 C 98.6306 -2.71251 2.32718 0
M  V30 1002 S 100.19 -3.60892 2.49605 0
M  V30 1003 H 97.0076 -0.515315 0.489869 0
M  V30 1004 H 99.6096 -0.860392 1.75549 0
M  V30 1005 H 98.3136 -2.39027 3.33608 0
M  V30 1006 H 97.8446 -3.40795 1.96526 0
M  V30 1007 H 99.8596 -4.64899 1.73446 0
M  V30 1008 N 99.0327 -1.24633 -0.964593 0
M  V30 1009 C 99.9827 -1.00841 -2.04487 0
M  V30 1010 C 100.967 0.0512468 -1.60818 0
M  V30 1011 O 102.159 -0.162865 -1.76249 0
M  V30 1012 C 99.2877 -0.618474 -3.37683 0
M  V30 1013 C 98.3737 -1.71437 -3.87905 0
M  V30 1014 N 98.7647 -2.9477 -4.11029 0
M  V30 1015 C 97.0627 -1.5926 -4.16596 0
M  V30 1016 C 97.7637 -3.65834 -4.52261 0
M  V30 1017 N 96.7397 -2.9341 -4.57615 0
M  V30 1018 H 100.542 -1.94487 -2.20345 0
M  V30 1019 H 98.0557 -1.14805 -1.14863 0
M  V30 1020 H 100.053 -0.429247 -4.14684 0
M  V30 1021 H 98.7127 0.310766 -3.23209 0
M  V30 1022 H 99.7237 -3.30917 -3.9839 0
M  V30 1023 H 96.4007 -0.731606 -4.1104 0
M  V30 1024 H 97.7907 -4.71646 -4.78539 0
M  V30 1025 N 100.511 1.16574 -1.06058 0
M  V30 1026 C 101.758 1.87047 -0.775873 0
M  V30 1027 C 102.086 1.81562 0.697534 0
M  V30 1028 O 101.341 1.22445 1.52662 0
M  V30 1029 C 101.64 3.36195 -1.21275 0
M  V30 1030 C 101.306 3.6188 -2.68986 0
M  V30 1031 C 99.9678 3.68599 -3.09335 0
M  V30 1032 C 102.32 3.72648 -3.64394 0
M  V30 1033 C 99.6478 3.83584 -4.43937 0
M  V30 1034 C 102 3.89154 -4.98741 0
M  V30 1035 C 100.664 3.94114 -5.3873 0
M  V30 1036 H 99.9338 0.684452 -0.283912 0
M  V30 1037 H 102.581 1.37853 -1.32925 0
M  V30 1038 H 100.886 3.87505 -0.578528 0
M  V30 1039 H 102.583 3.89103 -0.969542 0
M  V30 1040 H 99.1728 3.57281 -2.36744 0
M  V30 1041 H 103.357 3.66769 -3.34356 0
M  V30 1042 H 98.6128 3.85677 -4.74409 0
M  V30 1043 H 102.787 3.96427 -5.72554 0
M  V30 1044 H 100.414 4.05478 -6.43033 0
M  V30 1045 N 101.989 0.842826 1.3317 0
M  V30 1046 C 102.937 0.267495 2.31057 0
M  V30 1047 C 103.931 -0.602682 1.58316 0
M  V30 1048 O 105.137 -0.491803 1.73151 0
M  V30 1049 H 101.512 0.0677813 0.748939 0
M  V30 1050 H 103.483 1.10754 2.77085 0
M  V30 1051 C 102.232 -0.539331 3.43492 0
M  V30 1052 H 101.555 0.12095 3.99617 0
M  V30 1053 H 102.995 -0.90767 4.14171 0
M  V30 1054 C 101.454 -1.71981 2.89697 0
M  V30 1055 O 101.984 -2.81862 2.86211 0
M  V30 1056 N 100.19 -1.54299 2.46252 0
M  V30 1057 H 99.7369 -0.649143 2.49287 0
M  V30 1058 H 99.6949 -2.33431 2.10612 0
M  V30 1059 N 103.467 -1.45747 0.599634 0
M  V30 1060 C 104.417 -2.27538 -0.145107 0
M  V30 1061 C 105.401 -1.3686 -0.846055 0
M  V30 1062 O 106.593 -1.6091 -0.737357 0
M  V30 1063 C 103.722 -3.23569 -1.14708 0
M  V30 1064 C 102.808 -4.21734 -0.447383 0
M  V30 1065 N 103.199 -5.03257 0.506535 0
M  V30 1066 C 101.497 -4.40536 -0.695966 0
M  V30 1067 C 102.198 -5.74426 0.917068 0
M  V30 1068 N 101.174 -5.42966 0.26253 0
M  V30 1069 H 104.976 -2.87965 0.587672 0
M  V30 1070 H 102.49 -1.56803 0.422697 0
M  V30 1071 H 104.487 -3.8089 -1.69495 0
M  V30 1072 H 103.147 -2.64702 -1.8805 0
M  V30 1073 H 104.158 -5.10319 0.882899 0
M  V30 1074 H 100.835 -3.92802 -1.41467 0
M  V30 1075 H 102.225 -6.4995 1.70338 0
M  V30 1076 N 104.945 -0.338344 -1.53925 0
M  V30 1077 C 106.17 0.263987 -2.05713 0
M  V30 1078 C 106.595 1.43847 -1.21201 0
M  V30 1079 O 105.953 1.79904 -0.224535 0
M  V30 1080 C 106.001 0.662 -3.54471 0
M  V30 1081 O 105.105 1.76265 -3.72833 0
M  V30 1082 H 104.446 0.0448722 -0.662482 0
M  V30 1083 H 106.976 -0.491048 -1.9862 0
M  V30 1084 H 106.986 0.940594 -3.9701 0
M  V30 1085 H 105.661 -0.196937 -4.15433 0
M  V30 1086 H 104.238 1.48173 -3.42198 0
M  V30 1087 N 106.423 1.57458 -0.0668435 0
M  V30 1088 C 107.648 1.9804 0.616027 0
M  V30 1089 C 108.073 0.944771 1.62652 0
M  V30 1090 O 107.431 -0.0902094 1.81075 0
M  V30 1091 C 107.479 3.37665 1.26549 0
M  V30 1092 O 106.583 3.36701 2.38131 0
M  V30 1093 H 105.924 0.644719 0.158849 0
M  V30 1094 H 108.454 2.04121 -0.139891 0
M  V30 1095 H 108.464 3.7474 1.6135 0
M  V30 1096 H 107.139 4.12573 0.525016 0
M  V30 1097 H 105.716 3.1139 2.0516 0
M  V30 1098 N 107.901 -0.206675 1.56239 0
M  V30 1099 C 108.848 -1.25617 1.93621 0
M  V30 1100 C 109.818 -1.45824 0.795274 0
M  V30 1101 O 111.003 -1.59148 1.05245 0
M  V30 1102 C 108.143 -2.59839 2.27107 0
M  V30 1103 C 107.256 -2.47308 3.54207 0
M  V30 1104 C 106.391 -3.74155 3.7707 0
M  V30 1105 C 105.43 -3.56407 4.97635 0
M  V30 1106 N 104.567 -4.75238 5.1681 0
M  V30 1107 H 109.407 -0.930383 2.83104 0
M  V30 1108 H 106.944 -0.448065 1.4011 0
M  V30 1109 H 108.902 -3.38021 2.44535 0
M  V30 1110 H 107.532 -2.90485 1.40778 0
M  V30 1111 H 106.584 -1.60483 3.4489 0
M  V30 1112 H 107.896 -2.30122 4.42544 0
M  V30 1113 H 107.05 -4.60778 3.94675 0
M  V30 1114 H 105.789 -3.94282 2.87042 0
M  V30 1115 H 104.794 -2.68168 4.79964 0
M  V30 1116 H 106.019 -3.37736 5.89161 0
M  V30 1117 H 103.965 -4.95651 4.29728 0
M  V30 1118 H 103.882 -4.60835 5.99306 0
M  V30 1119 H 105.15 -5.63246 5.38864 0
M  V30 1120 N 109.379 -1.50304 -0.473955 0
M  V30 1121 C 110.607 -1.64902 -1.24959 0
M  V30 1122 C 111.022 -0.331198 -1.85872 0
M  V30 1123 O 110.379 0.68652 -1.69095 0
M  V30 1124 C 110.43 -2.73803 -2.36038 0
M  V30 1125 O 110.151 -4.00477 -1.77624 0
M  V30 1126 C 111.652 -2.99349 -3.26964 0
M  V30 1127 H 108.872 -0.554383 -0.378022 0
M  V30 1128 H 111.416 -1.9651 -0.566054 0
M  V30 1129 H 109.571 -2.44898 -3.00173 0
M  V30 1130 H 109.985 -4.60678 -2.5075 0
M  V30 1131 H 111.459 -3.79217 -4.01121 0
M  V30 1132 H 111.936 -2.10307 -3.85574 0
M  V30 1133 H 112.542 -3.29774 -2.68569 0
M  V30 1134 N 110.857 0.726932 -1.39834 0
M  V30 1135 C 112.104 1.48664 -1.37496 0
M  V30 1136 C 112.432 1.94482 0.0264678 0
M  V30 1137 O 111.687 1.67692 1.00886 0
M  V30 1138 C 111.986 2.73495 -2.30077 0
M  V30 1139 C 111.652 2.46502 -3.77555 0
M  V30 1140 C 110.314 2.3885 -4.17737 0
M  V30 1141 C 112.666 2.23604 -4.70798 0
M  V30 1142 C 109.994 2.06352 -5.49214 0
M  V30 1143 C 112.346 1.92622 -6.02561 0
M  V30 1144 C 111.01 1.83444 -6.41798 0
M  V30 1145 H 110.28 0.544001 -0.503135 0
M  V30 1146 H 112.927 0.833657 -1.72402 0
M  V30 1147 H 111.232 3.43575 -1.88317 0
M  V30 1148 H 112.929 3.31549 -2.25558 0
M  V30 1149 H 109.519 2.5334 -3.45712 0
M  V30 1150 H 113.703 2.28479 -4.40581 0
M  V30 1151 H 108.959 1.97776 -5.78528 0
M  V30 1152 H 113.133 1.73914 -6.74334 0
M  V30 1153 H 110.76 1.58029 -7.43593 0
M  V30 1154 N 112.336 1.25143 0.95797 0
M  V30 1155 C 113.269 0.995565 2.05338 0
M  V30 1156 C 114.247 -0.0740423 1.62431 0
M  V30 1157 O 115.431 0.0649212 1.88388 0
M  V30 1158 C 112.558 0.504298 3.34925 0
M  V30 1159 C 111.604 1.56393 3.96792 0
M  V30 1160 S 112.437 3.14815 4.33188 0
M  V30 1161 C 113.593 2.67415 5.65898 0
M  V30 1162 H 113.826 1.92309 2.26726 0
M  V30 1163 H 111.359 1.08635 1.09716 0
M  V30 1164 H 113.317 0.227497 4.09869 0
M  V30 1165 H 111.978 -0.402671 3.11508 0
M  V30 1166 H 111.171 1.17082 4.90212 0
M  V30 1167 H 110.773 1.79124 3.28315 0
M  V30 1168 H 113.065 2.10833 6.4386 0
M  V30 1169 H 114.008 3.59463 6.10076 0
M  V30 1170 H 114.416 2.07521 5.24972 0
M  V30 1171 N 113.814 -1.1601 1.06675 0
M  V30 1172 C 115.06 -1.86909 0.786945 0
M  V30 1173 C 115.393 -1.81717 -0.685018 0
M  V30 1174 O 114.668 -1.23551 -1.50218 0
M  V30 1175 C 114.951 -3.36313 1.28707 0
M  V30 1176 C 114.804 -3.50175 2.82308 0
M  V30 1177 C 116.123 -4.3084 0.898071 0
M  V30 1178 H 113.242 -0.678677 0.287343 0
M  V30 1179 H 115.884 -1.36336 1.32334 0
M  V30 1180 H 114.034 -3.79513 0.830768 0
M  V30 1181 H 115.706 -3.15886 3.36175 0
M  V30 1182 H 113.949 -2.91959 3.20847 0
M  V30 1183 H 114.62 -4.55116 3.12368 0
M  V30 1184 H 117.096 -3.95561 1.29114 0
M  V30 1185 H 115.972 -5.33876 1.27543 0
M  V30 1186 H 116.233 -4.41662 -0.196651 0
M  V30 1187 N 115.292 -0.849877 -1.32721 0
M  V30 1188 C 116.541 -0.447175 -1.96681 0
M  V30 1189 C 116.854 1.00135 -1.68025 0
M  V30 1190 O 118.06 1.50926 -2.25685 0
M  V30 1191 C 116.516 -0.7487 -3.52026 0
M  V30 1192 C 116.124 -2.21264 -3.89546 0
M  V30 1193 C 117.868 -0.413487 -4.22481 0
M  V30 1194 C 115.775 -2.45763 -5.37917 0
M  V30 1195 H 114.705 -0.163486 -0.736063 0
M  V30 1196 H 117.356 -1.03999 -1.51183 0
M  V30 1197 H 115.738 -0.0853727 -3.95908 0
M  V30 1198 H 116.912 -2.91736 -3.56689 0
M  V30 1199 H 115.227 -2.5119 -3.32103 0
M  V30 1200 H 117.824 -0.574017 -5.3161 0
M  V30 1201 H 118.167 0.644492 -4.11281 0
M  V30 1202 H 118.7 -1.03251 -3.84167 0
M  V30 1203 H 115.439 -3.50168 -5.54132 0
M  V30 1204 H 114.959 -1.79864 -5.72197 0
M  V30 1205 H 116.638 -2.29471 -6.0494 0
M  V30 1206 N 116.77 1.45427 -0.607355 0
M  V30 1207 C 117.72 2.27612 0.133038 0
M  V30 1208 C 118.704 1.37307 0.838785 0
M  V30 1209 O 119.896 1.61299 0.728813 0
M  V30 1210 C 117.025 3.24173 1.12991 0
M  V30 1211 C 116.111 4.21965 0.425011 0
M  V30 1212 N 116.502 5.02982 -0.533217 0
M  V30 1213 C 114.8 4.40899 0.672593 0
M  V30 1214 C 115.501 5.73931 -0.947518 0
M  V30 1215 N 114.477 5.42819 -0.291321 0
M  V30 1216 H 118.279 2.87649 -0.602935 0
M  V30 1217 H 115.793 1.56576 -0.431006 0
M  V30 1218 H 117.79 3.81783 1.67473 0
M  V30 1219 H 116.45 2.65696 1.86644 0
M  V30 1220 H 117.461 5.09843 -0.90995 0
M  V30 1221 H 114.138 3.93547 1.39382 0
M  V30 1222 H 115.528 6.49037 -1.73782 0
M  V30 1223 N 118.248 0.346503 1.53744 0
M  V30 1224 C 119.496 -0.248612 2.00565 0
M  V30 1225 C 119.817 -1.5083 1.23593 0
M  V30 1226 O 119.087 -1.92858 0.343912 0
M  V30 1227 H 117.667 -0.0948564 0.740953 0
M  V30 1228 H 120.329 0.468341 1.89189 0
M  V30 1229 H 119.425 -0.488994 3.08245 0
M  V30 1230 N 119.726 -1.57421 0.075193 0
M  V30 1231 C 120.972 -1.94716 -0.587998 0
M  V30 1232 C 121.327 -0.955205 -1.67014 0
M  V30 1233 O 120.62 0.0219842 -1.91587 0
M  V30 1234 C 120.814 -3.36428 -1.20626 0
M  V30 1235 C 120.643 -4.49317 -0.185541 0
M  V30 1236 C 119.413 -5.04772 0.23099 0
M  V30 1237 C 121.611 -5.11036 0.57854 0
M  V30 1238 N 119.593 -6.01204 1.24206 0
M  V30 1239 C 120.964 -6.02998 1.44199 0
M  V30 1240 C 123.019 -4.93844 0.634237 0
M  V30 1241 C 121.722 -6.79614 2.3562 0
M  V30 1242 C 123.748 -5.71106 1.53597 0
M  V30 1243 C 123.11 -6.6272 2.38709 0
M  V30 1244 H 119.209 -0.759536 -0.186089 0
M  V30 1245 H 121.793 -1.94097 0.153128 0
M  V30 1246 H 119.964 -3.37778 -1.9173 0
M  V30 1247 H 121.696 -3.60951 -1.8302 0
M  V30 1248 H 118.451 -4.73353 -0.152807 0
M  V30 1249 H 118.875 -6.54119 1.74521 0
M  V30 1250 H 123.517 -4.22799 -0.00960004 0
M  V30 1251 H 121.235 -7.49934 3.01038 0
M  V30 1252 H 124.821 -5.59824 1.58394 0
M  V30 1253 H 123.701 -7.2146 3.07352 0
M  V30 1254 N 121.204 0.198386 -1.56346 0
M  V30 1255 C 122.432 0.935572 -1.84539 0
M  V30 1256 C 122.847 1.76989 -0.657281 0
M  V30 1257 O 122.204 1.78626 0.374043 0
M  V30 1258 C 122.255 1.8344 -3.11499 0
M  V30 1259 O 121.976 1.03377 -4.25728 0
M  V30 1260 C 123.477 2.68355 -3.52846 0
M  V30 1261 H 120.697 0.273126 -0.612897 0
M  V30 1262 H 123.241 0.20663 -2.03453 0
M  V30 1263 H 121.396 2.51701 -2.94492 0
M  V30 1264 H 121.81 1.64599 -4.98003 0
M  V30 1265 H 123.284 3.27085 -4.44657 0
M  V30 1266 H 123.761 3.41901 -2.75681 0
M  V30 1267 H 124.367 2.05471 -3.72373 0
M  V30 1268 N 122.682 1.50554 0.465978 0
M  V30 1269 C 123.928 1.62038 1.21949 0
M  V30 1270 C 124.261 0.322116 1.9151 0
M  V30 1271 O 123.536 -0.676723 1.82348 0
M  V30 1272 C 123.819 2.80421 2.25912 0
M  V30 1273 C 123.672 4.20144 1.60622 0
M  V30 1274 C 124.991 2.94354 3.27176 0
M  V30 1275 H 122.11 0.589752 0.441998 0
M  V30 1276 H 124.752 1.82956 0.51257 0
M  V30 1277 H 122.902 2.62717 2.86203 0
M  V30 1278 H 124.574 4.49449 1.03889 0
M  V30 1279 H 122.817 4.24165 0.909211 0
M  V30 1280 H 123.488 4.98914 2.36196 0
M  V30 1281 H 125.964 3.10578 2.76913 0
M  V30 1282 H 124.84 3.788 3.97242 0
M  V30 1283 H 125.101 2.05186 3.916 0
M  V30 1284 N 124.16 -0.719506 1.40217 0
M  V30 1285 C 125.388 -1.50864 1.41589 0
M  V30 1286 C 125.803 -1.88794 0.0145275 0
M  V30 1287 O 125.16 -1.55174 -0.960594 0
M  V30 1288 C 125.211 -2.78646 2.30302 0
M  V30 1289 O 124.932 -2.42321 3.64983 0
M  V30 1290 C 126.433 -3.72569 2.40224 0
M  V30 1291 H 123.653 -0.465709 0.48307 0
M  V30 1292 H 126.197 -0.88785 1.84221 0
M  V30 1293 H 124.352 -3.37019 1.91042 0
M  V30 1294 H 124.766 -3.24514 4.12057 0
M  V30 1295 H 126.24 -4.5908 3.06512 0
M  V30 1296 H 126.717 -4.15403 1.42608 0
M  V30 1297 H 127.323 -3.20109 2.80019 0
M  V30 1298 N 125.638 -1.25649 -0.95132 0
M  V30 1299 C 126.886 -1.10375 -1.69298 0
M  V30 1300 C 127.207 0.355339 -1.91735 0
M  V30 1301 O 126.477 1.25188 -1.50681 0
M  V30 1302 H 125.057 -0.405461 -0.627384 0
M  V30 1303 H 127.719 -1.57823 -1.14358 0
M  V30 1304 H 126.815 -1.61465 -2.67087 0
M  V30 1305 N 127.117 1.15442 -1.07289 0
M  V30 1306 C 128.05 2.19135 -0.636798 0
M  V30 1307 C 129.028 1.58884 0.34562 0
M  V30 1308 O 130.212 1.86805 0.252195 0
M  V30 1309 C 127.339 3.38638 0.0650014 0
M  V30 1310 C 126.385 4.17412 -0.87576 0
M  V30 1311 S 127.218 4.79882 -2.37642 0
M  V30 1312 C 128.374 6.02753 -1.6864 0
M  V30 1313 H 128.607 2.55787 -1.51526 0
M  V30 1314 H 126.14 1.26394 -0.886793 0
M  V30 1315 H 128.098 4.07873 0.463664 0
M  V30 1316 H 126.759 3.00331 0.919801 0
M  V30 1317 H 125.952 5.02909 -0.33143 0
M  V30 1318 H 125.554 3.53722 -1.21478 0
M  V30 1319 H 127.846 6.70113 -0.997753 0
M  V30 1320 H 128.789 6.61754 -2.51967 0
M  V30 1321 H 129.197 5.52355 -1.16465 0
M  V30 1322 N 128.595 0.856903 1.32268 0
M  V30 1323 C 129.825 0.47475 2.01071 0
M  V30 1324 C 130.233 -0.933746 1.64553 0
M  V30 1325 O 129.576 -1.62114 0.863989 0
M  V30 1326 C 129.638 0.536746 3.55471 0
M  V30 1327 C 129.302 1.90453 4.15423 0
M  V30 1328 C 130.299 2.87029 4.33486 0
M  V30 1329 C 127.984 2.20229 4.51447 0
M  V30 1330 C 129.978 4.11532 4.86744 0
M  V30 1331 C 127.665 3.44984 5.0441 0
M  V30 1332 C 128.663 4.40452 5.22007 0
M  V30 1333 O 128.351 5.62998 5.73837 0
M  V30 1334 H 128.083 0.184778 0.650256 0
M  V30 1335 H 130.637 1.15615 1.69771 0
M  V30 1336 H 128.867 -0.20152 3.86175 0
M  V30 1337 H 130.556 0.169875 4.05544 0
M  V30 1338 H 131.322 2.6533 4.05986 0
M  V30 1339 H 127.201 1.46705 4.37034 0
M  V30 1340 H 130.745 4.86056 5.00395 0
M  V30 1341 H 126.642 3.66532 5.31342 0
M  V30 1342 H 127.41 5.64987 5.92226 0
M  V30 1343 N 130.073 -1.45103 0.615059 0
M  V30 1344 C 130.983 -2.34382 -0.101034 0
M  V30 1345 C 131.999 -1.51681 -0.852585 0
M  V30 1346 O 133.175 -1.8446 -0.808484 0
M  V30 1347 C 130.24 -3.29417 -1.08099 0
M  V30 1348 C 129.301 -4.28025 -0.330577 0
M  V30 1349 C 128.534 -5.1852 -1.26385 0
M  V30 1350 O 128.757 -5.12598 -2.50198 0
M  V30 1351 O 127.691 -5.97122 -0.756866 0
M  V30 1352 H 131.517 -2.97033 0.632855 0
M  V30 1353 H 129.102 -1.4461 0.375293 0
M  V30 1354 H 130.984 -3.87958 -1.6452 0
M  V30 1355 H 129.659 -2.69321 -1.79577 0
M  V30 1356 H 128.566 -3.73078 0.276283 0
M  V30 1357 H 129.899 -4.90997 0.343866 0
M  V30 1358 N 131.551 -0.354651 -1.53558 0
M  V30 1359 C 132.776 0.242153 -2.05981 0
M  V30 1360 C 133.201 1.42553 -1.2272 0
M  V30 1361 O 132.559 1.79656 -0.243604 0
M  V30 1362 C 132.607 0.624367 -3.55154 0
M  V30 1363 O 131.711 1.72301 -3.74681 0
M  V30 1364 H 131.052 0.0378432 -0.662921 0
M  V30 1365 H 133.582 -0.512087 -1.98088 0
M  V30 1366 H 133.592 0.898433 -3.97985 0
M  V30 1367 H 132.267 -0.240989 -4.15201 0
M  V30 1368 H 130.844 1.44535 -3.4375 0
M  V30 1369 N 133.029 1.57378 -0.0835403 0
M  V30 1370 C 134.275 1.95025 0.577664 0
M  V30 1371 C 134.63 0.964049 1.66505 0
M  V30 1372 O 133.923 -0.0118235 1.91596 0
M  V30 1373 C 134.117 3.37063 1.1884 0
M  V30 1374 C 133.946 4.49409 0.16171 0
M  V30 1375 C 132.716 5.04642 -0.257756 0
M  V30 1376 C 134.914 5.10722 -0.605634 0
M  V30 1377 N 132.896 6.00537 -1.27393 0
M  V30 1378 C 134.267 6.02225 -1.47395 0
M  V30 1379 C 136.322 4.93501 -0.660418 0
M  V30 1380 C 135.025 6.78355 -2.39221 0
M  V30 1381 C 137.051 5.70283 -1.56623 0
M  V30 1382 C 136.413 6.61444 -2.4222 0
M  V30 1383 H 132.512 0.760512 0.182058 0
M  V30 1384 H 135.096 1.94013 -0.163419 0
M  V30 1385 H 133.267 3.3879 1.89936 0
M  V30 1386 H 134.999 3.61917 1.81103 0
M  V30 1387 H 131.754 4.73428 0.127702 0
M  V30 1388 H 132.178 6.53184 -1.77987 0
M  V30 1389 H 136.82 4.22798 -0.0128221 0
M  V30 1390 H 134.538 7.48327 -3.05011 0
M  V30 1391 H 138.124 5.58976 -1.61361 0
M  V30 1392 H 137.004 7.1982 -3.11174 0
M  V30 1393 N 134.507 -0.190092 1.56449 0
M  V30 1394 C 135.753 -0.911052 1.81184 0
M  V30 1395 C 136.086 -1.82699 0.658396 0
M  V30 1396 O 135.361 -1.91491 -0.340775 0
M  V30 1397 C 135.644 -1.72297 3.16205 0
M  V30 1398 C 135.497 -0.831419 4.42049 0
M  V30 1399 C 136.816 -2.69454 3.47969 0
M  V30 1400 H 133.935 -0.32977 0.659106 0
M  V30 1401 H 136.577 -0.178169 1.89163 0
M  V30 1402 H 134.727 -2.34778 3.09534 0
M  V30 1403 H 136.399 -0.220929 4.60771 0
M  V30 1404 H 134.642 -0.138406 4.33579 0
M  V30 1405 H 135.313 -1.43461 5.33032 0
M  V30 1406 H 137.789 -2.17104 3.54972 0
M  V30 1407 H 136.665 -3.23342 4.43555 0
M  V30 1408 H 136.926 -3.48744 2.71717 0
M  V30 1409 N 135.985 -1.50799 -0.457987 0
M  V30 1410 C 137.396 -1.55152 -1.0385 0
M  V30 1411 C 137.747 -0.362719 -1.92818 0
M  V30 1412 O 136.872 0.522915 -2.09987 0
M  V30 1413 C 137.467 -2.81173 -1.89017 0
M  V30 1414 C 136.026 -2.88164 -2.42154 0
M  V30 1415 C 135.173 -2.49591 -1.20829 0
M  V30 1416 H 138.124 -1.56874 -0.240068 0
M  V30 1417 H 138.145 -2.63769 -2.74238 0
M  V30 1418 H 137.657 -3.67677 -1.24238 0
M  V30 1419 H 135.758 -2.06042 -3.10447 0
M  V30 1420 H 135.871 -3.91356 -2.76364 0
M  V30 1421 H 134.235 -2.02322 -1.54719 0
M  V30 1422 H 135.018 -3.38418 -0.576927 0
M  V30 1423 N 137.463 0.71206 -1.40597 0
M  V30 1424 C 138.41 1.82613 -1.41142 0
M  V30 1425 C 139.38 1.63925 -0.267903 0
M  V30 1426 O 140.565 1.85009 -0.466495 0
M  V30 1427 C 137.705 3.20354 -1.28324 0
M  V30 1428 C 136.818 3.50589 -2.52411 0
M  V30 1429 C 135.953 4.77855 -2.32009 0
M  V30 1430 C 134.992 5.01005 -3.51654 0
M  V30 1431 N 134.129 6.19487 -3.30425 0
M  V30 1432 H 138.969 1.81482 -2.36365 0
M  V30 1433 H 136.506 0.886475 -1.17388 0
M  V30 1434 H 138.464 3.99899 -1.18899 0
M  V30 1435 H 137.094 3.20705 -0.367189 0
M  V30 1436 H 136.146 2.65573 -2.72351 0
M  V30 1437 H 137.458 3.63604 -3.41458 0
M  V30 1438 H 136.612 5.65424 -2.19956 0
M  V30 1439 H 135.351 4.67056 -1.40392 0
M  V30 1440 H 134.356 4.1189 -3.64179 0
M  V30 1441 H 135.581 5.13674 -4.44202 0
M  V30 1442 H 133.527 6.09932 -2.41494 0
M  V30 1443 H 133.444 6.33194 -4.13039 0
M  V30 1444 H 134.712 7.09834 -3.22113 0
M  V30 1445 N 138.941 1.26152 0.944643 0
M  V30 1446 C 139.871 1.09902 2.06019 0
M  V30 1447 C 140.852 0.00519538 1.70099 0
M  V30 1448 O 142.037 0.176583 1.93396 0
M  V30 1449 C 139.167 0.727562 3.39594 0
M  V30 1450 C 138.121 1.77274 3.89561 0
M  V30 1451 C 137.447 1.25569 5.19747 0
M  V30 1452 C 138.747 3.17357 4.14827 0
M  V30 1453 H 140.441 2.03217 2.19871 0
M  V30 1454 H 137.987 0.978452 1.05652 0
M  V30 1455 H 139.94 0.600777 4.17095 0
M  V30 1456 H 138.664 -0.241287 3.25707 0
M  V30 1457 H 137.323 1.88814 3.14237 0
M  V30 1458 H 136.971 0.276783 5.02238 0
M  V30 1459 H 136.671 1.95433 5.54148 0
M  V30 1460 H 138.195 1.1415 5.99835 0
M  V30 1461 H 139.609 3.08914 4.82954 0
M  V30 1462 H 138.006 3.84781 4.60504 0
M  V30 1463 H 139.076 3.63673 3.20734 0
M  V30 1464 N 140.419 -1.14872 1.07899 0
M  V30 1465 C 141.665 -1.86064 0.806725 0
M  V30 1466 C 141.998 -1.82434 -0.665706 0
M  V30 1467 O 141.273 -1.25138 -1.48899 0
M  V30 1468 C 141.556 -3.34929 1.32267 0
M  V30 1469 C 141.409 -3.47161 2.86006 0
M  V30 1470 C 142.728 -4.29863 0.943717 0
M  V30 1471 H 139.847 -0.675591 0.294526 0
M  V30 1472 H 142.489 -1.34925 1.33773 0
M  V30 1473 H 140.639 -3.78611 0.870974 0
M  V30 1474 H 142.311 -3.12302 3.39507 0
M  V30 1475 H 140.554 -2.88539 3.23925 0
M  V30 1476 H 141.225 -4.51777 3.17177 0
M  V30 1477 H 143.701 -3.9417 1.33302 0
M  V30 1478 H 142.577 -5.32494 1.33198 0
M  V30 1479 H 142.838 -4.41846 -0.149796 0
M  V30 1480 N 141.898 -0.863906 -1.31812 0
M  V30 1481 C 142.861 -0.320212 -2.26952 0
M  V30 1482 C 143.861 0.525369 -1.51975 0
M  V30 1483 O 145.051 0.335547 -1.70938 0
M  V30 1484 C 142.183 0.545919 -3.365 0
M  V30 1485 H 143.376 -1.16004 -2.76556 0
M  V30 1486 H 140.929 -0.638995 -1.42641 0
M  V30 1487 H 141.664 1.40718 -2.92179 0
M  V30 1488 H 141.449 -0.0594674 -3.92055 0
M  V30 1489 H 142.939 0.918796 -4.07367 0
M  V30 1490 N 143.376 1.44774 -0.622745 0
M  V30 1491 C 144.339 2.29069 0.0774015 0
M  V30 1492 C 145.339 1.4059 0.780461 0
M  V30 1493 O 146.529 1.62551 0.626322 0
M  V30 1494 C 143.661 3.21974 1.12006 0
M  V30 1495 H 144.854 2.92459 -0.663901 0
M  V30 1496 H 142.407 1.51548 -0.382486 0
M  V30 1497 H 143.142 2.63417 1.89162 0
M  V30 1498 H 142.927 3.87168 0.619951 0
M  V30 1499 H 144.417 3.85318 1.60995 0
M  V30 1500 N 144.854 0.36279 1.53368 0
M  V30 1501 C 145.784 -0.476976 2.28576 0
M  V30 1502 C 146.765 -1.08631 1.30894 0
M  V30 1503 O 147.95 -1.10409 1.59761 0
M  V30 1504 C 145.08 -1.61828 3.07293 0
M  V30 1505 C 144.034 -1.13633 4.1264 0
M  V30 1506 C 143.36 -2.36766 4.79423 0
M  V30 1507 C 144.66 -0.223061 5.21823 0
M  V30 1508 H 146.354 0.150474 2.99022 0
M  V30 1509 H 143.9 0.0738103 1.43811 0
M  V30 1510 H 145.853 -2.21237 3.58653 0
M  V30 1511 H 144.577 -2.27292 2.34533 0
M  V30 1512 H 143.236 -0.564945 3.62221 0
M  V30 1513 H 142.884 -3.0068 4.03238 0
M  V30 1514 H 142.584 -2.05192 5.50609 0
M  V30 1515 H 144.108 -2.96865 5.33576 0
M  V30 1516 H 145.522 -0.724545 5.68703 0
M  V30 1517 H 143.919 0.001678 6.001 0
M  V30 1518 H 144.989 0.735553 4.79289 0
M  V30 1519 N 146.332 -1.57332 0.0918853 0
M  V30 1520 C 147.562 -1.98286 -0.580205 0
M  V30 1521 C 147.97 -0.969713 -1.6246 0
M  V30 1522 O 147.313 0.0493501 -1.83634 0
M  V30 1523 C 147.375 -3.35603 -1.28882 0
M  V30 1524 C 147.039 -4.55285 -0.395559 0
M  V30 1525 C 148.036 -5.18687 0.355002 0
M  V30 1526 C 145.721 -5.01314 -0.314556 0
M  V30 1527 C 147.715 -6.26484 1.17458 0
M  V30 1528 C 145.402 -6.08979 0.508677 0
M  V30 1529 C 146.4 -6.71429 1.2519 0
M  V30 1530 O 146.088 -7.77018 2.06151 0
M  V30 1531 H 145.82 -0.656678 -0.160466 0
M  V30 1532 H 148.374 -2.04721 0.16688 0
M  V30 1533 H 146.604 -3.25842 -2.08241 0
M  V30 1534 H 148.293 -3.61026 -1.85512 0
M  V30 1535 H 149.059 -4.84058 0.302134 0
M  V30 1536 H 144.938 -4.5247 -0.882697 0
M  V30 1537 H 148.482 -6.75159 1.75518 0
M  V30 1538 H 144.379 -6.4304 0.563037 0
M  V30 1539 H 145.147 -7.93991 1.98799 0
M  V30 1540 N 147.81 0.181792 -1.56548 0
M  V30 1541 C 148.757 1.22521 -1.95595 0
M  V30 1542 C 149.727 1.4454 -0.818373 0
M  V30 1543 O 150.912 1.57454 -1.07763 0
M  V30 1544 C 148.052 2.56193 -2.31212 0
M  V30 1545 C 147.165 2.41641 -3.58097 0
M  V30 1546 C 146.3 3.68108 -3.82975 0
M  V30 1547 C 145.339 3.48445 -5.03242 0
M  V30 1548 N 144.476 4.66956 -5.24306 0
M  V30 1549 H 149.316 0.885226 -2.84548 0
M  V30 1550 H 146.853 0.425718 -1.40805 0
M  V30 1551 H 148.811 3.34088 -2.49882 0
M  V30 1552 H 147.441 2.88208 -1.45382 0
M  V30 1553 H 146.493 1.54976 -3.474 0
M  V30 1554 H 147.805 2.23052 -4.46149 0
M  V30 1555 H 146.959 4.54441 -4.01956 0
M  V30 1556 H 145.698 3.89666 -2.93278 0
M  V30 1557 H 144.703 2.60499 -4.8417 0
M  V30 1558 H 145.928 3.2832 -5.9446 0
M  V30 1559 H 143.874 4.88752 -4.37559 0
M  V30 1560 H 143.791 4.51242 -6.06561 0
M  V30 1561 H 145.059 5.54602 -5.47756 0
M  V30 1562 N 149.288 1.51039 0.449983 0
M  V30 1563 C 150.704 1.38934 0.785462 0
M  V30 1564 C 150.904 0.461817 1.96136 0
M  V30 1565 O 149.96 -0.0877389 2.52348 0
M  V30 1566 C 151.273 2.80724 1.0777 0
M  V30 1567 C 152.821 2.89787 1.1829 0
M  V30 1568 C 153.296 4.32457 1.50815 0
M  V30 1569 N 154.787 4.35505 1.57764 0
M  V30 1570 C 155.522 5.42914 1.84477 0
M  V30 1571 N 155.018 6.60502 2.09068 0
M  V30 1572 N 156.811 5.3038 1.86155 0
M  V30 1573 H 148.962 2.09904 -0.324647 0
M  V30 1574 H 151.225 0.944378 -0.0827957 0
M  V30 1575 H 150.931 3.50531 0.286498 0
M  V30 1576 H 150.805 3.19273 2.00859 0
M  V30 1577 H 153.192 2.20186 1.96474 0
M  V30 1578 H 153.273 2.54752 0.231314 0
M  V30 1579 H 152.917 5.02603 0.731622 0
M  V30 1580 H 152.847 4.64995 2.47158 0
M  V30 1581 H 155.338 3.50724 1.40715 0
M  V30 1582 H 155.651 7.38158 2.28785 0
M  V30 1583 H 153.996 6.63639 2.06416 0
M  V30 1584 H 157.187 4.37505 1.66454 0
M  V30 1585 H 157.36 6.1417 2.06637 0
M  V30 1586 N 150.766 -0.704594 1.40972 0
M  V30 1587 C 151.676 -1.84856 1.44448 0
M  V30 1588 C 152.692 -1.70726 0.335961 0
M  V30 1589 O 153.868 -1.92799 0.582276 0
M  V30 1590 C 150.933 -3.20758 1.31587 0
M  V30 1591 C 149.994 -3.47063 2.52677 0
M  V30 1592 C 149.227 -4.76481 2.4042 0
M  V30 1593 O 149.45 -5.52341 1.42391 0
M  V30 1594 O 148.384 -5.03367 3.30007 0
M  V30 1595 H 152.21 -1.8488 2.40942 0
M  V30 1596 H 149.795 -0.85647 1.22413 0
M  V30 1597 H 151.677 -4.01913 1.26665 0
M  V30 1598 H 150.352 -3.21438 0.382049 0
M  V30 1599 H 149.259 -2.65873 2.63177 0
M  V30 1600 H 150.592 -3.5119 3.44858 0
M  V30 1601 N 152.244 -1.26651 -0.937939 0
M  V30 1602 C 153.655 -1.1125 -1.49934 0
M  V30 1603 C 154.006 0.306077 -1.93798 0
M  V30 1604 O 153.131 1.19792 -1.80219 0
M  V30 1605 C 153.726 -2.01339 -2.72485 0
M  V30 1606 C 152.285 -1.90074 -3.24883 0
M  V30 1607 C 151.432 -1.94498 -1.97651 0
M  V30 1608 H 154.383 -1.39693 -0.753091 0
M  V30 1609 H 154.404 -1.56319 -3.46907 0
M  V30 1610 H 153.916 -3.04577 -2.40529 0
M  V30 1611 H 152.017 -0.897827 -3.61621 0
M  V30 1612 H 152.13 -2.75778 -3.9177 0
M  V30 1613 H 150.494 -1.38591 -2.13693 0
M  V30 1614 H 151.277 -2.99372 -1.68022 0
M  V30 1615 N 153.722 1.14298 -1.08507 0
M  V30 1616 C 154.999 1.81544 -0.728088 0
M  V30 1617 C 155.379 1.95838 0.78808 0
M  V30 1618 O 154.727 1.51904 1.70697 0
M  V30 1619 C 154.937 3.17169 -1.45619 0
M  V30 1620 C 156.285 3.9265 -1.61591 0
M  V30 1621 O 157.309 3.26762 -1.41793 0
M  V30 1622 O 156.168 5.10807 -1.94263 0
M  V30 1623 H 153.262 0.78491 -0.260471 0
M  V30 1624 H 155.808 1.21307 -1.18671 0
M  V30 1625 H 154.58 3.01934 -2.489 0
M  V30 1626 H 154.203 3.851 -0.989124 0
M  V30 1627 N 155.201 0.870884 1.31352 0
M  V30 1628 C 156.426 0.495957 2.01383 0
M  V30 1629 C 156.851 -0.904324 1.64935 0
M  V30 1630 O 156.209 -1.59687 0.858466 0
M  V30 1631 C 156.257 0.661433 3.54482 0
M  V30 1632 O 155.361 -0.298851 4.11316 0
M  V30 1633 H 154.702 0.197158 0.634054 0
M  V30 1634 H 157.232 1.17455 1.67527 0
M  V30 1635 H 157.242 0.555072 4.04207 0
M  V30 1636 H 155.917 1.68246 3.8035 0
M  V30 1637 H 154.494 -0.147368 3.72609 0
M  V30 1638 N 156.679 -1.44442 0.630414 0
M  V30 1639 C 157.627 -2.32437 -0.0871428 0
M  V30 1640 C 158.621 -1.47304 -0.836525 0
M  V30 1641 O 159.827 -1.63653 -0.749506 0
M  V30 1642 H 156.202 -0.750533 -0.0469495 0
M  V30 1643 H 158.173 -2.90709 0.673096 0
M  V30 1644 C 156.922 -3.31288 -1.05563 0
M  V30 1645 H 156.245 -3.96805 -0.488426 0
M  V30 1646 H 157.685 -3.9554 -1.52721 0
M  V30 1647 C 156.144 -2.6016 -2.14052 0
M  V30 1648 O 156.674 -2.39997 -3.22124 0
M  V30 1649 N 154.88 -2.19911 -1.89967 0
M  V30 1650 H 154.427 -2.36509 -1.02085 0
M  V30 1651 H 154.385 -1.72646 -2.62756 0
M  V30 1652 N 158.157 -0.370918 -1.53173 0
M  V30 1653 C 159.403 0.217423 -2.01631 0
M  V30 1654 C 159.736 1.47983 -1.25756 0
M  V30 1655 O 159.011 1.91274 -0.352764 0
M  V30 1656 C 159.294 0.503982 -3.56556 0
M  V30 1657 C 159.147 -0.77243 -4.43118 0
M  V30 1658 C 160.466 1.30234 -4.20389 0
M  V30 1659 H 157.585 0.0775486 -0.732909 0
M  V30 1660 H 160.227 -0.496863 -1.83388 0
M  V30 1661 H 158.377 1.11248 -3.72231 0
M  V30 1662 H 160.049 -1.4098 -4.39229 0
M  V30 1663 H 158.292 -1.39167 -4.10871 0
M  V30 1664 H 158.963 -0.526815 -5.4948 0
M  V30 1665 H 161.439 0.787546 -4.08579 0
M  V30 1666 H 160.315 1.47158 -5.28806 0
M  V30 1667 H 160.576 2.31237 -3.76805 0
M  V30 1668 N 159.635 1.57281 -0.100228 0
M  V30 1669 C 160.884 1.93713 0.561984 0
M  V30 1670 C 161.197 0.984492 1.69018 0
M  V30 1671 O 162.403 1.24273 2.41389 0
M  V30 1672 C 160.859 3.4421 1.05106 0
M  V30 1673 C 160.467 4.47975 -0.0476628 0
M  V30 1674 C 162.211 3.89595 1.68571 0
M  V30 1675 C 160.118 5.89631 0.457055 0
M  V30 1676 H 159.048 0.723082 0.2137 0
M  V30 1677 H 161.699 1.82644 -0.177057 0
M  V30 1678 H 160.081 3.50449 1.84395 0
M  V30 1679 H 161.255 4.53385 -0.823333 0
M  V30 1680 H 159.57 4.1223 -0.587816 0
M  V30 1681 H 162.167 4.92832 2.07414 0
M  V30 1682 H 162.51 3.28526 2.55688 0
M  V30 1683 H 163.043 3.86078 0.958562 0
M  V30 1684 H 159.782 6.54411 -0.377616 0
M  V30 1685 H 159.302 5.87681 1.19962 0
M  V30 1686 H 160.981 6.40363 0.92437 0
M  V30 1687 N 161.113 -0.173488 1.56642 0
M  V30 1688 C 162.359 -0.891784 1.8214 0
M  V30 1689 C 162.692 -1.8199 0.677736 0
M  V30 1690 O 161.967 -1.91842 -0.320446 0
M  V30 1691 C 162.25 -1.68933 3.18015 0
M  V30 1692 C 162.103 -0.784487 4.42906 0
M  V30 1693 C 163.422 -2.65748 3.50808 0
M  V30 1694 H 160.541 -0.322761 0.662567 0
M  V30 1695 H 163.183 -0.158095 1.89341 0
M  V30 1696 H 161.333 -2.31482 3.12007 0
M  V30 1697 H 163.005 -0.172046 4.60979 0
M  V30 1698 H 161.248 -0.0924117 4.33702 0
M  V30 1699 H 161.919 -1.37799 5.34524 0
M  V30 1700 H 164.395 -2.13327 3.57255 0
M  V30 1701 H 163.271 -3.18619 4.4696 0
M  V30 1702 H 163.532 -3.45842 2.75401 0
M  V30 1703 N 162.591 -1.51276 -0.441967 0
M  V30 1704 C 163.837 -1.63958 -1.19355 0
M  V30 1705 C 164.17 -0.352543 -1.90973 0
M  V30 1706 O 163.445 0.647627 -1.83401 0
M  V30 1707 C 163.728 -2.83979 -2.21422 0
M  V30 1708 C 163.581 -4.22646 -1.53918 0
M  V30 1709 C 164.9 -2.99521 -3.22451 0
M  V30 1710 H 162.019 -0.596709 -0.432559 0
M  V30 1711 H 164.661 -1.83748 -0.483398 0
M  V30 1712 H 162.811 -2.67237 -2.81987 0
M  V30 1713 H 164.483 -4.51045 -0.967256 0
M  V30 1714 H 162.726 -4.25558 -0.841615 0
M  V30 1715 H 163.397 -5.02609 -2.28229 0
M  V30 1716 H 165.873 -3.14944 -2.71937 0
M  V30 1717 H 164.749 -3.85072 -3.91166 0
M  V30 1718 H 165.01 -2.11391 -3.88287 0
M  V30 1719 N 164.069 0.697108 -1.41344 0
M  V30 1720 C 165.346 1.45154 -1.31109 0
M  V30 1721 C 165.726 2.11009 0.0620449 0
M  V30 1722 O 165.074 2.01571 1.07618 0
M  V30 1723 C 165.284 2.47223 -2.46337 0
M  V30 1724 C 166.632 3.1252 -2.87431 0
M  V30 1725 O 167.656 2.57547 -2.46065 0
M  V30 1726 O 166.515 4.12083 -3.58957 0
M  V30 1727 H 163.609 0.646365 -0.515889 0
M  V30 1728 H 166.155 0.727716 -1.53305 0
M  V30 1729 H 164.927 1.97204 -3.37974 0
M  V30 1730 H 164.55 3.27116 -2.2601 0
M  V30 1731 N 165.547 1.27147 0.931209 0
M  V30 1732 C 166.793 1.14455 1.68141 0
M  V30 1733 C 167.148 -0.307172 1.89932 0
M  V30 1734 O 166.441 -1.22158 1.47607 0
M  V30 1735 C 166.635 1.8579 3.05314 0
M  V30 1736 C 166.464 3.3775 2.96909 0
M  V30 1737 C 165.234 4.07062 2.99381 0
M  V30 1738 C 167.432 4.33783 2.76291 0
M  V30 1739 N 165.414 5.45618 2.8138 0
M  V30 1740 C 166.785 5.59582 2.6696 0
M  V30 1741 C 168.84 4.23915 2.61152 0
M  V30 1742 C 167.543 6.76639 2.44033 0
M  V30 1743 C 169.569 5.40689 2.39602 0
M  V30 1744 C 168.931 6.65443 2.3101 0
M  V30 1745 H 165.03 0.473667 0.622225 0
M  V30 1746 H 167.614 1.60568 1.10118 0
M  V30 1747 H 165.785 1.42138 3.61457 0
M  V30 1748 H 167.517 1.65634 3.69253 0
M  V30 1749 H 164.272 3.585 3.09475 0
M  V30 1750 H 164.696 6.184 2.75519 0
M  V30 1751 H 169.338 3.28189 2.66555 0
M  V30 1752 H 167.056 7.72451 2.3737 0
M  V30 1753 H 170.642 5.34932 2.28778 0
M  V30 1754 H 169.522 7.54277 2.14558 0
M  V30 1755 N 167.025 -1.13721 1.09112 0
M  V30 1756 C 167.955 -2.21148 0.749385 0
M  V30 1757 C 168.936 -1.6792 -0.271475 0
M  V30 1758 O 170.121 -1.93693 -0.140251 0
M  V30 1759 C 167.251 -3.46905 0.165659 0
M  V30 1760 C 166.205 -4.13203 1.11567 0
M  V30 1761 C 165.531 -5.33248 0.393809 0
M  V30 1762 C 166.831 -4.60912 2.45678 0
M  V30 1763 H 168.525 -2.4999 1.64758 0
M  V30 1764 H 166.071 -1.20156 0.793626 0
M  V30 1765 H 168.024 -4.21313 -0.085466 0
M  V30 1766 H 166.748 -3.17449 -0.767714 0
M  V30 1767 H 165.407 -3.40758 1.35202 0
M  V30 1768 H 165.055 -5.00054 -0.543599 0
M  V30 1769 H 164.755 -5.78552 1.02721 0
M  V30 1770 H 166.279 -6.10413 0.150908 0
M  V30 1771 H 167.693 -5.26759 2.26269 0
M  V30 1772 H 166.09 -5.16944 3.04776 0
M  V30 1773 H 167.16 -3.75603 3.06677 0
M  V30 1774 N 168.503 -0.877838 -1.30888 0
M  V30 1775 C 169.728 -0.506629 -2.01117 0
M  V30 1776 C 170.153 0.895564 -1.65412 0
M  V30 1777 O 169.511 1.5923 -0.866922 0
M  V30 1778 C 169.559 -0.680223 -3.54126 0
M  V30 1779 O 168.663 0.277033 -4.11468 0
M  V30 1780 H 168.004 -0.200518 -0.633 0
M  V30 1781 H 170.534 -1.18342 -1.66902 0
M  V30 1782 H 170.544 -0.5765 -4.03907 0
M  V30 1783 H 169.219 -1.70261 -3.79452 0
M  V30 1784 H 167.796 0.127606 -3.72682 0
M  V30 1785 N 169.982 1.44106 -0.638065 0
M  V30 1786 C 171.398 1.56672 -0.304286 0
M  V30 1787 C 171.598 1.6244 1.19228 0
M  V30 1788 O 170.654 1.57121 1.9766 0
M  V30 1789 C 171.967 2.83503 -1.00231 0
M  V30 1790 C 173.515 2.97226 -0.981116 0
M  V30 1791 C 173.99 4.26868 -1.65974 0
M  V30 1792 N 175.481 4.33698 -1.62666 0
M  V30 1793 C 176.216 5.32745 -2.12063 0
M  V30 1794 N 175.712 6.38157 -2.6968 0
M  V30 1795 N 177.505 5.24299 -2.02651 0
M  V30 1796 H 169.656 1.38605 -1.60942 0
M  V30 1797 H 171.919 0.664661 -0.675965 0
M  V30 1798 H 171.625 2.85251 -2.0573 0
M  V30 1799 H 171.499 3.73251 -0.54439 0
M  V30 1800 H 173.886 2.95027 0.0654188 0
M  V30 1801 H 173.967 2.08808 -1.47759 0
M  V30 1802 H 173.611 4.29826 -2.70576 0
M  V30 1803 H 173.541 5.14156 -1.13804 0
M  V30 1804 H 176.032 3.58138 -1.20606 0
M  V30 1805 H 176.345 7.10029 -3.05087 0
M  V30 1806 H 174.69 6.38823 -2.73734 0
M  V30 1807 H 177.881 4.4086 -1.57353 0
M  V30 1808 H 178.054 6.01334 -2.41457 0
M  V30 1809 N 171.46 0.379036 1.52974 0
M  V30 1810 C 172.423 -0.448865 2.24762 0
M  V30 1811 C 173.423 -0.998689 1.26027 0
M  V30 1812 O 174.613 -0.882313 1.50203 0
M  V30 1813 C 171.745 -1.62872 2.99476 0
M  V30 1814 H 172.938 0.179491 2.99362 0
M  V30 1815 H 170.491 0.13096 1.5575 0
M  V30 1816 H 171.226 -2.29479 2.29151 0
M  V30 1817 H 171.011 -1.24128 3.71934 0
M  V30 1818 H 172.501 -2.2151 3.5401 0
M  V30 1819 N 172.938 -1.57226 0.108567 0
M  V30 1820 C 173.87 -2.11809 -0.875752 0
M  V30 1821 C 174.883 -1.05839 -1.23701 0
M  V30 1822 O 176.072 -1.33245 -1.18778 0
M  V30 1823 C 173.172 -2.59411 -2.18081 0
M  V30 1824 C 172.345 -3.89364 -1.99284 0
M  V30 1825 C 171.404 -4.22672 -3.13424 0
M  V30 1826 O 170.43 -4.91668 -2.86795 0
M  V30 1827 N 171.632 -3.79154 -4.3957 0
M  V30 1828 H 174.397 -2.9689 -0.409477 0
M  V30 1829 H 171.958 -1.61721 -0.076158 0
M  V30 1830 H 173.95 -2.7873 -2.93414 0
M  V30 1831 H 172.52 -1.79268 -2.5609 0
M  V30 1832 H 171.74 -3.79059 -1.08203 0
M  V30 1833 H 173.028 -4.74358 -1.84017 0
M  V30 1834 H 172.426 -3.23486 -4.64083 0
M  V30 1835 H 170.983 -4.03602 -5.11809 0
M  V30 1836 N 174.416 0.165178 -1.56732 0
M  V30 1837 C 175.326 1.22423 -2.00125 0
M  V30 1838 C 176.342 1.48084 -0.913619 0
M  V30 1839 O 177.518 1.60112 -1.22172 0
M  V30 1840 C 174.583 2.54197 -2.35764 0
M  V30 1841 C 173.644 2.36343 -3.58386 0
M  V30 1842 C 172.877 3.61834 -3.92316 0
M  V30 1843 O 173.1 4.67267 -3.27135 0
M  V30 1844 O 172.034 3.55579 -4.85641 0
M  V30 1845 H 175.86 0.885886 -2.90492 0
M  V30 1846 H 173.445 0.372518 -1.44681 0
M  V30 1847 H 175.327 3.3192 -2.59629 0
M  V30 1848 H 174.002 2.87598 -1.48557 0
M  V30 1849 H 172.909 1.56632 -3.39731 0
M  V30 1850 H 174.242 2.07865 -4.46154 0
M  V30 1851 N 175.894 1.51508 0.433938 0
M  V30 1852 C 176.844 1.69451 1.52546 0
M  V30 1853 C 177.828 0.548474 1.51263 0
M  V30 1854 O 179.02 0.804529 1.57659 0
M  V30 1855 C 176.149 1.82604 2.90707 0
M  V30 1856 C 175.235 3.03002 2.96733 0
M  V30 1857 N 175.626 4.26121 2.72496 0
M  V30 1858 C 173.924 3.02327 3.27894 0
M  V30 1859 C 174.625 5.07407 2.84452 0
M  V30 1860 N 173.601 4.42126 3.16269 0
M  V30 1861 H 177.403 2.62305 1.32564 0
M  V30 1862 H 174.917 1.49202 0.641297 0
M  V30 1863 H 176.914 1.93569 3.69238 0
M  V30 1864 H 175.574 0.909339 3.11707 0
M  V30 1865 H 176.585 4.55009 2.4736 0
M  V30 1866 H 173.262 2.20301 3.54646 0
M  V30 1867 H 174.652 6.15422 2.69639 0
M  V30 1868 N 177.372 -0.689602 1.41712 0
M  V30 1869 C 178.602 -1.47613 1.44548 0
M  V30 1870 C 179.01 -1.89132 0.0509034 0
M  V30 1871 O 178.353 -1.57741 -0.94146 0
M  V30 1872 C 178.415 -2.76596 2.2964 0
M  V30 1873 C 178.079 -2.57245 3.77722 0
M  V30 1874 C 179.076 -2.22804 4.69739 0
M  V30 1875 C 176.761 -2.727 4.2183 0
M  V30 1876 C 178.755 -2.04064 6.03851 0
M  V30 1877 C 176.442 -2.53576 5.56006 0
M  V30 1878 C 177.44 -2.1931 6.46832 0
M  V30 1879 O 177.128 -2.00359 7.78532 0
M  V30 1880 H 176.86 -0.461227 0.494212 0
M  V30 1881 H 179.414 -0.856045 1.86711 0
M  V30 1882 H 177.644 -3.41033 1.82301 0
M  V30 1883 H 179.333 -3.38424 2.24107 0
M  V30 1884 H 180.099 -2.10473 4.36951 0
M  V30 1885 H 175.978 -2.98353 3.51435 0
M  V30 1886 H 179.522 -1.77241 6.74708 0
M  V30 1887 H 175.419 -2.65499 5.88371 0
M  V30 1888 H 176.187 -2.15075 7.89737 0
M  V30 1889 N 178.85 -1.27639 -0.924453 0
M  V30 1890 C 180.261 -1.12834 -1.48746 0
M  V30 1891 C 180.612 0.285505 -1.94112 0
M  V30 1892 O 179.737 1.17874 -1.81479 0
M  V30 1893 C 180.332 -2.04217 -2.70334 0
M  V30 1894 C 178.891 -1.93509 -3.22848 0
M  V30 1895 C 178.038 -1.96583 -1.95577 0
M  V30 1896 H 180.989 -1.40484 -0.738233 0
M  V30 1897 H 181.01 -1.59989 -3.4523 0
M  V30 1898 H 180.522 -3.07111 -2.37285 0
M  V30 1899 H 178.623 -0.936131 -3.60649 0
M  V30 1900 H 178.736 -2.79917 -3.88823 0
M  V30 1901 H 177.1 -1.4085 -2.12211 0
M  V30 1902 H 177.883 -3.01137 -1.64837 0
M  V30 1903 N 180.328 1.1314 -1.09713 0
M  V30 1904 C 181.574 1.84757 -0.836224 0
M  V30 1905 C 181.907 1.8347 0.636598 0
M  V30 1906 O 181.182 1.27491 1.46889 0
M  V30 1907 C 181.465 3.32782 -1.37578 0
M  V30 1908 C 181.318 3.42567 -2.91493 0
M  V30 1909 C 182.637 4.28307 -1.01198 0
M  V30 1910 H 179.756 0.67082 -0.305236 0
M  V30 1911 H 182.398 1.3278 -1.35903 0
M  V30 1912 H 180.548 3.77177 -0.931097 0
M  V30 1913 H 182.22 3.06862 -3.44432 0
M  V30 1914 H 180.463 2.83349 -3.28475 0
M  V30 1915 H 181.134 4.46674 -3.24324 0
M  V30 1916 H 183.61 3.91999 -1.39556 0
M  V30 1917 H 182.486 5.30307 -1.41653 0
M  V30 1918 H 182.747 4.42029 0.0794833 0
M  V30 1919 N 181.806 0.884767 1.30421 0
M  V30 1920 C 183.031 0.517288 2.00845 0
M  V30 1921 C 183.456 -0.886779 1.65885 0
M  V30 1922 O 182.814 -1.58768 0.875354 0
M  V30 1923 C 182.862 0.698994 3.5376 0
M  V30 1924 O 181.966 -0.255208 4.1161 0
M  V30 1925 H 181.307 0.203872 0.631927 0
M  V30 1926 H 183.837 1.19225 1.66272 0
M  V30 1927 H 183.847 0.597912 4.03595 0
M  V30 1928 H 182.522 1.72271 3.78544 0
M  V30 1929 H 181.099 -0.10784 3.72744 0
M  V30 1930 N 183.284 -1.43765 0.645699 0
M  V30 1931 C 184.247 -2.29163 -0.0409488 0
M  V30 1932 C 185.247 -1.41813 -0.757996 0
M  V30 1933 O 186.437 -1.63527 -0.600382 0
M  V30 1934 C 183.569 -3.23716 -1.06869 0
M  V30 1935 H 184.762 -2.91366 0.710345 0
M  V30 1936 H 182.315 -1.5092 0.406547 0
M  V30 1937 H 183.05 -2.66393 -1.84947 0
M  V30 1938 H 182.835 -3.88105 -0.558277 0
M  V30 1939 H 184.325 -3.87831 -1.54845 0
M  V30 1940 N 184.763 -0.387143 -1.52771 0
M  V30 1941 C 186.011 0.195349 -2.01154 0
M  V30 1942 C 186.332 1.475 -1.27549 0
M  V30 1943 O 185.602 1.91878 -0.394924 0
M  V30 1944 H 184.182 0.075178 -0.743207 0
M  V30 1945 H 186.844 -0.518337 -1.87881 0
M  V30 1946 H 185.94 0.407096 -3.09434 0
M  V30 1947 N 186.241 1.57166 -0.116904 0
M  V30 1948 C 187.471 1.99184 0.548586 0
M  V30 1949 C 187.879 0.995436 1.60897 0
M  V30 1950 O 187.222 -0.0201293 1.83689 0
M  V30 1951 C 187.284 3.37611 1.23526 0
M  V30 1952 C 186.948 4.55857 0.323077 0
M  V30 1953 C 187.945 5.18056 -0.437476 0
M  V30 1954 C 185.63 5.01751 0.234761 0
M  V30 1955 C 187.624 6.24536 -1.2741 0
M  V30 1956 C 185.311 6.08093 -0.605496 0
M  V30 1957 C 186.309 6.69352 -1.35856 0
M  V30 1958 O 185.997 7.7364 -2.18487 0
M  V30 1959 H 185.729 0.659148 0.149999 0
M  V30 1960 H 188.283 2.0443 -0.199428 0
M  V30 1961 H 186.513 3.29113 2.0303 0
M  V30 1962 H 188.202 3.63932 1.79745 0
M  V30 1963 H 188.968 4.83516 -0.379105 0
M  V30 1964 H 184.847 4.53817 0.810601 0
M  V30 1965 H 188.391 6.72281 -1.86237 0
M  V30 1966 H 184.288 6.42063 -0.665268 0
M  V30 1967 H 185.056 7.90727 -2.11406 0
M  V30 1968 N 187.719 -0.156864 1.56817 0
M  V30 1969 C 188.947 -0.886316 1.86955 0
M  V30 1970 C 189.362 -1.75185 0.703975 0
M  V30 1971 O 188.719 -1.79555 -0.326552 0
M  V30 1972 C 188.77 -1.75117 3.16253 0
M  V30 1973 O 188.491 -0.920537 4.2832 0
M  V30 1974 C 189.992 -2.58905 3.59837 0
M  V30 1975 H 187.212 -0.25678 0.619923 0
M  V30 1976 H 189.756 -0.152615 2.0393 0
M  V30 1977 H 187.911 -2.43805 3.01062 0
M  V30 1978 H 188.325 -1.51337 5.02192 0
M  V30 1979 H 189.799 -3.1518 4.53172 0
M  V30 1980 H 190.276 -3.34472 2.84649 0
M  V30 1981 H 190.882 -1.95526 3.7769 0
M  V30 1982 N 189.197 -1.51736 -0.425897 0
M  V30 1983 C 190.144 -1.73875 -1.51776 0
M  V30 1984 C 191.114 -0.580702 -1.55618 0
M  V30 1985 O 192.299 -0.81641 -1.72451 0
M  V30 1986 C 189.439 -1.88012 -2.89388 0
M  V30 1987 C 188.552 -3.15606 -2.94986 0
M  V30 1988 C 187.687 -3.20271 -4.23793 0
M  V30 1989 C 186.726 -4.42134 -4.23302 0
M  V30 1990 N 185.863 -4.44284 -5.43651 0
M  V30 1991 H 190.703 -2.67071 -1.32201 0
M  V30 1992 H 188.24 -1.32351 -0.642008 0
M  V30 1993 H 190.198 -1.9419 -3.69251 0
M  V30 1994 H 188.828 -0.98213 -3.07496 0
M  V30 1995 H 187.88 -3.18681 -2.07717 0
M  V30 1996 H 189.192 -4.05486 -2.90486 0
M  V30 1997 H 188.346 -3.25428 -5.12036 0
M  V30 1998 H 187.085 -2.28299 -4.30965 0
M  V30 1999 H 186.09 -4.3714 -3.3345 0
M  V30 2000 H 187.315 -5.35382 -4.17783 0
M  V30 2001 H 185.261 -3.55188 -5.51523 0
M  V30 2002 H 185.178 -5.27988 -5.41078 0
M  V30 2003 H 186.446 -4.53649 -6.33895 0
M  V30 2004 N 190.675 0.682077 -1.42076 0
M  V30 2005 C 191.605 1.80796 -1.47767 0
M  V30 2006 C 192.586 1.6677 -0.334954 0
M  V30 2007 O 193.771 1.863 -0.548264 0
M  V30 2008 C 190.901 3.19038 -1.37229 0
M  V30 2009 C 189.855 3.47789 -2.49453 0
M  V30 2010 C 189.181 4.8553 -2.23975 0
M  V30 2011 C 190.481 3.45411 -3.91776 0
M  V30 2012 H 192.175 1.7629 -2.41997 0
M  V30 2013 H 189.721 0.846721 -1.16476 0
M  V30 2014 H 191.674 3.97528 -1.39821 0
M  V30 2015 H 190.398 3.24204 -0.394907 0
M  V30 2016 H 189.057 2.71657 -2.46166 0
M  V30 2017 H 188.705 4.87337 -1.24547 0
M  V30 2018 H 188.405 5.0573 -2.99184 0
M  V30 2019 H 189.929 5.66312 -2.28304 0
M  V30 2020 H 191.343 4.13882 -3.96705 0
M  V30 2021 H 189.74 3.77145 -4.66778 0
M  V30 2022 H 190.81 2.44122 -4.18966 0
M  V30 2023 N 192.153 1.28127 0.917671 0
M  V30 2024 C 193.399 1.15223 1.66888 0
M  V30 2025 C 193.732 -0.299293 1.9188 0
M  V30 2026 O 193.007 -1.21805 1.51637 0
M  V30 2027 C 193.29 1.94706 3.02922 0
M  V30 2028 C 193.143 3.47898 2.85109 0
M  V30 2029 C 194.462 1.75939 4.03402 0
M  V30 2030 H 191.581 0.419946 0.605652 0
M  V30 2031 H 194.223 1.57398 1.06423 0
M  V30 2032 H 192.373 1.58864 3.54534 0
M  V30 2033 H 194.045 3.93624 2.40537 0
M  V30 2034 H 192.288 3.7373 2.20246 0
M  V30 2035 H 192.959 3.98765 3.81694 0
M  V30 2036 H 195.435 2.07209 3.60837 0
M  V30 2037 H 194.311 2.33931 4.96556 0
M  V30 2038 H 194.572 0.709877 4.36364 0
M  V30 2039 N 193.631 -1.12557 1.10312 0
M  V30 2040 C 194.879 -1.83675 0.843091 0
M  V30 2041 C 195.2 -1.84435 -0.633131 0
M  V30 2042 O 194.47 -1.30657 -1.45964 0
M  V30 2043 H 193.05 -0.680138 0.308904 0
M  V30 2044 H 195.712 -1.36301 1.39313 0
M  V30 2045 H 194.808 -2.87908 1.2048 0
M  V30 2046 N 195.109 -0.891671 -1.2995 0
M  V30 2047 C 196.041 -0.320695 -2.26945 0
M  V30 2048 C 197.054 0.528497 -1.53983 0
M  V30 2049 O 198.243 0.346959 -1.75096 0
M  V30 2050 C 195.343 0.562066 -3.34207 0
M  V30 2051 C 194.516 -0.259576 -4.36629 0
M  V30 2052 C 193.575 0.554739 -5.23268 0
M  V30 2053 O 192.601 -0.0249311 -5.69195 0
M  V30 2054 N 193.803 1.8625 -5.4981 0
M  V30 2055 H 196.568 -1.15432 -2.76578 0
M  V30 2056 H 194.129 -0.755336 -1.432 0
M  V30 2057 H 196.121 1.11304 -3.89093 0
M  V30 2058 H 194.691 1.29637 -2.84452 0
M  V30 2059 H 193.911 -0.991986 -3.81514 0
M  V30 2060 H 195.199 -0.822564 -5.02107 0
M  V30 2061 H 194.597 2.35628 -5.14292 0
M  V30 2062 H 193.154 2.36078 -6.07545 0
M  V30 2063 N 196.587 1.43421 -0.653314 0
M  V30 2064 C 197.864 1.95361 -0.0966581 0
M  V30 2065 C 198.244 1.59461 1.38331 0
M  V30 2066 O 197.592 0.879777 2.10884 0
M  V30 2067 C 197.802 3.47311 -0.342988 0
M  V30 2068 C 199.15 4.23875 -0.24798 0
M  V30 2069 O 200.174 3.55133 -0.275553 0
M  V30 2070 O 199.033 5.4623 -0.171771 0
M  V30 2071 H 196.127 0.826945 0.00956291 0
M  V30 2072 H 198.673 1.5336 -0.726558 0
M  V30 2073 H 197.445 3.66569 -1.36906 0
M  V30 2074 H 197.068 3.9631 0.319975 0
M  V30 2075 N 198.065 0.39524 1.52563 0
M  V30 2076 C 199.311 -0.185318 2.01952 0
M  V30 2077 C 199.644 -1.45964 1.28095 0
M  V30 2078 O 198.919 -1.90689 0.38315 0
M  V30 2079 C 199.202 -0.447193 3.57312 0
M  V30 2080 C 199.055 0.842828 4.41833 0
M  V30 2081 C 200.374 -1.23529 4.22408 0
M  V30 2082 H 197.493 -0.0658788 0.73405 0
M  V30 2083 H 200.135 0.525975 1.82575 0
M  V30 2084 H 198.285 -1.05312 3.73954 0
M  V30 2085 H 199.957 1.4795 4.36931 0
M  V30 2086 H 198.2 1.45686 4.08605 0
M  V30 2087 H 198.871 0.614165 5.48573 0
M  V30 2088 H 201.347 -0.722445 4.0978 0
M  V30 2089 H 200.223 -1.38727 5.3108 0
M  V30 2090 H 200.484 -2.25213 3.80436 0
M  V30 2091 N 199.544 -1.57102 0.125237 0
M  V30 2092 C 200.507 -2.14471 -0.80838 0
M  V30 2093 C 201.507 -1.0811 -1.19033 0
M  V30 2094 O 202.697 -1.33856 -1.11482 0
M  V30 2095 C 199.829 -2.69005 -2.09402 0
M  V30 2096 H 201.022 -2.98297 -0.309696 0
M  V30 2097 H 198.575 -1.55807 -0.124051 0
M  V30 2098 H 199.31 -1.88785 -2.63687 0
M  V30 2099 H 199.095 -3.46799 -1.82957 0
M  V30 2100 H 200.585 -3.13278 -2.76128 0
M  V30 2101 N 201.022 0.148545 -1.56898 0
M  V30 2102 C 202.438 0.501131 -1.51528 0
M  V30 2103 C 202.638 1.83458 -0.833399 0
M  V30 2104 O 201.694 2.49259 -0.40328 0
M  V30 2105 C 203.007 0.512864 -2.96294 0
M  V30 2106 C 204.555 0.598487 -3.07225 0
M  V30 2107 C 205.03 0.640897 -4.53494 0
M  V30 2108 N 206.521 0.703163 -4.57832 0
M  V30 2109 C 207.256 0.756935 -5.68382 0
M  V30 2110 N 206.752 0.770147 -6.88506 0
M  V30 2111 N 208.545 0.797698 -5.56411 0
M  V30 2112 H 200.696 -0.725532 -1.99624 0
M  V30 2113 H 202.959 -0.264358 -0.910395 0
M  V30 2114 H 202.665 -0.398691 -3.49433 0
M  V30 2115 H 202.539 1.35133 -3.52163 0
M  V30 2116 H 204.926 1.50046 -2.54106 0
M  V30 2117 H 205.007 -0.267093 -2.54402 0
M  V30 2118 H 204.651 -0.256915 -5.0725 0
M  V30 2119 H 204.581 1.52295 -5.04097 0
M  V30 2120 H 207.072 0.700314 -3.71354 0
M  V30 2121 H 207.385 0.812983 -7.68512 0
M  V30 2122 H 205.73 0.738049 -6.9107 0
M  V30 2123 H 208.921 0.784535 -4.61479 0
M  V30 2124 H 209.094 0.83614 -6.42583 0
M  V30 2125 N 202.5 1.5196 0.417844 0
M  V30 2126 C 203.747 1.65591 1.16559 0
M  V30 2127 C 204.075 0.381565 1.90721 0
M  V30 2128 O 203.33 -0.635156 1.85106 0
M  V30 2129 C 203.629 2.82269 2.19223 0
M  V30 2130 C 203.295 4.20819 1.61933 0
M  V30 2131 C 201.957 4.58506 1.46033 0
M  V30 2132 C 204.309 5.07196 1.20008 0
M  V30 2133 C 201.637 5.80257 0.867113 0
M  V30 2134 C 203.989 6.29544 0.621086 0
M  V30 2135 C 202.653 6.65987 0.449144 0
M  V30 2136 H 201.923 0.605939 0.42652 0
M  V30 2137 H 204.57 1.86041 0.45397 0
M  V30 2138 H 202.875 2.56118 2.96498 0
M  V30 2139 H 204.572 2.90012 2.76936 0
M  V30 2140 H 201.162 3.91116 1.7529 0
M  V30 2141 H 205.346 4.7867 1.31105 0
M  V30 2142 H 200.602 6.07124 0.721833 0
M  V30 2143 H 204.776 6.95805 0.287798 0
M  V30 2144 H 202.403 7.60199 -0.012632 0
M  V30 2145 N 203.978 -0.674533 1.42435 0
M  V30 2146 C 205.227 -1.43034 1.42212 0
M  V30 2147 C 205.54 -1.95555 0.0420788 0
M  V30 2148 O 206.746 -2.71374 -0.0827558 0
M  V30 2149 C 205.202 -2.58748 2.50155 0
M  V30 2150 C 204.81 -2.12925 3.94166 0
M  V30 2151 C 206.554 -3.36257 2.59098 0
M  V30 2152 C 204.461 -3.25723 4.93618 0
M  V30 2153 H 203.391 -0.537345 0.528939 0
M  V30 2154 H 206.042 -0.73024 1.68344 0
M  V30 2155 H 204.424 -3.31128 2.17188 0
M  V30 2156 H 205.598 -1.47697 4.36488 0
M  V30 2157 H 203.913 -1.48354 3.89076 0
M  V30 2158 H 206.51 -4.20264 3.30578 0
M  V30 2159 H 206.853 -3.82866 1.63461 0
M  V30 2160 H 207.386 -2.70947 2.9126 0
M  V30 2161 H 204.125 -2.84105 5.90732 0
M  V30 2162 H 203.645 -3.89732 4.55926 0
M  V30 2163 H 205.324 -3.91186 5.15347 0
M  V30 2164 N 205.456 -1.28612 -0.910864 0
M  V30 2165 C 206.404 -1.1265 -2.03501 0
M  V30 2166 C 207.398 -0.0450054 -1.6934 0
M  V30 2167 O 208.604 -0.203988 -1.7884 0
M  V30 2168 H 204.979 -0.347639 -0.666822 0
M  V30 2169 H 206.95 -2.07849 -2.14106 0
M  V30 2170 C 205.699 -0.808143 -3.38178 0
M  V30 2171 H 205.022 -1.63231 -3.6496 0
M  V30 2172 H 206.462 -0.736426 -4.17556 0
M  V30 2173 C 204.921 0.488226 -3.33344 0
M  V30 2174 O 205.451 1.51766 -3.71927 0
M  V30 2175 N 203.657 0.490009 -2.86439 0
M  V30 2176 H 203.204 -0.348161 -2.55236 0
M  V30 2177 H 203.162 1.35741 -2.83587 0
M  V30 2178 N 206.934 1.1197 -1.10907 0
M  V30 2179 C 208.18 1.84059 -0.865674 0
M  V30 2180 C 208.535 1.82731 0.602254 0
M  V30 2181 O 207.828 1.26543 1.43866 0
M  V30 2182 C 208.022 3.30749 -1.35425 0
M  V30 2183 C 207.851 3.46363 -2.86815 0
M  V30 2184 C 206.621 3.59712 -3.54874 0
M  V30 2185 C 208.819 3.41116 -3.84895 0
M  V30 2186 N 206.801 3.63741 -4.94536 0
M  V30 2187 C 208.172 3.51698 -5.10596 0
M  V30 2188 C 210.227 3.24612 -3.77533 0
M  V30 2189 C 208.93 3.4748 -6.29802 0
M  V30 2190 C 210.956 3.21708 -4.96244 0
M  V30 2191 C 210.318 3.32856 -6.20795 0
M  V30 2192 H 206.417 0.689015 -0.369841 0
M  V30 2193 H 209.001 1.34016 -1.41237 0
M  V30 2194 H 207.172 3.79322 -0.834814 0
M  V30 2195 H 208.904 3.90718 -1.05458 0
M  V30 2196 H 205.659 3.62038 -3.05329 0
M  V30 2197 H 206.083 3.69408 -5.67333 0
M  V30 2198 H 210.725 3.14883 -2.8215 0
M  V30 2199 H 208.443 3.55978 -7.25469 0
M  V30 2200 H 212.029 3.10113 -4.92261 0
M  V30 2201 H 210.909 3.3059 -7.11112 0
M  V30 2202 N 208.412 0.89855 1.29475 0
M  V30 2203 C 209.345 0.319981 2.25945 0
M  V30 2204 C 210.323 -0.567189 1.52387 0
M  V30 2205 O 211.507 -0.514254 1.8135 0
M  V30 2206 C 208.634 -0.544013 3.34303 0
M  V30 2207 C 207.68 0.275682 4.25608 0
M  V30 2208 S 208.513 1.67272 5.08704 0
M  V30 2209 C 209.669 0.815621 6.20563 0
M  V30 2210 H 209.902 1.13767 2.74671 0
M  V30 2211 H 207.435 0.69882 1.3768 0
M  V30 2212 H 209.393 -1.03673 3.97193 0
M  V30 2213 H 208.054 -1.33593 2.84274 0
M  V30 2214 H 207.247 -0.384263 5.02533 0
M  V30 2215 H 206.849 0.701496 3.67362 0
M  V30 2216 H 209.141 0.0385042 6.77489 0
M  V30 2217 H 210.084 1.55691 6.90772 0
M  V30 2218 H 210.492 0.370516 5.63283 0
M  V30 2219 N 209.89 -1.43072 0.660911 0
M  V30 2220 C 210.8 -2.34585 -0.0264163 0
M  V30 2221 C 211.816 -1.54316 -0.803898 0
M  V30 2222 O 212.992 -1.86939 -0.749391 0
M  V30 2223 C 210.057 -3.32689 -0.975639 0
M  V30 2224 C 209.118 -4.2886 -0.194236 0
M  V30 2225 C 208.351 -5.22278 -1.09825 0
M  V30 2226 O 208.574 -5.20299 -2.33763 0
M  V30 2227 O 207.508 -5.99228 -0.566513 0
M  V30 2228 H 211.334 -2.94869 0.727034 0
M  V30 2229 H 208.919 -1.43342 0.42111 0
M  V30 2230 H 210.801 -3.92995 -1.52094 0
M  V30 2231 H 209.476 -2.74898 -1.70918 0
M  V30 2232 H 208.383 -3.72011 0.394835 0
M  V30 2233 H 209.716 -4.89655 0.499899 0
M  V30 2234 N 211.368 -0.403325 -1.52352 0
M  V30 2235 C 212.278 0.432009 -2.30588 0
M  V30 2236 C 213.294 1.05884 -1.38075 0
M  V30 2237 O 214.47 1.06161 -1.71148 0
M  V30 2238 C 211.535 1.53669 -3.10784 0
M  V30 2239 C 210.596 0.933525 -4.19027 0
M  V30 2240 C 209.829 1.98557 -4.9539 0
M  V30 2241 O 210.052 3.20283 -4.71991 0
M  V30 2242 O 208.986 1.59504 -5.80381 0
M  V30 2243 H 212.812 -0.205739 -3.03002 0
M  V30 2244 H 210.397 -0.166675 -1.48467 0
M  V30 2245 H 212.279 2.17814 -3.60742 0
M  V30 2246 H 210.954 2.15915 -2.41169 0
M  V30 2247 H 209.861 0.254954 -3.7323 0
M  V30 2248 H 211.194 0.35508 -4.90918 0
M  V30 2249 N 212.846 1.57033 -0.133567 0
M  V30 2250 C 213.756 2.19632 0.824564 0
M  V30 2251 C 214.772 1.17666 1.28182 0
M  V30 2252 O 215.948 1.50193 1.3418 0
M  V30 2253 C 213.013 2.79499 2.05137 0
M  V30 2254 C 212.074 3.96548 1.64464 0
M  V30 2255 C 211.307 4.5355 2.81297 0
M  V30 2256 O 211.53 4.09438 3.97136 0
M  V30 2257 O 210.464 5.44018 2.57542 0
M  V30 2258 H 214.29 3.01991 0.321766 0
M  V30 2259 H 211.875 1.49112 0.0927889 0
M  V30 2260 H 213.757 3.17602 2.7696 0
M  V30 2261 H 212.432 2.00162 2.54395 0
M  V30 2262 H 211.339 3.63186 0.897048 0
M  V30 2263 H 212.672 4.77364 1.19934 0
M  V30 2264 N 214.325 -0.140222 1.56975 0
M  V30 2265 C 215.572 -0.851687 1.83719 0
M  V30 2266 C 215.9 -1.80862 0.715485 0
M  V30 2267 O 215.155 -1.93464 -0.294956 0
M  V30 2268 C 215.454 -1.65386 3.16832 0
M  V30 2269 C 215.12 -0.843112 4.42947 0
M  V30 2270 C 213.782 -0.619464 4.77196 0
M  V30 2271 C 216.134 -0.276582 5.20466 0
M  V30 2272 C 213.462 0.181312 5.8642 0
M  V30 2273 C 215.814 0.51127 6.30531 0
M  V30 2274 C 214.478 0.745432 6.63325 0
M  V30 2275 H 213.748 -0.311654 0.672274 0
M  V30 2276 H 216.395 -0.115006 1.91154 0
M  V30 2277 H 214.7 -2.46084 3.04877 0
M  V30 2278 H 216.397 -2.20793 3.34741 0
M  V30 2279 H 212.987 -1.0275 4.16101 0
M  V30 2280 H 217.171 -0.436632 4.94376 0
M  V30 2281 H 212.427 0.372165 6.10266 0
M  V30 2282 H 216.601 0.957354 6.89788 0
M  V30 2283 H 214.228 1.36778 7.47794 0
M  V30 2284 N 215.803 -1.52179 -0.40978 0
M  V30 2285 C 216.751 -1.76086 -1.51975 0
M  V30 2286 C 217.745 -0.627964 -1.57331 0
M  V30 2287 O 218.951 -0.809993 -1.60745 0
M  V30 2288 H 215.326 -0.556829 -0.505416 0
M  V30 2289 H 217.297 -2.69077 -1.28996 0
M  V30 2290 C 216.046 -1.92799 -2.8935 0
M  V30 2291 H 215.369 -2.79392 -2.85972 0
M  V30 2292 H 216.809 -2.13527 -3.66309 0
M  V30 2293 C 215.268 -0.694923 -3.29655 0
M  V30 2294 O 215.798 0.13751 -4.01465 0
M  V30 2295 N 214.004 -0.53101 -2.85707 0
M  V30 2296 H 213.551 -1.20952 -2.27439 0
M  V30 2297 H 213.509 0.292718 -3.13034 0
M  V30 2298 N 217.281 0.66697 -1.42791 0
M  V30 2299 C 218.511 1.45294 -1.46878 0
M  V30 2300 C 218.919 1.89027 -0.0809861 0
M  V30 2301 O 218.262 1.59219 0.916246 0
M  V30 2302 C 218.324 2.72908 -2.34012 0
M  V30 2303 C 217.988 2.51203 -3.81767 0
M  V30 2304 C 218.985 2.15302 -4.73224 0
M  V30 2305 C 216.67 2.65954 -4.26115 0
M  V30 2306 C 218.664 1.94431 -6.07022 0
M  V30 2307 C 216.351 2.44699 -5.59969 0
M  V30 2308 C 217.349 2.08992 -6.5024 0
M  V30 2309 O 217.037 1.87948 -7.81621 0
M  V30 2310 H 216.769 0.453306 -0.501487 0
M  V30 2311 H 219.323 0.826232 -1.88049 0
M  V30 2312 H 217.553 3.38089 -1.87703 0
M  V30 2313 H 219.242 3.34816 -2.29462 0
M  V30 2314 H 220.008 2.03495 -4.40244 0
M  V30 2315 H 215.887 2.92724 -3.56137 0
M  V30 2316 H 219.431 1.66484 -6.77443 0
M  V30 2317 H 215.328 2.56105 -5.9252 0
M  V30 2318 H 216.096 2.02483 -7.93059 0
M  V30 2319 N 218.759 1.29093 0.90403 0
M  V30 2320 C 220.17 1.15186 1.46932 0
M  V30 2321 C 220.521 -0.254587 1.94541 0
M  V30 2322 O 219.646 -1.14972 1.83332 0
M  V30 2323 C 220.241 2.08492 2.67051 0
M  V30 2324 C 218.8 1.98621 3.19729 0
M  V30 2325 C 217.947 1.9967 1.92425 0
M  V30 2326 H 220.898 1.41641 0.715789 0
M  V30 2327 H 220.919 1.65461 3.42641 0
M  V30 2328 H 220.431 3.10847 2.3237 0
M  V30 2329 H 218.532 0.993389 3.59114 0
M  V30 2330 H 218.645 2.86068 3.8432 0
M  V30 2331 H 217.009 1.44208 2.09943 0
M  V30 2332 H 217.792 3.03721 1.60026 0
M  V30 2333 N 220.237 -1.11381 1.11499 0
M  V30 2334 C 221.167 -2.19509 0.796125 0
M  V30 2335 C 222.148 -1.68458 -0.235796 0
M  V30 2336 O 223.333 -1.93947 -0.0991344 0
M  V30 2337 C 220.463 -3.46475 0.239205 0
M  V30 2338 C 219.417 -4.10744 1.20307 0
M  V30 2339 C 218.743 -5.32293 0.50683 0
M  V30 2340 C 220.043 -4.55597 2.55399 0
M  V30 2341 H 221.737 -2.46439 1.70024 0
M  V30 2342 H 219.283 -1.18446 0.818935 0
M  V30 2343 H 221.236 -4.214 0.00392006 0
M  V30 2344 H 219.96 -3.19006 -0.700206 0
M  V30 2345 H 218.619 -3.37813 1.42399 0
M  V30 2346 H 218.267 -5.01095 -0.437408 0
M  V30 2347 H 217.967 -5.76243 1.1497 0
M  V30 2348 H 219.491 -6.09956 0.280351 0
M  V30 2349 H 220.905 -5.21841 2.37391 0
M  V30 2350 H 219.302 -5.10363 3.15673 0
M  V30 2351 H 220.372 -3.69013 3.14575 0
M  V30 2352 N 221.715 -0.905404 -1.28997 0
M  V30 2353 C 222.992 -0.453513 -1.9027 0
M  V30 2354 C 223.372 1.06721 -1.82137 0
M  V30 2355 O 222.72 1.91159 -1.25182 0
M  V30 2356 C 222.93 -0.974494 -3.35119 0
M  V30 2357 C 224.278 -1.0216 -4.12127 0
M  V30 2358 O 225.302 -0.922557 -3.44046 0
M  V30 2359 O 224.161 -1.17121 -5.33802 0
M  V30 2360 H 221.255 -0.142347 -0.814657 0
M  V30 2361 H 223.801 -0.995642 -1.37423 0
M  V30 2362 H 222.573 -2.01848 -3.35221 0
M  V30 2363 H 222.196 -0.412706 -3.95452 0
M  V30 2364 N 223.193 1.4272 -0.668489 0
M  V30 2365 C 224.141 2.32586 0.0254857 0
M  V30 2366 C 225.135 1.49471 0.797176 0
M  V30 2367 O 226.341 1.65583 0.705853 0
M  V30 2368 H 222.716 0.751514 0.0270339 0
M  V30 2369 H 224.687 2.88823 -0.749936 0
M  V30 2370 C 223.436 3.3397 0.967427 0
M  V30 2371 H 222.759 3.97961 0.383048 0
M  V30 2372 H 224.199 3.9945 1.42181 0
M  V30 2373 C 222.658 2.65744 2.0708 0
M  V30 2374 O 223.188 2.48454 3.15648 0
M  V30 2375 N 221.394 2.2487 1.8407 0
M  V30 2376 H 220.941 2.39132 0.95778 0
M  V30 2377 H 220.899 1.79552 2.58086 0
M  V30 2378 N 224.671 0.411399 1.52136 0
M  V30 2379 C 225.917 -0.163888 2.02137 0
M  V30 2380 C 226.25 -1.44597 1.29636 0
M  V30 2381 O 225.525 -1.90272 0.403353 0
M  V30 2382 C 225.808 -0.40927 3.57767 0
M  V30 2383 C 225.661 0.889643 4.40914 0
M  V30 2384 C 226.98 -1.19042 4.23694 0
M  V30 2385 H 224.099 -0.0580896 0.734707 0
M  V30 2386 H 226.741 0.54531 1.82007 0
M  V30 2387 H 224.891 -1.0134 3.7505 0
M  V30 2388 H 226.563 1.52575 4.35337 0
M  V30 2389 H 224.806 1.50011 4.07037 0
M  V30 2390 H 225.477 0.672314 5.4789 0
M  V30 2391 H 227.953 -0.678942 4.10524 0
M  V30 2392 H 226.829 -1.33086 5.32522 0
M  V30 2393 H 227.09 -2.21166 3.82803 0
M  V30 2394 N 226.149 -1.5696 0.141893 0
M  V30 2395 C 227.099 -2.13074 -0.811383 0
M  V30 2396 C 228.083 -1.05726 -1.21288 0
M  V30 2397 O 229.275 -1.31914 -1.18015 0
M  V30 2398 C 226.404 -2.75186 -2.0525 0
M  V30 2399 C 225.49 -3.8965 -1.67432 0
M  V30 2400 N 225.881 -4.95733 -1.0041 0
M  V30 2401 C 224.179 -4.00262 -1.96739 0
M  V30 2402 C 224.88 -5.75858 -0.822345 0
M  V30 2403 N 223.856 -5.26452 -1.3546 0
M  V30 2404 H 227.658 -2.92465 -0.290031 0
M  V30 2405 H 225.172 -1.6229 -0.0598218 0
M  V30 2406 H 227.169 -3.13745 -2.74535 0
M  V30 2407 H 225.829 -1.97266 -2.57907 0
M  V30 2408 H 226.84 -5.13607 -0.665441 0
M  V30 2409 H 223.517 -3.33412 -2.51282 0
M  V30 2410 H 224.907 -6.71254 -0.294496 0
M  V30 2411 N 227.627 0.131896 -1.57047 0
M  V30 2412 C 228.557 1.16384 -2.02428 0
M  V30 2413 C 229.538 1.43936 -0.90644 0
M  V30 2414 O 230.723 1.54599 -1.17528 0
M  V30 2415 C 227.853 2.49328 -2.4177 0
M  V30 2416 C 226.807 2.36266 -3.56879 0
M  V30 2417 C 226.133 3.74057 -3.8208 0
M  V30 2418 C 227.433 1.834 -4.89042 0
M  V30 2419 H 229.127 0.786433 -2.88887 0
M  V30 2420 H 226.673 0.376855 -1.38981 0
M  V30 2421 H 228.626 3.21759 -2.7212 0
M  V30 2422 H 227.35 2.88934 -1.52266 0
M  V30 2423 H 226.009 1.66286 -3.26718 0
M  V30 2424 H 225.657 4.11125 -2.89803 0
M  V30 2425 H 225.357 3.66174 -4.59554 0
M  V30 2426 H 226.881 4.48012 -4.1487 0
M  V30 2427 H 228.295 2.45636 -5.18011 0
M  V30 2428 H 226.692 1.8637 -5.70426 0
M  V30 2429 H 227.762 0.790662 -4.7841 0
M  V30 2430 N 229.106 1.52395 0.401703 0
M  V30 2431 C 230.036 1.79231 1.49661 0
M  V30 2432 C 231.017 0.643654 1.57452 0
M  V30 2433 O 232.202 0.889989 1.72606 0
M  V30 2434 C 229.332 1.94971 2.87409 0
M  V30 2435 C 228.286 3.10604 2.94465 0
M  V30 2436 C 227.612 3.11577 4.34538 0
M  V30 2437 C 228.912 4.49921 2.6527 0
M  V30 2438 H 230.606 2.70917 1.27454 0
M  V30 2439 H 228.152 1.30362 0.6117 0
M  V30 2440 H 230.105 2.12328 3.63999 0
M  V30 2441 H 228.829 0.999632 3.10926 0
M  V30 2442 H 227.488 2.93009 2.20321 0
M  V30 2443 H 227.136 2.14277 4.55076 0
M  V30 2444 H 226.836 3.89247 4.40183 0
M  V30 2445 H 228.36 3.31073 5.13053 0
M  V30 2446 H 229.774 4.67683 3.31581 0
M  V30 2447 H 228.171 5.29564 2.82281 0
M  V30 2448 H 229.241 4.57507 1.60671 0
M  V30 2449 N 230.584 -0.659388 1.43143 0
M  V30 2450 C 231.832 -1.41654 1.44147 0
M  V30 2451 C 232.153 -1.94893 0.0645739 0
M  V30 2452 O 231.423 -1.74044 -0.899198 0
M  V30 2453 H 230.003 -0.525708 0.530697 0
M  V30 2454 H 232.665 -0.778097 1.78694 0
M  V30 2455 H 231.761 -2.26195 2.1504 0
M  V30 2456 N 232.062 -1.29571 -0.897171 0
M  V30 2457 C 233.292 -1.20408 -1.67886 0
M  V30 2458 C 233.7 0.237429 -1.87704 0
M  V30 2459 O 233.043 1.17048 -1.41582 0
M  V30 2460 C 233.105 -1.84887 -3.08314 0
M  V30 2461 C 232.769 -3.34189 -3.11716 0
M  V30 2462 C 233.766 -4.30374 -2.91675 0
M  V30 2463 C 231.451 -3.75431 -3.33701 0
M  V30 2464 C 233.445 -5.65776 -2.93557 0
M  V30 2465 C 231.132 -5.10955 -3.35214 0
M  V30 2466 C 232.13 -6.05938 -3.15164 0
M  V30 2467 O 231.818 -7.38987 -3.1647 0
M  V30 2468 H 231.55 -0.418289 -0.531046 0
M  V30 2469 H 234.104 -1.71514 -1.13014 0
M  V30 2470 H 232.334 -1.28295 -3.64798 0
M  V30 2471 H 234.023 -1.70011 -3.6858 0
M  V30 2472 H 234.789 -3.99844 -2.74499 0
M  V30 2473 H 230.668 -3.01953 -3.48347 0
M  V30 2474 H 234.212 -6.39889 -2.77826 0
M  V30 2475 H 230.109 -5.4113 -3.51922 0
M  V30 2476 H 230.877 -7.47823 -3.3272 0
M  V30 2477 N 233.54 1.10788 -1.12088 0
M  V30 2478 C 234.765 1.87002 -0.896949 0
M  V30 2479 C 235.19 1.79933 0.548261 0
M  V30 2480 O 234.548 1.16662 1.38779 0
M  V30 2481 C 234.596 3.3349 -1.37174 0
M  V30 2482 O 233.7 4.08745 -0.547831 0
M  V30 2483 H 233.041 0.580397 -0.322545 0
M  V30 2484 H 235.571 1.39996 -1.49206 0
M  V30 2485 H 235.581 3.84339 -1.36922 0
M  V30 2486 H 234.256 3.37951 -2.42408 0
M  V30 2487 H 232.833 3.6776 -0.617034 0
M  V30 2488 N 235.018 0.912232 1.28515 0
M  V30 2489 C 235.948 0.416403 2.29757 0
M  V30 2490 C 236.929 -0.515194 1.6211 0
M  V30 2491 O 238.114 -0.423253 1.89532 0
M  V30 2492 C 235.244 -0.34572 3.45575 0
M  V30 2493 C 234.198 0.496599 4.25109 0
M  V30 2494 C 233.524 -0.393771 5.33248 0
M  V30 2495 C 234.824 1.75307 4.92001 0
M  V30 2496 H 236.518 1.26249 2.7148 0
M  V30 2497 H 234.064 0.608515 1.30511 0
M  V30 2498 H 236.017 -0.703422 4.15488 0
M  V30 2499 H 234.741 -1.2257 3.02728 0
M  V30 2500 H 233.4 0.8368 3.56922 0
M  V30 2501 H 233.048 -1.27225 4.86644 0
M  V30 2502 H 232.748 0.166209 5.87365 0
M  V30 2503 H 234.272 -0.747389 6.06009 0
M  V30 2504 H 235.686 1.46437 5.54283 0
M  V30 2505 H 234.083 2.25534 5.56106 0
M  V30 2506 H 235.153 2.48176 4.16577 0
M  V30 2507 N 236.496 -1.42363 0.676048 0
M  V30 2508 C 237.744 -2.01123 0.198437 0
M  V30 2509 C 238.065 -1.53731 -1.19966 0
M  V30 2510 O 237.335 -0.759518 -1.80577 0
M  V30 2511 H 235.915 -0.743678 0.0703721 0
M  V30 2512 H 238.577 -1.74263 0.872837 0
M  V30 2513 H 237.673 -3.11454 0.200686 0
M  V30 2514 N 237.974 -0.419461 -1.51915 0
M  V30 2515 C 238.937 0.389116 -2.25873 0
M  V30 2516 C 239.937 0.964924 -1.28631 0
M  V30 2517 O 241.127 0.842179 -1.52489 0
M  V30 2518 C 238.259 1.54874 -3.03689 0
M  V30 2519 H 239.452 -0.258799 -2.98781 0
M  V30 2520 H 237.005 -0.172209 -1.55348 0
M  V30 2521 H 237.74 2.23323 -2.35154 0
M  V30 2522 H 237.525 1.14223 -3.75094 0
M  V30 2523 H 239.015 2.12046 -3.59759 0
M  V30 2524 N 239.452 1.56882 -0.150215 0
M  V30 2525 C 240.402 2.13501 0.800071 0
M  V30 2526 C 241.386 1.06368 1.20726 0
M  V30 2527 O 242.578 1.32538 1.17314 0
M  V30 2528 C 239.707 2.76271 2.03787 0
M  V30 2529 C 238.793 3.90533 1.65364 0
M  V30 2530 N 239.184 4.96259 0.977794 0
M  V30 2531 C 237.482 4.013 1.94613 0
M  V30 2532 C 238.183 5.76286 0.791794 0
M  V30 2533 N 237.159 5.27163 1.32666 0
M  V30 2534 H 240.961 2.92615 0.274517 0
M  V30 2535 H 238.475 1.62319 0.0512144 0
M  V30 2536 H 240.472 3.15197 2.72867 0
M  V30 2537 H 239.132 1.98631 2.56857 0
M  V30 2538 H 240.143 5.13953 0.638193 0
M  V30 2539 H 236.82 3.3474 2.4951 0
M  V30 2540 H 238.21 6.71401 0.258894 0
M  V30 2541 N 240.93 -0.123565 1.57115 0
M  V30 2542 C 241.893 -1.13583 1.99076 0
M  V30 2543 C 242.893 -1.34564 0.880296 0
M  V30 2544 O 244.083 -1.31158 1.14644 0
M  V30 2545 C 241.215 -2.49128 2.32698 0
M  V30 2546 H 242.408 -0.775287 2.89706 0
M  V30 2547 H 239.961 -0.36771 1.51913 0
M  V30 2548 H 240.696 -2.90111 1.44934 0
M  V30 2549 H 240.481 -2.35255 3.13684 0
M  V30 2550 H 241.971 -3.2199 2.65918 0
M  V30 2551 N 242.408 -1.52605 -0.393616 0
M  V30 2552 C 243.371 -1.76415 -1.46323 0
M  V30 2553 C 244.371 -0.634126 -1.47768 0
M  V30 2554 O 245.561 -0.902142 -1.4902 0
M  V30 2555 C 242.693 -1.8607 -2.85641 0
M  V30 2556 H 243.886 -2.71916 -1.26498 0
M  V30 2557 H 241.439 -1.43257 -0.625073 0
M  V30 2558 H 242.174 -0.925378 -3.10817 0
M  V30 2559 H 241.959 -2.68235 -2.85993 0
M  V30 2560 H 243.449 -2.06179 -3.63153 0
M  V30 2561 N 243.887 0.651787 -1.4349 0
M  V30 2562 C 245.135 1.40888 -1.44897 0
M  V30 2563 C 245.456 1.94856 -0.0749086 0
M  V30 2564 O 244.726 1.74518 0.889956 0
M  V30 2565 H 243.306 0.522887 -0.533478 0
M  V30 2566 H 245.968 0.768609 -1.79104 0
M  V30 2567 H 245.064 2.25052 -2.16236 0
M  V30 2568 N 245.365 1.30045 0.890287 0
M  V30 2569 C 246.614 1.17929 1.63633 0
M  V30 2570 C 246.927 -0.266204 1.9378 0
M  V30 2571 O 248.133 -0.508804 2.6669 0
M  V30 2572 C 246.589 2.06317 2.94892 0
M  V30 2573 C 246.197 3.55745 2.72305 0
M  V30 2574 C 247.941 2.0295 3.72843 0
M  V30 2575 C 245.848 4.36205 3.99348 0
M  V30 2576 H 244.778 0.437782 0.613892 0
M  V30 2577 H 247.429 1.54754 0.986075 0
M  V30 2578 H 245.811 1.6237 3.61182 0
M  V30 2579 H 246.985 4.07805 2.1455 0
M  V30 2580 H 245.3 3.6088 2.07737 0
M  V30 2581 H 247.897 2.60319 4.67053 0
M  V30 2582 H 248.24 1.0117 4.0382 0
M  V30 2583 H 248.773 2.4499 3.13408 0
M  V30 2584 H 245.512 5.38659 3.73533 0
M  V30 2585 H 245.032 3.8891 4.56628 0
M  V30 2586 H 246.711 4.47362 4.67415 0
M  V30 2587 N 246.843 -1.10192 1.12674 0
M  V30 2588 C 247.806 -2.14786 0.799979 0
M  V30 2589 C 248.806 -1.59711 -0.18685 0
M  V30 2590 O 249.996 -1.74156 0.0392558 0
M  V30 2591 C 247.128 -3.40374 0.189228 0
M  V30 2592 H 248.321 -2.45203 1.72671 0
M  V30 2593 H 245.874 -1.25597 0.930326 0
M  V30 2594 H 246.609 -3.15577 -0.747107 0
M  V30 2595 H 246.394 -3.81637 0.899766 0
M  V30 2596 H 247.884 -4.17594 -0.0228143 0
M  V30 2597 N 248.321 -0.919034 -1.28029 0
M  V30 2598 C 249.569 -0.553838 -1.94363 0
M  V30 2599 C 249.89 0.906357 -1.72656 0
M  V30 2600 O 249.16 1.64143 -1.0693 0
M  V30 2601 H 247.74 -0.201834 -0.719216 0
M  V30 2602 H 250.402 -1.16954 -1.55909 0
M  V30 2603 H 249.498 -0.752758 -3.02886 0
M  V30 2604 N 249.799 1.42003 -0.683588 0
M  V30 2605 C 251.024 2.06265 -0.216647 0
M  V30 2606 C 251.449 1.51059 1.12083 0
M  V30 2607 O 250.807 0.632638 1.69904 0
M  V30 2608 C 250.855 3.60191 -0.171759 0
M  V30 2609 O 249.959 4.03396 0.857069 0
M  V30 2610 H 249.3 0.65502 -0.108834 0
M  V30 2611 H 251.83 1.81982 -0.935077 0
M  V30 2612 H 251.84 4.08 0.0014303 0
M  V30 2613 H 250.515 3.99743 -1.14796 0
M  V30 2614 H 249.092 3.67117 0.654208 0
M  V30 2615 N 251.277 0.427512 1.51691 0
M  V30 2616 C 252.207 -0.3796 2.30394 0
M  V30 2617 C 253.188 -1.02982 1.35384 0
M  V30 2618 O 254.373 -1.03534 1.643 0
M  V30 2619 C 251.503 -1.48649 3.1388 0
M  V30 2620 C 250.457 -0.960294 4.17088 0
M  V30 2621 C 249.783 -2.16219 4.89033 0
M  V30 2622 C 251.083 -0.00153679 5.223 0
M  V30 2623 H 252.777 0.277164 2.98114 0
M  V30 2624 H 250.323 0.134739 1.43368 0
M  V30 2625 H 252.276 -2.05826 3.67714 0
M  V30 2626 H 251 -2.1714 2.43962 0
M  V30 2627 H 249.659 -0.410806 3.64291 0
M  V30 2628 H 249.307 -2.83307 4.15628 0
M  V30 2629 H 249.007 -1.81654 5.58816 0
M  V30 2630 H 250.531 -2.73968 5.45687 0
M  V30 2631 H 251.945 -0.482687 5.71264 0
M  V30 2632 H 250.342 0.256199 5.99553 0
M  V30 2633 H 251.412 0.938174 4.75738 0
M  V30 2634 N 252.755 -1.56801 0.158532 0
M  V30 2635 C 253.983 -2.00859 -0.496303 0
M  V30 2636 C 254.398 -1.03871 -1.57659 0
M  V30 2637 O 253.755 -0.0375165 -1.82461 0
M  V30 2638 C 253.806 -3.4479 -1.08638 0
M  V30 2639 O 253.527 -4.38072 -0.0492322 0
M  V30 2640 C 255.028 -4.04185 -1.8207 0
M  V30 2641 H 252.248 -0.65864 -0.128199 0
M  V30 2642 H 254.792 -2.02885 0.256506 0
M  V30 2643 H 252.947 -3.43579 -1.78975 0
M  V30 2644 H 253.361 -5.2227 -0.483102 0
M  V30 2645 H 254.835 -5.06857 -2.18633 0
M  V30 2646 H 255.312 -3.45549 -2.71095 0
M  V30 2647 H 255.918 -4.0906 -1.16405 0
M  V30 2648 N 254.233 0.115231 -1.57178 0
M  V30 2649 C 255.181 1.16014 -2.01602 0
M  V30 2650 C 256.175 1.42653 -0.913587 0
M  V30 2651 O 257.381 1.42571 -1.09879 0
M  V30 2652 H 253.756 0.391252 -0.642204 0
M  V30 2653 H 255.727 0.758998 -2.88586 0
M  V30 2654 C 254.476 2.47767 -2.4394 0
M  V30 2655 H 253.799 2.28108 -3.28339 0
M  V30 2656 H 255.239 3.19432 -2.78818 0
M  V30 2657 C 253.698 3.10617 -1.30455 0
M  V30 2658 O 254.228 3.96846 -0.622585 0
M  V30 2659 N 252.434 2.70553 -1.06064 0
M  V30 2660 H 251.981 2.00527 -1.61699 0
M  V30 2661 H 251.939 3.12934 -0.303284 0
M  V30 2662 N 255.711 1.52812 0.385517 0
M  V30 2663 C 256.658 1.77838 1.47113 0
M  V30 2664 C 257.628 0.621757 1.54024 0
M  V30 2665 O 258.813 0.861846 1.70226 0
M  V30 2666 C 255.953 1.95618 2.84302 0
M  V30 2667 C 255.066 3.23316 2.86515 0
M  V30 2668 C 254.201 3.31394 4.15152 0
M  V30 2669 C 253.24 4.53201 4.1143 0
M  V30 2670 N 252.377 4.58542 5.3168 0
M  V30 2671 H 257.217 2.70482 1.25073 0
M  V30 2672 H 254.754 1.34006 0.606692 0
M  V30 2673 H 256.712 2.03912 3.63972 0
M  V30 2674 H 255.342 1.06331 3.04784 0
M  V30 2675 H 254.394 3.24076 1.99195 0
M  V30 2676 H 255.706 4.13045 2.79634 0
M  V30 2677 H 254.86 3.3889 5.03228 0
M  V30 2678 H 253.599 2.39645 4.24761 0
M  V30 2679 H 252.604 4.45827 3.21742 0
M  V30 2680 H 253.829 5.46271 4.03442 0
M  V30 2681 H 251.775 3.69686 5.41912 0
M  V30 2682 H 251.692 5.42148 5.26889 0
M  V30 2683 H 252.96 4.70296 6.21644 0
M  V30 2684 N 257.189 -0.644168 1.43834 0
M  V30 2685 C 258.136 -1.75671 1.49694 0
M  V30 2686 C 259.106 -1.6246 0.345809 0
M  V30 2687 O 260.291 -1.82573 0.554234 0
M  V30 2688 C 257.431 -3.13867 1.43463 0
M  V30 2689 C 256.544 -3.38147 2.6885 0
M  V30 2690 C 255.679 -4.66241 2.54544 0
M  V30 2691 C 254.718 -4.83657 3.75157 0
M  V30 2692 N 253.855 -6.03016 3.59605 0
M  V30 2693 H 258.695 -1.69998 2.44754 0
M  V30 2694 H 256.232 -0.829458 1.21484 0
M  V30 2695 H 258.19 -3.9377 1.37843 0
M  V30 2696 H 256.82 -3.18588 0.519783 0
M  V30 2697 H 255.872 -2.52276 2.84712 0
M  V30 2698 H 257.184 -3.46899 3.58417 0
M  V30 2699 H 256.338 -5.54285 2.46683 0
M  V30 2700 H 255.077 -4.59826 1.62516 0
M  V30 2701 H 254.082 -3.94046 3.83416 0
M  V30 2702 H 255.307 -4.91896 4.68204 0
M  V30 2703 H 253.253 -5.97715 2.7032 0
M  V30 2704 H 253.17 -6.12766 4.42779 0
M  V30 2705 H 254.438 -6.93657 3.55613 0
M  V30 2706 N 258.668 -1.30515 -0.883378 0
M  V30 2707 C 259.914 -1.19607 -1.63774 0
M  V30 2708 C 260.247 0.248314 -1.92606 0
M  V30 2709 O 259.522 1.17742 -1.54813 0
M  V30 2710 C 259.805 -2.02669 -2.97653 0
M  V30 2711 C 259.658 -3.55335 -2.75784 0
M  V30 2712 C 260.977 -1.86573 -3.98596 0
M  V30 2713 H 258.096 -0.435856 -0.594305 0
M  V30 2714 H 260.738 -1.60165 -1.02212 0
M  V30 2715 H 258.888 -1.68208 -3.50197 0
M  V30 2716 H 260.56 -3.99863 -2.30016 0
M  V30 2717 H 258.803 -3.79438 -2.1026 0
M  V30 2718 H 259.474 -4.08745 -3.70988 0
M  V30 2719 H 261.95 -2.16703 -3.55217 0
M  V30 2720 H 260.826 -2.47014 -4.90179 0
M  V30 2721 H 261.087 -0.825321 -4.34328 0
M  V30 2722 N 260.146 1.09593 -1.13257 0
M  V30 2723 C 261.094 2.18271 -0.803783 0
M  V30 2724 C 262.088 1.68054 0.213148 0
M  V30 2725 O 263.294 1.79862 0.0704699 0
M  V30 2726 H 259.669 0.711949 -0.242143 0
M  V30 2727 H 261.64 2.43235 -1.72856 0
M  V30 2728 C 260.389 3.46536 -0.28424 0
M  V30 2729 H 259.712 3.85545 -1.05807 0
M  V30 2730 H 261.152 4.23899 -0.0925945 0
M  V30 2731 C 259.611 3.22036 0.989684 0
M  V30 2732 O 260.141 3.44509 2.06584 0
M  V30 2733 N 258.347 2.7565 0.920086 0
M  V30 2734 H 257.894 2.57562 0.0442019 0
M  V30 2735 H 257.852 2.59635 1.77306 0
M  V30 2736 N 261.624 0.925811 1.2754 0
M  V30 2737 C 263.04 0.625767 1.46821 0
M  V30 2738 C 263.24 -0.825506 1.83814 0
M  V30 2739 O 262.296 -1.60356 1.95044 0
M  V30 2740 C 263.609 1.57402 2.56213 0
M  V30 2741 C 265.157 1.58204 2.70075 0
M  V30 2742 C 265.632 2.51721 3.82623 0
M  V30 2743 N 267.123 2.49917 3.89994 0
M  V30 2744 C 267.858 3.18968 4.76494 0
M  V30 2745 N 267.354 3.97391 5.67496 0
M  V30 2746 N 269.147 3.07996 4.70208 0
M  V30 2747 H 261.298 1.86409 1.01811 0
M  V30 2748 H 263.561 0.800213 0.508295 0
M  V30 2749 H 263.267 2.60925 2.35819 0
M  V30 2750 H 263.141 1.31428 3.53563 0
M  V30 2751 H 265.528 0.554124 2.89851 0
M  V30 2752 H 265.609 1.88226 1.73218 0
M  V30 2753 H 265.253 3.54622 3.63601 0
M  V30 2754 H 265.183 2.18996 4.78903 0
M  V30 2755 H 267.674 1.9296 3.24923 0
M  V30 2756 H 267.987 4.4707 6.30356 0
M  V30 2757 H 266.332 4.01495 5.67298 0
M  V30 2758 H 269.523 2.46223 3.9811 0
M  V30 2759 H 269.696 3.6208 5.37403 0
M  V30 2760 N 263.102 -1.41638 0.69111 0
M  V30 2761 C 264.351 -2.00526 0.217318 0
M  V30 2762 C 264.664 -1.55353 -1.18848 0
M  V30 2763 O 265.87 -2.06769 -1.75951 0
M  V30 2764 C 264.326 -3.58313 0.337639 0
M  V30 2765 C 263.934 -4.12469 1.74852 0
M  V30 2766 C 265.678 -4.24431 -0.0766066 0
M  V30 2767 C 263.585 -5.62675 1.82074 0
M  V30 2768 H 262.515 -0.750008 0.0774893 0
M  V30 2769 H 265.166 -1.6217 0.858661 0
M  V30 2770 H 263.548 -3.9425 -0.371879 0
M  V30 2771 H 264.722 -3.8796 2.48644 0
M  V30 2772 H 263.037 -3.58861 2.11205 0
M  V30 2773 H 265.634 -5.34683 -0.0430284 0
M  V30 2774 H 265.977 -4.01101 -1.1146 0
M  V30 2775 H 266.51 -3.93512 0.582476 0
M  V30 2776 H 263.249 -5.90826 2.83911 0
M  V30 2777 H 262.769 -5.89124 1.12661 0
M  V30 2778 H 264.448 -6.27371 1.58159 0
M  V30 2779 N 264.58 -0.43555 -1.51462 0
M  V30 2780 C 265.808 0.130242 -2.0649 0
M  V30 2781 C 266.223 1.36614 -1.30315 0
M  V30 2782 O 265.58 1.78869 -0.362223 0
M  V30 2783 C 265.631 0.454253 -3.58635 0
M  V30 2784 O 265.352 -0.73259 -4.31931 0
M  V30 2785 C 266.853 1.07091 -4.3017 0
M  V30 2786 H 264.073 0.00871669 -0.670943 0
M  V30 2787 H 266.617 -0.614117 -1.95061 0
M  V30 2788 H 264.772 1.14851 -3.69984 0
M  V30 2789 H 265.186 -0.455787 -5.22516 0
M  V30 2790 H 266.66 1.24764 -5.37716 0
M  V30 2791 H 267.137 2.05144 -3.88346 0
M  V30 2792 H 267.743 0.416089 -4.2326 0
M  V30 2793 N 266.058 1.56714 -0.166846 0
M  V30 2794 C 267.306 1.96358 0.478305 0
M  V30 2795 C 267.627 1.0537 1.6408 0
M  V30 2796 O 266.897 0.119154 1.95537 0
M  V30 2797 H 265.477 0.725065 0.179692 0
M  V30 2798 H 268.139 1.93329 -0.246985 0
M  V30 2799 H 267.235 3.00547 0.841292 0
M  V30 2800 N 267.536 -0.106894 1.57237 0
M  V30 2801 C 268.466 -1.13148 2.04254 0
M  V30 2802 C 269.447 -1.42476 0.929224 0
M  V30 2803 O 270.632 -1.52709 1.19973 0
M  V30 2804 C 267.762 -2.4545 2.45706 0
M  V30 2805 C 266.716 -2.30558 3.60592 0
M  V30 2806 C 266.042 -3.67931 3.87983 0
M  V30 2807 C 267.342 -1.75597 4.91897 0
M  V30 2808 H 269.036 -0.740374 2.90101 0
M  V30 2809 H 266.582 -0.354696 1.39563 0
M  V30 2810 H 268.535 -3.17389 2.77205 0
M  V30 2811 H 267.259 -2.86475 1.56843 0
M  V30 2812 H 265.918 -1.61067 3.29322 0
M  V30 2813 H 265.566 -4.06462 2.96306 0
M  V30 2814 H 265.266 -3.58817 4.65322 0
M  V30 2815 H 266.79 -4.41356 4.21945 0
M  V30 2816 H 268.204 -2.37364 5.21854 0
M  V30 2817 H 266.601 -1.77272 5.73319 0
M  V30 2818 H 267.671 -0.714451 4.79608 0
M  V30 2819 N 269.014 -1.53014 -0.377408 0
M  V30 2820 C 270.291 -1.59215 -1.13622 0
M  V30 2821 C 270.671 -0.392407 -2.07421 0
M  V30 2822 O 270.019 0.618342 -2.19975 0
M  V30 2823 C 270.229 -2.93669 -1.88573 0
M  V30 2824 C 271.577 -3.47822 -2.43526 0
M  V30 2825 O 272.601 -2.9562 -1.98715 0
M  V30 2826 O 271.46 -4.39055 -3.25412 0
M  V30 2827 H 268.554 -0.642625 -0.52054 0
M  V30 2828 H 271.1 -1.65353 -0.381625 0
M  V30 2829 H 269.872 -3.7243 -1.20048 0
M  V30 2830 H 269.495 -2.90968 -2.70968 0
M  V30 2831 N 270.492 0.636531 -1.44174 0
M  V30 2832 C 271.903 1.21806 -1.41493 0
M  V30 2833 C 272.254 1.95785 -0.1275 0
M  V30 2834 O 271.379 2.02147 0.772376 0
M  V30 2835 C 271.974 2.21551 -2.56321 0
M  V30 2836 C 270.533 2.75143 -2.56853 0
M  V30 2837 C 269.68 1.50052 -2.33195 0
M  V30 2838 H 272.631 0.427531 -1.52833 0
M  V30 2839 H 272.652 3.0405 -2.28765 0
M  V30 2840 H 272.164 1.67679 -3.50008 0
M  V30 2841 H 270.265 3.33033 -1.67093 0
M  V30 2842 H 270.378 3.2155 -3.55165 0
M  V30 2843 H 268.742 1.77993 -1.82183 0
M  V30 2844 H 269.525 0.980903 -3.28988 0
M  V30 2845 N 271.97 1.30982 0.876444 0
M  V30 2846 C 272.933 1.18054 1.96459 0
M  V30 2847 C 273.933 0.109399 1.60427 0
M  V30 2848 O 275.123 0.358173 1.70478 0
M  V30 2849 C 272.255 0.810616 3.31122 0
M  V30 2850 H 273.448 2.14735 2.09354 0
M  V30 2851 H 271.001 1.145 1.06392 0
M  V30 2852 H 271.736 -0.155322 3.23928 0
M  V30 2853 H 271.521 1.58481 3.58645 0
M  V30 2854 H 273.011 0.743876 4.10921 0
M  V30 2855 N 273.449 -1.08991 1.13837 0
M  V30 2856 C 274.697 -1.80899 0.901098 0
M  V30 2857 C 275.018 -1.86356 -0.574134 0
M  V30 2858 O 274.288 -1.35235 -1.41733 0
M  V30 2859 H 272.868 -0.669966 0.330386 0
M  V30 2860 H 275.53 -1.318 1.43578 0
M  V30 2861 H 274.626 -2.83929 1.29578 0
M  V30 2862 N 274.927 -0.932562 -1.27047 0
M  V30 2863 C 276.338 -0.619451 -1.76124 0
M  V30 2864 C 276.689 0.865397 -1.76083 0
M  V30 2865 O 275.814 1.67722 -1.36742 0
M  V30 2866 C 276.409 -1.11771 -3.19832 0
M  V30 2867 C 274.968 -0.855174 -3.66557 0
M  V30 2868 C 274.115 -1.27362 -2.46321 0
M  V30 2869 H 277.066 -1.11181 -1.13245 0
M  V30 2870 H 277.087 -0.46759 -3.77616 0
M  V30 2871 H 276.599 -2.19842 -3.1983 0
M  V30 2872 H 274.7 0.211524 -3.71999 0
M  V30 2873 H 274.813 -1.47613 -4.55793 0
M  V30 2874 H 273.177 -0.692119 -2.45116 0
M  V30 2875 H 273.96 -2.36307 -2.49025 0
M  V30 2876 N 276.405 1.4127 -0.698611 0
M  V30 2877 C 277.353 2.32588 -0.023855 0
M  V30 2878 C 278.347 1.51128 0.765292 0
M  V30 2879 O 279.553 1.67043 0.670571 0
M  V30 2880 H 275.928 0.751918 0.0110871 0
M  V30 2881 H 277.899 2.87167 -0.811031 0
M  V30 2882 C 276.648 3.35947 0.896369 0
M  V30 2883 H 275.971 3.98684 0.298548 0
M  V30 2884 H 277.411 4.02376 1.33676 0
M  V30 2885 C 275.87 2.70076 2.01396 0
M  V30 2886 O 276.4 2.55093 3.10307 0
M  V30 2887 N 274.606 2.28724 1.79259 0
M  V30 2888 H 274.153 2.4111 0.906841 0
M  V30 2889 H 274.111 1.84986 2.54219 0
M  V30 2890 N 277.883 0.443576 1.51229 0
M  V30 2891 C 279.13 -0.120796 2.02139 0
M  V30 2892 C 279.458 -1.42166 1.32736 0
M  V30 2893 O 278.713 -1.90849 0.43301 0
M  V30 2894 C 279.012 -0.380579 3.55368 0
M  V30 2895 C 278.678 0.83523 4.43097 0
M  V30 2896 C 277.34 1.16864 4.66794 0
M  V30 2897 C 279.692 1.64601 4.94526 0
M  V30 2898 C 277.02 2.31339 5.39165 0
M  V30 2899 C 279.372 2.78181 5.68153 0
M  V30 2900 C 278.036 3.11969 5.90112 0
M  V30 2901 H 277.306 -0.0442023 0.73968 0
M  V30 2902 H 279.953 0.592046 1.82118 0
M  V30 2903 H 278.258 -1.17538 3.73754 0
M  V30 2904 H 279.955 -0.830777 3.923 0
M  V30 2905 H 276.545 0.565437 4.24854 0
M  V30 2906 H 280.729 1.40163 4.76097 0
M  V30 2907 H 275.985 2.57823 5.5438 0
M  V30 2908 H 280.159 3.41371 6.06992 0
M  V30 2909 H 277.786 4.00784 6.45969 0
M  V30 2910 N 279.361 -1.56624 0.175154 0
M  V30 2911 C 280.271 -2.21741 -0.766042 0
M  V30 2912 C 281.287 -1.21023 -1.25018 0
M  V30 2913 O 282.463 -1.53697 -1.3015 0
M  V30 2914 C 279.528 -2.84839 -1.97655 0
M  V30 2915 C 278.589 -4.00769 -1.53892 0
M  V30 2916 C 277.822 -4.60849 -2.69173 0
M  V30 2917 O 278.045 -4.19823 -3.86141 0
M  V30 2918 O 276.979 -5.50655 -2.43028 0
M  V30 2919 H 280.805 -3.02738 -0.241585 0
M  V30 2920 H 278.39 -1.49305 -0.053222 0
M  V30 2921 H 280.272 -3.24834 -2.68442 0
M  V30 2922 H 278.947 -2.06836 -2.48999 0
M  V30 2923 H 277.854 -3.65436 -0.80044 0
M  V30 2924 H 279.187 -4.80376 -1.07236 0
M  V30 2925 N 280.839 0.0985539 -1.57292 0
M  V30 2926 C 282.069 0.815135 -1.8984 0
M  V30 2927 C 282.477 1.7297 -0.766679 0
M  V30 2928 O 281.82 1.81698 0.270483 0
M  V30 2929 C 281.882 1.6842 -3.17608 0
M  V30 2930 C 281.546 0.94182 -4.4719 0
M  V30 2931 C 282.543 0.273212 -5.19182 0
M  V30 2932 C 280.228 0.916927 -4.9386 0
M  V30 2933 C 282.222 -0.410361 -6.36078 0
M  V30 2934 C 279.909 0.229567 -6.10669 0
M  V30 2935 C 280.907 -0.432902 -6.81627 0
M  V30 2936 O 280.595 -1.10925 -7.9621 0
M  V30 2937 H 280.327 0.238501 -0.632529 0
M  V30 2938 H 282.881 0.0812659 -2.05239 0
M  V30 2939 H 281.111 2.46022 -2.98345 0
M  V30 2940 H 282.8 2.27704 -3.36015 0
M  V30 2941 H 283.566 0.283927 -4.84168 0
M  V30 2942 H 279.445 1.42201 -4.3852 0
M  V30 2943 H 282.989 -0.928013 -6.914 0
M  V30 2944 H 278.886 0.216686 -6.45136 0
M  V30 2945 H 279.654 -1.01579 -8.12172 0
M  V30 2946 N 282.317 1.53212 0.369288 0
M  V30 2947 C 283.28 1.7872 1.43498 0
M  V30 2948 C 284.28 0.657554 1.46741 0
M  V30 2949 O 285.47 0.925736 1.47566 0
M  V30 2950 C 282.602 1.90591 2.82645 0
M  V30 2951 H 283.795 2.73894 1.22156 0
M  V30 2952 H 281.348 1.44233 0.602203 0
M  V30 2953 H 282.083 0.974709 3.09306 0
M  V30 2954 H 281.868 2.72751 2.8169 0
M  V30 2955 H 283.358 2.11931 3.59826 0
M  V30 2956 N 283.795 -0.628877 1.44509 0
M  V30 2957 C 284.705 -1.7694 1.54044 0
M  V30 2958 C 285.721 -1.68705 0.425987 0
M  V30 2959 O 286.897 -1.89442 0.683656 0
M  V30 2960 C 283.962 -3.13332 1.48405 0
M  V30 2961 C 283.023 -3.33181 2.70719 0
M  V30 2962 C 282.256 -4.63067 2.6534 0
M  V30 2963 O 282.479 -5.44017 1.71469 0
M  V30 2964 O 281.413 -4.85167 3.56226 0
M  V30 2965 H 285.239 -1.71848 2.50403 0
M  V30 2966 H 282.824 -0.790378 1.26781 0
M  V30 2967 H 284.706 -3.94634 1.47791 0
M  V30 2968 H 283.381 -3.1896 0.551898 0
M  V30 2969 H 282.288 -2.51549 2.769 0
M  V30 2970 H 283.621 -3.32416 3.62988 0
M  V30 2971 N 285.273 -1.31445 -0.869486 0
M  V30 2972 C 286.236 -1.19094 -1.9583 0
M  V30 2973 C 287.236 -0.117906 -1.60367 0
M  V30 2974 O 288.426 -0.367208 -1.70286 0
M  V30 2975 C 285.558 -0.828165 -3.30688 0
M  V30 2976 H 286.751 -2.15842 -2.08212 0
M  V30 2977 H 284.304 -1.15063 -1.05784 0
M  V30 2978 H 285.039 0.138142 -3.24006 0
M  V30 2979 H 284.824 -1.6038 -3.578 0
M  V30 2980 H 286.314 -0.765658 -4.10521 0
M  V30 2981 N 286.751 1.08385 -1.14413 0
M  V30 2982 C 288.162 1.62258 -0.923535 0
M  V30 2983 C 288.513 1.88691 0.537595 0
M  V30 2984 O 287.638 1.64454 1.40655 0
M  V30 2985 C 288.233 2.94781 -1.67002 0
M  V30 2986 C 286.792 3.45437 -1.495 0
M  V30 2987 C 285.939 2.19668 -1.69238 0
M  V30 2988 H 288.89 0.916086 -1.2959 0
M  V30 2989 H 288.911 3.63229 -1.13334 0
M  V30 2990 H 288.423 2.7551 -2.73342 0
M  V30 2991 H 286.524 3.6981 -0.455097 0
M  V30 2992 H 286.637 4.22173 -2.2651 0
M  V30 2993 H 285.001 2.28849 -1.11804 0
M  V30 2994 H 285.784 2.02905 -2.7692 0
M  V30 2995 N 288.23 0.939286 1.26551 0
M  V30 2996 C 289.455 0.602008 1.98471 0
M  V30 2997 C 289.88 -0.815624 1.69497 0
M  V30 2998 O 289.238 -1.54912 0.941905 0
M  V30 2999 C 289.286 0.848407 3.50477 0
M  V30 3000 O 288.39 -0.0804009 4.12322 0
M  V30 3001 H 287.731 0.23049 0.622712 0
M  V30 3002 H 290.261 1.2617 1.61066 0
M  V30 3003 H 290.271 0.768553 4.00696 0
M  V30 3004 H 288.946 1.88171 3.70897 0
M  V30 3005 H 287.523 0.0503508 3.72866 0
M  V30 3006 N 289.708 -1.40897 0.706093 0
M  V30 3007 C 291.124 -1.55042 0.37869 0
M  V30 3008 C 291.324 -1.67944 -1.11342 0
M  V30 3009 O 290.38 -1.66372 -1.89938 0
M  V30 3010 C 291.693 -2.78398 1.13643 0
M  V30 3011 C 293.241 -2.92206 1.12181 0
M  V30 3012 C 293.716 -4.18463 1.86152 0
M  V30 3013 N 295.207 -4.25443 1.83173 0
M  V30 3014 C 295.942 -5.2202 2.37239 0
M  V30 3015 N 295.438 -6.24563 2.99821 0
M  V30 3016 N 297.231 -5.14033 2.27435 0
M  V30 3017 H 289.382 -1.30769 1.67372 0
M  V30 3018 H 291.645 -0.631653 0.706907 0
M  V30 3019 H 291.351 -2.7511 2.19106 0
M  V30 3020 H 291.225 -3.70228 0.721853 0
M  V30 3021 H 293.612 -2.95004 0.0754171 0
M  V30 3022 H 293.693 -2.01521 1.57554 0
M  V30 3023 H 293.337 -4.16427 2.90776 0
M  V30 3024 H 293.267 -5.08141 1.38206 0
M  V30 3025 H 295.758 -3.51976 1.37556 0
M  V30 3026 H 296.071 -6.94665 3.38616 0
M  V30 3027 H 294.416 -6.25035 3.03902 0
M  V30 3028 H 297.607 -4.3285 1.78208 0
M  V30 3029 H 297.78 -5.89129 2.69873 0
M  V30 3030 N 291.186 -0.45159 -1.50991 0
M  V30 3031 C 292.116 0.342898 -2.30969 0
M  V30 3032 C 293.097 1.00815 -1.37005 0
M  V30 3033 O 294.282 1.00907 -1.65926 0
M  V30 3034 C 291.412 1.43637 -3.16205 0
M  V30 3035 C 290.366 0.893818 -4.18563 0
M  V30 3036 C 289.692 2.08411 -4.92411 0
M  V30 3037 C 290.992 -0.0815568 -5.22236 0
M  V30 3038 H 292.686 -0.324556 -2.97636 0
M  V30 3039 H 290.232 -0.157531 -1.43136 0
M  V30 3040 H 292.185 1.9995 -3.70942 0
M  V30 3041 H 290.909 2.13232 -2.47386 0
M  V30 3042 H 289.568 0.352798 -3.64898 0
M  V30 3043 H 289.216 2.76658 -4.20082 0
M  V30 3044 H 288.916 1.72741 -5.61636 0
M  V30 3045 H 290.44 2.65251 -5.49976 0
M  V30 3046 H 291.854 0.391742 -5.7196 0
M  V30 3047 H 290.251 -0.351551 -5.99069 0
M  V30 3048 H 291.321 -1.01374 -4.74185 0
M  V30 3049 N 292.664 1.56529 -0.183458 0
M  V30 3050 C 293.889 2.02064 0.467428 0
M  V30 3051 C 294.314 1.06282 1.55196 0
M  V30 3052 O 293.672 0.0443565 1.81246 0
M  V30 3053 C 293.72 3.46122 1.01153 0
M  V30 3054 O 292.824 3.53437 2.12499 0
M  V30 3055 H 292.165 0.654726 0.110588 0
M  V30 3056 H 294.695 2.02521 -0.290917 0
M  V30 3057 H 294.705 3.85676 1.33108 0
M  V30 3058 H 293.38 4.15331 0.217533 0
M  V30 3059 H 291.957 3.2575 1.81497 0
M  V30 3060 N 294.142 -0.090211 1.57342 0
M  V30 3061 C 295.553 -0.644173 1.75235 0
M  V30 3062 C 295.904 -1.78865 0.806335 0
M  V30 3063 O 295.029 -2.16395 -0.0140128 0
M  V30 3064 C 295.624 -1.17532 3.1776 0
M  V30 3065 C 294.183 -1.67531 3.37061 0
M  V30 3066 C 293.33 -0.58693 2.71017 0
M  V30 3067 H 296.281 0.135884 1.58117 0
M  V30 3068 H 296.302 -2.04455 3.20902 0
M  V30 3069 H 295.814 -0.342138 3.86589 0
M  V30 3070 H 293.915 -2.53234 2.73319 0
M  V30 3071 H 294.028 -1.76493 4.45406 0
M  V30 3072 H 292.392 -1.02756 2.33052 0
M  V30 3073 H 293.175 0.235758 3.4249 0
M  V30 3074 N 295.62 -1.53406 -0.361157 0
M  V30 3075 C 296.897 -1.60411 -1.11927 0
M  V30 3076 C 297.277 -0.414385 -2.06993 0
M  V30 3077 O 296.625 0.594976 -2.20618 0
M  V30 3078 C 296.835 -2.95652 -1.85448 0
M  V30 3079 C 298.183 -3.50386 -2.39823 0
M  V30 3080 O 299.207 -2.97711 -1.95568 0
M  V30 3081 O 298.066 -4.42482 -3.20737 0
M  V30 3082 H 295.16 -0.64811 -0.513695 0
M  V30 3083 H 297.706 -1.65749 -0.364065 0
M  V30 3084 H 296.478 -3.73682 -1.16091 0
M  V30 3085 H 296.101 -2.93825 -2.67866 0
M  V30 3086 N 297.098 0.621204 -1.44841 0
M  V30 3087 C 298.375 1.38 -1.38619 0
M  V30 3088 C 298.755 2.11041 -0.0498935 0
M  V30 3089 O 298.103 2.06992 0.967816 0
M  V30 3090 C 298.313 2.33817 -2.59096 0
M  V30 3091 C 299.661 2.96844 -3.03593 0
M  V30 3092 O 300.685 2.44141 -2.59371 0
M  V30 3093 O 299.544 3.92476 -3.80296 0
M  V30 3094 H 296.638 0.61811 -0.549426 0
M  V30 3095 H 299.184 0.645429 -1.56947 0
M  V30 3096 H 297.956 1.79012 -3.47952 0
M  V30 3097 H 297.579 3.14676 -2.43032 0
M  V30 3098 N 298.576 1.31904 0.862503 0
M  V30 3099 C 299.539 1.20131 1.95195 0
M  V30 3100 C 300.539 0.126409 1.60302 0
M  V30 3101 O 301.729 0.376234 1.70089 0
M  V30 3102 C 298.861 0.845691 3.30244 0
M  V30 3103 H 300.054 2.16943 2.07064 0
M  V30 3104 H 297.607 1.15622 1.05172 0
M  V30 3105 H 298.342 -0.120957 3.24074 0
M  V30 3106 H 298.127 1.62276 3.56944 0
M  V30 3107 H 299.617 0.787418 4.10109 0
M  V30 3108 N 300.054 -1.07777 1.14986 0
M  V30 3109 C 301.331 -1.7699 0.832695 0
M  V30 3110 C 301.711 -2.001 -0.672561 0
M  V30 3111 O 301.059 -1.61598 -1.6155 0
M  V30 3112 C 301.269 -3.08139 1.63863 0
M  V30 3113 C 302.617 -3.8256 1.84208 0
M  V30 3114 O 303.641 -3.17939 1.60603 0
M  V30 3115 O 302.5 -4.98612 2.23714 0
M  V30 3116 H 299.594 -0.768389 0.305791 0
M  V30 3117 H 302.14 -1.14182 1.25541 0
M  V30 3118 H 300.912 -2.86909 2.6608 0
M  V30 3119 H 300.535 -3.78678 1.21197 0
M  V30 3120 N 301.532 -0.945985 -1.26051 0
M  V30 3121 C 302.779 -0.596118 -1.93527 0
M  V30 3122 C 303.107 0.865559 -1.74179 0
M  V30 3123 O 302.362 1.63524 -1.0751 0
M  V30 3124 C 302.661 -0.890475 -3.46129 0
M  V30 3125 C 302.327 -2.3368 -3.85622 0
M  V30 3126 C 300.989 -2.73216 -3.96114 0
M  V30 3127 C 303.341 -3.27648 -4.05334 0
M  V30 3128 C 300.669 -4.05806 -4.2372 0
M  V30 3129 C 303.021 -4.59841 -4.3443 0
M  V30 3130 C 301.685 -4.99185 -4.43137 0
M  V30 3131 H 300.955 -0.218135 -0.708165 0
M  V30 3132 H 303.602 -1.1934 -1.49768 0
M  V30 3133 H 301.907 -0.210711 -3.91233 0
M  V30 3134 H 303.604 -0.598478 -3.96509 0
M  V30 3135 H 300.194 -2.02015 -3.78005 0
M  V30 3136 H 304.378 -2.98298 -3.96651 0
M  V30 3137 H 299.634 -4.35945 -4.28675 0
M  V30 3138 H 303.808 -5.32641 -4.48628 0
M  V30 3139 H 301.435 -6.01952 -4.64282 0
M  V30 3140 N 303.011 1.40521 -0.713556 0
M  V30 3141 C 304.257 2.01221 -0.252564 0
M  V30 3142 C 304.59 1.56444 1.1506 0
M  V30 3143 O 303.865 0.783597 1.78017 0
M  V30 3144 C 304.148 3.58582 -0.330332 0
M  V30 3145 C 304.001 4.13437 -1.77173 0
M  V30 3146 C 305.32 4.39079 0.299641 0
M  V30 3147 H 302.439 0.731077 -0.0932471 0
M  V30 3148 H 305.081 1.67026 -0.905673 0
M  V30 3149 H 303.231 3.87844 0.225737 0
M  V30 3150 H 304.903 3.9498 -2.38303 0
M  V30 3151 H 303.146 3.67801 -2.3001 0
M  V30 3152 H 303.817 5.22597 -1.77755 0
M  V30 3153 H 306.293 4.15735 -0.174139 0
M  V30 3154 H 305.169 5.4848 0.214771 0
M  V30 3155 H 305.43 4.19915 1.38288 0
M  V30 3156 N 304.489 0.459591 1.5075 0
M  V30 3157 C 305.766 -0.160371 1.94941 0
M  V30 3158 C 306.146 -1.58048 1.39943 0
M  V30 3159 O 305.494 -2.206 0.595629 0
M  V30 3160 C 305.704 -0.115432 3.48809 0
M  V30 3161 C 307.052 -0.310026 4.23467 0
M  V30 3162 O 308.076 -0.192543 3.55679 0
M  V30 3163 O 306.935 -0.546031 5.43765 0
M  V30 3164 H 304.029 -0.117925 0.818549 0
M  V30 3165 H 306.575 0.519169 1.61563 0
M  V30 3166 H 305.347 0.87652 3.81357 0
M  V30 3167 H 304.97 -0.836928 3.88692 0
M  V30 3168 N 305.967 -1.56429 0.191757 0
M  V30 3169 C 307.213 -1.97777 -0.448554 0
M  V30 3170 C 307.546 -1.07847 -1.61501 0
M  V30 3171 O 306.821 -0.129774 -1.94067 0
M  V30 3172 C 307.104 -3.48362 -0.911906 0
M  V30 3173 C 306.957 -4.4907 0.256136 0
M  V30 3174 C 308.276 -4.02561 -1.77857 0
M  V30 3175 H 305.395 -0.719071 -0.161572 0
M  V30 3176 H 308.037 -1.87896 0.282007 0
M  V30 3177 H 306.187 -3.56914 -1.53442 0
M  V30 3178 H 307.859 -4.5256 0.893733 0
M  V30 3179 H 306.102 -4.24181 0.908436 0
M  V30 3180 H 306.773 -5.51889 -0.11053 0
M  V30 3181 H 309.249 -3.96767 -1.25359 0
M  V30 3182 H 308.125 -5.08301 -2.07174 0
M  V30 3183 H 308.386 -3.47616 -2.73158 0
M  V30 3184 N 307.445 0.0818655 -1.57387 0
M  V30 3185 C 308.375 1.09885 -2.06028 0
M  V30 3186 C 309.356 1.4098 -0.951774 0
M  V30 3187 O 310.541 1.50781 -1.22387 0
M  V30 3188 C 307.671 2.4151 -2.4958 0
M  V30 3189 C 306.625 2.24792 -3.64215 0
M  V30 3190 C 305.951 3.61712 -3.93787 0
M  V30 3191 C 307.251 1.67749 -4.94629 0
M  V30 3192 H 308.945 0.694128 -2.91243 0
M  V30 3193 H 306.491 0.332448 -1.4011 0
M  V30 3194 H 308.444 3.12939 -2.82219 0
M  V30 3195 H 307.168 2.83943 -1.61381 0
M  V30 3196 H 305.827 1.55807 -3.31843 0
M  V30 3197 H 305.475 4.01697 -3.02735 0
M  V30 3198 H 305.175 3.51368 -4.70971 0
M  V30 3199 H 306.699 4.34587 -4.28913 0
M  V30 3200 H 308.113 2.29032 -5.25564 0
M  V30 3201 H 306.51 1.68128 -5.76067 0
M  V30 3202 H 307.58 0.638059 -4.80684 0
M  V30 3203 N 308.923 1.53595 0.353017 0
M  V30 3204 C 309.873 1.77299 1.43349 0
M  V30 3205 C 310.857 0.627884 1.48143 0
M  V30 3206 O 312.049 0.88697 1.53173 0
M  V30 3207 C 309.178 1.97757 2.80619 0
M  V30 3208 C 308.264 3.18305 2.80254 0
M  V30 3209 N 308.655 4.39967 2.49526 0
M  V30 3210 C 306.953 3.19283 3.11407 0
M  V30 3211 C 307.654 5.21772 2.57156 0
M  V30 3212 N 306.63 4.58269 2.92388 0
M  V30 3213 H 310.432 2.68963 1.18474 0
M  V30 3214 H 307.946 1.52391 0.561306 0
M  V30 3215 H 309.943 2.1287 3.58458 0
M  V30 3216 H 308.603 1.07329 3.06448 0
M  V30 3217 H 309.614 4.67482 2.22893 0
M  V30 3218 H 306.291 2.3879 3.4247 0
M  V30 3219 H 307.681 6.2885 2.36638 0
M  V30 3220 N 310.401 -0.613514 1.45168 0
M  V30 3221 C 311.629 -1.39946 1.5239 0
M  V30 3222 C 312.044 -1.88167 0.154531 0
M  V30 3223 O 311.401 -1.61872 -0.842843 0
M  V30 3224 C 311.452 -2.60795 2.50337 0
M  V30 3225 O 311.173 -2.1458 3.81952 0
M  V30 3226 C 312.674 -3.53723 2.67198 0
M  V30 3227 H 309.894 -0.428593 0.516284 0
M  V30 3228 H 312.438 -0.748753 1.903 0
M  V30 3229 H 310.593 -3.21919 2.15515 0
M  V30 3230 H 311.007 -2.93055 4.34993 0
M  V30 3231 H 312.481 -4.35079 3.39721 0
M  V30 3232 H 312.958 -4.0368 1.73029 0
M  V30 3233 H 313.564 -2.98456 3.02992 0
M  V30 3234 N 311.879 -1.3236 -0.855495 0
M  V30 3235 C 313.126 -1.22872 -1.60962 0
M  V30 3236 C 313.454 0.209658 -1.93367 0
M  V30 3237 O 312.709 1.16243 -1.57436 0
M  V30 3238 C 313.008 -2.03275 -2.93963 0
M  V30 3239 C 312.674 -3.5264 -2.80991 0
M  V30 3240 C 311.336 -3.93364 -2.7716 0
M  V30 3241 C 313.688 -4.47626 -2.66983 0
M  V30 3242 C 311.016 -5.27319 -2.572 0
M  V30 3243 C 313.368 -5.81723 -2.48558 0
M  V30 3244 C 312.032 -6.2165 -2.4312 0
M  V30 3245 H 311.302 -0.44962 -0.589001 0
M  V30 3246 H 313.949 -1.63777 -0.992442 0
M  V30 3247 H 312.254 -1.55095 -3.59795 0
M  V30 3248 H 313.951 -1.93303 -3.51333 0
M  V30 3249 H 310.541 -3.20295 -2.84797 0
M  V30 3250 H 314.725 -4.17084 -2.68988 0
M  V30 3251 H 309.981 -5.57311 -2.51424 0
M  V30 3252 H 314.155 -6.5494 -2.36699 0
M  V30 3253 H 311.782 -7.25388 -2.27412 0
M  V30 3254 N 313.357 1.07166 -1.15556 0
M  V30 3255 C 314.585 1.83514 -0.955519 0
M  V30 3256 C 315 1.82163 0.49621 0
M  V30 3257 O 314.357 1.23441 1.34419 0
M  V30 3258 C 314.408 3.30515 -1.46432 0
M  V30 3259 O 314.129 3.31937 -2.85918 0
M  V30 3260 C 315.63 4.23625 -1.30603 0
M  V30 3261 H 312.85 0.578926 -0.339244 0
M  V30 3262 H 315.394 1.35265 -1.53374 0
M  V30 3263 H 313.549 3.76106 -0.928584 0
M  V30 3264 H 313.963 4.23794 -3.09029 0
M  V30 3265 H 315.437 5.24831 -1.71047 0
M  V30 3266 H 315.914 4.38485 -0.250441 0
M  V30 3267 H 316.52 3.83871 -1.83094 0
M  V30 3268 N 314.835 0.952656 1.25548 0
M  V30 3269 C 316.251 0.656769 1.4546 0
M  V30 3270 C 316.451 -0.78633 1.85524 0
M  V30 3271 O 315.507 -1.56183 1.98402 0
M  V30 3272 C 316.82 1.62801 2.52817 0
M  V30 3273 C 318.368 1.63897 2.66659 0
M  V30 3274 C 318.843 2.5978 3.77198 0
M  V30 3275 N 320.334 2.58133 3.84606 0
M  V30 3276 C 321.069 3.29003 4.69621 0
M  V30 3277 N 320.565 4.09339 5.58939 0
M  V30 3278 N 322.358 3.179 4.63569 0
M  V30 3279 H 314.509 1.88526 0.978344 0
M  V30 3280 H 316.772 0.810815 0.491206 0
M  V30 3281 H 316.478 2.65869 2.30232 0
M  V30 3282 H 316.352 1.38898 3.50695 0
M  V30 3283 H 318.739 0.615481 2.8861 0
M  V30 3284 H 318.82 1.91858 1.69187 0
M  V30 3285 H 318.464 3.62254 3.55997 0
M  V30 3286 H 318.394 2.29105 4.7415 0
M  V30 3287 H 320.885 1.99809 3.20757 0
M  V30 3288 H 321.198 4.6034 6.20731 0
M  V30 3289 H 319.543 4.13438 5.58654 0
M  V30 3290 H 322.734 2.54612 3.92798 0
M  V30 3291 H 322.907 3.73398 5.29602 0
M  V30 3292 N 316.313 -1.40141 0.720998 0
M  V30 3293 C 317.561 -2.0039 0.262323 0
M  V30 3294 C 317.882 -1.57469 -1.15015 0
M  V30 3295 O 317.152 -0.816582 -1.78069 0
M  V30 3296 H 315.732 -0.741063 0.093996 0
M  V30 3297 H 318.394 -1.71398 0.927835 0
M  V30 3298 H 317.49 -3.10658 0.299671 0
M  V30 3299 N 317.792 -0.46758 -1.50504 0
M  V30 3300 C 319.017 0.0886943 -2.0721 0
M  V30 3301 C 319.442 1.33057 -1.32956 0
M  V30 3302 O 318.8 1.77354 -0.376197 0
M  V30 3303 C 318.848 0.359202 -3.58806 0
M  V30 3304 O 317.952 1.44034 -3.8643 0
M  V30 3305 H 317.293 -0.0114349 -0.663902 0
M  V30 3306 H 319.823 -0.657613 -1.93744 0
M  V30 3307 H 319.833 0.600742 -4.03553 0
M  V30 3308 H 318.508 -0.548311 -4.1227 0
M  V30 3309 H 317.085 1.18638 -3.53524 0
M  V30 3310 N 319.27 1.56325 -0.20005 0
M  V30 3311 C 320.681 1.8408 0.31167 0
M  V30 3312 C 321.032 1.12087 1.61031 0
M  V30 3313 O 320.157 0.38332 2.12978 0
M  V30 3314 C 320.752 3.33932 0.57226 0
M  V30 3315 C 319.311 3.6208 1.02834 0
M  V30 3316 C 318.458 2.77186 0.079634 0
M  V30 3317 H 321.409 1.52939 -0.423729 0
M  V30 3318 H 321.43 3.52971 1.42096 0
M  V30 3319 H 320.942 3.86303 -0.37308 0
M  V30 3320 H 319.043 3.15147 1.98778 0
M  V30 3321 H 319.156 4.7023 0.917624 0
M  V30 3322 H 317.52 2.47951 0.582448 0
M  V30 3323 H 318.303 3.32347 -0.860238 0
M  V30 3324 N 320.748 -0.0735177 1.57428 0
M  V30 3325 C 321.996 -0.771472 1.86796 0
M  V30 3326 C 322.317 -1.78201 0.791804 0
M  V30 3327 O 321.587 -1.95074 -0.179718 0
M  V30 3328 H 320.167 -0.28791 0.689287 0
M  V30 3329 H 322.829 -0.0500161 1.94836 0
M  V30 3330 H 321.925 -1.28874 2.8425 0
M  V30 3331 N 322.226 -1.5378 -0.344866 0
M  V30 3332 C 323.642 -1.44015 -0.687888 0
M  V30 3333 C 323.842 -0.595834 -1.92489 0
M  V30 3334 O 322.898 -0.0863064 -2.52352 0
M  V30 3335 C 324.211 -2.87481 -0.881758 0
M  V30 3336 C 325.759 -2.97247 -0.980459 0
M  V30 3337 C 326.234 -4.41819 -1.20665 0
M  V30 3338 N 327.725 -4.45339 -1.27389 0
M  V30 3339 C 328.46 -5.54333 -1.46639 0
M  V30 3340 N 327.956 -6.73335 -1.63071 0
M  V30 3341 N 329.749 -5.41944 -1.49176 0
M  V30 3342 H 321.9 -2.07169 0.468475 0
M  V30 3343 H 324.163 -0.93643 0.147655 0
M  V30 3344 H 323.869 -3.51672 -0.0443444 0
M  V30 3345 H 323.743 -3.32352 -1.78388 0
M  V30 3346 H 326.13 -2.33197 -1.8084 0
M  V30 3347 H 326.211 -2.5574 -0.0552713 0
M  V30 3348 H 325.855 -5.06449 -0.383652 0
M  V30 3349 H 325.785 -4.80917 -2.14539 0
M  V30 3350 H 328.276 -3.59585 -1.1622 0
M  V30 3351 H 328.589 -7.52165 -1.77391 0
M  V30 3352 H 326.934 -6.76282 -1.60209 0
M  V30 3353 H 330.125 -4.47932 -1.3592 0
M  V30 3354 H 330.298 -6.26946 -1.63837 0
M  V30 3355 N 323.704 0.605807 -1.45491 0
M  V30 3356 C 324.929 1.39625 -1.53361 0
M  V30 3357 C 325.354 1.87351 -0.167645 0
M  V30 3358 O 324.712 1.60243 0.848051 0
M  V30 3359 C 324.76 2.57559 -2.5238 0
M  V30 3360 O 323.864 3.58248 -2.04285 0
M  V30 3361 H 323.205 0.416771 -0.516912 0
M  V30 3362 H 325.735 0.737103 -1.90861 0
M  V30 3363 H 325.745 3.0478 -2.71244 0
M  V30 3364 H 324.42 2.22171 -3.51586 0
M  V30 3365 H 322.997 3.17664 -1.95305 0
M  V30 3366 N 325.182 1.32811 0.848464 0
M  V30 3367 C 326.431 1.23075 1.59798 0
M  V30 3368 C 326.744 -0.204419 1.94529 0
M  V30 3369 O 327.95 -0.423701 2.68173 0
M  V30 3370 C 326.406 2.15594 2.88179 0
M  V30 3371 C 326.014 3.64228 2.60849 0
M  V30 3372 C 327.758 2.14709 3.66197 0
M  V30 3373 C 325.665 4.48689 3.85269 0
M  V30 3374 H 324.595 0.457091 0.599653 0
M  V30 3375 H 327.246 1.57813 0.936342 0
M  V30 3376 H 325.628 1.73778 3.55833 0
M  V30 3377 H 326.802 4.14424 2.01467 0
M  V30 3378 H 325.117 3.67306 1.96151 0
M  V30 3379 H 327.714 2.75046 4.58534 0
M  V30 3380 H 328.057 1.13966 4.00397 0
M  V30 3381 H 328.59 2.54837 3.05455 0
M  V30 3382 H 325.329 5.5027 3.56207 0
M  V30 3383 H 324.849 4.03241 4.44024 0
M  V30 3384 H 326.528 4.62006 4.52946 0
M  V30 3385 N 326.66 -1.06551 1.16123 0
M  V30 3386 C 327.908 -1.78947 0.939267 0
M  V30 3387 C 328.229 -1.87532 -0.534476 0
M  V30 3388 O 327.499 -1.38211 -1.38833 0
M  V30 3389 H 326.079 -0.662807 0.344523 0
M  V30 3390 H 328.741 -1.28725 1.46342 0
M  V30 3391 H 327.837 -2.81117 1.35572 0
M  V30 3392 N 328.138 -0.959301 -1.25041 0
M  V30 3393 C 329.387 -0.612254 -1.92183 0
M  V30 3394 C 329.7 0.855347 -1.75907 0
M  V30 3395 O 330.906 1.31256 -2.37664 0
M  V30 3396 C 329.362 -1.04435 -3.44414 0
M  V30 3397 C 328.97 -2.53482 -3.69393 0
M  V30 3398 C 330.714 -0.770055 -4.17457 0
M  V30 3399 C 328.621 -2.90468 -5.15153 0
M  V30 3400 H 327.551 -0.225279 -0.719559 0
M  V30 3401 H 330.202 -1.16438 -1.41825 0
M  V30 3402 H 328.584 -0.4206 -3.9376 0
M  V30 3403 H 329.758 -3.20916 -3.30681 0
M  V30 3404 H 328.073 -2.78432 -3.0962 0
M  V30 3405 H 330.67 -1.02249 -5.24832 0
M  V30 3406 H 331.013 0.293611 -4.15263 0
M  V30 3407 H 331.546 -1.35437 -3.74034 0
M  V30 3408 H 328.285 -3.95871 -5.22462 0
M  V30 3409 H 327.805 -2.27711 -5.54894 0
M  V30 3410 H 329.484 -2.79914 -5.83315 0
M  V30 3411 N 329.616 1.39756 -0.72842 0
M  V30 3412 C 330.548 2.29157 -0.0446202 0
M  V30 3413 C 331.561 1.46484 0.710367 0
M  V30 3414 O 332.75 1.69632 0.55562 0
M  V30 3415 C 329.85 3.24987 0.961071 0
M  V30 3416 C 329.023 4.36572 0.268967 0
M  V30 3417 C 328.082 5.12756 1.18184 0
M  V30 3418 O 327.108 5.6534 0.661794 0
M  V30 3419 N 328.31 5.23331 2.51206 0
M  V30 3420 H 331.075 2.88482 -0.812295 0
M  V30 3421 H 328.636 1.51265 -0.577098 0
M  V30 3422 H 330.628 3.72827 1.57423 0
M  V30 3423 H 329.198 2.66739 1.63 0
M  V30 3424 H 328.418 3.90694 -0.524574 0
M  V30 3425 H 329.706 5.08363 -0.210934 0
M  V30 3426 H 329.104 4.82116 2.9594 0
M  V30 3427 H 327.661 5.74634 3.07634 0
M  V30 3428 N 331.094 0.475555 1.50254 0
M  V30 3429 C 332.041 -0.316293 2.28622 0
M  V30 3430 C 333.011 -0.983227 1.33873 0
M  V30 3431 O 334.196 -0.994805 1.62814 0
M  V30 3432 C 331.336 -1.38975 3.1588 0
M  V30 3433 C 330.449 -0.737146 4.25664 0
M  V30 3434 C 329.584 -1.78887 5.00173 0
M  V30 3435 C 328.623 -1.11676 6.01826 0
M  V30 3436 N 327.76 -2.11154 6.69596 0
M  V30 3437 H 332.6 0.358297 2.95838 0
M  V30 3438 H 330.137 0.188541 1.45887 0
M  V30 3439 H 332.095 -2.02383 3.64825 0
M  V30 3440 H 330.725 -2.03344 2.50701 0
M  V30 3441 H 329.777 0.0096065 3.80399 0
M  V30 3442 H 331.089 -0.206816 4.98371 0
M  V30 3443 H 330.243 -2.49865 5.52859 0
M  V30 3444 H 328.982 -2.35302 4.27182 0
M  V30 3445 H 327.987 -0.392633 5.48396 0
M  V30 3446 H 329.212 -0.55945 6.76792 0
M  V30 3447 H 327.158 -2.66577 5.99394 0
M  V30 3448 H 327.075 -1.63118 7.38193 0
M  V30 3449 H 328.343 -2.81497 7.26897 0
M  V30 3450 N 332.573 -1.56217 0.208337 0
M  V30 3451 C 333.984 -1.84243 -0.301904 0
M  V30 3452 C 334.335 -1.12939 -1.60434 0
M  V30 3453 O 333.46 -0.39461 -2.12772 0
M  V30 3454 C 334.055 -3.34231 -0.554543 0
M  V30 3455 C 332.614 -3.62621 -1.00912 0
M  V30 3456 C 331.761 -2.77224 -0.064933 0
M  V30 3457 H 334.712 -1.52712 0.431833 0
M  V30 3458 H 334.733 -3.5372 -1.40223 0
M  V30 3459 H 334.245 -3.86099 0.393561 0
M  V30 3460 H 332.346 -3.16197 -1.97104 0
M  V30 3461 H 332.459 -4.7071 -0.892674 0
M  V30 3462 H 330.823 -2.48256 -0.56929 0
M  V30 3463 H 331.606 -3.31887 0.877851 0
M  V30 3464 N 334.051 0.0651679 -1.57465 0
M  V30 3465 C 335.297 0.764193 -1.87851 0
M  V30 3466 C 335.63 1.76889 -0.801495 0
M  V30 3467 O 334.905 1.93594 0.187528 0
M  V30 3468 C 335.188 1.46625 -3.28897 0
M  V30 3469 C 335.041 0.477515 -4.47258 0
M  V30 3470 C 336.36 2.4095 -3.68281 0
M  V30 3471 H 333.479 0.276351 -0.683227 0
M  V30 3472 H 336.121 0.0272868 -1.8998 0
M  V30 3473 H 334.271 2.09438 -3.27212 0
M  V30 3474 H 335.943 -0.145922 -4.61069 0
M  V30 3475 H 334.186 -0.206576 -4.33308 0
M  V30 3476 H 334.857 1.0065 -5.42746 0
M  V30 3477 H 337.333 1.88209 -3.71102 0
M  V30 3478 H 336.209 2.87072 -4.67847 0
M  V30 3479 H 336.47 3.26049 -2.98571 0
M  V30 3480 N 335.529 1.53961 0.336706 0
M  V30 3481 C 336.777 1.71197 1.07405 0
M  V30 3482 C 337.098 0.481475 1.88962 0
M  V30 3483 O 336.368 -0.504585 1.8929 0
M  V30 3484 H 334.948 0.631185 0.399517 0
M  V30 3485 H 337.61 1.91232 0.376323 0
M  V30 3486 H 336.706 2.58587 1.74755 0
M  V30 3487 N 337.007 -0.598083 1.45811 0
M  V30 3488 C 337.957 -1.70272 1.51629 0
M  V30 3489 C 338.941 -1.56382 0.378629 0
M  V30 3490 O 340.133 -1.65557 0.626087 0
M  V30 3491 C 337.262 -3.09042 1.49493 0
M  V30 3492 C 336.348 -3.28284 2.68496 0
M  V30 3493 N 336.739 -3.17748 3.93535 0
M  V30 3494 C 335.037 -3.59182 2.64394 0
M  V30 3495 C 335.738 -3.38579 4.7301 0
M  V30 3496 N 334.714 -3.63016 4.04624 0
M  V30 3497 H 338.516 -1.60634 2.46118 0
M  V30 3498 H 336.03 -0.801642 1.41235 0
M  V30 3499 H 338.027 -3.88302 1.51747 0
M  V30 3500 H 336.687 -3.19823 0.560683 0
M  V30 3501 H 337.698 -2.95944 4.25014 0
M  V30 3502 H 334.375 -3.76742 1.79922 0
M  V30 3503 H 335.765 -3.35747 5.82 0
M  V30 3504 N 338.485 -1.33259 -0.841409 0
M  V30 3505 C 339.731 -1.24757 -1.59886 0
M  V30 3506 C 340.064 0.186913 -1.93298 0
M  V30 3507 O 339.339 1.12757 -1.5848 0
M  V30 3508 C 339.622 -2.12036 -2.91055 0
M  V30 3509 C 339.475 -3.63929 -2.6434 0
M  V30 3510 C 340.794 -1.9916 -3.92458 0
M  V30 3511 H 337.913 -0.454542 -0.580138 0
M  V30 3512 H 340.555 -1.63335 -0.970647 0
M  V30 3513 H 338.705 -1.79265 -3.44669 0
M  V30 3514 H 340.377 -4.06978 -2.17178 0
M  V30 3515 H 338.62 -3.85935 -1.98082 0
M  V30 3516 H 339.291 -4.20341 -3.57796 0
M  V30 3517 H 341.767 -2.27895 -3.48143 0
M  V30 3518 H 340.643 -2.62484 -4.82072 0
M  V30 3519 H 340.904 -0.963082 -4.31482 0
M  V30 3520 N 339.963 1.05934 -1.16686 0
M  V30 3521 C 341.24 1.75643 -0.860747 0
M  V30 3522 C 341.62 2.01144 0.640641 0
M  V30 3523 O 340.968 1.64147 1.58959 0
M  V30 3524 C 341.178 3.05493 -1.68745 0
M  V30 3525 C 342.526 3.79581 -1.90271 0
M  V30 3526 O 343.55 3.15344 -1.65641 0
M  V30 3527 O 342.409 4.9499 -2.31618 0
M  V30 3528 H 339.503 0.763426 -0.317977 0
M  V30 3529 H 342.049 1.1217 -1.27342 0
M  V30 3530 H 340.821 2.8264 -2.70611 0
M  V30 3531 H 340.444 3.76702 -1.27206 0
M  V30 3532 N 341.441 0.965919 1.2453 0
M  V30 3533 C 342.69 0.622437 1.91856 0
M  V30 3534 C 343.003 -0.846006 1.76358 0
M  V30 3535 O 344.209 -1.29993 2.38357 0
M  V30 3536 C 342.665 1.0626 3.43856 0
M  V30 3537 C 342.273 2.55437 3.68043 0
M  V30 3538 C 344.017 0.792183 4.17043 0
M  V30 3539 C 341.924 2.93196 5.13605 0
M  V30 3540 H 340.854 0.229092 0.718354 0
M  V30 3541 H 343.505 1.17189 1.41206 0
M  V30 3542 H 341.887 0.441476 3.93531 0
M  V30 3543 H 343.061 3.22665 3.28974 0
M  V30 3544 H 341.376 2.8007 3.08139 0
M  V30 3545 H 343.973 1.05031 5.24283 0
M  V30 3546 H 344.316 -0.271584 4.15413 0
M  V30 3547 H 344.849 1.37419 3.73311 0
M  V30 3548 H 341.588 3.98636 5.20355 0
M  V30 3549 H 341.108 2.30651 5.53679 0
M  V30 3550 H 342.787 2.83004 5.81823 0
M  V30 3551 N 342.919 -1.39368 0.735821 0
M  V30 3552 C 344.149 -2.04498 0.293967 0
M  V30 3553 C 344.557 -1.55593 -1.07645 0
M  V30 3554 O 343.9 -0.716324 -1.69158 0
M  V30 3555 C 343.962 -3.58836 0.218342 0
M  V30 3556 C 343.626 -4.30721 1.52736 0
M  V30 3557 C 344.623 -4.57305 2.47322 0
M  V30 3558 C 342.308 -4.69251 1.79189 0
M  V30 3559 C 344.302 -5.21429 3.66593 0
M  V30 3560 C 341.989 -5.33104 2.98737 0
M  V30 3561 C 342.987 -5.59125 3.9226 0
M  V30 3562 O 342.675 -6.21653 5.09708 0
M  V30 3563 H 342.407 -0.664118 0.126189 0
M  V30 3564 H 344.961 -1.79385 1.00051 0
M  V30 3565 H 343.191 -3.8285 -0.544314 0
M  V30 3566 H 344.88 -4.05447 -0.191626 0
M  V30 3567 H 345.646 -4.27983 2.28156 0
M  V30 3568 H 341.525 -4.48354 1.07239 0
M  V30 3569 H 345.069 -5.41656 4.39607 0
M  V30 3570 H 340.966 -5.61846 3.17803 0
M  V30 3571 H 341.734 -6.40146 5.10054 0
M  V30 3572 N 344.397 -0.483516 -1.5 0
M  V30 3573 C 345.808 -0.0314176 -1.86674 0
M  V30 3574 C 346.159 1.37728 -1.39733 0
M  V30 3575 O 345.284 2.02327 -0.767635 0
M  V30 3576 C 345.879 -0.0502376 -3.38763 0
M  V30 3577 C 344.438 0.346442 -3.74802 0
M  V30 3578 C 343.585 -0.430366 -2.7394 0
M  V30 3579 H 346.536 -0.697182 -1.42566 0
M  V30 3580 H 346.557 0.749116 -3.73053 0
M  V30 3581 H 346.069 -1.07563 -3.72897 0
M  V30 3582 H 344.17 1.37572 -3.46273 0
M  V30 3583 H 344.283 0.0391486 -4.79084 0
M  V30 3584 H 342.647 0.117557 -2.54429 0
M  V30 3585 H 343.43 -1.4555 -3.10918 0
M  V30 3586 N 345.875 1.56104 -0.216619 0
M  V30 3587 C 346.823 2.21434 0.712036 0
M  V30 3588 C 347.817 1.19218 1.20348 0
M  V30 3589 O 349.023 1.3731 1.16387 0
M  V30 3590 H 345.398 0.70992 0.248026 0
M  V30 3591 H 347.369 2.98083 0.137558 0
M  V30 3592 C 346.118 2.90434 1.91163 0
M  V30 3593 H 345.441 3.68842 1.54258 0
M  V30 3594 H 346.881 3.39552 2.5393 0
M  V30 3595 C 345.34 1.92635 2.76394 0
M  V30 3596 O 345.87 1.44017 3.74996 0
M  V30 3597 N 344.076 1.60392 2.42328 0
M  V30 3598 H 343.623 2.00122 1.622 0
M  V30 3599 H 343.581 0.952159 2.99635 0
M  V30 3600 N 347.353 -0.0568162 1.57498 0
M  V30 3601 C 348.601 -0.751617 1.87604 0
M  V30 3602 C 348.922 -1.77351 0.81066 0
M  V30 3603 O 348.192 -1.95254 -0.159018 0
M  V30 3604 H 346.772 -0.280583 0.692302 0
M  V30 3605 H 349.434 -0.0293483 1.94878 0
M  V30 3606 H 348.53 -1.25852 2.856 0
M  V30 3607 N 348.832 -1.54138 -0.328536 0
M  V30 3608 C 350.08 -1.71765 -1.06496 0
M  V30 3609 C 350.401 -0.49149 -1.88704 0
M  V30 3610 O 349.671 0.494539 -1.89555 0
M  V30 3611 H 348.251 -0.633295 -0.396164 0
M  V30 3612 H 350.913 -1.91429 -0.366176 0
M  V30 3613 H 350.009 -2.5951 -1.73381 0
M  V30 3614 N 350.31 0.590341 -1.46126 0
M  V30 3615 C 351.538 1.37504 -1.54597 0
M  V30 3616 C 351.953 1.87897 -0.184447 0
M  V30 3617 O 351.31 1.63192 0.816984 0
M  V30 3618 C 351.361 2.56779 -2.54454 0
M  V30 3619 O 351.082 2.08476 -3.85317 0
M  V30 3620 C 352.583 3.49427 -2.72792 0
M  V30 3621 H 349.803 0.420325 -0.523037 0
M  V30 3622 H 352.347 0.718383 -1.91467 0
M  V30 3623 H 350.502 3.1845 -2.20609 0
M  V30 3624 H 350.916 2.86097 -4.396 0
M  V30 3625 H 352.39 4.29619 -3.466 0
M  V30 3626 H 352.867 4.00876 -1.79429 0
M  V30 3627 H 353.473 2.93598 -3.07702 0
M  V30 3628 N 351.788 1.33704 0.83433 0
M  V30 3629 C 353.035 1.25417 1.58987 0
M  V30 3630 C 353.363 -0.178869 1.93676 0
M  V30 3631 O 352.618 -1.13723 1.59265 0
M  V30 3632 C 352.917 2.07926 2.90692 0
M  V30 3633 C 352.583 3.57066 2.75345 0
M  V30 3634 C 351.245 3.97724 2.70867 0
M  V30 3635 C 353.597 4.51817 2.59828 0
M  V30 3636 C 350.925 5.31344 2.48778 0
M  V30 3637 C 353.277 5.85604 2.39272 0
M  V30 3638 C 351.941 6.25439 2.33199 0
M  V30 3639 H 351.211 0.458934 0.581774 0
M  V30 3640 H 353.858 1.65335 0.966261 0
M  V30 3641 H 352.163 1.608 3.57282 0
M  V30 3642 H 353.86 1.98868 3.48213 0
M  V30 3643 H 350.45 3.24785 2.79665 0
M  V30 3644 H 354.634 4.21311 2.62319 0
M  V30 3645 H 349.89 5.61241 2.42526 0
M  V30 3646 H 354.064 6.58623 2.2625 0
M  V30 3647 H 351.691 7.28914 2.15843 0
M  V30 3648 N 353.266 -1.05314 1.17247 0
M  V30 3649 C 354.198 -2.13023 0.845812 0
M  V30 3650 C 355.211 -1.62096 -0.151246 0
M  V30 3651 O 356.4 -1.78343 0.0748818 0
M  V30 3652 C 353.5 -3.38047 0.240292 0
M  V30 3653 C 352.673 -4.18255 1.27991 0
M  V30 3654 C 351.732 -5.21625 0.692375 0
M  V30 3655 O 350.758 -5.52619 1.36385 0
M  V30 3656 N 351.96 -5.78201 -0.516178 0
M  V30 3657 H 354.725 -2.41642 1.77283 0
M  V30 3658 H 352.286 -1.21401 1.07115 0
M  V30 3659 H 354.278 -4.04359 -0.16603 0
M  V30 3660 H 352.848 -3.06972 -0.590487 0
M  V30 3661 H 352.068 -3.47451 1.86203 0
M  V30 3662 H 353.356 -4.68643 1.98119 0
M  V30 3663 H 352.754 -5.55301 -1.07969 0
M  V30 3664 H 351.311 -6.4604 -0.86458 0
M  V30 3665 N 354.744 -0.972509 -1.24016 0
M  V30 3666 C 356.155 -0.67517 -1.74064 0
M  V30 3667 C 356.506 0.808939 -1.78747 0
M  V30 3668 O 355.631 1.63286 -1.42009 0
M  V30 3669 C 356.226 -1.21889 -3.16115 0
M  V30 3670 C 354.785 -0.971358 -3.6365 0
M  V30 3671 C 353.932 -1.35134 -2.42145 0
M  V30 3672 H 356.883 -1.14727 -1.09651 0
M  V30 3673 H 356.904 -0.587489 -3.75937 0
M  V30 3674 H 356.416 -2.29906 -3.12674 0
M  V30 3675 H 354.517 0.0930686 -3.72484 0
M  V30 3676 H 354.63 -1.62039 -4.50866 0
M  V30 3677 H 352.994 -0.769751 -2.4279 0
M  V30 3678 H 353.777 -2.4411 -2.41381 0
M  V30 3679 N 356.222 1.38976 -0.743202 0
M  V30 3680 C 357.47 1.99948 -0.29417 0
M  V30 3681 C 357.791 1.59279 1.12495 0
M  V30 3682 O 357.061 0.844808 1.76748 0
M  V30 3683 H 355.641 0.739473 -0.105774 0
M  V30 3684 H 358.303 1.699 -0.954986 0
M  V30 3685 H 357.399 3.10142 -0.349056 0
M  V30 3686 N 357.7 0.491464 1.49741 0
M  V30 3687 C 358.94 -0.0549118 2.04326 0
M  V30 3688 C 359.304 -1.35148 1.36378 0
M  V30 3689 O 360.505 -1.9815 1.81631 0
M  V30 3690 C 358.776 -0.213841 3.5676 0
M  V30 3691 S 360.335 -0.715839 4.32922 0
M  V30 3692 H 357.153 -0.00630513 0.710972 0
M  V30 3693 H 359.755 0.663257 1.83905 0
M  V30 3694 H 358.459 0.73527 4.0376 0
M  V30 3695 H 357.99 -0.957529 3.81569 0
M  V30 3696 H 360.005 -1.9864 4.54705 0
M  V30 3697 N 359.178 -1.55987 0.224894 0
M  V30 3698 C 360.126 -2.21808 -0.700283 0
M  V30 3699 C 361.12 -1.19854 -1.19714 0
M  V30 3700 O 362.326 -1.37925 -1.15658 0
M  V30 3701 H 358.701 -0.711226 -0.244258 0
M  V30 3702 H 360.672 -2.98152 -0.121749 0
M  V30 3703 C 359.421 -2.91444 -1.8962 0
M  V30 3704 H 358.744 -3.69655 -1.52299 0
M  V30 3705 H 360.184 -3.40894 -2.52125 0
M  V30 3706 C 358.643 -1.94098 -2.75368 0
M  V30 3707 O 359.173 -1.46004 -3.74227 0
M  V30 3708 N 357.379 -1.61675 -2.41474 0
M  V30 3709 H 356.926 -2.00979 -1.61137 0
M  V30 3710 H 356.884 -0.968036 -2.99126 0
M  V30 3711 N 360.656 0.0484629 -1.57525 0
M  V30 3712 C 361.905 0.742065 -1.87553 0
M  V30 3713 C 362.218 1.77545 -0.820802 0
M  V30 3714 O 363.424 2.52027 -1.00967 0
M  V30 3715 C 361.88 1.37081 -3.32771 0
M  V30 3716 C 361.488 0.374786 -4.4643 0
M  V30 3717 C 363.232 2.04542 -3.71972 0
M  V30 3718 C 361.139 1.01077 -5.82698 0
M  V30 3719 H 360.069 0.280903 -0.699721 0
M  V30 3720 H 362.72 -0.00411877 -1.835 0
M  V30 3721 H 361.102 2.16605 -3.31509 0
M  V30 3722 H 362.276 -0.392331 -4.59127 0
M  V30 3723 H 360.591 -0.196653 -4.15935 0
M  V30 3724 H 363.188 2.52943 -4.71088 0
M  V30 3725 H 363.531 2.85515 -3.02964 0
M  V30 3726 H 364.064 1.31819 -3.75325 0
M  V30 3727 H 360.803 0.240878 -6.55057 0
M  V30 3728 H 360.323 1.74819 -5.73758 0
M  V30 3729 H 362.002 1.52383 -6.28799 0
M  V30 3730 N 362.134 1.5431 0.320358 0
M  V30 3731 C 363.382 1.72327 1.05583 0
M  V30 3732 C 363.703 0.50149 1.88441 0
M  V30 3733 O 362.973 -0.48448 1.89815 0
M  V30 3734 H 361.553 0.635387 0.3928 0
M  V30 3735 H 364.215 1.91621 0.356019 0
M  V30 3736 H 363.311 2.60426 1.72003 0
M  V30 3737 N 363.613 -0.582584 1.46437 0
M  V30 3738 C 364.523 -1.71949 1.59595 0
M  V30 3739 C 365.539 -1.67264 0.479443 0
M  V30 3740 O 366.715 -1.87171 0.743579 0
M  V30 3741 C 363.78 -3.08452 1.58298 0
M  V30 3742 C 362.841 -3.244 2.81182 0
M  V30 3743 C 362.074 -4.54391 2.79937 0
M  V30 3744 O 362.297 -5.38287 1.8869 0
M  V30 3745 O 361.231 -4.73588 3.71481 0
M  V30 3746 H 365.057 -1.63795 2.55744 0
M  V30 3747 H 362.642 -0.749643 1.29231 0
M  V30 3748 H 364.524 -3.89732 1.60271 0
M  V30 3749 H 363.199 -3.17043 0.653094 0
M  V30 3750 H 362.106 -2.42613 2.84763 0
M  V30 3751 H 363.439 -3.20699 3.7338 0
M  V30 3752 N 365.091 -1.34144 -0.827227 0
M  V30 3753 C 366.054 -1.25264 -1.91942 0
M  V30 3754 C 367.054 -0.168866 -1.59911 0
M  V30 3755 O 368.244 -0.421198 -1.69031 0
M  V30 3756 C 365.376 -0.932952 -3.27885 0
M  V30 3757 H 366.569 -2.22357 -2.0124 0
M  V30 3758 H 364.122 -1.1837 -1.0207 0
M  V30 3759 H 364.857 0.0349917 -3.24281 0
M  V30 3760 H 364.642 -1.71682 -3.52516 0
M  V30 3761 H 366.132 -0.895874 -4.07877 0
M  V30 3762 N 366.569 1.04691 -1.17803 0
M  V30 3763 C 367.818 1.77176 -0.963931 0
M  V30 3764 C 368.131 1.88888 0.508015 0
M  V30 3765 O 369.337 2.58164 0.840465 0
M  V30 3766 C 367.793 3.18518 -1.67555 0
M  V30 3767 C 367.401 3.14919 -3.18637 0
M  V30 3768 C 369.145 3.95424 -1.54402 0
M  V30 3769 C 367.052 4.51081 -3.82466 0
M  V30 3770 H 365.982 0.664116 -0.357023 0
M  V30 3771 H 368.633 1.17303 -1.4111 0
M  V30 3772 H 367.015 3.78748 -1.15613 0
M  V30 3773 H 368.189 2.64178 -3.77554 0
M  V30 3774 H 366.504 2.51512 -3.31859 0
M  V30 3775 H 369.101 4.96106 -1.99456 0
M  V30 3776 H 369.444 4.13343 -0.495329 0
M  V30 3777 H 369.977 3.41754 -2.0359 0
M  V30 3778 H 366.716 4.38368 -4.87354 0
M  V30 3779 H 366.236 5.01951 -3.28337 0
M  V30 3780 H 367.915 5.2001 -3.84965 0
M  V30 3781 N 368.047 0.979072 1.23499 0
M  V30 3782 C 369.463 0.687475 1.44034 0
M  V30 3783 C 369.663 -0.746801 1.8715 0
M  V30 3784 O 368.719 -1.51939 2.0167 0
M  V30 3785 C 370.032 1.68127 2.49307 0
M  V30 3786 C 371.58 1.69516 2.63122 0
M  V30 3787 C 372.055 2.67723 3.71603 0
M  V30 3788 N 373.546 2.66233 3.79044 0
M  V30 3789 C 374.281 3.38891 4.62537 0
M  V30 3790 N 373.777 4.21103 5.50131 0
M  V30 3791 N 375.57 3.27661 4.56721 0
M  V30 3792 H 367.721 1.90559 0.938135 0
M  V30 3793 H 369.984 0.821051 0.473897 0
M  V30 3794 H 369.69 2.70693 2.2454 0
M  V30 3795 H 369.564 1.46306 3.4767 0
M  V30 3796 H 371.951 0.676561 2.8724 0
M  V30 3797 H 372.032 1.95404 1.65079 0
M  V30 3798 H 371.676 3.69724 3.48233 0
M  V30 3799 H 371.606 2.39111 4.69184 0
M  V30 3800 H 374.097 2.06568 3.16446 0
M  V30 3801 H 374.41 4.73403 6.10827 0
M  V30 3802 H 372.755 4.25195 5.49759 0
M  V30 3803 H 375.946 2.62887 3.87309 0
M  V30 3804 H 376.119 3.84547 5.21562 0
M  V30 3805 N 369.525 -1.3858 0.750561 0
M  V30 3806 C 370.771 -2.00481 0.305825 0
M  V30 3807 C 371.104 -1.5944 -1.10872 0
M  V30 3808 O 370.379 -0.83052 -1.75877 0
M  V30 3809 C 370.662 -3.5758 0.425287 0
M  V30 3810 C 370.515 -4.08594 1.88072 0
M  V30 3811 C 371.834 -4.39719 -0.183122 0
M  V30 3812 H 368.953 -0.728348 0.112598 0
M  V30 3813 H 371.595 -1.64566 0.949638 0
M  V30 3814 H 369.745 -3.88306 -0.122828 0
M  V30 3815 H 371.417 -3.88523 2.48691 0
M  V30 3816 H 369.66 -3.61574 2.39681 0
M  V30 3817 H 370.331 -5.177 1.91548 0
M  V30 3818 H 372.807 -4.15128 0.284303 0
M  V30 3819 H 371.683 -5.48856 -0.0692757 0
M  V30 3820 H 371.944 -4.23434 -1.27106 0
M  V30 3821 N 371.003 -0.499398 -1.49478 0
M  V30 3822 C 372.252 0.0475259 -2.01644 0
M  V30 3823 C 372.565 1.38195 -1.38425 0
M  V30 3824 O 373.771 2.01547 -1.8191 0
M  V30 3825 C 372.227 0.135164 -3.59646 0
M  V30 3826 C 371.835 -1.19252 -4.31837 0
M  V30 3827 C 373.579 0.632538 -4.19761 0
M  V30 3828 C 371.486 -1.06713 -5.81693 0
M  V30 3829 H 370.416 0.0215349 -0.753692 0
M  V30 3830 H 373.067 -0.638577 -1.7203 0
M  V30 3831 H 371.449 0.885681 -3.85969 0
M  V30 3832 H 372.623 -1.9562 -4.17216 0
M  V30 3833 H 370.938 -1.62321 -3.83459 0
M  V30 3834 H 373.535 0.743833 -5.29501 0
M  V30 3835 H 373.878 1.63098 -3.83021 0
M  V30 3836 H 374.411 -0.0613987 -3.97753 0
M  V30 3837 H 371.15 -2.03979 -6.22955 0
M  V30 3838 H 370.67 -0.344307 -5.98811 0
M  V30 3839 H 372.349 -0.745208 -6.42694 0
M  V30 3840 N 372.481 1.55866 -0.233164 0
M  V30 3841 C 373.444 2.1953 0.658715 0
M  V30 3842 C 374.444 1.16053 1.11303 0
M  V30 3843 O 375.634 1.41218 1.01996 0
M  V30 3844 C 372.766 2.82791 1.90373 0
M  V30 3845 H 373.959 2.99721 0.10347 0
M  V30 3846 H 371.512 1.56291 0.0164245 0
M  V30 3847 H 372.247 2.06501 2.50056 0
M  V30 3848 H 372.032 3.58578 1.58632 0
M  V30 3849 H 373.522 3.31556 2.53891 0
M  V30 3850 N 373.959 -0.0401083 1.57549 0
M  V30 3851 C 374.869 -1.06133 2.0922 0
M  V30 3852 C 375.885 -1.40356 1.0284 0
M  V30 3853 O 377.061 -1.49897 1.34509 0
M  V30 3854 C 374.126 -2.34658 2.55218 0
M  V30 3855 C 373.187 -2.07117 3.76033 0
M  V30 3856 C 372.42 -3.29514 4.19829 0
M  V30 3857 O 372.643 -4.39794 3.63232 0
M  V30 3858 O 371.577 -3.15863 5.12362 0
M  V30 3859 H 375.403 -0.652244 2.96613 0
M  V30 3860 H 372.988 -0.256368 1.47184 0
M  V30 3861 H 374.87 -3.10239 2.85184 0
M  V30 3862 H 373.545 -2.74883 1.70941 0
M  V30 3863 H 372.452 -1.29139 3.51104 0
M  V30 3864 H 373.785 -1.71754 4.61261 0
M  V30 3865 N 375.437 -1.54477 -0.31217 0
M  V30 3866 C 376.853 -1.45442 -0.657185 0
M  V30 3867 C 377.053 -0.63653 -1.91182 0
M  V30 3868 O 376.109 -0.139815 -2.52113 0
M  V30 3869 C 377.422 -2.89287 -0.82058 0
M  V30 3870 C 378.97 -2.9926 -0.917188 0
M  V30 3871 C 379.445 -4.44279 -1.11267 0
M  V30 3872 N 380.936 -4.4794 -1.17914 0
M  V30 3873 C 381.671 -5.57318 -1.34848 0
M  V30 3874 N 381.167 -6.76642 -1.48752 0
M  V30 3875 N 382.96 -5.44986 -1.37647 0
M  V30 3876 H 375.111 -2.06129 0.512313 0
M  V30 3877 H 377.374 -0.933088 0.167485 0
M  V30 3878 H 377.08 -3.51687 0.0302604 0
M  V30 3879 H 376.954 -3.36061 -1.71298 0
M  V30 3880 H 379.341 -2.36981 -1.75852 0
M  V30 3881 H 379.422 -2.558 -0.00101257 0
M  V30 3882 H 379.066 -5.07149 -0.27614 0
M  V30 3883 H 378.996 -4.85359 -2.04289 0
M  V30 3884 H 381.487 -3.61969 -1.08567 0
M  V30 3885 H 381.8 -7.55758 -1.61397 0
M  V30 3886 H 380.145 -6.79529 -1.45828 0
M  V30 3887 H 383.336 -4.50715 -1.26388 0
M  V30 3888 H 383.509 -6.3028 -1.50501 0
M  V30 3889 N 376.915 0.57481 -1.46744 0
M  V30 3890 C 378.163 1.33009 -1.52161 0
M  V30 3891 C 378.484 1.94185 -0.178092 0
M  V30 3892 O 377.754 1.7899 0.796196 0
M  V30 3893 H 376.334 0.493873 -0.560445 0
M  V30 3894 H 378.996 0.672589 -1.82927 0
M  V30 3895 H 378.092 2.13273 -2.27862 0
M  V30 3896 N 378.394 1.34581 0.820102 0
M  V30 3897 C 379.324 1.29038 1.94606 0
M  V30 3898 C 380.305 0.1673 1.69275 0
M  V30 3899 O 381.49 0.360112 1.90832 0
M  V30 3900 C 378.62 1.04793 3.31113 0
M  V30 3901 C 377.574 2.13597 3.70891 0
M  V30 3902 C 376.9 1.74537 5.05412 0
M  V30 3903 C 378.2 3.55451 3.8269 0
M  V30 3904 H 379.894 2.23248 1.99501 0
M  V30 3905 H 377.44 1.0747 0.958449 0
M  V30 3906 H 379.393 0.995592 4.0947 0
M  V30 3907 H 378.117 0.0702565 3.26524 0
M  V30 3908 H 376.776 2.17905 2.9481 0
M  V30 3909 H 376.424 0.754226 4.97313 0
M  V30 3910 H 376.124 2.47361 5.32997 0
M  V30 3911 H 377.648 1.70803 5.86224 0
M  V30 3912 H 379.062 3.5354 4.51312 0
M  V30 3913 H 377.459 4.26922 4.21732 0
M  V30 3914 H 378.529 3.92587 2.84611 0
M  V30 3915 N 379.872 -1.04064 1.18357 0
M  V30 3916 C 381.12 -1.76915 0.977013 0
M  V30 3917 C 381.441 -1.88624 -0.494577 0
M  V30 3918 O 380.711 -1.41125 -1.3587 0
M  V30 3919 H 379.291 -0.65535 0.358504 0
M  V30 3920 H 381.953 -1.25592 1.49039 0
M  V30 3921 H 381.049 -2.78178 1.41504 0
M  V30 3922 N 381.35 -0.985608 -1.22978 0
M  V30 3923 C 382.627 -0.573599 -1.87001 0
M  V30 3924 C 383.007 0.949213 -1.88555 0
M  V30 3925 O 382.355 1.82811 -1.37086 0
M  V30 3926 C 382.565 -1.18564 -3.28243 0
M  V30 3927 C 383.913 -1.28163 -4.04796 0
M  V30 3928 O 384.937 -1.13949 -3.37482 0
M  V30 3929 O 383.796 -1.50832 -5.25273 0
M  V30 3930 H 380.89 -0.193868 -0.803955 0
M  V30 3931 H 383.436 -1.08102 -1.30813 0
M  V30 3932 H 382.208 -2.22758 -3.21706 0
M  V30 3933 H 381.831 -0.663363 -3.92027 0
M  V30 3934 N 382.828 1.3818 -0.7579 0
M  V30 3935 C 384.074 2.00316 -0.316453 0
M  V30 3936 C 384.407 1.60026 1.10025 0
M  V30 3937 O 383.682 0.839835 1.75434 0
M  V30 3938 C 383.965 3.57349 -0.444245 0
M  V30 3939 C 383.818 4.07591 -1.90236 0
M  V30 3940 C 385.137 4.3981 0.1598 0
M  V30 3941 H 382.256 0.727741 -0.116459 0
M  V30 3942 H 384.898 1.6406 -0.958352 0
M  V30 3943 H 383.048 3.88365 0.102233 0
M  V30 3944 H 384.72 3.87199 -2.50748 0
M  V30 3945 H 382.963 3.60297 -2.41595 0
M  V30 3946 H 383.634 5.16677 -1.94291 0
M  V30 3947 H 386.11 4.14971 -0.306314 0
M  V30 3948 H 384.986 5.48885 0.0401675 0
M  V30 3949 H 385.247 4.24102 1.24859 0
M  V30 3950 N 384.306 0.507319 1.49211 0
M  V30 3951 C 385.583 -0.0982702 1.95353 0
M  V30 3952 C 385.963 -1.53516 1.449 0
M  V30 3953 O 385.311 -2.18594 0.66551 0
M  V30 3954 C 385.521 -0.00440283 3.49 0
M  V30 3955 C 386.869 -0.175147 4.24239 0
M  V30 3956 O 387.893 -0.0792891 3.56112 0
M  V30 3957 O 386.752 -0.37276 5.45227 0
M  V30 3958 H 383.846 -0.0918236 0.821887 0
M  V30 3959 H 386.392 0.570307 1.5983 0
M  V30 3960 H 385.164 0.997402 3.78375 0
M  V30 3961 H 384.787 -0.712845 3.91158 0
M  V30 3962 N 385.784 -1.5574 0.241426 0
M  V30 3963 C 386.716 -2.18469 -0.693091 0
M  V30 3964 C 387.729 -1.15942 -1.14286 0
M  V30 3965 O 388.918 -1.42832 -1.07058 0
M  V30 3966 C 386.018 -2.7696 -1.95311 0
M  V30 3967 C 385.191 -4.04853 -1.65568 0
M  V30 3968 C 384.25 -4.47715 -2.76474 0
M  V30 3969 O 383.276 -5.14205 -2.44094 0
M  V30 3970 N 384.478 -4.15044 -4.05855 0
M  V30 3971 H 387.243 -2.99292 -0.156388 0
M  V30 3972 H 384.804 -1.61784 0.0611752 0
M  V30 3973 H 386.796 -3.02594 -2.68736 0
M  V30 3974 H 385.366 -2.00326 -2.39975 0
M  V30 3975 H 384.586 -3.86865 -0.756886 0
M  V30 3976 H 385.874 -4.88246 -1.43153 0
M  V30 3977 H 385.272 -3.61654 -4.34998 0
M  V30 3978 H 383.829 -4.45526 -4.75762 0
M  V30 3979 N 387.262 0.0317525 -1.57568 0
M  V30 3980 C 388.192 1.03274 -2.0942 0
M  V30 3981 C 389.173 1.3788 -0.996143 0
M  V30 3982 O 390.358 1.46811 -1.27122 0
M  V30 3983 C 387.488 2.33448 -2.57137 0
M  V30 3984 C 386.442 2.13091 -3.71182 0
M  V30 3985 C 385.768 3.49001 -4.05095 0
M  V30 3986 C 387.068 1.51928 -4.99715 0
M  V30 3987 H 388.762 0.60112 -2.93303 0
M  V30 3988 H 386.308 0.287705 -1.41097 0
M  V30 3989 H 388.261 3.03802 -2.92032 0
M  V30 3990 H 386.985 2.78665 -1.70333 0
M  V30 3991 H 385.644 1.45171 -3.36632 0
M  V30 3992 H 385.292 3.91862 -3.15362 0
M  V30 3993 H 384.992 3.36207 -4.81911 0
M  V30 3994 H 386.516 4.20721 -4.42522 0
M  V30 3995 H 387.93 2.12196 -5.32584 0
M  V30 3996 H 386.327 1.49716 -5.81124 0
M  V30 3997 H 387.397 0.484811 -4.8247 0
M  V30 3998 N 388.74 1.54641 0.303973 0
M  V30 3999 C 389.986 1.74038 1.04109 0
M  V30 4000 C 390.319 0.523051 1.87024 0
M  V30 4001 O 389.594 -0.479874 1.88487 0
M  V30 4002 C 389.877 3.02761 1.94955 0
M  V30 4003 C 389.73 4.34787 1.1524 0
M  V30 4004 C 391.049 3.27336 2.94175 0
M  V30 4005 H 388.168 0.63323 0.377079 0
M  V30 4006 H 390.81 1.87354 0.316001 0
M  V30 4007 H 388.96 2.9154 2.56782 0
M  V30 4008 H 390.632 4.57922 0.557236 0
M  V30 4009 H 388.875 4.31407 0.455053 0
M  V30 4010 H 389.546 5.21116 1.8205 0
M  V30 4011 H 392.022 3.38148 2.42477 0
M  V30 4012 H 390.898 4.18726 3.54908 0
M  V30 4013 H 391.159 2.45491 3.67677 0
M  V30 4014 N 390.218 -0.567019 1.47046 0
M  V30 4015 C 391.165 -1.67489 1.58796 0
M  V30 4016 C 392.135 -1.60399 0.43144 0
M  V30 4017 O 393.32 -1.79378 0.650233 0
M  V30 4018 C 390.46 -3.05821 1.59899 0
M  V30 4019 C 389.573 -3.2342 2.86397 0
M  V30 4020 C 388.708 -4.52093 2.789 0
M  V30 4021 C 387.747 -4.6309 4.00267 0
M  V30 4022 N 386.884 -5.83106 3.91064 0
M  V30 4023 H 391.724 -1.56785 2.53422 0
M  V30 4024 H 389.261 -0.763896 1.2571 0
M  V30 4025 H 391.219 -3.8591 1.58522 0
M  V30 4026 H 389.849 -3.15384 0.687929 0
M  V30 4027 H 388.901 -2.3683 2.97684 0
M  V30 4028 H 390.213 -3.27412 3.76301 0
M  V30 4029 H 389.367 -5.4043 2.75718 0
M  V30 4030 H 388.106 -4.50565 1.86662 0
M  V30 4031 H 387.111 -3.73168 4.03765 0
M  V30 4032 H 388.336 -4.66386 4.93621 0
M  V30 4033 H 386.282 -5.82546 3.01623 0
M  V30 4034 H 386.199 -5.88434 4.74638 0
M  V30 4035 H 387.467 -6.73831 3.91882 0
M  V30 4036 N 391.696 -1.35014 -0.812953 0
M  V30 4037 C 392.936 -1.29289 -1.58315 0
M  V30 4038 C 393.3 0.132727 -1.91541 0
M  V30 4039 O 394.501 0.314269 -2.66957 0
M  V30 4040 C 392.772 -2.1681 -2.84127 0
M  V30 4041 S 394.331 -2.28538 -3.74588 0
M  V30 4042 H 391.149 -0.459569 -0.542511 0
M  V30 4043 H 393.751 -1.70336 -0.959467 0
M  V30 4044 H 392.455 -3.19379 -2.57731 0
M  V30 4045 H 391.986 -1.76697 -3.51485 0
M  V30 4046 H 394.001 -1.4655 -4.74065 0
M  V30 4047 N 393.175 1.03435 -1.18907 0
M  V30 4048 C 394.4 1.80919 -1.01406 0
M  V30 4049 C 394.825 1.83055 0.432721 0
M  V30 4050 O 394.183 1.25252 1.31079 0
M  V30 4051 C 394.231 3.24091 -1.58105 0
M  V30 4052 O 393.335 4.04434 -0.806669 0
M  V30 4053 H 392.676 0.558709 -0.358803 0
M  V30 4054 H 395.206 1.30223 -1.57807 0
M  V30 4055 H 395.216 3.74853 -1.61087 0
M  V30 4056 H 393.891 3.21851 -2.6341 0
M  V30 4057 H 392.468 3.63091 -0.849666 0
M  V30 4058 N 394.653 0.992116 1.22453 0
M  V30 4059 C 395.603 0.512969 2.22155 0
M  V30 4060 C 396.587 -0.418416 1.55364 0
M  V30 4061 O 397.779 -0.245363 1.75291 0
M  V30 4062 C 394.908 -0.171822 3.4287 0
M  V30 4063 C 393.994 0.779822 4.16869 0
M  V30 4064 N 394.385 1.92734 4.6764 0
M  V30 4065 C 392.683 0.59554 4.42006 0
M  V30 4066 C 393.384 2.52458 5.24061 0
M  V30 4067 N 392.36 1.80735 5.12675 0
M  V30 4068 H 396.162 1.38817 2.5905 0
M  V30 4069 H 393.676 0.854277 1.38115 0
M  V30 4070 H 395.673 -0.532469 4.13486 0
M  V30 4071 H 394.333 -1.04317 3.07487 0
M  V30 4072 H 395.344 2.30816 4.63621 0
M  V30 4073 H 392.021 -0.229805 4.16867 0
M  V30 4074 H 393.411 3.49433 5.73887 0
M  V30 4075 N 396.131 -1.37776 0.765217 0
M  V30 4076 C 397.041 -2.34135 0.147666 0
M  V30 4077 C 398.057 -1.59854 -0.687215 0
M  V30 4078 O 399.233 -1.91983 -0.608659 0
M  V30 4079 C 396.298 -3.3901 -0.72617 0
M  V30 4080 C 395.359 -4.2912 0.124417 0
M  V30 4081 C 394.592 -5.28986 -0.707807 0
M  V30 4082 O 394.815 -5.36205 -1.94525 0
M  V30 4083 O 393.749 -6.01779 -0.12046 0
M  V30 4084 H 397.575 -2.88664 0.943758 0
M  V30 4085 H 395.16 -1.39824 0.526277 0
M  V30 4086 H 397.042 -4.03195 -1.22524 0
M  V30 4087 H 395.717 -2.86819 -1.50056 0
M  V30 4088 H 394.624 -3.68057 0.669696 0
M  V30 4089 H 395.957 -4.84598 0.861736 0
M  V30 4090 N 397.609 -0.515225 -1.4894 0
M  V30 4091 C 399.025 -0.172099 -1.58669 0
M  V30 4092 C 399.225 1.32405 -1.51892 0
M  V30 4093 O 398.281 2.10116 -1.40027 0
M  V30 4094 C 399.594 -0.761533 -2.90897 0
M  V30 4095 C 401.142 -0.728926 -3.04394 0
M  V30 4096 C 401.617 -1.29667 -4.39261 0
M  V30 4097 N 403.108 -1.25799 -4.4579 0
M  V30 4098 C 403.843 -1.66733 -5.48623 0
M  V30 4099 N 403.339 -2.15327 -6.58488 0
M  V30 4100 N 405.132 -1.58061 -5.39419 0
M  V30 4101 H 397.283 -1.48778 -1.51588 0
M  V30 4102 H 399.546 -0.617968 -0.718901 0
M  V30 4103 H 399.252 -1.81136 -3.01468 0
M  V30 4104 H 399.126 -0.230106 -3.76497 0
M  V30 4105 H 401.513 0.312098 -2.93445 0
M  V30 4106 H 401.594 -1.29766 -2.20442 0
M  V30 4107 H 401.238 -2.33655 -4.50963 0
M  V30 4108 H 401.168 -0.703752 -5.21876 0
M  V30 4109 H 403.659 -0.902102 -3.66975 0
M  V30 4110 H 403.972 -2.44594 -7.33071 0
M  V30 4111 H 402.317 -2.19311 -6.59491 0
M  V30 4112 H 405.508 -1.19906 -4.52482 0
M  V30 4113 H 405.681 -1.90284 -6.19432 0
M  V30 4114 N 399.087 1.5561 -0.249682 0
M  V30 4115 C 400.312 2.03865 0.381305 0
M  V30 4116 C 400.737 1.12769 1.50548 0
M  V30 4117 O 400.095 0.121189 1.80895 0
M  V30 4118 C 400.143 3.50101 0.863816 0
M  V30 4119 O 399.247 3.62132 1.97318 0
M  V30 4120 H 398.588 0.658827 0.0827194 0
M  V30 4121 H 401.118 2.01105 -0.376552 0
M  V30 4122 H 401.128 3.90975 1.1663 0
M  V30 4123 H 399.803 4.1588 0.0411816 0
M  V30 4124 H 398.38 3.33155 1.67517 0
M  V30 4125 N 400.565 -0.0233959 1.57583 0
M  V30 4126 C 401.814 -0.712133 1.8871 0
M  V30 4127 C 402.127 -1.76217 0.848944 0
M  V30 4128 O 403.333 -2.50389 1.04964 0
M  V30 4129 C 401.789 -1.3177 3.3491 0
M  V30 4130 C 401.397 -0.303715 4.46969 0
M  V30 4131 C 403.141 -1.98598 3.75179 0
M  V30 4132 C 401.048 -0.917945 5.84233 0
M  V30 4133 H 399.978 -0.269735 0.704101 0
M  V30 4134 H 402.629 0.0333114 1.8347 0
M  V30 4135 H 401.011 -2.11304 3.34913 0
M  V30 4136 H 402.185 0.465325 4.58445 0
M  V30 4137 H 400.5 0.2628 4.1557 0
M  V30 4138 H 403.097 -2.45416 4.75053 0
M  V30 4139 H 403.44 -2.80659 3.07468 0
M  V30 4140 H 403.973 -1.25831 3.77374 0
M  V30 4141 H 400.712 -0.136633 6.55358 0
M  V30 4142 H 400.232 -1.65669 5.76467 0
M  V30 4143 H 401.911 -1.4236 6.31144 0
M  V30 4144 N 402.043 -1.548 -0.295768 0
M  V30 4145 C 402.993 -1.82497 -1.3667 0
M  V30 4146 C 403.977 -0.682434 -1.45711 0
M  V30 4147 O 405.169 -0.943207 -1.49775 0
M  V30 4148 C 402.298 -2.08036 -2.73086 0
M  V30 4149 C 401.384 -3.28488 -2.68247 0
M  V30 4150 N 401.775 -4.48924 -2.33025 0
M  V30 4151 C 400.073 -3.3062 -2.99343 0
M  V30 4152 C 400.774 -5.30956 -2.37613 0
M  V30 4153 N 399.75 -4.68805 -2.75178 0
M  V30 4154 H 403.552 -2.73175 -1.0841 0
M  V30 4155 H 401.066 -1.5437 -0.504361 0
M  V30 4156 H 403.063 -2.26027 -3.5031 0
M  V30 4157 H 401.723 -1.18629 -3.02254 0
M  V30 4158 H 402.734 -4.75432 -2.05389 0
M  V30 4159 H 399.411 -2.51336 -3.33371 0
M  V30 4160 H 400.801 -6.37199 -2.13135 0
M  V30 4161 N 403.521 0.559213 -1.47345 0
M  V30 4162 C 404.451 1.67622 -1.62558 0
M  V30 4163 C 405.432 1.63331 -0.475087 0
M  V30 4164 O 406.617 1.80983 -0.704182 0
M  V30 4165 C 403.747 3.0626 -1.63774 0
M  V30 4166 C 402.701 3.25397 -2.7803 0
M  V30 4167 C 402.027 4.64801 -2.64318 0
M  V30 4168 C 403.327 3.10965 -4.19641 0
M  V30 4169 H 405.021 1.55146 -2.56067 0
M  V30 4170 H 402.567 0.744961 -1.23233 0
M  V30 4171 H 404.52 3.84247 -1.73008 0
M  V30 4172 H 403.244 3.1969 -0.66825 0
M  V30 4173 H 401.903 2.49817 -2.68304 0
M  V30 4174 H 401.551 4.75028 -1.65401 0
M  V30 4175 H 401.251 4.78555 -3.40968 0
M  V30 4176 H 402.775 5.44926 -2.75478 0
M  V30 4177 H 404.189 3.78772 -4.30354 0
M  V30 4178 H 402.586 3.36229 -4.97062 0
M  V30 4179 H 403.656 2.07736 -4.38148 0
M  V30 4180 N 404.999 1.35443 0.805782 0
M  V30 4181 C 406.246 1.28761 1.56291 0
M  V30 4182 C 406.574 -0.137747 1.94012 0
M  V30 4183 O 405.829 -1.1032 1.61642 0
M  V30 4184 C 406.128 2.14045 2.86216 0
M  V30 4185 C 405.794 3.62826 2.67709 0
M  V30 4186 C 404.456 4.0338 2.6237 0
M  V30 4187 C 406.808 4.57227 2.50186 0
M  V30 4188 C 404.136 5.36501 2.37451 0
M  V30 4189 C 406.488 5.90547 2.26797 0
M  V30 4190 C 405.152 6.30245 2.1988 0
M  V30 4191 H 404.422 0.471171 0.571908 0
M  V30 4192 H 407.069 1.67347 0.930974 0
M  V30 4193 H 405.374 1.68342 3.53791 0
M  V30 4194 H 407.071 2.0621 3.43917 0
M  V30 4195 H 403.661 3.30644 2.72713 0
M  V30 4196 H 407.845 4.2678 2.53323 0
M  V30 4197 H 403.101 5.66259 2.30567 0
M  V30 4198 H 407.275 6.63274 2.12228 0
M  V30 4199 H 404.902 7.33328 2.00333 0
M  V30 4200 N 406.477 -1.02803 1.19454 0
M  V30 4201 C 407.726 -1.7562 0.991996 0
M  V30 4202 C 408.039 -1.89672 -0.477901 0
M  V30 4203 O 409.245 -2.59468 -0.799287 0
M  V30 4204 C 407.701 -3.15812 1.72601 0
M  V30 4205 C 407.309 -3.0981 3.23607 0
M  V30 4206 C 409.053 -3.92918 1.60674 0
M  V30 4207 C 406.96 -4.44939 3.89594 0
M  V30 4208 H 405.89 -0.658352 0.367543 0
M  V30 4209 H 408.541 -1.15044 1.42959 0
M  V30 4210 H 406.923 -3.7686 1.21624 0
M  V30 4211 H 408.097 -2.58138 3.81709 0
M  V30 4212 H 406.412 -2.46201 3.35819 0
M  V30 4213 H 409.009 -4.9287 2.07323 0
M  V30 4214 H 409.352 -4.12502 0.561025 0
M  V30 4215 H 409.885 -3.38472 2.09001 0
M  V30 4216 H 406.624 -4.30559 4.94267 0
M  V30 4217 H 406.144 -4.96664 3.36281 0
M  V30 4218 H 407.823 -5.1382 3.93189 0
M  V30 4219 N 407.956 -0.998596 -1.21925 0
M  V30 4220 C 409.233 -0.593401 -1.86382 0
M  V30 4221 C 409.613 0.92916 -1.89552 0
M  V30 4222 O 408.961 1.81347 -1.39017 0
M  V30 4223 C 409.171 -1.22039 -3.26967 0
M  V30 4224 C 410.519 -1.32449 -4.03413 0
M  V30 4225 O 411.543 -1.17522 -3.36254 0
M  V30 4226 O 410.402 -1.56395 -5.23644 0
M  V30 4227 H 407.496 -0.202385 -0.801854 0
M  V30 4228 H 410.042 -1.09484 -1.29659 0
M  V30 4229 H 408.814 -2.26158 -3.19325 0
M  V30 4230 H 408.437 -0.704906 -3.91301 0
M  V30 4231 N 409.434 1.37368 -0.772513 0
M  V30 4232 C 410.659 2.0447 -0.347386 0
M  V30 4233 C 411.084 1.57882 1.0225 0
M  V30 4234 O 410.442 0.73941 1.65537 0
M  V30 4235 C 410.49 3.58369 -0.400479 0
M  V30 4236 O 409.594 4.0803 0.598789 0
M  V30 4237 H 408.935 0.646773 -0.15027 0
M  V30 4238 H 411.465 1.75667 -1.04892 0
M  V30 4239 H 411.475 4.07183 -0.258045 0
M  V30 4240 H 410.15 3.91633 -1.39986 0
M  V30 4241 H 408.727 3.70534 0.419411 0
M  V30 4242 N 410.912 0.523116 1.48665 0
M  V30 4243 C 411.842 -0.23231 2.32342 0
M  V30 4244 C 412.823 -0.941637 1.41659 0
M  V30 4245 O 414.008 -0.928751 1.70552 0
M  V30 4246 C 411.138 -1.28387 3.22698 0
M  V30 4247 C 410.092 -0.693098 4.22351 0
M  V30 4248 C 409.418 -1.8468 5.01794 0
M  V30 4249 C 410.718 0.33063 5.21252 0
M  V30 4250 H 412.412 0.466192 2.95748 0
M  V30 4251 H 409.958 0.225643 1.42221 0
M  V30 4252 H 411.911 -1.82024 3.80059 0
M  V30 4253 H 410.635 -2.01186 2.57278 0
M  V30 4254 H 409.294 -0.178299 3.66166 0
M  V30 4255 H 408.942 -2.56301 4.32804 0
M  V30 4256 H 408.642 -1.45747 5.69238 0
M  V30 4257 H 410.166 -2.38709 5.62006 0
M  V30 4258 H 411.58 -0.118407 5.73178 0
M  V30 4259 H 409.977 0.636974 5.9671 0
M  V30 4260 H 411.047 1.23883 4.68808 0
M  V30 4261 N 412.39 -1.55475 0.257931 0
M  V30 4262 C 413.32 -2.24815 -0.630912 0
M  V30 4263 C 414.301 -1.23224 -1.17259 0
M  V30 4264 O 415.486 -1.51904 -1.20991 0
M  V30 4265 C 412.616 -2.95609 -1.82298 0
M  V30 4266 C 411.57 -4.03982 -1.41359 0
M  V30 4267 C 410.896 -4.6226 -2.68738 0
M  V30 4268 C 412.196 -5.19109 -0.57648 0
M  V30 4269 H 413.89 -2.99354 -0.0526878 0
M  V30 4270 H 411.436 -1.4398 -0.023901 0
M  V30 4271 H 413.389 -3.42822 -2.45054 0
M  V30 4272 H 412.113 -2.18577 -2.42676 0
M  V30 4273 H 410.772 -3.57555 -0.809324 0
M  V30 4274 H 410.42 -3.81915 -3.27338 0
M  V30 4275 H 410.12 -5.35424 -2.42065 0
M  V30 4276 H 411.644 -5.12212 -3.32372 0
M  V30 4277 H 413.058 -5.62479 -1.10861 0
M  V30 4278 H 411.455 -5.98729 -0.405351 0
M  V30 4279 H 412.525 -4.83174 0.408776 0
M  V30 4280 N 413.868 0.0150385 -1.57593 0
M  V30 4281 C 414.816 1.02958 -2.08572 0
M  V30 4282 C 415.81 1.36554 -1.00246 0
M  V30 4283 O 417.016 1.35295 -1.18724 0
M  V30 4284 H 413.391 0.349619 -0.665786 0
M  V30 4285 H 415.362 0.573932 -2.92829 0
M  V30 4286 C 414.111 2.31752 -2.59203 0
M  V30 4287 H 413.434 2.06765 -3.42182 0
M  V30 4288 H 414.874 3.01053 -2.98568 0
M  V30 4289 C 413.333 3.01692 -1.49945 0
M  V30 4290 O 413.863 3.92083 -0.873704 0
M  V30 4291 N 412.069 2.6326 -1.23056 0
M  V30 4292 H 411.616 1.89838 -1.74125 0
M  V30 4293 H 411.574 3.10372 -0.501685 0
M  V30 4294 N 415.346 1.54954 0.287554 0
M  V30 4295 C 416.256 1.8991 1.37736 0
M  V30 4296 C 417.272 0.794701 1.54792 0
M  V30 4297 O 418.448 1.09243 1.69198 0
M  V30 4298 C 415.513 2.15108 2.71899 0
M  V30 4299 C 414.574 3.38752 2.63715 0
M  V30 4300 C 413.807 3.62739 3.91479 0
M  V30 4301 O 414.03 2.89492 4.91478 0
M  V30 4302 O 412.964 4.56267 3.92561 0
M  V30 4303 H 416.79 2.82652 1.11092 0
M  V30 4304 H 414.375 1.41315 0.484807 0
M  V30 4305 H 416.257 2.32806 3.51254 0
M  V30 4306 H 414.932 1.25551 2.9836 0
M  V30 4307 H 413.839 3.26405 1.82786 0
M  V30 4308 H 415.172 4.28483 2.42205 0
M  V30 4309 N 416.824 -0.551391 1.4764 0
M  V30 4310 C 417.734 -1.68525 1.63207 0
M  V30 4311 C 418.75 -1.6621 0.514815 0
M  V30 4312 O 419.926 -1.85551 0.783113 0
M  V30 4313 C 416.991 -3.05025 1.64805 0
M  V30 4314 C 416.052 -3.18362 2.88 0
M  V30 4315 C 415.285 -4.4835 2.89513 0
M  V30 4316 O 415.508 -5.34163 2.00065 0
M  V30 4317 O 414.442 -4.65602 3.81443 0
M  V30 4318 H 418.268 -1.58333 2.59161 0
M  V30 4319 H 415.853 -0.722063 1.30792 0
M  V30 4320 H 417.735 -3.86245 1.68502 0
M  V30 4321 H 416.41 -3.15587 0.720197 0
M  V30 4322 H 415.317 -2.36518 2.89845 0
M  V30 4323 H 416.65 -3.12707 3.80099 0
M  V30 4324 N 418.302 -1.35869 -0.798587 0
M  V30 4325 C 419.25 -1.29491 -1.93222 0
M  V30 4326 C 420.244 -0.18836 -1.6835 0
M  V30 4327 O 421.45 -0.354822 -1.76468 0
M  V30 4328 H 417.825 -0.402901 -0.63496 0
M  V30 4329 H 419.796 -2.25247 -1.9572 0
M  V30 4330 C 418.545 -1.09184 -3.30112 0
M  V30 4331 H 417.868 -1.93574 -3.49813 0
M  V30 4332 H 419.308 -1.08766 -4.09812 0
M  V30 4333 C 417.767 0.203959 -3.36282 0
M  V30 4334 O 418.297 1.19699 -3.83451 0
M  V30 4335 N 416.503 0.245488 -2.89561 0
M  V30 4336 H 416.05 -0.563223 -2.51367 0
M  V30 4337 H 416.008 1.11219 -2.94071 0
M  V30 4338 N 419.78 1.02168 -1.19998 0
M  V30 4339 C 421.191 1.57135 -1.00825 0
M  V30 4340 C 421.542 1.91276 0.436818 0
M  V30 4341 O 420.667 1.71679 1.3174 0
M  V30 4342 C 421.262 2.85514 -1.82393 0
M  V30 4343 C 419.821 3.37027 -1.67601 0
M  V30 4344 C 418.968 2.10388 -1.80644 0
M  V30 4345 H 421.919 0.846106 -1.34264 0
M  V30 4346 H 421.94 3.56711 -1.32429 0
M  V30 4347 H 421.452 2.60634 -2.87561 0
M  V30 4348 H 419.553 3.66878 -0.650485 0
M  V30 4349 H 419.666 4.09572 -2.4857 0
M  V30 4350 H 418.03 2.22601 -1.23778 0
M  V30 4351 H 418.813 1.8794 -2.87286 0
M  V30 4352 N 421.258 1.00505 1.21394 0
M  V30 4353 C 422.483 0.706367 1.95001 0
M  V30 4354 C 422.908 -0.72463 1.73582 0
M  V30 4355 O 422.266 -1.49702 1.0227 0
M  V30 4356 C 422.314 1.03299 3.45487 0
M  V30 4357 O 421.418 0.138275 4.12168 0
M  V30 4358 H 420.759 0.263175 0.609619 0
M  V30 4359 H 423.289 1.34531 1.54151 0
M  V30 4360 H 423.299 0.979872 3.96059 0
M  V30 4361 H 421.974 2.07567 3.60401 0
M  V30 4362 H 420.551 0.247928 3.72075 0
M  V30 4363 N 422.737 -1.36956 0.779787 0
M  V30 4364 C 423.684 -2.30175 0.169697 0
M  V30 4365 C 424.654 -1.51501 -0.68094 0
M  V30 4366 O 425.839 -1.80042 -0.631629 0
M  V30 4367 C 422.979 -3.37985 -0.697131 0
M  V30 4368 C 422.092 -4.31661 0.170992 0
M  V30 4369 C 421.227 -5.2655 -0.701298 0
M  V30 4370 C 420.266 -6.11867 0.168869 0
M  V30 4371 N 419.403 -6.98973 -0.661855 0
M  V30 4372 H 424.243 -2.81767 0.970135 0
M  V30 4373 H 421.78 -1.38699 0.489994 0
M  V30 4374 H 423.738 -3.99128 -1.2146 0
M  V30 4375 H 422.368 -2.87739 -1.46309 0
M  V30 4376 H 421.42 -3.71756 0.80634 0
M  V30 4377 H 422.732 -4.91644 0.841875 0
M  V30 4378 H 421.886 -5.92937 -1.28494 0
M  V30 4379 H 420.625 -4.66998 -1.40584 0
M  V30 4380 H 419.63 -5.44452 0.764986 0
M  V30 4381 H 420.855 -6.73493 0.870863 0
M  V30 4382 H 418.801 -6.41941 -1.35086 0
M  V30 4383 H 418.718 -7.55984 -0.0484447 0
M  V30 4384 H 419.986 -7.6974 -1.22963 0
M  V30 4385 N 424.215 -0.530993 -1.48385 0
M  V30 4386 C 425.178 0.220497 -2.28137 0
M  V30 4387 C 426.178 0.866851 -1.35434 0
M  V30 4388 O 427.368 0.726746 -1.58316 0
M  V30 4389 C 424.5 1.31921 -3.1434 0
M  V30 4390 H 425.693 -0.479714 -2.96038 0
M  V30 4391 H 423.246 -0.286968 -1.53643 0
M  V30 4392 H 423.981 2.05264 -2.51072 0
M  V30 4393 H 423.766 0.86085 -3.82533 0
M  V30 4394 H 425.256 1.84776 -3.74497 0
M  V30 4395 N 425.693 1.55336 -0.266172 0
M  V30 4396 C 426.923 2.03506 0.356239 0
M  V30 4397 C 427.331 1.14426 1.50676 0
M  V30 4398 O 426.674 0.155043 1.83045 0
M  V30 4399 C 426.736 3.47848 0.90785 0
M  V30 4400 C 426.4 4.56861 -0.112888 0
M  V30 4401 C 427.397 5.11528 -0.929264 0
M  V30 4402 C 425.082 5.01704 -0.244546 0
M  V30 4403 C 427.076 6.09549 -1.86357 0
M  V30 4404 C 424.763 5.99553 -1.18234 0
M  V30 4405 C 425.761 6.53356 -1.99036 0
M  V30 4406 O 425.449 7.49293 -2.91231 0
M  V30 4407 H 425.181 0.670444 0.08649 0
M  V30 4408 H 427.735 2.01598 -0.39337 0
M  V30 4409 H 425.965 3.46967 1.70737 0
M  V30 4410 H 427.654 3.79407 1.44239 0
M  V30 4411 H 428.42 4.77701 -0.838237 0
M  V30 4412 H 424.299 4.59477 0.374359 0
M  V30 4413 H 427.843 6.51469 -2.49467 0
M  V30 4414 H 423.74 6.32799 -1.27421 0
M  V30 4415 H 424.508 7.66978 -2.8581 0
M  V30 4416 N 427.171 -0.0066808 1.57599 0
M  V30 4417 C 428.587 -0.36267 1.55425 0
M  V30 4418 C 428.787 -1.75209 0.995187 0
M  V30 4419 O 427.843 -2.44616 0.626058 0
M  V30 4420 C 429.156 -0.244017 2.99708 0
M  V30 4421 C 430.704 -0.319451 3.11366 0
M  V30 4422 C 431.179 -0.229998 4.57422 0
M  V30 4423 N 432.67 -0.288105 4.62303 0
M  V30 4424 C 433.405 -0.242127 5.72889 0
M  V30 4425 N 432.901 -0.147133 6.92644 0
M  V30 4426 N 434.694 -0.293502 5.61333 0
M  V30 4427 H 426.845 0.902314 1.92281 0
M  V30 4428 H 429.108 0.34525 0.882896 0
M  V30 4429 H 428.814 0.711678 3.44424 0
M  V30 4430 H 428.688 -1.02877 3.629 0
M  V30 4431 H 431.075 -1.26559 2.66584 0
M  V30 4432 H 431.156 0.495055 2.50964 0
M  V30 4433 H 430.8 0.712566 5.02877 0
M  V30 4434 H 430.73 -1.0629 5.15761 0
M  V30 4435 H 433.221 -0.363126 3.76151 0
M  V30 4436 H 433.534 -0.117763 7.7271 0
M  V30 4437 H 431.879 -0.112857 6.94908 0
M  V30 4438 H 435.07 -0.365864 4.66668 0
M  V30 4439 H 435.243 -0.254204 6.47501 0
M  V30 4440 N 428.649 -1.55105 -0.279332 0
M  V30 4441 C 429.889 -1.7716 -1.01949 0
M  V30 4442 C 430.253 -0.557511 -1.83728 0
M  V30 4443 O 431.454 -0.656198 -2.60667 0
M  V30 4444 C 429.725 -3.0372 -1.88385 0
M  V30 4445 S 431.284 -3.46868 -2.68752 0
M  V30 4446 H 428.102 -0.62253 -0.343478 0
M  V30 4447 H 430.704 -1.93329 -0.290572 0
M  V30 4448 H 429.408 -3.90184 -1.2722 0
M  V30 4449 H 428.939 -2.902 -2.65608 0
M  V30 4450 H 430.954 -3.05643 -3.90892 0
M  V30 4451 N 430.127 0.543554 -1.4793 0
M  V30 4452 C 431.352 1.32995 -1.59145 0
M  V30 4453 C 431.777 1.86472 -0.246956 0
M  V30 4454 O 431.135 1.63696 0.779324 0
M  V30 4455 C 431.183 2.46623 -2.63077 0
M  V30 4456 O 430.287 3.49261 -2.19295 0
M  V30 4457 H 429.628 0.394472 -0.534124 0
M  V30 4458 H 432.158 0.655489 -1.93816 0
M  V30 4459 H 432.168 2.93001 -2.83926 0
M  V30 4460 H 430.843 2.07059 -3.60693 0
M  V30 4461 H 429.42 3.09094 -2.08603 0
M  V30 4462 N 431.605 1.3629 0.791371 0
M  V30 4463 C 432.83 1.33726 1.58531 0
M  V30 4464 C 433.255 -0.0794933 1.87932 0
M  V30 4465 O 432.613 -1.05087 1.47738 0
M  V30 4466 C 432.661 2.16425 2.88431 0
M  V30 4467 O 431.765 1.5554 3.81944 0
M  V30 4468 H 431.106 0.457793 0.480959 0
M  V30 4469 H 433.636 1.79547 0.981031 0
M  V30 4470 H 433.646 2.28933 3.37718 0
M  V30 4471 H 432.321 3.19415 2.66359 0
M  V30 4472 H 430.898 1.51961 3.40532 0
M  V30 4473 N 433.083 -1.0153 1.20538 0
M  V30 4474 C 434.03 -2.10098 0.955383 0
M  V30 4475 C 435 -1.65702 -0.114878 0
M  V30 4476 O 436.185 -1.90776 0.0301118 0
M  V30 4477 C 433.325 -3.41236 0.514969 0
M  V30 4478 C 432.438 -3.99102 1.65353 0
M  V30 4479 C 431.573 -5.18306 1.16329 0
M  V30 4480 C 430.612 -5.68258 2.27485 0
M  V30 4481 N 429.749 -6.78722 1.7967 0
M  V30 4482 H 434.589 -2.30818 1.88486 0
M  V30 4483 H 432.126 -1.13189 0.939499 0
M  V30 4484 H 434.084 -4.16504 0.240935 0
M  V30 4485 H 432.714 -3.20585 -0.377512 0
M  V30 4486 H 431.766 -3.20918 2.04245 0
M  V30 4487 H 433.078 -4.32177 2.49047 0
M  V30 4488 H 432.232 -6.00782 0.845302 0
M  V30 4489 H 430.971 -4.86799 0.296254 0
M  V30 4490 H 429.976 -4.84385 2.60099 0
M  V30 4491 H 431.201 -6.01798 3.14667 0
M  V30 4492 H 429.147 -6.49042 0.95295 0
M  V30 4493 H 429.064 -7.10996 2.56944 0
M  V30 4494 H 430.332 -7.64759 1.50875 0
M  V30 4495 N 434.561 -1.01147 -1.20859 0
M  V30 4496 C 435.471 -0.58686 -2.27141 0
M  V30 4497 C 436.487 0.373198 -1.69951 0
M  V30 4498 O 437.663 0.235423 -2.00019 0
M  V30 4499 C 434.728 0.0733602 -3.46622 0
M  V30 4500 C 433.789 -0.931995 -4.19061 0
M  V30 4501 C 433.022 -0.303186 -5.32838 0
M  V30 4502 O 433.245 0.898395 -5.63281 0
M  V30 4503 O 432.179 -1.01735 -5.9324 0
M  V30 4504 H 436.005 -1.47155 -2.65667 0
M  V30 4505 H 433.59 -0.780689 -1.2738 0
M  V30 4506 H 435.472 0.442333 -4.19072 0
M  V30 4507 H 434.147 0.932329 -3.09983 0
M  V30 4508 H 433.054 -1.35224 -3.48805 0
M  V30 4509 H 434.387 -1.76076 -4.59628 0
M  V30 4510 N 436.039 1.36541 -0.78704 0
M  V30 4511 C 437.002 2.28413 -0.189778 0
M  V30 4512 C 438.002 1.48719 0.611499 0
M  V30 4513 O 439.192 1.68737 0.432842 0
M  V30 4514 C 436.324 3.32824 0.737638 0
M  V30 4515 H 437.517 2.82743 -0.999831 0
M  V30 4516 H 435.07 1.46065 -0.556298 0
M  V30 4517 H 435.805 2.83646 1.57212 0
M  V30 4518 H 435.59 3.91752 0.165044 0
M  V30 4519 H 437.08 4.0144 1.15047 0
M  V30 4520 N 437.518 0.538854 1.48102 0
M  V30 4521 C 438.765 0.0080018 2.02498 0
M  V30 4522 C 439.093 -1.33437 1.41509 0
M  V30 4523 O 438.348 -1.87709 0.553507 0
M  V30 4524 C 438.647 -0.153808 3.57069 0
M  V30 4525 C 438.313 1.11533 4.36888 0
M  V30 4526 C 436.975 1.46314 4.58417 0
M  V30 4527 C 439.327 1.95718 4.83057 0
M  V30 4528 C 436.655 2.6516 5.23361 0
M  V30 4529 C 439.007 3.13751 5.49312 0
M  V30 4530 C 437.671 3.48866 5.69077 0
M  V30 4531 H 436.941 0.00292807 0.740994 0
M  V30 4532 H 439.588 0.706668 1.77984 0
M  V30 4533 H 437.893 -0.935309 3.80472 0
M  V30 4534 H 439.59 -0.579607 3.96789 0
M  V30 4535 H 436.18 0.834484 4.20398 0
M  V30 4536 H 440.364 1.70158 4.66219 0
M  V30 4537 H 435.62 2.92558 5.36861 0
M  V30 4538 H 439.794 3.79282 5.84053 0
M  V30 4539 H 437.421 4.41054 6.19173 0
M  V30 4540 N 438.996 -1.55193 0.274407 0
M  V30 4541 C 439.906 -2.26164 -0.623473 0
M  V30 4542 C 440.922 -1.28729 -1.17068 0
M  V30 4543 O 442.098 -1.61663 -1.20112 0
M  V30 4544 C 439.163 -2.96833 -1.7914 0
M  V30 4545 C 438.224 -4.09745 -1.28093 0
M  V30 4546 C 437.457 -4.77034 -2.3932 0
M  V30 4547 O 437.68 -4.4353 -3.5866 0
M  V30 4548 O 436.614 -5.64996 -2.07516 0
M  V30 4549 H 440.44 -3.03661 -0.0485661 0
M  V30 4550 H 438.025 -1.49341 0.0418382 0
M  V30 4551 H 439.907 -3.41248 -2.4724 0
M  V30 4552 H 438.582 -2.22253 -2.35341 0
M  V30 4553 H 437.489 -3.69787 -0.566416 0
M  V30 4554 H 438.822 -4.86224 -0.764683 0
M  V30 4555 N 440.474 -0.00167713 -1.576 0
M  V30 4556 C 441.421 0.989195 -2.08527 0
M  V30 4557 C 442.391 1.34031 -0.981065 0
M  V30 4558 O 443.576 1.43839 -1.2536 0
M  V30 4559 C 440.716 2.27537 -2.59463 0
M  V30 4560 C 439.829 1.98314 -3.83791 0
M  V30 4561 C 438.964 3.21025 -4.23222 0
M  V30 4562 C 438.003 2.87495 -5.40382 0
M  V30 4563 N 437.14 4.02749 -5.75098 0
M  V30 4564 H 441.98 0.547973 -2.92919 0
M  V30 4565 H 439.517 0.258917 -1.44803 0
M  V30 4566 H 441.475 3.02729 -2.87073 0
M  V30 4567 H 440.105 2.69325 -1.77943 0
M  V30 4568 H 439.157 1.13482 -3.63078 0
M  V30 4569 H 440.469 1.69601 -4.69081 0
M  V30 4570 H 439.623 4.04561 -4.52123 0
M  V30 4571 H 438.362 3.52877 -3.36644 0
M  V30 4572 H 437.367 2.02367 -5.11202 0
M  V30 4573 H 438.592 2.56889 -6.28637 0
M  V30 4574 H 436.538 4.34494 -4.91478 0
M  V30 4575 H 436.455 3.77566 -6.54966 0
M  V30 4576 H 437.723 4.87068 -6.08592 0
M  V30 4577 N 441.952 1.55251 0.271103 0
M  V30 4578 C 443.2 1.75599 1.00047 0
M  V30 4579 C 443.521 0.561188 1.8675 0
M  V30 4580 O 442.791 -0.423846 1.9126 0
M  V30 4581 H 441.371 0.647562 0.372387 0
M  V30 4582 H 444.033 1.92656 0.294876 0
M  V30 4583 H 443.129 2.65766 1.6363 0
M  V30 4584 N 443.43 -0.535701 1.48216 0
M  V30 4585 C 444.36 -1.65014 1.65204 0
M  V30 4586 C 445.341 -1.62554 0.501011 0
M  V30 4587 O 446.526 -1.7984 0.732886 0
M  V30 4588 C 443.656 -3.03616 1.68626 0
M  V30 4589 C 442.61 -3.20932 2.83172 0
M  V30 4590 C 441.936 -4.60537 2.71679 0
M  V30 4591 C 443.236 -3.04249 4.24535 0
M  V30 4592 H 444.93 -1.51053 2.58502 0
M  V30 4593 H 442.476 -0.725262 1.24402 0
M  V30 4594 H 444.429 -3.81446 1.79099 0
M  V30 4595 H 443.153 -3.18587 0.719026 0
M  V30 4596 H 441.812 -2.45517 2.72244 0
M  V30 4597 H 441.46 -4.72336 1.72937 0
M  V30 4598 H 441.16 -4.73069 3.48538 0
M  V30 4599 H 442.684 -5.40475 2.84112 0
M  V30 4600 H 444.098 -3.71877 4.36326 0
M  V30 4601 H 442.495 -3.28278 5.02348 0
M  V30 4602 H 443.565 -2.00739 4.41397 0
M  V30 4603 N 444.908 -1.36708 -0.784132 0
M  V30 4604 C 446.148 -1.32618 -1.55537 0
M  V30 4605 C 446.512 0.0920681 -1.91779 0
M  V30 4606 O 447.713 0.257573 -2.67563 0
M  V30 4607 C 445.984 -2.22788 -2.79464 0
M  V30 4608 S 447.543 -2.36432 -3.69656 0
M  V30 4609 H 444.361 -0.470973 -0.53264 0
M  V30 4610 H 446.963 -1.72333 -0.92312 0
M  V30 4611 H 445.667 -3.24774 -2.50899 0
M  V30 4612 H 445.198 -1.84112 -3.47658 0
M  V30 4613 H 447.213 -1.56573 -4.7085 0
M  V30 4614 N 446.386 1.0089 -1.21074 0
M  V30 4615 C 447.316 2.1145 -0.990523 0
M  V30 4616 C 448.297 1.69897 0.0831699 0
M  V30 4617 O 449.482 1.94052 -0.0758853 0
M  V30 4618 C 446.612 3.42914 -0.550177 0
M  V30 4619 C 445.566 3.98244 -1.56799 0
M  V30 4620 C 444.892 5.25568 -0.984013 0
M  V30 4621 C 446.192 4.30752 -2.95381 0
M  V30 4622 H 447.886 2.3013 -1.91521 0
M  V30 4623 H 445.432 1.10592 -0.92225 0
M  V30 4624 H 447.385 4.19653 -0.383305 0
M  V30 4625 H 446.109 3.24014 0.41015 0
M  V30 4626 H 444.768 3.23621 -1.72236 0
M  V30 4627 H 444.416 5.02998 -0.0155216 0
M  V30 4628 H 444.116 5.63551 -1.66384 0
M  V30 4629 H 445.64 6.04955 -0.828378 0
M  V30 4630 H 447.054 4.98349 -2.8341 0
M  V30 4631 H 445.451 4.79869 -3.60341 0
M  V30 4632 H 446.521 3.39192 -3.46521 0
M  V30 4633 N 447.864 1.01787 1.20321 0
M  V30 4634 C 449.089 0.727009 1.9424 0
M  V30 4635 C 449.514 -0.706179 1.74341 0
M  V30 4636 O 448.872 -1.48609 1.03852 0
M  V30 4637 C 448.92 1.06958 3.44372 0
M  V30 4638 O 448.024 0.181983 4.11998 0
M  V30 4639 H 447.365 0.269626 0.606793 0
M  V30 4640 H 449.895 1.36158 1.52716 0
M  V30 4641 H 449.905 1.02182 3.94997 0
M  V30 4642 H 448.58 2.11378 3.58179 0
M  V30 4643 H 447.157 0.287378 3.71791 0
M  V30 4644 N 449.342 -1.36122 0.79427 0
M  V30 4645 C 450.582 -2.00942 0.374376 0
M  V30 4646 C 450.946 -1.61666 -1.03577 0
M  V30 4647 O 452.147 -2.19113 -1.55701 0
M  V30 4648 C 450.418 -3.53323 0.538327 0
M  V30 4649 S 451.977 -4.38311 0.20703 0
M  V30 4650 H 448.795 -0.696515 0.142785 0
M  V30 4651 H 451.397 -1.65929 1.03382 0
M  V30 4652 H 450.101 -3.79395 1.56484 0
M  V30 4653 H 449.632 -3.93162 -0.136882 0
M  V30 4654 H 451.647 -4.8623 -0.989695 0
M  V30 4655 N 450.82 -0.546701 -1.47814 0
M  V30 4656 C 452.236 -0.205717 -1.58269 0
M  V30 4657 C 452.436 1.29153 -1.54667 0
M  V30 4658 O 451.492 2.07098 -1.44453 0
M  V30 4659 C 452.805 -0.823065 -2.89216 0
M  V30 4660 C 454.353 -0.793328 -3.02779 0
M  V30 4661 C 454.828 -1.38955 -4.36412 0
M  V30 4662 N 456.319 -1.35227 -4.43021 0
M  V30 4663 C 457.054 -1.78333 -5.44963 0
M  V30 4664 N 456.55 -2.29246 -6.53772 0
M  V30 4665 N 458.343 -1.69467 -5.35945 0
M  V30 4666 H 450.494 -1.5196 -1.48398 0
M  V30 4667 H 452.757 -0.633078 -0.705632 0
M  V30 4668 H 452.463 -1.8749 -2.97558 0
M  V30 4669 H 452.337 -0.309915 -3.75925 0
M  V30 4670 H 454.724 0.249784 -2.94041 0
M  V30 4671 H 454.805 -1.34412 -2.17639 0
M  V30 4672 H 454.449 -2.43168 -4.45906 0
M  V30 4673 H 454.379 -0.814291 -5.20266 0
M  V30 4674 H 456.87 -0.979739 -3.64979 0
M  V30 4675 H 457.183 -2.60089 -7.27718 0
M  V30 4676 H 455.528 -2.3325 -6.5469 0
M  V30 4677 H 458.719 -1.29477 -4.49837 0
M  V30 4678 H 458.892 -2.03381 -6.15256 0
M  V30 4679 N 452.299 1.55045 -0.282633 0
M  V30 4680 C 453.246 2.22822 0.601566 0
M  V30 4681 C 454.216 1.20431 1.14392 0
M  V30 4682 O 455.401 1.48996 1.19184 0
M  V30 4683 C 452.541 2.95873 1.77632 0
M  V30 4684 C 451.654 4.12999 1.26711 0
M  V30 4685 C 450.789 4.73676 2.40426 0
M  V30 4686 C 449.828 5.82981 1.86545 0
M  V30 4687 N 448.965 6.3769 2.93762 0
M  V30 4688 H 453.805 2.97995 0.0169528 0
M  V30 4689 H 451.342 1.471 -0.00339964 0
M  V30 4690 H 453.3 3.36447 2.46697 0
M  V30 4691 H 451.93 2.2311 2.33285 0
M  V30 4692 H 450.982 3.77494 0.469314 0
M  V30 4693 H 452.294 4.91803 0.832518 0
M  V30 4694 H 451.448 5.17008 3.17471 0
M  V30 4695 H 450.187 3.94164 2.87203 0
M  V30 4696 H 449.192 5.39092 1.07983 0
M  V30 4697 H 450.417 6.64366 1.40694 0
M  V30 4698 H 448.363 5.61069 3.39908 0
M  V30 4699 H 448.28 7.11788 2.54744 0
M  V30 4700 H 449.548 6.8568 3.7076 0
M  V30 4701 N 453.777 0.010035 1.57597 0
M  V30 4702 C 454.725 -0.996272 2.10184 0
M  V30 4703 C 455.719 -1.34942 1.02406 0
M  V30 4704 O 456.925 -1.33389 1.20861 0
M  V30 4705 H 453.3 -0.338982 0.671264 0
M  V30 4706 H 455.271 -0.527272 2.93705 0
M  V30 4707 C 454.02 -2.27599 2.62857 0
M  V30 4708 H 453.343 -2.01295 3.45428 0
M  V30 4709 H 454.783 -2.96265 3.0332 0
M  V30 4710 C 453.242 -2.99269 1.54725 0
M  V30 4711 O 453.772 -3.90644 0.93597 0
M  V30 4712 N 451.978 -2.61269 1.27228 0
M  V30 4713 H 451.525 -1.87043 1.77123 0
M  V30 4714 H 451.483 -3.09534 0.550999 0
M  V30 4715 N 455.255 -1.55392 -0.262866 0
M  V30 4716 C 456.671 -1.47459 -0.610582 0
M  V30 4717 C 456.871 -0.697031 -1.8906 0
M  V30 4718 O 455.927 -0.219952 -2.5154 0
M  V30 4719 C 457.24 -2.91751 -0.728131 0
M  V30 4720 C 458.788 -3.02027 -0.821517 0
M  V30 4721 C 459.263 -4.47594 -0.97076 0
M  V30 4722 N 460.754 -4.51465 -1.03603 0
M  V30 4723 C 461.489 -5.61326 -1.17049 0
M  V30 4724 N 460.985 -6.81032 -1.2715 0
M  V30 4725 N 462.778 -5.49089 -1.20239 0
M  V30 4726 H 454.929 -2.04395 0.577632 0
M  V30 4727 H 457.192 -0.927287 0.197086 0
M  V30 4728 H 456.898 -3.51413 0.142132 0
M  V30 4729 H 456.772 -3.4134 -1.6052 0
M  V30 4730 H 459.159 -2.42456 -1.68224 0
M  V30 4731 H 459.24 -2.55674 0.0803688 0
M  V30 4732 H 458.884 -5.07771 -0.114655 0
M  V30 4733 H 458.814 -4.91613 -1.88745 0
M  V30 4734 H 461.305 -3.6524 -0.96996 0
M  V30 4735 H 461.618 -7.60511 -1.37271 0
M  V30 4736 H 459.963 -6.83824 -1.24136 0
M  V30 4737 H 463.154 -4.54507 -1.11985 0
M  V30 4738 H 463.327 -6.34749 -1.30373 0
M  V30 4739 N 456.733 0.527833 -1.48498 0
M  V30 4740 C 457.973 1.29401 -1.58224 0
M  V30 4741 C 458.337 1.90348 -0.251327 0
M  V30 4742 O 459.538 2.67868 -0.223588 0
M  V30 4743 C 457.809 2.35266 -2.69044 0
M  V30 4744 S 459.368 3.2158 -2.98549 0
M  V30 4745 H 456.186 0.440138 -0.558391 0
M  V30 4746 H 458.788 0.601079 -1.8603 0
M  V30 4747 H 457.492 1.88975 -3.64303 0
M  V30 4748 H 457.023 3.09263 -2.43146 0
M  V30 4749 H 459.038 4.35391 -2.38011 0
M  V30 4750 N 458.211 1.37122 0.776871 0
M  V30 4751 C 459.159 1.32549 1.91138 0
M  V30 4752 C 460.153 0.215119 1.68029 0
M  V30 4753 O 461.359 0.382852 1.75881 0
M  V30 4754 H 457.734 0.412952 0.62847 0
M  V30 4755 H 459.705 2.28332 1.92112 0
M  V30 4756 C 458.454 1.14422 3.28333 0
M  V30 4757 H 457.777 1.99115 3.46689 0
M  V30 4758 H 459.217 1.15272 4.0803 0
M  V30 4759 C 457.676 -0.150434 3.36564 0
M  V30 4760 O 458.206 -1.13584 3.85307 0
M  V30 4761 N 456.412 -0.19939 2.89915 0
M  V30 4762 H 455.959 0.603142 2.5044 0
M  V30 4763 H 455.917 -1.06526 2.95803 0
M  V30 4764 N 459.689 -1.00246 1.21608 0
M  V30 4765 C 460.637 -2.11193 0.97469 0
M  V30 4766 C 461.631 -1.69216 -0.0789303 0
M  V30 4767 O 462.837 -1.79853 0.0726806 0
M  V30 4768 H 459.212 -0.690455 0.297953 0
M  V30 4769 H 461.183 -2.2873 1.91638 0
M  V30 4770 C 459.932 -3.43182 0.558717 0
M  V30 4771 H 459.255 -3.75918 1.3611 0
M  V30 4772 H 460.695 -4.21823 0.429154 0
M  V30 4773 C 459.154 -3.28882 -0.730648 0
M  V30 4774 O 459.684 -3.59835 -1.78554 0
M  V30 4775 N 457.89 -2.8209 -0.698131 0
M  V30 4776 H 457.437 -2.57099 0.16061 0
M  V30 4777 H 457.395 -2.72903 -1.56113 0
M  V30 4778 N 461.167 -1.02423 -1.1978 0
M  V30 4779 C 462.097 -0.62157 -2.25075 0
M  V30 4780 C 463.078 0.367148 -1.6609 0
M  V30 4781 O 464.263 0.250892 -1.92573 0
M  V30 4782 C 461.393 0.0331826 -3.47284 0
M  V30 4783 C 460.347 -0.877323 -4.18912 0
M  V30 4784 C 459.673 -0.0879296 -5.34628 0
M  V30 4785 C 460.973 -2.18892 -4.74219 0
M  V30 4786 H 462.667 -1.50179 -2.59011 0
M  V30 4787 H 460.213 -0.723547 -1.24502 0
M  V30 4788 H 462.166 0.326488 -4.20133 0
M  V30 4789 H 460.89 0.948164 -3.12534 0
M  V30 4790 H 459.549 -1.15475 -3.47938 0
M  V30 4791 H 459.197 0.828941 -4.96123 0
M  V30 4792 H 458.897 -0.694359 -5.83483 0
M  V30 4793 H 460.421 0.198743 -6.10276 0
M  V30 4794 H 461.835 -1.95746 -5.38847 0
M  V30 4795 H 460.232 -2.74686 -5.33542 0
M  V30 4796 H 461.302 -2.84674 -3.92541 0
M  V30 4797 N 462.645 1.35699 -0.801477 0
M  V30 4798 C 463.893 1.9852 -0.37871 0
M  V30 4799 C 464.214 1.63907 1.05638 0
M  V30 4800 O 463.484 0.919013 1.73006 0
M  V30 4801 H 462.064 0.734322 -0.137042 0
M  V30 4802 H 464.726 1.65697 -1.02619 0
M  V30 4803 H 463.822 3.08382 -0.480284 0
M  V30 4804 N 464.123 0.554532 1.47522 0
M  V30 4805 C 465.353 0.0342074 2.06572 0
M  V30 4806 C 465.761 -1.26375 1.40805 0
M  V30 4807 O 465.104 -1.7683 0.49769 0
M  V30 4808 C 465.166 -0.235096 3.5873 0
M  V30 4809 C 464.83 0.973024 4.46521 0
M  V30 4810 C 465.827 1.8779 4.848 0
M  V30 4811 C 463.512 1.18694 4.88075 0
M  V30 4812 C 465.506 2.98039 5.63428 0
M  V30 4813 C 463.193 2.29254 5.66468 0
M  V30 4814 C 464.191 3.18757 6.04055 0
M  V30 4815 O 463.879 4.27401 6.8087 0
M  V30 4816 H 463.611 0.041587 0.67472 0
M  V30 4817 H 466.165 0.766748 1.90552 0
M  V30 4818 H 464.395 -1.02191 3.72953 0
M  V30 4819 H 466.084 -0.700477 3.9981 0
M  V30 4820 H 466.85 1.72467 4.53299 0
M  V30 4821 H 462.729 0.49947 4.58286 0
M  V30 4822 H 466.273 3.67926 5.92685 0
M  V30 4823 H 462.17 2.4455 5.97382 0
M  V30 4824 H 462.938 4.25415 6.9926 0
M  V30 4825 N 465.601 -1.54893 0.290851 0
M  V30 4826 C 466.511 -2.26812 -0.59945 0
M  V30 4827 C 467.527 -1.29963 -1.15696 0
M  V30 4828 O 468.703 -1.62928 -1.18391 0
M  V30 4829 C 465.768 -2.98716 -1.75982 0
M  V30 4830 C 464.829 -4.1108 -1.2374 0
M  V30 4831 C 464.062 -4.79546 -2.34246 0
M  V30 4832 O 464.285 -4.47309 -3.53936 0
M  V30 4833 O 463.219 -5.67165 -2.01512 0
M  V30 4834 H 467.045 -3.03696 -0.0163561 0
M  V30 4835 H 464.63 -1.49289 0.0576755 0
M  V30 4836 H 466.512 -3.43851 -2.43607 0
M  V30 4837 H 465.187 -2.24737 -2.3297 0
M  V30 4838 H 464.094 -3.70367 -0.527163 0
M  V30 4839 H 465.427 -4.87007 -0.71307 0
M  V30 4840 N 467.08 -0.0183926 -1.57589 0
M  V30 4841 C 468.329 0.66185 -1.90532 0
M  V30 4842 C 468.642 1.73904 -0.895366 0
M  V30 4843 O 469.848 2.47518 -1.11566 0
M  V30 4844 C 468.304 1.22844 -3.38286 0
M  V30 4845 C 467.912 0.185103 -4.47617 0
M  V30 4846 C 469.656 1.88581 -3.80312 0
M  V30 4847 C 467.563 0.762723 -5.86461 0
M  V30 4848 H 466.493 0.250972 -0.711006 0
M  V30 4849 H 469.144 -0.0819435 -1.83317 0
M  V30 4850 H 467.526 2.0235 -3.40398 0
M  V30 4851 H 468.7 -0.58671 -4.5705 0
M  V30 4852 H 467.015 -0.372889 -4.14727 0
M  V30 4853 H 469.612 2.32735 -4.81392 0
M  V30 4854 H 469.955 2.72408 -3.14801 0
M  V30 4855 H 470.488 1.15782 -3.80578 0
M  V30 4856 H 467.227 -0.0371713 -6.55489 0
M  V30 4857 H 466.747 1.50327 -5.80656 0
M  V30 4858 H 468.426 1.25576 -6.34697 0
M  V30 4859 N 468.558 1.5553 0.254621 0
M  V30 4860 C 469.506 1.9048 1.33492 0
M  V30 4861 C 470.5 0.78304 1.50216 0
M  V30 4862 O 471.706 0.967582 1.51782 0
M  V30 4863 H 468.081 0.604846 0.44684 0
M  V30 4864 H 470.052 2.80688 1.01275 0
M  V30 4865 C 468.801 2.20928 2.68489 0
M  V30 4866 H 468.124 3.06742 2.56417 0
M  V30 4867 H 469.564 2.49291 3.42972 0
M  V30 4868 C 468.023 1.023 3.20993 0
M  V30 4869 O 468.553 0.267027 4.00811 0
M  V30 4870 N 466.759 0.815714 2.78917 0
M  V30 4871 H 466.306 1.43217 2.14119 0
M  V30 4872 H 466.264 0.0236532 3.14391 0
M  V30 4873 N 470.036 -0.519951 1.48776 0
M  V30 4874 C 470.983 -1.62352 1.64044 0
M  V30 4875 C 471.953 -1.58945 0.482251 0
M  V30 4876 O 473.138 -1.77219 0.706971 0
M  V30 4877 C 470.278 -3.00579 1.69547 0
M  V30 4878 C 469.391 -3.14145 2.96541 0
M  V30 4879 C 468.526 -4.42991 2.93142 0
M  V30 4880 C 467.565 -4.50122 4.14797 0
M  V30 4881 N 466.702 -5.7037 4.09418 0
M  V30 4882 H 471.542 -1.48643 2.58281 0
M  V30 4883 H 469.079 -0.723516 1.28077 0
M  V30 4884 H 471.037 -3.80671 1.70719 0
M  V30 4885 H 469.667 -3.13036 0.787918 0
M  V30 4886 H 468.719 -2.27239 3.05068 0
M  V30 4887 H 470.031 -3.15275 3.86527 0
M  V30 4888 H 469.185 -5.31385 2.92772 0
M  V30 4889 H 467.924 -4.44398 2.00902 0
M  V30 4890 H 466.929 -3.60133 4.15433 0
M  V30 4891 H 468.154 -4.50445 5.08208 0
M  V30 4892 H 466.1 -5.72655 3.20004 0
M  V30 4893 H 466.017 -5.73036 4.93119 0
M  V30 4894 H 467.285 -6.61023 4.13121 0
M  V30 4895 N 471.514 -1.37532 -0.769588 0
M  V30 4896 C 472.76 -1.33057 -1.53048 0
M  V30 4897 C 473.093 0.0841865 -1.94017 0
M  V30 4898 O 472.368 1.04198 -1.64235 0
M  V30 4899 C 472.651 -2.27166 -2.79406 0
M  V30 4900 C 472.504 -3.77429 -2.44677 0
M  V30 4901 C 473.823 -2.19683 -3.81349 0
M  V30 4902 H 470.942 -0.484655 -0.555228 0
M  V30 4903 H 473.584 -1.68251 -0.882702 0
M  V30 4904 H 471.734 -1.97283 -3.34682 0
M  V30 4905 H 473.406 -4.17918 -1.953 0
M  V30 4906 H 471.649 -3.95892 -1.77346 0
M  V30 4907 H 472.32 -4.38716 -3.35011 0
M  V30 4908 H 474.796 -2.46029 -3.35573 0
M  V30 4909 H 473.672 -2.87668 -4.67481 0
M  V30 4910 H 473.933 -1.19045 -4.25771 0
M  V30 4911 N 472.992 0.995999 -1.22138 0
M  V30 4912 C 474.408 1.25917 -0.980667 0
M  V30 4913 C 474.608 1.98819 0.327604 0
M  V30 4914 O 473.664 2.29587 1.05101 0
M  V30 4915 C 474.977 2.07399 -2.17729 0
M  V30 4916 C 476.525 2.20594 -2.22052 0
M  V30 4917 C 477 3.05462 -3.41258 0
M  V30 4918 N 478.491 3.13049 -3.41401 0
M  V30 4919 C 479.226 3.78997 -4.30289 0
M  V30 4920 N 478.722 4.46899 -5.2939 0
M  V30 4921 N 480.515 3.75728 -4.18073 0
M  V30 4922 H 472.666 0.507158 -2.06256 0
M  V30 4923 H 474.929 0.28658 -0.903646 0
M  V30 4924 H 474.635 1.61191 -3.12586 0
M  V30 4925 H 474.509 3.08154 -2.17534 0
M  V30 4926 H 476.896 2.66017 -1.27745 0
M  V30 4927 H 476.977 1.1928 -2.26287 0
M  V30 4928 H 476.621 2.60739 -4.35864 0
M  V30 4929 H 476.551 4.06911 -3.34262 0
M  V30 4930 H 479.042 2.64721 -2.69688 0
M  V30 4931 H 479.355 4.94952 -5.935 0
M  V30 4932 H 477.7 4.45657 -5.33306 0
M  V30 4933 H 480.891 3.2184 -3.39907 0
M  V30 4934 H 481.064 4.26845 -4.87553 0
M  V30 4935 N 474.47 1.03057 1.19235 0
M  V30 4936 C 475.433 0.617418 2.20727 0
M  V30 4937 C 476.433 -0.319856 1.57587 0
M  V30 4938 O 477.623 -0.106633 1.73873 0
M  V30 4939 C 474.755 -0.096296 3.40764 0
M  V30 4940 H 475.948 1.51544 2.58794 0
M  V30 4941 H 473.501 0.821949 1.32942 0
M  V30 4942 H 474.236 -1.00859 3.08217 0
M  V30 4943 H 474.021 0.577217 3.87828 0
M  V30 4944 H 475.511 -0.372219 4.15938 0
M  V30 4945 N 475.948 -1.35272 0.808662 0
M  V30 4946 C 476.895 -2.29764 0.218482 0
M  V30 4947 C 477.865 -1.52911 -0.648652 0
M  V30 4948 O 479.05 -1.81341 -0.593297 0
M  V30 4949 C 476.19 -3.39388 -0.625282 0
M  V30 4950 C 475.303 -4.31202 0.262516 0
M  V30 4951 C 474.438 -5.27919 -0.589451 0
M  V30 4952 C 473.477 -6.11371 0.298617 0
M  V30 4953 N 472.614 -7.0022 -0.513443 0
M  V30 4954 H 477.454 -2.79645 1.02968 0
M  V30 4955 H 474.991 -1.37629 0.519303 0
M  V30 4956 H 476.949 -4.01615 -1.12966 0
M  V30 4957 H 475.579 -2.90777 -1.40173 0
M  V30 4958 H 474.631 -3.69962 0.885013 0
M  V30 4959 H 475.943 -4.89748 0.945971 0
M  V30 4960 H 475.097 -5.95529 -1.15888 0
M  V30 4961 H 473.836 -4.69875 -1.30647 0
M  V30 4962 H 472.841 -5.42707 0.880301 0
M  V30 4963 H 474.066 -6.71494 1.01352 0
M  V30 4964 H 472.012 -6.44662 -1.21439 0
M  V30 4965 H 471.929 -7.55917 0.111922 0
M  V30 4966 H 473.197 -7.72175 -1.06608 0
M  V30 4967 N 477.426 -0.562348 -1.47226 0
M  V30 4968 C 478.842 -0.222492 -1.58042 0
M  V30 4969 C 479.042 1.27505 -1.56028 0
M  V30 4970 O 478.098 2.05555 -1.46641 0
M  V30 4971 C 479.411 -0.853694 -2.88327 0
M  V30 4972 C 480.959 -0.825397 -3.01921 0
M  V30 4973 C 481.434 -1.43576 -4.34914 0
M  V30 4974 N 482.925 -1.39918 -4.41562 0
M  V30 4975 C 483.66 -1.84103 -5.43041 0
M  V30 4976 N 483.156 -2.36167 -6.51304 0
M  V30 4977 N 484.949 -1.75142 -5.34118 0
M  V30 4978 H 477.1 -1.53525 -1.46778 0
M  V30 4979 H 479.363 -0.640527 -0.698877 0
M  V30 4980 H 479.069 -1.90635 -2.95552 0
M  V30 4981 H 478.943 -0.34977 -3.75575 0
M  V30 4982 H 481.33 0.218583 -2.94289 0
M  V30 4983 H 481.411 -1.36713 -2.16202 0
M  V30 4984 H 481.055 -2.47884 -4.43301 0
M  V30 4985 H 480.985 -0.869427 -5.19373 0
M  V30 4986 H 483.476 -1.0184 -3.63919 0
M  V30 4987 H 483.789 -2.67793 -7.24919 0
M  V30 4988 H 482.134 -2.40181 -6.52179 0
M  V30 4989 H 485.325 -1.34241 -4.48439 0
M  V30 4990 H 485.498 -2.09895 -6.13065 0
M  V30 4991 N 478.904 1.54736 -0.299062 0
M  V30 4992 C 480.129 2.04975 0.316254 0
M  V30 4993 C 480.554 1.17501 1.46885 0
M  V30 4994 O 479.912 0.178678 1.80417 0
M  V30 4995 C 479.96 3.52672 0.751997 0
M  V30 4996 O 479.064 3.68226 1.85697 0
M  V30 4997 H 478.405 0.661126 0.0617175 0
M  V30 4998 H 480.935 1.99805 -0.440341 0
M  V30 4999 H 480.945 3.94488 1.04133 0
M  V30 5000 H 479.62 4.158 -0.0911482 0
M  V30 5001 H 478.197 3.38316 1.56834 0
M  V30 5002 N 480.382 0.0267497 1.57577 0
M  V30 5003 C 481.607 -0.666227 1.96408 0
M  V30 5004 C 482.032 -1.65004 0.903071 0
M  V30 5005 O 481.39 -1.80787 -0.136263 0
M  V30 5006 C 481.438 -1.35101 3.34335 0
M  V30 5007 O 480.542 -2.46623 3.30531 0
M  V30 5008 H 479.883 -0.175206 0.640468 0
M  V30 5009 H 482.413 0.0878977 2.04411 0
M  V30 5010 H 482.423 -1.70834 3.70513 0
M  V30 5011 H 481.098 -0.629844 4.11103 0
M  V30 5012 H 479.675 -2.13019 3.06068 0
M  V30 5013 N 481.861 -1.55662 -0.24637 0
M  V30 5014 C 482.808 -1.90361 -1.30504 0
M  V30 5015 C 483.778 -0.757905 -1.47801 0
M  V30 5016 O 484.963 -1.01161 -1.61775 0
M  V30 5017 C 482.103 -2.2042 -2.65535 0
M  V30 5018 C 481.216 -3.47799 -2.56242 0
M  V30 5019 C 480.351 -3.67426 -3.8363 0
M  V30 5020 C 479.39 -4.88403 -3.68956 0
M  V30 5021 N 478.527 -5.04548 -4.88237 0
M  V30 5022 H 483.367 -2.80645 -1.00213 0
M  V30 5023 H 480.904 -1.38924 -0.483577 0
M  V30 5024 H 482.862 -2.35853 -3.44135 0
M  V30 5025 H 481.492 -1.3334 -2.93973 0
M  V30 5026 H 480.544 -3.40694 -1.69208 0
M  V30 5027 H 481.856 -4.36544 -2.4131 0
M  V30 5028 H 481.01 -3.82821 -4.70673 0
M  V30 5029 H 479.749 -2.76914 -4.01459 0
M  V30 5030 H 478.754 -4.72984 -2.80296 0
M  V30 5031 H 479.979 -5.80375 -3.52621 0
M  V30 5032 H 477.925 -4.16974 -5.06427 0
M  V30 5033 H 477.842 -5.87384 -4.75937 0
M  V30 5034 H 479.11 -5.24355 -5.76777 0
M  V30 5035 N 483.339 0.512053 -1.4905 0
M  V30 5036 C 484.272 1.63209 -1.59493 0
M  V30 5037 C 485.25 1.56407 -0.444481 0
M  V30 5038 O 486.434 1.76623 -0.658535 0
M  V30 5039 C 483.561 3.01685 -1.53961 0
M  V30 5040 C 482.607 3.26786 -2.74068 0
M  V30 5041 S 483.44 3.11107 -4.35859 0
M  V30 5042 C 484.596 4.51997 -4.32954 0
M  V30 5043 H 484.829 1.54104 -2.54243 0
M  V30 5044 H 482.362 0.696382 -1.37804 0
M  V30 5045 H 484.32 3.81538 -1.51455 0
M  V30 5046 H 482.981 3.08215 -0.605178 0
M  V30 5047 H 482.174 4.27849 -2.66386 0
M  V30 5048 H 481.776 2.54635 -2.73928 0
M  V30 5049 H 484.068 5.43871 -4.03993 0
M  V30 5050 H 485.011 4.64731 -5.34257 0
M  V30 5051 H 485.419 4.32159 -3.63178 0
M  V30 5052 N 484.817 1.37938 0.762283 0
M  V30 5053 C 486.047 1.36685 1.54922 0
M  V30 5054 C 486.455 -0.0474099 1.89141 0
M  V30 5055 O 485.798 -1.02213 1.52638 0
M  V30 5056 C 485.86 2.14963 2.88152 0
M  V30 5057 C 485.524 3.6385 2.76518 0
M  V30 5058 C 486.521 4.57531 2.46904 0
M  V30 5059 C 484.206 4.07095 2.94243 0
M  V30 5060 C 486.2 5.92436 2.35156 0
M  V30 5061 C 483.887 5.42083 2.82116 0
M  V30 5062 C 484.885 6.34567 2.52614 0
M  V30 5063 O 484.573 7.67073 2.40529 0
M  V30 5064 H 484.305 0.469586 0.486276 0
M  V30 5065 H 486.859 1.82012 0.951876 0
M  V30 5066 H 485.089 1.6434 3.50042 0
M  V30 5067 H 486.778 2.06224 3.49609 0
M  V30 5068 H 487.544 4.25428 2.32886 0
M  V30 5069 H 483.423 3.35462 3.16206 0
M  V30 5070 H 486.967 6.64591 2.12049 0
M  V30 5071 H 482.864 5.73785 2.95704 0
M  V30 5072 H 483.632 7.77499 2.55807 0
M  V30 5073 N 486.295 -0.989507 1.22664 0
M  V30 5074 C 487.225 -2.09847 1.02404 0
M  V30 5075 C 488.206 -1.70007 -0.0561303 0
M  V30 5076 O 489.391 -1.93906 0.106748 0
M  V30 5077 C 486.521 -3.41996 0.604663 0
M  V30 5078 C 485.475 -3.95699 1.63115 0
M  V30 5079 C 484.801 -5.23936 1.0675 0
M  V30 5080 C 486.101 -4.25999 3.02196 0
M  V30 5081 H 487.795 -2.27054 1.95158 0
M  V30 5082 H 485.341 -1.09111 0.939727 0
M  V30 5083 H 487.294 -4.1899 0.45002 0
M  V30 5084 H 486.018 -3.24626 -0.35855 0
M  V30 5085 H 484.677 -3.2084 1.77362 0
M  V30 5086 H 484.325 -5.02909 0.0955422 0
M  V30 5087 H 484.025 -5.60833 1.75328 0
M  V30 5088 H 485.549 -6.0356 0.924516 0
M  V30 5089 H 486.963 -4.93777 2.91303 0
M  V30 5090 H 485.36 -4.74076 3.67929 0
M  V30 5091 H 486.43 -3.33636 3.51873 0
M  V30 5092 N 487.773 -1.03688 -1.18687 0
M  V30 5093 C 488.72 -0.624624 -2.22187 0
M  V30 5094 C 489.69 0.365636 -1.62026 0
M  V30 5095 O 490.875 0.260481 -1.89014 0
M  V30 5096 C 488.015 0.0101738 -3.45099 0
M  V30 5097 C 487.128 -1.02709 -4.19613 0
M  V30 5098 C 486.263 -0.361213 -5.2997 0
M  V30 5099 C 485.302 -1.38384 -5.96252 0
M  V30 5100 N 484.439 -0.743196 -6.98155 0
M  V30 5101 H 489.279 -1.51176 -2.56807 0
M  V30 5102 H 486.816 -0.75636 -1.26165 0
M  V30 5103 H 488.774 0.395528 -4.15321 0
M  V30 5104 H 487.404 0.860848 -3.1111 0
M  V30 5105 H 486.456 -1.53043 -3.48256 0
M  V30 5106 H 487.768 -1.80398 -4.65036 0
M  V30 5107 H 486.922 0.0785537 -6.06649 0
M  V30 5108 H 485.661 0.447799 -4.8564 0
M  V30 5109 H 484.666 -1.83378 -5.18317 0
M  V30 5110 H 485.891 -2.19448 -6.42666 0
M  V30 5111 H 483.837 0.0455789 -6.55984 0
M  V30 5112 H 483.754 -1.45784 -7.41811 0
M  V30 5113 H 485.022 -0.327698 -7.78811 0
M  V30 5114 N 489.251 1.34841 -0.815825 0
M  V30 5115 C 490.479 2.0273 -0.413294 0
M  V30 5116 C 490.894 1.61459 0.978599 0
M  V30 5117 O 490.251 0.816584 1.63212 0
M  V30 5118 C 490.302 3.58058 -0.497676 0
M  V30 5119 O 490.023 3.97832 -1.8347 0
M  V30 5120 C 491.524 4.4321 -0.0891339 0
M  V30 5121 H 488.744 0.649956 -0.166728 0
M  V30 5122 H 491.288 1.72267 -1.10201 0
M  V30 5123 H 489.443 3.87136 0.142886 0
M  V30 5124 H 489.857 4.92501 -1.80396 0
M  V30 5125 H 491.331 5.5164 -0.199274 0
M  V30 5126 H 491.808 4.28432 0.966571 0
M  V30 5127 H 492.414 4.19446 -0.703214 0
M  V30 5128 N 490.729 0.570148 1.46925 0
M  V30 5129 C 492.145 0.23087 1.57921 0
M  V30 5130 C 492.345 -1.26676 1.56702 0
M  V30 5131 O 491.401 -2.04774 1.47729 0
M  V30 5132 C 492.714 0.868973 2.8787 0
M  V30 5133 C 494.262 0.841397 3.01479 0
M  V30 5134 C 494.737 1.45881 4.34146 0
M  V30 5135 N 496.228 1.42258 4.40814 0
M  V30 5136 C 496.963 1.8698 5.42057 0
M  V30 5137 N 496.459 2.39618 6.50042 0
M  V30 5138 N 498.252 1.77972 5.33181 0
M  V30 5139 H 490.403 1.54301 1.45962 0
M  V30 5140 H 492.666 0.644224 0.69547 0
M  V30 5141 H 492.372 1.922 2.94537 0
M  V30 5142 H 492.246 0.369682 3.75384 0
M  V30 5143 H 494.633 -0.202973 2.94401 0
M  V30 5144 H 494.714 1.37858 2.15474 0
M  V30 5145 H 494.358 2.50231 4.4198 0
M  V30 5146 H 494.288 0.896958 5.18905 0
M  V30 5147 H 496.779 1.03768 3.63374 0
M  V30 5148 H 497.092 2.71633 7.23488 0
M  V30 5149 H 495.437 2.43636 6.50897 0
M  V30 5150 H 498.628 1.36617 4.4772 0
M  V30 5151 H 498.801 2.13143 6.11943 0
M  V30 5152 N 492.207 -1.54576 0.307264 0
M  V30 5153 C 493.432 -2.05139 -0.305379 0
M  V30 5154 C 493.857 -1.18278 -1.46259 0
M  V30 5155 O 493.215 -0.188243 -1.8032 0
M  V30 5156 C 493.263 -3.53066 -0.733283 0
M  V30 5157 O 492.367 -3.69206 -1.83741 0
M  V30 5158 H 491.708 -0.661444 -0.0582105 0
M  V30 5159 H 494.238 -1.99569 0.450931 0
M  V30 5160 H 494.248 -3.95034 -1.02039 0
M  V30 5161 H 492.923 -4.15746 0.113198 0
M  V30 5162 H 491.5 -3.39143 -1.55037 0
M  V30 5163 N 493.685 -0.035106 -1.57561 0
M  V30 5164 C 494.617 0.973604 -2.07494 0
M  V30 5165 C 495.63 1.28504 -0.999534 0
M  V30 5166 O 496.819 1.24864 -1.27559 0
M  V30 5167 C 493.919 2.29945 -2.48955 0
M  V30 5168 C 493.092 2.1723 -3.79644 0
M  V30 5169 C 492.151 3.328 -4.07592 0
M  V30 5170 O 491.177 3.09418 -4.77754 0
M  V30 5171 N 492.379 4.56779 -3.58236 0
M  V30 5172 H 495.144 0.547525 -2.94656 0
M  V30 5173 H 492.705 0.151515 -1.61189 0
M  V30 5174 H 494.697 3.06097 -2.64739 0
M  V30 5175 H 493.267 2.64173 -1.67126 0
M  V30 5176 H 492.487 1.25768 -3.73599 0
M  V30 5177 H 493.775 2.05945 -4.65257 0
M  V30 5178 H 493.173 4.78668 -3.01485 0
M  V30 5179 H 491.73 5.30079 -3.79288 0
M  V30 5180 N 495.163 1.55791 0.238111 0
M  V30 5181 C 496.096 1.86036 1.32158 0
M  V30 5182 C 497.074 0.716216 1.45976 0
M  V30 5183 O 498.258 0.962882 1.62052 0
M  V30 5184 C 495.385 2.05281 2.69402 0
M  V30 5185 C 494.431 3.27939 2.72687 0
M  V30 5186 S 495.264 4.84342 2.28413 0
M  V30 5187 C 496.42 5.06604 3.67565 0
M  V30 5188 H 496.653 2.77644 1.06306 0
M  V30 5189 H 494.186 1.48012 0.439537 0
M  V30 5190 H 496.144 2.17053 3.48423 0
M  V30 5191 H 494.805 1.14499 2.92487 0
M  V30 5192 H 493.998 3.38398 3.73501 0
M  V30 5193 H 493.6 3.14938 2.01717 0
M  V30 5194 H 495.892 4.94486 4.6313 0
M  V30 5195 H 496.835 6.08554 3.62033 0
M  V30 5196 H 497.243 4.34409 3.60485 0
M  V30 5197 N 496.642 -0.504142 1.49319 0
M  V30 5198 C 498.053 -1.08572 1.51885 0
M  V30 5199 C 498.404 -1.93842 0.303255 0
M  V30 5200 O 497.529 -2.0828 -0.58724 0
M  V30 5201 C 498.124 -1.97574 2.75227 0
M  V30 5202 C 496.683 -2.509 2.80581 0
M  V30 5203 C 495.83 -1.28447 2.45757 0
M  V30 5204 H 498.781 -0.288194 1.56061 0
M  V30 5205 H 498.802 -2.82219 2.55211 0
M  V30 5206 H 498.314 -1.35486 3.63683 0
M  V30 5207 H 496.415 -3.16636 1.96398 0
M  V30 5208 H 496.528 -2.88268 3.82673 0
M  V30 5209 H 494.892 -1.60868 1.97468 0
M  V30 5210 H 495.675 -0.68072 3.36483 0
M  V30 5211 N 498.12 -1.38341 -0.754957 0
M  V30 5212 C 499.35 -1.37504 -1.54195 0
M  V30 5213 C 499.758 0.0373787 -1.89163 0
M  V30 5214 O 499.101 1.01402 -1.53178 0
M  V30 5215 C 499.163 -2.16488 -2.87008 0
M  V30 5216 C 498.827 -3.65311 -2.74585 0
M  V30 5217 C 499.824 -4.58834 -2.44474 0
M  V30 5218 C 497.509 -4.08649 -2.9208 0
M  V30 5219 C 499.503 -5.93675 -2.32011 0
M  V30 5220 C 497.19 -5.43571 -2.79237 0
M  V30 5221 C 498.188 -6.35898 -2.49245 0
M  V30 5222 O 497.876 -7.68338 -2.36458 0
M  V30 5223 H 497.608 -0.472159 -0.483779 0
M  V30 5224 H 500.162 -1.82515 -0.94221 0
M  V30 5225 H 498.392 -1.66194 -3.49166 0
M  V30 5226 H 500.081 -2.08076 -3.4851 0
M  V30 5227 H 500.847 -4.26657 -2.30627 0
M  V30 5228 H 496.726 -3.37134 -3.14422 0
M  V30 5229 H 500.27 -6.65706 -2.08522 0
M  V30 5230 H 496.167 -5.75345 -2.92657 0
M  V30 5231 H 496.935 -7.78845 -2.5168 0
M  V30 5232 N 499.598 0.982988 -1.23187 0
M  V30 5233 C 500.545 2.07491 -1.01075 0
M  V30 5234 C 501.515 1.65949 0.070905 0
M  V30 5235 O 502.7 1.90629 -0.0806822 0
M  V30 5236 C 499.84 3.39751 -0.605261 0
M  V30 5237 C 498.953 3.94578 -1.75876 0
M  V30 5238 C 498.088 5.15039 -1.3003 0
M  V30 5239 C 497.127 5.62027 -2.42472 0
M  V30 5240 N 496.264 6.73719 -1.97602 0
M  V30 5241 H 501.104 2.25739 -1.9454 0
M  V30 5242 H 498.641 1.10659 -0.969179 0
M  V30 5243 H 500.599 4.15719 -0.351279 0
M  V30 5244 H 499.229 3.21473 0.292382 0
M  V30 5245 H 498.281 3.1539 -2.12681 0
M  V30 5246 H 499.593 4.25422 -2.60418 0
M  V30 5247 H 498.747 5.9833 -1.00429 0
M  V30 5248 H 497.486 4.85843 -0.425216 0
M  V30 5249 H 496.491 4.77318 -2.7285 0
M  V30 5250 H 497.716 5.93244 -3.30512 0
M  V30 5251 H 495.662 6.46287 -1.1247 0
M  V30 5252 H 495.579 7.03934 -2.75705 0
M  V30 5253 H 496.847 7.6049 -1.71098 0
M  V30 5254 N 501.076 1.04316 1.18135 0
M  V30 5255 C 502.322 0.749128 1.88457 0
M  V30 5256 C 502.655 -0.72149 1.803 0
M  V30 5257 O 501.93 -1.52676 1.205 0
M  V30 5258 C 502.213 1.21905 3.38838 0
M  V30 5259 C 502.066 2.75195 3.55792 0
M  V30 5260 C 503.385 0.811085 4.32561 0
M  V30 5261 H 500.504 0.273611 0.684329 0
M  V30 5262 H 503.146 1.29561 1.38975 0
M  V30 5263 H 501.296 0.754137 3.8111 0
M  V30 5264 H 502.968 3.29743 3.22595 0
M  V30 5265 H 501.211 3.14899 2.98364 0
M  V30 5266 H 501.882 3.03135 4.61317 0
M  V30 5267 H 504.358 1.21118 3.98082 0
M  V30 5268 H 503.234 1.16761 5.36338 0
M  V30 5269 H 503.495 -0.285596 4.41177 0
M  V30 5270 N 502.554 -1.34406 0.822964 0
M  V30 5271 C 503.801 -1.98284 0.411057 0
M  V30 5272 C 504.129 -1.65245 -1.02588 0
M  V30 5273 O 503.384 -0.91619 -1.72929 0
M  V30 5274 C 503.683 -3.52981 0.560268 0
M  V30 5275 C 503.349 -4.05931 1.96293 0
M  V30 5276 C 502.011 -4.20103 2.34664 0
M  V30 5277 C 504.363 -4.34412 2.87985 0
M  V30 5278 C 501.691 -4.60082 3.64062 0
M  V30 5279 C 504.043 -4.75838 4.16847 0
M  V30 5280 C 502.707 -4.88215 4.55195 0
M  V30 5281 H 501.977 -0.725573 0.150416 0
M  V30 5282 H 504.624 -1.60349 1.04692 0
M  V30 5283 H 502.929 -3.91477 -0.158982 0
M  V30 5284 H 504.626 -4.00385 0.222087 0
M  V30 5285 H 501.216 -3.95363 1.65487 0
M  V30 5286 H 505.4 -4.23001 2.59584 0
M  V30 5287 H 500.656 -4.67856 3.93599 0
M  V30 5288 H 504.83 -4.96834 4.87984 0
M  V30 5289 H 502.457 -5.18952 5.55512 0
M  V30 5290 N 504.032 -0.577932 -1.46621 0
M  V30 5291 C 504.982 0.178869 -2.27297 0
M  V30 5292 C 505.966 0.866279 -1.35589 0
M  V30 5293 O 507.158 0.761163 -1.59798 0
M  V30 5294 C 504.287 1.19499 -3.2183 0
M  V30 5295 C 503.373 0.50994 -4.21023 0
M  V30 5296 N 503.764 -0.43177 -5.03954 0
M  V30 5297 C 502.062 0.761287 -4.39455 0
M  V30 5298 C 502.763 -0.831693 -5.75724 0
M  V30 5299 N 501.739 -0.181897 -5.43296 0
M  V30 5300 H 505.541 -0.544859 -2.88805 0
M  V30 5301 H 503.055 -0.399373 -1.57413 0
M  V30 5302 H 505.052 1.75131 -3.78332 0
M  V30 5303 H 503.712 1.91959 -2.61881 0
M  V30 5304 H 504.723 -0.807045 -5.11573 0
M  V30 5305 H 501.4 1.47282 -3.90659 0
M  V30 5306 H 502.79 -1.6067 -6.52407 0
M  V30 5307 N 505.51 1.54411 -0.315457 0
M  V30 5308 C 506.74 2.04536 0.291315 0
M  V30 5309 C 507.148 1.19162 1.4696 0
M  V30 5310 O 506.491 0.213199 1.82459 0
M  V30 5311 C 506.553 3.5056 0.796725 0
M  V30 5312 C 506.217 4.5627 -0.258178 0
M  V30 5313 C 507.214 5.08312 -1.09153 0
M  V30 5314 C 504.899 5.00672 -0.404036 0
M  V30 5315 C 506.893 6.03312 -2.05655 0
M  V30 5316 C 504.58 5.95488 -1.37248 0
M  V30 5317 C 505.578 6.46693 -2.19721 0
M  V30 5318 O 505.266 7.39648 -3.14921 0
M  V30 5319 H 504.998 0.672856 0.0651165 0
M  V30 5320 H 507.552 2.00244 -0.457308 0
M  V30 5321 H 505.782 3.52223 1.59612 0
M  V30 5322 H 507.471 3.83804 1.32096 0
M  V30 5323 H 508.237 4.74793 -0.98979 0
M  V30 5324 H 504.116 4.60436 0.22799 0
M  V30 5325 H 507.66 6.43203 -2.70067 0
M  V30 5326 H 503.557 6.28424 -1.47489 0
M  V30 5327 H 504.325 7.57496 -3.10067 0
M  V30 5328 N 506.988 0.0434614 1.5754 0
M  V30 5329 C 507.92 -0.962586 2.08007 0
M  V30 5330 C 508.933 -1.27972 1.00634 0
M  V30 5331 O 510.122 -1.24186 1.28219 0
M  V30 5332 C 507.222 -2.28621 2.50171 0
M  V30 5333 C 506.395 -2.15214 3.80791 0
M  V30 5334 C 505.454 -3.30633 4.09351 0
M  V30 5335 O 504.48 -3.0688 4.79388 0
M  V30 5336 N 505.682 -4.54873 3.60654 0
M  V30 5337 H 508.447 -0.531891 2.94942 0
M  V30 5338 H 506.008 -0.142965 1.61268 0
M  V30 5339 H 508 -3.04689 2.66359 0
M  V30 5340 H 506.57 -2.63283 1.68525 0
M  V30 5341 H 505.79 -1.23785 3.74261 0
M  V30 5342 H 507.078 -2.03475 4.66343 0
M  V30 5343 H 506.476 -4.77063 3.04019 0
M  V30 5344 H 505.033 -5.2806 3.82094 0
M  V30 5345 N 508.466 -1.55915 -0.229846 0
M  V30 5346 C 509.712 -1.78807 -0.956868 0
M  V30 5347 C 510.045 -0.611687 -1.84315 0
M  V30 5348 O 509.32 0.389398 -1.90562 0
M  V30 5349 C 509.603 -3.11718 -1.80288 0
M  V30 5350 C 509.456 -4.3979 -0.943649 0
M  V30 5351 C 510.775 -3.40999 -2.78222 0
M  V30 5352 H 507.894 -0.6505 -0.346437 0
M  V30 5353 H 510.536 -1.88648 -0.226252 0
M  V30 5354 H 508.686 -3.03459 -2.42579 0
M  V30 5355 H 510.358 -4.60059 -0.338121 0
M  V30 5356 H 508.601 -4.33086 -0.248705 0
M  V30 5357 H 509.272 -5.29208 -1.5698 0
M  V30 5358 H 511.748 -3.49332 -2.26067 0
M  V30 5359 H 510.624 -4.35183 -3.34526 0
M  V30 5360 H 510.885 -2.62754 -3.55546 0
M  V30 5361 N 509.944 0.496216 -1.49584 0
M  V30 5362 C 510.891 1.59722 -1.66606 0
M  V30 5363 C 511.861 1.58158 -0.507477 0
M  V30 5364 O 513.046 1.76072 -0.735076 0
M  V30 5365 C 510.186 2.97844 -1.74308 0
M  V30 5366 C 509.299 3.09388 -3.01502 0
M  V30 5367 C 508.434 4.38271 -3.00153 0
M  V30 5368 C 507.473 4.43466 -4.21906 0
M  V30 5369 N 506.61 5.63784 -4.1844 0
M  V30 5370 H 511.45 1.44515 -2.60613 0
M  V30 5371 H 508.987 0.703048 -1.29212 0
M  V30 5372 H 510.945 3.77907 -1.76754 0
M  V30 5373 H 509.575 3.11743 -0.837619 0
M  V30 5374 H 508.627 2.22357 -3.08645 0
M  V30 5375 H 509.939 3.09085 -3.91494 0
M  V30 5376 H 509.093 5.2666 -3.01188 0
M  V30 5377 H 507.832 4.41146 -2.07947 0
M  V30 5378 H 506.837 3.53478 -4.21109 0
M  V30 5379 H 508.062 4.42303 -5.1531 0
M  V30 5380 H 506.008 5.67491 -3.29074 0
M  V30 5381 H 505.925 5.65118 -5.02173 0
M  V30 5382 H 507.193 6.54367 -4.23585 0
M  V30 5383 N 511.423 1.38739 0.74761 0
M  V30 5384 C 512.672 1.3459 1.50228 0
M  V30 5385 C 512.985 -0.0595592 1.95509 0
M  V30 5386 O 514.191 -0.22361 2.70578 0
M  V30 5387 C 512.647 2.36377 2.71393 0
M  V30 5388 C 512.255 3.82573 2.33113 0
M  V30 5389 C 513.999 2.41281 3.49262 0
M  V30 5390 C 511.906 4.76032 3.50924 0
M  V30 5391 H 510.836 0.500312 0.564096 0
M  V30 5392 H 513.487 1.64324 0.8167 0
M  V30 5393 H 511.869 1.99694 3.41962 0
M  V30 5394 H 513.043 4.28227 1.70171 0
M  V30 5395 H 511.358 3.80844 1.68365 0
M  V30 5396 H 513.955 3.08301 4.36869 0
M  V30 5397 H 514.298 1.43353 3.9084 0
M  V30 5398 H 514.831 2.76793 2.85711 0
M  V30 5399 H 511.57 5.75177 3.14408 0
M  V30 5400 H 511.09 4.35066 4.12889 0
M  V30 5401 H 512.769 4.94331 4.17427 0
M  V30 5402 N 512.901 -0.976442 1.23707 0
M  V30 5403 C 513.851 -2.0544 0.988851 0
M  V30 5404 C 514.835 -1.60762 -0.0665901 0
M  V30 5405 O 516.027 -1.76396 0.14604 0
M  V30 5406 C 513.156 -3.38258 0.586223 0
M  V30 5407 C 512.242 -3.89523 1.67728 0
M  V30 5408 N 512.633 -4.13823 2.90834 0
M  V30 5409 C 510.931 -4.18097 1.55277 0
M  V30 5410 C 511.632 -4.55731 3.61502 0
M  V30 5411 N 510.608 -4.60394 2.8903 0
M  V30 5412 H 514.41 -2.22191 1.92376 0
M  V30 5413 H 511.924 -1.15954 1.13704 0
M  V30 5414 H 513.921 -4.15075 0.389658 0
M  V30 5415 H 512.581 -3.22898 -0.341594 0
M  V30 5416 H 513.592 -4.01529 3.271 0
M  V30 5417 H 510.269 -4.11719 0.692351 0
M  V30 5418 H 511.659 -4.83018 4.67059 0
M  V30 5419 N 514.379 -1.04941 -1.1758 0
M  V30 5420 C 515.626 -0.757989 -1.87779 0
M  V30 5421 C 515.954 0.714827 -1.80888 0
M  V30 5422 O 515.209 1.53824 -1.20982 0
M  V30 5423 C 515.508 -1.18062 -3.37337 0
M  V30 5424 C 515.174 -2.65521 -3.6443 0
M  V30 5425 C 513.836 -3.05804 -3.71534 0
M  V30 5426 C 516.188 -3.60822 -3.76108 0
M  V30 5427 C 513.516 -4.40256 -3.87803 0
M  V30 5428 C 515.868 -4.95005 -3.93895 0
M  V30 5429 C 514.532 -5.34945 -3.99237 0
M  V30 5430 H 513.802 -0.277368 -0.68713 0
M  V30 5431 H 516.449 -1.31603 -1.39115 0
M  V30 5432 H 514.754 -0.541525 -3.8804 0
M  V30 5433 H 516.451 -0.932368 -3.9001 0
M  V30 5434 H 513.041 -2.33324 -3.59524 0
M  V30 5435 H 517.225 -3.30841 -3.69943 0
M  V30 5436 H 512.481 -4.70707 -3.90186 0
M  V30 5437 H 516.655 -5.68746 -4.01872 0
M  V30 5438 H 514.282 -6.39135 -4.11596 0
M  V30 5439 N 515.857 1.33968 -0.830081 0
M  V30 5440 C 517.082 2.02813 -0.433796 0
M  V30 5441 C 517.507 1.62076 0.954614 0
M  V30 5442 O 516.865 0.808955 1.62252 0
M  V30 5443 C 516.913 3.56348 -0.552115 0
M  V30 5444 O 516.017 4.10202 0.425191 0
M  V30 5445 H 515.358 0.639817 -0.177567 0
M  V30 5446 H 517.888 1.7106 -1.12248 0
M  V30 5447 H 517.898 4.05722 -0.430513 0
M  V30 5448 H 516.573 3.85344 -1.56471 0
M  V30 5449 H 515.15 3.71979 0.261878 0
M  V30 5450 N 517.335 0.585699 1.46312 0
M  V30 5451 C 518.583 0.072278 2.01971 0
M  V30 5452 C 518.904 -1.29345 1.45928 0
M  V30 5453 O 518.174 -1.84973 0.645109 0
M  V30 5454 H 516.754 0.023729 0.746623 0
M  V30 5455 H 519.416 0.762155 1.7938 0
M  V30 5456 H 518.512 0.00552767 3.121 0
M  V30 5457 N 518.813 -1.54241 0.323641 0
M  V30 5458 C 520.041 -2.04985 -0.280871 0
M  V30 5459 C 520.456 -1.19978 -1.45777 0
M  V30 5460 O 519.813 -0.230471 -1.81039 0
M  V30 5461 C 519.864 -3.54353 -0.715258 0
M  V30 5462 O 519.585 -4.36132 0.414817 0
M  V30 5463 C 521.086 -4.21189 -1.38257 0
M  V30 5464 H 518.306 -0.66851 -0.0577502 0
M  V30 5465 H 520.85 -1.99029 0.469852 0
M  V30 5466 H 519.005 -3.60596 -1.41596 0
M  V30 5467 H 519.419 -5.2445 0.0725227 0
M  V30 5468 H 520.893 -5.27154 -1.63745 0
M  V30 5469 H 521.37 -3.72307 -2.32989 0
M  V30 5470 H 521.976 -4.19085 -0.724447 0
M  V30 5471 N 520.291 -0.0518155 -1.57515 0
M  V30 5472 C 521.201 0.937539 -2.15052 0
M  V30 5473 C 522.217 1.34121 -1.10849 0
M  V30 5474 O 523.393 1.418 -1.4302 0
M  V30 5475 C 520.458 2.19379 -2.68466 0
M  V30 5476 C 519.519 1.84841 -3.87469 0
M  V30 5477 C 518.752 3.04477 -4.38326 0
M  V30 5478 O 518.975 4.17868 -3.88256 0
M  V30 5479 O 517.909 2.85453 -5.29906 0
M  V30 5480 H 521.735 0.478201 -2.99912 0
M  V30 5481 H 519.32 0.17012 -1.48428 0
M  V30 5482 H 521.202 2.93084 -3.02787 0
M  V30 5483 H 519.877 2.64449 -1.86677 0
M  V30 5484 H 518.784 1.08449 -3.58036 0
M  V30 5485 H 520.117 1.44569 -4.7049 0
M  V30 5486 N 521.769 1.56035 0.221574 0
M  V30 5487 C 522.994 1.83476 0.967026 0
M  V30 5488 C 523.419 0.632139 1.7716 0
M  V30 5489 O 522.777 -0.419082 1.7639 0
M  V30 5490 C 522.825 3.08907 1.86034 0
M  V30 5491 O 521.929 2.876 2.95567 0
M  V30 5492 H 521.27 0.604913 0.273817 0
M  V30 5493 H 523.8 2.03247 0.234893 0
M  V30 5494 H 523.81 3.3901 2.27016 0
M  V30 5495 H 522.485 3.96068 1.26898 0
M  V30 5496 H 521.062 2.6873 2.58532 0
M  V30 5497 N 523.247 -0.488276 1.49845 0
M  V30 5498 C 524.157 -1.61451 1.70207 0
M  V30 5499 C 525.173 -1.63877 0.584846 0
M  V30 5500 O 526.349 -1.82063 0.861107 0
M  V30 5501 C 523.414 -2.9776 1.77594 0
M  V30 5502 C 522.475 -3.05861 3.01243 0
M  V30 5503 C 521.708 -4.35668 3.08268 0
M  V30 5504 O 521.931 -5.25197 2.22541 0
M  V30 5505 O 520.865 -4.49005 4.00847 0
M  V30 5506 H 524.691 -1.47199 2.65643 0
M  V30 5507 H 522.276 -0.665939 1.33737 0
M  V30 5508 H 524.158 -3.7875 1.84732 0
M  V30 5509 H 522.833 -3.12248 0.8534 0
M  V30 5510 H 521.74 -2.24012 2.99616 0
M  V30 5511 H 523.073 -2.96304 3.9302 0
M  V30 5512 N 524.725 -1.39134 -0.740242 0
M  V30 5513 C 525.953 -1.39334 -1.5295 0
M  V30 5514 C 526.368 0.0135008 -1.88795 0
M  V30 5515 O 525.725 0.983524 -1.5373 0
M  V30 5516 C 525.776 -2.2614 -2.82034 0
M  V30 5517 O 525.497 -3.61345 -2.47712 0
M  V30 5518 C 526.998 -2.34666 -3.76094 0
M  V30 5519 H 524.218 -0.476103 -0.472828 0
M  V30 5520 H 526.762 -1.82883 -0.9151 0
M  V30 5521 H 524.917 -1.86018 -3.39818 0
M  V30 5522 H 525.331 -4.07194 -3.30595 0
M  V30 5523 H 526.805 -2.99663 -4.63579 0
M  V30 5524 H 527.282 -1.36426 -4.17474 0
M  V30 5525 H 527.888 -2.75236 -3.2423 0
M  V30 5526 N 526.204 0.969867 -1.24223 0
M  V30 5527 C 527.154 2.04913 -0.999732 0
M  V30 5528 C 528.138 1.60795 0.0580636 0
M  V30 5529 O 529.33 1.76317 -0.155392 0
M  V30 5530 C 526.459 3.37942 -0.604154 0
M  V30 5531 C 525.545 3.88628 -1.69791 0
M  V30 5532 N 525.936 4.12274 -2.93025 0
M  V30 5533 C 524.234 4.17268 -1.57492 0
M  V30 5534 C 524.935 4.53808 -3.63914 0
M  V30 5535 N 523.911 4.58855 -2.91468 0
M  V30 5536 H 527.713 2.21168 -1.93551 0
M  V30 5537 H 525.227 1.15349 -1.14317 0
M  V30 5538 H 527.224 4.14863 -0.411665 0
M  V30 5539 H 525.884 3.23075 0.324465 0
M  V30 5540 H 526.895 3.99789 -3.29225 0
M  V30 5541 H 523.572 4.11346 -0.714175 0
M  V30 5542 H 524.962 4.80534 -4.69614 0
M  V30 5543 N 527.682 1.05563 1.17022 0
M  V30 5544 C 528.91 0.78845 1.91288 0
M  V30 5545 C 529.325 -0.656318 1.77025 0
M  V30 5546 O 528.682 -1.44869 1.10992 0
M  V30 5547 C 528.733 1.16444 3.42232 0
M  V30 5548 O 528.454 2.5525 3.5606 0
M  V30 5549 C 529.955 0.923937 4.33565 0
M  V30 5550 H 527.175 0.286389 0.606813 0
M  V30 5551 H 529.719 1.4073 1.48375 0
M  V30 5552 H 527.874 0.590266 3.82877 0
M  V30 5553 H 528.288 2.70097 4.49609 0
M  V30 5554 H 529.762 1.23672 5.37968 0
M  V30 5555 H 530.239 -0.140688 4.38975 0
M  V30 5556 H 530.845 1.48214 3.98639 0
M  V30 5557 N 529.16 -1.33526 0.837174 0
M  V30 5558 C 530.108 -2.31168 0.257698 0
M  V30 5559 C 531.102 -1.5806 -0.609388 0
M  V30 5560 O 532.308 -1.72941 -0.499139 0
M  V30 5561 H 528.683 -0.74922 0.0646058 0
M  V30 5562 H 530.654 -2.77552 1.09578 0
M  V30 5563 C 529.403 -3.4326 -0.553887 0
M  V30 5564 H 528.726 -3.99665 0.104008 0
M  V30 5565 H 530.166 -4.13782 -0.925219 0
M  V30 5566 C 528.625 -2.88965 -1.73207 0
M  V30 5567 O 529.155 -2.85013 -2.83073 0
M  V30 5568 N 527.361 -2.45596 -1.55342 0
M  V30 5569 H 526.908 -2.49009 -0.659705 0
M  V30 5570 H 526.866 -2.0962 -2.34322 0
M  V30 5571 N 530.638 -0.59345 -1.46 0
M  V30 5572 C 531.57 0.171569 -2.28557 0
M  V30 5573 C 532.583 0.845273 -1.39137 0
M  V30 5574 O 533.772 0.713033 -1.6364 0
M  V30 5575 C 530.872 1.26311 -3.14482 0
M  V30 5576 C 530.045 0.679258 -4.32094 0
M  V30 5577 C 529.104 1.65987 -4.99334 0
M  V30 5578 O 528.13 1.19171 -5.56585 0
M  V30 5579 N 529.332 2.99414 -4.97324 0
M  V30 5580 H 532.097 -0.536771 -2.94854 0
M  V30 5581 H 529.658 -0.431954 -1.56031 0
M  V30 5582 H 531.65 1.91863 -3.5633 0
M  V30 5583 H 530.22 1.87416 -2.50188 0
M  V30 5584 H 529.44 -0.153992 -3.93899 0
M  V30 5585 H 530.728 0.26916 -5.08088 0
M  V30 5586 H 530.126 3.40064 -4.52076 0
M  V30 5587 H 528.683 3.60426 -5.4308 0
M  V30 5588 N 532.116 1.54067 -0.331816 0
M  V30 5589 C 533.079 2.23275 0.517768 0
M  V30 5590 C 534.079 1.22897 1.03697 0
M  V30 5591 O 535.269 1.47419 0.928084 0
M  V30 5592 C 532.401 2.94326 1.72004 0
M  V30 5593 H 533.594 2.99773 -0.0873507 0
M  V30 5594 H 531.147 1.56079 -0.0830042 0
M  V30 5595 H 531.882 2.21986 2.36417 0
M  V30 5596 H 531.667 3.67941 1.35507 0
M  V30 5597 H 533.157 3.47031 2.32291 0
M  V30 5598 N 533.594 0.0601682 1.57485 0
M  V30 5599 C 534.841 -0.611594 1.93043 0
M  V30 5600 C 535.169 -1.70317 0.939274 0
M  V30 5601 O 534.424 -1.95644 -0.046996 0
M  V30 5602 C 534.723 -1.23831 3.35262 0
M  V30 5603 C 534.389 -0.274037 4.50066 0
M  V30 5604 C 533.051 -0.00872394 4.81199 0
M  V30 5605 C 535.403 0.386308 5.19766 0
M  V30 5606 C 532.731 0.924218 5.79375 0
M  V30 5607 C 535.083 1.3075 6.1894 0
M  V30 5608 C 533.747 1.58139 6.48497 0
M  V30 5609 H 533.017 -0.223798 0.706396 0
M  V30 5610 H 535.664 0.128566 1.91068 0
M  V30 5611 H 533.969 -2.05394 3.33647 0
M  V30 5612 H 535.666 -1.76517 3.60059 0
M  V30 5613 H 532.256 -0.491008 4.25778 0
M  V30 5614 H 536.44 0.194436 4.95919 0
M  V30 5615 H 531.696 1.1438 6.00606 0
M  V30 5616 H 535.87 1.82519 6.72056 0
M  V30 5617 H 533.497 2.30593 7.24383 0
M  V30 5618 N 535.072 -1.5615 -0.213296 0
M  V30 5619 C 535.982 -1.96265 -1.28519 0
M  V30 5620 C 536.998 -0.86765 -1.50824 0
M  V30 5621 O 538.174 -1.17191 -1.63793 0
M  V30 5622 C 535.239 -2.27836 -2.61327 0
M  V30 5623 C 534.3 -3.50949 -2.47252 0
M  V30 5624 C 533.533 -3.81004 -3.73727 0
M  V30 5625 O 533.756 -3.12612 -4.77106 0
M  V30 5626 O 532.69 -4.74477 -3.70344 0
M  V30 5627 H 536.516 -2.87631 -0.974795 0
M  V30 5628 H 534.101 -1.43467 -0.416832 0
M  V30 5629 H 535.983 -2.49299 -3.39747 0
M  V30 5630 H 534.658 -1.39643 -2.9203 0
M  V30 5631 H 533.565 -3.34754 -1.67004 0
M  V30 5632 H 534.898 -4.39551 -2.21486 0
M  V30 5633 N 536.55 0.480323 -1.50102 0
M  V30 5634 C 537.799 1.22979 -1.59872 0
M  V30 5635 C 538.112 1.93282 -0.30022 0
M  V30 5636 O 539.318 2.70086 -0.276709 0
M  V30 5637 C 537.774 2.23408 -2.82164 0
M  V30 5638 C 537.382 1.5895 -4.18854 0
M  V30 5639 C 539.126 2.99055 -3.01275 0
M  V30 5640 C 537.033 2.57611 -5.32344 0
M  V30 5641 H 535.963 0.462707 -0.59533 0
M  V30 5642 H 538.614 0.501291 -1.7652 0
M  V30 5643 H 536.996 2.99511 -2.59055 0
M  V30 5644 H 538.17 0.887 -4.52182 0
M  V30 5645 H 536.485 0.956191 -4.05273 0
M  V30 5646 H 539.082 3.72876 -3.83233 0
M  V30 5647 H 539.425 3.57897 -2.12639 0
M  V30 5648 H 539.958 2.30066 -3.24522 0
M  V30 5649 H 536.697 2.03521 -6.23105 0
M  V30 5650 H 536.217 3.26041 -5.03445 0
M  V30 5651 H 537.896 3.19627 -5.62537 0
M  V30 5652 N 538.028 1.39524 0.732853 0
M  V30 5653 C 539.253 1.40329 1.52717 0
M  V30 5654 C 539.678 0.000286574 1.881 0
M  V30 5655 O 539.036 -0.987262 1.52062 0
M  V30 5656 C 539.084 2.28464 2.78992 0
M  V30 5657 O 538.188 1.716 3.75003 0
M  V30 5658 H 537.529 0.47778 0.461109 0
M  V30 5659 H 540.059 1.83546 0.903996 0
M  V30 5660 H 540.069 2.43051 3.27705 0
M  V30 5661 H 538.744 3.30425 2.52572 0
M  V30 5662 H 537.321 1.66267 3.33781 0
M  V30 5663 N 539.506 -0.963266 1.24736 0
M  V30 5664 C 540.436 -2.07628 1.06832 0
M  V30 5665 C 541.417 -1.70088 -0.0200566 0
M  V30 5666 O 542.602 -1.93636 0.147854 0
M  V30 5667 C 539.732 -3.40636 0.677069 0
M  V30 5668 C 538.686 -3.9215 1.71471 0
M  V30 5669 C 538.012 -5.21553 1.1784 0
M  V30 5670 C 539.312 -4.19493 3.11164 0
M  V30 5671 H 541.006 -2.22864 1.9993 0
M  V30 5672 H 538.552 -1.07093 0.96266 0
M  V30 5673 H 540.505 -4.17941 0.538792 0
M  V30 5674 H 539.229 -3.25313 -0.289612 0
M  V30 5675 H 537.888 -3.17005 1.84128 0
M  V30 5676 H 537.536 -5.02593 0.202195 0
M  V30 5677 H 537.236 -5.56988 1.87185 0
M  V30 5678 H 538.76 -6.01463 1.05233 0
M  V30 5679 H 540.174 -4.87487 3.01711 0
M  V30 5680 H 538.571 -4.66165 3.77902 0
M  V30 5681 H 539.641 -3.26097 3.58871 0
M  V30 5682 N 540.985 -1.06182 -1.16461 0
M  V30 5683 C 542.215 -0.797425 -1.9059 0
M  V30 5684 C 542.623 0.651845 -1.77616 0
M  V30 5685 O 541.966 1.45788 -1.11766 0
M  V30 5686 C 542.028 -1.11128 -3.41893 0
M  V30 5687 C 541.692 -2.55874 -3.78652 0
M  V30 5688 C 542.689 -3.54104 -3.80665 0
M  V30 5689 C 540.374 -2.91144 -4.09317 0
M  V30 5690 C 542.368 -4.85645 -4.12829 0
M  V30 5691 C 540.055 -4.22885 -4.41148 0
M  V30 5692 C 541.053 -5.19945 -4.42883 0
M  V30 5693 O 540.741 -6.49322 -4.73959 0
M  V30 5694 H 540.473 -0.288709 -0.611247 0
M  V30 5695 H 543.027 -1.41841 -1.4856 0
M  V30 5696 H 541.257 -0.433217 -3.84266 0
M  V30 5697 H 542.946 -0.831306 -3.97296 0
M  V30 5698 H 543.712 -3.28197 -3.57088 0
M  V30 5699 H 539.591 -2.16252 -4.07131 0
M  V30 5700 H 543.135 -5.61398 -4.14099 0
M  V30 5701 H 539.032 -4.48551 -4.6419 0
M  V30 5702 H 539.8 -6.54294 -4.91774 0
M  V30 5703 N 542.463 1.3308 -0.844243 0
M  V30 5704 C 543.711 1.97215 -0.441676 0
M  V30 5705 C 544.032 1.67185 1.0037 0
M  V30 5706 O 543.302 0.973588 1.69994 0
M  V30 5707 H 541.882 0.72959 -0.160335 0
M  V30 5708 H 544.544 1.62348 -1.07838 0
M  V30 5709 H 543.64 3.06698 -0.57815 0
M  V30 5710 N 543.941 0.601185 1.45683 0
M  V30 5711 C 545.169 0.100054 2.06658 0
M  V30 5712 C 545.584 -1.21285 1.44691 0
M  V30 5713 O 544.941 -1.73735 0.558772 0
M  V30 5714 C 544.992 -0.0528579 3.61461 0
M  V30 5715 O 544.713 1.20809 4.21114 0
M  V30 5716 C 546.214 -0.586193 4.39407 0
M  V30 5717 H 543.434 0.065905 0.667756 0
M  V30 5718 H 545.978 0.827101 1.87028 0
M  V30 5719 H 544.133 -0.730203 3.80456 0
M  V30 5720 H 544.547 1.03368 5.14213 0
M  V30 5721 H 546.021 -0.642297 5.4825 0
M  V30 5722 H 546.498 -1.60713 4.0874 0
M  V30 5723 H 547.104 0.0568935 4.25262 0
M  V30 5724 N 545.419 -1.53889 0.339982 0
M  V30 5725 C 546.665 -2.01152 -0.258003 0
M  V30 5726 C 546.998 -1.22749 -1.50487 0
M  V30 5727 O 546.273 -0.314156 -1.91946 0
M  V30 5728 C 546.556 -3.55468 -0.575717 0
M  V30 5729 C 546.409 -4.44584 0.682996 0
M  V30 5730 C 547.728 -4.1768 -1.38677 0
M  V30 5731 H 544.847 -0.731198 -0.0922992 0
M  V30 5732 H 547.489 -1.84352 0.459814 0
M  V30 5733 H 545.639 -3.69914 -1.18725 0
M  V30 5734 H 547.311 -4.41981 1.32102 0
M  V30 5735 H 545.554 -4.13592 1.3086 0
M  V30 5736 H 546.225 -5.5043 0.416001 0
M  V30 5737 H 548.701 -4.0691 -0.869705 0
M  V30 5738 H 547.577 -5.25734 -1.57783 0
M  V30 5739 H 547.838 -3.72069 -2.38782 0
M  V30 5740 N 546.897 -0.0685191 -1.57451 0
M  V30 5741 C 547.86 0.885173 -2.11417 0
M  V30 5742 C 548.86 1.22853 -1.03748 0
M  V30 5743 O 550.05 1.16235 -1.2975 0
M  V30 5744 C 547.182 2.18964 -2.61281 0
M  V30 5745 H 548.375 0.417034 -2.96986 0
M  V30 5746 H 545.928 0.18014 -1.55258 0
M  V30 5747 H 546.663 2.70321 -1.79156 0
M  V30 5748 H 546.448 1.9534 -3.39977 0
M  V30 5749 H 547.938 2.87242 -3.0312 0
M  V30 5750 N 548.375 1.56261 0.205012 0
M  V30 5751 C 549.285 1.96944 1.27476 0
M  V30 5752 C 550.301 0.875636 1.50362 0
M  V30 5753 O 551.477 1.18058 1.6317 0
M  V30 5754 C 548.542 2.29219 2.60115 0
M  V30 5755 C 547.603 3.52255 2.45387 0
M  V30 5756 C 546.836 3.8298 3.71701 0
M  V30 5757 O 547.059 3.15138 4.75441 0
M  V30 5758 O 545.993 4.76435 3.67823 0
M  V30 5759 H 549.819 2.88144 0.959527 0
M  V30 5760 H 547.404 1.43686 0.409217 0
M  V30 5761 H 549.286 2.51098 3.3842 0
M  V30 5762 H 547.961 1.4119 2.91285 0
M  V30 5763 H 546.868 3.35635 1.65227 0
M  V30 5764 H 548.201 4.40719 2.19152 0
M  V30 5765 N 549.853 -0.472356 1.50355 0
M  V30 5766 C 551.078 -1.25251 1.65309 0
M  V30 5767 C 551.503 -1.85081 0.335643 0
M  V30 5768 O 550.861 -1.67227 -0.700335 0
M  V30 5769 C 550.909 -2.3379 2.74544 0
M  V30 5770 O 550.013 -3.38401 2.35709 0
M  V30 5771 H 549.354 -0.368539 0.552336 0
M  V30 5772 H 551.884 -0.562271 1.96722 0
M  V30 5773 H 551.894 -2.79121 2.97583 0
M  V30 5774 H 550.569 -1.89614 3.70161 0
M  V30 5775 H 549.146 -2.9879 2.23112 0
M  V30 5776 N 551.331 -1.39911 -0.725443 0
M  V30 5777 C 552.241 -1.41688 -1.8698 0
M  V30 5778 C 553.257 -0.310579 -1.71206 0
M  V30 5779 O 554.433 -0.55359 -1.93642 0
M  V30 5780 C 551.498 -1.26811 -3.22676 0
M  V30 5781 C 550.559 -2.47497 -3.50776 0
M  V30 5782 C 549.792 -2.3332 -4.79997 0
M  V30 5783 O 550.015 -1.34175 -5.54394 0
M  V30 5784 O 548.949 -3.22498 -5.08211 0
M  V30 5785 H 552.775 -2.38171 -1.88436 0
M  V30 5786 H 550.36 -1.21128 -0.874548 0
M  V30 5787 H 552.242 -1.20684 -4.03749 0
M  V30 5788 H 550.917 -0.334289 -3.21969 0
M  V30 5789 H 549.824 -2.59201 -2.69751 0
M  V30 5790 H 551.157 -3.39606 -3.5627 0
M  V30 5791 N 552.809 0.956637 -1.25245 0
M  V30 5792 C 553.757 2.0743 -1.0524 0
M  V30 5793 C 554.751 1.69392 0.0160725 0
M  V30 5794 O 555.957 1.7946 -0.139382 0
M  V30 5795 H 552.332 0.678921 -0.323373 0
M  V30 5796 H 554.303 2.2146 -1.99995 0
M  V30 5797 C 553.052 3.40872 -0.685702 0
M  V30 5798 H 552.375 3.70607 -1.49968 0
M  V30 5799 H 553.815 4.19939 -0.585415 0
M  V30 5800 C 552.274 3.31367 0.608082 0
M  V30 5801 O 552.804 3.66214 1.65076 0
M  V30 5802 N 551.01 2.84486 0.592955 0
M  V30 5803 H 550.557 2.56326 -0.25592 0
M  V30 5804 H 550.515 2.78509 1.45877 0
M  V30 5805 N 554.287 1.06798 1.15896 0
M  V30 5806 C 555.536 0.782796 1.8589 0
M  V30 5807 C 555.849 -0.693498 1.82893 0
M  V30 5808 O 557.055 -1.09325 2.48516 0
M  V30 5809 C 555.511 1.3502 3.33613 0
M  V30 5810 C 555.119 2.8571 3.45071 0
M  V30 5811 C 556.863 1.14278 4.08829 0
M  V30 5812 C 554.77 3.35669 4.86909 0
M  V30 5813 H 553.7 0.289149 0.696354 0
M  V30 5814 H 556.351 1.28734 1.30766 0
M  V30 5815 H 554.733 0.773407 3.88374 0
M  V30 5816 H 555.907 3.49385 3.00445 0
M  V30 5817 H 554.222 3.05178 2.83294 0
M  V30 5818 H 556.819 1.49087 5.13495 0
M  V30 5819 H 557.162 0.0814575 4.1622 0
M  V30 5820 H 557.695 1.68563 3.60321 0
M  V30 5821 H 554.434 4.41302 4.84698 0
M  V30 5822 H 553.954 2.76745 5.32139 0
M  V30 5823 H 555.633 3.31296 5.55745 0
M  V30 5824 N 555.766 -1.3263 0.851289 0
M  V30 5825 C 557.177 -1.79653 0.5081 0
M  V30 5826 C 557.528 -1.70327 -0.973815 0
M  V30 5827 O 556.653 -1.25986 -1.75944 0
M  V30 5828 C 557.248 -3.26196 0.915515 0
M  V30 5829 C 555.807 -3.71187 0.624277 0
M  V30 5830 C 554.954 -2.53804 1.11709 0
M  V30 5831 H 557.905 -1.19976 1.03882 0
M  V30 5832 H 557.926 -3.79801 0.230535 0
M  V30 5833 H 557.438 -3.32952 1.99411 0
M  V30 5834 H 555.539 -3.69948 -0.443737 0
M  V30 5835 H 555.652 -4.64132 1.18821 0
M  V30 5836 H 554.016 -2.48964 0.537484 0
M  V30 5837 H 554.799 -2.63315 2.20272 0
M  V30 5838 N 557.244 -0.608902 -1.45362 0
M  V30 5839 C 558.491 -0.104607 -2.0223 0
M  V30 5840 C 558.819 1.26534 -1.47714 0
M  V30 5841 O 558.074 1.84855 -0.642435 0
M  V30 5842 C 558.373 -0.0167296 -3.57396 0
M  V30 5843 C 558.039 -1.32251 -4.31069 0
M  V30 5844 C 556.701 -1.68019 -4.50914 0
M  V30 5845 C 559.053 -2.18542 -4.73169 0
M  V30 5846 C 556.381 -2.89828 -5.10114 0
M  V30 5847 C 558.733 -3.39602 -5.33717 0
M  V30 5848 C 557.397 -3.7562 -5.51784 0
M  V30 5849 H 556.667 -0.0382785 -0.740011 0
M  V30 5850 H 559.314 -0.790782 -1.7441 0
M  V30 5851 H 557.619 0.752715 -3.84502 0
M  V30 5852 H 559.316 0.389634 -3.99103 0
M  V30 5853 H 555.906 -1.03411 -4.15938 0
M  V30 5854 H 560.09 -1.92208 -4.5757 0
M  V30 5855 H 555.346 -3.17839 -5.22291 0
M  V30 5856 H 559.52 -4.06716 -5.65292 0
M  V30 5857 H 557.147 -4.70093 -5.97425 0
M  V30 5858 N 558.722 1.53707 -0.348139 0
M  V30 5859 C 559.95 2.05406 0.248224 0
M  V30 5860 C 560.365 1.22282 1.43849 0
M  V30 5861 O 559.722 0.259244 1.80649 0
M  V30 5862 C 559.773 3.55446 0.658793 0
M  V30 5863 O 559.494 4.35417 -0.484149 0
M  V30 5864 C 560.995 4.23335 1.31539 0
M  V30 5865 H 558.215 0.669344 0.0471075 0
M  V30 5866 H 560.759 1.98257 -0.501456 0
M  V30 5867 H 558.914 3.62803 1.35841 0
M  V30 5868 H 559.328 5.24268 -0.155949 0
M  V30 5869 H 560.802 5.29692 1.55338 0
M  V30 5870 H 561.279 3.75967 2.27036 0
M  V30 5871 H 561.885 4.20184 0.657683 0
M  V30 5872 N 560.2 0.0768682 1.57412 0
M  V30 5873 C 561.13 -0.886026 2.16037 0
M  V30 5874 C 562.111 -1.30691 1.08876 0
M  V30 5875 O 563.296 -1.37705 1.36934 0
M  V30 5876 C 560.426 -2.1518 2.72608 0
M  V30 5877 C 559.38 -1.87015 3.8498 0
M  V30 5878 C 558.706 -3.20266 4.28175 0
M  V30 5879 C 560.006 -1.17143 5.08994 0
M  V30 5880 H 561.7 -0.397642 2.96748 0
M  V30 5881 H 559.246 -0.189823 1.42743 0
M  V30 5882 H 561.199 -2.82962 3.12266 0
M  V30 5883 H 559.923 -2.66269 1.89125 0
M  V30 5884 H 558.582 -1.21636 3.45833 0
M  V30 5885 H 558.23 -3.69207 3.41607 0
M  V30 5886 H 557.93 -3.0221 5.03927 0
M  V30 5887 H 559.454 -3.89237 4.70454 0
M  V30 5888 H 560.868 -1.75003 5.45937 0
M  V30 5889 H 559.265 -1.09328 5.90057 0
M  V30 5890 H 560.335 -0.151295 4.84664 0
M  V30 5891 N 561.678 -1.56367 -0.196722 0
M  V30 5892 C 563.089 -1.70462 -0.761545 0
M  V30 5893 C 563.44 -0.683161 -1.83922 0
M  V30 5894 O 562.565 0.160753 -2.15802 0
M  V30 5895 C 563.16 -3.09057 -1.38814 0
M  V30 5896 C 561.719 -3.24922 -1.90007 0
M  V30 5897 C 560.866 -2.66412 -0.769399 0
M  V30 5898 H 563.817 -1.58675 0.0283263 0
M  V30 5899 H 563.838 -3.06296 -2.2575 0
M  V30 5900 H 563.35 -3.83378 -0.603559 0
M  V30 5901 H 561.451 -2.55514 -2.71189 0
M  V30 5902 H 561.564 -4.3241 -2.06297 0
M  V30 5903 H 559.928 -2.25546 -1.18326 0
M  V30 5904 H 560.711 -3.433 0.00291773 0
M  V30 5905 N 563.156 0.464375 -1.50603 0
M  V30 5906 C 564.066 1.58723 -1.72754 0
M  V30 5907 C 565.082 1.62925 -0.610844 0
M  V30 5908 O 566.258 1.8067 -0.889963 0
M  V30 5909 C 563.323 2.94897 -1.82309 0
M  V30 5910 C 562.384 3.0103 -3.06071 0
M  V30 5911 C 561.617 4.30708 -3.1516 0
M  V30 5912 O 561.84 5.2159 -2.30868 0
M  V30 5913 O 560.774 4.42571 -4.0794 0
M  V30 5914 H 564.6 1.42954 -2.67951 0
M  V30 5915 H 562.185 0.644579 -1.3478 0
M  V30 5916 H 564.067 3.75764 -1.90735 0
M  V30 5917 H 562.742 3.10851 -0.902967 0
M  V30 5918 H 561.649 2.19217 -3.03142 0
M  V30 5919 H 562.982 2.90014 -3.97684 0
M  V30 5920 N 564.634 1.40294 0.718013 0
M  V30 5921 C 565.88 1.38645 1.48005 0
M  V30 5922 C 566.213 -0.0121202 1.94196 0
M  V30 5923 O 565.488 -0.980309 1.67989 0
M  V30 5924 C 565.771 2.37379 2.70782 0
M  V30 5925 C 565.624 3.8625 2.30501 0
M  V30 5926 C 566.943 2.33685 3.72933 0
M  V30 5927 H 564.062 0.504928 0.536858 0
M  V30 5928 H 566.704 1.71411 0.819649 0
M  V30 5929 H 564.854 2.09568 3.27129 0
M  V30 5930 H 566.526 4.24879 1.79655 0
M  V30 5931 H 564.769 4.02202 1.6253 0
M  V30 5932 H 565.44 4.50847 3.18498 0
M  V30 5933 H 567.916 2.58314 3.2621 0
M  V30 5934 H 566.792 3.0482 4.56482 0
M  V30 5935 H 567.053 1.34765 4.21059 0
M  V30 5936 N 566.112 -0.949982 1.2575 0
M  V30 5937 C 567.337 -1.73503 1.13628 0
M  V30 5938 C 567.762 -1.85601 -0.30559 0
M  V30 5939 O 567.12 -1.33984 -1.22139 0
M  V30 5940 C 567.168 -3.1243 1.80055 0
M  V30 5941 O 566.272 -3.97916 1.08336 0
M  V30 5942 H 565.613 -0.532665 0.396439 0
M  V30 5943 H 568.143 -1.19043 1.66403 0
M  V30 5944 H 568.153 -3.62866 1.86527 0
M  V30 5945 H 566.828 -3.02941 2.84956 0
M  V30 5946 H 565.405 -3.56375 1.09777 0
M  V30 5947 N 567.59 -1.07411 -1.15328 0
M  V30 5948 C 568.818 -0.818782 -1.90009 0
M  V30 5949 C 569.233 0.628072 -1.78047 0
M  V30 5950 O 568.59 1.43085 -1.13282 0
M  V30 5951 C 568.641 -1.21874 -3.40337 0
M  V30 5952 O 568.362 -2.60883 -3.51954 0
M  V30 5953 C 569.863 -0.992796 -4.3204 0
M  V30 5954 H 567.083 -0.296007 -0.60218 0
M  V30 5955 H 569.627 -1.43073 -1.46117 0
M  V30 5956 H 567.782 -0.651103 -3.81889 0
M  V30 5957 H 568.196 -2.77216 -4.45255 0
M  V30 5958 H 569.67 -1.32215 -5.35932 0
M  V30 5959 H 570.147 0.0708331 -4.39143 0
M  V30 5960 H 570.753 -1.54537 -3.9623 0
M  V30 5961 N 569.068 1.32177 -0.85831 0
M  V30 5962 C 570.016 2.30729 -0.294442 0
M  V30 5963 C 571.01 1.59009 0.584165 0
M  V30 5964 O 572.216 1.73713 0.471562 0
M  V30 5965 H 568.591 0.748097 -0.0765171 0
M  V30 5966 H 570.562 2.75774 -1.1398 0
M  V30 5967 C 569.311 3.44098 0.499208 0
M  V30 5968 H 568.634 3.99449 -0.167579 0
M  V30 5969 H 570.074 4.15202 0.859273 0
M  V30 5970 C 568.533 2.91684 1.68588 0
M  V30 5971 O 569.063 2.89481 2.78503 0
M  V30 5972 N 567.269 2.48036 1.51415 0
M  V30 5973 H 566.816 2.50027 0.620006 0
M  V30 5974 H 566.774 2.13322 2.30957 0
M  V30 5975 N 570.547 0.616602 1.45037 0
M  V30 5976 C 571.494 -0.0969439 2.30596 0
M  V30 5977 C 572.464 -0.851151 1.42635 0
M  V30 5978 O 573.649 -0.835092 1.71554 0
M  V30 5979 C 570.789 -1.08234 3.27688 0
M  V30 5980 C 569.902 -0.328072 4.30752 0
M  V30 5981 C 569.037 -1.30399 5.14946 0
M  V30 5982 C 568.076 -0.538049 6.09731 0
M  V30 5983 N 567.213 -1.46371 6.86673 0
M  V30 5984 H 572.053 0.63864 2.91076 0
M  V30 5985 H 569.59 0.326733 1.43425 0
M  V30 5986 H 571.548 -1.66688 3.82454 0
M  V30 5987 H 570.178 -1.78523 2.68941 0
M  V30 5988 H 569.23 0.372136 3.78575 0
M  V30 5989 H 570.542 0.269142 4.98073 0
M  V30 5990 H 569.696 -1.96032 5.74157 0
M  V30 5991 H 568.435 -1.93514 4.47665 0
M  V30 5992 H 567.44 0.131852 5.49642 0
M  V30 5993 H 568.665 0.0881732 6.79043 0
M  V30 5994 H 566.611 -2.08233 6.22073 0
M  V30 5995 H 566.528 -0.920152 7.50379 0
M  V30 5996 H 567.796 -2.10932 7.50418 0
M  V30 5997 N 572.025 -1.5352 0.356285 0
M  V30 5998 C 573.253 -2.05534 -0.237328 0
M  V30 5999 C 573.668 -1.23043 -1.43199 0
M  V30 6000 O 573.025 -0.268821 -1.80509 0
M  V30 6001 C 573.076 -3.55791 -0.639933 0
M  V30 6002 O 572.797 -4.35154 0.507233 0
M  V30 6003 C 574.298 -4.24027 -1.29292 0
M  V30 6004 H 571.518 -0.669585 -0.0435572 0
M  V30 6005 H 574.062 -1.97988 0.511963 0
M  V30 6006 H 572.217 -3.63518 -1.33915 0
M  V30 6007 H 572.631 -5.24178 0.18375 0
M  V30 6008 H 574.105 -5.30509 -1.52527 0
M  V30 6009 H 574.582 -3.77166 -2.25039 0
M  V30 6010 H 575.188 -4.20527 -0.63539 0
M  V30 6011 N 573.503 -0.0852151 -1.57369 0
M  V30 6012 C 574.733 0.588605 -1.98038 0
M  V30 6013 C 575.141 1.62869 -0.962817 0
M  V30 6014 O 574.484 1.83611 0.057134 0
M  V30 6015 C 574.546 1.30303 -3.35054 0
M  V30 6016 C 574.21 0.414855 -4.55113 0
M  V30 6017 C 575.207 -0.333011 -5.18832 0
M  V30 6018 C 572.892 0.335804 -5.01176 0
M  V30 6019 C 574.886 -1.14801 -6.26976 0
M  V30 6020 C 572.573 -0.482857 -6.09189 0
M  V30 6021 C 573.571 -1.22342 -6.71953 0
M  V30 6022 O 573.259 -2.02855 -7.77885 0
M  V30 6023 H 572.991 0.163249 -0.655992 0
M  V30 6024 H 575.545 -0.1582 -2.0479 0
M  V30 6025 H 573.775 2.0962 -3.24956 0
M  V30 6026 H 575.464 1.87041 -3.60237 0
M  V30 6027 H 576.23 -0.281611 -4.84182 0
M  V30 6028 H 572.109 0.901869 -4.52092 0
M  V30 6029 H 575.653 -1.72654 -6.75897 0
M  V30 6030 H 571.55 -0.535773 -6.43273 0
M  V30 6031 H 572.318 -1.95432 -7.94826 0
M  V30 6032 N 574.981 1.5647 0.188427 0
M  V30 6033 C 576.206 1.85486 0.927891 0
M  V30 6034 C 576.631 0.669575 1.75779 0
M  V30 6035 O 575.989 -0.381573 1.77239 0
M  V30 6036 C 576.037 3.12784 1.7944 0
M  V30 6037 O 575.141 2.93805 2.894 0
M  V30 6038 H 574.482 0.610585 0.260925 0
M  V30 6039 H 577.012 2.037 0.191729 0
M  V30 6040 H 577.022 3.43749 2.19774 0
M  V30 6041 H 575.697 3.98671 1.18468 0
M  V30 6042 H 574.274 2.74153 2.52774 0
M  V30 6043 N 576.459 -0.456382 1.50847 0
M  V30 6044 C 577.706 -1.20736 1.62571 0
M  V30 6045 C 578.034 -1.9163 0.332904 0
M  V30 6046 O 577.289 -1.8343 -0.682058 0
M  V30 6047 C 577.588 -2.26336 2.76599 0
M  V30 6048 C 577.254 -1.7259 4.16562 0
M  V30 6049 C 575.916 -1.57654 4.54641 0
M  V30 6050 C 578.268 -1.32877 5.03977 0
M  V30 6051 C 575.596 -1.0145 5.77862 0
M  V30 6052 C 577.948 -0.7811 6.27759 0
M  V30 6053 C 576.612 -0.618488 6.64628 0
M  V30 6054 H 575.882 -0.441803 0.594888 0
M  V30 6055 H 578.529 -0.501169 1.84826 0
M  V30 6056 H 576.834 -3.0292 2.48489 0
M  V30 6057 H 578.531 -2.84227 2.82871 0
M  V30 6058 H 575.121 -1.85187 3.86528 0
M  V30 6059 H 579.305 -1.43245 4.75179 0
M  V30 6060 H 574.561 -0.876109 6.0509 0
M  V30 6061 H 578.735 -0.464783 6.94847 0
M  V30 6062 H 576.362 -0.180838 7.59985 0
M  V30 6063 N 577.937 -1.40673 -0.710563 0
M  V30 6064 C 578.867 -1.44095 -1.83736 0
M  V30 6065 C 579.848 -0.301286 -1.67411 0
M  V30 6066 O 581.033 -0.510618 -1.87367 0
M  V30 6067 C 578.163 -1.30773 -3.21738 0
M  V30 6068 C 577.117 -2.42395 -3.52745 0
M  V30 6069 C 576.443 -2.14147 -4.89944 0
M  V30 6070 C 577.743 -3.84738 -3.53234 0
M  V30 6071 H 579.437 -2.38396 -1.81129 0
M  V30 6072 H 576.983 -1.14746 -0.870017 0
M  V30 6073 H 578.936 -1.31783 -4.00264 0
M  V30 6074 H 577.66 -0.329507 -3.24934 0
M  V30 6075 H 576.319 -2.40643 -2.76562 0
M  V30 6076 H 575.967 -1.14703 -4.89747 0
M  V30 6077 H 575.667 -2.88934 -5.11655 0
M  V30 6078 H 577.191 -2.16848 -5.70797 0
M  V30 6079 H 578.605 -3.88286 -4.2179 0
M  V30 6080 H 577.002 -4.59085 -3.86473 0
M  V30 6081 H 578.072 -4.13962 -2.52514 0
M  V30 6082 N 579.415 0.9433 -1.26252 0
M  V30 6083 C 580.664 1.68369 -1.11062 0
M  V30 6084 C 580.977 1.92514 0.346104 0
M  V30 6085 O 582.183 2.64358 0.618646 0
M  V30 6086 C 580.639 3.03171 -1.93946 0
M  V30 6087 C 580.247 2.86782 -3.4418 0
M  V30 6088 C 581.991 3.80916 -1.87359 0
M  V30 6089 C 579.898 4.17044 -4.19319 0
M  V30 6090 H 578.828 0.631469 -0.412023 0
M  V30 6091 H 581.479 1.04922 -1.50544 0
M  V30 6092 H 579.861 3.67587 -1.47296 0
M  V30 6093 H 581.035 2.31229 -3.98585 0
M  V30 6094 H 579.35 2.22482 -3.51981 0
M  V30 6095 H 581.947 4.77417 -2.40784 0
M  V30 6096 H 582.29 4.07658 -0.843857 0
M  V30 6097 H 582.823 3.2327 -2.31821 0
M  V30 6098 H 579.562 3.95487 -5.22753 0
M  V30 6099 H 579.082 4.72319 -3.69696 0
M  V30 6100 H 580.761 4.85513 -4.27651 0
M  V30 6101 N 580.893 1.08022 1.14757 0
M  V30 6102 C 582.123 0.827646 1.89298 0
M  V30 6103 C 582.531 -0.623506 1.78631 0
M  V30 6104 O 581.874 -1.43991 1.14071 0
M  V30 6105 C 581.936 1.16553 3.40082 0
M  V30 6106 C 581.6 2.61866 3.74533 0
M  V30 6107 C 582.597 3.60116 3.74984 0
M  V30 6108 C 580.282 2.97619 4.04633 0
M  V30 6109 C 582.276 4.92151 4.05051 0
M  V30 6110 C 579.963 4.2985 4.34364 0
M  V30 6111 C 580.961 5.26926 4.34555 0
M  V30 6112 O 580.649 6.5678 4.63568 0
M  V30 6113 H 580.381 0.298396 0.606577 0
M  V30 6114 H 582.935 1.44187 1.46285 0
M  V30 6115 H 581.165 0.494296 3.83528 0
M  V30 6116 H 582.854 0.894407 3.95923 0
M  V30 6117 H 583.62 3.33837 3.51821 0
M  V30 6118 H 579.499 2.22702 4.03639 0
M  V30 6119 H 583.043 5.67915 4.05115 0
M  V30 6120 H 578.94 4.55879 4.56995 0
M  V30 6121 H 579.708 6.62035 4.81303 0
M  V30 6122 N 582.371 -1.3172 0.865308 0
M  V30 6123 C 583.599 -2.01057 0.488251 0
M  V30 6124 C 584.014 -1.64979 -0.918 0
M  V30 6125 O 583.371 -0.876597 -1.60069 0
M  V30 6126 C 583.422 -3.55964 0.630224 0
M  V30 6127 O 583.143 -3.90749 1.98109 0
M  V30 6128 C 584.644 -4.42574 0.253567 0
M  V30 6129 H 581.864 -0.64332 0.190736 0
M  V30 6130 H 584.408 -1.68058 1.16519 0
M  V30 6131 H 582.563 -3.874 0.000895422 0
M  V30 6132 H 582.977 -4.85467 1.9855 0
M  V30 6133 H 584.451 -5.50521 0.403875 0
M  V30 6134 H 584.928 -4.31724 -0.806895 0
M  V30 6135 H 585.534 -4.16547 0.858404 0
M  V30 6136 N 583.85 -0.624285 -1.44708 0
M  V30 6137 C 584.76 0.0861083 -2.34442 0
M  V30 6138 C 585.776 0.84291 -1.5222 0
M  V30 6139 O 586.952 0.796723 -1.84971 0
M  V30 6140 C 584.017 1.05999 -3.30099 0
M  V30 6141 C 583.077 0.303316 -4.28227 0
M  V30 6142 C 582.311 1.23081 -5.19314 0
M  V30 6143 O 582.534 2.46929 -5.14181 0
M  V30 6144 O 581.468 0.71883 -5.97592 0
M  V30 6145 H 585.293 -0.651756 -2.96624 0
M  V30 6146 H 582.879 -0.384493 -1.44368 0
M  V30 6147 H 584.76 1.62046 -3.88997 0
M  V30 6148 H 583.436 1.77859 -2.70459 0
M  V30 6149 H 582.343 -0.300033 -3.72895 0
M  V30 6150 H 583.676 -0.375123 -4.90768 0
M  V30 6151 N 585.328 1.53329 -0.364422 0
M  V30 6152 C 586.574 2.01537 0.225969 0
M  V30 6153 C 586.907 1.25128 1.48515 0
M  V30 6154 O 586.182 0.344653 1.91422 0
M  V30 6155 C 586.465 3.56339 0.519092 0
M  V30 6156 C 586.318 4.43441 -0.753639 0
M  V30 6157 C 587.637 4.19833 1.32015 0
M  V30 6158 H 584.756 0.732573 0.0806548 0
M  V30 6159 H 587.398 1.83597 -0.489084 0
M  V30 6160 H 585.548 3.71756 1.12825 0
M  V30 6161 H 587.22 4.39823 -1.39116 0
M  V30 6162 H 585.463 4.11457 -1.37424 0
M  V30 6163 H 586.134 5.49699 -0.503517 0
M  V30 6164 H 588.61 4.08242 0.804859 0
M  V30 6165 H 587.486 5.28177 1.49399 0
M  V30 6166 H 587.747 3.75821 2.32832 0
M  V30 6167 N 586.806 0.0935595 1.57322 0
M  V30 6168 C 588.083 -0.612692 1.85756 0
M  V30 6169 C 588.463 -1.86439 0.99013 0
M  V30 6170 O 587.811 -2.28416 0.0621362 0
M  V30 6171 C 588.021 -0.929547 3.36393 0
M  V30 6172 C 589.369 -1.29366 4.04413 0
M  V30 6173 O 590.393 -1.02061 3.41265 0
M  V30 6174 O 589.252 -1.80498 5.15832 0
M  V30 6175 H 586.346 -0.306444 0.768128 0
M  V30 6176 H 588.892 0.126141 1.69231 0
M  V30 6177 H 587.664 -0.0414766 3.91278 0
M  V30 6178 H 587.287 -1.72441 3.5826 0
M  V30 6179 N 588.284 -1.56567 -0.180126 0
M  V30 6180 C 589.533 -1.80685 -0.896426 0
M  V30 6181 C 589.846 -0.669335 -1.83791 0
M  V30 6182 O 591.052 -0.795209 -2.59593 0
M  V30 6183 C 589.508 -3.20132 -1.6445 0
M  V30 6184 C 589.116 -4.41727 -0.747088 0
M  V30 6185 C 590.86 -3.53549 -2.34955 0
M  V30 6186 C 588.767 -5.72195 -1.49489 0
M  V30 6187 H 587.697 -0.673758 -0.338477 0
M  V30 6188 H 590.348 -1.8289 -0.149467 0
M  V30 6189 H 588.73 -3.12218 -2.43589 0
M  V30 6190 H 589.904 -4.608 0.00671129 0
M  V30 6191 H 588.219 -4.16122 -0.152134 0
M  V30 6192 H 590.816 -4.48267 -2.91481 0
M  V30 6193 H 591.159 -2.78006 -3.09868 0
M  V30 6194 H 591.692 -3.62976 -1.62768 0
M  V30 6195 H 588.431 -6.50743 -0.788251 0
M  V30 6196 H 587.951 -5.57115 -2.22224 0
M  V30 6197 H 589.63 -6.1384 -2.04472 0
M  V30 6198 N 589.762 0.448376 -1.51087 0
M  V30 6199 C 591.01 1.19635 -1.62886 0
M  V30 6200 C 591.331 1.91977 -0.342024 0
M  V30 6201 O 590.601 1.85094 0.641636 0
M  V30 6202 H 589.181 0.444598 -0.600285 0
M  V30 6203 H 591.843 0.515138 -1.87969 0
M  V30 6204 H 590.939 1.93194 -2.45117 0
M  V30 6205 N 591.24 1.41047 0.703093 0
M  V30 6206 C 592.15 1.44645 1.84703 0
M  V30 6207 C 593.166 0.337778 1.7069 0
M  V30 6208 O 594.342 0.584327 1.92737 0
M  V30 6209 C 591.407 1.31928 3.20618 0
M  V30 6210 C 590.468 2.53047 3.46794 0
M  V30 6211 C 589.701 2.40927 4.76224 0
M  V30 6212 O 589.924 1.42978 5.5219 0
M  V30 6213 O 588.858 3.30543 5.03016 0
M  V30 6214 H 592.684 2.41139 1.84624 0
M  V30 6215 H 590.269 1.22504 0.855167 0
M  V30 6216 H 592.151 1.27092 4.01778 0
M  V30 6217 H 590.826 0.385469 3.21397 0
M  V30 6218 H 589.733 2.6346 2.65593 0
M  V30 6219 H 591.066 3.45231 3.50822 0
M  V30 6220 N 592.718 -0.936591 1.26751 0
M  V30 6221 C 593.648 -2.05315 1.11212 0
M  V30 6222 C 594.629 -1.70092 0.0160262 0
M  V30 6223 O 595.814 -1.93279 0.188894 0
M  V30 6224 C 592.944 -3.39123 0.749171 0
M  V30 6225 C 591.898 -3.88425 1.79751 0
M  V30 6226 C 591.224 -5.18936 1.28876 0
M  V30 6227 C 592.524 -4.12798 3.19992 0
M  V30 6228 H 594.218 -2.18573 2.04613 0
M  V30 6229 H 591.764 -1.05027 0.985159 0
M  V30 6230 H 593.717 -4.16704 0.627323 0
M  V30 6231 H 592.441 -3.25855 -0.220543 0
M  V30 6232 H 591.1 -3.13028 1.90811 0
M  V30 6233 H 590.748 -5.02051 0.308757 0
M  V30 6234 H 590.448 -5.52892 1.98958 0
M  V30 6235 H 591.972 -5.99096 1.17967 0
M  V30 6236 H 593.386 -4.80977 3.11983 0
M  V30 6237 H 591.783 -4.58044 3.87705 0
M  V30 6238 H 592.853 -3.18412 3.65707 0
M  V30 6239 N 594.196 -1.08629 -1.14182 0
M  V30 6240 C 595.126 -0.740003 -2.21464 0
M  V30 6241 C 596.107 0.278591 -1.67803 0
M  V30 6242 O 597.292 0.148461 -1.93632 0
M  V30 6243 C 594.422 -0.150952 -3.46972 0
M  V30 6244 C 593.376 -1.09815 -4.13672 0
M  V30 6245 C 592.702 -0.3712 -5.3341 0
M  V30 6246 C 594.002 -2.43722 -4.61949 0
M  V30 6247 H 595.696 -1.63697 -2.50686 0
M  V30 6248 H 593.242 -0.788526 -1.20492 0
M  V30 6249 H 595.195 0.103325 -4.21273 0
M  V30 6250 H 593.919 0.781164 -3.1712 0
M  V30 6251 H 592.578 -1.33756 -3.41328 0
M  V30 6252 H 592.226 0.564792 -4.99819 0
M  V30 6253 H 591.926 -1.00267 -5.78982 0
M  V30 6254 H 593.45 -0.12503 -6.10472 0
M  V30 6255 H 594.864 -2.24034 -5.27714 0
M  V30 6256 H 593.261 -3.02582 -5.18232 0
M  V30 6257 H 594.331 -3.05082 -3.76899 0
M  V30 6258 N 595.674 1.31259 -0.872281 0
M  V30 6259 C 596.607 2.26544 -0.274394 0
M  V30 6260 C 597.585 1.51213 0.597776 0
M  V30 6261 O 598.769 1.80277 0.550687 0
M  V30 6262 C 595.896 3.33139 0.611256 0
M  V30 6263 C 594.942 4.26077 -0.189876 0
M  V30 6264 S 595.775 5.11971 -1.56989 0
M  V30 6265 C 596.931 6.2208 -0.690427 0
M  V30 6266 H 597.164 2.76908 -1.0821 0
M  V30 6267 H 594.697 1.3906 -0.670939 0
M  V30 6268 H 596.655 3.95024 1.11654 0
M  V30 6269 H 595.316 2.81525 1.39294 0
M  V30 6270 H 594.509 5.01657 0.485433 0
M  V30 6271 H 594.111 3.68701 -0.627339 0
M  V30 6272 H 596.403 6.77429 0.098001 0
M  V30 6273 H 597.346 6.93768 -1.41742 0
M  V30 6274 H 597.754 5.63915 -0.256953 0
M  V30 6275 N 597.152 0.631951 1.44375 0
M  V30 6276 C 598.082 -0.0593243 2.33425 0
M  V30 6277 C 599.063 -0.833964 1.48253 0
M  V30 6278 O 600.248 -0.799682 1.76971 0
M  V30 6279 C 597.378 -1.04096 3.31333 0
M  V30 6280 C 596.332 -0.377899 4.26328 0
M  V30 6281 C 595.658 -1.4695 5.14111 0
M  V30 6282 C 596.958 0.716371 5.17364 0
M  V30 6283 H 598.652 0.684287 2.91475 0
M  V30 6284 H 596.198 0.330518 1.40156 0
M  V30 6285 H 598.151 -1.53331 3.92514 0
M  V30 6286 H 596.875 -1.81547 2.71493 0
M  V30 6287 H 595.534 0.0938054 3.6648 0
M  V30 6288 H 595.182 -2.2349 4.50623 0
M  V30 6289 H 594.882 -1.03121 5.78481 0
M  V30 6290 H 596.406 -1.96363 5.78164 0
M  V30 6291 H 597.82 0.307089 5.72477 0
M  V30 6292 H 596.217 1.07784 5.90341 0
M  V30 6293 H 597.287 1.58316 4.58327 0
M  V30 6294 N 598.631 -1.53133 0.372548 0
M  V30 6295 C 599.578 -2.25951 -0.470631 0
M  V30 6296 C 600.548 -1.26895 -1.07176 0
M  V30 6297 O 601.733 -1.55691 -1.10294 0
M  V30 6298 C 598.873 -3.05726 -1.6008 0
M  V30 6299 C 597.986 -4.19684 -1.02416 0
M  V30 6300 C 597.121 -4.86888 -2.124 0
M  V30 6301 C 596.16 -5.92866 -1.52238 0
M  V30 6302 N 595.297 -6.53732 -2.56084 0
M  V30 6303 H 600.137 -2.97587 0.156816 0
M  V30 6304 H 597.674 -1.4683 0.0891571 0
M  V30 6305 H 599.632 -3.50258 -2.26661 0
M  V30 6306 H 598.262 -2.36331 -2.1988 0
M  V30 6307 H 597.314 -3.79588 -0.248426 0
M  V30 6308 H 598.626 -4.95821 -0.544366 0
M  V30 6309 H 597.78 -5.34638 -2.86787 0
M  V30 6310 H 596.519 -4.10239 -2.63734 0
M  V30 6311 H 595.524 -5.4447 -0.763685 0
M  V30 6312 H 596.749 -6.71439 -1.0172 0
M  V30 6313 H 594.695 -5.79932 -3.06618 0
M  V30 6314 H 594.612 -7.25429 -2.12811 0
M  V30 6315 H 595.88 -7.0613 -3.30152 0
M  V30 6316 N 600.109 -0.101901 -1.5727 0
M  V30 6317 C 601.039 0.851544 -2.17419 0
M  V30 6318 C 602.02 1.28942 -1.10941 0
M  V30 6319 O 603.205 1.35509 -1.39107 0
M  V30 6320 C 600.335 2.10816 -2.75996 0
M  V30 6321 C 599.289 1.80867 -3.87906 0
M  V30 6322 C 598.615 3.13413 -4.33216 0
M  V30 6323 C 599.915 1.0903 -5.10793 0
M  V30 6324 H 601.609 0.350381 -2.97343 0
M  V30 6325 H 599.155 0.16709 -1.43027 0
M  V30 6326 H 601.108 2.77959 -3.16729 0
M  V30 6327 H 599.832 2.63227 -1.93337 0
M  V30 6328 H 598.491 1.16119 -3.47724 0
M  V30 6329 H 598.139 3.63725 -3.47438 0
M  V30 6330 H 597.839 2.94155 -5.08671 0
M  V30 6331 H 599.363 3.81704 -4.76586 0
M  V30 6332 H 600.777 1.66295 -5.48652 0
M  V30 6333 H 599.174 0.99927 -5.91722 0
M  V30 6334 H 600.244 0.0741704 -4.84843 0
M  V30 6335 N 601.587 1.56661 0.17182 0
M  V30 6336 C 602.534 1.96371 1.21273 0
M  V30 6337 C 603.504 0.82756 1.44016 0
M  V30 6338 O 604.689 1.08764 1.56764 0
M  V30 6339 C 601.829 2.32838 2.54716 0
M  V30 6340 C 600.942 3.59628 2.39356 0
M  V30 6341 C 600.077 3.85311 3.65662 0
M  V30 6342 C 599.116 5.0545 3.45234 0
M  V30 6343 N 598.253 5.27268 4.63608 0
M  V30 6344 H 603.093 2.85106 0.86709 0
M  V30 6345 H 600.63 1.41073 0.416744 0
M  V30 6346 H 602.588 2.52004 3.3249 0
M  V30 6347 H 601.218 1.47214 2.87277 0
M  V30 6348 H 600.27 3.4838 1.52761 0
M  V30 6349 H 601.582 4.4756 2.20207 0
M  V30 6350 H 600.736 4.04841 4.51872 0
M  V30 6351 H 599.475 2.95753 3.8779 0
M  V30 6352 H 598.48 4.85819 2.5741 0
M  V30 6353 H 599.705 5.96538 3.24529 0
M  V30 6354 H 597.651 4.40662 4.85956 0
M  V30 6355 H 597.568 6.09422 4.4737 0
M  V30 6356 H 598.836 5.51277 5.51103 0
M  V30 6357 N 603.065 -0.440357 1.51323 0
M  V30 6358 C 604.311 -1.18874 1.65047 0
M  V30 6359 C 604.666 -1.88988 0.360742 0
M  V30 6360 O 603.959 -1.80479 -0.643272 0
M  V30 6361 C 604.153 -2.2339 2.78984 0
M  V30 6362 C 603.982 -1.63534 4.18911 0
M  V30 6363 C 602.752 -1.42158 4.84891 0
M  V30 6364 C 604.95 -1.11324 5.02107 0
M  V30 6365 N 602.932 -0.778679 6.08942 0
M  V30 6366 C 604.303 -0.595421 6.17134 0
M  V30 6367 C 606.358 -1.00471 4.87658 0
M  V30 6368 C 605.061 0.0202557 7.19297 0
M  V30 6369 C 607.087 -0.402928 5.90026 0
M  V30 6370 C 606.449 0.10436 7.04323 0
M  V30 6371 H 602.548 -0.422771 0.657866 0
M  V30 6372 H 605.132 -0.485814 1.88542 0
M  V30 6373 H 603.303 -2.91074 2.57158 0
M  V30 6374 H 605.035 -2.90366 2.81904 0
M  V30 6375 H 601.79 -1.68247 4.42707 0
M  V30 6376 H 602.214 -0.474755 6.75333 0
M  V30 6377 H 606.856 -1.38278 3.99548 0
M  V30 6378 H 604.574 0.410468 8.07057 0
M  V30 6379 H 608.16 -0.320897 5.80914 0
M  V30 6380 H 607.04 0.562697 7.82179 0
M  V30 6381 N 604.543 -1.41418 -0.695603 0
M  V30 6382 C 605.49 -1.43264 -1.80954 0
M  V30 6383 C 606.46 -0.287016 -1.63601 0
M  V30 6384 O 607.645 -0.488054 -1.84452 0
M  V30 6385 C 604.785 -1.32054 -3.18835 0
M  V30 6386 C 603.898 -2.56485 -3.4762 0
M  V30 6387 C 603.033 -2.3757 -4.75115 0
M  V30 6388 C 602.072 -3.57477 -4.96867 0
M  V30 6389 N 601.209 -3.37632 -6.15588 0
M  V30 6390 H 606.049 -2.38467 -1.78711 0
M  V30 6391 H 603.586 -1.18415 -0.872715 0
M  V30 6392 H 605.544 -1.23558 -3.98484 0
M  V30 6393 H 604.174 -0.404592 -3.20254 0
M  V30 6394 H 603.226 -2.75432 -2.62376 0
M  V30 6395 H 604.538 -3.45678 -3.59594 0
M  V30 6396 H 603.692 -2.2654 -5.62818 0
M  V30 6397 H 602.431 -1.45834 -4.65386 0
M  V30 6398 H 601.436 -3.68961 -4.07612 0
M  V30 6399 H 602.661 -4.50167 -5.08455 0
M  V30 6400 H 600.607 -2.48596 -6.07072 0
M  V30 6401 H 600.524 -4.20401 -6.2833 0
M  V30 6402 H 601.792 -3.30375 -7.06026 0
M  V30 6403 N 606.021 0.929856 -1.27246 0
M  V30 6404 C 607.246 1.71674 -1.16374 0
M  V30 6405 C 607.671 1.86064 0.276024 0
M  V30 6406 O 607.029 1.3591 1.19992 0
M  V30 6407 C 607.077 3.09526 -1.85003 0
M  V30 6408 O 606.181 3.96142 -1.14653 0
M  V30 6409 H 605.522 0.52629 -0.404863 0
M  V30 6410 H 608.052 1.16381 -1.68276 0
M  V30 6411 H 608.062 3.59852 -1.92276 0
M  V30 6412 H 606.737 2.98369 -2.89739 0
M  V30 6413 H 605.314 3.54584 -1.15433 0
M  V30 6414 N 607.499 1.09233 1.13605 0
M  V30 6415 C 608.776 0.739633 1.81077 0
M  V30 6416 C 609.156 -0.775595 1.96336 0
M  V30 6417 O 608.504 -1.69726 1.52988 0
M  V30 6418 C 608.714 1.47636 3.16235 0
M  V30 6419 C 610.062 1.64087 3.91613 0
M  V30 6420 O 611.086 1.43871 3.25852 0
M  V30 6421 O 609.945 1.97511 5.0956 0
M  V30 6422 H 607.039 0.265464 0.783236 0
M  V30 6423 H 609.585 1.19441 1.20549 0
M  V30 6424 H 608.357 2.50818 3.00344 0
M  V30 6425 H 607.98 1.01362 3.84462 0
M  V30 6426 N 608.977 -1.30795 0.87923 0
M  V30 6427 C 610.202 -2.01063 0.508769 0
M  V30 6428 C 610.627 -1.65508 -0.893803 0
M  V30 6429 O 609.985 -0.868616 -1.59138 0
M  V30 6430 C 610.033 -3.54054 0.683991 0
M  V30 6431 O 609.137 -4.11498 -0.272654 0
M  V30 6432 H 608.478 -0.632786 0.201191 0
M  V30 6433 H 611.008 -1.66776 1.18519 0
M  V30 6434 H 611.018 -4.03845 0.580798 0
M  V30 6435 H 609.693 -3.79271 1.70665 0
M  V30 6436 H 608.27 -3.72695 -0.12364 0
M  V30 6437 N 610.455 -0.639598 -1.44038 0
M  V30 6438 C 611.685 -0.154586 -2.06021 0
M  V30 6439 C 612.093 1.17951 -1.47933 0
M  V30 6440 O 611.436 1.73627 -0.59994 0
M  V30 6441 C 611.498 0.0255459 -3.59491 0
M  V30 6442 C 611.162 -1.2317 -4.40089 0
M  V30 6443 C 612.159 -2.15735 -4.73027 0
M  V30 6444 C 609.844 -1.46949 -4.80324 0
M  V30 6445 C 611.838 -3.30382 -5.45093 0
M  V30 6446 C 609.525 -2.61891 -5.52138 0
M  V30 6447 C 610.523 -3.53433 -5.84443 0
M  V30 6448 O 610.211 -4.6637 -6.54793 0
M  V30 6449 H 609.943 -0.0808543 -0.671147 0
M  V30 6450 H 612.497 -0.876541 -1.85758 0
M  V30 6451 H 610.727 0.802733 -3.78276 0
M  V30 6452 H 612.416 0.466184 -4.03214 0
M  V30 6453 H 613.182 -1.98602 -4.42473 0
M  V30 6454 H 609.061 -0.765815 -4.54595 0
M  V30 6455 H 612.605 -4.01856 -5.70226 0
M  V30 6456 H 608.502 -2.78964 -5.82108 0
M  V30 6457 H 609.27 -4.6546 -6.73267 0
M  V30 6458 N 611.933 1.52934 -0.380664 0
M  V30 6459 C 613.18 2.01467 0.204278 0
M  V30 6460 C 613.508 1.26744 1.47533 0
M  V30 6461 O 612.763 0.353723 1.92477 0
M  V30 6462 C 613.062 3.5349 0.527199 0
M  V30 6463 C 612.728 4.46171 -0.651295 0
M  V30 6464 C 611.39 4.71227 -0.974619 0
M  V30 6465 C 613.742 5.00909 -1.44012 0
M  V30 6466 C 611.07 5.4827 -2.08847 0
M  V30 6467 C 613.422 5.7917 -2.5445 0
M  V30 6468 C 612.086 6.02507 -2.87301 0
M  V30 6469 H 611.356 0.73722 0.0747504 0
M  V30 6470 H 614.003 1.84411 -0.516234 0
M  V30 6471 H 612.308 3.68574 1.32892 0
M  V30 6472 H 614.005 3.88529 0.992283 0
M  V30 6473 H 610.595 4.26829 -0.389276 0
M  V30 6474 H 614.779 4.81485 -1.20357 0
M  V30 6475 H 610.035 5.64567 -2.34679 0
M  V30 6476 H 614.209 6.20588 -3.1598 0
M  V30 6477 H 611.836 6.61989 -3.7373 0
M  V30 6478 N 613.412 0.11024 1.57214 0
M  V30 6479 C 614.637 -0.561179 1.99664 0
M  V30 6480 C 615.062 -1.59985 0.989266 0
M  V30 6481 O 614.42 -1.81255 -0.0402399 0
M  V30 6482 C 614.468 -1.17189 3.41027 0
M  V30 6483 O 613.572 -2.28755 3.4314 0
M  V30 6484 H 612.913 -0.14101 0.648855 0
M  V30 6485 H 615.443 0.196128 2.03658 0
M  V30 6486 H 615.453 -1.50954 3.79047 0
M  V30 6487 H 614.128 -0.411041 4.13864 0
M  V30 6488 H 612.705 -1.96495 3.16929 0
M  V30 6489 N 614.89 -1.56749 -0.16351 0
M  V30 6490 C 616.136 -1.83597 -0.875436 0
M  V30 6491 C 616.491 -0.691907 -1.79528 0
M  V30 6492 O 615.784 0.311193 -1.89056 0
M  V30 6493 C 615.978 -3.14342 -1.70071 0
M  V30 6494 C 615.807 -4.41356 -0.862265 0
M  V30 6495 C 614.577 -5.02467 -0.534299 0
M  V30 6496 C 616.775 -5.1391 -0.200203 0
M  V30 6497 N 614.757 -6.13068 0.31947 0
M  V30 6498 C 616.128 -6.17862 0.514398 0
M  V30 6499 C 618.183 -4.97757 -0.119171 0
M  V30 6500 C 616.886 -7.07412 1.30236 0
M  V30 6501 C 618.912 -5.87756 0.655477 0
M  V30 6502 C 618.274 -6.91178 1.35842 0
M  V30 6503 H 614.373 -0.722702 -0.298708 0
M  V30 6504 H 616.957 -1.94182 -0.141883 0
M  V30 6505 H 615.128 -3.04933 -2.40562 0
M  V30 6506 H 616.86 -3.29156 -2.35453 0
M  V30 6507 H 613.615 -4.65611 -0.866222 0
M  V30 6508 H 614.039 -6.72978 0.736893 0
M  V30 6509 H 618.681 -4.178 -0.648278 0
M  V30 6510 H 616.399 -7.86808 1.84278 0
M  V30 6511 H 619.985 -5.77328 0.719948 0
M  V30 6512 H 618.865 -7.59614 1.94822 0
M  V30 6513 N 616.368 0.432326 -1.51554 0
M  V30 6514 C 617.593 1.20824 -1.68571 0
M  V30 6515 C 618.018 1.84126 -0.384596 0
M  V30 6516 O 617.376 1.69025 0.655751 0
M  V30 6517 C 617.424 2.26429 -2.80646 0
M  V30 6518 O 616.528 3.32032 -2.44598 0
M  V30 6519 H 615.869 0.353765 -0.561913 0
M  V30 6520 H 618.399 0.509916 -1.98144 0
M  V30 6521 H 618.409 2.71133 -3.04878 0
M  V30 6522 H 617.084 1.79733 -3.75058 0
M  V30 6523 H 615.661 2.92769 -2.30956 0
M  V30 6524 N 617.846 1.41785 0.688094 0
M  V30 6525 C 619.123 1.32031 1.44316 0
M  V30 6526 C 619.503 -0.0486079 2.11044 0
M  V30 6527 O 618.851 -1.06332 2.02252 0
M  V30 6528 C 619.061 2.47906 2.45649 0
M  V30 6529 C 620.409 2.89415 3.10683 0
M  V30 6530 O 621.433 2.477 2.55975 0
M  V30 6531 O 620.292 3.61573 4.09789 0
M  V30 6532 H 617.386 0.519994 0.643067 0
M  V30 6533 H 619.932 1.53765 0.71794 0
M  V30 6534 H 618.704 3.39222 1.95048 0
M  V30 6535 H 618.327 2.28089 3.25671 0
M  V30 6536 N 619.324 -0.923095 1.27737 0
M  V30 6537 C 620.57 -1.67409 1.15524 0
M  V30 6538 C 620.925 -1.90124 -0.295072 0
M  V30 6539 O 620.218 -1.48382 -1.21216 0
M  V30 6540 C 620.412 -3.04125 1.8773 0
M  V30 6541 C 620.241 -2.94752 3.39634 0
M  V30 6542 C 619.011 -2.96783 4.0896 0
M  V30 6543 C 621.209 -2.73524 4.35533 0
M  V30 6544 N 619.191 -2.779 5.47398 0
M  V30 6545 C 620.562 -2.63391 5.61271 0
M  V30 6546 C 622.617 -2.58447 4.2557 0
M  V30 6547 C 621.32 -2.3972 6.78179 0
M  V30 6548 C 623.346 -2.36154 5.42204 0
M  V30 6549 C 622.708 -2.26768 6.669 0
M  V30 6550 H 618.807 -0.619196 0.477619 0
M  V30 6551 H 621.391 -1.09094 1.61266 0
M  V30 6552 H 619.562 -3.60545 1.44436 0
M  V30 6553 H 621.294 -3.6819 1.67982 0
M  V30 6554 H 618.049 -3.07186 3.60463 0
M  V30 6555 H 618.473 -2.71576 6.20141 0
M  V30 6556 H 623.115 -2.6446 3.2988 0
M  V30 6557 H 620.833 -2.32447 7.73947 0
M  V30 6558 H 624.419 -2.25367 5.36378 0
M  V30 6559 H 623.299 -2.09751 7.55628 0
M  V30 6560 N 620.802 -1.09834 -1.13024 0
M  V30 6561 C 622.048 -0.848072 -1.84876 0
M  V30 6562 C 622.403 0.619663 -1.82148 0
M  V30 6563 O 621.696 1.45067 -1.25164 0
M  V30 6564 C 621.89 -1.32263 -3.32026 0
M  V30 6565 C 621.719 -2.83497 -3.49084 0
M  V30 6566 C 620.489 -3.51425 -3.63082 0
M  V30 6567 C 622.687 -3.81623 -3.44773 0
M  V30 6568 N 620.669 -4.91042 -3.68443 0
M  V30 6569 C 622.04 -5.07217 -3.56555 0
M  V30 6570 C 624.095 -3.74419 -3.282 0
M  V30 6571 C 622.798 -6.26457 -3.53474 0
M  V30 6572 C 624.824 -4.93151 -3.26429 0
M  V30 6573 C 624.186 -6.1759 -3.38765 0
M  V30 6574 H 620.285 -0.363249 -0.692513 0
M  V30 6575 H 622.869 -1.39952 -1.35357 0
M  V30 6576 H 621.04 -0.79858 -3.80102 0
M  V30 6577 H 622.772 -1.01725 -3.91707 0
M  V30 6578 H 619.527 -3.0186 -3.64935 0
M  V30 6579 H 619.951 -5.63782 -3.74805 0
M  V30 6580 H 624.593 -2.79132 -3.17561 0
M  V30 6581 H 622.311 -7.22039 -3.62884 0
M  V30 6582 H 625.897 -4.8928 -3.14796 0
M  V30 6583 H 624.777 -7.07925 -3.37361 0
M  V30 6584 N 622.28 1.30327 -0.886154 0
M  V30 6585 C 623.505 2.0079 -0.519425 0
M  V30 6586 C 623.93 1.65979 0.885013 0
M  V30 6587 O 623.288 0.877043 1.58675 0
M  V30 6588 C 623.336 3.53686 -0.702758 0
M  V30 6589 O 622.44 4.11637 0.250828 0
M  V30 6590 H 621.781 0.63171 -0.204544 0
M  V30 6591 H 624.311 1.66145 -1.19402 0
M  V30 6592 H 624.321 4.03531 -0.602207 0
M  V30 6593 H 622.996 3.78361 -1.72673 0
M  V30 6594 H 621.573 3.72755 0.103873 0
M  V30 6595 N 623.758 0.647228 1.43697 0
M  V30 6596 C 624.983 0.164083 2.0675 0
M  V30 6597 C 625.408 -1.15892 1.48158 0
M  V30 6598 O 624.766 -1.71459 0.589194 0
M  V30 6599 C 624.814 0.0800368 3.60511 0
M  V30 6600 O 623.918 -0.959453 4.01084 0
M  V30 6601 H 623.259 0.0921288 0.657578 0
M  V30 6602 H 625.789 0.88846 1.84303 0
M  V30 6603 H 625.799 -0.105263 4.07864 0
M  V30 6604 H 624.474 1.04586 4.02535 0
M  V30 6605 H 623.051 -0.747425 3.65333 0
M  V30 6606 N 625.236 -1.5273 0.388769 0
M  V30 6607 C 626.647 -1.86505 -0.0853788 0
M  V30 6608 C 626.998 -1.30847 -1.46197 0
M  V30 6609 O 626.123 -0.639609 -2.06732 0
M  V30 6610 C 626.718 -3.38414 -0.161703 0
M  V30 6611 C 625.277 -3.71902 -0.580144 0
M  V30 6612 C 624.424 -2.76095 0.258218 0
M  V30 6613 H 627.375 -1.46647 0.606665 0
M  V30 6614 H 627.396 -3.67638 -0.980936 0
M  V30 6615 H 626.908 -3.78893 0.840333 0
M  V30 6616 H 625.009 -3.36992 -1.58957 0
M  V30 6617 H 625.122 -4.77902 -0.338663 0
M  V30 6618 H 623.486 -2.53195 -0.276432 0
M  V30 6619 H 624.269 -3.19411 1.25822 0
M  V30 6620 N 626.714 -0.118576 -1.57153 0
M  V30 6621 C 627.962 0.538461 -1.94795 0
M  V30 6622 C 628.283 1.67243 -1.00274 0
M  V30 6623 O 627.553 1.95811 -0.0589692 0
M  V30 6624 H 626.133 0.201904 -0.719197 0
M  V30 6625 H 628.795 -0.187418 -1.93997 0
M  V30 6626 H 627.891 0.933315 -2.97818 0
M  V30 6627 N 628.193 1.56834 0.155195 0
M  V30 6628 C 629.44 1.82898 0.869179 0
M  V30 6629 C 629.768 0.698194 1.81537 0
M  V30 6630 O 629.023 -0.313404 1.93174 0
M  V30 6631 C 629.322 3.15239 1.68402 0
M  V30 6632 C 628.988 4.42123 0.885341 0
M  V30 6633 C 627.65 4.76583 0.664971 0
M  V30 6634 C 630.002 5.20178 0.326234 0
M  V30 6635 C 627.33 5.86566 -0.125346 0
M  V30 6636 C 629.682 6.3099 -0.45108 0
M  V30 6637 C 628.346 6.64006 -0.682102 0
M  V30 6638 H 627.616 0.66927 0.318055 0
M  V30 6639 H 630.263 1.91036 0.133241 0
M  V30 6640 H 628.568 3.02515 2.48982 0
M  V30 6641 H 630.265 3.32618 2.23978 0
M  V30 6642 H 626.855 4.15102 1.06716 0
M  V30 6643 H 631.039 4.93936 0.483787 0
M  V30 6644 H 626.295 6.10594 -0.313915 0
M  V30 6645 H 630.469 6.9067 -0.89149 0
M  V30 6646 H 628.096 7.49065 -1.29636 0
M  V30 6647 N 629.671 -0.424282 1.51781 0
M  V30 6648 C 630.634 -1.49848 1.73431 0
M  V30 6649 C 631.634 -1.49016 0.604225 0
M  V30 6650 O 632.824 -1.50808 0.871935 0
M  V30 6651 C 629.956 -2.89332 1.80277 0
M  V30 6652 H 631.149 -1.3195 2.69312 0
M  V30 6653 H 628.702 -0.653809 1.41968 0
M  V30 6654 H 629.437 -3.12618 0.862568 0
M  V30 6655 H 629.222 -2.9134 2.62419 0
M  V30 6656 H 630.712 -3.67233 1.98821 0
M  V30 6657 N 631.149 -1.42148 -0.680565 0
M  V30 6658 C 632.398 -1.41604 -1.43636 0
M  V30 6659 C 632.711 -0.0337887 -1.95571 0
M  V30 6660 O 633.917 0.0942588 -2.71336 0
M  V30 6661 C 632.373 -2.49056 -2.59806 0
M  V30 6662 C 631.981 -3.9326 -2.14594 0
M  V30 6663 C 633.725 -2.5767 -3.37352 0
M  V30 6664 C 631.632 -4.92232 -3.27813 0
M  V30 6665 H 630.562 -0.526656 -0.539583 0
M  V30 6666 H 633.213 -1.68033 -0.737369 0
M  V30 6667 H 631.595 -2.15782 -3.32045 0
M  V30 6668 H 632.769 -4.35858 -1.49546 0
M  V30 6669 H 631.084 -3.88443 -1.50002 0
M  V30 6670 H 633.681 -3.28794 -4.21662 0
M  V30 6671 H 634.024 -1.61837 -3.83555 0
M  V30 6672 H 634.557 -2.90109 -2.72179 0
M  V30 6673 H 631.296 -5.89522 -2.86607 0
M  V30 6674 H 630.816 -4.5427 -3.91661 0
M  V30 6675 H 632.495 -5.13684 -3.93367 0
M  V30 6676 N 632.627 0.916307 -1.28225 0
M  V30 6677 C 633.559 2.02303 -1.07732 0
M  V30 6678 C 634.572 1.62773 -0.0298421 0
M  V30 6679 O 635.761 1.76406 -0.272626 0
M  V30 6680 C 632.861 3.33282 -0.614504 0
M  V30 6681 C 632.034 4.01439 -1.73682 0
M  V30 6682 C 631.093 5.10698 -1.26781 0
M  V30 6683 O 630.119 5.34038 -1.96958 0
M  V30 6684 N 631.321 5.80355 -0.129624 0
M  V30 6685 H 634.086 2.20442 -2.03041 0
M  V30 6686 H 631.647 1.08744 -1.19943 0
M  V30 6687 H 633.639 4.03699 -0.284397 0
M  V30 6688 H 632.209 3.11633 0.245664 0
M  V30 6689 H 631.429 3.24604 -2.23665 0
M  V30 6690 H 632.717 4.43721 -2.48976 0
M  V30 6691 H 632.115 5.6386 0.455847 0
M  V30 6692 H 630.672 6.51647 0.141224 0
M  V30 6693 N 634.105 1.10431 1.1244 0
M  V30 6694 C 635.052 0.753103 2.18167 0
M  V30 6695 C 636.022 -0.270549 1.63882 0
M  V30 6696 O 637.207 -0.149837 1.90211 0
M  V30 6697 C 634.347 0.191046 3.44571 0
M  V30 6698 C 633.46 1.26999 4.12911 0
M  V30 6699 C 632.595 0.669586 5.26963 0
M  V30 6700 C 631.634 1.72912 5.87169 0
M  V30 6701 N 630.771 1.14898 6.92635 0
M  V30 6702 H 635.611 1.65892 2.47556 0
M  V30 6703 H 633.148 0.828631 1.21541 0
M  V30 6704 H 635.106 -0.152712 4.1692 0
M  V30 6705 H 633.736 -0.677997 3.15599 0
M  V30 6706 H 632.788 1.73087 3.3874 0
M  V30 6707 H 634.1 2.07204 4.53727 0
M  V30 6708 H 633.254 0.275274 6.06075 0
M  V30 6709 H 631.993 -0.163895 4.87425 0
M  V30 6710 H 630.998 2.13286 5.06744 0
M  V30 6711 H 632.223 2.56544 6.28778 0
M  V30 6712 H 630.169 0.336956 6.55134 0
M  V30 6713 H 630.086 1.88786 7.32049 0
M  V30 6714 H 631.354 0.78121 7.75576 0
M  V30 6715 N 635.583 -1.29855 0.893053 0
M  V30 6716 C 636.832 -1.95104 0.511597 0
M  V30 6717 C 637.145 -1.71226 -0.945567 0
M  V30 6718 O 638.351 -2.30525 -1.43424 0
M  V30 6719 C 636.807 -3.49374 0.864034 0
M  V30 6720 C 636.415 -3.82061 2.33952 0
M  V30 6721 C 638.159 -4.20894 0.552167 0
M  V30 6722 C 636.066 -5.29546 2.63316 0
M  V30 6723 H 634.996 -0.73029 0.187597 0
M  V30 6724 H 637.647 -1.47682 1.08914 0
M  V30 6725 H 636.029 -3.95413 0.215493 0
M  V30 6726 H 637.203 -3.46904 3.03305 0
M  V30 6727 H 635.518 -3.23665 2.61973 0
M  V30 6728 H 638.115 -5.29435 0.748489 0
M  V30 6729 H 638.458 -4.13178 -0.508924 0
M  V30 6730 H 638.991 -3.80564 1.15825 0
M  V30 6731 H 635.73 -5.4232 3.68197 0
M  V30 6732 H 635.25 -5.65974 1.9858 0
M  V30 6733 H 636.929 -5.97068 2.49236 0
M  V30 6734 N 637.061 -0.65484 -1.43351 0
M  V30 6735 C 638.477 -0.32255 -1.56307 0
M  V30 6736 C 638.677 1.17324 -1.63821 0
M  V30 6737 O 637.733 1.95813 -1.59417 0
M  V30 6738 C 639.046 -1.03533 -2.82314 0
M  V30 6739 C 640.594 -1.01574 -2.9606 0
M  V30 6740 C 641.069 -1.70945 -4.24902 0
M  V30 6741 N 642.56 -1.67716 -4.3177 0
M  V30 6742 C 643.295 -2.18265 -5.30234 0
M  V30 6743 N 642.791 -2.7711 -6.34966 0
M  V30 6744 N 644.584 -2.08756 -5.21898 0
M  V30 6745 H 636.735 -1.62549 -1.36717 0
M  V30 6746 H 638.998 -0.683676 -0.656727 0
M  V30 6747 H 638.704 -2.09045 -2.8283 0
M  V30 6748 H 638.578 -0.587913 -3.7259 0
M  V30 6749 H 640.965 0.0309834 -2.95084 0
M  V30 6750 H 641.046 -1.50186 -2.07069 0
M  V30 6751 H 640.69 -2.75574 -4.26639 0
M  V30 6752 H 640.62 -1.19797 -5.12793 0
M  V30 6753 H 643.111 -1.24777 -3.56706 0
M  V30 6754 H 643.424 -3.13353 -7.06421 0
M  V30 6755 H 641.769 -2.81171 -6.35585 0
M  V30 6756 H 644.96 -1.62488 -4.38994 0
M  V30 6757 H 645.133 -2.48459 -5.98475 0
M  V30 6758 N 638.539 1.52521 -0.396863 0
M  V30 6759 C 639.785 2.01971 0.183169 0
M  V30 6760 C 640.118 1.2825 1.45827 0
M  V30 6761 O 639.393 0.385179 1.90648 0
M  V30 6762 C 639.676 3.5736 0.443391 0
M  V30 6763 C 639.529 4.41743 -0.84753 0
M  V30 6764 C 640.848 4.22539 1.2308 0
M  V30 6765 H 637.967 0.734119 0.0650976 0
M  V30 6766 H 640.609 1.82519 -0.527918 0
M  V30 6767 H 638.759 3.74066 1.04914 0
M  V30 6768 H 640.431 4.36773 -1.48414 0
M  V30 6769 H 638.674 4.0845 -1.4612 0
M  V30 6770 H 639.345 5.48507 -0.620003 0
M  V30 6771 H 641.821 4.09857 0.718084 0
M  V30 6772 H 640.697 5.31227 1.38162 0
M  V30 6773 H 640.958 3.80675 2.24808 0
M  V30 6774 N 640.017 0.126909 1.57088 0
M  V30 6775 C 640.964 -0.82036 2.15728 0
M  V30 6776 C 641.934 -1.25811 1.08447 0
M  V30 6777 O 643.119 -1.33422 1.36393 0
M  V30 6778 C 640.259 -2.06199 2.76724 0
M  V30 6779 C 639.372 -1.67188 3.98337 0
M  V30 6780 C 638.507 -2.86378 4.47393 0
M  V30 6781 C 637.546 -2.43644 5.61519 0
M  V30 6782 N 636.683 -3.55775 6.05284 0
M  V30 6783 H 641.523 -0.313472 2.96347 0
M  V30 6784 H 639.06 -0.14303 1.46403 0
M  V30 6785 H 641.018 -2.78959 3.10222 0
M  V30 6786 H 639.648 -2.54333 1.98782 0
M  V30 6787 H 638.7 -0.842714 3.70948 0
M  V30 6788 H 640.012 -1.31789 4.81075 0
M  V30 6789 H 639.166 -3.67353 4.82842 0
M  V30 6790 H 637.905 -3.25009 3.63621 0
M  V30 6791 H 636.91 -1.61104 5.25667 0
M  V30 6792 H 638.135 -2.06122 6.47063 0
M  V30 6793 H 636.081 -3.94065 5.24451 0
M  V30 6794 H 635.998 -3.24325 6.82898 0
M  V30 6795 H 637.266 -4.37166 6.45373 0
M  V30 6796 N 641.495 -1.56914 -0.146875 0
M  V30 6797 C 642.458 -1.97368 -1.16526 0
M  V30 6798 C 643.458 -0.860223 -1.35856 0
M  V30 6799 O 644.648 -1.12684 -1.32846 0
M  V30 6800 C 641.78 -2.28974 -2.52555 0
M  V30 6801 H 642.973 -2.88523 -0.818209 0
M  V30 6802 H 640.526 -1.5135 -0.390221 0
M  V30 6803 H 641.261 -1.40611 -2.92231 0
M  V30 6804 H 641.046 -3.10157 -2.39886 0
M  V30 6805 H 642.536 -2.61109 -3.25902 0
M  V30 6806 N 642.974 0.416227 -1.52004 0
M  V30 6807 C 644.222 1.16153 -1.65387 0
M  V30 6808 C 644.543 1.91208 -0.382669 0
M  V30 6809 O 643.813 1.86413 0.602231 0
M  V30 6810 H 642.393 0.431765 -0.60958 0
M  V30 6811 H 645.055 0.475151 -1.89019 0
M  V30 6812 H 644.151 1.87952 -2.4916 0
M  V30 6813 N 644.452 1.42507 0.673017 0
M  V30 6814 C 645.362 1.4853 1.81593 0
M  V30 6815 C 646.378 0.373907 1.69935 0
M  V30 6816 O 647.554 0.625078 1.91454 0
M  V30 6817 C 644.619 1.387 3.17747 0
M  V30 6818 C 643.68 2.60346 3.41348 0
M  V30 6819 C 642.913 2.50975 4.71007 0
M  V30 6820 O 643.136 1.54659 5.49033 0
M  V30 6821 O 642.07 3.41138 4.95892 0
M  V30 6822 H 645.896 2.45001 1.79467 0
M  V30 6823 H 643.481 1.2429 0.82899 0
M  V30 6824 H 645.363 1.35586 3.98992 0
M  V30 6825 H 644.038 0.453555 3.20507 0
M  V30 6826 H 642.945 2.69034 2.59945 0
M  V30 6827 H 644.278 3.52595 3.43421 0
M  V30 6828 N 645.93 -0.909495 1.28709 0
M  V30 6829 C 647.158 -1.69272 1.18973 0
M  V30 6830 C 647.573 -1.87123 -0.251048 0
M  V30 6831 O 646.93 -1.40127 -1.16922 0
M  V30 6832 C 646.981 -3.08257 1.88839 0
M  V30 6833 O 646.702 -2.91228 3.27289 0
M  V30 6834 C 648.203 -4.02642 1.85457 0
M  V30 6835 H 645.423 -0.528999 0.412797 0
M  V30 6836 H 647.967 -1.13803 1.69909 0
M  V30 6837 H 646.122 -3.6053 1.41762 0
M  V30 6838 H 646.536 -3.79223 3.6234 0
M  V30 6839 H 648.01 -4.97613 2.38925 0
M  V30 6840 H 648.487 -4.31327 0.827893 0
M  V30 6841 H 649.093 -3.56298 2.32233 0
M  V30 6842 N 647.408 -1.11026 -1.11852 0
M  V30 6843 C 648.34 -0.72249 -2.17515 0
M  V30 6844 C 649.353 0.243782 -1.60964 0
M  V30 6845 O 650.542 0.0273252 -1.78479 0
M  V30 6846 C 647.642 -0.0463979 -3.38868 0
M  V30 6847 C 646.815 -1.0384 -4.24895 0
M  V30 6848 C 645.874 -0.392659 -5.24733 0
M  V30 6849 O 644.9 -1.0453 -5.5952 0
M  V30 6850 N 646.102 0.846296 -5.74298 0
M  V30 6851 H 648.867 -1.63161 -2.51393 0
M  V30 6852 H 646.428 -0.999899 -1.27333 0
M  V30 6853 H 648.42 0.397215 -4.02746 0
M  V30 6854 H 646.99 0.765231 -3.03089 0
M  V30 6855 H 646.21 -1.6601 -3.57539 0
M  V30 6856 H 647.498 -1.70968 -4.79215 0
M  V30 6857 H 646.896 1.39578 -5.4821 0
M  V30 6858 H 645.453 1.23296 -6.40032 0
M  V30 6859 N 648.886 1.2938 -0.899927 0
M  V30 6860 C 649.833 2.27713 -0.376243 0
M  V30 6861 C 650.803 1.57016 0.541774 0
M  V30 6862 O 651.988 1.84997 0.466966 0
M  V30 6863 C 649.128 3.42889 0.39 0
M  V30 6864 C 648.241 4.28369 -0.558938 0
M  V30 6865 C 647.376 5.30726 0.224379 0
M  V30 6866 C 646.415 6.07862 -0.719068 0
M  V30 6867 N 645.552 7.02094 0.0298569 0
M  V30 6868 H 650.392 2.71888 -1.21988 0
M  V30 6869 H 647.929 1.33724 -0.612879 0
M  V30 6870 H 649.887 4.08443 0.850314 0
M  V30 6871 H 648.517 2.99743 1.19809 0
M  V30 6872 H 647.569 3.62986 -1.13777 0
M  V30 6873 H 648.881 4.82068 -1.2811 0
M  V30 6874 H 648.035 6.02098 0.745881 0
M  V30 6875 H 646.774 4.77759 0.979674 0
M  V30 6876 H 645.779 5.35353 -1.25207 0
M  V30 6877 H 647.004 6.62917 -1.4737 0
M  V30 6878 H 644.95 6.51496 0.767415 0
M  V30 6879 H 644.867 7.5335 -0.632391 0
M  V30 6880 H 646.135 7.77685 0.531615 0
M  V30 6881 N 650.364 0.662433 1.43002 0
M  V30 6882 C 651.311 -0.0235324 2.30788 0
M  V30 6883 C 652.281 -0.805342 1.4527 0
M  V30 6884 O 653.466 -0.78009 1.74124 0
M  V30 6885 C 650.606 -0.977545 3.30965 0
M  V30 6886 C 649.719 -0.190865 4.31578 0
M  V30 6887 C 648.854 -1.13951 5.18834 0
M  V30 6888 C 647.893 -0.343796 6.11134 0
M  V30 6889 N 647.03 -1.2445 6.90982 0
M  V30 6890 H 651.87 0.730921 2.88897 0
M  V30 6891 H 649.407 0.372197 1.42313 0
M  V30 6892 H 651.365 -1.54437 3.87563 0
M  V30 6893 H 649.995 -1.69877 2.74484 0
M  V30 6894 H 649.047 0.492388 3.772 0
M  V30 6895 H 650.359 0.427464 4.96965 0
M  V30 6896 H 649.513 -1.77666 5.80103 0
M  V30 6897 H 648.252 -1.79174 4.53595 0
M  V30 6898 H 647.257 0.30665 5.48944 0
M  V30 6899 H 648.482 0.304161 6.78419 0
M  V30 6900 H 646.428 -1.88336 6.28383 0
M  V30 6901 H 646.345 -0.680959 7.52927 0
M  V30 6902 H 647.613 -1.86952 7.56749 0
M  V30 6903 N 651.842 -1.52309 0.404946 0
M  V30 6904 C 653.088 -2.02065 -0.172455 0
M  V30 6905 C 653.421 -1.29022 -1.45145 0
M  V30 6906 O 652.696 -0.395284 -1.90441 0
M  V30 6907 C 652.979 -3.5759 -0.424433 0
M  V30 6908 C 652.832 -4.41287 0.870945 0
M  V30 6909 C 654.151 -4.23186 -1.20837 0
M  V30 6910 H 651.27 -0.734454 -0.0612035 0
M  V30 6911 H 653.912 -1.82236 0.53759 0
M  V30 6912 H 652.062 -3.74617 -1.02929 0
M  V30 6913 H 653.734 -4.3598 1.50729 0
M  V30 6914 H 651.977 -4.07669 1.48284 0
M  V30 6915 H 652.648 -5.48171 0.649083 0
M  V30 6916 H 655.124 -4.10232 -0.696338 0
M  V30 6917 H 654 -5.31953 -1.35343 0
M  V30 6918 H 654.261 -3.81862 -2.22786 0
M  V30 6919 N 653.32 -0.135238 -1.57019 0
M  V30 6920 C 654.569 0.518694 -1.94917 0
M  V30 6921 C 654.882 1.66783 -1.0219 0
M  V30 6922 O 656.088 2.38561 -1.29619 0
M  V30 6923 C 654.544 0.974123 -3.46466 0
M  V30 6924 C 654.152 -0.147439 -4.47757 0
M  V30 6925 C 655.896 1.59851 -3.93253 0
M  V30 6926 C 653.803 0.325599 -5.90503 0
M  V30 6927 H 652.733 0.19754 -0.727663 0
M  V30 6928 H 655.384 -0.217698 -1.82204 0
M  V30 6929 H 653.766 1.76542 -3.5447 0
M  V30 6930 H 654.94 -0.924122 -4.51438 0
M  V30 6931 H 653.255 -0.679496 -4.10818 0
M  V30 6932 H 655.852 1.96385 -4.9733 0
M  V30 6933 H 656.195 2.48306 -3.3414 0
M  V30 6934 H 656.728 0.872323 -3.88118 0
M  V30 6935 H 653.467 -0.523295 -6.53408 0
M  V30 6936 H 652.987 1.06841 -5.90208 0
M  V30 6937 H 654.666 0.781498 -6.42263 0
M  V30 6938 N 654.798 1.5699 0.138552 0
M  V30 6939 C 656.045 1.83809 0.849732 0
M  V30 6940 C 656.373 0.717409 1.80786 0
M  V30 6941 O 655.628 -0.292897 1.93496 0
M  V30 6942 C 655.927 3.17007 1.65049 0
M  V30 6943 C 655.593 4.43037 0.838398 0
M  V30 6944 C 654.255 4.77262 0.614385 0
M  V30 6945 C 656.607 5.20495 0.271044 0
M  V30 6946 C 653.935 5.864 -0.187552 0
M  V30 6947 C 656.287 6.30476 -0.517979 0
M  V30 6948 C 654.951 6.63245 -0.75249 0
M  V30 6949 H 654.221 0.672605 0.310939 0
M  V30 6950 H 656.868 1.91166 0.112971 0
M  V30 6951 H 655.173 3.05138 2.4576 0
M  V30 6952 H 656.87 3.34975 2.20437 0
M  V30 6953 H 653.46 4.16211 1.02307 0
M  V30 6954 H 657.644 4.94422 0.431371 0
M  V30 6955 H 652.9 6.10226 -0.378659 0
M  V30 6956 H 657.074 6.89686 -0.964694 0
M  V30 6957 H 654.701 7.47648 -1.37573 0
M  V30 6958 N 656.276 -0.40816 1.52223 0
M  V30 6959 C 657.516 -1.16418 1.68006 0
M  V30 6960 C 657.88 -1.87749 0.401793 0
M  V30 6961 O 659.081 -2.65245 0.435743 0
M  V30 6962 C 657.352 -2.13143 2.86889 0
M  V30 6963 S 658.911 -2.96839 3.2316 0
M  V30 6964 H 655.729 -0.394373 0.5916 0
M  V30 6965 H 658.331 -0.451349 1.90219 0
M  V30 6966 H 657.035 -1.59428 3.78168 0
M  V30 6967 H 656.566 -2.88963 2.66953 0
M  V30 6968 H 658.581 -4.151 2.71857 0
M  V30 6969 N 657.755 -1.42862 -0.66545 0
M  V30 6970 C 658.98 -1.47456 -1.45848 0
M  V30 6971 C 659.405 -0.0900312 -1.87884 0
M  V30 6972 O 658.763 0.913587 -1.56599 0
M  V30 6973 C 658.811 -2.41514 -2.67774 0
M  V30 6974 O 657.915 -1.89296 -3.66389 0
M  V30 6975 H 657.256 -0.499236 -0.437789 0
M  V30 6976 H 659.786 -1.8765 -0.815394 0
M  V30 6977 H 659.796 -2.58409 -3.15735 0
M  V30 6978 H 658.471 -3.42099 -2.36519 0
M  V30 6979 H 657.048 -1.82003 -3.25468 0
M  V30 6980 N 659.233 0.902656 -1.29189 0
M  V30 6981 C 660.649 1.18296 -1.07137 0
M  V30 6982 C 660.849 2.00701 0.179223 0
M  V30 6983 O 659.905 2.3675 0.877812 0
M  V30 6984 C 661.218 1.90677 -2.32514 0
M  V30 6985 C 662.766 2.03515 -2.37804 0
M  V30 6986 C 663.241 2.79307 -3.62976 0
M  V30 6987 N 664.732 2.86862 -3.63681 0
M  V30 6988 C 665.467 3.46035 -4.57217 0
M  V30 6989 N 664.963 4.06399 -5.61081 0
M  V30 6990 N 666.756 3.43681 -4.44792 0
M  V30 6991 H 658.907 0.352765 -2.0945 0
M  V30 6992 H 661.17 0.21876 -0.922414 0
M  V30 6993 H 660.876 1.3756 -3.23682 0
M  V30 6994 H 660.75 2.91169 -2.39793 0
M  V30 6995 H 663.137 2.55809 -1.47125 0
M  V30 6996 H 663.218 1.02166 -2.34512 0
M  V30 6997 H 662.862 2.2769 -4.54004 0
M  V30 6998 H 662.792 3.80995 -3.63525 0
M  V30 6999 H 665.283 2.43987 -2.88581 0
M  V30 7000 H 665.596 4.49564 -6.2858 0
M  V30 7001 H 663.941 4.0487 -5.64894 0
M  V30 7002 H 667.132 2.9574 -3.62843 0
M  V30 7003 H 667.305 3.89503 -5.17872 0
M  V30 7004 N 660.711 1.11618 1.11262 0
M  V30 7005 C 661.621 0.78898 2.20935 0
M  V30 7006 C 662.637 -0.21867 1.7262 0
M  V30 7007 O 663.813 -0.0543826 2.01327 0
M  V30 7008 C 660.878 0.239014 3.45875 0
M  V30 7009 C 659.939 1.3055 4.08968 0
M  V30 7010 C 659.172 0.781687 5.27944 0
M  V30 7011 O 659.395 -0.387605 5.69082 0
M  V30 7012 O 658.329 1.54734 5.81671 0
M  V30 7013 H 662.155 1.70477 2.51339 0
M  V30 7014 H 659.74 0.892203 1.19834 0
M  V30 7015 H 661.622 -0.0632312 4.21353 0
M  V30 7016 H 660.297 -0.649454 3.17118 0
M  V30 7017 H 659.204 1.66079 3.35214 0
M  V30 7018 H 660.537 2.16743 4.41909 0
M  V30 7019 N 662.189 -1.289 0.906776 0
M  V30 7020 C 663.136 -2.2751 0.388313 0
M  V30 7021 C 664.106 -1.57301 -0.533439 0
M  V30 7022 O 665.291 -1.85243 -0.457148 0
M  V30 7023 C 662.431 -3.43091 -0.37181 0
M  V30 7024 C 661.544 -4.28066 0.581647 0
M  V30 7025 C 660.679 -5.30837 -0.19623 0
M  V30 7026 C 659.718 -6.07472 0.751294 0
M  V30 7027 N 658.855 -7.021 0.00737727 0
M  V30 7028 H 663.695 -2.71237 1.23428 0
M  V30 7029 H 661.232 -1.33397 0.619962 0
M  V30 7030 H 663.19 -4.08888 -0.828641 0
M  V30 7031 H 661.82 -3.00374 -1.18218 0
M  V30 7032 H 660.872 -3.62378 1.157 0
M  V30 7033 H 662.184 -4.81382 1.30665 0
M  V30 7034 H 661.338 -6.02485 -0.71394 0
M  V30 7035 H 660.077 -4.78272 -0.954324 0
M  V30 7036 H 659.082 -5.34682 1.28044 0
M  V30 7037 H 660.307 -6.62126 1.50883 0
M  V30 7038 H 658.253 -6.51894 -0.732854 0
M  V30 7039 H 658.17 -7.53004 0.672334 0
M  V30 7040 H 659.438 -7.77956 -0.490365 0
M  V30 7041 N 663.667 -0.670007 -1.42649 0
M  V30 7042 C 664.913 -0.190568 -2.01903 0
M  V30 7043 C 665.246 1.19817 -1.52832 0
M  V30 7044 O 664.521 1.80342 -0.728485 0
M  V30 7045 C 664.804 -0.21991 -3.59428 0
M  V30 7046 C 664.657 -1.64376 -4.18689 0
M  V30 7047 C 665.976 0.434519 -4.3795 0
M  V30 7048 H 663.095 -0.0707219 -0.733599 0
M  V30 7049 H 665.737 -0.853883 -1.69732 0
M  V30 7050 H 663.887 0.344894 -3.86966 0
M  V30 7051 H 665.559 -2.26044 -4.02122 0
M  V30 7052 H 663.802 -2.18591 -3.747 0
M  V30 7053 H 664.473 -1.61601 -5.27815 0
M  V30 7054 H 666.949 -0.0462156 -4.16074 0
M  V30 7055 H 665.825 0.38333 -5.4756 0
M  V30 7056 H 666.086 1.51135 -4.15464 0
M  V30 7057 N 665.145 1.52092 -0.413018 0
M  V30 7058 C 666.37 2.06756 0.163338 0
M  V30 7059 C 666.795 1.28073 1.37764 0
M  V30 7060 O 666.153 0.312015 1.78595 0
M  V30 7061 C 666.201 3.57278 0.488322 0
M  V30 7062 O 665.305 3.80986 1.57871 0
M  V30 7063 H 664.646 0.663882 0.0125068 0
M  V30 7064 H 667.176 1.95988 -0.587339 0
M  V30 7065 H 667.186 4.01125 0.745836 0
M  V30 7066 H 665.861 4.13978 -0.399327 0
M  V30 7067 H 664.438 3.49017 1.31306 0
M  V30 7068 N 666.623 0.143563 1.56945 0
M  V30 7069 C 667.573 -0.809115 2.1316 0
M  V30 7070 C 668.557 -1.21176 1.05855 0
M  V30 7071 O 669.749 -1.17875 1.3204 0
M  V30 7072 C 666.878 -2.04957 2.75405 0
M  V30 7073 C 665.964 -1.67018 3.89828 0
M  V30 7074 N 666.355 -0.998822 4.9584 0
M  V30 7075 C 664.653 -1.96313 4.00471 0
M  V30 7076 C 665.354 -0.816217 5.75945 0
M  V30 7077 N 664.33 -1.349 5.26596 0
M  V30 7078 H 668.132 -0.286919 2.92496 0
M  V30 7079 H 665.646 -0.0580948 1.62296 0
M  V30 7080 H 667.643 -2.74201 3.14037 0
M  V30 7081 H 666.303 -2.57697 1.97541 0
M  V30 7082 H 667.314 -0.659975 5.13678 0
M  V30 7083 H 663.991 -2.50927 3.33679 0
M  V30 7084 H 665.381 -0.287353 6.71285 0
M  V30 7085 N 668.101 -1.57061 -0.130224 0
M  V30 7086 C 669.031 -2.02552 -1.16168 0
M  V30 7087 C 670.012 -0.907971 -1.4384 0
M  V30 7088 O 671.197 -1.17693 -1.54473 0
M  V30 7089 C 668.327 -2.42035 -2.49071 0
M  V30 7090 C 667.281 -3.5713 -2.35886 0
M  V30 7091 C 666.607 -3.82478 -3.7365 0
M  V30 7092 C 667.907 -4.89236 -1.8288 0
M  V30 7093 H 669.601 -2.8897 -0.783359 0
M  V30 7094 H 667.147 -1.39021 -0.375376 0
M  V30 7095 H 669.1 -2.72462 -3.21469 0
M  V30 7096 H 667.824 -1.52573 -2.88771 0
M  V30 7097 H 666.483 -3.26895 -1.65938 0
M  V30 7098 H 666.131 -2.9024 -4.10816 0
M  V30 7099 H 665.831 -4.59944 -3.65685 0
M  V30 7100 H 667.355 -4.15347 -4.47571 0
M  V30 7101 H 668.769 -5.18272 -2.45085 0
M  V30 7102 H 667.166 -5.70624 -1.85763 0
M  V30 7103 H 668.236 -4.78494 -0.785571 0
M  V30 7104 N 669.579 0.400081 -1.52437 0
M  V30 7105 C 670.511 1.50729 -1.72666 0
M  V30 7106 C 671.524 1.51058 -0.607075 0
M  V30 7107 O 672.713 1.5516 -0.88248 0
M  V30 7108 C 669.813 2.89604 -1.76019 0
M  V30 7109 C 668.986 3.13365 -3.05157 0
M  V30 7110 C 668.045 4.32163 -3.00203 0
M  V30 7111 O 667.071 4.29004 -3.74092 0
M  V30 7112 N 668.273 5.3776 -2.18619 0
M  V30 7113 H 671.038 1.33767 -2.68191 0
M  V30 7114 H 668.599 0.58948 -1.50787 0
M  V30 7115 H 670.591 3.67159 -1.70225 0
M  V30 7116 H 669.161 2.99979 -0.879284 0
M  V30 7117 H 668.381 2.23774 -3.24529 0
M  V30 7118 H 669.669 3.26089 -3.90568 0
M  V30 7119 H 669.067 5.43177 -1.58035 0
M  V30 7120 H 667.624 6.14023 -2.18674 0
M  V30 7121 N 671.057 1.43213 0.657864 0
M  V30 7122 C 672.004 1.48011 1.77092 0
M  V30 7123 C 672.974 0.330291 1.62783 0
M  V30 7124 O 674.159 0.536787 1.83094 0
M  V30 7125 C 671.299 1.40461 3.15222 0
M  V30 7126 C 670.412 2.65612 3.40697 0
M  V30 7127 C 669.547 2.50083 4.68649 0
M  V30 7128 C 668.586 3.70525 4.87214 0
M  V30 7129 N 667.723 3.53835 6.0642 0
M  V30 7130 H 672.563 2.43121 1.72326 0
M  V30 7131 H 670.1 1.20687 0.841013 0
M  V30 7132 H 672.058 1.34079 3.95068 0
M  V30 7133 H 670.688 0.489359 3.19069 0
M  V30 7134 H 669.74 2.82292 2.54982 0
M  V30 7135 H 671.052 3.5509 3.50303 0
M  V30 7136 H 670.206 2.41383 5.56614 0
M  V30 7137 H 668.945 1.58121 4.61356 0
M  V30 7138 H 667.95 3.79639 3.97686 0
M  V30 7139 H 669.175 4.63489 4.96341 0
M  V30 7140 H 667.121 2.64604 6.00267 0
M  V30 7141 H 667.038 4.36912 6.16963 0
M  V30 7142 H 668.306 3.48978 6.97019 0
M  V30 7143 N 672.536 -0.895792 1.29666 0
M  V30 7144 C 673.784 -1.64339 1.17631 0
M  V30 7145 C 674.105 -1.93099 -0.271643 0
M  V30 7146 O 673.375 -1.55981 -1.18518 0
M  V30 7147 H 671.955 -0.609162 0.432354 0
M  V30 7148 H 674.617 -1.07389 1.62646 0
M  V30 7149 H 673.713 -2.59815 1.72924 0
M  V30 7150 N 674.014 -1.12206 -1.10668 0
M  V30 7151 C 674.961 -0.787716 -2.16942 0
M  V30 7152 C 675.931 0.244442 -1.64291 0
M  V30 7153 O 677.116 0.119558 -1.90425 0
M  V30 7154 C 674.256 -0.24584 -3.44223 0
M  V30 7155 C 673.369 -1.33552 -4.10838 0
M  V30 7156 C 672.504 -0.753337 -5.25831 0
M  V30 7157 C 671.543 -1.82231 -5.84344 0
M  V30 7158 N 670.68 -1.25902 -6.90719 0
M  V30 7159 H 675.52 -1.69809 -2.44885 0
M  V30 7160 H 673.057 -0.847862 -1.20207 0
M  V30 7161 H 675.015 0.0863639 -4.17111 0
M  V30 7162 H 673.645 0.627702 -3.16638 0
M  V30 7163 H 672.697 -1.78454 -3.35944 0
M  V30 7164 H 674.009 -2.14396 -4.50373 0
M  V30 7165 H 673.163 -0.37166 -6.05561 0
M  V30 7166 H 671.902 0.0863297 -4.87624 0
M  V30 7167 H 670.907 -2.2132 -5.03287 0
M  V30 7168 H 672.132 -2.66515 -6.24617 0
M  V30 7169 H 670.078 -0.44114 -6.54515 0
M  V30 7170 H 669.995 -2.00408 -7.28953 0
M  V30 7171 H 671.263 -0.904498 -7.74235 0
M  V30 7172 N 675.492 1.28418 -0.913599 0
M  V30 7173 C 676.455 2.25564 -0.406624 0
M  V30 7174 C 677.455 1.5387 0.466965 0
M  V30 7175 O 678.645 1.72094 0.270042 0
M  V30 7176 C 675.777 3.38339 0.417053 0
M  V30 7177 H 676.97 2.71926 -1.26477 0
M  V30 7178 H 674.523 1.40098 -0.692986 0
M  V30 7179 H 675.258 2.97339 1.29461 0
M  V30 7180 H 675.043 3.91542 -0.209102 0
M  V30 7181 H 676.533 4.10578 0.762602 0
M  V30 7182 N 676.97 0.677563 1.42291 0
M  V30 7183 C 678.381 0.277912 1.8462 0
M  V30 7184 C 678.732 -1.18048 1.56714 0
M  V30 7185 O 677.857 -1.90404 1.02836 0
M  V30 7186 C 678.452 0.497619 3.35126 0
M  V30 7187 C 677.011 0.152063 3.76093 0
M  V30 7188 C 676.158 0.78872 2.65847 0
M  V30 7189 H 679.109 0.879527 1.32098 0
M  V30 7190 H 679.13 -0.24939 3.79682 0
M  V30 7191 H 678.642 1.55913 3.55405 0
M  V30 7192 H 676.743 -0.905896 3.6142 0
M  V30 7193 H 676.856 0.594514 4.75397 0
M  V30 7194 H 675.22 0.219813 2.5375 0
M  V30 7195 H 676.003 1.85374 2.88949 0
M  V30 7196 N 678.448 -1.51871 0.421078 0
M  V30 7197 C 679.411 -2.25914 -0.386712 0
M  V30 7198 C 680.411 -1.28733 -0.963555 0
M  V30 7199 O 681.601 -1.52579 -0.840556 0
M  V30 7200 C 678.733 -3.03853 -1.54551 0
M  V30 7201 H 679.926 -2.98754 0.261978 0
M  V30 7202 H 677.479 -1.5533 0.173862 0
M  V30 7203 H 678.214 -2.35392 -2.23072 0
M  V30 7204 H 677.999 -3.75215 -1.13824 0
M  V30 7205 H 679.489 -3.59984 -2.11663 0
M  V30 7206 N 679.926 -0.151884 -1.56866 0
M  V30 7207 C 681.172 0.498742 -1.96572 0
M  V30 7208 C 681.505 1.64194 -1.03702 0
M  V30 7209 O 680.78 1.94334 -0.0803432 0
M  V30 7210 C 681.063 1.00027 -3.45929 0
M  V30 7211 C 680.916 -0.141767 -4.49577 0
M  V30 7212 C 682.235 1.88044 -3.97904 0
M  V30 7213 H 679.354 0.17982 -0.714726 0
M  V30 7214 H 681.996 -0.234097 -1.88552 0
M  V30 7215 H 680.146 1.62476 -3.52894 0
M  V30 7216 H 681.818 -0.778269 -4.54687 0
M  V30 7217 H 680.061 -0.80019 -4.26356 0
M  V30 7218 H 680.732 0.250947 -5.51429 0
M  V30 7219 H 683.208 1.35416 -3.93449 0
M  V30 7220 H 682.084 2.20043 -5.02864 0
M  V30 7221 H 682.345 2.81916 -3.40552 0
M  V30 7222 N 681.404 1.57128 0.121893 0
M  V30 7223 C 682.651 1.847 0.830188 0
M  V30 7224 C 682.979 0.736543 1.80015 0
M  V30 7225 O 682.234 -0.272358 1.93796 0
M  V30 7226 C 682.533 3.1874 1.61677 0
M  V30 7227 C 682.199 4.43901 0.791361 0
M  V30 7228 C 680.861 4.77887 0.563731 0
M  V30 7229 C 683.213 5.20753 0.215823 0
M  V30 7230 C 680.541 5.86168 -0.249737 0
M  V30 7231 C 682.893 6.29891 -0.584821 0
M  V30 7232 C 681.557 6.6241 -0.822794 0
M  V30 7233 H 680.827 0.675866 0.303787 0
M  V30 7234 H 683.474 1.91276 0.0926894 0
M  V30 7235 H 681.779 3.07728 2.42509 0
M  V30 7236 H 683.476 3.37295 2.16872 0
M  V30 7237 H 680.066 4.17272 0.978867 0
M  V30 7238 H 684.25 4.94851 0.378907 0
M  V30 7239 H 679.506 6.0979 -0.44336 0
M  V30 7240 H 683.68 6.88624 -1.03779 0
M  V30 7241 H 681.307 7.46147 -1.45496 0
M  V30 7242 N 682.882 -0.391992 1.52647 0
M  V30 7243 C 684.128 -1.139 1.67793 0
M  V30 7244 C 684.461 -1.89711 0.41514 0
M  V30 7245 O 683.736 -1.85431 -0.586979 0
M  V30 7246 C 684.019 -2.11966 2.91105 0
M  V30 7247 C 683.872 -1.39939 4.27478 0
M  V30 7248 C 685.191 -3.1243 3.09961 0
M  V30 7249 H 682.31 -0.412707 0.610608 0
M  V30 7250 H 684.952 -0.422725 1.85238 0
M  V30 7251 H 683.102 -2.73048 2.76364 0
M  V30 7252 H 684.774 -0.818439 4.53982 0
M  V30 7253 H 683.017 -0.701246 4.28095 0
M  V30 7254 H 683.688 -2.1158 5.09841 0
M  V30 7255 H 686.164 -2.61435 3.23714 0
M  V30 7256 H 685.04 -3.78294 3.97725 0
M  V30 7257 H 685.301 -3.81127 2.24042 0
M  V30 7258 N 684.36 -1.4356 -0.65026 0
M  V30 7259 C 685.307 -1.48948 -1.76304 0
M  V30 7260 C 686.277 -0.338919 -1.62605 0
M  V30 7261 O 687.462 -0.54649 -1.82806 0
M  V30 7262 C 684.602 -1.42131 -3.14472 0
M  V30 7263 C 683.715 -2.67415 -3.39284 0
M  V30 7264 C 682.85 -2.52565 -4.67316 0
M  V30 7265 C 681.889 -3.73103 -4.85243 0
M  V30 7266 N 681.026 -3.57046 -6.04535 0
M  V30 7267 H 685.866 -2.44032 -1.71034 0
M  V30 7268 H 683.403 -1.21131 -0.834601 0
M  V30 7269 H 685.361 -1.36172 -3.94351 0
M  V30 7270 H 683.991 -0.506273 -3.18805 0
M  V30 7271 H 683.043 -2.8364 -2.53481 0
M  V30 7272 H 684.355 -3.56943 -3.48415 0
M  V30 7273 H 683.509 -2.44331 -5.55326 0
M  V30 7274 H 682.248 -1.60566 -4.60511 0
M  V30 7275 H 681.253 -3.81743 -3.95667 0
M  V30 7276 H 682.478 -4.66115 -4.93876 0
M  V30 7277 H 680.424 -2.67783 -5.98856 0
M  V30 7278 H 680.341 -4.40178 -6.14638 0
M  V30 7279 H 681.609 -3.52669 -6.95158 0
M  V30 7280 N 685.838 0.888903 -1.30139 0
M  V30 7281 C 687.078 1.65456 -1.20015 0
M  V30 7282 C 687.442 1.90467 0.242148 0
M  V30 7283 O 688.643 2.6472 0.466561 0
M  V30 7284 C 686.914 2.96071 -2.00191 0
M  V30 7285 S 688.473 3.87055 -2.06721 0
M  V30 7286 H 685.291 0.567927 -0.427761 0
M  V30 7287 H 687.893 1.05539 -1.64565 0
M  V30 7288 H 686.597 2.7559 -3.04103 0
M  V30 7289 H 686.128 3.61023 -1.56288 0
M  V30 7290 H 688.143 4.81676 -1.19174 0
M  V30 7291 N 687.317 1.12792 1.10072 0
M  V30 7292 C 688.267 0.768086 2.14673 0
M  V30 7293 C 689.251 -0.234716 1.59179 0
M  V30 7294 O 690.443 -0.039643 1.76956 0
M  V30 7295 C 687.572 0.228472 3.42539 0
M  V30 7296 C 686.658 1.25979 4.04957 0
M  V30 7297 N 687.049 2.4586 4.42025 0
M  V30 7298 C 685.347 1.10602 4.32069 0
M  V30 7299 C 686.048 3.11747 4.9111 0
M  V30 7300 N 685.024 2.39185 4.88151 0
M  V30 7301 H 688.826 1.68029 2.4113 0
M  V30 7302 H 686.34 1.00925 1.27232 0
M  V30 7303 H 688.337 -0.0475216 4.16873 0
M  V30 7304 H 686.997 -0.678136 3.1754 0
M  V30 7305 H 688.008 2.83215 4.33601 0
M  V30 7306 H 684.685 0.257021 4.16708 0
M  V30 7307 H 686.075 4.13862 5.29309 0
M  V30 7308 N 688.795 -1.27931 0.920396 0
M  V30 7309 C 690.072 -1.89728 0.475687 0
M  V30 7310 C 690.452 -1.8337 -1.04588 0
M  V30 7311 O 689.8 -1.27404 -1.89685 0
M  V30 7312 C 690.01 -3.33959 1.01354 0
M  V30 7313 C 691.358 -4.10907 1.06963 0
M  V30 7314 O 692.382 -3.42945 0.962646 0
M  V30 7315 O 691.241 -5.32399 1.23343 0
M  V30 7316 H 688.335 -0.81294 0.151845 0
M  V30 7317 H 690.881 -1.36252 1.01161 0
M  V30 7318 H 689.653 -3.32843 2.05746 0
M  V30 7319 H 689.276 -3.94944 0.458829 0
M  V30 7320 N 690.273 -0.685099 -1.4193 0
M  V30 7321 C 691.22 -0.0131869 -2.30796 0
M  V30 7322 C 692.19 0.782129 -1.46533 0
M  V30 7323 O 693.375 0.75229 -1.75343 0
M  V30 7324 C 690.515 0.924768 -3.32479 0
M  V30 7325 C 689.628 0.122181 -4.31827 0
M  V30 7326 C 688.763 1.05682 -5.20581 0
M  V30 7327 C 687.802 0.246526 -6.11603 0
M  V30 7328 N 686.939 1.13442 -6.92875 0
M  V30 7329 H 691.779 -0.776789 -2.87698 0
M  V30 7330 H 689.316 -0.394791 -1.41703 0
M  V30 7331 H 691.274 1.48251 -3.89971 0
M  V30 7332 H 689.904 1.65488 -2.77152 0
M  V30 7333 H 688.956 -0.552335 -3.76369 0
M  V30 7334 H 690.268 -0.506473 -4.96222 0
M  V30 7335 H 689.422 1.68415 -5.82856 0
M  V30 7336 H 688.161 1.71935 -4.56388 0
M  V30 7337 H 687.166 -0.393944 -5.48387 0
M  V30 7338 H 688.391 -0.412053 -6.77849 0
M  V30 7339 H 686.337 1.78316 -6.313 0
M  V30 7340 H 686.254 0.561089 -7.53915 0
M  V30 7341 H 687.522 1.74889 -7.59628 0
M  V30 7342 N 691.751 1.51645 -0.429126 0
M  V30 7343 C 692.976 2.06917 0.141399 0
M  V30 7344 C 693.401 1.29527 1.36398 0
M  V30 7345 O 692.759 0.33094 1.78254 0
M  V30 7346 C 692.807 3.57776 0.4504 0
M  V30 7347 O 691.911 3.82639 1.53821 0
M  V30 7348 H 691.252 0.663978 0.0054647 0
M  V30 7349 H 693.782 1.95355 -0.608093 0
M  V30 7350 H 693.792 4.01894 0.703249 0
M  V30 7351 H 692.467 4.13532 -0.443213 0
M  V30 7352 H 691.044 3.5039 1.27597 0
M  V30 7353 N 693.229 0.160201 1.56784 0
M  V30 7354 C 694.159 -0.770264 2.2043 0
M  V30 7355 C 695.14 -1.24736 1.15651 0
M  V30 7356 O 696.325 -1.30253 1.44041 0
M  V30 7357 C 693.455 -2.00427 2.83631 0
M  V30 7358 C 692.409 -1.66345 3.94352 0
M  V30 7359 C 691.735 -2.97119 4.4455 0
M  V30 7360 C 693.035 -0.899972 5.14488 0
M  V30 7361 H 694.729 -0.239783 2.98438 0
M  V30 7362 H 692.275 -0.113891 1.43549 0
M  V30 7363 H 694.228 -2.66012 3.26827 0
M  V30 7364 H 692.952 -2.5587 2.02973 0
M  V30 7365 H 691.611 -1.03133 3.51794 0
M  V30 7366 H 691.259 -3.5058 3.60698 0
M  V30 7367 H 690.959 -2.75073 5.19238 0
M  V30 7368 H 692.483 -3.63753 4.90425 0
M  V30 7369 H 693.897 -1.45818 5.54446 0
M  V30 7370 H 692.294 -0.778968 5.95023 0
M  V30 7371 H 693.364 0.105827 4.84785 0
M  V30 7372 N 694.707 -1.5719 -0.113559 0
M  V30 7373 C 695.655 -2.01725 -1.158 0
M  V30 7374 C 696.649 -0.915105 -1.42556 0
M  V30 7375 O 697.855 -1.10031 -1.42454 0
M  V30 7376 H 694.23 -0.64262 -0.390569 0
M  V30 7377 H 696.201 -2.88666 -0.755926 0
M  V30 7378 C 694.95 -2.44203 -2.47507 0
M  V30 7379 H 694.273 -3.28582 -2.27758 0
M  V30 7380 H 695.713 -2.79158 -3.19135 0
M  V30 7381 C 694.172 -1.30785 -3.10478 0
M  V30 7382 O 694.702 -0.626807 -3.9678 0
M  V30 7383 N 692.908 -1.06352 -2.7044 0
M  V30 7384 H 692.455 -1.61913 -2.00355 0
M  V30 7385 H 692.413 -0.306614 -3.12901 0
M  V30 7386 N 696.185 0.383891 -1.52853 0
M  V30 7387 C 697.132 1.46924 -1.77995 0
M  V30 7388 C 698.102 1.53958 -0.623396 0
M  V30 7389 O 699.287 1.70134 -0.863657 0
M  V30 7390 C 696.427 2.84093 -1.95921 0
M  V30 7391 C 695.54 2.86171 -3.23621 0
M  V30 7392 C 694.675 4.14799 -3.31836 0
M  V30 7393 C 693.714 4.10948 -4.53639 0
M  V30 7394 N 692.851 5.31192 -4.59107 0
M  V30 7395 H 697.691 1.24786 -2.70615 0
M  V30 7396 H 695.228 0.605265 -1.34071 0
M  V30 7397 H 697.186 3.63755 -2.04299 0
M  V30 7398 H 695.816 3.04671 -1.06656 0
M  V30 7399 H 694.868 1.9885 -3.24288 0
M  V30 7400 H 696.18 2.79194 -4.13343 0
M  V30 7401 H 695.334 5.02867 -3.39425 0
M  V30 7402 H 694.073 4.24505 -2.40097 0
M  V30 7403 H 693.078 3.21268 -4.46169 0
M  V30 7404 H 694.303 4.0286 -5.467 0
M  V30 7405 H 692.249 5.41518 -3.70262 0
M  V30 7406 H 692.166 5.26311 -5.42708 0
M  V30 7407 H 693.434 6.21143 -4.70958 0
M  V30 7408 N 697.663 1.43903 0.642637 0
M  V30 7409 C 698.61 1.49881 1.75512 0
M  V30 7410 C 699.58 0.347538 1.62423 0
M  V30 7411 O 700.765 0.556177 1.82514 0
M  V30 7412 C 697.905 1.43797 3.13714 0
M  V30 7413 C 697.018 2.6921 3.37861 0
M  V30 7414 C 696.153 2.5504 4.6597 0
M  V30 7415 C 695.192 3.75671 4.83257 0
M  V30 7416 N 694.329 3.60247 6.02633 0
M  V30 7417 H 699.169 2.44935 1.69737 0
M  V30 7418 H 696.706 1.21572 0.828165 0
M  V30 7419 H 698.664 1.38262 3.93624 0
M  V30 7420 H 697.294 0.523173 3.18532 0
M  V30 7421 H 696.346 2.8498 2.51973 0
M  V30 7422 H 697.658 3.58786 3.46517 0
M  V30 7423 H 696.812 2.47273 5.54023 0
M  V30 7424 H 695.551 1.63006 4.59653 0
M  V30 7425 H 694.556 3.83836 3.93637 0
M  V30 7426 H 695.781 4.68728 4.91397 0
M  V30 7427 H 693.727 2.70955 5.97427 0
M  V30 7428 H 693.644 4.43431 6.12295 0
M  V30 7429 H 694.912 3.56351 6.93278 0
M  V30 7430 N 699.141 -0.881989 1.30609 0
M  V30 7431 C 700.366 -1.67236 1.22665 0
M  V30 7432 C 700.791 -1.8696 -0.206777 0
M  V30 7433 O 700.149 -1.4027 -1.14865 0
M  V30 7434 C 700.197 -3.02446 1.96363 0
M  V30 7435 O 699.301 -3.91614 1.29276 0
M  V30 7436 H 698.642 -0.510902 0.424117 0
M  V30 7437 H 701.172 -1.10055 1.72479 0
M  V30 7438 H 701.182 -3.52468 2.055 0
M  V30 7439 H 699.857 -2.8741 3.00613 0
M  V30 7440 H 698.434 -3.50055 1.28514 0
M  V30 7441 N 700.619 -1.13374 -1.09472 0
M  V30 7442 C 701.867 -0.893422 -1.8128 0
M  V30 7443 C 702.188 0.582029 -1.86111 0
M  V30 7444 O 701.458 1.42305 -1.34633 0
M  V30 7445 H 700.038 -0.327543 -0.67136 0
M  V30 7446 H 702.7 -1.43018 -1.32408 0
M  V30 7447 H 701.796 -1.28374 -2.84476 0
M  V30 7448 O 702.136 1.21979 -1.05846 0
M  V30 7449 H 702.827 1.79103 -0.73768 0
M  V30 END ATOM
M  V30 BEGIN BOND
M  V30 END BOND
M  V30 END CTAB
M  END
$$$$
