drugbank_target|P07026 Regulatory protein SdiA (DB07928)
 OpenBabel12092120473D

  0  0  0     0  0            999 V3000
M  V30 BEGIN CTAB
M  V30 COUNTS 3930 3977 0 0 0
M  V30 BEGIN ATOM
M  V30 1 H -0.908 1.98254 -0.117106 0
M  V30 2 N 0 1.576 0 0
M  V30 3 C 0.933 2.03868 1.02534 0
M  V30 4 C 1.911 0.928543 1.3348 0
M  V30 5 O 3.095 1.19667 1.45644 0
M  V30 6 C 0.222 2.43627 2.35294 0
M  V30 7 C -0.732 3.65373 2.2001 0
M  V30 8 S 0.101 5.13292 1.52614 0
M  V30 9 C 1.257 5.56322 2.86805 0
M  V30 10 H 1.49 2.90518 0.631377 0
M  V30 11 H -0.977 1.52953 0.210867 0
M  V30 12 H 0.981 2.67203 3.11629 0
M  V30 13 H -0.358 1.57376 2.7183 0
M  V30 14 H -1.165 3.90944 3.18086 0
M  V30 15 H -1.563 3.418 1.51819 0
M  V30 16 H 0.729 5.58782 3.83104 0
M  V30 17 H 1.672 6.56266 2.65933 0
M  V30 18 H 2.08 4.83886 2.90714 0
M  V30 19 N 1.4781 -0.272755 1.55222 0
M  V30 20 C 2.4101 -1.35946 1.8453 0
M  V30 21 C 3.4231 -1.45525 0.729818 0
M  V30 22 O 4.6121 -1.47337 1.00767 0
M  V30 23 C 1.7121 -2.74069 1.99347 0
M  V30 24 C 0.8851 -2.87079 3.30007 0
M  V30 25 C -0.0559 -4.05879 3.34886 0
M  V30 26 O -1.0299 -3.96626 4.08261 0
M  V30 27 N 0.1721 -5.17857 2.62307 0
M  V30 28 H 2.9371 -1.11149 2.78327 0
M  V30 29 H 0.4981 -0.462869 1.55142 0
M  V30 30 H 2.4901 -3.51838 1.99981 0
M  V30 31 H 1.0601 -2.91688 1.12415 0
M  V30 32 H 0.2801 -1.96193 3.41909 0
M  V30 33 H 1.5681 -2.92701 4.16177 0
M  V30 34 H 0.9661 -5.28261 2.02377 0
M  V30 35 H -0.4769 -5.93855 2.68663 0
M  V30 36 N 2.9562 -1.48159 -0.537278 0
M  V30 37 C 4.2332 -1.46291 -1.29839 0
M  V30 38 C 4.6132 -0.170613 -2.10409 0
M  V30 39 O 3.9612 0.847746 -2.12192 0
M  V30 40 C 4.1712 -2.72055 -2.18603 0
M  V30 41 C 5.5192 -3.20087 -2.7898 0
M  V30 42 O 6.5432 -2.72921 -2.28894 0
M  V30 43 O 5.4022 -4.02138 -3.70064 0
M  V30 44 H 2.4962 -0.583906 -0.585647 0
M  V30 45 H 5.0422 -1.60384 -0.554534 0
M  V30 46 H 3.8142 -3.57628 -1.58801 0
M  V30 47 H 3.4372 -2.60646 -3.00249 0
M  V30 48 N 4.4343 0.785586 -1.36625 0
M  V30 49 C 5.3813 1.89838 -1.31264 0
M  V30 50 C 6.3513 1.65115 -0.180633 0
M  V30 51 O 7.5363 1.87222 -0.36777 0
M  V30 52 C 4.6763 3.26706 -1.11163 0
M  V30 53 C 3.7893 3.63476 -2.33472 0
M  V30 54 C 2.9243 4.89481 -2.06353 0
M  V30 55 C 1.9633 5.18941 -3.24602 0
M  V30 56 N 1.1003 6.36131 -2.97123 0
M  V30 57 H 5.9403 1.93756 -2.26413 0
M  V30 58 H 3.4773 0.947454 -1.12524 0
M  V30 59 H 5.4353 4.05639 -0.975337 0
M  V30 60 H 4.0653 3.222 -0.196674 0
M  V30 61 H 3.1173 2.79636 -2.57891 0
M  V30 62 H 4.4293 3.81193 -3.21704 0
M  V30 63 H 3.5833 5.76288 -1.89675 0
M  V30 64 H 2.3223 4.73841 -1.15437 0
M  V30 65 H 1.3273 4.30615 -3.41834 0
M  V30 66 H 2.5523 5.36498 -4.16349 0
M  V30 67 H 0.4983 6.21875 -2.08823 0
M  V30 68 H 0.4153 6.54198 -3.78894 0
M  V30 69 H 1.6833 7.2591 -2.84033 0
M  V30 70 N 5.9124 1.20967 1.01018 0
M  V30 71 C 7.1894 0.93264 1.71934 0
M  V30 72 C 7.5694 -0.55692 2.03621 0
M  V30 73 O 6.9174 -1.52035 1.7058 0
M  V30 74 C 7.1274 1.81233 2.98254 0
M  V30 75 C 8.4754 2.05804 3.71389 0
M  V30 76 O 9.4994 1.78539 3.08225 0
M  V30 77 O 8.3584 2.51888 4.84989 0
M  V30 78 H 5.4524 0.349272 0.749625 0
M  V30 79 H 7.9984 1.31871 1.06808 0
M  V30 80 H 6.7704 2.82067 2.71208 0
M  V30 81 H 6.3934 1.42674 3.7112 0
M  V30 82 N 7.3905 -1.2043 1.01659 0
M  V30 83 C 8.6375 -1.89797 0.705917 0
M  V30 84 C 8.9655 -1.78848 -0.764439 0
M  V30 85 O 8.2205 -1.16694 -1.57102 0
M  V30 86 C 8.5195 -3.40464 1.08714 0
M  V30 87 C 8.1855 -3.71614 2.5537 0
M  V30 88 C 6.8475 -3.79826 2.95441 0
M  V30 89 C 9.1995 -3.85915 3.50313 0
M  V30 90 C 6.5275 -3.99797 4.29394 0
M  V30 91 C 8.8795 -4.07396 4.83954 0
M  V30 92 C 7.5435 -4.13837 5.23732 0
M  V30 93 H 6.8135 -0.694518 0.258313 0
M  V30 94 H 9.4605 -1.42691 1.27717 0
M  V30 95 H 7.7655 -3.89385 0.434309 0
M  V30 96 H 9.4625 -3.92433 0.824461 0
M  V30 97 H 6.0525 -3.65822 2.23321 0
M  V30 98 H 10.2365 -3.78926 3.20513 0
M  V30 99 H 5.4925 -4.03018 4.59768 0
M  V30 100 H 9.6665 -4.17404 5.57447 0
M  V30 101 H 7.2935 -4.29064 6.27541 0
M  V30 102 N 8.8686 -0.792821 -1.36206 0
M  V30 103 C 10.1156 -0.366786 -1.99151 0
M  V30 104 C 10.4436 1.06243 -1.62919 0
M  V30 105 O 9.6986 1.74927 -0.877442 0
M  V30 106 C 9.9976 -0.481501 -3.54142 0
M  V30 107 C 9.6636 -1.87202 -4.10203 0
M  V30 108 C 8.3256 -2.25248 -4.25226 0
M  V30 109 C 10.6776 -2.78237 -4.40719 0
M  V30 110 C 8.0056 -3.53723 -4.68078 0
M  V30 111 C 10.3576 -4.06144 -4.85005 0
M  V30 112 C 9.0216 -4.44207 -4.98234 0
M  V30 113 H 8.2916 -0.134217 -0.728743 0
M  V30 114 H 10.9386 -1.01094 -1.62641 0
M  V30 115 H 9.2436 0.246146 -3.91026 0
M  V30 116 H 10.9406 -0.132844 -4.0078 0
M  V30 117 H 7.5306 -1.56639 -3.98951 0
M  V30 118 H 11.7146 -2.50097 -4.28679 0
M  V30 119 H 6.9706 -3.8308 -4.76508 0
M  V30 120 H 11.1446 -4.76796 -5.07581 0
M  V30 121 H 8.7716 -5.43814 -5.31197 0
M  V30 122 N 10.3467 1.47872 -0.545128 0
M  V30 123 C 11.5717 2.07391 -0.0190611 0
M  V30 124 C 11.9967 1.39688 1.25971 0
M  V30 125 O 11.3547 0.467816 1.7516 0
M  V30 126 C 11.4027 3.60188 0.172335 0
M  V30 127 O 10.5067 3.9339 1.23766 0
M  V30 128 H 9.8477 0.662411 -0.0459059 0
M  V30 129 H 12.3777 1.90066 -0.757365 0
M  V30 130 H 12.3877 4.06129 0.390305 0
M  V30 131 H 11.0627 4.08865 -0.761725 0
M  V30 132 H 9.6397 3.5921 1.00114 0
M  V30 133 N 11.8248 0.280983 1.55075 0
M  V30 134 C 13.0708 -0.327573 2.00745 0
M  V30 135 C 13.4258 -1.53045 1.16598 0
M  V30 136 O 12.7188 -1.90221 0.229451 0
M  V30 137 C 12.9128 -0.754656 3.49342 0
M  V30 138 C 12.7418 0.40529 4.4787 0
M  V30 139 C 11.5118 0.890947 4.97383 0
M  V30 140 C 13.7098 1.24371 4.99035 0
M  V30 141 N 11.6918 2.01975 5.79724 0
M  V30 142 C 13.0628 2.22031 5.7888 0
M  V30 143 C 15.1178 1.27638 4.81262 0
M  V30 144 C 13.8208 3.22709 6.42846 0
M  V30 145 C 15.8468 2.27164 5.46031 0
M  V30 146 C 15.2088 3.23556 6.25692 0
M  V30 147 H 11.3078 -0.0848774 0.77738 0
M  V30 148 H 13.8918 0.406342 1.90413 0
M  V30 149 H 12.0628 -1.45778 3.60005 0
M  V30 150 H 13.7948 -1.34105 3.81835 0
M  V30 151 H 10.5498 0.469262 4.71269 0
M  V30 152 H 10.9738 2.58794 6.25584 0
M  V30 153 H 15.6158 0.544936 4.19274 0
M  V30 154 H 13.3338 3.96784 7.0398 0
M  V30 155 H 16.9198 2.30441 5.34217 0
M  V30 156 H 15.7998 3.99309 6.74924 0
M  V30 157 N 13.3029 -1.57598 0.00835791 0
M  V30 158 C 14.7189 -1.55764 -0.347822 0
M  V30 159 C 14.9189 -1.01186 -1.74252 0
M  V30 160 O 13.9749 -0.649371 -2.44007 0
M  V30 161 C 15.2879 -2.99927 -0.215407 0
M  V30 162 C 16.8359 -3.11656 -0.289725 0
M  V30 163 C 17.3109 -4.57621 -0.18634 0
M  V30 164 N 18.8019 -4.62557 -0.243978 0
M  V30 165 C 19.5369 -5.73094 -0.18745 0
M  V30 166 N 19.0329 -6.92753 -0.0810331 0
M  V30 167 N 20.8259 -5.61588 -0.239925 0
M  V30 168 H 12.9769 -1.91411 0.92062 0
M  V30 169 H 15.2399 -0.879562 0.353659 0
M  V30 170 H 14.9459 -3.43729 0.744512 0
M  V30 171 H 14.8199 -3.63865 -0.994097 0
M  V30 172 H 17.2069 -2.67779 -1.24009 0
M  V30 173 H 17.2879 -2.5048 0.51898 0
M  V30 174 H 16.9319 -5.02174 0.760519 0
M  V30 175 H 16.8619 -5.16752 -1.01364 0
M  V30 176 H 19.3529 -3.76481 -0.327217 0
M  V30 177 H 19.6659 -7.72787 -0.0440241 0
M  V30 178 H 18.0109 -6.94984 -0.0465419 0
M  V30 179 H 21.2019 -4.66996 -0.321317 0
M  V30 180 H 21.3749 -6.47714 -0.192407 0
M  V30 181 N 14.781 0.264519 -1.55364 0
M  V30 182 C 16.197 0.61215 -1.47394 0
M  V30 183 C 16.397 1.89134 -0.695018 0
M  V30 184 O 15.453 2.51563 -0.217275 0
M  V30 185 C 16.766 0.731235 -2.91674 0
M  V30 186 C 18.314 0.82473 -3.01939 0
M  V30 187 C 18.789 0.975522 -4.4749 0
M  V30 188 N 20.28 1.04083 -4.51354 0
M  V30 189 C 21.015 1.17646 -5.61201 0
M  V30 190 N 20.511 1.27874 -6.80896 0
M  V30 191 N 22.304 1.20823 -5.48961 0
M  V30 192 H 14.455 -0.575456 -2.04456 0
M  V30 193 H 16.718 -0.196099 -0.927496 0
M  V30 194 H 16.424 -0.138392 -3.51428 0
M  V30 195 H 16.298 1.60883 -3.41169 0
M  V30 196 H 18.685 1.68482 -2.42276 0
M  V30 197 H 18.766 -0.0776479 -2.55682 0
M  V30 198 H 18.41 0.120058 -5.07758 0
M  V30 199 H 18.34 1.89268 -4.91412 0
M  V30 200 H 20.831 0.973846 -3.65136 0
M  V30 201 H 21.144 1.38081 -7.60364 0
M  V30 202 H 19.489 1.24863 -6.83692 0
M  V30 203 H 22.68 1.12469 -4.54388 0
M  V30 204 H 22.853 1.31049 -6.3461 0
M  V30 205 N 16.2591 1.48442 0.529413 0
M  V30 206 C 17.4871 1.60151 1.30994 0
M  V30 207 C 17.9021 0.261985 1.86973 0
M  V30 208 O 17.2591 -0.748805 1.66431 0
M  V30 209 C 17.3101 2.64854 2.46038 0
M  V30 210 O 17.0311 3.93608 1.92365 0
M  V30 211 C 18.5321 2.87007 3.37849 0
M  V30 212 H 15.7521 0.539971 0.398338 0
M  V30 213 H 18.2961 1.94273 0.638597 0
M  V30 214 H 16.4511 2.33589 3.09055 0
M  V30 215 H 16.8651 4.51055 2.67675 0
M  V30 216 H 18.3391 3.64068 4.14919 0
M  V30 217 H 18.8161 1.95852 3.93114 0
M  V30 218 H 19.4221 3.19579 2.80623 0
M  V30 219 N 17.7372 -0.778329 1.37039 0
M  V30 220 C 18.6702 -1.8984 1.26633 0
M  V30 221 C 19.6482 -1.61923 0.148197 0
M  V30 222 O 20.8322 -1.85742 0.321265 0
M  V30 223 C 17.9592 -3.24916 0.956403 0
M  V30 224 C 17.0052 -3.71752 2.09051 0
M  V30 225 S 17.8382 -3.86201 3.70957 0
M  V30 226 C 18.9942 -5.24135 3.42101 0
M  V30 227 H 19.2272 -1.98377 2.21436 0
M  V30 228 H 16.7602 -0.938738 1.22585 0
M  V30 229 H 18.7182 -4.02936 0.784409 0
M  V30 230 H 17.3792 -3.14089 0.0259713 0
M  V30 231 H 16.5722 -4.69661 1.8285 0
M  V30 232 H 16.1742 -3.00815 2.2223 0
M  V30 233 H 18.4662 -6.09086 2.96682 0
M  V30 234 H 19.4092 -5.55346 4.39314 0
M  V30 235 H 19.8172 -4.91761 2.77185 0
M  V30 236 N 19.2153 -1.21501 -1.00376 0
M  V30 237 C 20.1453 -0.999478 -2.11028 0
M  V30 238 C 21.1263 0.0759671 -1.6993 0
M  V30 239 O 22.3113 -0.0841106 -1.94018 0
M  V30 240 C 19.4413 -0.564709 -3.42678 0
M  V30 241 C 18.3953 -1.58486 -3.97576 0
M  V30 242 C 17.7213 -1.00628 -5.25146 0
M  V30 243 C 19.0213 -2.97204 -4.29496 0
M  V30 244 H 20.7153 -1.92495 -2.29317 0
M  V30 245 H 18.2613 -0.92693 -1.102 0
M  V30 246 H 20.2143 -0.401091 -4.19487 0
M  V30 247 H 18.9383 0.396411 -3.24185 0
M  V30 248 H 17.5973 -1.73606 -3.22888 0
M  V30 249 H 17.2453 -0.0368439 -5.02987 0
M  V30 250 H 16.9453 -1.68771 -5.62841 0
M  V30 251 H 18.4693 -0.854015 -6.04598 0
M  V30 252 H 19.8833 -2.8552 -4.97143 0
M  V30 253 H 18.2803 -3.62372 -4.78338 0
M  V30 254 H 19.3503 -3.47956 -3.3772 0
M  V30 255 N 20.6934 1.19889 -1.02296 0
M  V30 256 C 21.6234 2.25141 -0.619174 0
M  V30 257 C 22.6044 1.66051 0.368915 0
M  V30 258 O 23.7894 1.92546 0.252941 0
M  V30 259 C 20.9194 3.4728 0.0368783 0
M  V30 260 C 19.8734 4.19005 -0.872865 0
M  V30 261 C 19.1994 5.34637 -0.0822402 0
M  V30 262 C 20.4994 4.74452 -2.18387 0
M  V30 263 H 22.1934 2.59171 -1.49903 0
M  V30 264 H 19.7394 1.24579 -0.722222 0
M  V30 265 H 21.6924 4.20098 0.330958 0
M  V30 266 H 20.4164 3.12433 0.95149 0
M  V30 267 H 19.0754 3.48061 -1.15105 0
M  V30 268 H 18.7234 4.96034 0.83422 0
M  V30 269 H 18.4234 5.83557 -0.688149 0
M  V30 270 H 19.9474 6.10255 0.205238 0
M  V30 271 H 21.3614 5.39055 -1.95172 0
M  V30 272 H 19.7584 5.33834 -2.74119 0
M  V30 273 H 20.8284 3.92844 -2.84257 0
M  V30 274 N 22.1715 0.800033 1.35784 0
M  V30 275 C 23.5875 0.482977 1.52117 0
M  V30 276 C 23.7875 -0.996948 1.75109 0
M  V30 277 O 22.8435 -1.78216 1.78872 0
M  V30 278 C 24.1565 1.32264 2.70049 0
M  V30 279 C 25.7045 1.31742 2.83924 0
M  V30 280 C 26.1795 2.14106 4.04874 0
M  V30 281 N 27.6705 2.11607 4.12039 0
M  V30 282 C 28.4055 2.72099 5.04727 0
M  V30 283 N 27.9015 3.41492 6.02789 0
M  V30 284 N 29.6945 2.61776 4.97423 0
M  V30 285 H 21.8455 1.75856 1.19115 0
M  V30 286 H 24.1085 0.748122 0.582252 0
M  V30 287 H 23.8145 2.37261 2.59616 0
M  V30 288 H 23.6885 0.971303 3.6448 0
M  V30 289 H 26.0755 0.275333 2.93813 0
M  V30 290 H 26.1565 1.70859 1.9037 0
M  V30 291 H 25.8005 3.18351 3.95746 0
M  V30 292 H 25.7305 1.72353 4.97596 0
M  V30 293 H 28.2215 1.61112 3.41835 0
M  V30 294 H 28.5345 3.84953 6.70098 0
M  V30 295 H 26.8795 3.45596 6.02983 0
M  V30 296 H 30.0705 2.07157 4.19766 0
M  V30 297 H 30.2435 3.0921 5.69468 0
M  V30 298 N 23.6496 -1.47581 0.552962 0
M  V30 299 C 24.8966 -2.02482 0.0273243 0
M  V30 300 C 25.2246 -1.42776 -1.32081 0
M  V30 301 O 24.4796 -0.571393 -1.87173 0
M  V30 302 C 24.7786 -3.57199 -0.119728 0
M  V30 303 C 24.4446 -4.35804 1.15697 0
M  V30 304 C 23.1066 -4.57 1.50681 0
M  V30 305 C 25.4586 -4.81167 2.00319 0
M  V30 306 C 22.7866 -5.20807 2.70142 0
M  V30 307 C 25.1386 -5.46293 3.18978 0
M  V30 308 C 23.8026 -5.65722 3.54281 0
M  V30 309 H 23.0726 -0.740933 0.00999866 0
M  V30 310 H 25.7196 -1.77302 0.72362 0
M  V30 311 H 24.0246 -3.81348 -0.89896 0
M  V30 312 H 25.7216 -3.97324 -0.541718 0
M  V30 313 H 22.3116 -4.19582 0.874561 0
M  V30 314 H 26.4956 -4.64574 1.74599 0
M  V30 315 H 21.7516 -5.34045 2.97668 0
M  V30 316 H 25.9256 -5.80407 3.84838 0
M  V30 317 H 23.5526 -6.14936 4.46942 0
M  V30 318 N 25.1277 -0.289203 -1.54924 0
M  V30 319 C 26.0597 0.625583 -2.20497 0
M  V30 320 C 27.0727 1.10667 -1.19402 0
M  V30 321 O 28.2617 1.02615 -1.46056 0
M  V30 322 C 25.3617 1.86702 -2.82835 0
M  V30 323 C 24.5347 1.5304 -4.09753 0
M  V30 324 C 23.5937 2.62576 -4.56005 0
M  V30 325 O 22.6197 2.28167 -5.21468 0
M  V30 326 N 23.8217 3.92901 -4.27328 0
M  V30 327 H 26.5867 0.0642801 -2.99631 0
M  V30 328 H 24.1477 -0.110896 -1.6152 0
M  V30 329 H 26.1397 2.59304 -3.10715 0
M  V30 330 H 24.7097 2.33702 -2.07611 0
M  V30 331 H 23.9297 0.637564 -3.8901 0
M  V30 332 H 25.2177 1.28072 -4.92418 0
M  V30 333 H 24.6157 4.23671 -3.74859 0
M  V30 334 H 23.1727 4.61837 -4.59946 0
M  V30 335 N 26.6058 1.57591 -0.0167156 0
M  V30 336 C 28.0218 1.55946 0.339557 0
M  V30 337 C 28.2218 1.02109 1.73713 0
M  V30 338 O 27.2778 0.662303 2.43659 0
M  V30 339 C 28.5908 3.00037 0.199499 0
M  V30 340 C 30.1388 3.11805 0.273193 0
M  V30 341 C 30.6138 4.57713 0.162068 0
M  V30 342 N 32.1048 4.6268 0.219444 0
M  V30 343 C 32.8398 5.73185 0.157054 0
M  V30 344 N 32.3358 6.92786 0.0442936 0
M  V30 345 N 34.1288 5.61707 0.21014 0
M  V30 346 H 26.2798 1.90921 -0.930758 0
M  V30 347 H 28.5428 0.877674 -0.358319 0
M  V30 348 H 28.2488 3.4333 -0.76273 0
M  V30 349 H 28.1228 3.64387 0.974786 0
M  V30 350 H 30.5098 2.68433 1.22587 0
M  V30 351 H 30.5908 2.50201 -0.532256 0
M  V30 352 H 30.2348 5.01763 -0.78714 0
M  V30 353 H 30.1648 5.17283 0.986222 0
M  V30 354 H 32.6558 3.76649 0.307246 0
M  V30 355 H 32.9688 7.728 0.00304069 0
M  V30 356 H 31.3138 6.94999 0.00968457 0
M  V30 357 H 34.5048 4.6716 0.296546 0
M  V30 358 H 34.6778 6.47807 0.158054 0
M  V30 359 N 28.0839 -0.256276 1.55502 0
M  V30 360 C 29.0169 -1.34321 1.84481 0
M  V30 361 C 29.9949 -1.46802 0.699131 0
M  V30 362 O 31.1789 -1.63165 0.943904 0
M  V30 363 C 28.3059 -2.71779 2.02123 0
M  V30 364 C 27.3519 -2.76496 3.24734 0
M  V30 365 S 28.1849 -2.3405 4.81644 0
M  V30 366 C 29.3409 -3.73452 5.02279 0
M  V30 367 H 29.5739 -1.09539 2.76385 0
M  V30 368 H 27.1069 -0.45678 1.47489 0
M  V30 369 H 29.0649 -3.50932 2.12972 0
M  V30 370 H 27.7259 -2.93803 1.11078 0
M  V30 371 H 26.9189 -3.77424 3.34016 0
M  V30 372 H 26.5209 -2.05379 3.12563 0
M  V30 373 H 28.8129 -4.6887 4.89047 0
M  V30 374 H 29.7559 -3.6911 6.04287 0
M  V30 375 H 30.1639 -3.6553 4.30172 0
M  V30 376 N 29.562 -1.4872 -0.521534 0
M  V30 377 C 30.472 -1.66569 -1.65203 0
M  V30 378 C 31.488 -0.548197 -1.65139 0
M  V30 379 O 32.664 -0.820339 -1.83936 0
M  V30 380 C 29.729 -1.70917 -3.01642 0
M  V30 381 C 28.79 -2.94356 -3.12495 0
M  V30 382 C 28.023 -2.98487 -4.42426 0
M  V30 383 O 28.246 -2.10786 -5.30024 0
M  V30 384 O 27.18 -3.90746 -4.57822 0
M  V30 385 H 31.006 -2.62298 -1.5308 0
M  V30 386 H 28.591 -1.3222 -0.695565 0
M  V30 387 H 30.473 -1.7625 -3.82771 0
M  V30 388 H 29.148 -0.783633 -3.14071 0
M  V30 389 H 28.055 -2.94552 -2.3063 0
M  V30 390 H 29.388 -3.86322 -3.04986 0
M  V30 391 N 31.0401 0.771051 -1.3745 0
M  V30 392 C 32.2681 1.56015 -1.35893 0
M  V30 393 C 32.6831 1.88718 0.0555523 0
M  V30 394 O 32.0401 1.51502 1.01752 0
M  V30 395 C 32.0911 2.87001 -2.19801 0
M  V30 396 O 31.8121 2.557 -3.55738 0
M  V30 397 C 33.3131 3.81228 -2.26231 0
M  V30 398 H 30.5331 0.483317 -0.465453 0
M  V30 399 H 33.0771 0.955611 -1.80799 0
M  V30 400 H 31.2321 3.43877 -1.78402 0
M  V30 401 H 31.6461 3.39584 -3.99729 0
M  V30 402 H 33.1201 4.70139 -2.89263 0
M  V30 403 H 33.5971 4.20409 -1.27093 0
M  V30 404 H 34.2031 3.30281 -2.67945 0
M  V30 405 N 32.5182 1.22032 0.997298 0
M  V30 406 C 33.4812 0.987909 2.06816 0
M  V30 407 C 34.4812 -0.0440084 1.6074 0
M  V30 408 O 35.6712 0.194053 1.73116 0
M  V30 409 C 32.8032 0.49132 3.37341 0
M  V30 410 H 33.9962 1.93803 2.28868 0
M  V30 411 H 31.5492 1.03838 1.16822 0
M  V30 412 H 32.2842 -0.463364 3.20973 0
M  V30 413 H 32.0692 1.23575 3.72118 0
M  V30 414 H 33.5592 0.348824 4.16141 0
M  V30 415 N 33.9963 -1.19345 1.0293 0
M  V30 416 C 34.9063 -2.26245 0.620515 0
M  V30 417 C 35.9223 -1.70486 -0.347928 0
M  V30 418 O 37.0983 -2.00347 -0.205704 0
M  V30 419 C 34.1633 -3.46693 -0.0218957 0
M  V30 420 C 33.2243 -4.17632 0.994102 0
M  V30 421 C 32.4573 -5.32329 0.382253 0
M  V30 422 O 32.6803 -5.64552 -0.814676 0
M  V30 423 O 31.6143 -5.91664 1.10531 0
M  V30 424 H 35.4403 -2.63453 1.51083 0
M  V30 425 H 33.0253 -1.26207 0.799513 0
M  V30 426 H 34.9073 -4.19683 -0.380072 0
M  V30 427 H 33.5823 -3.11333 -0.886209 0
M  V30 428 H 32.4893 -3.4676 1.40387 0
M  V30 429 H 33.8223 -4.56964 1.8288 0
M  V30 430 N 35.4744 -0.807222 -1.35358 0
M  V30 431 C 36.3844 -0.219594 -2.3357 0
M  V30 432 C 37.4004 0.637734 -1.61892 0
M  V30 433 O 38.5764 0.549336 -1.93763 0
M  V30 434 C 35.6414 0.62158 -3.41083 0
M  V30 435 C 34.7024 -0.256315 -4.28534 0
M  V30 436 C 33.9354 0.544807 -5.30912 0
M  V30 437 O 34.1584 1.77944 -5.41934 0
M  V30 438 O 33.0924 -0.0646478 -6.01865 0
M  V30 439 H 36.9184 -1.03208 -2.85625 0
M  V30 440 H 34.5034 -0.569025 -1.38139 0
M  V30 441 H 36.3854 1.10067 -4.06772 0
M  V30 442 H 35.0604 1.41165 -2.91297 0
M  V30 443 H 33.9674 -0.782559 -3.65823 0
M  V30 444 H 35.3004 -1.01034 -4.81719 0
M  V30 445 N 36.9525 1.47285 -0.560781 0
M  V30 446 C 38.1985 2.02764 -0.0381184 0
M  V30 447 C 38.5315 1.43384 1.30976 0
M  V30 448 O 37.8065 0.590733 1.85312 0
M  V30 449 C 38.0895 3.60064 0.0511427 0
M  V30 450 C 37.9425 4.2987 -1.32408 0
M  V30 451 C 39.2615 4.33439 0.762795 0
M  V30 452 H 36.3805 0.736841 -0.0153264 0
M  V30 453 H 39.0225 1.75675 -0.723759 0
M  V30 454 H 37.1725 3.83274 0.635065 0
M  V30 455 H 38.8445 4.17989 -1.95148 0
M  V30 456 H 37.0875 3.90085 -1.8978 0
M  V30 457 H 37.7585 5.38478 -1.21431 0
M  V30 458 H 40.2345 4.15243 0.266965 0
M  V30 459 H 39.1105 5.43124 0.794221 0
M  V30 460 H 39.3715 4.02915 1.81966 0
M  V30 461 N 38.4306 0.297415 1.54768 0
M  V30 462 C 39.6606 -0.315165 2.04182 0
M  V30 463 C 40.0686 -1.4834 1.17439 0
M  V30 464 O 39.4116 -1.82695 0.191891 0
M  V30 465 C 39.4736 -0.837583 3.49607 0
M  V30 466 C 39.1376 0.204912 4.5654 0
M  V30 467 C 40.1346 1.03214 5.09552 0
M  V30 468 C 37.8196 0.345578 5.0111 0
M  V30 469 C 39.8136 1.986 6.05671 0
M  V30 470 C 37.5006 1.30289 5.97049 0
M  V30 471 C 38.4986 2.12159 6.49213 0
M  V30 472 O 38.1866 3.06268 7.43273 0
M  V30 473 H 37.9186 -0.0729646 0.672051 0
M  V30 474 H 40.4726 0.433907 2.00765 0
M  V30 475 H 38.7026 -1.63712 3.50336 0
M  V30 476 H 40.3916 -1.36566 3.82236 0
M  V30 477 H 41.1576 0.934312 4.75916 0
M  V30 478 H 37.0366 -0.28171 4.60138 0
M  V30 479 H 40.5806 2.62542 6.46311 0
M  V30 480 H 36.4776 1.40145 6.30103 0
M  V30 481 H 37.2456 3.01205 7.61064 0
M  V30 482 N 39.9087 -1.5758 0.0250728 0
M  V30 483 C 40.8587 -2.06468 -0.967201 0
M  V30 484 C 41.8427 -0.964376 -1.28797 0
M  V30 485 O 43.0347 -1.22797 -1.27475 0
M  V30 486 C 40.1637 -2.59203 -2.25097 0
M  V30 487 C 39.2497 -3.76157 -1.95874 0
M  V30 488 N 39.6407 -4.86919 -1.36905 0
M  V30 489 C 37.9387 -3.84566 -2.25887 0
M  V30 490 C 38.6397 -5.68172 -1.24724 0
M  V30 491 N 37.6157 -5.14953 -1.74138 0
M  V30 492 H 41.4177 -2.89508 -0.506176 0
M  V30 493 H 38.9317 -1.61399 -0.18004 0
M  V30 494 H 40.9287 -2.92517 -2.97052 0
M  V30 495 H 39.5887 -1.77592 -2.71829 0
M  V30 496 H 40.5997 -5.07256 -1.04459 0
M  V30 497 H 37.2767 -3.13854 -2.75321 0
M  V30 498 H 38.6667 -6.67221 -0.791605 0
M  V30 499 N 41.3868 0.248026 -1.55636 0
M  V30 500 C 42.2968 1.32859 -1.93354 0
M  V30 501 C 43.3128 1.52719 -0.833838 0
M  V30 502 O 44.4888 1.66363 -1.13513 0
M  V30 503 C 41.5538 2.66337 -2.21958 0
M  V30 504 C 40.6148 2.55008 -3.45354 0
M  V30 505 C 39.8478 3.82121 -3.72584 0
M  V30 506 O 40.0708 4.83951 -3.01907 0
M  V30 507 O 39.0048 3.80822 -4.6611 0
M  V30 508 H 42.8308 1.03862 -2.85388 0
M  V30 509 H 40.4158 0.448686 -1.42503 0
M  V30 510 H 42.2978 3.45216 -2.4167 0
M  V30 511 H 40.9728 2.95068 -1.33103 0
M  V30 512 H 39.8798 1.7442 -3.30951 0
M  V30 513 H 41.2128 2.31222 -4.34508 0
M  V30 514 N 42.8649 1.48995 0.513639 0
M  V30 515 C 44.1139 1.57093 1.2651 0
M  V30 516 C 44.4269 0.257091 1.93903 0
M  V30 517 O 45.6329 0.216478 2.70636 0
M  V30 518 C 44.0889 2.77118 2.29638 0
M  V30 519 C 43.6969 4.15209 1.68241 0
M  V30 520 C 45.4409 2.94538 3.05692 0
M  V30 521 C 43.3479 5.26474 2.69406 0
M  V30 522 H 42.2779 0.584876 0.475854 0
M  V30 523 H 44.9289 1.7536 0.540487 0
M  V30 524 H 43.3109 2.52319 3.05207 0
M  V30 525 H 44.4849 4.50094 0.987505 0
M  V30 526 H 42.7999 4.03042 1.04623 0
M  V30 527 H 45.3969 3.74832 3.8132 0
M  V30 528 H 45.7399 2.04614 3.62545 0
M  V30 529 H 46.2729 3.19316 2.37238 0
M  V30 530 H 43.0119 6.18417 2.17351 0
M  V30 531 H 42.5319 4.96058 3.37175 0
M  V30 532 H 44.2109 5.55277 3.32078 0
M  V30 533 N 44.343 -0.763751 1.37857 0
M  V30 534 C 45.253 -1.90817 1.36478 0
M  V30 535 C 46.269 -1.71997 0.263248 0
M  V30 536 O 47.445 -1.95095 0.499979 0
M  V30 537 C 44.51 -3.2605 1.17864 0
M  V30 538 C 43.571 -3.57467 2.3773 0
M  V30 539 C 42.804 -4.86249 2.19995 0
M  V30 540 O 43.027 -5.57884 1.18836 0
M  V30 541 O 41.961 -5.16911 3.08361 0
M  V30 542 H 45.787 -1.94933 2.32884 0
M  V30 543 H 43.372 -0.907619 1.1867 0
M  V30 544 H 45.254 -4.06924 1.09504 0
M  V30 545 H 43.929 -3.22769 0.245372 0
M  V30 546 H 42.836 -2.76796 2.51664 0
M  V30 547 H 44.169 -3.655 3.29652 0
M  V30 548 N 45.8211 -1.22559 -0.990812 0
M  V30 549 C 46.7511 -1.0218 -2.09956 0
M  V30 550 C 47.7321 0.0579394 -1.70001 0
M  V30 551 O 48.9171 -0.104684 -1.93918 0
M  V30 552 C 46.0471 -0.601023 -3.4206 0
M  V30 553 C 45.0011 -1.62694 -3.95872 0
M  V30 554 C 44.3271 -1.06193 -5.24049 0
M  V30 555 C 45.6271 -3.01743 -4.2632 0
M  V30 556 H 47.3211 -1.94916 -2.27262 0
M  V30 557 H 44.8671 -0.938566 -1.09211 0
M  V30 558 H 46.8201 -0.445561 -4.19038 0
M  V30 559 H 45.5441 0.362005 -3.24588 0
M  V30 560 H 44.2031 -1.77021 -3.21028 0
M  V30 561 H 43.8511 -0.0901903 -5.02919 0
M  V30 562 H 43.5511 -1.74732 -5.61019 0
M  V30 563 H 45.0751 -0.918092 -6.03658 0
M  V30 564 H 46.4891 -2.90777 -4.94087 0
M  V30 565 H 44.8861 -3.67425 -4.74467 0
M  V30 566 H 45.9561 -3.51518 -3.34011 0
M  V30 567 N 47.2992 1.18797 -1.03562 0
M  V30 568 C 48.2312 2.21731 -0.580337 0
M  V30 569 C 49.2442 1.59051 0.347349 0
M  V30 570 O 50.4332 1.77929 0.142669 0
M  V30 571 C 47.5332 3.38459 0.172805 0
M  V30 572 C 46.7062 4.3072 -0.761496 0
M  V30 573 C 45.7652 5.26174 -0.0525547 0
M  V30 574 O 44.7912 5.65108 -0.681333 0
M  V30 575 N 45.9932 5.67624 1.21586 0
M  V30 576 H 48.7582 2.61417 -1.46565 0
M  V30 577 H 46.3192 1.33531 -0.915476 0
M  V30 578 H 48.3112 3.99335 0.656793 0
M  V30 579 H 46.8812 2.97507 0.959602 0
M  V30 580 H 46.1012 3.67525 -1.42544 0
M  V30 581 H 47.3892 4.89267 -1.39626 0
M  V30 582 H 46.7872 5.38038 1.74732 0
M  V30 583 H 45.3442 6.30721 1.64421 0
M  V30 584 N 48.7773 0.814389 1.34928 0
M  V30 585 C 49.7403 0.235759 2.27984 0
M  V30 586 C 50.7403 -0.581412 1.49921 0
M  V30 587 O 51.9303 -0.398758 1.69575 0
M  V30 588 C 49.0623 -0.670433 3.34242 0
M  V30 589 H 50.2553 1.05659 2.80671 0
M  V30 590 H 47.8083 0.585614 1.44915 0
M  V30 591 H 48.5433 -1.51466 2.86755 0
M  V30 592 H 48.3283 -0.0860822 3.92005 0
M  V30 593 H 49.8183 -1.06935 4.03676 0
M  V30 594 N 50.2554 -1.46986 0.568584 0
M  V30 595 C 51.1874 -2.28233 -0.210337 0
M  V30 596 C 52.2004 -1.37682 -0.868767 0
M  V30 597 O 53.3894 -1.62406 -0.740705 0
M  V30 598 C 50.4894 -3.12293 -1.3163 0
M  V30 599 C 49.6624 -4.30878 -0.7525 0
M  V30 600 C 48.7214 -4.96445 -1.74439 0
M  V30 601 O 47.7474 -5.54482 -1.286 0
M  V30 602 N 48.9494 -4.92171 -3.07812 0
M  V30 603 H 51.7144 -2.95723 0.486648 0
M  V30 604 H 49.2754 -1.56742 0.405409 0
M  V30 605 H 51.2674 -3.53022 -1.97883 0
M  V30 606 H 49.8374 -2.46971 -1.91636 0
M  V30 607 H 49.0574 -3.94104 0.0871128 0
M  V30 608 H 50.3454 -5.07558 -0.35536 0
M  V30 609 H 49.7434 -4.46239 -3.47688 0
M  V30 610 H 48.3004 -5.36884 -3.69592 0
M  V30 611 N 51.7335 -0.305618 -1.54608 0
M  V30 612 C 52.6655 0.602161 -2.21149 0
M  V30 613 C 53.6785 1.09394 -1.20569 0
M  V30 614 O 54.8675 1.0106 -1.47136 0
M  V30 615 C 51.9675 1.83692 -2.84799 0
M  V30 616 C 51.1405 1.48686 -4.11353 0
M  V30 617 C 50.1995 2.57725 -4.58764 0
M  V30 618 O 49.2255 2.22623 -5.23858 0
M  V30 619 N 50.4275 3.88346 -4.31471 0
M  V30 620 H 53.1925 0.0324966 -2.99682 0
M  V30 621 H 50.7535 -0.128021 -1.61393 0
M  V30 622 H 52.7455 2.55994 -3.13448 0
M  V30 623 H 51.3155 2.31486 -2.10078 0
M  V30 624 H 50.5355 0.596269 -3.89664 0
M  V30 625 H 51.8235 1.22842 -4.93748 0
M  V30 626 H 51.2215 4.19671 -3.79331 0
M  V30 627 H 49.7785 4.56932 -4.64818 0
M  V30 628 N 53.2116 1.57565 -0.0334293 0
M  V30 629 C 54.1416 2.13511 0.945265 0
M  V30 630 C 55.1226 1.05231 1.33643 0
M  V30 631 O 56.3076 1.33084 1.41429 0
M  V30 632 C 53.4376 2.6657 2.22616 0
M  V30 633 C 52.3916 3.79676 1.97561 0
M  V30 634 C 51.7176 4.1918 3.31952 0
M  V30 635 C 53.0176 5.0557 1.31135 0
M  V30 636 H 54.7116 2.95538 0.479325 0
M  V30 637 H 52.2576 1.42166 0.229115 0
M  V30 638 H 54.2106 3.04344 2.91466 0
M  V30 639 H 52.9346 1.8171 2.71384 0
M  V30 640 H 51.5936 3.42347 1.31127 0
M  V30 641 H 51.2416 3.31296 3.78487 0
M  V30 642 H 50.9416 4.95402 3.15992 0
M  V30 643 H 52.4656 4.59541 4.02063 0
M  V30 644 H 53.8796 5.40903 1.89992 0
M  V30 645 H 52.2766 5.86818 1.25559 0
M  V30 646 H 53.3466 4.84062 0.284894 0
M  V30 647 N 54.6897 -0.239769 1.55765 0
M  V30 648 C 55.5997 -1.31831 1.94056 0
M  V30 649 C 56.6157 -1.52275 0.841925 0
M  V30 650 O 57.7917 -1.65759 1.14394 0
M  V30 651 C 54.8567 -2.65156 2.23368 0
M  V30 652 C 53.9177 -2.53173 3.46701 0
M  V30 653 C 53.1507 -3.8014 3.74606 0
M  V30 654 O 53.3737 -4.82343 3.04469 0
M  V30 655 O 52.3077 -3.78344 4.68123 0
M  V30 656 H 56.1337 -1.02347 2.85935 0
M  V30 657 H 53.7187 -0.441123 1.42739 0
M  V30 658 H 55.6007 -3.43929 2.43497 0
M  V30 659 H 54.2757 -2.94358 1.34666 0
M  V30 660 H 53.1827 -1.72662 3.31871 0
M  V30 661 H 54.5157 -2.28915 4.35728 0
M  V30 662 N 56.1678 -1.49265 -0.50573 0
M  V30 663 C 57.3978 -1.61979 -1.28243 0
M  V30 664 C 57.8058 -0.288576 -1.86986 0
M  V30 665 O 57.1488 0.735408 -1.68337 0
M  V30 666 C 57.2108 -2.62632 -2.45489 0
M  V30 667 C 56.8748 -4.071 -2.07651 0
M  V30 668 C 57.8718 -4.94049 -1.61901 0
M  V30 669 C 55.5568 -4.52801 -2.17431 0
M  V30 670 C 57.5508 -6.24736 -1.26428 0
M  V30 671 C 55.2378 -5.83503 -1.8157 0
M  V30 672 C 56.2358 -6.69294 -1.36142 0
M  V30 673 O 55.9238 -7.9756 -1.00764 0
M  V30 674 H 55.6558 -0.54834 -0.395347 0
M  V30 675 H 58.2098 -1.96002 -0.614204 0
M  V30 676 H 56.4398 -2.2378 -3.15372 0
M  V30 677 H 58.1288 -2.64925 -3.07522 0
M  V30 678 H 58.8948 -4.5997 -1.53795 0
M  V30 679 H 54.7738 -3.86196 -2.51742 0
M  V30 680 H 58.3178 -6.91652 -0.908992 0
M  V30 681 H 54.2148 -6.17112 -1.89324 0
M  V30 682 H 54.9828 -8.10529 -1.13952 0
M  V30 683 N 57.6459 0.756429 -1.3826 0
M  V30 684 C 58.9229 1.50584 -1.24835 0
M  V30 685 C 59.3029 2.10556 0.151485 0
M  V30 686 O 58.6509 1.96825 1.1607 0
M  V30 687 C 58.8609 2.57448 -2.3563 0
M  V30 688 C 60.2089 3.24429 -2.73917 0
M  V30 689 O 61.2329 2.67751 -2.34921 0
M  V30 690 O 60.0919 4.26937 -3.41156 0
M  V30 691 H 57.1859 0.667664 -0.48801 0
M  V30 692 H 59.7319 0.792083 -1.5008 0
M  V30 693 H 58.5039 2.11362 -3.29305 0
M  V30 694 H 58.1269 3.36408 -2.11933 0
M  V30 695 N 59.124 1.23083 0.984299 0
M  V30 696 C 60.354 1.08556 1.75781 0
M  V30 697 C 60.762 -0.366171 1.85623 0
M  V30 698 O 60.105 -1.26524 1.33182 0
M  V30 699 C 60.167 1.63208 3.20318 0
M  V30 700 C 59.831 3.11922 3.33997 0
M  V30 701 C 60.828 4.09259 3.2063 0
M  V30 702 C 58.513 3.51552 3.58771 0
M  V30 703 C 60.507 5.4421 3.31835 0
M  V30 704 C 58.194 4.86649 3.69616 0
M  V30 705 C 59.192 5.82787 3.56157 0
M  V30 706 O 58.88 7.15431 3.66626 0
M  V30 707 H 58.612 0.380713 0.5586 0
M  V30 708 H 61.166 1.63321 1.2456 0
M  V30 709 H 59.396 1.0286 3.72769 0
M  V30 710 H 61.085 1.44216 3.79416 0
M  V30 711 H 61.851 3.79984 3.01392 0
M  V30 712 H 57.73 2.77239 3.6832 0
M  V30 713 H 61.274 6.1923 3.21247 0
M  V30 714 H 57.171 5.15601 3.88363 0
M  V30 715 H 57.939 7.23127 3.83445 0
M  V30 716 N 60.6021 -1.18246 1.0419 0
M  V30 717 C 61.8321 -1.91916 0.764961 0
M  V30 718 C 62.2401 -1.76485 -0.681898 0
M  V30 719 O 61.5831 -1.09275 -1.47664 0
M  V30 720 C 61.6451 -3.4373 1.05309 0
M  V30 721 C 61.3091 -3.8294 2.4941 0
M  V30 722 C 62.3061 -3.86621 3.47592 0
M  V30 723 C 59.9911 -4.142 2.84155 0
M  V30 724 C 61.9851 -4.21013 4.78568 0
M  V30 725 C 59.6721 -4.48262 4.15337 0
M  V30 726 C 60.6701 -4.51645 5.12353 0
M  V30 727 O 60.3581 -4.84911 6.41183 0
M  V30 728 H 60.0901 -0.61606 0.278292 0
M  V30 729 H 62.6441 -1.50947 1.39299 0
M  V30 730 H 60.8741 -3.84946 0.367933 0
M  V30 731 H 62.5631 -3.9865 0.763752 0
M  V30 732 H 63.3291 -3.62607 3.22089 0
M  V30 733 H 59.2081 -4.10743 2.09311 0
M  V30 734 H 62.7521 -4.23568 5.54289 0
M  V30 735 H 58.6491 -4.71737 4.40607 0
M  V30 736 H 59.4171 -5.02809 6.45852 0
M  V30 737 N 62.0802 -0.821533 -1.34494 0
M  V30 738 C 63.3052 -0.420873 -2.03085 0
M  V30 739 C 63.7302 0.964915 -1.61465 0
M  V30 740 O 63.0882 1.62763 -0.798607 0
M  V30 741 C 63.1362 -0.529414 -3.56693 0
M  V30 742 O 62.2402 0.451302 -4.09923 0
M  V30 743 H 61.5812 -0.173489 -0.640935 0
M  V30 744 H 64.1112 -1.11157 -1.71771 0
M  V30 745 H 64.1212 -0.404671 -4.05988 0
M  V30 746 H 62.7962 -1.54014 -3.86332 0
M  V30 747 H 61.3732 0.285558 -3.71805 0
M  V30 748 N 63.5583 1.46682 -0.576371 0
M  V30 749 C 64.4883 2.33028 0.148397 0
M  V30 750 C 65.4693 1.44961 0.889956 0
M  V30 751 O 66.6543 1.73789 0.866662 0
M  V30 752 C 63.7843 3.27117 1.1667 0
M  V30 753 C 62.7383 4.24575 0.540386 0
M  V30 754 C 62.0643 5.08126 1.6647 0
M  V30 755 C 63.3643 5.19722 -0.518331 0
M  V30 756 H 65.0583 2.93875 -0.572509 0
M  V30 757 H 62.6043 1.41315 -0.276768 0
M  V30 758 H 64.5573 3.86374 1.68204 0
M  V30 759 H 63.2813 2.64364 1.9178 0
M  V30 760 H 61.9403 3.66571 0.0461769 0
M  V30 761 H 61.5883 4.41762 2.40531 0
M  V30 762 H 61.2883 5.74122 1.25131 0
M  V30 763 H 62.8123 5.70246 2.18293 0
M  V30 764 H 64.2263 5.73232 -0.0883058 0
M  V30 765 H 62.6233 5.94026 -0.851679 0
M  V30 766 H 63.6933 4.64037 -1.40703 0
M  V30 767 N 65.0364 0.313813 1.54444 0
M  V30 768 C 66.2764 -0.292389 2.02298 0
M  V30 769 C 66.6404 -1.50105 1.19719 0
M  V30 770 O 67.8414 -2.17947 1.5733 0
M  V30 771 C 66.1124 -0.627682 3.51845 0
M  V30 772 S 67.6714 -1.21493 4.21646 0
M  V30 773 H 64.4894 -0.0890247 0.705405 0
M  V30 774 H 67.0914 0.444668 1.90376 0
M  V30 775 H 65.7954 0.260265 4.09574 0
M  V30 776 H 65.3264 -1.39519 3.67829 0
M  V30 777 H 67.3414 -2.5022 4.28491 0
M  V30 778 N 66.5145 -1.57545 0.0417849 0
M  V30 779 C 67.7605 -1.92601 -0.635021 0
M  V30 780 C 68.0935 -0.919627 -1.71045 0
M  V30 781 O 67.3685 0.0557892 -1.9442 0
M  V30 782 C 67.6515 -3.38085 -1.23979 0
M  V30 783 C 67.5045 -4.49467 -0.173057 0
M  V30 784 C 68.8235 -3.83776 -2.15416 0
M  V30 785 H 65.9425 -0.700397 -0.229374 0
M  V30 786 H 68.5845 -1.89728 0.101633 0
M  V30 787 H 66.7345 -3.40664 -1.86762 0
M  V30 788 H 68.4065 -4.59018 0.458312 0
M  V30 789 H 66.6495 -4.30909 0.499996 0
M  V30 790 H 67.3205 -5.48323 -0.636054 0
M  V30 791 H 69.7965 -3.83013 -1.62605 0
M  V30 792 H 68.6725 -4.8624 -2.54679 0
M  V30 793 H 68.9335 -3.19998 -3.05047 0
M  V30 794 N 67.9926 0.231505 -1.5589 0
M  V30 795 C 69.4086 0.580748 -1.48659 0
M  V30 796 C 69.6086 1.87617 -0.73498 0
M  V30 797 O 68.6646 2.51046 -0.270586 0
M  V30 798 C 69.9776 0.669202 -2.93159 0
M  V30 799 C 71.5256 0.760499 -3.03621 0
M  V30 800 C 72.0006 0.880383 -4.49459 0
M  V30 801 N 73.4916 0.944861 -4.53461 0
M  V30 802 C 74.2266 1.05716 -5.63571 0
M  V30 803 N 73.7226 1.13403 -6.83456 0
M  V30 804 N 75.5156 1.09152 -5.514 0
M  V30 805 H 67.6666 -0.618695 -2.03189 0
M  V30 806 H 69.9296 -0.215728 -0.923128 0
M  V30 807 H 69.6356 -0.212904 -3.51055 0
M  V30 808 H 69.5096 1.5361 -3.44505 0
M  V30 809 H 71.8966 1.63305 -2.45796 0
M  V30 810 H 71.9776 -0.131864 -2.5546 0
M  V30 811 H 71.6216 0.0123284 -5.07899 0
M  V30 812 H 71.5516 1.78802 -4.95316 0
M  V30 813 H 74.0426 0.896176 -3.6712 0
M  V30 814 H 74.3556 1.21921 -7.63122 0
M  V30 815 H 72.7006 1.10333 -6.86186 0
M  V30 816 H 75.8916 1.02805 -4.56671 0
M  V30 817 H 76.0646 1.17558 -6.37247 0
M  V30 818 N 69.4707 1.49531 0.497807 0
M  V30 819 C 70.4207 1.62829 1.59596 0
M  V30 820 C 71.4047 0.483824 1.53453 0
M  V30 821 O 72.5967 0.736937 1.60929 0
M  V30 822 C 69.7257 1.7011 2.98191 0
M  V30 823 C 68.8117 2.90144 3.09317 0
M  V30 824 N 69.2027 4.1418 2.90324 0
M  V30 825 C 67.5007 2.88148 3.40422 0
M  V30 826 C 68.2017 4.94886 3.05717 0
M  V30 827 N 67.1777 4.28314 3.34736 0
M  V30 828 H 70.9797 2.56446 1.4357 0
M  V30 829 H 68.4937 1.46347 0.704001 0
M  V30 830 H 70.4907 1.77735 3.77115 0
M  V30 831 H 69.1507 0.776315 3.15283 0
M  V30 832 H 70.1617 4.44109 2.66436 0
M  V30 833 H 66.8387 2.05061 3.63671 0
M  V30 834 H 68.2287 6.03432 2.95499 0
M  V30 835 N 70.9488 -0.749086 1.3866 0
M  V30 836 C 72.3598 -1.32664 1.31366 0
M  V30 837 C 72.7108 -1.96179 -0.028484 0
M  V30 838 O 71.8358 -1.9537 -0.93057 0
M  V30 839 C 72.4308 -2.41219 2.37905 0
M  V30 840 C 70.9898 -2.94684 2.34176 0
M  V30 841 C 70.1368 -1.68108 2.20533 0
M  V30 842 H 73.0878 -0.547628 1.48952 0
M  V30 843 H 73.1088 -3.21268 2.0388 0
M  V30 844 H 72.6208 -1.94962 3.35576 0
M  V30 845 H 70.7218 -3.45258 1.401 0
M  V30 846 H 70.8348 -3.48757 3.2849 0
M  V30 847 H 69.1988 -1.91907 1.67463 0
M  V30 848 H 69.9818 -1.23923 3.20153 0
M  V30 849 N 72.4269 -1.23603 -0.977757 0
M  V30 850 C 73.6729 -1.07129 -1.72195 0
M  V30 851 C 74.0059 0.390501 -1.90233 0
M  V30 852 O 73.2809 1.28902 -1.45653 0
M  V30 853 C 73.5639 -1.80031 -3.11867 0
M  V30 854 C 73.4169 -3.33899 -3.01383 0
M  V30 855 C 74.7359 -1.56492 -4.11337 0
M  V30 856 H 71.8549 -0.390571 -0.624999 0
M  V30 857 H 74.4969 -1.52142 -1.13811 0
M  V30 858 H 72.6469 -1.41768 -3.6171 0
M  V30 859 H 74.3189 -3.81699 -2.59043 0
M  V30 860 H 72.5619 -3.62796 -2.37827 0
M  V30 861 H 73.2329 -3.801 -4.00285 0
M  V30 862 H 75.7089 -1.89757 -3.70313 0
M  V30 863 H 74.5849 -2.09973 -5.07151 0
M  V30 864 H 74.8459 -0.500874 -4.39254 0
M  V30 865 N 73.905 1.17692 -1.04816 0
M  V30 866 C 75.316 1.69501 -0.782698 0
M  V30 867 C 75.667 1.83456 0.695577 0
M  V30 868 O 74.792 1.51942 1.54086 0
M  V30 869 C 75.387 3.07874 -1.41419 0
M  V30 870 C 73.946 3.56864 -1.19686 0
M  V30 871 C 73.093 2.3322 -1.50012 0
M  V30 872 H 76.044 1.02262 -1.2136 0
M  V30 873 H 76.065 3.71528 -0.821428 0
M  V30 874 H 75.577 2.97685 -2.49009 0
M  V30 875 H 73.678 3.72337 -0.140043 0
M  V30 876 H 73.791 4.39851 -1.89916 0
M  V30 877 H 72.155 2.37501 -0.920071 0
M  V30 878 H 72.938 2.25644 -2.58727 0
M  V30 879 N 75.3831 0.828654 1.34056 0
M  V30 880 C 76.6301 0.419458 1.98108 0
M  V30 881 C 76.9581 -1.01886 1.65679 0
M  V30 882 O 76.2131 -1.72539 0.923512 0
M  V30 883 C 76.5121 0.575226 3.52741 0
M  V30 884 C 76.1781 1.98012 4.05095 0
M  V30 885 C 74.8401 2.36442 4.19104 0
M  V30 886 C 77.1921 2.89824 4.33188 0
M  V30 887 C 74.5201 3.66009 4.58535 0
M  V30 888 C 76.8721 4.1886 4.74066 0
M  V30 889 C 75.5361 4.5726 4.86281 0
M  V30 890 H 74.8061 0.153491 0.724929 0
M  V30 891 H 77.4531 1.05371 1.59904 0
M  V30 892 H 75.7581 -0.142385 3.91541 0
M  V30 893 H 77.4551 0.239057 4.00287 0
M  V30 894 H 74.0451 1.67162 3.94658 0
M  V30 895 H 78.2291 2.61375 4.21897 0
M  V30 896 H 73.4851 3.95579 4.66184 0
M  V30 897 H 77.6591 4.90086 4.94761 0
M  V30 898 H 75.2861 5.57707 5.16592 0
M  V30 899 N 76.8612 -1.46375 0.584142 0
M  V30 900 C 78.0892 -2.06761 0.0759296 0
M  V30 901 C 78.5042 -1.43266 -1.22965 0
M  V30 902 O 77.8612 -0.538458 -1.74376 0
M  V30 903 C 77.9122 -3.61375 -0.0950384 0
M  V30 904 O 77.6332 -4.22495 1.15887 0
M  V30 905 C 79.1342 -4.38693 -0.637434 0
M  V30 906 H 76.3542 -0.668479 0.0581075 0
M  V30 907 H 78.8982 -1.8798 0.805218 0
M  V30 908 H 77.0532 -3.79578 -0.774554 0
M  V30 909 H 77.4672 -5.15385 0.973598 0
M  V30 910 H 78.9412 -5.47464 -0.706237 0
M  V30 911 H 79.4182 -4.06836 -1.65472 0
M  V30 912 H 80.0242 -4.25299 0.00725967 0
M  V30 913 N 78.3393 -0.321999 -1.54275 0
M  V30 914 C 79.7553 0.0306999 -1.5957 0
M  V30 915 C 79.9553 1.50614 -1.33857 0
M  V30 916 O 79.0113 2.2619 -1.12223 0
M  V30 917 C 80.3243 -0.386122 -2.98211 0
M  V30 918 C 81.8723 -0.336647 -3.11184 0
M  V30 919 C 82.3473 -0.728607 -4.52167 0
M  V30 920 N 83.8383 -0.681952 -4.58152 0
M  V30 921 C 84.5733 -0.957449 -5.6535 0
M  V30 922 N 84.0693 -1.3 -6.80494 0
M  V30 923 N 85.8623 -0.883113 -5.55119 0
M  V30 924 H 78.0133 -1.28332 -1.69247 0
M  V30 925 H 80.2763 -0.521716 -0.791528 0
M  V30 926 H 79.9823 -1.41404 -3.22022 0
M  V30 927 H 79.8563 0.249662 -3.76373 0
M  V30 928 H 82.2433 0.682058 -2.8711 0
M  V30 929 H 82.3243 -1.00734 -2.3513 0
M  V30 930 H 81.9683 -1.74522 -4.76974 0
M  V30 931 H 81.8983 -0.0356152 -5.26588 0
M  V30 932 H 84.3893 -0.428985 -3.75457 0
M  V30 933 H 84.7023 -1.49563 -7.58189 0
M  V30 934 H 83.0473 -1.33824 -6.81994 0
M  V30 935 H 86.2383 -0.615001 -4.64042 0
M  V30 936 H 86.4113 -1.10118 -6.38575 0
M  V30 937 N 79.8174 1.5752 -0.0501392 0
M  V30 938 C 81.2284 1.80271 0.485705 0
M  V30 939 C 81.5794 0.96228 1.70981 0
M  V30 940 O 80.7044 0.178578 2.15662 0
M  V30 941 C 81.2994 3.26957 0.887938 0
M  V30 942 C 79.8584 3.5063 1.36877 0
M  V30 943 C 79.0054 2.75165 0.343468 0
M  V30 944 H 81.9564 1.56281 -0.276028 0
M  V30 945 H 81.9774 3.37821 1.75093 0
M  V30 946 H 81.4894 3.881 -0.0031809 0
M  V30 947 H 79.5904 2.94766 2.27911 0
M  V30 948 H 79.7034 4.59343 1.36164 0
M  V30 949 H 78.0674 2.4127 0.816128 0
M  V30 950 H 78.8504 3.39034 -0.539548 0
M  V30 951 N 81.2955 -0.223234 1.56011 0
M  V30 952 C 82.2425 -1.27664 1.92277 0
M  V30 953 C 83.2125 -1.46659 0.779763 0
M  V30 954 O 84.3975 -1.60256 1.03551 0
M  V30 955 C 81.5375 -2.62234 2.24338 0
M  V30 956 C 80.6505 -2.51051 3.51564 0
M  V30 957 C 79.7855 -3.78133 3.7308 0
M  V30 958 C 78.8245 -3.61665 4.93827 0
M  V30 959 N 77.9615 -4.80693 5.11741 0
M  V30 960 H 82.8015 -0.960358 2.82101 0
M  V30 961 H 80.3385 -0.462901 1.39627 0
M  V30 962 H 82.2965 -3.40596 2.40936 0
M  V30 963 H 80.9265 -2.91961 1.3769 0
M  V30 964 H 79.9785 -1.64132 3.43169 0
M  V30 965 H 81.2905 -2.34803 4.40079 0
M  V30 966 H 80.4445 -4.64938 3.89766 0
M  V30 967 H 79.1835 -3.97304 2.82844 0
M  V30 968 H 78.1885 -2.73244 4.77093 0
M  V30 969 H 79.4135 -3.43966 5.85546 0
M  V30 970 H 77.3595 -5.00181 4.24446 0
M  V30 971 H 77.2765 -4.67165 5.94384 0
M  V30 972 H 78.5445 -5.6893 5.3286 0
M  V30 973 N 82.7736 -1.49793 -0.48987 0
M  V30 974 C 84.0196 -1.60078 -1.24511 0
M  V30 975 C 84.3526 -0.291608 -1.91998 0
M  V30 976 O 83.6276 0.705647 -1.81248 0
M  V30 977 C 83.9106 -2.76791 -2.30345 0
M  V30 978 C 83.7636 -4.17535 -1.67286 0
M  V30 979 C 85.0826 -2.89111 -3.31817 0
M  V30 980 H 82.2016 -0.582645 -0.451324 0
M  V30 981 H 84.8436 -1.82117 -0.541612 0
M  V30 982 H 82.9936 -2.5813 -2.90346 0
M  V30 983 H 84.6656 -4.4774 -1.11026 0
M  V30 984 H 82.9086 -4.22665 -0.976577 0
M  V30 985 H 83.5796 -4.95094 -2.44103 0
M  V30 986 H 86.0556 -3.06133 -2.81819 0
M  V30 987 H 84.9316 -3.72433 -4.03219 0
M  V30 988 H 85.1926 -1.9893 -3.94815 0
M  V30 989 N 84.2517 0.741722 -1.39055 0
M  V30 990 C 85.2147 1.83733 -1.37021 0
M  V30 991 C 86.2147 1.58542 -0.268534 0
M  V30 992 O 87.4047 1.66067 -0.526076 0
M  V30 993 C 84.5367 3.2141 -1.13617 0
M  V30 994 H 85.7297 1.86941 -2.34506 0
M  V30 995 H 83.2827 0.944676 -1.24521 0
M  V30 996 H 84.0177 3.23865 -0.167863 0
M  V30 997 H 83.8027 3.4109 -1.93391 0
M  V30 998 H 85.2927 4.01477 -1.14918 0
M  V30 999 N 85.7298 1.2412 0.971189 0
M  V30 1000 C 86.9768 1.07881 1.71371 0
M  V30 1001 C 87.3048 -0.382901 1.90694 0
M  V30 1002 O 86.5598 -1.29945 1.46331 0
M  V30 1003 C 86.8588 1.75983 3.11071 0
M  V30 1004 C 86.5248 3.25909 3.11599 0
M  V30 1005 C 85.1868 3.66813 3.11451 0
M  V30 1006 C 87.5388 4.21771 3.062 0
M  V30 1007 C 84.8668 5.02021 3.03631 0
M  V30 1008 C 87.2188 5.56982 2.99923 0
M  V30 1009 C 85.8828 5.97237 2.98102 0
M  V30 1010 H 85.1528 0.394764 0.62709 0
M  V30 1011 H 87.7998 1.54176 1.13587 0
M  V30 1012 H 86.1048 1.22072 3.72298 0
M  V30 1013 H 87.8018 1.60887 3.6731 0
M  V30 1014 H 84.3918 2.93353 3.12477 0
M  V30 1015 H 88.5758 3.91172 3.05447 0
M  V30 1016 H 83.8318 5.32411 3.0058 0
M  V30 1017 H 88.0058 6.30969 2.94704 0
M  V30 1018 H 85.6328 7.01967 2.91798 0
M  V30 1019 N 87.2079 -1.17134 1.05439 0
M  V30 1020 C 88.4379 -1.91094 0.785274 0
M  V30 1021 C 88.8459 -1.77198 -0.663142 0
M  V30 1022 O 88.1889 -1.10835 -1.46497 0
M  V30 1023 C 88.2509 -3.42594 1.08949 0
M  V30 1024 C 87.9149 -3.80274 2.53458 0
M  V30 1025 C 88.9119 -3.82912 3.51673 0
M  V30 1026 C 86.5969 -4.11162 2.88532 0
M  V30 1027 C 88.5909 -4.15913 4.83006 0
M  V30 1028 C 86.2779 -4.43831 4.20068 0
M  V30 1029 C 87.2759 -4.46185 5.17115 0
M  V30 1030 O 86.9639 -4.78083 6.46291 0
M  V30 1031 H 86.6959 -0.613073 0.284811 0
M  V30 1032 H 89.2499 -1.49461 1.40893 0
M  V30 1033 H 87.4799 -3.84534 0.408741 0
M  V30 1034 H 89.1689 -3.97817 0.805991 0
M  V30 1035 H 89.9349 -3.5917 3.25917 0
M  V30 1036 H 85.8139 -4.085 2.13656 0
M  V30 1037 H 89.3579 -4.17665 5.5875 0
M  V30 1038 H 85.2549 -4.67037 4.45586 0
M  V30 1039 H 86.0229 -4.9593 6.51149 0
M  V30 1040 N 88.686 -0.835752 -1.33615 0
M  V30 1041 C 89.914 -0.443344 -2.02094 0
M  V30 1042 C 90.329 0.954522 -1.62894 0
M  V30 1043 O 89.686 1.61982 -0.840723 0
M  V30 1044 C 89.737 -0.550775 -3.5728 0
M  V30 1045 O 89.458 -1.89356 -3.95065 0
M  V30 1046 C 90.959 -0.154919 -4.43029 0
M  V30 1047 H 88.179 -0.176359 -0.647409 0
M  V30 1048 H 90.723 -1.12746 -1.70612 0
M  V30 1049 H 88.878 0.0853997 -3.87306 0
M  V30 1050 H 89.292 -1.87687 -4.89769 0
M  V30 1051 H 90.766 -0.281144 -5.51284 0
M  V30 1052 H 91.243 0.902863 -4.2982 0
M  V30 1053 H 91.849 -0.765404 -4.18356 0
M  V30 1054 N 90.1641 1.46063 -0.591896 0
M  V30 1055 C 91.1121 2.32124 0.148739 0
M  V30 1056 C 92.1061 1.45035 0.875286 0
M  V30 1057 O 93.3121 1.61609 0.792632 0
M  V30 1058 H 89.6871 0.749024 0.066832 0
M  V30 1059 H 91.6581 2.92392 -0.595783 0
M  V30 1060 C 90.4071 3.28373 1.1431 0
M  V30 1061 H 89.7301 3.95371 0.59346 0
M  V30 1062 H 91.1701 3.91352 1.63155 0
M  V30 1063 C 89.6291 2.54393 2.20875 0
M  V30 1064 O 90.1591 2.31373 3.28374 0
M  V30 1065 N 88.3651 2.14797 1.95731 0
M  V30 1066 H 87.9121 2.33719 1.08319 0
M  V30 1067 H 87.8701 1.65619 2.67241 0
M  V30 1068 N 91.6422 0.330177 1.54103 0
M  V30 1069 C 92.8722 -0.271784 2.04805 0
M  V30 1070 C 93.2802 -1.45816 1.20559 0
M  V30 1071 O 92.6232 -1.82247 0.2306 0
M  V30 1072 C 92.6852 -0.763238 3.51305 0
M  V30 1073 C 92.3492 0.301705 4.56003 0
M  V30 1074 C 93.3462 1.13999 5.07248 0
M  V30 1075 C 91.0312 0.451793 5.00264 0
M  V30 1076 C 93.0252 2.11402 6.01322 0
M  V30 1077 C 90.7122 1.42924 5.94151 0
M  V30 1078 C 91.7102 2.25882 6.44567 0
M  V30 1079 O 91.3982 3.21965 7.3661 0
M  V30 1080 H 91.1302 -0.058693 0.673447 0
M  V30 1081 H 93.6842 0.476395 1.99799 0
M  V30 1082 H 91.9142 -1.56244 3.5373 0
M  V30 1083 H 93.6032 -1.28427 3.85047 0
M  V30 1084 H 94.3692 1.03505 4.73827 0
M  V30 1085 H 90.2482 -0.184044 4.60632 0
M  V30 1086 H 93.7922 2.76192 6.40596 0
M  V30 1087 H 89.6892 1.53479 6.26988 0
M  V30 1088 H 90.4572 3.17281 7.54503 0
M  V30 1089 N 93.1203 -1.57491 0.0584922 0
M  V30 1090 C 94.5313 -1.80526 -0.476138 0
M  V30 1091 C 94.8823 -0.971334 -1.70469 0
M  V30 1092 O 94.0073 -0.190012 -2.15564 0
M  V30 1093 C 94.6023 -3.27424 -0.870587 0
M  V30 1094 C 93.1613 -3.51351 -1.35015 0
M  V30 1095 C 92.3083 -2.75343 -0.32887 0
M  V30 1096 H 95.2593 -1.56133 0.284312 0
M  V30 1097 H 95.2803 -3.38745 -1.73299 0
M  V30 1098 H 94.7923 -3.88093 0.0237627 0
M  V30 1099 H 92.8933 -2.95971 -2.26345 0
M  V30 1100 H 93.0063 -4.60059 -1.33726 0
M  V30 1101 H 91.3703 -2.417 -0.803321 0
M  V30 1102 H 92.1533 -3.38743 0.557521 0
M  V30 1103 N 94.5984 0.214957 -1.56127 0
M  V30 1104 C 95.5084 1.28727 -1.96129 0
M  V30 1105 C 96.5244 1.50916 -0.866044 0
M  V30 1106 O 97.7004 1.63918 -1.17016 0
M  V30 1107 C 94.7654 2.61569 -2.27558 0
M  V30 1108 C 93.8264 2.47625 -3.50685 0
M  V30 1109 C 93.0594 3.74132 -3.80606 0
M  V30 1110 O 93.2824 4.77438 -3.12104 0
M  V30 1111 O 92.2164 3.70849 -4.74083 0
M  V30 1112 H 96.0424 0.977855 -2.87527 0
M  V30 1113 H 93.6274 0.418358 -1.43423 0
M  V30 1114 H 95.5094 3.40012 -2.48938 0
M  V30 1115 H 94.1844 2.92178 -1.39332 0
M  V30 1116 H 93.0914 1.67361 -3.34576 0
M  V30 1117 H 94.4244 2.21954 -4.39315 0
M  V30 1118 N 96.0765 1.50051 0.48192 0
M  V30 1119 C 97.0395 1.67584 1.5636 0
M  V30 1120 C 98.0395 0.546894 1.51214 0
M  V30 1121 O 99.2295 0.813725 1.54026 0
M  V30 1122 C 96.3615 1.691 2.96003 0
M  V30 1123 H 97.5545 2.64078 1.42136 0
M  V30 1124 H 95.1075 1.39369 0.707533 0
M  V30 1125 H 95.8425 0.742589 3.15684 0
M  V30 1126 H 95.6275 2.51105 3.01146 0
M  V30 1127 H 97.1175 1.84656 3.74556 0
M  V30 1128 N 97.5546 -0.734337 1.39446 0
M  V30 1129 C 98.8006 -1.49505 1.37913 0
M  V30 1130 C 99.1556 -1.92384 -0.0248416 0
M  V30 1131 O 98.4486 -1.6395 -0.991506 0
M  V30 1132 C 98.6426 -2.74711 2.28623 0
M  V30 1133 C 98.4716 -2.44075 3.777 0
M  V30 1134 C 97.2416 -2.36338 4.46623 0
M  V30 1135 C 99.4396 -2.09574 4.69663 0
M  V30 1136 N 97.4216 -1.9818 5.81032 0
M  V30 1137 C 98.7926 -1.81865 5.92727 0
M  V30 1138 C 100.848 -1.96048 4.57678 0
M  V30 1139 C 99.5506 -1.41992 7.05146 0
M  V30 1140 C 101.577 -1.57579 5.7002 0
M  V30 1141 C 100.939 -1.30754 6.92158 0
M  V30 1142 H 97.0376 -0.545896 0.55993 0
M  V30 1143 H 99.6216 -0.853373 1.75002 0
M  V30 1144 H 97.7926 -3.36657 1.93692 0
M  V30 1145 H 99.5246 -3.40916 2.18078 0
M  V30 1146 H 96.2796 -2.53456 4.00071 0
M  V30 1147 H 96.7036 -1.81691 6.52163 0
M  V30 1148 H 101.346 -2.15455 3.63784 0
M  V30 1149 H 99.0636 -1.21327 7.9894 0
M  V30 1150 H 102.65 -1.47718 5.62735 0
M  V30 1151 H 101.53 -1.01432 7.77612 0
M  V30 1152 N 99.0327 -1.24633 -0.964593 0
M  V30 1153 C 100.279 -1.08949 -1.71049 0
M  V30 1154 C 100.612 0.370302 -1.90637 0
M  V30 1155 O 99.8867 1.27349 -1.47011 0
M  V30 1156 C 100.17 -1.83329 -3.0994 0
M  V30 1157 C 100.023 -3.37077 -2.97824 0
M  V30 1158 C 101.342 -1.60846 -4.09654 0
M  V30 1159 H 98.4607 -0.397178 -0.620821 0
M  V30 1160 H 101.103 -1.5334 -1.12191 0
M  V30 1161 H 99.2527 -1.45597 -3.60186 0
M  V30 1162 H 100.925 -3.84425 -2.5498 0
M  V30 1163 H 99.1677 -3.65298 -2.33965 0
M  V30 1164 H 99.8387 -3.84324 -3.96231 0
M  V30 1165 H 102.315 -1.93674 -3.68279 0
M  V30 1166 H 101.191 -2.1534 -5.04896 0
M  V30 1167 H 101.452 -0.547434 -4.38698 0
M  V30 1168 N 100.511 1.16574 -1.06058 0
M  V30 1169 C 101.736 1.91493 -0.796562 0
M  V30 1170 C 102.161 1.76773 0.642868 0
M  V30 1171 O 101.519 1.09142 1.44768 0
M  V30 1172 C 101.567 3.40293 -1.19303 0
M  V30 1173 O 100.671 4.11074 -0.330394 0
M  V30 1174 H 100.012 0.596678 -0.291326 0
M  V30 1175 H 102.542 1.47708 -1.41575 0
M  V30 1176 H 102.552 3.91057 -1.16356 0
M  V30 1177 H 101.227 3.50326 -2.24153 0
M  V30 1178 H 99.8038 3.70513 -0.421225 0
M  V30 1179 N 101.989 0.842826 1.3317 0
M  V30 1180 C 103.219 0.453397 2.01564 0
M  V30 1181 C 103.627 -0.951147 1.63554 0
M  V30 1182 O 102.97 -1.63021 0.846746 0
M  V30 1183 C 103.032 0.499013 3.5602 0
M  V30 1184 C 102.696 1.86037 4.1742 0
M  V30 1185 C 103.693 2.82416 4.36506 0
M  V30 1186 C 101.378 2.15428 4.53757 0
M  V30 1187 C 103.372 4.06346 4.91082 0
M  V30 1188 C 101.059 3.39615 5.0804 0
M  V30 1189 C 102.057 4.3489 5.26649 0
M  V30 1190 O 101.745 5.5688 5.79776 0
M  V30 1191 H 101.477 0.177871 0.652179 0
M  V30 1192 H 104.031 1.13808 1.70988 0
M  V30 1193 H 102.261 -0.242467 3.85939 0
M  V30 1194 H 103.95 0.126852 4.05702 0
M  V30 1195 H 104.716 2.6101 4.08777 0
M  V30 1196 H 100.595 1.42061 4.38565 0
M  V30 1197 H 104.139 4.80722 5.05522 0
M  V30 1198 H 100.036 3.60876 5.352 0
M  V30 1199 H 100.804 5.58674 5.98185 0
M  V30 1200 N 103.467 -1.45747 0.599634 0
M  V30 1201 C 104.697 -2.06369 0.0977132 0
M  V30 1202 C 105.105 -1.44624 -1.21985 0
M  V30 1203 O 104.448 -0.551831 -1.75216 0
M  V30 1204 C 104.51 -3.59284 -0.124673 0
M  V30 1205 C 104.174 -4.43318 1.10987 0
M  V30 1206 C 105.171 -4.78796 2.02609 0
M  V30 1207 C 102.856 -4.84194 1.33647 0
M  V30 1208 C 104.85 -5.53997 3.15224 0
M  V30 1209 C 102.537 -5.5915 2.46565 0
M  V30 1210 C 103.535 -5.93968 3.37182 0
M  V30 1211 O 103.223 -6.67405 4.48136 0
M  V30 1212 H 102.955 -0.673122 0.0623153 0
M  V30 1213 H 105.509 -1.88104 0.824981 0
M  V30 1214 H 103.739 -3.75919 -0.906745 0
M  V30 1215 H 105.428 -4.01775 -0.577201 0
M  V30 1216 H 106.194 -4.47781 1.86325 0
M  V30 1217 H 102.073 -4.56534 0.64016 0
M  V30 1218 H 105.617 -5.81091 3.85978 0
M  V30 1219 H 101.514 -5.89579 2.62805 0
M  V30 1220 H 102.282 -6.85847 4.46717 0
M  V30 1221 N 104.945 -0.338344 -1.53925 0
M  V30 1222 C 105.877 0.555117 -2.22376 0
M  V30 1223 C 106.89 1.06812 -1.22862 0
M  V30 1224 O 108.079 0.979163 -1.49247 0
M  V30 1225 C 105.179 1.77609 -2.88631 0
M  V30 1226 C 104.352 1.39927 -4.14414 0
M  V30 1227 C 103.411 2.47936 -4.64127 0
M  V30 1228 O 102.437 2.11461 -5.28463 0
M  V30 1229 N 103.639 3.79107 -4.39612 0
M  V30 1230 H 106.404 -0.0310778 -2.99684 0
M  V30 1231 H 103.965 -0.162226 -1.61085 0
M  V30 1232 H 105.957 2.49287 -3.18807 0
M  V30 1233 H 104.527 2.26978 -2.14941 0
M  V30 1234 H 103.747 0.513481 -3.90841 0
M  V30 1235 H 105.035 1.12341 -4.96243 0
M  V30 1236 H 104.433 4.11531 -3.88148 0
M  V30 1237 H 102.99 4.4697 -4.74406 0
M  V30 1238 N 106.423 1.57458 -0.0668435 0
M  V30 1239 C 107.386 2.11323 0.887422 0
M  V30 1240 C 108.386 1.03618 1.22964 0
M  V30 1241 O 109.576 1.29626 1.16373 0
M  V30 1242 C 106.708 2.61048 2.19242 0
M  V30 1243 H 107.901 2.96942 0.420194 0
M  V30 1244 H 105.454 1.55239 0.181793 0
M  V30 1245 H 106.189 1.78868 2.70512 0
M  V30 1246 H 105.974 3.39769 1.95702 0
M  V30 1247 H 107.464 3.02814 2.87565 0
M  V30 1248 N 107.901 -0.206675 1.56239 0
M  V30 1249 C 108.848 -1.25617 1.93621 0
M  V30 1250 C 109.818 -1.45824 0.795274 0
M  V30 1251 O 111.003 -1.59148 1.05245 0
M  V30 1252 C 108.143 -2.59839 2.27107 0
M  V30 1253 C 107.256 -2.47308 3.54207 0
M  V30 1254 C 106.391 -3.74155 3.7707 0
M  V30 1255 C 105.43 -3.56407 4.97635 0
M  V30 1256 N 104.567 -4.75238 5.1681 0
M  V30 1257 H 109.407 -0.930383 2.83104 0
M  V30 1258 H 106.944 -0.448065 1.4011 0
M  V30 1259 H 108.902 -3.38021 2.44535 0
M  V30 1260 H 107.532 -2.90485 1.40778 0
M  V30 1261 H 106.584 -1.60483 3.4489 0
M  V30 1262 H 107.896 -2.30122 4.42544 0
M  V30 1263 H 107.05 -4.60778 3.94675 0
M  V30 1264 H 105.789 -3.94282 2.87042 0
M  V30 1265 H 104.794 -2.68168 4.79964 0
M  V30 1266 H 106.019 -3.37736 5.89161 0
M  V30 1267 H 103.965 -4.95651 4.29728 0
M  V30 1268 H 103.882 -4.60835 5.99306 0
M  V30 1269 H 105.15 -5.63246 5.38864 0
M  V30 1270 N 109.379 -1.50304 -0.473955 0
M  V30 1271 C 110.327 -1.69482 -1.59307 0
M  V30 1272 C 111.321 -0.560669 -1.59853 0
M  V30 1273 O 112.527 -0.741087 -1.64036 0
M  V30 1274 H 108.902 -0.534892 -0.528578 0
M  V30 1275 H 110.873 -2.63364 -1.40293 0
M  V30 1276 C 109.622 -1.80354 -2.97267 0
M  V30 1277 H 108.945 -2.67012 -2.97564 0
M  V30 1278 H 110.385 -1.97798 -3.75036 0
M  V30 1279 C 108.844 -0.55448 -3.32306 0
M  V30 1280 O 109.374 0.307661 -4.0052 0
M  V30 1281 N 107.58 -0.409354 -2.87702 0
M  V30 1282 H 107.127 -1.11196 -2.32364 0
M  V30 1283 H 107.085 0.425223 -3.11511 0
M  V30 1284 N 110.857 0.726932 -1.39834 0
M  V30 1285 C 112.104 1.48664 -1.37496 0
M  V30 1286 C 112.432 1.94482 0.0264678 0
M  V30 1287 O 111.687 1.67692 1.00886 0
M  V30 1288 C 111.986 2.73495 -2.30077 0
M  V30 1289 C 111.652 2.46502 -3.77555 0
M  V30 1290 C 110.314 2.3885 -4.17737 0
M  V30 1291 C 112.666 2.23604 -4.70798 0
M  V30 1292 C 109.994 2.06352 -5.49214 0
M  V30 1293 C 112.346 1.92622 -6.02561 0
M  V30 1294 C 111.01 1.83444 -6.41798 0
M  V30 1295 H 110.28 0.544001 -0.503135 0
M  V30 1296 H 112.927 0.833657 -1.72402 0
M  V30 1297 H 111.232 3.43575 -1.88317 0
M  V30 1298 H 112.929 3.31549 -2.25558 0
M  V30 1299 H 109.519 2.5334 -3.45712 0
M  V30 1300 H 113.703 2.28479 -4.40581 0
M  V30 1301 H 108.959 1.97776 -5.78528 0
M  V30 1302 H 113.133 1.73914 -6.74334 0
M  V30 1303 H 110.76 1.58029 -7.43593 0
M  V30 1304 N 112.336 1.25143 0.95797 0
M  V30 1305 C 113.266 1.07711 2.07173 0
M  V30 1306 C 114.247 -0.0128462 1.70095 0
M  V30 1307 O 115.432 0.156061 1.93572 0
M  V30 1308 C 112.562 0.691503 3.40346 0
M  V30 1309 C 111.516 1.73132 3.9142 0
M  V30 1310 C 110.842 1.20049 5.21049 0
M  V30 1311 C 112.142 3.1294 4.1817 0
M  V30 1312 H 113.836 2.00873 2.22014 0
M  V30 1313 H 111.382 0.967191 1.06684 0
M  V30 1314 H 113.335 0.556505 4.17709 0
M  V30 1315 H 112.059 -0.275819 3.25433 0
M  V30 1316 H 110.718 1.8547 3.16222 0
M  V30 1317 H 110.366 0.223499 5.02503 0
M  V30 1318 H 110.066 1.89545 5.56189 0
M  V30 1319 H 111.59 1.07782 6.01012 0
M  V30 1320 H 113.004 3.03775 4.86203 0
M  V30 1321 H 111.401 3.79875 4.64559 0
M  V30 1322 H 112.471 3.6025 3.24573 0
M  V30 1323 N 113.814 -1.1601 1.06675 0
M  V30 1324 C 114.777 -2.18724 0.685001 0
M  V30 1325 C 115.777 -1.58496 -0.271246 0
M  V30 1326 O 116.967 -1.74119 -0.0531156 0
M  V30 1327 C 114.099 -3.40899 0.00853648 0
M  V30 1328 H 115.292 -2.54011 1.59431 0
M  V30 1329 H 112.845 -1.30352 0.862441 0
M  V30 1330 H 113.58 -3.11173 -0.913337 0
M  V30 1331 H 113.365 -3.8587 0.696204 0
M  V30 1332 H 114.855 -4.16886 -0.24414 0
M  V30 1333 N 115.292 -0.849877 -1.32721 0
M  V30 1334 C 116.541 -0.447175 -1.96681 0
M  V30 1335 C 116.854 1.00135 -1.68025 0
M  V30 1336 O 118.06 1.50926 -2.25685 0
M  V30 1337 C 116.516 -0.7487 -3.52026 0
M  V30 1338 C 116.124 -2.21264 -3.89546 0
M  V30 1339 C 117.868 -0.413487 -4.22481 0
M  V30 1340 C 115.775 -2.45763 -5.37917 0
M  V30 1341 H 114.705 -0.163486 -0.736063 0
M  V30 1342 H 117.356 -1.03999 -1.51183 0
M  V30 1343 H 115.738 -0.0853727 -3.95908 0
M  V30 1344 H 116.912 -2.91736 -3.56689 0
M  V30 1345 H 115.227 -2.5119 -3.32103 0
M  V30 1346 H 117.824 -0.574017 -5.3161 0
M  V30 1347 H 118.167 0.644492 -4.11281 0
M  V30 1348 H 118.7 -1.03251 -3.84167 0
M  V30 1349 H 115.439 -3.50168 -5.54132 0
M  V30 1350 H 114.959 -1.79864 -5.72197 0
M  V30 1351 H 116.638 -2.29471 -6.0494 0
M  V30 1352 N 116.77 1.45427 -0.607355 0
M  V30 1353 C 118.047 1.9557 -0.0344566 0
M  V30 1354 C 118.427 1.54979 1.43334 0
M  V30 1355 O 117.775 0.812241 2.13576 0
M  V30 1356 C 117.985 3.48226 -0.232321 0
M  V30 1357 C 119.333 4.2445 -0.113001 0
M  V30 1358 O 120.357 3.55829 -0.162431 0
M  V30 1359 O 119.216 5.465 0.00209442 0
M  V30 1360 H 116.31 0.826222 0.0358667 0
M  V30 1361 H 118.856 1.55594 -0.6774 0
M  V30 1362 H 117.628 3.70739 -1.25174 0
M  V30 1363 H 117.251 3.95092 0.445896 0
M  V30 1364 N 118.248 0.346503 1.53744 0
M  V30 1365 C 119.659 -0.136779 1.86198 0
M  V30 1366 C 120.01 -1.49749 1.26766 0
M  V30 1367 O 119.135 -2.08417 0.582355 0
M  V30 1368 C 119.73 -0.254966 3.37839 0
M  V30 1369 C 118.289 -0.682482 3.70161 0
M  V30 1370 C 117.436 0.181981 2.76702 0
M  V30 1371 H 120.387 0.565994 1.48264 0
M  V30 1372 H 120.408 -1.08195 3.64793 0
M  V30 1373 H 119.92 0.735526 3.81066 0
M  V30 1374 H 118.021 -1.68189 3.3248 0
M  V30 1375 H 118.134 -0.470326 4.76786 0
M  V30 1376 H 116.498 -0.34615 2.52337 0
M  V30 1377 H 117.281 1.16966 3.2276 0
M  V30 1378 N 119.726 -1.57421 0.075193 0
M  V30 1379 C 120.972 -1.93905 -0.594025 0
M  V30 1380 C 121.305 -0.955701 -1.69056 0
M  V30 1381 O 120.58 0.0145373 -1.94495 0
M  V30 1382 C 120.863 -3.40638 -1.1678 0
M  V30 1383 C 120.716 -4.49733 -0.0776792 0
M  V30 1384 C 122.035 -3.88259 -2.07228 0
M  V30 1385 H 119.154 -0.705105 -0.214466 0
M  V30 1386 H 121.796 -1.8947 0.141854 0
M  V30 1387 H 119.946 -3.44549 -1.79494 0
M  V30 1388 H 121.618 -4.57942 0.555573 0
M  V30 1389 H 119.861 -4.29751 0.591286 0
M  V30 1390 H 120.532 -5.49549 -0.519603 0
M  V30 1391 H 123.008 -3.86376 -1.54445 0
M  V30 1392 H 121.884 -4.91533 -2.44308 0
M  V30 1393 H 122.145 -3.26396 -2.98191 0
M  V30 1394 N 121.204 0.198386 -1.56346 0
M  V30 1395 C 122.134 1.24865 -1.9731 0
M  V30 1396 C 123.115 1.47651 -0.844576 0
M  V30 1397 O 124.3 1.59444 -1.10866 0
M  V30 1398 C 121.43 2.59358 -2.30977 0
M  V30 1399 C 120.384 2.5119 -3.46537 0
M  V30 1400 C 119.71 3.89926 -3.65871 0
M  V30 1401 C 121.01 2.03977 -4.80823 0
M  V30 1402 H 122.704 0.908252 -2.85291 0
M  V30 1403 H 120.25 0.435462 -1.37258 0
M  V30 1404 H 122.203 3.33011 -2.58228 0
M  V30 1405 H 120.927 2.95132 -1.39874 0
M  V30 1406 H 119.586 1.79993 -3.19371 0
M  V30 1407 H 119.234 4.23046 -2.72105 0
M  V30 1408 H 118.934 3.85336 -4.4361 0
M  V30 1409 H 120.458 4.65205 -3.95495 0
M  V30 1410 H 121.872 2.67386 -5.07127 0
M  V30 1411 H 120.269 2.10397 -5.62008 0
M  V30 1412 H 121.339 0.992861 -4.74626 0
M  V30 1413 N 122.682 1.50554 0.465978 0
M  V30 1414 C 123.63 1.70324 1.58406 0
M  V30 1415 C 124.624 0.569139 1.59553 0
M  V30 1416 O 125.83 0.749776 1.63641 0
M  V30 1417 H 122.205 0.537688 0.525734 0
M  V30 1418 H 124.176 2.64104 1.38894 0
M  V30 1419 C 122.925 1.81928 2.96307 0
M  V30 1420 H 122.248 2.68586 2.96144 0
M  V30 1421 H 123.688 1.99784 3.73982 0
M  V30 1422 C 122.147 0.572095 3.32007 0
M  V30 1423 O 122.677 -0.286416 4.00678 0
M  V30 1424 N 120.883 0.424606 2.87481 0
M  V30 1425 H 120.43 1.12427 2.31771 0
M  V30 1426 H 120.388 -0.408697 3.11732 0
M  V30 1427 N 124.16 -0.719506 1.40217 0
M  V30 1428 C 125.571 -1.29848 1.34151 0
M  V30 1429 C 125.922 -1.96196 0.0131349 0
M  V30 1430 O 125.047 -1.973 -0.88892 0
M  V30 1431 C 125.642 -2.36118 2.42968 0
M  V30 1432 C 124.201 -2.8965 2.40374 0
M  V30 1433 C 123.348 -1.63393 2.24049 0
M  V30 1434 H 126.299 -0.51591 1.5008 0
M  V30 1435 H 126.32 -3.16871 2.10649 0
M  V30 1436 H 125.832 -1.878 3.39636 0
M  V30 1437 H 123.933 -3.42208 1.47392 0
M  V30 1438 H 124.046 -3.4171 3.35814 0
M  V30 1439 H 122.41 -1.88312 1.71495 0
M  V30 1440 H 123.193 -1.17104 3.2271 0
M  V30 1441 N 125.638 -1.25649 -0.95132 0
M  V30 1442 C 126.548 -1.08073 -2.08224 0
M  V30 1443 C 127.564 -0.0169666 -1.73992 0
M  V30 1444 O 128.74 -0.218593 -2.0021 0
M  V30 1445 C 125.805 -0.704922 -3.39458 0
M  V30 1446 C 124.866 -1.84699 -3.87537 0
M  V30 1447 C 124.099 -1.48902 -5.12508 0
M  V30 1448 O 124.322 -0.386156 -5.69091 0
M  V30 1449 O 123.256 -2.32033 -5.55378 0
M  V30 1450 H 127.082 -2.02924 -2.25954 0
M  V30 1451 H 124.667 -1.04618 -1.06656 0
M  V30 1452 H 126.549 -0.507609 -4.18332 0
M  V30 1453 H 125.224 0.214291 -3.2299 0
M  V30 1454 H 124.131 -2.09919 -3.09653 0
M  V30 1455 H 125.464 -2.74557 -4.08509 0
M  V30 1456 N 127.117 1.15442 -1.07289 0
M  V30 1457 C 128.065 2.22225 -0.686952 0
M  V30 1458 C 129.059 1.66688 0.30193 0
M  V30 1459 O 130.265 1.79236 0.165712 0
M  V30 1460 H 126.64 0.723783 -0.204064 0
M  V30 1461 H 128.611 2.52056 -1.5972 0
M  V30 1462 C 127.36 3.47556 -0.100149 0
M  V30 1463 H 126.683 3.90612 -0.852211 0
M  V30 1464 H 128.123 4.23794 0.132235 0
M  V30 1465 C 126.582 3.16337 1.159 0
M  V30 1466 O 127.112 3.33074 2.24555 0
M  V30 1467 N 125.318 2.70385 1.06491 0
M  V30 1468 H 124.865 2.56966 0.180668 0
M  V30 1469 H 124.823 2.49871 1.90819 0
M  V30 1470 N 128.595 0.856903 1.32268 0
M  V30 1471 C 129.842 0.461386 1.97174 0
M  V30 1472 C 130.17 -0.983491 1.67803 0
M  V30 1473 O 129.425 -1.70541 0.959903 0
M  V30 1474 C 129.724 0.649919 3.51441 0
M  V30 1475 C 129.39 2.0656 4.00804 0
M  V30 1476 C 128.052 2.45279 4.13995 0
M  V30 1477 C 130.404 2.98947 4.26943 0
M  V30 1478 C 127.732 3.75653 4.50668 0
M  V30 1479 C 130.084 4.28822 4.65075 0
M  V30 1480 C 128.748 4.67472 4.76472 0
M  V30 1481 H 128.018 0.168833 0.72151 0
M  V30 1482 H 130.665 1.08739 1.57633 0
M  V30 1483 H 128.97 -0.0593018 3.91755 0
M  V30 1484 H 130.667 0.32391 3.9969 0
M  V30 1485 H 127.257 1.75495 3.91024 0
M  V30 1486 H 131.441 2.70265 4.16258 0
M  V30 1487 H 126.697 4.05379 4.57688 0
M  V30 1488 H 130.871 5.0047 4.84255 0
M  V30 1489 H 128.498 5.68539 5.04646 0
M  V30 1490 N 130.073 -1.45103 0.615059 0
M  V30 1491 C 131.298 -2.07064 0.117988 0
M  V30 1492 C 131.723 -1.4554 -1.19163 0
M  V30 1493 O 131.081 -0.550855 -1.72729 0
M  V30 1494 C 131.129 -3.606 -0.000288387 0
M  V30 1495 O 130.233 -3.98847 -1.04856 0
M  V30 1496 H 129.574 -0.659467 0.0774581 0
M  V30 1497 H 132.104 -1.86236 0.847186 0
M  V30 1498 H 132.114 -4.07529 -0.196091 0
M  V30 1499 H 130.789 -4.04765 0.955932 0
M  V30 1500 H 129.366 -3.63577 -0.828619 0
M  V30 1501 N 131.551 -0.354651 -1.53558 0
M  V30 1502 C 132.483 0.5315 -2.22952 0
M  V30 1503 C 133.496 1.05503 -1.23988 0
M  V30 1504 O 134.685 0.963279 -1.50277 0
M  V30 1505 C 131.785 1.74538 -2.90499 0
M  V30 1506 C 130.958 1.35524 -4.15875 0
M  V30 1507 C 130.017 2.42999 -4.66731 0
M  V30 1508 O 129.043 2.05844 -5.30676 0
M  V30 1509 N 130.245 3.74423 -4.43608 0
M  V30 1510 H 133.01 -0.0628615 -2.99634 0
M  V30 1511 H 130.571 -0.179302 -1.60904 0
M  V30 1512 H 132.563 2.45892 -3.21433 0
M  V30 1513 H 131.133 2.24686 -2.17336 0
M  V30 1514 H 130.353 0.471998 -3.91364 0
M  V30 1515 H 131.641 1.07071 -4.97406 0
M  V30 1516 H 131.039 4.07391 -3.92491 0
M  V30 1517 H 129.596 4.41913 -4.7912 0
M  V30 1518 N 133.029 1.57378 -0.0835403 0
M  V30 1519 C 134.277 1.93547 0.581718 0
M  V30 1520 C 134.598 0.96524 1.69435 0
M  V30 1521 O 133.868 0.0153369 1.95894 0
M  V30 1522 H 132.448 0.714521 0.217874 0
M  V30 1523 H 135.11 1.94366 -0.144158 0
M  V30 1524 H 134.206 2.95665 0.999423 0
M  V30 1525 N 134.507 -0.190092 1.56449 0
M  V30 1526 C 135.457 -1.23977 1.91347 0
M  V30 1527 C 136.441 -1.40747 0.779693 0
M  V30 1528 O 137.633 -1.43033 1.04262 0
M  V30 1529 C 134.762 -2.58347 2.26079 0
M  V30 1530 C 133.848 -2.4535 3.45925 0
M  V30 1531 N 134.239 -2.02039 4.63696 0
M  V30 1532 C 132.537 -2.76229 3.50162 0
M  V30 1533 C 133.238 -2.01053 5.4585 0
M  V30 1534 N 132.214 -2.42747 4.8639 0
M  V30 1535 H 136.016 -0.896318 2.79899 0
M  V30 1536 H 133.53 -0.398496 1.57435 0
M  V30 1537 H 135.527 -3.34173 2.49267 0
M  V30 1538 H 134.187 -2.93512 1.38856 0
M  V30 1539 H 135.198 -1.7267 4.88268 0
M  V30 1540 H 131.875 -3.15556 2.73369 0
M  V30 1541 H 133.265 -1.69426 6.50188 0
M  V30 1542 N 135.985 -1.50799 -0.457987 0
M  V30 1543 C 136.915 -1.73553 -1.5621 0
M  V30 1544 C 137.896 -0.584774 -1.59732 0
M  V30 1545 O 139.081 -0.825314 -1.7579 0
M  V30 1546 C 136.211 -1.84169 -2.94447 0
M  V30 1547 C 135.165 -2.99461 -3.0579 0
M  V30 1548 C 134.491 -2.95235 -4.45803 0
M  V30 1549 C 135.791 -4.39766 -2.81786 0
M  V30 1550 H 137.485 -2.66 -1.37421 0
M  V30 1551 H 135.031 -1.28002 -0.659662 0
M  V30 1552 H 136.984 -1.98672 -3.71628 0
M  V30 1553 H 135.708 -0.883545 -3.14422 0
M  V30 1554 H 134.367 -2.8463 -2.31044 0
M  V30 1555 H 134.015 -1.97239 -4.62715 0
M  V30 1556 H 133.715 -3.72642 -4.54326 0
M  V30 1557 H 135.239 -3.11803 -5.24987 0
M  V30 1558 H 136.653 -4.55054 -3.4871 0
M  V30 1559 H 135.05 -5.18722 -3.0174 0
M  V30 1560 H 136.12 -4.51229 -1.7754 0
M  V30 1561 N 137.463 0.71206 -1.40597 0
M  V30 1562 C 138.396 1.83582 -1.35546 0
M  V30 1563 C 139.374 1.61032 -0.225284 0
M  V30 1564 O 140.558 1.83998 -0.409519 0
M  V30 1565 C 137.685 3.19983 -1.11034 0
M  V30 1566 C 136.731 3.61355 -2.2655 0
M  V30 1567 S 137.564 3.68062 -3.88961 0
M  V30 1568 C 138.72 5.07216 -3.66719 0
M  V30 1569 H 138.953 1.87586 -2.30648 0
M  V30 1570 H 136.486 0.879182 -1.26924 0
M  V30 1571 H 138.444 3.98734 -0.975761 0
M  V30 1572 H 137.105 3.13608 -0.175798 0
M  V30 1573 H 136.298 4.60403 -2.0505 0
M  V30 1574 H 135.9 2.8987 -2.36329 0
M  V30 1575 H 138.192 5.94238 -3.25404 0
M  V30 1576 H 139.135 5.33753 -4.6531 0
M  V30 1577 H 139.543 4.77976 -3.00332 0
M  V30 1578 N 138.941 1.26152 0.944643 0
M  V30 1579 C 140.187 1.12665 1.69346 0
M  V30 1580 C 140.542 -0.3273 1.89596 0
M  V30 1581 O 139.835 -1.23717 1.46303 0
M  V30 1582 C 140.029 1.82541 3.07268 0
M  V30 1583 C 139.858 3.34582 3.00475 0
M  V30 1584 C 138.628 4.03863 3.03681 0
M  V30 1585 C 140.826 4.30828 2.80877 0
M  V30 1586 N 138.808 5.42603 2.87151 0
M  V30 1587 C 140.179 5.5672 2.7288 0
M  V30 1588 C 142.234 4.21122 2.65633 0
M  V30 1589 C 140.937 6.74013 2.51196 0
M  V30 1590 C 142.963 5.38118 2.45323 0
M  V30 1591 C 142.325 6.62955 2.38055 0
M  V30 1592 H 138.424 0.467041 0.627214 0
M  V30 1593 H 141.008 1.59391 1.11815 0
M  V30 1594 H 139.179 1.38296 3.62945 0
M  V30 1595 H 140.911 1.61708 3.70989 0
M  V30 1596 H 137.666 3.55198 3.1326 0
M  V30 1597 H 138.09 6.15443 2.82063 0
M  V30 1598 H 142.732 3.25344 2.70021 0
M  V30 1599 H 140.45 7.6989 2.4555 0
M  V30 1600 H 144.036 5.32475 2.34439 0
M  V30 1601 H 142.916 7.51959 2.22546 0
M  V30 1602 N 140.419 -1.14872 1.07899 0
M  V30 1603 C 141.367 -2.21857 0.698727 0
M  V30 1604 C 142.361 -1.66845 -0.293086 0
M  V30 1605 O 143.567 -1.79321 -0.156204 0
M  V30 1606 H 139.942 -0.722691 0.207899 0
M  V30 1607 H 141.913 -2.51205 1.61054 0
M  V30 1608 C 140.662 -3.47498 0.11858 0
M  V30 1609 H 139.985 -3.90154 0.872914 0
M  V30 1610 H 141.425 -4.23858 -0.109759 0
M  V30 1611 C 139.884 -3.16947 -1.1422 0
M  V30 1612 O 140.414 -3.3426 -2.22785 0
M  V30 1613 N 138.62 -2.70946 -1.05055 0
M  V30 1614 H 138.167 -2.57058 -0.167038 0
M  V30 1615 H 138.125 -2.50879 -1.89491 0
M  V30 1616 N 141.898 -0.863906 -1.31812 0
M  V30 1617 C 143.175 -0.39275 -1.91616 0
M  V30 1618 C 143.555 1.12461 -1.7865 0
M  V30 1619 O 142.903 1.95045 -1.19037 0
M  V30 1620 C 143.113 -0.867385 -3.38049 0
M  V30 1621 C 144.461 -0.889966 -4.15168 0
M  V30 1622 O 145.485 -0.812635 -3.46806 0
M  V30 1623 O 144.344 -1.00079 -5.37258 0
M  V30 1624 H 141.438 -0.116358 -0.818773 0
M  V30 1625 H 143.984 -0.951418 -1.40521 0
M  V30 1626 H 142.756 -1.91081 -3.41473 0
M  V30 1627 H 142.379 -0.286687 -3.96565 0
M  V30 1628 N 143.376 1.44774 -0.622745 0
M  V30 1629 C 144.653 1.95522 -0.0551974 0
M  V30 1630 C 145.033 1.5649 1.41683 0
M  V30 1631 O 144.381 0.834848 2.12703 0
M  V30 1632 C 144.591 3.4796 -0.269242 0
M  V30 1633 C 145.939 4.24306 -0.158014 0
M  V30 1634 O 146.963 3.55637 -0.200162 0
M  V30 1635 O 145.822 5.46471 -0.0558693 0
M  V30 1636 H 142.916 0.826556 0.0271015 0
M  V30 1637 H 145.462 1.54866 -0.693864 0
M  V30 1638 H 144.234 3.6939 -1.29099 0
M  V30 1639 H 143.857 3.95543 0.403966 0
M  V30 1640 N 144.854 0.36279 1.53368 0
M  V30 1641 C 145.784 -0.476976 2.28576 0
M  V30 1642 C 146.765 -1.08631 1.30894 0
M  V30 1643 O 147.95 -1.10409 1.59761 0
M  V30 1644 C 145.08 -1.61828 3.07293 0
M  V30 1645 C 144.034 -1.13633 4.1264 0
M  V30 1646 C 143.36 -2.36766 4.79423 0
M  V30 1647 C 144.66 -0.223061 5.21823 0
M  V30 1648 H 146.354 0.150474 2.99022 0
M  V30 1649 H 143.9 0.0738103 1.43811 0
M  V30 1650 H 145.853 -2.21237 3.58653 0
M  V30 1651 H 144.577 -2.27292 2.34533 0
M  V30 1652 H 143.236 -0.564945 3.62221 0
M  V30 1653 H 142.884 -3.0068 4.03238 0
M  V30 1654 H 142.584 -2.05192 5.50609 0
M  V30 1655 H 144.108 -2.96865 5.33576 0
M  V30 1656 H 145.522 -0.724545 5.68703 0
M  V30 1657 H 143.919 0.001678 6.001 0
M  V30 1658 H 144.989 0.735553 4.79289 0
M  V30 1659 N 146.332 -1.57332 0.0918853 0
M  V30 1660 C 147.579 -1.94236 -0.572577 0
M  V30 1661 C 147.907 -0.973398 -1.6839 0
M  V30 1662 O 147.162 0.00756912 -1.95699 0
M  V30 1663 C 147.461 -3.37689 -1.17051 0
M  V30 1664 C 147.127 -4.50527 -0.183304 0
M  V30 1665 C 145.789 -4.81119 0.0882276 0
M  V30 1666 C 148.141 -5.18883 0.49095 0
M  V30 1667 C 145.469 -5.77395 1.04076 0
M  V30 1668 C 147.821 -6.1618 1.43193 0
M  V30 1669 C 146.485 -6.45179 1.71173 0
M  V30 1670 H 145.755 -0.710762 -0.209521 0
M  V30 1671 H 148.402 -1.9077 0.167036 0
M  V30 1672 H 146.707 -3.37718 -1.9863 0
M  V30 1673 H 148.404 -3.63543 -1.69227 0
M  V30 1674 H 144.994 -4.26681 -0.405124 0
M  V30 1675 H 149.178 -4.95427 0.294312 0
M  V30 1676 H 144.434 -5.98179 1.26457 0
M  V30 1677 H 148.608 -6.68243 1.96023 0
M  V30 1678 H 146.235 -7.1959 2.4514 0
M  V30 1679 N 147.81 0.181792 -1.56548 0
M  V30 1680 C 149.035 0.920019 -1.85877 0
M  V30 1681 C 149.46 1.75494 -0.677021 0
M  V30 1682 O 148.818 1.77399 0.374056 0
M  V30 1683 C 148.866 1.78112 -3.13542 0
M  V30 1684 O 147.97 2.88152 -2.95029 0
M  V30 1685 H 147.311 0.258334 -0.611686 0
M  V30 1686 H 149.841 0.183092 -2.03779 0
M  V30 1687 H 149.851 2.18314 -3.44678 0
M  V30 1688 H 148.526 1.16777 -3.99169 0
M  V30 1689 H 147.103 2.51609 -2.75222 0
M  V30 1690 N 149.288 1.51039 0.449983 0
M  V30 1691 C 150.198 1.74261 1.57067 0
M  V30 1692 C 151.214 0.626363 1.62335 0
M  V30 1693 O 152.39 0.907162 1.79812 0
M  V30 1694 C 149.455 1.85114 2.93144 0
M  V30 1695 C 148.516 3.0893 2.98095 0
M  V30 1696 C 147.749 3.19256 4.27681 0
M  V30 1697 O 147.972 2.35835 5.19363 0
M  V30 1698 O 146.906 4.12144 4.38658 0
M  V30 1699 H 150.732 2.69303 1.40391 0
M  V30 1700 H 148.317 1.35389 0.631688 0
M  V30 1701 H 150.199 1.94311 3.73926 0
M  V30 1702 H 148.874 0.932588 3.09975 0
M  V30 1703 H 147.781 3.0522 2.16314 0
M  V30 1704 H 149.114 4.00433 2.86206 0
M  V30 1705 N 150.766 -0.704594 1.40972 0
M  V30 1706 C 151.729 -1.80035 1.41845 0
M  V30 1707 C 152.729 -1.57774 0.310474 0
M  V30 1708 O 153.919 -1.64613 0.56992 0
M  V30 1709 C 151.051 -3.18284 1.22098 0
M  V30 1710 H 152.244 -1.80658 2.3938 0
M  V30 1711 H 149.797 -0.911329 1.26982 0
M  V30 1712 H 150.532 -3.23306 0.253672 0
M  V30 1713 H 150.317 -3.35843 2.02366 0
M  V30 1714 H 151.807 -3.98289 1.25522 0
M  V30 1715 N 152.244 -1.26651 -0.937939 0
M  V30 1716 C 153.176 -1.04283 -2.04102 0
M  V30 1717 C 154.189 -0.00221014 -1.628 0
M  V30 1718 O 155.378 -0.242645 -1.76843 0
M  V30 1719 C 152.478 -0.557846 -3.34277 0
M  V30 1720 C 151.651 -1.66843 -4.04329 0
M  V30 1721 C 150.71 -1.18095 -5.12777 0
M  V30 1722 O 149.736 -1.87865 -5.37304 0
M  V30 1723 N 150.938 -0.0311006 -5.80492 0
M  V30 1724 H 153.703 -1.9927 -2.23856 0
M  V30 1725 H 151.264 -1.1808 -1.10764 0
M  V30 1726 H 153.256 -0.215836 -4.04124 0
M  V30 1727 H 151.826 0.298523 -3.11171 0
M  V30 1728 H 151.046 -2.18123 -3.28353 0
M  V30 1729 H 152.334 -2.41408 -4.47883 0
M  V30 1730 H 151.732 0.551486 -5.63005 0
M  V30 1731 H 150.289 0.251809 -6.51313 0
M  V30 1732 N 153.722 1.14298 -1.08507 0
M  V30 1733 C 155.133 1.66926 -0.836227 0
M  V30 1734 C 155.484 1.85576 0.63686 0
M  V30 1735 O 154.609 1.56767 1.49175 0
M  V30 1736 C 155.204 3.03219 -1.51142 0
M  V30 1737 C 153.763 3.52876 -1.30979 0
M  V30 1738 C 152.91 2.2833 -1.57356 0
M  V30 1739 H 155.861 0.983491 -1.24552 0
M  V30 1740 H 155.882 3.68726 -0.939211 0
M  V30 1741 H 155.394 2.89612 -2.58353 0
M  V30 1742 H 153.495 3.71703 -0.258429 0
M  V30 1743 H 153.608 4.33586 -2.03814 0
M  V30 1744 H 151.972 2.34454 -0.995164 0
M  V30 1745 H 152.755 2.17298 -2.65775 0
M  V30 1746 N 155.201 0.870884 1.31352 0
M  V30 1747 C 156.131 0.343096 2.30966 0
M  V30 1748 C 157.112 -0.566507 1.60389 0
M  V30 1749 O 158.297 -0.483336 1.88089 0
M  V30 1750 C 155.427 -0.455487 3.443 0
M  V30 1751 C 154.381 0.361103 4.26474 0
M  V30 1752 C 153.707 -0.563221 5.31725 0
M  V30 1753 C 155.007 1.59566 4.97329 0
M  V30 1754 H 156.701 1.17548 2.75359 0
M  V30 1755 H 154.247 0.566686 1.32381 0
M  V30 1756 H 156.2 -0.83525 4.13039 0
M  V30 1757 H 154.924 -1.32139 2.98675 0
M  V30 1758 H 153.583 0.722825 3.59403 0
M  V30 1759 H 153.231 -1.42643 4.82351 0
M  V30 1760 H 152.931 -0.0207409 5.87596 0
M  V30 1761 H 154.455 -0.939808 6.03324 0
M  V30 1762 H 155.869 1.28728 5.58661 0
M  V30 1763 H 154.266 2.07728 5.63 0
M  V30 1764 H 155.336 2.34798 4.24262 0
M  V30 1765 N 156.679 -1.44442 0.630414 0
M  V30 1766 C 157.925 -2.02894 0.143332 0
M  V30 1767 C 158.28 -1.48697 -1.22094 0
M  V30 1768 O 157.573 -0.661171 -1.79831 0
M  V30 1769 C 157.767 -3.57332 0.0697835 0
M  V30 1770 C 157.596 -4.26512 1.42539 0
M  V30 1771 C 156.366 -4.63516 2.01198 0
M  V30 1772 C 158.564 -4.57004 2.35907 0
M  V30 1773 N 156.546 -5.17661 3.30001 0
M  V30 1774 C 157.917 -5.12223 3.49324 0
M  V30 1775 C 159.972 -4.38955 2.34995 0
M  V30 1776 C 158.675 -5.51295 4.62024 0
M  V30 1777 C 160.701 -4.79075 3.46758 0
M  V30 1778 C 160.063 -5.34407 4.58899 0
M  V30 1779 H 156.162 -0.776041 0.0963523 0
M  V30 1780 H 158.746 -1.75945 0.833752 0
M  V30 1781 H 156.917 -3.83894 -0.589915 0
M  V30 1782 H 158.649 -4.02451 -0.42606 0
M  V30 1783 H 155.404 -4.47811 1.54151 0
M  V30 1784 H 155.828 -5.4921 3.95851 0
M  V30 1785 H 160.47 -3.95469 1.49545 0
M  V30 1786 H 158.188 -5.93736 5.48182 0
M  V30 1787 H 161.774 -4.66824 3.47227 0
M  V30 1788 H 160.654 -5.64878 5.4395 0
M  V30 1789 N 158.157 -0.370918 -1.53173 0
M  V30 1790 C 159.067 0.480823 -2.2962 0
M  V30 1791 C 160.083 1.08789 -1.35798 0
M  V30 1792 O 161.259 1.09768 -1.68858 0
M  V30 1793 C 158.324 1.60227 -3.07454 0
M  V30 1794 C 157.385 1.0222 -4.16953 0
M  V30 1795 C 156.618 2.0902 -4.91066 0
M  V30 1796 O 156.841 3.30222 -4.65091 0
M  V30 1797 O 155.775 1.71778 -5.76867 0
M  V30 1798 H 159.601 -0.141421 -3.03371 0
M  V30 1799 H 157.186 -0.135146 -1.48787 0
M  V30 1800 H 159.068 2.25417 -3.56041 0
M  V30 1801 H 157.743 2.20982 -2.36535 0
M  V30 1802 H 156.65 0.334064 -3.72605 0
M  V30 1803 H 157.983 0.459131 -4.90054 0
M  V30 1804 N 159.635 1.57281 -0.100228 0
M  V30 1805 C 160.598 2.13158 0.842398 0
M  V30 1806 C 161.598 1.06202 1.20738 0
M  V30 1807 O 162.788 1.32066 1.13597 0
M  V30 1808 C 159.92 2.65639 2.13655 0
M  V30 1809 H 161.113 2.97766 0.357114 0
M  V30 1810 H 158.666 1.5559 0.148823 0
M  V30 1811 H 159.401 1.84566 2.66657 0
M  V30 1812 H 159.186 3.43844 1.88451 0
M  V30 1813 H 160.676 3.08846 2.81077 0
M  V30 1814 N 161.113 -0.173488 1.56642 0
M  V30 1815 C 162.076 -1.19859 1.95362 0
M  V30 1816 C 163.076 -1.37296 0.83704 0
M  V30 1817 O 164.266 -1.34739 1.10413 0
M  V30 1818 C 161.398 -2.56405 2.24654 0
M  V30 1819 H 162.591 -0.867062 2.87092 0
M  V30 1820 H 160.144 -0.415853 1.50666 0
M  V30 1821 H 160.879 -2.94576 1.35631 0
M  V30 1822 H 160.664 -2.45115 3.06041 0
M  V30 1823 H 162.154 -3.30287 2.5554 0
M  V30 1824 N 162.591 -1.51276 -0.441967 0
M  V30 1825 C 164.007 -1.39349 -0.778083 0
M  V30 1826 C 164.207 -0.472212 -1.95889 0
M  V30 1827 O 163.263 0.0743551 -2.5239 0
M  V30 1828 C 164.576 -2.81292 -1.0628 0
M  V30 1829 C 166.124 -2.9041 -1.16751 0
M  V30 1830 C 166.599 -4.33251 -1.48519 0
M  V30 1831 N 168.09 -4.36336 -1.55453 0
M  V30 1832 C 168.825 -5.43885 -1.81596 0
M  V30 1833 N 168.321 -6.61601 -2.05562 0
M  V30 1834 N 170.114 -5.3136 -1.8334 0
M  V30 1835 H 162.265 -2.09729 0.335774 0
M  V30 1836 H 164.528 -0.943925 0.0878028 0
M  V30 1837 H 164.234 -3.50678 -0.267905 0
M  V30 1838 H 164.108 -3.20334 -1.99163 0
M  V30 1839 H 166.495 -2.21225 -1.95304 0
M  V30 1840 H 166.576 -2.54871 -0.217801 0
M  V30 1841 H 166.22 -5.02984 -0.704958 0
M  V30 1842 H 166.15 -4.66299 -2.44689 0
M  V30 1843 H 168.641 -3.51466 -1.38853 0
M  V30 1844 H 168.954 -7.39361 -2.24867 0
M  V30 1845 H 167.299 -6.64725 -2.02894 0
M  V30 1846 H 170.49 -4.38382 -1.64132 0
M  V30 1847 H 170.663 -6.15258 -2.03377 0
M  V30 1848 N 164.069 0.697108 -1.41344 0
M  V30 1849 C 165.032 1.79281 -1.42797 0
M  V30 1850 C 166.032 1.57607 -0.318837 0
M  V30 1851 O 167.222 1.64309 -0.578642 0
M  V30 1852 C 164.354 3.17632 -1.23785 0
M  V30 1853 H 165.547 1.79385 -2.40335 0
M  V30 1854 H 163.1 0.904582 -1.27464 0
M  V30 1855 H 163.835 3.23167 -0.270814 0
M  V30 1856 H 163.62 3.34765 -2.04144 0
M  V30 1857 H 165.11 3.97617 -1.27633 0
M  V30 1858 N 165.547 1.27147 0.931209 0
M  V30 1859 C 166.497 1.06227 2.01742 0
M  V30 1860 C 167.481 -0.00859065 1.60898 0
M  V30 1861 O 168.673 0.209537 1.75755 0
M  V30 1862 C 165.802 0.707787 3.35924 0
M  V30 1863 C 164.888 1.81661 3.83223 0
M  V30 1864 N 165.279 3.05564 4.03069 0
M  V30 1865 C 163.577 1.70249 4.12227 0
M  V30 1866 C 164.278 3.77697 4.42403 0
M  V30 1867 N 163.254 3.0544 4.49675 0
M  V30 1868 H 167.056 2.00261 2.15111 0
M  V30 1869 H 164.57 1.1781 1.11779 0
M  V30 1870 H 166.567 0.539043 4.134 0
M  V30 1871 H 165.227 -0.224964 3.2392 0
M  V30 1872 H 166.238 3.41363 3.89476 0
M  V30 1873 H 162.915 0.840329 4.08956 0
M  V30 1874 H 164.305 4.84168 4.65866 0
M  V30 1875 N 167.025 -1.13721 1.09112 0
M  V30 1876 C 168.273 -1.84559 0.823562 0
M  V30 1877 C 168.594 -1.83754 -0.652658 0
M  V30 1878 O 167.864 -1.29102 -1.47342 0
M  V30 1879 H 166.444 -0.683376 0.301673 0
M  V30 1880 H 169.106 -1.37771 1.37859 0
M  V30 1881 H 168.202 -2.8917 1.17419 0
M  V30 1882 N 168.503 -0.877838 -1.30888 0
M  V30 1883 C 169.433 -0.35534 -2.3078 0
M  V30 1884 C 170.414 0.557994 -1.60687 0
M  V30 1885 O 171.599 0.473355 -1.88343 0
M  V30 1886 C 168.729 0.437221 -3.44537 0
M  V30 1887 C 167.683 -0.383715 -4.26276 0
M  V30 1888 C 167.009 0.535014 -5.32017 0
M  V30 1889 C 168.309 -1.62201 -4.96476 0
M  V30 1890 H 170.003 -1.19007 -2.74732 0
M  V30 1891 H 167.549 -0.573698 -1.32078 0
M  V30 1892 H 169.502 0.813334 -4.13477 0
M  V30 1893 H 168.226 1.30553 -2.99372 0
M  V30 1894 H 166.885 -0.741874 -3.59015 0
M  V30 1895 H 166.533 1.40083 -4.831 0
M  V30 1896 H 166.233 -0.0104211 -5.87599 0
M  V30 1897 H 167.757 0.907799 -6.03814 0
M  V30 1898 H 169.171 -1.31689 -5.5797 0
M  V30 1899 H 167.568 -2.10711 -5.61891 0
M  V30 1900 H 168.638 -2.37044 -4.23011 0
M  V30 1901 N 169.982 1.44106 -0.638065 0
M  V30 1902 C 171.398 1.56672 -0.304286 0
M  V30 1903 C 171.598 1.6244 1.19228 0
M  V30 1904 O 170.654 1.57121 1.9766 0
M  V30 1905 C 171.967 2.83503 -1.00231 0
M  V30 1906 C 173.515 2.97226 -0.981116 0
M  V30 1907 C 173.99 4.26868 -1.65974 0
M  V30 1908 N 175.481 4.33698 -1.62666 0
M  V30 1909 C 176.216 5.32745 -2.12063 0
M  V30 1910 N 175.712 6.38157 -2.6968 0
M  V30 1911 N 177.505 5.24299 -2.02651 0
M  V30 1912 H 169.656 1.38605 -1.60942 0
M  V30 1913 H 171.919 0.664661 -0.675965 0
M  V30 1914 H 171.625 2.85251 -2.0573 0
M  V30 1915 H 171.499 3.73251 -0.54439 0
M  V30 1916 H 173.886 2.95027 0.0654188 0
M  V30 1917 H 173.967 2.08808 -1.47759 0
M  V30 1918 H 173.611 4.29826 -2.70576 0
M  V30 1919 H 173.541 5.14156 -1.13804 0
M  V30 1920 H 176.032 3.58138 -1.20606 0
M  V30 1921 H 176.345 7.10029 -3.05087 0
M  V30 1922 H 174.69 6.38823 -2.73734 0
M  V30 1923 H 177.881 4.4086 -1.57353 0
M  V30 1924 H 178.054 6.01334 -2.41457 0
M  V30 1925 N 171.46 0.379036 1.52974 0
M  V30 1926 C 172.876 0.0285448 1.59574 0
M  V30 1927 C 173.076 -1.45542 1.39355 0
M  V30 1928 O 172.132 -2.2187 1.20541 0
M  V30 1929 C 173.445 0.496535 2.96572 0
M  V30 1930 C 174.993 0.451909 3.0972 0
M  V30 1931 C 175.468 0.895924 4.49152 0
M  V30 1932 N 176.959 0.851522 4.55306 0
M  V30 1933 C 177.694 1.16661 5.61407 0
M  V30 1934 N 177.19 1.55166 6.752 0
M  V30 1935 N 178.983 1.08853 5.51459 0
M  V30 1936 H 171.134 1.34525 1.64367 0
M  V30 1937 H 173.397 0.550733 0.771619 0
M  V30 1938 H 173.103 1.53258 3.16552 0
M  V30 1939 H 172.977 -0.109802 3.7704 0
M  V30 1940 H 175.364 -0.575029 2.89443 0
M  V30 1941 H 175.445 1.09392 2.3123 0
M  V30 1942 H 175.089 1.92104 4.70168 0
M  V30 1943 H 175.019 0.23103 5.26093 0
M  V30 1944 H 177.51 0.568038 3.73606 0
M  V30 1945 H 177.823 1.776 7.52116 0
M  V30 1946 H 176.168 1.59044 6.76557 0
M  V30 1947 H 179.359 0.786803 4.6144 0
M  V30 1948 H 179.532 1.33742 6.34048 0
M  V30 1949 N 172.938 -1.57226 0.108567 0
M  V30 1950 C 174.186 -1.94448 -0.550853 0
M  V30 1951 C 174.507 -0.992074 -1.67878 0
M  V30 1952 O 173.777 -0.0465 -1.95845 0
M  V30 1953 H 172.357 -0.717897 -0.206479 0
M  V30 1954 H 175.019 -1.94112 0.175062 0
M  V30 1955 H 174.115 -2.97218 -0.952259 0
M  V30 1956 N 174.416 0.165178 -1.56732 0
M  V30 1957 C 175.662 0.882112 -1.82611 0
M  V30 1958 C 175.995 1.81628 -0.687378 0
M  V30 1959 O 175.27 1.92009 0.310267 0
M  V30 1960 C 175.553 1.67245 -3.18906 0
M  V30 1961 C 175.406 0.760987 -4.43316 0
M  V30 1962 C 176.725 2.63884 -3.52212 0
M  V30 1963 H 173.844 0.319242 -0.664269 0
M  V30 1964 H 176.486 0.148052 -1.89422 0
M  V30 1965 H 174.636 2.29824 -3.1323 0
M  V30 1966 H 176.308 0.147596 -4.61064 0
M  V30 1967 H 174.551 0.0694102 -4.33744 0
M  V30 1968 H 175.222 1.34962 -5.35247 0
M  V30 1969 H 177.698 2.11429 -3.58381 0
M  V30 1970 H 176.574 3.16245 -4.48643 0
M  V30 1971 H 176.835 3.44377 -2.77231 0
M  V30 1972 N 175.894 1.51508 0.433938 0
M  V30 1973 C 177.122 1.68157 1.20543 0
M  V30 1974 C 177.537 0.380362 1.84929 0
M  V30 1975 O 176.894 -0.641446 1.70856 0
M  V30 1976 C 176.945 2.79965 2.28696 0
M  V30 1977 O 176.666 4.05045 1.66943 0
M  V30 1978 C 178.167 3.07912 3.18912 0
M  V30 1979 H 175.387 0.56421 0.363191 0
M  V30 1980 H 177.931 1.97941 0.513754 0
M  V30 1981 H 176.086 2.5277 2.93574 0
M  V30 1982 H 176.5 4.67165 2.38448 0
M  V30 1983 H 177.974 3.89719 3.90926 0
M  V30 1984 H 178.451 2.20456 3.79863 0
M  V30 1985 H 179.057 3.36779 2.59731 0
M  V30 1986 N 177.372 -0.689602 1.41712 0
M  V30 1987 C 178.304 -1.815 1.39966 0
M  V30 1988 C 179.317 -1.59995 0.300917 0
M  V30 1989 O 180.506 -1.69387 0.563039 0
M  V30 1990 C 177.606 -3.18364 1.16179 0
M  V30 1991 C 176.779 -3.66847 2.38206 0
M  V30 1992 C 175.838 -4.82398 2.10186 0
M  V30 1993 O 174.864 -4.93706 2.83272 0
M  V30 1994 N 176.066 -5.70064 1.0958 0
M  V30 1995 H 178.831 -1.83488 2.36965 0
M  V30 1996 H 176.392 -0.872149 1.36401 0
M  V30 1997 H 178.384 -3.93301 0.953756 0
M  V30 1998 H 176.954 -3.11365 0.27756 0
M  V30 1999 H 176.174 -2.82751 2.74673 0
M  V30 2000 H 177.462 -3.95978 3.19498 0
M  V30 2001 H 176.86 -5.63565 0.491019 0
M  V30 2002 H 175.417 -6.44874 0.947656 0
M  V30 2003 N 178.85 -1.27639 -0.924453 0
M  V30 2004 C 180.08 -1.16819 -1.70402 0
M  V30 2005 C 180.488 0.277191 -1.87158 0
M  V30 2006 O 179.831 1.20025 -1.39067 0
M  V30 2007 C 179.893 -1.78305 -3.12166 0
M  V30 2008 C 179.557 -3.27502 -3.18734 0
M  V30 2009 C 180.554 -4.2409 -3.00738 0
M  V30 2010 C 178.239 -3.68269 -3.4159 0
M  V30 2011 C 180.233 -5.59422 -3.05492 0
M  V30 2012 C 177.92 -5.0373 -3.45977 0
M  V30 2013 C 178.918 -5.99116 -3.27946 0
M  V30 2014 O 178.606 -7.32108 -3.32074 0
M  V30 2015 H 178.338 -0.406931 -0.539799 0
M  V30 2016 H 180.892 -1.69078 -1.16626 0
M  V30 2017 H 179.122 -1.20528 -3.67437 0
M  V30 2018 H 180.811 -1.62154 -3.72103 0
M  V30 2019 H 181.577 -3.93931 -2.82919 0
M  V30 2020 H 177.456 -2.94496 -3.54673 0
M  V30 2021 H 181 -6.33852 -2.91337 0
M  V30 2022 H 176.897 -5.33543 -3.63321 0
M  V30 2023 H 177.665 -7.40598 -3.48507 0
M  V30 2024 N 180.328 1.1314 -1.09713 0
M  V30 2025 C 181.258 2.20748 -0.761102 0
M  V30 2026 C 182.239 1.68061 0.262566 0
M  V30 2027 O 183.424 1.93765 0.129977 0
M  V30 2028 C 180.554 3.46812 -0.184054 0
M  V30 2029 C 179.508 4.12606 -1.13757 0
M  V30 2030 C 178.834 5.33031 -0.422083 0
M  V30 2031 C 180.134 4.59603 -2.48118 0
M  V30 2032 H 181.828 2.49113 -1.66082 0
M  V30 2033 H 179.374 1.19734 -0.799987 0
M  V30 2034 H 181.327 4.21353 0.0631215 0
M  V30 2035 H 180.051 3.17851 0.750868 0
M  V30 2036 H 178.71 3.40036 -1.37007 0
M  V30 2037 H 178.358 5.00335 0.517072 0
M  V30 2038 H 178.058 5.77999 -1.05788 0
M  V30 2039 H 179.582 6.10325 -0.183277 0
M  V30 2040 H 180.996 5.25552 -2.29059 0
M  V30 2041 H 179.393 5.15321 -3.07514 0
M  V30 2042 H 180.463 3.73971 -3.08665 0
M  V30 2043 N 181.806 0.884767 1.30421 0
M  V30 2044 C 182.739 0.295999 2.26272 0
M  V30 2045 C 183.717 -0.58332 1.51777 0
M  V30 2046 O 184.901 -0.53346 1.80794 0
M  V30 2047 C 182.028 -0.57944 3.33707 0
M  V30 2048 C 181.074 0.230525 4.25877 0
M  V30 2049 S 181.907 1.61867 5.1045 0
M  V30 2050 C 183.063 0.749756 6.21393 0
M  V30 2051 H 183.296 1.10848 2.75862 0
M  V30 2052 H 180.829 0.684178 1.38414 0
M  V30 2053 H 182.787 -1.07879 3.96071 0
M  V30 2054 H 181.448 -1.36601 2.82841 0
M  V30 2055 H 180.641 -0.437542 5.02097 0
M  V30 2056 H 180.243 0.662493 3.68086 0
M  V30 2057 H 182.535 -0.0333547 6.77492 0
M  V30 2058 H 183.478 1.48356 6.92384 0
M  V30 2059 H 183.886 0.310751 5.63644 0
M  V30 2060 N 183.284 -1.43765 0.645699 0
M  V30 2061 C 184.214 -2.33471 -0.0370477 0
M  V30 2062 C 185.195 -1.49042 -0.819779 0
M  V30 2063 O 186.38 -1.77726 -0.782758 0
M  V30 2064 C 183.51 -3.32311 -1.0093 0
M  V30 2065 C 182.464 -4.2667 -0.337201 0
M  V30 2066 C 181.79 -5.1549 -1.42037 0
M  V30 2067 C 183.09 -5.16657 0.765706 0
M  V30 2068 H 184.784 -2.90809 0.712069 0
M  V30 2069 H 182.33 -1.39834 0.343876 0
M  V30 2070 H 184.283 -3.9396 -1.49578 0
M  V30 2071 H 183.007 -2.73213 -1.78948 0
M  V30 2072 H 181.666 -3.66374 0.128771 0
M  V30 2073 H 181.314 -4.52735 -2.1918 0
M  V30 2074 H 181.014 -5.79438 -0.975966 0
M  V30 2075 H 182.538 -5.80012 -1.90838 0
M  V30 2076 H 183.952 -5.72158 0.361702 0
M  V30 2077 H 182.349 -5.89286 1.13413 0
M  V30 2078 H 183.419 -4.56796 1.62683 0
M  V30 2079 N 184.763 -0.387143 -1.52771 0
M  V30 2080 C 186.174 0.0873634 -1.86495 0
M  V30 2081 C 186.525 1.46336 -1.30691 0
M  V30 2082 O 185.65 2.068 -0.637409 0
M  V30 2083 C 186.245 0.165305 -3.38396 0
M  V30 2084 C 184.804 0.584101 -3.7184 0
M  V30 2085 C 183.951 -0.255279 -2.76122 0
M  V30 2086 H 186.902 -0.605104 -1.46711 0
M  V30 2087 H 186.923 0.984848 -3.67534 0
M  V30 2088 H 186.435 -0.836301 -3.78982 0
M  V30 2089 H 184.536 1.59315 -3.36823 0
M  V30 2090 H 184.649 0.343749 -4.77865 0
M  V30 2091 H 183.013 0.279126 -2.53166 0
M  V30 2092 H 183.796 -1.25482 -3.19545 0
M  V30 2093 N 186.241 1.57166 -0.116904 0
M  V30 2094 C 187.189 2.16457 0.851418 0
M  V30 2095 C 188.183 1.11323 1.27686 0
M  V30 2096 O 189.389 1.2963 1.24884 0
M  V30 2097 H 185.764 0.69271 0.292672 0
M  V30 2098 H 187.735 2.96605 0.32685 0
M  V30 2099 C 186.484 2.77689 2.09246 0
M  V30 2100 H 185.807 3.58285 1.77402 0
M  V30 2101 H 187.247 3.22716 2.7501 0
M  V30 2102 C 185.706 1.74667 2.88085 0
M  V30 2103 O 186.236 1.19877 3.83396 0
M  V30 2104 N 184.442 1.44656 2.52038 0
M  V30 2105 H 183.989 1.89402 1.74599 0
M  V30 2106 H 183.947 0.759675 3.05084 0
M  V30 2107 N 187.719 -0.156864 1.56817 0
M  V30 2108 C 189.135 -0.50916 1.5126 0
M  V30 2109 C 189.335 -1.83897 0.823658 0
M  V30 2110 O 188.391 -2.49469 0.390055 0
M  V30 2111 C 189.704 -0.52857 2.96018 0
M  V30 2112 C 191.252 -0.614771 3.06903 0
M  V30 2113 C 191.727 -0.664938 4.53147 0
M  V30 2114 N 193.218 -0.727433 4.57452 0
M  V30 2115 C 193.953 -0.787067 5.67973 0
M  V30 2116 N 193.449 -0.806649 6.88088 0
M  V30 2117 N 195.242 -0.827195 5.5598 0
M  V30 2118 H 187.393 0.714935 2.00006 0
M  V30 2119 H 189.656 0.259526 0.911784 0
M  V30 2120 H 189.362 0.380154 3.49639 0
M  V30 2121 H 189.236 -1.36998 3.51442 0
M  V30 2122 H 191.623 -1.51392 2.53307 0
M  V30 2123 H 191.704 0.253597 2.5454 0
M  V30 2124 H 191.348 0.230011 5.07379 0
M  V30 2125 H 191.278 -1.54966 5.03282 0
M  V30 2126 H 193.769 -0.719998 3.70978 0
M  V30 2127 H 194.082 -0.853727 7.6807 0
M  V30 2128 H 192.427 -0.774687 6.90669 0
M  V30 2129 H 195.618 -0.808998 4.61056 0
M  V30 2130 H 195.791 -0.870206 6.4213 0
M  V30 2131 N 189.197 -1.51736 -0.425897 0
M  V30 2132 C 190.16 -1.73271 -1.50032 0
M  V30 2133 C 191.16 -0.602639 -1.4908 0
M  V30 2134 O 192.35 -0.87033 -1.509 0
M  V30 2135 C 189.482 -1.79969 -2.89523 0
M  V30 2136 H 190.675 -2.69172 -1.32237 0
M  V30 2137 H 188.228 -1.41899 -0.65532 0
M  V30 2138 H 188.963 -0.859241 -3.1271 0
M  V30 2139 H 188.748 -2.62109 -2.91619 0
M  V30 2140 H 190.238 -1.9843 -3.67444 0
M  V30 2141 N 190.675 0.682077 -1.42076 0
M  V30 2142 C 191.605 1.80796 -1.47767 0
M  V30 2143 C 192.586 1.6677 -0.334954 0
M  V30 2144 O 193.771 1.863 -0.548264 0
M  V30 2145 C 190.901 3.19038 -1.37229 0
M  V30 2146 C 189.855 3.47789 -2.49453 0
M  V30 2147 C 189.181 4.8553 -2.23975 0
M  V30 2148 C 190.481 3.45411 -3.91776 0
M  V30 2149 H 192.175 1.7629 -2.41997 0
M  V30 2150 H 189.721 0.846721 -1.16476 0
M  V30 2151 H 191.674 3.97528 -1.39821 0
M  V30 2152 H 190.398 3.24204 -0.394907 0
M  V30 2153 H 189.057 2.71657 -2.46166 0
M  V30 2154 H 188.705 4.87337 -1.24547 0
M  V30 2155 H 188.405 5.0573 -2.99184 0
M  V30 2156 H 189.929 5.66312 -2.28304 0
M  V30 2157 H 191.343 4.13882 -3.96705 0
M  V30 2158 H 189.74 3.77145 -4.66778 0
M  V30 2159 H 190.81 2.44122 -4.18966 0
M  V30 2160 N 192.153 1.28127 0.917671 0
M  V30 2161 C 193.401 1.14825 1.66312 0
M  V30 2162 C 193.722 -0.304379 1.9261 0
M  V30 2163 O 192.992 -1.21149 1.53947 0
M  V30 2164 H 191.572 0.421953 0.616413 0
M  V30 2165 H 194.234 1.608 1.10134 0
M  V30 2166 H 193.33 1.68489 2.62712 0
M  V30 2167 N 193.631 -1.12557 1.10312 0
M  V30 2168 C 194.878 -1.84038 0.844759 0
M  V30 2169 C 195.206 -1.84026 -0.629668 0
M  V30 2170 O 194.461 -1.28026 -1.48013 0
M  V30 2171 C 194.76 -3.31462 1.33669 0
M  V30 2172 C 194.426 -3.51647 2.82232 0
M  V30 2173 C 193.088 -3.56864 3.22802 0
M  V30 2174 C 195.44 -3.58867 3.77974 0
M  V30 2175 C 192.768 -3.66844 4.57867 0
M  V30 2176 C 195.12 -3.70375 5.1284 0
M  V30 2177 C 193.784 -3.73848 5.52986 0
M  V30 2178 H 193.054 -0.673444 0.309119 0
M  V30 2179 H 195.701 -1.32824 1.37949 0
M  V30 2180 H 194.006 -3.85091 0.721949 0
M  V30 2181 H 195.703 -3.85236 1.11329 0
M  V30 2182 H 192.293 -3.48249 2.49842 0
M  V30 2183 H 196.477 -3.54107 3.47738 0
M  V30 2184 H 191.733 -3.67804 4.88396 0
M  V30 2185 H 195.907 -3.74904 5.86873 0
M  V30 2186 H 193.534 -3.81333 6.57639 0
M  V30 2187 N 195.109 -0.891671 -1.2995 0
M  V30 2188 C 196.039 -0.379797 -2.30391 0
M  V30 2189 C 197.02 0.540919 -1.6127 0
M  V30 2190 O 198.205 0.453352 -1.88834 0
M  V30 2191 C 195.335 0.400654 -3.44981 0
M  V30 2192 C 194.289 -0.428905 -4.25846 0
M  V30 2193 C 193.615 0.478557 -5.32554 0
M  V30 2194 C 194.915 -1.67458 -4.94727 0
M  V30 2195 H 196.609 -1.21914 -2.73454 0
M  V30 2196 H 194.155 -0.587675 -1.31462 0
M  V30 2197 H 196.108 0.769434 -4.14316 0
M  V30 2198 H 194.832 1.27371 -3.0074 0
M  V30 2199 H 193.491 -0.779911 -3.58208 0
M  V30 2200 H 193.139 1.34951 -4.84559 0
M  V30 2201 H 192.839 -0.0727433 -5.87555 0
M  V30 2202 H 194.363 0.843705 -6.04743 0
M  V30 2203 H 195.777 -1.376 -5.56542 0
M  V30 2204 H 194.174 -2.16659 -5.59624 0
M  V30 2205 H 195.244 -2.41518 -4.20473 0
M  V30 2206 N 196.587 1.43421 -0.653314 0
M  V30 2207 C 197.812 2.06678 -0.172846 0
M  V30 2208 C 198.237 1.48648 1.15262 0
M  V30 2209 O 197.595 0.596457 1.71208 0
M  V30 2210 C 197.643 3.60474 -0.0953184 0
M  V30 2211 O 196.747 4.01487 0.942442 0
M  V30 2212 H 196.088 0.657181 -0.0949155 0
M  V30 2213 H 198.618 1.83925 -0.896265 0
M  V30 2214 H 198.628 4.07905 0.0879728 0
M  V30 2215 H 197.303 4.02088 -1.06291 0
M  V30 2216 H 195.88 3.65646 0.731932 0
M  V30 2217 N 198.065 0.39524 1.52563 0
M  V30 2218 C 199.312 -0.185044 2.01653 0
M  V30 2219 C 199.64 -1.46317 1.28146 0
M  V30 2220 O 198.895 -1.9213 0.372074 0
M  V30 2221 C 199.194 -0.493444 3.53977 0
M  V30 2222 C 198.86 0.69384 4.4553 0
M  V30 2223 C 197.522 1.01954 4.70275 0
M  V30 2224 C 199.874 1.48785 4.99512 0
M  V30 2225 C 197.202 2.14069 5.46252 0
M  V30 2226 C 199.554 2.59965 5.76716 0
M  V30 2227 C 198.218 2.93037 5.99738 0
M  V30 2228 H 197.488 -0.0677123 0.7379 0
M  V30 2229 H 200.135 0.533807 1.8391 0
M  V30 2230 H 198.44 -1.29369 3.69825 0
M  V30 2231 H 200.137 -0.955163 3.89458 0
M  V30 2232 H 196.727 0.429987 4.26438 0
M  V30 2233 H 200.911 1.24946 4.80315 0
M  V30 2234 H 196.167 2.40056 5.62302 0
M  V30 2235 H 200.341 3.21887 6.17545 0
M  V30 2236 H 197.968 3.8003 6.58393 0
M  V30 2237 N 199.544 -1.57102 0.125237 0
M  V30 2238 C 200.769 -2.0019 -0.542101 0
M  V30 2239 C 201.194 -1.00449 -1.59034 0
M  V30 2240 O 200.552 0.0229423 -1.81285 0
M  V30 2241 C 200.6 -3.42129 -1.13929 0
M  V30 2242 O 199.704 -3.45307 -2.2547 0
M  V30 2243 H 199.045 -0.650171 -0.134812 0
M  V30 2244 H 201.575 -2.03461 0.215553 0
M  V30 2245 H 201.585 -3.80471 -1.4733 0
M  V30 2246 H 200.26 -4.14237 -0.371531 0
M  V30 2247 H 198.837 -3.1879 -1.93462 0
M  V30 2248 N 201.022 0.148545 -1.56898 0
M  V30 2249 C 202.438 0.501131 -1.51528 0
M  V30 2250 C 202.638 1.83458 -0.833399 0
M  V30 2251 O 201.694 2.49259 -0.40328 0
M  V30 2252 C 203.007 0.512864 -2.96294 0
M  V30 2253 C 204.555 0.598487 -3.07225 0
M  V30 2254 C 205.03 0.640897 -4.53494 0
M  V30 2255 N 206.521 0.703163 -4.57832 0
M  V30 2256 C 207.256 0.756935 -5.68382 0
M  V30 2257 N 206.752 0.770147 -6.88506 0
M  V30 2258 N 208.545 0.797698 -5.56411 0
M  V30 2259 H 200.696 -0.725532 -1.99624 0
M  V30 2260 H 202.959 -0.264358 -0.910395 0
M  V30 2261 H 202.665 -0.398691 -3.49433 0
M  V30 2262 H 202.539 1.35133 -3.52163 0
M  V30 2263 H 204.926 1.50046 -2.54106 0
M  V30 2264 H 205.007 -0.267093 -2.54402 0
M  V30 2265 H 204.651 -0.256915 -5.0725 0
M  V30 2266 H 204.581 1.52295 -5.04097 0
M  V30 2267 H 207.072 0.700314 -3.71354 0
M  V30 2268 H 207.385 0.812983 -7.68512 0
M  V30 2269 H 205.73 0.738049 -6.9107 0
M  V30 2270 H 208.921 0.784535 -4.61479 0
M  V30 2271 H 209.094 0.83614 -6.42583 0
M  V30 2272 N 202.5 1.5196 0.417844 0
M  V30 2273 C 203.74 1.67262 1.17486 0
M  V30 2274 C 204.104 0.38983 1.88001 0
M  V30 2275 O 205.305 0.418845 2.65517 0
M  V30 2276 C 203.576 2.85526 2.14965 0
M  V30 2277 S 205.135 3.21263 2.98891 0
M  V30 2278 H 201.953 0.589077 0.398132 0
M  V30 2279 H 204.555 1.89927 0.463452 0
M  V30 2280 H 203.259 3.77145 1.61833 0
M  V30 2281 H 202.79 2.65107 2.90657 0
M  V30 2282 H 204.805 2.69208 4.16823 0
M  V30 2283 N 203.978 -0.674533 1.42435 0
M  V30 2284 C 205.203 -1.46784 1.46524 0
M  V30 2285 C 205.628 -1.87938 0.078066 0
M  V30 2286 O 204.986 -1.56014 -0.92354 0
M  V30 2287 C 205.034 -2.69307 2.39805 0
M  V30 2288 O 204.138 -3.67587 1.86959 0
M  V30 2289 H 203.479 -0.440959 0.496439 0
M  V30 2290 H 206.009 -0.827326 1.87127 0
M  V30 2291 H 206.019 -3.17374 2.56393 0
M  V30 2292 H 204.694 -2.38692 3.40586 0
M  V30 2293 H 203.271 -3.2662 1.79927 0
M  V30 2294 N 205.456 -1.28612 -0.910864 0
M  V30 2295 C 206.419 -1.12803 -1.9952 0
M  V30 2296 C 207.419 -0.0668264 -1.60661 0
M  V30 2297 O 208.609 -0.312847 -1.71368 0
M  V30 2298 C 205.741 -0.72254 -3.33155 0
M  V30 2299 H 206.934 -2.09109 -2.14973 0
M  V30 2300 H 204.487 -1.11639 -1.09391 0
M  V30 2301 H 205.222 0.241152 -3.23402 0
M  V30 2302 H 205.007 -1.48916 -3.62721 0
M  V30 2303 H 206.497 -0.634666 -4.12749 0
M  V30 2304 N 206.934 1.1197 -1.10907 0
M  V30 2305 C 208.35 1.35591 -0.841852 0
M  V30 2306 C 208.55 1.94233 0.536246 0
M  V30 2307 O 207.606 2.1717 1.28816 0
M  V30 2308 C 208.919 2.29284 -1.94549 0
M  V30 2309 C 210.467 2.42862 -1.97451 0
M  V30 2310 C 210.942 3.39873 -3.07002 0
M  V30 2311 N 212.433 3.47433 -3.06341 0
M  V30 2312 C 213.168 4.22421 -3.87748 0
M  V30 2313 N 212.664 5.00432 -4.79103 0
M  V30 2314 N 214.457 4.17876 -3.75946 0
M  V30 2315 H 206.608 0.722664 -1.99728 0
M  V30 2316 H 208.871 0.380635 -0.868229 0
M  V30 2317 H 208.577 1.93378 -2.93765 0
M  V30 2318 H 208.451 3.29452 -1.83688 0
M  V30 2319 H 210.838 2.78046 -0.988645 0
M  V30 2320 H 210.919 1.42566 -2.12388 0
M  V30 2321 H 210.563 3.05417 -4.05811 0
M  V30 2322 H 210.493 4.40011 -2.89306 0
M  V30 2323 H 212.984 2.91784 -2.40147 0
M  V30 2324 H 213.297 5.55002 -5.37766 0
M  V30 2325 H 211.642 4.99612 -4.83128 0
M  V30 2326 H 214.833 3.56016 -3.03924 0
M  V30 2327 H 215.006 4.76061 -4.39624 0
M  V30 2328 N 208.412 0.89855 1.29475 0
M  V30 2329 C 209.322 0.379974 2.31502 0
M  V30 2330 C 210.338 -0.524695 1.659 0
M  V30 2331 O 211.514 -0.414551 1.97087 0
M  V30 2332 C 208.579 -0.385138 3.44554 0
M  V30 2333 C 207.64 0.550914 4.2575 0
M  V30 2334 C 206.873 -0.177778 5.33404 0
M  V30 2335 O 207.096 -1.40189 5.52904 0
M  V30 2336 O 206.03 0.479106 5.9999 0
M  V30 2337 H 209.856 1.22639 2.77837 0
M  V30 2338 H 207.441 0.662834 1.33891 0
M  V30 2339 H 209.323 -0.817841 4.13388 0
M  V30 2340 H 207.998 -1.20763 3.0033 0
M  V30 2341 H 206.905 1.03271 3.59564 0
M  V30 2342 H 208.238 1.33979 4.73614 0
M  V30 2343 N 209.89 -1.43072 0.660911 0
M  V30 2344 C 211.139 -2.00942 0.174735 0
M  V30 2345 C 211.452 -1.52797 -1.22117 0
M  V30 2346 O 212.658 -2.02991 -1.80297 0
M  V30 2347 C 211.114 -3.58948 0.261559 0
M  V30 2348 C 210.722 -4.16085 1.66064 0
M  V30 2349 C 212.466 -4.24173 -0.166617 0
M  V30 2350 C 210.373 -5.6641 1.70098 0
M  V30 2351 H 209.303 -0.751483 0.0615631 0
M  V30 2352 H 211.954 -1.63955 0.824069 0
M  V30 2353 H 210.336 -3.93372 -0.455421 0
M  V30 2354 H 211.51 -3.93147 2.40359 0
M  V30 2355 H 209.825 -3.6326 2.03546 0
M  V30 2356 H 212.422 -5.34471 -0.156433 0
M  V30 2357 H 212.765 -3.98647 -1.19943 0
M  V30 2358 H 213.298 -3.94659 0.498875 0
M  V30 2359 H 210.037 -5.96715 2.71315 0
M  V30 2360 H 209.557 -5.91382 1.00139 0
M  V30 2361 H 211.236 -6.30585 1.44816 0
M  V30 2362 N 211.368 -0.403325 -1.52352 0
M  V30 2363 C 212.779 0.0675782 -1.86578 0
M  V30 2364 C 213.13 1.44941 -1.32236 0
M  V30 2365 O 212.255 2.06112 -0.659307 0
M  V30 2366 C 212.85 0.129404 -3.38553 0
M  V30 2367 C 211.409 0.544629 -3.72439 0
M  V30 2368 C 210.556 -0.284551 -2.75836 0
M  V30 2369 H 213.507 -0.620631 -1.46061 0
M  V30 2370 H 213.528 0.94581 -3.68558 0
M  V30 2371 H 213.04 -0.87645 -3.78074 0
M  V30 2372 H 211.141 1.55734 -3.38493 0
M  V30 2373 H 211.254 0.293046 -4.78203 0
M  V30 2374 H 209.618 0.252258 -2.53448 0
M  V30 2375 H 210.401 -1.28865 -3.18196 0
M  V30 2376 N 212.846 1.57033 -0.133567 0
M  V30 2377 C 214.095 1.94861 0.520768 0
M  V30 2378 C 214.408 1.02012 1.66892 0
M  V30 2379 O 215.614 1.29365 2.38699 0
M  V30 2380 C 214.07 3.46362 0.977809 0
M  V30 2381 C 213.678 4.47773 -0.142674 0
M  V30 2382 C 215.422 3.93083 1.60269 0
M  V30 2383 C 213.329 5.90468 0.331883 0
M  V30 2384 H 212.259 0.727453 0.198315 0
M  V30 2385 H 214.91 1.82227 -0.215759 0
M  V30 2386 H 213.292 3.54282 1.7692 0
M  V30 2387 H 214.466 4.51536 -0.919317 0
M  V30 2388 H 212.781 4.10891 -0.675124 0
M  V30 2389 H 215.378 4.97121 1.96914 0
M  V30 2390 H 215.721 3.33876 2.48662 0
M  V30 2391 H 216.254 3.88025 0.876453 0
M  V30 2392 H 212.993 6.53463 -0.516341 0
M  V30 2393 H 212.513 5.90094 1.07469 0
M  V30 2394 H 214.192 6.42179 0.788332 0
M  V30 2395 N 214.325 -0.140222 1.56975 0
M  V30 2396 C 215.255 -1.17456 2.01808 0
M  V30 2397 C 216.236 -1.44415 0.898794 0
M  V30 2398 O 217.421 -1.5522 1.16707 0
M  V30 2399 C 214.551 -2.50607 2.40444 0
M  V30 2400 C 213.505 -2.38155 3.55621 0
M  V30 2401 C 212.831 -3.76078 3.80091 0
M  V30 2402 C 214.131 -1.85991 4.88062 0
M  V30 2403 H 215.825 -0.801743 2.88466 0
M  V30 2404 H 213.371 -0.38422 1.38779 0
M  V30 2405 H 215.324 -3.23197 2.7041 0
M  V30 2406 H 214.048 -2.89737 1.50732 0
M  V30 2407 H 212.707 -1.68016 3.25832 0
M  V30 2408 H 212.355 -4.12656 2.87618 0
M  V30 2409 H 212.055 -3.68606 4.57606 0
M  V30 2410 H 213.579 -4.50206 4.12488 0
M  V30 2411 H 214.993 -2.4838 5.16701 0
M  V30 2412 H 213.39 -1.89393 5.6943 0
M  V30 2413 H 214.46 -0.816023 4.77984 0
M  V30 2414 N 215.803 -1.52179 -0.40978 0
M  V30 2415 C 217.028 -1.70347 -1.18308 0
M  V30 2416 C 217.453 -0.411887 -1.83535 0
M  V30 2417 O 216.811 0.630587 -1.6998 0
M  V30 2418 C 216.859 -2.83977 -2.22238 0
M  V30 2419 O 215.963 -2.495 -3.28365 0
M  V30 2420 H 215.304 -0.567103 -0.345384 0
M  V30 2421 H 217.834 -1.98879 -0.480445 0
M  V30 2422 H 217.844 -3.0887 -2.66577 0
M  V30 2423 H 216.519 -3.77685 -1.74146 0
M  V30 2424 H 215.096 -2.35277 -2.89308 0
M  V30 2425 N 217.281 0.66697 -1.42791 0
M  V30 2426 C 218.558 1.4234 -1.34159 0
M  V30 2427 C 218.938 2.11093 0.0172729 0
M  V30 2428 O 218.286 2.03808 1.03318 0
M  V30 2429 C 218.496 2.41942 -2.51526 0
M  V30 2430 C 219.844 3.06353 -2.93995 0
M  V30 2431 O 220.868 2.52269 -2.51473 0
M  V30 2432 O 219.727 4.04376 -3.67617 0
M  V30 2433 H 216.821 0.635277 -0.529483 0
M  V30 2434 H 219.367 0.695034 -1.54814 0
M  V30 2435 H 218.139 1.89991 -3.42081 0
M  V30 2436 H 217.762 3.22249 -2.32898 0
M  V30 2437 N 218.759 1.29093 0.90403 0
M  V30 2438 C 219.669 1.15727 2.0407 0
M  V30 2439 C 220.685 0.0815308 1.73809 0
M  V30 2440 O 221.861 0.292749 1.99261 0
M  V30 2441 C 218.926 0.830424 3.36608 0
M  V30 2442 C 217.987 1.98955 3.80415 0
M  V30 2443 C 217.22 1.6782 5.06628 0
M  V30 2444 O 217.443 0.597105 5.67266 0
M  V30 2445 O 216.377 2.52486 5.46383 0
M  V30 2446 H 220.203 2.11171 2.18267 0
M  V30 2447 H 217.788 1.08504 1.027 0
M  V30 2448 H 219.67 0.662521 4.16159 0
M  V30 2449 H 218.345 -0.0942678 3.23563 0
M  V30 2450 H 217.252 2.21267 3.01648 0
M  V30 2451 H 218.585 2.89529 3.98037 0
M  V30 2452 N 220.237 -1.11381 1.11499 0
M  V30 2453 C 221.167 -2.19509 0.796125 0
M  V30 2454 C 222.148 -1.68458 -0.235796 0
M  V30 2455 O 223.333 -1.93947 -0.0991344 0
M  V30 2456 C 220.463 -3.46475 0.239205 0
M  V30 2457 C 219.417 -4.10744 1.20307 0
M  V30 2458 C 218.743 -5.32293 0.50683 0
M  V30 2459 C 220.043 -4.55597 2.55399 0
M  V30 2460 H 221.737 -2.46439 1.70024 0
M  V30 2461 H 219.283 -1.18446 0.818935 0
M  V30 2462 H 221.236 -4.214 0.00392006 0
M  V30 2463 H 219.96 -3.19006 -0.700206 0
M  V30 2464 H 218.619 -3.37813 1.42399 0
M  V30 2465 H 218.267 -5.01095 -0.437408 0
M  V30 2466 H 217.967 -5.76243 1.1497 0
M  V30 2467 H 219.491 -6.09956 0.280351 0
M  V30 2468 H 220.905 -5.21841 2.37391 0
M  V30 2469 H 219.302 -5.10363 3.15673 0
M  V30 2470 H 220.372 -3.69013 3.14575 0
M  V30 2471 N 221.715 -0.905404 -1.28997 0
M  V30 2472 C 222.647 -0.344748 -2.26592 0
M  V30 2473 C 223.66 0.512135 -1.54535 0
M  V30 2474 O 224.849 0.328368 -1.75454 0
M  V30 2475 C 221.949 0.526587 -3.34784 0
M  V30 2476 C 221.122 -0.305871 -4.36329 0
M  V30 2477 C 220.181 0.499209 -5.23827 0
M  V30 2478 O 219.207 -0.0853004 -5.69136 0
M  V30 2479 N 220.409 1.80408 -5.51755 0
M  V30 2480 H 223.174 -1.18359 -2.75338 0
M  V30 2481 H 220.735 -0.770481 -1.42391 0
M  V30 2482 H 222.727 1.07171 -3.90252 0
M  V30 2483 H 221.297 1.26613 -2.85811 0
M  V30 2484 H 220.517 -1.0324 -3.80441 0
M  V30 2485 H 221.805 -0.875773 -5.01206 0
M  V30 2486 H 221.203 2.3016 -5.16762 0
M  V30 2487 H 219.76 2.29621 -6.10014 0
M  V30 2488 N 223.193 1.4272 -0.668489 0
M  V30 2489 C 224.123 2.335 -0.000100175 0
M  V30 2490 C 225.104 1.50328 0.795964 0
M  V30 2491 O 226.289 1.78949 0.754385 0
M  V30 2492 C 223.419 3.33874 0.956302 0
M  V30 2493 C 222.373 4.27152 0.269278 0
M  V30 2494 C 221.699 5.17684 1.33818 0
M  V30 2495 C 222.999 5.15373 -0.847805 0
M  V30 2496 H 224.693 2.89639 -0.758244 0
M  V30 2497 H 222.239 1.39269 -0.366079 0
M  V30 2498 H 224.192 3.9629 1.43292 0
M  V30 2499 H 222.916 2.76025 1.74579 0
M  V30 2500 H 221.575 3.66123 -0.187042 0
M  V30 2501 H 221.223 4.56165 2.1195 0
M  V30 2502 H 220.923 5.80918 0.883659 0
M  V30 2503 H 222.447 5.82974 1.81586 0
M  V30 2504 H 223.861 5.7151 -0.452681 0
M  V30 2505 H 222.258 5.87407 -1.22773 0
M  V30 2506 H 223.328 4.5415 -1.69929 0
M  V30 2507 N 224.671 0.411399 1.52136 0
M  V30 2508 C 225.618 -0.412975 2.27075 0
M  V30 2509 C 226.588 -1.03912 1.29582 0
M  V30 2510 O 227.773 -1.06296 1.58448 0
M  V30 2511 C 224.913 -1.52247 3.09701 0
M  V30 2512 C 224.026 -0.917021 4.22155 0
M  V30 2513 C 223.161 -1.9994 4.92135 0
M  V30 2514 C 222.2 -1.37101 5.96548 0
M  V30 2515 N 221.337 -2.39364 6.60038 0
M  V30 2516 H 226.177 0.232499 2.97092 0
M  V30 2517 H 223.714 0.126496 1.46555 0
M  V30 2518 H 225.672 -2.17674 3.55913 0
M  V30 2519 H 224.302 -2.13794 2.41851 0
M  V30 2520 H 223.354 -0.151742 3.80097 0
M  V30 2521 H 224.666 -0.418006 4.97045 0
M  V30 2522 H 223.82 -2.73088 5.41763 0
M  V30 2523 H 222.559 -2.53208 4.16818 0
M  V30 2524 H 221.564 -0.624873 5.46237 0
M  V30 2525 H 222.789 -0.845998 6.7381 0
M  V30 2526 H 220.735 -2.91759 5.87548 0
M  V30 2527 H 220.652 -1.9428 7.3061 0
M  V30 2528 H 221.92 -3.12074 7.14304 0
M  V30 2529 N 226.149 -1.5696 0.141893 0
M  V30 2530 C 227.082 -2.12271 -0.837627 0
M  V30 2531 C 228.06 -1.04495 -1.24578 0
M  V30 2532 O 229.244 -1.32293 -1.34278 0
M  V30 2533 C 226.371 -2.63822 -2.12404 0
M  V30 2534 C 225.417 -3.83698 -1.86221 0
M  V30 2535 S 226.25 -5.24948 -1.05781 0
M  V30 2536 C 227.406 -5.79884 -2.35552 0
M  V30 2537 H 227.639 -2.95023 -0.367249 0
M  V30 2538 H 225.172 -1.54231 -0.0723014 0
M  V30 2539 H 227.13 -2.94175 -2.86307 0
M  V30 2540 H 225.791 -1.8121 -2.56557 0
M  V30 2541 H 224.984 -4.17995 -2.81596 0
M  V30 2542 H 224.586 -3.5408 -1.20429 0
M  V30 2543 H 226.878 -5.91005 -3.31239 0
M  V30 2544 H 227.821 -6.77544 -2.05767 0
M  V30 2545 H 228.229 -5.08095 -2.45967 0
M  V30 2546 N 227.627 0.131896 -1.57047 0
M  V30 2547 C 228.559 1.1878 -1.9602 0
M  V30 2548 C 229.572 1.38363 -0.857875 0
M  V30 2549 O 230.761 1.37666 -1.13623 0
M  V30 2550 C 227.861 2.55008 -2.23213 0
M  V30 2551 C 227.034 2.56201 -3.54513 0
M  V30 2552 C 226.093 3.7408 -3.70069 0
M  V30 2553 O 225.119 3.58258 -4.42312 0
M  V30 2554 N 226.321 4.92137 -3.07866 0
M  V30 2555 H 229.086 0.85639 -2.87204 0
M  V30 2556 H 226.647 0.321309 -1.5868 0
M  V30 2557 H 228.639 3.32404 -2.30846 0
M  V30 2558 H 227.209 2.80382 -1.3822 0
M  V30 2559 H 226.429 1.64613 -3.58185 0
M  V30 2560 H 227.717 2.54043 -4.4084 0
M  V30 2561 H 227.115 5.07895 -2.49116 0
M  V30 2562 H 225.672 5.67254 -3.21039 0
M  V30 2563 N 229.106 1.52395 0.401703 0
M  V30 2564 C 230.036 1.79231 1.49661 0
M  V30 2565 C 231.017 0.643654 1.57452 0
M  V30 2566 O 232.202 0.889989 1.72606 0
M  V30 2567 C 229.332 1.94971 2.87409 0
M  V30 2568 C 228.286 3.10604 2.94465 0
M  V30 2569 C 227.612 3.11577 4.34538 0
M  V30 2570 C 228.912 4.49921 2.6527 0
M  V30 2571 H 230.606 2.70917 1.27454 0
M  V30 2572 H 228.152 1.30362 0.6117 0
M  V30 2573 H 230.105 2.12328 3.63999 0
M  V30 2574 H 228.829 0.999632 3.10926 0
M  V30 2575 H 227.488 2.93009 2.20321 0
M  V30 2576 H 227.136 2.14277 4.55076 0
M  V30 2577 H 226.836 3.89247 4.40183 0
M  V30 2578 H 228.36 3.31073 5.13053 0
M  V30 2579 H 229.774 4.67683 3.31581 0
M  V30 2580 H 228.171 5.29564 2.82281 0
M  V30 2581 H 229.241 4.57507 1.60671 0
M  V30 2582 N 230.584 -0.659388 1.43143 0
M  V30 2583 C 231.514 -1.78422 1.50625 0
M  V30 2584 C 232.495 -1.66216 0.361443 0
M  V30 2585 O 233.68 -1.85404 0.577834 0
M  V30 2586 C 230.81 -3.16815 1.42287 0
M  V30 2587 C 229.764 -3.43777 2.54954 0
M  V30 2588 C 229.09 -4.81905 2.31671 0
M  V30 2589 C 230.39 -3.39134 3.97222 0
M  V30 2590 H 232.084 -1.72417 2.44771 0
M  V30 2591 H 229.63 -0.828084 1.17808 0
M  V30 2592 H 231.583 -3.95253 1.46127 0
M  V30 2593 H 230.307 -3.23534 0.446435 0
M  V30 2594 H 228.966 -2.67707 2.50457 0
M  V30 2595 H 228.614 -4.85294 1.32284 0
M  V30 2596 H 228.314 -5.00906 3.07192 0
M  V30 2597 H 229.838 -5.62609 2.37284 0
M  V30 2598 H 231.252 -4.07518 4.03239 0
M  V30 2599 H 229.649 -3.69671 4.72719 0
M  V30 2600 H 230.719 -2.37426 4.22797 0
M  V30 2601 N 232.062 -1.29571 -0.897171 0
M  V30 2602 C 233.308 -1.17863 -1.65034 0
M  V30 2603 C 233.641 0.268729 -1.92332 0
M  V30 2604 O 232.916 1.19378 -1.53555 0
M  V30 2605 C 233.199 -1.995 -2.99786 0
M  V30 2606 C 233.052 -3.5239 -2.79538 0
M  V30 2607 C 234.371 -1.82335 -4.00552 0
M  V30 2608 H 231.49 -0.429528 -0.598895 0
M  V30 2609 H 234.132 -1.59072 -1.03905 0
M  V30 2610 H 232.282 -1.64485 -3.51962 0
M  V30 2611 H 233.954 -3.97401 -2.34244 0
M  V30 2612 H 232.197 -3.77187 -2.14273 0
M  V30 2613 H 232.868 -4.04787 -3.75302 0
M  V30 2614 H 235.344 -2.12924 -3.57495 0
M  V30 2615 H 234.22 -2.41801 -4.92771 0
M  V30 2616 H 234.481 -0.779209 -4.35179 0
M  V30 2617 N 233.54 1.10788 -1.12088 0
M  V30 2618 C 234.956 1.34691 -0.856186 0
M  V30 2619 C 235.156 1.94791 0.515615 0
M  V30 2620 O 234.212 2.18524 1.26505 0
M  V30 2621 C 235.525 2.27208 -1.9697 0
M  V30 2622 C 237.073 2.40755 -2.00016 0
M  V30 2623 C 237.548 3.36598 -3.1059 0
M  V30 2624 N 239.039 3.44164 -3.10008 0
M  V30 2625 C 239.774 4.18284 -3.92206 0
M  V30 2626 N 239.27 4.95322 -4.84384 0
M  V30 2627 N 241.063 4.13865 -3.80357 0
M  V30 2628 H 233.214 0.70144 -2.00483 0
M  V30 2629 H 235.477 0.371405 -0.872217 0
M  V30 2630 H 235.183 1.90251 -2.958 0
M  V30 2631 H 235.057 3.27485 -1.87172 0
M  V30 2632 H 237.444 2.76982 -1.01808 0
M  V30 2633 H 237.525 1.40305 -2.13888 0
M  V30 2634 H 237.169 3.01096 -4.09028 0
M  V30 2635 H 237.099 4.36918 -2.93956 0
M  V30 2636 H 239.59 2.8922 -2.43228 0
M  V30 2637 H 239.903 5.49267 -5.43623 0
M  V30 2638 H 238.248 4.94459 -4.884 0
M  V30 2639 H 241.439 3.52773 -3.07683 0
M  V30 2640 H 241.612 4.71372 -4.44649 0
M  V30 2641 N 235.018 0.912232 1.28515 0
M  V30 2642 C 235.928 0.404506 2.31086 0
M  V30 2643 C 236.944 -0.50707 1.66448 0
M  V30 2644 O 238.12 -0.393624 1.97516 0
M  V30 2645 C 235.185 -0.348572 3.44943 0
M  V30 2646 C 234.246 0.59604 4.25142 0
M  V30 2647 C 233.479 -0.121194 5.33562 0
M  V30 2648 O 233.702 -1.34317 5.5436 0
M  V30 2649 O 232.636 0.542716 5.99448 0
M  V30 2650 H 236.462 1.25579 2.76521 0
M  V30 2651 H 234.047 0.676998 1.33181 0
M  V30 2652 H 235.929 -0.77395 4.14232 0
M  V30 2653 H 234.604 -1.17571 3.01594 0
M  V30 2654 H 233.511 1.07079 3.58448 0
M  V30 2655 H 234.844 1.38995 4.72167 0
M  V30 2656 N 236.496 -1.42363 0.676048 0
M  V30 2657 C 237.721 -2.06377 0.205705 0
M  V30 2658 C 238.146 -1.50463 -1.12883 0
M  V30 2659 O 237.504 -0.623619 -1.70237 0
M  V30 2660 C 237.552 -3.60277 0.152655 0
M  V30 2661 O 236.656 -4.02935 -0.87845 0
M  V30 2662 H 235.997 -0.655588 0.105359 0
M  V30 2663 H 238.527 -1.82475 0.925412 0
M  V30 2664 H 238.537 -4.07993 -0.0230675 0
M  V30 2665 H 237.212 -4.00346 1.12675 0
M  V30 2666 H 235.789 -3.66764 -0.673668 0
M  V30 2667 N 237.974 -0.419461 -1.51915 0
M  V30 2668 C 238.904 0.391813 -2.30189 0
M  V30 2669 C 239.885 1.03699 -1.34836 0
M  V30 2670 O 241.07 1.04403 -1.63748 0
M  V30 2671 C 238.2 1.50312 -3.13087 0
M  V30 2672 C 237.154 0.9824 -4.16573 0
M  V30 2673 C 236.48 2.18809 -4.8788 0
M  V30 2674 C 237.78 0.0292356 -5.22292 0
M  V30 2675 H 239.474 -0.26135 -2.98257 0
M  V30 2676 H 237.02 -0.127134 -1.43438 0
M  V30 2677 H 238.973 2.07773 -3.66617 0
M  V30 2678 H 237.697 2.18431 -2.42807 0
M  V30 2679 H 236.356 0.430119 -3.64068 0
M  V30 2680 H 236.004 2.85507 -4.14119 0
M  V30 2681 H 235.704 1.84615 -5.57845 0
M  V30 2682 H 237.228 2.76858 -5.44226 0
M  V30 2683 H 238.642 0.512976 -5.71 0
M  V30 2684 H 237.039 -0.2244 -5.9968 0
M  V30 2685 H 238.109 -0.912931 -4.76228 0
M  V30 2686 N 239.452 1.56882 -0.150215 0
M  V30 2687 C 240.385 2.12712 0.826358 0
M  V30 2688 C 241.363 1.05154 1.24022 0
M  V30 2689 O 242.547 1.33004 1.33575 0
M  V30 2690 C 239.674 2.64945 2.11002 0
M  V30 2691 C 238.72 3.8468 1.84183 0
M  V30 2692 S 239.553 5.25502 1.02995 0
M  V30 2693 C 240.709 5.81125 2.32474 0
M  V30 2694 H 240.942 2.95214 0.351598 0
M  V30 2695 H 238.475 1.54267 0.0641211 0
M  V30 2696 H 240.433 2.95689 2.84742 0
M  V30 2697 H 239.094 1.82568 2.55593 0
M  V30 2698 H 238.287 4.19482 2.79375 0
M  V30 2699 H 237.889 3.54714 1.1855 0
M  V30 2700 H 240.181 5.92753 3.281 0
M  V30 2701 H 241.124 6.78625 2.02171 0
M  V30 2702 H 241.532 5.09392 2.43269 0
M  V30 2703 N 240.93 -0.123565 1.57115 0
M  V30 2704 C 241.893 -1.13583 1.99076 0
M  V30 2705 C 242.893 -1.34564 0.880296 0
M  V30 2706 O 244.083 -1.31158 1.14644 0
M  V30 2707 C 241.215 -2.49128 2.32698 0
M  V30 2708 H 242.408 -0.775287 2.89706 0
M  V30 2709 H 239.961 -0.36771 1.51913 0
M  V30 2710 H 240.696 -2.90111 1.44934 0
M  V30 2711 H 240.481 -2.35255 3.13684 0
M  V30 2712 H 241.971 -3.2199 2.65918 0
M  V30 2713 N 242.408 -1.52605 -0.393616 0
M  V30 2714 C 243.338 -1.80022 -1.48709 0
M  V30 2715 C 244.319 -0.651995 -1.57108 0
M  V30 2716 O 245.504 -0.89913 -1.72132 0
M  V30 2717 C 242.634 -1.96492 -2.86371 0
M  V30 2718 C 241.588 -3.12161 -2.92813 0
M  V30 2719 C 240.914 -3.13877 -4.3288 0
M  V30 2720 C 242.214 -4.51322 -2.6288 0
M  V30 2721 H 243.908 -2.71589 -1.26015 0
M  V30 2722 H 241.454 -1.30684 -0.604778 0
M  V30 2723 H 243.407 -2.14255 -3.62867 0
M  V30 2724 H 242.131 -1.01611 -3.10391 0
M  V30 2725 H 240.79 -2.94173 -2.18764 0
M  V30 2726 H 240.438 -2.16687 -4.53933 0
M  V30 2727 H 240.138 -3.91576 -4.38112 0
M  V30 2728 H 241.662 -3.33789 -5.1129 0
M  V30 2729 H 243.076 -4.69435 -3.29096 0
M  V30 2730 H 241.473 -5.31053 -2.79468 0
M  V30 2731 H 242.543 -4.58353 -1.58242 0
M  V30 2732 N 243.887 0.651787 -1.4349 0
M  V30 2733 C 244.82 1.77668 -1.43211 0
M  V30 2734 C 245.798 1.59931 -0.29338 0
M  V30 2735 O 246.982 1.82095 -0.487191 0
M  V30 2736 C 244.109 3.14986 -1.24505 0
M  V30 2737 C 243.155 3.51421 -2.41673 0
M  V30 2738 S 243.988 3.51234 -4.04222 0
M  V30 2739 C 245.144 4.91206 -3.87902 0
M  V30 2740 H 245.377 1.77635 -2.38397 0
M  V30 2741 H 242.91 0.824558 -1.30539 0
M  V30 2742 H 244.868 3.94237 -1.144 0
M  V30 2743 H 243.529 3.1258 -0.308651 0
M  V30 2744 H 242.722 4.51291 -2.24393 0
M  V30 2745 H 242.324 2.79585 -2.48411 0
M  V30 2746 H 244.616 5.79902 -3.50315 0
M  V30 2747 H 245.559 5.13537 -4.8753 0
M  V30 2748 H 245.967 4.64808 -3.20334 0
M  V30 2749 N 245.365 1.30045 0.890287 0
M  V30 2750 C 246.781 1.08261 1.17268 0
M  V30 2751 C 246.981 -0.160063 2.00863 0
M  V30 2752 O 246.037 -0.855181 2.37577 0
M  V30 2753 C 247.35 2.34323 1.8845 0
M  V30 2754 C 248.898 2.39735 2.01237 0
M  V30 2755 C 249.373 3.65625 2.7583 0
M  V30 2756 N 250.864 3.66402 2.83379 0
M  V30 2757 C 251.599 4.60498 3.41657 0
M  V30 2758 N 251.095 5.64933 4.01026 0
M  V30 2759 N 252.888 4.48051 3.39421 0
M  V30 2760 H 245.039 2.09777 0.332762 0
M  V30 2761 H 247.302 0.92446 0.209948 0
M  V30 2762 H 247.008 3.2498 1.34465 0
M  V30 2763 H 246.882 2.4256 2.88867 0
M  V30 2764 H 249.269 1.4956 2.54393 0
M  V30 2765 H 249.35 2.35476 0.999232 0
M  V30 2766 H 248.994 4.56156 2.23347 0
M  V30 2767 H 248.924 3.67144 3.77509 0
M  V30 2768 H 251.415 2.90896 2.41222 0
M  V30 2769 H 251.728 6.32841 4.43545 0
M  V30 2770 H 250.073 5.68732 3.99461 0
M  V30 2771 H 253.264 3.65649 2.92264 0
M  V30 2772 H 253.437 5.21565 3.84544 0
M  V30 2773 N 246.843 -1.10192 1.12674 0
M  V30 2774 C 247.773 -2.18652 0.819362 0
M  V30 2775 C 248.754 -1.68698 -0.217915 0
M  V30 2776 O 249.939 -1.94041 -0.0785581 0
M  V30 2777 C 247.069 -3.46202 0.27594 0
M  V30 2778 C 246.023 -4.09444 1.24656 0
M  V30 2779 C 245.349 -5.31725 0.563258 0
M  V30 2780 C 246.649 -4.52863 2.60217 0
M  V30 2781 H 248.343 -2.44622 1.72628 0
M  V30 2782 H 245.889 -1.17571 0.831451 0
M  V30 2783 H 247.842 -4.21372 0.0486149 0
M  V30 2784 H 246.566 -3.1973 -0.666331 0
M  V30 2785 H 245.225 -3.36284 1.45974 0
M  V30 2786 H 244.873 -5.0153 -0.384235 0
M  V30 2787 H 244.573 -5.74991 1.21075 0
M  V30 2788 H 246.097 -6.09624 0.34503 0
M  V30 2789 H 247.511 -5.19294 2.42913 0
M  V30 2790 H 245.908 -5.06986 3.21068 0
M  V30 2791 H 246.978 -3.65656 3.18471 0
M  V30 2792 N 248.321 -0.919034 -1.28029 0
M  V30 2793 C 249.269 -0.401753 -2.29104 0
M  V30 2794 C 250.263 0.509354 -1.61561 0
M  V30 2795 O 251.469 0.390014 -1.75724 0
M  V30 2796 H 247.844 -0.111331 -0.743713 0
M  V30 2797 H 249.815 -1.2672 -2.70156 0
M  V30 2798 C 248.564 0.338148 -3.46052 0
M  V30 2799 H 247.887 -0.353732 -3.98232 0
M  V30 2800 H 249.327 0.664653 -4.18758 0
M  V30 2801 C 247.786 1.54798 -2.99231 0
M  V30 2802 O 248.316 2.64696 -3.02157 0
M  V30 2803 N 246.522 1.3968 -2.54829 0
M  V30 2804 H 246.069 0.502698 -2.52647 0
M  V30 2805 H 246.027 2.20755 -2.23863 0
M  V30 2806 N 249.799 1.42003 -0.683588 0
M  V30 2807 C 251.076 1.95112 -0.138075 0
M  V30 2808 C 251.456 1.62359 1.34918 0
M  V30 2809 O 250.804 0.924311 2.08971 0
M  V30 2810 C 251.014 3.46505 -0.416581 0
M  V30 2811 C 252.362 4.23254 -0.337834 0
M  V30 2812 O 253.386 3.54468 -0.35082 0
M  V30 2813 O 252.245 5.45743 -0.287596 0
M  V30 2814 H 249.339 0.826961 -0.00797996 0
M  V30 2815 H 251.885 1.51784 -0.758924 0
M  V30 2816 H 250.657 3.63582 -1.4465 0
M  V30 2817 H 250.28 3.969 0.235839 0
M  V30 2818 N 251.277 0.427512 1.51691 0
M  V30 2819 C 252.187 -0.39527 2.31246 0
M  V30 2820 C 253.203 -1.03674 1.39742 0
M  V30 2821 O 254.379 -1.03425 1.72816 0
M  V30 2822 C 251.444 -1.48706 3.13189 0
M  V30 2823 C 250.505 -0.866743 4.20459 0
M  V30 2824 C 249.738 -1.90651 4.98486 0
M  V30 2825 O 249.961 -3.12733 4.77026 0
M  V30 2826 O 248.895 -1.5025 5.82845 0
M  V30 2827 H 252.721 0.253918 3.02637 0
M  V30 2828 H 250.306 0.190274 1.48183 0
M  V30 2829 H 252.188 -2.12047 3.64162 0
M  V30 2830 H 250.863 -2.12051 2.44573 0
M  V30 2831 H 249.77 -0.195544 3.73589 0
M  V30 2832 H 251.103 -0.276934 4.9142 0
M  V30 2833 N 252.755 -1.56801 0.158532 0
M  V30 2834 C 254.004 -1.95665 -0.489702 0
M  V30 2835 C 254.317 -1.04654 -1.65248 0
M  V30 2836 O 255.523 -1.33146 -2.3661 0
M  V30 2837 C 253.979 -3.47874 -0.922582 0
M  V30 2838 C 253.587 -4.47489 0.213893 0
M  V30 2839 C 255.331 -3.95583 -1.53996 0
M  V30 2840 C 253.238 -5.90921 -0.237903 0
M  V30 2841 H 252.168 -0.730516 -0.186716 0
M  V30 2842 H 254.819 -1.81861 0.244722 0
M  V30 2843 H 253.201 -3.57051 -1.71261 0
M  V30 2844 H 254.375 -4.50017 0.991036 0
M  V30 2845 H 252.69 -4.09764 0.740407 0
M  V30 2846 H 255.287 -5.0019 -1.8898 0
M  V30 2847 H 255.63 -3.37789 -2.43319 0
M  V30 2848 H 256.163 -3.8937 -0.814611 0
M  V30 2849 H 252.902 -6.52559 0.620236 0
M  V30 2850 H 252.422 -5.91729 -0.980676 0
M  V30 2851 H 254.101 -6.43352 -0.686067 0
M  V30 2852 N 254.233 0.115231 -1.57178 0
M  V30 2853 C 255.479 0.82357 -1.85325 0
M  V30 2854 C 255.812 1.79349 -0.744814 0
M  V30 2855 O 255.087 1.92899 0.249024 0
M  V30 2856 C 255.37 1.57014 -3.24066 0
M  V30 2857 C 255.223 0.619565 -4.45513 0
M  V30 2858 C 256.542 2.52545 -3.60429 0
M  V30 2859 H 253.661 0.297948 -0.674089 0
M  V30 2860 H 256.303 0.0877138 -1.89797 0
M  V30 2861 H 254.453 2.19742 -3.20383 0
M  V30 2862 H 256.125 0.000837639 -4.613 0
M  V30 2863 H 254.368 -0.0686174 -4.33746 0
M  V30 2864 H 255.039 1.17866 -5.3927 0
M  V30 2865 H 257.515 1.9992 -3.64926 0
M  V30 2866 H 256.391 3.01811 -4.58477 0
M  V30 2867 H 256.652 3.35383 -2.88047 0
M  V30 2868 N 255.711 1.52812 0.385517 0
M  V30 2869 C 256.644 1.72592 1.49289 0
M  V30 2870 C 257.622 0.573819 1.52138 0
M  V30 2871 O 258.806 0.80404 1.70492 0
M  V30 2872 C 255.933 1.78669 2.87741 0
M  V30 2873 C 254.979 3.00455 3.02703 0
M  V30 2874 S 255.812 4.60366 2.73538 0
M  V30 2875 C 256.968 4.69263 4.14177 0
M  V30 2876 H 257.201 2.66248 1.32285 0
M  V30 2877 H 254.734 1.43148 0.578611 0
M  V30 2878 H 256.692 1.82855 3.67524 0
M  V30 2879 H 255.353 0.861 3.02069 0
M  V30 2880 H 254.546 3.01258 4.04054 0
M  V30 2881 H 254.148 2.94278 2.30817 0
M  V30 2882 H 256.44 4.48092 5.08153 0
M  V30 2883 H 257.383 5.71276 4.18388 0
M  V30 2884 H 257.791 3.98072 4.00249 0
M  V30 2885 N 257.189 -0.644168 1.43834 0
M  V30 2886 C 258.417 -1.43147 1.49387 0
M  V30 2887 C 258.832 -1.88452 0.114583 0
M  V30 2888 O 258.189 -1.60047 -0.876989 0
M  V30 2889 C 258.24 -2.66046 2.44748 0
M  V30 2890 O 257.961 -2.22633 3.77314 0
M  V30 2891 C 259.462 -3.59311 2.59635 0
M  V30 2892 H 256.682 -0.439447 0.507077 0
M  V30 2893 H 259.226 -0.78895 1.88669 0
M  V30 2894 H 257.381 -3.26418 2.08638 0
M  V30 2895 H 257.795 -3.02216 4.28679 0
M  V30 2896 H 259.269 -4.42187 3.30416 0
M  V30 2897 H 259.746 -4.07259 1.64427 0
M  V30 2898 H 260.352 -3.04816 2.96593 0
M  V30 2899 N 258.668 -1.30515 -0.883378 0
M  V30 2900 C 260.079 -1.17509 -1.45081 0
M  V30 2901 C 260.43 0.223605 -1.94922 0
M  V30 2902 O 259.555 1.12041 -1.85137 0
M  V30 2903 C 260.15 -2.12715 -2.63701 0
M  V30 2904 C 258.709 -2.03682 -3.16529 0
M  V30 2905 C 257.856 -2.02706 -1.89224 0
M  V30 2906 H 260.807 -1.42762 -0.693165 0
M  V30 2907 H 260.828 -1.70891 -3.39965 0
M  V30 2908 H 260.34 -3.14505 -2.27395 0
M  V30 2909 H 258.441 -1.05039 -3.57488 0
M  V30 2910 H 258.554 -2.92146 -3.7972 0
M  V30 2911 H 256.918 -1.4753 -2.07622 0
M  V30 2912 H 257.701 -3.06229 -1.55174 0
M  V30 2913 N 260.146 1.09593 -1.13257 0
M  V30 2914 C 261.056 2.19739 -0.821691 0
M  V30 2915 C 262.072 1.72926 0.19302 0
M  V30 2916 O 263.248 2.01385 0.0244895 0
M  V30 2917 C 260.313 3.45482 -0.290333 0
M  V30 2918 C 259.374 4.06985 -1.36607 0
M  V30 2919 C 258.607 5.26726 -0.859975 0
M  V30 2920 O 258.83 5.69594 0.303082 0
M  V30 2921 O 257.764 5.7931 -1.63351 0
M  V30 2922 H 261.59 2.48781 -1.74189 0
M  V30 2923 H 259.175 1.18496 -0.909894 0
M  V30 2924 H 261.057 4.214 0.000674022 0
M  V30 2925 H 259.732 3.18047 0.602306 0
M  V30 2926 H 258.639 3.32712 -1.71037 0
M  V30 2927 H 259.972 4.38643 -2.23279 0
M  V30 2928 N 261.624 0.925811 1.2754 0
M  V30 2929 C 262.557 0.367836 2.25216 0
M  V30 2930 C 263.535 -0.534738 1.53556 0
M  V30 2931 O 264.719 -0.475672 1.824 0
M  V30 2932 C 261.846 -0.47298 3.35381 0
M  V30 2933 C 260.892 0.365898 4.24928 0
M  V30 2934 S 261.725 1.78025 5.05042 0
M  V30 2935 C 262.881 0.947068 6.18693 0
M  V30 2936 H 263.114 1.19568 2.72196 0
M  V30 2937 H 260.647 0.727867 1.36167 0
M  V30 2938 H 262.605 -0.952242 3.99303 0
M  V30 2939 H 261.266 -1.27533 2.87044 0
M  V30 2940 H 260.459 -0.277582 5.03235 0
M  V30 2941 H 260.061 0.779261 3.65792 0
M  V30 2942 H 262.353 0.182201 6.77255 0
M  V30 2943 H 263.296 1.70309 6.87314 0
M  V30 2944 H 263.704 0.489913 5.6237 0
M  V30 2945 N 263.102 -1.41638 0.69111 0
M  V30 2946 C 264.05 -2.32597 0.0115199 0
M  V30 2947 C 265.044 -1.5072 -0.773296 0
M  V30 2948 O 266.25 -1.66685 -0.67942 0
M  V30 2949 H 262.625 -0.751849 -0.0150746 0
M  V30 2950 H 264.596 -2.87593 0.795791 0
M  V30 2951 C 263.345 -3.35467 -0.914172 0
M  V30 2952 H 262.668 -3.9852 -0.319687 0
M  V30 2953 H 264.108 -4.01662 -1.35808 0
M  V30 2954 C 262.567 -2.69004 -2.02826 0
M  V30 2955 O 263.097 -2.53444 -3.11655 0
M  V30 2956 N 261.303 -2.2777 -1.80469 0
M  V30 2957 H 260.85 -2.40626 -0.919615 0
M  V30 2958 H 260.808 -1.83635 -2.55197 0
M  V30 2959 N 264.58 -0.43555 -1.51462 0
M  V30 2960 C 265.827 0.131514 -2.02072 0
M  V30 2961 C 266.155 1.42868 -1.31981 0
M  V30 2962 O 265.41 1.91076 -0.422883 0
M  V30 2963 C 265.709 0.39942 -3.55161 0
M  V30 2964 C 265.375 -0.81172 -4.43533 0
M  V30 2965 C 264.037 -1.14387 -4.67407 0
M  V30 2966 C 266.389 -1.61976 -4.95392 0
M  V30 2967 C 263.717 -2.28477 -5.40384 0
M  V30 2968 C 266.069 -2.75164 -5.6962 0
M  V30 2969 C 264.733 -3.08835 -5.91758 0
M  V30 2970 H 264.003 0.0481244 -0.739436 0
M  V30 2971 H 266.65 -0.58238 -1.8243 0
M  V30 2972 H 264.955 1.19519 -3.73125 0
M  V30 2973 H 266.652 0.85157 -3.91854 0
M  V30 2974 H 263.242 -0.542898 -4.25148 0
M  V30 2975 H 267.426 -1.37637 -4.76833 0
M  V30 2976 H 262.682 -2.5488 -5.55739 0
M  V30 2977 H 266.856 -3.38147 -6.08793 0
M  V30 2978 H 264.483 -3.97353 -6.48086 0
M  V30 2979 N 266.058 1.56714 -0.166846 0
M  V30 2980 C 267.283 2.01557 0.488833 0
M  V30 2981 C 267.708 1.0463 1.56314 0
M  V30 2982 O 267.066 0.0251304 1.81283 0
M  V30 2983 C 267.114 3.4503 1.04818 0
M  V30 2984 O 266.218 3.51163 2.16236 0
M  V30 2985 H 265.559 0.653516 0.117526 0
M  V30 2986 H 268.089 2.02818 -0.269421 0
M  V30 2987 H 268.099 3.84243 1.37191 0
M  V30 2988 H 266.774 4.15077 0.261572 0
M  V30 2989 H 265.351 3.23807 1.84942 0
M  V30 2990 N 267.536 -0.106894 1.57237 0
M  V30 2991 C 268.483 -1.13049 2.01217 0
M  V30 2992 C 269.453 -1.40471 0.886403 0
M  V30 2993 O 270.638 -1.52133 1.15153 0
M  V30 2994 C 267.778 -2.4487 2.43172 0
M  V30 2995 C 266.891 -2.24281 3.69218 0
M  V30 2996 C 266.026 -3.49417 4.00101 0
M  V30 2997 C 265.065 -3.24038 5.19294 0
M  V30 2998 N 264.202 -4.41409 5.45988 0
M  V30 2999 H 269.042 -0.748456 2.88448 0
M  V30 3000 H 266.579 -0.358054 1.42676 0
M  V30 3001 H 268.537 -3.21786 2.65537 0
M  V30 3002 H 267.167 -2.80944 1.58967 0
M  V30 3003 H 266.219 -1.38224 3.54398 0
M  V30 3004 H 267.531 -2.01512 4.56283 0
M  V30 3005 H 266.685 -4.34746 4.2318 0
M  V30 3006 H 265.424 -3.75229 3.11535 0
M  V30 3007 H 264.429 -2.37102 4.96047 0
M  V30 3008 H 265.654 -2.99584 6.09447 0
M  V30 3009 H 263.6 -4.67319 4.60379 0
M  V30 3010 H 263.517 -4.21788 6.274 0
M  V30 3011 H 264.785 -5.27836 5.73593 0
M  V30 3012 N 269.014 -1.53014 -0.377408 0
M  V30 3013 C 270.43 -1.42523 -0.718281 0
M  V30 3014 C 270.63 -0.55487 -1.9371 0
M  V30 3015 O 269.686 -0.0327593 -2.52479 0
M  V30 3016 C 270.999 -2.85546 -0.942539 0
M  V30 3017 C 272.547 -2.95101 -1.04329 0
M  V30 3018 C 273.022 -4.3916 -1.3001 0
M  V30 3019 N 274.513 -4.42536 -1.36806 0
M  V30 3020 C 275.248 -5.51097 -1.58364 0
M  V30 3021 N 274.744 -6.69724 -1.77317 0
M  V30 3022 N 276.537 -5.38657 -1.60638 0
M  V30 3023 H 268.688 -2.08116 0.424426 0
M  V30 3024 H 270.951 -0.939352 0.127759 0
M  V30 3025 H 270.657 -3.51499 -0.118929 0
M  V30 3026 H 270.531 -3.28493 -1.85397 0
M  V30 3027 H 272.918 -2.29309 -1.85745 0
M  V30 3028 H 272.999 -2.55566 -0.109505 0
M  V30 3029 H 272.643 -5.05521 -0.490991 0
M  V30 3030 H 272.573 -4.76258 -2.24691 0
M  V30 3031 H 275.064 -3.57039 -1.23821 0
M  V30 3032 H 275.377 -7.48233 -1.93306 0
M  V30 3033 H 273.722 -6.72732 -1.74518 0
M  V30 3034 H 276.913 -4.44948 -1.45391 0
M  V30 3035 H 277.086 -6.2333 -1.77098 0
M  V30 3036 N 270.492 0.636531 -1.44174 0
M  V30 3037 C 271.402 1.77754 -1.53103 0
M  V30 3038 C 272.418 1.68928 -0.417034 0
M  V30 3039 O 273.594 1.89801 -0.6736 0
M  V30 3040 C 270.659 3.14115 -1.46741 0
M  V30 3041 C 269.72 3.34612 -2.68948 0
M  V30 3042 C 268.953 4.64467 -2.6288 0
M  V30 3043 O 269.176 5.44919 -1.68581 0
M  V30 3044 O 268.11 4.87049 -3.53648 0
M  V30 3045 H 271.936 1.73174 -2.49489 0
M  V30 3046 H 269.521 0.79709 -1.2636 0
M  V30 3047 H 271.403 3.95412 -1.45696 0
M  V30 3048 H 270.078 3.19249 -0.534975 0
M  V30 3049 H 268.985 2.53014 -2.75562 0
M  V30 3050 H 270.318 3.34336 -3.61221 0
M  V30 3051 N 271.97 1.30982 0.876444 0
M  V30 3052 C 272.917 1.18085 1.98304 0
M  V30 3053 C 273.887 0.0682263 1.6596 0
M  V30 3054 O 275.072 0.239937 1.89285 0
M  V30 3055 C 272.212 0.887475 3.33493 0
M  V30 3056 C 271.325 2.08281 3.78475 0
M  V30 3057 C 270.46 1.72678 5.0235 0
M  V30 3058 C 269.499 2.88657 5.39762 0
M  V30 3059 N 268.636 2.53292 6.54819 0
M  V30 3060 H 273.476 2.1275 2.08666 0
M  V30 3061 H 271.013 1.05839 1.02159 0
M  V30 3062 H 272.971 0.697961 4.1132 0
M  V30 3063 H 271.601 -0.022315 3.22792 0
M  V30 3064 H 270.653 2.3833 2.96484 0
M  V30 3065 H 271.965 2.95108 4.02135 0
M  V30 3066 H 271.119 1.50151 5.87826 0
M  V30 3067 H 269.858 0.830327 4.8058 0
M  V30 3068 H 268.863 3.1184 4.52809 0
M  V30 3069 H 270.088 3.79002 5.63502 0
M  V30 3070 H 268.034 1.66163 6.34607 0
M  V30 3071 H 267.951 3.3365 6.7839 0
M  V30 3072 H 269.219 2.34143 7.43503 0
M  V30 3073 N 273.449 -1.08991 1.13837 0
M  V30 3074 C 274.359 -2.19301 0.833333 0
M  V30 3075 C 275.375 -1.73026 -0.183847 0
M  V30 3076 O 276.551 -2.01395 -0.0138092 0
M  V30 3077 C 273.616 -3.45323 0.308651 0
M  V30 3078 C 272.677 -4.06255 1.38764 0
M  V30 3079 C 271.91 -5.26262 0.887896 0
M  V30 3080 O 272.133 -5.69747 -0.27287 0
M  V30 3081 O 271.067 -5.78435 1.66421 0
M  V30 3082 H 274.893 -2.47854 1.75506 0
M  V30 3083 H 272.478 -1.18012 0.916166 0
M  V30 3084 H 274.36 -4.21394 0.0216739 0
M  V30 3085 H 273.035 -3.18362 -0.585431 0
M  V30 3086 H 271.942 -3.318 1.72799 0
M  V30 3087 H 273.275 -4.37452 2.25602 0
M  V30 3088 N 274.927 -0.932562 -1.27047 0
M  V30 3089 C 276.176 -0.571351 -1.93439 0
M  V30 3090 C 276.489 0.892467 -1.74053 0
M  V30 3091 O 277.695 1.36267 -2.34826 0
M  V30 3092 C 276.151 -0.97106 -3.46552 0
M  V30 3093 C 275.759 -2.4559 -3.74686 0
M  V30 3094 C 277.503 -0.681333 -4.18997 0
M  V30 3095 C 275.41 -2.79475 -5.21198 0
M  V30 3096 H 274.34 -0.209966 -0.724176 0
M  V30 3097 H 276.991 -1.13403 -1.44263 0
M  V30 3098 H 275.373 -0.336983 -3.94564 0
M  V30 3099 H 276.547 -3.13829 -3.37414 0
M  V30 3100 H 274.862 -2.71802 -3.15456 0
M  V30 3101 H 277.459 -0.910939 -5.26883 0
M  V30 3102 H 277.802 0.381628 -4.14547 0
M  V30 3103 H 278.335 -1.27473 -3.76823 0
M  V30 3104 H 275.074 -3.847 -5.30741 0
M  V30 3105 H 274.594 -2.1589 -5.596 0
M  V30 3106 H 276.273 -2.67478 -5.89122 0
M  V30 3107 N 276.405 1.4127 -0.698611 0
M  V30 3108 C 277.335 2.33447 -0.049629 0
M  V30 3109 C 278.316 1.51982 0.763898 0
M  V30 3110 O 279.501 1.80509 0.716257 0
M  V30 3111 C 276.631 3.35828 0.885267 0
M  V30 3112 C 275.585 4.27627 0.178613 0
M  V30 3113 C 274.911 5.20406 1.22807 0
M  V30 3114 C 276.211 5.13459 -0.956933 0
M  V30 3115 H 277.905 2.87966 -0.81951 0
M  V30 3116 H 275.451 1.38461 -0.395538 0
M  V30 3117 H 277.404 3.9924 1.34854 0
M  V30 3118 H 276.128 2.79666 1.68685 0
M  V30 3119 H 274.787 3.65643 -0.26466 0
M  V30 3120 H 274.435 4.60558 2.02226 0
M  V30 3121 H 274.135 5.82661 0.760239 0
M  V30 3122 H 275.659 5.86695 1.69179 0
M  V30 3123 H 277.073 5.70421 -0.573805 0
M  V30 3124 H 275.47 5.8467 -1.35205 0
M  V30 3125 H 276.54 4.50443 -1.79524 0
M  V30 3126 N 277.883 0.443576 1.51229 0
M  V30 3127 C 279.299 0.0962001 1.5931 0
M  V30 3128 C 279.499 -1.39501 1.45402 0
M  V30 3129 O 278.555 -2.16557 1.29843 0
M  V30 3130 C 279.868 0.621875 2.94199 0
M  V30 3131 C 281.416 0.582865 3.07525 0
M  V30 3132 C 281.891 1.08562 4.44948 0
M  V30 3133 N 283.382 1.04387 4.51284 0
M  V30 3134 C 284.117 1.40368 5.55954 0
M  V30 3135 N 283.613 1.83664 6.68011 0
M  V30 3136 N 285.406 1.32145 5.46346 0
M  V30 3137 H 277.557 1.41376 1.58514 0
M  V30 3138 H 279.82 0.582965 0.747567 0
M  V30 3139 H 279.526 1.66546 3.09767 0
M  V30 3140 H 279.4 0.0502125 3.77167 0
M  V30 3141 H 281.787 -0.451749 2.91622 0
M  V30 3142 H 281.868 1.191 2.26382 0
M  V30 3143 H 281.512 2.11873 4.61598 0
M  V30 3144 H 281.442 0.453956 5.2464 0
M  V30 3145 H 283.933 0.725986 3.70861 0
M  V30 3146 H 284.246 2.0934 7.43906 0
M  V30 3147 H 282.591 1.87596 6.69203 0
M  V30 3148 H 285.782 0.981808 4.57688 0
M  V30 3149 H 285.955 1.60514 6.27805 0
M  V30 3150 N 279.361 -1.56624 0.175154 0
M  V30 3151 C 280.607 -1.98061 -0.462976 0
M  V30 3152 C 280.962 -1.05949 -1.60601 0
M  V30 3153 O 280.255 -0.0999027 -1.91339 0
M  V30 3154 C 280.449 -3.43419 -0.989864 0
M  V30 3155 C 280.278 -4.49587 0.100583 0
M  V30 3156 C 279.048 -5.02281 0.551539 0
M  V30 3157 C 281.246 -5.06322 0.902369 0
M  V30 3158 N 279.228 -5.92088 1.62189 0
M  V30 3159 C 280.599 -5.92607 1.82256 0
M  V30 3160 C 282.654 -4.88811 0.947019 0
M  V30 3161 C 281.357 -6.63254 2.78364 0
M  V30 3162 C 283.383 -5.60182 1.89606 0
M  V30 3163 C 282.745 -6.46197 2.80372 0
M  V30 3164 H 278.844 -0.769833 -0.137409 0
M  V30 3165 H 281.428 -1.9273 0.276256 0
M  V30 3166 H 279.599 -3.49288 -1.6986 0
M  V30 3167 H 281.331 -3.7186 -1.59694 0
M  V30 3168 H 278.086 -4.73367 0.148537 0
M  V30 3169 H 278.51 -6.41696 2.15767 0
M  V30 3170 H 283.152 -4.22004 0.259304 0
M  V30 3171 H 280.87 -7.29271 3.48122 0
M  V30 3172 H 284.456 -5.48617 1.93676 0
M  V30 3173 H 283.336 -7.00453 3.52612 0
M  V30 3174 N 280.839 0.0985539 -1.57292 0
M  V30 3175 C 282.067 0.816318 -1.90115 0
M  V30 3176 C 282.482 1.72451 -0.768509 0
M  V30 3177 O 281.839 1.80643 0.259687 0
M  V30 3178 C 281.89 1.63259 -3.22535 0
M  V30 3179 O 281.611 0.760934 -4.31441 0
M  V30 3180 C 283.112 2.45372 -3.69199 0
M  V30 3181 H 280.332 0.233595 -0.629027 0
M  V30 3182 H 282.876 0.0768229 -2.04356 0
M  V30 3183 H 281.031 2.32463 -3.09903 0
M  V30 3184 H 281.445 1.32595 -5.07463 0
M  V30 3185 H 282.919 2.98144 -4.64558 0
M  V30 3186 H 283.396 3.23677 -2.96867 0
M  V30 3187 H 284.002 1.81373 -3.84687 0
M  V30 3188 N 282.317 1.53212 0.369288 0
M  V30 3189 C 283.28 1.7872 1.43498 0
M  V30 3190 C 284.28 0.657554 1.46741 0
M  V30 3191 O 285.47 0.925736 1.47566 0
M  V30 3192 C 282.602 1.90591 2.82645 0
M  V30 3193 H 283.795 2.73894 1.22156 0
M  V30 3194 H 281.348 1.44233 0.602203 0
M  V30 3195 H 282.083 0.974709 3.09306 0
M  V30 3196 H 281.868 2.72751 2.8169 0
M  V30 3197 H 283.358 2.11931 3.59826 0
M  V30 3198 N 283.795 -0.628877 1.44509 0
M  V30 3199 C 284.705 -1.7694 1.54044 0
M  V30 3200 C 285.721 -1.68705 0.425987 0
M  V30 3201 O 286.897 -1.89442 0.683656 0
M  V30 3202 C 283.962 -3.13332 1.48405 0
M  V30 3203 C 283.023 -3.33181 2.70719 0
M  V30 3204 C 282.256 -4.63067 2.6534 0
M  V30 3205 O 282.479 -5.44017 1.71469 0
M  V30 3206 O 281.413 -4.85167 3.56226 0
M  V30 3207 H 285.239 -1.71848 2.50403 0
M  V30 3208 H 282.824 -0.790378 1.26781 0
M  V30 3209 H 284.706 -3.94634 1.47791 0
M  V30 3210 H 283.381 -3.1896 0.551898 0
M  V30 3211 H 282.288 -2.51549 2.769 0
M  V30 3212 H 283.621 -3.32416 3.62988 0
M  V30 3213 N 285.273 -1.31445 -0.869486 0
M  V30 3214 C 286.521 -1.20918 -1.61936 0
M  V30 3215 C 286.842 0.232683 -1.93607 0
M  V30 3216 O 286.112 1.15352 -1.58338 0
M  V30 3217 H 284.692 -0.44454 -0.600328 0
M  V30 3218 H 287.354 -1.64776 -1.0409 0
M  V30 3219 H 286.45 -1.78124 -2.56278 0
M  V30 3220 N 286.751 1.08385 -1.14413 0
M  V30 3221 C 287.698 2.15311 -0.831265 0
M  V30 3222 C 288.668 1.64751 0.211292 0
M  V30 3223 O 289.853 1.90627 0.0811674 0
M  V30 3224 C 286.993 3.43658 -0.315143 0
M  V30 3225 C 286.106 4.08064 -1.41802 0
M  V30 3226 C 285.241 5.24207 -0.859126 0
M  V30 3227 C 284.28 5.80554 -1.93967 0
M  V30 3228 N 283.417 6.88042 -1.39793 0
M  V30 3229 H 288.257 2.41415 -1.74708 0
M  V30 3230 H 285.794 1.18474 -0.871909 0
M  V30 3231 H 287.752 4.172 0.00230884 0
M  V30 3232 H 286.382 3.17839 0.56378 0
M  V30 3233 H 285.434 3.3228 -1.85187 0
M  V30 3234 H 286.746 4.45962 -2.23427 0
M  V30 3235 H 285.9 6.04689 -0.49359 0
M  V30 3236 H 284.639 4.87699 -0.011932 0
M  V30 3237 H 283.644 4.98725 -2.31415 0
M  V30 3238 H 284.869 6.19121 -2.79046 0
M  V30 3239 H 282.815 6.53493 -0.572919 0
M  V30 3240 H 282.732 7.24767 -2.15054 0
M  V30 3241 H 284 7.72255 -1.0603 0
M  V30 3242 N 288.23 0.939286 1.26551 0
M  V30 3243 C 289.458 0.602536 1.97932 0
M  V30 3244 C 289.873 -0.82206 1.69964 0
M  V30 3245 O 289.23 -1.54789 0.966784 0
M  V30 3246 C 289.281 0.832946 3.51773 0
M  V30 3247 O 289.002 2.20151 3.78768 0
M  V30 3248 C 290.503 0.506483 4.40397 0
M  V30 3249 H 287.723 0.227248 0.631347 0
M  V30 3250 H 290.267 1.25948 1.61113 0
M  V30 3251 H 288.422 0.222644 3.8676 0
M  V30 3252 H 288.836 2.26013 4.73306 0
M  V30 3253 H 290.31 0.718333 5.47306 0
M  V30 3254 H 290.787 -0.558451 4.35635 0
M  V30 3255 H 291.393 1.09543 4.10951 0
M  V30 3256 N 289.708 -1.40897 0.706093 0
M  V30 3257 C 290.933 -2.05895 0.249435 0
M  V30 3258 C 291.358 -1.52823 -1.09666 0
M  V30 3259 O 290.716 -0.659589 -1.68876 0
M  V30 3260 C 290.764 -3.59872 0.22904 0
M  V30 3261 O 289.868 -4.04708 -0.792784 0
M  V30 3262 H 289.209 -0.653206 0.119241 0
M  V30 3263 H 291.739 -1.80471 0.96391 0
M  V30 3264 H 291.749 -4.07951 0.0634791 0
M  V30 3265 H 290.424 -3.97866 1.21141 0
M  V30 3266 H 289.001 -3.68111 -0.59572 0
M  V30 3267 N 291.186 -0.45159 -1.50991 0
M  V30 3268 C 292.149 0.341117 -2.26647 0
M  V30 3269 C 293.149 0.937422 -1.30649 0
M  V30 3270 O 294.339 0.809644 -1.54241 0
M  V30 3271 C 291.471 1.48398 -3.06905 0
M  V30 3272 H 292.664 -0.322117 -2.98165 0
M  V30 3273 H 290.217 -0.205122 -1.54948 0
M  V30 3274 H 290.952 2.18284 -2.39838 0
M  V30 3275 H 290.737 1.06241 -3.77432 0
M  V30 3276 H 292.227 2.04367 -3.64176 0
M  V30 3277 N 292.664 1.56529 -0.183458 0
M  V30 3278 C 293.574 2.22144 0.754272 0
M  V30 3279 C 294.59 1.21684 1.24374 0
M  V30 3280 O 295.766 1.54385 1.29333 0
M  V30 3281 C 292.831 2.85884 1.96141 0
M  V30 3282 C 291.892 4.01579 1.51765 0
M  V30 3283 C 291.125 4.6227 2.66725 0
M  V30 3284 O 291.348 4.21865 3.83909 0
M  V30 3285 O 290.282 5.51936 2.40104 0
M  V30 3286 H 294.108 3.02861 0.225527 0
M  V30 3287 H 291.693 1.49331 0.0453032 0
M  V30 3288 H 293.575 3.26253 2.66715 0
M  V30 3289 H 292.25 2.08154 2.47899 0
M  V30 3290 H 291.157 3.65856 0.781049 0
M  V30 3291 H 292.49 4.80938 1.04686 0
M  V30 3292 N 294.142 -0.090211 1.57342 0
M  V30 3293 C 295.391 -0.791531 1.8552 0
M  V30 3294 C 295.704 -1.79659 0.773441 0
M  V30 3295 O 296.91 -2.54616 0.942497 0
M  V30 3296 C 295.366 -1.45856 3.2902 0
M  V30 3297 C 294.974 -0.493017 4.45279 0
M  V30 3298 C 296.718 -2.14332 3.66418 0
M  V30 3299 C 294.625 -1.16491 5.79814 0
M  V30 3300 H 293.555 -0.299356 0.692027 0
M  V30 3301 H 296.206 -0.0445343 1.83446 0
M  V30 3302 H 294.588 -2.25318 3.2565 0
M  V30 3303 H 295.762 0.270464 4.60006 0
M  V30 3304 H 294.077 0.0863061 4.16311 0
M  V30 3305 H 296.674 -2.65344 4.64216 0
M  V30 3306 H 297.017 -2.93447 2.95287 0
M  V30 3307 H 297.55 -1.41724 3.71698 0
M  V30 3308 H 294.289 -0.41447 6.54188 0
M  V30 3309 H 293.809 -1.8997 5.68921 0
M  V30 3310 H 295.488 -1.69001 6.24538 0
M  V30 3311 N 295.62 -1.53406 -0.361157 0
M  V30 3312 C 296.583 -1.79479 -1.42548 0
M  V30 3313 C 297.583 -0.665327 -1.4639 0
M  V30 3314 O 298.773 -0.933549 -1.47073 0
M  V30 3315 C 295.905 -1.92087 -2.8163 0
M  V30 3316 H 297.098 -2.74538 -1.20701 0
M  V30 3317 H 294.651 -1.4455 -0.594546 0
M  V30 3318 H 295.386 -0.991099 -3.08784 0
M  V30 3319 H 295.171 -2.74241 -2.80239 0
M  V30 3320 H 296.661 -2.13836 -3.58697 0
M  V30 3321 N 297.098 0.621204 -1.44841 0
M  V30 3322 C 298.031 1.7459 -1.46947 0
M  V30 3323 C 299.009 1.59273 -0.327238 0
M  V30 3324 O 300.193 1.81021 -0.525706 0
M  V30 3325 C 297.32 3.12274 -1.31159 0
M  V30 3326 C 296.366 3.46216 -2.49072 0
M  V30 3327 S 297.199 3.4258 -4.11581 0
M  V30 3328 C 298.355 4.82867 -3.98233 0
M  V30 3329 H 298.588 1.72538 -2.42111 0
M  V30 3330 H 296.121 0.796683 -1.32259 0
M  V30 3331 H 298.079 3.91722 -1.22737 0
M  V30 3332 H 296.74 3.11855 -0.374885 0
M  V30 3333 H 295.933 4.4643 -2.33915 0
M  V30 3334 H 295.535 2.74253 -2.54286 0
M  V30 3335 H 297.827 5.7234 -3.62537 0
M  V30 3336 H 298.77 5.0308 -4.98313 0
M  V30 3337 H 299.178 4.57908 -3.30121 0
M  V30 3338 N 298.576 1.31904 0.862503 0
M  V30 3339 C 299.825 1.21373 1.61094 0
M  V30 3340 C 300.138 -0.22504 1.94301 0
M  V30 3341 O 301.344 -0.452121 2.67709 0
M  V30 3342 C 299.8 2.12525 2.9045 0
M  V30 3343 C 299.408 3.61441 2.64697 0
M  V30 3344 C 301.152 2.10813 3.68454 0
M  V30 3345 C 299.059 4.44578 3.90006 0
M  V30 3346 H 297.989 0.450705 0.604468 0
M  V30 3347 H 300.64 1.56811 0.953027 0
M  V30 3348 H 299.022 1.69994 3.57656 0
M  V30 3349 H 300.196 4.12264 2.05851 0
M  V30 3350 H 298.511 3.65205 2.00036 0
M  V30 3351 H 301.108 2.70167 4.61426 0
M  V30 3352 H 301.451 1.09713 4.01583 0
M  V30 3353 H 301.984 2.51583 3.08141 0
M  V30 3354 H 298.723 5.46461 3.62023 0
M  V30 3355 H 298.243 3.98508 4.48276 0
M  V30 3356 H 299.922 4.57176 4.5782 0
M  V30 3357 N 300.054 -1.07777 1.14986 0
M  V30 3358 C 300.984 -2.16865 0.865557 0
M  V30 3359 C 301.965 -1.69123 -0.182083 0
M  V30 3360 O 303.15 -1.94164 -0.0373815 0
M  V30 3361 C 300.28 -3.45539 0.349313 0
M  V30 3362 C 299.234 -4.06708 1.33313 0
M  V30 3363 C 298.56 -5.30411 0.675918 0
M  V30 3364 C 299.86 -4.47241 2.69764 0
M  V30 3365 H 301.554 -2.40905 1.77778 0
M  V30 3366 H 299.1 -1.15781 0.856203 0
M  V30 3367 H 301.053 -4.21174 0.137983 0
M  V30 3368 H 299.777 -3.21072 -0.598362 0
M  V30 3369 H 298.436 -3.33112 1.53075 0
M  V30 3370 H 298.084 -5.02232 -0.277767 0
M  V30 3371 H 297.784 -5.72293 1.33244 0
M  V30 3372 H 299.308 -6.08755 0.474262 0
M  V30 3373 H 300.722 -5.14025 2.53873 0
M  V30 3374 H 299.119 -5.00062 3.3175 0
M  V30 3375 H 300.189 -3.58818 3.26156 0
M  V30 3376 N 301.532 -0.945985 -1.26051 0
M  V30 3377 C 302.757 -0.612525 -1.98149 0
M  V30 3378 C 303.182 0.806623 -1.69927 0
M  V30 3379 O 302.54 1.54411 -0.950108 0
M  V30 3380 C 302.588 -0.866981 -3.50023 0
M  V30 3381 O 301.692 0.0585333 -4.12358 0
M  V30 3382 H 301.033 -0.23379 -0.621481 0
M  V30 3383 H 303.563 -1.27023 -1.60395 0
M  V30 3384 H 303.573 -0.789792 -4.00283 0
M  V30 3385 H 302.248 -1.90135 -3.69894 0
M  V30 3386 H 300.825 -0.0701241 -3.72834 0
M  V30 3387 N 303.011 1.40521 -0.713556 0
M  V30 3388 C 304.26 2.00155 -0.249192 0
M  V30 3389 C 304.573 1.57224 1.16362 0
M  V30 3390 O 305.779 2.09542 1.72639 0
M  V30 3391 C 304.235 3.5773 -0.3946 0
M  V30 3392 C 303.843 4.09635 -1.81392 0
M  V30 3393 C 305.587 4.24499 0.00907364 0
M  V30 3394 C 303.494 5.59707 -1.91003 0
M  V30 3395 H 302.424 0.74868 -0.0894114 0
M  V30 3396 H 305.075 1.60784 -0.884352 0
M  V30 3397 H 303.457 3.94792 0.30911 0
M  V30 3398 H 304.631 3.83955 -2.54785 0
M  V30 3399 H 302.946 3.55456 -2.16888 0
M  V30 3400 H 305.543 5.34683 -0.0420404 0
M  V30 3401 H 305.886 4.02824 1.05065 0
M  V30 3402 H 306.419 3.92536 -0.645007 0
M  V30 3403 H 303.158 5.86234 -2.93275 0
M  V30 3404 H 302.678 5.87258 -1.22019 0
M  V30 3405 H 304.357 6.24776 -1.6812 0
M  V30 3406 N 304.489 0.459591 1.5075 0
M  V30 3407 C 305.714 -0.0996819 2.0716 0
M  V30 3408 C 306.139 -1.33761 1.32249 0
M  V30 3409 O 305.497 -1.77551 0.366786 0
M  V30 3410 C 305.545 -0.378226 3.58611 0
M  V30 3411 O 304.649 -1.46081 3.85661 0
M  V30 3412 H 303.99 0.00791392 0.663953 0
M  V30 3413 H 306.52 0.647329 1.9409 0
M  V30 3414 H 306.53 -0.622135 4.03229 0
M  V30 3415 H 305.205 0.526439 4.12555 0
M  V30 3416 H 303.782 -1.20511 3.5289 0
M  V30 3417 N 305.967 -1.56429 0.191757 0
M  V30 3418 C 306.877 -2.22541 -0.742481 0
M  V30 3419 C 307.893 -1.22342 -1.23727 0
M  V30 3420 O 309.069 -1.55069 -1.28513 0
M  V30 3421 C 306.134 -2.8692 -1.94623 0
M  V30 3422 C 305.195 -4.02378 -1.49633 0
M  V30 3423 C 304.428 -4.63678 -2.6427 0
M  V30 3424 O 304.651 -4.23895 -3.81666 0
M  V30 3425 O 303.585 -5.53202 -2.37174 0
M  V30 3426 H 307.411 -3.02977 -0.209462 0
M  V30 3427 H 304.996 -1.49353 -0.0373832 0
M  V30 3428 H 306.878 -3.27663 -2.64982 0
M  V30 3429 H 305.553 -2.09466 -2.46791 0
M  V30 3430 H 304.46 -3.66265 -0.761636 0
M  V30 3431 H 305.793 -4.81487 -1.02134 0
M  V30 3432 N 307.445 0.0818655 -1.57387 0
M  V30 3433 C 308.393 1.11712 -2.04018 0
M  V30 3434 C 309.387 1.40683 -0.94364 0
M  V30 3435 O 310.593 1.40209 -1.12878 0
M  V30 3436 H 306.968 0.377542 -0.650358 0
M  V30 3437 H 308.939 0.697614 -2.90131 0
M  V30 3438 C 307.688 2.42537 -2.49141 0
M  V30 3439 H 307.011 2.21092 -3.33104 0
M  V30 3440 H 308.451 3.13446 -2.85531 0
M  V30 3441 C 306.91 3.0778 -1.37014 0
M  V30 3442 O 307.44 3.95436 -0.706621 0
M  V30 3443 N 305.646 2.68242 -1.11779 0
M  V30 3444 H 305.193 1.97052 -1.65917 0
M  V30 3445 H 305.151 3.1222 -0.369594 0
M  V30 3446 N 308.923 1.53595 0.353017 0
M  V30 3447 C 310.151 1.74311 1.1146 0
M  V30 3448 C 310.566 0.477854 1.82653 0
M  V30 3449 O 309.923 -0.549977 1.74016 0
M  V30 3450 C 309.974 2.91694 2.13534 0
M  V30 3451 O 309.695 4.13325 1.45238 0
M  V30 3452 C 311.196 3.24384 3.02142 0
M  V30 3453 H 308.416 0.582669 0.332773 0
M  V30 3454 H 310.96 2.00386 0.408107 0
M  V30 3455 H 309.115 2.67977 2.79763 0
M  V30 3456 H 309.529 4.79148 2.13349 0
M  V30 3457 H 311.003 4.09893 3.69718 0
M  V30 3458 H 311.48 2.40282 3.67643 0
M  V30 3459 H 312.086 3.50073 2.41514 0
M  V30 3460 N 310.401 -0.613514 1.45168 0
M  V30 3461 C 311.647 -1.37471 1.49096 0
M  V30 3462 C 311.98 -1.93765 0.129901 0
M  V30 3463 O 311.255 -1.74707 -0.854858 0
M  V30 3464 C 311.538 -2.52701 2.56542 0
M  V30 3465 C 311.391 -2.01643 4.0207 0
M  V30 3466 C 312.71 -3.54849 2.60327 0
M  V30 3467 H 309.829 -0.498502 0.54283 0
M  V30 3468 H 312.471 -0.692125 1.76945 0
M  V30 3469 H 310.621 -3.10931 2.32926 0
M  V30 3470 H 312.293 -1.48108 4.36877 0
M  V30 3471 H 310.536 -1.32688 4.13009 0
M  V30 3472 H 311.207 -2.84681 4.72928 0
M  V30 3473 H 313.683 -3.0645 2.81474 0
M  V30 3474 H 312.559 -4.32973 3.37381 0
M  V30 3475 H 312.82 -4.10079 1.6519 0
M  V30 3476 N 311.879 -1.3236 -0.855495 0
M  V30 3477 C 312.827 -1.2118 -1.9854 0
M  V30 3478 C 313.821 -0.116788 -1.68997 0
M  V30 3479 O 315.027 -0.279657 -1.77814 0
M  V30 3480 H 311.402 -0.375608 -0.651477 0
M  V30 3481 H 313.373 -2.16743 -2.05098 0
M  V30 3482 C 312.122 -0.950849 -3.34446 0
M  V30 3483 H 311.445 -1.78563 -3.57708 0
M  V30 3484 H 312.885 -0.912863 -4.14057 0
M  V30 3485 C 311.344 0.346404 -3.35114 0
M  V30 3486 O 311.874 1.35855 -3.7803 0
M  V30 3487 N 310.08 0.36808 -2.88259 0
M  V30 3488 H 309.627 -0.456102 -2.5353 0
M  V30 3489 H 309.585 1.23591 -2.89089 0
M  V30 3490 N 313.357 1.07166 -1.15556 0
M  V30 3491 C 314.604 1.79798 -0.931604 0
M  V30 3492 C 314.932 1.8682 0.54115 0
M  V30 3493 O 314.187 1.34942 1.41736 0
M  V30 3494 C 314.486 3.24707 -1.49332 0
M  V30 3495 C 314.152 3.37781 -2.98688 0
M  V30 3496 C 312.814 3.41057 -3.39461 0
M  V30 3497 C 315.166 3.40424 -3.94665 0
M  V30 3498 C 312.494 3.4458 -4.74849 0
M  V30 3499 C 314.846 3.45485 -5.29927 0
M  V30 3500 C 313.51 3.47039 -5.70193 0
M  V30 3501 H 312.78 0.657928 -0.340898 0
M  V30 3502 H 315.427 1.26091 -1.44129 0
M  V30 3503 H 313.732 3.81208 -0.904859 0
M  V30 3504 H 315.429 3.79486 -1.29582 0
M  V30 3505 H 312.019 3.35932 -2.66172 0
M  V30 3506 H 316.203 3.37113 -3.64237 0
M  V30 3507 H 311.459 3.44083 -5.05388 0
M  V30 3508 H 315.633 3.46476 -6.04092 0
M  V30 3509 H 313.26 3.49522 -6.75084 0
M  V30 3510 N 314.835 0.952656 1.25548 0
M  V30 3511 C 315.785 0.442033 2.23674 0
M  V30 3512 C 316.769 -0.467632 1.53955 0
M  V30 3513 O 317.961 -0.301006 1.74422 0
M  V30 3514 C 315.09 -0.280816 3.4215 0
M  V30 3515 C 314.176 0.646803 4.19139 0
M  V30 3516 N 314.567 1.77759 4.73535 0
M  V30 3517 C 312.865 0.454617 4.43677 0
M  V30 3518 C 313.566 2.35658 5.31827 0
M  V30 3519 N 312.542 1.64333 5.18166 0
M  V30 3520 H 316.344 1.30505 2.63336 0
M  V30 3521 H 313.858 0.809904 1.40763 0
M  V30 3522 H 315.855 -0.663747 4.11582 0
M  V30 3523 H 314.515 -1.14046 3.04012 0
M  V30 3524 H 315.526 2.15949 4.7073 0
M  V30 3525 H 312.203 -0.362312 4.15925 0
M  V30 3526 H 313.593 3.30998 5.84713 0
M  V30 3527 N 316.313 -1.40141 0.720998 0
M  V30 3528 C 317.245 -2.29177 0.0324669 0
M  V30 3529 C 318.258 -1.46105 -0.718126 0
M  V30 3530 O 319.447 -1.69335 -0.564608 0
M  V30 3531 C 316.547 -3.24473 -0.978292 0
M  V30 3532 C 315.72 -4.36423 -0.292115 0
M  V30 3533 C 314.779 -5.12122 -1.20901 0
M  V30 3534 O 313.805 -5.64981 -0.691766 0
M  V30 3535 N 315.007 -5.21992 -2.53978 0
M  V30 3536 H 317.772 -2.88909 0.796984 0
M  V30 3537 H 315.333 -1.51569 0.569068 0
M  V30 3538 H 317.325 -3.71987 -1.59398 0
M  V30 3539 H 315.895 -2.65871 -1.64413 0
M  V30 3540 H 315.115 -3.90967 0.503847 0
M  V30 3541 H 316.403 -5.08467 0.183971 0
M  V30 3542 H 315.801 -4.8054 -2.98493 0
M  V30 3543 H 314.358 -5.72995 -3.10677 0
M  V30 3544 N 317.792 -0.46758 -1.50504 0
M  V30 3545 C 318.739 0.328413 -2.28452 0
M  V30 3546 C 319.709 0.990313 -1.33349 0
M  V30 3547 O 320.894 1.00343 -1.62284 0
M  V30 3548 C 318.034 1.40648 -3.15138 0
M  V30 3549 C 317.147 0.759709 -4.25267 0
M  V30 3550 C 316.282 1.81537 -4.99217 0
M  V30 3551 C 315.321 1.14866 -6.01226 0
M  V30 3552 N 314.458 2.14702 -6.68467 0
M  V30 3553 H 319.298 -0.342603 -2.96024 0
M  V30 3554 H 316.835 -0.180801 -1.45985 0
M  V30 3555 H 318.793 2.04315 -3.63746 0
M  V30 3556 H 317.423 2.04671 -2.49619 0
M  V30 3557 H 316.475 0.0105671 -3.80399 0
M  V30 3558 H 317.787 0.233243 -4.98254 0
M  V30 3559 H 316.941 2.52793 -5.51526 0
M  V30 3560 H 315.68 2.37564 -4.25928 0
M  V30 3561 H 314.685 0.42171 -5.4818 0
M  V30 3562 H 315.91 0.595334 -6.76485 0
M  V30 3563 H 313.856 2.69752 -5.97972 0
M  V30 3564 H 313.773 1.6703 -7.37317 0
M  V30 3565 H 315.041 2.85348 -7.25394 0
M  V30 3566 N 319.27 1.56325 -0.20005 0
M  V30 3567 C 320.218 2.20666 0.735482 0
M  V30 3568 C 321.212 1.17934 1.21605 0
M  V30 3569 O 322.418 1.36068 1.17837 0
M  V30 3570 H 318.793 0.70725 0.255542 0
M  V30 3571 H 320.764 2.9792 0.169166 0
M  V30 3572 C 319.513 2.88391 1.94232 0
M  V30 3573 H 318.836 3.67185 1.58161 0
M  V30 3574 H 320.276 3.3684 2.57517 0
M  V30 3575 C 318.735 1.89692 2.78421 0
M  V30 3576 O 319.265 1.40032 3.76502 0
M  V30 3577 N 317.471 1.57813 2.44015 0
M  V30 3578 H 317.018 1.9839 1.64314 0
M  V30 3579 H 316.976 0.920325 3.00628 0
M  V30 3580 N 320.748 -0.0735177 1.57428 0
M  V30 3581 C 321.681 -1.11932 1.98863 0
M  V30 3582 C 322.659 -1.37666 0.865266 0
M  V30 3583 O 323.843 -1.51068 1.12742 0
M  V30 3584 C 320.97 -2.46403 2.32386 0
M  V30 3585 C 320.016 -2.36815 3.54713 0
M  V30 3586 S 320.849 -1.76392 5.05614 0
M  V30 3587 C 322.005 -3.12444 5.42337 0
M  V30 3588 H 322.238 -0.766212 2.87257 0
M  V30 3589 H 319.771 -0.281987 1.51803 0
M  V30 3590 H 321.729 -3.23755 2.52375 0
M  V30 3591 H 320.39 -2.78876 1.44524 0
M  V30 3592 H 319.583 -3.35977 3.7568 0
M  V30 3593 H 319.185 -1.67598 3.34345 0
M  V30 3594 H 321.477 -4.08753 5.40303 0
M  V30 3595 H 322.42 -2.96258 6.43146 0
M  V30 3596 H 322.828 -3.1297 4.69798 0
M  V30 3597 N 322.226 -1.5378 -0.344866 0
M  V30 3598 C 323.158 -1.77988 -1.44406 0
M  V30 3599 C 324.171 -0.661138 -1.48771 0
M  V30 3600 O 325.36 -0.937842 -1.51877 0
M  V30 3601 C 322.46 -1.86345 -2.8307 0
M  V30 3602 C 321.633 -3.16256 -3.0216 0
M  V30 3603 C 320.692 -3.15588 -4.21059 0
M  V30 3604 O 319.718 -3.89314 -4.15239 0
M  V30 3605 N 320.92 -2.37864 -5.29529 0
M  V30 3606 H 323.685 -2.72839 -1.24012 0
M  V30 3607 H 321.246 -1.52814 -0.534737 0
M  V30 3608 H 323.238 -1.83351 -3.60783 0
M  V30 3609 H 321.808 -0.986858 -2.96614 0
M  V30 3610 H 321.028 -3.32385 -2.11929 0
M  V30 3611 H 322.316 -4.0207 -3.11797 0
M  V30 3612 H 321.714 -1.77514 -5.37127 0
M  V30 3613 H 320.271 -2.40668 -6.05741 0
M  V30 3614 N 323.704 0.605807 -1.45491 0
M  V30 3615 C 324.651 1.7164 -1.54299 0
M  V30 3616 C 325.621 1.61486 -0.388761 0
M  V30 3617 O 326.806 1.81039 -0.602445 0
M  V30 3618 C 323.946 3.09953 -1.51734 0
M  V30 3619 C 323.059 3.309 -2.77721 0
M  V30 3620 C 322.194 4.59329 -2.66816 0
M  V30 3621 C 321.233 4.7354 -3.87848 0
M  V30 3622 N 320.37 5.9327 -3.75467 0
M  V30 3623 H 325.21 1.63449 -2.49176 0
M  V30 3624 H 322.747 0.796957 -1.23641 0
M  V30 3625 H 324.705 3.89977 -1.48235 0
M  V30 3626 H 323.335 3.17098 -0.604068 0
M  V30 3627 H 322.387 2.44639 -2.913 0
M  V30 3628 H 323.699 3.37274 -3.67488 0
M  V30 3629 H 322.853 5.4755 -2.61292 0
M  V30 3630 H 321.592 4.55355 -1.74651 0
M  V30 3631 H 320.597 3.83741 -3.93729 0
M  V30 3632 H 321.822 4.79309 -4.81082 0
M  V30 3633 H 319.768 5.90338 -2.86072 0
M  V30 3634 H 319.685 6.00811 -4.5887 0
M  V30 3635 H 320.953 6.83984 -3.73879 0
M  V30 3636 N 325.182 1.32811 0.848464 0
M  V30 3637 C 326.129 1.22265 1.95755 0
M  V30 3638 C 327.099 0.103413 1.65778 0
M  V30 3639 O 328.284 0.280033 1.88734 0
M  V30 3640 C 325.424 0.958014 3.31536 0
M  V30 3641 C 324.537 2.16262 3.73971 0
M  V30 3642 C 323.672 1.83295 4.98575 0
M  V30 3643 C 322.711 3.00041 5.33518 0
M  V30 3644 N 321.848 2.67125 6.49299 0
M  V30 3645 H 326.688 2.17128 2.04107 0
M  V30 3646 H 324.225 1.07982 0.998913 0
M  V30 3647 H 326.183 0.785052 4.09747 0
M  V30 3648 H 324.813 0.046159 3.22767 0
M  V30 3649 H 323.865 2.44565 2.91362 0
M  V30 3650 H 325.177 3.03572 3.95785 0
M  V30 3651 H 324.331 1.62586 5.84509 0
M  V30 3652 H 323.07 0.932078 4.7871 0
M  V30 3653 H 322.075 3.21374 4.46093 0
M  V30 3654 H 323.3 3.90869 5.55336 0
M  V30 3655 H 321.246 1.79586 6.3094 0
M  V30 3656 H 321.163 3.47965 6.71161 0
M  V30 3657 H 322.431 2.49861 7.3837 0
M  V30 3658 N 326.66 -1.06551 1.16123 0
M  V30 3659 C 327.909 -1.78687 0.935622 0
M  V30 3660 C 328.222 -1.88056 -0.538001 0
M  V30 3661 O 329.428 -2.56794 -0.88143 0
M  V30 3662 C 327.884 -3.21143 1.62466 0
M  V30 3663 C 327.492 -3.19949 3.13587 0
M  V30 3664 C 329.236 -3.9783 1.48092 0
M  V30 3665 C 327.143 -4.57108 3.75241 0
M  V30 3666 H 326.073 -0.669712 0.346412 0
M  V30 3667 H 328.724 -1.19534 1.39226 0
M  V30 3668 H 327.106 -3.80539 1.09572 0
M  V30 3669 H 328.28 -2.70151 3.73303 0
M  V30 3670 H 326.595 -2.5676 3.27816 0
M  V30 3671 H 329.192 -4.99217 1.91538 0
M  V30 3672 H 329.535 -4.14078 0.429507 0
M  V30 3673 H 330.068 -3.4495 1.98127 0
M  V30 3674 H 326.807 -4.46065 4.80319 0
M  V30 3675 H 326.327 -5.07111 3.20309 0
M  V30 3676 H 328.006 -5.26069 3.76644 0
M  V30 3677 N 328.138 -0.959301 -1.25041 0
M  V30 3678 C 329.086 -0.474437 -2.2771 0
M  V30 3679 C 330.08 0.457697 -1.631 0
M  V30 3680 O 331.286 0.333912 -1.76876 0
M  V30 3681 H 327.661 -0.134936 -0.739795 0
M  V30 3682 H 329.632 -1.35251 -2.65988 0
M  V30 3683 C 328.381 0.227884 -3.46952 0
M  V30 3684 H 327.704 -0.480248 -3.96905 0
M  V30 3685 H 329.144 0.531091 -4.20661 0
M  V30 3686 C 327.603 1.452 -3.04004 0
M  V30 3687 O 328.133 2.54949 -3.10426 0
M  V30 3688 N 326.339 1.31502 -2.59144 0
M  V30 3689 H 325.886 0.422065 -2.54119 0
M  V30 3690 H 325.844 2.13521 -2.30773 0
M  V30 3691 N 329.616 1.39756 -0.72842 0
M  V30 3692 C 330.579 2.29012 -0.0927297 0
M  V30 3693 C 331.579 1.45992 0.674025 0
M  V30 3694 O 332.769 1.66749 0.50402 0
M  V30 3695 C 329.901 3.29396 0.878137 0
M  V30 3696 H 331.094 2.86729 -0.879011 0
M  V30 3697 H 328.647 1.48293 -0.493847 0
M  V30 3698 H 329.382 2.76722 1.69101 0
M  V30 3699 H 329.167 3.907 0.331051 0
M  V30 3700 H 330.657 3.96199 1.3197 0
M  V30 3701 N 331.094 0.475555 1.50254 0
M  V30 3702 C 332.505 0.0215174 1.86688 0
M  V30 3703 C 332.856 -1.38467 1.39001 0
M  V30 3704 O 331.981 -2.02732 0.756894 0
M  V30 3705 C 332.576 0.0322715 3.38785 0
M  V30 3706 C 331.135 -0.366314 3.74613 0
M  V30 3707 C 330.282 0.415832 2.74164 0
M  V30 3708 H 333.233 0.689612 1.42934 0
M  V30 3709 H 333.254 -0.76889 3.7265 0
M  V30 3710 H 332.766 1.05584 3.73462 0
M  V30 3711 H 330.867 -1.39406 3.45538 0
M  V30 3712 H 330.98 -0.064555 4.79057 0
M  V30 3713 H 329.344 -0.131048 2.54363 0
M  V30 3714 H 330.127 1.43899 3.11686 0
M  V30 3715 N 332.573 -1.56217 0.208337 0
M  V30 3716 C 333.521 -2.21053 -0.723769 0
M  V30 3717 C 334.515 -1.18578 -1.20978 0
M  V30 3718 O 335.721 -1.36691 -1.17114 0
M  V30 3719 H 332.096 -0.708595 -0.251788 0
M  V30 3720 H 334.067 -2.98006 -0.153365 0
M  V30 3721 C 332.816 -2.89417 -1.927 0
M  V30 3722 H 332.139 -3.68019 -1.56212 0
M  V30 3723 H 333.579 -3.38201 -2.55727 0
M  V30 3724 C 332.038 -1.91166 -2.77411 0
M  V30 3725 O 332.568 -1.42026 -3.75754 0
M  V30 3726 N 330.774 -1.59105 -2.43175 0
M  V30 3727 H 330.321 -1.99259 -1.63259 0
M  V30 3728 H 330.279 -0.936255 -3.00136 0
M  V30 3729 N 334.051 0.0651679 -1.57465 0
M  V30 3730 C 334.998 1.07675 -2.04144 0
M  V30 3731 C 335.968 1.38071 -0.923335 0
M  V30 3732 O 337.153 1.49026 -1.19146 0
M  V30 3733 C 334.293 2.38337 -2.49579 0
M  V30 3734 C 333.406 2.14413 -3.75035 0
M  V30 3735 C 332.541 3.38686 -4.09225 0
M  V30 3736 C 331.58 3.10156 -5.27702 0
M  V30 3737 N 330.717 4.26778 -5.57499 0
M  V30 3738 H 335.557 0.671716 -2.90331 0
M  V30 3739 H 333.094 0.3201 -1.43575 0
M  V30 3740 H 335.052 3.14632 -2.73975 0
M  V30 3741 H 333.682 2.7663 -1.6636 0
M  V30 3742 H 332.734 1.2878 -3.57939 0
M  V30 3743 H 334.046 1.89344 -4.61466 0
M  V30 3744 H 333.2 4.23373 -4.34558 0
M  V30 3745 H 331.939 3.66837 -3.21374 0
M  V30 3746 H 330.944 2.23866 -5.02159 0
M  V30 3747 H 332.169 2.8332 -6.17176 0
M  V30 3748 H 330.115 4.54948 -4.72608 0
M  V30 3749 H 330.032 4.05005 -6.38362 0
M  V30 3750 H 331.3 5.12443 -5.87386 0
M  V30 3751 N 335.529 1.53961 0.336706 0
M  V30 3752 C 336.757 1.75483 1.09605 0
M  V30 3753 C 337.172 0.4972 1.82136 0
M  V30 3754 O 336.529 -0.53149 1.74589 0
M  V30 3755 C 336.58 2.93943 2.10428 0
M  V30 3756 O 336.301 4.14842 1.40846 0
M  V30 3757 C 337.802 3.27571 2.98684 0
M  V30 3758 H 335.022 0.586166 0.326574 0
M  V30 3759 H 337.566 2.00808 0.38683 0
M  V30 3760 H 335.721 2.70929 2.76905 0
M  V30 3761 H 336.135 4.81383 2.08255 0
M  V30 3762 H 337.609 4.13791 3.6535 0
M  V30 3763 H 338.086 2.44168 3.65074 0
M  V30 3764 H 338.692 3.52615 2.37787 0
M  V30 3765 N 337.007 -0.598083 1.45811 0
M  V30 3766 C 337.939 -1.72231 1.51225 0
M  V30 3767 C 338.952 -1.57757 0.402059 0
M  V30 3768 O 340.141 -1.65464 0.669624 0
M  V30 3769 C 337.241 -3.10331 1.3619 0
M  V30 3770 C 336.414 -3.50955 2.61054 0
M  V30 3771 C 335.473 -4.68055 2.40439 0
M  V30 3772 O 334.499 -4.74691 3.14097 0
M  V30 3773 N 335.701 -5.61941 1.45612 0
M  V30 3774 H 338.466 -1.68046 2.48154 0
M  V30 3775 H 336.027 -0.783637 1.41671 0
M  V30 3776 H 338.019 -3.86439 1.20195 0
M  V30 3777 H 336.589 -3.0897 0.475015 0
M  V30 3778 H 335.809 -2.64711 2.92099 0
M  V30 3779 H 337.097 -3.74858 3.44034 0
M  V30 3780 H 336.495 -5.59301 0.848431 0
M  V30 3781 H 335.052 -6.37542 1.35585 0
M  V30 3782 N 338.485 -1.33259 -0.841409 0
M  V30 3783 C 339.731 -1.24757 -1.59886 0
M  V30 3784 C 340.064 0.186913 -1.93298 0
M  V30 3785 O 339.339 1.12757 -1.5848 0
M  V30 3786 C 339.622 -2.12036 -2.91055 0
M  V30 3787 C 339.475 -3.63929 -2.6434 0
M  V30 3788 C 340.794 -1.9916 -3.92458 0
M  V30 3789 H 337.913 -0.454542 -0.580138 0
M  V30 3790 H 340.555 -1.63335 -0.970647 0
M  V30 3791 H 338.705 -1.79265 -3.44669 0
M  V30 3792 H 340.377 -4.06978 -2.17178 0
M  V30 3793 H 338.62 -3.85935 -1.98082 0
M  V30 3794 H 339.291 -4.20341 -3.57796 0
M  V30 3795 H 341.767 -2.27895 -3.48143 0
M  V30 3796 H 340.643 -2.62484 -4.82072 0
M  V30 3797 H 340.904 -0.963082 -4.31482 0
M  V30 3798 N 339.963 1.05934 -1.16686 0
M  V30 3799 C 340.926 2.11669 -0.879144 0
M  V30 3800 C 341.926 1.60294 0.127445 0
M  V30 3801 O 343.116 1.7389 -0.103865 0
M  V30 3802 C 340.248 3.39438 -0.315425 0
M  V30 3803 H 341.441 2.38626 -1.81653 0
M  V30 3804 H 338.994 1.22058 -0.976299 0
M  V30 3805 H 339.729 3.18132 0.629468 0
M  V30 3806 H 339.514 3.78034 -1.04079 0
M  V30 3807 H 341.004 4.17391 -0.132189 0
M  V30 3808 N 341.441 0.965919 1.2453 0
M  V30 3809 C 342.681 0.634656 1.94297 0
M  V30 3810 C 343.045 -0.814822 1.73852 0
M  V30 3811 O 344.246 -1.25622 2.3764 0
M  V30 3812 C 342.517 0.99702 3.43212 0
M  V30 3813 S 344.076 0.780038 4.31811 0
M  V30 3814 H 340.894 0.232893 0.671775 0
M  V30 3815 H 343.496 1.24249 1.50938 0
M  V30 3816 H 342.2 2.04886 3.55598 0
M  V30 3817 H 341.731 0.379888 3.91562 0
M  V30 3818 H 343.746 -0.343512 4.9501 0
M  V30 3819 N 342.919 -1.39368 0.735821 0
M  V30 3820 C 344.149 -2.04498 0.293967 0
M  V30 3821 C 344.557 -1.55593 -1.07645 0
M  V30 3822 O 343.9 -0.716324 -1.69158 0
M  V30 3823 C 343.962 -3.58836 0.218342 0
M  V30 3824 C 343.626 -4.30721 1.52736 0
M  V30 3825 C 344.623 -4.57305 2.47322 0
M  V30 3826 C 342.308 -4.69251 1.79189 0
M  V30 3827 C 344.302 -5.21429 3.66593 0
M  V30 3828 C 341.989 -5.33104 2.98737 0
M  V30 3829 C 342.987 -5.59125 3.9226 0
M  V30 3830 O 342.675 -6.21653 5.09708 0
M  V30 3831 H 342.407 -0.664118 0.126189 0
M  V30 3832 H 344.961 -1.79385 1.00051 0
M  V30 3833 H 343.191 -3.8285 -0.544314 0
M  V30 3834 H 344.88 -4.05447 -0.191626 0
M  V30 3835 H 345.646 -4.27983 2.28156 0
M  V30 3836 H 341.525 -4.48354 1.07239 0
M  V30 3837 H 345.069 -5.41656 4.39607 0
M  V30 3838 H 340.966 -5.61846 3.17803 0
M  V30 3839 H 341.734 -6.40146 5.10054 0
M  V30 3840 N 344.397 -0.483516 -1.5 0
M  V30 3841 C 345.36 0.292965 -2.2732 0
M  V30 3842 C 346.36 0.909499 -1.32608 0
M  V30 3843 O 347.55 0.776745 -1.55924 0
M  V30 3844 C 344.682 1.41854 -3.09984 0
M  V30 3845 H 345.875 -0.385289 -2.97415 0
M  V30 3846 H 343.428 -0.237942 -1.54478 0
M  V30 3847 H 344.163 2.13148 -2.44414 0
M  V30 3848 H 343.948 0.982114 -3.79601 0
M  V30 3849 H 345.438 1.96597 -3.68429 0
M  V30 3850 N 345.875 1.56104 -0.216619 0
M  V30 3851 C 346.838 2.18819 0.681962 0
M  V30 3852 C 347.838 1.14866 1.12528 0
M  V30 3853 O 349.028 1.40128 1.03488 0
M  V30 3854 C 346.16 2.80756 1.93362 0
M  V30 3855 H 347.353 2.99595 0.135254 0
M  V30 3856 H 344.906 1.56265 0.0330003 0
M  V30 3857 H 345.641 2.03837 2.52232 0
M  V30 3858 H 345.426 3.56876 1.62426 0
M  V30 3859 H 346.916 3.28844 2.57393 0
M  V30 3860 N 347.353 -0.0568162 1.57498 0
M  V30 3861 C 348.316 -1.05038 2.03715 0
M  V30 3862 C 349.316 -1.30709 0.936577 0
M  V30 3863 O 350.506 -1.26178 1.20103 0
M  V30 3864 C 347.638 -2.39034 2.43055 0
M  V30 3865 H 348.831 -0.651715 2.92733 0
M  V30 3866 H 346.384 -0.302947 1.53336 0
M  V30 3867 H 347.119 -2.83703 1.57108 0
M  V30 3868 H 346.904 -2.21739 3.2338 0
M  V30 3869 H 348.394 -3.10421 2.79336 0
M  V30 3870 N 348.832 -1.54138 -0.328536 0
M  V30 3871 C 350.06 -1.76062 -1.08673 0
M  V30 3872 C 350.475 -0.506852 -1.81869 0
M  V30 3873 O 349.832 0.522223 -1.74869 0
M  V30 3874 C 349.883 -2.95054 -2.08866 0
M  V30 3875 O 349.604 -4.15583 -1.38644 0
M  V30 3876 C 351.105 -3.2915 -2.96943 0
M  V30 3877 H 348.325 -0.587889 -0.323461 0
M  V30 3878 H 350.869 -2.0101 -0.376175 0
M  V30 3879 H 349.024 -2.72394 -2.75464 0
M  V30 3880 H 349.438 -4.82481 -2.05699 0
M  V30 3881 H 350.912 -4.15723 -3.63151 0
M  V30 3882 H 351.389 -2.461 -3.63774 0
M  V30 3883 H 351.995 -3.53871 -2.35914 0
M  V30 3884 N 350.31 0.590341 -1.46126 0
M  V30 3885 C 351.558 1.34616 -1.50742 0
M  V30 3886 C 351.879 1.94363 -0.157486 0
M  V30 3887 O 351.149 1.78136 0.815136 0
M  V30 3888 H 349.729 0.499789 -0.555175 0
M  V30 3889 H 352.391 0.691953 -1.82203 0
M  V30 3890 H 351.487 2.15678 -2.25587 0
M  V30 3891 N 351.788 1.33704 0.83433 0
M  V30 3892 C 352.718 1.26967 1.95963 0
M  V30 3893 C 353.699 0.149337 1.69443 0
M  V30 3894 O 354.884 0.339852 1.91203 0
M  V30 3895 C 352.014 1.01275 3.32206 0
M  V30 3896 C 350.968 2.09652 3.73136 0
M  V30 3897 C 350.294 1.69166 5.07235 0
M  V30 3898 C 351.594 3.51372 3.86439 0
M  V30 3899 H 353.288 2.2112 2.01857 0
M  V30 3900 H 350.834 1.06447 0.969793 0
M  V30 3901 H 352.787 0.952106 4.10503 0
M  V30 3902 H 351.511 0.0356203 3.26581 0
M  V30 3903 H 350.17 2.14766 2.97104 0
M  V30 3904 H 349.818 0.701437 4.98085 0
M  V30 3905 H 349.518 2.41694 5.35591 0
M  V30 3906 H 351.042 1.64576 5.88003 0
M  V30 3907 H 352.456 3.48734 4.55036 0
M  V30 3908 H 350.853 4.22425 4.26236 0
M  V30 3909 H 351.923 3.89546 2.88759 0
M  V30 3910 N 353.266 -1.05314 1.17247 0
M  V30 3911 C 354.515 -1.77685 0.954521 0
M  V30 3912 C 354.828 -1.88616 -0.518025 0
M  V30 3913 O 356.034 -2.57714 -0.854144 0
M  V30 3914 C 354.49 -3.19402 1.65863 0
M  V30 3915 C 354.098 -3.16605 3.16963 0
M  V30 3916 C 355.842 -3.96237 1.52303 0
M  V30 3917 C 353.749 -4.53103 3.80068 0
M  V30 3918 H 352.679 -0.666 0.353496 0
M  V30 3919 H 355.33 -1.1805 1.40486 0
M  V30 3920 H 353.712 -3.79355 1.13602 0
M  V30 3921 H 354.886 -2.66176 3.76148 0
M  V30 3922 H 353.201 -2.53268 3.30521 0
M  V30 3923 H 355.798 -4.97157 1.96822 0
M  V30 3924 H 356.141 -4.136 0.473401 0
M  V30 3925 H 356.674 -3.42829 2.01775 0
M  V30 3926 H 353.413 -4.40946 4.85023 0
M  V30 3927 H 352.933 -5.03686 3.2567 0
M  V30 3928 H 354.612 -5.22045 3.82202 0
M  V30 3929 O 354.783 -1.10174 -1.18084 0
M  V30 3930 H 355.474 -0.801769 -1.76327 0
M  V30 END ATOM
M  V30 BEGIN BOND
M  V30 END BOND
M  V30 END CTAB
M  END
$$$$
