drugbank_target|P07098 Gastric triacylglycerol lipase (DB01083; DB02457)
 OpenBabel12092120363D

  0  0  0     0  0            999 V3000
M  V30 BEGIN CTAB
M  V30 COUNTS 6322 6420 0 0 0
M  V30 BEGIN ATOM
M  V30 1 H -0.908 1.98254 -0.117106 0
M  V30 2 N 0 1.576 0 0
M  V30 3 C 0.933 2.03868 1.02534 0
M  V30 4 C 1.911 0.928543 1.3348 0
M  V30 5 O 3.095 1.19667 1.45644 0
M  V30 6 C 0.222 2.43627 2.35294 0
M  V30 7 C -0.732 3.65373 2.2001 0
M  V30 8 S 0.101 5.13292 1.52614 0
M  V30 9 C 1.257 5.56322 2.86805 0
M  V30 10 H 1.49 2.90518 0.631377 0
M  V30 11 H -0.977 1.52953 0.210867 0
M  V30 12 H 0.981 2.67203 3.11629 0
M  V30 13 H -0.358 1.57376 2.7183 0
M  V30 14 H -1.165 3.90944 3.18086 0
M  V30 15 H -1.563 3.418 1.51819 0
M  V30 16 H 0.729 5.58782 3.83104 0
M  V30 17 H 1.672 6.56266 2.65933 0
M  V30 18 H 2.08 4.83886 2.90714 0
M  V30 19 N 1.4781 -0.272755 1.55222 0
M  V30 20 C 2.7241 -1.00172 1.77023 0
M  V30 21 C 3.0791 -1.83928 0.564633 0
M  V30 22 O 2.3721 -1.86416 -0.442674 0
M  V30 23 C 2.5661 -1.91642 3.01675 0
M  V30 24 C 2.3951 -1.16888 4.34243 0
M  V30 25 C 1.1651 -0.884464 4.97499 0
M  V30 26 C 3.3631 -0.55919 5.11251 0
M  V30 27 N 1.3451 -0.11015 6.13801 0
M  V30 28 C 2.7161 0.0809469 6.19947 0
M  V30 29 C 4.7711 -0.467058 4.95705 0
M  V30 30 C 3.4741 0.804335 7.14789 0
M  V30 31 C 5.5001 0.242739 5.90902 0
M  V30 32 C 4.8621 0.871613 6.98987 0
M  V30 33 H 0.9611 -0.348529 0.700037 0
M  V30 34 H 3.5451 -0.277365 1.92714 0
M  V30 35 H 1.7161 -2.61303 2.87359 0
M  V30 36 H 3.4481 -2.57901 3.1188 0
M  V30 37 H 0.2031 -1.18979 4.58411 0
M  V30 38 H 0.6271 0.264344 6.76484 0
M  V30 39 H 5.2691 -0.93894 4.12242 0
M  V30 40 H 2.9871 1.2879 7.97771 0
M  V30 41 H 6.5731 0.314347 5.8095 0
M  V30 42 H 5.4531 1.4121 7.71381 0
M  V30 43 N 2.9562 -1.48159 -0.537278 0
M  V30 44 C 3.8862 -1.65029 -1.6519 0
M  V30 45 C 4.8672 -0.499281 -1.62607 0
M  V30 46 O 6.0522 -0.730972 -1.79918 0
M  V30 47 C 3.1822 -1.68303 -3.03795 0
M  V30 48 C 2.1362 -2.8283 -3.21234 0
M  V30 49 C 1.4622 -2.71189 -4.60826 0
M  V30 50 C 2.7622 -4.24211 -3.04701 0
M  V30 51 H 4.4562 -2.58341 -1.51328 0
M  V30 52 H 2.0022 -1.24325 -0.726585 0
M  V30 53 H 3.9552 -1.78693 -3.81637 0
M  V30 54 H 2.6792 -0.715635 -3.18663 0
M  V30 55 H 1.3382 -2.71983 -2.45807 0
M  V30 56 H 0.9862 -1.72435 -4.7252 0
M  V30 57 H 0.6862 -3.48035 -4.7344 0
M  V30 58 H 2.2102 -2.83537 -5.40777 0
M  V30 59 H 3.6242 -4.3593 -3.72341 0
M  V30 60 H 2.0212 -5.01998 -3.28813 0
M  V30 61 H 3.0912 -4.41184 -2.01209 0
M  V30 62 N 4.4343 0.785586 -1.36625 0
M  V30 63 C 5.3643 1.91259 -1.33949 0
M  V30 64 C 6.3453 1.68795 -0.210325 0
M  V30 65 O 7.5303 1.89854 -0.408561 0
M  V30 66 C 4.6603 3.28339 -1.13186 0
M  V30 67 C 3.6143 3.65335 -2.22967 0
M  V30 68 C 2.9403 5.00806 -1.87342 0
M  V30 69 C 4.2403 3.7352 -3.65075 0
M  V30 70 H 5.9343 1.93755 -2.28253 0
M  V30 71 H 3.4803 0.930788 -1.09874 0
M  V30 72 H 5.4333 4.06804 -1.09948 0
M  V30 73 H 4.1573 3.2624 -0.153332 0
M  V30 74 H 2.8163 2.89169 -2.25337 0
M  V30 75 H 2.4643 4.95233 -0.880545 0
M  V30 76 H 2.1643 5.26529 -2.60846 0
M  V30 77 H 3.6883 5.81687 -1.85667 0
M  V30 78 H 5.1023 4.42168 -3.64911 0
M  V30 79 H 3.4993 4.10731 -4.37516 0
M  V30 80 H 4.5693 2.74527 -3.99703 0
M  V30 81 N 5.9124 1.20967 1.01018 0
M  V30 82 C 6.8424 0.988272 2.11555 0
M  V30 83 C 7.8234 -0.0849778 1.69888 0
M  V30 84 O 9.0084 0.0738202 1.9406 0
M  V30 85 C 6.1384 0.546528 3.42973 0
M  V30 86 C 5.0924 1.56375 3.9841 0
M  V30 87 C 4.4184 0.97842 5.25672 0
M  V30 88 C 5.7184 2.94922 4.31066 0
M  V30 89 H 7.4124 1.91276 2.30334 0
M  V30 90 H 4.9584 0.921073 1.1069 0
M  V30 91 H 6.9114 0.378839 4.19694 0
M  V30 92 H 5.6354 -0.413598 3.23971 0
M  V30 93 H 4.2944 1.71891 3.23804 0
M  V30 94 H 3.9424 0.0101688 5.02999 0
M  V30 95 H 3.6424 1.65784 5.63728 0
M  V30 96 H 5.1664 0.821939 6.05043 0
M  V30 97 H 6.5804 2.8288 4.9865 0
M  V30 98 H 4.9774 3.5983 4.80253 0
M  V30 99 H 6.0474 3.4616 3.39561 0
M  V30 100 N 7.3905 -1.2043 1.01659 0
M  V30 101 C 8.6185 -1.93777 0.725132 0
M  V30 102 C 9.0335 -1.74772 -0.714166 0
M  V30 103 O 8.3905 -1.06169 -1.4844 0
M  V30 104 C 8.4415 -3.45876 1.05129 0
M  V30 105 O 8.1625 -3.6426 2.43406 0
M  V30 106 C 9.6635 -4.36368 0.780891 0
M  V30 107 H 6.8835 -0.615901 0.266284 0
M  V30 108 H 9.4275 -1.52922 1.35776 0
M  V30 109 H 7.5825 -3.8461 0.464065 0
M  V30 110 H 7.9965 -4.58246 2.55169 0
M  V30 111 H 9.4705 -5.41743 1.05918 0
M  V30 112 H 9.9475 -4.38275 -0.284937 0
M  V30 113 H 10.5535 -4.03296 1.35027 0
M  V30 114 N 8.8686 -0.792821 -1.36206 0
M  V30 115 C 9.8016 -0.139422 -2.27774 0
M  V30 116 C 10.7796 0.68649 -1.47398 0
M  V30 117 O 11.9636 0.656738 -1.7669 0
M  V30 118 C 9.0906 0.807947 -3.28922 0
M  V30 119 C 8.1366 0.0633999 -4.26453 0
M  V30 120 S 8.9696 -1.26319 -5.20388 0
M  V30 121 C 10.1256 -0.31991 -6.25082 0
M  V30 122 H 10.3586 -0.915809 -2.82843 0
M  V30 123 H 7.8916 -0.587203 -1.42798 0
M  V30 124 H 9.8496 1.34908 -3.87699 0
M  V30 125 H 8.5106 1.55761 -2.72759 0
M  V30 126 H 7.7036 0.782386 -4.9789 0
M  V30 127 H 7.3056 -0.407352 -3.71775 0
M  V30 128 H 9.5976 0.499985 -6.75653 0
M  V30 129 H 10.5406 -1.00307 -7.00959 0
M  V30 130 H 10.9486 0.0782694 -5.64446 0
M  V30 131 N 10.3467 1.47872 -0.545128 0
M  V30 132 C 11.3097 2.28337 0.198717 0
M  V30 133 C 12.3097 1.36255 0.853888 0
M  V30 134 O 13.4997 1.59003 0.711606 0
M  V30 135 C 10.6317 3.15585 1.28915 0
M  V30 136 H 11.8247 2.95567 -0.507941 0
M  V30 137 H 9.3777 1.53362 -0.301616 0
M  V30 138 H 10.1127 2.53019 2.02859 0
M  V30 139 H 9.8977 3.83337 0.824309 0
M  V30 140 H 11.3877 3.76243 1.81194 0
M  V30 141 N 11.8248 0.280983 1.55075 0
M  V30 142 C 13.0498 -0.340154 2.04592 0
M  V30 143 C 13.4748 -1.48246 1.15779 0
M  V30 144 O 12.8328 -1.80614 0.15761 0
M  V30 145 C 12.8808 -0.793104 3.5177 0
M  V30 146 O 11.9848 -1.89981 3.66034 0
M  V30 147 H 11.3258 -0.0694289 0.66036 0
M  V30 148 H 13.8558 0.416993 2.00306 0
M  V30 149 H 13.8658 -1.08729 3.93245 0
M  V30 150 H 12.5408 0.0426163 4.15878 0
M  V30 151 H 11.1178 -1.60771 3.36463 0
M  V30 152 N 13.3029 -1.57598 0.00835791 0
M  V30 153 C 14.2329 -2.1198 -0.979113 0
M  V30 154 C 15.2139 -1.03091 -1.35301 0
M  V30 155 O 16.3989 -1.30818 -1.43528 0
M  V30 156 C 13.5289 -2.62995 -2.26828 0
M  V30 157 C 12.4829 -3.76485 -2.03576 0
M  V30 158 C 11.8089 -4.13846 -3.38579 0
M  V30 159 C 13.1089 -5.0342 -1.39161 0
M  V30 160 H 14.8029 -2.94738 -0.526281 0
M  V30 161 H 12.3489 -1.41783 -0.251704 0
M  V30 162 H 14.3019 -2.99669 -2.96271 0
M  V30 163 H 13.0259 -1.7737 -2.7424 0
M  V30 164 H 11.6849 -3.40217 -1.36557 0
M  V30 165 H 11.3329 -3.25232 -3.83709 0
M  V30 166 H 11.0329 -4.90312 -3.23834 0
M  V30 167 H 12.5569 -4.53086 -4.09323 0
M  V30 168 H 13.9709 -5.37812 -1.98573 0
M  V30 169 H 12.3679 -5.84746 -1.34878 0
M  V30 170 H 13.4379 -4.83548 -0.361868 0
M  V30 171 N 14.781 0.264519 -1.55364 0
M  V30 172 C 16.03 0.992812 -1.75574 0
M  V30 173 C 16.343 1.87142 -0.568979 0
M  V30 174 O 17.549 2.63513 -0.653682 0
M  V30 175 C 16.005 1.81519 -3.10771 0
M  V30 176 C 15.613 0.984839 -4.37041 0
M  V30 177 C 17.357 2.53727 -3.40327 0
M  V30 178 C 15.264 1.80209 -5.63275 0
M  V30 179 H 14.194 0.374412 -0.65447 0
M  V30 180 H 16.845 0.248138 -1.81815 0
M  V30 181 H 15.227 2.60115 -2.98591 0
M  V30 182 H 16.401 0.242455 -4.60162 0
M  V30 183 H 14.716 0.37691 -4.14691 0
M  V30 184 H 17.313 3.15292 -4.3185 0
M  V30 185 H 17.656 3.24447 -2.60845 0
M  V30 186 H 18.189 1.82156 -3.53644 0
M  V30 187 H 14.928 1.13896 -6.45529 0
M  V30 188 H 14.448 2.52022 -5.44284 0
M  V30 189 H 16.127 2.37364 -6.01887 0
M  V30 190 N 16.2591 1.48442 0.529413 0
M  V30 191 C 17.4841 1.60406 1.31471 0
M  V30 192 C 17.9091 0.264738 1.86228 0
M  V30 193 O 17.2671 -0.763668 1.64432 0
M  V30 194 C 17.3151 2.65419 2.44101 0
M  V30 195 O 16.4191 2.22618 3.47153 0
M  V30 196 H 15.7601 0.537863 0.389357 0
M  V30 197 H 18.2901 1.94432 0.636965 0
M  V30 198 H 18.3001 2.86709 2.90279 0
M  V30 199 H 16.9751 3.62652 2.03608 0
M  V30 200 H 15.5521 2.11543 3.0709 0
M  V30 201 N 17.7372 -0.778329 1.37039 0
M  V30 202 C 18.9832 -1.53892 1.32079 0
M  V30 203 C 19.3162 -1.9396 -0.0965386 0
M  V30 204 O 18.5912 -1.63568 -1.05242 0
M  V30 205 C 18.8742 -2.80847 2.25382 0
M  V30 206 C 18.7272 -2.47076 3.75864 0
M  V30 207 C 20.0462 -3.82741 2.1725 0
M  V30 208 H 17.1652 -0.558303 0.48111 0
M  V30 209 H 19.8072 -0.893397 1.67685 0
M  V30 210 H 17.9572 -3.35931 1.95148 0
M  V30 211 H 19.6292 -1.97957 4.16666 0
M  V30 212 H 17.8722 -1.79863 3.94755 0
M  V30 213 H 18.5432 -3.37798 4.36574 0
M  V30 214 H 21.0192 -3.37133 2.43887 0
M  V30 215 H 19.8952 -4.69303 2.84686 0
M  V30 216 H 20.1562 -4.2652 1.16331 0
M  V30 217 N 19.2153 -1.21501 -1.00376 0
M  V30 218 C 20.1453 -0.999478 -2.11028 0
M  V30 219 C 21.1263 0.0759671 -1.6993 0
M  V30 220 O 22.3113 -0.0841106 -1.94018 0
M  V30 221 C 19.4413 -0.564709 -3.42678 0
M  V30 222 C 18.3953 -1.58486 -3.97576 0
M  V30 223 C 17.7213 -1.00628 -5.25146 0
M  V30 224 C 19.0213 -2.97204 -4.29496 0
M  V30 225 H 20.7153 -1.92495 -2.29317 0
M  V30 226 H 18.2613 -0.92693 -1.102 0
M  V30 227 H 20.2143 -0.401091 -4.19487 0
M  V30 228 H 18.9383 0.396411 -3.24185 0
M  V30 229 H 17.5973 -1.73606 -3.22888 0
M  V30 230 H 17.2453 -0.0368439 -5.02987 0
M  V30 231 H 16.9453 -1.68771 -5.62841 0
M  V30 232 H 18.4693 -0.854015 -6.04598 0
M  V30 233 H 19.8833 -2.8552 -4.97143 0
M  V30 234 H 18.2803 -3.62372 -4.78338 0
M  V30 235 H 19.3503 -3.47956 -3.3772 0
M  V30 236 N 20.6934 1.19889 -1.02296 0
M  V30 237 C 21.9414 1.89046 -0.714558 0
M  V30 238 C 22.2624 1.79636 0.758681 0
M  V30 239 O 21.5324 1.20292 1.54618 0
M  V30 240 H 20.1124 0.699802 -0.261317 0
M  V30 241 H 22.7744 1.45574 -1.29592 0
M  V30 242 H 21.8704 2.95524 -1.0036 0
M  V30 243 N 22.1715 0.800033 1.35784 0
M  V30 244 C 23.3995 0.389606 2.03199 0
M  V30 245 C 23.8145 -0.997375 1.60306 0
M  V30 246 O 23.1715 -1.64154 0.797481 0
M  V30 247 C 23.2225 0.455855 3.58614 0
M  V30 248 O 22.9435 1.78815 3.99946 0
M  V30 249 C 24.4445 0.0374032 4.43284 0
M  V30 250 H 21.6645 0.159132 0.651857 0
M  V30 251 H 24.2085 1.08183 1.73541 0
M  V30 252 H 22.3635 -0.188057 3.86943 0
M  V30 253 H 22.7775 1.74636 4.94573 0
M  V30 254 H 24.2515 0.134882 5.51835 0
M  V30 255 H 24.7285 -1.01651 4.27275 0
M  V30 256 H 25.3345 0.654215 4.20238 0
M  V30 257 N 23.6496 -1.47581 0.552962 0
M  V30 258 C 24.8776 -2.06875 0.0320556 0
M  V30 259 C 25.2926 -1.40625 -1.25976 0
M  V30 260 O 24.6496 -0.501349 -1.75479 0
M  V30 261 C 24.7006 -3.61092 -0.17167 0
M  V30 262 O 24.4216 -4.24858 1.06899 0
M  V30 263 C 25.9226 -4.37242 -0.730344 0
M  V30 264 H 23.1426 -0.669561 0.043915 0
M  V30 265 H 25.6866 -1.89646 0.765163 0
M  V30 266 H 23.8416 -3.7785 -0.854894 0
M  V30 267 H 24.2556 -5.17334 0.864059 0
M  V30 268 H 25.7296 -5.45842 -0.822203 0
M  V30 269 H 26.2066 -4.03235 -1.74064 0
M  V30 270 H 26.8126 -4.25219 -0.0829543 0
M  V30 271 N 25.1277 -0.289203 -1.54924 0
M  V30 272 C 26.0777 0.606939 -2.19773 0
M  V30 273 C 27.0617 1.10783 -1.16687 0
M  V30 274 O 28.2537 1.05057 -1.4245 0
M  V30 275 C 25.3827 1.78398 -2.93307 0
M  V30 276 C 24.4687 1.29961 -4.03697 0
M  V30 277 N 24.8597 0.532377 -5.0299 0
M  V30 278 C 23.1577 1.58136 -4.17024 0
M  V30 279 C 23.8587 0.275912 -5.81045 0
M  V30 280 N 22.8347 0.852365 -5.36876 0
M  V30 281 H 26.6367 0.0130779 -2.93897 0
M  V30 282 H 24.1507 -0.09341 -1.62131 0
M  V30 283 H 26.1477 2.43741 -3.38225 0
M  V30 284 H 24.8077 2.38166 -2.20697 0
M  V30 285 H 25.8187 0.17838 -5.17593 0
M  V30 286 H 22.4957 2.18738 -3.55612 0
M  V30 287 H 23.8857 -0.339502 -6.71042 0
M  V30 288 N 26.6058 1.57591 -0.0167156 0
M  V30 289 C 27.8538 1.90906 0.663285 0
M  V30 290 C 28.1748 0.892509 1.73376 0
M  V30 291 O 27.4448 -0.0677623 1.95783 0
M  V30 292 H 26.0248 0.704637 0.247983 0
M  V30 293 H 28.6868 1.94803 -0.0615909 0
M  V30 294 H 27.7828 2.9116 1.12393 0
M  V30 295 N 28.0839 -0.256276 1.55502 0
M  V30 296 C 29.0139 -1.32102 1.92539 0
M  V30 297 C 29.9949 -1.50684 0.789194 0
M  V30 298 O 31.1799 -1.63449 1.04872 0
M  V30 299 C 28.3099 -2.67752 2.21192 0
M  V30 300 C 27.2639 -2.63878 3.36975 0
M  V30 301 C 26.5899 -4.03236 3.51147 0
M  V30 302 C 27.8899 -2.21682 4.72921 0
M  V30 303 H 29.5839 -1.01351 2.81724 0
M  V30 304 H 27.1299 -0.486105 1.35547 0
M  V30 305 H 29.0829 -3.42365 2.45691 0
M  V30 306 H 27.8069 -3.0012 1.28824 0
M  V30 307 H 26.4659 -1.91722 3.12471 0
M  V30 308 H 26.1139 -4.32854 2.56216 0
M  V30 309 H 25.8139 -4.01535 4.29003 0
M  V30 310 H 27.3379 -4.79563 3.77957 0
M  V30 311 H 28.7519 -2.86023 4.96854 0
M  V30 312 H 27.1489 -2.3111 5.53812 0
M  V30 313 H 28.2189 -1.16833 4.70615 0
M  V30 314 N 29.562 -1.4872 -0.521534 0
M  V30 315 C 30.809 -1.57168 -1.27689 0
M  V30 316 C 31.137 -0.249275 -1.92896 0
M  V30 317 O 30.392 0.761162 -1.80291 0
M  V30 318 C 30.691 -2.66497 -2.38148 0
M  V30 319 C 30.357 -4.08664 -1.90538 0
M  V30 320 C 29.019 -4.47357 -1.77271 0
M  V30 321 C 31.371 -4.97724 -1.54663 0
M  V30 322 C 28.699 -5.72905 -1.26478 0
M  V30 323 C 31.051 -6.2377 -1.05329 0
M  V30 324 C 29.715 -6.61311 -0.906861 0
M  V30 325 H 28.985 -0.575117 -0.467249 0
M  V30 326 H 31.632 -1.82472 -0.581051 0
M  V30 327 H 29.937 -2.35085 -3.13437 0
M  V30 328 H 31.634 -2.70246 -2.96257 0
M  V30 329 H 28.224 -3.78111 -2.01816 0
M  V30 330 H 32.408 -4.68501 -1.63768 0
M  V30 331 H 27.664 -6.00709 -1.13835 0
M  V30 332 H 31.838 -6.9217 -0.76644 0
M  V30 333 H 29.465 -7.5848 -0.511083 0
M  V30 334 N 31.0401 0.771051 -1.3745 0
M  V30 335 C 32.2881 1.52661 -1.32435 0
M  V30 336 C 32.6091 1.9479 0.0905024 0
M  V30 337 O 31.8791 1.66348 1.03466 0
M  V30 338 H 30.4591 0.566218 -0.487244 0
M  V30 339 H 33.1211 0.917636 -1.71946 0
M  V30 340 H 32.2171 2.42568 -1.96385 0
M  V30 341 N 32.5182 1.22032 0.997298 0
M  V30 342 C 33.4652 0.986467 2.08656 0
M  V30 343 C 34.4352 -0.0902671 1.65855 0
M  V30 344 O 35.6202 0.0584294 1.90711 0
M  V30 345 C 32.7602 0.565569 3.40434 0
M  V30 346 C 31.8732 1.71259 3.96604 0
M  V30 347 C 31.0082 1.24011 5.16522 0
M  V30 348 C 30.0472 2.35896 5.64818 0
M  V30 349 N 29.1842 1.89726 6.7598 0
M  V30 350 H 34.0242 1.91892 2.27994 0
M  V30 351 H 31.5612 0.956199 1.11782 0
M  V30 352 H 33.5192 0.302738 4.161 0
M  V30 353 H 32.1492 -0.329879 3.2111 0
M  V30 354 H 31.2012 2.08986 3.17851 0
M  V30 355 H 32.5132 2.55436 4.28432 0
M  V30 356 H 31.6672 0.934395 5.99461 0
M  V30 357 H 30.4062 0.368487 4.86306 0
M  V30 358 H 29.4112 2.67261 4.8047 0
M  V30 359 H 30.6362 3.23567 5.97061 0
M  V30 360 H 28.5822 1.0492 6.47555 0
M  V30 361 H 28.4992 2.67471 7.07103 0
M  V30 362 H 29.7672 1.62211 7.62435 0
M  V30 363 N 33.9963 -1.19345 1.0293 0
M  V30 364 C 34.9263 -2.2481 0.631105 0
M  V30 365 C 35.9073 -1.66245 -0.360104 0
M  V30 366 O 37.0923 -1.92677 -0.242726 0
M  V30 367 C 34.2223 -3.47295 -0.0184607 0
M  V30 368 C 33.1763 -4.18536 0.895073 0
M  V30 369 C 32.5023 -5.34586 0.110592 0
M  V30 370 C 33.8023 -4.73287 2.209 0
M  V30 371 H 35.4963 -2.58372 1.51275 0
M  V30 372 H 33.0423 -1.24194 0.728818 0
M  V30 373 H 34.9953 -4.20268 -0.308675 0
M  V30 374 H 33.7193 -3.12933 -0.934907 0
M  V30 375 H 32.3783 -3.47446 1.16949 0
M  V30 376 H 32.0263 -4.96469 -0.807902 0
M  V30 377 H 31.7263 -5.83183 0.719087 0
M  V30 378 H 33.2503 -6.10355 -0.172871 0
M  V30 379 H 34.6643 -5.38013 1.98028 0
M  V30 380 H 33.0613 -5.32373 2.76946 0
M  V30 381 H 34.1313 -3.91331 2.86336 0
M  V30 382 N 35.4744 -0.807222 -1.35358 0
M  V30 383 C 36.4244 -0.190706 -2.27201 0
M  V30 384 C 37.4084 0.635838 -1.47804 0
M  V30 385 O 38.6004 0.492991 -1.69996 0
M  V30 386 C 35.7294 0.659337 -3.36909 0
M  V30 387 C 34.8154 -0.176971 -4.23731 0
M  V30 388 N 35.2064 -1.24029 -4.90357 0
M  V30 389 C 33.5044 0.0412953 -4.45981 0
M  V30 390 C 34.2054 -1.75092 -5.54723 0
M  V30 391 N 33.1814 -1.05727 -5.33219 0
M  V30 392 H 36.9834 -1.0043 -2.76208 0
M  V30 393 H 34.4974 -0.648445 -1.48892 0
M  V30 394 H 36.4944 1.11706 -4.01656 0
M  V30 395 H 35.1544 1.47127 -2.89454 0
M  V30 396 H 36.1654 -1.62295 -4.91814 0
M  V30 397 H 32.8424 0.82232 -4.09322 0
M  V30 398 H 34.2324 -2.63963 -6.17878 0
M  V30 399 N 36.9525 1.47285 -0.560781 0
M  V30 400 C 38.3635 1.86258 -0.128343 0
M  V30 401 C 38.7145 1.46699 1.30284 0
M  V30 402 O 37.8395 0.871698 1.98067 0
M  V30 403 C 38.4345 3.38044 -0.22614 0
M  V30 404 C 36.9935 3.76096 0.151283 0
M  V30 405 C 36.1405 2.71335 -0.572084 0
M  V30 406 H 39.0915 1.38752 -0.770297 0
M  V30 407 H 39.1125 3.76441 0.554322 0
M  V30 408 H 38.6245 3.66806 -1.26788 0
M  V30 409 H 36.7255 3.52951 1.19399 0
M  V30 410 H 36.8385 4.78641 -0.209765 0
M  V30 411 H 35.2025 2.54696 -0.0147653 0
M  V30 412 H 35.9855 3.02938 -1.61504 0
M  V30 413 N 38.4306 0.297415 1.54768 0
M  V30 414 C 39.6786 -0.312295 1.99673 0
M  V30 415 C 39.9996 -1.54686 1.18732 0
M  V30 416 O 39.2696 -1.93854 0.282382 0
M  V30 417 H 37.8496 -0.118381 0.73756 0
M  V30 418 H 40.5116 0.407915 1.90583 0
M  V30 419 H 39.6076 -0.586813 3.06534 0
M  V30 420 N 39.9087 -1.5758 0.0250728 0
M  V30 421 C 41.1337 -1.96337 -0.668317 0
M  V30 422 C 41.5587 -0.901314 -1.651 0
M  V30 423 O 40.9167 0.138187 -1.80773 0
M  V30 424 C 40.9647 -3.34191 -1.35457 0
M  V30 425 O 40.0687 -3.30269 -2.46974 0
M  V30 426 H 39.4097 -0.640281 -0.175887 0
M  V30 427 H 41.9397 -2.0442 0.0857224 0
M  V30 428 H 41.9497 -3.70331 -1.71228 0
M  V30 429 H 40.6247 -4.11036 -0.634218 0
M  V30 430 H 39.2017 -3.05841 -2.13344 0
M  V30 431 N 41.3868 0.248026 -1.55636 0
M  V30 432 C 42.7978 0.817177 -1.67866 0
M  V30 433 C 43.1488 1.86069 -0.622322 0
M  V30 434 O 42.2738 2.15157 0.231618 0
M  V30 435 C 42.8688 1.489 -3.04326 0
M  V30 436 C 41.4278 2.00587 -3.185 0
M  V30 437 C 40.5748 0.856573 -2.63739 0
M  V30 438 H 43.5258 0.0238579 -1.58682 0
M  V30 439 H 43.5468 2.35698 -2.98708 0
M  V30 440 H 43.0588 0.729279 -3.81186 0
M  V30 441 H 41.1598 2.79443 -2.4646 0
M  V30 442 H 41.2728 2.20402 -4.25393 0
M  V30 443 H 39.6368 1.25678 -2.21534 0
M  V30 444 H 40.4198 0.109953 -3.43124 0
M  V30 445 N 42.8649 1.48995 0.513639 0
M  V30 446 C 43.7749 1.67443 1.64317 0
M  V30 447 C 44.7909 0.556947 1.64846 0
M  V30 448 O 45.9669 0.830082 1.83498 0
M  V30 449 C 43.0319 1.72515 3.00732 0
M  V30 450 C 42.0929 2.96009 3.1093 0
M  V30 451 C 41.3259 3.00829 4.40837 0
M  V30 452 O 41.5489 2.13594 5.28898 0
M  V30 453 O 40.4829 3.93168 4.55744 0
M  V30 454 H 44.3089 2.63106 1.51687 0
M  V30 455 H 41.8939 1.32588 0.688543 0
M  V30 456 H 43.7759 1.78277 3.81831 0
M  V30 457 H 42.4509 0.800278 3.13651 0
M  V30 458 H 41.3579 2.9577 2.29065 0
M  V30 459 H 42.6909 3.87934 3.02933 0
M  V30 460 N 44.343 -0.763751 1.37857 0
M  V30 461 C 45.589 -1.52483 1.33704 0
M  V30 462 C 45.922 -1.94051 -0.0759612 0
M  V30 463 O 45.197 -1.64675 -1.03501 0
M  V30 464 C 45.48 -2.78441 2.28348 0
M  V30 465 C 45.333 -2.43075 3.78463 0
M  V30 466 C 46.652 -3.80415 2.21298 0
M  V30 467 H 43.771 -0.553169 0.487005 0
M  V30 468 H 46.413 -0.875562 1.68624 0
M  V30 469 H 44.563 -3.33842 1.987 0
M  V30 470 H 46.235 -1.93527 4.18742 0
M  V30 471 H 44.478 -1.75666 3.96641 0
M  V30 472 H 45.149 -3.33149 4.40132 0
M  V30 473 H 47.625 -3.34527 2.47449 0
M  V30 474 H 46.501 -4.66257 2.89647 0
M  V30 475 H 46.762 -4.25262 1.20849 0
M  V30 476 N 45.8211 -1.22559 -0.990812 0
M  V30 477 C 47.0491 -1.07779 -1.76611 0
M  V30 478 C 47.4641 0.371513 -1.85109 0
M  V30 479 O 46.8211 1.25737 -1.32274 0
M  V30 480 C 46.8721 -1.68512 -3.19822 0
M  V30 481 O 46.5931 -3.07774 -3.1178 0
M  V30 482 C 48.0941 -1.59035 -4.13791 0
M  V30 483 H 45.3141 -0.377729 -0.554583 0
M  V30 484 H 47.8581 -1.62195 -1.24551 0
M  V30 485 H 46.0131 -1.18154 -3.68942 0
M  V30 486 H 46.4271 -3.37062 -4.01858 0
M  V30 487 H 47.9011 -2.0625 -5.1202 0
M  V30 488 H 48.3781 -0.547273 -4.35777 0
M  V30 489 H 48.9841 -2.08709 -3.70568 0
M  V30 490 N 47.2992 1.18797 -1.03562 0
M  V30 491 C 48.2322 2.2105 -0.56676 0
M  V30 492 C 49.2102 1.57704 0.395993 0
M  V30 493 O 50.3942 1.85908 0.311498 0
M  V30 494 C 47.5212 3.38259 0.172704 0
M  V30 495 C 46.5672 4.19987 -0.74252 0
M  V30 496 S 47.4002 4.87199 -2.22254 0
M  V30 497 C 48.5562 6.07813 -1.49379 0
M  V30 498 H 48.7892 2.60478 -1.43312 0
M  V30 499 H 46.3222 1.29151 -0.846133 0
M  V30 500 H 48.2802 4.06191 0.593191 0
M  V30 501 H 46.9412 2.97252 1.01488 0
M  V30 502 H 46.1342 5.03709 -0.171265 0
M  V30 503 H 45.7362 3.57408 -1.10163 0
M  V30 504 H 48.0282 6.72948 -0.784056 0
M  V30 505 H 48.9712 6.69435 -2.30786 0
M  V30 506 H 49.3792 5.55781 -0.988331 0
M  V30 507 N 48.7773 0.814389 1.34928 0
M  V30 508 C 49.7253 0.218424 2.31572 0
M  V30 509 C 50.7193 -0.636128 1.57002 0
M  V30 510 O 51.9253 -0.52842 1.72069 0
M  V30 511 H 48.3003 0.0518799 0.750208 0
M  V30 512 H 50.2713 1.04852 2.79372 0
M  V30 513 C 49.0203 -0.61207 3.4227 0
M  V30 514 H 48.3433 0.0361578 3.99784 0
M  V30 515 H 49.7833 -0.995317 4.12152 0
M  V30 516 C 48.2423 -1.78087 2.85984 0
M  V30 517 O 48.7723 -2.8787 2.80168 0
M  V30 518 N 46.9783 -1.59488 2.42924 0
M  V30 519 H 46.5253 -0.701874 2.47854 0
M  V30 520 H 46.4833 -2.37846 2.05613 0
M  V30 521 N 50.2554 -1.46986 0.568584 0
M  V30 522 C 51.5044 -2.01646 0.0465894 0
M  V30 523 C 51.8174 -1.44721 -1.31587 0
M  V30 524 O 53.0234 -1.91113 -1.92842 0
M  V30 525 C 51.4794 -3.59885 0.032752 0
M  V30 526 C 51.0874 -4.25804 1.39266 0
M  V30 527 C 52.8314 -4.22255 -0.436038 0
M  V30 528 C 50.7384 -5.76081 1.33732 0
M  V30 529 H 49.6684 -0.753876 0.013647 0
M  V30 530 H 52.3194 -1.68864 0.718131 0
M  V30 531 H 50.7014 -3.8968 -0.704669 0
M  V30 532 H 51.8754 -4.07637 2.1487 0
M  V30 533 H 50.1904 -3.7547 1.80032 0
M  V30 534 H 52.7874 -5.32394 -0.49602 0
M  V30 535 H 53.1304 -3.90212 -1.45053 0
M  V30 536 H 53.6634 -3.97033 0.246877 0
M  V30 537 H 50.4024 -6.12761 2.32817 0
M  V30 538 H 49.9224 -5.96553 0.623267 0
M  V30 539 H 51.6014 -6.38518 1.0442 0
M  V30 540 N 51.7335 -0.305618 -1.54608 0
M  V30 541 C 52.9585 0.307562 -2.05107 0
M  V30 542 C 53.3835 1.46385 -1.18123 0
M  V30 543 O 52.7415 1.8034 -0.186324 0
M  V30 544 C 52.7895 0.73704 -3.52987 0
M  V30 545 O 51.8935 1.84134 -3.6901 0
M  V30 546 H 51.2345 0.0589143 -0.661381 0
M  V30 547 H 53.7645 -0.448807 -1.99617 0
M  V30 548 H 53.7745 1.02459 -3.94925 0
M  V30 549 H 52.4495 -0.108773 -4.15758 0
M  V30 550 H 51.0265 1.55398 -3.38978 0
M  V30 551 N 53.2116 1.57565 -0.0334293 0
M  V30 552 C 54.1436 2.0739 0.975811 0
M  V30 553 C 55.1566 0.998166 1.2861 0
M  V30 554 O 56.3456 1.27426 1.25 0
M  V30 555 C 53.4456 2.4871 2.30209 0
M  V30 556 C 52.6186 3.79413 2.17634 0
M  V30 557 C 51.6776 4.07237 3.33233 0
M  V30 558 O 50.7036 4.77425 3.09927 0
M  V30 559 N 51.9056 3.5775 4.5716 0
M  V30 560 H 54.6706 2.94598 0.55066 0
M  V30 561 H 52.2316 1.61173 0.15323 0
M  V30 562 H 54.2236 2.64413 3.06378 0
M  V30 563 H 52.7936 1.66845 2.64351 0
M  V30 564 H 52.0136 3.73465 1.26165 0
M  V30 565 H 53.3016 4.65038 2.0644 0
M  V30 566 H 52.6996 3.00976 4.78989 0
M  V30 567 H 51.2566 3.78724 5.30482 0
M  V30 568 N 54.6897 -0.239769 1.55765 0
M  V30 569 C 55.6227 -1.32356 1.85895 0
M  V30 570 C 56.6007 -1.46053 0.714662 0
M  V30 571 O 57.7847 -1.62154 0.961157 0
M  V30 572 C 54.9117 -2.6962 2.04994 0
M  V30 573 C 53.9577 -2.73036 3.27648 0
M  V30 574 S 54.7907 -2.28929 4.84099 0
M  V30 575 C 55.9467 -3.68103 5.06212 0
M  V30 576 H 56.1797 -1.06601 2.77531 0
M  V30 577 H 53.7127 -0.441112 1.47965 0
M  V30 578 H 55.6707 -3.48653 2.16682 0
M  V30 579 H 54.3317 -2.92609 1.14188 0
M  V30 580 H 53.5247 -3.7386 3.38 0
M  V30 581 H 53.1267 -2.02052 3.14723 0
M  V30 582 H 55.4187 -4.63656 4.93993 0
M  V30 583 H 56.3617 -3.6268 6.08168 0
M  V30 584 H 56.7697 -3.60947 4.34025 0
M  V30 585 N 56.1678 -1.49265 -0.50573 0
M  V30 586 C 57.4168 -1.57761 -1.25675 0
M  V30 587 C 57.7298 -0.267371 -1.93764 0
M  V30 588 O 58.9358 -0.230827 -2.70517 0
M  V30 589 C 57.3918 -2.78332 -2.28165 0
M  V30 590 C 56.9998 -4.16096 -1.66037 0
M  V30 591 C 58.7438 -2.96155 -3.04125 0
M  V30 592 C 56.6508 -5.27895 -2.6661 0
M  V30 593 H 55.5808 -0.587391 -0.472745 0
M  V30 594 H 58.2318 -1.75644 -0.53118 0
M  V30 595 H 56.6138 -2.53934 -3.03865 0
M  V30 596 H 57.7878 -4.50612 -0.963622 0
M  V30 597 H 56.1028 -4.03591 -1.02484 0
M  V30 598 H 58.6998 -3.76849 -3.79327 0
M  V30 599 H 59.0428 -2.06534 -3.61455 0
M  V30 600 H 59.5758 -3.2057 -2.35541 0
M  V30 601 H 56.3148 -6.1956 -2.14068 0
M  V30 602 H 55.8348 -4.97839 -3.34539 0
M  V30 603 H 57.5138 -5.57031 -3.29129 0
M  V30 604 N 57.6459 0.756429 -1.3826 0
M  V30 605 C 58.8739 1.54565 -1.3754 0
M  V30 606 C 59.2889 1.88767 0.0355331 0
M  V30 607 O 58.6459 1.52572 1.0014 0
M  V30 608 C 58.6969 2.84654 -2.22833 0
M  V30 609 O 58.4179 2.51912 -3.5843 0
M  V30 610 C 59.9189 3.78807 -2.30261 0
M  V30 611 H 57.1389 0.478353 -0.470553 0
M  V30 612 H 59.6829 0.936381 -1.81803 0
M  V30 613 H 57.8379 3.41965 -1.8204 0
M  V30 614 H 58.2519 3.35325 -4.03308 0
M  V30 615 H 59.7259 4.67045 -2.94233 0
M  V30 616 H 60.2029 4.19038 -1.31545 0
M  V30 617 H 60.8089 3.2742 -2.71433 0
M  V30 618 N 59.124 1.23083 0.984299 0
M  V30 619 C 60.354 1.08556 1.75781 0
M  V30 620 C 60.762 -0.366171 1.85623 0
M  V30 621 O 60.105 -1.26524 1.33182 0
M  V30 622 C 60.167 1.63208 3.20318 0
M  V30 623 C 59.831 3.11922 3.33997 0
M  V30 624 C 60.828 4.09259 3.2063 0
M  V30 625 C 58.513 3.51552 3.58771 0
M  V30 626 C 60.507 5.4421 3.31835 0
M  V30 627 C 58.194 4.86649 3.69616 0
M  V30 628 C 59.192 5.82787 3.56157 0
M  V30 629 O 58.88 7.15431 3.66626 0
M  V30 630 H 58.612 0.380713 0.5586 0
M  V30 631 H 61.166 1.63321 1.2456 0
M  V30 632 H 59.396 1.0286 3.72769 0
M  V30 633 H 61.085 1.44216 3.79416 0
M  V30 634 H 61.851 3.79984 3.01392 0
M  V30 635 H 57.73 2.77239 3.6832 0
M  V30 636 H 61.274 6.1923 3.21247 0
M  V30 637 H 57.171 5.15601 3.88363 0
M  V30 638 H 57.939 7.23127 3.83445 0
M  V30 639 N 60.6021 -1.18246 1.0419 0
M  V30 640 C 61.8481 -1.88793 0.75689 0
M  V30 641 C 62.2031 -1.78909 -0.707767 0
M  V30 642 O 61.4961 -1.1794 -1.50999 0
M  V30 643 C 61.6901 -3.38082 1.15911 0
M  V30 644 C 61.5191 -3.62496 2.66133 0
M  V30 645 C 60.2891 -3.7979 3.33298 0
M  V30 646 C 62.4871 -3.62976 3.64353 0
M  V30 647 N 60.4691 -3.91955 4.72487 0
M  V30 648 C 61.8401 -3.80869 4.89222 0
M  V30 649 C 63.8951 -3.46071 3.57965 0
M  V30 650 C 62.5981 -3.83608 6.08471 0
M  V30 651 C 64.6241 -3.50093 4.76643 0
M  V30 652 C 63.9861 -3.68484 6.00332 0
M  V30 653 H 60.0851 -0.709406 0.32904 0
M  V30 654 H 62.6691 -1.42022 1.33183 0
M  V30 655 H 60.8401 -3.83544 0.612238 0
M  V30 656 H 62.5721 -3.96202 0.824989 0
M  V30 657 H 59.3271 -3.79224 2.83701 0
M  V30 658 H 59.7511 -4.01857 5.44831 0
M  V30 659 H 64.3931 -3.30797 2.63311 0
M  V30 660 H 62.1111 -3.97669 7.0348 0
M  V30 661 H 65.6971 -3.38285 4.73344 0
M  V30 662 H 64.5771 -3.71488 6.90627 0
M  V30 663 N 62.0802 -0.821533 -1.34494 0
M  V30 664 C 63.3282 -0.408139 -1.97936 0
M  V30 665 C 63.6492 1.03193 -1.65457 0
M  V30 666 O 62.9192 1.71622 -0.944595 0
M  V30 667 H 61.4992 -0.147928 -0.732206 0
M  V30 668 H 64.1612 -1.05067 -1.64155 0
M  V30 669 H 63.2572 -0.52601 -3.07635 0
M  V30 670 N 63.5583 1.46682 -0.576371 0
M  V30 671 C 64.7883 2.06498 -0.0648694 0
M  V30 672 C 65.1963 1.42665 1.24271 0
M  V30 673 O 64.5393 0.523886 1.76071 0
M  V30 674 C 64.6013 3.5904 0.181816 0
M  V30 675 C 64.2653 4.45028 -1.0392 0
M  V30 676 C 65.2623 4.81959 -1.94966 0
M  V30 677 C 62.9473 4.86259 -1.25927 0
M  V30 678 C 64.9413 5.58942 -3.06371 0
M  V30 679 C 62.6283 5.63002 -2.37638 0
M  V30 680 C 63.6263 5.99257 -3.2769 0
M  V30 681 O 63.3143 6.7445 -4.37461 0
M  V30 682 H 63.0463 0.674028 -0.0515987 0
M  V30 683 H 65.6003 1.89393 -0.794951 0
M  V30 684 H 63.8303 3.74429 0.966436 0
M  V30 685 H 65.5193 4.00806 0.641047 0
M  V30 686 H 66.2853 4.50689 -1.79177 0
M  V30 687 H 62.1643 4.57494 -0.567448 0
M  V30 688 H 65.7083 5.87158 -3.76684 0
M  V30 689 H 61.6053 5.93686 -2.53392 0
M  V30 690 H 62.3733 6.92867 -4.35749 0
M  V30 691 N 65.0364 0.313813 1.54444 0
M  V30 692 C 66.4474 -0.176243 1.85866 0
M  V30 693 C 66.7984 -1.52405 1.23561 0
M  V30 694 O 65.9234 -2.09605 0.538016 0
M  V30 695 C 66.5184 -0.32657 3.37222 0
M  V30 696 C 65.0774 -0.760846 3.6863 0
M  V30 697 C 64.2244 0.123247 2.77026 0
M  V30 698 H 67.1754 0.534418 1.49431 0
M  V30 699 H 67.1964 -1.15908 3.62416 0
M  V30 700 H 66.7084 0.654531 3.82541 0
M  V30 701 H 64.8094 -1.75204 3.28838 0
M  V30 702 H 64.9224 -0.571353 4.75681 0
M  V30 703 H 63.2864 -0.399597 2.51546 0
M  V30 704 H 64.0694 1.10094 3.25168 0
M  V30 705 N 66.5145 -1.57545 0.0417849 0
M  V30 706 C 67.4625 -2.12148 -0.953723 0
M  V30 707 C 68.4565 -1.05104 -1.32852 0
M  V30 708 O 69.6625 -1.23524 -1.30927 0
M  V30 709 H 66.0375 -0.677957 -0.325389 0
M  V30 710 H 68.0085 -2.94707 -0.467991 0
M  V30 711 C 66.7575 -2.6739 -2.22257 0
M  V30 712 H 66.0805 -3.49413 -1.94295 0
M  V30 713 H 67.5205 -3.09227 -2.90094 0
M  V30 714 C 65.9795 -1.60723 -2.96091 0
M  V30 715 O 66.5095 -1.01449 -3.88679 0
M  V30 716 N 64.7155 -1.32466 -2.58652 0
M  V30 717 H 64.2625 -1.80856 -1.83437 0
M  V30 718 H 64.2205 -0.61325 -3.08361 0
M  V30 719 N 67.9926 0.231505 -1.5589 0
M  V30 720 C 68.9026 1.308 -1.94752 0
M  V30 721 C 69.9186 1.51826 -0.849989 0
M  V30 722 O 71.0946 1.6515 -1.15271 0
M  V30 723 C 68.1596 2.63968 -2.24771 0
M  V30 724 C 67.2206 2.51331 -3.48039 0
M  V30 725 C 66.4536 3.78148 -3.76616 0
M  V30 726 O 66.6766 4.80722 -3.07022 0
M  V30 727 O 65.6106 3.75857 -4.70123 0
M  V30 728 H 69.4366 1.0083 -2.86474 0
M  V30 729 H 67.0216 0.433547 -1.42971 0
M  V30 730 H 68.9036 3.42633 -2.45318 0
M  V30 731 H 67.5786 2.9364 -1.36225 0
M  V30 732 H 66.4856 1.709 -3.32782 0
M  V30 733 H 67.8186 2.26601 -4.36936 0
M  V30 734 N 69.4707 1.49531 0.497807 0
M  V30 735 C 70.3807 1.69176 1.62532 0
M  V30 736 C 71.3967 0.5744 1.64246 0
M  V30 737 O 72.5727 0.849497 1.82608 0
M  V30 738 C 69.6377 1.75695 2.98885 0
M  V30 739 C 68.6987 2.9929 3.07773 0
M  V30 740 C 67.9317 3.05488 4.37622 0
M  V30 741 O 68.1547 2.19192 5.26603 0
M  V30 742 O 67.0887 3.9798 4.51548 0
M  V30 743 H 70.9147 2.647 1.48887 0
M  V30 744 H 68.4997 1.3331 0.674441 0
M  V30 745 H 70.3817 1.82317 3.79919 0
M  V30 746 H 69.0567 0.8335 3.12785 0
M  V30 747 H 67.9637 2.98183 2.25915 0
M  V30 748 H 69.2967 3.91125 2.98801 0
M  V30 749 N 70.9488 -0.749086 1.3866 0
M  V30 750 C 72.1788 -1.53611 1.38157 0
M  V30 751 C 72.5868 -1.89177 -0.0293595 0
M  V30 752 O 71.9298 -1.53606 -1.00752 0
M  V30 753 C 71.9918 -2.86087 2.17702 0
M  V30 754 C 71.6558 -2.73034 3.66472 0
M  V30 755 C 72.6528 -2.42526 4.59866 0
M  V30 756 C 70.3378 -2.90345 4.09884 0
M  V30 757 C 72.3318 -2.29492 5.94653 0
M  V30 758 C 70.0188 -2.7693 5.4475 0
M  V30 759 C 71.0168 -2.46547 6.36949 0
M  V30 760 O 70.7048 -2.33199 7.69333 0
M  V30 761 H 70.4368 -0.481773 0.474205 0
M  V30 762 H 72.9908 -0.934465 1.82912 0
M  V30 763 H 71.2208 -3.48458 1.67672 0
M  V30 764 H 72.9098 -3.47625 2.09551 0
M  V30 765 H 73.6758 -2.28816 4.27631 0
M  V30 766 H 69.5548 -3.1299 3.38464 0
M  V30 767 H 73.0988 -2.05698 6.66584 0
M  V30 768 H 68.9958 -2.90215 5.76581 0
M  V30 769 H 69.7638 -2.48376 7.79905 0
M  V30 770 N 72.4269 -1.23603 -0.977757 0
M  V30 771 C 73.3369 -1.03632 -2.1047 0
M  V30 772 C 74.3529 0.0199435 -1.73989 0
M  V30 773 O 75.5289 -0.176076 -2.00629 0
M  V30 774 C 72.5939 -0.63276 -3.40877 0
M  V30 775 C 71.6549 -1.76437 -3.91367 0
M  V30 776 C 70.8879 -1.37997 -5.15551 0
M  V30 777 O 71.1109 -0.265357 -5.69782 0
M  V30 778 O 70.0449 -2.20201 -5.60174 0
M  V30 779 H 73.8709 -1.98086 -2.30208 0
M  V30 780 H 71.4559 -1.02332 -1.08851 0
M  V30 781 H 73.3379 -0.418761 -4.19314 0
M  V30 782 H 72.0129 0.282754 -3.22463 0
M  V30 783 H 70.9199 -2.03304 -3.14036 0
M  V30 784 H 72.2529 -2.6583 -4.14241 0
M  V30 785 N 73.905 1.17692 -1.04816 0
M  V30 786 C 75.151 1.88137 -0.75711 0
M  V30 787 C 75.484 1.80604 0.713841 0
M  V30 788 O 74.759 1.21146 1.52164 0
M  V30 789 C 75.042 3.38318 -1.2334 0
M  V30 790 C 74.895 3.54622 -2.76701 0
M  V30 791 C 76.214 4.32214 -0.829415 0
M  V30 792 H 73.333 0.683163 -0.27651 0
M  V30 793 H 75.975 1.38424 -1.30149 0
M  V30 794 H 74.125 3.80787 -0.770286 0
M  V30 795 H 75.797 3.21194 -3.31107 0
M  V30 796 H 74.04 2.97026 -3.16161 0
M  V30 797 H 74.711 4.60028 -3.05088 0
M  V30 798 H 77.187 3.97565 -1.22805 0
M  V30 799 H 76.063 5.35838 -1.19033 0
M  V30 800 H 76.324 4.41294 0.266891 0
M  V30 801 N 75.3831 0.828654 1.34056 0
M  V30 802 C 76.6291 0.42008 1.98402 0
M  V30 803 C 76.9621 -1.01564 1.65525 0
M  V30 804 O 76.2371 -1.70834 0.929831 0
M  V30 805 C 76.5201 0.62927 3.54559 0
M  V30 806 C 76.3731 2.11152 3.97159 0
M  V30 807 C 77.6921 0.0688756 4.40046 0
M  V30 808 H 74.8111 0.154104 0.720709 0
M  V30 809 H 77.4531 1.04228 1.5886 0
M  V30 810 H 75.6031 0.0996418 3.88372 0
M  V30 811 H 77.2751 2.70522 3.73651 0
M  V30 812 H 75.5181 2.59985 3.47261 0
M  V30 813 H 76.1891 2.20868 5.05887 0
M  V30 814 H 78.6651 0.521458 4.1282 0
M  V30 815 H 77.5411 0.245006 5.48353 0
M  V30 816 H 77.8021 -1.0266 4.30015 0
M  V30 817 N 76.8612 -1.46375 0.584142 0
M  V30 818 C 78.0892 -2.06761 0.0759296 0
M  V30 819 C 78.5042 -1.43266 -1.22965 0
M  V30 820 O 77.8612 -0.538458 -1.74376 0
M  V30 821 C 77.9122 -3.61375 -0.0950384 0
M  V30 822 O 77.6332 -4.22495 1.15887 0
M  V30 823 C 79.1342 -4.38693 -0.637434 0
M  V30 824 H 76.3542 -0.668479 0.0581075 0
M  V30 825 H 78.8982 -1.8798 0.805218 0
M  V30 826 H 77.0532 -3.79578 -0.774554 0
M  V30 827 H 77.4672 -5.15385 0.973598 0
M  V30 828 H 78.9412 -5.47464 -0.706237 0
M  V30 829 H 79.4182 -4.06836 -1.65472 0
M  V30 830 H 80.0242 -4.25299 0.00725967 0
M  V30 831 N 78.3393 -0.321999 -1.54275 0
M  V30 832 C 79.2493 0.553631 -2.27974 0
M  V30 833 C 80.2653 1.13054 -1.32268 0
M  V30 834 O 81.4413 1.15084 -1.6528 0
M  V30 835 C 78.5063 1.69927 -3.02201 0
M  V30 836 C 77.5673 1.15433 -4.1349 0
M  V30 837 C 76.8003 2.24537 -4.84168 0
M  V30 838 O 77.0233 3.44852 -4.5435 0
M  V30 839 O 75.9573 1.90044 -5.7111 0
M  V30 840 H 79.7833 -0.0448345 -3.03667 0
M  V30 841 H 77.3683 -0.0877418 -1.49142 0
M  V30 842 H 79.2503 2.3663 -3.48689 0
M  V30 843 H 77.9253 2.28395 -2.29385 0
M  V30 844 H 76.8323 0.452436 -3.71354 0
M  V30 845 H 78.1653 0.614805 -4.88345 0
M  V30 846 N 79.8174 1.5752 -0.0501392 0
M  V30 847 C 81.0944 1.83996 0.663685 0
M  V30 848 C 81.4744 0.938339 1.89099 0
M  V30 849 O 80.8224 -0.00087759 2.285 0
M  V30 850 C 81.0324 3.33702 1.02196 0
M  V30 851 C 82.3804 4.00691 1.40469 0
M  V30 852 O 83.4044 3.38321 1.11433 0
M  V30 853 O 82.2634 5.10658 1.94654 0
M  V30 854 H 79.3574 0.759385 0.32751 0
M  V30 855 H 81.9034 1.69514 -0.0794238 0
M  V30 856 H 80.6754 3.91015 0.149364 0
M  V30 857 H 80.2984 3.53368 1.82255 0
M  V30 858 N 81.2955 -0.223234 1.56011 0
M  V30 859 C 82.5435 -0.946003 1.78592 0
M  V30 860 C 82.8645 -1.84936 0.618349 0
M  V30 861 O 82.1345 -1.92473 -0.364833 0
M  V30 862 H 80.7145 -0.352298 0.658707 0
M  V30 863 H 83.3765 -0.235494 1.93472 0
M  V30 864 H 82.4725 -1.55381 2.70672 0
M  V30 865 N 82.7736 -1.49793 -0.48987 0
M  V30 866 C 84.0036 -1.6333 -1.26518 0
M  V30 867 C 84.4116 -0.308392 -1.8667 0
M  V30 868 O 83.7546 0.717512 -1.69108 0
M  V30 869 C 83.8166 -2.6522 -2.4269 0
M  V30 870 C 83.4806 -4.09279 -2.03321 0
M  V30 871 C 84.4776 -4.95738 -1.56652 0
M  V30 872 C 82.1626 -4.55082 -2.12616 0
M  V30 873 C 84.1566 -6.26041 -1.19795 0
M  V30 874 C 81.8436 -5.85396 -1.75371 0
M  V30 875 C 82.8416 -6.707 -1.29036 0
M  V30 876 O 82.5296 -7.98584 -0.92299 0
M  V30 877 H 82.2616 -0.552502 -0.389509 0
M  V30 878 H 84.8156 -1.96642 -0.593381 0
M  V30 879 H 83.0456 -2.27112 -3.12981 0
M  V30 880 H 84.7346 -2.68171 -3.04695 0
M  V30 881 H 85.5006 -4.61575 -1.48908 0
M  V30 882 H 81.3796 -3.88844 -2.47631 0
M  V30 883 H 84.9236 -6.92578 -0.835582 0
M  V30 884 H 80.8206 -6.19085 -1.82768 0
M  V30 885 H 81.5886 -8.11692 -1.05349 0
M  V30 886 N 84.2517 0.741722 -1.39055 0
M  V30 887 C 85.5007 1.49656 -1.35225 0
M  V30 888 C 85.8137 1.95533 0.0512708 0
M  V30 889 O 87.0197 2.7067 0.212138 0
M  V30 890 C 85.4757 2.70389 -2.37525 0
M  V30 891 C 85.0837 2.31489 -3.83558 0
M  V30 892 C 86.8277 3.48236 -2.42759 0
M  V30 893 C 84.7347 3.48903 -4.77515 0
M  V30 894 H 83.6647 0.56197 -0.502699 0
M  V30 895 H 86.3157 0.809727 -1.64668 0
M  V30 896 H 84.6977 3.41113 -2.01142 0
M  V30 897 H 85.8717 1.68354 -4.28945 0
M  V30 898 H 84.1867 1.66749 -3.81554 0
M  V30 899 H 86.7837 4.35558 -3.1015 0
M  V30 900 H 87.1267 3.90229 -1.45008 0
M  V30 901 H 87.6597 2.84535 -2.78002 0
M  V30 902 H 84.3987 3.11966 -5.76504 0
M  V30 903 H 83.9187 4.11041 -4.36813 0
M  V30 904 H 85.5977 4.15328 -4.96096 0
M  V30 905 N 85.7298 1.2412 0.971189 0
M  V30 906 C 86.6598 1.05508 2.08304 0
M  V30 907 C 87.6408 -0.0308864 1.70072 0
M  V30 908 O 88.8258 0.135521 1.93727 0
M  V30 909 C 85.9558 0.655365 3.4106 0
M  V30 910 C 84.9098 1.68971 3.93234 0
M  V30 911 C 84.2358 1.14516 5.22293 0
M  V30 912 C 85.5358 3.08487 4.21465 0
M  V30 913 H 87.2298 1.98507 2.24132 0
M  V30 914 H 84.7758 0.955821 1.07704 0
M  V30 915 H 86.7288 0.51217 4.18276 0
M  V30 916 H 85.4528 -0.31032 3.25122 0
M  V30 917 H 84.1118 1.82106 3.18171 0
M  V30 918 H 83.7598 0.170189 5.02712 0
M  V30 919 H 83.4598 1.83635 5.58168 0
M  V30 920 H 84.9838 1.01401 6.02121 0
M  V30 921 H 86.3978 2.98601 4.89398 0
M  V30 922 H 84.7948 3.74926 4.68562 0
M  V30 923 H 85.8648 3.56787 3.28376 0
M  V30 924 N 87.2079 -1.17134 1.05439 0
M  V30 925 C 88.1179 -2.24878 0.668365 0
M  V30 926 C 89.1339 -1.71186 -0.311687 0
M  V30 927 O 90.3099 -2.00738 -0.163161 0
M  V30 928 C 87.3749 -3.46662 0.051648 0
M  V30 929 C 86.4359 -4.15429 1.08246 0
M  V30 930 C 85.6689 -5.31399 0.495082 0
M  V30 931 O 85.8919 -5.66153 -0.694743 0
M  V30 932 O 84.8259 -5.89187 1.23056 0
M  V30 933 H 88.6519 -2.60189 1.56637 0
M  V30 934 H 86.2369 -1.24482 0.826104 0
M  V30 935 H 88.1189 -4.20394 -0.290966 0
M  V30 936 H 86.7939 -3.13142 -0.819971 0
M  V30 937 H 85.7009 -3.43704 1.47711 0
M  V30 938 H 87.0339 -4.52982 1.92532 0
M  V30 939 N 88.686 -0.835752 -1.33615 0
M  V30 940 C 89.932 -0.430596 -1.98176 0
M  V30 941 C 90.265 1.00684 -1.66061 0
M  V30 942 O 89.54 1.70339 -0.938877 0
M  V30 943 C 89.823 -0.648065 -3.5422 0
M  V30 944 C 89.676 -2.13255 -3.96033 0
M  V30 945 C 90.995 -0.0922113 -4.40003 0
M  V30 946 H 88.114 -0.157924 -0.719881 0
M  V30 947 H 90.756 -1.05069 -1.58305 0
M  V30 948 H 88.906 -0.120237 -3.88314 0
M  V30 949 H 90.578 -2.725 -3.72211 0
M  V30 950 H 88.821 -2.61823 -3.45878 0
M  V30 951 H 89.492 -2.23547 -5.04708 0
M  V30 952 H 91.968 -0.543343 -4.12537 0
M  V30 953 H 90.844 -0.274083 -5.48215 0
M  V30 954 H 91.105 1.00378 -4.30554 0
M  V30 955 N 90.1641 1.46063 -0.591896 0
M  V30 956 C 91.1121 2.32124 0.148739 0
M  V30 957 C 92.1061 1.45035 0.875286 0
M  V30 958 O 93.3121 1.61609 0.792632 0
M  V30 959 H 89.6871 0.749024 0.066832 0
M  V30 960 H 91.6581 2.92392 -0.595783 0
M  V30 961 C 90.4071 3.28373 1.1431 0
M  V30 962 H 89.7301 3.95371 0.59346 0
M  V30 963 H 91.1701 3.91352 1.63155 0
M  V30 964 C 89.6291 2.54393 2.20875 0
M  V30 965 O 90.1591 2.31373 3.28374 0
M  V30 966 N 88.3651 2.14797 1.95731 0
M  V30 967 H 87.9121 2.33719 1.08319 0
M  V30 968 H 87.8701 1.65619 2.67241 0
M  V30 969 N 91.6422 0.330177 1.54103 0
M  V30 970 C 93.0582 -0.0222371 1.59585 0
M  V30 971 C 93.2582 -1.49902 1.34654 0
M  V30 972 O 92.3142 -2.25592 1.13421 0
M  V30 973 C 93.6272 0.401932 2.98002 0
M  V30 974 C 95.1752 0.353145 3.11001 0
M  V30 975 C 95.6502 0.752576 4.51775 0
M  V30 976 N 97.1412 0.706239 4.57784 0
M  V30 977 C 97.8762 0.987417 5.64834 0
M  V30 978 N 97.3722 1.33607 6.79795 0
M  V30 979 N 99.1652 0.91254 5.54643 0
M  V30 980 H 91.3162 1.29228 1.68564 0
M  V30 981 H 93.5792 0.525906 0.78875 0
M  V30 982 H 93.2852 1.4311 3.21267 0
M  V30 983 H 93.1592 -0.229699 3.765 0
M  V30 984 H 95.5462 -0.666822 2.87467 0
M  V30 985 H 95.6272 1.0198 2.34593 0
M  V30 986 H 95.2712 1.77049 4.76042 0
M  V30 987 H 95.2012 0.0635409 5.26562 0
M  V30 988 H 97.6922 0.44889 3.75224 0
M  V30 989 H 98.0052 1.53582 7.57385 0
M  V30 990 H 96.3502 1.37439 6.81275 0
M  V30 991 H 99.5412 0.639601 4.6371 0
M  V30 992 H 99.7142 1.13503 6.37982 0
M  V30 993 N 93.1203 -1.57491 0.0584922 0
M  V30 994 C 94.3693 -1.92155 -0.613146 0
M  V30 995 C 94.6823 -0.939334 -1.71569 0
M  V30 996 O 95.8883 -1.17829 -2.44599 0
M  V30 997 C 94.3443 -3.41303 -1.14195 0
M  V30 998 C 93.9523 -4.47944 -0.0711265 0
M  V30 999 C 95.6963 -3.84988 -1.78841 0
M  V30 1000 C 93.6033 -5.88212 -0.613225 0
M  V30 1001 H 92.5333 -0.717162 -0.232796 0
M  V30 1002 H 95.1843 -1.83049 0.12857 0
M  V30 1003 H 93.5663 -3.45437 -1.93621 0
M  V30 1004 H 94.7403 -4.55408 0.702836 0
M  V30 1005 H 93.0553 -4.13644 0.478313 0
M  V30 1006 H 95.6523 -4.87159 -2.20408 0
M  V30 1007 H 95.9953 -3.21632 -2.64308 0
M  V30 1008 H 96.5283 -3.83401 -1.06059 0
M  V30 1009 H 93.2673 -6.55183 0.203978 0
M  V30 1010 H 92.7873 -5.84294 -1.35501 0
M  V30 1011 H 94.4663 -6.37687 -1.09383 0
M  V30 1012 N 94.5984 0.214957 -1.56127 0
M  V30 1013 C 96.0094 0.781386 -1.69562 0
M  V30 1014 C 96.3604 1.84707 -0.66165 0
M  V30 1015 O 95.4854 2.156 0.185927 0
M  V30 1016 C 96.0804 1.42411 -3.07416 0
M  V30 1017 C 94.6394 1.93786 -3.22683 0
M  V30 1018 C 93.7864 0.800438 -2.65496 0
M  V30 1019 H 96.7374 -0.00980633 -1.58697 0
M  V30 1020 H 96.7584 2.29309 -3.0364 0
M  V30 1021 H 96.2704 0.64826 -3.82648 0
M  V30 1022 H 94.3714 2.74152 -2.52332 0
M  V30 1023 H 94.4844 2.1133 -4.29973 0
M  V30 1024 H 92.8484 1.2095 -2.2415 0
M  V30 1025 H 93.6314 0.0371471 -3.4328 0
M  V30 1026 N 96.0765 1.50051 0.48192 0
M  V30 1027 C 97.3065 1.63999 1.2565 0
M  V30 1028 C 97.7145 0.318288 1.86504 0
M  V30 1029 O 97.0575 -0.708534 1.69486 0
M  V30 1030 C 97.1195 2.66504 2.4128 0
M  V30 1031 C 96.7835 4.10352 2.01148 0
M  V30 1032 C 97.7805 4.96562 1.54021 0
M  V30 1033 C 95.4655 4.56203 2.10199 0
M  V30 1034 C 97.4595 6.26668 1.16473 0
M  V30 1035 C 95.1465 5.86318 1.72264 0
M  V30 1036 C 96.1445 6.71375 1.25477 0
M  V30 1037 O 95.8325 7.99062 0.880626 0
M  V30 1038 H 95.5645 0.55456 0.386574 0
M  V30 1039 H 98.1185 1.96954 0.582944 0
M  V30 1040 H 96.3485 2.28769 3.11772 0
M  V30 1041 H 98.0375 2.69783 3.03268 0
M  V30 1042 H 98.8035 4.62358 1.46458 0
M  V30 1043 H 94.6825 3.90152 2.45566 0
M  V30 1044 H 98.2265 6.93011 0.798841 0
M  V30 1045 H 94.1235 6.20046 1.79482 0
M  V30 1046 H 94.8915 8.12239 1.01043 0
M  V30 1047 N 97.5546 -0.734337 1.39446 0
M  V30 1048 C 98.8026 -1.49096 1.36436 0
M  V30 1049 C 99.1236 -1.94961 -0.0388255 0
M  V30 1050 O 98.3936 -1.69033 -0.990191 0
M  V30 1051 H 96.9736 -0.5531 0.502085 0
M  V30 1052 H 99.6356 -0.871725 1.74319 0
M  V30 1053 H 98.7316 -2.37276 2.02747 0
M  V30 1054 N 99.0327 -1.24633 -0.964593 0
M  V30 1055 C 99.9797 -1.04144 -2.05968 0
M  V30 1056 C 100.95 0.046262 -1.66036 0
M  V30 1057 O 102.135 -0.108972 -1.90489 0
M  V30 1058 C 99.2747 -0.65563 -3.38815 0
M  V30 1059 C 98.3877 -1.81714 -3.91923 0
M  V30 1060 C 97.5227 -1.37662 -5.13052 0
M  V30 1061 C 96.5617 -2.50788 -5.58365 0
M  V30 1062 N 95.6987 -2.07582 -6.70712 0
M  V30 1063 H 100.539 -1.9787 -2.22827 0
M  V30 1064 H 98.0757 -0.9855 -1.09208 0
M  V30 1065 H 100.034 -0.412954 -4.15151 0
M  V30 1066 H 98.6637 0.244627 -3.21872 0
M  V30 1067 H 97.7157 -2.1734 -3.12198 0
M  V30 1068 H 99.0277 -2.66705 -4.21509 0
M  V30 1069 H 98.1817 -1.093 -5.96773 0
M  V30 1070 H 96.9207 -0.497293 -4.85158 0
M  V30 1071 H 95.9257 -2.79906 -4.73215 0
M  V30 1072 H 97.1507 -3.39283 -5.88272 0
M  V30 1073 H 95.0967 -1.22051 -6.44546 0
M  V30 1074 H 95.0137 -2.86125 -6.99763 0
M  V30 1075 H 96.2817 -1.82369 -7.57867 0
M  V30 1076 N 100.511 1.16574 -1.06058 0
M  V30 1077 C 101.458 2.20883 -0.669263 0
M  V30 1078 C 102.428 1.62729 0.332918 0
M  V30 1079 O 103.613 1.895 0.222346 0
M  V30 1080 C 100.753 3.45049 -0.0593572 0
M  V30 1081 C 99.8658 4.17458 -1.11143 0
M  V30 1082 C 99.0008 5.29135 -0.467916 0
M  V30 1083 C 98.0398 5.93343 -1.50369 0
M  V30 1084 N 97.1768 6.96516 -0.883706 0
M  V30 1085 H 102.017 2.53709 -1.5632 0
M  V30 1086 H 99.5538 1.24616 -0.781625 0
M  V30 1087 H 101.512 4.16033 0.311771 0
M  V30 1088 H 100.142 3.12781 0.797992 0
M  V30 1089 H 99.1938 3.45101 -1.60029 0
M  V30 1090 H 100.506 4.61307 -1.89731 0
M  V30 1091 H 99.6598 6.06684 -0.0436871 0
M  V30 1092 H 98.3988 4.86443 0.349864 0
M  V30 1093 H 97.4038 5.14517 -1.93784 0
M  V30 1094 H 98.6288 6.38114 -2.32352 0
M  V30 1095 H 96.5748 6.55943 -0.086595 0
M  V30 1096 H 96.4918 7.38723 -1.607 0
M  V30 1097 H 97.7598 7.77993 -0.484543 0
M  V30 1098 N 101.989 0.842826 1.3317 0
M  V30 1099 C 102.937 0.267495 2.31057 0
M  V30 1100 C 103.931 -0.602682 1.58316 0
M  V30 1101 O 105.137 -0.491803 1.73151 0
M  V30 1102 H 101.512 0.0677813 0.748939 0
M  V30 1103 H 103.483 1.10754 2.77085 0
M  V30 1104 C 102.232 -0.539331 3.43492 0
M  V30 1105 H 101.555 0.12095 3.99617 0
M  V30 1106 H 102.995 -0.90767 4.14171 0
M  V30 1107 C 101.454 -1.71981 2.89697 0
M  V30 1108 O 101.984 -2.81862 2.86211 0
M  V30 1109 N 100.19 -1.54299 2.46252 0
M  V30 1110 H 99.7369 -0.649143 2.49287 0
M  V30 1111 H 99.6949 -2.33431 2.10612 0
M  V30 1112 N 103.467 -1.45747 0.599634 0
M  V30 1113 C 104.692 -2.07178 0.0960198 0
M  V30 1114 C 105.117 -1.44268 -1.207 0
M  V30 1115 O 104.475 -0.532503 -1.73303 0
M  V30 1116 C 104.523 -3.60579 -0.0385348 0
M  V30 1117 O 103.627 -3.97713 -1.0908 0
M  V30 1118 H 102.968 -0.660251 0.0704593 0
M  V30 1119 H 105.498 -1.87124 0.827385 0
M  V30 1120 H 105.508 -4.07298 -0.239304 0
M  V30 1121 H 104.183 -4.05756 0.912947 0
M  V30 1122 H 102.76 -3.62678 -0.867135 0
M  V30 1123 N 104.945 -0.338344 -1.53925 0
M  V30 1124 C 106.193 0.259245 -2.0043 0
M  V30 1125 C 106.514 1.51484 -1.22791 0
M  V30 1126 O 105.784 1.93037 -0.33368 0
M  V30 1127 H 104.364 0.0987845 -0.740439 0
M  V30 1128 H 107.026 -0.458302 -1.89435 0
M  V30 1129 H 106.122 0.505334 -3.07982 0
M  V30 1130 N 106.423 1.57458 -0.0668435 0
M  V30 1131 C 107.371 2.13639 0.919851 0
M  V30 1132 C 108.365 1.07204 1.31163 0
M  V30 1133 O 109.571 1.25591 1.28945 0
M  V30 1134 H 105.946 0.683048 0.314562 0
M  V30 1135 H 107.917 2.95415 0.421047 0
M  V30 1136 C 106.666 2.70892 2.17975 0
M  V30 1137 H 105.989 3.5246 1.88711 0
M  V30 1138 H 107.429 3.13803 2.85138 0
M  V30 1139 C 105.888 1.65414 2.93496 0
M  V30 1140 O 106.418 1.07619 3.87015 0
M  V30 1141 N 104.624 1.36564 2.56512 0
M  V30 1142 H 104.171 1.83751 1.80536 0
M  V30 1143 H 104.129 0.66223 3.07347 0
M  V30 1144 N 107.901 -0.206675 1.56239 0
M  V30 1145 C 109.129 -0.945345 1.8404 0
M  V30 1146 C 109.544 -1.77336 0.647885 0
M  V30 1147 O 108.901 -1.78425 -0.383511 0
M  V30 1148 C 108.952 -1.8509 3.10522 0
M  V30 1149 O 108.673 -1.05634 4.25174 0
M  V30 1150 C 110.174 -2.70222 3.51418 0
M  V30 1151 H 107.394 -0.276372 0.61144 0
M  V30 1152 H 109.938 -0.217417 2.03341 0
M  V30 1153 H 108.093 -2.53259 2.93153 0
M  V30 1154 H 108.507 -1.67238 4.97124 0
M  V30 1155 H 109.981 -3.29438 4.42916 0
M  V30 1156 H 110.458 -3.43358 2.73864 0
M  V30 1157 H 111.064 -2.07443 3.71278 0
M  V30 1158 N 109.379 -1.50304 -0.473955 0
M  V30 1159 C 110.627 -1.60832 -1.22382 0
M  V30 1160 C 110.948 -0.30939 -1.9253 0
M  V30 1161 O 110.218 0.67296 -1.83978 0
M  V30 1162 H 108.798 -0.592652 -0.454723 0
M  V30 1163 H 111.46 -1.87068 -0.546968 0
M  V30 1164 H 110.556 -2.41803 -1.97327 0
M  V30 1165 N 110.857 0.726932 -1.39834 0
M  V30 1166 C 111.789 1.85147 -1.35104 0
M  V30 1167 C 112.802 1.60736 -0.258392 0
M  V30 1168 O 113.991 1.70821 -0.517931 0
M  V30 1169 C 111.091 3.21332 -1.07697 0
M  V30 1170 C 110.264 3.73033 -2.28396 0
M  V30 1171 C 109.323 4.87802 -1.97322 0
M  V30 1172 O 108.349 5.01043 -2.70083 0
M  V30 1173 N 109.551 5.72768 -0.944273 0
M  V30 1174 H 112.316 1.89706 -2.32017 0
M  V30 1175 H 109.877 0.908006 -1.3404 0
M  V30 1176 H 111.869 3.95691 -0.849144 0
M  V30 1177 H 110.439 3.11992 -0.194909 0
M  V30 1178 H 109.659 2.89934 -2.6708 0
M  V30 1179 H 110.947 4.0431 -3.08887 0
M  V30 1180 H 110.345 5.64669 -0.341427 0
M  V30 1181 H 108.902 6.4716 -0.776346 0
M  V30 1182 N 112.336 1.25143 0.95797 0
M  V30 1183 C 113.752 1.01892 1.22842 0
M  V30 1184 C 113.952 -0.266311 1.99732 0
M  V30 1185 O 113.008 -0.979913 2.3271 0
M  V30 1186 C 114.321 2.24004 2.00606 0
M  V30 1187 C 115.869 2.28731 2.13662 0
M  V30 1188 C 116.344 3.5049 2.94823 0
M  V30 1189 N 117.835 3.50866 3.02403 0
M  V30 1190 C 118.57 4.4174 3.65586 0
M  V30 1191 N 118.066 5.42882 4.30408 0
M  V30 1192 N 119.859 4.29429 3.62694 0
M  V30 1193 H 112.01 2.07718 0.443493 0
M  V30 1194 H 114.273 0.912031 0.258657 0
M  V30 1195 H 113.979 3.17395 1.51503 0
M  V30 1196 H 113.853 2.26907 3.01319 0
M  V30 1197 H 116.24 1.35865 2.61963 0
M  V30 1198 H 116.321 2.29848 1.12265 0
M  V30 1199 H 115.965 4.43676 2.47213 0
M  V30 1200 H 115.895 3.46617 3.96439 0
M  V30 1201 H 118.386 2.777 2.56302 0
M  V30 1202 H 118.699 6.0844 4.76467 0
M  V30 1203 H 117.044 5.46758 4.29047 0
M  V30 1204 H 120.235 3.49643 3.11236 0
M  V30 1205 H 120.408 5.00448 4.1165 0
M  V30 1206 N 113.814 -1.1601 1.06675 0
M  V30 1207 C 115.225 -1.68235 0.809565 0
M  V30 1208 C 115.576 -1.8454 -0.666303 0
M  V30 1209 O 114.701 -1.54374 -1.5165 0
M  V30 1210 C 115.296 -3.05585 1.46299 0
M  V30 1211 C 113.855 -3.54915 1.25349 0
M  V30 1212 C 113.002 -2.30804 1.53703 0
M  V30 1213 H 115.953 -1.00318 1.22971 0
M  V30 1214 H 115.974 -3.70174 0.880431 0
M  V30 1215 H 115.486 -2.93686 2.53713 0
M  V30 1216 H 113.587 -3.72067 0.199261 0
M  V30 1217 H 113.7 -4.36774 1.9689 0
M  V30 1218 H 112.064 -2.36007 0.957739 0
M  V30 1219 H 112.847 -2.21499 2.62284 0
M  V30 1220 N 115.292 -0.849877 -1.32721 0
M  V30 1221 C 116.538 -0.451591 -1.97708 0
M  V30 1222 C 116.871 0.989175 -1.6712 0
M  V30 1223 O 116.146 1.69334 -0.956891 0
M  V30 1224 C 116.429 -0.685598 -3.53513 0
M  V30 1225 C 116.282 -2.17444 -3.93749 0
M  V30 1226 C 117.601 -0.138874 -4.39881 0
M  V30 1227 H 114.72 -0.16555 -0.718166 0
M  V30 1228 H 117.362 -1.06742 -1.57182 0
M  V30 1229 H 115.512 -0.161416 -3.88165 0
M  V30 1230 H 117.184 -2.76433 -3.693 0
M  V30 1231 H 115.427 -2.65476 -3.43081 0
M  V30 1232 H 116.098 -2.28888 -5.02309 0
M  V30 1233 H 118.574 -0.587068 -4.11938 0
M  V30 1234 H 117.45 -0.332213 -5.47894 0
M  V30 1235 H 117.711 0.95806 -4.31594 0
M  V30 1236 N 116.77 1.45427 -0.607355 0
M  V30 1237 C 118.016 2.0254 -0.102607 0
M  V30 1238 C 118.349 1.47478 1.26348 0
M  V30 1239 O 117.624 0.64939 1.83339 0
M  V30 1240 C 117.907 3.60044 -0.0634347 0
M  V30 1241 C 117.76 4.2544 -1.46017 0
M  V30 1242 C 119.079 4.35646 0.624514 0
M  V30 1243 H 116.198 0.73598 -0.0387607 0
M  V30 1244 H 118.84 1.73284 -0.779282 0
M  V30 1245 H 116.99 3.85101 0.512808 0
M  V30 1246 H 118.662 4.11569 -2.08347 0
M  V30 1247 H 116.905 3.83849 -2.02094 0
M  V30 1248 H 117.576 5.34342 -1.385 0
M  V30 1249 H 120.052 4.15882 0.134723 0
M  V30 1250 H 118.928 5.45376 0.621028 0
M  V30 1251 H 119.189 4.08501 1.69055 0
M  V30 1252 N 118.248 0.346503 1.53744 0
M  V30 1253 C 119.495 -0.249104 2.00962 0
M  V30 1254 C 119.823 -1.5032 1.23426 0
M  V30 1255 O 119.078 -1.93217 0.310761 0
M  V30 1256 C 119.377 -0.605809 3.52228 0
M  V30 1257 C 119.043 0.551747 4.47512 0
M  V30 1258 C 117.705 0.86941 4.73281 0
M  V30 1259 C 120.057 1.32818 5.03993 0
M  V30 1260 C 117.385 1.96582 5.52786 0
M  V30 1261 C 119.737 2.41486 5.84694 0
M  V30 1262 C 118.401 2.73808 6.08757 0
M  V30 1263 H 117.671 -0.0911538 0.735372 0
M  V30 1264 H 120.318 0.475027 1.85515 0
M  V30 1265 H 118.623 -1.4107 3.65522 0
M  V30 1266 H 120.32 -1.07858 3.86222 0
M  V30 1267 H 116.91 0.294102 4.2759 0
M  V30 1268 H 121.094 1.09602 4.84047 0
M  V30 1269 H 116.35 2.22045 5.69654 0
M  V30 1270 H 120.524 3.02078 6.27473 0
M  V30 1271 H 118.151 3.58892 6.7015 0
M  V30 1272 N 119.726 -1.57421 0.075193 0
M  V30 1273 C 120.656 -2.15942 -0.888324 0
M  V30 1274 C 121.637 -1.08737 -1.30806 0
M  V30 1275 O 122.822 -1.36787 -1.37851 0
M  V30 1276 C 119.952 -2.72379 -2.1547 0
M  V30 1277 C 118.906 -3.8478 -1.87425 0
M  V30 1278 C 118.232 -4.27834 -3.20721 0
M  V30 1279 C 119.532 -5.08869 -1.17684 0
M  V30 1280 H 121.226 -2.96705 -0.400799 0
M  V30 1281 H 118.772 -1.42723 -0.191342 0
M  V30 1282 H 120.725 -3.11965 -2.83295 0
M  V30 1283 H 119.449 -1.88841 -2.6647 0
M  V30 1284 H 118.108 -3.45703 -1.22004 0
M  V30 1285 H 117.756 -3.41214 -3.6957 0
M  V30 1286 H 117.456 -5.03605 -3.02746 0
M  V30 1287 H 118.98 -4.70039 -3.89738 0
M  V30 1288 H 120.394 -5.4575 -1.75584 0
M  V30 1289 H 118.791 -5.8994 -1.09956 0
M  V30 1290 H 119.861 -4.84648 -0.156453 0
M  V30 1291 N 121.204 0.198386 -1.56346 0
M  V30 1292 C 122.136 1.26987 -1.90806 0
M  V30 1293 C 123.149 1.41877 -0.798419 0
M  V30 1294 O 124.338 1.42362 -1.07682 0
M  V30 1295 C 121.438 2.64246 -2.12196 0
M  V30 1296 C 120.611 2.71007 -3.43328 0
M  V30 1297 C 119.67 3.89439 -3.5387 0
M  V30 1298 O 118.696 3.76695 -4.26719 0
M  V30 1299 N 119.898 5.04752 -2.86715 0
M  V30 1300 H 122.663 0.977433 -2.83313 0
M  V30 1301 H 120.224 0.388322 -1.57174 0
M  V30 1302 H 122.216 3.41896 -2.1654 0
M  V30 1303 H 120.786 2.85992 -1.26204 0
M  V30 1304 H 120.006 1.79657 -3.50881 0
M  V30 1305 H 121.294 2.72512 -4.29668 0
M  V30 1306 H 120.692 5.18004 -2.2735 0
M  V30 1307 H 119.249 5.8036 -2.96691 0
M  V30 1308 N 122.682 1.50554 0.465978 0
M  V30 1309 C 123.632 1.66177 1.56106 0
M  V30 1310 C 124.616 0.516265 1.52393 0
M  V30 1311 O 125.808 0.770906 1.5933 0
M  V30 1312 C 122.937 1.76396 2.94515 0
M  V30 1313 C 122.023 2.9664 3.03093 0
M  V30 1314 N 122.414 4.20245 2.81474 0
M  V30 1315 C 120.712 2.95304 3.34233 0
M  V30 1316 C 121.413 5.01259 2.95151 0
M  V30 1317 N 120.389 4.35318 3.25576 0
M  V30 1318 H 124.191 2.59434 1.38099 0
M  V30 1319 H 121.705 1.47808 0.6728 0
M  V30 1320 H 123.702 1.85694 3.73261 0
M  V30 1321 H 122.362 0.843017 3.13565 0
M  V30 1322 H 123.373 4.4966 2.56956 0
M  V30 1323 H 120.05 2.12729 3.59239 0
M  V30 1324 H 121.44 6.09564 2.82632 0
M  V30 1325 N 124.16 -0.719506 1.40217 0
M  V30 1326 C 125.408 -1.47641 1.3801 0
M  V30 1327 C 125.729 -1.94992 -0.018145 0
M  V30 1328 O 124.999 -1.70073 -0.972207 0
M  V30 1329 H 123.579 -0.547744 0.507923 0
M  V30 1330 H 126.241 -0.853187 1.75233 0
M  V30 1331 H 125.337 -2.35112 2.05253 0
M  V30 1332 N 125.638 -1.25649 -0.95132 0
M  V30 1333 C 126.568 -1.08808 -2.06599 0
M  V30 1334 C 127.549 0.00382547 -1.701 0
M  V30 1335 O 128.734 -0.166325 -1.93486 0
M  V30 1336 C 125.864 -0.709542 -3.39975 0
M  V30 1337 C 124.818 -1.75206 -3.90496 0
M  V30 1338 C 124.144 -1.22811 -5.20405 0
M  V30 1339 C 125.444 -3.15153 -4.16504 0
M  V30 1340 H 127.138 -2.02048 -2.20946 0
M  V30 1341 H 124.684 -0.972835 -1.06169 0
M  V30 1342 H 126.637 -0.578649 -4.17408 0
M  V30 1343 H 125.361 0.258556 -3.25575 0
M  V30 1344 H 124.02 -1.87145 -3.15234 0
M  V30 1345 H 123.668 -0.250145 -5.02378 0
M  V30 1346 H 123.368 -1.92492 -5.55176 0
M  V30 1347 H 124.892 -1.10968 -6.00432 0
M  V30 1348 H 126.306 -3.06349 -4.84586 0
M  V30 1349 H 124.703 -3.82333 -4.62538 0
M  V30 1350 H 125.773 -3.61966 -3.22658 0
M  V30 1351 N 127.117 1.15442 -1.07289 0
M  V30 1352 C 128.047 2.22312 -0.714107 0
M  V30 1353 C 129.028 1.67467 0.298155 0
M  V30 1354 O 130.213 1.93445 0.171048 0
M  V30 1355 C 127.343 3.47124 -0.110448 0
M  V30 1356 C 126.297 4.14926 -1.04979 0
M  V30 1357 C 125.623 5.33807 -0.308924 0
M  V30 1358 C 126.923 4.64762 -2.38314 0
M  V30 1359 H 128.617 2.5258 -1.6076 0
M  V30 1360 H 126.163 1.21404 -0.77441 0
M  V30 1361 H 128.116 4.21124 0.152482 0
M  V30 1362 H 126.84 3.16187 0.81812 0
M  V30 1363 H 125.499 3.42866 -1.29764 0
M  V30 1364 H 125.147 4.99126 0.623084 0
M  V30 1365 H 124.847 5.80113 -0.935036 0
M  V30 1366 H 126.371 6.10576 -0.0537771 0
M  V30 1367 H 127.785 5.30292 -2.1786 0
M  V30 1368 H 126.182 5.21728 -2.96514 0
M  V30 1369 H 127.252 3.80434 -3.00663 0
M  V30 1370 N 128.595 0.856903 1.32268 0
M  V30 1371 C 129.558 0.308171 2.27119 0
M  V30 1372 C 130.558 -0.533421 1.51695 0
M  V30 1373 O 131.748 -0.344607 1.70757 0
M  V30 1374 C 128.88 -0.563757 3.36206 0
M  V30 1375 H 130.073 1.14535 2.77167 0
M  V30 1376 H 127.626 0.631421 1.42978 0
M  V30 1377 H 128.361 -1.42266 2.91429 0
M  V30 1378 H 128.146 0.0386749 3.92081 0
M  V30 1379 H 129.636 -0.940386 4.06874 0
M  V30 1380 N 130.073 -1.45103 0.615059 0
M  V30 1381 C 131.298 -2.07064 0.117988 0
M  V30 1382 C 131.723 -1.4554 -1.19163 0
M  V30 1383 O 131.081 -0.550855 -1.72729 0
M  V30 1384 C 131.129 -3.606 -0.000288387 0
M  V30 1385 O 130.233 -3.98847 -1.04856 0
M  V30 1386 H 129.574 -0.659467 0.0774581 0
M  V30 1387 H 132.104 -1.86236 0.847186 0
M  V30 1388 H 132.114 -4.07529 -0.196091 0
M  V30 1389 H 130.789 -4.04765 0.955932 0
M  V30 1390 H 129.366 -3.63577 -0.828619 0
M  V30 1391 N 131.551 -0.354651 -1.53558 0
M  V30 1392 C 132.514 0.484566 -2.24019 0
M  V30 1393 C 133.514 1.01861 -1.24422 0
M  V30 1394 O 134.704 0.906097 -1.4878 0
M  V30 1395 C 131.836 1.67615 -2.96847 0
M  V30 1396 H 133.029 -0.131843 -2.9961 0
M  V30 1397 H 130.582 -0.106165 -1.55939 0
M  V30 1398 H 131.317 2.33095 -2.25471 0
M  V30 1399 H 131.102 1.30029 -3.69912 0
M  V30 1400 H 132.592 2.27114 -3.50441 0
M  V30 1401 N 133.029 1.57378 -0.0835403 0
M  V30 1402 C 134.257 1.98263 0.59157 0
M  V30 1403 C 134.672 0.962302 1.62435 0
M  V30 1404 O 134.029 -0.049581 1.82433 0
M  V30 1405 C 134.08 3.39214 1.24965 0
M  V30 1406 O 133.801 4.37339 0.258186 0
M  V30 1407 C 135.302 3.95038 2.01147 0
M  V30 1408 H 132.522 0.651773 0.159477 0
M  V30 1409 H 135.066 2.03878 -0.159415 0
M  V30 1410 H 133.221 3.34649 1.95164 0
M  V30 1411 H 133.635 5.19371 0.731734 0
M  V30 1412 H 135.109 4.95848 2.42567 0
M  V30 1413 H 135.586 3.32222 2.87272 0
M  V30 1414 H 136.192 4.0304 1.35789 0
M  V30 1415 N 134.507 -0.190092 1.56449 0
M  V30 1416 C 135.455 -1.25501 1.95837 0
M  V30 1417 C 136.449 -1.4685 0.844485 0
M  V30 1418 O 137.655 -1.47651 1.02952 0
M  V30 1419 H 134.03 -0.421447 0.622805 0
M  V30 1420 H 136.001 -0.895821 2.84636 0
M  V30 1421 C 134.75 -2.59124 2.31841 0
M  V30 1422 H 134.073 -2.43514 3.17082 0
M  V30 1423 H 135.513 -3.32371 2.6326 0
M  V30 1424 C 133.972 -3.16488 1.15486 0
M  V30 1425 O 134.502 -3.99365 0.432535 0
M  V30 1426 N 132.708 -2.75305 0.930349 0
M  V30 1427 H 132.255 -2.08013 1.51948 0
M  V30 1428 H 132.213 -3.14024 0.153634 0
M  V30 1429 N 135.985 -1.50799 -0.457987 0
M  V30 1430 C 137.231 -1.63648 -1.20792 0
M  V30 1431 C 137.586 -0.338662 -1.89396 0
M  V30 1432 O 136.879 0.664291 -1.79716 0
M  V30 1433 C 137.073 -2.76358 -2.2663 0
M  V30 1434 C 136.902 -4.16974 -1.68411 0
M  V30 1435 C 135.672 -4.83199 -1.47807 0
M  V30 1436 C 137.87 -5.00774 -1.17176 0
M  V30 1437 N 135.852 -6.07991 -0.849692 0
M  V30 1438 C 137.223 -6.16397 -0.667403 0
M  V30 1439 C 139.278 -4.86452 -1.06155 0
M  V30 1440 C 137.981 -7.19272 -0.0636908 0
M  V30 1441 C 140.007 -5.89515 -0.471759 0
M  V30 1442 C 139.369 -7.04397 0.0221557 0
M  V30 1443 H 135.468 -0.652888 -0.43042 0
M  V30 1444 H 138.052 -1.87962 -0.507785 0
M  V30 1445 H 136.223 -2.53744 -2.94056 0
M  V30 1446 H 137.955 -2.78496 -2.93636 0
M  V30 1447 H 134.71 -4.40714 -1.73403 0
M  V30 1448 H 135.134 -6.74733 -0.553537 0
M  V30 1449 H 139.776 -3.97907 -1.42932 0
M  V30 1450 H 137.494 -8.07481 0.316253 0
M  V30 1451 H 141.08 -5.805 -0.388671 0
M  V30 1452 H 139.96 -7.82782 0.471375 0
M  V30 1453 N 137.463 0.71206 -1.40597 0
M  V30 1454 C 138.712 1.46754 -1.38369 0
M  V30 1455 C 139.025 1.95598 0.0097839 0
M  V30 1456 O 140.231 2.71059 0.154677 0
M  V30 1457 C 138.687 2.65289 -2.43207 0
M  V30 1458 C 138.295 2.23301 -3.88382 0
M  V30 1459 C 140.039 3.43008 -2.50091 0
M  V30 1460 C 137.946 3.38696 -4.84808 0
M  V30 1461 H 136.876 0.55118 -0.514506 0
M  V30 1462 H 139.527 0.774616 -1.66349 0
M  V30 1463 H 137.909 3.36769 -2.08332 0
M  V30 1464 H 139.083 1.59218 -4.32419 0
M  V30 1465 H 137.398 1.58618 -3.85006 0
M  V30 1466 H 139.995 4.28881 -3.1932 0
M  V30 1467 H 140.338 3.87065 -1.53253 0
M  V30 1468 H 140.871 2.78574 -2.83974 0
M  V30 1469 H 137.61 2.99668 -5.82992 0
M  V30 1470 H 137.13 4.01683 -4.45433 0
M  V30 1471 H 138.809 4.04712 -5.04794 0
M  V30 1472 N 138.941 1.26152 0.944643 0
M  V30 1473 C 140.166 1.14363 1.7302 0
M  V30 1474 C 140.591 -0.29772 1.85729 0
M  V30 1475 O 139.949 -1.2157 1.34501 0
M  V30 1476 C 139.997 1.81378 3.11664 0
M  V30 1477 O 139.101 1.10022 3.97453 0
M  V30 1478 H 138.442 0.398694 0.53098 0
M  V30 1479 H 140.972 1.66906 1.18337 0
M  V30 1480 H 140.982 1.88064 3.62072 0
M  V30 1481 H 139.657 2.86237 3.0173 0
M  V30 1482 H 138.234 1.11287 3.55907 0
M  V30 1483 N 140.419 -1.14872 1.07899 0
M  V30 1484 C 141.367 -2.21857 0.698727 0
M  V30 1485 C 142.361 -1.66845 -0.293086 0
M  V30 1486 O 143.567 -1.79321 -0.156204 0
M  V30 1487 H 139.942 -0.722691 0.207899 0
M  V30 1488 H 141.913 -2.51205 1.61054 0
M  V30 1489 C 140.662 -3.47498 0.11858 0
M  V30 1490 H 139.985 -3.90154 0.872914 0
M  V30 1491 H 141.425 -4.23858 -0.109759 0
M  V30 1492 C 139.884 -3.16947 -1.1422 0
M  V30 1493 O 140.414 -3.3426 -2.22785 0
M  V30 1494 N 138.62 -2.70946 -1.05055 0
M  V30 1495 H 138.167 -2.57058 -0.167038 0
M  V30 1496 H 138.125 -2.50879 -1.89491 0
M  V30 1497 N 141.898 -0.863906 -1.31812 0
M  V30 1498 C 142.828 -0.330843 -2.31144 0
M  V30 1499 C 143.809 0.575005 -1.60087 0
M  V30 1500 O 144.994 0.493304 -1.8783 0
M  V30 1501 C 142.124 0.47374 -3.44054 0
M  V30 1502 C 141.078 -0.338481 -4.26659 0
M  V30 1503 C 140.404 0.591412 -5.31419 0
M  V30 1504 C 141.704 -1.56926 -4.98168 0
M  V30 1505 H 143.398 -1.16086 -2.75979 0
M  V30 1506 H 140.944 -0.559657 -1.32679 0
M  V30 1507 H 142.897 0.857143 -4.12591 0
M  V30 1508 H 141.621 1.33721 -2.9797 0
M  V30 1509 H 140.28 -0.703754 -3.59782 0
M  V30 1510 H 139.928 1.45199 -4.81587 0
M  V30 1511 H 139.628 0.0519022 -5.87577 0
M  V30 1512 H 141.152 0.97179 -6.02817 0
M  V30 1513 H 142.566 -1.25764 -5.59336 0
M  V30 1514 H 140.963 -2.04739 -5.64094 0
M  V30 1515 H 142.033 -2.32544 -4.25501 0
M  V30 1516 N 143.376 1.44774 -0.622745 0
M  V30 1517 C 144.787 1.85546 -0.207226 0
M  V30 1518 C 145.138 1.52093 1.23944 0
M  V30 1519 O 144.263 0.95492 1.94191 0
M  V30 1520 C 144.858 3.36781 -0.369313 0
M  V30 1521 C 143.417 3.76399 -0.00836847 0
M  V30 1522 C 142.564 2.68664 -0.686651 0
M  V30 1523 H 145.515 1.3536 -0.828454 0
M  V30 1524 H 145.536 3.78453 0.394162 0
M  V30 1525 H 145.048 3.61098 -1.42231 0
M  V30 1526 H 143.149 3.57698 1.04322 0
M  V30 1527 H 143.262 4.7732 -0.412584 0
M  V30 1528 H 141.626 2.54404 -0.122777 0
M  V30 1529 H 142.409 2.95815 -1.74208 0
M  V30 1530 N 144.854 0.36279 1.53368 0
M  V30 1531 C 145.802 -0.500155 2.27159 0
M  V30 1532 C 146.796 -1.08575 1.3003 0
M  V30 1533 O 148.002 -1.02927 1.47668 0
M  V30 1534 H 144.377 -0.180009 0.730138 0
M  V30 1535 H 146.348 0.14401 2.98052 0
M  V30 1536 C 145.097 -1.62937 3.07159 0
M  V30 1537 H 144.42 -1.18806 3.8174 0
M  V30 1538 H 145.86 -2.20795 3.61975 0
M  V30 1539 C 144.319 -2.57007 2.17829 0
M  V30 1540 O 144.849 -3.59752 1.78721 0
M  V30 1541 N 143.055 -2.26131 1.82518 0
M  V30 1542 H 142.602 -1.42616 2.14519 0
M  V30 1543 H 142.56 -2.89327 1.23034 0
M  V30 1544 N 146.332 -1.57332 0.0918853 0
M  V30 1545 C 147.28 -2.15075 -0.885747 0
M  V30 1546 C 148.274 -1.09277 -1.29441 0
M  V30 1547 O 149.48 -1.27627 -1.26931 0
M  V30 1548 H 145.855 -0.687966 -0.303656 0
M  V30 1549 H 147.826 -2.96047 -0.373995 0
M  V30 1550 C 146.575 -2.74325 -2.13638 0
M  V30 1551 H 145.898 -3.55418 -1.8308 0
M  V30 1552 H 147.338 -3.183 -2.80109 0
M  V30 1553 C 145.797 -1.70062 -2.90827 0
M  V30 1554 O 146.327 -1.13763 -3.85254 0
M  V30 1555 N 144.533 -1.40628 -2.54307 0
M  V30 1556 H 144.08 -1.866 -1.7759 0
M  V30 1557 H 144.038 -0.711043 -3.06254 0
M  V30 1558 N 147.81 0.181792 -1.56548 0
M  V30 1559 C 149.035 0.920019 -1.85877 0
M  V30 1560 C 149.46 1.75494 -0.677021 0
M  V30 1561 O 148.818 1.77399 0.374056 0
M  V30 1562 C 148.866 1.78112 -3.13542 0
M  V30 1563 O 147.97 2.88152 -2.95029 0
M  V30 1564 H 147.311 0.258334 -0.611686 0
M  V30 1565 H 149.841 0.183092 -2.03779 0
M  V30 1566 H 149.851 2.18314 -3.44678 0
M  V30 1567 H 148.526 1.16777 -3.99169 0
M  V30 1568 H 147.103 2.51609 -2.75222 0
M  V30 1569 N 149.288 1.51039 0.449983 0
M  V30 1570 C 150.218 1.74379 1.55288 0
M  V30 1571 C 151.199 0.593236 1.5942 0
M  V30 1572 O 152.384 0.834625 1.7535 0
M  V30 1573 C 149.514 1.85728 2.93466 0
M  V30 1574 C 148.468 3.01078 3.04197 0
M  V30 1575 C 147.794 2.97595 4.44231 0
M  V30 1576 C 149.094 4.41254 2.7945 0
M  V30 1577 H 150.788 2.66725 1.36008 0
M  V30 1578 H 148.334 1.2835 0.652864 0
M  V30 1579 H 150.287 2.0064 3.70569 0
M  V30 1580 H 149.011 0.900207 3.13949 0
M  V30 1581 H 147.67 2.85851 2.29531 0
M  V30 1582 H 147.318 1.99691 4.61663 0
M  V30 1583 H 147.018 3.75046 4.52343 0
M  V30 1584 H 148.542 3.14583 5.23326 0
M  V30 1585 H 149.956 4.56897 3.46292 0
M  V30 1586 H 148.353 5.20315 2.98985 0
M  V30 1587 H 149.423 4.52164 1.75144 0
M  V30 1588 N 150.766 -0.704594 1.40972 0
M  V30 1589 C 151.729 -1.80035 1.41845 0
M  V30 1590 C 152.729 -1.57774 0.310474 0
M  V30 1591 O 153.919 -1.64613 0.56992 0
M  V30 1592 C 151.051 -3.18284 1.22098 0
M  V30 1593 H 152.244 -1.80658 2.3938 0
M  V30 1594 H 149.797 -0.911329 1.26982 0
M  V30 1595 H 150.532 -3.23306 0.253672 0
M  V30 1596 H 150.317 -3.35843 2.02366 0
M  V30 1597 H 151.807 -3.98289 1.25522 0
M  V30 1598 N 152.244 -1.26651 -0.937939 0
M  V30 1599 C 153.491 -1.12387 -1.6845 0
M  V30 1600 C 153.819 0.332208 -1.91642 0
M  V30 1601 O 153.074 1.2602 -1.49725 0
M  V30 1602 C 153.373 -1.84168 -3.06295 0
M  V30 1603 C 153.039 -3.34056 -3.02849 0
M  V30 1604 C 151.701 -3.74942 -3.01616 0
M  V30 1605 C 154.053 -4.29741 -2.9491 0
M  V30 1606 C 151.381 -5.09894 -2.90215 0
M  V30 1607 C 153.733 -5.64738 -2.8505 0
M  V30 1608 C 152.397 -6.0493 -2.82162 0
M  V30 1609 H 151.667 -0.411252 -0.616403 0
M  V30 1610 H 154.314 -1.57134 -1.09459 0
M  V30 1611 H 152.619 -1.319 -3.6893 0
M  V30 1612 H 154.316 -1.70569 -3.62915 0
M  V30 1613 H 150.906 -3.01534 -3.0459 0
M  V30 1614 H 155.09 -3.99133 -2.94969 0
M  V30 1615 H 150.346 -5.40194 -2.86358 0
M  V30 1616 H 154.52 -6.38561 -2.77872 0
M  V30 1617 H 152.147 -7.09457 -2.73084 0
M  V30 1618 N 153.722 1.14298 -1.08507 0
M  V30 1619 C 154.971 1.84708 -0.810305 0
M  V30 1620 C 155.284 1.83903 0.666271 0
M  V30 1621 O 156.49 2.50112 1.05624 0
M  V30 1622 C 154.946 3.31572 -1.39957 0
M  V30 1623 C 154.554 3.40791 -2.90801 0
M  V30 1624 C 156.298 4.07087 -1.20334 0
M  V30 1625 C 154.205 4.81872 -3.4286 0
M  V30 1626 H 153.135 0.691985 -0.299454 0
M  V30 1627 H 155.786 1.28841 -1.30661 0
M  V30 1628 H 154.168 3.87183 -0.830976 0
M  V30 1629 H 155.342 2.95225 -3.53806 0
M  V30 1630 H 153.657 2.78732 -3.0935 0
M  V30 1631 H 156.254 5.11225 -1.56693 0
M  V30 1632 H 156.597 4.16054 -0.143237 0
M  V30 1633 H 157.13 3.57779 -1.73893 0
M  V30 1634 H 153.869 4.78094 -4.48449 0
M  V30 1635 H 153.389 5.27972 -2.84615 0
M  V30 1636 H 155.068 5.50765 -3.39509 0
M  V30 1637 N 155.201 0.870884 1.31352 0
M  V30 1638 C 156.131 0.343096 2.30966 0
M  V30 1639 C 157.112 -0.566507 1.60389 0
M  V30 1640 O 158.297 -0.483336 1.88089 0
M  V30 1641 C 155.427 -0.455487 3.443 0
M  V30 1642 C 154.381 0.361103 4.26474 0
M  V30 1643 C 153.707 -0.563221 5.31725 0
M  V30 1644 C 155.007 1.59566 4.97329 0
M  V30 1645 H 156.701 1.17548 2.75359 0
M  V30 1646 H 154.247 0.566686 1.32381 0
M  V30 1647 H 156.2 -0.83525 4.13039 0
M  V30 1648 H 154.924 -1.32139 2.98675 0
M  V30 1649 H 153.583 0.722825 3.59403 0
M  V30 1650 H 153.231 -1.42643 4.82351 0
M  V30 1651 H 152.931 -0.0207409 5.87596 0
M  V30 1652 H 154.455 -0.939808 6.03324 0
M  V30 1653 H 155.869 1.28728 5.58661 0
M  V30 1654 H 154.266 2.07728 5.63 0
M  V30 1655 H 155.336 2.34798 4.24262 0
M  V30 1656 N 156.679 -1.44442 0.630414 0
M  V30 1657 C 157.642 -2.29107 -0.0652523 0
M  V30 1658 C 158.642 -1.41002 -0.772995 0
M  V30 1659 O 159.832 -1.62881 -0.617692 0
M  V30 1660 C 156.964 -3.22564 -1.10296 0
M  V30 1661 H 158.157 -2.92103 0.679401 0
M  V30 1662 H 155.71 -1.51343 0.390517 0
M  V30 1663 H 156.445 -2.64416 -1.87762 0
M  V30 1664 H 156.23 -3.87491 -0.59941 0
M  V30 1665 H 157.72 -3.86167 -1.5895 0
M  V30 1666 N 158.157 -0.370918 -1.53173 0
M  V30 1667 C 159.434 0.273754 -1.93675 0
M  V30 1668 C 159.814 1.65938 -1.3049 0
M  V30 1669 O 159.162 2.23698 -0.465999 0
M  V30 1670 C 159.372 0.318602 -3.47543 0
M  V30 1671 C 160.72 0.556392 -4.20939 0
M  V30 1672 O 161.744 0.399587 -3.53952 0
M  V30 1673 O 160.603 0.862133 -5.39657 0
M  V30 1674 H 157.697 0.165448 -0.810281 0
M  V30 1675 H 160.243 -0.42409 -1.64315 0
M  V30 1676 H 159.015 -0.652687 -3.85818 0
M  V30 1677 H 158.638 1.06212 -3.83151 0
M  V30 1678 N 159.635 1.57281 -0.100228 0
M  V30 1679 C 160.598 2.13158 0.842398 0
M  V30 1680 C 161.598 1.06202 1.20738 0
M  V30 1681 O 162.788 1.32066 1.13597 0
M  V30 1682 C 159.92 2.65639 2.13655 0
M  V30 1683 H 161.113 2.97766 0.357114 0
M  V30 1684 H 158.666 1.5559 0.148823 0
M  V30 1685 H 159.401 1.84566 2.66657 0
M  V30 1686 H 159.186 3.43844 1.88451 0
M  V30 1687 H 160.676 3.08846 2.81077 0
M  V30 1688 N 161.113 -0.173488 1.56642 0
M  V30 1689 C 162.361 -0.888706 1.81512 0
M  V30 1690 C 162.682 -1.82875 0.676872 0
M  V30 1691 O 161.952 -1.93536 -0.303414 0
M  V30 1692 H 160.532 -0.331164 0.669582 0
M  V30 1693 H 163.194 -0.173823 1.94123 0
M  V30 1694 H 162.29 -1.46691 2.75478 0
M  V30 1695 N 162.591 -1.51276 -0.441967 0
M  V30 1696 C 163.821 -1.67273 -1.21257 0
M  V30 1697 C 164.229 -0.367624 -1.85594 0
M  V30 1698 O 163.572 0.663349 -1.71305 0
M  V30 1699 C 163.634 -2.72807 -2.34129 0
M  V30 1700 C 163.298 -4.1554 -1.90198 0
M  V30 1701 C 164.295 -5.00471 -1.40801 0
M  V30 1702 C 161.98 -4.61616 -1.9803 0
M  V30 1703 C 163.974 -6.29536 -0.998174 0
M  V30 1704 C 161.661 -5.90679 -1.56658 0
M  V30 1705 C 162.659 -6.74466 -1.07633 0
M  V30 1706 O 162.347 -8.01116 -0.668459 0
M  V30 1707 H 162.079 -0.564614 -0.371734 0
M  V30 1708 H 164.633 -1.9843 -0.530521 0
M  V30 1709 H 162.863 -2.36954 -3.05597 0
M  V30 1710 H 164.552 -2.77729 -2.96009 0
M  V30 1711 H 165.318 -4.66079 -1.34148 0
M  V30 1712 H 161.197 -3.96526 -2.35135 0
M  V30 1713 H 164.741 -6.94885 -0.61482 0
M  V30 1714 H 160.638 -6.24586 -1.62979 0
M  V30 1715 H 161.406 -8.14633 -0.794722 0
M  V30 1716 N 164.069 0.697108 -1.41344 0
M  V30 1717 C 165.346 1.45154 -1.31109 0
M  V30 1718 C 165.726 2.11009 0.0620449 0
M  V30 1719 O 165.074 2.01571 1.07618 0
M  V30 1720 C 165.284 2.47223 -2.46337 0
M  V30 1721 C 166.632 3.1252 -2.87431 0
M  V30 1722 O 167.656 2.57547 -2.46065 0
M  V30 1723 O 166.515 4.12083 -3.58957 0
M  V30 1724 H 163.609 0.646365 -0.515889 0
M  V30 1725 H 166.155 0.727716 -1.53305 0
M  V30 1726 H 164.927 1.97204 -3.37974 0
M  V30 1727 H 164.55 3.27116 -2.2601 0
M  V30 1728 N 165.547 1.27147 0.931209 0
M  V30 1729 C 166.793 1.13446 1.68101 0
M  V30 1730 C 167.126 -0.319628 1.91552 0
M  V30 1731 O 166.401 -1.23407 1.50336 0
M  V30 1732 C 166.684 1.91482 3.0497 0
M  V30 1733 C 166.537 3.44855 2.88782 0
M  V30 1734 C 167.856 1.71651 4.05246 0
M  V30 1735 H 164.975 0.413498 0.610072 0
M  V30 1736 H 167.617 1.56261 1.08086 0
M  V30 1737 H 165.767 1.55095 3.56199 0
M  V30 1738 H 167.439 3.9105 2.44698 0
M  V30 1739 H 165.682 3.71373 2.24198 0
M  V30 1740 H 166.353 3.94694 3.85902 0
M  V30 1741 H 168.829 2.0337 3.63015 0
M  V30 1742 H 167.705 2.28651 4.99009 0
M  V30 1743 H 167.966 0.663555 4.37092 0
M  V30 1744 N 167.025 -1.13721 1.09112 0
M  V30 1745 C 168.271 -1.85413 0.836283 0
M  V30 1746 C 168.626 -1.8175 -0.631249 0
M  V30 1747 O 167.919 -1.24238 -1.45861 0
M  V30 1748 C 168.113 -3.32861 1.30146 0
M  V30 1749 C 167.942 -3.50882 2.81268 0
M  V30 1750 C 166.712 -3.65312 3.49106 0
M  V30 1751 C 168.91 -3.47196 3.7942 0
M  V30 1752 N 166.892 -3.71563 4.88686 0
M  V30 1753 C 168.263 -3.59777 5.04936 0
M  V30 1754 C 170.318 -3.30577 3.72321 0
M  V30 1755 C 169.021 -3.57455 6.24194 0
M  V30 1756 C 171.047 -3.29562 4.91063 0
M  V30 1757 C 170.409 -3.42691 6.15421 0
M  V30 1758 H 166.508 -0.694812 0.358832 0
M  V30 1759 H 169.092 -1.36246 1.39087 0
M  V30 1760 H 167.263 -3.80602 0.774361 0
M  V30 1761 H 168.995 -3.92346 0.99229 0
M  V30 1762 H 165.75 -3.6685 2.9953 0
M  V30 1763 H 166.174 -3.78387 5.61384 0
M  V30 1764 H 170.816 -3.19332 2.77105 0
M  V30 1765 H 168.534 -3.67475 7.19714 0
M  V30 1766 H 172.12 -3.17905 4.87266 0
M  V30 1767 H 171 -3.41862 7.05762 0
M  V30 1768 N 168.503 -0.877838 -1.30888 0
M  V30 1769 C 169.433 -0.35534 -2.3078 0
M  V30 1770 C 170.414 0.557994 -1.60687 0
M  V30 1771 O 171.599 0.473355 -1.88343 0
M  V30 1772 C 168.729 0.437221 -3.44537 0
M  V30 1773 C 167.683 -0.383715 -4.26276 0
M  V30 1774 C 167.009 0.535014 -5.32017 0
M  V30 1775 C 168.309 -1.62201 -4.96476 0
M  V30 1776 H 170.003 -1.19007 -2.74732 0
M  V30 1777 H 167.549 -0.573698 -1.32078 0
M  V30 1778 H 169.502 0.813334 -4.13477 0
M  V30 1779 H 168.226 1.30553 -2.99372 0
M  V30 1780 H 166.885 -0.741874 -3.59015 0
M  V30 1781 H 166.533 1.40083 -4.831 0
M  V30 1782 H 166.233 -0.0104211 -5.87599 0
M  V30 1783 H 167.757 0.907799 -6.03814 0
M  V30 1784 H 169.171 -1.31689 -5.5797 0
M  V30 1785 H 167.568 -2.10711 -5.61891 0
M  V30 1786 H 168.638 -2.37044 -4.23011 0
M  V30 1787 N 169.982 1.44106 -0.638065 0
M  V30 1788 C 171.23 2.01579 -0.145043 0
M  V30 1789 C 171.551 1.50496 1.24 0
M  V30 1790 O 170.821 0.711374 1.82527 0
M  V30 1791 H 169.401 0.745282 -0.05063 0
M  V30 1792 H 172.063 1.76516 -0.826327 0
M  V30 1793 H 171.159 3.11877 -0.118039 0
M  V30 1794 N 171.46 0.379036 1.52974 0
M  V30 1795 C 172.408 -0.476033 2.27677 0
M  V30 1796 C 173.402 -1.0719 1.31174 0
M  V30 1797 O 174.608 -1.01355 1.48752 0
M  V30 1798 H 170.983 -0.172255 0.732006 0
M  V30 1799 H 172.954 0.175615 2.97883 0
M  V30 1800 C 171.703 -1.5967 3.0887 0
M  V30 1801 H 171.026 -1.1475 3.82978 0
M  V30 1802 H 172.466 -2.16943 3.64296 0
M  V30 1803 C 170.925 -2.54682 2.20542 0
M  V30 1804 O 171.455 -3.57836 1.82527 0
M  V30 1805 N 169.661 -2.24183 1.84907 0
M  V30 1806 H 169.208 -1.40333 2.1602 0
M  V30 1807 H 169.166 -2.88006 1.26096 0
M  V30 1808 N 172.938 -1.57226 0.108567 0
M  V30 1809 C 174.163 -1.99604 -0.563303 0
M  V30 1810 C 174.588 -0.987563 -1.6009 0
M  V30 1811 O 173.946 0.0421687 -1.81251 0
M  V30 1812 C 173.994 -3.40902 -1.17552 0
M  V30 1813 O 173.098 -3.42896 -2.2912 0
M  V30 1814 H 172.439 -0.648704 -0.1417 0
M  V30 1815 H 174.969 -2.03679 0.193961 0
M  V30 1816 H 174.979 -3.78886 -1.51357 0
M  V30 1817 H 173.654 -4.1382 -0.415445 0
M  V30 1818 H 172.231 -3.1672 -1.96832 0
M  V30 1819 N 174.416 0.165178 -1.56732 0
M  V30 1820 C 175.832 0.517174 -1.50988 0
M  V30 1821 C 176.032 1.84331 -0.813894 0
M  V30 1822 O 175.088 2.49672 -0.37682 0
M  V30 1823 C 176.401 0.544261 -2.95733 0
M  V30 1824 C 177.949 0.631039 -3.06573 0
M  V30 1825 C 178.424 0.68896 -4.52788 0
M  V30 1826 N 179.915 0.751683 -4.5706 0
M  V30 1827 C 180.65 0.817177 -5.67547 0
M  V30 1828 N 180.146 0.843129 -6.8765 0
M  V30 1829 N 181.939 0.856668 -5.55534 0
M  V30 1830 H 174.09 -0.704318 -2.00382 0
M  V30 1831 H 176.353 -0.254687 -0.913148 0
M  V30 1832 H 176.059 -0.361607 -3.49836 0
M  V30 1833 H 175.933 1.3886 -3.5071 0
M  V30 1834 H 178.32 1.52733 -2.52501 0
M  V30 1835 H 178.401 -0.240095 -2.54671 0
M  V30 1836 H 178.045 -0.2031 -5.07494 0
M  V30 1837 H 177.975 1.57633 -5.02454 0
M  V30 1838 H 180.466 0.739661 -3.70591 0
M  V30 1839 H 180.779 0.894448 -7.67606 0
M  V30 1840 H 179.124 0.811304 -6.90248 0
M  V30 1841 H 182.315 0.833437 -4.60621 0
M  V30 1842 H 182.488 0.904247 -6.4166 0
M  V30 1843 N 175.894 1.51508 0.433938 0
M  V30 1844 C 177.142 1.6402 1.18075 0
M  V30 1845 C 177.463 0.360328 1.91642 0
M  V30 1846 O 176.733 -0.623945 1.85698 0
M  V30 1847 H 175.313 0.6045 0.43885 0
M  V30 1848 H 177.975 1.88452 0.497178 0
M  V30 1849 H 177.071 2.46949 1.90847 0
M  V30 1850 N 177.372 -0.689602 1.41712 0
M  V30 1851 C 178.32 -1.82475 1.44242 0
M  V30 1852 C 179.314 -1.66354 0.319774 0
M  V30 1853 O 180.52 -1.73143 0.492089 0
M  V30 1854 H 176.895 -0.601416 0.451445 0
M  V30 1855 H 178.866 -1.77458 2.39899 0
M  V30 1856 C 177.615 -3.20535 1.3473 0
M  V30 1857 H 176.938 -3.33559 2.20405 0
M  V30 1858 H 178.378 -4.00023 1.40562 0
M  V30 1859 C 176.837 -3.36846 0.0603281 0
M  V30 1860 O 177.367 -3.91656 -0.892663 0
M  V30 1861 N 175.573 -2.90595 -0.0177039 0
M  V30 1862 H 175.12 -2.46178 0.758572 0
M  V30 1863 H 175.078 -3.01886 -0.878201 0
M  V30 1864 N 178.85 -1.27639 -0.924453 0
M  V30 1865 C 180.078 -1.16989 -1.70649 0
M  V30 1866 C 180.493 0.272869 -1.86818 0
M  V30 1867 O 179.85 1.18549 -1.38753 0
M  V30 1868 C 179.901 -1.85229 -3.10439 0
M  V30 1869 O 179.622 -3.23868 -2.95028 0
M  V30 1870 C 181.123 -1.80746 -4.04779 0
M  V30 1871 H 178.343 -0.406595 -0.53378 0
M  V30 1872 H 180.887 -1.68569 -1.15778 0
M  V30 1873 H 179.042 -1.37545 -3.6216 0
M  V30 1874 H 179.456 -3.57889 -3.83426 0
M  V30 1875 H 180.93 -2.33101 -5.00368 0
M  V30 1876 H 181.407 -0.777499 -4.32263 0
M  V30 1877 H 182.013 -2.28059 -3.58984 0
M  V30 1878 N 180.328 1.1314 -1.09713 0
M  V30 1879 C 181.574 1.84967 -0.846104 0
M  V30 1880 C 181.929 1.82082 0.621601 0
M  V30 1881 O 181.222 1.2501 1.452 0
M  V30 1882 C 181.416 3.32167 -1.3191 0
M  V30 1883 C 181.245 3.49386 -2.83125 0
M  V30 1884 C 180.015 3.63456 -3.51038 0
M  V30 1885 C 182.213 3.45179 -3.81256 0
M  V30 1886 N 180.195 3.68966 -4.9065 0
M  V30 1887 C 181.566 3.57094 -5.06837 0
M  V30 1888 C 183.621 3.28598 -3.74069 0
M  V30 1889 C 182.324 3.5414 -6.26081 0
M  V30 1890 C 184.35 3.26953 -4.92804 0
M  V30 1891 C 183.712 3.39422 -6.17229 0
M  V30 1892 H 179.811 0.692899 -0.362512 0
M  V30 1893 H 182.395 1.35506 -1.39808 0
M  V30 1894 H 180.566 3.80186 -0.794535 0
M  V30 1895 H 182.298 3.91815 -1.01308 0
M  V30 1896 H 179.053 3.65256 -3.01471 0
M  V30 1897 H 179.477 3.75404 -5.63383 0
M  V30 1898 H 184.119 3.17858 -2.78794 0
M  V30 1899 H 181.837 3.63653 -7.21653 0
M  V30 1900 H 185.423 3.15316 -4.88945 0
M  V30 1901 H 184.303 3.38114 -7.07565 0
M  V30 1902 N 181.806 0.884767 1.30421 0
M  V30 1903 C 182.769 0.356277 2.26414 0
M  V30 1904 C 183.769 -0.501124 1.52792 0
M  V30 1905 O 184.959 -0.30831 1.7145 0
M  V30 1906 C 182.091 -0.492316 3.37326 0
M  V30 1907 H 183.284 1.20389 2.74675 0
M  V30 1908 H 180.837 0.661607 1.41607 0
M  V30 1909 H 181.572 -1.36052 2.94381 0
M  V30 1910 H 181.357 0.121832 3.91911 0
M  V30 1911 H 182.847 -0.853871 4.08777 0
M  V30 1912 N 183.284 -1.43765 0.645699 0
M  V30 1913 C 184.7 -1.56509 0.312591 0
M  V30 1914 C 184.9 -1.6307 -1.18365 0
M  V30 1915 O 183.956 -1.58167 -1.96824 0
M  V30 1916 C 185.269 -2.82968 1.01733 0
M  V30 1917 C 186.817 -2.96701 0.996865 0
M  V30 1918 C 187.292 -4.25982 1.68236 0
M  V30 1919 N 188.783 -4.32829 1.64964 0
M  V30 1920 C 189.518 -5.31613 2.14885 0
M  V30 1921 N 189.014 -6.36718 2.73061 0
M  V30 1922 N 190.807 -5.23217 2.05428 0
M  V30 1923 H 182.958 -1.3775 1.61675 0
M  V30 1924 H 185.221 -0.661067 0.679481 0
M  V30 1925 H 184.927 -2.84156 2.0724 0
M  V30 1926 H 184.801 -3.72957 0.564177 0
M  V30 1927 H 187.188 -2.95058 -0.0497719 0
M  V30 1928 H 187.269 -2.08022 1.48865 0
M  V30 1929 H 186.913 -4.28386 2.72852 0
M  V30 1930 H 186.843 -5.13545 1.16529 0
M  V30 1931 H 189.334 -3.57493 1.22503 0
M  V30 1932 H 189.647 -7.08401 3.08848 0
M  V30 1933 H 187.992 -6.37362 2.77118 0
M  V30 1934 H 191.183 -4.40019 1.59689 0
M  V30 1935 H 191.356 -6.00045 2.44643 0
M  V30 1936 N 184.763 -0.387143 -1.52771 0
M  V30 1937 C 186.179 -0.037007 -1.59557 0
M  V30 1938 C 186.379 1.44801 -1.40124 0
M  V30 1939 O 185.435 2.21227 -1.21716 0
M  V30 1940 C 186.748 -0.512256 -2.96305 0
M  V30 1941 C 188.296 -0.468328 -3.09476 0
M  V30 1942 C 188.771 -0.919731 -4.4867 0
M  V30 1943 N 190.262 -0.875656 -4.54848 0
M  V30 1944 C 190.997 -1.19637 -5.6078 0
M  V30 1945 N 190.493 -1.58745 -6.74368 0
M  V30 1946 N 192.286 -1.11776 -5.50874 0
M  V30 1947 H 184.437 -1.35395 -1.63652 0
M  V30 1948 H 186.7 -0.554818 -0.768688 0
M  V30 1949 H 186.406 -1.54935 -3.15734 0
M  V30 1950 H 186.28 0.089805 -3.77093 0
M  V30 1951 H 188.667 0.559671 -2.89744 0
M  V30 1952 H 188.748 -1.10616 -2.30646 0
M  V30 1953 H 188.392 -1.94595 -4.69143 0
M  V30 1954 H 188.322 -0.258927 -5.25963 0
M  V30 1955 H 190.813 -0.587843 -3.733 0
M  V30 1956 H 191.126 -1.81586 -7.51163 0
M  V30 1957 H 189.471 -1.6263 -6.75705 0
M  V30 1958 H 192.662 -0.811264 -4.61016 0
M  V30 1959 H 192.835 -1.37103 -6.3333 0
M  V30 1960 N 186.241 1.57166 -0.116904 0
M  V30 1961 C 187.189 2.16457 0.851418 0
M  V30 1962 C 188.183 1.11323 1.27686 0
M  V30 1963 O 189.389 1.2963 1.24884 0
M  V30 1964 H 185.764 0.69271 0.292672 0
M  V30 1965 H 187.735 2.96605 0.32685 0
M  V30 1966 C 186.484 2.77689 2.09246 0
M  V30 1967 H 185.807 3.58285 1.77402 0
M  V30 1968 H 187.247 3.22716 2.7501 0
M  V30 1969 C 185.706 1.74667 2.88085 0
M  V30 1970 O 186.236 1.19877 3.83396 0
M  V30 1971 N 184.442 1.44656 2.52038 0
M  V30 1972 H 183.989 1.89402 1.74599 0
M  V30 1973 H 183.947 0.759675 3.05084 0
M  V30 1974 N 187.719 -0.156864 1.56817 0
M  V30 1975 C 188.649 -1.19589 2.00551 0
M  V30 1976 C 189.63 -1.4536 0.883426 0
M  V30 1977 O 190.815 -1.56449 1.15054 0
M  V30 1978 C 187.945 -2.53143 2.37773 0
M  V30 1979 C 186.899 -2.41913 3.53075 0
M  V30 1980 C 186.225 -3.80088 3.76081 0
M  V30 1981 C 187.525 -1.91157 4.86062 0
M  V30 1982 H 189.219 -0.832293 2.87599 0
M  V30 1983 H 186.765 -0.398918 1.38364 0
M  V30 1984 H 188.718 -3.26047 2.66967 0
M  V30 1985 H 187.442 -2.91319 1.4765 0
M  V30 1986 H 186.101 -1.71462 3.24031 0
M  V30 1987 H 185.749 -4.15683 2.83225 0
M  V30 1988 H 185.449 -3.73439 4.53671 0
M  V30 1989 H 186.973 -4.54556 4.0769 0
M  V30 1990 H 188.387 -2.53846 5.14038 0
M  V30 1991 H 186.784 -1.95422 5.67389 0
M  V30 1992 H 187.854 -0.866673 4.77092 0
M  V30 1993 N 189.197 -1.51736 -0.425897 0
M  V30 1994 C 190.427 -1.68549 -1.19476 0
M  V30 1995 C 190.835 -0.387288 -1.85194 0
M  V30 1996 O 190.178 0.645142 -1.71999 0
M  V30 1997 C 190.24 -2.75275 -2.31223 0
M  V30 1998 C 189.904 -4.17534 -1.8578 0
M  V30 1999 C 190.901 -5.01936 -1.35485 0
M  V30 2000 C 188.586 -4.6369 -1.93123 0
M  V30 2001 C 190.58 -6.30559 -0.931347 0
M  V30 2002 C 188.267 -5.92307 -1.50384 0
M  V30 2003 C 189.265 -6.75569 -1.00473 0
M  V30 2004 O 188.953 -8.0178 -0.583452 0
M  V30 2005 H 188.685 -0.568525 -0.365725 0
M  V30 2006 H 191.239 -1.98982 -0.509444 0
M  V30 2007 H 189.469 -2.40182 -3.03067 0
M  V30 2008 H 191.158 -2.80853 -2.93047 0
M  V30 2009 H 191.924 -4.67475 -1.29197 0
M  V30 2010 H 187.803 -3.98997 -2.30916 0
M  V30 2011 H 191.347 -6.95498 -0.541084 0
M  V30 2012 H 187.244 -6.2628 -1.56346 0
M  V30 2013 H 188.012 -8.1543 -0.708275 0
M  V30 2014 N 190.675 0.682077 -1.42076 0
M  V30 2015 C 191.905 1.46844 -1.45329 0
M  V30 2016 C 192.313 1.89102 -0.0609328 0
M  V30 2017 O 191.656 1.58238 0.933082 0
M  V30 2018 C 191.718 2.75375 -2.31104 0
M  V30 2019 C 191.382 2.55238 -3.79081 0
M  V30 2020 C 192.379 2.20309 -4.70914 0
M  V30 2021 C 190.064 2.70459 -4.2327 0
M  V30 2022 C 192.058 2.00859 -6.04925 0
M  V30 2023 C 189.745 2.50624 -5.57343 0
M  V30 2024 C 190.743 2.15876 -6.47986 0
M  V30 2025 O 190.431 1.96227 -7.79583 0
M  V30 2026 H 190.163 0.4586 -0.496651 0
M  V30 2027 H 192.717 0.846131 -1.87162 0
M  V30 2028 H 190.947 3.40061 -1.84107 0
M  V30 2029 H 192.636 3.37231 -2.25898 0
M  V30 2030 H 193.402 2.08153 -4.38061 0
M  V30 2031 H 189.281 2.96485 -3.53012 0
M  V30 2032 H 192.825 1.7366 -6.75639 0
M  V30 2033 H 188.722 2.62375 -5.89771 0
M  V30 2034 H 189.49 2.10883 -7.90867 0
M  V30 2035 N 192.153 1.28127 0.917671 0
M  V30 2036 C 193.378 1.18007 1.70555 0
M  V30 2037 C 193.803 -0.258257 1.86319 0
M  V30 2038 O 193.161 -1.1869 1.37049 0
M  V30 2039 C 193.209 1.87948 3.07746 0
M  V30 2040 O 192.313 1.18427 3.9503 0
M  V30 2041 H 191.654 0.409867 0.522403 0
M  V30 2042 H 194.184 1.69379 1.1477 0
M  V30 2043 H 194.194 1.95701 3.58001 0
M  V30 2044 H 192.869 2.92573 2.95591 0
M  V30 2045 H 191.446 1.18811 3.53466 0
M  V30 2046 N 193.631 -1.12557 1.10312 0
M  V30 2047 C 195.042 -1.65574 0.862678 0
M  V30 2048 C 195.393 -1.86566 -0.607256 0
M  V30 2049 O 194.518 -1.59121 -1.46662 0
M  V30 2050 C 195.113 -3.00776 1.55947 0
M  V30 2051 C 193.672 -3.50748 1.36576 0
M  V30 2052 C 192.819 -2.25797 1.60968 0
M  V30 2053 H 195.77 -0.963552 1.26101 0
M  V30 2054 H 195.791 -3.67185 0.997753 0
M  V30 2055 H 195.303 -2.85465 2.62928 0
M  V30 2056 H 193.404 -3.71245 0.317531 0
M  V30 2057 H 193.517 -4.30289 2.10686 0
M  V30 2058 H 191.881 -2.32841 1.03234 0
M  V30 2059 H 192.664 -2.13043 2.69198 0
M  V30 2060 N 195.109 -0.891671 -1.2995 0
M  V30 2061 C 196.386 -0.433307 -1.9074 0
M  V30 2062 C 196.766 1.08646 -1.80995 0
M  V30 2063 O 196.114 1.92476 -1.23147 0
M  V30 2064 C 196.324 -0.938895 -3.36134 0
M  V30 2065 C 197.672 -0.977829 -4.13187 0
M  V30 2066 O 198.696 -0.886015 -3.45005 0
M  V30 2067 O 197.555 -1.11453 -5.35015 0
M  V30 2068 H 194.649 -0.133699 -0.816121 0
M  V30 2069 H 197.195 -0.981011 -1.38471 0
M  V30 2070 H 195.967 -1.98281 -3.37343 0
M  V30 2071 H 195.59 -0.37074 -3.95868 0
M  V30 2072 N 196.587 1.43421 -0.653314 0
M  V30 2073 C 197.812 2.06678 -0.172846 0
M  V30 2074 C 198.237 1.48648 1.15262 0
M  V30 2075 O 197.595 0.596457 1.71208 0
M  V30 2076 C 197.643 3.60474 -0.0953184 0
M  V30 2077 O 196.747 4.01487 0.942442 0
M  V30 2078 H 196.088 0.657181 -0.0949155 0
M  V30 2079 H 198.618 1.83925 -0.896265 0
M  V30 2080 H 198.628 4.07905 0.0879728 0
M  V30 2081 H 197.303 4.02088 -1.06291 0
M  V30 2082 H 195.88 3.65646 0.731932 0
M  V30 2083 N 198.065 0.39524 1.52563 0
M  V30 2084 C 199.311 -0.185318 2.01952 0
M  V30 2085 C 199.644 -1.45964 1.28095 0
M  V30 2086 O 198.919 -1.90689 0.38315 0
M  V30 2087 C 199.202 -0.447193 3.57312 0
M  V30 2088 C 199.055 0.842828 4.41833 0
M  V30 2089 C 200.374 -1.23529 4.22408 0
M  V30 2090 H 197.493 -0.0658788 0.73405 0
M  V30 2091 H 200.135 0.525975 1.82575 0
M  V30 2092 H 198.285 -1.05312 3.73954 0
M  V30 2093 H 199.957 1.4795 4.36931 0
M  V30 2094 H 198.2 1.45686 4.08605 0
M  V30 2095 H 198.871 0.614165 5.48573 0
M  V30 2096 H 201.347 -0.722445 4.0978 0
M  V30 2097 H 200.223 -1.38727 5.3108 0
M  V30 2098 H 200.484 -2.25213 3.80436 0
M  V30 2099 N 199.544 -1.57102 0.125237 0
M  V30 2100 C 200.454 -2.19191 -0.8362 0
M  V30 2101 C 201.47 -1.16985 -1.28805 0
M  V30 2102 O 202.646 -1.49479 -1.34974 0
M  V30 2103 C 199.711 -2.78407 -2.06617 0
M  V30 2104 C 198.772 -3.9567 -1.66565 0
M  V30 2105 C 198.005 -4.52052 -2.83698 0
M  V30 2106 O 198.228 -4.07326 -3.99302 0
M  V30 2107 O 197.162 -5.42645 -2.60423 0
M  V30 2108 H 200.988 -3.01816 -0.337776 0
M  V30 2109 H 198.573 -1.4906 -0.100695 0
M  V30 2110 H 200.455 -3.16129 -2.7864 0
M  V30 2111 H 199.13 -1.9881 -2.55453 0
M  V30 2112 H 198.037 -3.62705 -0.916296 0
M  V30 2113 H 199.37 -4.76722 -1.22464 0
M  V30 2114 N 201.022 0.148545 -1.56898 0
M  V30 2115 C 202.269 0.861418 -1.83264 0
M  V30 2116 C 202.597 1.81239 -0.705883 0
M  V30 2117 O 201.852 1.93305 0.305212 0
M  V30 2118 C 202.151 1.67064 -3.1595 0
M  V30 2119 C 201.817 0.866591 -4.42494 0
M  V30 2120 C 200.479 0.644762 -4.76861 0
M  V30 2121 C 202.831 0.30418 -5.20312 0
M  V30 2122 C 200.159 -0.15021 -5.86508 0
M  V30 2123 C 202.511 -0.477824 -6.30793 0
M  V30 2124 C 201.175 -0.710244 -6.63711 0
M  V30 2125 H 200.445 0.315215 -0.670612 0
M  V30 2126 H 203.092 0.125142 -1.91091 0
M  V30 2127 H 201.397 2.47698 -3.03567 0
M  V30 2128 H 203.094 2.22566 -3.33565 0
M  V30 2129 H 199.684 1.04955 -4.15551 0
M  V30 2130 H 203.868 0.462844 -4.94137 0
M  V30 2131 H 199.124 -0.339796 -6.10455 0
M  V30 2132 H 203.298 -0.92076 -6.90286 0
M  V30 2133 H 200.925 -1.3281 -7.48509 0
M  V30 2134 N 202.5 1.5196 0.417844 0
M  V30 2135 C 203.746 1.66793 1.16411 0
M  V30 2136 C 204.101 0.388758 1.88432 0
M  V30 2137 O 203.394 -0.616409 1.81414 0
M  V30 2138 C 203.588 2.82269 2.19223 0
M  V30 2139 C 203.417 4.21293 1.57297 0
M  V30 2140 C 202.187 4.86948 1.34944 0
M  V30 2141 C 204.385 5.03704 1.03858 0
M  V30 2142 N 202.367 6.1003 0.688195 0
M  V30 2143 C 203.738 6.1795 0.503742 0
M  V30 2144 C 205.793 4.89095 0.932203 0
M  V30 2145 C 204.496 7.19188 -0.127034 0
M  V30 2146 C 206.522 5.90559 0.315293 0
M  V30 2147 C 205.884 7.0409 -0.208906 0
M  V30 2148 H 201.983 0.66407 0.412959 0
M  V30 2149 H 204.567 1.89242 0.457772 0
M  V30 2150 H 202.738 2.61451 2.87225 0
M  V30 2151 H 204.47 2.86183 2.86149 0
M  V30 2152 H 201.225 4.45156 1.61657 0
M  V30 2153 H 201.649 6.75964 0.374449 0
M  V30 2154 H 206.291 4.01557 1.32332 0
M  V30 2155 H 204.009 8.06359 -0.530231 0
M  V30 2156 H 207.595 5.81327 0.234625 0
M  V30 2157 H 206.475 7.81257 -0.67875 0
M  V30 2158 N 203.978 -0.674533 1.42435 0
M  V30 2159 C 204.941 -1.76986 1.45632 0
M  V30 2160 C 205.941 -1.5708 0.343871 0
M  V30 2161 O 207.131 -1.63367 0.604709 0
M  V30 2162 C 204.263 -3.15623 1.28822 0
M  V30 2163 H 205.456 -1.75539 2.43158 0
M  V30 2164 H 203.009 -0.884189 1.28887 0
M  V30 2165 H 203.744 -3.22696 0.322193 0
M  V30 2166 H 203.529 -3.31475 2.09444 0
M  V30 2167 H 205.019 -3.95537 1.33942 0
M  V30 2168 N 205.456 -1.28612 -0.910864 0
M  V30 2169 C 206.703 -1.15934 -1.66029 0
M  V30 2170 C 207.031 0.291483 -1.92303 0
M  V30 2171 O 206.286 1.22816 -1.52364 0
M  V30 2172 C 206.585 -1.90624 -3.0232 0
M  V30 2173 C 206.251 -3.40405 -2.95695 0
M  V30 2174 C 204.913 -3.81255 -2.93595 0
M  V30 2175 C 207.265 -4.359 -2.85728 0
M  V30 2176 C 204.593 -5.15936 -2.79334 0
M  V30 2177 C 206.945 -5.70657 -2.73007 0
M  V30 2178 C 205.609 -6.10779 -2.69267 0
M  V30 2179 H 204.879 -0.424234 -0.607541 0
M  V30 2180 H 207.526 -1.5942 -1.06101 0
M  V30 2181 H 205.831 -1.39696 -3.6605 0
M  V30 2182 H 207.528 -1.78228 -3.59215 0
M  V30 2183 H 204.118 -3.07927 -2.98125 0
M  V30 2184 H 208.302 -4.053 -2.86436 0
M  V30 2185 H 203.558 -5.46146 -2.74835 0
M  V30 2186 H 207.732 -6.44311 -2.64264 0
M  V30 2187 H 205.359 -7.1509 -2.57974 0
M  V30 2188 N 206.934 1.1197 -1.10907 0
M  V30 2189 C 208.159 1.87942 -0.877064 0
M  V30 2190 C 208.584 1.79341 0.567314 0
M  V30 2191 O 207.942 1.15184 1.40009 0
M  V30 2192 C 207.99 3.34926 -1.33629 0
M  V30 2193 O 207.094 4.09303 -0.504447 0
M  V30 2194 H 206.435 0.583785 -0.316371 0
M  V30 2195 H 208.965 1.4157 -1.47712 0
M  V30 2196 H 208.975 3.8577 -1.32837 0
M  V30 2197 H 207.65 3.40504 -2.3881 0
M  V30 2198 H 206.227 3.68393 -0.577993 0
M  V30 2199 N 208.412 0.89855 1.29475 0
M  V30 2200 C 209.659 0.523882 1.95606 0
M  V30 2201 C 209.987 -0.929608 1.70847 0
M  V30 2202 O 209.242 -1.67401 1.01367 0
M  V30 2203 C 209.541 0.761398 3.49195 0
M  V30 2204 C 209.207 2.19207 3.94029 0
M  V30 2205 C 207.869 2.58326 4.05982 0
M  V30 2206 C 210.221 3.12379 4.17216 0
M  V30 2207 C 207.549 3.898 4.38489 0
M  V30 2208 C 209.901 4.43401 4.51197 0
M  V30 2209 C 208.565 4.82394 4.61359 0
M  V30 2210 H 207.835 0.191702 0.715773 0
M  V30 2211 H 210.482 1.13699 1.54094 0
M  V30 2212 H 208.787 0.0653622 3.91745 0
M  V30 2213 H 210.484 0.450904 3.98457 0
M  V30 2214 H 207.074 1.87846 3.85242 0
M  V30 2215 H 211.258 2.83371 4.07449 0
M  V30 2216 H 206.514 4.19734 4.44559 0
M  V30 2217 H 210.688 5.15623 4.68087 0
M  V30 2218 H 208.315 5.84306 4.86303 0
M  V30 2219 N 209.89 -1.43072 0.660911 0
M  V30 2220 C 211.167 -1.95307 0.107017 0
M  V30 2221 C 211.547 -1.60192 -1.37484 0
M  V30 2222 O 210.895 -0.890949 -2.10415 0
M  V30 2223 C 211.105 -3.47124 0.361402 0
M  V30 2224 C 212.453 -4.23738 0.270455 0
M  V30 2225 O 213.477 -3.54981 0.294382 0
M  V30 2226 O 212.336 -5.46131 0.200737 0
M  V30 2227 H 209.43 -0.826984 -0.00517729 0
M  V30 2228 H 211.976 -1.52972 0.734681 0
M  V30 2229 H 210.748 -3.65837 1.38848 0
M  V30 2230 H 210.371 -3.96475 -0.298953 0
M  V30 2231 N 211.368 -0.403325 -1.52352 0
M  V30 2232 C 212.278 0.432009 -2.30588 0
M  V30 2233 C 213.294 1.05884 -1.38075 0
M  V30 2234 O 214.47 1.06161 -1.71148 0
M  V30 2235 C 211.535 1.53669 -3.10784 0
M  V30 2236 C 210.596 0.933525 -4.19027 0
M  V30 2237 C 209.829 1.98557 -4.9539 0
M  V30 2238 O 210.052 3.20283 -4.71991 0
M  V30 2239 O 208.986 1.59504 -5.80381 0
M  V30 2240 H 212.812 -0.205739 -3.03002 0
M  V30 2241 H 210.397 -0.166675 -1.48467 0
M  V30 2242 H 212.279 2.17814 -3.60742 0
M  V30 2243 H 210.954 2.15915 -2.41169 0
M  V30 2244 H 209.861 0.254954 -3.7323 0
M  V30 2245 H 211.194 0.35508 -4.90918 0
M  V30 2246 N 212.846 1.57033 -0.133567 0
M  V30 2247 C 213.779 2.11824 0.848872 0
M  V30 2248 C 214.757 1.03833 1.2513 0
M  V30 2249 O 215.941 1.31579 1.34978 0
M  V30 2250 C 213.068 2.62692 2.138 0
M  V30 2251 C 212.114 3.82705 1.88253 0
M  V30 2252 S 212.947 5.2438 1.08563 0
M  V30 2253 C 214.103 5.78627 2.38624 0
M  V30 2254 H 214.336 2.94824 0.38289 0
M  V30 2255 H 211.869 1.5419 0.0804796 0
M  V30 2256 H 213.827 2.92652 2.87863 0
M  V30 2257 H 212.488 1.79847 2.57515 0
M  V30 2258 H 211.681 4.16496 2.83809 0
M  V30 2259 H 211.283 3.53437 1.22305 0
M  V30 2260 H 213.575 5.8924 3.34369 0
M  V30 2261 H 214.518 6.76443 2.09358 0
M  V30 2262 H 214.926 5.06783 2.48658 0
M  V30 2263 N 214.325 -0.140222 1.56975 0
M  V30 2264 C 215.288 -1.15689 1.97861 0
M  V30 2265 C 216.288 -1.3549 0.865974 0
M  V30 2266 O 217.478 -1.32367 1.13246 0
M  V30 2267 C 214.61 -2.51582 2.30042 0
M  V30 2268 H 215.803 -0.805971 2.88867 0
M  V30 2269 H 213.356 -0.383801 1.51515 0
M  V30 2270 H 214.091 -2.91632 1.41849 0
M  V30 2271 H 213.876 -2.38569 3.11171 0
M  V30 2272 H 215.366 -3.24792 2.62488 0
M  V30 2273 N 215.803 -1.52179 -0.40978 0
M  V30 2274 C 216.75 -1.75475 -1.49924 0
M  V30 2275 C 217.72 -0.597175 -1.54994 0
M  V30 2276 O 218.905 -0.834655 -1.71575 0
M  V30 2277 C 216.045 -1.9107 -2.87378 0
M  V30 2278 C 215.158 -3.18717 -2.91622 0
M  V30 2279 C 214.293 -3.24747 -4.20372 0
M  V30 2280 C 213.332 -4.46598 -4.18588 0
M  V30 2281 N 212.469 -4.50025 -5.38908 0
M  V30 2282 H 217.309 -2.68458 -1.29361 0
M  V30 2283 H 214.846 -1.33024 -0.627934 0
M  V30 2284 H 216.804 -1.98096 -3.6717 0
M  V30 2285 H 215.434 -1.01469 -3.06437 0
M  V30 2286 H 214.486 -3.20866 -2.04326 0
M  V30 2287 H 215.798 -4.08544 -2.86169 0
M  V30 2288 H 214.952 -3.30841 -5.08556 0
M  V30 2289 H 213.691 -2.32857 -4.28519 0
M  V30 2290 H 212.696 -4.40652 -3.28794 0
M  V30 2291 H 213.921 -5.39783 -4.12081 0
M  V30 2292 H 211.867 -3.61017 -5.47725 0
M  V30 2293 H 211.784 -5.33697 -5.35447 0
M  V30 2294 H 213.052 -4.60347 -6.29048 0
M  V30 2295 N 217.281 0.66697 -1.42791 0
M  V30 2296 C 218.511 1.45294 -1.46878 0
M  V30 2297 C 218.919 1.89027 -0.0809861 0
M  V30 2298 O 218.262 1.59219 0.916246 0
M  V30 2299 C 218.324 2.72908 -2.34012 0
M  V30 2300 C 217.988 2.51203 -3.81767 0
M  V30 2301 C 218.985 2.15302 -4.73224 0
M  V30 2302 C 216.67 2.65954 -4.26115 0
M  V30 2303 C 218.664 1.94431 -6.07022 0
M  V30 2304 C 216.351 2.44699 -5.59969 0
M  V30 2305 C 217.349 2.08992 -6.5024 0
M  V30 2306 O 217.037 1.87948 -7.81621 0
M  V30 2307 H 216.769 0.453306 -0.501487 0
M  V30 2308 H 219.323 0.826232 -1.88049 0
M  V30 2309 H 217.553 3.38089 -1.87703 0
M  V30 2310 H 219.242 3.34816 -2.29462 0
M  V30 2311 H 220.008 2.03495 -4.40244 0
M  V30 2312 H 215.887 2.92724 -3.56137 0
M  V30 2313 H 219.431 1.66484 -6.77443 0
M  V30 2314 H 215.328 2.56105 -5.9252 0
M  V30 2315 H 216.096 2.02483 -7.93059 0
M  V30 2316 N 218.759 1.29093 0.90403 0
M  V30 2317 C 220.036 1.075 1.63411 0
M  V30 2318 C 220.416 -0.382346 2.07609 0
M  V30 2319 O 219.764 -1.37031 1.82851 0
M  V30 2320 C 219.974 2.05858 2.81822 0
M  V30 2321 C 221.322 2.36539 3.52611 0
M  V30 2322 O 222.346 2.04019 2.91984 0
M  V30 2323 O 221.205 2.92085 4.61897 0
M  V30 2324 H 218.299 0.411547 0.717327 0
M  V30 2325 H 220.845 1.40449 0.952479 0
M  V30 2326 H 219.617 3.04037 2.46327 0
M  V30 2327 H 219.24 1.73613 3.57693 0
M  V30 2328 N 220.237 -1.11381 1.11499 0
M  V30 2329 C 221.167 -2.19509 0.796125 0
M  V30 2330 C 222.148 -1.68458 -0.235796 0
M  V30 2331 O 223.333 -1.93947 -0.0991344 0
M  V30 2332 C 220.463 -3.46475 0.239205 0
M  V30 2333 C 219.417 -4.10744 1.20307 0
M  V30 2334 C 218.743 -5.32293 0.50683 0
M  V30 2335 C 220.043 -4.55597 2.55399 0
M  V30 2336 H 221.737 -2.46439 1.70024 0
M  V30 2337 H 219.283 -1.18446 0.818935 0
M  V30 2338 H 221.236 -4.214 0.00392006 0
M  V30 2339 H 219.96 -3.19006 -0.700206 0
M  V30 2340 H 218.619 -3.37813 1.42399 0
M  V30 2341 H 218.267 -5.01095 -0.437408 0
M  V30 2342 H 217.967 -5.76243 1.1497 0
M  V30 2343 H 219.491 -6.09956 0.280351 0
M  V30 2344 H 220.905 -5.21841 2.37391 0
M  V30 2345 H 219.302 -5.10363 3.15673 0
M  V30 2346 H 220.372 -3.69013 3.14575 0
M  V30 2347 N 221.715 -0.905404 -1.28997 0
M  V30 2348 C 223.126 -0.581953 -1.77398 0
M  V30 2349 C 223.477 0.902552 -1.74208 0
M  V30 2350 O 222.602 1.70584 -1.33154 0
M  V30 2351 C 223.197 -1.04961 -3.22131 0
M  V30 2352 C 221.756 -0.777229 -3.68288 0
M  V30 2353 C 220.903 -1.22109 -2.48967 0
M  V30 2354 H 223.854 -1.08754 -1.15578 0
M  V30 2355 H 223.875 -0.387387 -3.78523 0
M  V30 2356 H 223.387 -2.13008 -3.24421 0
M  V30 2357 H 221.488 0.290383 -3.71467 0
M  V30 2358 H 221.601 -1.37911 -4.58822 0
M  V30 2359 H 219.965 -0.639971 -2.46529 0
M  V30 2360 H 220.748 -2.30972 -2.53982 0
M  V30 2361 N 223.193 1.4272 -0.668489 0
M  V30 2362 C 224.156 2.292 0.00448567 0
M  V30 2363 C 225.156 1.43001 0.735339 0
M  V30 2364 O 226.346 1.64461 0.57429 0
M  V30 2365 C 223.478 3.25375 1.01705 0
M  V30 2366 H 224.671 2.90199 -0.756608 0
M  V30 2367 H 222.224 1.50254 -0.430506 0
M  V30 2368 H 222.959 2.69301 1.80686 0
M  V30 2369 H 222.744 3.88944 0.496463 0
M  V30 2370 H 224.234 3.90245 1.48655 0
M  V30 2371 N 224.671 0.411399 1.52136 0
M  V30 2372 C 225.899 -0.163076 2.06256 0
M  V30 2373 C 226.314 -1.3867 1.28125 0
M  V30 2374 O 225.671 -1.79423 0.333721 0
M  V30 2375 C 225.722 -0.511252 3.57867 0
M  V30 2376 O 225.443 0.66378 4.33042 0
M  V30 2377 C 226.944 -1.13921 4.28412 0
M  V30 2378 H 224.164 -0.0193897 0.67072 0
M  V30 2379 H 226.708 0.583007 1.96013 0
M  V30 2380 H 224.863 -1.20723 3.6811 0
M  V30 2381 H 225.277 0.372601 5.23175 0
M  V30 2382 H 226.751 -1.33302 5.35663 0
M  V30 2383 H 227.228 -2.11296 3.85033 0
M  V30 2384 H 227.834 -0.483373 4.22544 0
M  V30 2385 N 226.149 -1.5696 0.141893 0
M  V30 2386 C 227.398 -1.95135 -0.510427 0
M  V30 2387 C 227.711 -1.02896 -1.66348 0
M  V30 2388 O 228.917 -1.30629 -2.38009 0
M  V30 2389 C 227.373 -3.46876 -0.959427 0
M  V30 2390 C 226.981 -4.47691 0.166419 0
M  V30 2391 C 228.725 -3.93927 -1.58183 0
M  V30 2392 C 226.632 -5.90636 -0.300565 0
M  V30 2393 H 225.562 -0.728494 -0.194454 0
M  V30 2394 H 228.213 -1.8211 0.22542 0
M  V30 2395 H 226.595 -3.55215 -1.75038 0
M  V30 2396 H 227.769 -4.51043 0.94325 0
M  V30 2397 H 226.084 -4.10527 0.696905 0
M  V30 2398 H 228.681 -4.98158 -1.94275 0
M  V30 2399 H 229.024 -3.3519 -2.46888 0
M  V30 2400 H 229.557 -3.88484 -0.855863 0
M  V30 2401 H 226.296 -6.5318 0.550989 0
M  V30 2402 H 225.816 -5.90655 -1.04338 0
M  V30 2403 H 227.495 -6.42588 -0.754265 0
M  V30 2404 N 227.627 0.131896 -1.57047 0
M  V30 2405 C 228.904 0.871495 -1.75112 0
M  V30 2406 C 229.284 1.9866 -0.713949 0
M  V30 2407 O 228.632 2.26965 0.264447 0
M  V30 2408 C 228.842 1.40007 -3.19686 0
M  V30 2409 C 230.19 1.85752 -3.81813 0
M  V30 2410 O 231.214 1.49715 -3.23209 0
M  V30 2411 O 230.073 2.5226 -4.84796 0
M  V30 2412 H 227.167 0.412919 -0.716538 0
M  V30 2413 H 229.713 0.116641 -1.69299 0
M  V30 2414 H 228.485 0.599404 -3.86682 0
M  V30 2415 H 228.108 2.218 -3.29986 0
M  V30 2416 N 229.106 1.52395 0.401703 0
M  V30 2417 C 230.353 1.66817 1.14796 0
M  V30 2418 C 230.681 0.401772 1.90305 0
M  V30 2419 O 229.936 -0.615487 1.85769 0
M  V30 2420 C 230.235 2.84578 2.16217 0
M  V30 2421 C 229.901 4.22513 1.5746 0
M  V30 2422 C 228.563 4.60029 1.41161 0
M  V30 2423 C 230.915 5.0844 1.14622 0
M  V30 2424 C 228.243 5.81144 0.80552 0
M  V30 2425 C 230.595 6.30167 0.55428 0
M  V30 2426 C 229.259 6.66426 0.378482 0
M  V30 2427 H 228.529 0.610428 0.420069 0
M  V30 2428 H 231.176 1.86512 0.434212 0
M  V30 2429 H 229.481 2.59248 2.93764 0
M  V30 2430 H 231.178 2.92933 2.73845 0
M  V30 2431 H 227.768 3.92953 1.71132 0
M  V30 2432 H 231.952 4.80034 1.26021 0
M  V30 2433 H 227.208 6.07855 0.657399 0
M  V30 2434 H 231.382 6.96071 0.213983 0
M  V30 2435 H 229.009 7.60143 -0.0932606 0
M  V30 2436 N 230.584 -0.659388 1.43143 0
M  V30 2437 C 231.833 -1.41518 1.43721 0
M  V30 2438 C 232.146 -1.95499 0.0628176 0
M  V30 2439 O 233.352 -2.71446 -0.0539683 0
M  V30 2440 C 231.808 -2.5608 2.52885 0
M  V30 2441 C 231.416 -2.08733 3.96402 0
M  V30 2442 C 233.16 -3.3349 2.62649 0
M  V30 2443 C 231.067 -3.20469 4.97045 0
M  V30 2444 H 229.997 -0.531705 0.534608 0
M  V30 2445 H 232.648 -0.712343 1.69109 0
M  V30 2446 H 231.03 -3.28805 2.20688 0
M  V30 2447 H 232.204 -1.43059 4.3803 0
M  V30 2448 H 230.519 -1.44219 3.90627 0
M  V30 2449 H 233.116 -4.16734 3.35017 0
M  V30 2450 H 233.459 -3.8111 1.67513 0
M  V30 2451 H 233.992 -2.67842 2.94118 0
M  V30 2452 H 230.731 -2.77824 5.93712 0
M  V30 2453 H 230.251 -3.84874 4.60034 0
M  V30 2454 H 231.93 -3.85698 5.19467 0
M  V30 2455 N 232.062 -1.29571 -0.897171 0
M  V30 2456 C 233.308 -1.17863 -1.65034 0
M  V30 2457 C 233.641 0.268729 -1.92332 0
M  V30 2458 O 232.916 1.19378 -1.53555 0
M  V30 2459 C 233.199 -1.995 -2.99786 0
M  V30 2460 C 233.052 -3.5239 -2.79538 0
M  V30 2461 C 234.371 -1.82335 -4.00552 0
M  V30 2462 H 231.49 -0.429528 -0.598895 0
M  V30 2463 H 234.132 -1.59072 -1.03905 0
M  V30 2464 H 232.282 -1.64485 -3.51962 0
M  V30 2465 H 233.954 -3.97401 -2.34244 0
M  V30 2466 H 232.197 -3.77187 -2.14273 0
M  V30 2467 H 232.868 -4.04787 -3.75302 0
M  V30 2468 H 235.344 -2.12924 -3.57495 0
M  V30 2469 H 234.22 -2.41801 -4.92771 0
M  V30 2470 H 234.481 -0.779209 -4.35179 0
M  V30 2471 N 233.54 1.10788 -1.12088 0
M  V30 2472 C 234.487 2.17025 -0.785407 0
M  V30 2473 C 235.457 1.64265 0.246191 0
M  V30 2474 O 236.642 1.90412 0.121584 0
M  V30 2475 C 233.782 3.44249 -0.242177 0
M  V30 2476 C 232.895 4.1098 -1.33115 0
M  V30 2477 C 232.03 5.25911 -0.747741 0
M  V30 2478 C 231.069 5.84538 -1.81609 0
M  V30 2479 N 230.206 6.90853 -1.25167 0
M  V30 2480 H 235.046 2.45066 -1.69548 0
M  V30 2481 H 232.583 1.20297 -0.846582 0
M  V30 2482 H 234.541 4.17101 0.0908026 0
M  V30 2483 H 233.171 3.16571 0.631072 0
M  V30 2484 H 232.223 3.36133 -1.78097 0
M  V30 2485 H 233.535 4.50601 -2.13917 0
M  V30 2486 H 232.689 6.056 -0.365216 0
M  V30 2487 H 231.428 4.87614 0.0915188 0
M  V30 2488 H 230.433 5.03522 -2.20785 0
M  V30 2489 H 231.658 6.249 -2.6585 0
M  V30 2490 H 229.604 6.54562 -0.434174 0
M  V30 2491 H 229.521 7.29166 -1.99633 0
M  V30 2492 H 230.789 7.7433 -0.896259 0
M  V30 2493 N 235.018 0.912232 1.28515 0
M  V30 2494 C 235.965 0.397954 2.27343 0
M  V30 2495 C 236.935 -0.526766 1.57526 0
M  V30 2496 O 238.12 -0.449292 1.85435 0
M  V30 2497 C 235.26 -0.357263 3.43246 0
M  V30 2498 C 234.373 0.599788 4.27816 0
M  V30 2499 C 233.508 -0.173725 5.30916 0
M  V30 2500 C 232.547 0.777039 6.07148 0
M  V30 2501 N 231.684 0.0371398 7.0209 0
M  V30 2502 H 236.524 1.24577 2.70711 0
M  V30 2503 H 234.061 0.625612 1.33133 0
M  V30 2504 H 236.019 -0.8113 4.09236 0
M  V30 2505 H 234.649 -1.16943 3.00872 0
M  V30 2506 H 233.701 1.17235 3.61884 0
M  V30 2507 H 235.013 1.32704 4.80823 0
M  V30 2508 H 234.167 -0.688394 6.02782 0
M  V30 2509 H 232.906 -0.934041 4.78672 0
M  V30 2510 H 231.911 1.3031 5.34134 0
M  V30 2511 H 233.136 1.53689 6.61481 0
M  V30 2512 H 231.082 -0.705213 6.52198 0
M  V30 2513 H 230.999 0.704249 7.52713 0
M  V30 2514 H 232.267 -0.457383 7.78157 0
M  V30 2515 N 236.496 -1.42363 0.676048 0
M  V30 2516 C 237.724 -2.05859 0.207268 0
M  V30 2517 C 238.139 -1.50796 -1.13605 0
M  V30 2518 O 237.496 -0.648265 -1.70598 0
M  V30 2519 C 237.547 -3.61248 0.134975 0
M  V30 2520 O 237.268 -4.1427 1.42521 0
M  V30 2521 C 238.769 -4.41859 -0.357151 0
M  V30 2522 H 235.989 -0.663431 0.100503 0
M  V30 2523 H 238.533 -1.82479 0.923136 0
M  V30 2524 H 236.688 -3.83735 -0.531588 0
M  V30 2525 H 237.102 -5.0815 1.29939 0
M  V30 2526 H 238.576 -5.50847 -0.356641 0
M  V30 2527 H 239.053 -4.16536 -1.39264 0
M  V30 2528 H 239.659 -4.24392 0.27772 0
M  V30 2529 N 237.974 -0.419461 -1.51915 0
M  V30 2530 C 239.222 0.152637 -2.01523 0
M  V30 2531 C 239.543 1.44762 -1.30649 0
M  V30 2532 O 238.813 1.90997 -0.435535 0
M  V30 2533 H 237.393 0.0593966 -0.744635 0
M  V30 2534 H 240.055 -0.558073 -1.86739 0
M  V30 2535 H 239.151 0.341369 -3.10227 0
M  V30 2536 N 239.452 1.56882 -0.150215 0
M  V30 2537 C 240.384 2.14057 0.819286 0
M  V30 2538 C 241.397 1.09082 1.20851 0
M  V30 2539 O 242.586 1.36347 1.15203 0
M  V30 2540 C 239.686 2.65102 2.11127 0
M  V30 2541 C 238.859 3.94511 1.88891 0
M  V30 2542 C 237.918 4.30834 3.02107 0
M  V30 2543 O 236.944 4.99099 2.73659 0
M  V30 2544 N 238.146 3.90676 4.29363 0
M  V30 2545 H 240.911 2.97871 0.330618 0
M  V30 2546 H 238.472 1.61866 0.0332538 0
M  V30 2547 H 240.464 2.86411 2.85921 0
M  V30 2548 H 239.034 1.85994 2.51247 0
M  V30 2549 H 238.254 3.81795 0.981152 0
M  V30 2550 H 239.542 4.7907 1.71376 0
M  V30 2551 H 238.94 3.35677 4.55343 0
M  V30 2552 H 237.497 4.1703 5.00928 0
M  V30 2553 N 240.93 -0.123565 1.57115 0
M  V30 2554 C 241.877 -1.15177 2.00007 0
M  V30 2555 C 242.847 -1.41403 0.871454 0
M  V30 2556 O 244.032 -1.53346 1.13533 0
M  V30 2557 C 241.172 -2.47436 2.40561 0
M  V30 2558 C 240.285 -2.28184 3.66819 0
M  V30 2559 C 239.42 -3.53641 3.96373 0
M  V30 2560 C 238.459 -3.29528 5.15827 0
M  V30 2561 N 237.596 -4.47175 5.41275 0
M  V30 2562 H 242.436 -0.779008 2.87638 0
M  V30 2563 H 239.973 -0.373166 1.42288 0
M  V30 2564 H 241.931 -3.24584 2.62109 0
M  V30 2565 H 240.561 -2.82614 1.55978 0
M  V30 2566 H 239.613 -1.41976 3.52912 0
M  V30 2567 H 240.925 -2.0634 4.5412 0
M  V30 2568 H 240.079 -4.39209 4.18545 0
M  V30 2569 H 238.818 -3.78512 3.07538 0
M  V30 2570 H 237.823 -2.42349 4.93505 0
M  V30 2571 H 239.048 -3.06031 6.06236 0
M  V30 2572 H 236.994 -4.72175 4.55397 0
M  V30 2573 H 236.911 -4.28419 6.22891 0
M  V30 2574 H 238.179 -5.3389 5.67963 0
M  V30 2575 N 242.408 -1.52605 -0.393616 0
M  V30 2576 C 243.34 -1.73303 -1.49995 0
M  V30 2577 C 244.353 -0.613473 -1.50799 0
M  V30 2578 O 245.542 -0.889049 -1.54784 0
M  V30 2579 C 242.642 -1.77245 -2.88855 0
M  V30 2580 C 241.815 -3.06483 -3.12069 0
M  V30 2581 C 240.874 -3.02033 -4.30886 0
M  V30 2582 O 239.9 -3.75907 -4.27414 0
M  V30 2583 N 241.102 -2.20897 -5.36828 0
M  V30 2584 H 243.867 -2.68756 -1.32629 0
M  V30 2585 H 241.428 -1.51036 -0.583083 0
M  V30 2586 H 243.42 -1.7178 -3.66434 0
M  V30 2587 H 241.99 -0.891993 -2.99603 0
M  V30 2588 H 241.21 -3.25474 -2.22396 0
M  V30 2589 H 242.498 -3.91947 -3.2443 0
M  V30 2590 H 241.896 -1.60336 -5.42502 0
M  V30 2591 H 240.453 -2.21275 -6.13091 0
M  V30 2592 N 243.887 0.651787 -1.4349 0
M  V30 2593 C 244.817 1.77621 -1.51569 0
M  V30 2594 C 245.798 1.66022 -0.370253 0
M  V30 2595 O 246.983 1.85095 -0.587658 0
M  V30 2596 C 244.113 3.16056 -1.43966 0
M  V30 2597 C 243.067 3.4242 -2.56774 0
M  V30 2598 C 242.393 4.8067 -2.34223 0
M  V30 2599 C 243.693 3.37023 -3.99015 0
M  V30 2600 H 245.387 1.71117 -2.45681 0
M  V30 2601 H 242.933 0.821825 -1.18246 0
M  V30 2602 H 244.886 3.94472 -1.48221 0
M  V30 2603 H 243.61 3.23293 -0.463586 0
M  V30 2604 H 242.269 2.66375 -2.51873 0
M  V30 2605 H 241.917 4.84585 -1.34856 0
M  V30 2606 H 241.617 4.9927 -3.09844 0
M  V30 2607 H 243.141 5.61342 -2.40265 0
M  V30 2608 H 244.555 4.05374 -4.05395 0
M  V30 2609 H 242.952 3.67159 -4.74673 0
M  V30 2610 H 244.022 2.3518 -4.2405 0
M  V30 2611 N 245.365 1.30045 0.890287 0
M  V30 2612 C 246.315 1.12592 1.9826 0
M  V30 2613 C 247.299 0.0426021 1.60844 0
M  V30 2614 O 248.491 0.265346 1.75 0
M  V30 2615 C 245.62 0.814301 3.33503 0
M  V30 2616 C 244.706 1.93761 3.7725 0
M  V30 2617 N 245.097 3.18232 3.93143 0
M  V30 2618 C 243.395 1.83277 4.06602 0
M  V30 2619 C 244.096 3.9158 4.30163 0
M  V30 2620 N 243.072 3.19591 4.3973 0
M  V30 2621 H 246.874 2.07003 2.08631 0
M  V30 2622 H 244.388 1.21307 1.07974 0
M  V30 2623 H 246.385 0.67029 4.11476 0
M  V30 2624 H 245.045 -0.121797 3.24471 0
M  V30 2625 H 246.056 3.53581 3.78419 0
M  V30 2626 H 242.733 0.97001 4.06075 0
M  V30 2627 H 244.123 4.98744 4.50226 0
M  V30 2628 N 246.843 -1.10192 1.12674 0
M  V30 2629 C 248.073 -1.85713 0.905213 0
M  V30 2630 C 248.481 -1.81056 -0.549108 0
M  V30 2631 O 247.824 -1.19927 -1.39151 0
M  V30 2632 C 247.886 -3.34972 1.30516 0
M  V30 2633 C 247.55 -3.63385 2.77129 0
M  V30 2634 C 248.547 -3.59772 3.75313 0
M  V30 2635 C 246.232 -3.91981 3.14096 0
M  V30 2636 C 248.226 -3.84354 5.08479 0
M  V30 2637 C 245.913 -4.16218 4.47443 0
M  V30 2638 C 246.911 -4.12395 5.44444 0
M  V30 2639 O 246.599 -4.36014 6.75387 0
M  V30 2640 H 246.331 -0.593719 0.323223 0
M  V30 2641 H 248.885 -1.40198 1.50112 0
M  V30 2642 H 247.115 -3.81156 0.652463 0
M  V30 2643 H 248.804 -3.91886 1.05736 0
M  V30 2644 H 249.57 -3.37716 3.48099 0
M  V30 2645 H 245.449 -3.94085 2.39202 0
M  V30 2646 H 248.993 -3.81285 5.84181 0
M  V30 2647 H 244.89 -4.37754 4.74386 0
M  V30 2648 H 245.658 -4.53516 6.8137 0
M  V30 2649 N 248.321 -0.919034 -1.28029 0
M  V30 2650 C 249.567 -0.555757 -1.95036 0
M  V30 2651 C 249.9 0.899198 -1.72128 0
M  V30 2652 O 249.175 1.64023 -1.04531 0
M  V30 2653 C 249.458 -0.872024 -3.49382 0
M  V30 2654 C 249.311 -2.3801 -3.81669 0
M  V30 2655 C 250.63 -0.37185 -4.38526 0
M  V30 2656 H 247.749 -0.203386 -0.708381 0
M  V30 2657 H 250.391 -1.14924 -1.51303 0
M  V30 2658 H 248.541 -0.366946 -3.86763 0
M  V30 2659 H 250.213 -2.9562 -3.54128 0
M  V30 2660 H 248.456 -2.83289 -3.28526 0
M  V30 2661 H 249.127 -2.55192 -4.8947 0
M  V30 2662 H 251.603 -0.804602 -4.08247 0
M  V30 2663 H 250.479 -0.622173 -5.45362 0
M  V30 2664 H 250.74 0.727934 -4.36066 0
M  V30 2665 N 249.799 1.42003 -0.683588 0
M  V30 2666 C 251.047 2.01015 -0.209101 0
M  V30 2667 C 251.368 1.54365 1.19149 0
M  V30 2668 O 250.638 0.769083 1.80172 0
M  V30 2669 H 249.218 0.743294 -0.074315 0
M  V30 2670 H 251.88 1.73798 -0.882066 0
M  V30 2671 H 250.976 3.11343 -0.2172 0
M  V30 2672 N 251.277 0.427512 1.51691 0
M  V30 2673 C 252.227 -0.406604 2.24345 0
M  V30 2674 C 253.211 -0.998276 1.26187 0
M  V30 2675 O 254.403 -0.918045 1.51331 0
M  V30 2676 C 251.532 -1.51266 3.08177 0
M  V30 2677 C 250.618 -0.930868 4.13758 0
M  V30 2678 N 251.009 -0.0773552 5.05741 0
M  V30 2679 C 249.307 -1.19948 4.29568 0
M  V30 2680 C 250.008 0.248344 5.8117 0
M  V30 2681 N 248.984 -0.365535 5.4237 0
M  V30 2682 H 252.786 0.251581 2.92821 0
M  V30 2683 H 250.3 0.239003 1.60632 0
M  V30 2684 H 252.297 -2.123 3.58796 0
M  V30 2685 H 250.957 -2.17328 2.41244 0
M  V30 2686 H 251.968 0.288351 5.17097 0
M  V30 2687 H 248.645 -1.85832 3.73862 0
M  V30 2688 H 250.035 0.942286 6.6526 0
M  V30 2689 N 252.755 -1.56801 0.158532 0
M  V30 2690 C 253.98 -2.01295 -0.499516 0
M  V30 2691 C 254.405 -1.03799 -1.56867 0
M  V30 2692 O 253.763 -0.0155162 -1.81293 0
M  V30 2693 C 253.811 -3.44469 -1.06647 0
M  V30 2694 O 252.915 -3.50012 -2.18095 0
M  V30 2695 H 252.256 -0.652884 -0.12099 0
M  V30 2696 H 254.786 -2.02958 0.258661 0
M  V30 2697 H 254.796 -3.8351 -1.39227 0
M  V30 2698 H 253.471 -4.14932 -0.283581 0
M  V30 2699 H 252.048 -3.22822 -1.86656 0
M  V30 2700 N 254.233 0.115231 -1.57178 0
M  V30 2701 C 255.165 1.16694 -1.97269 0
M  V30 2702 C 256.178 1.37445 -0.872502 0
M  V30 2703 O 257.367 1.36454 -1.15077 0
M  V30 2704 C 254.467 2.52627 -2.25905 0
M  V30 2705 C 253.64 2.52427 -3.57211 0
M  V30 2706 C 252.699 3.70134 -3.74016 0
M  V30 2707 O 251.725 3.53546 -4.46087 0
M  V30 2708 N 252.927 4.88844 -3.13068 0
M  V30 2709 H 255.692 0.82588 -2.88096 0
M  V30 2710 H 253.253 0.304461 -1.59011 0
M  V30 2711 H 255.245 3.29937 -2.34359 0
M  V30 2712 H 253.815 2.789 -1.41186 0
M  V30 2713 H 253.035 1.60805 -3.5991 0
M  V30 2714 H 254.323 2.49353 -4.43509 0
M  V30 2715 H 253.721 5.05225 -2.54489 0
M  V30 2716 H 252.278 5.63817 -3.27037 0
M  V30 2717 N 255.711 1.52812 0.385517 0
M  V30 2718 C 256.959 1.67694 1.12797 0
M  V30 2719 C 257.28 0.421115 1.90399 0
M  V30 2720 O 256.55 -0.564551 1.87589 0
M  V30 2721 H 255.13 0.618155 0.419396 0
M  V30 2722 H 257.792 1.89938 0.436972 0
M  V30 2723 H 256.888 2.52896 1.82894 0
M  V30 2724 N 257.189 -0.644168 1.43834 0
M  V30 2725 C 258.417 -1.43147 1.49387 0
M  V30 2726 C 258.832 -1.88452 0.114583 0
M  V30 2727 O 258.189 -1.60047 -0.876989 0
M  V30 2728 C 258.24 -2.66046 2.44748 0
M  V30 2729 O 257.961 -2.22633 3.77314 0
M  V30 2730 C 259.462 -3.59311 2.59635 0
M  V30 2731 H 256.682 -0.439447 0.507077 0
M  V30 2732 H 259.226 -0.78895 1.88669 0
M  V30 2733 H 257.381 -3.26418 2.08638 0
M  V30 2734 H 257.795 -3.02216 4.28679 0
M  V30 2735 H 259.269 -4.42187 3.30416 0
M  V30 2736 H 259.746 -4.07259 1.64427 0
M  V30 2737 H 260.352 -3.04816 2.96593 0
M  V30 2738 N 258.668 -1.30515 -0.883378 0
M  V30 2739 C 259.896 -1.22359 -1.66841 0
M  V30 2740 C 260.311 0.213296 -1.87591 0
M  V30 2741 O 259.668 1.14075 -1.42454 0
M  V30 2742 C 259.719 -1.95011 -3.04389 0
M  V30 2743 O 259.44 -3.3309 -2.84575 0
M  V30 2744 C 260.941 -1.93532 -3.98824 0
M  V30 2745 H 258.161 -0.423371 -0.520575 0
M  V30 2746 H 260.705 -1.72167 -1.10357 0
M  V30 2747 H 258.86 -1.48997 -3.57601 0
M  V30 2748 H 259.274 -3.69907 -3.71846 0
M  V30 2749 H 260.748 -2.48902 -4.92699 0
M  V30 2750 H 261.225 -0.914627 -4.29571 0
M  V30 2751 H 261.831 -2.39364 -3.51547 0
M  V30 2752 N 260.146 1.09593 -1.13257 0
M  V30 2753 C 261.395 1.81105 -0.887917 0
M  V30 2754 C 261.708 1.86563 0.587672 0
M  V30 2755 O 262.914 2.54367 0.949204 0
M  V30 2756 C 261.37 3.25338 -1.53895 0
M  V30 2757 C 260.978 3.28151 -3.04994 0
M  V30 2758 C 262.722 4.01617 -1.37492 0
M  V30 2759 C 260.629 4.66897 -3.6299 0
M  V30 2760 H 259.559 0.678661 -0.328534 0
M  V30 2761 H 262.21 1.23183 -1.36008 0
M  V30 2762 H 260.592 3.8331 -0.994446 0
M  V30 2763 H 261.766 2.79953 -3.66009 0
M  V30 2764 H 260.081 2.65361 -3.20893 0
M  V30 2765 H 262.678 5.04119 -1.78235 0
M  V30 2766 H 263.021 4.15072 -0.31957 0
M  V30 2767 H 263.554 3.50082 -1.88912 0
M  V30 2768 H 260.293 4.58643 -4.68323 0
M  V30 2769 H 259.813 5.15426 -3.06752 0
M  V30 2770 H 261.492 5.3587 -3.62563 0
M  V30 2771 N 261.624 0.925811 1.2754 0
M  V30 2772 C 262.872 0.564138 1.94067 0
M  V30 2773 C 263.193 -0.897188 1.73134 0
M  V30 2774 O 262.463 -1.63573 1.07799 0
M  V30 2775 H 261.043 0.205645 0.718136 0
M  V30 2776 H 263.705 1.1778 1.55287 0
M  V30 2777 H 262.801 0.76881 3.02483 0
M  V30 2778 N 263.102 -1.41638 0.69111 0
M  V30 2779 C 264.349 -2.01299 0.220193 0
M  V30 2780 C 264.677 -1.54715 -1.17871 0
M  V30 2781 O 263.932 -0.747193 -1.80874 0
M  V30 2782 C 264.231 -3.56714 0.221277 0
M  V30 2783 C 263.897 -4.22792 1.56709 0
M  V30 2784 C 262.559 -4.40557 1.93554 0
M  V30 2785 C 264.911 -4.59883 2.45268 0
M  V30 2786 C 262.239 -4.92688 3.18552 0
M  V30 2787 C 264.591 -5.13403 3.69595 0
M  V30 2788 C 263.255 -5.29379 4.06589 0
M  V30 2789 H 262.525 -0.736606 0.0805743 0
M  V30 2790 H 265.172 -1.69598 0.889319 0
M  V30 2791 H 263.477 -3.8818 -0.531391 0
M  V30 2792 H 265.174 -4.00678 -0.160547 0
M  V30 2793 H 261.764 -4.09336 1.2705 0
M  V30 2794 H 265.948 -4.45817 2.18084 0
M  V30 2795 H 261.204 -5.03242 3.47214 0
M  V30 2796 H 265.378 -5.41084 4.38407 0
M  V30 2797 H 263.005 -5.69537 5.03519 0
M  V30 2798 N 264.58 -0.43555 -1.51462 0
M  V30 2799 C 265.829 0.133007 -2.01261 0
M  V30 2800 C 266.142 1.43942 -1.32439 0
M  V30 2801 O 267.348 2.09081 -1.73198 0
M  V30 2802 C 265.804 0.287581 -3.58749 0
M  V30 2803 C 265.412 -1.00829 -4.36506 0
M  V30 2804 C 267.156 0.810004 -4.167 0
M  V30 2805 C 265.063 -0.819454 -5.85695 0
M  V30 2806 H 263.993 0.0534822 -0.752101 0
M  V30 2807 H 266.644 -0.565038 -1.74584 0
M  V30 2808 H 265.026 1.04859 -3.81865 0
M  V30 2809 H 266.2 -1.77749 -4.25138 0
M  V30 2810 H 264.515 -1.45911 -3.89999 0
M  V30 2811 H 267.112 0.967743 -5.2587 0
M  V30 2812 H 267.455 1.79196 -3.75758 0
M  V30 2813 H 267.988 0.107357 -3.97655 0
M  V30 2814 H 264.727 -1.77374 -6.31046 0
M  V30 2815 H 264.247 -0.0900208 -5.99732 0
M  V30 2816 H 265.926 -0.471949 -6.45276 0
M  V30 2817 N 266.058 1.56714 -0.166846 0
M  V30 2818 C 267.021 2.16539 0.751232 0
M  V30 2819 C 268.021 1.11228 1.16125 0
M  V30 2820 O 269.211 1.36765 1.07894 0
M  V30 2821 C 266.343 2.74462 2.02196 0
M  V30 2822 H 267.536 2.99013 0.230499 0
M  V30 2823 H 265.089 1.56081 0.0826982 0
M  V30 2824 H 265.824 1.95709 2.58589 0
M  V30 2825 H 265.609 3.51527 1.73698 0
M  V30 2826 H 267.099 3.20489 2.67725 0
M  V30 2827 N 267.536 -0.106894 1.57237 0
M  V30 2828 C 268.783 -0.812526 1.85484 0
M  V30 2829 C 269.111 -1.79304 0.753687 0
M  V30 2830 O 268.366 -1.94047 -0.253853 0
M  V30 2831 C 268.665 -1.58628 3.20268 0
M  V30 2832 C 268.331 -0.748967 4.44636 0
M  V30 2833 C 266.993 -0.518104 4.78403 0
M  V30 2834 C 269.345 -0.166122 5.20935 0
M  V30 2835 C 266.673 0.305659 5.85903 0
M  V30 2836 C 269.025 0.644899 6.29304 0
M  V30 2837 C 267.689 0.885965 6.61594 0
M  V30 2838 H 266.959 -0.297324 0.678734 0
M  V30 2839 H 269.606 -0.0744332 1.91355 0
M  V30 2840 H 267.911 -2.39562 3.10028 0
M  V30 2841 H 269.608 -2.13643 3.39349 0
M  V30 2842 H 266.198 -0.939006 4.18187 0
M  V30 2843 H 270.382 -0.33167 4.95191 0
M  V30 2844 H 265.638 0.501528 6.0934 0
M  V30 2845 H 269.812 1.10345 6.87602 0
M  V30 2846 H 267.439 1.52609 7.44725 0
M  V30 2847 N 269.014 -1.53014 -0.377408 0
M  V30 2848 C 270.239 -1.72818 -1.14668 0
M  V30 2849 C 270.664 -0.450725 -1.8262 0
M  V30 2850 O 270.022 0.59439 -1.7128 0
M  V30 2851 C 270.07 -2.88627 -2.16164 0
M  V30 2852 O 269.174 -2.56409 -3.22998 0
M  V30 2853 H 268.515 -0.574301 -0.333278 0
M  V30 2854 H 271.045 -1.99853 -0.438152 0
M  V30 2855 H 271.055 -3.14455 -2.59966 0
M  V30 2856 H 269.73 -3.81294 -1.66095 0
M  V30 2857 H 268.307 -2.4136 -2.84253 0
M  V30 2858 N 270.492 0.636531 -1.44174 0
M  V30 2859 C 271.72 1.42353 -1.50144 0
M  V30 2860 C 272.135 1.88389 -0.124575 0
M  V30 2861 O 271.492 1.6051 0.868489 0
M  V30 2862 C 271.543 2.64744 -2.46156 0
M  V30 2863 O 271.264 2.20629 -3.7849 0
M  V30 2864 C 272.765 3.57929 -2.61537 0
M  V30 2865 H 269.985 0.436752 -0.5094 0
M  V30 2866 H 272.529 0.778933 -1.89084 0
M  V30 2867 H 270.684 3.25307 -2.10366 0
M  V30 2868 H 271.098 2.99938 -4.30276 0
M  V30 2869 H 272.572 4.40428 -3.32757 0
M  V30 2870 H 273.049 4.06382 -1.66585 0
M  V30 2871 H 273.655 3.03238 -2.98206 0
M  V30 2872 N 271.97 1.30982 0.876444 0
M  V30 2873 C 272.918 1.18006 2.00443 0
M  V30 2874 C 273.912 0.0898871 1.69161 0
M  V30 2875 O 275.118 0.251333 1.78237 0
M  V30 2876 H 271.493 0.365196 0.65737 0
M  V30 2877 H 273.464 2.13453 2.0852 0
M  V30 2878 C 272.213 0.897521 3.35916 0
M  V30 2879 H 271.536 1.7285 3.60504 0
M  V30 2880 H 272.976 0.846874 4.15456 0
M  V30 2881 C 271.435 -0.399674 3.34521 0
M  V30 2882 O 271.965 -1.41852 3.7582 0
M  V30 2883 N 270.171 -0.413893 2.87637 0
M  V30 2884 H 269.718 0.41571 2.54224 0
M  V30 2885 H 269.676 -1.28175 2.87086 0
M  V30 2886 N 273.449 -1.08991 1.13837 0
M  V30 2887 C 274.86 -1.62746 0.914917 0
M  V30 2888 C 275.211 -1.88403 -0.547594 0
M  V30 2889 O 274.336 -1.63706 -1.41525 0
M  V30 2890 C 274.931 -2.95662 1.65437 0
M  V30 2891 C 273.49 -3.46225 1.47666 0
M  V30 2892 C 272.637 -2.20562 1.6807 0
M  V30 2893 H 275.588 -0.922946 1.29102 0
M  V30 2894 H 275.609 -3.63825 1.11407 0
M  V30 2895 H 275.121 -2.76956 2.71877 0
M  V30 2896 H 273.222 -3.70046 0.435478 0
M  V30 2897 H 273.335 -4.23368 2.24268 0
M  V30 2898 H 271.699 -2.29439 1.10589 0
M  V30 2899 H 272.482 -2.0437 2.7584 0
M  V30 2900 N 274.927 -0.932562 -1.27047 0
M  V30 2901 C 276.152 -0.591474 -1.98787 0
M  V30 2902 C 276.577 0.824601 -1.69062 0
M  V30 2903 O 275.935 1.5541 -0.933677 0
M  V30 2904 C 275.983 -0.829808 -3.50922 0
M  V30 2905 O 275.087 0.102266 -4.12273 0
M  V30 2906 H 274.428 -0.227185 -0.623926 0
M  V30 2907 H 276.958 -1.25314 -1.61733 0
M  V30 2908 H 276.968 -0.747292 -4.01098 0
M  V30 2909 H 275.643 -1.86201 -3.7189 0
M  V30 2910 H 274.22 -0.0305761 -3.72887 0
M  V30 2911 N 276.405 1.4127 -0.698611 0
M  V30 2912 C 277.335 2.33447 -0.049629 0
M  V30 2913 C 278.316 1.51982 0.763898 0
M  V30 2914 O 279.501 1.80509 0.716257 0
M  V30 2915 C 276.631 3.35828 0.885267 0
M  V30 2916 C 275.585 4.27627 0.178613 0
M  V30 2917 C 274.911 5.20406 1.22807 0
M  V30 2918 C 276.211 5.13459 -0.956933 0
M  V30 2919 H 277.905 2.87966 -0.81951 0
M  V30 2920 H 275.451 1.38461 -0.395538 0
M  V30 2921 H 277.404 3.9924 1.34854 0
M  V30 2922 H 276.128 2.79666 1.68685 0
M  V30 2923 H 274.787 3.65643 -0.26466 0
M  V30 2924 H 274.435 4.60558 2.02226 0
M  V30 2925 H 274.135 5.82661 0.760239 0
M  V30 2926 H 275.659 5.86695 1.69179 0
M  V30 2927 H 277.073 5.70421 -0.573805 0
M  V30 2928 H 275.47 5.8467 -1.35205 0
M  V30 2929 H 276.54 4.50443 -1.79524 0
M  V30 2930 N 277.883 0.443576 1.51229 0
M  V30 2931 C 278.846 -0.353132 2.26463 0
M  V30 2932 C 279.846 -0.944338 1.3015 0
M  V30 2933 O 281.036 -0.817813 1.5381 0
M  V30 2934 C 278.168 -1.50023 3.06114 0
M  V30 2935 H 279.361 0.3063 2.98332 0
M  V30 2936 H 276.914 0.196902 1.55055 0
M  V30 2937 H 277.649 -2.19553 2.38677 0
M  V30 2938 H 277.434 -1.08241 3.76864 0
M  V30 2939 H 278.924 -2.06296 3.63087 0
M  V30 2940 N 279.361 -1.56624 0.175154 0
M  V30 2941 C 280.308 -2.18149 -0.753634 0
M  V30 2942 C 281.278 -1.12265 -1.22417 0
M  V30 2943 O 282.463 -1.40432 -1.29165 0
M  V30 2944 C 279.603 -2.82933 -1.97592 0
M  V30 2945 C 278.716 -4.03289 -1.5486 0
M  V30 2946 C 277.851 -4.55988 -2.72485 0
M  V30 2947 C 276.89 -5.68746 -2.26262 0
M  V30 2948 N 276.027 -6.15938 -3.36994 0
M  V30 2949 H 280.867 -2.9717 -0.222195 0
M  V30 2950 H 278.404 -1.46774 -0.0979422 0
M  V30 2951 H 280.362 -3.18653 -2.69288 0
M  V30 2952 H 278.992 -2.06509 -2.481 0
M  V30 2953 H 278.044 -3.73364 -0.728246 0
M  V30 2954 H 279.356 -4.849 -1.16933 0
M  V30 2955 H 278.51 -4.9391 -3.52332 0
M  V30 2956 H 277.249 -3.73443 -3.13674 0
M  V30 2957 H 276.254 -5.30372 -1.44863 0
M  V30 2958 H 277.479 -6.53095 -1.86127 0
M  V30 2959 H 275.425 -5.36321 -3.77751 0
M  V30 2960 H 275.342 -6.92548 -3.03172 0
M  V30 2961 H 276.61 -6.58511 -4.17114 0
M  V30 2962 N 280.839 0.0985539 -1.57292 0
M  V30 2963 C 282.255 0.45267 -1.53046 0
M  V30 2964 C 282.455 1.80713 -0.891342 0
M  V30 2965 O 281.511 2.4785 -0.482375 0
M  V30 2966 C 282.824 0.418341 -2.97776 0
M  V30 2967 C 284.372 0.500443 -3.08973 0
M  V30 2968 C 284.847 0.496297 -4.55303 0
M  V30 2969 N 286.338 0.557151 -4.59837 0
M  V30 2970 C 287.073 0.575726 -5.70502 0
M  V30 2971 N 286.569 0.550714 -6.90608 0
M  V30 2972 N 288.362 0.620277 -5.58667 0
M  V30 2973 H 280.513 -0.788673 -1.97215 0
M  V30 2974 H 282.776 -0.293188 -0.901524 0
M  V30 2975 H 282.482 -0.509659 -3.47988 0
M  V30 2976 H 282.356 1.2386 -3.56284 0
M  V30 2977 H 284.743 1.41886 -2.58751 0
M  V30 2978 H 284.824 -0.347894 -2.53423 0
M  V30 2979 H 284.468 -0.418162 -5.06176 0
M  V30 2980 H 284.398 1.3618 -5.08687 0
M  V30 2981 H 286.889 0.581816 -3.73394 0
M  V30 2982 H 287.202 0.568075 -7.70709 0
M  V30 2983 H 285.547 0.517816 -6.93068 0
M  V30 2984 H 288.738 0.637322 -4.63741 0
M  V30 2985 H 288.911 0.631283 -6.44918 0
M  V30 2986 N 282.317 1.53212 0.369288 0
M  V30 2987 C 283.566 1.68436 1.10961 0
M  V30 2988 C 283.879 0.440738 1.9057 0
M  V30 2989 O 285.085 0.473446 2.6734 0
M  V30 2990 C 283.541 2.97744 2.0218 0
M  V30 2991 C 283.149 4.29355 1.279 0
M  V30 2992 C 284.893 3.22334 2.76226 0
M  V30 2993 C 282.8 5.49755 2.17999 0
M  V30 2994 H 281.73 0.627568 0.41794 0
M  V30 2995 H 284.381 1.79713 0.370884 0
M  V30 2996 H 282.763 2.8026 2.79768 0
M  V30 2997 H 283.937 4.57458 0.554007 0
M  V30 2998 H 282.252 4.11179 0.657311 0
M  V30 2999 H 284.849 4.09471 3.43857 0
M  V30 3000 H 285.192 2.38238 3.41392 0
M  V30 3001 H 285.725 3.40475 2.05723 0
M  V30 3002 H 282.464 6.36318 1.57417 0
M  V30 3003 H 281.984 5.25937 2.88359 0
M  V30 3004 H 283.663 5.84401 2.77641 0
M  V30 3005 N 283.795 -0.628877 1.44509 0
M  V30 3006 C 284.742 -1.74074 1.51549 0
M  V30 3007 C 285.712 -1.62084 0.363021 0
M  V30 3008 O 286.897 -1.81975 0.573567 0
M  V30 3009 C 284.037 -3.12328 1.46784 0
M  V30 3010 C 283.15 -3.35277 2.72422 0
M  V30 3011 C 282.285 -4.63515 2.59475 0
M  V30 3012 C 281.324 -4.7965 3.80266 0
M  V30 3013 N 280.461 -5.99168 3.65981 0
M  V30 3014 H 285.301 -1.67392 2.46544 0
M  V30 3015 H 282.838 -0.816527 1.22357 0
M  V30 3016 H 284.796 -3.92286 1.42012 0
M  V30 3017 H 283.426 -3.18018 0.553544 0
M  V30 3018 H 282.478 -2.49242 2.87372 0
M  V30 3019 H 283.79 -3.43078 3.62076 0
M  V30 3020 H 282.944 -5.51638 2.52548 0
M  V30 3021 H 281.683 -4.58076 1.67384 0
M  V30 3022 H 280.688 -3.89957 3.87574 0
M  V30 3023 H 281.913 -4.86902 4.73395 0
M  V30 3024 H 279.859 -5.94814 2.76644 0
M  V30 3025 H 279.776 -6.08035 4.49254 0
M  V30 3026 H 281.044 -6.89846 3.6295 0
M  V30 3027 N 285.273 -1.31445 -0.869486 0
M  V30 3028 C 286.501 -1.24122 -1.65534 0
M  V30 3029 C 286.916 0.193387 -1.87807 0
M  V30 3030 O 286.273 1.12557 -1.43656 0
M  V30 3031 C 286.324 -1.98229 -3.02304 0
M  V30 3032 O 286.045 -3.3609 -2.81026 0
M  V30 3033 C 287.546 -1.97751 -3.96749 0
M  V30 3034 H 284.766 -0.428868 -0.516055 0
M  V30 3035 H 287.31 -1.73328 -1.08525 0
M  V30 3036 H 285.465 -1.52782 -3.56001 0
M  V30 3037 H 285.879 -3.7383 -3.67902 0
M  V30 3038 H 287.353 -2.54114 -4.90031 0
M  V30 3039 H 287.83 -0.960137 -4.28577 0
M  V30 3040 H 288.436 -2.43079 -3.48988 0
M  V30 3041 N 286.751 1.08385 -1.14413 0
M  V30 3042 C 287.998 1.80776 -0.912482 0
M  V30 3043 C 288.326 1.86236 0.560934 0
M  V30 3044 O 287.581 1.33431 1.43159 0
M  V30 3045 C 287.88 3.26273 -1.45879 0
M  V30 3046 C 287.546 3.4093 -2.95089 0
M  V30 3047 C 286.208 3.44638 -3.35824 0
M  V30 3048 C 288.56 3.44591 -3.91033 0
M  V30 3049 C 285.888 3.49597 -4.71167 0
M  V30 3050 C 288.24 3.51086 -5.26233 0
M  V30 3051 C 286.904 3.53067 -5.6648 0
M  V30 3052 H 286.174 0.661507 -0.333901 0
M  V30 3053 H 288.821 1.27613 -1.42784 0
M  V30 3054 H 287.126 3.82146 -0.864376 0
M  V30 3055 H 288.823 3.80839 -1.2555 0
M  V30 3056 H 285.413 3.38736 -2.62594 0
M  V30 3057 H 289.597 3.40957 -3.60641 0
M  V30 3058 H 284.853 3.49424 -5.0171 0
M  V30 3059 H 289.027 3.52864 -6.00383 0
M  V30 3060 H 286.654 3.56662 -6.71339 0
M  V30 3061 N 288.23 0.939286 1.26551 0
M  V30 3062 C 289.46 0.601663 1.97645 0
M  V30 3063 C 289.868 -0.827206 1.70159 0
M  V30 3064 O 289.211 -1.56291 0.965338 0
M  V30 3065 C 289.273 0.761725 3.51337 0
M  V30 3066 C 288.937 2.16487 4.0247 0
M  V30 3067 C 289.934 3.14016 4.14355 0
M  V30 3068 C 287.619 2.48494 4.36527 0
M  V30 3069 C 289.613 4.41654 4.59587 0
M  V30 3070 C 287.3 3.76364 4.81449 0
M  V30 3071 C 288.298 4.72758 4.92939 0
M  V30 3072 O 287.986 5.98352 5.36871 0
M  V30 3073 H 287.718 0.225758 0.637189 0
M  V30 3074 H 290.272 1.26178 1.62075 0
M  V30 3075 H 288.502 0.0444808 3.86674 0
M  V30 3076 H 290.191 0.427442 4.03643 0
M  V30 3077 H 290.957 2.90613 3.8829 0
M  V30 3078 H 286.836 1.74202 4.26819 0
M  V30 3079 H 290.38 5.16896 4.68471 0
M  V30 3080 H 286.277 3.99582 5.06956 0
M  V30 3081 H 287.045 6.01507 5.55096 0
M  V30 3082 N 289.708 -1.40897 0.706093 0
M  V30 3083 C 290.671 -2.29131 0.0562841 0
M  V30 3084 C 291.671 -1.44901 -0.697166 0
M  V30 3085 O 292.861 -1.65926 -0.530484 0
M  V30 3086 C 289.993 -3.27957 -0.93043 0
M  V30 3087 H 291.186 -2.88091 0.833284 0
M  V30 3088 H 288.739 -1.4906 0.470192 0
M  V30 3089 H 289.474 -2.73997 -1.73482 0
M  V30 3090 H 289.259 -3.90124 -0.393166 0
M  V30 3091 H 290.749 -3.94049 -1.38256 0
M  V30 3092 N 291.186 -0.45159 -1.50991 0
M  V30 3093 C 292.116 0.342898 -2.30969 0
M  V30 3094 C 293.097 1.00815 -1.37005 0
M  V30 3095 O 294.282 1.00907 -1.65926 0
M  V30 3096 C 291.412 1.43637 -3.16205 0
M  V30 3097 C 290.366 0.893818 -4.18563 0
M  V30 3098 C 289.692 2.08411 -4.92411 0
M  V30 3099 C 290.992 -0.0815568 -5.22236 0
M  V30 3100 H 292.686 -0.324556 -2.97636 0
M  V30 3101 H 290.232 -0.157531 -1.43136 0
M  V30 3102 H 292.185 1.9995 -3.70942 0
M  V30 3103 H 290.909 2.13232 -2.47386 0
M  V30 3104 H 289.568 0.352798 -3.64898 0
M  V30 3105 H 289.216 2.76658 -4.20082 0
M  V30 3106 H 288.916 1.72741 -5.61636 0
M  V30 3107 H 290.44 2.65251 -5.49976 0
M  V30 3108 H 291.854 0.391742 -5.7196 0
M  V30 3109 H 290.251 -0.351551 -5.99069 0
M  V30 3110 H 291.321 -1.01374 -4.74185 0
M  V30 3111 N 292.664 1.56529 -0.183458 0
M  V30 3112 C 293.627 2.17324 0.728223 0
M  V30 3113 C 294.627 1.12453 1.14939 0
M  V30 3114 O 295.817 1.37902 1.06437 0
M  V30 3115 C 292.949 2.76591 1.99274 0
M  V30 3116 H 294.142 2.99241 0.198772 0
M  V30 3117 H 291.695 1.5616 0.0661391 0
M  V30 3118 H 292.43 1.98441 2.56499 0
M  V30 3119 H 292.215 3.5335 1.69959 0
M  V30 3120 H 293.705 3.23311 2.6431 0
M  V30 3121 N 294.142 -0.090211 1.57342 0
M  V30 3122 C 295.553 -0.644173 1.75235 0
M  V30 3123 C 295.904 -1.78865 0.806335 0
M  V30 3124 O 295.029 -2.16395 -0.0140128 0
M  V30 3125 C 295.624 -1.17532 3.1776 0
M  V30 3126 C 294.183 -1.67531 3.37061 0
M  V30 3127 C 293.33 -0.58693 2.71017 0
M  V30 3128 H 296.281 0.135884 1.58117 0
M  V30 3129 H 296.302 -2.04455 3.20902 0
M  V30 3130 H 295.814 -0.342138 3.86589 0
M  V30 3131 H 293.915 -2.53234 2.73319 0
M  V30 3132 H 294.028 -1.76493 4.45406 0
M  V30 3133 H 292.392 -1.02756 2.33052 0
M  V30 3134 H 293.175 0.235758 3.4249 0
M  V30 3135 N 295.62 -1.53406 -0.361157 0
M  V30 3136 C 296.866 -1.70054 -1.10496 0
M  V30 3137 C 297.199 -0.453278 -1.88836 0
M  V30 3138 O 296.474 0.5495 -1.86576 0
M  V30 3139 C 296.757 -2.95317 -2.06058 0
M  V30 3140 C 296.61 -4.3021 -1.31298 0
M  V30 3141 C 297.929 -3.16193 -3.06121 0
M  V30 3142 H 295.048 -0.618799 -0.400321 0
M  V30 3143 H 297.69 -1.86052 -0.385318 0
M  V30 3144 H 295.84 -2.81809 -2.67425 0
M  V30 3145 H 297.512 -4.55538 -0.726807 0
M  V30 3146 H 295.755 -4.29421 -0.614853 0
M  V30 3147 H 296.426 -5.14 -2.01265 0
M  V30 3148 H 298.902 -3.28916 -2.5486 0
M  V30 3149 H 297.778 -4.05266 -3.70204 0
M  V30 3150 H 298.039 -2.31676 -3.76535 0
M  V30 3151 N 297.098 0.621204 -1.44841 0
M  V30 3152 C 298.061 1.71459 -1.521 0
M  V30 3153 C 299.061 1.55696 -0.401933 0
M  V30 3154 O 300.251 1.61011 -0.664925 0
M  V30 3155 C 297.383 3.10624 -1.40447 0
M  V30 3156 H 298.576 1.66394 -2.49506 0
M  V30 3157 H 296.129 0.835745 -1.3208 0
M  V30 3158 H 296.864 3.21277 -0.441737 0
M  V30 3159 H 296.649 3.23473 -2.21602 0
M  V30 3160 H 298.139 3.90293 -1.4853 0
M  V30 3161 N 298.576 1.31904 0.862503 0
M  V30 3162 C 299.804 1.24998 1.64873 0
M  V30 3163 C 300.219 -0.183425 1.87907 0
M  V30 3164 O 299.576 -1.11794 1.44251 0
M  V30 3165 C 299.627 1.99829 3.01248 0
M  V30 3166 O 299.348 3.37575 2.79239 0
M  V30 3167 C 300.849 1.99852 3.95694 0
M  V30 3168 H 298.069 0.431599 0.513773 0
M  V30 3169 H 300.613 1.73901 1.07604 0
M  V30 3170 H 298.768 1.54668 3.55185 0
M  V30 3171 H 299.182 3.75776 3.65914 0
M  V30 3172 H 300.656 2.56709 4.88676 0
M  V30 3173 H 301.133 0.982852 4.28062 0
M  V30 3174 H 301.739 2.44926 3.47694 0
M  V30 3175 N 300.054 -1.07777 1.14986 0
M  V30 3176 C 301.3 -1.80557 0.923422 0
M  V30 3177 C 301.633 -1.86298 -0.548337 0
M  V30 3178 O 300.908 -1.34354 -1.40639 0
M  V30 3179 C 301.191 -3.25839 1.53299 0
M  V30 3180 C 301.044 -3.28269 3.07505 0
M  V30 3181 C 302.363 -4.22991 1.21518 0
M  V30 3182 H 299.482 -0.655493 0.336894 0
M  V30 3183 H 302.124 -1.26144 1.42083 0
M  V30 3184 H 300.274 -3.72306 1.10999 0
M  V30 3185 H 301.946 -2.90079 3.58681 0
M  V30 3186 H 300.189 -2.67355 3.4162 0
M  V30 3187 H 300.86 -4.30691 3.45266 0
M  V30 3188 H 303.336 -3.84894 1.581 0
M  V30 3189 H 302.212 -5.22945 1.66793 0
M  V30 3190 H 302.473 -4.41904 0.131505 0
M  V30 3191 N 301.532 -0.945985 -1.26051 0
M  V30 3192 C 302.479 -0.45809 -2.26208 0
M  V30 3193 C 303.449 0.484816 -1.58867 0
M  V30 3194 O 304.634 0.399969 -1.86561 0
M  V30 3195 C 301.774 0.266131 -3.44072 0
M  V30 3196 C 300.887 -0.713005 -4.26075 0
M  V30 3197 C 300.022 0.0329013 -5.3119 0
M  V30 3198 C 299.061 -0.93774 -6.04874 0
M  V30 3199 N 298.198 -0.223274 -7.01745 0
M  V30 3200 H 303.038 -1.3171 -2.67313 0
M  V30 3201 H 300.575 -0.66069 -1.31428 0
M  V30 3202 H 302.533 0.702514 -4.11243 0
M  V30 3203 H 301.163 1.08925 -3.03867 0
M  V30 3204 H 300.215 -1.26789 -3.58648 0
M  V30 3205 H 301.527 -1.45406 -4.77136 0
M  V30 3206 H 300.681 0.528335 -6.04395 0
M  V30 3207 H 299.42 0.806801 -4.8098 0
M  V30 3208 H 298.425 -1.44425 -5.30492 0
M  V30 3209 H 299.65 -1.71172 -6.57173 0
M  V30 3210 H 297.596 0.532046 -6.53839 0
M  V30 3211 H 297.513 -0.90357 -7.50581 0
M  V30 3212 H 298.781 0.250907 -7.79096 0
M  V30 3213 N 303.011 1.40521 -0.713556 0
M  V30 3214 C 304.241 2.0494 -0.261395 0
M  V30 3215 C 304.649 1.53861 1.10107 0
M  V30 3216 O 303.992 0.689321 1.70276 0
M  V30 3217 C 304.054 3.59138 -0.161227 0
M  V30 3218 C 303.718 4.33096 -1.45865 0
M  V30 3219 C 304.715 4.61182 -2.40016 0
M  V30 3220 C 302.4 4.72043 -1.71701 0
M  V30 3221 C 304.394 5.27196 -3.58251 0
M  V30 3222 C 302.081 5.37789 -2.90218 0
M  V30 3223 C 303.079 5.65295 -3.83315 0
M  V30 3224 O 302.767 6.29683 -4.99754 0
M  V30 3225 H 302.499 0.666041 -0.115608 0
M  V30 3226 H 305.053 1.80954 -0.971849 0
M  V30 3227 H 303.283 3.81936 0.605153 0
M  V30 3228 H 304.972 4.05091 0.256105 0
M  V30 3229 H 305.738 4.31559 -2.21318 0
M  V30 3230 H 301.617 4.50003 -1.00092 0
M  V30 3231 H 305.161 5.48582 -4.30934 0
M  V30 3232 H 301.058 5.66831 -3.08825 0
M  V30 3233 H 301.826 6.4818 -4.99805 0
M  V30 3234 N 304.489 0.459591 1.5075 0
M  V30 3235 C 305.717 -0.0973749 2.06671 0
M  V30 3236 C 306.132 -1.34524 1.32472 0
M  V30 3237 O 305.489 -1.7827 0.390634 0
M  V30 3238 C 305.54 -0.39714 3.59312 0
M  V30 3239 O 305.261 0.801214 4.30711 0
M  V30 3240 C 306.762 -1.00234 4.31819 0
M  V30 3241 H 303.982 0.00195854 0.670997 0
M  V30 3242 H 306.526 0.645072 1.94059 0
M  V30 3243 H 304.681 -1.08951 3.71764 0
M  V30 3244 H 305.095 0.538857 5.21725 0
M  V30 3245 H 306.569 -1.16193 5.39632 0
M  V30 3246 H 307.046 -1.98939 3.91561 0
M  V30 3247 H 307.652 -0.348699 4.23868 0
M  V30 3248 N 305.967 -1.56429 0.191757 0
M  V30 3249 C 306.914 -2.18936 -0.730454 0
M  V30 3250 C 307.884 -1.13557 -1.21219 0
M  V30 3251 O 309.069 -1.41794 -1.27668 0
M  V30 3252 C 306.209 -2.85013 -1.9458 0
M  V30 3253 C 305.322 -4.04909 -1.50574 0
M  V30 3254 C 304.457 -4.58853 -2.67634 0
M  V30 3255 C 303.496 -5.71114 -2.20217 0
M  V30 3256 N 302.633 -6.19478 -3.30442 0
M  V30 3257 H 307.473 -2.97389 -0.190664 0
M  V30 3258 H 305.01 -1.46869 -0.0823694 0
M  V30 3259 H 306.968 -3.21492 -2.65893 0
M  V30 3260 H 305.598 -2.09129 -2.45896 0
M  V30 3261 H 304.65 -3.74115 -0.688605 0
M  V30 3262 H 305.962 -4.86113 -1.11784 0
M  V30 3263 H 305.116 -4.97619 -3.47074 0
M  V30 3264 H 303.855 -3.76749 -3.09696 0
M  V30 3265 H 302.86 -5.31879 -1.3923 0
M  V30 3266 H 304.085 -6.55033 -1.79189 0
M  V30 3267 H 302.031 -5.40297 -3.72041 0
M  V30 3268 H 301.948 -6.95725 -2.9581 0
M  V30 3269 H 303.216 -6.62898 -4.10106 0
M  V30 3270 N 307.445 0.0818655 -1.57387 0
M  V30 3271 C 308.67 0.799946 -1.91352 0
M  V30 3272 C 309.095 1.70833 -0.787258 0
M  V30 3273 O 308.453 1.79419 0.26048 0
M  V30 3274 C 308.501 1.57812 -3.24234 0
M  V30 3275 O 307.605 2.68806 -3.12757 0
M  V30 3276 H 306.946 0.21891 -0.626877 0
M  V30 3277 H 309.476 0.0531256 -2.04531 0
M  V30 3278 H 309.486 1.95952 -3.57864 0
M  V30 3279 H 308.161 0.911548 -4.05788 0
M  V30 3280 H 306.738 2.33597 -2.90666 0
M  V30 3281 N 308.923 1.53595 0.353017 0
M  V30 3282 C 309.853 1.83902 1.43883 0
M  V30 3283 C 310.834 0.693421 1.55324 0
M  V30 3284 O 312.019 0.944452 1.69687 0
M  V30 3285 C 309.149 2.04016 2.8106 0
M  V30 3286 C 308.103 3.19814 2.84434 0
M  V30 3287 C 307.429 3.25244 4.24406 0
M  V30 3288 C 308.729 4.58133 2.50822 0
M  V30 3289 H 310.423 2.74835 1.1877 0
M  V30 3290 H 307.969 1.32242 0.569917 0
M  V30 3291 H 309.922 2.238 3.57059 0
M  V30 3292 H 308.646 1.09804 3.07588 0
M  V30 3293 H 307.305 2.9987 2.10887 0
M  V30 3294 H 306.953 2.28646 4.48029 0
M  V30 3295 H 306.653 4.03054 4.27576 0
M  V30 3296 H 308.177 3.47228 5.0226 0
M  V30 3297 H 309.591 4.77995 3.16534 0
M  V30 3298 H 307.988 5.38276 2.6529 0
M  V30 3299 H 309.058 4.62387 1.46034 0
M  V30 3300 N 310.401 -0.613514 1.45168 0
M  V30 3301 C 311.65 -1.36874 1.4815 0
M  V30 3302 C 311.963 -1.952 0.124982 0
M  V30 3303 O 313.169 -2.71481 0.0324176 0
M  V30 3304 C 311.625 -2.47905 2.60904 0
M  V30 3305 C 311.233 -1.96016 4.02842 0
M  V30 3306 C 312.977 -3.24965 2.73126 0
M  V30 3307 C 310.884 -3.04494 5.06988 0
M  V30 3308 H 309.814 -0.514428 0.551253 0
M  V30 3309 H 312.465 -0.658182 1.7129 0
M  V30 3310 H 310.847 -3.21618 2.31037 0
M  V30 3311 H 312.021 -1.29051 4.4236 0
M  V30 3312 H 310.336 -1.31719 3.95018 0
M  V30 3313 H 312.933 -4.05865 3.48106 0
M  V30 3314 H 313.276 -3.75588 1.79553 0
M  V30 3315 H 313.809 -2.5835 3.0249 0
M  V30 3316 H 310.548 -2.58795 6.0225 0
M  V30 3317 H 310.068 -3.70044 4.72046 0
M  V30 3318 H 311.747 -3.68976 5.31475 0
M  V30 3319 N 311.879 -1.3236 -0.855495 0
M  V30 3320 C 312.827 -1.2118 -1.9854 0
M  V30 3321 C 313.821 -0.116788 -1.68997 0
M  V30 3322 O 315.027 -0.279657 -1.77814 0
M  V30 3323 H 311.402 -0.375608 -0.651477 0
M  V30 3324 H 313.373 -2.16743 -2.05098 0
M  V30 3325 C 312.122 -0.950849 -3.34446 0
M  V30 3326 H 311.445 -1.78563 -3.57708 0
M  V30 3327 H 312.885 -0.912863 -4.14057 0
M  V30 3328 C 311.344 0.346404 -3.35114 0
M  V30 3329 O 311.874 1.35855 -3.7803 0
M  V30 3330 N 310.08 0.36808 -2.88259 0
M  V30 3331 H 309.627 -0.456102 -2.5353 0
M  V30 3332 H 309.585 1.23591 -2.89089 0
M  V30 3333 N 313.357 1.07166 -1.15556 0
M  V30 3334 C 314.304 2.14417 -0.854055 0
M  V30 3335 C 315.274 1.64965 0.193806 0
M  V30 3336 O 316.459 1.90703 0.0609443 0
M  V30 3337 C 313.599 3.43304 -0.351574 0
M  V30 3338 C 312.712 4.06537 -1.46123 0
M  V30 3339 C 311.847 5.23266 -0.914677 0
M  V30 3340 C 310.886 5.78464 -2.00114 0
M  V30 3341 N 310.023 6.86521 -1.47083 0
M  V30 3342 H 314.863 2.39548 -1.77259 0
M  V30 3343 H 312.4 1.17543 -0.884425 0
M  V30 3344 H 314.358 4.17179 -0.0419409 0
M  V30 3345 H 312.988 3.18419 0.530037 0
M  V30 3346 H 312.04 3.30297 -1.88701 0
M  V30 3347 H 313.352 4.43567 -2.28144 0
M  V30 3348 H 312.506 6.04131 -0.557698 0
M  V30 3349 H 311.245 4.87658 -0.0636583 0
M  V30 3350 H 310.25 4.96243 -2.36692 0
M  V30 3351 H 311.475 6.16126 -2.85597 0
M  V30 3352 H 309.421 6.52849 -0.642198 0
M  V30 3353 H 309.338 7.22446 -2.22729 0
M  V30 3354 H 310.606 7.71087 -1.14215 0
M  V30 3355 N 314.835 0.952656 1.25548 0
M  V30 3356 C 315.765 0.489287 2.28316 0
M  V30 3357 C 316.746 -0.463359 1.63667 0
M  V30 3358 O 317.931 -0.36274 1.90782 0
M  V30 3359 C 315.061 -0.235603 3.465 0
M  V30 3360 C 314.015 0.631593 4.23314 0
M  V30 3361 C 313.341 -0.223923 5.34231 0
M  V30 3362 C 314.641 1.90871 4.86174 0
M  V30 3363 H 316.335 1.34822 2.67326 0
M  V30 3364 H 313.881 0.649728 1.28509 0
M  V30 3365 H 315.834 -0.570882 4.17515 0
M  V30 3366 H 314.558 -1.12877 3.06474 0
M  V30 3367 H 313.217 0.949929 3.54079 0
M  V30 3368 H 312.865 -1.11678 4.90446 0
M  V30 3369 H 312.565 0.35299 5.86539 0
M  V30 3370 H 314.089 -0.554214 6.0808 0
M  V30 3371 H 315.503 1.63997 5.49343 0
M  V30 3372 H 313.9 2.43112 5.4865 0
M  V30 3373 H 314.97 2.61304 4.08471 0
M  V30 3374 N 316.313 -1.40141 0.720998 0
M  V30 3375 C 317.729 -1.54632 0.395113 0
M  V30 3376 C 317.929 -1.69115 -1.09555 0
M  V30 3377 O 316.985 -1.68377 -1.88163 0
M  V30 3378 C 318.298 -2.77177 1.1659 0
M  V30 3379 C 319.846 -2.91 1.15274 0
M  V30 3380 C 320.321 -4.16465 1.90579 0
M  V30 3381 N 321.812 -4.23476 1.87675 0
M  V30 3382 C 322.547 -5.19475 2.42762 0
M  V30 3383 N 322.043 -6.21348 3.06428 0
M  V30 3384 N 323.836 -5.11592 2.32874 0
M  V30 3385 H 315.987 -1.28986 1.68749 0
M  V30 3386 H 318.25 -0.62412 0.713567 0
M  V30 3387 H 317.956 -2.72771 2.22011 0
M  V30 3388 H 317.83 -3.69442 0.76108 0
M  V30 3389 H 320.217 -2.94907 0.106702 0
M  V30 3390 H 320.298 -1.99838 1.59682 0
M  V30 3391 H 319.942 -4.1332 2.95176 0
M  V30 3392 H 319.872 -5.06646 1.43587 0
M  V30 3393 H 322.363 -3.50497 1.41281 0
M  V30 3394 H 322.676 -6.91034 3.45965 0
M  V30 3395 H 321.021 -6.21777 3.10514 0
M  V30 3396 H 324.212 -4.30936 1.82789 0
M  V30 3397 H 324.385 -5.86233 2.76106 0
M  V30 3398 N 317.792 -0.46758 -1.50504 0
M  V30 3399 C 319.039 0.0886219 -2.02306 0
M  V30 3400 C 319.367 1.40037 -1.34981 0
M  V30 3401 O 318.622 1.90136 -0.463318 0
M  V30 3402 C 318.921 0.323995 -3.55928 0
M  V30 3403 C 318.587 -0.905618 -4.41712 0
M  V30 3404 C 317.249 -1.24275 -4.64875 0
M  V30 3405 C 319.601 -1.72448 -4.91845 0
M  V30 3406 C 316.929 -2.39888 -5.35417 0
M  V30 3407 C 319.281 -2.87185 -5.63656 0
M  V30 3408 C 317.945 -3.21317 -5.85074 0
M  V30 3409 H 317.215 0.0324291 -0.74029 0
M  V30 3410 H 319.862 -0.620945 -1.81153 0
M  V30 3411 H 318.167 1.11577 -3.75577 0
M  V30 3412 H 319.864 0.76826 -3.93572 0
M  V30 3413 H 316.454 -0.632956 -4.239 0
M  V30 3414 H 320.638 -1.4772 -4.73806 0
M  V30 3415 H 315.894 -2.66611 -5.50208 0
M  V30 3416 H 320.068 -3.50985 -6.01484 0
M  V30 3417 H 317.695 -4.1101 -6.39511 0
M  V30 3418 N 319.27 1.56325 -0.20005 0
M  V30 3419 C 320.516 1.98012 0.438059 0
M  V30 3420 C 320.849 1.08702 1.60927 0
M  V30 3421 O 320.124 0.140064 1.93995 0
M  V30 3422 C 320.407 3.48841 0.893419 0
M  V30 3423 C 320.26 4.48928 -0.279947 0
M  V30 3424 C 321.579 4.03498 1.75719 0
M  V30 3425 H 318.698 0.719918 0.157757 0
M  V30 3426 H 321.34 1.87743 -0.291968 0
M  V30 3427 H 319.49 3.57723 1.51547 0
M  V30 3428 H 321.162 4.52079 -0.91772 0
M  V30 3429 H 319.405 4.23694 -0.930919 0
M  V30 3430 H 320.076 5.5194 0.0812601 0
M  V30 3431 H 322.552 3.97427 1.23253 0
M  V30 3432 H 321.428 5.09393 2.04476 0
M  V30 3433 H 321.689 3.4906 2.71311 0
M  V30 3434 N 320.748 -0.0735177 1.57428 0
M  V30 3435 C 322.159 -0.625551 1.75908 0
M  V30 3436 C 322.51 -1.78 0.825261 0
M  V30 3437 O 321.635 -2.16398 0.00893964 0
M  V30 3438 C 322.23 -1.14155 3.18989 0
M  V30 3439 C 320.789 -1.63946 3.38819 0
M  V30 3440 C 319.936 -0.558151 2.71625 0
M  V30 3441 H 322.887 0.152647 1.57964 0
M  V30 3442 H 322.908 -2.0104 3.23053 0
M  V30 3443 H 322.42 -0.301116 3.8693 0
M  V30 3444 H 320.521 -2.50321 2.7599 0
M  V30 3445 H 320.634 -1.71759 4.47253 0
M  V30 3446 H 318.998 -1.00278 2.34129 0
M  V30 3447 H 319.781 0.272071 3.4222 0
M  V30 3448 N 322.226 -1.5378 -0.344866 0
M  V30 3449 C 323.158 -1.77988 -1.44406 0
M  V30 3450 C 324.171 -0.661138 -1.48771 0
M  V30 3451 O 325.36 -0.937842 -1.51877 0
M  V30 3452 C 322.46 -1.86345 -2.8307 0
M  V30 3453 C 321.633 -3.16256 -3.0216 0
M  V30 3454 C 320.692 -3.15588 -4.21059 0
M  V30 3455 O 319.718 -3.89314 -4.15239 0
M  V30 3456 N 320.92 -2.37864 -5.29529 0
M  V30 3457 H 323.685 -2.72839 -1.24012 0
M  V30 3458 H 321.246 -1.52814 -0.534737 0
M  V30 3459 H 323.238 -1.83351 -3.60783 0
M  V30 3460 H 321.808 -0.986858 -2.96614 0
M  V30 3461 H 321.028 -3.32385 -2.11929 0
M  V30 3462 H 322.316 -4.0207 -3.11797 0
M  V30 3463 H 321.714 -1.77514 -5.37127 0
M  V30 3464 H 320.271 -2.40668 -6.05741 0
M  V30 3465 N 323.704 0.605807 -1.45491 0
M  V30 3466 C 324.929 1.39625 -1.53361 0
M  V30 3467 C 325.354 1.87351 -0.167645 0
M  V30 3468 O 324.712 1.60243 0.848051 0
M  V30 3469 C 324.76 2.57559 -2.5238 0
M  V30 3470 O 323.864 3.58248 -2.04285 0
M  V30 3471 H 323.205 0.416771 -0.516912 0
M  V30 3472 H 325.735 0.737103 -1.90861 0
M  V30 3473 H 325.745 3.0478 -2.71244 0
M  V30 3474 H 324.42 2.22171 -3.51586 0
M  V30 3475 H 322.997 3.17664 -1.95305 0
M  V30 3476 N 325.182 1.32811 0.848464 0
M  V30 3477 C 326.112 1.24882 1.97299 0
M  V30 3478 C 327.093 0.131357 1.69592 0
M  V30 3479 O 328.278 0.319553 1.91553 0
M  V30 3480 C 325.408 0.97746 3.33261 0
M  V30 3481 C 324.362 2.05682 3.75338 0
M  V30 3482 C 323.688 1.63777 5.09 0
M  V30 3483 C 324.988 3.47254 3.90144 0
M  V30 3484 H 326.682 2.18966 2.04191 0
M  V30 3485 H 324.228 1.05413 0.981029 0
M  V30 3486 H 326.181 0.908513 4.1149 0
M  V30 3487 H 324.905 0.000980011 3.266 0
M  V30 3488 H 323.564 2.11603 2.99366 0
M  V30 3489 H 323.212 0.648569 4.98801 0
M  V30 3490 H 322.912 2.36 5.38124 0
M  V30 3491 H 324.436 1.5833 5.89715 0
M  V30 3492 H 325.85 3.43888 4.58709 0
M  V30 3493 H 324.247 4.1788 4.30693 0
M  V30 3494 H 325.317 3.86462 2.92874 0
M  V30 3495 N 326.66 -1.06551 1.16123 0
M  V30 3496 C 327.907 -1.79302 0.941126 0
M  V30 3497 C 328.235 -1.87105 -0.531235 0
M  V30 3498 O 327.49 -1.35692 -1.41018 0
M  V30 3499 C 327.789 -3.23911 1.51052 0
M  V30 3500 C 327.455 -3.36193 3.00475 0
M  V30 3501 C 326.117 -3.39252 3.41265 0
M  V30 3502 C 328.469 -3.38326 3.96465 0
M  V30 3503 C 325.797 -3.42057 4.76669 0
M  V30 3504 C 328.149 -3.4267 5.31752 0
M  V30 3505 C 326.813 -3.4401 5.72026 0
M  V30 3506 H 326.083 -0.656111 0.344382 0
M  V30 3507 H 328.73 -1.25325 1.44796 0
M  V30 3508 H 327.035 -3.80723 0.925063 0
M  V30 3509 H 328.732 -3.78793 1.31593 0
M  V30 3510 H 325.322 -3.34516 2.6795 0
M  V30 3511 H 329.506 -3.35176 3.6602 0
M  V30 3512 H 324.762 -3.41398 5.07206 0
M  V30 3513 H 328.936 -3.43268 6.05921 0
M  V30 3514 H 326.563 -3.45937 6.76928 0
M  V30 3515 N 328.138 -0.959301 -1.25041 0
M  V30 3516 C 329.085 -0.482057 -2.2571 0
M  V30 3517 C 330.055 0.467939 -1.59372 0
M  V30 3518 O 331.24 0.380159 -1.86974 0
M  V30 3519 C 328.38 0.229623 -3.44335 0
M  V30 3520 C 327.493 -0.758156 -4.25295 0
M  V30 3521 C 326.628 -0.0234403 -5.31195 0
M  V30 3522 C 325.667 -1.00184 -6.03846 0
M  V30 3523 N 324.804 -0.29769 -7.01469 0
M  V30 3524 H 329.644 -1.34538 -2.65901 0
M  V30 3525 H 327.181 -0.674592 -1.3072 0
M  V30 3526 H 329.139 0.658856 -4.11965 0
M  V30 3527 H 327.769 1.05696 -3.05005 0
M  V30 3528 H 326.821 -1.30586 -3.57284 0
M  V30 3529 H 328.133 -1.50458 -4.75567 0
M  V30 3530 H 327.287 0.464201 -6.04922 0
M  V30 3531 H 326.026 0.755741 -4.81809 0
M  V30 3532 H 325.031 -1.50044 -5.2893 0
M  V30 3533 H 326.256 -1.78133 -6.55321 0
M  V30 3534 H 324.202 0.462668 -6.54366 0
M  V30 3535 H 324.119 -0.983128 -7.4958 0
M  V30 3536 H 325.387 0.16826 -7.79318 0
M  V30 3537 N 329.616 1.39756 -0.72842 0
M  V30 3538 C 330.863 2.00645 -0.273487 0
M  V30 3539 C 331.191 1.57786 1.13727 0
M  V30 3540 O 330.446 0.794886 1.7883 0
M  V30 3541 C 330.745 3.56002 -0.315776 0
M  V30 3542 C 330.411 4.18489 -1.67863 0
M  V30 3543 C 329.073 4.3527 -2.05166 0
M  V30 3544 C 331.425 4.53219 -2.57375 0
M  V30 3545 C 328.753 4.84069 -3.31503 0
M  V30 3546 C 331.105 5.03423 -3.83077 0
M  V30 3547 C 329.769 5.18413 -4.20481 0
M  V30 3548 H 329.039 0.734211 -0.100076 0
M  V30 3549 H 331.686 1.6718 -0.933972 0
M  V30 3550 H 329.991 3.89452 0.428285 0
M  V30 3551 H 331.688 4.00963 0.0542575 0
M  V30 3552 H 328.278 4.05824 -1.37858 0
M  V30 3553 H 332.462 4.39878 -2.29827 0
M  V30 3554 H 327.718 4.93859 -3.60435 0
M  V30 3555 H 331.892 5.2927 -4.52599 0
M  V30 3556 H 329.519 5.55987 -5.18443 0
M  V30 3557 N 331.094 0.475555 1.50254 0
M  V30 3558 C 332.343 -0.0795996 2.01543 0
M  V30 3559 C 332.656 -1.4038 1.36209 0
M  V30 3560 O 333.862 -2.04415 1.7868 0
M  V30 3561 C 332.318 -0.192363 3.59386 0
M  V30 3562 C 331.926 1.12367 4.33679 0
M  V30 3563 C 333.67 -0.699238 4.18701 0
M  V30 3564 C 331.577 0.974453 5.83317 0
M  V30 3565 H 330.507 -0.0335228 0.753254 0
M  V30 3566 H 333.158 0.611128 1.73025 0
M  V30 3567 H 331.54 -0.946974 3.84511 0
M  V30 3568 H 332.714 1.88958 4.20276 0
M  V30 3569 H 331.029 1.562 3.85993 0
M  V30 3570 H 333.626 -0.827978 5.28251 0
M  V30 3571 H 333.969 -1.69171 3.80377 0
M  V30 3572 H 334.502 -0.00188807 3.978 0
M  V30 3573 H 331.241 1.94042 6.26121 0
M  V30 3574 H 330.761 0.248998 5.99283 0
M  V30 3575 H 332.44 0.642867 6.43798 0
M  V30 3576 N 332.573 -1.56217 0.208337 0
M  V30 3577 C 333.82 -1.97949 -0.42692 0
M  V30 3578 C 334.148 -1.09562 -1.60706 0
M  V30 3579 O 333.403 -0.137616 -1.95216 0
M  V30 3580 C 333.702 -3.45441 -0.916797 0
M  V30 3581 C 333.368 -4.50646 0.151391 0
M  V30 3582 C 332.03 -4.79139 0.444867 0
M  V30 3583 C 334.382 -5.13811 0.874492 0
M  V30 3584 C 331.71 -5.68084 1.46619 0
M  V30 3585 C 334.062 -6.03861 1.88506 0
M  V30 3586 C 332.726 -6.30704 2.18559 0
M  V30 3587 H 331.996 -0.724345 -0.156221 0
M  V30 3588 H 334.643 -1.89006 0.308084 0
M  V30 3589 H 332.948 -3.51521 -1.73032 0
M  V30 3590 H 334.645 -3.75094 -1.41794 0
M  V30 3591 H 331.235 -4.28511 -0.0875068 0
M  V30 3592 H 335.419 -4.91879 0.660996 0
M  V30 3593 H 330.675 -5.87151 1.7048 0
M  V30 3594 H 334.849 -6.51861 2.45051 0
M  V30 3595 H 332.476 -6.99424 2.97843 0
M  V30 3596 N 334.051 0.0651679 -1.57465 0
M  V30 3597 C 335.299 0.761555 -1.87202 0
M  V30 3598 C 335.62 1.77778 -0.801243 0
M  V30 3599 O 334.89 1.95166 0.16937 0
M  V30 3600 H 333.47 0.284251 -0.690804 0
M  V30 3601 H 336.132 0.0396827 -1.9486 0
M  V30 3602 H 335.228 1.27365 -2.84929 0
M  V30 3603 N 335.529 1.53961 0.336706 0
M  V30 3604 C 336.806 1.62171 1.09361 0
M  V30 3605 C 337.186 0.447263 2.06307 0
M  V30 3606 O 336.534 -0.559802 2.21537 0
M  V30 3607 C 336.744 2.98565 1.80721 0
M  V30 3608 C 338.092 3.54157 2.34218 0
M  V30 3609 O 339.116 3.00784 1.90807 0
M  V30 3610 O 337.975 4.47528 3.13657 0
M  V30 3611 H 335.069 0.6562 0.503319 0
M  V30 3612 H 337.615 1.66307 0.33765 0
M  V30 3613 H 336.387 3.75482 1.10132 0
M  V30 3614 H 336.01 2.9805 2.63158 0
M  V30 3615 N 337.007 -0.598083 1.45811 0
M  V30 3616 C 337.954 -1.7082 1.55207 0
M  V30 3617 C 338.924 -1.61278 0.39732 0
M  V30 3618 O 340.109 -1.80717 0.612038 0
M  V30 3619 C 337.249 -3.09144 1.53376 0
M  V30 3620 C 336.362 -3.29423 2.79472 0
M  V30 3621 C 335.497 -4.57907 2.69248 0
M  V30 3622 C 334.536 -4.71476 3.90354 0
M  V30 3623 N 333.673 -5.9127 3.78608 0
M  V30 3624 H 338.513 -1.62125 2.50039 0
M  V30 3625 H 336.05 -0.790389 1.24062 0
M  V30 3626 H 338.008 -3.89186 1.50301 0
M  V30 3627 H 336.638 -3.16773 0.620876 0
M  V30 3628 H 335.69 -2.43091 2.92594 0
M  V30 3629 H 337.002 -3.3532 3.69272 0
M  V30 3630 H 336.156 -5.46157 2.64192 0
M  V30 3631 H 334.895 -4.54423 1.77063 0
M  V30 3632 H 333.9 -3.81648 3.95759 0
M  V30 3633 H 335.125 -4.76751 4.83617 0
M  V30 3634 H 333.071 -5.88813 2.89199 0
M  V30 3635 H 332.988 -5.98369 4.6205 0
M  V30 3636 H 334.256 -6.81992 3.77501 0
M  V30 3637 N 338.485 -1.33259 -0.841409 0
M  V30 3638 C 339.734 -1.23921 -1.59143 0
M  V30 3639 C 340.047 0.1941 -1.94635 0
M  V30 3640 O 341.253 0.409474 -2.68394 0
M  V30 3641 C 339.709 -2.17119 -2.87032 0
M  V30 3642 C 339.317 -3.65606 -2.58914 0
M  V30 3643 C 341.061 -2.16648 -3.65053 0
M  V30 3644 C 338.968 -4.50726 -3.82884 0
M  V30 3645 H 337.898 -0.460264 -0.597221 0
M  V30 3646 H 340.549 -1.58307 -0.927959 0
M  V30 3647 H 338.931 -1.75663 -3.54906 0
M  V30 3648 H 340.105 -4.15487 -1.99267 0
M  V30 3649 H 338.42 -3.68341 -1.942 0
M  V30 3650 H 341.017 -2.77474 -4.57069 0
M  V30 3651 H 341.36 -1.16088 -3.99787 0
M  V30 3652 H 341.893 -2.56453 -3.041 0
M  V30 3653 H 338.632 -5.52151 -3.53283 0
M  V30 3654 H 338.152 -4.0559 -4.41879 0
M  V30 3655 H 339.831 -4.64401 -4.50489 0
M  V30 3656 N 339.963 1.05934 -1.16686 0
M  V30 3657 C 341.21 1.788 -0.950622 0
M  V30 3658 C 341.538 1.87384 0.521305 0
M  V30 3659 O 340.793 1.36438 1.40297 0
M  V30 3660 C 341.092 3.23105 -1.52767 0
M  V30 3661 C 340.758 3.34594 -3.02254 0
M  V30 3662 C 339.42 3.37437 -3.43059 0
M  V30 3663 C 341.772 3.36219 -3.98254 0
M  V30 3664 C 339.1 3.39525 -4.78477 0
M  V30 3665 C 341.452 3.39845 -5.33562 0
M  V30 3666 C 340.116 3.40971 -5.73842 0
M  V30 3667 H 339.386 0.654275 -0.347857 0
M  V30 3668 H 342.033 1.24555 -1.45459 0
M  V30 3669 H 340.338 3.80227 -0.94524 0
M  V30 3670 H 342.035 3.7809 -1.336 0
M  V30 3671 H 338.625 3.3309 -2.6972 0
M  V30 3672 H 342.809 3.33231 -3.67792 0
M  V30 3673 H 338.065 3.38703 -5.09009 0
M  V30 3674 H 342.239 3.4005 -6.07733 0
M  V30 3675 H 339.866 3.42342 -6.78753 0
M  V30 3676 N 341.441 0.965919 1.2453 0
M  V30 3677 C 342.671 0.643451 1.96324 0
M  V30 3678 C 343.079 -0.790927 1.71875 0
M  V30 3679 O 342.422 -1.54208 0.998273 0
M  V30 3680 C 342.484 0.836078 3.49643 0
M  V30 3681 C 342.148 2.24975 3.97788 0
M  V30 3682 C 343.145 3.22735 4.07601 0
M  V30 3683 C 340.83 2.57697 4.31158 0
M  V30 3684 C 342.824 4.51303 4.50116 0
M  V30 3685 C 340.511 3.86492 4.73357 0
M  V30 3686 C 341.509 4.83107 4.828 0
M  V30 3687 O 341.197 6.09605 5.24058 0
M  V30 3688 H 340.929 0.239223 0.632257 0
M  V30 3689 H 343.483 1.29587 1.59362 0
M  V30 3690 H 341.713 0.12649 3.86493 0
M  V30 3691 H 343.402 0.512965 4.02646 0
M  V30 3692 H 344.168 2.98783 3.82039 0
M  V30 3693 H 340.047 1.83216 4.23028 0
M  V30 3694 H 343.591 5.26716 4.57401 0
M  V30 3695 H 339.488 4.10245 4.98366 0
M  V30 3696 H 340.256 6.13146 5.42213 0
M  V30 3697 N 342.919 -1.39368 0.735821 0
M  V30 3698 C 344.33 -1.83313 0.354015 0
M  V30 3699 C 344.681 -1.61461 -1.11466 0
M  V30 3700 O 343.806 -1.10621 -1.85989 0
M  V30 3701 C 344.401 -3.32781 0.635769 0
M  V30 3702 C 342.96 -3.75142 0.307448 0
M  V30 3703 C 342.107 -2.62358 0.897974 0
M  V30 3704 H 345.058 -1.28349 0.933398 0
M  V30 3705 H 345.079 -3.80388 -0.0921773 0
M  V30 3706 H 344.591 -3.48654 1.70476 0
M  V30 3707 H 342.692 -3.64857 -0.755674 0
M  V30 3708 H 342.805 -4.72532 0.790583 0
M  V30 3709 H 341.169 -2.52624 0.324551 0
M  V30 3710 H 341.952 -2.81036 1.97164 0
M  V30 3711 N 344.397 -0.483516 -1.5 0
M  V30 3712 C 345.347 0.32306 -2.257 0
M  V30 3713 C 346.331 0.950755 -1.29805 0
M  V30 3714 O 347.523 0.861247 -1.54634 0
M  V30 3715 C 344.652 1.39724 -3.13579 0
M  V30 3716 C 343.738 0.776663 -4.16928 0
M  V30 3717 N 344.129 -0.1104 -5.0568 0
M  V30 3718 C 342.427 1.03922 -4.33724 0
M  V30 3719 C 343.128 -0.46387 -5.79848 0
M  V30 3720 N 342.104 0.163987 -5.43353 0
M  V30 3721 H 345.906 -0.360086 -2.91686 0
M  V30 3722 H 343.42 -0.298456 -1.59634 0
M  V30 3723 H 345.417 1.98837 -3.66428 0
M  V30 3724 H 344.077 2.08225 -2.49143 0
M  V30 3725 H 345.088 -0.480069 -5.1567 0
M  V30 3726 H 341.765 1.71829 -3.80501 0
M  V30 3727 H 343.155 -1.18854 -6.61304 0
M  V30 3728 N 345.875 1.56104 -0.216619 0
M  V30 3729 C 346.823 2.21434 0.712036 0
M  V30 3730 C 347.817 1.19218 1.20348 0
M  V30 3731 O 349.023 1.3731 1.16387 0
M  V30 3732 H 345.398 0.70992 0.248026 0
M  V30 3733 H 347.369 2.98083 0.137558 0
M  V30 3734 C 346.118 2.90434 1.91163 0
M  V30 3735 H 345.441 3.68842 1.54258 0
M  V30 3736 H 346.881 3.39552 2.5393 0
M  V30 3737 C 345.34 1.92635 2.76394 0
M  V30 3738 O 345.87 1.44017 3.74996 0
M  V30 3739 N 344.076 1.60392 2.42328 0
M  V30 3740 H 343.623 2.00122 1.622 0
M  V30 3741 H 343.581 0.952159 2.99635 0
M  V30 3742 N 347.353 -0.0568162 1.57498 0
M  V30 3743 C 348.6 -0.753104 1.87975 0
M  V30 3744 C 348.928 -1.76815 0.81035 0
M  V30 3745 O 348.183 -1.94756 -0.19199 0
M  V30 3746 C 348.482 -1.48359 3.25153 0
M  V30 3747 C 348.148 -0.60713 4.46794 0
M  V30 3748 C 346.81 -0.365642 4.79809 0
M  V30 3749 C 349.162 -0.000305978 5.212 0
M  V30 3750 C 346.49 0.491905 5.84634 0
M  V30 3751 C 348.842 0.844781 6.26934 0
M  V30 3752 C 347.506 1.096 6.58441 0
M  V30 3753 H 346.776 -0.27558 0.687849 0
M  V30 3754 H 349.423 -0.0135173 1.91495 0
M  V30 3755 H 347.728 -2.29577 3.17492 0
M  V30 3756 H 349.425 -2.02739 3.45974 0
M  V30 3757 H 346.015 -0.805487 4.20963 0
M  V30 3758 H 350.199 -0.173961 4.95995 0
M  V30 3759 H 345.455 0.695131 6.07436 0
M  V30 3760 H 349.629 1.32165 6.83744 0
M  V30 3761 H 347.256 1.76224 7.39492 0
M  V30 3762 N 348.832 -1.54138 -0.328536 0
M  V30 3763 C 350.079 -1.72105 -1.06706 0
M  V30 3764 C 350.407 -0.492111 -1.88171 0
M  V30 3765 O 349.662 0.526153 -1.88494 0
M  V30 3766 C 349.961 -2.9457 -2.02393 0
M  V30 3767 C 349.627 -4.29544 -1.37122 0
M  V30 3768 C 348.289 -4.6624 -1.19052 0
M  V30 3769 C 350.641 -5.1333 -0.902331 0
M  V30 3770 C 347.969 -5.84325 -0.527331 0
M  V30 3771 C 350.321 -6.32094 -0.252988 0
M  V30 3772 C 348.985 -6.67473 -0.0600901 0
M  V30 3773 H 348.255 -0.629775 -0.390466 0
M  V30 3774 H 350.902 -1.88372 -0.34473 0
M  V30 3775 H 349.207 -2.72969 -2.81061 0
M  V30 3776 H 350.904 -3.05665 -2.59557 0
M  V30 3777 H 347.494 -4.0067 -1.52188 0
M  V30 3778 H 351.678 -4.855 -1.02974 0
M  V30 3779 H 346.934 -6.103 -0.366634 0
M  V30 3780 H 351.108 -6.96299 0.118366 0
M  V30 3781 H 348.735 -7.58832 0.455828 0
M  V30 3782 N 350.31 0.590341 -1.46126 0
M  V30 3783 C 351.587 1.35029 -1.41515 0
M  V30 3784 C 351.967 2.10888 -0.0946472 0
M  V30 3785 O 351.315 2.08998 0.923693 0
M  V30 3786 C 351.525 2.28269 -2.63997 0
M  V30 3787 C 352.873 2.90338 -3.09821 0
M  V30 3788 O 353.897 2.38585 -2.64492 0
M  V30 3789 O 352.756 3.84321 -3.88535 0
M  V30 3790 H 349.85 0.606317 -0.562413 0
M  V30 3791 H 352.396 0.611994 -1.58281 0
M  V30 3792 H 351.168 1.71591 -3.51671 0
M  V30 3793 H 350.791 3.0945 -2.49652 0
M  V30 3794 N 351.788 1.33704 0.83433 0
M  V30 3795 C 352.72 1.20172 1.9517 0
M  V30 3796 C 353.733 0.131572 1.62267 0
M  V30 3797 O 354.922 0.382406 1.74356 0
M  V30 3798 C 352.022 0.821716 3.28787 0
M  V30 3799 C 351.195 1.98446 3.89792 0
M  V30 3800 C 350.254 1.58469 5.01771 0
M  V30 3801 O 349.28 2.29968 5.20676 0
M  V30 3802 N 350.482 0.492291 5.78409 0
M  V30 3803 H 353.247 2.16429 2.07313 0
M  V30 3804 H 350.808 1.26509 1.0103 0
M  V30 3805 H 352.8 0.536291 4.01131 0
M  V30 3806 H 351.37 -0.0503058 3.1256 0
M  V30 3807 H 350.59 2.43526 3.09982 0
M  V30 3808 H 351.878 2.76236 4.27283 0
M  V30 3809 H 351.276 -0.102349 5.65607 0
M  V30 3810 H 349.833 0.266555 6.51255 0
M  V30 3811 N 353.266 -1.05314 1.17247 0
M  V30 3812 C 354.513 -1.78293 0.960091 0
M  V30 3813 C 354.841 -1.87658 -0.51136 0
M  V30 3814 O 354.096 -1.3718 -1.39571 0
M  V30 3815 C 354.395 -3.2229 1.54479 0
M  V30 3816 C 354.061 -3.32987 3.04024 0
M  V30 3817 C 352.723 -3.35613 3.44844 0
M  V30 3818 C 355.075 -3.34102 4.00031 0
M  V30 3819 C 352.403 -3.36982 4.8027 0
M  V30 3820 C 354.755 -3.3701 5.35357 0
M  V30 3821 C 353.419 -3.37923 5.75642 0
M  V30 3822 H 352.689 -0.652422 0.351322 0
M  V30 3823 H 355.336 -1.23782 1.46117 0
M  V30 3824 H 353.641 -3.7972 0.965391 0
M  V30 3825 H 355.338 -3.77376 1.35603 0
M  V30 3826 H 351.928 -3.31655 2.71483 0
M  V30 3827 H 356.112 -3.31276 3.69554 0
M  V30 3828 H 351.368 -3.35999 5.10798 0
M  V30 3829 H 355.542 -3.36822 6.09528 0
M  V30 3830 H 353.169 -3.38738 6.80559 0
M  V30 3831 N 354.744 -0.972509 -1.24016 0
M  V30 3832 C 355.674 -0.525548 -2.27509 0
M  V30 3833 C 356.655 0.437262 -1.64384 0
M  V30 3834 O 357.84 0.332343 -1.91335 0
M  V30 3835 C 354.97 0.180448 -3.46831 0
M  V30 3836 C 353.924 -0.698859 -4.22256 0
M  V30 3837 C 353.25 0.138903 -5.3452 0
M  V30 3838 C 354.55 -1.98582 -4.83076 0
M  V30 3839 H 356.244 -1.39058 -2.65148 0
M  V30 3840 H 353.79 -0.67009 -1.27459 0
M  V30 3841 H 355.743 0.504387 -4.18371 0
M  V30 3842 H 354.467 1.07987 -3.08231 0
M  V30 3843 H 353.126 -1.00614 -3.52523 0
M  V30 3844 H 352.774 1.03862 -4.9216 0
M  V30 3845 H 352.474 -0.446259 -5.85903 0
M  V30 3846 H 353.998 0.457404 -6.08884 0
M  V30 3847 H 355.412 -1.72715 -5.46665 0
M  V30 3848 H 353.809 -2.5181 -5.44713 0
M  V30 3849 H 354.879 -2.67769 -4.04262 0
M  V30 3850 N 356.222 1.38976 -0.743202 0
M  V30 3851 C 357.185 2.28901 -0.117014 0
M  V30 3852 C 358.185 1.46698 0.658503 0
M  V30 3853 O 359.375 1.67274 0.486305 0
M  V30 3854 C 356.507 3.30309 0.84315 0
M  V30 3855 H 357.7 2.8578 -0.909373 0
M  V30 3856 H 355.253 1.47761 -0.509547 0
M  V30 3857 H 355.988 2.785 1.66157 0
M  V30 3858 H 355.773 3.91029 0.289594 0
M  V30 3859 H 357.263 3.97577 1.2776 0
M  V30 3860 N 357.7 0.491464 1.49741 0
M  V30 3861 C 358.928 -0.0535151 2.06831 0
M  V30 3862 C 359.343 -1.31683 1.35296 0
M  V30 3863 O 358.7 -1.77402 0.42836 0
M  V30 3864 C 358.751 -0.320835 3.60073 0
M  V30 3865 O 358.472 0.892394 4.28915 0
M  V30 3866 C 359.973 -0.910519 4.33848 0
M  V30 3867 H 357.193 0.0161909 0.670805 0
M  V30 3868 H 359.737 0.68609 1.92647 0
M  V30 3869 H 357.892 -1.0104 3.73991 0
M  V30 3870 H 358.306 0.649401 5.20464 0
M  V30 3871 H 359.78 -1.04721 5.41976 0
M  V30 3872 H 360.257 -1.90589 3.95692 0
M  V30 3873 H 360.863 -0.258712 4.24512 0
M  V30 3874 N 359.178 -1.55987 0.224894 0
M  V30 3875 C 360.088 -2.24066 -0.69511 0
M  V30 3876 C 361.104 -1.24939 -1.21104 0
M  V30 3877 O 362.28 -1.5776 -1.25195 0
M  V30 3878 C 359.345 -2.90983 -1.88493 0
M  V30 3879 C 358.406 -4.05462 -1.41064 0
M  V30 3880 C 357.639 -4.69179 -2.54375 0
M  V30 3881 O 357.862 -4.31895 -3.72589 0
M  V30 3882 O 356.796 -5.58108 -2.25386 0
M  V30 3883 H 360.622 -3.03353 -0.145149 0
M  V30 3884 H 358.207 -1.49399 -0.00569476 0
M  V30 3885 H 360.089 -3.33209 -2.57972 0
M  V30 3886 H 358.764 -2.14653 -2.42293 0
M  V30 3887 H 357.671 -3.67798 -0.683774 0
M  V30 3888 H 359.004 -4.83545 -0.918985 0
M  V30 3889 N 360.656 0.0484629 -1.57525 0
M  V30 3890 C 361.902 0.744226 -1.88651 0
M  V30 3891 C 362.235 1.76029 -0.820212 0
M  V30 3892 O 361.51 1.93782 0.166985 0
M  V30 3893 C 361.793 1.43128 -3.30434 0
M  V30 3894 C 361.646 0.43005 -4.47739 0
M  V30 3895 C 362.965 2.37031 -3.70816 0
M  V30 3896 H 360.084 0.269089 -0.68612 0
M  V30 3897 H 362.726 0.00713532 -1.89999 0
M  V30 3898 H 360.876 2.05956 -3.29415 0
M  V30 3899 H 362.548 -0.194816 -4.60888 0
M  V30 3900 H 360.791 -0.252522 -4.33064 0
M  V30 3901 H 361.462 0.948874 -5.43783 0
M  V30 3902 H 363.938 1.84263 -3.73077 0
M  V30 3903 H 362.814 2.82094 -4.70865 0
M  V30 3904 H 363.075 3.22864 -3.02012 0
M  V30 3905 N 362.134 1.5431 0.320358 0
M  V30 3906 C 363.374 1.74395 1.0661 0
M  V30 3907 C 363.738 0.508602 1.85141 0
M  V30 3908 O 364.939 0.586856 2.62316 0
M  V30 3909 C 363.21 2.98619 1.96371 0
M  V30 3910 S 364.769 3.39621 2.77854 0
M  V30 3911 H 361.587 0.613204 0.359863 0
M  V30 3912 H 364.189 1.9249 0.341727 0
M  V30 3913 H 362.893 3.86673 1.3752 0
M  V30 3914 H 362.424 2.83055 2.73209 0
M  V30 3915 H 364.439 2.95172 3.98858 0
M  V30 3916 N 363.613 -0.582584 1.46437 0
M  V30 3917 C 364.838 -1.37168 1.55563 0
M  V30 3918 C 365.263 -1.87061 0.19743 0
M  V30 3919 O 364.621 -1.61572 -0.822451 0
M  V30 3920 C 364.669 -2.53511 2.56446 0
M  V30 3921 O 363.773 -3.54953 2.09958 0
M  V30 3922 H 363.114 -0.408494 0.523477 0
M  V30 3923 H 365.644 -0.706646 1.9201 0
M  V30 3924 H 365.654 -3.00426 2.76058 0
M  V30 3925 H 364.329 -2.16549 3.55076 0
M  V30 3926 H 362.906 -3.14516 2.00334 0
M  V30 3927 N 365.091 -1.34144 -0.827227 0
M  V30 3928 C 366.507 -1.13732 -1.11969 0
M  V30 3929 C 366.707 0.0640463 -2.01398 0
M  V30 3930 O 365.763 0.740856 -2.41387 0
M  V30 3931 C 367.076 -2.43047 -1.77055 0
M  V30 3932 C 368.624 -2.49063 -1.89569 0
M  V30 3933 C 369.099 -3.78369 -2.58072 0
M  V30 3934 N 370.59 -3.79505 -2.65575 0
M  V30 3935 C 371.325 -4.76274 -3.19297 0
M  V30 3936 N 370.821 -5.83424 -3.73616 0
M  V30 3937 N 372.614 -4.63735 -3.17658 0
M  V30 3938 H 364.765 -2.11126 -0.232296 0
M  V30 3939 H 367.028 -0.933424 -0.165602 0
M  V30 3940 H 366.734 -3.31025 -1.18807 0
M  V30 3941 H 366.608 -2.56066 -2.76966 0
M  V30 3942 H 368.995 -1.61527 -2.46968 0
M  V30 3943 H 369.076 -2.39975 -0.885745 0
M  V30 3944 H 368.72 -4.66293 -2.01329 0
M  V30 3945 H 368.65 -3.84737 -3.59562 0
M  V30 3946 H 371.141 -3.02074 -2.27068 0
M  V30 3947 H 371.454 -6.53282 -4.12846 0
M  V30 3948 H 369.799 -5.87143 -3.71871 0
M  V30 3949 H 372.99 -3.79177 -2.74486 0
M  V30 3950 H 373.163 -5.39318 -3.59221 0
M  V30 3951 N 366.569 1.04691 -1.17803 0
M  V30 3952 C 367.479 2.16057 -0.914151 0
M  V30 3953 C 368.495 1.73589 0.119503 0
M  V30 3954 O 369.671 2.01308 -0.0609468 0
M  V30 3955 C 366.736 3.4394 -0.436603 0
M  V30 3956 C 365.797 4.00825 -1.53746 0
M  V30 3957 C 365.03 5.22604 -1.0826 0
M  V30 3958 O 365.253 5.70367 0.0612244 0
M  V30 3959 O 364.187 5.7186 -1.87775 0
M  V30 3960 H 368.013 2.41169 -1.84584 0
M  V30 3961 H 365.598 1.1453 -0.959334 0
M  V30 3962 H 367.48 4.21024 -0.178057 0
M  V30 3963 H 366.155 3.20316 0.466869 0
M  V30 3964 H 365.062 3.25158 -1.84995 0
M  V30 3965 H 366.395 4.28778 -2.41683 0
M  V30 3966 N 368.047 0.979072 1.23499 0
M  V30 3967 C 368.98 0.463027 2.23453 0
M  V30 3968 C 369.958 -0.469128 1.55685 0
M  V30 3969 O 371.142 -0.397882 1.84253 0
M  V30 3970 C 368.269 -0.330308 3.37086 0
M  V30 3971 C 367.315 0.545795 4.22993 0
M  V30 3972 S 368.148 1.99285 4.97037 0
M  V30 3973 C 369.304 1.20862 6.1412 0
M  V30 3974 H 369.537 1.31005 2.6688 0
M  V30 3975 H 367.07 0.784965 1.32957 0
M  V30 3976 H 369.028 -0.782027 4.02982 0
M  V30 3977 H 367.689 -1.15244 2.92194 0
M  V30 3978 H 366.882 -0.0638928 5.03959 0
M  V30 3979 H 366.484 0.933705 3.62157 0
M  V30 3980 H 368.776 0.469284 6.75873 0
M  V30 3981 H 369.719 1.99307 6.79472 0
M  V30 3982 H 370.127 0.727992 5.59786 0
M  V30 3983 N 369.525 -1.3858 0.750561 0
M  V30 3984 C 370.455 -2.33102 0.136237 0
M  V30 3985 C 371.436 -1.54713 -0.706965 0
M  V30 3986 O 372.621 -1.83043 -0.648769 0
M  V30 3987 C 369.751 -3.38882 -0.760017 0
M  V30 3988 C 368.705 -4.27995 -0.0197785 0
M  V30 3989 C 368.031 -5.24605 -1.03408 0
M  V30 3990 C 369.331 -5.09554 1.14684 0
M  V30 3991 H 371.025 -2.84726 0.925822 0
M  V30 3992 H 368.571 -1.36898 0.446654 0
M  V30 3993 H 370.524 -4.0397 -1.19943 0
M  V30 3994 H 369.248 -2.85734 -1.58189 0
M  V30 3995 H 367.907 -3.64409 0.400184 0
M  V30 3996 H 367.555 -4.67746 -1.84994 0
M  V30 3997 H 367.255 -5.85081 -0.543464 0
M  V30 3998 H 368.779 -5.9257 -1.47288 0
M  V30 3999 H 370.193 -5.67899 0.785118 0
M  V30 4000 H 368.59 -5.7925 1.56812 0
M  V30 4001 H 369.66 -4.4347 1.96118 0
M  V30 4002 N 371.003 -0.499398 -1.49478 0
M  V30 4003 C 371.951 0.293604 -2.3074 0
M  V30 4004 C 372.945 0.96427 -1.39277 0
M  V30 4005 O 374.151 0.892141 -1.56336 0
M  V30 4006 H 370.526 0.113541 -0.743379 0
M  V30 4007 H 372.497 -0.411772 -2.95545 0
M  V30 4008 C 371.246 1.3462 -3.20582 0
M  V30 4009 H 370.569 0.83954 -3.90886 0
M  V30 4010 H 372.009 1.87308 -3.80384 0
M  V30 4011 C 370.468 2.36351 -2.40083 0
M  V30 4012 O 370.998 3.422 -2.10385 0
M  V30 4013 N 369.204 2.0878 -2.02137 0
M  V30 4014 H 368.751 1.22723 -2.26488 0
M  V30 4015 H 368.709 2.77075 -1.48583 0
M  V30 4016 N 372.481 1.55866 -0.233164 0
M  V30 4017 C 373.411 2.23783 0.666599 0
M  V30 4018 C 374.392 1.21343 1.19205 0
M  V30 4019 O 375.577 1.4996 1.23392 0
M  V30 4020 C 372.707 2.92671 1.86978 0
M  V30 4021 C 371.661 4.01682 1.47768 0
M  V30 4022 C 370.987 4.57926 2.76058 0
M  V30 4023 C 372.287 5.18126 0.658993 0
M  V30 4024 H 373.981 2.99232 0.100306 0
M  V30 4025 H 371.527 1.43924 0.046804 0
M  V30 4026 H 373.48 3.3888 2.50476 0
M  V30 4027 H 372.204 2.14688 2.46123 0
M  V30 4028 H 370.863 3.56222 0.866106 0
M  V30 4029 H 370.511 3.76659 3.33372 0
M  V30 4030 H 370.211 5.31505 2.50552 0
M  V30 4031 H 371.735 5.06859 3.40479 0
M  V30 4032 H 373.149 5.60644 1.19795 0
M  V30 4033 H 371.546 5.98009 0.500552 0
M  V30 4034 H 372.616 4.83763 -0.331856 0
M  V30 4035 N 373.959 -0.0401083 1.57549 0
M  V30 4036 C 374.889 -1.04384 2.08869 0
M  V30 4037 C 375.87 -1.38407 0.988817 0
M  V30 4038 O 377.055 -1.47483 1.26342 0
M  V30 4039 C 374.185 -2.34808 2.55895 0
M  V30 4040 C 373.139 -2.15057 3.70047 0
M  V30 4041 C 372.465 -3.51145 4.03239 0
M  V30 4042 C 373.765 -1.54576 4.98902 0
M  V30 4043 H 375.459 -0.616666 2.92981 0
M  V30 4044 H 373.005 -0.295184 1.40942 0
M  V30 4045 H 374.958 -3.05346 2.90417 0
M  V30 4046 H 373.682 -2.79565 1.68853 0
M  V30 4047 H 372.341 -1.46954 3.35857 0
M  V30 4048 H 371.989 -3.93529 3.13279 0
M  V30 4049 H 371.689 -3.38758 4.80122 0
M  V30 4050 H 373.213 -4.23062 4.40285 0
M  V30 4051 H 374.627 -2.15017 5.31451 0
M  V30 4052 H 373.024 -1.52796 5.80322 0
M  V30 4053 H 374.094 -0.51039 4.82206 0
M  V30 4054 N 375.437 -1.54477 -0.31217 0
M  V30 4055 C 376.677 -1.74958 -1.05684 0
M  V30 4056 C 377.041 -0.518414 -1.84869 0
M  V30 4057 O 378.242 -0.600759 -2.62001 0
M  V30 4058 C 376.513 -2.99656 -1.94785 0
M  V30 4059 S 378.072 -3.4109 -2.76049 0
M  V30 4060 H 374.89 -0.615104 -0.356606 0
M  V30 4061 H 377.492 -1.92669 -0.331514 0
M  V30 4062 H 376.196 -3.87397 -1.35468 0
M  V30 4063 H 375.727 -2.845 -2.71704 0
M  V30 4064 H 377.742 -2.97283 -3.97287 0
M  V30 4065 N 376.915 0.57481 -1.46744 0
M  V30 4066 C 378.14 1.36341 -1.56288 0
M  V30 4067 C 378.565 1.86954 -0.207347 0
M  V30 4068 O 377.923 1.62006 0.813871 0
M  V30 4069 C 377.971 2.52147 -2.57787 0
M  V30 4070 O 377.075 3.53834 -2.11838 0
M  V30 4071 H 376.416 0.405713 -0.525636 0
M  V30 4072 H 378.946 0.696453 -1.92382 0
M  V30 4073 H 378.956 2.98958 -2.77648 0
M  V30 4074 H 377.631 2.14663 -3.5622 0
M  V30 4075 H 376.208 3.1345 -2.01999 0
M  V30 4076 N 378.394 1.34581 0.820102 0
M  V30 4077 C 379.342 1.26401 1.95258 0
M  V30 4078 C 380.336 0.161553 1.68628 0
M  V30 4079 O 381.542 0.326703 1.7701 0
M  V30 4080 H 377.917 0.392749 0.64129 0
M  V30 4081 H 379.888 2.22105 1.99279 0
M  V30 4082 C 378.637 1.03919 3.31807 0
M  V30 4083 H 377.96 1.87984 3.52848 0
M  V30 4084 H 379.4 1.02232 4.11491 0
M  V30 4085 C 377.859 -0.257433 3.35915 0
M  V30 4086 O 378.389 -1.25784 3.81499 0
M  V30 4087 N 376.595 -0.291524 2.89134 0
M  V30 4088 H 376.142 0.523161 2.52232 0
M  V30 4089 H 376.1 -1.15883 2.92264 0
M  V30 4090 N 379.872 -1.04064 1.18357 0
M  V30 4091 C 380.835 -2.10243 0.912707 0
M  V30 4092 C 381.835 -1.60477 -0.101928 0
M  V30 4093 O 383.025 -1.73703 0.131517 0
M  V30 4094 C 380.157 -3.38893 0.369387 0
M  V30 4095 H 381.35 -2.35706 1.85426 0
M  V30 4096 H 378.903 -1.20489 0.995594 0
M  V30 4097 H 379.638 -3.19094 -0.578776 0
M  V30 4098 H 379.423 -3.76331 1.1008 0
M  V30 4099 H 380.913 -4.17128 0.198575 0
M  V30 4100 N 381.35 -0.985608 -1.22978 0
M  V30 4101 C 382.28 -0.549649 -2.26939 0
M  V30 4102 C 383.261 0.419803 -1.64838 0
M  V30 4103 O 384.446 0.31203 -1.91677 0
M  V30 4104 C 381.576 0.143652 -3.47003 0
M  V30 4105 C 380.53 -0.743606 -4.21491 0
M  V30 4106 C 379.856 0.0822027 -5.34637 0
M  V30 4107 C 381.156 -2.03694 -4.80943 0
M  V30 4108 H 382.85 -1.41862 -2.63658 0
M  V30 4109 H 380.396 -0.683571 -1.26741 0
M  V30 4110 H 382.349 0.459985 -4.18882 0
M  V30 4111 H 381.073 1.04711 -3.09359 0
M  V30 4112 H 379.732 -1.04347 -3.51436 0
M  V30 4113 H 379.38 0.986359 -4.93234 0
M  V30 4114 H 379.08 -0.508377 -5.85397 0
M  V30 4115 H 380.604 0.392797 -6.09335 0
M  V30 4116 H 382.018 -1.78504 -5.44802 0
M  V30 4117 H 380.415 -2.57573 -5.42011 0
M  V30 4118 H 381.485 -2.72042 -4.01399 0
M  V30 4119 N 382.828 1.3818 -0.7579 0
M  V30 4120 C 384.075 2.00019 -0.315985 0
M  V30 4121 C 384.403 1.60163 1.10355 0
M  V30 4122 O 383.658 0.83264 1.77103 0
M  V30 4123 C 383.957 3.55252 -0.391218 0
M  V30 4124 C 383.623 4.14834 -1.76702 0
M  V30 4125 C 382.285 4.30821 -2.14353 0
M  V30 4126 C 384.637 4.47658 -2.66931 0
M  V30 4127 C 381.965 4.76928 -3.41696 0
M  V30 4128 C 384.317 4.95184 -3.93669 0
M  V30 4129 C 382.981 5.09377 -4.31383 0
M  V30 4130 H 382.251 0.731923 -0.115627 0
M  V30 4131 H 384.898 1.65161 -0.969223 0
M  V30 4132 H 383.203 3.90273 0.34558 0
M  V30 4133 H 384.9 4.00988 -0.030805 0
M  V30 4134 H 381.49 4.02808 -1.46435 0
M  V30 4135 H 385.674 4.34904 -2.39106 0
M  V30 4136 H 380.93 4.86103 -3.70829 0
M  V30 4137 H 385.104 5.19551 -4.63724 0
M  V30 4138 H 382.731 5.44865 -5.30119 0
M  V30 4139 N 384.306 0.507319 1.49211 0
M  V30 4140 C 385.555 -0.0368315 2.01666 0
M  V30 4141 C 385.868 -1.37459 1.39156 0
M  V30 4142 O 387.074 -2.00579 1.82976 0
M  V30 4143 C 385.53 -0.116089 3.59713 0
M  V30 4144 C 385.138 1.2154 4.31198 0
M  V30 4145 C 386.882 -0.610268 4.2009 0
M  V30 4146 C 384.789 1.09796 5.81119 0
M  V30 4147 H 383.719 -0.0175376 0.753796 0
M  V30 4148 H 386.37 0.647691 1.71689 0
M  V30 4149 H 384.752 -0.8652 3.86433 0
M  V30 4150 H 385.926 1.9783 4.16173 0
M  V30 4151 H 384.241 1.64352 3.82593 0
M  V30 4152 H 386.838 -0.715742 5.29888 0
M  V30 4153 H 387.181 -1.61064 3.8388 0
M  V30 4154 H 387.714 0.0824916 3.97714 0
M  V30 4155 H 384.453 2.0728 6.21864 0
M  V30 4156 H 383.973 0.376058 5.9862 0
M  V30 4157 H 385.652 0.779281 6.4229 0
M  V30 4158 N 385.784 -1.5574 0.241426 0
M  V30 4159 C 387.033 -1.97986 -0.385295 0
M  V30 4160 C 387.346 -1.13267 -1.59468 0
M  V30 4161 O 388.552 -1.45501 -2.2922 0
M  V30 4162 C 387.008 -3.52275 -0.736884 0
M  V30 4163 C 386.616 -4.45726 0.450796 0
M  V30 4164 C 388.36 -4.03189 -1.3281 0
M  V30 4165 C 386.267 -5.91352 0.0756662 0
M  V30 4166 H 385.197 -0.739386 -0.147731 0
M  V30 4167 H 387.848 -1.80308 0.340779 0
M  V30 4168 H 386.23 -3.65628 -1.52094 0
M  V30 4169 H 387.404 -4.44131 1.22819 0
M  V30 4170 H 385.719 -4.05264 0.956573 0
M  V30 4171 H 388.316 -5.09505 -1.62201 0
M  V30 4172 H 388.659 -3.50212 -2.25071 0
M  V30 4173 H 389.192 -3.93141 -0.607069 0
M  V30 4174 H 385.931 -6.48354 0.965272 0
M  V30 4175 H 385.451 -5.96095 -0.665635 0
M  V30 4176 H 387.13 -6.46084 -0.344075 0
M  V30 4177 N 387.262 0.0317525 -1.57568 0
M  V30 4178 C 388.502 0.727979 -1.90997 0
M  V30 4179 C 388.866 1.72664 -0.839708 0
M  V30 4180 O 390.067 2.47092 -1.05825 0
M  V30 4181 C 388.338 1.38239 -3.29583 0
M  V30 4182 S 389.897 2.10814 -3.84841 0
M  V30 4183 H 386.715 0.241226 -0.668828 0
M  V30 4184 H 389.317 -0.0173037 -1.95492 0
M  V30 4185 H 388.021 0.642288 -4.05343 0
M  V30 4186 H 387.552 2.16628 -3.28384 0
M  V30 4187 H 389.567 3.3792 -3.63352 0
M  V30 4188 N 388.74 1.54641 0.303973 0
M  V30 4189 C 389.988 1.73437 1.0375 0
M  V30 4190 C 390.309 0.521449 1.87899 0
M  V30 4191 O 389.579 -0.46432 1.90318 0
M  V30 4192 H 388.159 0.639518 0.386039 0
M  V30 4193 H 390.821 1.91988 0.335675 0
M  V30 4194 H 389.917 2.62235 1.69231 0
M  V30 4195 N 390.218 -0.567019 1.47046 0
M  V30 4196 C 391.465 -1.32462 1.53167 0
M  V30 4197 C 391.793 -1.93571 0.189841 0
M  V30 4198 O 391.048 -1.77865 -0.816243 0
M  V30 4199 C 391.347 -2.4623 2.59047 0
M  V30 4200 C 391.013 -2.03014 4.02612 0
M  V30 4201 C 389.675 -1.90944 4.41694 0
M  V30 4202 C 392.027 -1.69895 4.92732 0
M  V30 4203 C 389.355 -1.44035 5.68745 0
M  V30 4204 C 391.707 -1.2446 6.20236 0
M  V30 4205 C 390.371 -1.10979 6.5821 0
M  V30 4206 H 389.641 -0.484713 0.560477 0
M  V30 4207 H 392.288 -0.636888 1.80599 0
M  V30 4208 H 390.593 -3.20517 2.25335 0
M  V30 4209 H 392.29 -3.04427 2.61008 0
M  V30 4210 H 388.88 -2.13348 3.71726 0
M  V30 4211 H 393.064 -1.78098 4.63244 0
M  V30 4212 H 388.32 -1.32254 5.96925 0
M  V30 4213 H 392.494 -0.978924 6.89485 0
M  V30 4214 H 390.121 -0.744078 7.5655 0
M  V30 4215 N 391.696 -1.35014 -0.812953 0
M  V30 4216 C 392.973 -1.18502 -1.55617 0
M  V30 4217 C 393.353 0.238421 -2.09749 0
M  V30 4218 O 392.701 1.2411 -1.91857 0
M  V30 4219 C 392.911 -2.24783 -2.66971 0
M  V30 4220 C 394.259 -2.60268 -3.35478 0
M  V30 4221 O 395.283 -2.23648 -2.77236 0
M  V30 4222 O 394.142 -3.2321 -4.40678 0
M  V30 4223 H 391.236 -0.459984 -0.687272 0
M  V30 4224 H 393.782 -1.46677 -0.853464 0
M  V30 4225 H 392.554 -3.20284 -2.24798 0
M  V30 4226 H 392.177 -1.97841 -3.44884 0
M  V30 4227 N 393.175 1.03435 -1.18907 0
M  V30 4228 C 394.4 1.80919 -1.01406 0
M  V30 4229 C 394.825 1.83055 0.432721 0
M  V30 4230 O 394.183 1.25252 1.31079 0
M  V30 4231 C 394.231 3.24091 -1.58105 0
M  V30 4232 O 393.335 4.04434 -0.806669 0
M  V30 4233 H 392.676 0.558709 -0.358803 0
M  V30 4234 H 395.206 1.30223 -1.57807 0
M  V30 4235 H 395.216 3.74853 -1.61087 0
M  V30 4236 H 393.891 3.21851 -2.6341 0
M  V30 4237 H 392.468 3.63091 -0.849666 0
M  V30 4238 N 394.653 0.992116 1.22453 0
M  V30 4239 C 395.6 0.541731 2.24352 0
M  V30 4240 C 396.57 -0.425519 1.60557 0
M  V30 4241 O 397.755 -0.330453 1.87917 0
M  V30 4242 C 394.895 -0.138248 3.44823 0
M  V30 4243 C 394.008 0.870649 4.23136 0
M  V30 4244 C 393.143 0.164269 5.30946 0
M  V30 4245 C 392.182 1.16159 6.00977 0
M  V30 4246 N 391.319 0.483568 7.00433 0
M  V30 4247 H 396.159 1.41541 2.62241 0
M  V30 4248 H 393.696 0.709013 1.28885 0
M  V30 4249 H 395.654 -0.5494 4.13567 0
M  V30 4250 H 394.284 -0.975721 3.077 0
M  V30 4251 H 393.336 1.40013 3.53696 0
M  V30 4252 H 394.648 1.63014 4.7141 0
M  V30 4253 H 393.802 -0.303653 6.0594 0
M  V30 4254 H 392.541 -0.627733 4.83643 0
M  V30 4255 H 391.546 1.64015 5.24766 0
M  V30 4256 H 392.771 1.95445 6.50368 0
M  V30 4257 H 390.717 -0.289012 6.55363 0
M  V30 4258 H 390.634 1.18152 7.4671 0
M  V30 4259 H 391.902 0.0384219 7.79491 0
M  V30 4260 N 396.131 -1.37776 0.765217 0
M  V30 4261 C 397.079 -2.32209 0.134798 0
M  V30 4262 C 398.073 -1.54607 -0.692315 0
M  V30 4263 O 399.279 -1.70052 -0.590109 0
M  V30 4264 H 395.654 -0.751591 0.0248005 0
M  V30 4265 H 397.625 -2.8297 0.947119 0
M  V30 4266 C 396.374 -3.39841 -0.735063 0
M  V30 4267 H 395.697 -3.99654 -0.107991 0
M  V30 4268 H 397.137 -4.08296 -1.14326 0
M  V30 4269 C 395.596 -2.79378 -1.88281 0
M  V30 4270 O 396.126 -2.69608 -2.97783 0
M  V30 4271 N 394.332 -2.37016 -1.68142 0
M  V30 4272 H 393.879 -2.45162 -0.790772 0
M  V30 4273 H 393.837 -1.96905 -2.45104 0
M  V30 4274 N 397.609 -0.515225 -1.4894 0
M  V30 4275 C 398.856 0.024215 -2.02486 0
M  V30 4276 C 399.184 1.35671 -1.39368 0
M  V30 4277 O 398.439 1.88566 -0.523574 0
M  V30 4278 C 398.738 0.210595 -3.56779 0
M  V30 4279 C 398.404 -1.04569 -4.38607 0
M  V30 4280 C 397.066 -1.39002 -4.60686 0
M  V30 4281 C 399.418 -1.88008 -4.86109 0
M  V30 4282 C 396.746 -2.568 -5.27514 0
M  V30 4283 C 399.098 -3.04972 -5.54234 0
M  V30 4284 C 397.762 -3.39768 -5.74555 0
M  V30 4285 H 397.032 0.00886088 -0.740947 0
M  V30 4286 H 399.679 -0.678263 -1.79086 0
M  V30 4287 H 397.984 0.99572 -3.78936 0
M  V30 4288 H 399.681 0.642659 -3.95817 0
M  V30 4289 H 396.271 -0.767497 -4.21672 0
M  V30 4290 H 400.455 -1.62719 -4.68867 0
M  V30 4291 H 395.711 -2.8398 -5.41447 0
M  V30 4292 H 399.885 -3.69943 -5.90013 0
M  V30 4293 H 397.512 -4.31148 -6.26112 0
M  V30 4294 N 399.087 1.5561 -0.249682 0
M  V30 4295 C 400.035 2.22894 0.664906 0
M  V30 4296 C 401.029 1.21743 1.17792 0
M  V30 4297 O 402.235 1.39748 1.13449 0
M  V30 4298 H 398.61 0.715022 0.232912 0
M  V30 4299 H 400.581 2.98307 0.0742998 0
M  V30 4300 C 399.33 2.94424 1.84959 0
M  V30 4301 H 398.653 3.72031 1.46399 0
M  V30 4302 H 400.093 3.44862 2.4667 0
M  V30 4303 C 398.552 1.98454 2.72245 0
M  V30 4304 O 399.082 1.51939 3.71857 0
M  V30 4305 N 397.288 1.65496 2.38871 0
M  V30 4306 H 396.835 2.03517 1.57919 0
M  V30 4307 H 396.793 1.0155 2.97548 0
M  V30 4308 N 400.565 -0.0233959 1.57583 0
M  V30 4309 C 401.793 -0.724682 1.93794 0
M  V30 4310 C 402.208 -1.68588 0.849912 0
M  V30 4311 O 401.565 -1.81676 -0.173204 0
M  V30 4312 C 401.616 -1.47684 3.29957 0
M  V30 4313 O 401.337 -0.554222 4.3458 0
M  V30 4314 C 402.838 -2.27477 3.80485 0
M  V30 4315 H 400.058 -0.203317 0.639455 0
M  V30 4316 H 402.602 0.0207653 2.04489 0
M  V30 4317 H 400.757 -2.17412 3.20641 0
M  V30 4318 H 401.171 -1.08232 5.13212 0
M  V30 4319 H 402.645 -2.7564 4.78254 0
M  V30 4320 H 403.122 -3.09144 3.11972 0
M  V30 4321 H 403.728 -1.62813 3.92902 0
M  V30 4322 N 402.043 -1.548 -0.295768 0
M  V30 4323 C 403.268 -1.78653 -1.05346 0
M  V30 4324 C 403.693 -0.546894 -1.79974 0
M  V30 4325 O 403.051 0.502763 -1.7419 0
M  V30 4326 C 403.099 -2.99679 -2.00561 0
M  V30 4327 O 402.203 -2.7317 -3.08953 0
M  V30 4328 H 401.544 -0.59116 -0.302367 0
M  V30 4329 H 404.074 -2.01895 -0.331598 0
M  V30 4330 H 404.084 -3.27793 -2.42932 0
M  V30 4331 H 402.759 -3.89562 -1.4565 0
M  V30 4332 H 401.336 -2.56089 -2.71059 0
M  V30 4333 N 403.521 0.559213 -1.47345 0
M  V30 4334 C 404.937 0.884943 -1.32819 0
M  V30 4335 C 405.137 1.98988 -0.317173 0
M  V30 4336 O 404.193 2.51031 0.272011 0
M  V30 4337 C 405.506 1.28007 -2.72093 0
M  V30 4338 C 407.054 1.39161 -2.80363 0
M  V30 4339 C 407.529 1.82031 -4.20272 0
M  V30 4340 N 409.02 1.89185 -4.22804 0
M  V30 4341 C 409.755 2.2368 -5.27973 0
M  V30 4342 N 409.251 2.56802 -6.43447 0
M  V30 4343 N 411.044 2.24436 -5.15349 0
M  V30 4344 H 403.195 -0.170304 -2.11716 0
M  V30 4345 H 405.458 -0.0135247 -0.947904 0
M  V30 4346 H 405.164 0.542027 -3.47498 0
M  V30 4347 H 405.038 2.23665 -3.03733 0
M  V30 4348 H 407.425 2.12048 -2.05231 0
M  V30 4349 H 407.506 0.41696 -2.52379 0
M  V30 4350 H 407.15 1.09715 -4.95908 0
M  V30 4351 H 407.08 2.80495 -4.45679 0
M  V30 4352 H 409.571 1.65982 -3.39497 0
M  V30 4353 H 409.884 2.82144 -7.19454 0
M  V30 4354 H 408.229 2.54387 -6.46771 0
M  V30 4355 H 411.42 1.97998 -4.24163 0
M  V30 4356 H 411.593 2.50989 -5.97418 0
M  V30 4357 N 404.999 1.35443 0.805782 0
M  V30 4358 C 405.929 1.31095 1.93226 0
M  V30 4359 C 406.91 0.185244 1.69088 0
M  V30 4360 O 408.095 0.380332 1.90439 0
M  V30 4361 C 405.225 1.08299 3.29983 0
M  V30 4362 C 404.179 2.17519 3.68605 0
M  V30 4363 C 403.505 1.79887 5.03532 0
M  V30 4364 C 404.805 3.5949 3.78898 0
M  V30 4365 H 406.499 2.25352 1.97122 0
M  V30 4366 H 404.045 1.0848 0.946996 0
M  V30 4367 H 405.998 1.03897 4.08391 0
M  V30 4368 H 404.722 0.104885 3.26432 0
M  V30 4369 H 403.381 2.2102 2.92482 0
M  V30 4370 H 403.029 0.80693 4.96485 0
M  V30 4371 H 402.729 2.53001 5.30344 0
M  V30 4372 H 404.253 1.77011 5.84379 0
M  V30 4373 H 405.667 3.58307 4.47536 0
M  V30 4374 H 404.064 4.31371 4.1718 0
M  V30 4375 H 405.134 3.95584 2.80431 0
M  V30 4376 N 406.477 -1.02803 1.19454 0
M  V30 4377 C 407.754 -1.73299 0.907013 0
M  V30 4378 C 408.134 -2.02772 -0.587086 0
M  V30 4379 O 407.482 -1.68304 -1.54551 0
M  V30 4380 C 407.692 -3.00912 1.76785 0
M  V30 4381 C 409.04 -3.74403 2.00268 0
M  V30 4382 O 410.064 -3.10841 1.73943 0
M  V30 4383 O 408.923 -4.88675 2.4466 0
M  V30 4384 H 406.017 -0.754727 0.338106 0
M  V30 4385 H 408.563 -1.08754 1.30271 0
M  V30 4386 H 407.335 -2.75366 2.7801 0
M  V30 4387 H 406.958 -3.73197 1.37149 0
M  V30 4388 N 407.956 -0.998596 -1.21925 0
M  V30 4389 C 409.202 -0.678667 -1.91107 0
M  V30 4390 C 409.535 0.78791 -1.77498 0
M  V30 4391 O 408.81 1.57043 -1.1475 0
M  V30 4392 C 409.093 -1.09245 -3.43129 0
M  V30 4393 C 408.946 -2.61801 -3.6576 0
M  V30 4394 C 410.265 -0.649984 -4.35274 0
M  V30 4395 H 407.384 -0.248025 -0.694012 0
M  V30 4396 H 410.026 -1.24314 -1.43688 0
M  V30 4397 H 408.176 -0.612171 -3.83647 0
M  V30 4398 H 409.848 -3.17543 -3.34611 0
M  V30 4399 H 408.091 -3.03609 -3.09845 0
M  V30 4400 H 408.762 -2.85804 -4.7225 0
M  V30 4401 H 411.238 -1.0626 -4.02303 0
M  V30 4402 H 410.114 -0.967743 -5.40302 0
M  V30 4403 H 410.375 0.449139 -4.39813 0
M  V30 4404 N 409.434 1.37368 -0.772513 0
M  V30 4405 C 410.664 2.03647 -0.348082 0
M  V30 4406 C 411.072 1.58392 1.03482 0
M  V30 4407 O 410.415 0.760921 1.672 0
M  V30 4408 C 410.477 3.58131 -0.313404 0
M  V30 4409 C 410.141 4.2652 -1.64102 0
M  V30 4410 C 411.138 4.50587 -2.5936 0
M  V30 4411 C 408.823 4.64335 -1.91567 0
M  V30 4412 C 410.817 5.11526 -3.80289 0
M  V30 4413 C 408.504 5.24996 -3.12766 0
M  V30 4414 C 409.502 5.48529 -4.06946 0
M  V30 4415 O 409.19 6.07921 -5.26011 0
M  V30 4416 H 408.922 0.660538 -0.143753 0
M  V30 4417 H 411.476 1.76669 -1.04772 0
M  V30 4418 H 409.706 3.84159 0.442617 0
M  V30 4419 H 411.395 4.05813 0.0840613 0
M  V30 4420 H 412.161 4.21784 -2.39423 0
M  V30 4421 H 408.04 4.45353 -1.19088 0
M  V30 4422 H 411.584 5.29811 -4.53813 0
M  V30 4423 H 407.481 5.53223 -3.32588 0
M  V30 4424 H 408.249 6.26398 -5.26847 0
M  V30 4425 N 410.912 0.523116 1.48665 0
M  V30 4426 C 411.842 -0.23231 2.32342 0
M  V30 4427 C 412.823 -0.941637 1.41659 0
M  V30 4428 O 414.008 -0.928751 1.70552 0
M  V30 4429 C 411.138 -1.28387 3.22698 0
M  V30 4430 C 410.092 -0.693098 4.22351 0
M  V30 4431 C 409.418 -1.8468 5.01794 0
M  V30 4432 C 410.718 0.33063 5.21252 0
M  V30 4433 H 412.412 0.466192 2.95748 0
M  V30 4434 H 409.958 0.225643 1.42221 0
M  V30 4435 H 411.911 -1.82024 3.80059 0
M  V30 4436 H 410.635 -2.01186 2.57278 0
M  V30 4437 H 409.294 -0.178299 3.66166 0
M  V30 4438 H 408.942 -2.56301 4.32804 0
M  V30 4439 H 408.642 -1.45747 5.69238 0
M  V30 4440 H 410.166 -2.38709 5.62006 0
M  V30 4441 H 411.58 -0.118407 5.73178 0
M  V30 4442 H 409.977 0.636974 5.9671 0
M  V30 4443 H 411.047 1.23883 4.68808 0
M  V30 4444 N 412.39 -1.55475 0.257931 0
M  V30 4445 C 413.615 -2.04064 -0.370488 0
M  V30 4446 C 414.04 -1.13565 -1.49948 0
M  V30 4447 O 413.398 -0.130781 -1.80828 0
M  V30 4448 C 413.446 -3.50554 -0.845237 0
M  V30 4449 O 412.55 -3.63173 -1.95394 0
M  V30 4450 H 411.891 -0.659257 -0.0792243 0
M  V30 4451 H 414.421 -2.00903 0.387212 0
M  V30 4452 H 414.431 -3.91588 -1.14555 0
M  V30 4453 H 413.106 -4.15896 -0.0191259 0
M  V30 4454 H 411.683 -3.34039 -1.65748 0
M  V30 4455 N 413.868 0.0150385 -1.57593 0
M  V30 4456 C 414.818 1.01943 -2.0394 0
M  V30 4457 C 415.802 1.31209 -0.931286 0
M  V30 4458 O 416.994 1.30559 -1.19513 0
M  V30 4459 C 414.123 2.31621 -2.53391 0
M  V30 4460 C 413.209 2.05384 -3.7105 0
M  V30 4461 N 413.6 1.49253 -4.83278 0
M  V30 4462 C 411.898 2.35601 -3.78693 0
M  V30 4463 C 412.599 1.39143 -5.64813 0
M  V30 4464 N 411.575 1.87187 -5.10355 0
M  V30 4465 H 415.377 0.57969 -2.88126 0
M  V30 4466 H 412.891 0.221056 -1.60888 0
M  V30 4467 H 414.888 3.044 -2.84862 0
M  V30 4468 H 413.548 2.76261 -1.70616 0
M  V30 4469 H 414.559 1.17334 -5.04433 0
M  V30 4470 H 411.236 2.8322 -3.06746 0
M  V30 4471 H 412.626 0.961153 -6.6499 0
M  V30 4472 N 415.346 1.54954 0.287554 0
M  V30 4473 C 416.294 1.87606 1.37502 0
M  V30 4474 C 417.288 0.751001 1.51843 0
M  V30 4475 O 418.494 0.935169 1.53801 0
M  V30 4476 H 414.869 0.595231 0.459569 0
M  V30 4477 H 416.84 2.78477 1.07206 0
M  V30 4478 C 415.589 2.15183 2.73115 0
M  V30 4479 H 414.912 3.01234 2.62866 0
M  V30 4480 H 416.352 2.4196 3.48183 0
M  V30 4481 C 414.811 0.954686 3.2309 0
M  V30 4482 O 415.341 0.181949 4.01288 0
M  V30 4483 N 413.547 0.756368 2.80584 0
M  V30 4484 H 413.094 1.38643 2.17108 0
M  V30 4485 H 413.052 -0.0430391 3.14371 0
M  V30 4486 N 416.824 -0.551391 1.4764 0
M  V30 4487 C 418.235 -1.13349 1.48354 0
M  V30 4488 C 418.586 -1.94709 0.241432 0
M  V30 4489 O 417.711 -2.06306 -0.653205 0
M  V30 4490 C 418.306 -2.0623 2.68802 0
M  V30 4491 C 416.865 -2.597 2.72457 0
M  V30 4492 C 416.012 -1.36201 2.41546 0
M  V30 4493 H 418.963 -0.337698 1.55065 0
M  V30 4494 H 418.984 -2.90196 2.46103 0
M  V30 4495 H 418.496 -1.46987 3.59188 0
M  V30 4496 H 416.597 -3.22724 1.86225 0
M  V30 4497 H 416.71 -3.00296 3.73308 0
M  V30 4498 H 415.074 -1.67068 1.9225 0
M  V30 4499 H 415.857 -0.787425 3.34147 0
M  V30 4500 N 418.302 -1.35869 -0.798587 0
M  V30 4501 C 419.265 -1.29307 -1.89242 0
M  V30 4502 C 420.265 -0.202747 -1.59517 0
M  V30 4503 O 421.455 -0.456957 -1.681 0
M  V30 4504 C 418.587 -1.00229 -3.25833 0
M  V30 4505 H 419.78 -2.26576 -1.96478 0
M  V30 4506 H 417.333 -1.20509 -0.995358 0
M  V30 4507 H 418.068 -0.033801 -3.24282 0
M  V30 4508 H 417.853 -1.79121 -3.48795 0
M  V30 4509 H 419.343 -0.98219 -4.05885 0
M  V30 4510 N 419.78 1.02168 -1.19998 0
M  V30 4511 C 421.028 1.75338 -1.00504 0
M  V30 4512 C 421.349 1.89387 0.464506 0
M  V30 4513 O 420.619 1.43268 1.33608 0
M  V30 4514 H 419.199 0.649564 -0.368885 0
M  V30 4515 H 421.861 1.23205 -1.51018 0
M  V30 4516 H 420.957 2.75892 -1.45912 0
M  V30 4517 N 421.258 1.00505 1.21394 0
M  V30 4518 C 422.486 0.706609 1.9446 0
M  V30 4519 C 422.901 -0.73081 1.74082 0
M  V30 4520 O 422.258 -1.49446 1.04747 0
M  V30 4521 C 422.309 1.01824 3.46863 0
M  V30 4522 O 422.03 2.39919 3.66566 0
M  V30 4523 C 423.531 0.739216 4.37093 0
M  V30 4524 H 420.751 0.260394 0.618414 0
M  V30 4525 H 423.295 1.34311 1.54211 0
M  V30 4526 H 421.45 0.427343 3.85036 0
M  V30 4527 H 421.864 2.50784 4.6066 0
M  V30 4528 H 423.338 1.00744 5.42729 0
M  V30 4529 H 423.815 -0.326746 4.37983 0
M  V30 4530 H 424.421 1.31173 4.04566 0
M  V30 4531 N 422.737 -1.36956 0.779787 0
M  V30 4532 C 423.962 -2.04283 0.358224 0
M  V30 4533 C 424.387 -1.58422 -1.01411 0
M  V30 4534 O 423.745 -0.748179 -1.65142 0
M  V30 4535 C 423.793 -3.58152 0.419479 0
M  V30 4536 O 422.897 -4.08342 -0.577142 0
M  V30 4537 H 422.238 -0.645967 0.153698 0
M  V30 4538 H 424.768 -1.75108 1.05822 0
M  V30 4539 H 424.778 -4.07041 0.279636 0
M  V30 4540 H 423.453 -3.90886 1.42061 0
M  V30 4541 H 422.03 -3.70751 -0.399755 0
M  V30 4542 N 424.215 -0.530993 -1.48385 0
M  V30 4543 C 425.461 0.00274135 -2.028 0
M  V30 4544 C 425.794 1.33838 -1.40716 0
M  V30 4545 O 425.069 1.86465 -0.553277 0
M  V30 4546 C 425.352 0.123676 -3.59888 0
M  V30 4547 C 425.205 -1.2372 -4.3245 0
M  V30 4548 C 426.524 0.849967 -4.31814 0
M  V30 4549 H 423.643 -0.000477758 -0.737 0
M  V30 4550 H 426.285 -0.688217 -1.77098 0
M  V30 4551 H 424.435 0.712157 -3.81917 0
M  V30 4552 H 426.107 -1.86687 -4.21836 0
M  V30 4553 H 424.35 -1.81882 -3.93829 0
M  V30 4554 H 425.021 -1.10557 -5.40815 0
M  V30 4555 H 427.497 0.350572 -4.14621 0
M  V30 4556 H 426.373 0.903486 -5.41413 0
M  V30 4557 H 426.634 1.90047 -3.99167 0
M  V30 4558 N 425.693 1.55336 -0.266172 0
M  V30 4559 C 426.625 2.19544 0.658247 0
M  V30 4560 C 427.638 1.17746 1.12427 0
M  V30 4561 O 428.827 1.44517 1.04772 0
M  V30 4562 C 425.927 2.80032 1.9088 0
M  V30 4563 C 425.1 4.07436 1.59106 0
M  V30 4564 C 424.159 4.52056 2.69317 0
M  V30 4565 O 423.185 5.18023 2.35883 0
M  V30 4566 N 424.387 4.21448 3.99201 0
M  V30 4567 H 427.152 2.99503 0.108754 0
M  V30 4568 H 424.713 1.61667 -0.0869059 0
M  V30 4569 H 426.705 3.06831 2.63888 0
M  V30 4570 H 425.275 2.04119 2.36758 0
M  V30 4571 H 424.495 3.88021 0.695243 0
M  V30 4572 H 425.783 4.90462 1.35367 0
M  V30 4573 H 425.181 3.68528 4.29189 0
M  V30 4574 H 423.738 4.53039 4.68614 0
M  V30 4575 N 427.171 -0.0066808 1.57599 0
M  V30 4576 C 428.119 -1.01851 2.09115 0
M  V30 4577 C 429.113 -1.36021 1.00969 0
M  V30 4578 O 430.319 -1.34663 1.19439 0
M  V30 4579 H 426.694 -0.346083 0.667631 0
M  V30 4580 H 428.665 -0.558394 2.93129 0
M  V30 4581 C 427.414 -2.30374 2.60429 0
M  V30 4582 H 426.737 -2.04947 3.43273 0
M  V30 4583 H 428.177 -2.99466 3.00161 0
M  V30 4584 C 426.636 -3.00893 1.51542 0
M  V30 4585 O 427.166 -3.91614 0.894484 0
M  V30 4586 N 425.372 -2.62603 1.2445 0
M  V30 4587 H 424.919 -1.88911 1.75129 0
M  V30 4588 H 424.877 -3.10101 0.518137 0
M  V30 4589 N 428.649 -1.55105 -0.279332 0
M  V30 4590 C 429.582 -1.82467 -1.37044 0
M  V30 4591 C 430.56 -0.677261 -1.47824 0
M  V30 4592 O 431.744 -0.919578 -1.64548 0
M  V30 4593 C 428.871 -1.98066 -2.7475 0
M  V30 4594 C 427.917 -3.20594 -2.81286 0
M  V30 4595 S 428.75 -4.78116 -2.41175 0
M  V30 4596 C 429.906 -4.9668 -3.80867 0
M  V30 4597 H 430.139 -2.74728 -1.1363 0
M  V30 4598 H 427.672 -1.46794 -0.478625 0
M  V30 4599 H 429.63 -2.07739 -3.54055 0
M  V30 4600 H 428.291 -1.06704 -2.9542 0
M  V30 4601 H 427.484 -3.28376 -3.82341 0
M  V30 4602 H 427.086 -3.09479 -2.09996 0
M  V30 4603 H 429.378 -4.82033 -4.76078 0
M  V30 4604 H 430.321 -5.98741 -3.78041 0
M  V30 4605 H 430.729 -4.24698 -3.71876 0
M  V30 4606 N 430.127 0.543554 -1.4793 0
M  V30 4607 C 431.374 1.30008 -1.55255 0
M  V30 4608 C 431.702 1.93245 -0.220612 0
M  V30 4609 O 430.957 1.79141 0.787843 0
M  V30 4610 C 431.256 2.42078 -2.62932 0
M  V30 4611 C 430.922 1.96583 -4.0579 0
M  V30 4612 C 429.584 1.83893 -4.44676 0
M  V30 4613 C 431.936 1.62034 -4.95373 0
M  V30 4614 C 429.264 1.34969 -5.70964 0
M  V30 4615 C 431.616 1.14577 -6.22137 0
M  V30 4616 C 430.28 1.00493 -6.59892 0
M  V30 4617 H 429.55 0.475735 -0.568117 0
M  V30 4618 H 432.197 0.608075 -1.81589 0
M  V30 4619 H 430.502 3.16892 -2.30406 0
M  V30 4620 H 432.199 3.00236 -2.65818 0
M  V30 4621 H 428.789 2.07407 -3.75074 0
M  V30 4622 H 432.973 1.70705 -4.66019 0
M  V30 4623 H 428.229 1.2274 -5.98953 0
M  V30 4624 H 432.403 0.869109 -6.90955 0
M  V30 4625 H 430.03 0.623624 -7.57638 0
M  V30 4626 N 431.605 1.3629 0.791371 0
M  V30 4627 C 432.555 1.26988 1.89362 0
M  V30 4628 C 433.539 0.161795 1.60084 0
M  V30 4629 O 434.731 0.394426 1.72549 0
M  V30 4630 C 431.86 1.05944 3.26544 0
M  V30 4631 C 430.946 2.21211 3.61838 0
M  V30 4632 N 431.337 3.46518 3.68455 0
M  V30 4633 C 429.635 2.12933 3.91887 0
M  V30 4634 C 430.336 4.2241 3.99931 0
M  V30 4635 N 429.312 3.51329 4.14812 0
M  V30 4636 H 433.114 2.21908 1.92702 0
M  V30 4637 H 430.628 1.28982 0.986787 0
M  V30 4638 H 432.625 0.973666 4.05371 0
M  V30 4639 H 431.285 0.119223 3.24481 0
M  V30 4640 H 432.296 3.80677 3.51148 0
M  V30 4641 H 428.973 1.26855 3.97761 0
M  V30 4642 H 430.363 5.30767 4.1199 0
M  V30 4643 N 433.083 -1.0153 1.20538 0
M  V30 4644 C 434.329 -1.75517 1.02787 0
M  V30 4645 C 434.684 -1.87411 -0.435289 0
M  V30 4646 O 433.977 -1.38982 -1.31889 0
M  V30 4647 C 434.171 -3.17213 1.64654 0
M  V30 4648 C 434 -3.19134 3.16834 0
M  V30 4649 C 432.77 -3.26301 3.85818 0
M  V30 4650 C 434.968 -3.05077 4.14044 0
M  V30 4651 N 432.95 -3.17739 5.25276 0
M  V30 4652 C 434.321 -3.04299 5.40187 0
M  V30 4653 C 436.376 -2.89303 4.05226 0
M  V30 4654 C 435.079 -2.89365 6.58529 0
M  V30 4655 C 437.105 -2.75723 5.23193 0
M  V30 4656 C 436.467 -2.75612 6.48242 0
M  V30 4657 H 432.566 -0.652919 0.430373 0
M  V30 4658 H 435.15 -1.20755 1.52729 0
M  V30 4659 H 433.321 -3.70266 1.17294 0
M  V30 4660 H 435.053 -3.79637 1.40208 0
M  V30 4661 H 431.808 -3.33078 3.36684 0
M  V30 4662 H 432.232 -3.16829 5.98288 0
M  V30 4663 H 436.874 -2.88201 3.09354 0
M  V30 4664 H 434.592 -2.89216 7.54573 0
M  V30 4665 H 438.178 -2.64533 5.18183 0
M  V30 4666 H 437.058 -2.65224 7.37988 0
M  V30 4667 N 434.561 -1.01147 -1.20859 0
M  V30 4668 C 435.789 -0.716911 -1.94082 0
M  V30 4669 C 436.204 0.721568 -1.74467 0
M  V30 4670 O 435.561 1.48889 -1.05539 0
M  V30 4671 C 435.612 -1.03662 -3.46318 0
M  V30 4672 O 435.333 -2.4186 -3.65288 0
M  V30 4673 C 436.834 -0.762386 -4.36695 0
M  V30 4674 H 434.054 -0.26367 -0.617024 0
M  V30 4675 H 436.598 -1.35127 -1.53496 0
M  V30 4676 H 434.753 -0.447757 -3.84804 0
M  V30 4677 H 435.167 -2.53224 -4.59323 0
M  V30 4678 H 436.641 -1.03621 -5.42187 0
M  V30 4679 H 437.118 0.303514 -4.3815 0
M  V30 4680 H 437.724 -1.33316 -4.03865 0
M  V30 4681 N 436.039 1.36541 -0.78704 0
M  V30 4682 C 436.971 2.28761 -0.141773 0
M  V30 4683 C 437.984 1.49365 0.647599 0
M  V30 4684 O 439.173 1.71836 0.483173 0
M  V30 4685 C 436.273 3.28771 0.822368 0
M  V30 4686 C 435.446 4.3732 0.0835594 0
M  V30 4687 C 434.505 5.17307 0.963296 0
M  V30 4688 O 433.531 5.67638 0.421419 0
M  V30 4689 N 434.733 5.33515 2.28784 0
M  V30 4690 H 437.498 2.84777 -0.933919 0
M  V30 4691 H 435.059 1.48682 -0.640735 0
M  V30 4692 H 437.051 3.79169 1.41468 0
M  V30 4693 H 435.621 2.73412 1.5154 0
M  V30 4694 H 434.841 3.88118 -0.689809 0
M  V30 4695 H 436.129 5.0701 -0.426358 0
M  V30 4696 H 435.527 4.94234 2.75226 0
M  V30 4697 H 434.084 5.87165 2.82985 0
M  V30 4698 N 437.518 0.538854 1.48102 0
M  V30 4699 C 438.481 -0.208395 2.28251 0
M  V30 4700 C 439.481 -0.859656 1.35892 0
M  V30 4701 O 440.671 -0.71834 1.58699 0
M  V30 4702 C 437.803 -1.30252 3.15035 0
M  V30 4703 H 438.996 0.495407 2.9578 0
M  V30 4704 H 436.549 0.295112 1.53489 0
M  V30 4705 H 437.284 -2.0393 2.52157 0
M  V30 4706 H 437.069 -0.840551 3.82985 0
M  V30 4707 H 438.559 -1.82787 3.75471 0
M  V30 4708 N 438.996 -1.55193 0.274407 0
M  V30 4709 C 440.242 -1.99877 -0.343086 0
M  V30 4710 C 440.575 -1.16256 -1.55558 0
M  V30 4711 O 439.85 -0.232462 -1.93106 0
M  V30 4712 C 440.133 -3.52706 -0.725965 0
M  V30 4713 C 439.986 -4.47081 0.493818 0
M  V30 4714 C 441.305 -4.11422 -1.56268 0
M  V30 4715 H 438.424 -0.726625 -0.123229 0
M  V30 4716 H 441.066 -1.86136 0.38121 0
M  V30 4717 H 439.216 -3.64546 -1.34307 0
M  V30 4718 H 440.888 -4.47186 1.13237 0
M  V30 4719 H 439.131 -4.1877 1.13201 0
M  V30 4720 H 439.802 -5.51699 0.18217 0
M  V30 4721 H 442.278 -4.02855 -1.04151 0
M  V30 4722 H 441.154 -5.18568 -1.79939 0
M  V30 4723 H 441.415 -3.61607 -2.54348 0
M  V30 4724 N 440.474 -0.00167713 -1.576 0
M  V30 4725 C 441.421 0.989195 -2.08527 0
M  V30 4726 C 442.391 1.34031 -0.981065 0
M  V30 4727 O 443.576 1.43839 -1.2536 0
M  V30 4728 C 440.716 2.27537 -2.59463 0
M  V30 4729 C 439.829 1.98314 -3.83791 0
M  V30 4730 C 438.964 3.21025 -4.23222 0
M  V30 4731 C 438.003 2.87495 -5.40382 0
M  V30 4732 N 437.14 4.02749 -5.75098 0
M  V30 4733 H 441.98 0.547973 -2.92919 0
M  V30 4734 H 439.517 0.258917 -1.44803 0
M  V30 4735 H 441.475 3.02729 -2.87073 0
M  V30 4736 H 440.105 2.69325 -1.77943 0
M  V30 4737 H 439.157 1.13482 -3.63078 0
M  V30 4738 H 440.469 1.69601 -4.69081 0
M  V30 4739 H 439.623 4.04561 -4.52123 0
M  V30 4740 H 438.362 3.52877 -3.36644 0
M  V30 4741 H 437.367 2.02367 -5.11202 0
M  V30 4742 H 438.592 2.56889 -6.28637 0
M  V30 4743 H 436.538 4.34494 -4.91478 0
M  V30 4744 H 436.455 3.77566 -6.54966 0
M  V30 4745 H 437.723 4.87068 -6.08592 0
M  V30 4746 N 441.952 1.55251 0.271103 0
M  V30 4747 C 443.177 1.80306 1.02491 0
M  V30 4748 C 443.602 0.575457 1.79081 0
M  V30 4749 O 442.96 -0.474987 1.74967 0
M  V30 4750 C 443.008 3.02832 1.95768 0
M  V30 4751 O 442.112 2.78051 3.04568 0
M  V30 4752 H 441.453 0.595896 0.292923 0
M  V30 4753 H 443.983 2.02397 0.299436 0
M  V30 4754 H 443.993 3.31616 2.37686 0
M  V30 4755 H 442.668 3.9183 1.39434 0
M  V30 4756 H 441.245 2.60369 2.66951 0
M  V30 4757 N 443.43 -0.535701 1.48216 0
M  V30 4758 C 444.678 -1.28928 1.55634 0
M  V30 4759 C 444.999 -1.93645 0.229514 0
M  V30 4760 O 444.269 -1.81038 -0.74846 0
M  V30 4761 H 442.849 -0.47884 0.573342 0
M  V30 4762 H 445.511 -0.623853 1.84646 0
M  V30 4763 H 444.607 -2.07157 2.33436 0
M  V30 4764 N 444.908 -1.36708 -0.784132 0
M  V30 4765 C 445.855 -1.31466 -1.89698 0
M  V30 4766 C 446.825 -0.18239 -1.65096 0
M  V30 4767 O 448.01 -0.369762 -1.87183 0
M  V30 4768 C 445.15 -1.1151 -3.26588 0
M  V30 4769 C 444.263 -2.33859 -3.63227 0
M  V30 4770 C 443.398 -2.06873 -4.89262 0
M  V30 4771 C 442.437 -3.25154 -5.18595 0
M  V30 4772 N 441.574 -2.978 -6.35814 0
M  V30 4773 H 446.414 -2.26619 -1.93515 0
M  V30 4774 H 443.951 -1.12625 -0.946256 0
M  V30 4775 H 445.909 -0.979653 -4.05535 0
M  V30 4776 H 444.539 -0.200103 -3.22179 0
M  V30 4777 H 443.591 -2.58188 -2.79362 0
M  V30 4778 H 444.903 -3.22109 -3.8085 0
M  V30 4779 H 444.057 -1.90289 -5.76086 0
M  V30 4780 H 442.796 -1.15942 -4.73718 0
M  V30 4781 H 441.801 -3.42292 -4.30251 0
M  V30 4782 H 443.026 -4.1692 -5.36055 0
M  V30 4783 H 440.972 -2.09485 -6.21653 0
M  V30 4784 H 440.889 -3.7959 -6.53794 0
M  V30 4785 H 442.157 -2.84805 -7.25607 0
M  V30 4786 N 446.386 1.0089 -1.21074 0
M  V30 4787 C 447.633 1.74607 -1.0256 0
M  V30 4788 C 447.961 1.89426 0.44136 0
M  V30 4789 O 447.216 1.42266 1.34384 0
M  V30 4790 C 447.515 3.16335 -1.66334 0
M  V30 4791 C 447.181 3.21474 -3.16173 0
M  V30 4792 C 445.843 3.22583 -3.57062 0
M  V30 4793 C 448.195 3.19025 -4.12156 0
M  V30 4794 C 445.523 3.18925 -4.92446 0
M  V30 4795 C 447.875 3.16909 -5.47496 0
M  V30 4796 C 446.539 3.16326 -5.87787 0
M  V30 4797 H 445.809 0.638933 -0.375294 0
M  V30 4798 H 448.456 1.18274 -1.50611 0
M  V30 4799 H 446.761 3.75876 -1.10566 0
M  V30 4800 H 448.458 3.72083 -1.49516 0
M  V30 4801 H 445.048 3.2135 -2.83605 0
M  V30 4802 H 449.232 3.17332 -3.81595 0
M  V30 4803 H 444.488 3.16809 -5.22917 0
M  V30 4804 H 448.662 3.13968 -6.21609 0
M  V30 4805 H 446.289 3.13246 -6.92662 0
M  V30 4806 N 447.864 1.01787 1.20321 0
M  V30 4807 C 448.796 0.547357 2.22568 0
M  V30 4808 C 449.809 -0.370922 1.58518 0
M  V30 4809 O 450.998 -0.169067 1.77698 0
M  V30 4810 C 448.098 -0.223031 3.38165 0
M  V30 4811 C 447.271 0.697472 4.31803 0
M  V30 4812 C 446.33 -0.025562 5.26194 0
M  V30 4813 O 445.356 0.597367 5.66057 0
M  V30 4814 N 446.558 -1.29999 5.65757 0
M  V30 4815 H 449.323 1.42668 2.63564 0
M  V30 4816 H 446.884 0.895552 1.34876 0
M  V30 4817 H 448.876 -0.716002 3.98316 0
M  V30 4818 H 447.446 -1.00366 2.9605 0
M  V30 4819 H 446.666 1.37073 3.69601 0
M  V30 4820 H 447.954 1.32347 4.91286 0
M  V30 4821 H 447.352 -1.827 5.35385 0
M  V30 4822 H 445.909 -1.73766 6.28211 0
M  V30 4823 N 449.342 -1.36122 0.79427 0
M  V30 4824 C 450.305 -2.28309 0.201889 0
M  V30 4825 C 451.305 -1.49041 -0.603603 0
M  V30 4826 O 452.495 -1.68964 -0.423888 0
M  V30 4827 C 449.627 -3.3321 -0.719978 0
M  V30 4828 H 450.82 -2.82208 1.01481 0
M  V30 4829 H 448.373 -1.45768 0.564037 0
M  V30 4830 H 449.108 -2.84475 -1.55706 0
M  V30 4831 H 448.893 -3.91835 -0.144266 0
M  V30 4832 H 450.383 -4.02044 -1.12916 0
M  V30 4833 N 450.82 -0.546701 -1.47814 0
M  V30 4834 C 452.05 -0.0232519 -2.06587 0
M  V30 4835 C 452.458 1.2712 -1.40133 0
M  V30 4836 O 451.801 1.77091 -0.488305 0
M  V30 4837 C 451.863 0.254117 -3.58601 0
M  V30 4838 C 451.527 -0.949331 -4.47031 0
M  V30 4839 C 452.524 -1.85216 -4.85789 0
M  V30 4840 C 450.209 -1.16104 -4.88697 0
M  V30 4841 C 452.203 -2.95047 -5.65001 0
M  V30 4842 C 449.89 -2.26247 -5.67676 0
M  V30 4843 C 450.888 -3.1555 -6.05737 0
M  V30 4844 O 450.576 -4.23784 -6.83127 0
M  V30 4845 H 450.308 -0.0380082 -0.674931 0
M  V30 4846 H 452.862 -0.756631 -1.90956 0
M  V30 4847 H 451.092 1.04168 -3.72406 0
M  V30 4848 H 452.781 0.72167 -3.99433 0
M  V30 4849 H 453.547 -1.70061 -4.54207 0
M  V30 4850 H 449.426 -0.475159 -4.58545 0
M  V30 4851 H 452.97 -3.64778 -5.94628 0
M  V30 4852 H 448.867 -2.41379 -5.98671 0
M  V30 4853 H 449.635 -4.21701 -7.01506 0
M  V30 4854 N 452.299 1.55045 -0.282633 0
M  V30 4855 C 453.576 1.9179 0.384166 0
M  V30 4856 C 453.956 1.20778 1.73136 0
M  V30 4857 O 453.304 0.33719 2.25998 0
M  V30 4858 C 453.514 3.45149 0.517014 0
M  V30 4859 C 454.862 4.17064 0.796427 0
M  V30 4860 O 455.886 3.51084 0.601535 0
M  V30 4861 O 454.745 5.33837 1.16962 0
M  V30 4862 H 451.839 0.799483 0.211558 0
M  V30 4863 H 454.385 1.66474 -0.32934 0
M  V30 4864 H 453.157 3.88922 -0.430772 0
M  V30 4865 H 452.78 3.76443 1.2797 0
M  V30 4866 N 453.777 0.010035 1.57597 0
M  V30 4867 C 455.023 -0.668011 1.92118 0
M  V30 4868 C 455.378 -1.70821 0.885328 0
M  V30 4869 O 454.671 -1.91333 -0.101187 0
M  V30 4870 C 454.865 -1.34434 3.31153 0
M  V30 4871 C 454.694 -0.371176 4.48166 0
M  V30 4872 C 453.464 0.0220686 5.05295 0
M  V30 4873 C 455.662 0.366731 5.12991 0
M  V30 4874 N 453.644 0.9924 6.05826 0
M  V30 4875 C 455.015 1.19142 6.08445 0
M  V30 4876 C 457.07 0.429489 4.96044 0
M  V30 4877 C 455.773 2.07317 6.88776 0
M  V30 4878 C 457.799 1.2985 5.76969 0
M  V30 4879 C 457.161 2.11101 6.72023 0
M  V30 4880 H 453.26 -0.217337 0.751192 0
M  V30 4881 H 455.844 0.0727375 1.94564 0
M  V30 4882 H 454.015 -2.05533 3.29561 0
M  V30 4883 H 455.747 -1.97789 3.53075 0
M  V30 4884 H 452.502 -0.348409 4.72317 0
M  V30 4885 H 452.926 1.47324 6.60776 0
M  V30 4886 H 457.568 -0.18442 4.22398 0
M  V30 4887 H 455.286 2.69771 7.61741 0
M  V30 4888 H 458.872 1.3511 5.65894 0
M  V30 4889 H 457.752 2.77257 7.33552 0
M  V30 4890 N 455.255 -1.55392 -0.262866 0
M  V30 4891 C 456.503 -1.76127 -0.991147 0
M  V30 4892 C 456.824 -0.571083 -1.8645 0
M  V30 4893 O 456.094 0.413698 -1.91482 0
M  V30 4894 H 454.674 -0.649528 -0.368948 0
M  V30 4895 H 457.336 -1.9281 -0.284655 0
M  V30 4896 H 456.432 -2.6663 -1.62219 0
M  V30 4897 N 456.733 0.527833 -1.48498 0
M  V30 4898 C 457.958 1.313 -1.60546 0
M  V30 4899 C 458.383 1.86199 -0.26672 0
M  V30 4900 O 457.741 1.64513 0.761918 0
M  V30 4901 C 457.789 2.43818 -2.65678 0
M  V30 4902 O 456.893 3.46916 -2.22987 0
M  V30 4903 H 456.234 0.388784 -0.538277 0
M  V30 4904 H 458.764 0.634896 -1.945 0
M  V30 4905 H 458.774 2.89973 -2.87018 0
M  V30 4906 H 457.449 2.03222 -3.62869 0
M  V30 4907 H 456.026 3.06864 -2.11869 0
M  V30 4908 N 458.211 1.37122 0.776871 0
M  V30 4909 C 459.622 1.28667 1.35284 0
M  V30 4910 C 459.973 -0.0680035 1.96082 0
M  V30 4911 O 459.098 -0.969743 1.93455 0
M  V30 4912 C 459.693 2.32997 2.45963 0
M  V30 4913 C 458.252 2.28191 2.99342 0
M  V30 4914 C 457.399 2.17101 1.72517 0
M  V30 4915 H 460.35 1.47819 0.577527 0
M  V30 4916 H 460.371 1.97366 3.2531 0
M  V30 4917 H 459.883 3.3158 2.01684 0
M  V30 4918 H 457.984 1.33115 3.4801 0
M  V30 4919 H 458.097 3.21397 3.55304 0
M  V30 4920 H 456.461 1.63562 1.95242 0
M  V30 4921 H 457.244 3.17591 1.30348 0
M  V30 4922 N 459.689 -1.00246 1.21608 0
M  V30 4923 C 460.935 -1.74319 1.03638 0
M  V30 4924 C 461.268 -1.89408 -0.428749 0
M  V30 4925 O 460.543 -1.43026 -1.3181 0
M  V30 4926 C 460.826 -3.15431 1.73711 0
M  V30 4927 C 460.679 -3.08049 3.27759 0
M  V30 4928 C 461.998 -4.14407 1.48173 0
M  V30 4929 H 459.117 -0.632741 0.377899 0
M  V30 4930 H 461.759 -1.16853 1.49818 0
M  V30 4931 H 459.909 -3.64493 1.34452 0
M  V30 4932 H 461.581 -2.66681 3.76403 0
M  V30 4933 H 459.824 -2.45088 3.57931 0
M  V30 4934 H 460.495 -4.07862 3.71958 0
M  V30 4935 H 462.971 -3.74061 1.82258 0
M  V30 4936 H 461.847 -5.11279 1.99713 0
M  V30 4937 H 462.108 -4.40174 0.412273 0
M  V30 4938 N 461.167 -1.02423 -1.1978 0
M  V30 4939 C 462.099 -0.559152 -2.22275 0
M  V30 4940 C 463.112 0.36251 -1.58713 0
M  V30 4941 O 464.301 0.159641 -1.77785 0
M  V30 4942 C 461.401 0.205094 -3.38279 0
M  V30 4943 C 460.574 -0.720361 -4.31427 0
M  V30 4944 C 459.633 -0.00234368 -5.262 0
M  V30 4945 O 458.659 -0.627378 -5.65732 0
M  V30 4946 N 459.861 1.26996 -5.66438 0
M  V30 4947 H 462.626 -1.44064 -2.62804 0
M  V30 4948 H 460.187 -0.902692 -1.34399 0
M  V30 4949 H 462.179 0.694868 -3.9869 0
M  V30 4950 H 460.749 0.987947 -2.96578 0
M  V30 4951 H 459.969 -1.39031 -3.68869 0
M  V30 4952 H 461.257 -1.3495 -4.90577 0
M  V30 4953 H 460.655 1.79858 -5.36347 0
M  V30 4954 H 459.212 1.70432 -6.29123 0
M  V30 4955 N 462.645 1.35699 -0.801477 0
M  V30 4956 C 463.593 2.3177 -0.196317 0
M  V30 4957 C 464.587 1.56388 0.651081 0
M  V30 4958 O 465.793 1.71557 0.544815 0
M  V30 4959 H 462.168 0.750669 -0.0447189 0
M  V30 4960 H 464.139 2.8036 -1.02181 0
M  V30 4961 C 462.888 3.41671 0.644702 0
M  V30 4962 H 462.211 3.998 0.0019921 0
M  V30 4963 H 463.651 4.11184 1.0346 0
M  V30 4964 C 462.11 2.84271 1.80808 0
M  V30 4965 O 462.64 2.77408 2.9053 0
M  V30 4966 N 460.846 2.41391 1.61799 0
M  V30 4967 H 460.393 2.47173 0.725493 0
M  V30 4968 H 460.351 2.03334 2.39797 0
M  V30 4969 N 464.123 0.554532 1.47522 0
M  V30 4970 C 465.539 0.214107 1.58157 0
M  V30 4971 C 465.739 -1.28331 1.55349 0
M  V30 4972 O 464.795 -2.06329 1.45549 0
M  V30 4973 C 466.108 0.838391 2.88776 0
M  V30 4974 C 467.656 0.809374 3.02354 0
M  V30 4975 C 468.131 1.41268 4.35669 0
M  V30 4976 N 469.622 1.37574 4.42298 0
M  V30 4977 C 470.357 1.8122 5.4401 0
M  V30 4978 N 469.853 2.3271 6.52547 0
M  V30 4979 N 471.646 1.72307 5.35039 0
M  V30 4980 H 463.797 1.52744 1.4759 0
M  V30 4981 H 466.06 0.636812 0.702264 0
M  V30 4982 H 465.766 1.89065 2.96559 0
M  V30 4983 H 465.64 0.329847 3.75755 0
M  V30 4984 H 468.027 -0.234187 2.94169 0
M  V30 4985 H 468.108 1.35565 2.16924 0
M  V30 4986 H 467.752 2.45529 4.4461 0
M  V30 4987 H 467.682 0.841871 5.19827 0
M  V30 4988 H 470.173 0.999081 3.64454 0
M  V30 4989 H 470.486 2.63944 7.26329 0
M  V30 4990 H 468.831 2.36719 6.53444 0
M  V30 4991 H 472.022 1.3186 4.49144 0
M  V30 4992 H 472.195 2.06641 6.14169 0
M  V30 4993 N 465.601 -1.54893 0.290851 0
M  V30 4994 C 466.534 -2.19289 -0.631489 0
M  V30 4995 C 467.512 -1.15893 -1.14051 0
M  V30 4996 O 468.696 -1.4449 -1.21058 0
M  V30 4997 C 465.823 -2.82866 -1.86291 0
M  V30 4998 C 464.869 -3.997 -1.48801 0
M  V30 4999 S 465.702 -5.32641 -0.552644 0
M  V30 5000 C 466.858 -5.99696 -1.79209 0
M  V30 5001 H 467.091 -2.9718 -0.0843791 0
M  V30 5002 H 464.624 -1.54218 0.075031 0
M  V30 5003 H 466.582 -3.20124 -2.56964 0
M  V30 5004 H 465.243 -2.04839 -2.38117 0
M  V30 5005 H 464.436 -4.42932 -2.40473 0
M  V30 5006 H 464.038 -3.63947 -0.861321 0
M  V30 5007 H 466.33 -6.19886 -2.734 0
M  V30 5008 H 467.273 -6.94071 -1.40251 0
M  V30 5009 H 467.681 -5.29226 -1.96419 0
M  V30 5010 N 467.08 -0.0183926 -1.57589 0
M  V30 5011 C 468.03 0.975944 -2.06057 0
M  V30 5012 C 469.014 1.29204 -0.958908 0
M  V30 5013 O 470.206 1.27995 -1.22255 0
M  V30 5014 C 467.335 2.26194 -2.58247 0
M  V30 5015 C 466.421 1.97467 -3.75323 0
M  V30 5016 N 466.812 1.38968 -4.86335 0
M  V30 5017 C 465.11 2.27515 -3.83605 0
M  V30 5018 C 465.811 1.27131 -5.67638 0
M  V30 5019 N 464.787 1.76319 -5.14211 0
M  V30 5020 H 468.589 0.518444 -2.89291 0
M  V30 5021 H 466.103 0.18688 -1.61321 0
M  V30 5022 H 468.1 2.98289 -2.91255 0
M  V30 5023 H 466.76 2.7258 -1.76438 0
M  V30 5024 H 467.771 1.06608 -5.06809 0
M  V30 5025 H 464.448 2.76649 -3.12684 0
M  V30 5026 H 465.838 0.819882 -6.66879 0
M  V30 5027 N 468.558 1.5553 0.254621 0
M  V30 5028 C 469.788 1.80784 1.00004 0
M  V30 5029 C 470.196 0.59071 1.79742 0
M  V30 5030 O 469.539 -0.449988 1.78103 0
M  V30 5031 C 469.601 2.99268 1.99196 0
M  V30 5032 C 469.265 4.35595 1.38224 0
M  V30 5033 C 470.262 5.13884 0.788611 0
M  V30 5034 C 467.947 4.82281 1.40393 0
M  V30 5035 C 469.941 6.37004 0.224783 0
M  V30 5036 C 467.628 6.05351 0.836243 0
M  V30 5037 C 468.626 6.82551 0.24769 0
M  V30 5038 O 468.314 8.03297 -0.311249 0
M  V30 5039 H 468.046 0.60565 0.300274 0
M  V30 5040 H 470.6 2.03411 0.285143 0
M  V30 5041 H 468.83 2.72377 2.74496 0
M  V30 5042 H 470.519 3.11682 2.60018 0
M  V30 5043 H 471.285 4.78938 0.764423 0
M  V30 5044 H 467.164 4.22189 1.85142 0
M  V30 5045 H 470.708 6.97203 -0.235235 0
M  V30 5046 H 466.605 6.39776 0.857733 0
M  V30 5047 H 467.373 8.1825 -0.20237 0
M  V30 5048 N 470.036 -0.519951 1.48776 0
M  V30 5049 C 471.313 -1.28123 1.47797 0
M  V30 5050 C 471.693 -2.10196 0.195157 0
M  V30 5051 O 471.041 -2.13167 -0.822925 0
M  V30 5052 C 471.251 -2.15413 2.74587 0
M  V30 5053 C 472.599 -2.75225 3.23321 0
M  V30 5054 O 473.623 -2.25694 2.75574 0
M  V30 5055 O 472.482 -3.65346 4.06429 0
M  V30 5056 H 469.576 -0.578793 0.590701 0
M  V30 5057 H 472.122 -0.535779 1.6102 0
M  V30 5058 H 470.894 -1.54617 3.59457 0
M  V30 5059 H 470.517 -2.97186 2.64132 0
M  V30 5060 N 471.514 -1.37532 -0.769588 0
M  V30 5061 C 472.446 -1.29347 -1.89214 0
M  V30 5062 C 473.459 -0.208842 -1.61455 0
M  V30 5063 O 474.648 -0.465158 -1.72333 0
M  V30 5064 C 471.748 -0.977649 -3.24492 0
M  V30 5065 C 470.921 -2.16817 -3.7988 0
M  V30 5066 C 469.98 -1.82229 -4.93639 0
M  V30 5067 O 469.006 -2.54548 -5.09111 0
M  V30 5068 N 470.208 -0.767696 -5.75401 0
M  V30 5069 H 472.973 -2.26073 -1.96751 0
M  V30 5070 H 470.534 -1.31185 -0.948795 0
M  V30 5071 H 472.526 -0.727065 -3.98115 0
M  V30 5072 H 471.096 -0.0988777 -3.12444 0
M  V30 5073 H 470.316 -2.58038 -2.9801 0
M  V30 5074 H 471.604 -2.96308 -4.13617 0
M  V30 5075 H 471.002 -0.167626 -5.65452 0
M  V30 5076 H 469.559 -0.576973 -6.49241 0
M  V30 5077 N 472.992 0.995999 -1.22138 0
M  V30 5078 C 474.217 1.77601 -1.0711 0
M  V30 5079 C 474.642 1.84339 0.374264 0
M  V30 5080 O 474 1.29359 1.27028 0
M  V30 5081 C 474.048 3.18897 -1.68336 0
M  V30 5082 O 473.152 4.01663 -0.934928 0
M  V30 5083 H 472.493 0.547011 -0.376397 0
M  V30 5084 H 475.023 1.25137 -1.6187 0
M  V30 5085 H 475.033 3.69539 -1.72931 0
M  V30 5086 H 473.708 3.13308 -2.73516 0
M  V30 5087 H 472.285 3.60204 -0.964751 0
M  V30 5088 N 474.47 1.03057 1.19235 0
M  V30 5089 C 475.402 0.570932 2.21975 0
M  V30 5090 C 476.415 -0.354088 1.58903 0
M  V30 5091 O 477.604 -0.150211 1.77867 0
M  V30 5092 C 474.704 -0.187152 3.38383 0
M  V30 5093 C 473.877 0.743231 4.31039 0
M  V30 5094 C 472.936 0.0302493 5.26191 0
M  V30 5095 O 471.962 0.657371 5.65391 0
M  V30 5096 N 473.164 -1.23991 5.67104 0
M  V30 5097 H 475.929 1.45456 2.62036 0
M  V30 5098 H 473.49 0.909807 1.33918 0
M  V30 5099 H 475.482 -0.673715 3.99053 0
M  V30 5100 H 474.052 -0.972205 2.97098 0
M  V30 5101 H 473.272 1.40985 3.68126 0
M  V30 5102 H 474.56 1.3755 4.89854 0
M  V30 5103 H 473.958 -1.77011 5.37293 0
M  V30 5104 H 472.515 -1.67093 6.30018 0
M  V30 5105 N 475.948 -1.35272 0.808662 0
M  V30 5106 C 477.359 -1.81179 0.450688 0
M  V30 5107 C 477.71 -1.67143 -1.02751 0
M  V30 5108 O 476.835 -1.20325 -1.79864 0
M  V30 5109 C 477.43 -3.28943 0.811275 0
M  V30 5110 C 475.989 -3.72985 0.505871 0
M  V30 5111 C 475.136 -2.57229 1.03578 0
M  V30 5112 H 478.087 -1.2322 1.00012 0
M  V30 5113 H 478.108 -3.80342 0.109588 0
M  V30 5114 H 477.62 -3.39127 1.88718 0
M  V30 5115 H 475.721 -3.68349 -0.561209 0
M  V30 5116 H 475.834 -4.67677 1.03995 0
M  V30 5117 H 474.198 -2.50548 0.458005 0
M  V30 5118 H 474.981 -2.7019 2.11784 0
M  V30 5119 N 477.426 -0.562348 -1.47226 0
M  V30 5120 C 478.837 -0.130325 -1.86245 0
M  V30 5121 C 479.188 1.30128 -1.46838 0
M  V30 5122 O 478.313 1.97974 -0.873805 0
M  V30 5123 C 478.908 -0.229738 -3.3802 0
M  V30 5124 C 477.467 0.14728 -3.76112 0
M  V30 5125 C 476.614 -0.574971 -2.71274 0
M  V30 5126 H 479.565 -0.771773 -1.3867 0
M  V30 5127 H 479.586 0.550316 -3.76499 0
M  V30 5128 H 479.098 -1.27178 -3.66671 0
M  V30 5129 H 477.199 1.19023 -3.53078 0
M  V30 5130 H 477.312 -0.214858 -4.78618 0
M  V30 5131 H 475.676 -0.0174756 -2.54694 0
M  V30 5132 H 476.459 -1.61827 -3.02766 0
M  V30 5133 N 478.904 1.54736 -0.299062 0
M  V30 5134 C 480.134 2.04215 0.312992 0
M  V30 5135 C 480.542 1.17596 1.48215 0
M  V30 5136 O 479.885 0.193835 1.82674 0
M  V30 5137 C 479.947 3.49696 0.833862 0
M  V30 5138 C 479.611 4.56518 -0.20977 0
M  V30 5139 C 480.608 5.09442 -1.03756 0
M  V30 5140 C 478.293 5.01073 -0.35091 0
M  V30 5141 C 480.287 6.05459 -1.99244 0
M  V30 5142 C 477.974 5.9691 -1.30924 0
M  V30 5143 C 478.972 6.48987 -2.1285 0
M  V30 5144 O 478.66 7.42947 -3.07059 0
M  V30 5145 H 478.392 0.672128 0.0722494 0
M  V30 5146 H 480.946 2.00718 -0.436043 0
M  V30 5147 H 479.176 3.5051 1.63339 0
M  V30 5148 H 480.865 3.82381 1.36159 0
M  V30 5149 H 481.631 4.75816 -0.939376 0
M  V30 5150 H 477.51 4.60168 0.276813 0
M  V30 5151 H 481.054 6.46031 -2.63229 0
M  V30 5152 H 476.951 6.29953 -1.40815 0
M  V30 5153 H 477.719 7.60743 -3.02015 0
M  V30 5154 N 480.382 0.0267497 1.57577 0
M  V30 5155 C 481.612 -0.6617 1.95717 0
M  V30 5156 C 482.02 -1.66331 0.901706 0
M  V30 5157 O 481.363 -1.83273 -0.125241 0
M  V30 5158 C 481.425 -1.42649 3.29987 0
M  V30 5159 C 481.089 -0.583482 4.5326 0
M  V30 5160 C 482.086 0.140221 5.19711 0
M  V30 5161 C 479.771 -0.521581 4.99585 0
M  V30 5162 C 481.765 0.914523 6.30805 0
M  V30 5163 C 479.452 0.256428 6.10562 0
M  V30 5164 C 480.45 0.973189 6.76031 0
M  V30 5165 O 480.138 1.73845 7.84878 0
M  V30 5166 H 479.87 -0.187483 0.649481 0
M  V30 5167 H 482.424 0.0820847 2.05236 0
M  V30 5168 H 480.654 -2.21536 3.16952 0
M  V30 5169 H 482.343 -2.00282 3.53047 0
M  V30 5170 H 483.109 0.101716 4.84893 0
M  V30 5171 H 478.988 -1.06904 4.48433 0
M  V30 5172 H 482.532 1.4745 6.81839 0
M  V30 5173 H 478.429 0.296657 6.44818 0
M  V30 5174 H 479.197 1.65797 8.01532 0
M  V30 5175 N 481.861 -1.55662 -0.24637 0
M  V30 5176 C 482.809 -1.91186 -1.3248 0
M  V30 5177 C 483.803 -0.790996 -1.49799 0
M  V30 5178 O 485.009 -0.975617 -1.51267 0
M  V30 5179 H 481.384 -0.607207 -0.443626 0
M  V30 5180 H 483.355 -2.81221 -0.997853 0
M  V30 5181 C 482.104 -2.22349 -2.67313 0
M  V30 5182 H 481.427 -3.08097 -2.54786 0
M  V30 5183 H 482.867 -2.51107 -3.41645 0
M  V30 5184 C 481.326 -1.04001 -3.20446 0
M  V30 5185 O 481.856 -0.28828 -4.00664 0
M  V30 5186 N 480.062 -0.830494 -2.7848 0
M  V30 5187 H 479.609 -1.4435 -2.13356 0
M  V30 5188 H 479.567 -0.0403258 -3.14374 0
M  V30 5189 N 483.339 0.512053 -1.4905 0
M  V30 5190 C 484.585 1.26874 -1.58212 0
M  V30 5191 C 484.918 1.9241 -0.263073 0
M  V30 5192 O 484.193 1.80181 0.732476 0
M  V30 5193 C 484.476 2.34428 -2.73341 0
M  V30 5194 C 484.329 1.73466 -4.15006 0
M  V30 5195 C 485.648 3.36073 -2.84154 0
M  V30 5196 H 482.767 0.459924 -0.575881 0
M  V30 5197 H 485.409 0.568587 -1.81293 0
M  V30 5198 H 483.559 2.94146 -2.53792 0
M  V30 5199 H 485.231 1.17661 -4.46042 0
M  V30 5200 H 483.474 1.03921 -4.21168 0
M  V30 5201 H 484.145 2.51426 -4.91415 0
M  V30 5202 H 486.621 2.86332 -3.01916 0
M  V30 5203 H 485.497 4.08703 -3.66406 0
M  V30 5204 H 485.758 3.97725 -1.93048 0
M  V30 5205 N 484.817 1.37938 0.762283 0
M  V30 5206 C 486.045 1.36883 1.55147 0
M  V30 5207 C 486.46 -0.0435348 1.8875 0
M  V30 5208 O 485.817 -1.00786 1.52146 0
M  V30 5209 C 485.868 2.21624 2.85596 0
M  V30 5210 O 485.589 3.57358 2.5343 0
M  V30 5211 C 487.09 2.28653 3.7978 0
M  V30 5212 H 484.31 0.468521 0.480343 0
M  V30 5213 H 486.854 1.81404 0.944079 0
M  V30 5214 H 485.009 1.80588 3.42734 0
M  V30 5215 H 485.423 4.01883 3.37032 0
M  V30 5216 H 486.897 2.9225 4.68288 0
M  V30 5217 H 487.374 1.29767 4.19592 0
M  V30 5218 H 487.98 2.70043 3.28568 0
M  V30 5219 N 486.295 -0.989507 1.22664 0
M  V30 5220 C 487.258 -2.06183 1.00106 0
M  V30 5221 C 488.258 -1.60765 -0.0337726 0
M  V30 5222 O 489.448 -1.72989 0.205072 0
M  V30 5223 C 486.58 -3.37021 0.51279 0
M  V30 5224 H 487.773 -2.27629 1.95256 0
M  V30 5225 H 485.326 -1.16158 1.0458 0
M  V30 5226 H 486.061 -3.21261 -0.442917 0
M  V30 5227 H 485.846 -3.71323 1.25942 0
M  V30 5228 H 487.336 -4.1591 0.375315 0
M  V30 5229 N 487.773 -1.03688 -1.18687 0
M  V30 5230 C 488.706 -0.569112 -2.2099 0
M  V30 5231 C 489.684 0.394315 -1.57746 0
M  V30 5232 O 490.868 0.309519 -1.85941 0
M  V30 5233 C 487.995 0.169104 -3.38278 0
M  V30 5234 C 487.041 -0.746989 -4.19908 0
M  V30 5235 S 487.874 -2.22773 -4.86963 0
M  V30 5236 C 489.03 -1.50025 -6.07654 0
M  V30 5237 H 489.263 -1.43589 -2.60326 0
M  V30 5238 H 486.796 -0.847507 -1.29061 0
M  V30 5239 H 488.754 0.588868 -4.06254 0
M  V30 5240 H 487.415 1.01172 -2.9736 0
M  V30 5241 H 486.608 -0.176626 -5.0369 0
M  V30 5242 H 486.21 -1.10543 -3.5729 0
M  V30 5243 H 488.502 -0.791217 -6.72864 0
M  V30 5244 H 489.445 -2.31498 -6.69189 0
M  V30 5245 H 489.853 -0.994245 -5.55675 0
M  V30 5246 N 489.251 1.34841 -0.815825 0
M  V30 5247 C 490.199 2.31549 -0.220888 0
M  V30 5248 C 491.193 1.5707 0.634457 0
M  V30 5249 O 492.399 1.72125 0.526589 0
M  V30 5250 H 488.774 0.750153 -0.0526782 0
M  V30 5251 H 490.745 2.7926 -1.05149 0
M  V30 5252 C 489.494 3.42335 0.608427 0
M  V30 5253 H 488.817 3.9978 -0.0404121 0
M  V30 5254 H 490.257 4.12258 0.990931 0
M  V30 5255 C 488.716 2.86173 1.77782 0
M  V30 5256 O 489.246 2.80474 2.87571 0
M  V30 5257 N 487.452 2.43093 1.59229 0
M  V30 5258 H 486.999 2.47928 0.699237 0
M  V30 5259 H 486.957 2.05866 2.37627 0
M  V30 5260 N 490.729 0.570148 1.46925 0
M  V30 5261 C 491.975 0.0510284 2.02736 0
M  V30 5262 C 492.308 -1.3006 1.44215 0
M  V30 5263 O 491.583 -1.84932 0.602521 0
M  V30 5264 C 491.866 -0.028215 3.60089 0
M  V30 5265 C 491.719 1.35142 4.29018 0
M  V30 5266 C 493.038 -0.735181 4.33916 0
M  V30 5267 H 490.157 0.0200178 0.736728 0
M  V30 5268 H 492.799 0.73493 1.75211 0
M  V30 5269 H 490.949 -0.610648 3.83671 0
M  V30 5270 H 492.621 1.97806 4.16738 0
M  V30 5271 H 490.864 1.9226 3.88868 0
M  V30 5272 H 491.535 1.24857 5.37694 0
M  V30 5273 H 494.011 -0.240519 4.15404 0
M  V30 5274 H 492.887 -0.759622 5.43618 0
M  V30 5275 H 493.148 -1.79397 4.04066 0
M  V30 5276 N 492.207 -1.54576 0.307264 0
M  V30 5277 C 493.618 -1.8579 -0.184121 0
M  V30 5278 C 493.969 -1.22914 -1.52927 0
M  V30 5279 O 493.094 -0.529126 -2.09831 0
M  V30 5280 C 493.689 -3.37081 -0.340862 0
M  V30 5281 C 492.248 -3.68304 -0.776465 0
M  V30 5282 C 491.395 -2.77076 0.111503 0
M  V30 5283 H 494.346 -1.49656 0.528078 0
M  V30 5284 H 494.367 -3.61922 -1.17443 0
M  V30 5285 H 493.879 -3.82815 0.638309 0
M  V30 5286 H 491.98 -3.28092 -1.76596 0
M  V30 5287 H 492.093 -4.75434 -0.591512 0
M  V30 5288 H 490.457 -2.51374 -0.410256 0
M  V30 5289 H 491.24 -3.25632 1.08714 0
M  V30 5290 N 493.685 -0.035106 -1.57561 0
M  V30 5291 C 494.934 0.641604 -1.91223 0
M  V30 5292 C 495.247 1.72944 -0.913761 0
M  V30 5293 O 496.453 2.46321 -1.14185 0
M  V30 5294 C 494.909 1.19249 -3.3957 0
M  V30 5295 C 494.517 0.137616 -4.47789 0
M  V30 5296 C 496.261 1.84537 -3.82291 0
M  V30 5297 C 494.168 0.700478 -5.87237 0
M  V30 5298 H 493.098 0.243417 -0.713627 0
M  V30 5299 H 495.749 -0.101382 -1.8322 0
M  V30 5300 H 494.131 1.98728 -3.42525 0
M  V30 5301 H 495.305 -0.635153 -4.56402 0
M  V30 5302 H 493.62 -0.416855 -4.14308 0
M  V30 5303 H 496.217 2.27616 -4.83834 0
M  V30 5304 H 496.56 2.69054 -3.17672 0
M  V30 5305 H 497.093 1.11739 -3.81784 0
M  V30 5306 H 493.832 -0.106693 -6.55413 0
M  V30 5307 H 493.352 1.4416 -5.82218 0
M  V30 5308 H 495.031 1.18837 -6.35993 0
M  V30 5309 N 495.163 1.55791 0.238111 0
M  V30 5310 C 496.126 1.90239 1.27835 0
M  V30 5311 C 497.126 0.779552 1.4064 0
M  V30 5312 O 498.316 1.04747 1.3919 0
M  V30 5313 C 495.448 2.13859 2.65475 0
M  V30 5314 H 496.641 2.83262 0.985034 0
M  V30 5315 H 494.194 1.48818 0.477799 0
M  V30 5316 H 494.929 1.23334 2.99932 0
M  V30 5317 H 494.714 2.95643 2.57561 0
M  V30 5318 H 496.204 2.41664 3.40571 0
M  V30 5319 N 496.642 -0.504142 1.49319 0
M  V30 5320 C 497.888 -1.26033 1.58882 0
M  V30 5321 C 498.221 -1.92268 0.273274 0
M  V30 5322 O 497.496 -1.80567 -0.72291 0
M  V30 5323 C 497.779 -2.32976 2.7458 0
M  V30 5324 C 497.632 -1.71263 4.1592 0
M  V30 5325 C 498.951 -3.34561 2.85932 0
M  V30 5326 H 496.07 -0.456863 0.578312 0
M  V30 5327 H 498.712 -0.558965 1.81592 0
M  V30 5328 H 496.862 -2.92796 2.55348 0
M  V30 5329 H 498.534 -1.15294 4.4666 0
M  V30 5330 H 496.777 -1.01686 4.21714 0
M  V30 5331 H 497.448 -2.48816 4.92742 0
M  V30 5332 H 499.924 -2.84727 3.0343 0
M  V30 5333 H 498.8 -4.06754 3.68568 0
M  V30 5334 H 499.061 -3.96695 1.95154 0
M  V30 5335 N 498.12 -1.38341 -0.754957 0
M  V30 5336 C 499.366 -1.35678 -1.51536 0
M  V30 5337 C 499.721 0.0533985 -1.92326 0
M  V30 5338 O 499.014 1.01573 -1.6246 0
M  V30 5339 C 499.208 -2.2452 -2.78075 0
M  V30 5340 C 499.037 -3.74035 -2.49655 0
M  V30 5341 C 497.807 -4.43066 -2.42942 0
M  V30 5342 C 500.005 -4.665 -2.16523 0
M  V30 5343 N 497.987 -5.78026 -2.06783 0
M  V30 5344 C 499.358 -5.89962 -1.90644 0
M  V30 5345 C 501.413 -4.54718 -2.02821 0
M  V30 5346 C 500.116 -7.0296 -1.52444 0
M  V30 5347 C 502.142 -5.67618 -1.66023 0
M  V30 5348 C 501.504 -6.90141 -1.41015 0
M  V30 5349 H 497.603 -0.551764 -0.554148 0
M  V30 5350 H 500.187 -1.73716 -0.879258 0
M  V30 5351 H 498.358 -1.88673 -3.39496 0
M  V30 5352 H 500.09 -2.12993 -3.44116 0
M  V30 5353 H 496.845 -3.96264 -2.59367 0
M  V30 5354 H 497.269 -6.49394 -1.91353 0
M  V30 5355 H 501.911 -3.60546 -2.20831 0
M  V30 5356 H 499.629 -7.97051 -1.33174 0
M  V30 5357 H 503.215 -5.6048 -1.56055 0
M  V30 5358 H 502.095 -7.76021 -1.12965 0
M  V30 5359 N 499.598 0.982988 -1.23187 0
M  V30 5360 C 500.546 2.09616 -1.00817 0
M  V30 5361 C 501.54 1.6932 0.0519995 0
M  V30 5362 O 502.746 1.79715 -0.101284 0
M  V30 5363 H 499.121 0.685628 -0.308899 0
M  V30 5364 H 501.092 2.25652 -1.95253 0
M  V30 5365 C 499.841 3.42249 -0.613243 0
M  V30 5366 H 499.164 3.73705 -1.42073 0
M  V30 5367 H 500.604 4.21086 -0.496208 0
M  V30 5368 C 499.063 3.30002 0.678233 0
M  V30 5369 O 499.593 3.6263 1.72807 0
M  V30 5370 N 497.799 2.83164 0.653165 0
M  V30 5371 H 497.346 2.56811 -0.201492 0
M  V30 5372 H 497.304 2.75352 1.51752 0
M  V30 5373 N 501.076 1.04316 1.18135 0
M  V30 5374 C 502.324 0.746542 1.87806 0
M  V30 5375 C 502.645 -0.728082 1.80898 0
M  V30 5376 O 501.915 -1.52554 1.22899 0
M  V30 5377 H 500.495 0.273157 0.695265 0
M  V30 5378 H 503.157 1.32044 1.43354 0
M  V30 5379 H 502.253 1.05362 2.93778 0
M  V30 5380 N 502.554 -1.34406 0.822964 0
M  V30 5381 C 503.802 -1.97892 0.410245 0
M  V30 5382 C 504.123 -1.65567 -1.03017 0
M  V30 5383 O 503.393 -0.94642 -1.71522 0
M  V30 5384 H 501.973 -0.732049 0.148707 0
M  V30 5385 H 504.635 -1.64043 1.05242 0
M  V30 5386 H 503.731 -3.07579 0.529284 0
M  V30 5387 N 504.032 -0.577932 -1.46621 0
M  V30 5388 C 504.979 0.158048 -2.30258 0
M  V30 5389 C 505.949 0.888669 -1.40328 0
M  V30 5390 O 507.134 0.880283 -1.6928 0
M  V30 5391 C 504.274 1.16884 -3.24703 0
M  V30 5392 C 503.387 0.442163 -4.29731 0
M  V30 5393 C 502.522 1.44007 -5.11308 0
M  V30 5394 C 501.561 0.69952 -6.0809 0
M  V30 5395 N 500.698 1.64525 -6.82551 0
M  V30 5396 H 505.538 -0.561242 -2.92667 0
M  V30 5397 H 503.075 -0.288591 -1.44241 0
M  V30 5398 H 505.033 1.7677 -3.779 0
M  V30 5399 H 503.663 1.85591 -2.64113 0
M  V30 5400 H 502.715 -0.271632 -3.79429 0
M  V30 5401 H 504.027 -0.136992 -4.98612 0
M  V30 5402 H 503.181 2.11186 -5.68758 0
M  V30 5403 H 501.92 2.05315 -4.42377 0
M  V30 5404 H 500.925 0.0139217 -5.49798 0
M  V30 5405 H 502.15 0.091894 -6.79038 0
M  V30 5406 H 500.096 2.24653 -6.16334 0
M  V30 5407 H 500.013 1.11878 -7.47676 0
M  V30 5408 H 501.281 2.30754 -7.44562 0
M  V30 5409 N 505.51 1.54411 -0.315457 0
M  V30 5410 C 506.787 1.92562 0.343398 0
M  V30 5411 C 507.167 1.24423 1.70535 0
M  V30 5412 O 506.515 0.385051 2.25232 0
M  V30 5413 C 506.725 3.46168 0.443687 0
M  V30 5414 C 508.073 4.18659 0.707783 0
M  V30 5415 O 509.097 3.52281 0.52693 0
M  V30 5416 O 507.956 5.36198 1.05612 0
M  V30 5417 H 505.05 0.80379 0.194552 0
M  V30 5418 H 507.596 1.65738 -0.364577 0
M  V30 5419 H 506.368 3.8792 -0.513172 0
M  V30 5420 H 505.991 3.79073 1.19956 0
M  V30 5421 N 506.988 0.0434614 1.5754 0
M  V30 5422 C 507.918 -0.931651 2.14109 0
M  V30 5423 C 508.899 -1.32971 1.06079 0
M  V30 5424 O 510.084 -1.40579 1.33982 0
M  V30 5425 C 507.214 -2.20914 2.67982 0
M  V30 5426 C 506.168 -1.95139 3.80926 0
M  V30 5427 C 505.494 -3.29276 4.21285 0
M  V30 5428 C 506.794 -1.27913 5.06395 0
M  V30 5429 H 508.488 -0.460497 2.95837 0
M  V30 5430 H 506.034 -0.220058 1.42309 0
M  V30 5431 H 507.987 -2.89522 3.06194 0
M  V30 5432 H 506.711 -2.70221 1.83434 0
M  V30 5433 H 505.37 -1.28945 3.43175 0
M  V30 5434 H 505.018 -3.76369 3.33699 0
M  V30 5435 H 504.718 -3.12831 4.97404 0
M  V30 5436 H 506.242 -3.99129 4.62091 0
M  V30 5437 H 507.656 -1.86544 5.42102 0
M  V30 5438 H 506.053 -1.2182 5.87605 0
M  V30 5439 H 507.123 -0.254066 4.84234 0
M  V30 5440 N 508.466 -1.55915 -0.229846 0
M  V30 5441 C 509.396 -1.94754 -1.28815 0
M  V30 5442 C 510.377 -0.814657 -1.49323 0
M  V30 5443 O 511.562 -1.07631 -1.61645 0
M  V30 5444 C 508.692 -2.25705 -2.63959 0
M  V30 5445 C 507.646 -3.41406 -2.5812 0
M  V30 5446 C 506.972 -3.57941 -3.97218 0
M  V30 5447 C 508.272 -4.76616 -2.13623 0
M  V30 5448 H 509.966 -2.83404 -0.965547 0
M  V30 5449 H 507.512 -1.36353 -0.463028 0
M  V30 5450 H 509.465 -2.51467 -3.38146 0
M  V30 5451 H 508.189 -1.339 -2.9789 0
M  V30 5452 H 506.848 -3.1568 -1.86391 0
M  V30 5453 H 506.496 -2.63526 -4.28443 0
M  V30 5454 H 506.196 -4.35757 -3.94195 0
M  V30 5455 H 507.72 -3.86042 -4.73079 0
M  V30 5456 H 509.134 -5.01637 -2.77549 0
M  V30 5457 H 507.531 -5.57655 -2.21677 0
M  V30 5458 H 508.601 -4.7253 -1.08829 0
M  V30 5459 N 509.944 0.496216 -1.49584 0
M  V30 5460 C 510.907 1.57952 -1.66084 0
M  V30 5461 C 511.907 1.51729 -0.53244 0
M  V30 5462 O 513.097 1.54796 -0.79899 0
M  V30 5463 C 510.229 2.97604 -1.66268 0
M  V30 5464 H 511.422 1.44649 -2.6271 0
M  V30 5465 H 508.975 0.7208 -1.38687 0
M  V30 5466 H 509.71 3.16378 -0.712432 0
M  V30 5467 H 509.495 3.03528 -2.4822 0
M  V30 5468 H 510.985 3.76301 -1.81073 0
M  V30 5469 N 511.423 1.38739 0.74761 0
M  V30 5470 C 512.7 1.25791 1.49786 0
M  V30 5471 C 513.08 -0.138075 2.10648 0
M  V30 5472 O 512.428 -1.14815 1.9756 0
M  V30 5473 C 512.638 2.37265 2.55942 0
M  V30 5474 C 513.986 2.75978 3.22679 0
M  V30 5475 O 515.01 2.36621 2.6625 0
M  V30 5476 O 513.869 3.43867 4.24756 0
M  V30 5477 H 510.963 0.492251 0.664543 0
M  V30 5478 H 513.509 1.50582 0.782511 0
M  V30 5479 H 512.281 3.30644 2.0926 0
M  V30 5480 H 511.904 2.14071 3.35051 0
M  V30 5481 N 512.901 -0.976442 1.23707 0
M  V30 5482 C 514.312 -1.53284 1.06587 0
M  V30 5483 C 514.663 -1.92765 -0.365526 0
M  V30 5484 O 513.788 -1.7645 -1.25277 0
M  V30 5485 C 514.383 -2.78548 1.92864 0
M  V30 5486 C 512.942 -3.30574 1.79994 0
M  V30 5487 C 512.089 -2.03538 1.88328 0
M  V30 5488 H 515.04 -0.795692 1.37311 0
M  V30 5489 H 515.061 -3.5155 1.45577 0
M  V30 5490 H 514.573 -2.49782 2.97037 0
M  V30 5491 H 512.674 -3.64211 0.786202 0
M  V30 5492 H 512.787 -4.00065 2.636 0
M  V30 5493 H 511.151 -2.17853 1.31954 0
M  V30 5494 H 511.934 -1.77149 2.94063 0
M  V30 5495 N 514.379 -1.04941 -1.1758 0
M  V30 5496 C 515.311 -0.606174 -2.21039 0
M  V30 5497 C 516.324 0.328763 -1.59446 0
M  V30 5498 O 517.513 0.121895 -1.78083 0
M  V30 5499 C 514.613 0.133294 -3.38638 0
M  V30 5500 C 513.786 -0.811711 -4.29802 0
M  V30 5501 C 512.845 -0.113958 -5.26077 0
M  V30 5502 O 511.871 -0.747237 -5.64274 0
M  V30 5503 N 513.073 1.14953 -5.69004 0
M  V30 5504 H 515.838 -1.49606 -2.59689 0
M  V30 5505 H 513.399 -0.930997 -1.32454 0
M  V30 5506 H 515.391 0.610144 -4.00074 0
M  V30 5507 H 513.961 0.924816 -2.98607 0
M  V30 5508 H 513.181 -1.46824 -3.65837 0
M  V30 5509 H 514.469 -1.45326 -4.87604 0
M  V30 5510 H 513.867 1.68441 -5.40041 0
M  V30 5511 H 512.424 1.57049 -6.32597 0
M  V30 5512 N 515.857 1.33968 -0.830081 0
M  V30 5513 C 517.134 1.92554 -0.343858 0
M  V30 5514 C 517.514 1.7573 1.16971 0
M  V30 5515 O 516.862 1.14035 1.98011 0
M  V30 5516 C 517.072 3.40147 -0.781073 0
M  V30 5517 C 518.42 4.17299 -0.78402 0
M  V30 5518 O 519.444 3.48762 -0.724112 0
M  V30 5519 O 518.303 5.39631 -0.863739 0
M  V30 5520 H 515.397 0.821469 -0.0954827 0
M  V30 5521 H 517.943 1.42897 -0.915348 0
M  V30 5522 H 516.715 3.46225 -1.82329 0
M  V30 5523 H 516.338 3.97166 -0.18567 0
M  V30 5524 N 517.335 0.585699 1.46312 0
M  V30 5525 C 518.581 0.0725284 2.0267 0
M  V30 5526 C 518.914 -1.28523 1.45586 0
M  V30 5527 O 518.189 -1.84283 0.622101 0
M  V30 5528 C 518.472 0.0099788 3.60099 0
M  V30 5529 C 518.325 1.39685 4.27561 0
M  V30 5530 C 519.644 -0.689117 4.34671 0
M  V30 5531 H 516.763 0.0278307 0.736474 0
M  V30 5532 H 519.405 0.753472 1.74421 0
M  V30 5533 H 517.555 -0.56992 3.84297 0
M  V30 5534 H 519.227 2.02215 4.14617 0
M  V30 5535 H 517.47 1.96374 3.86807 0
M  V30 5536 H 518.141 1.30553 5.36339 0
M  V30 5537 H 520.617 -0.196446 4.15636 0
M  V30 5538 H 519.493 -0.701921 5.44393 0
M  V30 5539 H 519.754 -1.75101 4.05946 0
M  V30 5540 N 518.813 -1.54241 0.323641 0
M  V30 5541 C 520.061 -2.00174 -0.278359 0
M  V30 5542 C 520.382 -1.2134 -1.52648 0
M  V30 5543 O 519.652 -0.315244 -1.93347 0
M  V30 5544 H 518.232 -0.739463 -0.105845 0
M  V30 5545 H 520.894 -1.89864 0.440204 0
M  V30 5546 H 519.99 -3.07486 -0.5347 0
M  V30 5547 N 520.291 -0.0518155 -1.57515 0
M  V30 5548 C 521.221 0.920283 -2.146 0
M  V30 5549 C 522.202 1.32406 -1.06783 0
M  V30 5550 O 523.387 1.39866 -1.34726 0
M  V30 5551 C 520.517 2.1949 -2.6915 0
M  V30 5552 C 519.471 1.93116 -3.81956 0
M  V30 5553 C 518.797 3.27037 -4.23026 0
M  V30 5554 C 520.097 1.25225 -5.07066 0
M  V30 5555 H 521.791 0.444801 -2.96077 0
M  V30 5556 H 519.337 0.212508 -1.42423 0
M  V30 5557 H 521.29 2.87894 -3.07725 0
M  V30 5558 H 520.014 2.69244 -1.84865 0
M  V30 5559 H 518.673 1.27123 -3.43854 0
M  V30 5560 H 518.321 3.74595 -3.3569 0
M  V30 5561 H 518.021 3.10189 -4.99056 0
M  V30 5562 H 519.545 3.96673 -4.64202 0
M  V30 5563 H 520.959 1.83666 -5.43083 0
M  V30 5564 H 519.356 1.18702 -5.88243 0
M  V30 5565 H 520.426 0.228382 -4.84362 0
M  V30 5566 N 521.769 1.56035 0.221574 0
M  V30 5567 C 522.699 1.95434 1.2778 0
M  V30 5568 C 523.68 0.822564 1.48889 0
M  V30 5569 O 524.865 1.08486 1.61072 0
M  V30 5570 C 521.995 2.27102 2.62759 0
M  V30 5571 C 520.949 3.4277 2.56306 0
M  V30 5572 C 520.275 3.60043 3.95314 0
M  V30 5573 C 521.575 4.77742 2.11093 0
M  V30 5574 H 523.269 2.83912 0.950504 0
M  V30 5575 H 520.815 1.36596 0.455791 0
M  V30 5576 H 522.768 2.53256 3.36807 0
M  V30 5577 H 521.492 1.35478 2.97176 0
M  V30 5578 H 520.151 3.16664 1.84715 0
M  V30 5579 H 519.799 2.65794 4.27039 0
M  V30 5580 H 519.499 4.37841 3.91879 0
M  V30 5581 H 521.023 3.88545 4.71025 0
M  V30 5582 H 522.437 5.03102 2.74885 0
M  V30 5583 H 520.834 5.58823 2.18716 0
M  V30 5584 H 521.904 4.731 1.06321 0
M  V30 5585 N 523.247 -0.488276 1.49845 0
M  V30 5586 C 524.177 -1.59675 1.70371 0
M  V30 5587 C 525.158 -1.60878 0.552473 0
M  V30 5588 O 526.343 -1.77417 0.78973 0
M  V30 5589 C 523.473 -2.98098 1.782 0
M  V30 5590 C 522.427 -3.11761 2.93239 0
M  V30 5591 C 521.753 -4.51661 2.86193 0
M  V30 5592 C 523.053 -2.90589 4.33999 0
M  V30 5593 H 524.747 -1.42752 2.63177 0
M  V30 5594 H 522.293 -0.685317 1.26647 0
M  V30 5595 H 524.246 -3.75555 1.91144 0
M  V30 5596 H 522.97 -3.16138 0.820018 0
M  V30 5597 H 521.629 -2.36732 2.79917 0
M  V30 5598 H 521.277 -4.66595 1.87877 0
M  V30 5599 H 520.977 -4.61742 3.63412 0
M  V30 5600 H 522.501 -5.31162 3.01163 0
M  V30 5601 H 523.915 -3.57807 4.47936 0
M  V30 5602 H 522.312 -3.1213 5.12538 0
M  V30 5603 H 523.382 -1.86595 4.4756 0
M  V30 5604 N 524.725 -1.39134 -0.740242 0
M  V30 5605 C 526.136 -1.32208 -1.31825 0
M  V30 5606 C 526.487 0.0159919 -1.96193 0
M  V30 5607 O 525.612 0.918111 -1.95958 0
M  V30 5608 C 526.207 -2.39436 -2.39699 0
M  V30 5609 C 524.766 -2.36048 -2.93187 0
M  V30 5610 C 523.913 -2.21599 -1.66701 0
M  V30 5611 H 526.864 -1.49298 -0.538133 0
M  V30 5612 H 526.885 -2.05922 -3.19963 0
M  V30 5613 H 526.397 -3.36811 -1.92821 0
M  V30 5614 H 524.498 -1.42295 -3.44359 0
M  V30 5615 H 524.611 -3.30704 -3.46658 0
M  V30 5616 H 522.975 -1.68681 -1.90837 0
M  V30 5617 H 523.758 -3.20936 -1.21882 0
M  V30 5618 N 526.204 0.969867 -1.24223 0
M  V30 5619 C 527.151 2.06407 -1.0327 0
M  V30 5620 C 528.121 1.66014 0.0533 0
M  V30 5621 O 529.306 1.90533 -0.100896 0
M  V30 5622 C 526.446 3.3909 -0.641262 0
M  V30 5623 C 525.559 3.9269 -1.80051 0
M  V30 5624 C 524.694 5.13631 -1.35486 0
M  V30 5625 C 523.733 5.59423 -2.48419 0
M  V30 5626 N 522.87 6.71586 -2.04737 0
M  V30 5627 H 527.71 2.23663 -1.96923 0
M  V30 5628 H 525.247 1.09624 -0.980862 0
M  V30 5629 H 527.205 4.15323 -0.395351 0
M  V30 5630 H 525.835 3.21765 0.258269 0
M  V30 5631 H 524.887 3.13116 -2.16014 0
M  V30 5632 H 526.199 4.22636 -2.64916 0
M  V30 5633 H 525.353 5.97231 -1.0677 0
M  V30 5634 H 524.092 4.85364 -0.476722 0
M  V30 5635 H 523.097 4.74398 -2.77897 0
M  V30 5636 H 524.322 5.89705 -3.36786 0
M  V30 5637 H 522.268 6.45058 -1.19318 0
M  V30 5638 H 522.185 7.0097 -2.83156 0
M  V30 5639 H 523.453 7.58633 -1.79154 0
M  V30 5640 N 527.682 1.05563 1.17022 0
M  V30 5641 C 528.612 0.681026 2.23348 0
M  V30 5642 C 529.593 -0.322983 1.67005 0
M  V30 5643 O 530.778 -0.199746 1.9317 0
M  V30 5644 C 527.908 0.0589053 3.4725 0
M  V30 5645 C 526.862 0.988082 4.16438 0
M  V30 5646 C 526.188 0.229646 5.34207 0
M  V30 5647 C 527.488 2.31388 4.68249 0
M  V30 5648 H 529.182 1.56993 2.54938 0
M  V30 5649 H 526.728 0.756302 1.2254 0
M  V30 5650 H 528.681 -0.214982 4.20851 0
M  V30 5651 H 527.405 -0.864968 3.14938 0
M  V30 5652 H 526.064 1.24659 3.44754 0
M  V30 5653 H 525.712 -0.697111 4.98146 0
M  V30 5654 H 525.412 0.848815 5.81437 0
M  V30 5655 H 526.936 -0.0368694 6.10589 0
M  V30 5656 H 528.35 2.09964 5.33468 0
M  V30 5657 H 526.747 2.88736 5.26072 0
M  V30 5658 H 527.817 2.94982 3.84855 0
M  V30 5659 N 529.16 -1.33526 0.837174 0
M  V30 5660 C 530.571 -1.80182 0.489017 0
M  V30 5661 C 530.922 -1.69285 -0.991826 0
M  V30 5662 O 530.047 -1.24113 -1.77271 0
M  V30 5663 C 530.642 -3.27149 0.880866 0
M  V30 5664 C 529.201 -3.71828 0.584872 0
M  V30 5665 C 528.348 -2.54974 1.09011 0
M  V30 5666 H 531.299 -1.21071 1.02603 0
M  V30 5667 H 531.32 -3.80024 0.190239 0
M  V30 5668 H 530.832 -3.35048 1.95869 0
M  V30 5669 H 528.933 -3.69457 -0.48295 0
M  V30 5670 H 529.046 -4.65366 1.13892 0
M  V30 5671 H 527.41 -2.4952 0.511047 0
M  V30 5672 H 528.193 -2.65637 2.17467 0
M  V30 5673 N 530.638 -0.59345 -1.46 0
M  V30 5674 C 531.586 0.146268 -2.3214 0
M  V30 5675 C 532.58 0.873743 -1.45128 0
M  V30 5676 O 533.786 0.790912 -1.61693 0
M  V30 5677 H 530.161 0.0660349 -0.749095 0
M  V30 5678 H 532.132 -0.598895 -2.92328 0
M  V30 5679 C 530.881 1.1396 -3.28494 0
M  V30 5680 H 530.204 0.589252 -3.95434 0
M  V30 5681 H 531.644 1.62738 -3.91526 0
M  V30 5682 C 530.103 2.20604 -2.54628 0
M  V30 5683 O 530.633 3.28128 -2.31722 0
M  V30 5684 N 528.839 1.95502 -2.15005 0
M  V30 5685 H 528.386 1.0807 -2.33834 0
M  V30 5686 H 528.344 2.67064 -1.65904 0
M  V30 5687 N 532.116 1.54067 -0.331816 0
M  V30 5688 C 533.046 2.27569 0.522932 0
M  V30 5689 C 534.027 1.28679 1.11247 0
M  V30 5690 O 535.212 1.57504 1.13605 0
M  V30 5691 C 532.342 3.0397 1.67987 0
M  V30 5692 C 531.296 4.10267 1.21924 0
M  V30 5693 C 530.622 4.74555 2.46377 0
M  V30 5694 C 531.922 5.21268 0.32815 0
M  V30 5695 H 533.616 2.99264 -0.0901977 0
M  V30 5696 H 531.162 1.4393 -0.044821 0
M  V30 5697 H 533.115 3.54123 2.28418 0
M  V30 5698 H 531.839 2.29906 2.31971 0
M  V30 5699 H 530.498 3.61009 0.637809 0
M  V30 5700 H 530.146 3.97098 3.08743 0
M  V30 5701 H 529.846 5.46363 2.16243 0
M  V30 5702 H 531.37 5.27487 3.07555 0
M  V30 5703 H 532.784 5.67128 0.838978 0
M  V30 5704 H 531.181 5.99982 0.119228 0
M  V30 5705 H 532.251 4.80673 -0.638839 0
M  V30 5706 N 533.594 0.0601682 1.57485 0
M  V30 5707 C 534.843 -0.611101 1.9222 0
M  V30 5708 C 535.156 -1.71469 0.941159 0
M  V30 5709 O 536.362 -2.44473 1.18089 0
M  V30 5710 C 534.818 -1.13832 3.41424 0
M  V30 5711 C 534.426 -0.0663596 4.47951 0
M  V30 5712 C 536.17 -1.78432 3.85178 0
M  V30 5713 C 534.077 -0.606965 5.88277 0
M  V30 5714 H 533.007 -0.232033 0.71741 0
M  V30 5715 H 535.658 0.130518 1.83035 0
M  V30 5716 H 534.04 -1.93254 3.45643 0
M  V30 5717 H 535.214 0.707682 4.55333 0
M  V30 5718 H 533.529 0.482715 4.13593 0
M  V30 5719 H 536.126 -2.1989 4.87394 0
M  V30 5720 H 536.469 -2.63966 3.21913 0
M  V30 5721 H 537.002 -1.05651 3.83514 0
M  V30 5722 H 533.741 0.21095 6.5516 0
M  V30 5723 H 533.261 -1.34879 5.84438 0
M  V30 5724 H 534.94 -1.08704 6.37803 0
M  V30 5725 N 535.072 -1.5615 -0.213296 0
M  V30 5726 C 536.302 -1.83372 -0.951757 0
M  V30 5727 C 536.71 -0.638158 -1.78113 0
M  V30 5728 O 536.053 0.402609 -1.79234 0
M  V30 5729 C 536.115 -3.04444 -1.91192 0
M  V30 5730 C 535.779 -4.39107 -1.26627 0
M  V30 5731 C 536.776 -5.15794 -0.652087 0
M  V30 5732 C 534.461 -4.85834 -1.27556 0
M  V30 5733 C 536.455 -6.37376 -0.055814 0
M  V30 5734 C 534.142 -6.07356 -0.675451 0
M  V30 5735 C 535.14 -6.82967 -0.0666367 0
M  V30 5736 O 534.828 -8.0219 0.524119 0
M  V30 5737 H 534.56 -0.613398 -0.284111 0
M  V30 5738 H 537.114 -2.04096 -0.231112 0
M  V30 5739 H 535.344 -2.79559 -2.67178 0
M  V30 5740 H 537.033 -3.18466 -2.51662 0
M  V30 5741 H 537.799 -4.80796 -0.637172 0
M  V30 5742 H 533.678 -4.26949 -1.73883 0
M  V30 5743 H 537.222 -6.96334 0.420004 0
M  V30 5744 H 533.119 -6.41825 -0.687806 0
M  V30 5745 H 533.887 -8.17426 0.419243 0
M  V30 5746 N 536.55 0.480323 -1.50102 0
M  V30 5747 C 537.5 1.57685 -1.6468 0
M  V30 5748 C 538.484 1.52878 -0.5017 0
M  V30 5749 O 539.676 1.60058 -0.755668 0
M  V30 5750 C 536.805 2.96185 -1.73578 0
M  V30 5751 C 535.891 3.0591 -2.93734 0
M  V30 5752 N 536.282 2.85471 -4.1754 0
M  V30 5753 C 534.58 3.37036 -2.92101 0
M  V30 5754 C 535.281 2.99921 -4.9842 0
M  V30 5755 N 534.257 3.29715 -4.32191 0
M  V30 5756 H 538.059 1.40568 -2.58104 0
M  V30 5757 H 535.573 0.686874 -1.47159 0
M  V30 5758 H 537.57 3.75015 -1.82124 0
M  V30 5759 H 536.23 3.14356 -0.813057 0
M  V30 5760 H 537.241 2.61235 -4.47188 0
M  V30 5761 H 533.918 3.61253 -2.09291 0
M  V30 5762 H 535.308 2.88436 -6.06839 0
M  V30 5763 N 538.028 1.39524 0.732853 0
M  V30 5764 C 538.975 1.38416 1.84688 0
M  V30 5765 C 539.945 0.243539 1.64305 0
M  V30 5766 O 541.13 0.438979 1.85681 0
M  V30 5767 C 538.27 1.23555 3.22224 0
M  V30 5768 C 537.383 2.47179 3.54298 0
M  V30 5769 C 536.518 2.2489 4.81246 0
M  V30 5770 C 535.557 3.44178 5.0617 0
M  V30 5771 N 534.694 3.21192 6.24323 0
M  V30 5772 H 539.534 2.33645 1.84971 0
M  V30 5773 H 537.071 1.16059 0.903804 0
M  V30 5774 H 539.029 1.12949 4.0162 0
M  V30 5775 H 537.659 0.31954 3.21215 0
M  V30 5776 H 536.711 2.68379 2.69587 0
M  V30 5777 H 538.023 3.36022 3.68633 0
M  V30 5778 H 537.177 2.11538 5.68627 0
M  V30 5779 H 535.916 1.33443 4.69089 0
M  V30 5780 H 534.921 3.58025 4.17251 0
M  V30 5781 H 536.146 4.36528 5.20212 0
M  V30 5782 H 534.092 2.32413 6.1345 0
M  V30 5783 H 534.009 4.03594 6.39256 0
M  V30 5784 H 535.277 3.1154 7.14537 0
M  V30 5785 N 539.506 -0.963266 1.24736 0
M  V30 5786 C 540.416 -2.09246 1.06082 0
M  V30 5787 C 541.432 -1.74 0.000363101 0
M  V30 5788 O 542.608 -2.0041 0.199479 0
M  V30 5789 C 539.673 -3.40115 0.672498 0
M  V30 5790 C 538.734 -3.89282 1.80993 0
M  V30 5791 C 537.967 -5.13905 1.44004 0
M  V30 5792 O 538.19 -5.69434 0.331835 0
M  V30 5793 O 537.124 -5.57566 2.26723 0
M  V30 5794 H 540.95 -2.27881 2.00759 0
M  V30 5795 H 538.535 -1.07649 1.03595 0
M  V30 5796 H 540.417 -4.18797 0.467668 0
M  V30 5797 H 539.092 -3.22771 -0.245102 0
M  V30 5798 H 537.999 -3.11642 2.06955 0
M  V30 5799 H 539.332 -4.1111 2.70646 0
M  V30 5800 N 540.985 -1.06182 -1.16461 0
M  V30 5801 C 542.234 -0.772927 -1.86303 0
M  V30 5802 C 542.547 0.703187 -1.82523 0
M  V30 5803 O 543.753 1.10641 -2.47933 0
M  V30 5804 C 542.209 -1.33249 -3.34324 0
M  V30 5805 C 541.817 -2.83876 -3.46581 0
M  V30 5806 C 543.561 -1.12108 -4.09429 0
M  V30 5807 C 541.468 -3.33082 -4.88682 0
M  V30 5808 H 540.398 -0.285452 -0.697878 0
M  V30 5809 H 543.049 -1.28039 -1.31447 0
M  V30 5810 H 541.431 -0.7528 -3.88779 0
M  V30 5811 H 542.605 -3.47786 -3.02293 0
M  V30 5812 H 540.92 -3.03671 -2.84909 0
M  V30 5813 H 543.517 -1.46361 -5.14279 0
M  V30 5814 H 543.86 -0.0593832 -4.16258 0
M  V30 5815 H 544.393 -1.6665 -3.6121 0
M  V30 5816 H 541.132 -4.38726 -4.87032 0
M  V30 5817 H 540.652 -2.73919 -5.33599 0
M  V30 5818 H 542.331 -3.28344 -5.57494 0
M  V30 5819 N 542.463 1.3308 -0.844243 0
M  V30 5820 C 543.874 1.7992 -0.498566 0
M  V30 5821 C 544.225 1.69808 0.982834 0
M  V30 5822 O 543.35 1.25051 1.7661 0
M  V30 5823 C 543.945 3.26677 -0.898204 0
M  V30 5824 C 542.504 3.71513 -0.604583 0
M  V30 5825 C 541.651 2.54393 -1.10362 0
M  V30 5826 H 544.602 1.20526 -1.03244 0
M  V30 5827 H 544.623 3.79918 -0.21039 0
M  V30 5828 H 544.135 3.34004 -1.97643 0
M  V30 5829 H 542.236 3.69708 0.46335 0
M  V30 5830 H 542.349 4.64755 -1.16358 0
M  V30 5831 H 540.713 2.49246 -0.524273 0
M  V30 5832 H 541.496 2.6448 -2.18873 0
M  V30 5833 N 543.941 0.601185 1.45683 0
M  V30 5834 C 545.188 0.0938811 2.02282 0
M  V30 5835 C 545.516 -1.27315 1.47041 0
M  V30 5836 O 544.771 -1.85193 0.632623 0
M  V30 5837 C 545.07 -0.00222425 3.574 0
M  V30 5838 C 544.736 1.29963 4.31764 0
M  V30 5839 C 543.398 1.65625 4.51798 0
M  V30 5840 C 545.75 2.1603 4.74321 0
M  V30 5841 C 543.078 2.87119 5.11644 0
M  V30 5842 C 545.43 3.36766 5.3551 0
M  V30 5843 C 544.094 3.72689 5.53768 0
M  V30 5844 H 543.364 0.0343535 0.740203 0
M  V30 5845 H 546.011 0.781522 1.74827 0
M  V30 5846 H 544.316 -0.773096 3.84097 0
M  V30 5847 H 546.013 -0.410794 3.9889 0
M  V30 5848 H 542.603 1.01204 4.1648 0
M  V30 5849 H 546.787 1.89778 4.58582 0
M  V30 5850 H 542.043 3.15065 5.2397 0
M  V30 5851 H 546.217 4.03713 5.67441 0
M  V30 5852 H 543.844 4.66918 5.99909 0
M  V30 5853 N 545.419 -1.53889 0.339982 0
M  V30 5854 C 546.649 -2.04973 -0.258738 0
M  V30 5855 C 547.057 -1.21485 -1.45045 0
M  V30 5856 O 546.4 -0.2422 -1.82096 0
M  V30 5857 C 546.462 -3.51783 -0.740853 0
M  V30 5858 C 546.126 -4.55802 0.330734 0
M  V30 5859 C 547.123 -5.06512 1.17226 0
M  V30 5860 C 544.808 -4.99966 0.483637 0
M  V30 5861 C 546.802 -5.99963 2.15227 0
M  V30 5862 C 544.489 -5.93229 1.46704 0
M  V30 5863 C 545.487 -6.43115 2.29981 0
M  V30 5864 O 545.175 -7.34545 3.26649 0
M  V30 5865 H 544.907 -0.673807 -0.0544037 0
M  V30 5866 H 547.461 -1.99492 0.489107 0
M  V30 5867 H 545.691 -3.54717 -1.53988 0
M  V30 5868 H 547.38 -3.85857 -1.25973 0
M  V30 5869 H 548.146 -4.73158 1.0652 0
M  V30 5870 H 544.025 -4.6074 -0.15471 0
M  V30 5871 H 547.569 -6.38825 2.80265 0
M  V30 5872 H 543.466 -6.25998 1.57468 0
M  V30 5873 H 544.234 -7.52468 3.22078 0
M  V30 5874 N 546.897 -0.0685191 -1.57451 0
M  V30 5875 C 547.845 0.917577 -2.13736 0
M  V30 5876 C 548.839 1.31049 -1.07344 0
M  V30 5877 O 550.045 1.28811 -1.25728 0
M  V30 5878 H 546.42 0.313835 -0.683382 0
M  V30 5879 H 548.391 0.417903 -2.95459 0
M  V30 5880 C 547.14 2.17686 -2.71123 0
M  V30 5881 H 546.463 1.88336 -3.52661 0
M  V30 5882 H 547.903 2.84803 -3.14107 0
M  V30 5883 C 546.362 2.9332 -1.65726 0
M  V30 5884 O 546.892 3.86901 -1.08031 0
M  V30 5885 N 545.098 2.56367 -1.36837 0
M  V30 5886 H 544.645 1.80341 -1.83943 0
M  V30 5887 H 544.603 3.07276 -0.665501 0
M  V30 5888 N 548.375 1.56261 0.205012 0
M  V30 5889 C 549.325 1.90155 1.25798 0
M  V30 5890 C 550.309 0.766227 1.41484 0
M  V30 5891 O 551.501 1.02893 1.44021 0
M  V30 5892 C 548.63 2.23603 2.60493 0
M  V30 5893 C 547.716 3.43568 2.48639 0
M  V30 5894 N 548.107 4.61747 2.06455 0
M  V30 5895 C 546.405 3.4751 2.79558 0
M  V30 5896 C 547.106 5.43907 2.06253 0
M  V30 5897 N 546.082 4.84051 2.47377 0
M  V30 5898 H 549.884 2.79031 0.922986 0
M  V30 5899 H 547.398 1.57048 0.413501 0
M  V30 5900 H 549.395 2.46067 3.36537 0
M  V30 5901 H 548.055 1.36049 2.94823 0
M  V30 5902 H 549.066 4.86598 1.77321 0
M  V30 5903 H 545.743 2.70345 3.18151 0
M  V30 5904 H 547.133 6.48542 1.75622 0
M  V30 5905 N 549.853 -0.472356 1.50355 0
M  V30 5906 C 550.783 -1.57859 1.72055 0
M  V30 5907 C 551.764 -1.60283 0.569505 0
M  V30 5908 O 552.949 -1.7657 0.808503 0
M  V30 5909 C 550.079 -2.96191 1.81351 0
M  V30 5910 C 549.033 -3.08633 2.96529 0
M  V30 5911 C 548.359 -4.486 2.90968 0
M  V30 5912 C 549.659 -2.85969 4.37057 0
M  V30 5913 H 551.353 -1.39953 2.64676 0
M  V30 5914 H 548.899 -0.671846 1.27367 0
M  V30 5915 H 550.852 -3.73507 1.95117 0
M  V30 5916 H 549.576 -3.15251 0.853502 0
M  V30 5917 H 548.235 -2.33749 2.82413 0
M  V30 5918 H 547.883 -4.64577 1.92815 0
M  V30 5919 H 547.583 -4.57861 3.68289 0
M  V30 5920 H 549.107 -5.27938 3.0678 0
M  V30 5921 H 550.521 -3.53036 4.51706 0
M  V30 5922 H 548.918 -3.06677 5.15819 0
M  V30 5923 H 549.988 -1.81838 4.49514 0
M  V30 5924 N 551.331 -1.39911 -0.725443 0
M  V30 5925 C 552.608 -1.28158 -1.47766 0
M  V30 5926 C 552.988 0.104545 -2.10841 0
M  V30 5927 O 552.336 1.11657 -1.99361 0
M  V30 5928 C 552.546 -2.41306 -2.52135 0
M  V30 5929 C 553.894 -2.81076 -3.18247 0
M  V30 5930 O 554.918 -2.40827 -2.62452 0
M  V30 5931 O 553.777 -3.50581 -4.19231 0
M  V30 5932 H 550.871 -0.502761 -0.656628 0
M  V30 5933 H 553.417 -1.51808 -0.758456 0
M  V30 5934 H 552.189 -3.33932 -2.03974 0
M  V30 5935 H 551.812 -2.19374 -3.31603 0
M  V30 5936 N 552.809 0.956637 -1.25245 0
M  V30 5937 C 554.056 1.701 -1.09874 0
M  V30 5938 C 554.384 1.91128 0.36062 0
M  V30 5939 O 553.639 1.47837 1.28229 0
M  V30 5940 C 553.938 3.08996 -1.79601 0
M  V30 5941 C 553.604 3.07774 -3.29523 0
M  V30 5942 C 552.266 3.07149 -3.70423 0
M  V30 5943 C 554.618 3.01257 -4.25316 0
M  V30 5944 C 551.946 2.97752 -5.0553 0
M  V30 5945 C 554.298 2.93403 -5.60444 0
M  V30 5946 C 552.962 2.91111 -6.00675 0
M  V30 5947 H 552.232 0.62244 -0.402056 0
M  V30 5948 H 554.879 1.1178 -1.55491 0
M  V30 5949 H 553.184 3.70848 -1.26408 0
M  V30 5950 H 554.881 3.65407 -1.65162 0
M  V30 5951 H 551.471 3.09032 -2.9698 0
M  V30 5952 H 555.655 3.00861 -3.9471 0
M  V30 5953 H 550.911 2.94346 -5.35883 0
M  V30 5954 H 555.085 2.87321 -6.34366 0
M  V30 5955 H 552.712 2.83586 -7.05325 0
M  V30 5956 N 554.287 1.06798 1.15896 0
M  V30 5957 C 555.536 0.782796 1.8589 0
M  V30 5958 C 555.849 -0.693498 1.82893 0
M  V30 5959 O 557.055 -1.09325 2.48516 0
M  V30 5960 C 555.511 1.3502 3.33613 0
M  V30 5961 C 555.119 2.8571 3.45071 0
M  V30 5962 C 556.863 1.14278 4.08829 0
M  V30 5963 C 554.77 3.35669 4.86909 0
M  V30 5964 H 553.7 0.289149 0.696354 0
M  V30 5965 H 556.351 1.28734 1.30766 0
M  V30 5966 H 554.733 0.773407 3.88374 0
M  V30 5967 H 555.907 3.49385 3.00445 0
M  V30 5968 H 554.222 3.05178 2.83294 0
M  V30 5969 H 556.819 1.49087 5.13495 0
M  V30 5970 H 557.162 0.0814575 4.1622 0
M  V30 5971 H 557.695 1.68563 3.60321 0
M  V30 5972 H 554.434 4.41302 4.84698 0
M  V30 5973 H 553.954 2.76745 5.32139 0
M  V30 5974 H 555.633 3.31296 5.55745 0
M  V30 5975 N 555.766 -1.3263 0.851289 0
M  V30 5976 C 557.012 -1.98061 0.462963 0
M  V30 5977 C 557.367 -1.66162 -0.969948 0
M  V30 5978 O 556.66 -0.937723 -1.67085 0
M  V30 5979 C 556.854 -3.51713 0.635015 0
M  V30 5980 C 556.683 -3.98544 2.0831 0
M  V30 5981 C 555.453 -4.25787 2.72091 0
M  V30 5982 C 557.651 -4.13858 3.0533 0
M  V30 5983 N 555.633 -4.58842 4.07845 0
M  V30 5984 C 557.004 -4.50412 4.26063 0
M  V30 5985 C 559.059 -3.96182 3.0157 0
M  V30 5986 C 557.762 -4.71136 5.43529 0
M  V30 5987 C 559.788 -4.18088 4.18278 0
M  V30 5988 C 559.15 -4.54956 5.37768 0
M  V30 5989 H 555.249 -0.750976 0.218082 0
M  V30 5990 H 557.833 -1.60514 1.10197 0
M  V30 5991 H 556.004 -3.88391 0.0257298 0
M  V30 5992 H 557.736 -4.04118 0.216915 0
M  V30 5993 H 554.491 -4.17734 2.23149 0
M  V30 5994 H 554.915 -4.7956 4.77862 0
M  V30 5995 H 559.557 -3.66783 2.1031 0
M  V30 5996 H 557.275 -4.9939 6.35323 0
M  V30 5997 H 560.861 -4.05918 4.168 0
M  V30 5998 H 559.741 -4.71567 6.26573 0
M  V30 5999 N 557.244 -0.608902 -1.45362 0
M  V30 6000 C 558.207 0.0992563 -2.28985 0
M  V30 6001 C 559.207 0.793841 -1.39838 0
M  V30 6002 O 560.397 0.641804 -1.61946 0
M  V30 6003 C 557.529 1.15073 -3.20891 0
M  V30 6004 H 558.722 -0.635964 -2.93079 0
M  V30 6005 H 556.275 -0.368007 -1.51906 0
M  V30 6006 H 557.01 1.91667 -2.616 0
M  V30 6007 H 556.795 0.656867 -3.86559 0
M  V30 6008 H 558.285 1.64665 -3.83765 0
M  V30 6009 N 558.722 1.53707 -0.348139 0
M  V30 6010 C 559.655 2.21481 0.549667 0
M  V30 6011 C 560.633 1.20046 1.09671 0
M  V30 6012 O 561.817 1.48883 1.15612 0
M  V30 6013 C 558.944 2.89585 1.75664 0
M  V30 6014 C 557.99 4.04948 1.33864 0
M  V30 6015 S 558.823 5.34325 0.354577 0
M  V30 6016 C 559.979 6.05934 1.56828 0
M  V30 6017 H 560.212 2.97289 -0.0259755 0
M  V30 6018 H 557.745 1.53833 -0.132216 0
M  V30 6019 H 559.703 3.29441 2.44906 0
M  V30 6020 H 558.364 2.13535 2.30351 0
M  V30 6021 H 557.557 4.51552 2.23868 0
M  V30 6022 H 557.159 3.66893 0.725651 0
M  V30 6023 H 559.451 6.29606 2.50205 0
M  V30 6024 H 560.394 6.98799 1.14395 0
M  V30 6025 H 560.802 5.36151 1.76642 0
M  V30 6026 N 560.2 0.0768682 1.57412 0
M  V30 6027 C 561.477 -0.632359 1.85096 0
M  V30 6028 C 561.857 -1.87479 0.9703 0
M  V30 6029 O 561.205 -2.28469 0.0379062 0
M  V30 6030 C 561.415 -0.965174 3.35388 0
M  V30 6031 C 562.763 -1.33648 4.03018 0
M  V30 6032 O 563.787 -1.05675 3.40164 0
M  V30 6033 O 562.646 -1.85959 5.13889 0
M  V30 6034 H 559.74 -0.314574 0.764835 0
M  V30 6035 H 562.286 0.108184 1.69355 0
M  V30 6036 H 561.058 -0.0829745 3.91212 0
M  V30 6037 H 560.681 -1.76231 3.5641 0
M  V30 6038 N 561.678 -1.56367 -0.196722 0
M  V30 6039 C 562.641 -1.93561 -1.22746 0
M  V30 6040 C 563.641 -0.816566 -1.38524 0
M  V30 6041 O 564.831 -1.084 -1.36363 0
M  V30 6042 C 561.963 -2.20823 -2.59712 0
M  V30 6043 H 563.156 -2.85774 -0.909586 0
M  V30 6044 H 560.709 -1.50032 -0.438174 0
M  V30 6045 H 561.444 -1.31243 -2.96557 0
M  V30 6046 H 561.229 -3.02368 -2.49632 0
M  V30 6047 H 562.719 -2.50608 -3.34044 0
M  V30 6048 N 563.156 0.464375 -1.50603 0
M  V30 6049 C 564.567 1.04507 -1.5471 0
M  V30 6050 C 564.918 1.9297 -0.354542 0
M  V30 6051 O 564.043 2.09763 0.531812 0
M  V30 6052 C 564.638 1.90207 -2.80369 0
M  V30 6053 C 563.197 2.43373 -2.87135 0
M  V30 6054 C 562.344 1.21886 -2.49076 0
M  V30 6055 H 565.295 0.246716 -1.56771 0
M  V30 6056 H 565.316 2.75353 -2.62604 0
M  V30 6057 H 564.828 1.25796 -3.67147 0
M  V30 6058 H 562.929 3.11318 -2.04724 0
M  V30 6059 H 563.042 2.7802 -3.90181 0
M  V30 6060 H 561.406 1.55575 -2.01664 0
M  V30 6061 H 562.189 0.591268 -3.3817 0
M  V30 6062 N 564.634 1.40294 0.718013 0
M  V30 6063 C 565.566 1.36281 1.84283 0
M  V30 6064 C 566.579 0.268621 1.60569 0
M  V30 6065 O 567.768 0.528798 1.70487 0
M  V30 6066 C 564.868 1.09741 3.2064 0
M  V30 6067 C 564.041 2.30767 3.71571 0
M  V30 6068 C 563.1 2.00424 4.86535 0
M  V30 6069 O 562.126 2.73268 4.99313 0
M  V30 6070 N 563.328 0.980724 5.72156 0
M  V30 6071 H 566.093 2.3322 1.88225 0
M  V30 6072 H 563.654 1.34616 0.899453 0
M  V30 6073 H 565.646 0.874322 3.95143 0
M  V30 6074 H 564.216 0.214771 3.11861 0
M  V30 6075 H 563.436 2.68921 2.88228 0
M  V30 6076 H 564.724 3.11455 4.02335 0
M  V30 6077 H 564.122 0.377375 5.6444 0
M  V30 6078 H 562.679 0.817538 6.46653 0
M  V30 6079 N 566.112 -0.949982 1.2575 0
M  V30 6080 C 567.022 -2.08109 1.08295 0
M  V30 6081 C 568.038 -1.7399 0.0188181 0
M  V30 6082 O 569.214 -2.00187 0.220724 0
M  V30 6083 C 566.279 -3.39383 0.708534 0
M  V30 6084 C 565.34 -3.8734 1.85111 0
M  V30 6085 C 564.573 -5.12349 1.49447 0
M  V30 6086 O 564.796 -5.6905 0.392212 0
M  V30 6087 O 563.73 -5.5513 2.32624 0
M  V30 6088 H 567.556 -2.25738 2.03165 0
M  V30 6089 H 565.141 -1.06545 1.04731 0
M  V30 6090 H 567.023 -4.18277 0.512061 0
M  V30 6091 H 565.698 -3.23013 -0.210854 0
M  V30 6092 H 564.605 -3.09429 2.10248 0
M  V30 6093 H 565.938 -4.08216 2.74991 0
M  V30 6094 N 567.59 -1.07411 -1.15328 0
M  V30 6095 C 568.836 -0.798831 -1.86404 0
M  V30 6096 C 569.169 0.673433 -1.8215 0
M  V30 6097 O 568.444 1.49428 -1.24505 0
M  V30 6098 C 568.727 -1.30846 -3.35487 0
M  V30 6099 C 568.58 -2.84532 -3.4837 0
M  V30 6100 C 569.899 -0.925486 -4.30259 0
M  V30 6101 H 567.018 -0.291659 -0.676834 0
M  V30 6102 H 569.66 -1.332 -1.35491 0
M  V30 6103 H 567.81 -0.854916 -3.78977 0
M  V30 6104 H 569.482 -3.3818 -3.13739 0
M  V30 6105 H 567.725 -3.22699 -2.8991 0
M  V30 6106 H 568.396 -3.15259 -4.53118 0
M  V30 6107 H 570.872 -1.3163 -3.94731 0
M  V30 6108 H 569.748 -1.3094 -5.33053 0
M  V30 6109 H 570.009 0.168525 -4.41779 0
M  V30 6110 N 569.068 1.32177 -0.85831 0
M  V30 6111 C 570.298 2.01021 -0.476889 0
M  V30 6112 C 570.706 1.64653 0.931995 0
M  V30 6113 O 570.049 0.865713 1.62022 0
M  V30 6114 C 570.111 3.55413 -0.540528 0
M  V30 6115 C 569.775 4.1522 -1.90895 0
M  V30 6116 C 570.772 4.3318 -2.87491 0
M  V30 6117 C 568.457 4.51212 -2.20709 0
M  V30 6118 C 570.451 4.86306 -4.1205 0
M  V30 6119 C 568.138 5.04042 -3.45521 0
M  V30 6120 C 569.136 5.21538 -4.41007 0
M  V30 6121 O 568.824 5.73238 -5.63608 0
M  V30 6122 H 568.556 0.650059 -0.18547 0
M  V30 6123 H 571.11 1.69648 -1.15796 0
M  V30 6124 H 569.34 3.86196 0.19741 0
M  V30 6125 H 571.029 4.05526 -0.174191 0
M  V30 6126 H 571.795 4.05704 -2.65762 0
M  V30 6127 H 567.674 4.36878 -1.4717 0
M  V30 6128 H 571.218 4.99877 -4.86589 0
M  V30 6129 H 567.115 5.30952 -3.67098 0
M  V30 6130 H 567.883 5.91625 -5.65617 0
M  V30 6131 N 570.547 0.616602 1.45037 0
M  V30 6132 C 571.495 -0.109318 2.32343 0
M  V30 6133 C 572.489 -0.850543 1.465 0
M  V30 6134 O 573.695 -0.765088 1.62931 0
M  V30 6135 H 570.07 -0.0541091 0.750051 0
M  V30 6136 H 572.041 0.645326 2.91338 0
M  V30 6137 C 570.79 -1.0872 3.30266 0
M  V30 6138 H 570.113 -0.526267 3.96321 0
M  V30 6139 H 571.553 -1.56489 3.94065 0
M  V30 6140 C 570.012 -2.16525 2.58105 0
M  V30 6141 O 570.542 -3.244 2.36913 0
M  V30 6142 N 568.748 -1.92057 2.18088 0
M  V30 6143 H 568.295 -1.04337 2.35524 0
M  V30 6144 H 568.253 -2.64391 1.70131 0
M  V30 6145 N 572.025 -1.5352 0.356285 0
M  V30 6146 C 573.302 -1.93405 -0.292223 0
M  V30 6147 C 573.682 -1.28901 -1.67176 0
M  V30 6148 O 573.03 -0.444632 -2.24132 0
M  V30 6149 C 573.24 -3.47223 -0.35175 0
M  V30 6150 C 574.588 -4.20389 -0.596534 0
M  V30 6151 O 575.612 -3.53554 -0.433344 0
M  V30 6152 O 574.471 -5.3881 -0.913589 0
M  V30 6153 H 571.565 -0.808666 -0.173172 0
M  V30 6154 H 574.111 -1.64713 0.408391 0
M  V30 6155 H 572.883 -3.86423 0.615841 0
M  V30 6156 H 572.506 -3.8212 -1.09864 0
M  V30 6157 N 573.503 -0.0852151 -1.57369 0
M  V30 6158 C 574.752 0.580443 -1.93168 0
M  V30 6159 C 575.065 1.6995 -0.968319 0
M  V30 6160 O 576.271 2.42564 -1.21963 0
M  V30 6161 C 574.727 1.08386 -3.43192 0
M  V30 6162 C 574.335 -0.00491388 -4.48 0
M  V30 6163 C 576.079 1.72281 -3.87968 0
M  V30 6164 C 573.986 0.513299 -5.89168 0
M  V30 6165 H 572.916 0.22059 -0.72101 0
M  V30 6166 H 575.567 -0.159621 -1.82804 0
M  V30 6167 H 573.949 1.8773 -3.48674 0
M  V30 6168 H 575.123 -0.780032 -4.5415 0
M  V30 6169 H 573.438 -0.548453 -4.12772 0
M  V30 6170 H 576.035 2.12108 -4.9083 0
M  V30 6171 H 576.378 2.58811 -3.26071 0
M  V30 6172 H 576.911 0.995359 -3.85146 0
M  V30 6173 H 573.65 -0.315153 -6.54742 0
M  V30 6174 H 573.17 1.25564 -5.8651 0
M  V30 6175 H 574.849 0.985433 -6.39451 0
M  V30 6176 N 574.981 1.5647 0.188427 0
M  V30 6177 C 576.227 1.81281 0.909124 0
M  V30 6178 C 576.56 0.66034 1.82628 0
M  V30 6179 O 575.835 -0.338737 1.91528 0
M  V30 6180 C 576.118 3.16388 1.7196 0
M  V30 6181 C 575.971 4.42137 0.826714 0
M  V30 6182 C 577.29 3.48256 2.69083 0
M  V30 6183 H 574.409 0.659457 0.329068 0
M  V30 6184 H 577.051 1.89182 0.176156 0
M  V30 6185 H 575.201 3.09784 2.34448 0
M  V30 6186 H 576.873 4.60794 0.216025 0
M  V30 6187 H 575.116 4.33594 0.133792 0
M  V30 6188 H 575.787 5.33184 1.42893 0
M  V30 6189 H 578.263 3.55203 2.16726 0
M  V30 6190 H 577.139 4.43899 3.2287 0
M  V30 6191 H 577.4 2.72088 3.48455 0
M  V30 6192 N 576.459 -0.456382 1.50847 0
M  V30 6193 C 577.684 -1.2349 1.66628 0
M  V30 6194 C 578.109 -1.84715 0.355254 0
M  V30 6195 O 577.467 -1.67961 -0.682559 0
M  V30 6196 C 577.515 -2.30865 2.77009 0
M  V30 6197 O 576.619 -3.35882 2.39285 0
M  V30 6198 H 575.96 -0.36266 0.556214 0
M  V30 6199 H 578.49 -0.541374 1.97308 0
M  V30 6200 H 578.5 -2.75949 3.00526 0
M  V30 6201 H 577.175 -1.85677 3.72152 0
M  V30 6202 H 575.752 -2.96406 2.26269 0
M  V30 6203 N 577.937 -1.40673 -0.710563 0
M  V30 6204 C 578.87 -1.35742 -1.83438 0
M  V30 6205 C 579.848 -0.226997 -1.61008 0
M  V30 6206 O 581.032 -0.411477 -1.83954 0
M  V30 6207 C 578.159 -1.11374 -3.19865 0
M  V30 6208 C 577.205 -2.26935 -3.61113 0
M  V30 6209 S 578.038 -3.89352 -3.67648 0
M  V30 6210 C 579.194 -3.67258 -5.06826 0
M  V30 6211 H 579.427 -2.30848 -1.87341 0
M  V30 6212 H 576.96 -1.27018 -0.877831 0
M  V30 6213 H 578.918 -0.980004 -3.9863 0
M  V30 6214 H 577.579 -0.179135 -3.13589 0
M  V30 6215 H 576.772 -2.0554 -4.60184 0
M  V30 6216 H 576.374 -2.36638 -2.89618 0
M  V30 6217 H 578.666 -3.26036 -5.93891 0
M  V30 6218 H 579.609 -4.65878 -5.33257 0
M  V30 6219 H 580.017 -3.0084 -4.77656 0
M  V30 6220 N 579.415 0.9433 -1.26252 0
M  V30 6221 C 580.664 1.68369 -1.11062 0
M  V30 6222 C 580.977 1.92514 0.346104 0
M  V30 6223 O 582.183 2.64358 0.618646 0
M  V30 6224 C 580.639 3.03171 -1.93946 0
M  V30 6225 C 580.247 2.86782 -3.4418 0
M  V30 6226 C 581.991 3.80916 -1.87359 0
M  V30 6227 C 579.898 4.17044 -4.19319 0
M  V30 6228 H 578.828 0.631469 -0.412023 0
M  V30 6229 H 581.479 1.04922 -1.50544 0
M  V30 6230 H 579.861 3.67587 -1.47296 0
M  V30 6231 H 581.035 2.31229 -3.98585 0
M  V30 6232 H 579.35 2.22482 -3.51981 0
M  V30 6233 H 581.947 4.77417 -2.40784 0
M  V30 6234 H 582.29 4.07658 -0.843857 0
M  V30 6235 H 582.823 3.2327 -2.31821 0
M  V30 6236 H 579.562 3.95487 -5.22753 0
M  V30 6237 H 579.082 4.72319 -3.69696 0
M  V30 6238 H 580.761 4.85513 -4.27651 0
M  V30 6239 N 580.893 1.08022 1.14757 0
M  V30 6240 C 582.118 0.82895 1.90114 0
M  V30 6241 C 582.543 -0.612772 1.77839 0
M  V30 6242 O 581.901 -1.42895 1.11583 0
M  V30 6243 C 581.949 1.25062 3.38219 0
M  V30 6244 O 581.053 0.400119 4.10454 0
M  V30 6245 H 580.394 0.301412 0.591648 0
M  V30 6246 H 582.924 1.44062 1.45284 0
M  V30 6247 H 582.934 1.22977 3.89025 0
M  V30 6248 H 581.609 2.30067 3.46471 0
M  V30 6249 H 580.186 0.484052 3.69745 0
M  V30 6250 N 582.371 -1.3172 0.865308 0
M  V30 6251 C 583.281 -2.32394 0.320935 0
M  V30 6252 C 584.297 -1.64511 -0.566746 0
M  V30 6253 O 585.473 -1.95969 -0.464575 0
M  V30 6254 C 582.538 -3.43462 -0.472701 0
M  V30 6255 C 581.599 -4.27015 0.442385 0
M  V30 6256 C 580.832 -5.32779 -0.313469 0
M  V30 6257 O 581.055 -5.49158 -1.54214 0
M  V30 6258 O 579.989 -6.01015 0.326257 0
M  V30 6259 H 583.815 -2.80868 1.15528 0
M  V30 6260 H 581.4 -1.35535 0.628545 0
M  V30 6261 H 583.282 -4.11172 -0.922781 0
M  V30 6262 H 581.957 -2.97159 -1.28367 0
M  V30 6263 H 580.864 -3.62075 0.940866 0
M  V30 6264 H 582.197 -4.76871 1.21882 0
M  V30 6265 N 583.85 -0.624285 -1.44708 0
M  V30 6266 C 585.127 -0.0572781 -1.95516 0
M  V30 6267 C 585.507 1.41516 -1.56641 0
M  V30 6268 O 584.855 2.12614 -0.837111 0
M  V30 6269 C 585.065 -0.272944 -3.47931 0
M  V30 6270 C 586.413 -0.162529 -4.24289 0
M  V30 6271 O 587.437 -0.203946 -3.55616 0
M  V30 6272 O 586.296 -0.0616847 -5.46465 0
M  V30 6273 H 583.389 0.0262219 -0.826584 0
M  V30 6274 H 585.936 -0.695512 -1.54793 0
M  V30 6275 H 584.707 -1.29492 -3.69253 0
M  V30 6276 H 584.331 0.399756 -3.95585 0
M  V30 6277 N 585.328 1.53329 -0.364422 0
M  V30 6278 C 586.275 2.25698 0.482607 0
M  V30 6279 C 587.245 1.26325 1.07848 0
M  V30 6280 O 588.43 1.55104 1.11119 0
M  V30 6281 C 585.57 3.04873 1.61699 0
M  V30 6282 C 584.683 4.19135 1.0464 0
M  V30 6283 C 583.818 4.85754 2.14979 0
M  V30 6284 C 582.857 5.9205 1.5538 0
M  V30 6285 N 581.994 6.52365 2.59547 0
M  V30 6286 H 586.834 2.97666 -0.141032 0
M  V30 6287 H 584.371 1.46875 -0.0813692 0
M  V30 6288 H 586.329 3.49051 2.28516 0
M  V30 6289 H 584.959 2.35162 2.2113 0
M  V30 6290 H 584.011 3.79451 0.268553 0
M  V30 6291 H 585.323 4.95525 0.570653 0
M  V30 6292 H 584.477 5.3311 2.89619 0
M  V30 6293 H 583.216 4.08834 2.65906 0
M  V30 6294 H 582.221 5.44058 0.792549 0
M  V30 6295 H 583.446 6.7089 1.0528 0
M  V30 6296 H 581.392 5.78298 3.09689 0
M  V30 6297 H 581.309 7.2429 2.16655 0
M  V30 6298 H 582.577 7.0437 3.33892 0
M  V30 6299 N 586.806 0.0935595 1.57322 0
M  V30 6300 C 587.753 -0.865935 2.1394 0
M  V30 6301 C 588.723 -1.28083 1.05754 0
M  V30 6302 O 589.908 -1.36285 1.33533 0
M  V30 6303 C 587.048 -2.12023 2.72287 0
M  V30 6304 C 586.161 -1.756 3.94701 0
M  V30 6305 C 585.296 -2.95804 4.41218 0
M  V30 6306 C 584.335 -2.555 5.56225 0
M  V30 6307 N 583.472 -3.68534 5.97601 0
M  V30 6308 H 588.312 -0.376261 2.95615 0
M  V30 6309 H 585.849 -0.174052 1.46067 0
M  V30 6310 H 587.807 -2.85477 3.04235 0
M  V30 6311 H 586.437 -2.58492 1.93343 0
M  V30 6312 H 585.489 -0.921208 3.69077 0
M  V30 6313 H 586.801 -1.41964 4.78171 0
M  V30 6314 H 585.955 -3.77513 4.74941 0
M  V30 6315 H 584.694 -3.32649 3.56645 0
M  V30 6316 H 583.699 -1.72218 5.22131 0
M  V30 6317 H 584.924 -2.19801 6.42545 0
M  V30 6318 H 582.87 -4.051 5.15974 0
M  V30 6319 H 582.787 -3.38737 6.75865 0
M  V30 6320 H 584.055 -4.50757 6.35955 0
M  V30 6321 O 588.323 -1.61433 -0.0465113 0
M  V30 6322 H 589.014 -1.8177 -0.669292 0
M  V30 END ATOM
M  V30 BEGIN BOND
M  V30 END BOND
M  V30 END CTAB
M  END
$$$$
