drugbank_target|P07225 Vitamin K-dependent protein S (DB00055; DB00170; DB00464; DB09332)
 OpenBabel12092119443D

  0  0  0     0  0            999 V3000
M  V30 BEGIN CTAB
M  V30 COUNTS 10438 10536 0 0 0
M  V30 BEGIN ATOM
M  V30 1 H -0.908 1.98254 -0.117106 0
M  V30 2 N 0 1.576 0 0
M  V30 3 C 0.933 2.03868 1.02534 0
M  V30 4 C 1.911 0.928543 1.3348 0
M  V30 5 O 3.095 1.19667 1.45644 0
M  V30 6 C 0.222 2.43627 2.35294 0
M  V30 7 C -0.732 3.65373 2.2001 0
M  V30 8 S 0.101 5.13292 1.52614 0
M  V30 9 C 1.257 5.56322 2.86805 0
M  V30 10 H 1.49 2.90518 0.631377 0
M  V30 11 H -0.977 1.52953 0.210867 0
M  V30 12 H 0.981 2.67203 3.11629 0
M  V30 13 H -0.358 1.57376 2.7183 0
M  V30 14 H -1.165 3.90944 3.18086 0
M  V30 15 H -1.563 3.418 1.51819 0
M  V30 16 H 0.729 5.58782 3.83104 0
M  V30 17 H 1.672 6.56266 2.65933 0
M  V30 18 H 2.08 4.83886 2.90714 0
M  V30 19 N 1.4781 -0.272755 1.55222 0
M  V30 20 C 2.8941 -0.619959 1.47067 0
M  V30 21 C 3.0941 -1.895 0.684978 0
M  V30 22 O 2.1501 -2.51675 0.203931 0
M  V30 23 C 3.4631 -0.746693 2.91282 0
M  V30 24 C 5.0111 -0.840731 3.01497 0
M  V30 25 C 5.4861 -0.99924 4.46967 0
M  V30 26 N 6.9771 -1.06476 4.50796 0
M  V30 27 C 7.7121 -1.20621 5.6057 0
M  V30 28 N 7.2081 -1.31483 6.80209 0
M  V30 29 N 9.0011 -1.23733 5.48312 0
M  V30 30 H 1.1521 0.564606 2.04758 0
M  V30 31 H 3.4151 0.191177 0.928523 0
M  V30 32 H 3.1211 0.119753 3.51496 0
M  V30 33 H 2.9951 -1.6269 3.40311 0
M  V30 34 H 5.3821 -1.69764 2.41379 0
M  V30 35 H 5.4631 0.0640874 2.5572 0
M  V30 36 H 5.1071 -0.146984 5.07687 0
M  V30 37 H 5.0371 -1.91871 4.90401 0
M  V30 38 H 7.5281 -0.993196 3.64615 0
M  V30 39 H 7.8411 -1.42111 7.59621 0
M  V30 40 H 6.1861 -1.28487 6.8302 0
M  V30 41 H 9.3771 -1.14877 4.53785 0
M  V30 42 H 9.5501 -1.34412 6.33906 0
M  V30 43 N 2.9562 -1.48159 -0.537278 0
M  V30 44 C 4.2022 -1.56035 -1.29541 0
M  V30 45 C 4.5352 -0.230377 -1.92829 0
M  V30 46 O 3.8102 0.762952 -1.78911 0
M  V30 47 C 4.0932 -2.69323 -2.39034 0
M  V30 48 C 3.9462 -4.12002 -1.80485 0
M  V30 49 C 5.2652 -2.78408 -3.40847 0
M  V30 50 H 2.3842 -0.567992 -0.469632 0
M  V30 51 H 5.0262 -1.80302 -0.599277 0
M  V30 52 H 3.1762 -2.48763 -2.98412 0
M  V30 53 H 4.8482 -4.43981 -1.25215 0
M  V30 54 H 3.0912 -4.19344 -1.11055 0
M  V30 55 H 3.7622 -4.87077 -2.59731 0
M  V30 56 H 6.2382 -2.97012 -2.91416 0
M  V30 57 H 5.1142 -3.59416 -4.14863 0
M  V30 58 H 5.3752 -1.86269 -4.00944 0
M  V30 59 N 4.4343 0.785586 -1.36625 0
M  V30 60 C 5.3643 1.91259 -1.33949 0
M  V30 61 C 6.3453 1.68795 -0.210325 0
M  V30 62 O 7.5303 1.89854 -0.408561 0
M  V30 63 C 4.6603 3.28339 -1.13186 0
M  V30 64 C 3.6143 3.65335 -2.22967 0
M  V30 65 C 2.9403 5.00806 -1.87342 0
M  V30 66 C 4.2403 3.7352 -3.65075 0
M  V30 67 H 5.9343 1.93755 -2.28253 0
M  V30 68 H 3.4803 0.930788 -1.09874 0
M  V30 69 H 5.4333 4.06804 -1.09948 0
M  V30 70 H 4.1573 3.2624 -0.153332 0
M  V30 71 H 2.8163 2.89169 -2.25337 0
M  V30 72 H 2.4643 4.95233 -0.880545 0
M  V30 73 H 2.1643 5.26529 -2.60846 0
M  V30 74 H 3.6883 5.81687 -1.85667 0
M  V30 75 H 5.1023 4.42168 -3.64911 0
M  V30 76 H 3.4993 4.10731 -4.37516 0
M  V30 77 H 4.5693 2.74527 -3.99703 0
M  V30 78 N 5.9124 1.20967 1.01018 0
M  V30 79 C 7.1604 1.02172 1.74371 0
M  V30 80 C 7.4814 -0.446414 1.89821 0
M  V30 81 O 6.7514 -1.32234 1.44537 0
M  V30 82 H 5.3314 0.375066 0.646014 0
M  V30 83 H 7.9934 1.52187 1.21758 0
M  V30 84 H 7.0894 1.48538 2.74487 0
M  V30 85 N 7.3905 -1.2043 1.01659 0
M  V30 86 C 8.6385 -1.89423 0.704522 0
M  V30 87 C 8.9595 -1.79231 -0.768197 0
M  V30 88 O 8.2295 -1.1947 -1.55254 0
M  V30 89 H 6.8095 -0.701178 0.257602 0
M  V30 90 H 9.4715 -1.4626 1.28818 0
M  V30 91 H 8.5675 -2.96052 0.987916 0
M  V30 92 N 8.8686 -0.792821 -1.36206 0
M  V30 93 C 10.2846 -0.474903 -1.52371 0
M  V30 94 C 10.4846 1.00622 -1.74578 0
M  V30 95 O 9.5406 1.79162 -1.77924 0
M  V30 96 C 10.8536 -1.3083 -2.70747 0
M  V30 97 C 12.4016 -1.30234 -2.84619 0
M  V30 98 C 12.8766 -2.11956 -4.06004 0
M  V30 99 N 14.3676 -2.09419 -4.13156 0
M  V30 100 C 15.1026 -2.69419 -5.06163 0
M  V30 101 N 14.5986 -3.3829 -6.04592 0
M  V30 102 N 16.3916 -2.59134 -4.98804 0
M  V30 103 H 8.5426 -1.75222 -1.20046 0
M  V30 104 H 10.8056 -0.745024 -0.586211 0
M  V30 105 H 10.5116 -2.35881 -2.6087 0
M  V30 106 H 10.3856 -0.95196 -3.6499 0
M  V30 107 H 12.7726 -0.259748 -2.93955 0
M  V30 108 H 12.8536 -1.69847 -1.91274 0
M  V30 109 H 12.4976 -3.16248 -3.97429 0
M  V30 110 H 12.4276 -1.69711 -4.98503 0
M  V30 111 H 14.9186 -1.59297 -3.42685 0
M  V30 112 H 15.2316 -3.81394 -6.7213 0
M  V30 113 H 13.5766 -3.42393 -6.04807 0
M  V30 114 H 16.7676 -2.04927 -4.20859 0
M  V30 115 H 16.9406 -3.06185 -5.711 0
M  V30 116 N 10.3467 1.47872 -0.545128 0
M  V30 117 C 11.5867 2.04391 -0.0187854 0
M  V30 118 C 11.9507 1.41162 1.30144 0
M  V30 119 O 13.1517 1.88656 1.91474 0
M  V30 120 C 11.4227 3.57299 0.0850867 0
M  V30 121 S 12.9817 4.35221 0.559302 0
M  V30 122 H 9.7997 0.710737 -0.0193301 0
M  V30 123 H 12.4017 1.81395 -0.729125 0
M  V30 124 H 11.1057 4.00847 -0.880351 0
M  V30 125 H 10.6367 3.84773 0.819348 0
M  V30 126 H 12.6517 4.61571 1.82118 0
M  V30 127 N 11.8248 0.280983 1.55075 0
M  V30 128 C 13.0728 -0.333455 1.9933 0
M  V30 129 C 13.3938 -1.55937 1.17085 0
M  V30 130 O 12.6638 -1.94143 0.261805 0
M  V30 131 H 11.2438 -0.126197 0.736263 0
M  V30 132 H 13.9058 0.387678 1.91005 0
M  V30 133 H 13.0018 -0.619292 3.05894 0
M  V30 134 N 13.3029 -1.57598 0.00835791 0
M  V30 135 C 14.2659 -2.07884 -0.965242 0
M  V30 136 C 15.2659 -0.989825 -1.26725 0
M  V30 137 O 16.4559 -1.25218 -1.21104 0
M  V30 138 C 13.5879 -2.52731 -2.28779 0
M  V30 139 H 14.7809 -2.95178 -0.530112 0
M  V30 140 H 12.3339 -1.54458 -0.239283 0
M  V30 141 H 13.0689 -1.68705 -2.76964 0
M  V30 142 H 12.8539 -3.32272 -2.08177 0
M  V30 143 H 14.3439 -2.91933 -2.98605 0
M  V30 144 N 14.781 0.264519 -1.55364 0
M  V30 145 C 15.711 1.33121 -1.91836 0
M  V30 146 C 16.692 1.51101 -0.781192 0
M  V30 147 O 17.877 1.64003 -1.04003 0
M  V30 148 C 15.007 2.68921 -2.19769 0
M  V30 149 C 13.961 2.65661 -3.35571 0
M  V30 150 C 13.287 4.05093 -3.49004 0
M  V30 151 C 14.587 2.24187 -4.71739 0
M  V30 152 H 16.281 1.02844 -2.81182 0
M  V30 153 H 13.827 0.493286 -1.35287 0
M  V30 154 H 15.78 3.43663 -2.43872 0
M  V30 155 H 14.504 3.00799 -1.27231 0
M  V30 156 H 13.163 1.93377 -3.1145 0
M  V30 157 H 12.811 4.34206 -2.53917 0
M  V30 158 H 12.511 4.03804 -4.26868 0
M  V30 159 H 14.035 4.81561 -3.75408 0
M  V30 160 H 15.449 2.88654 -4.9533 0
M  V30 161 H 13.846 2.34044 -5.52579 0
M  V30 162 H 14.916 1.19327 -4.69988 0
M  V30 163 N 16.2591 1.48442 0.529413 0
M  V30 164 C 17.1891 1.65902 1.64313 0
M  V30 165 C 18.1701 0.507897 1.6234 0
M  V30 166 O 19.3551 0.740503 1.79528 0
M  V30 167 C 16.4851 1.69911 3.02898 0
M  V30 168 C 15.4391 2.8453 3.19729 0
M  V30 169 C 14.7651 2.73629 4.59381 0
M  V30 170 C 16.0651 4.25821 3.02447 0
M  V30 171 H 17.7591 2.5914 1.49955 0
M  V30 172 H 15.3051 1.24709 0.719982 0
M  V30 173 H 17.2581 1.80715 3.80684 0
M  V30 174 H 15.9821 0.732524 3.18279 0
M  V30 175 H 14.6411 2.73283 2.44361 0
M  V30 176 H 14.2891 1.74938 4.71599 0
M  V30 177 H 13.9891 3.50541 4.71588 0
M  V30 178 H 15.5131 2.86401 5.39265 0
M  V30 179 H 16.9271 4.37898 3.70024 0
M  V30 180 H 15.3241 5.03735 3.26146 0
M  V30 181 H 16.3941 4.42244 1.98867 0
M  V30 182 N 17.7372 -0.778329 1.37039 0
M  V30 183 C 18.7002 -1.87301 1.32102 0
M  V30 184 C 19.7002 -1.59198 0.226405 0
M  V30 185 O 20.8902 -1.67403 0.481861 0
M  V30 186 C 18.0222 -3.24309 1.05055 0
M  V30 187 H 19.2152 -1.93093 2.29467 0
M  V30 188 H 16.7682 -0.977358 1.21973 0
M  V30 189 H 17.5032 -3.24196 0.0819373 0
M  V30 190 H 17.2882 -3.46098 1.84279 0
M  V30 191 H 18.7782 -4.04382 1.04234 0
M  V30 192 N 19.2153 -1.21501 -1.00376 0
M  V30 193 C 20.4553 -1.04444 -1.75701 0
M  V30 194 C 20.8193 0.414644 -1.87469 0
M  V30 195 O 22.0203 0.705763 -2.59369 0
M  V30 196 C 20.2913 -1.72389 -3.13077 0
M  V30 197 S 21.8503 -1.70604 -4.04277 0
M  V30 198 H 18.6683 -0.374249 -0.604532 0
M  V30 199 H 21.2703 -1.54267 -1.20091 0
M  V30 200 H 19.9743 -2.77734 -3.02146 0
M  V30 201 H 19.5053 -1.22751 -3.73759 0
M  V30 202 H 21.5203 -0.748012 -4.9053 0
M  V30 203 N 20.6934 1.19889 -1.02296 0
M  V30 204 C 21.6234 2.25141 -0.619174 0
M  V30 205 C 22.6044 1.66051 0.368915 0
M  V30 206 O 23.7894 1.92546 0.252941 0
M  V30 207 C 20.9194 3.4728 0.0368783 0
M  V30 208 C 19.8734 4.19005 -0.872865 0
M  V30 209 C 19.1994 5.34637 -0.0822402 0
M  V30 210 C 20.4994 4.74452 -2.18387 0
M  V30 211 H 22.1934 2.59171 -1.49903 0
M  V30 212 H 19.7394 1.24579 -0.722222 0
M  V30 213 H 21.6924 4.20098 0.330958 0
M  V30 214 H 20.4164 3.12433 0.95149 0
M  V30 215 H 19.0754 3.48061 -1.15105 0
M  V30 216 H 18.7234 4.96034 0.83422 0
M  V30 217 H 18.4234 5.83557 -0.688149 0
M  V30 218 H 19.9474 6.10255 0.205238 0
M  V30 219 H 21.3614 5.39055 -1.95172 0
M  V30 220 H 19.7584 5.33834 -2.74119 0
M  V30 221 H 20.8284 3.92844 -2.84257 0
M  V30 222 N 22.1715 0.800033 1.35784 0
M  V30 223 C 23.1015 0.220184 2.3246 0
M  V30 224 C 24.0825 -0.65073 1.57161 0
M  V30 225 O 25.2675 -0.582359 1.85263 0
M  V30 226 C 22.3975 -0.637353 3.41402 0
M  V30 227 C 21.3515 0.134531 4.27789 0
M  V30 228 C 20.6775 -0.844285 5.27992 0
M  V30 229 C 21.9775 1.32979 5.05088 0
M  V30 230 H 23.6715 1.02787 2.81203 0
M  V30 231 H 21.2175 0.495717 1.35199 0
M  V30 232 H 23.1705 -1.05302 4.08031 0
M  V30 233 H 21.8945 -1.47785 2.91251 0
M  V30 234 H 20.5535 0.531296 3.6273 0
M  V30 235 H 20.2015 -1.68011 4.74111 0
M  V30 236 H 19.9015 -0.332184 5.8666 0
M  V30 237 H 21.4255 -1.2583 5.97494 0
M  V30 238 H 22.8395 0.98934 5.64699 0
M  V30 239 H 21.2365 1.77593 5.7322 0
M  V30 240 H 22.3065 2.11978 4.36111 0
M  V30 241 N 23.6496 -1.47581 0.552962 0
M  V30 242 C 24.5796 -2.32762 -0.185451 0
M  V30 243 C 25.5606 -1.43527 -0.912905 0
M  V30 244 O 26.7456 -1.72388 -0.894201 0
M  V30 245 C 23.8756 -3.25219 -1.21859 0
M  V30 246 C 22.8296 -4.23661 -0.607864 0
M  V30 247 C 22.1556 -5.05413 -1.74533 0
M  V30 248 C 23.4556 -5.20481 0.435582 0
M  V30 249 H 25.1496 -2.94749 0.525684 0
M  V30 250 H 22.6956 -1.41738 0.254251 0
M  V30 251 H 24.6486 -3.8365 -1.7433 0
M  V30 252 H 23.3726 -2.61279 -1.95961 0
M  V30 253 H 22.0316 -3.66451 -0.104489 0
M  V30 254 H 21.6796 -4.3788 -2.47529 0
M  V30 255 H 21.3796 -5.72059 -1.34249 0
M  V30 256 H 22.9036 -5.66701 -2.27338 0
M  V30 257 H 24.3176 -5.733 -0.00290157 0
M  V30 258 H 22.7146 -5.95305 0.757067 0
M  V30 259 H 23.7846 -4.66217 1.33303 0
M  V30 260 N 25.1277 -0.289203 -1.54924 0
M  V30 261 C 26.3737 0.323998 -2.00195 0
M  V30 262 C 26.7067 1.54441 -1.17735 0
M  V30 263 O 25.9817 1.92875 -0.250878 0
M  V30 264 C 26.2647 0.692276 -3.53383 0
M  V30 265 C 26.1177 -0.536457 -4.46589 0
M  V30 266 C 27.4367 1.52335 -4.12895 0
M  V30 267 H 24.5557 0.116289 -0.727768 0
M  V30 268 H 27.1977 -0.398954 -1.85764 0
M  V30 269 H 25.3477 1.30822 -3.65811 0
M  V30 270 H 27.0197 -1.17499 -4.46085 0
M  V30 271 H 25.2627 -1.17192 -4.1767 0
M  V30 272 H 25.9337 -0.234806 -5.515 0
M  V30 273 H 28.4097 1.00302 -4.0383 0
M  V30 274 H 27.2857 1.74982 -5.20262 0
M  V30 275 H 27.5467 2.50886 -3.64018 0
M  V30 276 N 26.6058 1.57591 -0.0167156 0
M  V30 277 C 27.5358 2.12496 0.967858 0
M  V30 278 C 28.5168 1.03807 1.34752 0
M  V30 279 O 29.7018 1.31577 1.42833 0
M  V30 280 C 26.8318 2.64194 2.25431 0
M  V30 281 C 25.7858 3.77559 2.01576 0
M  V30 282 C 25.1118 4.15636 3.36379 0
M  V30 283 C 26.4118 5.04151 1.36489 0
M  V30 284 H 28.1058 2.95013 0.510643 0
M  V30 285 H 25.6518 1.41915 0.244181 0
M  V30 286 H 27.6048 3.01236 2.94678 0
M  V30 287 H 26.3288 1.78821 2.73296 0
M  V30 288 H 24.9878 3.40937 1.34751 0
M  V30 289 H 24.6358 3.27263 3.81979 0
M  V30 290 H 24.3358 4.92022 3.21229 0
M  V30 291 H 25.8598 4.5525 4.06915 0
M  V30 292 H 27.2738 5.38857 1.95718 0
M  V30 293 H 25.6708 5.85453 1.31776 0
M  V30 294 H 26.7408 4.83733 0.336219 0
M  V30 295 N 28.0839 -0.256276 1.55502 0
M  V30 296 C 29.4949 -0.826068 1.67431 0
M  V30 297 C 29.8459 -1.86396 0.612446 0
M  V30 298 O 28.9709 -2.15031 -0.243025 0
M  V30 299 C 29.5659 -1.50512 3.03532 0
M  V30 300 C 28.1249 -2.02273 3.17431 0
M  V30 301 C 27.2719 -0.870548 2.63281 0
M  V30 302 H 30.2229 -0.0322728 1.58667 0
M  V30 303 H 30.2439 -2.37279 2.97454 0
M  V30 304 H 29.7559 -0.749484 3.80794 0
M  V30 305 H 27.8569 -2.80746 2.44974 0
M  V30 306 H 27.9699 -2.22655 4.24219 0
M  V30 307 H 26.3339 -1.26851 2.20864 0
M  V30 308 H 27.1169 -0.128149 3.43061 0
M  V30 309 N 29.562 -1.4872 -0.521534 0
M  V30 310 C 30.808 -1.574 -1.27879 0
M  V30 311 C 31.141 -0.250817 -1.92573 0
M  V30 312 O 30.416 0.743934 -1.79711 0
M  V30 313 C 30.699 -2.71843 -2.36164 0
M  V30 314 C 30.552 -4.13893 -1.76105 0
M  V30 315 C 31.871 -2.82008 -3.37875 0
M  V30 316 H 28.99 -0.572941 -0.463581 0
M  V30 317 H 31.632 -1.80927 -0.580119 0
M  V30 318 H 29.782 -2.51914 -2.95756 0
M  V30 319 H 31.454 -4.45284 -1.20499 0
M  V30 320 H 29.697 -4.20498 -1.06601 0
M  V30 321 H 30.368 -4.89804 -2.5455 0
M  V30 322 H 32.844 -3.00086 -2.88249 0
M  V30 323 H 31.72 -3.63796 -4.11028 0
M  V30 324 H 31.981 -1.90511 -3.98946 0
M  V30 325 N 31.0401 0.771051 -1.3745 0
M  V30 326 C 32.2651 1.56529 -1.36065 0
M  V30 327 C 32.6901 1.88029 0.0515859 0
M  V30 328 O 32.0481 1.49282 1.02882 0
M  V30 329 C 32.0961 2.85187 -2.20683 0
M  V30 330 O 31.2001 3.79593 -1.61193 0
M  V30 331 H 30.5411 0.47411 -0.464883 0
M  V30 332 H 33.0711 0.954269 -1.80983 0
M  V30 333 H 33.0811 3.34283 -2.33921 0
M  V30 334 H 31.7561 2.61588 -3.23334 0
M  V30 335 H 30.3331 3.38239 -1.56999 0
M  V30 336 N 32.5182 1.22032 0.997298 0
M  V30 337 C 33.4282 1.00271 2.12092 0
M  V30 338 C 34.4442 -0.047621 1.73935 0
M  V30 339 O 35.6202 0.144136 2.00884 0
M  V30 340 C 32.6852 0.578449 3.4184 0
M  V30 341 C 31.7462 1.70189 3.94125 0
M  V30 342 C 30.9792 1.29778 5.17681 0
M  V30 343 O 31.2022 0.174676 5.70132 0
M  V30 344 O 30.1362 2.11261 5.63607 0
M  V30 345 H 33.9622 1.94398 2.3333 0
M  V30 346 H 31.5472 1.00587 1.10465 0
M  V30 347 H 33.4292 0.351998 4.19927 0
M  V30 348 H 32.1042 -0.334019 3.21972 0
M  V30 349 H 31.0112 1.98282 3.1723 0
M  V30 350 H 32.3442 2.59206 4.18417 0
M  V30 351 N 33.9963 -1.19345 1.0293 0
M  V30 352 C 34.9593 -2.20793 0.615069 0
M  V30 353 C 35.9593 -1.57553 -0.321533 0
M  V30 354 O 37.1493 -1.73862 -0.108483 0
M  V30 355 C 34.2813 -3.40754 -0.0999222 0
M  V30 356 H 35.4743 -2.58955 1.51269 0
M  V30 357 H 33.0273 -1.3303 0.820534 0
M  V30 358 H 33.7623 -3.0811 -1.01187 0
M  V30 359 H 33.5473 -3.87889 0.57309 0
M  V30 360 H 35.0373 -4.15898 -0.376645 0
M  V30 361 N 35.4744 -0.807222 -1.35358 0
M  V30 362 C 36.4224 -0.20614 -2.31685 0
M  V30 363 C 37.4164 0.644445 -1.56663 0
M  V30 364 O 38.6224 0.537538 -1.71786 0
M  V30 365 H 34.9974 -0.0479006 -0.750473 0
M  V30 366 H 36.9684 -1.03369 -2.79924 0
M  V30 367 C 35.7174 0.630212 -3.41941 0
M  V30 368 H 35.0404 -0.0149558 -3.99797 0
M  V30 369 H 36.4804 1.01716 -4.11619 0
M  V30 370 C 34.9394 1.79601 -2.85035 0
M  V30 371 O 35.4694 2.89351 -2.78637 0
M  V30 372 N 33.6754 1.60774 -2.42074 0
M  V30 373 H 33.2224 0.715009 -2.47478 0
M  V30 374 H 33.1804 2.38933 -2.04349 0
M  V30 375 N 36.9525 1.47285 -0.560781 0
M  V30 376 C 38.1995 2.02464 -0.038062 0
M  V30 377 C 38.5275 1.43474 1.31322 0
M  V30 378 O 37.7825 0.581311 1.86867 0
M  V30 379 C 38.0815 3.57258 0.100784 0
M  V30 380 C 37.7475 4.35184 -1.18007 0
M  V30 381 C 36.4095 4.56194 -1.53103 0
M  V30 382 C 38.7615 4.80098 -2.02867 0
M  V30 383 C 36.0895 5.19367 -2.729 0
M  V30 384 C 38.4415 5.44593 -3.21871 0
M  V30 385 C 37.1055 5.63835 -3.57276 0
M  V30 386 H 36.3755 0.740869 -0.0139279 0
M  V30 387 H 39.0225 1.76916 -0.733012 0
M  V30 388 H 37.3275 3.81819 0.878724 0
M  V30 389 H 39.0245 3.97606 0.520639 0
M  V30 390 H 35.6145 4.19113 -0.8968 0
M  V30 391 H 39.7985 4.63642 -1.7706 0
M  V30 392 H 35.0545 5.32459 -3.00496 0
M  V30 393 H 39.2285 5.78358 -3.87911 0
M  V30 394 H 36.8555 6.12557 -4.50197 0
M  V30 395 N 38.4306 0.297415 1.54768 0
M  V30 396 C 39.3606 -0.573494 2.26348 0
M  V30 397 C 40.3416 -1.14085 1.26169 0
M  V30 398 O 41.5266 -1.17086 1.54934 0
M  V30 399 C 38.6566 -1.74716 3.00153 0
M  V30 400 C 37.6106 -1.31032 4.07449 0
M  V30 401 C 36.9366 -2.56887 4.68949 0
M  V30 402 C 38.2366 -0.444183 5.20408 0
M  V30 403 H 39.9306 0.0235131 2.99391 0
M  V30 404 H 37.4766 0.0127488 1.43994 0
M  V30 405 H 39.4296 -2.3625 3.48947 0
M  V30 406 H 38.1536 -2.37035 2.24682 0
M  V30 407 H 36.8126 -0.718066 3.59499 0
M  V30 408 H 36.4606 -3.17512 3.90122 0
M  V30 409 H 36.1606 -2.2836 5.41411 0
M  V30 410 H 37.6846 -3.19229 5.20505 0
M  V30 411 H 39.0986 -0.9651 5.65118 0
M  V30 412 H 37.4956 -0.252846 5.99567 0
M  V30 413 H 38.5656 0.531609 4.81977 0
M  V30 414 N 39.9087 -1.5758 0.0250728 0
M  V30 415 C 41.1337 -1.96337 -0.668317 0
M  V30 416 C 41.5587 -0.901314 -1.651 0
M  V30 417 O 40.9167 0.138187 -1.80773 0
M  V30 418 C 40.9647 -3.34191 -1.35457 0
M  V30 419 O 40.0687 -3.30269 -2.46974 0
M  V30 420 H 39.4097 -0.640281 -0.175887 0
M  V30 421 H 41.9397 -2.0442 0.0857224 0
M  V30 422 H 41.9497 -3.70331 -1.71228 0
M  V30 423 H 40.6247 -4.11036 -0.634218 0
M  V30 424 H 39.2017 -3.05841 -2.13344 0
M  V30 425 N 41.3868 0.248026 -1.55636 0
M  V30 426 C 42.3338 1.30707 -1.90222 0
M  V30 427 C 43.3038 1.47881 -0.756332 0
M  V30 428 O 44.4888 1.61883 -1.00988 0
M  V30 429 C 41.6288 2.65769 -2.20138 0
M  V30 430 C 40.7418 2.56612 -3.47526 0
M  V30 431 C 39.8768 3.8402 -3.67017 0
M  V30 432 C 38.9158 3.69476 -4.8801 0
M  V30 433 N 38.0528 4.88774 -5.04029 0
M  V30 434 H 42.8928 1.00512 -2.80538 0
M  V30 435 H 40.4298 0.485055 -1.38873 0
M  V30 436 H 42.3878 3.44386 -2.35487 0
M  V30 437 H 41.0178 2.94115 -1.33027 0
M  V30 438 H 40.0698 1.69571 -3.40514 0
M  V30 439 H 41.3818 2.41774 -4.36287 0
M  V30 440 H 40.5358 4.7108 -3.8232 0
M  V30 441 H 39.2748 4.01754 -2.76487 0
M  V30 442 H 38.2798 2.80799 -4.72686 0
M  V30 443 H 39.5048 3.53238 -5.8 0
M  V30 444 H 37.4508 5.0687 -4.16435 0
M  V30 445 H 37.3678 4.76562 -5.86877 0
M  V30 446 H 38.6358 5.77335 -5.23741 0
M  V30 447 N 42.8649 1.48995 0.513639 0
M  V30 448 C 43.7969 1.60836 1.63293 0
M  V30 449 C 44.8099 0.491701 1.55197 0
M  V30 450 O 45.9989 0.763238 1.6136 0
M  V30 451 C 43.0989 1.53731 3.02027 0
M  V30 452 C 42.2719 2.80715 3.35437 0
M  V30 453 C 41.3309 2.66837 4.53525 0
M  V30 454 O 40.3569 3.40753 4.55934 0
M  V30 455 N 41.5589 1.77539 5.52684 0
M  V30 456 H 44.3239 2.57366 1.53566 0
M  V30 457 H 41.8849 1.45925 0.701259 0
M  V30 458 H 43.8769 1.42118 3.78926 0
M  V30 459 H 42.4469 0.651092 3.05744 0
M  V30 460 H 41.6669 3.06772 2.47557 0
M  V30 461 H 42.9549 3.64927 3.54551 0
M  V30 462 H 42.3529 1.16719 5.53528 0
M  V30 463 H 40.9099 1.71856 6.28736 0
M  V30 464 N 44.343 -0.763751 1.37857 0
M  V30 465 C 45.275 -1.88664 1.30148 0
M  V30 466 C 46.288 -1.61365 0.215685 0
M  V30 467 O 47.477 -1.72134 0.472459 0
M  V30 468 C 44.577 -3.24075 0.991396 0
M  V30 469 C 43.75 -3.78958 2.18426 0
M  V30 470 C 42.809 -4.92862 1.8432 0
M  V30 471 O 41.835 -5.08027 2.56704 0
M  V30 472 N 43.037 -5.75071 0.792081 0
M  V30 473 H 45.802 -1.95791 2.26905 0
M  V30 474 H 43.363 -0.943226 1.31586 0
M  V30 475 H 45.355 -3.97804 0.743935 0
M  V30 476 H 43.925 -3.12399 0.112122 0
M  V30 477 H 43.145 -2.96913 2.59299 0
M  V30 478 H 44.433 -4.12357 2.98058 0
M  V30 479 H 43.831 -5.65375 0.191595 0
M  V30 480 H 42.388 -6.48991 0.60449 0
M  V30 481 N 45.8211 -1.22559 -0.990812 0
M  V30 482 C 46.7841 -0.998863 -2.0629 0
M  V30 483 C 47.7841 0.0354834 -1.60761 0
M  V30 484 O 48.9741 -0.203231 -1.7301 0
M  V30 485 C 46.1061 -0.509203 -3.37076 0
M  V30 486 H 47.2991 -1.95014 -2.27837 0
M  V30 487 H 44.8521 -1.04456 -1.16269 0
M  V30 488 H 45.5871 0.446335 -3.21214 0
M  V30 489 H 45.3721 -1.25547 -3.71457 0
M  V30 490 H 46.8621 -0.370888 -4.1595 0
M  V30 491 N 47.2992 1.18797 -1.03562 0
M  V30 492 C 48.5242 1.9314 -0.755764 0
M  V30 493 C 48.9492 1.7537 0.68022 0
M  V30 494 O 48.3072 1.06046 1.47051 0
M  V30 495 C 48.3552 3.42747 -1.12058 0
M  V30 496 O 47.4592 4.11683 -0.243124 0
M  V30 497 H 46.8002 0.602724 -0.278604 0
M  V30 498 H 49.3302 1.50678 -1.3841 0
M  V30 499 H 49.3402 3.93437 -1.08035 0
M  V30 500 H 48.0152 3.55002 -2.16672 0
M  V30 501 H 46.5922 3.71323 -0.342539 0
M  V30 502 N 48.7773 0.814389 1.34928 0
M  V30 503 C 49.7093 0.187834 2.28429 0
M  V30 504 C 50.7223 -0.617374 1.5064 0
M  V30 505 O 51.9113 -0.448454 1.72775 0
M  V30 506 C 49.0113 -0.755962 3.30361 0
M  V30 507 C 48.1843 0.00456686 4.374 0
M  V30 508 C 47.2433 -0.858876 5.19143 0
M  V30 509 O 46.2693 -0.306968 5.68372 0
M  V30 510 N 47.4713 -2.17988 5.38016 0
M  V30 511 H 50.2363 0.991105 2.82838 0
M  V30 512 H 47.7973 0.670561 1.4736 0
M  V30 513 H 49.7893 -1.338 3.81942 0
M  V30 514 H 48.3593 -1.46001 2.7641 0
M  V30 515 H 47.5793 0.767865 3.86649 0
M  V30 516 H 48.8673 0.528422 5.06049 0
M  V30 517 H 48.2653 -2.65212 4.99679 0
M  V30 518 H 46.8223 -2.71098 5.92747 0
M  V30 519 N 50.2554 -1.46986 0.568584 0
M  V30 520 C 51.5014 -2.02741 0.0488709 0
M  V30 521 C 51.8344 -1.44077 -1.30214 0
M  V30 522 O 51.1094 -0.600552 -1.84996 0
M  V30 523 C 51.3924 -3.60086 -0.032047 0
M  V30 524 C 51.2454 -4.29162 1.34686 0
M  V30 525 C 52.5644 -4.33838 -0.739798 0
M  V30 526 H 49.6834 -0.736749 0.0192338 0
M  V30 527 H 52.3254 -1.75289 0.733065 0
M  V30 528 H 50.4754 -3.83606 -0.61473 0
M  V30 529 H 52.1474 -4.16948 1.97362 0
M  V30 530 H 50.3904 -3.89073 1.91846 0
M  V30 531 H 51.0614 -5.37826 1.24285 0
M  V30 532 H 53.5374 -4.15378 -0.244939 0
M  V30 533 H 52.4134 -5.43537 -0.765406 0
M  V30 534 H 52.6744 -4.03875 -1.79827 0
M  V30 535 N 51.7335 -0.305618 -1.54608 0
M  V30 536 C 52.6635 0.561482 -2.26649 0
M  V30 537 C 53.6445 1.13415 -1.26772 0
M  V30 538 O 54.8295 1.16262 -1.55553 0
M  V30 539 C 51.9595 1.73122 -3.01075 0
M  V30 540 C 50.9135 1.2887 -4.08138 0
M  V30 541 C 50.2395 2.54396 -4.70305 0
M  V30 542 C 51.5395 0.416578 -5.20636 0
M  V30 543 H 53.2335 -0.0393902 -2.99374 0
M  V30 544 H 50.7795 -0.020385 -1.43986 0
M  V30 545 H 52.7325 2.34396 -3.50195 0
M  V30 546 H 51.4565 2.3584 -2.25936 0
M  V30 547 H 50.1155 0.698991 -3.59875 0
M  V30 548 H 49.7635 3.15439 -3.918 0
M  V30 549 H 49.4635 2.25486 -5.42614 0
M  V30 550 H 50.9875 3.16464 -5.2219 0
M  V30 551 H 52.4015 0.935116 -5.65622 0
M  V30 552 H 50.7985 0.221046 -5.99693 0
M  V30 553 H 51.8685 -0.557162 -4.81688 0
M  V30 554 N 53.2116 1.57565 -0.0334293 0
M  V30 555 C 54.4576 1.92262 0.645226 0
M  V30 556 C 54.7906 0.910543 1.71531 0
M  V30 557 O 54.0656 -0.066099 1.94388 0
M  V30 558 C 54.3486 3.37422 1.2577 0
M  V30 559 C 54.2016 4.49369 0.196891 0
M  V30 560 C 55.5206 3.82628 2.17449 0
M  V30 561 H 52.6396 0.699171 0.233085 0
M  V30 562 H 55.2816 1.89779 -0.0915694 0
M  V30 563 H 53.4316 3.39669 1.88566 0
M  V30 564 H 55.1036 4.59254 -0.433962 0
M  V30 565 H 53.3466 4.31168 -0.477137 0
M  V30 566 H 54.0176 5.47978 0.665124 0
M  V30 567 H 56.4936 3.82145 1.64634 0
M  V30 568 H 55.3696 4.84883 2.57254 0
M  V30 569 H 55.6306 3.18376 3.0674 0
M  V30 570 N 54.6897 -0.239769 1.55765 0
M  V30 571 C 56.1057 -0.588624 1.48349 0
M  V30 572 C 56.3057 -1.88005 0.72502 0
M  V30 573 O 55.3617 -2.51186 0.257269 0
M  V30 574 C 56.6747 -0.68474 2.928 0
M  V30 575 C 58.2227 -0.77659 3.03213 0
M  V30 576 C 58.6977 -0.904207 4.48986 0
M  V30 577 N 60.1887 -0.968896 4.52953 0
M  V30 578 C 60.9237 -1.08703 5.63002 0
M  V30 579 N 60.4197 -1.17026 6.82845 0
M  V30 580 N 62.2127 -1.12074 5.50814 0
M  V30 581 H 54.3637 0.607911 2.03515 0
M  V30 582 H 56.6267 0.21083 0.924259 0
M  V30 583 H 56.3327 0.194284 3.51163 0
M  V30 584 H 56.2067 -1.55435 3.43686 0
M  V30 585 H 58.5937 -1.64606 2.44926 0
M  V30 586 H 58.6747 0.118315 2.55526 0
M  V30 587 H 58.3187 -0.0392633 5.07885 0
M  V30 588 H 58.2487 -1.81426 4.9436 0
M  V30 589 H 60.7397 -0.915633 3.6664 0
M  V30 590 H 61.0527 -1.25966 7.62465 0
M  V30 591 H 59.3977 -1.13971 6.85591 0
M  V30 592 H 62.5887 -1.05226 4.5612 0
M  V30 593 H 62.7617 -1.20936 6.36615 0
M  V30 594 N 56.1678 -1.49265 -0.50573 0
M  V30 595 C 57.1148 -1.65585 -1.6078 0
M  V30 596 C 58.0848 -0.497396 -1.58478 0
M  V30 597 O 59.2698 -0.72385 -1.76536 0
M  V30 598 C 56.4098 -1.72408 -2.98948 0
M  V30 599 C 55.5228 -2.99525 -3.11301 0
M  V30 600 C 54.6578 -2.97356 -4.40174 0
M  V30 601 C 53.6968 -4.19074 -4.46143 0
M  V30 602 N 52.8338 -4.14841 -5.66437 0
M  V30 603 H 57.6738 -2.59688 -1.46172 0
M  V30 604 H 55.2108 -1.28761 -0.711261 0
M  V30 605 H 57.1688 -1.74344 -3.79025 0
M  V30 606 H 55.7988 -0.817753 -3.1227 0
M  V30 607 H 54.8508 -3.07222 -2.24318 0
M  V30 608 H 56.1628 -3.89518 -3.11572 0
M  V30 609 H 55.3168 -2.97829 -5.28567 0
M  V30 610 H 54.0558 -2.05133 -4.42461 0
M  V30 611 H 53.0608 -4.1885 -3.56153 0
M  V30 612 H 54.2858 -5.12483 -4.45575 0
M  V30 613 H 52.2318 -3.25453 -5.69575 0
M  V30 614 H 52.1488 -4.98564 -5.68304 0
M  V30 615 H 53.4168 -4.1941 -6.57051 0
M  V30 616 N 57.6459 0.756429 -1.3826 0
M  V30 617 C 59.0619 1.0591 -1.19395 0
M  V30 618 C 59.2619 2.01459 -0.0406567 0
M  V30 619 O 58.3179 2.44909 0.614467 0
M  V30 620 C 59.6309 1.64191 -2.51916 0
M  V30 621 C 61.1789 1.76376 -2.58574 0
M  V30 622 C 61.6539 2.38069 -3.91264 0
M  V30 623 N 63.1449 2.45503 -3.92788 0
M  V30 624 C 63.8799 2.94126 -4.92217 0
M  V30 625 N 63.3759 3.42805 -6.02043 0
M  V30 626 N 65.1689 2.9314 -4.7961 0
M  V30 627 H 57.3199 0.122313 -2.12048 0
M  V30 628 H 59.5829 0.116892 -0.940766 0
M  V30 629 H 59.2889 1.01451 -3.3675 0
M  V30 630 H 59.1629 2.6329 -2.70108 0
M  V30 631 H 61.5499 2.38244 -1.74137 0
M  V30 632 H 61.6309 0.759894 -2.44252 0
M  V30 633 H 61.2749 1.76835 -4.76121 0
M  V30 634 H 61.2049 3.39091 -4.02895 0
M  V30 635 H 63.6959 2.1107 -3.13461 0
M  V30 636 H 64.0089 3.78354 -6.73846 0
M  V30 637 H 62.3539 3.4087 -6.05667 0
M  V30 638 H 65.5449 2.54419 -3.92923 0
M  V30 639 H 65.7179 3.30721 -5.5725 0
M  V30 640 N 59.124 1.23083 0.984299 0
M  V30 641 C 60.54 0.992637 1.24975 0
M  V30 642 C 60.74 -0.308618 1.99123 0
M  V30 643 O 59.796 -1.02905 2.30579 0
M  V30 644 C 61.109 2.19698 2.05312 0
M  V30 645 C 62.657 2.24147 2.18465 0
M  V30 646 C 63.132 3.44157 3.02192 0
M  V30 647 N 64.623 3.44372 3.09777 0
M  V30 648 C 65.358 4.33886 3.74874 0
M  V30 649 N 64.854 5.3363 4.41827 0
M  V30 650 N 66.647 4.21639 3.71721 0
M  V30 651 H 58.798 2.06731 0.487453 0
M  V30 652 H 61.061 0.906339 0.277944 0
M  V30 653 H 60.767 3.1411 1.58201 0
M  V30 654 H 60.641 2.20465 3.06064 0
M  V30 655 H 63.028 1.30277 2.64786 0
M  V30 656 H 63.109 2.27415 1.17115 0
M  V30 657 H 62.753 4.38332 2.56568 0
M  V30 658 H 62.683 3.3813 4.03702 0
M  V30 659 H 65.174 2.72201 2.62135 0
M  V30 660 H 65.487 5.98196 4.89266 0
M  V30 661 H 63.832 5.37534 4.40548 0
M  V30 662 H 67.023 3.42962 3.18582 0
M  V30 663 H 67.196 4.91604 4.22173 0
M  V30 664 N 60.6021 -1.18246 1.0419 0
M  V30 665 C 61.5651 -2.20128 0.638452 0
M  V30 666 C 62.5651 -1.57885 -0.304805 0
M  V30 667 O 63.7551 -1.73967 -0.0900369 0
M  V30 668 C 60.8871 -3.4084 -0.0637751 0
M  V30 669 H 62.0801 -2.57336 1.54007 0
M  V30 670 H 59.6331 -1.32152 0.834598 0
M  V30 671 H 60.3681 -3.09166 -0.979136 0
M  V30 672 H 60.1531 -3.8726 0.614198 0
M  V30 673 H 61.6431 -4.16274 -0.332512 0
M  V30 674 N 62.0802 -0.821533 -1.34494 0
M  V30 675 C 63.0282 -0.230702 -2.31453 0
M  V30 676 C 64.0222 0.627793 -1.57338 0
M  V30 677 O 65.2282 0.519288 -1.72347 0
M  V30 678 H 61.6032 -0.0558577 -0.749923 0
M  V30 679 H 63.5742 -1.06332 -2.78812 0
M  V30 680 C 62.3232 0.59391 -3.4259 0
M  V30 681 H 61.6462 -0.0573588 -3.99759 0
M  V30 682 H 63.0862 0.973446 -4.12674 0
M  V30 683 C 61.5452 1.76568 -2.86924 0
M  V30 684 O 62.0752 2.8638 -2.81691 0
M  V30 685 N 60.2812 1.58198 -2.43766 0
M  V30 686 H 59.8282 0.68872 -2.48222 0
M  V30 687 H 59.7862 2.36752 -2.06871 0
M  V30 688 N 63.5583 1.46682 -0.576371 0
M  V30 689 C 64.7833 2.07304 -0.0630475 0
M  V30 690 C 65.2083 1.42329 1.2298 0
M  V30 691 O 64.5663 0.504865 1.74129 0
M  V30 692 C 64.6143 3.60472 0.095895 0
M  V30 693 O 63.7183 3.95927 1.15394 0
M  V30 694 H 63.0593 0.661288 -0.0599463 0
M  V30 695 H 65.5893 1.88417 -0.797511 0
M  V30 696 H 65.5993 4.06865 0.304071 0
M  V30 697 H 64.2743 4.07157 -0.84828 0
M  V30 698 H 62.8513 3.61252 0.924724 0
M  V30 699 N 65.0364 0.313813 1.54444 0
M  V30 700 C 65.9664 -0.549454 2.26943 0
M  V30 701 C 66.9474 -1.12741 1.27372 0
M  V30 702 O 68.1324 -1.15436 1.56167 0
M  V30 703 C 65.2624 -1.71523 3.01989 0
M  V30 704 C 64.2164 -1.26703 4.08816 0
M  V30 705 C 63.5424 -2.51898 4.71647 0
M  V30 706 C 64.8424 -0.388962 5.2085 0
M  V30 707 H 66.5364 0.0552661 2.99349 0
M  V30 708 H 64.0824 0.0280207 1.43973 0
M  V30 709 H 66.0354 -2.32535 3.51433 0
M  V30 710 H 64.7594 -2.34639 2.27183 0
M  V30 711 H 63.4184 -0.679896 3.6024 0
M  V30 712 H 63.0664 -3.13356 3.93468 0
M  V30 713 H 62.7664 -2.22605 5.43802 0
M  V30 714 H 64.2904 -3.1369 5.23861 0
M  V30 715 H 65.7044 -0.905107 5.6611 0
M  V30 716 H 64.1014 -0.18924 5.99802 0
M  V30 717 H 65.1714 0.582699 4.81386 0
M  V30 718 N 66.5145 -1.57545 0.0417849 0
M  V30 719 C 67.4445 -2.14009 -0.933929 0
M  V30 720 C 68.4255 -1.05938 -1.33083 0
M  V30 721 O 69.6105 -1.33833 -1.40721 0
M  V30 722 C 66.7405 -2.67747 -2.21199 0
M  V30 723 C 65.6945 -3.80718 -1.95544 0
M  V30 724 C 65.0205 -4.20935 -3.29724 0
M  V30 725 C 66.3205 -5.06258 -1.28452 0
M  V30 726 H 68.0145 -2.95788 -0.463645 0
M  V30 727 H 65.5605 -1.42285 -0.221573 0
M  V30 728 H 67.5135 -3.05886 -2.89848 0
M  V30 729 H 66.2375 -1.83147 -2.70416 0
M  V30 730 H 64.8965 -3.43037 -1.2931 0
M  V30 731 H 64.5445 -3.33298 -3.76724 0
M  V30 732 H 64.2445 -4.9707 -3.13361 0
M  V30 733 H 65.7685 -4.61666 -3.9962 0
M  V30 734 H 67.1825 -5.41903 -1.8712 0
M  V30 735 H 65.5795 -5.87475 -1.22445 0
M  V30 736 H 66.6495 -4.84207 -0.259219 0
M  V30 737 N 67.9926 0.231505 -1.5589 0
M  V30 738 C 68.9026 1.308 -1.94752 0
M  V30 739 C 69.9186 1.51826 -0.849989 0
M  V30 740 O 71.0946 1.6515 -1.15271 0
M  V30 741 C 68.1596 2.63968 -2.24771 0
M  V30 742 C 67.2206 2.51331 -3.48039 0
M  V30 743 C 66.4536 3.78148 -3.76616 0
M  V30 744 O 66.6766 4.80722 -3.07022 0
M  V30 745 O 65.6106 3.75857 -4.70123 0
M  V30 746 H 69.4366 1.0083 -2.86474 0
M  V30 747 H 67.0216 0.433547 -1.42971 0
M  V30 748 H 68.9036 3.42633 -2.45318 0
M  V30 749 H 67.5786 2.9364 -1.36225 0
M  V30 750 H 66.4856 1.709 -3.32782 0
M  V30 751 H 67.8186 2.26601 -4.36936 0
M  V30 752 N 69.4707 1.49531 0.497807 0
M  V30 753 C 70.3807 1.69176 1.62532 0
M  V30 754 C 71.3967 0.5744 1.64246 0
M  V30 755 O 72.5727 0.849497 1.82608 0
M  V30 756 C 69.6377 1.75695 2.98885 0
M  V30 757 C 68.6987 2.9929 3.07773 0
M  V30 758 C 67.9317 3.05488 4.37622 0
M  V30 759 O 68.1547 2.19192 5.26603 0
M  V30 760 O 67.0887 3.9798 4.51548 0
M  V30 761 H 70.9147 2.647 1.48887 0
M  V30 762 H 68.4997 1.3331 0.674441 0
M  V30 763 H 70.3817 1.82317 3.79919 0
M  V30 764 H 69.0567 0.8335 3.12785 0
M  V30 765 H 67.9637 2.98183 2.25915 0
M  V30 766 H 69.2967 3.91125 2.98801 0
M  V30 767 N 70.9488 -0.749086 1.3866 0
M  V30 768 C 72.1768 -1.53834 1.38358 0
M  V30 769 C 72.5918 -1.88783 -0.0255219 0
M  V30 770 O 71.9488 -1.53101 -0.993292 0
M  V30 771 C 71.9998 -2.83468 2.2434 0
M  V30 772 O 71.7208 -2.50008 3.5976 0
M  V30 773 C 73.2218 -3.7758 2.32267 0
M  V30 774 H 70.4418 -0.47585 0.473083 0
M  V30 775 H 72.9858 -0.926726 1.82297 0
M  V30 776 H 71.1408 -3.40995 1.83851 0
M  V30 777 H 71.5548 -3.33182 4.05081 0
M  V30 778 H 73.0288 -4.65478 2.96706 0
M  V30 779 H 73.5058 -4.18334 1.33765 0
M  V30 780 H 74.1118 -3.25976 2.73166 0
M  V30 781 N 72.4269 -1.23603 -0.977757 0
M  V30 782 C 73.3739 -1.01954 -2.07061 0
M  V30 783 C 74.3439 0.0638697 -1.65977 0
M  V30 784 O 75.5289 -0.0887624 -1.90593 0
M  V30 785 C 72.6689 -0.619658 -3.39491 0
M  V30 786 C 71.7819 -1.77547 -3.93829 0
M  V30 787 C 70.9169 -1.32212 -5.14484 0
M  V30 788 C 69.9559 -2.44852 -5.60994 0
M  V30 789 N 69.0929 -2.00456 -6.72876 0
M  V30 790 H 73.9329 -1.95495 -2.24913 0
M  V30 791 H 71.4699 -0.973861 -1.10247 0
M  V30 792 H 73.4279 -0.368898 -4.15566 0
M  V30 793 H 72.0579 0.278752 -3.21594 0
M  V30 794 H 71.1099 -2.14016 -3.14486 0
M  V30 795 H 72.4219 -2.62219 -4.24314 0
M  V30 796 H 71.5759 -1.02965 -5.97899 0
M  V30 797 H 70.3149 -0.445808 -4.85658 0
M  V30 798 H 69.3199 -2.74871 -4.76157 0
M  V30 799 H 70.5449 -3.33024 -5.91837 0
M  V30 800 H 68.4909 -1.15208 -6.45804 0
M  V30 801 H 68.4079 -2.78687 -7.02759 0
M  V30 802 H 69.6759 -1.7432 -7.59758 0
M  V30 803 N 73.905 1.17692 -1.04816 0
M  V30 804 C 74.837 2.21103 -0.603822 0
M  V30 805 C 75.85 1.59411 0.33046 0
M  V30 806 O 77.039 1.7807 0.12379 0
M  V30 807 C 74.139 3.38623 0.136898 0
M  V30 808 C 73.312 4.29888 -0.807137 0
M  V30 809 C 72.371 5.26088 -0.10836 0
M  V30 810 O 71.397 5.64353 -0.741232 0
M  V30 811 N 72.599 5.68882 1.15558 0
M  V30 812 H 75.364 2.59848 -1.49329 0
M  V30 813 H 72.925 1.32553 -0.929587 0
M  V30 814 H 74.917 4.00009 0.614401 0
M  V30 815 H 73.487 2.98508 0.927993 0
M  V30 816 H 72.707 3.65993 -1.46434 0
M  V30 817 H 73.995 4.87759 -1.44807 0
M  V30 818 H 73.393 5.39861 1.69015 0
M  V30 819 H 71.95 6.32429 1.57722 0
M  V30 820 N 75.3831 0.828654 1.34056 0
M  V30 821 C 76.6311 0.41863 1.97717 0
M  V30 822 C 76.9521 -1.02314 1.66002 0
M  V30 823 O 76.2221 -1.71119 0.953683 0
M  V30 824 H 74.8021 0.151809 0.731412 0
M  V30 825 H 77.4641 1.05936 1.63596 0
M  V30 826 H 76.5601 0.542318 3.07352 0
M  V30 827 N 76.8612 -1.46375 0.584142 0
M  V30 828 C 77.8092 -2.32042 -0.161047 0
M  V30 829 C 78.8032 -1.44569 -0.882966 0
M  V30 830 O 80.0092 -1.61186 -0.801191 0
M  V30 831 H 76.3842 -0.748659 -0.0708033 0
M  V30 832 H 78.3552 -2.92704 0.580269 0
M  V30 833 C 77.1042 -3.27762 -1.1605 0
M  V30 834 H 76.4272 -3.95051 -0.614419 0
M  V30 835 H 77.8672 -3.90481 -1.65228 0
M  V30 836 C 76.3262 -2.53218 -2.22221 0
M  V30 837 O 76.8562 -2.29628 -3.29597 0
M  V30 838 N 75.0622 -2.13756 -1.96868 0
M  V30 839 H 74.6092 -2.33142 -1.09557 0
M  V30 840 H 74.5672 -1.642 -2.68115 0
M  V30 841 N 78.3393 -0.321999 -1.54275 0
M  V30 842 C 79.2693 0.537411 -2.27231 0
M  V30 843 C 80.2503 1.12064 -1.27968 0
M  V30 844 O 81.4353 1.14606 -1.56777 0
M  V30 845 C 78.5653 1.69919 -3.02894 0
M  V30 846 C 77.5193 1.24534 -4.09482 0
M  V30 847 C 76.8453 2.49394 -4.72977 0
M  V30 848 C 78.1453 0.361335 -5.21049 0
M  V30 849 H 79.8393 -0.0711406 -2.99315 0
M  V30 850 H 77.3853 -0.0356555 -1.43956 0
M  V30 851 H 79.3383 2.30668 -3.52662 0
M  V30 852 H 78.0623 2.33431 -2.28424 0
M  V30 853 H 76.7213 0.660782 -3.60596 0
M  V30 854 H 76.3693 3.11265 -3.95124 0
M  V30 855 H 76.0693 2.19718 -5.44975 0
M  V30 856 H 77.5933 3.10908 -5.25517 0
M  V30 857 H 79.0073 0.875072 -5.66582 0
M  V30 858 H 77.4043 0.157428 -5.99893 0
M  V30 859 H 78.4743 -0.60822 -4.8107 0
M  V30 860 N 79.8174 1.5752 -0.0501392 0
M  V30 861 C 80.7274 2.14952 0.939827 0
M  V30 862 C 81.7434 1.10706 1.34239 0
M  V30 863 O 82.9194 1.42869 1.41952 0
M  V30 864 C 79.9844 2.68232 2.19665 0
M  V30 865 C 79.0454 3.87272 1.85253 0
M  V30 866 C 78.2784 4.38002 3.04943 0
M  V30 867 O 78.5014 3.87811 4.18281 0
M  V30 868 O 77.4354 5.29602 2.86017 0
M  V30 869 H 81.2614 2.9986 0.481392 0
M  V30 870 H 78.8464 1.4841 0.171699 0
M  V30 871 H 80.7284 3.02475 2.93406 0
M  V30 872 H 79.4034 1.86395 2.64648 0
M  V30 873 H 78.3104 3.5792 1.0883 0
M  V30 874 H 79.6434 4.70336 1.4507 0
M  V30 875 N 81.2955 -0.223234 1.56011 0
M  V30 876 C 82.7115 -0.572856 1.48965 0
M  V30 877 C 82.9115 -1.87225 0.74492 0
M  V30 878 O 81.9675 -2.50899 0.283896 0
M  V30 879 C 83.2805 -0.653646 2.9351 0
M  V30 880 C 84.8285 -0.744386 3.0402 0
M  V30 881 C 85.3035 -0.856535 4.49919 0
M  V30 882 N 86.7945 -0.9208 4.53955 0
M  V30 883 C 87.5295 -1.02726 5.64123 0
M  V30 884 N 87.0255 -1.09777 6.84047 0
M  V30 885 N 88.8185 -1.06226 5.51971 0
M  V30 886 H 80.9695 0.629462 2.02858 0
M  V30 887 H 83.2325 0.220621 0.921971 0
M  V30 888 H 82.9385 0.231518 3.50937 0
M  V30 889 H 82.8125 -1.51781 3.45315 0
M  V30 890 H 85.1995 -1.61999 2.46658 0
M  V30 891 H 85.2805 0.14541 2.55386 0
M  V30 892 H 84.9245 0.0146069 5.07898 0
M  V30 893 H 84.8545 -1.76172 4.96257 0
M  V30 894 H 87.3455 -0.876694 3.6759 0
M  V30 895 H 87.6585 -1.17872 7.63758 0
M  V30 896 H 86.0035 -1.06693 6.86762 0
M  V30 897 H 89.1945 -1.00382 4.5721 0
M  V30 898 H 89.3675 -1.14177 6.37862 0
M  V30 899 N 82.7736 -1.49793 -0.48987 0
M  V30 900 C 83.6836 -1.70036 -1.61632 0
M  V30 901 C 84.6996 -0.583102 -1.63939 0
M  V30 902 O 85.8756 -0.859169 -1.82154 0
M  V30 903 C 82.9406 -1.77277 -2.97949 0
M  V30 904 C 82.0016 -3.00918 -3.06181 0
M  V30 905 C 81.2346 -3.07804 -4.35996 0
M  V30 906 O 81.4576 -2.21982 -5.25433 0
M  V30 907 O 80.3916 -4.00369 -4.49431 0
M  V30 908 H 84.2176 -2.65486 -1.47482 0
M  V30 909 H 81.8026 -1.33666 -0.667362 0
M  V30 910 H 83.6846 -1.84329 -3.78947 0
M  V30 911 H 82.3596 -0.850076 -3.12339 0
M  V30 912 H 81.2666 -2.99377 -2.2433 0
M  V30 913 H 82.5996 -3.92704 -2.96723 0
M  V30 914 N 84.2517 0.741722 -1.39055 0
M  V30 915 C 85.4917 1.51385 -1.37338 0
M  V30 916 C 85.8557 1.91972 0.0330513 0
M  V30 917 O 87.0567 2.68229 0.175174 0
M  V30 918 C 85.3277 2.72481 -2.31276 0
M  V30 919 S 86.8867 3.62211 -2.47687 0
M  V30 920 H 83.7047 0.517906 -0.487129 0
M  V30 921 H 86.3067 0.86969 -1.7509 0
M  V30 922 H 85.0107 2.40793 -3.32336 0
M  V30 923 H 84.5417 3.41832 -1.94716 0
M  V30 924 H 86.5567 4.65812 -1.70978 0
M  V30 925 N 85.7298 1.2412 0.971189 0
M  V30 926 C 86.9788 1.07284 1.70801 0
M  V30 927 C 87.2918 -0.388902 1.91695 0
M  V30 928 O 88.4978 -0.677379 2.62914 0
M  V30 929 C 86.9538 1.87145 3.07416 0
M  V30 930 C 86.5618 3.37707 2.94377 0
M  V30 931 C 88.3058 1.78828 3.84995 0
M  V30 932 C 86.2128 4.09925 4.26281 0
M  V30 933 H 85.1428 0.397854 0.64049 0
M  V30 934 H 87.7938 1.4817 1.0825 0
M  V30 935 H 86.1758 1.39071 3.70777 0
M  V30 936 H 87.3498 3.93335 2.4005 0
M  V30 937 H 85.6648 3.46938 2.30267 0
M  V30 938 H 88.2618 2.30089 4.82662 0
M  V30 939 H 88.6048 0.75284 4.09436 0
M  V30 940 H 89.1378 2.24563 3.28354 0
M  V30 941 H 85.8768 5.13813 4.07033 0
M  V30 942 H 85.3968 3.59083 4.80437 0
M  V30 943 H 87.0758 4.1673 4.94919 0
M  V30 944 N 87.2079 -1.17134 1.05439 0
M  V30 945 C 88.1179 -2.24878 0.668365 0
M  V30 946 C 89.1339 -1.71186 -0.311687 0
M  V30 947 O 90.3099 -2.00738 -0.163161 0
M  V30 948 C 87.3749 -3.46662 0.051648 0
M  V30 949 C 86.4359 -4.15429 1.08246 0
M  V30 950 C 85.6689 -5.31399 0.495082 0
M  V30 951 O 85.8919 -5.66153 -0.694743 0
M  V30 952 O 84.8259 -5.89187 1.23056 0
M  V30 953 H 88.6519 -2.60189 1.56637 0
M  V30 954 H 86.2369 -1.24482 0.826104 0
M  V30 955 H 88.1189 -4.20394 -0.290966 0
M  V30 956 H 86.7939 -3.13142 -0.819971 0
M  V30 957 H 85.7009 -3.43704 1.47711 0
M  V30 958 H 87.0339 -4.52982 1.92532 0
M  V30 959 N 88.686 -0.835752 -1.33615 0
M  V30 960 C 89.596 -0.269088 -2.33052 0
M  V30 961 C 90.612 0.603251 -1.63208 0
M  V30 962 O 91.788 0.508112 -1.94885 0
M  V30 963 C 88.853 0.549091 -3.42324 0
M  V30 964 C 87.914 -0.347156 -4.27894 0
M  V30 965 C 87.147 0.43207 -5.31948 0
M  V30 966 O 87.37 1.66409 -5.45586 0
M  V30 967 O 86.304 -0.192298 -6.01593 0
M  V30 968 H 90.13 -1.09243 -2.83372 0
M  V30 969 H 87.715 -0.598198 -1.36901 0
M  V30 970 H 89.597 1.01414 -4.09015 0
M  V30 971 H 88.272 1.34955 -2.94226 0
M  V30 972 H 87.179 -0.859979 -3.64081 0
M  V30 973 H 88.512 -1.1123 -4.79467 0
M  V30 974 N 90.1641 1.46063 -0.591896 0
M  V30 975 C 91.0941 2.33172 0.123673 0
M  V30 976 C 92.0751 1.45897 0.87453 0
M  V30 977 O 93.2601 1.74698 0.848181 0
M  V30 978 C 90.3901 3.28336 1.13194 0
M  V30 979 C 89.3441 4.25124 0.495324 0
M  V30 980 C 88.6701 5.09863 1.61071 0
M  V30 981 C 89.9701 5.19143 -0.573425 0
M  V30 982 H 91.6641 2.93252 -0.603646 0
M  V30 983 H 89.2101 1.41014 -0.291741 0
M  V30 984 H 91.1631 3.88137 1.64097 0
M  V30 985 H 89.8871 2.66383 1.88965 0
M  V30 986 H 88.5461 3.66599 0.00729452 0
M  V30 987 H 88.1941 4.44288 2.35832 0
M  V30 988 H 87.8941 5.75417 1.19035 0
M  V30 989 H 89.4181 5.72529 2.12233 0
M  V30 990 H 90.8321 5.73106 -0.1491 0
M  V30 991 H 89.2291 5.93089 -0.914636 0
M  V30 992 H 90.2991 4.62519 -1.45617 0
M  V30 993 N 91.6422 0.330177 1.54103 0
M  V30 994 C 92.8822 -0.270916 2.02597 0
M  V30 995 C 93.2462 -1.48826 1.21304 0
M  V30 996 O 94.4472 -2.16266 1.59633 0
M  V30 997 C 92.7182 -0.590328 3.52491 0
M  V30 998 S 94.2772 -1.17014 4.2291 0
M  V30 999 H 91.0952 -0.0815379 0.706309 0
M  V30 1000 H 93.6972 0.464835 1.89893 0
M  V30 1001 H 92.4012 0.303691 4.09275 0
M  V30 1002 H 91.9322 -1.3561 3.69288 0
M  V30 1003 H 93.9472 -2.45662 4.3112 0
M  V30 1004 N 93.1203 -1.57491 0.0584922 0
M  V30 1005 C 94.0683 -2.13148 -0.931168 0
M  V30 1006 C 95.0623 -1.06507 -1.31729 0
M  V30 1007 O 96.2683 -1.24906 -1.29609 0
M  V30 1008 H 92.6433 -0.68137 -0.31818 0
M  V30 1009 H 94.6143 -2.95187 -0.436707 0
M  V30 1010 C 93.3633 -2.69732 -2.19408 0
M  V30 1011 H 92.6863 -3.51454 -1.90578 0
M  V30 1012 H 94.1263 -3.12287 -2.86798 0
M  V30 1013 C 92.5853 -1.63855 -2.94369 0
M  V30 1014 O 93.1153 -1.05565 -3.87581 0
M  V30 1015 N 91.3213 -1.35202 -2.57233 0
M  V30 1016 H 90.8683 -1.82791 -1.81508 0
M  V30 1017 H 90.8263 -0.645922 -3.07693 0
M  V30 1018 N 94.5984 0.214957 -1.56127 0
M  V30 1019 C 95.5454 1.26642 -1.92952 0
M  V30 1020 C 96.5154 1.46244 -0.78753 0
M  V30 1021 O 97.7004 1.59704 -1.04399 0
M  V30 1022 C 94.8404 2.6104 -2.25726 0
M  V30 1023 C 93.9534 2.49183 -3.52891 0
M  V30 1024 C 93.0884 3.76149 -3.7508 0
M  V30 1025 C 92.1274 3.59041 -4.95738 0
M  V30 1026 N 91.2644 4.77972 -5.14283 0
M  V30 1027 H 96.1044 0.945384 -2.82607 0
M  V30 1028 H 93.6414 0.455489 -1.3987 0
M  V30 1029 H 95.5994 3.39313 -2.42739 0
M  V30 1030 H 94.2294 2.91227 -1.39236 0
M  V30 1031 H 93.2814 1.6231 -3.44034 0
M  V30 1032 H 94.5934 2.32466 -4.41318 0
M  V30 1033 H 93.7474 4.62865 -3.92226 0
M  V30 1034 H 92.4864 3.95799 -2.84947 0
M  V30 1035 H 91.4914 2.7071 -4.78535 0
M  V30 1036 H 92.7164 3.40856 -5.87362 0
M  V30 1037 H 90.6624 4.97923 -4.27093 0
M  V30 1038 H 90.5794 4.64006 -5.96853 0
M  V30 1039 H 91.8474 5.66096 -5.35869 0
M  V30 1040 N 96.0765 1.50051 0.48192 0
M  V30 1041 C 96.9865 1.7089 1.60728 0
M  V30 1042 C 98.0025 0.591788 1.63627 0
M  V30 1043 O 99.1785 0.868817 1.81696 0
M  V30 1044 C 96.2435 1.78855 2.97005 0
M  V30 1045 C 95.3045 3.02537 3.04581 0
M  V30 1046 C 94.5375 3.10112 4.34357 0
M  V30 1047 O 94.7605 2.24765 5.24249 0
M  V30 1048 O 93.6945 4.02747 4.47301 0
M  V30 1049 H 97.5205 2.66264 1.46072 0
M  V30 1050 H 95.1055 1.34018 0.660264 0
M  V30 1051 H 96.9875 1.86336 3.77964 0
M  V30 1052 H 95.6625 0.866628 3.11883 0
M  V30 1053 H 94.5695 3.00563 2.22739 0
M  V30 1054 H 95.9025 3.94272 2.94636 0
M  V30 1055 N 97.5546 -0.734337 1.39446 0
M  V30 1056 C 98.4646 -1.87879 1.40495 0
M  V30 1057 C 99.4806 -1.714 0.299672 0
M  V30 1058 O 100.657 -1.93991 0.541249 0
M  V30 1059 C 97.7216 -3.23477 1.24754 0
M  V30 1060 C 96.7826 -3.52344 2.45259 0
M  V30 1061 C 96.0156 -4.81473 2.30259 0
M  V30 1062 O 96.2386 -5.55237 1.30643 0
M  V30 1063 O 95.1726 -5.10254 3.19256 0
M  V30 1064 H 98.9986 -1.89949 2.36966 0
M  V30 1065 H 96.5836 -0.882243 1.20569 0
M  V30 1066 H 98.4656 -4.04509 1.18111 0
M  V30 1067 H 97.1406 -3.22176 0.313781 0
M  V30 1068 H 96.0476 -2.71396 2.57478 0
M  V30 1069 H 97.3806 -3.58426 3.37331 0
M  V30 1070 N 99.0327 -1.24633 -0.964593 0
M  V30 1071 C 99.9957 -1.0424 -2.04124 0
M  V30 1072 C 100.996 0.00137563 -1.608 0
M  V30 1073 O 102.186 -0.239883 -1.7254 0
M  V30 1074 C 99.3177 -0.580588 -3.3592 0
M  V30 1075 H 100.511 -1.99803 -2.23649 0
M  V30 1076 H 98.0637 -1.06899 -1.14027 0
M  V30 1077 H 98.7987 0.3781 -3.22088 0
M  V30 1078 H 98.5837 -1.33398 -3.6871 0
M  V30 1079 H 100.074 -0.459034 -4.15069 0
M  V30 1080 N 100.511 1.16574 -1.06058 0
M  V30 1081 C 101.927 1.3904 -0.783585 0
M  V30 1082 C 102.127 1.91784 0.618145 0
M  V30 1083 O 101.183 2.11511 1.37911 0
M  V30 1084 C 102.496 2.37329 -1.84649 0
M  V30 1085 C 104.044 2.51018 -1.86973 0
M  V30 1086 C 104.519 3.52588 -2.92311 0
M  V30 1087 N 106.01 3.60113 -2.91329 0
M  V30 1088 C 106.745 4.38486 -3.69482 0
M  V30 1089 N 106.241 5.20302 -4.57447 0
M  V30 1090 N 108.034 4.33446 -3.57885 0
M  V30 1091 H 100.185 0.806725 -1.96483 0
M  V30 1092 H 102.448 0.417117 -0.851303 0
M  V30 1093 H 102.154 2.05663 -2.85299 0
M  V30 1094 H 102.028 3.36946 -1.6955 0
M  V30 1095 H 104.415 2.81989 -0.869827 0
M  V30 1096 H 104.496 1.51445 -2.0615 0
M  V30 1097 H 104.14 3.22354 -3.92492 0
M  V30 1098 H 104.07 4.51886 -2.70383 0
M  V30 1099 H 106.561 3.01707 -2.27555 0
M  V30 1100 H 106.874 5.77311 -5.13743 0
M  V30 1101 H 105.219 5.19653 -4.61503 0
M  V30 1102 H 108.41 3.68586 -2.88551 0
M  V30 1103 H 108.583 4.94279 -4.19037 0
M  V30 1104 N 101.989 0.842826 1.3317 0
M  V30 1105 C 102.899 0.281444 2.32906 0
M  V30 1106 C 103.915 -0.594587 1.63526 0
M  V30 1107 O 105.091 -0.49777 1.95152 0
M  V30 1108 C 102.156 -0.530929 3.42611 0
M  V30 1109 C 101.217 0.369843 4.27704 0
M  V30 1110 C 100.45 -0.403853 5.3217 0
M  V30 1111 O 100.673 -1.63513 5.46461 0
M  V30 1112 O 99.6069 0.224199 6.01482 0
M  V30 1113 H 103.433 1.10744 2.82789 0
M  V30 1114 H 101.018 0.60545 1.36582 0
M  V30 1115 H 102.9 -0.992437 4.09547 0
M  V30 1116 H 101.575 -1.33392 2.94938 0
M  V30 1117 H 100.482 0.879275 3.6362 0
M  V30 1118 H 101.815 1.13771 4.78871 0
M  V30 1119 N 103.467 -1.45747 0.599634 0
M  V30 1120 C 104.713 -2.02592 0.0918643 0
M  V30 1121 C 105.046 -1.46806 -1.27128 0
M  V30 1122 O 104.321 -0.639658 -1.83681 0
M  V30 1123 C 104.604 -3.60073 0.0443398 0
M  V30 1124 C 104.457 -4.26208 1.43759 0
M  V30 1125 C 105.776 -4.35309 -0.647608 0
M  V30 1126 H 102.895 -0.736175 0.034857 0
M  V30 1127 H 105.537 -1.73694 0.770081 0
M  V30 1128 H 103.687 -3.84823 -0.533224 0
M  V30 1129 H 105.359 -4.12668 2.06162 0
M  V30 1130 H 103.602 -3.84916 2.00056 0
M  V30 1131 H 104.273 -5.35069 1.35665 0
M  V30 1132 H 106.749 -4.15805 -0.156776 0
M  V30 1133 H 105.625 -5.45038 -0.649942 0
M  V30 1134 H 105.886 -4.07598 -1.71219 0
M  V30 1135 N 104.945 -0.338344 -1.53925 0
M  V30 1136 C 106.192 0.259758 -2.00827 0
M  V30 1137 C 106.52 1.50973 -1.22628 0
M  V30 1138 O 105.775 1.93379 -0.300509 0
M  V30 1139 C 106.074 0.62448 -3.51902 0
M  V30 1140 C 105.74 -0.528006 -4.47798 0
M  V30 1141 C 104.402 -0.844298 -4.73735 0
M  V30 1142 C 106.754 -1.30143 -5.0469 0
M  V30 1143 C 104.082 -1.93648 -5.53821 0
M  V30 1144 C 106.434 -2.38382 -5.85967 0
M  V30 1145 C 105.098 -2.70576 -6.10201 0
M  V30 1146 H 104.368 0.0950523 -0.734878 0
M  V30 1147 H 107.015 -0.465182 -1.85764 0
M  V30 1148 H 105.32 1.43006 -3.64769 0
M  V30 1149 H 107.017 1.09905 -3.85645 0
M  V30 1150 H 103.607 -0.271421 -4.2774 0
M  V30 1151 H 107.791 -1.07033 -4.84621 0
M  V30 1152 H 103.047 -2.19021 -5.70824 0
M  V30 1153 H 107.221 -2.98746 -6.29066 0
M  V30 1154 H 104.848 -3.55333 -6.72044 0
M  V30 1155 N 106.423 1.57458 -0.0668435 0
M  V30 1156 C 107.333 2.15937 0.916975 0
M  V30 1157 C 108.349 1.12123 1.33058 0
M  V30 1158 O 109.525 1.44366 1.40429 0
M  V30 1159 C 106.59 2.70547 2.16807 0
M  V30 1160 C 105.651 3.89215 1.81135 0
M  V30 1161 C 104.884 4.41211 3.0028 0
M  V30 1162 O 105.107 3.92225 4.14144 0
M  V30 1163 O 104.041 5.32605 2.80384 0
M  V30 1164 H 107.867 3.00354 0.449561 0
M  V30 1165 H 105.452 1.48584 0.155949 0
M  V30 1166 H 107.334 3.0557 2.90181 0
M  V30 1167 H 106.009 1.89192 2.62656 0
M  V30 1168 H 104.916 3.59054 1.05028 0
M  V30 1169 H 106.249 4.71848 1.40073 0
M  V30 1170 N 107.901 -0.206675 1.56239 0
M  V30 1171 C 108.849 -1.27571 1.94495 0
M  V30 1172 C 109.843 -1.47737 0.828862 0
M  V30 1173 O 111.049 -1.48735 1.0138 0
M  V30 1174 H 107.424 -0.428029 0.6183 0
M  V30 1175 H 109.395 -0.925961 2.8367 0
M  V30 1176 C 108.144 -2.61568 2.29079 0
M  V30 1177 H 107.467 -2.46863 3.14482 0
M  V30 1178 H 108.907 -3.35144 2.5972 0
M  V30 1179 C 107.366 -3.17695 1.12123 0
M  V30 1180 O 107.896 -3.99801 0.390153 0
M  V30 1181 N 106.102 -2.76276 0.901097 0
M  V30 1182 H 105.649 -2.09613 1.49733 0
M  V30 1183 H 105.607 -3.1417 0.120319 0
M  V30 1184 N 109.379 -1.50304 -0.473955 0
M  V30 1185 C 110.656 -1.51667 -1.23518 0
M  V30 1186 C 111.036 -0.259701 -2.09496 0
M  V30 1187 O 110.384 0.756986 -2.15597 0
M  V30 1188 C 110.594 -2.81082 -2.06868 0
M  V30 1189 C 111.942 -3.31631 -2.65153 0
M  V30 1190 O 112.966 -2.82384 -2.17113 0
M  V30 1191 O 111.825 -4.17471 -3.52675 0
M  V30 1192 H 108.919 -0.60822 -0.560355 0
M  V30 1193 H 111.465 -1.62592 -0.486011 0
M  V30 1194 H 110.237 -3.64041 -1.4349 0
M  V30 1195 H 109.86 -2.73146 -2.88924 0
M  V30 1196 N 110.857 0.726932 -1.39834 0
M  V30 1197 C 112.268 1.30558 -1.3346 0
M  V30 1198 C 112.619 1.962 -0.00273003 0
M  V30 1199 O 111.744 1.96826 0.899371 0
M  V30 1200 C 112.339 2.37404 -2.41713 0
M  V30 1201 C 110.898 2.90921 -2.38835 0
M  V30 1202 C 110.045 1.64578 -2.2318 0
M  V30 1203 H 112.996 0.523862 -1.49804 0
M  V30 1204 H 113.017 3.17984 -2.08966 0
M  V30 1205 H 112.529 1.89599 -3.38635 0
M  V30 1206 H 110.63 3.42985 -1.45575 0
M  V30 1207 H 110.743 3.43487 -3.33997 0
M  V30 1208 H 109.107 1.89219 -1.70494 0
M  V30 1209 H 109.89 1.18814 -3.22084 0
M  V30 1210 N 112.336 1.25143 0.95797 0
M  V30 1211 C 113.246 1.06968 2.08794 0
M  V30 1212 C 114.262 0.00773911 1.73998 0
M  V30 1213 O 115.438 0.207972 2.00323 0
M  V30 1214 C 112.503 0.68691 3.39827 0
M  V30 1215 C 111.564 1.82641 3.88511 0
M  V30 1216 C 110.797 1.46181 5.1329 0
M  V30 1217 O 111.02 0.355971 5.69288 0
M  V30 1218 O 109.954 2.29085 5.566 0
M  V30 1219 H 113.78 2.01723 2.27027 0
M  V30 1220 H 111.365 1.04051 1.07209 0
M  V30 1221 H 113.247 0.485417 4.18595 0
M  V30 1222 H 111.922 -0.231417 3.22872 0
M  V30 1223 H 110.829 2.08274 3.10762 0
M  V30 1224 H 112.162 2.72386 4.09959 0
M  V30 1225 N 113.814 -1.1601 1.06675 0
M  V30 1226 C 115.042 -1.90527 0.806667 0
M  V30 1227 C 115.457 -1.77643 -0.639396 0
M  V30 1228 O 114.814 -1.12369 -1.43803 0
M  V30 1229 C 114.865 -3.41106 1.19705 0
M  V30 1230 O 114.586 -3.53608 2.58636 0
M  V30 1231 C 116.087 -4.32663 0.965266 0
M  V30 1232 H 113.307 -0.604053 0.292166 0
M  V30 1233 H 115.851 -1.47026 1.4214 0
M  V30 1234 H 114.006 -3.82296 0.626774 0
M  V30 1235 H 114.42 -4.47011 2.74375 0
M  V30 1236 H 115.894 -5.36763 1.288 0
M  V30 1237 H 116.371 -4.39089 -0.0987936 0
M  V30 1238 H 116.977 -3.97206 1.52011 0
M  V30 1239 N 115.292 -0.849877 -1.32721 0
M  V30 1240 C 116.569 -0.372405 -1.92022 0
M  V30 1241 C 116.949 1.1435 -1.77447 0
M  V30 1242 O 116.297 1.96296 -1.16962 0
M  V30 1243 C 116.507 -0.831482 -3.3895 0
M  V30 1244 C 117.855 -0.845882 -4.16089 0
M  V30 1245 O 118.879 -0.775806 -3.47649 0
M  V30 1246 O 117.738 -0.943753 -5.38289 0
M  V30 1247 H 114.832 -0.107667 -0.819961 0
M  V30 1248 H 117.378 -0.93646 -1.41522 0
M  V30 1249 H 116.15 -1.87448 -3.4348 0
M  V30 1250 H 115.773 -0.24461 -3.96847 0
M  V30 1251 N 116.77 1.45427 -0.607355 0
M  V30 1252 C 118 2.06314 -0.108656 0
M  V30 1253 C 118.408 1.45269 1.21217 0
M  V30 1254 O 117.751 0.561115 1.74921 0
M  V30 1255 C 117.813 3.59345 0.105618 0
M  V30 1256 C 117.477 4.42723 -1.13337 0
M  V30 1257 C 118.474 4.77715 -2.05145 0
M  V30 1258 C 116.159 4.83478 -1.36213 0
M  V30 1259 C 118.153 5.52317 -3.18158 0
M  V30 1260 C 115.84 5.57835 -2.49527 0
M  V30 1261 C 116.838 5.92171 -3.40327 0
M  V30 1262 O 116.526 6.65019 -4.51669 0
M  V30 1263 H 116.258 0.672782 -0.0658842 0
M  V30 1264 H 118.812 1.87664 -0.834945 0
M  V30 1265 H 117.042 3.76394 0.886796 0
M  V30 1266 H 118.731 4.02076 0.555886 0
M  V30 1267 H 119.497 4.46787 -1.88697 0
M  V30 1268 H 115.376 4.56188 -0.664362 0
M  V30 1269 H 118.92 5.79036 -3.89054 0
M  V30 1270 H 114.817 5.88177 -2.65928 0
M  V30 1271 H 115.585 6.83469 -4.50348 0
M  V30 1272 N 118.248 0.346503 1.53744 0
M  V30 1273 C 119.495 -0.249104 2.00962 0
M  V30 1274 C 119.823 -1.5032 1.23426 0
M  V30 1275 O 119.078 -1.93217 0.310761 0
M  V30 1276 C 119.377 -0.605809 3.52228 0
M  V30 1277 C 119.043 0.551747 4.47512 0
M  V30 1278 C 117.705 0.86941 4.73281 0
M  V30 1279 C 120.057 1.32818 5.03993 0
M  V30 1280 C 117.385 1.96582 5.52786 0
M  V30 1281 C 119.737 2.41486 5.84694 0
M  V30 1282 C 118.401 2.73808 6.08757 0
M  V30 1283 H 117.671 -0.0911538 0.735372 0
M  V30 1284 H 120.318 0.475027 1.85515 0
M  V30 1285 H 118.623 -1.4107 3.65522 0
M  V30 1286 H 120.32 -1.07858 3.86222 0
M  V30 1287 H 116.91 0.294102 4.2759 0
M  V30 1288 H 121.094 1.09602 4.84047 0
M  V30 1289 H 116.35 2.22045 5.69654 0
M  V30 1290 H 120.524 3.02078 6.27473 0
M  V30 1291 H 118.151 3.58892 6.7015 0
M  V30 1292 N 119.726 -1.57421 0.075193 0
M  V30 1293 C 120.956 -1.97659 -0.601203 0
M  V30 1294 C 121.364 -0.952427 -1.63479 0
M  V30 1295 O 120.707 0.0688241 -1.83571 0
M  V30 1296 C 120.769 -3.34218 -1.32434 0
M  V30 1297 C 120.433 -4.5484 -0.443826 0
M  V30 1298 C 121.43 -5.19034 0.299969 0
M  V30 1299 C 119.115 -5.00952 -0.367709 0
M  V30 1300 C 121.109 -6.27695 1.10807 0
M  V30 1301 C 118.796 -6.09484 0.444058 0
M  V30 1302 C 119.794 -6.72719 1.18061 0
M  V30 1303 O 119.482 -7.79161 1.97898 0
M  V30 1304 H 119.214 -0.65494 -0.167422 0
M  V30 1305 H 121.768 -2.04886 0.145157 0
M  V30 1306 H 119.998 -3.23615 -2.11685 0
M  V30 1307 H 121.687 -3.59038 -1.89331 0
M  V30 1308 H 122.453 -4.84351 0.250776 0
M  V30 1309 H 118.332 -4.51509 -0.930638 0
M  V30 1310 H 121.876 -6.76982 1.68347 0
M  V30 1311 H 117.773 -6.43601 0.494803 0
M  V30 1312 H 118.541 -7.96055 1.90367 0
M  V30 1313 N 121.204 0.198386 -1.56346 0
M  V30 1314 C 122.615 0.763358 -1.70381 0
M  V30 1315 C 122.966 1.83995 -0.681203 0
M  V30 1316 O 122.091 2.15785 0.16305 0
M  V30 1317 C 122.686 1.39143 -3.08909 0
M  V30 1318 C 121.245 1.90352 -3.2472 0
M  V30 1319 C 120.392 0.772233 -2.6633 0
M  V30 1320 H 123.343 -0.0266377 -1.58678 0
M  V30 1321 H 123.364 2.26076 -3.06055 0
M  V30 1322 H 122.876 0.607638 -3.83314 0
M  V30 1323 H 120.977 2.71461 -2.55225 0
M  V30 1324 H 121.09 2.06757 -4.3219 0
M  V30 1325 H 119.454 1.18566 -2.2542 0
M  V30 1326 H 120.237 0.00073556 -3.433 0
M  V30 1327 N 122.682 1.50554 0.465978 0
M  V30 1328 C 123.629 1.6979 1.56333 0
M  V30 1329 C 124.599 0.539239 1.57103 0
M  V30 1330 O 125.784 0.770401 1.74555 0
M  V30 1331 C 122.924 1.80273 2.94271 0
M  V30 1332 C 122.037 3.07674 3.0325 0
M  V30 1333 C 121.172 3.08922 4.32135 0
M  V30 1334 C 120.211 4.30755 4.34875 0
M  V30 1335 N 119.348 4.29714 5.55239 0
M  V30 1336 H 124.188 2.63472 1.39235 0
M  V30 1337 H 121.725 1.30602 0.676873 0
M  V30 1338 H 123.683 1.84332 3.74269 0
M  V30 1339 H 122.313 0.900258 3.09992 0
M  V30 1340 H 121.365 3.13062 2.16094 0
M  V30 1341 H 122.677 3.97642 3.01135 0
M  V30 1342 H 121.831 3.11738 5.20485 0
M  V30 1343 H 120.57 2.16792 4.36866 0
M  V30 1344 H 119.575 4.28146 3.44922 0
M  V30 1345 H 120.8 5.24117 4.31831 0
M  V30 1346 H 118.746 3.4044 5.60746 0
M  V30 1347 H 118.663 5.13456 5.54886 0
M  V30 1348 H 119.931 4.36683 6.457 0
M  V30 1349 N 124.16 -0.719506 1.40217 0
M  V30 1350 C 125.39 -1.50646 1.41384 0
M  V30 1351 C 125.798 -1.89197 0.0107743 0
M  V30 1352 O 125.141 -1.55709 -0.974708 0
M  V30 1353 C 125.203 -2.81405 2.23722 0
M  V30 1354 C 124.867 -2.65199 3.72181 0
M  V30 1355 C 125.864 -2.32717 4.64907 0
M  V30 1356 C 123.549 -2.81586 4.1595 0
M  V30 1357 C 125.543 -2.16827 5.99387 0
M  V30 1358 C 123.23 -2.65313 5.50502 0
M  V30 1359 C 124.228 -2.32981 6.42035 0
M  V30 1360 O 123.916 -2.16827 7.74107 0
M  V30 1361 H 123.648 -0.471606 0.484318 0
M  V30 1362 H 126.202 -0.895456 1.84853 0
M  V30 1363 H 124.432 -3.44823 1.75026 0
M  V30 1364 H 126.121 -3.43102 2.16878 0
M  V30 1365 H 126.887 -2.19694 4.32388 0
M  V30 1366 H 122.766 -3.0574 3.45027 0
M  V30 1367 H 126.31 -1.91513 6.70797 0
M  V30 1368 H 122.207 -2.7792 5.82607 0
M  V30 1369 H 122.975 -2.31778 7.84998 0
M  V30 1370 N 125.638 -1.25649 -0.95132 0
M  V30 1371 C 126.568 -1.08808 -2.06599 0
M  V30 1372 C 127.549 0.00382547 -1.701 0
M  V30 1373 O 128.734 -0.166325 -1.93486 0
M  V30 1374 C 125.864 -0.709542 -3.39975 0
M  V30 1375 C 124.818 -1.75206 -3.90496 0
M  V30 1376 C 124.144 -1.22811 -5.20405 0
M  V30 1377 C 125.444 -3.15153 -4.16504 0
M  V30 1378 H 127.138 -2.02048 -2.20946 0
M  V30 1379 H 124.684 -0.972835 -1.06169 0
M  V30 1380 H 126.637 -0.578649 -4.17408 0
M  V30 1381 H 125.361 0.258556 -3.25575 0
M  V30 1382 H 124.02 -1.87145 -3.15234 0
M  V30 1383 H 123.668 -0.250145 -5.02378 0
M  V30 1384 H 123.368 -1.92492 -5.55176 0
M  V30 1385 H 124.892 -1.10968 -6.00432 0
M  V30 1386 H 126.306 -3.06349 -4.84586 0
M  V30 1387 H 124.703 -3.82333 -4.62538 0
M  V30 1388 H 125.773 -3.61966 -3.22658 0
M  V30 1389 N 127.117 1.15442 -1.07289 0
M  V30 1390 C 128.363 1.86489 -0.796846 0
M  V30 1391 C 128.696 1.82078 0.675371 0
M  V30 1392 O 127.971 1.24346 1.4956 0
M  V30 1393 C 128.254 3.35626 -1.30489 0
M  V30 1394 C 128.107 3.48673 -2.84161 0
M  V30 1395 C 129.426 4.30357 -0.920907 0
M  V30 1396 H 126.545 0.677144 -0.290939 0
M  V30 1397 H 129.187 1.35633 -1.33056 0
M  V30 1398 H 127.337 3.79068 -0.850883 0
M  V30 1399 H 129.009 3.14099 -3.37846 0
M  V30 1400 H 127.252 2.90253 -3.22391 0
M  V30 1401 H 127.923 4.53453 -3.14777 0
M  V30 1402 H 130.399 3.94871 -1.3121 0
M  V30 1403 H 129.275 5.33193 -1.30372 0
M  V30 1404 H 129.536 4.4176 0.173226 0
M  V30 1405 N 128.595 0.856903 1.32268 0
M  V30 1406 C 129.835 0.467705 1.98977 0
M  V30 1407 C 130.199 -0.959231 1.66321 0
M  V30 1408 O 131.4 -1.4531 2.26138 0
M  V30 1409 C 129.671 0.70256 3.50427 0
M  V30 1410 S 131.23 0.411269 4.36868 0
M  V30 1411 H 128.048 0.175121 0.689096 0
M  V30 1412 H 130.65 1.1101 1.60925 0
M  V30 1413 H 129.354 1.74012 3.71683 0
M  V30 1414 H 128.885 0.0466707 3.93372 0
M  V30 1415 H 130.9 -0.761799 4.90317 0
M  V30 1416 N 130.073 -1.45103 0.615059 0
M  V30 1417 C 131.003 -2.33339 -0.0865619 0
M  V30 1418 C 131.984 -1.4727 -0.851209 0
M  V30 1419 O 133.169 -1.76026 -0.820281 0
M  V30 1420 C 130.299 -3.30095 -1.07956 0
M  V30 1421 C 129.253 -4.25858 -0.427628 0
M  V30 1422 C 128.579 -5.12361 -1.5294 0
M  V30 1423 C 129.879 -5.18165 0.655944 0
M  V30 1424 H 131.573 -2.92254 0.650224 0
M  V30 1425 H 129.119 -1.40532 0.314138 0
M  V30 1426 H 131.072 -3.90698 -1.57901 0
M  V30 1427 H 129.796 -2.69355 -1.84703 0
M  V30 1428 H 128.455 -3.66564 0.0510292 0
M  V30 1429 H 128.103 -4.47984 -2.28734 0
M  V30 1430 H 127.803 -5.77238 -1.09865 0
M  V30 1431 H 129.327 -5.75833 -2.03098 0
M  V30 1432 H 130.741 -5.72796 0.240257 0
M  V30 1433 H 129.138 -5.91559 1.00888 0
M  V30 1434 H 130.208 -4.60144 1.52957 0
M  V30 1435 N 131.551 -0.354651 -1.53558 0
M  V30 1436 C 132.967 -0.00315426 -1.596 0
M  V30 1437 C 133.167 1.47741 -1.37021 0
M  V30 1438 O 132.223 2.23759 -1.16996 0
M  V30 1439 C 133.536 -0.44929 -2.97325 0
M  V30 1440 C 135.084 -0.402578 -3.104 0
M  V30 1441 C 135.559 -0.824355 -4.5052 0
M  V30 1442 N 137.05 -0.778979 -4.56603 0
M  V30 1443 C 137.785 -1.07715 -5.63192 0
M  V30 1444 N 137.281 -1.44405 -6.77583 0
M  V30 1445 N 139.074 -1.00066 -5.53121 0
M  V30 1446 H 131.225 -1.31893 -1.66487 0
M  V30 1447 H 133.488 -0.538388 -0.780284 0
M  V30 1448 H 133.194 -1.48202 -3.1895 0
M  V30 1449 H 133.068 0.169772 -3.76818 0
M  V30 1450 H 135.455 0.621004 -2.88492 0
M  V30 1451 H 135.536 -1.05699 -2.32941 0
M  V30 1452 H 135.18 -1.846 -4.73165 0
M  V30 1453 H 135.11 -0.147304 -5.26394 0
M  V30 1454 H 137.601 -0.508528 -3.74463 0
M  V30 1455 H 137.914 -1.65612 -7.54846 0
M  V30 1456 H 136.259 -1.4826 -6.79002 0
M  V30 1457 H 139.45 -0.713293 -4.62633 0
M  V30 1458 H 139.623 -1.23638 -6.36096 0
M  V30 1459 N 133.029 1.57378 -0.0835403 0
M  V30 1460 C 134.254 1.98682 0.594987 0
M  V30 1461 C 134.679 0.961969 1.61641 0
M  V30 1462 O 134.037 -0.0709989 1.81161 0
M  V30 1463 C 134.085 3.38988 1.2296 0
M  V30 1464 O 133.189 3.39208 2.34546 0
M  V30 1465 H 132.53 0.646368 0.152002 0
M  V30 1466 H 135.06 2.03961 -0.161533 0
M  V30 1467 H 135.07 3.76431 1.57366 0
M  V30 1468 H 133.745 4.13107 0.481228 0
M  V30 1469 H 132.322 3.13548 2.01846 0
M  V30 1470 N 134.507 -0.190092 1.56449 0
M  V30 1471 C 135.754 -0.909705 1.80916 0
M  V30 1472 C 136.082 -1.83047 0.657583 0
M  V30 1473 O 135.337 -1.92428 -0.356356 0
M  V30 1474 C 135.636 -1.75382 3.1141 0
M  V30 1475 C 135.302 -0.983606 4.40041 0
M  V30 1476 C 133.964 -0.770967 4.74984 0
M  V30 1477 C 136.316 -0.442024 5.19322 0
M  V30 1478 C 133.644 -0.0053448 5.867 0
M  V30 1479 C 135.996 0.310412 6.31838 0
M  V30 1480 C 134.66 0.534023 6.6536 0
M  V30 1481 H 133.93 -0.332885 0.662019 0
M  V30 1482 H 136.577 -0.175762 1.90692 0
M  V30 1483 H 134.882 -2.55659 2.96893 0
M  V30 1484 H 136.579 -2.31331 3.27547 0
M  V30 1485 H 133.169 -1.15936 4.12622 0
M  V30 1486 H 137.353 -0.593693 4.92736 0
M  V30 1487 H 132.609 0.177825 6.11141 0
M  V30 1488 H 136.783 0.737419 6.92485 0
M  V30 1489 H 134.41 1.12918 7.51767 0
M  V30 1490 N 135.985 -1.50799 -0.457987 0
M  V30 1491 C 136.917 -1.66786 -1.57211 0
M  V30 1492 C 137.93 -0.548962 -1.53265 0
M  V30 1493 O 139.119 -0.8226 -1.58416 0
M  V30 1494 C 136.219 -1.64834 -2.96113 0
M  V30 1495 C 135.392 -2.92971 -3.24787 0
M  V30 1496 C 134.451 -2.83485 -4.43309 0
M  V30 1497 O 133.477 -3.5744 -4.42973 0
M  V30 1498 N 134.679 -1.97929 -5.45714 0
M  V30 1499 H 137.444 -2.62889 -1.43909 0
M  V30 1500 H 135.005 -1.48427 -0.646617 0
M  V30 1501 H 136.997 -1.56084 -3.7339 0
M  V30 1502 H 135.567 -0.764118 -3.03117 0
M  V30 1503 H 134.787 -3.15749 -2.36 0
M  V30 1504 H 136.075 -3.77834 -3.40762 0
M  V30 1505 H 135.473 -1.37182 -5.48815 0
M  V30 1506 H 134.03 -1.95073 -6.21924 0
M  V30 1507 N 137.463 0.71206 -1.40597 0
M  V30 1508 C 138.691 1.50111 -1.42388 0
M  V30 1509 C 139.106 1.88784 -0.0245395 0
M  V30 1510 O 138.463 1.55681 0.952351 0
M  V30 1511 C 138.514 2.7742 -2.31776 0
M  V30 1512 O 138.235 2.40382 -3.66262 0
M  V30 1513 C 139.736 3.7129 -2.42196 0
M  V30 1514 H 136.956 0.46314 -0.485533 0
M  V30 1515 H 139.5 0.878068 -1.8469 0
M  V30 1516 H 137.655 3.36001 -1.92827 0
M  V30 1517 H 138.069 3.22324 -4.13772 0
M  V30 1518 H 139.543 4.57448 -3.08943 0
M  V30 1519 H 140.02 4.14641 -1.44809 0
M  V30 1520 H 140.626 3.18619 -2.81712 0
M  V30 1521 N 138.941 1.26152 0.944643 0
M  V30 1522 C 140.189 1.11271 1.6871 0
M  V30 1523 C 140.51 -0.345166 1.91921 0
M  V30 1524 O 139.78 -1.24387 1.51343 0
M  V30 1525 H 138.36 0.408783 0.625224 0
M  V30 1526 H 141.022 1.58427 1.1352 0
M  V30 1527 H 140.118 1.62879 2.66227 0
M  V30 1528 N 140.419 -1.14872 1.07899 0
M  V30 1529 C 141.349 -2.2193 0.725887 0
M  V30 1530 C 142.33 -1.67622 -0.28927 0
M  V30 1531 O 143.515 -1.93533 -0.160787 0
M  V30 1532 C 140.645 -3.47061 0.128856 0
M  V30 1533 C 139.599 -4.14363 1.07178 0
M  V30 1534 C 138.925 -5.33636 0.337229 0
M  V30 1535 C 140.225 -4.63492 2.40775 0
M  V30 1536 H 141.919 -2.51724 1.62097 0
M  V30 1537 H 139.465 -1.20991 0.780838 0
M  V30 1538 H 141.418 -4.21199 -0.130147 0
M  V30 1539 H 140.142 -3.16617 -0.80134 0
M  V30 1540 H 138.801 -3.42173 1.3158 0
M  V30 1541 H 138.449 -4.99449 -0.596606 0
M  V30 1542 H 138.149 -5.79609 0.965788 0
M  V30 1543 H 139.673 -6.10539 0.0861567 0
M  V30 1544 H 141.087 -5.2913 2.20669 0
M  V30 1545 H 139.484 -5.20148 2.99276 0
M  V30 1546 H 140.554 -3.78834 3.02676 0
M  V30 1547 N 141.898 -0.863906 -1.31812 0
M  V30 1548 C 143.145 -0.471836 -1.96926 0
M  V30 1549 C 143.473 0.974578 -1.68322 0
M  V30 1550 O 142.728 1.7003 -0.968933 0
M  V30 1551 C 143.027 -0.668547 -3.51091 0
M  V30 1552 C 142.693 -2.08683 -3.99703 0
M  V30 1553 C 141.355 -2.47471 -4.12688 0
M  V30 1554 C 143.707 -3.01207 -4.25351 0
M  V30 1555 C 141.035 -3.78037 -4.4867 0
M  V30 1556 C 143.387 -4.31282 -4.62794 0
M  V30 1557 C 142.051 -4.69992 -4.73987 0
M  V30 1558 H 141.321 -0.172657 -0.720604 0
M  V30 1559 H 143.968 -1.09573 -1.57054 0
M  V30 1560 H 142.273 0.0385252 -3.91781 0
M  V30 1561 H 143.97 -0.345102 -3.99512 0
M  V30 1562 H 140.56 -1.77566 -3.90087 0
M  V30 1563 H 144.744 -2.72469 -4.14819 0
M  V30 1564 H 140 -4.078 -4.55532 0
M  V30 1565 H 144.174 -5.03031 -4.81594 0
M  V30 1566 H 141.801 -5.71207 -5.01624 0
M  V30 1567 N 143.376 1.44774 -0.622745 0
M  V30 1568 C 144.604 2.06487 -0.130722 0
M  V30 1569 C 145.019 1.46476 1.19123 0
M  V30 1570 O 144.376 0.584502 1.72887 0
M  V30 1571 C 144.427 3.615 -0.000807207 0
M  V30 1572 O 144.148 4.19274 -1.27048 0
M  V30 1573 C 145.649 4.40229 0.520898 0
M  V30 1574 H 142.869 0.666704 -0.0758106 0
M  V30 1575 H 145.413 1.85779 -0.854774 0
M  V30 1576 H 143.568 3.81498 0.673643 0
M  V30 1577 H 143.982 5.12622 -1.1099 0
M  V30 1578 H 145.456 5.49144 0.560838 0
M  V30 1579 H 145.933 4.1108 1.54627 0
M  V30 1580 H 146.539 4.25131 -0.120018 0
M  V30 1581 N 144.854 0.36279 1.53368 0
M  V30 1582 C 145.817 -0.472679 2.24273 0
M  V30 1583 C 146.817 -1.012 1.24961 0
M  V30 1584 O 148.007 -0.898194 1.49259 0
M  V30 1585 C 145.139 -1.66039 2.97731 0
M  V30 1586 H 146.332 0.14773 2.99536 0
M  V30 1587 H 143.885 0.114434 1.55881 0
M  V30 1588 H 144.62 -2.31896 2.26704 0
M  V30 1589 H 144.405 -1.28066 3.70596 0
M  V30 1590 H 145.895 -2.25252 3.51641 0
M  V30 1591 N 146.332 -1.57332 0.0918853 0
M  V30 1592 C 147.295 -2.12708 -0.85369 0
M  V30 1593 C 148.295 -1.05561 -1.213 0
M  V30 1594 O 149.485 -1.31461 -1.14296 0
M  V30 1595 C 146.617 -2.64503 -2.15061 0
M  V30 1596 H 147.81 -2.97573 -0.3729 0
M  V30 1597 H 145.363 -1.55509 -0.157072 0
M  V30 1598 H 146.098 -1.83149 -2.67632 0
M  V30 1599 H 145.883 -3.4284 -1.90272 0
M  V30 1600 H 147.373 -3.07351 -2.82711 0
M  V30 1601 N 147.81 0.181792 -1.56548 0
M  V30 1602 C 149.226 0.53316 -1.50431 0
M  V30 1603 C 149.426 1.85184 -0.794297 0
M  V30 1604 O 148.482 2.50058 -0.350318 0
M  V30 1605 C 149.795 0.575597 -2.9514 0
M  V30 1606 C 151.343 0.663519 -3.05886 0
M  V30 1607 C 151.818 0.736946 -4.52032 0
M  V30 1608 N 153.309 0.800118 -4.56237 0
M  V30 1609 C 154.044 0.877327 -5.66649 0
M  V30 1610 N 153.54 0.916016 -6.86718 0
M  V30 1611 N 155.333 0.915542 -5.54594 0
M  V30 1612 H 147.484 -0.683025 -2.01118 0
M  V30 1613 H 149.747 -0.244988 -0.915797 0
M  V30 1614 H 149.453 -0.324482 -3.502 0
M  V30 1615 H 149.327 1.42572 -3.49218 0
M  V30 1616 H 151.714 1.55403 -2.50867 0
M  V30 1617 H 151.795 -0.21307 -2.54911 0
M  V30 1618 H 151.439 -0.149262 -5.07681 0
M  V30 1619 H 151.369 1.62953 -5.00753 0
M  V30 1620 H 153.86 0.778926 -3.69785 0
M  V30 1621 H 154.173 0.975813 -7.66614 0
M  V30 1622 H 152.518 0.884469 -6.89349 0
M  V30 1623 H 155.709 0.882245 -4.59711 0
M  V30 1624 H 155.882 0.972253 -6.40665 0
M  V30 1625 N 149.288 1.51039 0.449983 0
M  V30 1626 C 150.22 1.67617 1.56324 0
M  V30 1627 C 151.233 0.557083 1.52972 0
M  V30 1628 O 152.422 0.830989 1.57977 0
M  V30 1629 C 149.522 1.66402 2.95235 0
M  V30 1630 C 148.695 2.9469 3.23229 0
M  V30 1631 C 147.754 2.85832 4.41799 0
M  V30 1632 O 146.78 3.59785 4.41071 0
M  V30 1633 N 147.982 2.00821 5.44657 0
M  V30 1634 H 150.747 2.63648 1.42512 0
M  V30 1635 H 148.308 1.48767 0.638737 0
M  V30 1636 H 150.3 1.58062 3.72557 0
M  V30 1637 H 148.87 0.780182 3.02708 0
M  V30 1638 H 148.09 3.16996 2.34323 0
M  V30 1639 H 149.378 3.79636 3.38754 0
M  V30 1640 H 148.776 1.40091 5.48079 0
M  V30 1641 H 147.333 1.98368 6.20881 0
M  V30 1642 N 150.766 -0.704594 1.40972 0
M  V30 1643 C 151.991 -1.49858 1.43378 0
M  V30 1644 C 152.416 -1.88061 0.038184 0
M  V30 1645 O 151.774 -1.5402 -0.956425 0
M  V30 1646 C 151.822 -2.74333 2.34038 0
M  V30 1647 O 150.926 -3.7147 1.7912 0
M  V30 1648 H 150.267 -0.45139 0.486974 0
M  V30 1649 H 152.797 -0.866832 1.8533 0
M  V30 1650 H 152.807 -3.22741 2.49604 0
M  V30 1651 H 151.482 -2.45863 3.35446 0
M  V30 1652 H 150.059 -3.30363 1.72958 0
M  V30 1653 N 152.244 -1.26651 -0.937939 0
M  V30 1654 C 153.472 -1.15173 -1.7188 0
M  V30 1655 C 153.887 0.292668 -1.86518 0
M  V30 1656 O 153.244 1.20014 -1.37488 0
M  V30 1657 C 153.295 -1.81925 -3.12387 0
M  V30 1658 O 153.016 -3.2072 -2.98446 0
M  V30 1659 C 154.517 -1.76442 -4.06673 0
M  V30 1660 H 151.737 -0.400911 -0.538063 0
M  V30 1661 H 154.281 -1.67332 -1.1756 0
M  V30 1662 H 152.436 -1.33696 -3.63599 0
M  V30 1663 H 152.85 -3.53802 -3.872 0
M  V30 1664 H 154.324 -2.27781 -5.02812 0
M  V30 1665 H 154.801 -0.731608 -4.33064 0
M  V30 1666 H 155.407 -2.24238 -3.61382 0
M  V30 1667 N 153.722 1.14298 -1.08507 0
M  V30 1668 C 154.67 2.21483 -0.710483 0
M  V30 1669 C 155.664 1.66998 0.284234 0
M  V30 1670 O 156.87 1.79401 0.146692 0
M  V30 1671 H 153.245 0.721578 -0.211729 0
M  V30 1672 H 155.216 2.50348 -1.62384 0
M  V30 1673 C 153.965 3.4743 -0.137007 0
M  V30 1674 H 153.288 3.89686 -0.893592 0
M  V30 1675 H 154.728 4.2391 0.0872789 0
M  V30 1676 C 153.187 3.17548 1.12538 0
M  V30 1677 O 153.717 3.35437 2.21009 0
M  V30 1678 N 151.923 2.71499 1.03617 0
M  V30 1679 H 151.47 2.57143 0.153403 0
M  V30 1680 H 151.428 2.51881 1.88158 0
M  V30 1681 N 155.201 0.870884 1.31352 0
M  V30 1682 C 156.164 0.332243 2.26779 0
M  V30 1683 C 157.164 -0.517302 1.52252 0
M  V30 1684 O 158.354 -0.326477 1.71113 0
M  V30 1685 C 155.486 -0.528066 3.36785 0
M  V30 1686 H 156.679 1.17469 2.75937 0
M  V30 1687 H 154.232 0.64655 1.423 0
M  V30 1688 H 154.967 -1.39167 2.92922 0
M  V30 1689 H 154.752 0.0802582 3.92018 0
M  V30 1690 H 156.242 -0.897179 4.07849 0
M  V30 1691 N 156.679 -1.44442 0.630414 0
M  V30 1692 C 157.909 -2.06115 0.141465 0
M  V30 1693 C 158.317 -1.47179 -1.1889 0
M  V30 1694 O 157.66 -0.588873 -1.74006 0
M  V30 1695 C 157.722 -3.59467 -0.0484355 0
M  V30 1696 C 157.386 -4.40864 1.20366 0
M  V30 1697 C 158.383 -4.74391 2.12719 0
M  V30 1698 C 156.068 -4.8125 1.43887 0
M  V30 1699 C 158.062 -5.47186 3.26904 0
M  V30 1700 C 155.749 -5.53795 2.5837 0
M  V30 1701 C 156.747 -5.86682 3.49705 0
M  V30 1702 O 156.435 -6.57749 4.62191 0
M  V30 1703 H 156.167 -0.671648 0.0765792 0
M  V30 1704 H 158.721 -1.86312 0.864695 0
M  V30 1705 H 156.951 -3.77758 -0.826803 0
M  V30 1706 H 158.64 -4.02909 -0.491849 0
M  V30 1707 H 159.406 -4.43728 1.95781 0
M  V30 1708 H 155.285 -4.55073 0.736853 0
M  V30 1709 H 158.829 -5.72773 3.98217 0
M  V30 1710 H 154.726 -5.83872 2.75251 0
M  V30 1711 H 155.494 -6.76217 4.61164 0
M  V30 1712 N 158.157 -0.370918 -1.53173 0
M  V30 1713 C 159.568 0.107139 -1.86392 0
M  V30 1714 C 159.919 1.47714 -1.29132 0
M  V30 1715 O 159.044 2.07464 -0.615439 0
M  V30 1716 C 159.639 0.201187 -3.38202 0
M  V30 1717 C 158.198 0.623507 -3.712 0
M  V30 1718 C 157.345 -0.225978 -2.76378 0
M  V30 1719 H 160.296 -0.58951 -1.47345 0
M  V30 1720 H 160.317 1.02377 -3.66468 0
M  V30 1721 H 159.829 -0.796058 -3.79848 0
M  V30 1722 H 157.93 1.62879 -3.35114 0
M  V30 1723 H 158.043 0.394414 -4.77474 0
M  V30 1724 H 156.407 0.305962 -2.52856 0
M  V30 1725 H 157.19 -1.22086 -3.20858 0
M  V30 1726 N 159.635 1.57281 -0.100228 0
M  V30 1727 C 160.912 1.86014 0.604812 0
M  V30 1728 C 161.292 0.998025 1.86018 0
M  V30 1729 O 160.64 0.0718184 2.28387 0
M  V30 1730 C 160.85 3.36784 0.915278 0
M  V30 1731 C 162.198 4.04957 1.27651 0
M  V30 1732 O 163.222 3.41695 1.00613 0
M  V30 1733 O 162.081 5.16593 1.7831 0
M  V30 1734 H 159.175 0.76942 0.303185 0
M  V30 1735 H 161.721 1.69176 -0.133313 0
M  V30 1736 H 160.493 3.91292 0.0248896 0
M  V30 1737 H 160.116 3.58987 1.70921 0
M  V30 1738 N 161.113 -0.173488 1.56642 0
M  V30 1739 C 162.043 -1.2171 1.99271 0
M  V30 1740 C 163.024 -1.46289 0.867959 0
M  V30 1741 O 164.209 -1.5766 1.13388 0
M  V30 1742 C 161.339 -2.55651 2.35074 0
M  V30 1743 C 160.293 -2.45645 3.50489 0
M  V30 1744 C 159.619 -3.84056 3.72028 0
M  V30 1745 C 160.919 -1.96302 4.84007 0
M  V30 1746 H 162.613 -0.86275 2.867 0
M  V30 1747 H 160.159 -0.413571 1.37933 0
M  V30 1748 H 162.112 -3.2886 2.63494 0
M  V30 1749 H 160.836 -2.92869 1.44552 0
M  V30 1750 H 159.495 -1.7489 3.22194 0
M  V30 1751 H 159.143 -4.18664 2.788 0
M  V30 1752 H 158.843 -3.7823 4.49684 0
M  V30 1753 H 160.367 -4.58854 4.02846 0
M  V30 1754 H 161.781 -2.59284 5.11317 0
M  V30 1755 H 160.178 -2.01429 5.65284 0
M  V30 1756 H 161.248 -0.917226 4.76146 0
M  V30 1757 N 162.591 -1.51276 -0.441967 0
M  V30 1758 C 164.007 -1.39349 -0.778083 0
M  V30 1759 C 164.207 -0.472212 -1.95889 0
M  V30 1760 O 163.263 0.0743551 -2.5239 0
M  V30 1761 C 164.576 -2.81292 -1.0628 0
M  V30 1762 C 166.124 -2.9041 -1.16751 0
M  V30 1763 C 166.599 -4.33251 -1.48519 0
M  V30 1764 N 168.09 -4.36336 -1.55453 0
M  V30 1765 C 168.825 -5.43885 -1.81596 0
M  V30 1766 N 168.321 -6.61601 -2.05562 0
M  V30 1767 N 170.114 -5.3136 -1.8334 0
M  V30 1768 H 162.265 -2.09729 0.335774 0
M  V30 1769 H 164.528 -0.943925 0.0878028 0
M  V30 1770 H 164.234 -3.50678 -0.267905 0
M  V30 1771 H 164.108 -3.20334 -1.99163 0
M  V30 1772 H 166.495 -2.21225 -1.95304 0
M  V30 1773 H 166.576 -2.54871 -0.217801 0
M  V30 1774 H 166.22 -5.02984 -0.704958 0
M  V30 1775 H 166.15 -4.66299 -2.44689 0
M  V30 1776 H 168.641 -3.51466 -1.38853 0
M  V30 1777 H 168.954 -7.39361 -2.24867 0
M  V30 1778 H 167.299 -6.64725 -2.02894 0
M  V30 1779 H 170.49 -4.38382 -1.64132 0
M  V30 1780 H 170.663 -6.15258 -2.03377 0
M  V30 1781 N 164.069 0.697108 -1.41344 0
M  V30 1782 C 165.294 1.49096 -1.44171 0
M  V30 1783 C 165.719 1.88038 -0.0481568 0
M  V30 1784 O 165.077 1.54525 0.948243 0
M  V30 1785 C 165.125 2.73088 -2.3549 0
M  V30 1786 O 164.229 3.70514 -1.81088 0
M  V30 1787 H 163.57 0.448801 -0.489361 0
M  V30 1788 H 166.1 0.856992 -1.85787 0
M  V30 1789 H 166.11 3.21413 -2.51312 0
M  V30 1790 H 164.785 2.44081 -3.36745 0
M  V30 1791 H 163.362 3.29441 -1.74708 0
M  V30 1792 N 165.547 1.27147 0.931209 0
M  V30 1793 C 166.787 1.14511 1.69312 0
M  V30 1794 C 167.151 -0.304638 1.89568 0
M  V30 1795 O 168.352 -0.553343 2.63043 0
M  V30 1796 C 166.623 1.90349 3.02493 0
M  V30 1797 S 168.182 1.93884 3.93642 0
M  V30 1798 H 165 0.408858 0.581684 0
M  V30 1799 H 167.602 1.61006 1.10893 0
M  V30 1800 H 166.306 2.94877 2.85439 0
M  V30 1801 H 165.837 1.44333 3.65966 0
M  V30 1802 H 167.852 1.03273 4.85334 0
M  V30 1803 N 167.025 -1.13721 1.09112 0
M  V30 1804 C 168.271 -1.85198 0.826414 0
M  V30 1805 C 168.604 -1.83129 -0.646319 0
M  V30 1806 O 167.879 -1.2671 -1.47563 0
M  V30 1807 C 168.162 -3.33507 1.35812 0
M  V30 1808 C 168.015 -3.44108 2.89672 0
M  V30 1809 C 169.334 -4.28838 0.989256 0
M  V30 1810 H 166.453 -0.67243 0.301675 0
M  V30 1811 H 169.095 -1.33499 1.35197 0
M  V30 1812 H 167.245 -3.77666 0.911082 0
M  V30 1813 H 168.917 -3.08684 3.428 0
M  V30 1814 H 167.16 -2.85087 3.26967 0
M  V30 1815 H 167.831 -4.48388 3.21951 0
M  V30 1816 H 170.307 -3.92734 1.37475 0
M  V30 1817 H 169.183 -5.31051 1.38838 0
M  V30 1818 H 169.444 -4.4198 -0.102924 0
M  V30 1819 N 168.503 -0.877838 -1.30888 0
M  V30 1820 C 169.451 -0.328662 -2.30266 0
M  V30 1821 C 170.445 0.560496 -1.59859 0
M  V30 1822 O 171.651 0.445722 -1.74394 0
M  V30 1823 H 168.026 -0.0876142 -0.746879 0
M  V30 1824 H 169.997 -1.18061 -2.74051 0
M  V30 1825 C 168.746 0.448071 -3.44801 0
M  V30 1826 H 168.069 -0.226859 -3.99156 0
M  V30 1827 H 169.509 0.797541 -4.16432 0
M  V30 1828 C 167.968 1.64239 -2.94155 0
M  V30 1829 O 168.498 2.74175 -2.93583 0
M  V30 1830 N 166.704 1.47716 -2.50256 0
M  V30 1831 H 166.251 0.582821 -2.5092 0
M  V30 1832 H 166.209 2.27765 -2.16727 0
M  V30 1833 N 169.982 1.44106 -0.638065 0
M  V30 1834 C 170.945 2.29138 0.0531013 0
M  V30 1835 C 171.945 1.41409 0.765506 0
M  V30 1836 O 173.135 1.63206 0.609046 0
M  V30 1837 C 170.267 3.23144 1.08584 0
M  V30 1838 H 171.46 2.91739 -0.694883 0
M  V30 1839 H 169.013 1.51134 -0.398538 0
M  V30 1840 H 169.748 2.65408 1.86357 0
M  V30 1841 H 169.533 3.87804 0.578852 0
M  V30 1842 H 171.023 3.87004 1.56899 0
M  V30 1843 N 171.46 0.379036 1.52974 0
M  V30 1844 C 172.709 -0.207612 2.00629 0
M  V30 1845 C 173.022 -1.48758 1.27006 0
M  V30 1846 O 174.228 -2.15365 1.65318 0
M  V30 1847 C 172.684 -0.42053 3.57435 0
M  V30 1848 C 172.292 0.845587 4.39948 0
M  V30 1849 C 174.036 -0.964102 4.13407 0
M  V30 1850 C 171.943 0.601513 5.88333 0
M  V30 1851 H 170.873 -0.0813591 0.749598 0
M  V30 1852 H 173.524 0.499853 1.76561 0
M  V30 1853 H 171.906 -1.18959 3.7771 0
M  V30 1854 H 173.08 1.61848 4.31442 0
M  V30 1855 H 171.395 1.31336 3.95145 0
M  V30 1856 H 173.992 -1.16225 5.21916 0
M  V30 1857 H 174.335 -1.93019 3.68849 0
M  V30 1858 H 174.868 -0.25487 3.96983 0
M  V30 1859 H 171.607 1.53831 6.37194 0
M  V30 1860 H 171.127 -0.132628 5.99653 0
M  V30 1861 H 172.806 0.232134 6.46583 0
M  V30 1862 N 172.938 -1.57226 0.108567 0
M  V30 1863 C 174.349 -1.8195 -0.418464 0
M  V30 1864 C 174.7 -1.02508 -1.67292 0
M  V30 1865 O 173.825 -0.258496 -2.14851 0
M  V30 1866 C 174.42 -3.30028 -0.765979 0
M  V30 1867 C 172.979 -3.55469 -1.23769 0
M  V30 1868 C 172.126 -2.7625 -0.241106 0
M  V30 1869 H 175.077 -1.55149 0.33384 0
M  V30 1870 H 175.098 -3.44086 -1.62434 0
M  V30 1871 H 174.61 -3.87821 0.147219 0
M  V30 1872 H 172.711 -3.03022 -2.16814 0
M  V30 1873 H 172.824 -4.6408 -1.19022 0
M  V30 1874 H 171.188 -2.44133 -0.72602 0
M  V30 1875 H 171.971 -3.36797 0.665007 0
M  V30 1876 N 174.416 0.165178 -1.56732 0
M  V30 1877 C 175.693 0.908443 -1.73224 0
M  V30 1878 C 176.073 2.0013 -0.67165 0
M  V30 1879 O 175.421 2.26353 0.31253 0
M  V30 1880 C 175.631 1.46756 -3.16644 0
M  V30 1881 C 176.979 1.93809 -3.77787 0
M  V30 1882 O 178.003 1.56537 -3.1996 0
M  V30 1883 O 176.862 2.62486 -4.79336 0
M  V30 1884 H 173.956 0.428025 -0.707618 0
M  V30 1885 H 176.502 0.152526 -1.69013 0
M  V30 1886 H 175.274 0.68129 -3.85323 0
M  V30 1887 H 174.897 2.28749 -3.25207 0
M  V30 1888 N 175.894 1.51508 0.433938 0
M  V30 1889 C 176.826 1.69266 1.54537 0
M  V30 1890 C 177.839 0.573276 1.52373 0
M  V30 1891 O 179.028 0.847698 1.57087 0
M  V30 1892 C 176.128 1.69524 2.93453 0
M  V30 1893 C 175.301 2.98101 3.20085 0
M  V30 1894 C 174.36 2.90502 4.38742 0
M  V30 1895 O 173.386 3.64442 4.3723 0
M  V30 1896 N 174.588 2.06586 5.42496 0
M  V30 1897 H 177.353 2.65145 1.39708 0
M  V30 1898 H 174.914 1.49437 0.622922 0
M  V30 1899 H 176.906 1.62004 3.70859 0
M  V30 1900 H 175.476 0.812245 3.01863 0
M  V30 1901 H 174.696 3.19464 2.30947 0
M  V30 1902 H 175.984 3.83207 3.34708 0
M  V30 1903 H 175.382 1.45896 5.46563 0
M  V30 1904 H 173.939 2.04943 6.18742 0
M  V30 1905 N 177.372 -0.689602 1.41712 0
M  V30 1906 C 178.612 -1.46184 1.42862 0
M  V30 1907 C 178.976 -1.91962 0.0382204 0
M  V30 1908 O 180.177 -2.68694 -0.0755019 0
M  V30 1909 C 178.448 -2.6371 2.4123 0
M  V30 1910 S 180.007 -3.52768 2.6096 0
M  V30 1911 H 176.825 -0.49947 0.506015 0
M  V30 1912 H 179.427 -0.804107 1.78198 0
M  V30 1913 H 178.131 -2.28293 3.41044 0
M  V30 1914 H 177.662 -3.3437 2.07269 0
M  V30 1915 H 179.677 -4.59146 1.88148 0
M  V30 1916 N 178.85 -1.27639 -0.924453 0
M  V30 1917 C 180.075 -1.17101 -1.71179 0
M  V30 1918 C 180.5 0.268134 -1.86179 0
M  V30 1919 O 179.858 1.19415 -1.36418 0
M  V30 1920 C 179.906 -1.86313 -3.08739 0
M  V30 1921 O 179.01 -1.16331 -3.95652 0
M  V30 1922 H 178.351 -0.407091 -0.524569 0
M  V30 1923 H 180.881 -1.68767 -1.15666 0
M  V30 1924 H 180.891 -1.938 -3.59034 0
M  V30 1925 H 179.566 -2.91001 -2.97138 0
M  V30 1926 H 178.143 -1.16935 -3.54091 0
M  V30 1927 N 180.328 1.1314 -1.09713 0
M  V30 1928 C 181.739 1.66029 -0.853885 0
M  V30 1929 C 182.09 1.86241 0.617142 0
M  V30 1930 O 181.215 1.5834 1.47503 0
M  V30 1931 C 181.81 3.01599 -1.5435 0
M  V30 1932 C 180.369 3.51467 -1.34714 0
M  V30 1933 C 179.516 2.26648 -1.59769 0
M  V30 1934 H 182.467 0.970226 -1.25588 0
M  V30 1935 H 182.488 3.67709 -0.978267 0
M  V30 1936 H 182 2.86856 -2.6141 0
M  V30 1937 H 180.101 3.71408 -0.297838 0
M  V30 1938 H 180.214 4.314 -2.08401 0
M  V30 1939 H 178.578 2.33385 -1.01998 0
M  V30 1940 H 179.361 2.14467 -2.68065 0
M  V30 1941 N 181.806 0.884767 1.30421 0
M  V30 1942 C 182.736 0.367574 2.30589 0
M  V30 1943 C 183.717 -0.549464 1.60981 0
M  V30 1944 O 184.902 -0.46336 1.88591 0
M  V30 1945 C 182.032 -0.418944 3.44764 0
M  V30 1946 C 180.986 0.406316 4.26067 0
M  V30 1947 C 180.312 -0.506793 5.32293 0
M  V30 1948 C 181.612 1.64832 4.95608 0
M  V30 1949 H 183.306 1.20462 2.74097 0
M  V30 1950 H 180.852 0.580695 1.31772 0
M  V30 1951 H 182.805 -0.791395 4.13902 0
M  V30 1952 H 181.529 -1.28964 3.0006 0
M  V30 1953 H 180.188 0.760903 3.58617 0
M  V30 1954 H 179.836 -1.37519 4.83836 0
M  V30 1955 H 179.536 0.0415828 5.87585 0
M  V30 1956 H 181.06 -0.875764 6.04287 0
M  V30 1957 H 182.474 1.34646 5.57264 0
M  V30 1958 H 180.871 2.13688 5.60765 0
M  V30 1959 H 181.941 2.39284 4.21748 0
M  V30 1960 N 183.284 -1.43765 0.645699 0
M  V30 1961 C 184.695 -1.85193 0.236719 0
M  V30 1962 C 185.046 -1.54045 -1.21509 0
M  V30 1963 O 184.171 -0.985694 -1.92647 0
M  V30 1964 C 184.766 -3.36151 0.422845 0
M  V30 1965 C 183.325 -3.76338 0.0682492 0
M  V30 1966 C 182.472 -2.67538 0.729306 0
M  V30 1967 H 185.423 -1.34025 0.849883 0
M  V30 1968 H 185.444 -3.79032 -0.333904 0
M  V30 1969 H 184.956 -3.5879 1.47958 0
M  V30 1970 H 183.057 -3.59312 -0.986179 0
M  V30 1971 H 183.17 -4.76603 0.488469 0
M  V30 1972 H 181.534 -2.54176 0.163235 0
M  V30 1973 H 182.317 -2.93006 1.78892 0
M  V30 1974 N 184.763 -0.387143 -1.52771 0
M  V30 1975 C 186.003 0.195537 -2.03463 0
M  V30 1976 C 186.367 1.44222 -1.26744 0
M  V30 1977 O 187.568 2.10192 -1.67549 0
M  V30 1978 C 185.839 0.459097 -3.54439 0
M  V30 1979 S 187.398 1.01237 -4.26962 0
M  V30 1980 H 184.216 0.0552675 -0.708849 0
M  V30 1981 H 186.818 -0.534992 -1.88037 0
M  V30 1982 H 185.522 -0.455382 -4.07866 0
M  V30 1983 H 185.053 1.21811 -3.74066 0
M  V30 1984 H 187.068 2.29492 -4.39941 0
M  V30 1985 N 186.241 1.57166 -0.116904 0
M  V30 1986 C 187.189 2.16457 0.851418 0
M  V30 1987 C 188.183 1.11323 1.27686 0
M  V30 1988 O 189.389 1.2963 1.24884 0
M  V30 1989 H 185.764 0.69271 0.292672 0
M  V30 1990 H 187.735 2.96605 0.32685 0
M  V30 1991 C 186.484 2.77689 2.09246 0
M  V30 1992 H 185.807 3.58285 1.77402 0
M  V30 1993 H 187.247 3.22716 2.7501 0
M  V30 1994 C 185.706 1.74667 2.88085 0
M  V30 1995 O 186.236 1.19877 3.83396 0
M  V30 1996 N 184.442 1.44656 2.52038 0
M  V30 1997 H 183.989 1.89402 1.74599 0
M  V30 1998 H 183.947 0.759675 3.05084 0
M  V30 1999 N 187.719 -0.156864 1.56817 0
M  V30 2000 C 188.629 -1.2136 2.00771 0
M  V30 2001 C 189.645 -1.47598 0.921459 0
M  V30 2002 O 190.821 -1.59462 1.2302 0
M  V30 2003 C 187.886 -2.52943 2.37109 0
M  V30 2004 C 186.947 -2.34439 3.59634 0
M  V30 2005 C 186.18 -3.59748 3.94229 0
M  V30 2006 O 186.403 -4.65526 3.29609 0
M  V30 2007 O 185.337 -3.52998 4.8752 0
M  V30 2008 H 189.163 -0.870468 2.90958 0
M  V30 2009 H 186.748 -0.36484 1.44877 0
M  V30 2010 H 188.63 -3.30538 2.61386 0
M  V30 2011 H 187.305 -2.86806 1.5008 0
M  V30 2012 H 186.212 -1.54828 3.40557 0
M  V30 2013 H 187.545 -2.05496 4.4725 0
M  V30 2014 N 189.197 -1.51736 -0.425897 0
M  V30 2015 C 190.474 -1.55519 -1.1863 0
M  V30 2016 C 190.854 -0.326219 -2.08564 0
M  V30 2017 O 190.202 0.688012 -2.17896 0
M  V30 2018 C 190.412 -2.87521 -1.9782 0
M  V30 2019 C 191.76 -3.39899 -2.54468 0
M  V30 2020 O 192.784 -2.89148 -2.08019 0
M  V30 2021 O 191.643 -4.2848 -3.39215 0
M  V30 2022 H 188.737 -0.625739 -0.540721 0
M  V30 2023 H 191.283 -1.64055 -0.434038 0
M  V30 2024 H 190.055 -3.68422 -1.31836 0
M  V30 2025 H 189.678 -2.822 -2.80088 0
M  V30 2026 N 190.675 0.682077 -1.42076 0
M  V30 2027 C 191.923 1.4393 -1.41876 0
M  V30 2028 C 192.244 1.94971 -0.0335599 0
M  V30 2029 O 191.514 1.72591 0.926773 0
M  V30 2030 H 190.094 0.534085 -0.522267 0
M  V30 2031 H 192.756 0.806427 -1.77434 0
M  V30 2032 H 191.852 2.29588 -2.11414 0
M  V30 2033 N 192.153 1.28127 0.917671 0
M  V30 2034 C 193.383 1.17722 1.6978 0
M  V30 2035 C 193.791 -0.267261 1.87303 0
M  V30 2036 O 193.134 -1.19286 1.39702 0
M  V30 2037 C 193.196 1.79958 3.11216 0
M  V30 2038 C 192.86 3.29187 3.16993 0
M  V30 2039 C 193.857 4.25679 2.98485 0
M  V30 2040 C 191.542 3.70075 3.39632 0
M  V30 2041 C 193.536 5.61035 3.02521 0
M  V30 2042 C 191.223 5.05557 3.433 0
M  V30 2043 C 192.221 6.00847 3.24764 0
M  V30 2044 O 191.909 7.33859 3.28187 0
M  V30 2045 H 191.641 0.409788 0.537634 0
M  V30 2046 H 194.195 1.69694 1.15728 0
M  V30 2047 H 192.425 1.22475 3.66793 0
M  V30 2048 H 194.114 1.64125 3.71238 0
M  V30 2049 H 194.88 3.95426 2.80826 0
M  V30 2050 H 190.759 2.96373 3.53106 0
M  V30 2051 H 194.303 6.35388 2.87971 0
M  V30 2052 H 190.2 5.35462 3.60486 0
M  V30 2053 H 190.968 7.42436 3.44575 0
M  V30 2054 N 193.631 -1.12557 1.10312 0
M  V30 2055 C 194.564 -2.1737 0.694674 0
M  V30 2056 C 195.542 -1.59745 -0.303373 0
M  V30 2057 O 196.726 -1.87408 -0.202578 0
M  V30 2058 C 193.853 -3.38691 0.0248052 0
M  V30 2059 C 192.899 -4.14943 0.986121 0
M  V30 2060 S 193.732 -4.73413 2.50281 0
M  V30 2061 C 194.888 -5.9807 1.84562 0
M  V30 2062 H 195.121 -2.5168 1.58255 0
M  V30 2063 H 192.654 -1.23998 0.919992 0
M  V30 2064 H 194.612 -4.08959 -0.355361 0
M  V30 2065 H 193.273 -3.02664 -0.839851 0
M  V30 2066 H 192.466 -5.01854 0.464651 0
M  V30 2067 H 192.068 -3.50377 1.30813 0
M  V30 2068 H 194.36 -6.67232 1.17507 0
M  V30 2069 H 195.303 -6.54841 2.69423 0
M  V30 2070 H 195.711 -5.49073 1.31069 0
M  V30 2071 N 195.109 -0.891671 -1.2995 0
M  V30 2072 C 196.334 -0.527932 -2.00568 0
M  V30 2073 C 196.759 0.877969 -1.66353 0
M  V30 2074 O 196.117 1.58301 -0.883762 0
M  V30 2075 C 196.165 -0.717745 -3.53385 0
M  V30 2076 O 195.269 0.233376 -4.11739 0
M  V30 2077 H 194.61 -0.20722 -0.630837 0
M  V30 2078 H 197.14 -1.20105 -1.65638 0
M  V30 2079 H 197.15 -0.619307 -4.03272 0
M  V30 2080 H 195.825 -1.74276 -3.77625 0
M  V30 2081 H 194.402 0.0880706 -3.72796 0
M  V30 2082 N 196.587 1.43421 -0.653314 0
M  V30 2083 C 197.827 2.03689 -0.170346 0
M  V30 2084 C 198.191 1.50427 1.19314 0
M  V30 2085 O 199.392 2.0234 1.76952 0
M  V30 2086 C 197.663 3.56946 -0.180183 0
M  V30 2087 S 199.222 4.38171 0.234925 0
M  V30 2088 H 196.04 0.707345 -0.0719976 0
M  V30 2089 H 198.642 1.75486 -0.86167 0
M  V30 2090 H 197.346 3.93212 -1.17526 0
M  V30 2091 H 196.877 3.89791 0.531675 0
M  V30 2092 H 198.892 4.73808 1.47378 0
M  V30 2093 N 198.065 0.39524 1.52563 0
M  V30 2094 C 199.012 -0.437036 2.26624 0
M  V30 2095 C 199.982 -1.05281 1.28472 0
M  V30 2096 O 201.167 -1.07971 1.57311 0
M  V30 2097 C 198.307 -1.55524 3.08069 0
M  V30 2098 C 197.42 -0.961745 4.21158 0
M  V30 2099 C 196.555 -2.05149 4.89987 0
M  V30 2100 C 195.594 -1.4342 5.95061 0
M  V30 2101 N 194.731 -2.46351 6.57462 0
M  V30 2102 H 199.571 0.200976 2.97322 0
M  V30 2103 H 197.108 0.110944 1.46681 0
M  V30 2104 H 199.066 -2.21437 3.53584 0
M  V30 2105 H 197.696 -2.16348 2.3957 0
M  V30 2106 H 196.748 -0.192048 3.79915 0
M  V30 2107 H 198.06 -0.470701 4.96574 0
M  V30 2108 H 197.214 -2.78819 5.38837 0
M  V30 2109 H 195.953 -2.57615 4.14109 0
M  V30 2110 H 194.958 -0.682774 5.45544 0
M  V30 2111 H 196.183 -0.917416 6.72875 0
M  V30 2112 H 194.129 -2.97975 5.8442 0
M  V30 2113 H 194.046 -2.02019 7.28508 0
M  V30 2114 H 195.314 -3.19633 7.10954 0
M  V30 2115 N 199.544 -1.57102 0.125237 0
M  V30 2116 C 200.821 -1.86953 -0.575142 0
M  V30 2117 C 201.201 -1.02749 -1.84407 0
M  V30 2118 O 200.549 -0.108144 -2.28244 0
M  V30 2119 C 200.759 -3.38198 -0.861583 0
M  V30 2120 C 202.107 -4.06937 -1.21192 0
M  V30 2121 O 203.131 -3.43252 -0.951645 0
M  V30 2122 O 201.99 -5.19364 -1.70068 0
M  V30 2123 H 199.084 -0.774147 -0.290906 0
M  V30 2124 H 201.63 -1.68942 0.160211 0
M  V30 2125 H 200.402 -3.91282 0.0373647 0
M  V30 2126 H 200.025 -3.61661 -1.65188 0
M  V30 2127 N 201.022 0.148545 -1.56898 0
M  V30 2128 C 202.27 0.859717 -1.82902 0
M  V30 2129 C 202.591 1.81775 -0.70588 0
M  V30 2130 O 201.861 1.93994 0.272586 0
M  V30 2131 H 200.441 0.320469 -0.674766 0
M  V30 2132 H 203.103 0.142918 -1.94375 0
M  V30 2133 H 202.199 1.4229 -2.77777 0
M  V30 2134 N 202.5 1.5196 0.417844 0
M  V30 2135 C 203.447 1.74678 1.50852 0
M  V30 2136 C 204.417 0.588947 1.55308 0
M  V30 2137 O 205.602 0.825544 1.72016 0
M  V30 2138 C 202.742 1.89544 2.88387 0
M  V30 2139 C 201.855 3.17166 2.93309 0
M  V30 2140 C 200.99 3.22513 4.22088 0
M  V30 2141 C 200.029 4.44372 4.20951 0
M  V30 2142 N 199.166 4.47161 5.41287 0
M  V30 2143 H 204.006 2.67768 1.30783 0
M  V30 2144 H 201.543 1.32689 0.63498 0
M  V30 2145 H 203.501 1.96146 3.68216 0
M  V30 2146 H 202.131 0.998424 3.06971 0
M  V30 2147 H 201.183 3.19778 2.06024 0
M  V30 2148 H 202.495 4.07021 2.88332 0
M  V30 2149 H 201.649 3.28139 5.10303 0
M  V30 2150 H 200.388 2.30581 4.29748 0
M  V30 2151 H 199.393 4.38902 3.31127 0
M  V30 2152 H 200.618 5.3759 4.14938 0
M  V30 2153 H 198.564 3.58108 5.49632 0
M  V30 2154 H 198.481 5.3085 5.3827 0
M  V30 2155 H 199.749 4.57005 6.3148 0
M  V30 2156 N 203.978 -0.674533 1.42435 0
M  V30 2157 C 204.941 -1.76986 1.45632 0
M  V30 2158 C 205.941 -1.5708 0.343871 0
M  V30 2159 O 207.131 -1.63367 0.604709 0
M  V30 2160 C 204.263 -3.15623 1.28822 0
M  V30 2161 H 205.456 -1.75539 2.43158 0
M  V30 2162 H 203.009 -0.884189 1.28887 0
M  V30 2163 H 203.744 -3.22696 0.322193 0
M  V30 2164 H 203.529 -3.31475 2.09444 0
M  V30 2165 H 205.019 -3.95537 1.33942 0
M  V30 2166 N 205.456 -1.28612 -0.910864 0
M  V30 2167 C 206.681 -1.1891 -1.69927 0
M  V30 2168 C 207.106 0.248372 -1.86453 0
M  V30 2169 O 206.464 1.17961 -1.37676 0
M  V30 2170 C 206.512 -1.89578 -3.06745 0
M  V30 2171 O 205.616 -1.20521 -3.94396 0
M  V30 2172 H 204.957 -0.412632 -0.520222 0
M  V30 2173 H 207.487 -1.69985 -1.1387 0
M  V30 2174 H 207.497 -1.97597 -3.56958 0
M  V30 2175 H 206.172 -2.94136 -2.94035 0
M  V30 2176 H 204.749 -1.20684 -3.52831 0
M  V30 2177 N 206.934 1.1197 -1.10907 0
M  V30 2178 C 208.181 1.83588 -0.854507 0
M  V30 2179 C 208.509 1.84357 0.6199 0
M  V30 2180 O 207.764 1.28809 1.47332 0
M  V30 2181 C 208.063 3.30749 -1.35425 0
M  V30 2182 C 207.729 3.50146 -2.84093 0
M  V30 2183 C 206.391 3.55148 -3.2469 0
M  V30 2184 C 208.743 3.56857 -3.79872 0
M  V30 2185 C 206.071 3.6441 -4.59806 0
M  V30 2186 C 208.423 3.6765 -5.14797 0
M  V30 2187 C 207.087 3.7091 -5.54961 0
M  V30 2188 H 206.357 0.671795 -0.312686 0
M  V30 2189 H 209.004 1.32091 -1.38652 0
M  V30 2190 H 207.309 3.84703 -0.742361 0
M  V30 2191 H 209.006 3.8464 -1.1337 0
M  V30 2192 H 205.596 3.46919 -2.51685 0
M  V30 2193 H 209.78 3.52258 -3.49611 0
M  V30 2194 H 205.036 3.65208 -4.9034 0
M  V30 2195 H 209.21 3.71786 -5.88853 0
M  V30 2196 H 206.837 3.7784 -6.59652 0
M  V30 2197 N 208.412 0.89855 1.29475 0
M  V30 2198 C 209.64 0.539261 1.99749 0
M  V30 2199 C 210.055 -0.875716 1.67262 0
M  V30 2200 O 209.412 -1.57786 0.917049 0
M  V30 2201 C 209.463 0.72061 3.54245 0
M  V30 2202 O 209.184 2.07989 3.8558 0
M  V30 2203 C 210.685 0.366118 4.41786 0
M  V30 2204 H 207.905 0.207047 0.638258 0
M  V30 2205 H 210.449 1.20758 1.65039 0
M  V30 2206 H 208.604 0.0994862 3.87272 0
M  V30 2207 H 209.018 2.10841 4.80257 0
M  V30 2208 H 210.492 0.543848 5.49314 0
M  V30 2209 H 210.969 -0.696763 4.33638 0
M  V30 2210 H 211.575 0.964135 4.14228 0
M  V30 2211 N 209.89 -1.43072 0.660911 0
M  V30 2212 C 211.13 -2.03596 0.181146 0
M  V30 2213 C 211.494 -1.51057 -1.18515 0
M  V30 2214 O 212.695 -2.03275 -1.75877 0
M  V30 2215 C 210.966 -3.56845 0.19911 0
M  V30 2216 S 212.525 -4.38289 -0.211684 0
M  V30 2217 H 209.343 -0.706954 0.0757479 0
M  V30 2218 H 211.945 -1.75027 0.870965 0
M  V30 2219 H 210.649 -3.92583 1.1961 0
M  V30 2220 H 210.18 -3.90067 -0.510996 0
M  V30 2221 H 212.195 -4.74583 -1.44863 0
M  V30 2222 N 211.368 -0.403325 -1.52352 0
M  V30 2223 C 212.596 0.174012 -2.06167 0
M  V30 2224 C 213.011 1.39347 -1.27388 0
M  V30 2225 O 212.368 1.79597 -0.324201 0
M  V30 2226 C 212.419 0.530223 -3.5759 0
M  V30 2227 O 212.14 -0.640806 -4.33388 0
M  V30 2228 C 213.641 1.16192 -4.27802 0
M  V30 2229 H 210.861 0.0229464 -0.670608 0
M  V30 2230 H 213.405 -0.572604 -1.9632 0
M  V30 2231 H 211.56 1.22673 -3.67464 0
M  V30 2232 H 211.974 -0.344851 -5.23365 0
M  V30 2233 H 213.448 1.36141 -5.34948 0
M  V30 2234 H 213.925 2.13335 -3.83907 0
M  V30 2235 H 214.531 0.505775 -4.22282 0
M  V30 2236 N 212.846 1.57033 -0.133567 0
M  V30 2237 C 214.086 1.97575 0.523789 0
M  V30 2238 C 214.45 1.01605 1.62912 0
M  V30 2239 O 215.651 1.3114 2.3464 0
M  V30 2240 C 213.922 3.42256 1.02935 0
M  V30 2241 S 215.481 4.04817 1.69319 0
M  V30 2242 H 212.299 0.690427 0.169799 0
M  V30 2243 H 214.901 1.94234 -0.222101 0
M  V30 2244 H 213.605 4.09842 0.213917 0
M  V30 2245 H 213.136 3.4928 1.81017 0
M  V30 2246 H 215.151 3.96767 2.97977 0
M  V30 2247 N 214.325 -0.140222 1.56975 0
M  V30 2248 C 215.272 -1.17292 1.98774 0
M  V30 2249 C 216.242 -1.4232 0.856408 0
M  V30 2250 O 217.427 -1.54541 1.119 0
M  V30 2251 C 214.567 -2.49973 2.37923 0
M  V30 2252 C 213.68 -2.32062 3.64378 0
M  V30 2253 C 212.815 -3.57825 3.926 0
M  V30 2254 C 211.854 -3.3498 5.12303 0
M  V30 2255 N 210.991 -4.52891 5.36502 0
M  V30 2256 H 215.831 -0.809472 2.86795 0
M  V30 2257 H 213.368 -0.388237 1.41884 0
M  V30 2258 H 215.326 -3.27346 2.58652 0
M  V30 2259 H 213.956 -2.84252 1.52972 0
M  V30 2260 H 213.008 -1.45711 3.51387 0
M  V30 2261 H 214.32 -2.11145 4.51906 0
M  V30 2262 H 213.474 -4.43624 4.13863 0
M  V30 2263 H 212.213 -3.81753 3.03506 0
M  V30 2264 H 211.218 -2.4757 4.90906 0
M  V30 2265 H 212.443 -3.12444 6.02956 0
M  V30 2266 H 210.389 -4.76979 4.50363 0
M  V30 2267 H 210.306 -4.35001 6.18312 0
M  V30 2268 H 211.574 -5.39884 5.62268 0
M  V30 2269 N 215.803 -1.52179 -0.40978 0
M  V30 2270 C 217.214 -1.58377 -0.988615 0
M  V30 2271 C 217.565 -0.423879 -1.91566 0
M  V30 2272 O 216.69 0.455844 -2.11544 0
M  V30 2273 C 217.285 -2.87044 -1.79976 0
M  V30 2274 C 215.844 -2.95722 -2.32863 0
M  V30 2275 C 214.991 -2.53309 -1.12828 0
M  V30 2276 H 217.942 -1.57558 -0.190039 0
M  V30 2277 H 217.963 -2.7236 -2.65707 0
M  V30 2278 H 217.475 -3.71444 -1.12478 0
M  V30 2279 H 215.576 -2.15814 -3.03735 0
M  V30 2280 H 215.689 -3.99951 -2.63773 0
M  V30 2281 H 214.053 -2.07142 -1.48204 0
M  V30 2282 H 214.836 -3.40082 -0.46897 0
M  V30 2283 N 217.281 0.66697 -1.42791 0
M  V30 2284 C 218.529 1.42417 -1.43394 0
M  V30 2285 C 218.85 1.94925 -0.0542373 0
M  V30 2286 O 218.12 1.73564 0.908415 0
M  V30 2287 H 216.7 0.528515 -0.527902 0
M  V30 2288 H 219.362 0.787562 -1.78279 0
M  V30 2289 H 218.458 2.27333 -2.13837 0
M  V30 2290 N 218.759 1.29093 0.90403 0
M  V30 2291 C 220.005 1.17996 1.65676 0
M  V30 2292 C 220.36 -0.266816 1.90541 0
M  V30 2293 O 219.653 -1.19 1.50165 0
M  V30 2294 C 219.847 1.92224 3.01305 0
M  V30 2295 C 219.676 3.43972 2.89678 0
M  V30 2296 C 218.446 4.1332 2.90679 0
M  V30 2297 C 220.644 4.39546 2.67028 0
M  V30 2298 N 218.626 5.51463 2.69743 0
M  V30 2299 C 219.997 5.65119 2.5503 0
M  V30 2300 C 222.052 4.29359 2.52101 0
M  V30 2301 C 220.755 6.81663 2.29626 0
M  V30 2302 C 222.781 5.4565 2.28079 0
M  V30 2303 C 222.143 6.70193 2.16843 0
M  V30 2304 H 218.242 0.486759 0.612037 0
M  V30 2305 H 220.826 1.62868 1.06688 0
M  V30 2306 H 218.997 1.49773 3.58361 0
M  V30 2307 H 220.729 1.73429 3.65656 0
M  V30 2308 H 217.484 3.64984 3.01801 0
M  V30 2309 H 217.908 6.24105 2.6234 0
M  V30 2310 H 222.55 3.33769 2.59534 0
M  V30 2311 H 220.268 7.77313 2.20932 0
M  V30 2312 H 223.854 5.39664 2.1738 0
M  V30 2313 H 222.734 7.58659 1.98511 0
M  V30 2314 N 220.237 -1.11381 1.11499 0
M  V30 2315 C 221.169 -2.17207 0.731704 0
M  V30 2316 C 222.182 -1.61066 -0.236957 0
M  V30 2317 O 223.371 -1.78489 -0.0197591 0
M  V30 2318 C 220.471 -3.38846 0.0607624 0
M  V30 2319 C 219.644 -4.24451 1.0564 0
M  V30 2320 C 218.703 -5.24562 0.4149 0
M  V30 2321 O 217.729 -5.59071 1.069 0
M  V30 2322 N 218.931 -5.74651 -0.821943 0
M  V30 2323 H 221.696 -2.50699 1.64225 0
M  V30 2324 H 219.257 -1.26908 1.00529 0
M  V30 2325 H 221.249 -4.02911 -0.380139 0
M  V30 2326 H 219.819 -3.03411 -0.752376 0
M  V30 2327 H 219.039 -3.56833 1.67524 0
M  V30 2328 H 220.327 -4.78486 1.72998 0
M  V30 2329 H 219.725 -5.48797 -1.37252 0
M  V30 2330 H 218.282 -6.40549 -1.20582 0
M  V30 2331 N 221.715 -0.905404 -1.28997 0
M  V30 2332 C 222.963 -0.533192 -1.9494 0
M  V30 2333 C 223.284 0.924618 -1.71685 0
M  V30 2334 O 222.554 1.65268 -1.05183 0
M  V30 2335 H 221.134 -0.194194 -0.721317 0
M  V30 2336 H 223.796 -1.15294 -1.57141 0
M  V30 2337 H 222.892 -0.72059 -3.03667 0
M  V30 2338 N 223.193 1.4272 -0.668489 0
M  V30 2339 C 224.103 2.34596 0.0139753 0
M  V30 2340 C 225.119 1.5474 0.795703 0
M  V30 2341 O 226.295 1.87334 0.739466 0
M  V30 2342 C 223.36 3.33202 0.957982 0
M  V30 2343 C 222.421 4.28957 0.17149 0
M  V30 2344 C 221.654 5.22853 1.07053 0
M  V30 2345 O 221.877 5.21531 2.31001 0
M  V30 2346 O 220.811 5.9952 0.534727 0
M  V30 2347 H 224.637 2.9448 -0.742661 0
M  V30 2348 H 222.222 1.43117 -0.428705 0
M  V30 2349 H 224.104 3.93796 1.50008 0
M  V30 2350 H 222.779 2.758 1.69458 0
M  V30 2351 H 221.686 3.71796 -0.414558 0
M  V30 2352 H 223.019 4.89383 -0.52586 0
M  V30 2353 N 224.671 0.411399 1.52136 0
M  V30 2354 C 225.618 -0.412975 2.27075 0
M  V30 2355 C 226.588 -1.03912 1.29582 0
M  V30 2356 O 227.773 -1.06296 1.58448 0
M  V30 2357 C 224.913 -1.52247 3.09701 0
M  V30 2358 C 224.026 -0.917021 4.22155 0
M  V30 2359 C 223.161 -1.9994 4.92135 0
M  V30 2360 C 222.2 -1.37101 5.96548 0
M  V30 2361 N 221.337 -2.39364 6.60038 0
M  V30 2362 H 226.177 0.232499 2.97092 0
M  V30 2363 H 223.714 0.126496 1.46555 0
M  V30 2364 H 225.672 -2.17674 3.55913 0
M  V30 2365 H 224.302 -2.13794 2.41851 0
M  V30 2366 H 223.354 -0.151742 3.80097 0
M  V30 2367 H 224.666 -0.418006 4.97045 0
M  V30 2368 H 223.82 -2.73088 5.41763 0
M  V30 2369 H 222.559 -2.53208 4.16818 0
M  V30 2370 H 221.564 -0.624873 5.46237 0
M  V30 2371 H 222.789 -0.845998 6.7381 0
M  V30 2372 H 220.735 -2.91759 5.87548 0
M  V30 2373 H 220.652 -1.9428 7.3061 0
M  V30 2374 H 221.92 -3.12074 7.14304 0
M  V30 2375 N 226.149 -1.5696 0.141893 0
M  V30 2376 C 227.389 -1.9785 -0.513304 0
M  V30 2377 C 227.753 -1.02467 -1.62371 0
M  V30 2378 O 228.954 -1.32382 -2.33941 0
M  V30 2379 C 227.225 -3.42797 -1.01118 0
M  V30 2380 S 228.784 -4.05709 -1.67169 0
M  V30 2381 H 225.602 -0.691318 -0.166135 0
M  V30 2382 H 228.204 -1.94114 0.232398 0
M  V30 2383 H 226.908 -4.0995 -0.192179 0
M  V30 2384 H 226.439 -3.50235 -1.79162 0
M  V30 2385 H 228.454 -3.98342 -2.95868 0
M  V30 2386 N 227.627 0.131896 -1.57047 0
M  V30 2387 C 228.537 1.1815 -2.02676 0
M  V30 2388 C 229.553 1.46113 -0.944824 0
M  V30 2389 O 230.729 1.57485 -1.25541 0
M  V30 2390 C 227.794 2.49139 -2.41103 0
M  V30 2391 C 226.855 2.28688 -3.63318 0
M  V30 2392 C 226.088 3.53431 -3.99903 0
M  V30 2393 O 226.311 4.60223 -3.36973 0
M  V30 2394 O 225.245 3.45198 -4.93074 0
M  V30 2395 H 229.071 0.824069 -2.92306 0
M  V30 2396 H 226.656 0.341745 -1.45439 0
M  V30 2397 H 228.538 3.26338 -2.66611 0
M  V30 2398 H 227.213 2.84382 -1.54624 0
M  V30 2399 H 226.12 1.4939 -3.42977 0
M  V30 2400 H 227.453 1.98355 -4.50462 0
M  V30 2401 N 229.106 1.52395 0.401703 0
M  V30 2402 C 230.353 1.66817 1.14796 0
M  V30 2403 C 230.681 0.401772 1.90305 0
M  V30 2404 O 229.936 -0.615487 1.85769 0
M  V30 2405 C 230.235 2.84578 2.16217 0
M  V30 2406 C 229.901 4.22513 1.5746 0
M  V30 2407 C 228.563 4.60029 1.41161 0
M  V30 2408 C 230.915 5.0844 1.14622 0
M  V30 2409 C 228.243 5.81144 0.80552 0
M  V30 2410 C 230.595 6.30167 0.55428 0
M  V30 2411 C 229.259 6.66426 0.378482 0
M  V30 2412 H 228.529 0.610428 0.420069 0
M  V30 2413 H 231.176 1.86512 0.434212 0
M  V30 2414 H 229.481 2.59248 2.93764 0
M  V30 2415 H 231.178 2.92933 2.73845 0
M  V30 2416 H 227.768 3.92953 1.71132 0
M  V30 2417 H 231.952 4.80034 1.26021 0
M  V30 2418 H 227.208 6.07855 0.657399 0
M  V30 2419 H 231.382 6.96071 0.213983 0
M  V30 2420 H 229.009 7.60143 -0.0932606 0
M  V30 2421 N 230.584 -0.659388 1.43143 0
M  V30 2422 C 231.861 -1.41627 1.34912 0
M  V30 2423 C 232.241 -2.11099 -0.00607785 0
M  V30 2424 O 231.589 -2.04353 -1.02236 0
M  V30 2425 C 231.799 -2.40604 2.52805 0
M  V30 2426 C 233.147 -3.04789 2.95616 0
M  V30 2427 O 234.171 -2.50932 2.52807 0
M  V30 2428 O 233.03 -4.02421 3.69756 0
M  V30 2429 H 230.124 -0.63246 0.532844 0
M  V30 2430 H 232.67 -0.686814 1.5518 0
M  V30 2431 H 231.442 -1.88174 3.43083 0
M  V30 2432 H 231.065 -3.21009 2.34604 0
M  V30 2433 N 232.062 -1.29571 -0.897171 0
M  V30 2434 C 233.311 -1.1706 -1.64256 0
M  V30 2435 C 233.624 0.276476 -1.93636 0
M  V30 2436 O 234.83 0.52294 -2.66416 0
M  V30 2437 C 233.286 -2.0475 -2.95982 0
M  V30 2438 C 232.894 -3.54295 -2.74187 0
M  V30 2439 C 234.638 -2.0097 -3.73914 0
M  V30 2440 C 232.545 -4.34081 -4.01656 0
M  V30 2441 H 231.475 -0.43452 -0.616205 0
M  V30 2442 H 234.126 -1.54229 -0.994268 0
M  V30 2443 H 232.508 -1.60452 -3.62038 0
M  V30 2444 H 233.682 -4.06662 -2.1671 0
M  V30 2445 H 231.997 -3.59773 -2.09648 0
M  V30 2446 H 234.594 -2.57838 -4.68427 0
M  V30 2447 H 234.937 -0.990273 -4.0435 0
M  V30 2448 H 235.47 -2.43325 -3.14703 0
M  V30 2449 H 232.209 -5.36671 -3.76384 0
M  V30 2450 H 231.729 -3.86483 -4.58684 0
M  V30 2451 H 233.408 -4.44877 -4.69781 0
M  V30 2452 N 233.54 1.10788 -1.12088 0
M  V30 2453 C 234.488 2.19111 -0.780587 0
M  V30 2454 C 235.482 1.67818 0.230961 0
M  V30 2455 O 236.688 1.79777 0.0895427 0
M  V30 2456 H 233.063 0.714477 -0.234578 0
M  V30 2457 H 235.034 2.45055 -1.70266 0
M  V30 2458 C 233.783 3.46818 -0.24747 0
M  V30 2459 H 233.106 3.86646 -1.01712 0
M  V30 2460 H 234.546 4.23973 -0.0476291 0
M  V30 2461 C 233.005 3.20968 1.02378 0
M  V30 2462 O 233.535 3.42298 2.10226 0
M  V30 2463 N 231.741 2.74658 0.949271 0
M  V30 2464 H 231.288 2.57501 0.0715173 0
M  V30 2465 H 231.246 2.57739 1.80049 0
M  V30 2466 N 235.018 0.912232 1.28515 0
M  V30 2467 C 235.928 0.404506 2.31086 0
M  V30 2468 C 236.944 -0.50707 1.66448 0
M  V30 2469 O 238.12 -0.393624 1.97516 0
M  V30 2470 C 235.185 -0.348572 3.44943 0
M  V30 2471 C 234.246 0.59604 4.25142 0
M  V30 2472 C 233.479 -0.121194 5.33562 0
M  V30 2473 O 233.702 -1.34317 5.5436 0
M  V30 2474 O 232.636 0.542716 5.99448 0
M  V30 2475 H 236.462 1.25579 2.76521 0
M  V30 2476 H 234.047 0.676998 1.33181 0
M  V30 2477 H 235.929 -0.77395 4.14232 0
M  V30 2478 H 234.604 -1.17571 3.01594 0
M  V30 2479 H 233.511 1.07079 3.58448 0
M  V30 2480 H 234.844 1.38995 4.72167 0
M  V30 2481 N 236.496 -1.42363 0.676048 0
M  V30 2482 C 237.736 -2.03392 0.20273 0
M  V30 2483 C 238.1 -1.52306 -1.16906 0
M  V30 2484 O 239.301 -2.05129 -1.73711 0
M  V30 2485 C 237.572 -3.56614 0.236947 0
M  V30 2486 S 239.131 -4.38489 -0.165186 0
M  V30 2487 H 235.949 -0.70611 0.0832418 0
M  V30 2488 H 238.551 -1.74093 0.88948 0
M  V30 2489 H 237.255 -3.91293 1.23767 0
M  V30 2490 H 236.786 -3.90587 -0.469596 0
M  V30 2491 H 238.801 -4.76093 -1.39822 0
M  V30 2492 N 237.974 -0.419461 -1.51915 0
M  V30 2493 C 238.921 0.400927 -2.27291 0
M  V30 2494 C 239.891 1.03224 -1.30131 0
M  V30 2495 O 241.076 1.05455 -1.59009 0
M  V30 2496 C 238.216 1.50603 -3.10504 0
M  V30 2497 C 237.329 0.89462 -4.22635 0
M  V30 2498 C 236.464 1.97328 -4.93189 0
M  V30 2499 C 235.503 1.33935 -5.97267 0
M  V30 2500 N 234.64 2.3586 -6.61298 0
M  V30 2501 H 239.48 -0.248251 -2.96964 0
M  V30 2502 H 237.017 -0.134266 -1.46486 0
M  V30 2503 H 238.975 2.15783 -3.57062 0
M  V30 2504 H 237.605 2.12509 -2.42981 0
M  V30 2505 H 236.657 0.131583 -3.80172 0
M  V30 2506 H 237.969 0.391641 -4.9726 0
M  V30 2507 H 237.123 2.70211 -5.43204 0
M  V30 2508 H 235.862 2.50994 -4.18155 0
M  V30 2509 H 234.867 0.595896 -5.46561 0
M  V30 2510 H 236.092 0.810252 -6.74249 0
M  V30 2511 H 234.038 2.88639 -5.89087 0
M  V30 2512 H 233.955 1.90403 -7.3163 0
M  V30 2513 H 235.223 3.08282 -7.15949 0
M  V30 2514 N 239.452 1.56882 -0.150215 0
M  V30 2515 C 240.729 1.87844 0.545327 0
M  V30 2516 C 241.109 1.0567 1.82749 0
M  V30 2517 O 240.457 0.144442 2.28043 0
M  V30 2518 C 240.667 3.39526 0.80767 0
M  V30 2519 C 242.015 4.08814 1.14703 0
M  V30 2520 O 243.039 3.44723 0.896917 0
M  V30 2521 O 241.898 5.22004 1.61784 0
M  V30 2522 H 238.992 0.778677 0.278553 0
M  V30 2523 H 241.538 1.68666 -0.187068 0
M  V30 2524 H 240.31 3.91173 -0.0996096 0
M  V30 2525 H 239.933 3.64243 1.59413 0
M  V30 2526 N 240.93 -0.123565 1.57115 0
M  V30 2527 C 242.341 -0.681198 1.73829 0
M  V30 2528 C 242.692 -1.80535 0.768214 0
M  V30 2529 O 241.817 -2.16317 -0.0599103 0
M  V30 2530 C 242.412 -1.24246 3.15196 0
M  V30 2531 C 240.971 -1.74643 3.33432 0
M  V30 2532 C 240.118 -0.644284 2.69711 0
M  V30 2533 H 243.069 0.102315 1.5837 0
M  V30 2534 H 243.09 -2.11216 3.16493 0
M  V30 2535 H 242.602 -0.424062 3.85776 0
M  V30 2536 H 240.703 -2.58974 2.67886 0
M  V30 2537 H 240.816 -1.85902 4.41562 0
M  V30 2538 H 239.18 -1.07676 2.3082 0
M  V30 2539 H 239.963 0.163058 3.42913 0
M  V30 2540 N 242.408 -1.52605 -0.393616 0
M  V30 2541 C 243.633 -1.71592 -1.16495 0
M  V30 2542 C 244.058 -0.43133 -1.83088 0
M  V30 2543 O 243.416 0.612523 -1.7064 0
M  V30 2544 C 243.464 -2.86318 -2.19213 0
M  V30 2545 O 242.568 -2.52969 -3.257 0
M  V30 2546 H 241.909 -0.570734 -0.33935 0
M  V30 2547 H 244.439 -1.99377 -0.459324 0
M  V30 2548 H 244.449 -3.1168 -2.63286 0
M  V30 2549 H 243.124 -3.79511 -1.7013 0
M  V30 2550 H 241.701 -2.38332 -2.86797 0
M  V30 2551 N 243.887 0.651787 -1.4349 0
M  V30 2552 C 244.835 1.78586 -1.49029 0
M  V30 2553 C 245.829 1.65448 -0.363767 0
M  V30 2554 O 247.035 1.71777 -0.537821 0
M  V30 2555 H 243.41 0.589236 -0.467231 0
M  V30 2556 H 245.381 1.71035 -2.44519 0
M  V30 2557 C 244.13 3.16851 -1.43181 0
M  V30 2558 H 243.453 3.27598 -2.29171 0
M  V30 2559 H 244.893 3.96156 -1.51118 0
M  V30 2560 C 243.352 3.36568 -0.149616 0
M  V30 2561 O 243.882 3.93885 0.788509 0
M  V30 2562 N 242.088 2.90539 -0.0593484 0
M  V30 2563 H 241.635 2.4408 -0.823575 0
M  V30 2564 H 241.593 3.04108 0.797853 0
M  V30 2565 N 245.365 1.30045 0.890287 0
M  V30 2566 C 246.614 1.17929 1.63633 0
M  V30 2567 C 246.927 -0.266204 1.9378 0
M  V30 2568 O 248.133 -0.508804 2.6669 0
M  V30 2569 C 246.589 2.06317 2.94892 0
M  V30 2570 C 246.197 3.55745 2.72305 0
M  V30 2571 C 247.941 2.0295 3.72843 0
M  V30 2572 C 245.848 4.36205 3.99348 0
M  V30 2573 H 244.778 0.437782 0.613892 0
M  V30 2574 H 247.429 1.54754 0.986075 0
M  V30 2575 H 245.811 1.6237 3.61182 0
M  V30 2576 H 246.985 4.07805 2.1455 0
M  V30 2577 H 245.3 3.6088 2.07737 0
M  V30 2578 H 247.897 2.60319 4.67053 0
M  V30 2579 H 248.24 1.0117 4.0382 0
M  V30 2580 H 248.773 2.4499 3.13408 0
M  V30 2581 H 245.512 5.38659 3.73533 0
M  V30 2582 H 245.032 3.8891 4.56628 0
M  V30 2583 H 246.711 4.47362 4.67415 0
M  V30 2584 N 246.843 -1.10192 1.12674 0
M  V30 2585 C 247.791 -2.18694 0.792196 0
M  V30 2586 C 248.785 -1.67938 -0.222058 0
M  V30 2587 O 249.991 -1.79822 -0.0800074 0
M  V30 2588 H 246.366 -0.713223 0.238364 0
M  V30 2589 H 248.337 -2.44149 1.71564 0
M  V30 2590 C 247.086 -3.46682 0.265859 0
M  V30 2591 H 246.409 -3.86101 1.03761 0
M  V30 2592 H 247.849 -4.23942 0.0701128 0
M  V30 2593 C 246.308 -3.21506 -1.00675 0
M  V30 2594 O 246.838 -3.43408 -2.08408 0
M  V30 2595 N 245.044 -2.75158 -0.934692 0
M  V30 2596 H 244.591 -2.57535 -0.0578604 0
M  V30 2597 H 244.549 -2.58691 -1.7868 0
M  V30 2598 N 248.321 -0.919034 -1.28029 0
M  V30 2599 C 249.569 -0.553838 -1.94363 0
M  V30 2600 C 249.89 0.906357 -1.72656 0
M  V30 2601 O 249.16 1.64143 -1.0693 0
M  V30 2602 H 247.74 -0.201834 -0.719216 0
M  V30 2603 H 250.402 -1.16954 -1.55909 0
M  V30 2604 H 249.498 -0.752758 -3.02886 0
M  V30 2605 N 249.799 1.42003 -0.683588 0
M  V30 2606 C 251.047 2.01015 -0.209101 0
M  V30 2607 C 251.368 1.54365 1.19149 0
M  V30 2608 O 250.638 0.769083 1.80172 0
M  V30 2609 H 249.218 0.743294 -0.074315 0
M  V30 2610 H 251.88 1.73798 -0.882066 0
M  V30 2611 H 250.976 3.11343 -0.2172 0
M  V30 2612 N 251.277 0.427512 1.51691 0
M  V30 2613 C 252.517 -0.141524 2.03909 0
M  V30 2614 C 252.881 -1.40811 1.30523 0
M  V30 2615 O 254.082 -2.05676 1.73063 0
M  V30 2616 C 252.353 -0.364962 3.55532 0
M  V30 2617 S 253.912 -0.898812 4.29496 0
M  V30 2618 H 250.73 -0.0364542 0.710065 0
M  V30 2619 H 253.332 0.584659 1.86553 0
M  V30 2620 H 252.036 0.56336 4.06515 0
M  V30 2621 H 251.567 -1.1185 3.77164 0
M  V30 2622 H 253.582 -2.17747 4.45871 0
M  V30 2623 N 252.755 -1.56801 0.158532 0
M  V30 2624 C 253.98 -2.01295 -0.499516 0
M  V30 2625 C 254.405 -1.03799 -1.56867 0
M  V30 2626 O 253.763 -0.0155162 -1.81293 0
M  V30 2627 C 253.811 -3.44469 -1.06647 0
M  V30 2628 O 252.915 -3.50012 -2.18095 0
M  V30 2629 H 252.256 -0.652884 -0.12099 0
M  V30 2630 H 254.786 -2.02958 0.258661 0
M  V30 2631 H 254.796 -3.8351 -1.39227 0
M  V30 2632 H 253.471 -4.14932 -0.283581 0
M  V30 2633 H 252.048 -3.22822 -1.86656 0
M  V30 2634 N 254.233 0.115231 -1.57178 0
M  V30 2635 C 255.165 1.16694 -1.97269 0
M  V30 2636 C 256.178 1.37445 -0.872502 0
M  V30 2637 O 257.367 1.36454 -1.15077 0
M  V30 2638 C 254.467 2.52627 -2.25905 0
M  V30 2639 C 253.64 2.52427 -3.57211 0
M  V30 2640 C 252.699 3.70134 -3.74016 0
M  V30 2641 O 251.725 3.53546 -4.46087 0
M  V30 2642 N 252.927 4.88844 -3.13068 0
M  V30 2643 H 255.692 0.82588 -2.88096 0
M  V30 2644 H 253.253 0.304461 -1.59011 0
M  V30 2645 H 255.245 3.29937 -2.34359 0
M  V30 2646 H 253.815 2.789 -1.41186 0
M  V30 2647 H 253.035 1.60805 -3.5991 0
M  V30 2648 H 254.323 2.49353 -4.43509 0
M  V30 2649 H 253.721 5.05225 -2.54489 0
M  V30 2650 H 252.278 5.63817 -3.27037 0
M  V30 2651 N 255.711 1.52812 0.385517 0
M  V30 2652 C 256.96 1.67249 1.12741 0
M  V30 2653 C 257.273 0.4205 1.91027 0
M  V30 2654 O 258.479 0.445064 2.67827 0
M  V30 2655 C 256.935 2.95583 2.05326 0
M  V30 2656 C 256.543 4.27974 1.32447 0
M  V30 2657 C 258.287 3.19386 2.7963 0
M  V30 2658 C 256.194 5.47412 2.23818 0
M  V30 2659 H 255.124 0.6231 0.424573 0
M  V30 2660 H 257.775 1.79309 0.389924 0
M  V30 2661 H 256.157 2.77277 2.82725 0
M  V30 2662 H 257.331 4.56844 0.602495 0
M  V30 2663 H 255.646 4.10459 0.700885 0
M  V30 2664 H 258.243 4.05801 3.48181 0
M  V30 2665 H 258.586 2.34604 3.43899 0
M  V30 2666 H 259.119 3.38274 2.09322 0
M  V30 2667 H 255.858 6.34612 1.64157 0
M  V30 2668 H 255.378 5.22849 2.93921 0
M  V30 2669 H 257.057 5.81423 2.83824 0
M  V30 2670 N 257.189 -0.644168 1.43834 0
M  V30 2671 C 258.429 -1.41565 1.47441 0
M  V30 2672 C 258.793 -1.91743 0.0992723 0
M  V30 2673 O 259.994 -2.68798 0.0100192 0
M  V30 2674 C 258.265 -2.55902 2.49498 0
M  V30 2675 S 259.824 -3.44287 2.72051 0
M  V30 2676 H 256.642 -0.483118 0.521649 0
M  V30 2677 H 259.244 -0.747008 1.80666 0
M  V30 2678 H 257.948 -2.17327 3.48134 0
M  V30 2679 H 257.479 -3.27607 2.17801 0
M  V30 2680 H 259.494 -4.52927 2.0266 0
M  V30 2681 N 258.668 -1.30515 -0.883378 0
M  V30 2682 C 259.945 -1.10086 -1.6168 0
M  V30 2683 C 260.325 0.349269 -2.08191 0
M  V30 2684 O 259.673 1.34105 -1.85008 0
M  V30 2685 C 259.883 -2.10315 -2.78511 0
M  V30 2686 C 261.231 -2.42119 -3.48803 0
M  V30 2687 O 262.255 -2.08638 -2.88702 0
M  V30 2688 O 261.114 -2.99396 -4.57192 0
M  V30 2689 H 258.208 -0.422907 -0.710689 0
M  V30 2690 H 260.754 -1.41947 -0.930015 0
M  V30 2691 H 259.526 -3.07917 -2.41459 0
M  V30 2692 H 259.149 -1.79282 -3.54886 0
M  V30 2693 N 260.146 1.09593 -1.13257 0
M  V30 2694 C 261.094 2.18271 -0.803783 0
M  V30 2695 C 262.088 1.68054 0.213148 0
M  V30 2696 O 263.294 1.79862 0.0704699 0
M  V30 2697 H 259.669 0.711949 -0.242143 0
M  V30 2698 H 261.64 2.43235 -1.72856 0
M  V30 2699 C 260.389 3.46536 -0.28424 0
M  V30 2700 H 259.712 3.85545 -1.05807 0
M  V30 2701 H 261.152 4.23899 -0.0925945 0
M  V30 2702 C 259.611 3.22036 0.989684 0
M  V30 2703 O 260.141 3.44509 2.06584 0
M  V30 2704 N 258.347 2.7565 0.920086 0
M  V30 2705 H 257.894 2.57562 0.0442019 0
M  V30 2706 H 257.852 2.59635 1.77306 0
M  V30 2707 N 261.624 0.925811 1.2754 0
M  V30 2708 C 262.852 0.581509 1.9856 0
M  V30 2709 C 263.267 -0.840041 1.69082 0
M  V30 2710 O 262.624 -1.55805 0.950312 0
M  V30 2711 C 262.675 0.795589 3.52637 0
M  V30 2712 O 262.396 2.16121 3.81082 0
M  V30 2713 C 263.897 0.459744 4.4091 0
M  V30 2714 H 261.117 0.220538 0.633722 0
M  V30 2715 H 263.661 1.24232 1.6244 0
M  V30 2716 H 261.816 0.18161 3.86974 0
M  V30 2717 H 262.23 2.2098 4.75676 0
M  V30 2718 H 263.704 0.660244 5.48037 0
M  V30 2719 H 264.181 -0.604625 4.35018 0
M  V30 2720 H 264.787 1.05178 4.12089 0
M  V30 2721 N 263.102 -1.41638 0.69111 0
M  V30 2722 C 264.513 -1.84346 0.295517 0
M  V30 2723 C 264.864 -1.57833 -1.16547 0
M  V30 2724 O 263.989 -1.04648 -1.89414 0
M  V30 2725 C 264.584 -3.34636 0.529575 0
M  V30 2726 C 263.143 -3.7593 0.187944 0
M  V30 2727 C 262.29 -2.65082 0.814052 0
M  V30 2728 H 265.241 -1.31253 0.892092 0
M  V30 2729 H 265.262 -3.79903 -0.213148 0
M  V30 2730 H 264.774 -3.53901 1.59297 0
M  V30 2731 H 262.875 -3.62268 -0.871367 0
M  V30 2732 H 262.988 -4.74808 0.63985 0
M  V30 2733 H 261.352 -2.53528 0.244017 0
M  V30 2734 H 262.135 -2.87167 1.88123 0
M  V30 2735 N 264.58 -0.43555 -1.51462 0
M  V30 2736 C 265.828 0.131254 -2.01673 0
M  V30 2737 C 266.149 1.43368 -1.32177 0
M  V30 2738 O 265.419 1.90524 -0.455769 0
M  V30 2739 H 263.999 0.0514954 -0.745223 0
M  V30 2740 H 266.661 -0.577847 -1.86137 0
M  V30 2741 H 265.757 0.308446 -3.10572 0
M  V30 2742 N 266.058 1.56714 -0.166846 0
M  V30 2743 C 267.283 2.01557 0.488833 0
M  V30 2744 C 267.708 1.0463 1.56314 0
M  V30 2745 O 267.066 0.0251304 1.81283 0
M  V30 2746 C 267.114 3.4503 1.04818 0
M  V30 2747 O 266.218 3.51163 2.16236 0
M  V30 2748 H 265.559 0.653516 0.117526 0
M  V30 2749 H 268.089 2.02818 -0.269421 0
M  V30 2750 H 268.099 3.84243 1.37191 0
M  V30 2751 H 266.774 4.15077 0.261572 0
M  V30 2752 H 265.351 3.23807 1.84942 0
M  V30 2753 N 267.536 -0.106894 1.57237 0
M  V30 2754 C 268.766 -0.825191 1.89405 0
M  V30 2755 C 269.174 -1.73374 0.757496 0
M  V30 2756 O 268.517 -1.81552 -0.280115 0
M  V30 2757 C 268.579 -1.70102 3.1671 0
M  V30 2758 C 268.243 -0.965523 4.46684 0
M  V30 2759 C 269.24 -0.300741 5.19029 0
M  V30 2760 C 266.925 -0.943105 4.93367 0
M  V30 2761 C 268.919 0.376622 6.36286 0
M  V30 2762 C 266.606 -0.261949 6.10538 0
M  V30 2763 C 267.604 0.396748 6.81847 0
M  V30 2764 O 267.292 1.06701 7.96787 0
M  V30 2765 H 267.024 -0.241852 0.631255 0
M  V30 2766 H 269.578 -0.0921491 2.05193 0
M  V30 2767 H 267.808 -2.47601 2.97036 0
M  V30 2768 H 269.497 -2.29483 3.34802 0
M  V30 2769 H 270.263 -0.309599 4.84011 0
M  V30 2770 H 266.142 -1.44524 4.3776 0
M  V30 2771 H 269.686 0.891334 6.91882 0
M  V30 2772 H 265.583 -0.250896 6.45012 0
M  V30 2773 H 266.351 0.972707 8.127 0
M  V30 2774 N 269.014 -1.53014 -0.377408 0
M  V30 2775 C 269.964 -1.74996 -1.46152 0
M  V30 2776 C 270.948 -0.604236 -1.49123 0
M  V30 2777 O 272.14 -0.862489 -1.54564 0
M  V30 2778 C 269.269 -1.93267 -2.8373 0
M  V30 2779 C 268.355 -3.13807 -2.85283 0
M  V30 2780 N 268.746 -4.35941 -2.56493 0
M  V30 2781 C 267.044 -3.14288 -3.16448 0
M  V30 2782 C 267.745 -5.17615 -2.65424 0
M  V30 2783 N 266.721 -4.53559 -2.99641 0
M  V30 2784 H 270.523 -2.67044 -1.22738 0
M  V30 2785 H 268.037 -1.51479 -0.585479 0
M  V30 2786 H 270.034 -2.0714 -3.61799 0
M  V30 2787 H 268.694 -1.0244 -3.08117 0
M  V30 2788 H 269.705 -4.63876 -2.30302 0
M  V30 2789 H 266.382 -2.33312 -3.46225 0
M  V30 2790 H 267.772 -6.25006 -2.46612 0
M  V30 2791 N 270.492 0.636531 -1.44174 0
M  V30 2792 C 271.732 1.40781 -1.48189 0
M  V30 2793 C 272.096 1.91688 -0.10944 0
M  V30 2794 O 273.297 2.68789 -0.0242741 0
M  V30 2795 C 271.568 2.54575 -2.50851 0
M  V30 2796 S 273.127 3.4284 -2.73873 0
M  V30 2797 H 269.945 0.480345 -0.524204 0
M  V30 2798 H 272.547 0.737416 -1.81059 0
M  V30 2799 H 271.251 2.15478 -3.49281 0
M  V30 2800 H 270.782 3.26447 -2.19536 0
M  V30 2801 H 272.797 4.51846 -2.05059 0
M  V30 2802 N 271.97 1.30982 0.876444 0
M  V30 2803 C 273.195 1.23373 1.66715 0
M  V30 2804 C 273.62 -0.19885 1.87046 0
M  V30 2805 O 272.978 -1.1427 1.40756 0
M  V30 2806 C 273.026 1.97644 3.01611 0
M  V30 2807 O 272.13 1.30935 3.91062 0
M  V30 2808 H 271.471 0.426279 0.509099 0
M  V30 2809 H 274.001 1.72944 1.09323 0
M  V30 2810 H 274.011 2.06992 3.51594 0
M  V30 2811 H 272.686 3.01829 2.86133 0
M  V30 2812 H 271.263 1.29996 3.49507 0
M  V30 2813 N 273.449 -1.08991 1.13837 0
M  V30 2814 C 274.689 -1.82867 0.913183 0
M  V30 2815 C 275.053 -1.83936 -0.550604 0
M  V30 2816 O 276.254 -2.53515 -0.893515 0
M  V30 2817 C 274.525 -3.24843 1.49036 0
M  V30 2818 S 276.084 -4.15669 1.40588 0
M  V30 2819 H 272.902 -0.630278 0.329046 0
M  V30 2820 H 275.504 -1.31049 1.45073 0
M  V30 2821 H 274.208 -3.21644 2.54899 0
M  V30 2822 H 273.739 -3.81734 0.950947 0
M  V30 2823 H 275.754 -4.94686 0.387353 0
M  V30 2824 N 274.927 -0.932562 -1.27047 0
M  V30 2825 C 275.874 -0.434072 -2.26681 0
M  V30 2826 C 276.844 0.501639 -1.58344 0
M  V30 2827 O 278.029 0.419734 -1.86126 0
M  V30 2828 C 275.169 0.30261 -3.43771 0
M  V30 2829 C 274.282 -0.667774 -4.26808 0
M  V30 2830 C 273.417 0.0892393 -5.31125 0
M  V30 2831 C 272.456 -0.873532 -6.05835 0
M  V30 2832 N 271.593 -0.148832 -7.01942 0
M  V30 2833 H 276.433 -1.28868 -2.68695 0
M  V30 2834 H 273.97 -0.646713 -1.32121 0
M  V30 2835 H 275.928 0.746092 -4.10474 0
M  V30 2836 H 274.558 1.12142 -3.02695 0
M  V30 2837 H 273.61 -1.22978 -3.59973 0
M  V30 2838 H 274.922 -1.40337 -4.78651 0
M  V30 2839 H 274.076 0.592409 -6.03801 0
M  V30 2840 H 272.815 0.85777 -4.80097 0
M  V30 2841 H 271.82 -1.38791 -5.31994 0
M  V30 2842 H 273.045 -1.64193 -6.58952 0
M  V30 2843 H 270.991 0.601365 -6.53238 0
M  V30 2844 H 270.908 -0.82391 -7.51497 0
M  V30 2845 H 272.176 0.333527 -7.78786 0
M  V30 2846 N 276.405 1.4127 -0.698611 0
M  V30 2847 C 277.353 2.32588 -0.023855 0
M  V30 2848 C 278.347 1.51128 0.765292 0
M  V30 2849 O 279.553 1.67043 0.670571 0
M  V30 2850 H 275.928 0.751918 0.0110871 0
M  V30 2851 H 277.899 2.87167 -0.811031 0
M  V30 2852 C 276.648 3.35947 0.896369 0
M  V30 2853 H 275.971 3.98684 0.298548 0
M  V30 2854 H 277.411 4.02376 1.33676 0
M  V30 2855 C 275.87 2.70076 2.01396 0
M  V30 2856 O 276.4 2.55093 3.10307 0
M  V30 2857 N 274.606 2.28724 1.79259 0
M  V30 2858 H 274.153 2.4111 0.906841 0
M  V30 2859 H 274.111 1.84986 2.54219 0
M  V30 2860 N 277.883 0.443576 1.51229 0
M  V30 2861 C 279.131 -0.120557 2.0174 0
M  V30 2862 C 279.452 -1.42665 1.32935 0
M  V30 2863 O 278.722 -1.9028 0.465866 0
M  V30 2864 H 277.302 -0.0475426 0.745486 0
M  V30 2865 H 279.964 0.587711 1.85828 0
M  V30 2866 H 279.06 -0.291972 3.10731 0
M  V30 2867 N 279.361 -1.56624 0.175154 0
M  V30 2868 C 280.608 -1.96999 -0.468811 0
M  V30 2869 C 280.936 -1.06129 -1.62994 0
M  V30 2870 O 280.191 -0.0961771 -1.95464 0
M  V30 2871 C 280.49 -3.43419 -0.989864 0
M  V30 2872 C 280.156 -4.50866 0.0557687 0
M  V30 2873 C 278.818 -4.79975 0.343134 0
M  V30 2874 C 281.17 -5.15551 0.765308 0
M  V30 2875 C 278.498 -5.71066 1.34536 0
M  V30 2876 C 280.85 -6.07724 1.75654 0
M  V30 2877 C 279.514 -6.35199 2.05132 0
M  V30 2878 H 278.784 -0.720869 -0.17155 0
M  V30 2879 H 281.431 -1.89616 0.267924 0
M  V30 2880 H 279.736 -3.47772 -1.80449 0
M  V30 2881 H 281.433 -3.72002 -1.49719 0
M  V30 2882 H 278.023 -4.28229 -0.178381 0
M  V30 2883 H 282.207 -4.9317 0.556513 0
M  V30 2884 H 277.463 -5.90635 1.57988 0
M  V30 2885 H 281.637 -6.56912 2.31169 0
M  V30 2886 H 279.264 -7.05584 2.8294 0
M  V30 2887 N 280.839 0.0985539 -1.57292 0
M  V30 2888 C 282.085 0.803867 -1.86188 0
M  V30 2889 C 282.418 1.78549 -0.763794 0
M  V30 2890 O 281.693 1.93153 0.22855 0
M  V30 2891 C 281.976 1.53568 -3.25713 0
M  V30 2892 C 281.829 0.572277 -4.46145 0
M  V30 2893 C 283.148 2.48708 -3.63087 0
M  V30 2894 H 280.267 0.290781 -0.677211 0
M  V30 2895 H 282.909 0.0675783 -1.8988 0
M  V30 2896 H 281.059 2.16332 -3.22696 0
M  V30 2897 H 282.731 -0.0480894 -4.61275 0
M  V30 2898 H 280.974 -0.114618 -4.33649 0
M  V30 2899 H 281.645 1.12139 -5.40489 0
M  V30 2900 H 284.121 1.96039 -3.67026 0
M  V30 2901 H 282.997 2.96932 -4.61652 0
M  V30 2902 H 283.258 3.32309 -2.91588 0
M  V30 2903 N 282.317 1.53212 0.369288 0
M  V30 2904 C 283.25 1.74166 1.4745 0
M  V30 2905 C 284.228 0.589923 1.51521 0
M  V30 2906 O 285.412 0.822078 1.69629 0
M  V30 2907 C 282.539 1.81711 2.8583 0
M  V30 2908 C 281.585 3.03649 2.99499 0
M  V30 2909 S 282.418 4.63242 2.6864 0
M  V30 2910 C 283.574 4.7363 4.09177 0
M  V30 2911 H 283.807 2.67636 1.29454 0
M  V30 2912 H 281.34 1.43754 0.563396 0
M  V30 2913 H 283.298 1.86743 3.65564 0
M  V30 2914 H 281.959 0.89299 3.01139 0
M  V30 2915 H 281.152 3.05526 4.00836 0
M  V30 2916 H 280.754 2.9671 2.27683 0
M  V30 2917 H 283.046 4.53456 5.03372 0
M  V30 2918 H 283.989 5.75682 4.12306 0
M  V30 2919 H 284.397 4.02295 3.96004 0
M  V30 2920 N 283.795 -0.628877 1.44509 0
M  V30 2921 C 284.725 -1.75187 1.54376 0
M  V30 2922 C 285.706 -1.65411 0.396618 0
M  V30 2923 O 286.891 -1.84137 0.617031 0
M  V30 2924 C 284.021 -3.13725 1.48976 0
M  V30 2925 C 282.975 -3.38291 2.62189 0
M  V30 2926 C 282.301 -4.76883 2.41841 0
M  V30 2927 C 283.601 -3.30632 4.04326 0
M  V30 2928 H 285.295 -1.67187 2.48373 0
M  V30 2929 H 282.841 -0.802909 1.19538 0
M  V30 2930 H 284.794 -3.92064 1.54478 0
M  V30 2931 H 283.518 -3.22515 0.514961 0
M  V30 2932 H 282.177 -2.62334 2.56079 0
M  V30 2933 H 281.825 -4.82378 1.42548 0
M  V30 2934 H 281.525 -4.94278 3.17747 0
M  V30 2935 H 283.049 -5.57449 2.49165 0
M  V30 2936 H 284.463 -3.98873 4.11793 0
M  V30 2937 H 282.86 -3.59561 4.80454 0
M  V30 2938 H 283.93 -2.28404 4.27738 0
M  V30 2939 N 285.273 -1.31445 -0.869486 0
M  V30 2940 C 286.498 -1.24256 -1.66058 0
M  V30 2941 C 286.923 0.188928 -1.87149 0
M  V30 2942 O 286.281 1.13522 -1.4136 0
M  V30 2943 C 286.329 -1.9924 -3.00559 0
M  V30 2944 O 285.433 -1.33007 -3.90362 0
M  V30 2945 H 284.774 -0.428973 -0.506831 0
M  V30 2946 H 287.304 -1.73521 -1.08404 0
M  V30 2947 H 287.314 -2.08854 -3.50491 0
M  V30 2948 H 285.989 -3.03342 -2.84528 0
M  V30 2949 H 284.566 -1.31848 -3.48813 0
M  V30 2950 N 286.751 1.08385 -1.14413 0
M  V30 2951 C 287.699 2.17406 -0.826888 0
M  V30 2952 C 288.693 1.6827 0.195312 0
M  V30 2953 O 289.899 1.79927 0.0513892 0
M  V30 2954 H 286.274 0.70934 -0.249681 0
M  V30 2955 H 288.245 2.41388 -1.75426 0
M  V30 2956 C 286.994 3.46215 -0.320979 0
M  V30 2957 H 286.317 3.84401 -1.0989 0
M  V30 2958 H 287.757 4.23777 -0.137549 0
M  V30 2959 C 286.216 3.23067 0.955472 0
M  V30 2960 O 286.746 3.4668 2.02918 0
M  V30 2961 N 284.952 2.7661 0.890798 0
M  V30 2962 H 284.499 2.57594 0.0168815 0
M  V30 2963 H 284.457 2.61501 1.74542 0
M  V30 2964 N 288.23 0.939286 1.26551 0
M  V30 2965 C 289.177 0.446088 2.26448 0
M  V30 2966 C 290.147 -0.493234 1.58608 0
M  V30 2967 O 291.332 -0.409857 1.86346 0
M  V30 2968 C 288.472 -0.284375 3.43926 0
M  V30 2969 C 287.585 0.690399 4.26448 0
M  V30 2970 C 286.72 -0.0610712 5.31165 0
M  V30 2971 C 285.759 0.905649 6.05363 0
M  V30 2972 N 284.896 0.186055 7.01853 0
M  V30 2973 H 289.736 1.30291 2.68008 0
M  V30 2974 H 287.273 0.65371 1.31776 0
M  V30 2975 H 289.231 -0.724313 4.10864 0
M  V30 2976 H 287.861 -1.10535 3.03285 0
M  V30 2977 H 286.913 1.24885 3.59316 0
M  V30 2978 H 288.225 1.42873 4.779 0
M  V30 2979 H 287.379 -0.56038 6.04106 0
M  V30 2980 H 286.118 -0.832297 4.80546 0
M  V30 2981 H 285.123 1.4161 5.3125 0
M  V30 2982 H 286.348 1.67685 6.58072 0
M  V30 2983 H 284.294 -0.566714 6.53548 0
M  V30 2984 H 284.211 0.863752 7.51049 0
M  V30 2985 H 285.479 -0.292221 7.78952 0
M  V30 2986 N 289.708 -1.40897 0.706093 0
M  V30 2987 C 290.655 -2.30751 0.0474474 0
M  V30 2988 C 291.625 -1.47678 -0.76029 0
M  V30 2989 O 292.81 -1.76441 -0.726177 0
M  V30 2990 C 289.95 -3.33815 -0.875309 0
M  V30 2991 C 289.063 -4.31961 -0.0580623 0
M  V30 2992 C 288.198 -5.22093 -0.979425 0
M  V30 2993 C 287.237 -6.11902 -0.155706 0
M  V30 2994 N 286.374 -6.94482 -1.03144 0
M  V30 2995 H 291.214 -2.86513 0.819413 0
M  V30 2996 H 288.751 -1.41102 0.415783 0
M  V30 2997 H 290.709 -3.92129 -1.42446 0
M  V30 2998 H 289.339 -2.79579 -1.61356 0
M  V30 2999 H 288.391 -3.75507 0.608147 0
M  V30 3000 H 289.703 -4.95415 0.580082 0
M  V30 3001 H 288.857 -5.85292 -1.59744 0
M  V30 3002 H 287.596 -4.5889 -1.65141 0
M  V30 3003 H 286.601 -5.47742 0.475309 0
M  V30 3004 H 287.826 -6.77162 0.512635 0
M  V30 3005 H 285.772 -6.33877 -1.68924 0
M  V30 3006 H 285.689 -7.54665 -0.449108 0
M  V30 3007 H 286.957 -7.6214 -1.63593 0
M  V30 3008 N 291.186 -0.45159 -1.50991 0
M  V30 3009 C 292.463 0.170707 -1.94854 0
M  V30 3010 C 292.843 1.58788 -1.39103 0
M  V30 3011 O 292.191 2.20913 -0.583921 0
M  V30 3012 C 292.401 0.133929 -3.48743 0
M  V30 3013 C 293.749 0.33248 -4.23296 0
M  V30 3014 O 294.773 0.211403 -3.55572 0
M  V30 3015 O 293.632 0.57486 -5.43468 0
M  V30 3016 H 290.726 0.122264 -0.817912 0
M  V30 3017 H 293.272 -0.510594 -1.61836 0
M  V30 3018 H 292.044 -0.856283 -3.81816 0
M  V30 3019 H 291.667 0.857529 -3.88242 0
M  V30 3020 N 292.664 1.56529 -0.183458 0
M  V30 3021 C 293.904 1.99141 0.460667 0
M  V30 3022 C 294.268 1.06736 1.59597 0
M  V30 3023 O 295.469 1.38538 2.30349 0
M  V30 3024 C 293.74 3.45358 0.919939 0
M  V30 3025 S 295.299 4.09999 1.56354 0
M  V30 3026 H 292.117 0.695479 0.147748 0
M  V30 3027 H 294.719 1.93429 -0.283782 0
M  V30 3028 H 293.423 4.10315 0.0834208 0
M  V30 3029 H 292.954 3.54862 1.69814 0
M  V30 3030 H 294.969 4.06046 2.85203 0
M  V30 3031 N 294.142 -0.090211 1.57342 0
M  V30 3032 C 295.089 -1.10909 2.02405 0
M  V30 3033 C 296.059 -1.39523 0.901252 0
M  V30 3034 O 297.244 -1.50903 1.1676 0
M  V30 3035 C 294.384 -2.42277 2.45755 0
M  V30 3036 C 293.497 -2.20352 3.71576 0
M  V30 3037 C 292.632 -3.45154 4.03785 0
M  V30 3038 C 291.671 -3.18512 5.22701 0
M  V30 3039 N 290.808 -4.35593 5.50639 0
M  V30 3040 H 295.648 -0.71782 2.89225 0
M  V30 3041 H 293.185 -0.342901 1.43048 0
M  V30 3042 H 295.143 -3.18951 2.68935 0
M  V30 3043 H 293.773 -2.79242 1.61938 0
M  V30 3044 H 292.825 -1.34458 3.55844 0
M  V30 3045 H 294.137 -1.96661 4.58395 0
M  V30 3046 H 293.291 -4.30233 4.27767 0
M  V30 3047 H 292.03 -3.71904 3.15498 0
M  V30 3048 H 291.035 -2.31827 4.98534 0
M  V30 3049 H 292.26 -2.93103 6.12591 0
M  V30 3050 H 290.206 -4.6241 4.6531 0
M  V30 3051 H 290.123 -4.1511 6.31838 0
M  V30 3052 H 291.391 -5.21723 5.7916 0
M  V30 3053 N 295.62 -1.53406 -0.361157 0
M  V30 3054 C 296.897 -1.60411 -1.11927 0
M  V30 3055 C 297.277 -0.414385 -2.06993 0
M  V30 3056 O 296.625 0.594976 -2.20618 0
M  V30 3057 C 296.835 -2.95652 -1.85448 0
M  V30 3058 C 298.183 -3.50386 -2.39823 0
M  V30 3059 O 299.207 -2.97711 -1.95568 0
M  V30 3060 O 298.066 -4.42482 -3.20737 0
M  V30 3061 H 295.16 -0.64811 -0.513695 0
M  V30 3062 H 297.706 -1.65749 -0.364065 0
M  V30 3063 H 296.478 -3.73682 -1.16091 0
M  V30 3064 H 296.101 -2.93825 -2.67866 0
M  V30 3065 N 297.098 0.621204 -1.44841 0
M  V30 3066 C 298.344 1.3826 -1.48365 0
M  V30 3067 C 298.677 1.93831 -0.119624 0
M  V30 3068 O 297.952 1.74251 0.864111 0
M  V30 3069 C 298.235 2.54058 -2.55199 0
M  V30 3070 C 298.088 2.03772 -4.00995 0
M  V30 3071 C 299.407 3.56225 -2.58442 0
M  V30 3072 H 296.526 0.501374 -0.540179 0
M  V30 3073 H 299.168 0.7015 -1.76576 0
M  V30 3074 H 297.318 3.12162 -2.31274 0
M  V30 3075 H 298.99 1.50423 -4.36086 0
M  V30 3076 H 297.233 1.34876 -4.12299 0
M  V30 3077 H 297.904 2.87185 -4.71411 0
M  V30 3078 H 300.38 3.07939 -2.79844 0
M  V30 3079 H 299.256 4.34756 -3.3508 0
M  V30 3080 H 299.517 4.10949 -1.63013 0
M  V30 3081 N 298.576 1.31904 0.862503 0
M  V30 3082 C 299.853 1.12644 1.59908 0
M  V30 3083 C 300.233 -0.316104 2.0872 0
M  V30 3084 O 299.581 -1.31145 1.87118 0
M  V30 3085 C 299.791 2.1472 2.7513 0
M  V30 3086 C 301.139 2.47637 3.44907 0
M  V30 3087 O 302.163 2.13205 2.85346 0
M  V30 3088 O 301.022 3.06632 4.52371 0
M  V30 3089 H 298.116 0.43416 0.703871 0
M  V30 3090 H 300.662 1.43408 0.907314 0
M  V30 3091 H 299.434 3.1172 2.3653 0
M  V30 3092 H 299.057 1.84905 3.51989 0
M  V30 3093 N 300.054 -1.07777 1.14986 0
M  V30 3094 C 300.964 -2.18404 0.856546 0
M  V30 3095 C 301.98 -1.73211 -0.165485 0
M  V30 3096 O 303.156 -2.01399 0.00755219 0
M  V30 3097 C 300.221 -3.44977 0.34526 0
M  V30 3098 C 299.282 -4.0476 1.43065 0
M  V30 3099 C 298.515 -5.25291 0.943663 0
M  V30 3100 O 298.738 -5.70004 -0.212426 0
M  V30 3101 O 297.672 -5.76638 1.72547 0
M  V30 3102 H 301.498 -2.45978 1.78125 0
M  V30 3103 H 299.083 -1.17033 0.928631 0
M  V30 3104 H 300.965 -4.21348 0.0663671 0
M  V30 3105 H 299.64 -3.18965 -0.551631 0
M  V30 3106 H 298.547 -3.29949 1.76309 0
M  V30 3107 H 299.88 -4.35035 2.30229 0
M  V30 3108 N 301.532 -0.945985 -1.26051 0
M  V30 3109 C 302.772 -0.603665 -1.95282 0
M  V30 3110 C 303.136 0.842377 -1.72534 0
M  V30 3111 O 304.337 1.29387 -2.35611 0
M  V30 3112 C 302.608 -0.942292 -3.44754 0
M  V30 3113 S 304.167 -0.711242 -4.32997 0
M  V30 3114 H 300.985 -0.222176 -0.675395 0
M  V30 3115 H 303.587 -1.21832 -1.52896 0
M  V30 3116 H 302.291 -1.99203 -3.58812 0
M  V30 3117 H 301.822 -0.317546 -3.92116 0
M  V30 3118 H 303.837 0.422221 -4.944 0
M  V30 3119 N 303.011 1.40521 -0.713556 0
M  V30 3120 C 304.236 2.05759 -0.26035 0
M  V30 3121 C 304.661 1.53403 1.08854 0
M  V30 3122 O 304.019 0.668535 1.68524 0
M  V30 3123 C 304.067 3.59745 -0.248122 0
M  V30 3124 O 303.171 4.05123 0.77131 0
M  V30 3125 H 302.512 0.652564 -0.122703 0
M  V30 3126 H 305.042 1.79958 -0.973467 0
M  V30 3127 H 305.052 4.07911 -0.0851129 0
M  V30 3128 H 303.727 3.97218 -1.2325 0
M  V30 3129 H 302.304 3.68422 0.57619 0
M  V30 3130 N 304.489 0.459591 1.5075 0
M  V30 3131 C 305.419 -0.330644 2.31147 0
M  V30 3132 C 306.4 -1.00087 1.37538 0
M  V30 3133 O 307.585 -1.00025 1.66459 0
M  V30 3134 C 304.715 -1.41958 3.16962 0
M  V30 3135 C 303.669 -0.871608 4.19031 0
M  V30 3136 C 302.995 -2.05797 4.9351 0
M  V30 3137 C 304.295 0.109251 5.22186 0
M  V30 3138 H 305.989 0.340336 2.97459 0
M  V30 3139 H 303.535 0.165119 1.4305 0
M  V30 3140 H 305.488 -1.9798 3.71997 0
M  V30 3141 H 304.212 -2.11917 2.48513 0
M  V30 3142 H 302.871 -0.333442 3.6508 0
M  V30 3143 H 302.519 -2.74427 4.21544 0
M  V30 3144 H 302.219 -1.6976 5.62544 0
M  V30 3145 H 303.743 -2.62331 5.51375 0
M  V30 3146 H 305.157 -0.361405 5.7216 0
M  V30 3147 H 303.554 0.383316 5.98875 0
M  V30 3148 H 304.624 1.03887 4.73641 0
M  V30 3149 N 305.967 -1.56429 0.191757 0
M  V30 3150 C 306.914 -2.18936 -0.730454 0
M  V30 3151 C 307.884 -1.13557 -1.21219 0
M  V30 3152 O 309.069 -1.41794 -1.27668 0
M  V30 3153 C 306.209 -2.85013 -1.9458 0
M  V30 3154 C 305.322 -4.04909 -1.50574 0
M  V30 3155 C 304.457 -4.58853 -2.67634 0
M  V30 3156 C 303.496 -5.71114 -2.20217 0
M  V30 3157 N 302.633 -6.19478 -3.30442 0
M  V30 3158 H 307.473 -2.97389 -0.190664 0
M  V30 3159 H 305.01 -1.46869 -0.0823694 0
M  V30 3160 H 306.968 -3.21492 -2.65893 0
M  V30 3161 H 305.598 -2.09129 -2.45896 0
M  V30 3162 H 304.65 -3.74115 -0.688605 0
M  V30 3163 H 305.962 -4.86113 -1.11784 0
M  V30 3164 H 305.116 -4.97619 -3.47074 0
M  V30 3165 H 303.855 -3.76749 -3.09696 0
M  V30 3166 H 302.86 -5.31879 -1.3923 0
M  V30 3167 H 304.085 -6.55033 -1.79189 0
M  V30 3168 H 302.031 -5.40297 -3.72041 0
M  V30 3169 H 301.948 -6.95725 -2.9581 0
M  V30 3170 H 303.216 -6.62898 -4.10106 0
M  V30 3171 N 307.445 0.0818655 -1.57387 0
M  V30 3172 C 308.856 0.634871 -1.75574 0
M  V30 3173 C 309.207 1.78435 -0.815809 0
M  V30 3174 O 308.332 2.164 0.0025366 0
M  V30 3175 C 308.927 1.15845 -3.18379 0
M  V30 3176 C 307.486 1.65741 -3.37945 0
M  V30 3177 C 306.633 0.572549 -2.71325 0
M  V30 3178 H 309.584 -0.144268 -1.58043 0
M  V30 3179 H 309.605 2.02751 -3.21982 0
M  V30 3180 H 309.117 0.321631 -3.86765 0
M  V30 3181 H 307.218 2.51781 -2.74658 0
M  V30 3182 H 307.331 1.74129 -4.46336 0
M  V30 3183 H 305.695 1.01518 -2.33594 0
M  V30 3184 H 306.478 -0.253918 -3.4236 0
M  V30 3185 N 308.923 1.53595 0.353017 0
M  V30 3186 C 310.148 1.7462 1.11904 0
M  V30 3187 C 310.573 0.479721 1.8188 0
M  V30 3188 O 309.931 -0.567066 1.72204 0
M  V30 3189 C 309.979 2.92029 2.11545 0
M  V30 3190 O 309.083 2.61516 3.18878 0
M  V30 3191 H 308.424 0.579531 0.324099 0
M  V30 3192 H 310.954 2.00525 0.406301 0
M  V30 3193 H 310.964 3.18551 2.5493 0
M  V30 3194 H 309.639 3.83888 1.60008 0
M  V30 3195 H 308.216 2.45852 2.80377 0
M  V30 3196 N 310.401 -0.613514 1.45168 0
M  V30 3197 C 311.65 -1.36874 1.4815 0
M  V30 3198 C 311.963 -1.952 0.124982 0
M  V30 3199 O 313.169 -2.71481 0.0324176 0
M  V30 3200 C 311.625 -2.47905 2.60904 0
M  V30 3201 C 311.233 -1.96016 4.02842 0
M  V30 3202 C 312.977 -3.24965 2.73126 0
M  V30 3203 C 310.884 -3.04494 5.06988 0
M  V30 3204 H 309.814 -0.514428 0.551253 0
M  V30 3205 H 312.465 -0.658182 1.7129 0
M  V30 3206 H 310.847 -3.21618 2.31037 0
M  V30 3207 H 312.021 -1.29051 4.4236 0
M  V30 3208 H 310.336 -1.31719 3.95018 0
M  V30 3209 H 312.933 -4.05865 3.48106 0
M  V30 3210 H 313.276 -3.75588 1.79553 0
M  V30 3211 H 313.809 -2.5835 3.0249 0
M  V30 3212 H 310.548 -2.58795 6.0225 0
M  V30 3213 H 310.068 -3.70044 4.72046 0
M  V30 3214 H 311.747 -3.68976 5.31475 0
M  V30 3215 N 311.879 -1.3236 -0.855495 0
M  V30 3216 C 313.119 -1.24187 -1.62348 0
M  V30 3217 C 313.483 0.193597 -1.91021 0
M  V30 3218 O 314.684 0.39904 -2.65822 0
M  V30 3219 C 312.955 -2.07661 -2.90881 0
M  V30 3220 S 314.514 -2.16505 -3.81669 0
M  V30 3221 H 311.332 -0.442076 -0.556857 0
M  V30 3222 H 313.934 -1.67198 -1.01317 0
M  V30 3223 H 312.638 -3.11018 -2.67761 0
M  V30 3224 H 312.169 -1.65425 -3.56929 0
M  V30 3225 H 314.184 -1.31394 -4.78487 0
M  V30 3226 N 313.357 1.07166 -1.15556 0
M  V30 3227 C 314.605 1.79443 -0.929764 0
M  V30 3228 C 314.926 1.87246 0.544414 0
M  V30 3229 O 314.196 1.37473 1.39564 0
M  V30 3230 H 312.776 0.664625 -0.341003 0
M  V30 3231 H 315.438 1.29499 -1.45657 0
M  V30 3232 H 314.534 2.81832 -1.34079 0
M  V30 3233 N 314.835 0.952656 1.25548 0
M  V30 3234 C 316.063 0.623496 1.97282 0
M  V30 3235 C 316.478 -0.803987 1.70826 0
M  V30 3236 O 315.835 -1.53755 0.983147 0
M  V30 3237 C 315.886 0.870209 3.5087 0
M  V30 3238 O 315.607 2.24156 3.76412 0
M  V30 3239 C 317.108 0.553164 4.39835 0
M  V30 3240 H 314.328 0.233931 0.628902 0
M  V30 3241 H 316.872 1.27649 1.59768 0
M  V30 3242 H 315.027 0.263652 3.86502 0
M  V30 3243 H 315.441 2.31021 4.70882 0
M  V30 3244 H 316.915 0.776342 5.46513 0
M  V30 3245 H 317.392 -0.512215 4.36203 0
M  V30 3246 H 317.998 1.13896 4.09766 0
M  V30 3247 N 316.313 -1.40141 0.720998 0
M  V30 3248 C 317.276 -2.29058 0.0805834 0
M  V30 3249 C 318.276 -1.45632 -0.681758 0
M  V30 3250 O 319.466 -1.6648 -0.512856 0
M  V30 3251 C 316.598 -3.28925 -0.895593 0
M  V30 3252 H 317.791 -2.87191 0.863793 0
M  V30 3253 H 315.344 -1.48553 0.485975 0
M  V30 3254 H 316.079 -2.75822 -1.70566 0
M  V30 3255 H 315.864 -3.90519 -0.351766 0
M  V30 3256 H 317.354 -3.95494 -1.34069 0
M  V30 3257 N 317.792 -0.46758 -1.50504 0
M  V30 3258 C 319.038 0.0887532 -2.02606 0
M  V30 3259 C 319.371 1.39686 -1.34913 0
M  V30 3260 O 318.646 1.88644 -0.473694 0
M  V30 3261 C 318.929 0.276206 -3.59039 0
M  V30 3262 C 318.782 -1.05267 -4.37309 0
M  V30 3263 C 320.101 1.03235 -4.27821 0
M  V30 3264 H 317.22 0.0307814 -0.736357 0
M  V30 3265 H 319.862 -0.612485 -1.79857 0
M  V30 3266 H 318.012 0.8735 -3.78553 0
M  V30 3267 H 319.684 -1.68628 -4.29374 0
M  V30 3268 H 317.927 -1.65015 -4.01189 0
M  V30 3269 H 318.598 -0.875197 -5.45018 0
M  V30 3270 H 321.074 0.526111 -4.12761 0
M  V30 3271 H 319.95 1.1323 -5.37094 0
M  V30 3272 H 320.211 2.06806 -3.90748 0
M  V30 3273 N 319.27 1.56325 -0.20005 0
M  V30 3274 C 320.51 1.99619 0.439519 0
M  V30 3275 C 320.874 1.08423 1.58456 0
M  V30 3276 O 322.075 1.40973 2.28867 0
M  V30 3277 C 320.346 3.46314 0.883258 0
M  V30 3278 S 321.905 4.11634 1.51997 0
M  V30 3279 H 318.723 0.697007 0.140363 0
M  V30 3280 H 321.325 1.93118 -0.304282 0
M  V30 3281 H 320.029 4.10381 0.0398967 0
M  V30 3282 H 319.56 3.56643 1.6604 0
M  V30 3283 H 321.575 4.09049 2.8088 0
M  V30 3284 N 320.748 -0.0735177 1.57428 0
M  V30 3285 C 321.695 -1.08756 2.0357 0
M  V30 3286 C 322.665 -1.38559 0.916 0
M  V30 3287 O 323.85 -1.49656 1.18354 0
M  V30 3288 C 320.99 -2.39657 2.48311 0
M  V30 3289 C 320.103 -2.16399 3.73892 0
M  V30 3290 C 319.238 -3.40852 4.07423 0
M  V30 3291 C 318.277 -3.1295 5.2605 0
M  V30 3292 N 317.414 -4.29729 5.55228 0
M  V30 3293 H 322.254 -0.687104 2.8997 0
M  V30 3294 H 319.791 -0.327709 1.43403 0
M  V30 3295 H 321.749 -3.16081 2.72303 0
M  V30 3296 H 320.379 -2.77508 1.64891 0
M  V30 3297 H 319.431 -1.30676 3.57251 0
M  V30 3298 H 320.743 -1.91788 4.60455 0
M  V30 3299 H 319.897 -4.25671 4.32306 0
M  V30 3300 H 318.636 -3.68537 3.19425 0
M  V30 3301 H 317.641 -2.26526 5.00965 0
M  V30 3302 H 318.866 -2.86589 6.15665 0
M  V30 3303 H 316.812 -4.57448 4.70188 0
M  V30 3304 H 316.729 -4.08385 6.36206 0
M  V30 3305 H 317.997 -5.1555 5.84661 0
M  V30 3306 N 322.226 -1.5378 -0.344866 0
M  V30 3307 C 323.174 -1.82373 -1.4437 0
M  V30 3308 C 324.168 -0.694128 -1.54526 0
M  V30 3309 O 325.374 -0.877442 -1.57165 0
M  V30 3310 H 321.749 -0.577765 -0.481344 0
M  V30 3311 H 323.72 -2.74306 -1.17468 0
M  V30 3312 C 322.469 -2.04898 -2.80913 0
M  V30 3313 H 321.792 -2.9127 -2.73865 0
M  V30 3314 H 323.232 -2.28871 -3.56923 0
M  V30 3315 C 321.691 -0.834116 -3.26411 0
M  V30 3316 O 322.221 -0.0328885 -4.01687 0
M  V30 3317 N 320.427 -0.65171 -2.83198 0
M  V30 3318 H 319.974 -1.30489 -2.22104 0
M  V30 3319 H 319.932 0.159686 -3.13994 0
M  V30 3320 N 323.704 0.605807 -1.45491 0
M  V30 3321 C 324.953 1.36086 -1.48874 0
M  V30 3322 C 325.266 1.95131 -0.135333 0
M  V30 3323 O 326.472 2.7146 -0.0468144 0
M  V30 3324 C 324.928 2.46518 -2.62215 0
M  V30 3325 C 324.536 1.93877 -4.03876 0
M  V30 3326 C 326.28 3.23512 -2.74846 0
M  V30 3327 C 324.187 3.01801 -5.08596 0
M  V30 3328 H 323.117 0.511497 -0.553974 0
M  V30 3329 H 325.768 0.649089 -1.71636 0
M  V30 3330 H 324.15 3.20388 -2.32739 0
M  V30 3331 H 325.324 1.26704 -4.43038 0
M  V30 3332 H 323.639 1.29622 -3.95711 0
M  V30 3333 H 326.236 4.04013 -3.50253 0
M  V30 3334 H 326.579 3.74631 -1.81542 0
M  V30 3335 H 327.112 2.56742 -3.03856 0
M  V30 3336 H 323.851 2.55597 -6.03614 0
M  V30 3337 H 323.371 3.67535 -4.74002 0
M  V30 3338 H 325.05 3.66152 -5.33424 0
M  V30 3339 N 325.182 1.32811 0.848464 0
M  V30 3340 C 326.593 1.21315 1.41914 0
M  V30 3341 C 326.944 -0.171847 1.95446 0
M  V30 3342 O 326.069 -1.07093 1.88043 0
M  V30 3343 C 326.664 2.19631 2.57968 0
M  V30 3344 C 325.223 2.12003 3.11017 0
M  V30 3345 C 324.37 2.07651 1.83783 0
M  V30 3346 H 327.321 1.44549 0.655071 0
M  V30 3347 H 327.342 1.79845 3.35315 0
M  V30 3348 H 326.854 3.20423 2.18976 0
M  V30 3349 H 324.955 1.14481 3.54577 0
M  V30 3350 H 325.068 3.02111 3.71841 0
M  V30 3351 H 323.432 1.52983 2.03638 0
M  V30 3352 H 324.215 3.10235 1.47 0
M  V30 3353 N 326.66 -1.06551 1.16123 0
M  V30 3354 C 327.908 -1.78947 0.939267 0
M  V30 3355 C 328.229 -1.87532 -0.534476 0
M  V30 3356 O 327.499 -1.38211 -1.38833 0
M  V30 3357 H 326.079 -0.662807 0.344523 0
M  V30 3358 H 328.741 -1.28725 1.46342 0
M  V30 3359 H 327.837 -2.81117 1.35572 0
M  V30 3360 N 328.138 -0.959301 -1.25041 0
M  V30 3361 C 329.415 -0.533805 -1.88175 0
M  V30 3362 C 329.795 0.988994 -1.865 0
M  V30 3363 O 329.143 1.85677 -1.33177 0
M  V30 3364 C 329.353 -1.11575 -3.30684 0
M  V30 3365 C 330.701 -1.19548 -4.07423 0
M  V30 3366 O 331.725 -1.06765 -3.39823 0
M  V30 3367 O 330.584 -1.39656 -5.28354 0
M  V30 3368 H 327.678 -0.176772 -0.807887 0
M  V30 3369 H 330.224 -1.05303 -1.33076 0
M  V30 3370 H 328.996 -2.15884 -3.26358 0
M  V30 3371 H 328.619 -0.580059 -3.93346 0
M  V30 3372 N 329.616 1.39756 -0.72842 0
M  V30 3373 C 330.863 2.00645 -0.273487 0
M  V30 3374 C 331.191 1.57786 1.13727 0
M  V30 3375 O 330.446 0.794886 1.7883 0
M  V30 3376 C 330.745 3.56002 -0.315776 0
M  V30 3377 C 330.411 4.18489 -1.67863 0
M  V30 3378 C 329.073 4.3527 -2.05166 0
M  V30 3379 C 331.425 4.53219 -2.57375 0
M  V30 3380 C 328.753 4.84069 -3.31503 0
M  V30 3381 C 331.105 5.03423 -3.83077 0
M  V30 3382 C 329.769 5.18413 -4.20481 0
M  V30 3383 H 329.039 0.734211 -0.100076 0
M  V30 3384 H 331.686 1.6718 -0.933972 0
M  V30 3385 H 329.991 3.89452 0.428285 0
M  V30 3386 H 331.688 4.00963 0.0542575 0
M  V30 3387 H 328.278 4.05824 -1.37858 0
M  V30 3388 H 332.462 4.39878 -2.29827 0
M  V30 3389 H 327.718 4.93859 -3.60435 0
M  V30 3390 H 331.892 5.2927 -4.52599 0
M  V30 3391 H 329.519 5.55987 -5.18443 0
M  V30 3392 N 331.094 0.475555 1.50254 0
M  V30 3393 C 332.004 -0.321501 2.32387 0
M  V30 3394 C 333.02 -0.991755 1.42969 0
M  V30 3395 O 334.196 -0.978747 1.76018 0
M  V30 3396 C 331.261 -1.38667 3.17762 0
M  V30 3397 C 330.322 -0.732538 4.23004 0
M  V30 3398 C 329.555 -1.74695 5.04299 0
M  V30 3399 O 329.778 -2.97399 4.86734 0
M  V30 3400 O 328.712 -1.31631 5.8733 0
M  V30 3401 H 332.538 0.350071 3.01676 0
M  V30 3402 H 330.123 0.237321 1.47503 0
M  V30 3403 H 332.005 -2.00354 3.70724 0
M  V30 3404 H 330.68 -2.04163 2.51196 0
M  V30 3405 H 329.587 -0.0765902 3.74022 0
M  V30 3406 H 330.92 -0.120452 4.92053 0
M  V30 3407 N 332.573 -1.56217 0.208337 0
M  V30 3408 C 333.813 -1.99849 -0.428927 0
M  V30 3409 C 334.177 -1.09262 -1.57879 0
M  V30 3410 O 335.378 -1.42185 -2.28116 0
M  V30 3411 C 333.649 -3.46777 -0.864879 0
M  V30 3412 S 335.208 -4.12434 -1.49811 0
M  V30 3413 H 332.026 -0.697742 -0.136665 0
M  V30 3414 H 334.628 -1.92953 0.314519 0
M  V30 3415 H 333.332 -4.10396 -0.0181326 0
M  V30 3416 H 332.863 -3.57518 -1.64147 0
M  V30 3417 H 334.878 -4.10532 -2.78707 0
M  V30 3418 N 334.051 0.0651679 -1.57465 0
M  V30 3419 C 334.961 1.09448 -2.07505 0
M  V30 3420 C 335.977 1.41974 -1.00595 0
M  V30 3421 O 337.153 1.52018 -1.32107 0
M  V30 3422 C 334.218 2.38689 -2.51453 0
M  V30 3423 C 333.279 2.13073 -3.72691 0
M  V30 3424 C 332.512 3.36152 -4.14533 0
M  V30 3425 O 332.735 4.45517 -3.56189 0
M  V30 3426 O 331.669 3.23974 -5.07272 0
M  V30 3427 H 335.495 0.69935 -2.95538 0
M  V30 3428 H 333.08 0.279752 -1.46757 0
M  V30 3429 H 334.962 3.14736 -2.80212 0
M  V30 3430 H 333.637 2.77568 -1.66546 0
M  V30 3431 H 332.544 1.34709 -3.49005 0
M  V30 3432 H 333.877 1.79071 -4.5847 0
M  V30 3433 N 335.529 1.53961 0.336706 0
M  V30 3434 C 336.769 1.73254 1.08454 0
M  V30 3435 C 337.133 0.488937 1.8567 0
M  V30 3436 O 338.334 0.559001 2.62923 0
M  V30 3437 C 336.605 2.96519 1.99528 0
M  V30 3438 S 338.164 3.36655 2.81441 0
M  V30 3439 H 334.982 0.609353 0.366347 0
M  V30 3440 H 337.584 1.92117 0.362124 0
M  V30 3441 H 336.288 3.85193 1.41614 0
M  V30 3442 H 335.819 2.80142 2.76196 0
M  V30 3443 H 337.834 2.90925 4.01967 0
M  V30 3444 N 337.007 -0.598083 1.45811 0
M  V30 3445 C 338.418 -1.18011 1.44673 0
M  V30 3446 C 338.769 -1.95378 0.179364 0
M  V30 3447 O 337.894 -2.04124 -0.718509 0
M  V30 3448 C 338.489 -2.14677 2.62105 0
M  V30 3449 C 337.048 -2.68236 2.64057 0
M  V30 3450 C 336.195 -1.43816 2.37091 0
M  V30 3451 H 339.146 -0.38686 1.53913 0
M  V30 3452 H 339.167 -2.97878 2.36746 0
M  V30 3453 H 338.679 -1.5834 3.5433 0
M  V30 3454 H 336.78 -3.28486 1.75864 0
M  V30 3455 H 336.893 -3.12021 3.63566 0
M  V30 3456 H 335.257 -1.731 1.86838 0
M  V30 3457 H 336.04 -0.893333 3.31473 0
M  V30 3458 N 338.485 -1.33259 -0.841409 0
M  V30 3459 C 339.395 -1.25332 -1.98316 0
M  V30 3460 C 340.411 -0.164364 -1.73222 0
M  V30 3461 O 341.587 -0.387486 -1.97637 0
M  V30 3462 C 338.652 -0.990078 -3.32262 0
M  V30 3463 C 337.713 -2.16879 -3.70489 0
M  V30 3464 C 336.946 -1.91801 -4.98044 0
M  V30 3465 O 337.169 -0.867075 -5.63771 0
M  V30 3466 O 336.103 -2.78267 -5.33714 0
M  V30 3467 H 339.929 -2.21344 -2.07944 0
M  V30 3468 H 337.514 -1.1328 -0.974058 0
M  V30 3469 H 339.396 -0.860321 -4.12524 0
M  V30 3470 H 338.071 -0.0602155 -3.23644 0
M  V30 3471 H 336.978 -2.35407 -2.90748 0
M  V30 3472 H 338.311 -3.0819 -3.8377 0
M  V30 3473 N 339.963 1.05934 -1.16686 0
M  V30 3474 C 341.211 1.78447 -0.948744 0
M  V30 3475 C 341.532 1.87813 0.524523 0
M  V30 3476 O 340.802 1.38945 1.38098 0
M  V30 3477 H 339.382 0.660971 -0.348033 0
M  V30 3478 H 342.044 1.27947 -1.47022 0
M  V30 3479 H 341.14 2.80394 -1.37061 0
M  V30 3480 N 341.441 0.965919 1.2453 0
M  V30 3481 C 342.671 0.643451 1.96324 0
M  V30 3482 C 343.079 -0.790927 1.71875 0
M  V30 3483 O 342.422 -1.54208 0.998273 0
M  V30 3484 C 342.484 0.836078 3.49643 0
M  V30 3485 C 342.148 2.24975 3.97788 0
M  V30 3486 C 343.145 3.22735 4.07601 0
M  V30 3487 C 340.83 2.57697 4.31158 0
M  V30 3488 C 342.824 4.51303 4.50116 0
M  V30 3489 C 340.511 3.86492 4.73357 0
M  V30 3490 C 341.509 4.83107 4.828 0
M  V30 3491 O 341.197 6.09605 5.24058 0
M  V30 3492 H 340.929 0.239223 0.632257 0
M  V30 3493 H 343.483 1.29587 1.59362 0
M  V30 3494 H 341.713 0.12649 3.86493 0
M  V30 3495 H 343.402 0.512965 4.02646 0
M  V30 3496 H 344.168 2.98783 3.82039 0
M  V30 3497 H 340.047 1.83216 4.23028 0
M  V30 3498 H 343.591 5.26716 4.57401 0
M  V30 3499 H 339.488 4.10245 4.98366 0
M  V30 3500 H 340.256 6.13146 5.42213 0
M  V30 3501 N 342.919 -1.39368 0.735821 0
M  V30 3502 C 344.335 -1.54204 0.411492 0
M  V30 3503 C 344.535 -1.70268 -1.07755 0
M  V30 3504 O 343.591 -1.70364 -1.86366 0
M  V30 3505 C 344.904 -2.75925 1.19523 0
M  V30 3506 C 346.452 -2.89761 1.18354 0
M  V30 3507 C 346.927 -4.14421 1.94986 0
M  V30 3508 N 348.418 -4.21462 1.92156 0
M  V30 3509 C 349.153 -5.16871 2.48258 0
M  V30 3510 N 348.649 -6.18063 3.13001 0
M  V30 3511 N 350.442 -5.09093 2.38287 0
M  V30 3512 H 342.593 -1.27189 1.70108 0
M  V30 3513 H 344.856 -0.616517 0.720147 0
M  V30 3514 H 344.562 -2.70401 2.24892 0
M  V30 3515 H 344.436 -3.68614 0.800222 0
M  V30 3516 H 346.823 -2.94777 0.137975 0
M  V30 3517 H 346.904 -1.98133 1.61793 0
M  V30 3518 H 346.548 -4.10166 2.99543 0
M  V30 3519 H 346.478 -5.05095 1.48953 0
M  V30 3520 H 348.969 -3.48979 1.44991 0
M  V30 3521 H 349.282 -6.87326 3.53275 0
M  V30 3522 H 347.627 -6.18448 3.17091 0
M  V30 3523 H 350.818 -4.28973 1.8735 0
M  V30 3524 H 350.991 -5.83272 2.82308 0
M  V30 3525 N 344.397 -0.483516 -1.5 0
M  V30 3526 C 345.627 0.0643896 -2.065 0
M  V30 3527 C 346.035 1.32949 -1.34615 0
M  V30 3528 O 345.378 1.79003 -0.412756 0
M  V30 3529 C 345.44 0.405983 -3.572 0
M  V30 3530 C 345.104 -0.758875 -4.50655 0
M  V30 3531 C 346.101 -1.64445 -4.93208 0
M  V30 3532 C 343.786 -0.952725 -4.93182 0
M  V30 3533 C 345.78 -2.70818 -5.77006 0
M  V30 3534 C 343.467 -2.01966 -5.76761 0
M  V30 3535 C 344.465 -2.89574 -6.18576 0
M  V30 3536 O 344.153 -3.94429 -7.00486 0
M  V30 3537 H 343.885 -0.00934786 -0.675935 0
M  V30 3538 H 346.439 -0.674959 -1.93993 0
M  V30 3539 H 344.669 1.19869 -3.67652 0
M  V30 3540 H 346.358 0.890433 -3.96013 0
M  V30 3541 H 347.124 -1.50643 -4.61012 0
M  V30 3542 H 343.003 -0.280247 -4.60147 0
M  V30 3543 H 346.547 -3.3923 -6.09565 0
M  V30 3544 H 342.444 -2.1577 -6.0837 0
M  V30 3545 H 343.212 -3.91568 -7.1876 0
M  V30 3546 N 345.875 1.56104 -0.216619 0
M  V30 3547 C 346.823 2.21434 0.712036 0
M  V30 3548 C 347.817 1.19218 1.20348 0
M  V30 3549 O 349.023 1.3731 1.16387 0
M  V30 3550 H 345.398 0.70992 0.248026 0
M  V30 3551 H 347.369 2.98083 0.137558 0
M  V30 3552 C 346.118 2.90434 1.91163 0
M  V30 3553 H 345.441 3.68842 1.54258 0
M  V30 3554 H 346.881 3.39552 2.5393 0
M  V30 3555 C 345.34 1.92635 2.76394 0
M  V30 3556 O 345.87 1.44017 3.74996 0
M  V30 3557 N 344.076 1.60392 2.42328 0
M  V30 3558 H 343.623 2.00122 1.622 0
M  V30 3559 H 343.581 0.952159 2.99635 0
M  V30 3560 N 347.353 -0.0568162 1.57498 0
M  V30 3561 C 348.283 -1.06593 2.0775 0
M  V30 3562 C 349.264 -1.39448 0.974082 0
M  V30 3563 O 350.449 -1.48815 1.24771 0
M  V30 3564 C 347.579 -2.37509 2.5339 0
M  V30 3565 C 346.533 -2.1897 3.67745 0
M  V30 3566 C 345.859 -3.55402 3.99492 0
M  V30 3567 C 347.159 -1.59859 4.97235 0
M  V30 3568 H 348.853 -0.647706 2.9231 0
M  V30 3569 H 346.399 -0.310116 1.40621 0
M  V30 3570 H 348.352 -3.08409 2.87162 0
M  V30 3571 H 347.076 -2.8134 1.65878 0
M  V30 3572 H 345.735 -1.50508 3.3428 0
M  V30 3573 H 345.383 -3.9683 3.09088 0
M  V30 3574 H 345.083 -3.43831 4.76502 0
M  V30 3575 H 346.607 -4.27708 4.35773 0
M  V30 3576 H 348.021 -2.20642 5.29141 0
M  V30 3577 H 346.418 -1.58942 5.78669 0
M  V30 3578 H 347.488 -0.561506 4.81638 0
M  V30 3579 N 348.832 -1.54138 -0.328536 0
M  V30 3580 C 349.779 -1.83176 -1.40411 0
M  V30 3581 C 350.749 -0.678494 -1.5161 0
M  V30 3582 O 351.934 -0.92443 -1.6691 0
M  V30 3583 C 349.074 -2.06035 -2.76846 0
M  V30 3584 C 348.187 -3.33727 -2.74318 0
M  V30 3585 C 347.322 -3.46574 -4.02567 0
M  V30 3586 C 346.361 -4.68159 -3.94327 0
M  V30 3587 N 345.498 -4.77959 -5.14296 0
M  V30 3588 H 350.338 -2.74938 -1.14948 0
M  V30 3589 H 347.875 -1.36166 -0.556538 0
M  V30 3590 H 349.833 -2.1728 -3.56153 0
M  V30 3591 H 348.463 -1.1757 -3.00628 0
M  V30 3592 H 347.515 -3.31246 -1.8703 0
M  V30 3593 H 348.827 -4.23139 -2.64111 0
M  V30 3594 H 347.981 -3.57333 -4.90304 0
M  V30 3595 H 346.72 -2.55245 -4.15574 0
M  V30 3596 H 345.725 -4.57461 -3.04974 0
M  V30 3597 H 346.95 -5.60868 -3.82889 0
M  V30 3598 H 344.896 -3.89544 -5.27818 0
M  V30 3599 H 344.813 -5.6133 -5.06404 0
M  V30 3600 H 346.081 -4.93044 -6.03761 0
M  V30 3601 N 350.31 0.590341 -1.46126 0
M  V30 3602 C 351.535 1.37991 -1.54833 0
M  V30 3603 C 351.96 1.87163 -0.187506 0
M  V30 3604 O 351.318 1.61133 0.831008 0
M  V30 3605 C 351.366 2.54867 -2.55098 0
M  V30 3606 O 350.47 3.56061 -2.08073 0
M  V30 3607 H 349.811 0.411265 -0.521303 0
M  V30 3608 H 352.341 0.716819 -1.91632 0
M  V30 3609 H 352.351 3.01886 -2.74461 0
M  V30 3610 H 351.026 2.18429 -3.53923 0
M  V30 3611 H 349.603 3.15574 -1.98664 0
M  V30 3612 N 351.788 1.33704 0.83433 0
M  V30 3613 C 352.735 1.24335 1.94447 0
M  V30 3614 C 353.705 0.120991 1.65659 0
M  V30 3615 O 354.89 0.300035 1.88426 0
M  V30 3616 C 352.03 0.993124 3.30501 0
M  V30 3617 C 351.143 2.20217 3.71657 0
M  V30 3618 C 350.278 1.88572 4.96602 0
M  V30 3619 C 349.317 3.05683 5.30306 0
M  V30 3620 N 348.454 2.73997 6.46429 0
M  V30 3621 H 353.294 2.1928 2.01792 0
M  V30 3622 H 350.831 1.09035 0.987404 0
M  V30 3623 H 352.789 0.828467 4.08892 0
M  V30 3624 H 351.419 0.0803902 3.227 0
M  V30 3625 H 350.471 2.47642 2.88752 0
M  V30 3626 H 351.783 3.07752 3.92543 0
M  V30 3627 H 350.937 1.68776 5.82752 0
M  V30 3628 H 349.676 0.982799 4.77695 0
M  V30 3629 H 348.681 3.26088 4.42659 0
M  V30 3630 H 349.906 3.96737 5.51159 0
M  V30 3631 H 347.852 1.86268 6.28999 0
M  V30 3632 H 347.769 3.55064 6.67432 0
M  V30 3633 H 349.037 2.57679 7.35678 0
M  V30 3634 N 353.266 -1.05314 1.17247 0
M  V30 3635 C 354.491 -1.82509 0.985148 0
M  V30 3636 C 354.916 -1.82343 -0.461788 0
M  V30 3637 O 354.274 -1.23151 -1.33055 0
M  V30 3638 C 354.322 -3.26566 1.52929 0
M  V30 3639 O 353.426 -4.05666 0.742225 0
M  V30 3640 H 352.767 -0.564347 0.349869 0
M  V30 3641 H 355.297 -1.32718 1.55715 0
M  V30 3642 H 355.307 -3.77369 1.55103 0
M  V30 3643 H 353.982 -3.26001 2.58256 0
M  V30 3644 H 352.559 -3.64397 0.791794 0
M  V30 3645 N 354.744 -0.972509 -1.24016 0
M  V30 3646 C 355.984 -0.644951 -1.93958 0
M  V30 3647 C 356.348 0.80559 -1.74282 0
M  V30 3648 O 357.549 1.2436 -2.38302 0
M  V30 3649 C 355.82 -1.01521 -3.42678 0
M  V30 3650 S 357.379 -0.802927 -4.31391 0
M  V30 3651 H 354.197 -0.236452 -0.670531 0
M  V30 3652 H 356.799 -1.25048 -1.50277 0
M  V30 3653 H 355.503 -2.06769 -3.54506 0
M  V30 3654 H 355.034 -0.400648 -3.91355 0
M  V30 3655 H 357.049 0.317256 -4.95185 0
M  V30 3656 N 356.222 1.38976 -0.743202 0
M  V30 3657 C 357.132 2.3434 -0.110399 0
M  V30 3658 C 358.148 1.58741 0.712559 0
M  V30 3659 O 359.324 1.9099 0.639125 0
M  V30 3660 C 356.389 3.37812 0.780012 0
M  V30 3661 C 355.45 4.29263 -0.0561319 0
M  V30 3662 C 354.683 5.27793 0.791875 0
M  V30 3663 O 354.906 5.33043 2.03031 0
M  V30 3664 O 353.84 6.01512 0.216183 0
M  V30 3665 H 357.666 2.90129 -0.897714 0
M  V30 3666 H 355.251 1.40643 -0.503966 0
M  V30 3667 H 357.133 4.01194 1.28923 0
M  V30 3668 H 355.808 2.84395 1.546 0
M  V30 3669 H 354.715 3.69076 -0.611056 0
M  V30 3670 H 356.048 4.85907 -0.784531 0
M  V30 3671 N 357.7 0.491464 1.49741 0
M  V30 3672 C 358.977 -0.118984 1.95238 0
M  V30 3673 C 359.357 -1.55044 1.43264 0
M  V30 3674 O 358.705 -2.19287 0.642287 0
M  V30 3675 C 358.915 -0.0414187 3.48975 0
M  V30 3676 C 360.263 -0.220133 4.24029 0
M  V30 3677 O 361.287 -0.117055 3.56008 0
M  V30 3678 O 360.146 -0.430567 5.44801 0
M  V30 3679 H 357.24 -0.100536 0.820866 0
M  V30 3680 H 359.786 0.553322 1.60426 0
M  V30 3681 H 358.558 0.957214 3.79412 0
M  V30 3682 H 358.181 -0.754292 3.9038 0
M  V30 3683 N 359.178 -1.55987 0.224894 0
M  V30 3684 C 360.427 -1.97566 -0.406273 0
M  V30 3685 C 360.74 -1.11569 -1.6066 0
M  V30 3686 O 361.946 -1.43062 -2.3075 0
M  V30 3687 C 360.402 -3.51474 -0.774207 0
M  V30 3688 C 360.01 -4.46179 0.403496 0
M  V30 3689 C 361.754 -4.01758 -1.37079 0
M  V30 3690 C 359.661 -5.91399 0.0129412 0
M  V30 3691 H 358.591 -0.737777 -0.155565 0
M  V30 3692 H 361.242 -1.80659 0.321635 0
M  V30 3693 H 359.624 -3.63994 -1.55963 0
M  V30 3694 H 360.798 -4.45409 1.18101 0
M  V30 3695 H 359.113 -4.06255 0.913536 0
M  V30 3696 H 361.71 -5.07756 -1.67596 0
M  V30 3697 H 362.053 -3.47805 -2.28773 0
M  V30 3698 H 362.586 -3.92475 -0.648733 0
M  V30 3699 H 359.325 -6.49341 0.896451 0
M  V30 3700 H 358.845 -5.95356 -0.728821 0
M  V30 3701 H 360.524 -6.45683 -0.412582 0
M  V30 3702 N 360.656 0.0484629 -1.57525 0
M  V30 3703 C 361.933 0.777447 -1.79486 0
M  V30 3704 C 362.313 1.94597 -0.818251 0
M  V30 3705 O 361.661 2.28047 0.143767 0
M  V30 3706 C 361.871 1.22864 -3.26658 0
M  V30 3707 C 363.219 1.65251 -3.91123 0
M  V30 3708 O 364.243 1.32372 -3.3069 0
M  V30 3709 O 363.102 2.26207 -4.97486 0
M  V30 3710 H 360.196 0.374357 -0.737419 0
M  V30 3711 H 362.742 0.0267359 -1.69679 0
M  V30 3712 H 361.514 0.393589 -3.89316 0
M  V30 3713 H 361.137 2.03996 -3.41279 0
M  V30 3714 N 362.134 1.5431 0.320358 0
M  V30 3715 C 363.044 1.86946 1.41734 0
M  V30 3716 C 364.06 0.761689 1.56443 0
M  V30 3717 O 365.236 1.05629 1.71477 0
M  V30 3718 C 362.301 2.09293 2.76401 0
M  V30 3719 C 361.362 3.33082 2.70841 0
M  V30 3720 C 360.595 3.54353 3.99086 0
M  V30 3721 O 360.818 2.79002 4.97508 0
M  V30 3722 O 359.752 4.47838 4.0215 0
M  V30 3723 H 363.578 2.80232 1.17062 0
M  V30 3724 H 361.163 1.40255 0.514673 0
M  V30 3725 H 363.045 2.25303 3.56113 0
M  V30 3726 H 361.72 1.19194 3.00956 0
M  V30 3727 H 360.627 3.22454 1.89668 0
M  V30 3728 H 361.96 4.23249 2.5124 0
M  V30 3729 N 363.613 -0.582584 1.46437 0
M  V30 3730 C 364.853 -1.35184 1.53312 0
M  V30 3731 C 365.217 -1.9115 0.180508 0
M  V30 3732 O 366.418 -2.68514 0.124017 0
M  V30 3733 C 364.689 -2.45089 2.60127 0
M  V30 3734 S 366.248 -3.32439 2.86408 0
M  V30 3735 H 363.066 -0.460559 0.54167 0
M  V30 3736 H 365.668 -0.669709 1.83671 0
M  V30 3737 H 364.372 -2.02366 3.57038 0
M  V30 3738 H 363.903 -3.18074 2.315 0
M  V30 3739 H 365.918 -4.43924 2.21688 0
M  V30 3740 N 365.091 -1.34144 -0.827227 0
M  V30 3741 C 366.316 -1.29476 -1.62021 0
M  V30 3742 C 366.741 0.129292 -1.87655 0
M  V30 3743 O 366.099 1.08967 -1.449 0
M  V30 3744 C 366.147 -2.08702 -2.94068 0
M  V30 3745 O 365.251 -1.45359 -3.85933 0
M  V30 3746 H 364.592 -0.444881 -0.492927 0
M  V30 3747 H 367.122 -1.76882 -1.02829 0
M  V30 3748 H 367.132 -2.19898 -3.43669 0
M  V30 3749 H 365.807 -3.12241 -2.74734 0
M  V30 3750 H 364.384 -1.42879 -3.44442 0
M  V30 3751 N 366.569 1.04691 -1.17803 0
M  V30 3752 C 367.479 2.16057 -0.914151 0
M  V30 3753 C 368.495 1.73589 0.119503 0
M  V30 3754 O 369.671 2.01308 -0.0609468 0
M  V30 3755 C 366.736 3.4394 -0.436603 0
M  V30 3756 C 365.797 4.00825 -1.53746 0
M  V30 3757 C 365.03 5.22604 -1.0826 0
M  V30 3758 O 365.253 5.70367 0.0612244 0
M  V30 3759 O 364.187 5.7186 -1.87775 0
M  V30 3760 H 368.013 2.41169 -1.84584 0
M  V30 3761 H 365.598 1.1453 -0.959334 0
M  V30 3762 H 367.48 4.21024 -0.178057 0
M  V30 3763 H 366.155 3.20316 0.466869 0
M  V30 3764 H 365.062 3.25158 -1.84995 0
M  V30 3765 H 366.395 4.28778 -2.41683 0
M  V30 3766 N 368.047 0.979072 1.23499 0
M  V30 3767 C 368.995 0.510604 2.26926 0
M  V30 3768 C 369.989 -0.431691 1.63807 0
M  V30 3769 O 371.195 -0.30573 1.77385 0
M  V30 3770 H 367.57 0.146688 0.737554 0
M  V30 3771 H 369.541 1.39466 2.63803 0
M  V30 3772 C 368.29 -0.172658 3.47271 0
M  V30 3773 H 367.613 0.543331 3.96091 0
M  V30 3774 H 369.053 -0.464101 4.21452 0
M  V30 3775 C 367.512 -1.40345 3.06276 0
M  V30 3776 O 368.042 -2.49978 3.14442 0
M  V30 3777 N 366.248 -1.27362 2.61203 0
M  V30 3778 H 365.795 -0.381584 2.54758 0
M  V30 3779 H 365.753 -2.09822 2.34141 0
M  V30 3780 N 369.525 -1.3858 0.750561 0
M  V30 3781 C 370.458 -2.28095 0.0693139 0
M  V30 3782 C 371.436 -1.45217 -0.731491 0
M  V30 3783 O 372.62 -1.74587 -0.71076 0
M  V30 3784 C 369.747 -3.26282 -0.90871 0
M  V30 3785 C 368.793 -4.26056 -0.194507 0
M  V30 3786 S 369.626 -5.24026 1.10257 0
M  V30 3787 C 370.782 -6.2577 0.127542 0
M  V30 3788 H 371.015 -2.85526 0.8284 0
M  V30 3789 H 368.548 -1.44536 0.543014 0
M  V30 3790 H 370.506 -3.83367 -1.46766 0
M  V30 3791 H 369.167 -2.6784 -1.64075 0
M  V30 3792 H 368.36 -4.95249 -0.93512 0
M  V30 3793 H 367.962 -3.72852 0.292837 0
M  V30 3794 H 370.254 -6.73796 -0.707516 0
M  V30 3795 H 371.197 -7.03712 0.787044 0
M  V30 3796 H 371.605 -5.63938 -0.251803 0
M  V30 3797 N 371.003 -0.499398 -1.49478 0
M  V30 3798 C 372.243 0.0440751 -2.04352 0
M  V30 3799 C 372.607 1.34423 -1.37093 0
M  V30 3800 O 373.808 1.97184 -1.82679 0
M  V30 3801 C 372.079 0.194918 -3.56868 0
M  V30 3802 S 373.638 0.69287 -4.33295 0
M  V30 3803 H 370.456 0.00253458 -0.710995 0
M  V30 3804 H 373.058 -0.673 -1.83551 0
M  V30 3805 H 371.762 -0.756672 -4.03364 0
M  V30 3806 H 371.293 0.93728 -3.82071 0
M  V30 3807 H 373.308 1.96226 -4.55752 0
M  V30 3808 N 372.481 1.55866 -0.233164 0
M  V30 3809 C 373.444 2.1953 0.658715 0
M  V30 3810 C 374.444 1.16053 1.11303 0
M  V30 3811 O 375.634 1.41218 1.01996 0
M  V30 3812 C 372.766 2.82791 1.90373 0
M  V30 3813 H 373.959 2.99721 0.10347 0
M  V30 3814 H 371.512 1.56291 0.0164245 0
M  V30 3815 H 372.247 2.06501 2.50056 0
M  V30 3816 H 372.032 3.58578 1.58632 0
M  V30 3817 H 373.522 3.31556 2.53891 0
M  V30 3818 N 373.959 -0.0401083 1.57549 0
M  V30 3819 C 374.891 -1.07149 2.02612 0
M  V30 3820 C 375.904 -1.33126 0.937085 0
M  V30 3821 O 377.093 -1.30808 1.21456 0
M  V30 3822 C 374.193 -2.41561 2.37701 0
M  V30 3823 C 373.366 -2.35096 3.68848 0
M  V30 3824 C 372.425 -3.51867 3.91249 0
M  V30 3825 O 371.451 -3.3186 4.62447 0
M  V30 3826 N 372.653 -4.73351 3.36035 0
M  V30 3827 H 375.418 -0.687485 2.91708 0
M  V30 3828 H 372.979 -0.228248 1.60283 0
M  V30 3829 H 374.971 -3.18379 2.49833 0
M  V30 3830 H 373.541 -2.71846 1.54332 0
M  V30 3831 H 372.761 -1.4345 3.67173 0
M  V30 3832 H 374.049 -2.27908 4.54901 0
M  V30 3833 H 373.447 -4.92507 2.78304 0
M  V30 3834 H 372.004 -5.47572 3.53565 0
M  V30 3835 N 375.437 -1.54477 -0.31217 0
M  V30 3836 C 376.367 -1.87652 -1.38957 0
M  V30 3837 C 377.348 -0.734358 -1.53431 0
M  V30 3838 O 378.533 -0.98911 -1.67123 0
M  V30 3839 C 375.663 -2.11396 -2.75552 0
M  V30 3840 C 374.617 -3.27243 -2.75855 0
M  V30 3841 C 373.943 -3.36382 -4.15633 0
M  V30 3842 C 375.243 -4.64622 -2.38587 0
M  V30 3843 H 376.937 -2.77887 -1.11442 0
M  V30 3844 H 374.483 -1.33707 -0.534655 0
M  V30 3845 H 376.436 -2.33189 -3.51 0
M  V30 3846 H 375.16 -1.17921 -3.04569 0
M  V30 3847 H 373.819 -3.05356 -2.02863 0
M  V30 3848 H 373.467 -2.40445 -4.41809 0
M  V30 3849 H 373.167 -4.14249 -4.1674 0
M  V30 3850 H 374.691 -3.60422 -4.92877 0
M  V30 3851 H 376.105 -4.86219 -3.03749 0
M  V30 3852 H 374.502 -5.45121 -2.50925 0
M  V30 3853 H 375.572 -4.66097 -1.33723 0
M  V30 3854 N 376.915 0.57481 -1.46744 0
M  V30 3855 C 378.155 1.34369 -1.54027 0
M  V30 3856 C 378.519 1.91051 -0.190642 0
M  V30 3857 O 379.72 2.68444 -0.138255 0
M  V30 3858 C 377.991 2.43706 -2.61423 0
M  V30 3859 S 379.55 3.30915 -2.88167 0
M  V30 3860 H 376.368 0.45768 -0.544105 0
M  V30 3861 H 378.97 0.659959 -1.84024 0
M  V30 3862 H 377.674 2.0047 -3.58106 0
M  V30 3863 H 377.205 3.16842 -2.33184 0
M  V30 3864 H 379.22 4.42742 -2.24039 0
M  V30 3865 N 378.394 1.34581 0.820102 0
M  V30 3866 C 379.64 1.27285 1.57881 0
M  V30 3867 C 379.973 -0.156137 1.93571 0
M  V30 3868 O 379.248 -1.10222 1.60254 0
M  V30 3869 C 379.531 2.16639 2.87645 0
M  V30 3870 C 379.384 3.68088 2.58517 0
M  V30 3871 C 380.703 2.05378 3.8924 0
M  V30 3872 H 377.822 0.463714 0.572833 0
M  V30 3873 H 380.464 1.64859 0.944539 0
M  V30 3874 H 378.614 1.84725 3.41773 0
M  V30 3875 H 380.286 4.10382 2.10676 0
M  V30 3876 H 378.529 3.89038 1.91917 0
M  V30 3877 H 379.2 4.2598 3.51063 0
M  V30 3878 H 381.676 2.33404 3.44473 0
M  V30 3879 H 380.552 2.7012 4.77835 0
M  V30 3880 H 380.813 1.0316 4.29896 0
M  V30 3881 N 379.872 -1.04064 1.18357 0
M  V30 3882 C 380.82 -2.14187 0.907007 0
M  V30 3883 C 381.814 -1.68879 -0.132725 0
M  V30 3884 O 383.02 -1.79993 0.0154248 0
M  V30 3885 H 379.395 -0.699585 0.275835 0
M  V30 3886 H 381.366 -2.34711 1.84264 0
M  V30 3887 C 380.115 -3.44785 0.449254 0
M  V30 3888 H 379.438 -3.80058 1.24081 0
M  V30 3889 H 380.878 -4.22974 0.294737 0
M  V30 3890 C 379.337 -3.26391 -0.834909 0
M  V30 3891 O 379.867 -3.53973 -1.89911 0
M  V30 3892 N 378.073 -2.79726 -0.787523 0
M  V30 3893 H 377.62 -2.5748 0.0787347 0
M  V30 3894 H 377.578 -2.67798 -1.64716 0
M  V30 3895 N 381.35 -0.985608 -1.22978 0
M  V30 3896 C 382.58 -0.674603 -1.95276 0
M  V30 3897 C 382.988 0.763483 -1.73111 0
M  V30 3898 O 382.331 1.52601 -1.02268 0
M  V30 3899 C 382.393 -0.891597 -3.48268 0
M  V30 3900 C 382.057 -2.31275 -3.94158 0
M  V30 3901 C 383.054 -3.29179 -4.02415 0
M  V30 3902 C 380.739 -2.64524 -4.27004 0
M  V30 3903 C 382.733 -4.58407 -4.42879 0
M  V30 3904 C 380.42 -3.93974 -4.67149 0
M  V30 3905 C 381.418 -4.90727 -4.75053 0
M  V30 3906 O 381.106 -6.17865 -5.14294 0
M  V30 3907 H 380.838 -0.249251 -0.628371 0
M  V30 3908 H 383.392 -1.32106 -1.5728 0
M  V30 3909 H 381.622 -0.187962 -3.86243 0
M  V30 3910 H 383.311 -0.576957 -4.01779 0
M  V30 3911 H 384.077 -3.04823 -3.77237 0
M  V30 3912 H 379.956 -1.89923 -4.2006 0
M  V30 3913 H 383.5 -5.33926 -4.48964 0
M  V30 3914 H 379.397 -4.18122 -4.91777 0
M  V30 3915 H 380.165 -6.21694 -5.32389 0
M  V30 3916 N 382.828 1.3818 -0.7579 0
M  V30 3917 C 384.239 1.82726 -0.383134 0
M  V30 3918 C 384.59 1.63214 1.08884 0
M  V30 3919 O 383.715 1.13566 1.84205 0
M  V30 3920 C 384.31 3.31728 -0.688631 0
M  V30 3921 C 382.869 3.74606 -0.367091 0
M  V30 3922 C 382.016 2.60896 -0.939599 0
M  V30 3923 H 384.967 1.26847 -0.953699 0
M  V30 3924 H 384.988 3.80487 0.0316492 0
M  V30 3925 H 384.5 3.45898 -1.76001 0
M  V30 3926 H 382.601 3.66013 0.697532 0
M  V30 3927 H 382.714 4.71215 -0.865658 0
M  V30 3928 H 381.078 2.52075 -0.3647 0
M  V30 3929 H 381.861 2.77864 -2.0161 0
M  V30 3930 N 384.306 0.507319 1.49211 0
M  V30 3931 C 385.554 -0.0348839 2.0207 0
M  V30 3932 C 385.875 -1.36898 1.38866 0
M  V30 3933 O 385.145 -1.88133 0.546151 0
M  V30 3934 H 383.725 -0.0158812 0.746831 0
M  V30 3935 H 386.387 0.665998 1.83168 0
M  V30 3936 H 385.483 -0.159917 3.1169 0
M  V30 3937 N 385.784 -1.5574 0.241426 0
M  V30 3938 C 387.032 -1.98417 -0.384075 0
M  V30 3939 C 387.353 -1.13078 -1.58866 0
M  V30 3940 O 386.623 -0.212312 -1.94746 0
M  V30 3941 H 385.203 -0.732813 -0.144894 0
M  V30 3942 H 387.865 -1.9193 0.338943 0
M  V30 3943 H 386.961 -3.04219 -0.696939 0
M  V30 3944 N 387.262 0.0317525 -1.57568 0
M  V30 3945 C 388.492 0.733884 -1.93126 0
M  V30 3946 C 388.9 1.69563 -0.839352 0
M  V30 3947 O 388.243 1.82681 0.193175 0
M  V30 3948 C 388.305 1.54798 -3.24465 0
M  V30 3949 C 387.969 0.751304 -4.50782 0
M  V30 3950 C 388.966 0.0527632 -5.19873 0
M  V30 3951 C 386.651 0.706639 -4.97305 0
M  V30 3952 C 388.645 -0.679774 -6.33765 0
M  V30 3953 C 386.332 -0.0296449 -6.11093 0
M  V30 3954 C 387.33 -0.721614 -6.79177 0
M  V30 3955 O 387.018 -1.44595 -7.90789 0
M  V30 3956 H 386.75 0.211459 -0.642076 0
M  V30 3957 H 389.304 -0.00585615 -2.05399 0
M  V30 3958 H 387.534 2.33147 -3.08512 0
M  V30 3959 H 389.223 2.13247 -3.4537 0
M  V30 3960 H 389.989 0.0783188 -4.84937 0
M  V30 3961 H 385.868 1.23474 -4.44157 0
M  V30 3962 H 389.412 -1.22042 -6.86842 0
M  V30 3963 H 385.309 -0.0571331 -6.45475 0
M  V30 3964 H 386.077 -1.35935 -8.07133 0
M  V30 3965 N 388.74 1.54641 0.303973 0
M  V30 3966 C 389.968 1.77768 1.05858 0
M  V30 3967 C 390.383 0.535722 1.8104 0
M  V30 3968 O 389.74 -0.494337 1.75677 0
M  V30 3969 C 389.791 2.9834 2.04146 0
M  V30 3970 O 389.512 4.17736 1.32015 0
M  V30 3971 C 391.013 3.33832 2.91669 0
M  V30 3972 H 388.233 0.592961 0.314067 0
M  V30 3973 H 390.777 2.01583 0.344149 0
M  V30 3974 H 388.932 2.76742 2.71096 0
M  V30 3975 H 389.346 4.85693 1.97998 0
M  V30 3976 H 390.82 4.21448 3.56491 0
M  V30 3977 H 391.297 2.51857 3.59812 0
M  V30 3978 H 391.903 3.57579 2.30254 0
M  V30 3979 N 390.218 -0.567019 1.47046 0
M  V30 3980 C 391.458 -1.3355 1.54738 0
M  V30 3981 C 391.822 -1.90947 0.200772 0
M  V30 3982 O 393.023 -2.68367 0.152489 0
M  V30 3983 C 391.294 -2.42317 2.62712 0
M  V30 3984 S 392.853 -3.29383 2.89918 0
M  V30 3985 H 389.671 -0.454788 0.546525 0
M  V30 3986 H 392.273 -0.650191 1.84371 0
M  V30 3987 H 390.977 -1.98568 3.59164 0
M  V30 3988 H 390.508 -3.15601 2.34861 0
M  V30 3989 H 392.523 -4.41548 2.26384 0
M  V30 3990 N 391.696 -1.35014 -0.812953 0
M  V30 3991 C 392.926 -1.30841 -1.59888 0
M  V30 3992 C 393.334 0.117576 -1.88834 0
M  V30 3993 O 392.677 1.07807 -1.48739 0
M  V30 3994 C 392.739 -2.0412 -2.95931 0
M  V30 3995 C 392.403 -3.53336 -2.89832 0
M  V30 3996 C 393.4 -4.48052 -2.63714 0
M  V30 3997 C 391.085 -3.95894 -3.0915 0
M  V30 3998 C 393.079 -5.833 -2.56982 0
M  V30 3999 C 390.766 -5.31239 -3.0204 0
M  V30 4000 C 391.764 -6.24754 -2.75991 0
M  V30 4001 O 391.452 -7.57617 -2.68833 0
M  V30 4002 H 391.184 -0.451215 -0.50337 0
M  V30 4003 H 393.738 -1.78354 -1.01877 0
M  V30 4004 H 391.968 -1.51235 -3.559 0
M  V30 4005 H 393.657 -1.93107 -3.57022 0
M  V30 4006 H 394.423 -4.16492 -2.48515 0
M  V30 4007 H 390.302 -3.23495 -3.28438 0
M  V30 4008 H 393.846 -6.56263 -2.36569 0
M  V30 4009 H 389.743 -5.62415 -3.16796 0
M  V30 4010 H 390.511 -7.67469 -2.84487 0
M  V30 4011 N 393.175 1.03435 -1.18907 0
M  V30 4012 C 394.415 1.78302 -0.999391 0
M  V30 4013 C 394.779 1.86353 0.462219 0
M  V30 4014 O 395.98 2.57489 0.771543 0
M  V30 4015 C 394.251 3.17362 -1.64365 0
M  V30 4016 S 395.81 4.08488 -1.6026 0
M  V30 4017 H 392.628 0.613861 -0.358742 0
M  V30 4018 H 395.23 1.23979 -1.51161 0
M  V30 4019 H 393.934 3.09116 -2.69955 0
M  V30 4020 H 393.465 3.76762 -1.13199 0
M  V30 4021 H 395.48 4.92274 -0.622932 0
M  V30 4022 N 394.653 0.992116 1.22453 0
M  V30 4023 C 395.93 0.583508 1.86694 0
M  V30 4024 C 396.31 -0.9392 1.89056 0
M  V30 4025 O 395.658 -1.82081 1.38053 0
M  V30 4026 C 395.868 1.20304 3.2761 0
M  V30 4027 C 397.216 1.30308 4.0411 0
M  V30 4028 O 398.24 1.15737 3.36873 0
M  V30 4029 O 397.099 1.53615 5.24466 0
M  V30 4030 H 394.193 0.198129 0.802916 0
M  V30 4031 H 396.739 1.08794 1.30238 0
M  V30 4032 H 395.511 2.24461 3.2052 0
M  V30 4033 H 395.134 0.684144 3.9167 0
M  V30 4034 N 396.131 -1.37776 0.765217 0
M  V30 4035 C 397.379 -1.99454 0.325943 0
M  V30 4036 C 397.7 -1.61049 -1.09947 0
M  V30 4037 O 396.97 -0.872821 -1.75381 0
M  V30 4038 H 395.55 -0.737697 0.117525 0
M  V30 4039 H 398.212 -1.68359 0.981895 0
M  V30 4040 H 397.308 -3.09547 0.398353 0
M  V30 4041 N 397.609 -0.515225 -1.4894 0
M  V30 4042 C 398.556 0.255567 -2.29381 0
M  V30 4043 C 399.526 0.947387 -1.36432 0
M  V30 4044 O 400.711 0.951288 -1.65394 0
M  V30 4045 C 397.851 1.30551 -3.19453 0
M  V30 4046 C 396.964 0.624029 -4.27469 0
M  V30 4047 C 396.099 1.65563 -5.0474 0
M  V30 4048 C 395.138 0.956802 -6.04576 0
M  V30 4049 N 394.275 1.93326 -6.74959 0
M  V30 4050 H 399.115 -0.436607 -2.94784 0
M  V30 4051 H 396.652 -0.227154 -1.45336 0
M  V30 4052 H 398.61 1.92639 -3.70062 0
M  V30 4053 H 397.24 1.96626 -2.56004 0
M  V30 4054 H 396.292 -0.110459 -3.8024 0
M  V30 4055 H 397.604 0.0746092 -4.98744 0
M  V30 4056 H 396.758 2.35119 -5.59289 0
M  V30 4057 H 395.497 2.23893 -4.3327 0
M  V30 4058 H 394.502 0.247097 -5.49244 0
M  V30 4059 H 395.727 0.379814 -6.78037 0
M  V30 4060 H 393.673 2.50591 -6.06251 0
M  V30 4061 H 393.59 1.43489 -7.42258 0
M  V30 4062 H 394.858 2.62126 -7.34105 0
M  V30 4063 N 399.087 1.5561 -0.249682 0
M  V30 4064 C 400.034 2.21496 0.648694 0
M  V30 4065 C 401.004 1.17977 1.16921 0
M  V30 4066 O 402.189 1.46434 1.22318 0
M  V30 4067 C 399.329 2.92039 1.83868 0
M  V30 4068 C 398.442 4.10219 1.35442 0
M  V30 4069 C 397.577 4.6847 2.50419 0
M  V30 4070 C 396.616 5.78893 1.98869 0
M  V30 4071 N 395.753 6.31315 3.07223 0
M  V30 4072 H 400.593 2.97892 0.0801582 0
M  V30 4073 H 398.13 1.47074 0.0278031 0
M  V30 4074 H 400.088 3.31138 2.53778 0
M  V30 4075 H 398.718 2.18111 2.37965 0
M  V30 4076 H 397.77 3.76413 0.54928 0
M  V30 4077 H 399.082 4.89927 0.936649 0
M  V30 4078 H 398.236 5.10158 3.28366 0
M  V30 4079 H 396.975 3.87984 2.95499 0
M  V30 4080 H 395.98 5.3668 1.19393 0
M  V30 4081 H 397.205 6.61232 1.54755 0
M  V30 4082 H 395.151 5.53733 3.51732 0
M  V30 4083 H 395.068 7.06224 2.69784 0
M  V30 4084 H 396.336 6.77662 3.8522 0
M  V30 4085 N 400.565 -0.0233959 1.57583 0
M  V30 4086 C 401.813 -0.711654 1.89156 0
M  V30 4087 C 402.134 -1.75591 0.848096 0
M  V30 4088 O 401.404 -1.95547 -0.117566 0
M  V30 4089 H 399.984 -0.265835 0.698098 0
M  V30 4090 H 402.646 0.0119948 1.94896 0
M  V30 4091 H 401.742 -1.19766 2.88206 0
M  V30 4092 N 402.043 -1.548 -0.295768 0
M  V30 4093 C 403.29 -1.74329 -1.03032 0
M  V30 4094 C 403.618 -0.531915 -1.87085 0
M  V30 4095 O 402.873 0.486052 -1.89568 0
M  V30 4096 C 403.172 -2.98797 -1.961 0
M  V30 4097 C 402.838 -4.32356 -1.2798 0
M  V30 4098 C 401.5 -4.68661 -1.09135 0
M  V30 4099 C 403.852 -5.15128 -0.793243 0
M  V30 4100 C 401.18 -5.85312 -0.403269 0
M  V30 4101 C 403.532 -6.32488 -0.118854 0
M  V30 4102 C 402.196 -6.6745 0.0815043 0
M  V30 4103 H 401.466 -0.637916 -0.37702 0
M  V30 4104 H 404.113 -1.8906 -0.304696 0
M  V30 4105 H 402.418 -2.78869 -2.75207 0
M  V30 4106 H 404.115 -3.11102 -2.53015 0
M  V30 4107 H 400.705 -4.03808 -1.43655 0
M  V30 4108 H 404.889 -4.87575 -0.92653 0
M  V30 4109 H 400.145 -6.1094 -0.237098 0
M  V30 4110 H 404.319 -6.95892 0.266035 0
M  V30 4111 H 401.946 -7.57695 0.616685 0
M  V30 4112 N 403.521 0.559213 -1.47345 0
M  V30 4113 C 404.468 1.66645 -1.59682 0
M  V30 4114 C 405.438 1.60168 -0.43994 0
M  V30 4115 O 406.623 1.79031 -0.659736 0
M  V30 4116 C 403.763 3.04969 -1.61518 0
M  V30 4117 C 402.876 3.21897 -2.88108 0
M  V30 4118 C 402.011 4.50608 -2.81294 0
M  V30 4119 C 401.05 4.60961 -4.02717 0
M  V30 4120 N 400.187 5.81024 -3.94151 0
M  V30 4121 H 405.027 1.55439 -2.54249 0
M  V30 4122 H 402.564 0.757219 -1.26113 0
M  V30 4123 H 404.522 3.85064 -1.60566 0
M  V30 4124 H 403.152 3.15015 -0.704645 0
M  V30 4125 H 402.204 2.35248 -2.98936 0
M  V30 4126 H 403.516 3.25412 -3.78032 0
M  V30 4127 H 402.67 5.3896 -2.7858 0
M  V30 4128 H 401.409 4.49568 -1.89049 0
M  V30 4129 H 400.414 3.71021 -4.05738 0
M  V30 4130 H 401.639 4.63761 -4.96087 0
M  V30 4131 H 399.585 5.80938 -3.04708 0
M  V30 4132 H 399.502 5.85909 -4.77752 0
M  V30 4133 H 400.77 6.71744 -3.9545 0
M  V30 4134 N 404.999 1.35443 0.805782 0
M  V30 4135 C 405.929 1.31095 1.93226 0
M  V30 4136 C 406.91 0.185244 1.69088 0
M  V30 4137 O 408.095 0.380332 1.90439 0
M  V30 4138 C 405.225 1.08299 3.29983 0
M  V30 4139 C 404.179 2.17519 3.68605 0
M  V30 4140 C 403.505 1.79887 5.03532 0
M  V30 4141 C 404.805 3.5949 3.78898 0
M  V30 4142 H 406.499 2.25352 1.97122 0
M  V30 4143 H 404.045 1.0848 0.946996 0
M  V30 4144 H 405.998 1.03897 4.08391 0
M  V30 4145 H 404.722 0.104885 3.26432 0
M  V30 4146 H 403.381 2.2102 2.92482 0
M  V30 4147 H 403.029 0.80693 4.96485 0
M  V30 4148 H 402.729 2.53001 5.30344 0
M  V30 4149 H 404.253 1.77011 5.84379 0
M  V30 4150 H 405.667 3.58307 4.47536 0
M  V30 4151 H 404.064 4.31371 4.1718 0
M  V30 4152 H 405.134 3.95584 2.80431 0
M  V30 4153 N 406.477 -1.02803 1.19454 0
M  V30 4154 C 407.44 -2.09264 0.934955 0
M  V30 4155 C 408.44 -1.60576 -0.0849015 0
M  V30 4156 O 409.63 -1.73554 0.149933 0
M  V30 4157 C 406.762 -3.38482 0.40531 0
M  V30 4158 H 407.955 -2.33726 1.87916 0
M  V30 4159 H 405.508 -1.19426 1.00832 0
M  V30 4160 H 406.243 -3.19689 -0.544899 0
M  V30 4161 H 406.028 -3.75142 1.14065 0
M  V30 4162 H 407.518 -4.16894 0.242806 0
M  V30 4163 N 407.956 -0.998596 -1.21925 0
M  V30 4164 C 408.888 -0.511879 -2.23411 0
M  V30 4165 C 409.901 0.396094 -1.57908 0
M  V30 4166 O 411.09 0.197316 -1.77406 0
M  V30 4167 C 408.19 0.276802 -3.37768 0
M  V30 4168 C 407.363 -0.628687 -4.32858 0
M  V30 4169 C 406.422 0.109272 -5.26087 0
M  V30 4170 O 405.448 -0.507237 -5.66935 0
M  V30 4171 N 406.65 1.38983 -5.63617 0
M  V30 4172 H 409.415 -1.38457 -2.658 0
M  V30 4173 H 406.976 -0.873981 -1.36283 0
M  V30 4174 H 408.968 0.77928 -3.97126 0
M  V30 4175 H 407.538 1.05063 -2.94415 0
M  V30 4176 H 406.758 -1.31175 -3.71735 0
M  V30 4177 H 408.046 -1.24514 -4.93329 0
M  V30 4178 H 407.444 1.91194 -5.32411 0
M  V30 4179 H 406.001 1.83739 -6.25367 0
M  V30 4180 N 409.434 1.37368 -0.772513 0
M  V30 4181 C 410.711 1.93839 -0.26188 0
M  V30 4182 C 411.091 1.7061 1.24319 0
M  V30 4183 O 410.439 1.05534 2.02669 0
M  V30 4184 C 410.649 3.43154 -0.636102 0
M  V30 4185 C 411.997 4.20249 -0.606324 0
M  V30 4186 O 413.021 3.5152 -0.575538 0
M  V30 4187 O 411.88 5.42809 -0.634086 0
M  V30 4188 H 408.974 0.82478 -0.0605555 0
M  V30 4189 H 411.52 1.4665 -0.853917 0
M  V30 4190 H 410.292 3.53647 -1.6748 0
M  V30 4191 H 409.915 3.97596 -0.0170516 0
M  V30 4192 N 410.912 0.523116 1.48665 0
M  V30 4193 C 411.844 -0.280421 2.27478 0
M  V30 4194 C 412.857 -0.910694 1.34945 0
M  V30 4195 O 414.046 -0.790295 1.60052 0
M  V30 4196 C 411.146 -1.41171 3.08097 0
M  V30 4197 C 410.319 -0.884642 4.28361 0
M  V30 4198 C 409.378 -1.89622 4.90846 0
M  V30 4199 O 408.404 -1.4559 5.50265 0
M  V30 4200 N 409.606 -3.22801 4.82472 0
M  V30 4201 H 412.371 0.395481 2.97079 0
M  V30 4202 H 409.932 0.357018 1.57915 0
M  V30 4203 H 411.924 -2.08645 3.4677 0
M  V30 4204 H 410.494 -1.99139 2.40961 0
M  V30 4205 H 409.714 -0.0341177 3.94185 0
M  V30 4206 H 411.002 -0.511268 5.06225 0
M  V30 4207 H 410.4 -3.61246 4.35336 0
M  V30 4208 H 408.957 -3.85927 5.25265 0
M  V30 4209 N 412.39 -1.55475 0.257931 0
M  V30 4210 C 413.337 -2.21837 -0.636939 0
M  V30 4211 C 414.307 -1.18596 -1.16294 0
M  V30 4212 O 415.492 -1.47081 -1.21539 0
M  V30 4213 C 412.632 -2.9301 -1.82317 0
M  V30 4214 C 411.745 -4.10931 -1.33265 0
M  V30 4215 C 410.88 -4.69791 -2.47931 0
M  V30 4216 C 409.919 -5.7994 -1.95796 0
M  V30 4217 N 409.056 -6.32935 -3.0387 0
M  V30 4218 H 413.896 -2.9793 -0.0643591 0
M  V30 4219 H 411.433 -1.47086 -0.0200031 0
M  V30 4220 H 413.391 -3.3248 -2.52018 0
M  V30 4221 H 412.021 -2.1937 -2.36805 0
M  V30 4222 H 411.073 -3.76699 -0.52931 0
M  V30 4223 H 412.385 -4.90417 -0.910654 0
M  V30 4224 H 411.539 -5.11892 -3.25656 0
M  V30 4225 H 410.278 -3.89545 -2.93438 0
M  V30 4226 H 409.283 -5.37305 -1.16546 0
M  V30 4227 H 410.508 -6.62043 -1.51246 0
M  V30 4228 H 408.454 -5.55591 -3.48791 0
M  V30 4229 H 408.371 -7.07645 -2.66035 0
M  V30 4230 H 409.639 -6.79695 -3.81621 0
M  V30 4231 N 413.868 0.0150385 -1.57593 0
M  V30 4232 C 415.093 0.718067 -1.94573 0
M  V30 4233 C 415.518 1.6734 -0.859005 0
M  V30 4234 O 414.876 1.80362 0.184147 0
M  V30 4235 C 414.924 1.43918 -3.30636 0
M  V30 4236 O 414.028 2.55299 -3.23876 0
M  V30 4237 H 413.369 0.192125 -0.635597 0
M  V30 4238 H 415.899 -0.0336708 -2.04572 0
M  V30 4239 H 415.909 1.80598 -3.65853 0
M  V30 4240 H 414.584 0.738619 -4.09289 0
M  V30 4241 H 413.161 2.21058 -3.00312 0
M  V30 4242 N 415.346 1.54954 0.287554 0
M  V30 4243 C 416.586 1.76617 1.02887 0
M  V30 4244 C 416.95 0.547759 1.84021 0
M  V30 4245 O 418.151 0.642365 2.61012 0
M  V30 4246 C 416.422 3.02717 1.89993 0
M  V30 4247 S 417.981 3.45438 2.70588 0
M  V30 4248 H 414.799 0.6207 0.346775 0
M  V30 4249 H 417.401 1.93172 0.30082 0
M  V30 4250 H 416.105 3.89503 1.29287 0
M  V30 4251 H 415.636 2.88787 2.67144 0
M  V30 4252 H 417.651 3.03566 3.92508 0
M  V30 4253 N 416.824 -0.551391 1.4764 0
M  V30 4254 C 417.734 -1.68525 1.63207 0
M  V30 4255 C 418.75 -1.6621 0.514815 0
M  V30 4256 O 419.926 -1.85551 0.783113 0
M  V30 4257 C 416.991 -3.05025 1.64805 0
M  V30 4258 C 416.052 -3.18362 2.88 0
M  V30 4259 C 415.285 -4.4835 2.89513 0
M  V30 4260 O 415.508 -5.34163 2.00065 0
M  V30 4261 O 414.442 -4.65602 3.81443 0
M  V30 4262 H 418.268 -1.58333 2.59161 0
M  V30 4263 H 415.853 -0.722063 1.30792 0
M  V30 4264 H 417.735 -3.86245 1.68502 0
M  V30 4265 H 416.41 -3.15587 0.720197 0
M  V30 4266 H 415.317 -2.36518 2.89845 0
M  V30 4267 H 416.65 -3.12707 3.80099 0
M  V30 4268 N 418.302 -1.35869 -0.798587 0
M  V30 4269 C 419.548 -1.2978 -1.55836 0
M  V30 4270 C 419.881 0.125322 -1.93795 0
M  V30 4271 O 419.156 1.07658 -1.61987 0
M  V30 4272 C 419.439 -2.21188 -2.84162 0
M  V30 4273 C 419.292 -3.72155 -2.52628 0
M  V30 4274 C 420.611 -2.11545 -3.85923 0
M  V30 4275 H 417.73 -0.472769 -0.565383 0
M  V30 4276 H 420.372 -1.66341 -0.918192 0
M  V30 4277 H 418.522 -1.90139 -3.38791 0
M  V30 4278 H 420.194 -4.13682 -2.04121 0
M  V30 4279 H 418.437 -3.92042 -1.85704 0
M  V30 4280 H 419.108 -4.31511 -3.44242 0
M  V30 4281 H 421.584 -2.38855 -3.40716 0
M  V30 4282 H 420.46 -2.77688 -4.73477 0
M  V30 4283 H 420.721 -1.09987 -4.282 0
M  V30 4284 N 419.78 1.02168 -1.19998 0
M  V30 4285 C 421.026 1.75945 -1.00852 0
M  V30 4286 C 421.359 1.88702 0.458828 0
M  V30 4287 O 420.634 1.40911 1.34069 0
M  V30 4288 C 420.917 3.18154 -1.68671 0
M  V30 4289 C 420.77 3.13224 -3.22817 0
M  V30 4290 C 422.089 4.16711 -1.41561 0
M  V30 4291 H 419.208 0.638673 -0.367785 0
M  V30 4292 H 421.85 1.19222 -1.4794 0
M  V30 4293 H 420 3.66586 -1.28636 0
M  V30 4294 H 421.672 2.72635 -3.72112 0
M  V30 4295 H 419.915 2.50751 -3.53986 0
M  V30 4296 H 420.586 4.13728 -3.65422 0
M  V30 4297 H 423.062 3.76913 -1.76284 0
M  V30 4298 H 421.938 5.14391 -1.91553 0
M  V30 4299 H 422.199 4.40774 -0.342193 0
M  V30 4300 N 421.258 1.00505 1.21394 0
M  V30 4301 C 422.483 0.706367 1.95001 0
M  V30 4302 C 422.908 -0.72463 1.73582 0
M  V30 4303 O 422.266 -1.49702 1.0227 0
M  V30 4304 C 422.314 1.03299 3.45487 0
M  V30 4305 O 421.418 0.138275 4.12168 0
M  V30 4306 H 420.759 0.263175 0.609619 0
M  V30 4307 H 423.289 1.34531 1.54151 0
M  V30 4308 H 423.299 0.979872 3.96059 0
M  V30 4309 H 421.974 2.07567 3.60401 0
M  V30 4310 H 420.551 0.247928 3.72075 0
M  V30 4311 N 422.737 -1.36956 0.779787 0
M  V30 4312 C 423.983 -1.99787 0.348281 0
M  V30 4313 C 424.316 -1.61756 -1.07465 0
M  V30 4314 O 423.591 -0.867639 -1.74075 0
M  V30 4315 C 423.874 -3.56597 0.50104 0
M  V30 4316 C 423.727 -4.04513 1.96697 0
M  V30 4317 C 425.046 -4.40008 -0.0898097 0
M  V30 4318 H 422.165 -0.725796 0.128022 0
M  V30 4319 H 424.807 -1.62514 0.984331 0
M  V30 4320 H 422.957 -3.88479 -0.0404347 0
M  V30 4321 H 424.629 -3.83161 2.56876 0
M  V30 4322 H 422.872 -3.56408 2.47297 0
M  V30 4323 H 423.543 -5.1352 2.02486 0
M  V30 4324 H 426.019 -4.14431 0.372293 0
M  V30 4325 H 424.895 -5.4888 0.0471605 0
M  V30 4326 H 425.156 -4.26035 -1.18096 0
M  V30 4327 N 424.215 -0.530993 -1.48385 0
M  V30 4328 C 425.455 0.000718982 -2.044 0
M  V30 4329 C 425.819 1.31485 -1.39913 0
M  V30 4330 O 427.02 1.93265 -1.86821 0
M  V30 4331 C 425.291 0.119177 -3.57201 0
M  V30 4332 S 426.85 0.600806 -4.34667 0
M  V30 4333 H 423.668 -0.0125473 -0.710889 0
M  V30 4334 H 426.27 -0.711783 -1.82082 0
M  V30 4335 H 424.974 -0.842061 -4.01668 0
M  V30 4336 H 424.505 0.856026 -3.83974 0
M  V30 4337 H 426.52 1.86514 -4.59812 0
M  V30 4338 N 425.693 1.55336 -0.266172 0
M  V30 4339 C 426.623 2.25146 0.618981 0
M  V30 4340 C 427.604 1.23845 1.16604 0
M  V30 4341 O 428.789 1.52544 1.20183 0
M  V30 4342 C 425.919 2.96572 1.80728 0
M  V30 4343 C 424.873 4.04726 1.39215 0
M  V30 4344 C 424.199 4.63678 2.66283 0
M  V30 4345 C 425.499 5.19407 0.548942 0
M  V30 4346 H 427.193 2.99377 0.0368116 0
M  V30 4347 H 424.739 1.43991 0.0162651 0
M  V30 4348 H 426.692 3.44116 2.43232 0
M  V30 4349 H 425.416 2.19861 2.41514 0
M  V30 4350 H 424.075 3.57979 0.790351 0
M  V30 4351 H 423.723 3.83646 3.25308 0
M  V30 4352 H 423.423 5.367 2.39222 0
M  V30 4353 H 424.947 5.13967 3.29651 0
M  V30 4354 H 426.361 5.63059 1.07876 0
M  V30 4355 H 424.758 5.98936 0.373593 0
M  V30 4356 H 425.828 4.8295 -0.434394 0
M  V30 4357 N 427.171 -0.0066808 1.57599 0
M  V30 4358 C 428.582 -0.550379 1.78403 0
M  V30 4359 C 428.933 -1.74339 0.900014 0
M  V30 4360 O 428.058 -2.16166 0.100713 0
M  V30 4361 C 428.653 -1.00523 3.23544 0
M  V30 4362 C 427.212 -1.49428 3.45468 0
M  V30 4363 C 426.359 -0.442444 2.73748 0
M  V30 4364 H 429.31 0.219508 1.57175 0
M  V30 4365 H 429.331 -1.87157 3.31289 0
M  V30 4366 H 428.843 -0.136735 3.87859 0
M  V30 4367 H 426.944 -2.3839 2.86358 0
M  V30 4368 H 427.057 -1.52635 4.54136 0
M  V30 4369 H 425.421 -0.902578 2.38171 0
M  V30 4370 H 426.204 0.416973 3.40758 0
M  V30 4371 N 428.649 -1.55105 -0.279332 0
M  V30 4372 C 429.579 -1.90557 -1.34945 0
M  V30 4373 C 430.56 -0.766738 -1.51839 0
M  V30 4374 O 431.745 -1.02434 -1.64988 0
M  V30 4375 C 428.875 -2.17193 -2.71006 0
M  V30 4376 C 427.829 -3.33021 -2.68851 0
M  V30 4377 C 427.155 -3.45123 -4.08405 0
M  V30 4378 C 428.455 -4.69578 -2.28678 0
M  V30 4379 H 430.149 -2.80188 -1.05522 0
M  V30 4380 H 427.695 -1.34811 -0.506173 0
M  V30 4381 H 429.648 -2.40581 -3.45975 0
M  V30 4382 H 428.372 -1.24355 -3.01999 0
M  V30 4383 H 427.031 -3.0959 -1.9634 0
M  V30 4384 H 426.679 -2.49762 -4.3661 0
M  V30 4385 H 426.379 -4.22995 -4.07859 0
M  V30 4386 H 427.903 -3.70796 -4.85121 0
M  V30 4387 H 429.317 -4.92553 -2.93368 0
M  V30 4388 H 427.714 -5.5032 -2.39306 0
M  V30 4389 H 428.784 -4.68828 -1.23807 0
M  V30 4390 N 430.127 0.543554 -1.4793 0
M  V30 4391 C 431.075 1.67039 -1.61866 0
M  V30 4392 C 432.069 1.62294 -0.48549 0
M  V30 4393 O 433.275 1.67315 -0.66376 0
M  V30 4394 H 429.65 0.552954 -0.509652 0
M  V30 4395 H 431.621 1.52426 -2.56533 0
M  V30 4396 C 430.37 3.05357 -1.6629 0
M  V30 4397 H 429.693 3.09696 -2.5284 0
M  V30 4398 H 431.133 3.83855 -1.80088 0
M  V30 4399 C 429.592 3.34531 -0.398861 0
M  V30 4400 O 430.122 3.98649 0.494162 0
M  V30 4401 N 428.328 2.89299 -0.2747 0
M  V30 4402 H 427.875 2.37298 -1.00236 0
M  V30 4403 H 427.833 3.09188 0.570075 0
M  V30 4404 N 431.605 1.3629 0.791371 0
M  V30 4405 C 432.535 1.33137 1.91825 0
M  V30 4406 C 433.516 0.203168 1.68882 0
M  V30 4407 O 434.701 0.400509 1.90025 0
M  V30 4408 C 431.831 1.11793 3.28816 0
M  V30 4409 C 430.785 2.21417 3.66277 0
M  V30 4410 C 430.111 1.85218 5.01596 0
M  V30 4411 C 431.411 3.63489 3.75064 0
M  V30 4412 H 433.105 2.2743 1.9472 0
M  V30 4413 H 430.651 1.09479 0.935437 0
M  V30 4414 H 432.604 1.08222 4.07266 0
M  V30 4415 H 431.328 0.139501 3.26302 0
M  V30 4416 H 429.987 2.2411 2.90121 0
M  V30 4417 H 429.635 0.859544 4.95602 0
M  V30 4418 H 429.335 2.58611 5.27631 0
M  V30 4419 H 430.859 1.832 5.82469 0
M  V30 4420 H 432.273 3.63034 4.43711 0
M  V30 4421 H 430.67 4.35771 4.12582 0
M  V30 4422 H 431.74 3.98536 2.76219 0
M  V30 4423 N 433.083 -1.0153 1.20538 0
M  V30 4424 C 434.36 -1.72327 0.925343 0
M  V30 4425 C 434.74 -2.03383 -0.565547 0
M  V30 4426 O 434.088 -1.69934 -1.52757 0
M  V30 4427 C 434.298 -2.9902 1.79967 0
M  V30 4428 C 435.646 -3.72258 2.04228 0
M  V30 4429 O 436.67 -3.08979 1.77231 0
M  V30 4430 O 435.529 -4.86053 2.4983 0
M  V30 4431 H 432.623 -0.751099 0.346092 0
M  V30 4432 H 435.169 -1.07366 1.31417 0
M  V30 4433 H 433.941 -2.72402 2.80915 0
M  V30 4434 H 433.564 -3.71721 1.41099 0
M  V30 4435 N 434.561 -1.01147 -1.20859 0
M  V30 4436 C 435.789 -0.716911 -1.94082 0
M  V30 4437 C 436.204 0.721568 -1.74467 0
M  V30 4438 O 435.561 1.48889 -1.05539 0
M  V30 4439 C 435.612 -1.03662 -3.46318 0
M  V30 4440 O 435.333 -2.4186 -3.65288 0
M  V30 4441 C 436.834 -0.762386 -4.36695 0
M  V30 4442 H 434.054 -0.26367 -0.617024 0
M  V30 4443 H 436.598 -1.35127 -1.53496 0
M  V30 4444 H 434.753 -0.447757 -3.84804 0
M  V30 4445 H 435.167 -2.53224 -4.59323 0
M  V30 4446 H 436.641 -1.03621 -5.42187 0
M  V30 4447 H 437.118 0.303514 -4.3815 0
M  V30 4448 H 437.724 -1.33316 -4.03865 0
M  V30 4449 N 436.039 1.36541 -0.78704 0
M  V30 4450 C 436.986 2.30082 -0.181901 0
M  V30 4451 C 437.956 1.5186 0.672896 0
M  V30 4452 O 439.141 1.80374 0.622072 0
M  V30 4453 C 436.281 3.3835 0.679197 0
M  V30 4454 C 435.394 4.31565 -0.193882 0
M  V30 4455 C 434.529 5.26915 0.673364 0
M  V30 4456 C 433.568 6.11769 -0.201315 0
M  V30 4457 N 432.705 6.99315 0.624777 0
M  V30 4458 H 437.545 2.81248 -0.985064 0
M  V30 4459 H 435.082 1.38437 -0.497342 0
M  V30 4460 H 437.04 3.99767 1.19341 0
M  V30 4461 H 435.67 2.8851 1.44781 0
M  V30 4462 H 434.722 3.71323 -0.826044 0
M  V30 4463 H 436.034 4.91191 -0.867937 0
M  V30 4464 H 435.188 5.9361 1.25348 0
M  V30 4465 H 433.927 4.67737 1.38105 0
M  V30 4466 H 432.932 5.44039 -0.793849 0
M  V30 4467 H 434.157 6.73022 -0.906568 0
M  V30 4468 H 432.103 6.42648 1.3168 0
M  V30 4469 H 432.02 7.56 0.00835237 0
M  V30 4470 H 433.288 7.70382 1.18879 0
M  V30 4471 N 437.518 0.538854 1.48102 0
M  V30 4472 C 438.748 0.0122958 2.06596 0
M  V30 4473 C 439.156 -1.27861 1.39457 0
M  V30 4474 O 438.499 -1.77348 0.478907 0
M  V30 4475 C 438.561 -0.273131 3.58461 0
M  V30 4476 C 438.225 0.92561 4.47528 0
M  V30 4477 C 439.222 1.82637 4.86765 0
M  V30 4478 C 436.907 1.13511 4.89306 0
M  V30 4479 C 438.901 2.92047 5.66558 0
M  V30 4480 C 436.588 2.23233 5.68868 0
M  V30 4481 C 437.586 3.12333 6.07402 0
M  V30 4482 O 437.274 4.20155 6.85365 0
M  V30 4483 H 437.006 0.0344283 0.675123 0
M  V30 4484 H 439.56 0.746494 1.91355 0
M  V30 4485 H 437.79 -1.06141 3.71848 0
M  V30 4486 H 439.479 -0.742842 3.99045 0
M  V30 4487 H 440.245 1.67649 4.55103 0
M  V30 4488 H 436.124 0.450835 4.5879 0
M  V30 4489 H 439.668 3.6162 5.96554 0
M  V30 4490 H 435.565 2.38201 5.99942 0
M  V30 4491 H 436.333 4.17975 7.03732 0
M  V30 4492 N 438.996 -1.55193 0.274407 0
M  V30 4493 C 439.906 -2.26164 -0.623473 0
M  V30 4494 C 440.922 -1.28729 -1.17068 0
M  V30 4495 O 442.098 -1.61663 -1.20112 0
M  V30 4496 C 439.163 -2.96833 -1.7914 0
M  V30 4497 C 438.224 -4.09745 -1.28093 0
M  V30 4498 C 437.457 -4.77034 -2.3932 0
M  V30 4499 O 437.68 -4.4353 -3.5866 0
M  V30 4500 O 436.614 -5.64996 -2.07516 0
M  V30 4501 H 440.44 -3.03661 -0.0485661 0
M  V30 4502 H 438.025 -1.49341 0.0418382 0
M  V30 4503 H 439.907 -3.41248 -2.4724 0
M  V30 4504 H 438.582 -2.22253 -2.35341 0
M  V30 4505 H 437.489 -3.69787 -0.566416 0
M  V30 4506 H 438.822 -4.86224 -0.764683 0
M  V30 4507 N 440.474 -0.00167713 -1.576 0
M  V30 4508 C 441.404 0.988091 -2.11563 0
M  V30 4509 C 442.385 1.35736 -1.02517 0
M  V30 4510 O 443.57 1.44082 -1.30208 0
M  V30 4511 C 440.7 2.27941 -2.62031 0
M  V30 4512 C 439.654 2.0517 -3.75619 0
M  V30 4513 C 438.98 3.4033 -4.12407 0
M  V30 4514 C 440.28 1.41294 -5.02825 0
M  V30 4515 H 441.974 0.538771 -2.94513 0
M  V30 4516 H 439.52 0.257712 -1.41675 0
M  V30 4517 H 441.473 2.97539 -2.9841 0
M  V30 4518 H 440.197 2.74989 -1.76205 0
M  V30 4519 H 438.856 1.37998 -3.39635 0
M  V30 4520 H 438.504 3.85085 -3.23603 0
M  V30 4521 H 438.204 3.25909 -4.88935 0
M  V30 4522 H 439.728 4.1124 -4.51347 0
M  V30 4523 H 441.142 2.00851 -5.36965 0
M  V30 4524 H 439.539 1.37356 -5.84169 0
M  V30 4525 H 440.609 0.382362 -4.8339 0
M  V30 4526 N 441.952 1.55251 0.271103 0
M  V30 4527 C 442.882 1.9127 1.33933 0
M  V30 4528 C 443.863 0.77478 1.5143 0
M  V30 4529 O 445.048 1.03307 1.64442 0
M  V30 4530 C 442.178 2.18627 2.69851 0
M  V30 4531 C 441.132 3.34442 2.67081 0
M  V30 4532 C 440.458 3.47284 4.06569 0
M  V30 4533 C 441.758 4.70784 2.26185 0
M  V30 4534 H 443.452 2.80744 1.04035 0
M  V30 4535 H 440.998 1.35077 0.499017 0
M  V30 4536 H 442.951 2.42413 3.44694 0
M  V30 4537 H 441.675 1.25955 3.01335 0
M  V30 4538 H 440.334 3.10627 1.94695 0
M  V30 4539 H 439.982 2.52074 4.35279 0
M  V30 4540 H 439.682 4.25152 4.0561 0
M  V30 4541 H 441.206 3.73363 4.83148 0
M  V30 4542 H 442.62 4.94102 2.90751 0
M  V30 4543 H 441.017 5.51582 2.36384 0
M  V30 4544 H 442.087 4.69478 1.21319 0
M  V30 4545 N 443.43 -0.535701 1.48216 0
M  V30 4546 C 444.66 -1.3148 1.59363 0
M  V30 4547 C 445.068 -1.8753 0.250844 0
M  V30 4548 O 444.411 -1.66821 -0.769174 0
M  V30 4549 C 444.473 -2.50731 2.57632 0
M  V30 4550 C 444.137 -2.15811 4.02833 0
M  V30 4551 C 445.134 -1.71822 4.90686 0
M  V30 4552 C 442.819 -2.26509 4.48329 0
M  V30 4553 C 444.813 -1.3899 6.22062 0
M  V30 4554 C 442.5 -1.93289 5.79726 0
M  V30 4555 C 443.498 -1.49599 6.66415 0
M  V30 4556 O 443.186 -1.16812 7.95368 0
M  V30 4557 H 442.918 -0.406315 0.540263 0
M  V30 4558 H 445.472 -0.653569 1.94725 0
M  V30 4559 H 443.702 -3.19817 2.1738 0
M  V30 4560 H 445.391 -3.12797 2.58675 0
M  V30 4561 H 446.157 -1.63031 4.56778 0
M  V30 4562 H 442.036 -2.59471 3.81045 0
M  V30 4563 H 445.58 -1.04816 6.89681 0
M  V30 4564 H 441.477 -2.01718 6.13172 0
M  V30 4565 H 442.245 -1.30259 8.08069 0
M  V30 4566 N 444.908 -1.36708 -0.784132 0
M  V30 4567 C 445.838 -1.34153 -1.91116 0
M  V30 4568 C 446.819 -0.212121 -1.68772 0
M  V30 4569 O 448.004 -0.410581 -1.8981 0
M  V30 4570 C 445.134 -1.13535 -3.28218 0
M  V30 4571 C 444.088 -2.23356 -3.65097 0
M  V30 4572 C 443.414 -1.87875 -5.00607 0
M  V30 4573 C 444.714 -3.65473 -3.73131 0
M  V30 4574 H 446.408 -2.28459 -1.93512 0
M  V30 4575 H 443.954 -1.09973 -0.929618 0
M  V30 4576 H 445.907 -1.10381 -4.06687 0
M  V30 4577 H 444.631 -0.156804 -3.26223 0
M  V30 4578 H 443.29 -2.25645 -2.88929 0
M  V30 4579 H 442.938 -0.885814 -4.95139 0
M  V30 4580 H 442.638 -2.61406 -5.26252 0
M  V30 4581 H 444.162 -1.86286 -5.81489 0
M  V30 4582 H 445.576 -3.65382 -4.41779 0
M  V30 4583 H 443.973 -4.37953 -4.10265 0
M  V30 4584 H 445.043 -3.99995 -2.74102 0
M  V30 4585 N 446.386 1.0089 -1.21074 0
M  V30 4586 C 447.349 2.0775 -0.968129 0
M  V30 4587 C 448.349 1.6069 0.0593445 0
M  V30 4588 O 449.539 1.73293 -0.177525 0
M  V30 4589 C 446.671 3.37794 -0.459108 0
M  V30 4590 H 447.864 2.30707 -1.9161 0
M  V30 4591 H 445.417 1.17807 -1.02719 0
M  V30 4592 H 446.152 3.20516 0.49397 0
M  V30 4593 H 445.937 3.7328 -1.20019 0
M  V30 4594 H 447.427 4.16454 -0.309099 0
M  V30 4595 N 447.864 1.01787 1.20321 0
M  V30 4596 C 448.774 0.598898 2.26827 0
M  V30 4597 C 449.79 -0.36418 1.70146 0
M  V30 4598 O 450.966 -0.224812 2.00141 0
M  V30 4599 C 448.031 -0.0549769 3.46656 0
M  V30 4600 C 447.092 0.954205 4.18561 0
M  V30 4601 C 446.325 0.331439 5.3267 0
M  V30 4602 O 446.548 -0.86851 5.63749 0
M  V30 4603 O 445.482 1.0488 5.92692 0
M  V30 4604 H 449.308 1.48562 2.64883 0
M  V30 4605 H 446.893 0.787434 1.26964 0
M  V30 4606 H 448.775 -0.420102 4.19301 0
M  V30 4607 H 447.45 -0.915876 3.10473 0
M  V30 4608 H 446.357 1.37072 3.48083 0
M  V30 4609 H 447.69 1.78511 4.58688 0
M  V30 4610 N 449.342 -1.36122 0.79427 0
M  V30 4611 C 450.274 -2.28683 0.153903 0
M  V30 4612 C 451.287 -1.49707 -0.639669 0
M  V30 4613 O 452.476 -1.7209 -0.474054 0
M  V30 4614 C 449.576 -3.29202 -0.804921 0
M  V30 4615 C 448.749 -4.37358 -0.060366 0
M  V30 4616 C 447.808 -5.17811 -0.935849 0
M  V30 4617 O 446.834 -5.67853 -0.391309 0
M  V30 4618 N 448.036 -5.34721 -2.25951 0
M  V30 4619 H 450.801 -2.84278 0.949008 0
M  V30 4620 H 448.362 -1.4834 0.648611 0
M  V30 4621 H 450.354 -3.79914 -1.39455 0
M  V30 4622 H 448.924 -2.74212 -1.50088 0
M  V30 4623 H 448.144 -3.87746 0.710382 0
M  V30 4624 H 449.432 -5.06777 0.45324 0
M  V30 4625 H 448.83 -4.95687 -2.72601 0
M  V30 4626 H 447.387 -5.88657 -2.79867 0
M  V30 4627 N 450.82 -0.546701 -1.47814 0
M  V30 4628 C 452.067 -0.0187407 -2.02491 0
M  V30 4629 C 452.395 1.32685 -1.42215 0
M  V30 4630 O 451.65 1.87413 -0.563454 0
M  V30 4631 C 451.949 0.134869 -3.57145 0
M  V30 4632 C 451.615 -1.13849 -4.3629 0
M  V30 4633 C 450.277 -1.48743 -4.57634 0
M  V30 4634 C 452.629 -1.98277 -4.82012 0
M  V30 4635 C 449.957 -2.67932 -5.21948 0
M  V30 4636 C 452.309 -3.16659 -5.4764 0
M  V30 4637 C 450.973 -3.51879 -5.67219 0
M  V30 4638 H 450.243 -0.0068577 -0.740968 0
M  V30 4639 H 452.89 -0.716097 -1.77607 0
M  V30 4640 H 451.195 0.915118 -3.80963 0
M  V30 4641 H 452.892 0.558556 -3.97091 0
M  V30 4642 H 449.482 -0.856767 -4.19949 0
M  V30 4643 H 453.666 -1.72628 -4.6531 0
M  V30 4644 H 448.922 -2.95401 -5.35302 0
M  V30 4645 H 453.096 -3.82374 -5.82033 0
M  V30 4646 H 450.723 -4.44331 -6.16825 0
M  V30 4647 N 452.299 1.55045 -0.282633 0
M  V30 4648 C 453.262 2.21515 0.588539 0
M  V30 4649 C 454.262 1.19535 1.07554 0
M  V30 4650 O 455.452 1.44391 0.974514 0
M  V30 4651 C 452.584 2.88704 1.8128 0
M  V30 4652 H 453.777 2.99899 0.00806397 0
M  V30 4653 H 451.33 1.56265 -0.0333067 0
M  V30 4654 H 452.065 2.14352 2.43359 0
M  V30 4655 H 451.85 3.63443 1.47144 0
M  V30 4656 H 453.34 3.39465 2.43214 0
M  V30 4657 N 453.777 0.010035 1.57597 0
M  V30 4658 C 455.025 -0.671371 1.90623 0
M  V30 4659 C 455.346 -1.73753 0.885151 0
M  V30 4660 O 454.616 -1.95752 -0.0760611 0
M  V30 4661 H 453.196 -0.250968 0.703579 0
M  V30 4662 H 455.858 0.0533325 1.94827 0
M  V30 4663 H 454.954 -1.13626 2.90681 0
M  V30 4664 N 455.255 -1.55392 -0.262866 0
M  V30 4665 C 456.501 -1.76737 -0.99458 0
M  V30 4666 C 456.834 -0.572453 -1.85571 0
M  V30 4667 O 456.109 0.429732 -1.89693 0
M  V30 4668 C 456.392 -3.07824 -1.8686 0
M  V30 4669 C 456.245 -4.3769 -1.03672 0
M  V30 4670 C 457.564 -3.35021 -2.85393 0
M  V30 4671 H 454.683 -0.643005 -0.360157 0
M  V30 4672 H 457.325 -1.88126 -0.266216 0
M  V30 4673 H 455.475 -2.98245 -2.48962 0
M  V30 4674 H 457.147 -4.59238 -0.43563 0
M  V30 4675 H 455.39 -4.32461 -0.340513 0
M  V30 4676 H 456.061 -5.25759 -1.6817 0
M  V30 4677 H 458.537 -3.44458 -2.33426 0
M  V30 4678 H 457.413 -4.27989 -3.43681 0
M  V30 4679 H 457.674 -2.55153 -3.61039 0
M  V30 4680 N 456.733 0.527833 -1.48498 0
M  V30 4681 C 457.979 1.28545 -1.56857 0
M  V30 4682 C 458.312 1.92678 -0.242651 0
M  V30 4683 O 457.587 1.79394 0.751545 0
M  V30 4684 C 457.87 2.37314 -2.70839 0
M  V30 4685 C 457.723 1.77858 -4.13142 0
M  V30 4686 C 459.042 3.39068 -2.80573 0
M  V30 4687 H 456.161 0.466006 -0.570971 0
M  V30 4688 H 458.803 0.587784 -1.8068 0
M  V30 4689 H 456.953 2.96821 -2.50658 0
M  V30 4690 H 458.625 1.22385 -4.44769 0
M  V30 4691 H 456.868 1.08383 -4.20042 0
M  V30 4692 H 457.539 2.56624 -4.88721 0
M  V30 4693 H 460.015 2.89518 -2.98862 0
M  V30 4694 H 458.891 4.12566 -3.6205 0
M  V30 4695 H 459.152 3.9975 -1.88818 0
M  V30 4696 N 458.211 1.37122 0.776871 0
M  V30 4697 C 459.141 1.35164 1.90402 0
M  V30 4698 C 460.122 0.221069 1.68657 0
M  V30 4699 O 461.307 0.420642 1.8959 0
M  V30 4700 C 458.437 1.15274 3.27611 0
M  V30 4701 C 457.391 2.25289 3.63908 0
M  V30 4702 C 456.717 1.90527 4.99603 0
M  V30 4703 C 458.017 3.67446 3.71188 0
M  V30 4704 H 459.711 2.29482 1.92297 0
M  V30 4705 H 457.257 1.10465 0.923773 0
M  V30 4706 H 459.21 1.12536 4.06096 0
M  V30 4707 H 457.934 0.174102 3.26136 0
M  V30 4708 H 456.593 2.27174 2.87728 0
M  V30 4709 H 456.241 0.91206 4.94662 0
M  V30 4710 H 455.941 2.64193 5.24858 0
M  V30 4711 H 457.465 1.89367 5.80493 0
M  V30 4712 H 458.879 3.67719 4.39836 0
M  V30 4713 H 457.276 4.40123 4.07936 0
M  V30 4714 H 458.346 4.01443 2.71977 0
M  V30 4715 N 459.689 -1.00246 1.21608 0
M  V30 4716 C 460.919 -1.77373 1.05935 0
M  V30 4717 C 461.327 -1.85059 -0.393686 0
M  V30 4718 O 460.67 -1.31289 -1.28487 0
M  V30 4719 C 460.732 -3.22705 1.58435 0
M  V30 4720 C 460.396 -3.38591 3.06929 0
M  V30 4721 C 461.393 -3.2667 4.04454 0
M  V30 4722 C 459.078 -3.6395 3.46187 0
M  V30 4723 C 461.072 -3.39877 5.39224 0
M  V30 4724 C 458.759 -3.768 4.81108 0
M  V30 4725 C 459.757 -3.6477 5.77436 0
M  V30 4726 O 459.445 -3.77206 7.09909 0
M  V30 4727 H 459.177 -0.56419 0.372378 0
M  V30 4728 H 461.731 -1.26971 1.61454 0
M  V30 4729 H 459.961 -3.74255 0.973147 0
M  V30 4730 H 461.65 -3.81515 1.38568 0
M  V30 4731 H 462.416 -3.06999 3.75468 0
M  V30 4732 H 458.295 -3.72395 2.71741 0
M  V30 4733 H 461.839 -3.30404 6.14393 0
M  V30 4734 H 457.736 -3.95975 5.09779 0
M  V30 4735 H 458.504 -3.94138 7.17355 0
M  V30 4736 N 461.167 -1.02423 -1.1978 0
M  V30 4737 C 462.097 -0.62157 -2.25075 0
M  V30 4738 C 463.078 0.367148 -1.6609 0
M  V30 4739 O 464.263 0.250892 -1.92573 0
M  V30 4740 C 461.393 0.0331826 -3.47284 0
M  V30 4741 C 460.347 -0.877323 -4.18912 0
M  V30 4742 C 459.673 -0.0879296 -5.34628 0
M  V30 4743 C 460.973 -2.18892 -4.74219 0
M  V30 4744 H 462.667 -1.50179 -2.59011 0
M  V30 4745 H 460.213 -0.723547 -1.24502 0
M  V30 4746 H 462.166 0.326488 -4.20133 0
M  V30 4747 H 460.89 0.948164 -3.12534 0
M  V30 4748 H 459.549 -1.15475 -3.47938 0
M  V30 4749 H 459.197 0.828941 -4.96123 0
M  V30 4750 H 458.897 -0.694359 -5.83483 0
M  V30 4751 H 460.421 0.198743 -6.10276 0
M  V30 4752 H 461.835 -1.95746 -5.38847 0
M  V30 4753 H 460.232 -2.74686 -5.33542 0
M  V30 4754 H 461.302 -2.84674 -3.92541 0
M  V30 4755 N 462.645 1.35699 -0.801477 0
M  V30 4756 C 463.592 2.29876 -0.206294 0
M  V30 4757 C 464.562 1.52565 0.656752 0
M  V30 4758 O 465.747 1.81024 0.602906 0
M  V30 4759 C 462.887 3.39052 0.643272 0
M  V30 4760 C 462 4.31335 -0.239644 0
M  V30 4761 C 461.135 5.27599 0.61744 0
M  V30 4762 C 460.174 6.11521 -0.26619 0
M  V30 4763 N 459.311 6.99938 0.550571 0
M  V30 4764 H 464.151 2.80187 -1.01484 0
M  V30 4765 H 461.688 1.37902 -0.511997 0
M  V30 4766 H 463.646 4.0101 1.15094 0
M  V30 4767 H 462.276 2.9003 1.41713 0
M  V30 4768 H 461.328 3.70426 -0.865381 0
M  V30 4769 H 462.64 4.90243 -0.919985 0
M  V30 4770 H 461.794 5.94906 1.19045 0
M  V30 4771 H 460.533 4.69176 1.33137 0
M  V30 4772 H 459.538 5.43166 -0.851507 0
M  V30 4773 H 460.763 6.72022 -0.9779 0
M  V30 4774 H 458.709 6.44008 1.24856 0
M  V30 4775 H 458.626 7.55966 -0.071832 0
M  V30 4776 H 459.894 7.71599 1.10702 0
M  V30 4777 N 464.123 0.554532 1.47522 0
M  V30 4778 C 465.37 0.029479 2.02479 0
M  V30 4779 C 465.698 -1.31929 1.42916 0
M  V30 4780 O 464.953 -1.87112 0.573385 0
M  V30 4781 C 465.252 -0.115927 3.57212 0
M  V30 4782 C 464.918 1.16161 4.3568 0
M  V30 4783 C 463.58 1.51168 4.56839 0
M  V30 4784 C 465.932 2.0083 4.80954 0
M  V30 4785 C 463.26 2.70696 5.2052 0
M  V30 4786 C 465.612 3.19559 5.45953 0
M  V30 4787 C 464.276 3.54882 5.65345 0
M  V30 4788 H 463.546 0.0107871 0.740921 0
M  V30 4789 H 466.193 0.725506 1.77225 0
M  V30 4790 H 464.498 -0.894902 3.81443 0
M  V30 4791 H 466.195 -0.53749 3.97381 0
M  V30 4792 H 462.785 0.879026 4.19489 0
M  V30 4793 H 466.969 1.75093 4.64388 0
M  V30 4794 H 462.225 2.98236 5.33728 0
M  V30 4795 H 466.399 3.85456 5.79997 0
M  V30 4796 H 464.026 4.47596 6.1446 0
M  V30 4797 N 465.601 -1.54893 0.290851 0
M  V30 4798 C 467.017 -1.59476 -0.0628432 0
M  V30 4799 C 467.217 -1.30795 -1.5328 0
M  V30 4800 O 466.273 -1.07644 -2.28406 0
M  V30 4801 C 467.586 -2.98928 0.325962 0
M  V30 4802 C 469.134 -3.11799 0.273882 0
M  V30 4803 C 469.609 -4.53544 0.637359 0
M  V30 4804 N 471.1 -4.59433 0.589507 0
M  V30 4805 C 471.835 -5.67164 0.84335 0
M  V30 4806 N 471.331 -6.82975 1.16263 0
M  V30 4807 N 473.124 -5.56786 0.771091 0
M  V30 4808 H 465.275 -1.71798 1.24896 0
M  V30 4809 H 467.538 -0.801879 0.505663 0
M  V30 4810 H 467.244 -3.24805 1.34887 0
M  V30 4811 H 467.118 -3.75793 -0.325441 0
M  V30 4812 H 469.505 -2.85677 -0.739765 0
M  V30 4813 H 469.586 -2.37112 0.959766 0
M  V30 4814 H 469.23 -4.80394 1.64877 0
M  V30 4815 H 469.16 -5.26553 -0.0704866 0
M  V30 4816 H 471.651 -3.76245 0.353252 0
M  V30 4817 H 471.964 -7.61048 1.34257 0
M  V30 4818 H 470.309 -6.84552 1.20057 0
M  V30 4819 H 473.5 -4.65187 0.521383 0
M  V30 4820 H 473.673 -6.40664 0.972295 0
M  V30 4821 N 467.08 -0.0183926 -1.57589 0
M  V30 4822 C 468.01 0.965596 -2.12599 0
M  V30 4823 C 468.991 1.34641 -1.0395 0
M  V30 4824 O 470.176 1.42693 -1.31729 0
M  V30 4825 C 467.306 2.25149 -2.64434 0
M  V30 4826 C 466.26 2.01175 -3.77773 0
M  V30 4827 C 465.586 3.35937 -4.15994 0
M  V30 4828 C 466.886 1.35953 -5.04296 0
M  V30 4829 H 468.58 0.507504 -2.95067 0
M  V30 4830 H 466.126 0.242671 -1.41941 0
M  V30 4831 H 468.079 2.94357 -3.01549 0
M  V30 4832 H 466.803 2.73105 -1.79112 0
M  V30 4833 H 465.462 1.34388 -3.4108 0
M  V30 4834 H 465.11 3.81631 -3.27669 0
M  V30 4835 H 464.81 3.20705 -4.92364 0
M  V30 4836 H 466.334 4.0643 -4.55683 0
M  V30 4837 H 467.748 1.95144 -5.39065 0
M  V30 4838 H 466.145 1.31152 -5.85593 0
M  V30 4839 H 467.215 0.331071 -4.83768 0
M  V30 4840 N 468.558 1.5553 0.254621 0
M  V30 4841 C 469.969 1.67518 0.824286 0
M  V30 4842 C 470.32 0.614429 1.86331 0
M  V30 4843 O 469.445 -0.240736 2.15057 0
M  V30 4844 C 470.04 3.03692 1.50189 0
M  V30 4845 C 468.599 3.17646 2.01935 0
M  V30 4846 C 467.746 2.63373 0.867746 0
M  V30 4847 H 470.697 1.58671 0.0305843 0
M  V30 4848 H 470.718 2.97706 2.36962 0
M  V30 4849 H 470.23 3.80874 0.745431 0
M  V30 4850 H 468.331 2.45273 2.80485 0
M  V30 4851 H 468.444 4.24455 2.22204 0
M  V30 4852 H 466.808 2.20999 1.26616 0
M  V30 4853 H 467.591 3.43074 0.124498 0
M  V30 4854 N 470.036 -0.519951 1.48776 0
M  V30 4855 C 470.946 -1.65025 1.66745 0
M  V30 4856 C 471.962 -1.6508 0.549954 0
M  V30 4857 O 473.138 -1.83848 0.822295 0
M  V30 4858 C 470.203 -3.0146 1.71238 0
M  V30 4859 C 469.264 -3.12182 2.94688 0
M  V30 4860 C 468.497 -4.42109 2.98958 0
M  V30 4861 O 468.72 -5.29799 2.1135 0
M  V30 4862 O 467.654 -4.57406 3.91233 0
M  V30 4863 H 471.48 -1.52801 2.62461 0
M  V30 4864 H 469.065 -0.694157 1.32294 0
M  V30 4865 H 470.947 -3.82584 1.76657 0
M  V30 4866 H 469.622 -3.13988 0.786975 0
M  V30 4867 H 468.529 -2.30316 2.94797 0
M  V30 4868 H 469.862 -3.04574 3.86646 0
M  V30 4869 N 471.514 -1.37532 -0.769588 0
M  V30 4870 C 472.763 -1.32183 -1.5235 0
M  V30 4871 C 473.076 0.0906555 -1.9539 0
M  V30 4872 O 474.282 0.266628 -2.70188 0
M  V30 4873 C 472.738 -2.32029 -2.75119 0
M  V30 4874 C 472.346 -3.78816 -2.3917 0
M  V30 4875 C 474.09 -2.35694 -3.53056 0
M  V30 4876 C 471.997 -4.70388 -3.58453 0
M  V30 4877 H 470.927 -0.491275 -0.571984 0
M  V30 4878 H 473.578 -1.63004 -0.842739 0
M  V30 4879 H 471.96 -1.94229 -3.45096 0
M  V30 4880 H 473.134 -4.25466 -1.76962 0
M  V30 4881 H 471.449 -3.78117 -1.74402 0
M  V30 4882 H 474.046 -3.01312 -4.41718 0
M  V30 4883 H 474.389 -1.37117 -3.93071 0
M  V30 4884 H 474.922 -2.72212 -2.90078 0
M  V30 4885 H 471.661 -5.70102 -3.23518 0
M  V30 4886 H 471.181 -4.28442 -4.19758 0
M  V30 4887 H 472.86 -4.87628 -4.25239 0
M  V30 4888 N 472.992 0.995999 -1.22138 0
M  V30 4889 C 474.217 1.77601 -1.0711 0
M  V30 4890 C 474.642 1.84339 0.374264 0
M  V30 4891 O 474 1.29359 1.27028 0
M  V30 4892 C 474.048 3.18897 -1.68336 0
M  V30 4893 O 473.152 4.01663 -0.934928 0
M  V30 4894 H 472.493 0.547011 -0.376397 0
M  V30 4895 H 475.023 1.25137 -1.6187 0
M  V30 4896 H 475.033 3.69539 -1.72931 0
M  V30 4897 H 473.708 3.13308 -2.73516 0
M  V30 4898 H 472.285 3.60204 -0.964751 0
M  V30 4899 N 474.47 1.03057 1.19235 0
M  V30 4900 C 475.886 0.747947 1.40989 0
M  V30 4901 C 476.086 -0.666752 1.90149 0
M  V30 4902 O 475.142 -1.43249 2.07933 0
M  V30 4903 C 476.455 1.7855 2.41951 0
M  V30 4904 C 478.003 1.80524 2.55695 0
M  V30 4905 C 478.478 2.83243 3.59913 0
M  V30 4906 N 479.969 2.8207 3.67411 0
M  V30 4907 C 480.704 3.58204 4.47747 0
M  V30 4908 N 480.2 4.44057 5.31775 0
M  V30 4909 N 481.993 3.46738 4.42413 0
M  V30 4910 H 474.144 1.94367 0.856468 0
M  V30 4911 H 476.407 0.840412 0.438647 0
M  V30 4912 H 476.113 2.79973 2.12857 0
M  V30 4913 H 475.987 1.6092 3.41152 0
M  V30 4914 H 478.374 0.79778 2.84112 0
M  V30 4915 H 478.455 2.02229 1.56643 0
M  V30 4916 H 478.099 3.84161 3.32239 0
M  V30 4917 H 478.029 2.58795 4.5862 0
M  V30 4918 H 480.52 2.19803 3.074 0
M  V30 4919 H 480.833 4.98884 5.90199 0
M  V30 4920 H 479.178 4.48129 5.3123 0
M  V30 4921 H 482.369 2.79077 3.75811 0
M  V30 4922 H 482.542 4.06322 5.04783 0
M  V30 4923 N 475.948 -1.35272 0.808662 0
M  V30 4924 C 477.195 -1.98709 0.390003 0
M  V30 4925 C 477.523 -1.64148 -1.04335 0
M  V30 4926 O 476.778 -0.897797 -1.73891 0
M  V30 4927 C 477.077 -3.53556 0.522798 0
M  V30 4928 C 476.743 -4.0799 1.91977 0
M  V30 4929 C 475.405 -4.22568 2.30195 0
M  V30 4930 C 477.757 -4.37442 2.83361 0
M  V30 4931 C 475.085 -4.63918 3.59162 0
M  V30 4932 C 477.437 -4.80232 4.11776 0
M  V30 4933 C 476.101 -4.93016 4.49991 0
M  V30 4934 H 475.371 -0.727127 0.142712 0
M  V30 4935 H 478.018 -1.6145 1.02985 0
M  V30 4936 H 476.323 -3.91287 -0.200494 0
M  V30 4937 H 478.02 -4.00598 0.179608 0
M  V30 4938 H 474.61 -3.97096 1.61284 0
M  V30 4939 H 478.794 -4.25731 2.55083 0
M  V30 4940 H 474.05 -4.72005 3.88615 0
M  V30 4941 H 478.224 -5.01982 4.82687 0
M  V30 4942 H 475.851 -5.24814 5.49976 0
M  V30 4943 N 477.426 -0.562348 -1.47226 0
M  V30 4944 C 478.651 -0.0432632 -2.07355 0
M  V30 4945 C 479.076 1.24332 -1.41149 0
M  V30 4946 O 478.434 1.74603 -0.488226 0
M  V30 4947 C 478.482 0.130288 -3.60365 0
M  V30 4948 O 477.586 1.19166 -3.94808 0
M  V30 4949 H 476.927 -0.0536334 -0.66183 0
M  V30 4950 H 479.457 -0.779495 -1.89169 0
M  V30 4951 H 479.467 0.342881 -4.06557 0
M  V30 4952 H 478.142 -0.809389 -4.07948 0
M  V30 4953 H 476.719 0.959153 -3.60354 0
M  V30 4954 N 478.904 1.54736 -0.299062 0
M  V30 4955 C 479.867 2.22127 0.565012 0
M  V30 4956 C 480.867 1.20669 1.06281 0
M  V30 4957 O 482.057 1.45417 0.959145 0
M  V30 4958 C 479.189 2.90611 1.78208 0
M  V30 4959 H 480.382 2.99891 -0.0237448 0
M  V30 4960 H 477.935 1.5622 -0.0498788 0
M  V30 4961 H 478.67 2.16921 2.41072 0
M  V30 4962 H 478.455 3.64984 1.43281 0
M  V30 4963 H 479.945 3.42026 2.396 0
M  V30 4964 N 480.382 0.0267497 1.57577 0
M  V30 4965 C 481.292 -0.971633 2.13533 0
M  V30 4966 C 482.308 -1.35868 1.08701 0
M  V30 4967 O 483.484 -1.44058 1.40746 0
M  V30 4968 C 480.549 -2.23622 2.64941 0
M  V30 4969 C 479.61 -1.90982 3.8448 0
M  V30 4970 C 478.843 -3.11411 4.33427 0
M  V30 4971 O 479.066 -4.23992 3.81558 0
M  V30 4972 O 478 -2.93848 5.25297 0
M  V30 4973 H 481.826 -0.525853 2.99113 0
M  V30 4974 H 479.411 -0.193712 1.48139 0
M  V30 4975 H 481.293 -2.97864 2.98086 0
M  V30 4976 H 479.968 -2.67386 1.82446 0
M  V30 4977 H 478.875 -1.14132 3.56265 0
M  V30 4978 H 480.208 -1.52036 4.6813 0
M  V30 4979 N 481.861 -1.55662 -0.24637 0
M  V30 4980 C 483.108 -1.77519 -0.974335 0
M  V30 4981 C 483.436 -0.591165 -1.85298 0
M  V30 4982 O 482.691 0.425497 -1.91018 0
M  V30 4983 C 482.99 -3.04885 -1.86494 0
M  V30 4984 C 482.656 -4.36209 -1.14161 0
M  V30 4985 C 481.318 -4.71896 -0.941701 0
M  V30 4986 C 483.67 -5.17391 -0.628957 0
M  V30 4987 C 480.998 -5.86299 -0.216852 0
M  V30 4988 C 483.35 -6.32546 0.0824273 0
M  V30 4989 C 482.014 -6.66853 0.293807 0
M  V30 4990 H 481.284 -0.649588 -0.356535 0
M  V30 4991 H 483.931 -1.89934 -0.244394 0
M  V30 4992 H 482.236 -2.87484 -2.66196 0
M  V30 4993 H 483.933 -3.18994 -2.42989 0
M  V30 4994 H 480.523 -4.08174 -1.30736 0
M  V30 4995 H 484.707 -4.90276 -0.770943 0
M  V30 4996 H 479.963 -6.11385 -0.0426124 0
M  V30 4997 H 484.137 -6.94693 0.487292 0
M  V30 4998 H 481.764 -7.55349 0.857428 0
M  V30 4999 N 483.339 0.512053 -1.4905 0
M  V30 5000 C 484.616 1.27337 -1.48474 0
M  V30 5001 C 484.996 2.1009 -0.206301 0
M  V30 5002 O 484.344 2.136 0.811609 0
M  V30 5003 C 484.554 2.13954 -2.75726 0
M  V30 5004 C 485.902 2.73507 -3.24776 0
M  V30 5005 O 486.926 2.24229 -2.76767 0
M  V30 5006 O 485.785 3.63186 -4.08361 0
M  V30 5007 H 482.879 0.575652 -0.593762 0
M  V30 5008 H 485.425 0.527232 -1.61302 0
M  V30 5009 H 484.197 1.52709 -3.60272 0
M  V30 5010 H 483.82 2.95782 -2.65705 0
M  V30 5011 N 484.817 1.37938 0.762283 0
M  V30 5012 C 486.064 1.33668 1.52115 0
M  V30 5013 C 486.392 -0.0759538 1.94352 0
M  V30 5014 O 485.647 -1.05121 1.6507 0
M  V30 5015 C 485.946 2.23042 2.79261 0
M  V30 5016 C 485.612 3.71159 2.56031 0
M  V30 5017 C 484.274 4.11523 2.49404 0
M  V30 5018 C 486.626 4.64955 2.35513 0
M  V30 5019 C 483.954 5.43784 2.20263 0
M  V30 5020 C 486.306 5.97464 2.07894 0
M  V30 5021 C 484.97 6.36922 1.99718 0
M  V30 5022 H 484.24 0.489127 0.556629 0
M  V30 5023 H 486.887 1.70224 0.877262 0
M  V30 5024 H 485.192 1.79512 3.48256 0
M  V30 5025 H 486.889 2.17047 3.37182 0
M  V30 5026 H 483.479 3.39153 2.62056 0
M  V30 5027 H 487.663 4.34623 2.39617 0
M  V30 5028 H 482.919 5.73307 2.12435 0
M  V30 5029 H 487.093 6.6969 1.91019 0
M  V30 5030 H 484.72 7.39331 1.76902 0
M  V30 5031 N 486.295 -0.989507 1.22664 0
M  V30 5032 C 487.711 -1.25395 0.987331 0
M  V30 5033 C 487.911 -1.9899 -0.317056 0
M  V30 5034 O 486.967 -2.30141 -1.03882 0
M  V30 5035 C 488.28 -2.06242 2.18826 0
M  V30 5036 C 489.828 -2.19413 2.23219 0
M  V30 5037 C 490.303 -3.03648 3.42873 0
M  V30 5038 N 491.794 -3.11234 3.43056 0
M  V30 5039 C 492.529 -3.7671 4.32293 0
M  V30 5040 N 492.025 -4.44085 5.31752 0
M  V30 5041 N 493.818 -3.73505 4.2006 0
M  V30 5042 H 485.969 -0.496212 2.06522 0
M  V30 5043 H 488.232 -0.281784 0.905153 0
M  V30 5044 H 487.938 -1.59531 3.13437 0
M  V30 5045 H 487.812 -3.06996 2.19165 0
M  V30 5046 H 490.199 -2.65336 1.29154 0
M  V30 5047 H 490.28 -1.18078 2.26917 0
M  V30 5048 H 489.924 -2.58424 4.37241 0
M  V30 5049 H 489.854 -4.05132 3.36416 0
M  V30 5050 H 492.345 -2.63287 2.71088 0
M  V30 5051 H 492.658 -4.91797 5.96117 0
M  V30 5052 H 491.003 -4.42822 5.35662 0
M  V30 5053 H 494.194 -3.20033 3.41609 0
M  V30 5054 H 494.367 -4.24253 4.8981 0
M  V30 5055 N 487.773 -1.03688 -1.18687 0
M  V30 5056 C 489.001 -0.757918 -1.92518 0
M  V30 5057 C 489.416 0.684398 -1.75959 0
M  V30 5058 O 488.773 1.46617 -1.08673 0
M  V30 5059 C 488.824 -1.10985 -3.44042 0
M  V30 5060 O 488.545 -2.49554 -3.60076 0
M  V30 5061 C 490.046 -0.854844 -4.3498 0
M  V30 5062 H 487.266 -0.276699 -0.611293 0
M  V30 5063 H 489.81 -1.38352 -1.50595 0
M  V30 5064 H 487.965 -0.529279 -3.83767 0
M  V30 5065 H 488.379 -2.6291 -4.53849 0
M  V30 5066 H 489.853 -1.15098 -5.39867 0
M  V30 5067 H 490.33 0.210507 -4.38695 0
M  V30 5068 H 490.936 -1.41853 -4.00946 0
M  V30 5069 N 489.251 1.34841 -0.815825 0
M  V30 5070 C 490.481 2.02436 -0.412695 0
M  V30 5071 C 490.889 1.61604 0.983906 0
M  V30 5072 O 490.232 0.813729 1.64694 0
M  V30 5073 C 490.294 3.56953 -0.427182 0
M  V30 5074 C 489.958 4.21083 -1.77589 0
M  V30 5075 C 490.955 4.42107 -2.73564 0
M  V30 5076 C 488.64 4.58006 -2.06243 0
M  V30 5077 C 490.634 4.99169 -3.9637 0
M  V30 5078 C 488.321 5.1478 -3.2931 0
M  V30 5079 C 489.319 5.35304 -4.24191 0
M  V30 5080 O 489.007 5.90878 -5.45086 0
M  V30 5081 H 488.739 0.655631 -0.164695 0
M  V30 5082 H 491.293 1.73246 -1.1034 0
M  V30 5083 H 489.523 3.85372 0.320175 0
M  V30 5084 H 491.212 4.05875 -0.0450875 0
M  V30 5085 H 491.978 4.13953 -2.52721 0
M  V30 5086 H 487.857 4.41339 -1.33196 0
M  V30 5087 H 491.401 5.15105 -4.70439 0
M  V30 5088 H 487.298 5.42362 -3.5002 0
M  V30 5089 H 488.066 6.0932 -5.46508 0
M  V30 5090 N 490.729 0.570148 1.46925 0
M  V30 5091 C 492.006 -0.0153259 1.95594 0
M  V30 5092 C 492.386 -1.47232 1.51281 0
M  V30 5093 O 491.734 -2.15574 0.757624 0
M  V30 5094 C 491.944 0.143624 3.48704 0
M  V30 5095 C 493.292 0.00494484 4.246 0
M  V30 5096 O 494.316 0.0718214 3.56128 0
M  V30 5097 O 493.175 -0.141175 5.46318 0
M  V30 5098 H 490.269 -0.0568819 0.825041 0
M  V30 5099 H 492.815 0.637583 1.57267 0
M  V30 5100 H 491.587 1.15699 3.73804 0
M  V30 5101 H 491.21 -0.5463 3.93829 0
M  V30 5102 N 492.207 -1.54576 0.307264 0
M  V30 5103 C 493.432 -2.05139 -0.305379 0
M  V30 5104 C 493.857 -1.18278 -1.46259 0
M  V30 5105 O 493.215 -0.188243 -1.8032 0
M  V30 5106 C 493.263 -3.53066 -0.733283 0
M  V30 5107 O 492.367 -3.69206 -1.83741 0
M  V30 5108 H 491.708 -0.661444 -0.0582105 0
M  V30 5109 H 494.238 -1.99569 0.450931 0
M  V30 5110 H 494.248 -3.95034 -1.02039 0
M  V30 5111 H 492.923 -4.15746 0.113198 0
M  V30 5112 H 491.5 -3.39143 -1.55037 0
M  V30 5113 N 493.685 -0.035106 -1.57561 0
M  V30 5114 C 494.595 0.960295 -2.14046 0
M  V30 5115 C 495.611 1.3529 -1.0942 0
M  V30 5116 O 496.787 1.43309 -1.41508 0
M  V30 5117 C 493.852 2.22214 -2.66124 0
M  V30 5118 C 492.913 1.8894 -3.85487 0
M  V30 5119 C 492.146 3.09109 -4.35072 0
M  V30 5120 O 492.369 4.21963 -3.83802 0
M  V30 5121 O 491.303 2.91058 -5.26848 0
M  V30 5122 H 495.129 0.509983 -2.99387 0
M  V30 5123 H 492.714 0.185853 -1.48239 0
M  V30 5124 H 494.596 2.96279 -2.99661 0
M  V30 5125 H 493.271 2.66414 -1.83862 0
M  V30 5126 H 492.178 1.12241 -3.56865 0
M  V30 5127 H 493.511 1.49551 -4.6893 0
M  V30 5128 N 495.163 1.55791 0.238111 0
M  V30 5129 C 496.411 1.77681 0.963001 0
M  V30 5130 C 496.732 0.600674 1.85518 0
M  V30 5131 O 496.002 -0.383182 1.92116 0
M  V30 5132 H 494.582 0.655315 0.358568 0
M  V30 5133 H 497.244 1.93239 0.253945 0
M  V30 5134 H 496.34 2.69177 1.57956 0
M  V30 5135 N 496.642 -0.504142 1.49319 0
M  V30 5136 C 497.888 -1.26033 1.58882 0
M  V30 5137 C 498.221 -1.92268 0.273274 0
M  V30 5138 O 497.496 -1.80567 -0.72291 0
M  V30 5139 C 497.779 -2.32976 2.7458 0
M  V30 5140 C 497.632 -1.71263 4.1592 0
M  V30 5141 C 498.951 -3.34561 2.85932 0
M  V30 5142 H 496.07 -0.456863 0.578312 0
M  V30 5143 H 498.712 -0.558965 1.81592 0
M  V30 5144 H 496.862 -2.92796 2.55348 0
M  V30 5145 H 498.534 -1.15294 4.4666 0
M  V30 5146 H 496.777 -1.01686 4.21714 0
M  V30 5147 H 497.448 -2.48816 4.92742 0
M  V30 5148 H 499.924 -2.84727 3.0343 0
M  V30 5149 H 498.8 -4.06754 3.68568 0
M  V30 5150 H 499.061 -3.96695 1.95154 0
M  V30 5151 N 498.12 -1.38341 -0.754957 0
M  V30 5152 C 499.369 -1.33791 -1.5094 0
M  V30 5153 C 499.682 0.0699267 -1.95475 0
M  V30 5154 O 500.888 0.237956 -2.70455 0
M  V30 5155 C 499.344 -2.34934 -2.72643 0
M  V30 5156 C 498.952 -3.81332 -2.35138 0
M  V30 5157 C 500.696 -2.39425 -3.50536 0
M  V30 5158 C 498.603 -4.74164 -3.53444 0
M  V30 5159 H 497.533 -0.497314 -0.566741 0
M  V30 5160 H 500.184 -1.63888 -0.825403 0
M  V30 5161 H 498.566 -1.97878 -3.43017 0
M  V30 5162 H 499.74 -4.27319 -1.7244 0
M  V30 5163 H 498.055 -3.79946 -1.70382 0
M  V30 5164 H 500.652 -3.0598 -4.38498 0
M  V30 5165 H 500.995 -1.41278 -3.91594 0
M  V30 5166 H 501.528 -2.75274 -2.87174 0
M  V30 5167 H 498.267 -5.73501 -3.17453 0
M  V30 5168 H 497.787 -4.3287 -4.15191 0
M  V30 5169 H 499.466 -4.92111 -4.20043 0
M  V30 5170 N 499.598 0.982988 -1.23187 0
M  V30 5171 C 500.528 2.09301 -1.03515 0
M  V30 5172 C 501.509 1.70035 0.0471136 0
M  V30 5173 O 502.694 1.93847 -0.117029 0
M  V30 5174 C 499.824 3.4167 -0.622791 0
M  V30 5175 C 498.778 3.94828 -1.65211 0
M  V30 5176 C 498.104 5.23362 -1.09527 0
M  V30 5177 C 499.404 4.2439 -3.04451 0
M  V30 5178 H 501.098 2.26016 -1.96359 0
M  V30 5179 H 498.644 1.08611 -0.945501 0
M  V30 5180 H 500.597 4.18746 -0.472233 0
M  V30 5181 H 499.321 3.24811 0.341329 0
M  V30 5182 H 497.98 3.19895 -1.79061 0
M  V30 5183 H 497.628 5.02852 -0.122211 0
M  V30 5184 H 497.328 5.59895 -1.783 0
M  V30 5185 H 498.852 6.03062 -0.956511 0
M  V30 5186 H 500.266 4.92225 -2.93917 0
M  V30 5187 H 498.663 4.72118 -3.70438 0
M  V30 5188 H 499.733 3.31765 -3.53638 0
M  V30 5189 N 501.076 1.04316 1.18135 0
M  V30 5190 C 502.306 0.767003 1.91835 0
M  V30 5191 C 502.714 -0.68002 1.76557 0
M  V30 5192 O 502.057 -1.47548 1.09432 0
M  V30 5193 C 502.119 1.05674 3.43618 0
M  V30 5194 C 501.783 2.49818 3.82675 0
M  V30 5195 C 502.78 3.48003 3.86251 0
M  V30 5196 C 500.465 2.84596 4.13897 0
M  V30 5197 C 502.459 4.79016 4.20503 0
M  V30 5198 C 500.146 4.15813 4.4782 0
M  V30 5199 C 501.144 5.12834 4.51099 0
M  V30 5200 O 500.832 6.41699 4.84229 0
M  V30 5201 H 500.564 0.278948 0.615763 0
M  V30 5202 H 503.118 1.3946 1.50798 0
M  V30 5203 H 501.348 0.372029 3.84906 0
M  V30 5204 H 503.037 0.767994 3.98568 0
M  V30 5205 H 503.803 3.22475 3.62264 0
M  V30 5206 H 499.682 2.09748 4.1052 0
M  V30 5207 H 503.226 5.54739 4.22978 0
M  V30 5208 H 499.123 4.41109 4.71268 0
M  V30 5209 H 499.891 6.46387 5.02121 0
M  V30 5210 N 502.554 -1.34406 0.822964 0
M  V30 5211 C 503.517 -2.2783 0.250271 0
M  V30 5212 C 504.517 -1.50288 -0.571854 0
M  V30 5213 O 505.707 -1.69825 -0.387952 0
M  V30 5214 C 502.839 -3.34663 -0.649137 0
M  V30 5215 H 504.032 -2.79992 1.07444 0
M  V30 5216 H 501.585 -1.44539 0.594829 0
M  V30 5217 H 502.32 -2.87714 -1.49637 0
M  V30 5218 H 502.105 -3.92052 -0.0611199 0
M  V30 5219 H 503.595 -4.04349 -1.04363 0
M  V30 5220 N 504.032 -0.577932 -1.46621 0
M  V30 5221 C 504.942 0.160651 -2.34049 0
M  V30 5222 C 505.958 0.890911 -1.49462 0
M  V30 5223 O 507.134 0.855166 -1.82343 0
M  V30 5224 C 504.199 1.16447 -3.26559 0
M  V30 5225 C 503.26 0.4394 -4.27045 0
M  V30 5226 C 502.493 1.3954 -5.15135 0
M  V30 5227 O 502.716 2.63162 -5.06065 0
M  V30 5228 O 501.65 0.908585 -5.95003 0
M  V30 5229 H 505.476 -0.557057 -2.98547 0
M  V30 5230 H 503.061 -0.338369 -1.45518 0
M  V30 5231 H 504.943 1.7434 -3.83645 0
M  V30 5232 H 503.618 1.86373 -2.64663 0
M  V30 5233 H 502.525 -0.181247 -3.73661 0
M  V30 5234 H 503.858 -0.218799 -4.91713 0
M  V30 5235 N 505.51 1.54411 -0.315457 0
M  V30 5236 C 506.735 2.05299 0.294496 0
M  V30 5237 C 507.16 1.19052 1.4563 0
M  V30 5238 O 506.518 0.197804 1.80218 0
M  V30 5239 C 506.566 3.5345 0.714549 0
M  V30 5240 O 505.67 3.70175 1.81781 0
M  V30 5241 H 505.011 0.661743 0.0547019 0
M  V30 5242 H 507.541 1.99327 -0.461508 0
M  V30 5243 H 507.551 3.9557 0.999426 0
M  V30 5244 H 506.226 4.1568 -0.135244 0
M  V30 5245 H 504.803 3.3996 1.53236 0
M  V30 5246 N 506.988 0.0434614 1.5754 0
M  V30 5247 C 508.237 -0.631454 1.91561 0
M  V30 5248 C 508.55 -1.72457 0.92292 0
M  V30 5249 O 509.756 -2.45712 1.15489 0
M  V30 5250 C 508.212 -1.17447 3.40197 0
M  V30 5251 C 507.82 -0.113867 4.47855 0
M  V30 5252 C 509.564 -1.82507 3.83264 0
M  V30 5253 C 507.471 -0.669326 5.876 0
M  V30 5254 H 506.401 -0.239629 0.714908 0
M  V30 5255 H 509.052 0.111097 1.83163 0
M  V30 5256 H 507.434 -1.96909 3.43574 0
M  V30 5257 H 508.608 0.659348 4.56058 0
M  V30 5258 H 506.923 0.438821 4.14081 0
M  V30 5259 H 509.52 -2.25047 4.85034 0
M  V30 5260 H 509.863 -2.67365 3.19095 0
M  V30 5261 H 510.396 -1.09712 3.82372 0
M  V30 5262 H 507.135 0.141449 6.55347 0
M  V30 5263 H 506.655 -1.4107 5.82974 0
M  V30 5264 H 508.334 -1.15463 6.36614 0
M  V30 5265 N 508.466 -1.55915 -0.229846 0
M  V30 5266 C 509.743 -1.6932 -0.979295 0
M  V30 5267 C 510.123 -0.588321 -2.02736 0
M  V30 5268 O 509.471 0.40586 -2.24867 0
M  V30 5269 C 509.681 -3.10305 -1.59724 0
M  V30 5270 C 511.029 -3.6945 -2.09264 0
M  V30 5271 O 512.053 -3.13214 -1.69633 0
M  V30 5272 O 510.912 -4.68072 -2.82082 0
M  V30 5273 H 508.006 -0.689314 -0.456919 0
M  V30 5274 H 510.552 -1.68238 -0.222283 0
M  V30 5275 H 509.324 -3.82177 -0.840039 0
M  V30 5276 H 508.947 -3.1547 -2.42001 0
M  V30 5277 N 509.944 0.496216 -1.49584 0
M  V30 5278 C 510.894 1.59422 -1.62999 0
M  V30 5279 C 511.878 1.53402 -0.485457 0
M  V30 5280 O 513.07 1.60851 -0.738649 0
M  V30 5281 C 510.199 2.98009 -1.70427 0
M  V30 5282 C 509.285 3.09008 -2.90473 0
M  V30 5283 N 509.676 2.89884 -4.14489 0
M  V30 5284 C 507.974 3.40115 -2.8851 0
M  V30 5285 C 508.675 3.0519 -4.95211 0
M  V30 5286 N 507.651 3.3428 -4.2867 0
M  V30 5287 H 511.453 1.43297 -2.56599 0
M  V30 5288 H 508.967 0.702443 -1.46422 0
M  V30 5289 H 510.964 3.76926 -1.78136 0
M  V30 5290 H 509.624 3.152 -0.77967 0
M  V30 5291 H 510.635 2.65963 -4.44392 0
M  V30 5292 H 507.312 3.63452 -2.05448 0
M  V30 5293 H 508.702 2.94856 -6.03746 0
M  V30 5294 N 511.423 1.38739 0.74761 0
M  V30 5295 C 512.648 1.38702 1.54197 0
M  V30 5296 C 513.073 -0.019664 1.8809 0
M  V30 5297 O 512.431 -1.00333 1.51006 0
M  V30 5298 C 512.479 2.25492 2.814 0
M  V30 5299 O 511.583 1.67613 3.76802 0
M  V30 5300 H 510.924 0.472863 0.466151 0
M  V30 5301 H 513.454 1.82577 0.923413 0
M  V30 5302 H 513.464 2.39561 3.30264 0
M  V30 5303 H 512.139 3.27727 2.56062 0
M  V30 5304 H 510.716 1.62718 3.35526 0
M  V30 5305 N 512.901 -0.976442 1.23707 0
M  V30 5306 C 513.864 -2.0511 1.02287 0
M  V30 5307 C 514.864 -1.60791 -0.0167195 0
M  V30 5308 O 516.054 -1.72761 0.223408 0
M  V30 5309 C 513.186 -3.36458 0.548507 0
M  V30 5310 H 514.379 -2.25545 1.9766 0
M  V30 5311 H 511.932 -1.15042 1.05806 0
M  V30 5312 H 512.667 -3.21713 -0.408818 0
M  V30 5313 H 512.452 -3.69967 1.29874 0
M  V30 5314 H 513.942 -4.15489 0.419406 0
M  V30 5315 N 514.379 -1.04941 -1.1758 0
M  V30 5316 C 515.625 -0.768896 -1.88307 0
M  V30 5317 C 515.98 0.696361 -1.79356 0
M  V30 5318 O 515.273 1.50245 -1.18899 0
M  V30 5319 C 515.467 -1.18062 -3.37337 0
M  V30 5320 C 515.296 -2.68436 -3.60794 0
M  V30 5321 C 514.066 -3.35709 -3.77661 0
M  V30 5322 C 516.264 -3.66657 -3.60649 0
M  V30 5323 N 514.246 -4.74974 -3.88939 0
M  V30 5324 C 515.617 -4.91638 -3.77747 0
M  V30 5325 C 517.672 -3.60162 -3.43785 0
M  V30 5326 C 516.375 -6.10902 -3.79726 0
M  V30 5327 C 518.401 -4.78863 -3.47051 0
M  V30 5328 C 517.763 -6.02666 -3.64654 0
M  V30 5329 H 513.862 -0.33355 -0.707296 0
M  V30 5330 H 516.446 -1.34085 -1.41171 0
M  V30 5331 H 514.617 -0.636648 -3.83147 0
M  V30 5332 H 516.349 -0.8502 -3.95669 0
M  V30 5333 H 513.104 -2.8611 -3.77409 0
M  V30 5334 H 513.528 -5.47378 -3.98379 0
M  V30 5335 H 518.17 -2.65412 -3.29114 0
M  V30 5336 H 515.888 -7.05998 -3.93182 0
M  V30 5337 H 519.474 -4.75488 -3.35265 0
M  V30 5338 H 518.354 -6.92979 -3.67083 0
M  V30 5339 N 515.857 1.33968 -0.830081 0
M  V30 5340 C 516.787 2.31911 -0.271911 0
M  V30 5341 C 517.768 1.58571 0.61556 0
M  V30 5342 O 518.953 1.86514 0.540946 0
M  V30 5343 C 516.083 3.42737 0.561146 0
M  V30 5344 C 515.037 4.27383 -0.229789 0
M  V30 5345 C 514.363 5.29742 0.726463 0
M  V30 5346 C 515.663 5.02 -1.44197 0
M  V30 5347 H 517.357 2.78844 -1.09025 0
M  V30 5348 H 514.903 1.34061 -0.52571 0
M  V30 5349 H 516.856 4.10276 0.961867 0
M  V30 5350 H 515.58 2.94471 1.41261 0
M  V30 5351 H 514.239 3.61456 -0.611964 0
M  V30 5352 H 513.887 4.77736 1.57408 0
M  V30 5353 H 513.587 5.87255 0.20142 0
M  V30 5354 H 515.111 6.00149 1.12489 0
M  V30 5355 H 516.525 5.62355 -1.11488 0
M  V30 5356 H 514.922 5.69122 -1.90317 0
M  V30 5357 H 515.992 4.31281 -2.2164 0
M  V30 5358 N 517.335 0.585699 1.46312 0
M  V30 5359 C 518.265 -0.133556 2.33118 0
M  V30 5360 C 519.246 -0.880707 1.45525 0
M  V30 5361 O 520.431 -0.855579 1.74337 0
M  V30 5362 C 517.561 -1.14585 3.27853 0
M  V30 5363 C 516.515 -0.513341 4.2491 0
M  V30 5364 C 515.841 -1.63231 5.09175 0
M  V30 5365 C 517.141 0.551413 5.19381 0
M  V30 5366 H 518.835 0.59121 2.93505 0
M  V30 5367 H 516.381 0.285761 1.41136 0
M  V30 5368 H 518.334 -1.65741 3.87438 0
M  V30 5369 H 517.058 -1.90093 2.65579 0
M  V30 5370 H 515.717 -0.0228349 3.66593 0
M  V30 5371 H 515.365 -2.37713 4.43285 0
M  V30 5372 H 515.065 -1.21473 5.74907 0
M  V30 5373 H 516.589 -2.14658 5.71624 0
M  V30 5374 H 518.003 0.124804 5.73164 0
M  V30 5375 H 516.4 0.889486 5.93471 0
M  V30 5376 H 517.47 1.43655 4.63132 0
M  V30 5377 N 518.813 -1.54241 0.323641 0
M  V30 5378 C 520.062 -1.9975 -0.279806 0
M  V30 5379 C 520.375 -1.2156 -1.5324 0
M  V30 5380 O 521.581 -1.57447 -2.21185 0
M  V30 5381 C 520.037 -3.55686 -0.549115 0
M  V30 5382 C 519.645 -4.4271 0.686432 0
M  V30 5383 C 521.389 -4.09663 -1.11251 0
M  V30 5384 C 519.296 -5.90119 0.389022 0
M  V30 5385 H 518.226 -0.746177 -0.10833 0
M  V30 5386 H 520.877 -1.78248 0.435877 0
M  V30 5387 H 519.259 -3.73176 -1.32499 0
M  V30 5388 H 520.433 -4.36996 1.46188 0
M  V30 5389 H 518.748 -3.99623 1.17005 0
M  V30 5390 H 521.345 -5.17386 -1.34965 0
M  V30 5391 H 521.688 -3.61651 -2.06191 0
M  V30 5392 H 522.221 -3.95806 -0.39782 0
M  V30 5393 H 518.96 -6.42326 1.30759 0
M  V30 5394 H 518.48 -5.98785 -0.348722 0
M  V30 5395 H 520.159 -6.47 -0.0011164 0
M  V30 5396 N 520.291 -0.0518155 -1.57515 0
M  V30 5397 C 521.254 0.907547 -2.10467 0
M  V30 5398 C 522.254 1.23947 -1.02439 0
M  V30 5399 O 523.444 1.17604 -1.2851 0
M  V30 5400 C 520.576 2.21723 -2.58944 0
M  V30 5401 H 521.769 0.44851 -2.96527 0
M  V30 5402 H 519.322 0.196598 -1.55059 0
M  V30 5403 H 520.057 2.72206 -1.76279 0
M  V30 5404 H 519.842 1.98935 -3.37886 0
M  V30 5405 H 521.332 2.90441 -3.00056 0
M  V30 5406 N 521.769 1.56035 0.221574 0
M  V30 5407 C 522.699 1.95434 1.2778 0
M  V30 5408 C 523.68 0.822564 1.48889 0
M  V30 5409 O 524.865 1.08486 1.61072 0
M  V30 5410 C 521.995 2.27102 2.62759 0
M  V30 5411 C 520.949 3.4277 2.56306 0
M  V30 5412 C 520.275 3.60043 3.95314 0
M  V30 5413 C 521.575 4.77742 2.11093 0
M  V30 5414 H 523.269 2.83912 0.950504 0
M  V30 5415 H 520.815 1.36596 0.455791 0
M  V30 5416 H 522.768 2.53256 3.36807 0
M  V30 5417 H 521.492 1.35478 2.97176 0
M  V30 5418 H 520.151 3.16664 1.84715 0
M  V30 5419 H 519.799 2.65794 4.27039 0
M  V30 5420 H 519.499 4.37841 3.91879 0
M  V30 5421 H 521.023 3.88545 4.71025 0
M  V30 5422 H 522.437 5.03102 2.74885 0
M  V30 5423 H 520.834 5.58823 2.18716 0
M  V30 5424 H 521.904 4.731 1.06321 0
M  V30 5425 N 523.247 -0.488276 1.49845 0
M  V30 5426 C 524.663 -0.820566 1.3689 0
M  V30 5427 C 524.863 -1.97248 0.411752 0
M  V30 5428 O 523.919 -2.52042 -0.151931 0
M  V30 5429 C 525.232 -1.1488 2.77891 0
M  V30 5430 C 526.78 -1.25626 2.86683 0
M  V30 5431 C 527.255 -1.61772 4.28479 0
M  V30 5432 N 528.746 -1.68797 4.31349 0
M  V30 5433 C 529.481 -1.98235 5.38043 0
M  V30 5434 N 528.977 -2.2581 6.54967 0
M  V30 5435 N 530.77 -1.99593 5.2547 0
M  V30 5436 H 522.921 0.271123 2.10662 0
M  V30 5437 H 525.184 0.058735 0.946179 0
M  V30 5438 H 524.89 -0.375614 3.49688 0
M  V30 5439 H 524.764 -2.08919 3.14058 0
M  V30 5440 H 527.151 -2.02014 2.15114 0
M  V30 5441 H 527.232 -0.296072 2.54081 0
M  V30 5442 H 526.876 -0.859295 5.00578 0
M  V30 5443 H 526.806 -2.58912 4.58554 0
M  V30 5444 H 529.297 -1.49595 3.4703 0
M  V30 5445 H 529.61 -2.47497 7.32096 0
M  V30 5446 H 527.955 -2.23239 6.58171 0
M  V30 5447 H 531.146 -1.77535 4.33127 0
M  V30 5448 H 531.319 -2.222 6.08713 0
M  V30 5449 N 524.725 -1.39134 -0.740242 0
M  V30 5450 C 525.973 -1.35803 -1.49673 0
M  V30 5451 C 526.294 0.0470897 -1.94943 0
M  V30 5452 O 525.564 0.997347 -1.68611 0
M  V30 5453 H 524.144 -0.499736 -0.555224 0
M  V30 5454 H 526.806 -1.73947 -0.879107 0
M  V30 5455 H 525.902 -2.0174 -2.38133 0
M  V30 5456 N 526.204 0.969867 -1.24223 0
M  V30 5457 C 527.452 1.70918 -1.0785 0
M  V30 5458 C 527.773 1.91186 0.383763 0
M  V30 5459 O 527.043 1.48806 1.27411 0
M  V30 5460 H 525.623 0.633334 -0.396103 0
M  V30 5461 H 528.285 1.16689 -1.56108 0
M  V30 5462 H 527.381 2.69455 -1.57482 0
M  V30 5463 N 527.682 1.05563 1.17022 0
M  V30 5464 C 528.629 0.659893 2.21165 0
M  V30 5465 C 529.599 -0.339813 1.62587 0
M  V30 5466 O 530.784 -0.230378 1.89404 0
M  V30 5467 C 527.924 0.0447297 3.45071 0
M  V30 5468 C 527.037 1.09372 4.17926 0
M  V30 5469 C 526.172 0.445481 5.29329 0
M  V30 5470 C 525.211 1.47852 5.93975 0
M  V30 5471 N 524.348 0.854172 6.96885 0
M  V30 5472 H 529.188 1.55243 2.54369 0
M  V30 5473 H 526.725 0.776336 1.24946 0
M  V30 5474 H 528.683 -0.329404 4.15898 0
M  V30 5475 H 527.313 -0.811244 3.1244 0
M  V30 5476 H 526.365 1.58564 3.45777 0
M  V30 5477 H 527.677 1.87773 4.62107 0
M  V30 5478 H 526.831 0.0179688 6.06697 0
M  V30 5479 H 525.57 -0.370481 4.86291 0
M  V30 5480 H 524.575 1.91601 5.15334 0
M  V30 5481 H 525.8 2.29645 6.39093 0
M  V30 5482 H 523.746 0.0587882 6.55974 0
M  V30 5483 H 523.663 1.57567 7.39397 0
M  V30 5484 H 524.931 0.451559 7.78191 0
M  V30 5485 N 529.16 -1.33526 0.837174 0
M  V30 5486 C 530.409 -1.97098 0.428387 0
M  V30 5487 C 530.722 -1.67062 -1.01734 0
M  V30 5488 O 531.928 -2.24235 -1.53072 0
M  V30 5489 C 530.384 -3.52725 0.715075 0
M  V30 5490 C 529.992 -3.9164 2.17537 0
M  V30 5491 C 531.736 -4.22857 0.373154 0
M  V30 5492 C 529.643 -5.40237 2.40619 0
M  V30 5493 H 528.573 -0.737589 0.156455 0
M  V30 5494 H 531.224 -1.52169 1.02552 0
M  V30 5495 H 529.606 -3.95971 0.0475904 0
M  V30 5496 H 530.78 -3.59456 2.88319 0
M  V30 5497 H 529.095 -3.34485 2.4801 0
M  V30 5498 H 531.692 -5.32133 0.523264 0
M  V30 5499 H 532.035 -4.10647 -0.683708 0
M  V30 5500 H 532.568 -3.85135 0.995801 0
M  V30 5501 H 529.307 -5.57449 3.44864 0
M  V30 5502 H 528.827 -5.73887 1.74396 0
M  V30 5503 H 530.506 -6.07102 2.23688 0
M  V30 5504 N 530.638 -0.59345 -1.46 0
M  V30 5505 C 531.548 0.135817 -2.34207 0
M  V30 5506 C 532.564 0.875008 -1.50398 0
M  V30 5507 O 533.74 0.835778 -1.83239 0
M  V30 5508 C 530.805 1.12977 -3.27776 0
M  V30 5509 C 529.866 0.394081 -4.27487 0
M  V30 5510 C 529.099 1.34068 -5.16586 0
M  V30 5511 O 529.322 2.5778 -5.08828 0
M  V30 5512 O 528.256 0.845426 -5.95933 0
M  V30 5513 H 532.082 -0.588691 -2.9794 0
M  V30 5514 H 529.667 -0.353784 -1.45151 0
M  V30 5515 H 531.549 1.70261 -3.85473 0
M  V30 5516 H 530.224 1.83556 -2.66625 0
M  V30 5517 H 529.131 -0.220869 -3.73447 0
M  V30 5518 H 530.464 -0.270939 -4.91454 0
M  V30 5519 N 532.116 1.54067 -0.331816 0
M  V30 5520 C 533.362 2.01012 0.268667 0
M  V30 5521 C 533.695 1.2195 1.51136 0
M  V30 5522 O 532.97 0.303972 1.9211 0
M  V30 5523 C 533.253 3.55158 0.59456 0
M  V30 5524 C 533.106 4.4494 -0.659409 0
M  V30 5525 C 534.425 4.16939 1.4089 0
M  V30 5526 H 531.544 0.730698 0.0961756 0
M  V30 5527 H 534.186 1.84593 -0.450031 0
M  V30 5528 H 532.336 3.6928 1.20685 0
M  V30 5529 H 534.008 4.42675 -1.29756 0
M  V30 5530 H 532.251 4.1428 -1.28665 0
M  V30 5531 H 532.922 5.50643 -0.386804 0
M  V30 5532 H 535.398 4.06443 0.891272 0
M  V30 5533 H 534.274 5.24889 1.60569 0
M  V30 5534 H 534.535 3.70798 2.40752 0
M  V30 5535 N 533.594 0.0601682 1.57485 0
M  V30 5536 C 534.526 -0.94047 2.09016 0
M  V30 5537 C 535.539 -1.26897 1.01985 0
M  V30 5538 O 536.728 -1.22819 1.29529 0
M  V30 5539 C 533.828 -2.25955 2.52582 0
M  V30 5540 C 533.001 -2.11163 3.83052 0
M  V30 5541 C 532.06 -3.26273 4.12835 0
M  V30 5542 O 531.086 -3.01779 4.82616 0
M  V30 5543 N 532.288 -4.51022 3.65458 0
M  V30 5544 H 535.053 -0.500578 2.9549 0
M  V30 5545 H 532.614 -0.125852 1.6141 0
M  V30 5546 H 534.606 -3.01846 2.69575 0
M  V30 5547 H 533.176 -2.61481 1.71308 0
M  V30 5548 H 532.396 -1.19808 3.75552 0
M  V30 5549 H 533.684 -1.98517 4.68475 0
M  V30 5550 H 533.082 -4.73811 3.09062 0
M  V30 5551 H 531.639 -5.23978 3.87673 0
M  V30 5552 N 535.072 -1.5615 -0.213296 0
M  V30 5553 C 536.002 -1.96109 -1.26742 0
M  V30 5554 C 536.983 -0.830448 -1.48451 0
M  V30 5555 O 538.168 -1.09339 -1.60495 0
M  V30 5556 C 535.298 -2.28492 -2.61551 0
M  V30 5557 C 534.252 -3.44124 -2.54485 0
M  V30 5558 C 533.578 -3.62134 -3.93399 0
M  V30 5559 C 534.878 -4.78855 -2.08556 0
M  V30 5560 H 536.572 -2.84412 -0.935434 0
M  V30 5561 H 534.118 -1.36836 -0.44854 0
M  V30 5562 H 536.071 -2.55039 -3.3546 0
M  V30 5563 H 534.795 -1.37052 -2.96453 0
M  V30 5564 H 533.454 -3.17639 -1.83033 0
M  V30 5565 H 533.102 -2.68055 -4.25623 0
M  V30 5566 H 532.802 -4.39913 -3.89551 0
M  V30 5567 H 534.326 -3.91038 -4.68958 0
M  V30 5568 H 535.74 -5.04552 -2.72213 0
M  V30 5569 H 534.137 -5.59975 -2.1575 0
M  V30 5570 H 535.207 -4.73657 -1.03811 0
M  V30 5571 N 536.55 0.480323 -1.50102 0
M  V30 5572 C 537.497 1.57946 -1.6829 0
M  V30 5573 C 538.467 1.57611 -0.524223 0
M  V30 5574 O 539.652 1.75282 -0.753709 0
M  V30 5575 C 536.792 2.95978 -1.77457 0
M  V30 5576 C 535.905 3.06173 -3.04766 0
M  V30 5577 C 535.04 4.35063 -3.04784 0
M  V30 5578 C 534.079 4.38966 -4.26586 0
M  V30 5579 N 533.216 5.59314 -4.24396 0
M  V30 5580 H 538.056 1.41743 -2.62131 0
M  V30 5581 H 535.593 0.689304 -1.2995 0
M  V30 5582 H 537.551 3.76011 -1.80752 0
M  V30 5583 H 536.181 3.10837 -0.870637 0
M  V30 5584 H 535.233 2.19071 -3.10986 0
M  V30 5585 H 536.545 3.04916 -3.9475 0
M  V30 5586 H 535.699 5.23436 -3.06757 0
M  V30 5587 H 534.438 4.38915 -2.12614 0
M  V30 5588 H 533.443 3.48992 -4.24835 0
M  V30 5589 H 534.668 4.36813 -5.19972 0
M  V30 5590 H 532.614 5.63969 -3.35074 0
M  V30 5591 H 532.531 5.5976 -5.08138 0
M  V30 5592 H 533.799 6.49837 -4.30502 0
M  V30 5593 N 538.028 1.39524 0.732853 0
M  V30 5594 C 538.976 1.38563 1.86824 0
M  V30 5595 C 539.97 0.268467 1.67259 0
M  V30 5596 O 541.176 0.438613 1.74574 0
M  V30 5597 H 537.551 0.432737 0.615014 0
M  V30 5598 H 539.522 2.34328 1.84751 0
M  V30 5599 C 538.271 1.2481 3.24527 0
M  V30 5600 H 537.594 2.10044 3.40179 0
M  V30 5601 H 539.034 1.28194 4.04156 0
M  V30 5602 C 537.493 -0.0432825 3.36872 0
M  V30 5603 O 538.023 -1.01268 3.88726 0
M  V30 5604 N 536.229 -0.107055 2.90403 0
M  V30 5605 H 535.776 0.682512 2.48394 0
M  V30 5606 H 535.734 -0.970618 2.99042 0
M  V30 5607 N 539.506 -0.963266 1.24736 0
M  V30 5608 C 540.416 -2.09246 1.06082 0
M  V30 5609 C 541.432 -1.74 0.000363101 0
M  V30 5610 O 542.608 -2.0041 0.199479 0
M  V30 5611 C 539.673 -3.40115 0.672498 0
M  V30 5612 C 538.734 -3.89282 1.80993 0
M  V30 5613 C 537.967 -5.13905 1.44004 0
M  V30 5614 O 538.19 -5.69434 0.331835 0
M  V30 5615 O 537.124 -5.57566 2.26723 0
M  V30 5616 H 540.95 -2.27881 2.00759 0
M  V30 5617 H 538.535 -1.07649 1.03595 0
M  V30 5618 H 540.417 -4.18797 0.467668 0
M  V30 5619 H 539.092 -3.22771 -0.245102 0
M  V30 5620 H 537.999 -3.11642 2.06955 0
M  V30 5621 H 539.332 -4.1111 2.70646 0
M  V30 5622 N 540.985 -1.06182 -1.16461 0
M  V30 5623 C 541.935 -0.641619 -2.18786 0
M  V30 5624 C 542.919 0.327122 -1.5754 0
M  V30 5625 O 544.111 0.142746 -1.76423 0
M  V30 5626 C 541.24 -0.0283734 -3.43288 0
M  V30 5627 C 540.326 -1.02154 -4.11613 0
M  V30 5628 N 540.717 -2.19671 -4.55608 0
M  V30 5629 C 539.015 -0.852229 -4.37782 0
M  V30 5630 C 539.716 -2.82583 -5.0845 0
M  V30 5631 N 538.692 -2.10318 -5.01266 0
M  V30 5632 H 542.494 -1.53684 -2.50516 0
M  V30 5633 H 540.008 -0.933349 -1.329 0
M  V30 5634 H 542.005 0.29049 -4.15887 0
M  V30 5635 H 540.665 0.862118 -3.13046 0
M  V30 5636 H 541.676 -2.57453 -4.49375 0
M  V30 5637 H 538.353 -0.0136314 -4.17498 0
M  V30 5638 H 539.743 -3.82298 -5.52538 0
M  V30 5639 N 542.463 1.3308 -0.844243 0
M  V30 5640 C 543.691 2.01808 -0.456203 0
M  V30 5641 C 544.106 1.63498 0.944131 0
M  V30 5642 O 543.463 0.85102 1.61443 0
M  V30 5643 C 543.514 3.56922 -0.573513 0
M  V30 5644 O 543.235 3.93851 -1.91868 0
M  V30 5645 C 544.736 4.42922 -0.183125 0
M  V30 5646 H 541.956 0.646273 -0.180477 0
M  V30 5647 H 544.5 1.69891 -1.1383 0
M  V30 5648 H 542.655 3.87352 0.0607367 0
M  V30 5649 H 543.069 4.88564 -1.90802 0
M  V30 5650 H 544.543 5.51093 -0.316241 0
M  V30 5651 H 545.02 4.30386 0.875477 0
M  V30 5652 H 545.626 4.1786 -0.792027 0
M  V30 5653 N 543.941 0.601185 1.45683 0
M  V30 5654 C 545.166 0.0982245 2.07167 0
M  V30 5655 C 545.591 -1.20546 1.44396 0
M  V30 5656 O 544.949 -1.73247 0.534347 0
M  V30 5657 C 544.997 -0.0346976 3.60583 0
M  V30 5658 O 544.101 -1.08657 3.97828 0
M  V30 5659 H 543.442 0.0711618 0.660176 0
M  V30 5660 H 545.972 0.829376 1.87036 0
M  V30 5661 H 545.982 -0.234969 4.07323 0
M  V30 5662 H 544.657 0.917265 4.05659 0
M  V30 5663 H 543.234 -0.863275 3.6277 0
M  V30 5664 N 545.419 -1.53889 0.339982 0
M  V30 5665 C 546.366 -2.24902 -0.518452 0
M  V30 5666 C 547.336 -1.24593 -1.09844 0
M  V30 5667 O 548.521 -1.53317 -1.13572 0
M  V30 5668 C 545.661 -3.02262 -1.66529 0
M  V30 5669 C 544.774 -4.17418 -1.11295 0
M  V30 5670 C 543.909 -4.82273 -2.2268 0
M  V30 5671 C 542.948 -5.89503 -1.6478 0
M  V30 5672 N 542.085 -6.48153 -2.69893 0
M  V30 5673 H 546.925 -2.97853 0.0936579 0
M  V30 5674 H 544.462 -1.46986 0.0579924 0
M  V30 5675 H 546.42 -3.45371 -2.3404 0
M  V30 5676 H 545.05 -2.31614 -2.24844 0
M  V30 5677 H 544.102 -3.78976 -0.328886 0
M  V30 5678 H 545.414 -4.94554 -0.649414 0
M  V30 5679 H 544.568 -5.28435 -2.98063 0
M  V30 5680 H 543.307 -4.04552 -2.72376 0
M  V30 5681 H 542.312 -5.42728 -0.879004 0
M  V30 5682 H 543.537 -6.6913 -1.1594 0
M  V30 5683 H 541.483 -5.73298 -3.1885 0
M  V30 5684 H 541.4 -7.20752 -2.28151 0
M  V30 5685 H 542.668 -6.98968 -3.45056 0
M  V30 5686 N 546.897 -0.0685191 -1.57451 0
M  V30 5687 C 548.146 0.600898 -1.92541 0
M  V30 5688 C 548.459 1.70967 -0.950239 0
M  V30 5689 O 549.665 2.43844 -1.19384 0
M  V30 5690 C 548.121 1.12019 -3.42023 0
M  V30 5691 C 547.729 0.0426028 -4.4798 0
M  V30 5692 C 549.473 1.76386 -3.86119 0
M  V30 5693 C 547.38 0.575759 -5.88591 0
M  V30 5694 H 546.31 0.228225 -0.71863 0
M  V30 5695 H 548.961 -0.140223 -1.82963 0
M  V30 5696 H 547.343 1.91418 -3.46663 0
M  V30 5697 H 548.517 -0.73182 -4.54952 0
M  V30 5698 H 546.832 -0.504642 -4.13331 0
M  V30 5699 H 549.429 2.17302 -4.88553 0
M  V30 5700 H 549.772 2.62255 -3.23308 0
M  V30 5701 H 550.305 1.03615 -3.84069 0
M  V30 5702 H 547.044 -0.245691 -6.55039 0
M  V30 5703 H 546.564 1.31778 -5.85145 0
M  V30 5704 H 548.243 1.0532 -6.3837 0
M  V30 5705 N 548.375 1.56261 0.205012 0
M  V30 5706 C 549.603 1.84141 0.943386 0
M  V30 5707 C 550.018 0.649772 1.77266 0
M  V30 5708 O 549.375 -0.381612 1.78466 0
M  V30 5709 C 549.426 3.10719 1.84759 0
M  V30 5710 O 549.147 4.25286 1.05181 0
M  V30 5711 C 550.648 3.51706 2.69848 0
M  V30 5712 H 547.868 0.611734 0.275721 0
M  V30 5713 H 550.412 2.03364 0.215253 0
M  V30 5714 H 548.567 2.93422 2.52947 0
M  V30 5715 H 548.981 4.97301 1.66709 0
M  V30 5716 H 550.455 4.43266 3.28967 0
M  V30 5717 H 550.932 2.7423 3.43067 0
M  V30 5718 H 551.538 3.71499 2.07047 0
M  V30 5719 N 549.853 -0.472356 1.50355 0
M  V30 5720 C 551.081 -1.24784 1.65035 0
M  V30 5721 C 551.496 -1.85837 0.333176 0
M  V30 5722 O 550.853 -1.69168 -0.68472 0
M  V30 5723 C 550.904 -2.35747 2.74054 0
M  V30 5724 O 550.625 -1.77197 4.00665 0
M  V30 5725 C 552.126 -3.26645 2.99696 0
M  V30 5726 H 549.346 -0.377432 0.554785 0
M  V30 5727 H 551.89 -0.563962 1.9657 0
M  V30 5728 H 550.045 -2.99912 2.45217 0
M  V30 5729 H 550.459 -2.5026 4.60945 0
M  V30 5730 H 551.933 -4.00718 3.79644 0
M  V30 5731 H 552.41 -3.8535 2.10718 0
M  V30 5732 H 553.016 -2.68218 3.3006 0
M  V30 5733 N 551.331 -1.39911 -0.725443 0
M  V30 5734 C 552.579 -1.37382 -1.48224 0
M  V30 5735 C 552.9 0.0264107 -1.94982 0
M  V30 5736 O 552.17 0.979408 -1.6966 0
M  V30 5737 H 550.75 -0.505596 -0.549892 0
M  V30 5738 H 553.412 -1.7487 -0.860608 0
M  V30 5739 H 552.508 -2.04254 -2.3598 0
M  V30 5740 N 552.809 0.956637 -1.25245 0
M  V30 5741 C 554.057 1.69764 -1.09657 0
M  V30 5742 C 554.378 1.91583 0.363464 0
M  V30 5743 O 553.648 1.50149 1.25825 0
M  V30 5744 H 552.228 0.629097 -0.402798 0
M  V30 5745 H 554.89 1.15026 -1.57337 0
M  V30 5746 H 553.986 2.67769 -1.60331 0
M  V30 5747 N 554.287 1.06798 1.15896 0
M  V30 5748 C 555.564 0.701057 1.82605 0
M  V30 5749 C 555.944 -0.817066 1.94646 0
M  V30 5750 O 555.292 -1.72933 1.49353 0
M  V30 5751 C 555.502 1.40895 3.19296 0
M  V30 5752 C 556.85 1.55744 3.95005 0
M  V30 5753 O 557.874 1.36927 3.28831 0
M  V30 5754 O 556.733 1.86658 5.13635 0
M  V30 5755 H 553.827 0.248791 0.78869 0
M  V30 5756 H 556.373 1.16857 1.23055 0
M  V30 5757 H 555.145 2.4439 3.05596 0
M  V30 5758 H 554.768 0.931847 3.86526 0
M  V30 5759 N 555.766 -1.3263 0.851289 0
M  V30 5760 C 557.012 -1.9766 0.453694 0
M  V30 5761 C 557.345 -1.67225 -0.987396 0
M  V30 5762 O 556.62 -0.958693 -1.69232 0
M  V30 5763 C 556.903 -3.5344 0.68936 0
M  V30 5764 C 556.756 -3.93517 2.17862 0
M  V30 5765 C 558.075 -4.39866 0.143555 0
M  V30 5766 H 555.194 -0.717989 0.166314 0
M  V30 5767 H 557.836 -1.57068 1.06909 0
M  V30 5768 H 555.986 -3.88147 0.165546 0
M  V30 5769 H 557.658 -3.69006 2.76826 0
M  V30 5770 H 555.901 -3.42798 2.65841 0
M  V30 5771 H 556.572 -5.02065 2.29422 0
M  V30 5772 H 559.048 -4.11875 0.591451 0
M  V30 5773 H 557.924 -5.47858 0.338043 0
M  V30 5774 H 558.185 -4.31696 -0.953466 0
M  V30 5775 N 557.244 -0.608902 -1.45362 0
M  V30 5776 C 558.493 -0.10218 -2.01441 0
M  V30 5777 C 558.806 1.27546 -1.48295 0
M  V30 5778 O 560.012 1.87498 -1.96359 0
M  V30 5779 C 558.468 -0.131985 -3.59658 0
M  V30 5780 C 558.076 -1.50956 -4.21801 0
M  V30 5781 C 559.82 0.319427 -4.23296 0
M  V30 5782 C 557.727 -1.49568 -5.72174 0
M  V30 5783 H 556.657 -0.0344314 -0.753213 0
M  V30 5784 H 559.308 -0.764426 -1.6682 0
M  V30 5785 H 557.69 0.596939 -3.91475 0
M  V30 5786 H 558.864 -2.26029 -4.01556 0
M  V30 5787 H 557.179 -1.90318 -3.70362 0
M  V30 5788 H 559.776 0.349013 -5.3356 0
M  V30 5789 H 560.119 1.34237 -3.94064 0
M  V30 5790 H 560.652 -0.356273 -3.96201 0
M  V30 5791 H 557.391 -2.49626 -6.06108 0
M  V30 5792 H 556.911 -0.787542 -5.94607 0
M  V30 5793 H 558.59 -1.21989 -6.35396 0
M  V30 5794 N 558.722 1.53707 -0.348139 0
M  V30 5795 C 559.67 2.26671 0.521808 0
M  V30 5796 C 560.664 1.28988 1.09811 0
M  V30 5797 O 561.87 1.4668 1.04332 0
M  V30 5798 H 558.245 0.728387 0.186968 0
M  V30 5799 H 560.216 2.98176 -0.115563 0
M  V30 5800 C 558.965 3.05591 1.6586 0
M  V30 5801 H 558.288 3.80589 1.22443 0
M  V30 5802 H 559.728 3.59851 2.24239 0
M  V30 5803 C 558.187 2.15366 2.59073 0
M  V30 5804 O 558.717 1.7528 3.61441 0
M  V30 5805 N 556.923 1.80352 2.27863 0
M  V30 5806 H 556.47 2.13149 1.44656 0
M  V30 5807 H 556.428 1.20268 2.90488 0
M  V30 5808 N 560.2 0.0768682 1.57412 0
M  V30 5809 C 561.148 -0.906229 2.1422 0
M  V30 5810 C 562.142 -1.30477 1.08037 0
M  V30 5811 O 563.348 -1.28143 1.2641 0
M  V30 5812 H 559.723 -0.310207 0.685037 0
M  V30 5813 H 561.694 -0.402228 2.95677 0
M  V30 5814 C 560.443 -2.16245 2.72274 0
M  V30 5815 H 559.766 -1.86463 3.53655 0
M  V30 5816 H 561.206 -2.83134 3.15613 0
M  V30 5817 C 559.665 -2.92437 1.67279 0
M  V30 5818 O 560.195 -3.86322 1.10081 0
M  V30 5819 N 558.401 -2.55637 1.38195 0
M  V30 5820 H 557.948 -1.79363 1.84897 0
M  V30 5821 H 557.906 -3.06919 0.681787 0
M  V30 5822 N 561.678 -1.56367 -0.196722 0
M  V30 5823 C 562.926 -1.80172 -0.915554 0
M  V30 5824 C 563.247 -0.649649 -1.8386 0
M  V30 5825 O 562.517 0.332111 -1.93064 0
M  V30 5826 H 561.097 -0.664592 -0.341067 0
M  V30 5827 H 563.759 -1.93844 -0.202622 0
M  V30 5828 H 562.855 -2.7327 -1.50764 0
M  V30 5829 N 563.156 0.464375 -1.50603 0
M  V30 5830 C 564.086 1.56944 -1.72889 0
M  V30 5831 C 565.067 1.59979 -0.577997 0
M  V30 5832 O 566.252 1.76138 -0.817855 0
M  V30 5833 C 563.382 2.95225 -1.8292 0
M  V30 5834 C 562.336 3.07056 -2.98162 0
M  V30 5835 C 561.662 4.47051 -2.93343 0
M  V30 5836 C 562.962 2.83648 -4.38567 0
M  V30 5837 H 564.656 1.38547 -2.65415 0
M  V30 5838 H 562.202 0.665082 -1.27721 0
M  V30 5839 H 564.155 3.72467 -1.97095 0
M  V30 5840 H 562.879 3.14793 -0.870209 0
M  V30 5841 H 561.538 2.32248 -2.83648 0
M  V30 5842 H 561.186 4.63547 -1.95276 0
M  V30 5843 H 560.886 4.55902 -3.70712 0
M  V30 5844 H 562.41 5.26304 -3.09575 0
M  V30 5845 H 563.824 3.50636 -4.53572 0
M  V30 5846 H 562.221 3.03937 -5.17438 0
M  V30 5847 H 563.291 1.79451 -4.50472 0
M  V30 5848 N 564.634 1.40294 0.718013 0
M  V30 5849 C 565.88 1.39648 1.47885 0
M  V30 5850 C 566.235 -0.0023879 1.924 0
M  V30 5851 O 565.528 -0.972304 1.65096 0
M  V30 5852 C 565.722 2.31814 2.72024 0
M  V30 5853 C 565.551 3.80523 2.3965 0
M  V30 5854 C 564.321 4.49351 2.3111 0
M  V30 5855 C 566.519 4.72077 2.04079 0
M  V30 5856 N 564.501 5.83305 1.91385 0
M  V30 5857 C 565.872 5.94809 1.74935 0
M  V30 5858 C 567.927 4.59935 1.90694 0
M  V30 5859 C 566.63 7.06755 1.33753 0
M  V30 5860 C 568.656 5.7182 1.50915 0
M  V30 5861 C 568.018 6.93637 1.22668 0
M  V30 5862 H 564.117 0.566263 0.539324 0
M  V30 5863 H 566.701 1.75986 0.832891 0
M  V30 5864 H 564.872 1.97607 3.34374 0
M  V30 5865 H 566.604 2.22042 3.38348 0
M  V30 5866 H 563.359 4.03002 2.4877 0
M  V30 5867 H 563.783 6.54239 1.74068 0
M  V30 5868 H 568.425 3.66274 2.11194 0
M  V30 5869 H 566.143 8.00302 1.11995 0
M  V30 5870 H 569.729 5.64421 1.4114 0
M  V30 5871 H 568.609 7.78743 0.923502 0
M  V30 5872 N 566.112 -0.949982 1.2575 0
M  V30 5873 C 567.06 -2.06869 1.06339 0
M  V30 5874 C 568.054 -1.69399 -0.00708901 0
M  V30 5875 O 569.26 -1.79383 0.148897 0
M  V30 5876 H 565.635 -0.677197 0.326969 0
M  V30 5877 H 567.606 -2.20396 2.01167 0
M  V30 5878 C 566.355 -3.40503 0.703769 0
M  V30 5879 H 565.678 -3.69807 1.51931 0
M  V30 5880 H 567.118 -4.19623 0.607677 0
M  V30 5881 C 565.577 -3.31685 -0.5905 0
M  V30 5882 O 566.107 -3.67085 -1.63131 0
M  V30 5883 N 564.313 -2.84797 -0.577859 0
M  V30 5884 H 563.86 -2.56186 0.26951 0
M  V30 5885 H 563.818 -2.79279 -1.44398 0
M  V30 5886 N 567.59 -1.07411 -1.15328 0
M  V30 5887 C 568.523 -0.63913 -2.19067 0
M  V30 5888 C 569.501 0.343929 -1.58921 0
M  V30 5889 O 570.685 0.250207 -1.86832 0
M  V30 5890 C 567.812 0.0613977 -3.38644 0
M  V30 5891 C 566.858 -0.880201 -4.17318 0
M  V30 5892 S 567.691 -2.38152 -4.79629 0
M  V30 5893 C 568.847 -1.69281 -6.02573 0
M  V30 5894 H 569.08 -1.51799 -2.55626 0
M  V30 5895 H 566.613 -0.888138 -1.26299 0
M  V30 5896 H 568.571 0.459323 -4.07922 0
M  V30 5897 H 567.232 0.916605 -3.00428 0
M  V30 5898 H 566.425 -0.336781 -5.02874 0
M  V30 5899 H 566.027 -1.21854 -3.53592 0
M  V30 5900 H 568.319 -1.00488 -6.70006 0
M  V30 5901 H 569.262 -2.52671 -6.61485 0
M  V30 5902 H 569.67 -1.17053 -5.52231 0
M  V30 5903 N 569.068 1.32177 -0.85831 0
M  V30 5904 C 570.314 1.97417 -0.46417 0
M  V30 5905 C 570.647 1.67746 0.978514 0
M  V30 5906 O 569.922 0.967654 1.68721 0
M  V30 5907 C 570.205 3.53069 -0.708094 0
M  V30 5908 C 570.058 3.92357 -2.19946 0
M  V30 5909 C 571.377 4.39783 -0.166881 0
M  V30 5910 H 568.496 0.717097 -0.17012 0
M  V30 5911 H 571.138 1.56499 -1.07741 0
M  V30 5912 H 569.288 3.88054 -0.186128 0
M  V30 5913 H 570.96 3.67533 -2.78779 0
M  V30 5914 H 569.203 3.41384 -2.67656 0
M  V30 5915 H 569.874 5.00841 -2.32082 0
M  V30 5916 H 572.35 4.11556 -0.613285 0
M  V30 5917 H 571.226 5.47671 -0.367093 0
M  V30 5918 H 571.487 4.32196 0.930559 0
M  V30 5919 N 570.547 0.616602 1.45037 0
M  V30 5920 C 571.772 0.120192 2.07051 0
M  V30 5921 C 572.197 -1.19008 1.45666 0
M  V30 5922 O 571.555 -1.7267 0.552692 0
M  V30 5923 C 571.603 0.00354901 3.606 0
M  V30 5924 O 570.707 -1.04431 3.98958 0
M  V30 5925 H 570.048 0.0781599 0.659384 0
M  V30 5926 H 572.578 0.849167 1.86146 0
M  V30 5927 H 572.588 -0.191754 4.07549 0
M  V30 5928 H 571.263 0.960239 4.04663 0
M  V30 5929 H 569.84 -0.824749 3.63665 0
M  V30 5930 N 572.025 -1.5352 0.356285 0
M  V30 5931 C 573.271 -2.01414 -0.236653 0
M  V30 5932 C 573.604 -1.24339 -1.49176 0
M  V30 5933 O 572.879 -0.334496 -1.91602 0
M  V30 5934 C 573.162 -3.56059 -0.537982 0
M  V30 5935 C 573.015 -4.43835 0.730112 0
M  V30 5936 C 574.334 -4.19127 -1.34239 0
M  V30 5937 H 571.453 -0.732135 -0.0845386 0
M  V30 5938 H 574.095 -1.83854 0.479341 0
M  V30 5939 H 572.245 -3.71153 -1.14795 0
M  V30 5940 H 573.917 -4.40555 1.36782 0
M  V30 5941 H 572.16 -4.1218 1.3524 0
M  V30 5942 H 572.831 -5.49958 0.474358 0
M  V30 5943 H 575.307 -4.07809 -0.826498 0
M  V30 5944 H 574.183 -5.27378 -1.52198 0
M  V30 5945 H 574.444 -3.74581 -2.34822 0
M  V30 5946 N 573.503 -0.0852151 -1.57369 0
M  V30 5947 C 574.413 0.891712 -2.16992 0
M  V30 5948 C 575.429 1.3174 -1.13669 0
M  V30 5949 O 576.605 1.38735 -1.45995 0
M  V30 5950 C 573.67 2.13635 -2.73059 0
M  V30 5951 C 572.731 1.7658 -3.91303 0
M  V30 5952 C 571.964 2.95111 -4.44686 0
M  V30 5953 O 572.187 4.09539 -3.97032 0
M  V30 5954 O 571.121 2.74149 -5.35841 0
M  V30 5955 H 574.947 0.414477 -3.00858 0
M  V30 5956 H 572.532 0.138598 -1.48756 0
M  V30 5957 H 574.414 2.86595 -3.08935 0
M  V30 5958 H 573.089 2.6043 -1.92244 0
M  V30 5959 H 571.996 1.00831 -3.60255 0
M  V30 5960 H 573.329 1.34557 -4.7345 0
M  V30 5961 N 574.981 1.5647 0.188427 0
M  V30 5962 C 575.891 1.98285 1.2538 0
M  V30 5963 C 576.907 0.891535 1.49424 0
M  V30 5964 O 578.083 1.19782 1.61908 0
M  V30 5965 C 575.148 2.31965 2.57669 0
M  V30 5966 C 574.209 3.54838 2.41638 0
M  V30 5967 C 573.442 3.86901 3.67618 0
M  V30 5968 O 573.665 3.20163 4.72072 0
M  V30 5969 O 572.599 4.80309 3.62749 0
M  V30 5970 H 576.425 2.89145 0.928912 0
M  V30 5971 H 574.01 1.44112 0.393955 0
M  V30 5972 H 575.892 2.54673 3.35737 0
M  V30 5973 H 574.567 1.44271 2.89771 0
M  V30 5974 H 573.474 3.37369 1.61658 0
M  V30 5975 H 574.807 4.43019 2.14465 0
M  V30 5976 N 576.459 -0.456382 1.50847 0
M  V30 5977 C 577.389 -1.56025 1.73719 0
M  V30 5978 C 578.37 -1.5967 0.586473 0
M  V30 5979 O 579.555 -1.75702 0.827185 0
M  V30 5980 C 576.685 -2.94251 1.84483 0
M  V30 5981 C 575.639 -3.05471 2.99786 0
M  V30 5982 C 574.965 -4.45489 2.95709 0
M  V30 5983 C 576.265 -2.81318 4.40065 0
M  V30 5984 H 577.959 -1.37138 2.66146 0
M  V30 5985 H 575.505 -0.658299 1.28072 0
M  V30 5986 H 577.458 -3.71417 1.99067 0
M  V30 5987 H 576.182 -3.14328 0.886891 0
M  V30 5988 H 574.841 -2.30741 2.84876 0
M  V30 5989 H 574.489 -4.62505 1.97732 0
M  V30 5990 H 574.189 -4.53929 3.73125 0
M  V30 5991 H 575.713 -5.24655 3.12362 0
M  V30 5992 H 577.127 -3.48226 4.55425 0
M  V30 5993 H 575.524 -3.01188 5.19043 0
M  V30 5994 H 576.594 -1.7706 4.51418 0
M  V30 5995 N 577.937 -1.40673 -0.710563 0
M  V30 5996 C 578.847 -1.43663 -1.85467 0
M  V30 5997 C 579.863 -0.328721 -1.70867 0
M  V30 5998 O 581.039 -0.574098 -1.93044 0
M  V30 5999 C 578.104 -1.30226 -3.21313 0
M  V30 6000 C 577.165 -2.51204 -3.48131 0
M  V30 6001 C 576.398 -2.38398 -4.77495 0
M  V30 6002 O 576.621 -1.40048 -5.5294 0
M  V30 6003 O 575.555 -3.2787 -5.04762 0
M  V30 6004 H 579.381 -2.40156 -1.859 0
M  V30 6005 H 576.966 -1.22049 -0.861652 0
M  V30 6006 H 578.848 -1.2496 -4.02446 0
M  V30 6007 H 577.523 -0.368419 -3.21597 0
M  V30 6008 H 576.43 -2.62048 -2.66987 0
M  V30 6009 H 577.763 -3.43366 -3.52648 0
M  V30 6010 N 579.415 0.9433 -1.26252 0
M  V30 6011 C 580.365 2.02746 -1.04297 0
M  V30 6012 C 581.349 1.60882 0.0239435 0
M  V30 6013 O 582.541 1.75947 -0.192757 0
M  V30 6014 C 579.67 3.36585 -0.6757 0
M  V30 6015 C 578.756 3.84939 -1.77996 0
M  V30 6016 N 579.147 4.05966 -3.01704 0
M  V30 6017 C 577.445 4.13833 -1.66308 0
M  V30 6018 C 578.146 4.45987 -3.73458 0
M  V30 6019 N 577.122 4.52569 -3.01135 0
M  V30 6020 H 580.924 2.17012 -1.98199 0
M  V30 6021 H 578.438 1.12898 -1.16738 0
M  V30 6022 H 580.435 4.13896 -0.499571 0
M  V30 6023 H 579.095 3.2369 0.255863 0
M  V30 6024 H 580.106 3.92716 -3.37631 0
M  V30 6025 H 576.783 4.09739 -0.801267 0
M  V30 6026 H 578.173 4.70465 -4.79701 0
M  V30 6027 N 580.893 1.08022 1.14757 0
M  V30 6028 C 582.118 0.82895 1.90114 0
M  V30 6029 C 582.543 -0.612772 1.77839 0
M  V30 6030 O 581.901 -1.42895 1.11583 0
M  V30 6031 C 581.949 1.25062 3.38219 0
M  V30 6032 O 581.053 0.400119 4.10454 0
M  V30 6033 H 580.394 0.301412 0.591648 0
M  V30 6034 H 582.924 1.44062 1.45284 0
M  V30 6035 H 582.934 1.22977 3.89025 0
M  V30 6036 H 581.609 2.30067 3.46471 0
M  V30 6037 H 580.186 0.484052 3.69745 0
M  V30 6038 N 582.371 -1.3172 0.865308 0
M  V30 6039 C 583.62 -1.96145 0.470098 0
M  V30 6040 C 583.933 -1.69182 -0.981674 0
M  V30 6041 O 585.139 -2.27431 -1.48281 0
M  V30 6042 C 583.595 -3.51129 0.789732 0
M  V30 6043 C 583.203 -3.86938 2.25795 0
M  V30 6044 C 584.947 -4.2197 0.462765 0
M  V30 6045 C 582.854 -5.35012 2.52024 0
M  V30 6046 H 581.784 -0.734105 0.172065 0
M  V30 6047 H 584.435 -1.49959 1.05757 0
M  V30 6048 H 582.817 -3.95781 0.131571 0
M  V30 6049 H 583.991 -3.5326 2.95879 0
M  V30 6050 H 582.306 -3.29149 2.55049 0
M  V30 6051 H 584.903 -5.30904 0.636019 0
M  V30 6052 H 585.246 -4.12005 -0.59645 0
M  V30 6053 H 585.779 -3.82936 1.07727 0
M  V30 6054 H 582.518 -5.50008 3.56611 0
M  V30 6055 H 582.038 -5.70058 1.8653 0
M  V30 6056 H 583.717 -6.0222 2.36515 0
M  V30 6057 N 583.85 -0.624285 -1.44708 0
M  V30 6058 C 585.075 -0.131171 -2.06985 0
M  V30 6059 C 585.5 1.18234 -1.46295 0
M  V30 6060 O 584.858 1.72375 -0.561842 0
M  V30 6061 C 584.906 -0.0226724 -3.60593 0
M  V30 6062 O 584.01 1.02314 -3.99507 0
M  V30 6063 H 583.351 -0.0816556 -0.65896 0
M  V30 6064 H 585.88 -0.859027 -1.85693 0
M  V30 6065 H 585.891 0.170138 -4.07645 0
M  V30 6066 H 584.566 -0.981685 -4.04148 0
M  V30 6067 H 583.143 0.805452 -3.64097 0
M  V30 6068 N 585.328 1.53329 -0.364422 0
M  V30 6069 C 586.577 2.00421 0.226747 0
M  V30 6070 C 586.89 1.25581 1.49963 0
M  V30 6071 O 588.096 1.63256 2.16933 0
M  V30 6072 C 586.552 3.57017 0.454618 0
M  V30 6073 C 586.16 4.40734 -0.803568 0
M  V30 6074 C 587.904 4.12468 1.00351 0
M  V30 6075 C 585.811 5.8888 -0.545345 0
M  V30 6076 H 584.741 0.748787 0.0885082 0
M  V30 6077 H 587.392 1.7703 -0.482983 0
M  V30 6078 H 585.774 3.76558 1.22558 0
M  V30 6079 H 586.948 4.32967 -1.57723 0
M  V30 6080 H 585.263 3.96381 -1.27559 0
M  V30 6081 H 587.86 5.20783 1.212 0
M  V30 6082 H 588.203 3.6699 1.9653 0
M  V30 6083 H 588.736 3.96721 0.29274 0
M  V30 6084 H 585.475 6.38633 -1.47743 0
M  V30 6085 H 584.995 5.99499 0.189842 0
M  V30 6086 H 586.674 6.46776 -0.170425 0
M  V30 6087 N 586.806 0.0935595 1.57322 0
M  V30 6088 C 587.753 -0.865935 2.1394 0
M  V30 6089 C 588.723 -1.28083 1.05754 0
M  V30 6090 O 589.908 -1.36285 1.33533 0
M  V30 6091 C 587.048 -2.12023 2.72287 0
M  V30 6092 C 586.161 -1.756 3.94701 0
M  V30 6093 C 585.296 -2.95804 4.41218 0
M  V30 6094 C 584.335 -2.555 5.56225 0
M  V30 6095 N 583.472 -3.68534 5.97601 0
M  V30 6096 H 588.312 -0.376261 2.95615 0
M  V30 6097 H 585.849 -0.174052 1.46067 0
M  V30 6098 H 587.807 -2.85477 3.04235 0
M  V30 6099 H 586.437 -2.58492 1.93343 0
M  V30 6100 H 585.489 -0.921208 3.69077 0
M  V30 6101 H 586.801 -1.41964 4.78171 0
M  V30 6102 H 585.955 -3.77513 4.74941 0
M  V30 6103 H 584.694 -3.32649 3.56645 0
M  V30 6104 H 583.699 -1.72218 5.22131 0
M  V30 6105 H 584.924 -2.19801 6.42545 0
M  V30 6106 H 582.87 -4.051 5.15974 0
M  V30 6107 H 582.787 -3.38737 6.75865 0
M  V30 6108 H 584.055 -4.50757 6.35955 0
M  V30 6109 N 588.284 -1.56567 -0.180126 0
M  V30 6110 C 589.533 -1.80685 -0.896426 0
M  V30 6111 C 589.846 -0.669335 -1.83791 0
M  V30 6112 O 591.052 -0.795209 -2.59593 0
M  V30 6113 C 589.508 -3.20132 -1.6445 0
M  V30 6114 C 589.116 -4.41727 -0.747088 0
M  V30 6115 C 590.86 -3.53549 -2.34955 0
M  V30 6116 C 588.767 -5.72195 -1.49489 0
M  V30 6117 H 587.697 -0.673758 -0.338477 0
M  V30 6118 H 590.348 -1.8289 -0.149467 0
M  V30 6119 H 588.73 -3.12218 -2.43589 0
M  V30 6120 H 589.904 -4.608 0.00671129 0
M  V30 6121 H 588.219 -4.16122 -0.152134 0
M  V30 6122 H 590.816 -4.48267 -2.91481 0
M  V30 6123 H 591.159 -2.78006 -3.09868 0
M  V30 6124 H 591.692 -3.62976 -1.62768 0
M  V30 6125 H 588.431 -6.50743 -0.788251 0
M  V30 6126 H 587.951 -5.57115 -2.22224 0
M  V30 6127 H 589.63 -6.1384 -2.04472 0
M  V30 6128 N 589.762 0.448376 -1.51087 0
M  V30 6129 C 590.725 1.52588 -1.71025 0
M  V30 6130 C 591.725 1.49958 -0.580442 0
M  V30 6131 O 592.915 1.52176 -0.847833 0
M  V30 6132 C 590.047 2.92163 -1.75652 0
M  V30 6133 H 591.24 1.36218 -2.67179 0
M  V30 6134 H 588.793 0.676313 -1.4091 0
M  V30 6135 H 589.528 3.13951 -0.812724 0
M  V30 6136 H 589.313 2.95478 -2.57751 0
M  V30 6137 H 590.803 3.70349 -1.92953 0
M  V30 6138 N 591.24 1.41047 0.703093 0
M  V30 6139 C 592.187 1.42302 1.81711 0
M  V30 6140 C 593.157 0.278336 1.63751 0
M  V30 6141 O 594.342 0.478266 1.84709 0
M  V30 6142 C 591.482 1.30362 3.19531 0
M  V30 6143 C 590.595 2.54638 3.48975 0
M  V30 6144 C 589.73 2.35047 4.76368 0
M  V30 6145 C 588.769 3.54837 4.98756 0
M  V30 6146 N 587.906 3.34363 6.1737 0
M  V30 6147 H 592.746 2.37516 1.79973 0
M  V30 6148 H 590.283 1.1795 0.878983 0
M  V30 6149 H 592.241 1.21443 3.99134 0
M  V30 6150 H 590.871 0.387602 3.20464 0
M  V30 6151 H 589.923 2.74037 2.63833 0
M  V30 6152 H 591.235 3.43766 3.61423 0
M  V30 6153 H 590.389 2.23552 5.64012 0
M  V30 6154 H 589.128 1.43363 4.66153 0
M  V30 6155 H 588.133 3.66795 4.09563 0
M  V30 6156 H 589.358 4.47464 5.10835 0
M  V30 6157 H 587.304 2.45373 6.08382 0
M  V30 6158 H 587.221 4.17063 6.30551 0
M  V30 6159 H 588.489 3.26626 7.07768 0
M  V30 6160 N 592.718 -0.936591 1.26751 0
M  V30 6161 C 593.628 -2.06949 1.10496 0
M  V30 6162 C 594.644 -1.7396 0.037271 0
M  V30 6163 O 595.82 -1.99941 0.241944 0
M  V30 6164 C 592.885 -3.38612 0.744491 0
M  V30 6165 C 591.946 -3.85355 1.89209 0
M  V30 6166 C 591.179 -5.10735 1.54873 0
M  V30 6167 O 591.402 -5.68602 0.452546 0
M  V30 6168 O 590.336 -5.52632 2.38499 0
M  V30 6169 H 594.162 -2.23571 2.05547 0
M  V30 6170 H 591.747 -1.05428 1.05855 0
M  V30 6171 H 593.629 -4.17711 0.556396 0
M  V30 6172 H 592.304 -3.23218 -0.176582 0
M  V30 6173 H 591.211 -3.07182 2.13518 0
M  V30 6174 H 592.544 -4.05277 2.79305 0
M  V30 6175 N 594.196 -1.08629 -1.14182 0
M  V30 6176 C 595.159 -0.722027 -2.1753 0
M  V30 6177 C 596.159 0.244305 -1.58933 0
M  V30 6178 O 597.349 0.0235545 -1.74184 0
M  V30 6179 C 594.481 -0.0663966 -3.40835 0
M  V30 6180 H 595.674 -1.63719 -2.51269 0
M  V30 6181 H 593.227 -0.884442 -1.28869 0
M  V30 6182 H 593.962 0.860389 -3.12678 0
M  V30 6183 H 593.747 -0.761598 -3.84632 0
M  V30 6184 H 595.237 0.173346 -4.1724 0
M  V30 6185 N 595.674 1.31259 -0.872281 0
M  V30 6186 C 596.92 1.96913 -0.485083 0
M  V30 6187 C 597.253 1.68774 0.960667 0
M  V30 6188 O 596.528 0.985495 1.67685 0
M  V30 6189 C 596.811 3.52299 -0.745502 0
M  V30 6190 C 596.664 3.90002 -2.24095 0
M  V30 6191 C 597.983 4.39582 -0.213516 0
M  V30 6192 H 595.102 0.715252 -0.177716 0
M  V30 6193 H 597.744 1.55347 -1.09395 0
M  V30 6194 H 595.894 3.87835 -0.227276 0
M  V30 6195 H 597.566 3.64555 -2.82661 0
M  V30 6196 H 595.809 3.38526 -2.71261 0
M  V30 6197 H 596.48 4.98352 -2.37381 0
M  V30 6198 H 598.956 4.10882 -0.656902 0
M  V30 6199 H 597.832 5.47251 -0.42516 0
M  V30 6200 H 598.093 4.33158 0.884666 0
M  V30 6201 N 597.152 0.631951 1.44375 0
M  V30 6202 C 598.085 -0.121822 2.27875 0
M  V30 6203 C 599.063 -0.850457 1.38586 0
M  V30 6204 O 600.247 -0.854378 1.68026 0
M  V30 6205 C 597.374 -1.17859 3.17533 0
M  V30 6206 C 596.42 -0.550391 4.22934 0
M  V30 6207 S 597.253 0.660145 5.31415 0
M  V30 6208 C 598.409 -0.396613 6.24642 0
M  V30 6209 H 598.642 0.586537 2.91457 0
M  V30 6210 H 596.175 0.420146 1.48574 0
M  V30 6211 H 598.133 -1.78335 3.69739 0
M  V30 6212 H 596.794 -1.85915 2.53169 0
M  V30 6213 H 595.987 -1.34631 4.85685 0
M  V30 6214 H 595.589 -0.0202306 3.73995 0
M  V30 6215 H 597.881 -1.26893 6.65511 0
M  V30 6216 H 598.824 0.195345 7.0783 0
M  V30 6217 H 599.232 -0.72288 5.59852 0
M  V30 6218 N 598.631 -1.53133 0.372548 0
M  V30 6219 C 599.908 -1.93704 -0.271693 0
M  V30 6220 C 600.288 -1.30667 -1.65799 0
M  V30 6221 O 599.636 -0.46838 -2.23648 0
M  V30 6222 C 599.846 -3.47576 -0.314903 0
M  V30 6223 C 601.194 -4.20998 -0.551912 0
M  V30 6224 O 602.218 -3.53994 -0.39582 0
M  V30 6225 O 601.077 -5.39748 -0.85639 0
M  V30 6226 H 598.171 -0.810457 -0.164586 0
M  V30 6227 H 600.717 -1.6427 0.425838 0
M  V30 6228 H 599.489 -3.85749 0.656792 0
M  V30 6229 H 599.112 -3.83264 -1.05804 0
M  V30 6230 N 600.109 -0.101901 -1.5727 0
M  V30 6231 C 601.358 0.559922 -1.93772 0
M  V30 6232 C 601.671 1.68913 -0.98629 0
M  V30 6233 O 602.877 2.41256 -1.24529 0
M  V30 6234 C 601.333 1.04739 -3.44322 0
M  V30 6235 C 600.941 -0.05243 -4.47969 0
M  V30 6236 C 602.685 1.68157 -3.89774 0
M  V30 6237 C 600.592 0.450781 -5.8968 0
M  V30 6238 H 599.522 0.212931 -0.723309 0
M  V30 6239 H 602.173 -0.179001 -1.82625 0
M  V30 6240 H 600.555 1.84021 -3.50645 0
M  V30 6241 H 601.729 -0.828157 -4.53297 0
M  V30 6242 H 600.044 -0.592202 -4.12167 0
M  V30 6243 H 602.641 2.0689 -4.93052 0
M  V30 6244 H 602.984 2.55338 -3.28798 0
M  V30 6245 H 603.517 0.954453 -3.8618 0
M  V30 6246 H 600.256 -0.38458 -6.54371 0
M  V30 6247 H 599.776 1.19336 -5.87809 0
M  V30 6248 H 601.455 0.917555 -6.40461 0
M  V30 6249 N 601.587 1.56661 0.17182 0
M  V30 6250 C 602.535 1.97289 1.23207 0
M  V30 6251 C 603.529 0.861566 1.45854 0
M  V30 6252 O 604.735 1.04668 1.4644 0
M  V30 6253 H 601.11 0.627681 0.41415 0
M  V30 6254 H 603.081 2.85662 0.862542 0
M  V30 6255 C 601.83 2.34849 2.564 0
M  V30 6256 H 601.153 3.19903 2.39797 0
M  V30 6257 H 602.593 2.67121 3.29276 0
M  V30 6258 C 601.052 1.19172 3.15119 0
M  V30 6259 O 601.582 0.479113 3.98833 0
M  V30 6260 N 599.788 0.962415 2.74201 0
M  V30 6261 H 599.335 1.54365 2.06226 0
M  V30 6262 H 599.293 0.190272 3.13824 0
M  V30 6263 N 603.065 -0.440357 1.51323 0
M  V30 6264 C 604.012 -1.53429 1.72419 0
M  V30 6265 C 604.982 -1.56165 0.565826 0
M  V30 6266 O 606.167 -1.73222 0.799917 0
M  V30 6267 C 603.307 -2.91169 1.85242 0
M  V30 6268 C 602.42 -2.97985 3.12777 0
M  V30 6269 C 601.555 -4.26829 3.16212 0
M  V30 6270 C 600.594 -4.27501 4.38074 0
M  V30 6271 N 599.731 -5.47866 4.39076 0
M  V30 6272 H 604.571 -1.34743 2.65797 0
M  V30 6273 H 602.108 -0.654608 1.31732 0
M  V30 6274 H 604.066 -3.71087 1.90658 0
M  V30 6275 H 602.696 -3.0842 0.952744 0
M  V30 6276 H 601.748 -2.10749 3.16685 0
M  V30 6277 H 603.06 -2.94342 4.02696 0
M  V30 6278 H 602.214 -5.15118 3.20527 0
M  V30 6279 H 600.953 -4.33124 2.24176 0
M  V30 6280 H 599.958 -3.37606 4.33938 0
M  V30 6281 H 601.183 -4.22873 5.31371 0
M  V30 6282 H 599.129 -5.54887 3.49909 0
M  V30 6283 H 599.046 -5.46091 5.22801 0
M  V30 6284 H 600.314 -6.38195 4.4758 0
M  V30 6285 N 604.543 -1.41418 -0.695603 0
M  V30 6286 C 605.954 -1.36335 -1.27552 0
M  V30 6287 C 606.305 -0.0464336 -1.96145 0
M  V30 6288 O 605.43 0.855304 -1.9878 0
M  V30 6289 C 606.025 -2.46941 -2.3196 0
M  V30 6290 C 604.584 -2.45256 -2.85529 0
M  V30 6291 C 603.731 -2.2679 -1.59566 0
M  V30 6292 H 606.682 -1.50934 -0.490362 0
M  V30 6293 H 606.703 -2.15997 -3.1325 0
M  V30 6294 H 606.215 -3.42775 -1.82008 0
M  V30 6295 H 604.316 -1.53179 -3.39657 0
M  V30 6296 H 604.429 -3.41565 -3.35961 0
M  V30 6297 H 602.793 -1.74667 -1.85374 0
M  V30 6298 H 603.576 -3.24651 -1.1161 0
M  V30 6299 N 606.021 0.929856 -1.27246 0
M  V30 6300 C 607.269 1.674 -1.13233 0
M  V30 6301 C 607.59 1.92311 0.322744 0
M  V30 6302 O 606.86 1.52784 1.22612 0
M  V30 6303 H 605.44 0.620411 -0.416052 0
M  V30 6304 H 608.102 1.11663 -1.59741 0
M  V30 6305 H 607.198 2.64308 -1.65975 0
M  V30 6306 N 607.499 1.09233 1.13605 0
M  V30 6307 C 608.91 0.846839 1.6639 0
M  V30 6308 C 609.261 -0.625031 1.85978 0
M  V30 6309 O 608.386 -1.48173 1.57714 0
M  V30 6310 C 608.981 1.5307 3.0225 0
M  V30 6311 C 607.54 1.33223 3.52035 0
M  V30 6312 C 606.687 1.58806 2.27323 0
M  V30 6313 H 609.638 1.25175 0.975541 0
M  V30 6314 H 609.659 0.96267 3.68121 0
M  V30 6315 H 609.171 2.60192 2.87961 0
M  V30 6316 H 607.272 0.282091 3.71531 0
M  V30 6317 H 607.385 2.0657 4.32279 0
M  V30 6318 H 605.749 1.01007 2.33815 0
M  V30 6319 H 606.532 2.67153 2.15602 0
M  V30 6320 N 608.977 -1.30795 0.87923 0
M  V30 6321 C 609.907 -2.30742 0.357796 0
M  V30 6322 C 610.888 -1.60747 -0.556283 0
M  V30 6323 O 612.073 -1.88393 -0.47135 0
M  V30 6324 C 609.203 -3.44583 -0.433555 0
M  V30 6325 C 608.157 -4.26235 0.388251 0
M  V30 6326 C 607.483 -5.32073 -0.529352 0
M  V30 6327 C 608.783 -4.96303 1.62729 0
M  V30 6328 H 610.477 -2.74605 1.19299 0
M  V30 6329 H 608.023 -1.32017 0.575104 0
M  V30 6330 H 609.976 -4.13563 -0.808934 0
M  V30 6331 H 608.7 -2.99511 -1.30234 0
M  V30 6332 H 607.359 -3.58936 0.745695 0
M  V30 6333 H 607.007 -4.83249 -1.39569 0
M  V30 6334 H 606.707 -5.87598 0.0166741 0
M  V30 6335 H 608.231 -6.0391 -0.901373 0
M  V30 6336 H 609.645 -5.5783 1.32283 0
M  V30 6337 H 608.042 -5.61666 2.11309 0
M  V30 6338 H 609.112 -4.22758 2.37494 0
M  V30 6339 N 610.455 -0.639598 -1.44038 0
M  V30 6340 C 611.702 -0.14748 -2.01962 0
M  V30 6341 C 612.03 1.23372 -1.50365 0
M  V30 6342 O 611.285 1.8345 -0.681501 0
M  V30 6343 C 611.584 -0.0925348 -3.5728 0
M  V30 6344 C 611.25 -1.41365 -4.28167 0
M  V30 6345 C 609.912 -1.77545 -4.47248 0
M  V30 6346 C 612.264 -2.2853 -4.68427 0
M  V30 6347 C 609.592 -3.00583 -5.03852 0
M  V30 6348 C 611.944 -3.50846 -5.26393 0
M  V30 6349 C 610.608 -3.8724 -5.43692 0
M  V30 6350 H 609.878 -0.0539666 -0.739032 0
M  V30 6351 H 612.525 -0.827599 -1.72694 0
M  V30 6352 H 610.83 0.670987 -3.86012 0
M  V30 6353 H 612.527 0.304891 -3.99839 0
M  V30 6354 H 609.117 -1.1221 -4.13651 0
M  V30 6355 H 613.301 -2.0187 -4.5339 0
M  V30 6356 H 608.557 -3.28846 -5.15432 0
M  V30 6357 H 612.731 -4.18616 -5.56537 0
M  V30 6358 H 610.358 -4.8266 -5.87319 0
M  V30 6359 N 611.933 1.52934 -0.380664 0
M  V30 6360 C 612.88 2.26197 0.458641 0
M  V30 6361 C 613.85 1.27462 1.06502 0
M  V30 6362 O 615.035 1.56274 1.09467 0
M  V30 6363 C 612.175 3.06571 1.58456 0
M  V30 6364 C 611.288 4.20222 1.00189 0
M  V30 6365 C 610.423 4.88007 2.09815 0
M  V30 6366 C 609.462 5.93665 1.49092 0
M  V30 6367 N 608.599 6.55081 2.52613 0
M  V30 6368 H 613.439 2.975 -0.172595 0
M  V30 6369 H 610.976 1.4678 -0.0969426 0
M  V30 6370 H 612.934 3.51455 2.24801 0
M  V30 6371 H 611.564 2.37494 2.18624 0
M  V30 6372 H 610.616 3.79714 0.228292 0
M  V30 6373 H 611.928 4.96102 0.518064 0
M  V30 6374 H 611.082 5.36151 2.83948 0
M  V30 6375 H 609.821 4.11632 2.61555 0
M  V30 6376 H 608.826 5.44868 0.7348 0
M  V30 6377 H 610.051 6.71969 0.981582 0
M  V30 6378 H 607.997 5.8155 3.03538 0
M  V30 6379 H 607.914 7.26548 2.08961 0
M  V30 6380 H 609.182 7.07871 3.26402 0
M  V30 6381 N 613.412 0.11024 1.57214 0
M  V30 6382 C 614.823 -0.416527 1.81994 0
M  V30 6383 C 615.174 -1.67183 1.02686 0
M  V30 6384 O 614.299 -2.14823 0.260782 0
M  V30 6385 C 614.894 -0.762466 3.30109 0
M  V30 6386 C 613.453 -1.23391 3.556 0
M  V30 6387 C 612.6 -0.238166 2.76275 0
M  V30 6388 H 615.551 0.335491 1.55113 0
M  V30 6389 H 615.572 -1.62068 3.44259 0
M  V30 6390 H 615.084 0.151346 3.87805 0
M  V30 6391 H 613.185 -2.16492 3.03253 0
M  V30 6392 H 613.298 -1.18528 4.64207 0
M  V30 6393 H 611.662 -0.723421 2.4421 0
M  V30 6394 H 612.445 0.668591 3.36727 0
M  V30 6395 N 614.89 -1.56749 -0.16351 0
M  V30 6396 C 615.8 -2.00255 -1.2221 0
M  V30 6397 C 616.816 -0.915194 -1.47987 0
M  V30 6398 O 617.992 -1.22342 -1.59982 0
M  V30 6399 C 615.057 -2.36035 -2.53946 0
M  V30 6400 C 614.118 -3.58637 -2.35962 0
M  V30 6401 C 613.351 -3.92701 -3.61416 0
M  V30 6402 O 613.574 -3.27632 -4.66919 0
M  V30 6403 O 612.508 -4.86019 -3.55062 0
M  V30 6404 H 616.334 -2.90586 -0.882794 0
M  V30 6405 H 613.919 -1.44721 -0.370978 0
M  V30 6406 H 615.801 -2.59982 -3.31643 0
M  V30 6407 H 614.476 -1.48863 -2.8744 0
M  V30 6408 H 613.383 -3.39898 -1.5627 0
M  V30 6409 H 614.716 -4.46374 -2.0739 0
M  V30 6410 N 616.368 0.432326 -1.51554 0
M  V30 6411 C 617.316 1.54572 -1.73811 0
M  V30 6412 C 618.31 1.58246 -0.604539 0
M  V30 6413 O 619.516 1.6193 -0.786041 0
M  V30 6414 H 615.891 0.513626 -0.549265 0
M  V30 6415 H 617.862 1.32977 -2.67132 0
M  V30 6416 C 616.611 2.92181 -1.88483 0
M  V30 6417 H 615.934 2.90088 -2.75116 0
M  V30 6418 H 617.374 3.69439 -2.08065 0
M  V30 6419 C 615.833 3.3065 -0.645909 0
M  V30 6420 O 616.363 4.01216 0.197093 0
M  V30 6421 N 614.569 2.86464 -0.488538 0
M  V30 6422 H 614.116 2.29209 -1.17562 0
M  V30 6423 H 614.074 3.12565 0.339156 0
M  V30 6424 N 617.846 1.41785 0.688094 0
M  V30 6425 C 619.094 1.41264 1.4453 0
M  V30 6426 C 619.415 0.0252946 1.94984 0
M  V30 6427 O 618.685 -0.934081 1.72197 0
M  V30 6428 H 617.265 0.519998 0.536294 0
M  V30 6429 H 619.927 1.7709 0.813941 0
M  V30 6430 H 619.023 2.10439 2.30482 0
M  V30 6431 N 619.324 -0.923095 1.27737 0
M  V30 6432 C 620.254 -2.04124 1.13383 0
M  V30 6433 C 621.235 -1.70066 0.0340658 0
M  V30 6434 O 622.42 -1.93068 0.209383 0
M  V30 6435 C 619.55 -3.3831 0.785097 0
M  V30 6436 C 618.504 -3.86496 1.8386 0
M  V30 6437 C 617.83 -5.1754 1.34373 0
M  V30 6438 C 619.13 -4.09381 3.24353 0
M  V30 6439 H 620.824 -2.1639 2.06919 0
M  V30 6440 H 618.37 -1.03976 0.996243 0
M  V30 6441 H 620.323 -4.16016 0.671485 0
M  V30 6442 H 619.047 -3.2607 -0.185969 0
M  V30 6443 H 617.706 -3.10987 1.9412 0
M  V30 6444 H 617.354 -5.01696 0.361989 0
M  V30 6445 H 617.054 -5.50751 2.04811 0
M  V30 6446 H 618.578 -5.97811 1.24315 0
M  V30 6447 H 619.992 -4.77641 3.17067 0
M  V30 6448 H 618.389 -4.53906 3.92542 0
M  V30 6449 H 619.459 -3.14515 3.69064 0
M  V30 6450 N 620.802 -1.09834 -1.13024 0
M  V30 6451 C 621.732 -0.763451 -2.20666 0
M  V30 6452 C 622.713 0.260778 -1.68089 0
M  V30 6453 O 623.898 0.127915 -1.93778 0
M  V30 6454 C 621.028 -0.187744 -3.46792 0
M  V30 6455 C 619.982 -1.14196 -4.12484 0
M  V30 6456 C 619.308 -0.427755 -5.32986 0
M  V30 6457 C 620.608 -2.48607 -4.59338 0
M  V30 6458 H 622.302 -1.66347 -2.48936 0
M  V30 6459 H 619.848 -0.801261 -1.19649 0
M  V30 6460 H 621.801 0.0586375 -4.21359 0
M  V30 6461 H 620.525 0.747485 -3.17931 0
M  V30 6462 H 619.184 -1.37369 -3.3989 0
M  V30 6463 H 618.832 0.511747 -5.0039 0
M  V30 6464 H 618.532 -1.06403 -5.77886 0
M  V30 6465 H 620.056 -0.189772 -6.10305 0
M  V30 6466 H 621.47 -2.29618 -5.25308 0
M  V30 6467 H 619.867 -3.08062 -5.14993 0
M  V30 6468 H 620.937 -3.09062 -3.73642 0
M  V30 6469 N 622.28 1.30327 -0.886154 0
M  V30 6470 C 623.19 2.31854 -0.357866 0
M  V30 6471 C 624.206 1.65392 0.540502 0
M  V30 6472 O 625.382 1.96683 0.433339 0
M  V30 6473 C 622.447 3.44171 0.417999 0
M  V30 6474 C 621.508 4.26257 -0.510263 0
M  V30 6475 C 620.741 5.3321 0.228669 0
M  V30 6476 O 620.964 5.51542 1.45458 0
M  V30 6477 O 619.898 6.0042 -0.421832 0
M  V30 6478 H 623.724 2.78995 -1.19982 0
M  V30 6479 H 621.309 1.34518 -0.650028 0
M  V30 6480 H 623.191 4.12588 0.857251 0
M  V30 6481 H 621.866 2.99164 1.23623 0
M  V30 6482 H 620.773 3.60533 -0.99835 0
M  V30 6483 H 622.106 4.74871 -1.29454 0
M  V30 6484 N 623.758 0.647228 1.43697 0
M  V30 6485 C 624.986 0.16575 2.06235 0
M  V30 6486 C 625.401 -1.1662 1.48476 0
M  V30 6487 O 624.758 -1.7187 0.613762 0
M  V30 6488 C 624.809 0.0621651 3.61447 0
M  V30 6489 O 624.53 1.34146 4.17057 0
M  V30 6490 C 626.031 -0.446102 4.4105 0
M  V30 6491 H 623.251 0.0871158 0.665321 0
M  V30 6492 H 625.795 0.886183 1.84301 0
M  V30 6493 H 623.95 -0.608794 3.82587 0
M  V30 6494 H 624.364 1.19675 5.10664 0
M  V30 6495 H 625.838 -0.46755 5.50016 0
M  V30 6496 H 626.315 -1.47627 4.13646 0
M  V30 6497 H 626.921 0.192159 4.24866 0
M  V30 6498 N 625.236 -1.5273 0.388769 0
M  V30 6499 C 626.183 -2.26437 -0.446639 0
M  V30 6500 C 627.153 -1.28025 -1.05824 0
M  V30 6501 O 628.338 -1.56852 -1.08637 0
M  V30 6502 C 625.478 -3.07407 -1.56828 0
M  V30 6503 C 624.591 -4.20747 -0.979589 0
M  V30 6504 C 623.726 -4.89113 -2.07224 0
M  V30 6505 C 622.765 -5.94447 -1.45942 0
M  V30 6506 N 621.902 -6.56411 -2.49135 0
M  V30 6507 H 626.742 -2.97404 0.18837 0
M  V30 6508 H 624.279 -1.46727 0.104725 0
M  V30 6509 H 626.237 -3.52642 -2.22934 0
M  V30 6510 H 624.867 -2.3865 -2.17361 0
M  V30 6511 H 623.919 -3.7983 -0.208151 0
M  V30 6512 H 625.231 -4.9637 -0.491747 0
M  V30 6513 H 624.385 -5.3765 -2.81101 0
M  V30 6514 H 623.124 -4.13013 -2.59368 0
M  V30 6515 H 622.129 -5.4525 -0.705894 0
M  V30 6516 H 623.354 -6.7248 -0.945932 0
M  V30 6517 H 621.3 -5.83152 -3.00449 0
M  V30 6518 H 621.217 -7.27645 -2.05105 0
M  V30 6519 H 622.485 -7.09592 -3.22644 0
M  V30 6520 N 626.714 -0.118576 -1.57153 0
M  V30 6521 C 627.96 0.540326 -1.95469 0
M  V30 6522 C 628.293 1.66356 -1.00196 0
M  V30 6523 O 627.568 1.94461 -0.039104 0
M  V30 6524 C 627.851 1.07342 -3.43729 0
M  V30 6525 C 627.704 -0.0463732 -4.49776 0
M  V30 6526 C 629.023 1.96442 -3.93826 0
M  V30 6527 H 626.142 0.19494 -0.710751 0
M  V30 6528 H 628.784 -0.19405 -1.89006 0
M  V30 6529 H 626.934 1.69925 -3.49368 0
M  V30 6530 H 628.606 -0.681648 -4.56236 0
M  V30 6531 H 626.849 -0.709574 -4.27957 0
M  V30 6532 H 627.52 0.367856 -5.50773 0
M  V30 6533 H 629.996 1.43731 -3.90488 0
M  V30 6534 H 628.872 2.3066 -4.98084 0
M  V30 6535 H 629.133 2.89077 -3.34495 0
M  V30 6536 N 628.193 1.56834 0.155195 0
M  V30 6537 C 629.423 1.86778 0.883044 0
M  V30 6538 C 629.831 0.703824 1.75622 0
M  V30 6539 O 629.174 -0.33581 1.80605 0
M  V30 6540 C 629.236 3.1133 1.79761 0
M  V30 6541 C 628.9 4.43504 1.10242 0
M  V30 6542 C 629.897 5.17859 0.460204 0
M  V30 6543 C 627.582 4.90233 1.09437 0
M  V30 6544 C 629.576 6.37144 -0.180782 0
M  V30 6545 C 627.263 6.09444 0.449569 0
M  V30 6546 C 628.261 6.82744 -0.186888 0
M  V30 6547 O 627.949 7.99692 -0.821486 0
M  V30 6548 H 627.681 0.62352 0.261149 0
M  V30 6549 H 630.235 2.04813 0.155204 0
M  V30 6550 H 628.465 2.89282 2.56618 0
M  V30 6551 H 630.154 3.27587 2.39669 0
M  V30 6552 H 630.92 4.8283 0.458289 0
M  V30 6553 H 626.799 4.33109 1.57917 0
M  V30 6554 H 630.343 6.94296 -0.678154 0
M  V30 6555 H 626.24 6.43936 0.449123 0
M  V30 6556 H 627.008 8.15306 -0.722337 0
M  V30 6557 N 629.671 -0.424282 1.51781 0
M  V30 6558 C 630.918 -1.1726 1.65095 0
M  V30 6559 C 631.246 -1.90881 0.373477 0
M  V30 6560 O 630.501 -1.84835 -0.642997 0
M  V30 6561 C 630.8 -2.20418 2.81337 0
M  V30 6562 C 630.466 -1.63715 4.20129 0
M  V30 6563 C 629.128 -1.47975 4.57883 0
M  V30 6564 C 631.48 -1.22157 5.06682 0
M  V30 6565 C 628.808 -0.891703 5.79884 0
M  V30 6566 C 631.16 -0.647767 6.29275 0
M  V30 6567 C 629.824 -0.477371 6.65791 0
M  V30 6568 H 629.094 -0.429085 0.604125 0
M  V30 6569 H 631.741 -0.461852 1.85847 0
M  V30 6570 H 630.046 -2.97581 2.54859 0
M  V30 6571 H 631.743 -2.78163 2.88836 0
M  V30 6572 H 628.333 -1.76946 3.90369 0
M  V30 6573 H 632.517 -1.33133 4.7811 0
M  V30 6574 H 627.773 -0.747563 6.06813 0
M  V30 6575 H 631.947 -0.317291 6.95677 0
M  V30 6576 H 629.574 -0.0195936 7.60197 0
M  V30 6577 N 631.149 -1.42148 -0.680565 0
M  V30 6578 C 632.112 -1.4488 -1.77602 0
M  V30 6579 C 633.112 -0.337209 -1.57224 0
M  V30 6580 O 634.302 -0.597778 -1.63622 0
M  V30 6581 C 631.434 -1.27483 -3.16166 0
M  V30 6582 H 632.627 -2.42412 -1.76568 0
M  V30 6583 H 630.18 -1.28511 -0.889645 0
M  V30 6584 H 630.915 -0.30851 -3.22829 0
M  V30 6585 H 630.7 -2.08037 -3.3236 0
M  V30 6586 H 632.19 -1.32265 -3.96101 0
M  V30 6587 N 632.627 0.916307 -1.28225 0
M  V30 6588 C 633.875 1.6619 -1.15002 0
M  V30 6589 C 634.196 1.92642 0.302329 0
M  V30 6590 O 633.466 1.54076 1.20985 0
M  V30 6591 H 632.046 0.615964 -0.422608 0
M  V30 6592 H 634.708 1.09963 -1.60917 0
M  V30 6593 H 633.804 2.62533 -1.68769 0
M  V30 6594 N 634.105 1.10431 1.1244 0
M  V30 6595 C 635.352 0.846717 1.83948 0
M  V30 6596 C 635.68 -0.627709 1.84093 0
M  V30 6597 O 634.935 -1.47876 1.28184 0
M  V30 6598 C 635.234 1.34022 3.3132 0
M  V30 6599 C 634.9 2.82606 3.51347 0
M  V30 6600 C 633.562 3.23182 3.56521 0
M  V30 6601 C 635.914 3.78356 3.58464 0
M  V30 6602 C 633.242 4.58258 3.66356 0
M  V30 6603 C 635.594 5.13234 3.69829 0
M  V30 6604 C 634.258 5.53384 3.73259 0
M  V30 6605 H 633.528 0.309836 0.673114 0
M  V30 6606 H 636.175 1.38091 1.32677 0
M  V30 6607 H 634.48 0.726047 3.85014 0
M  V30 6608 H 636.177 1.11739 3.85118 0
M  V30 6609 H 632.767 2.50212 3.47983 0
M  V30 6610 H 636.951 3.48115 3.53737 0
M  V30 6611 H 632.207 4.88787 3.67284 0
M  V30 6612 H 636.381 5.87272 3.74279 0
M  V30 6613 H 634.008 6.58045 3.80633 0
M  V30 6614 N 635.583 -1.29855 0.893053 0
M  V30 6615 C 636.994 -1.77946 0.564998 0
M  V30 6616 C 637.345 -1.73339 -0.919134 0
M  V30 6617 O 636.47 -1.3152 -1.71847 0
M  V30 6618 C 637.065 -3.23118 1.01883 0
M  V30 6619 C 635.624 -3.69013 0.742051 0
M  V30 6620 C 634.771 -2.50121 1.19727 0
M  V30 6621 H 637.722 -1.16611 1.07646 0
M  V30 6622 H 637.743 -3.78875 0.351249 0
M  V30 6623 H 637.255 -3.26439 2.09903 0
M  V30 6624 H 635.356 -3.71173 -0.325816 0
M  V30 6625 H 635.469 -4.60117 1.33527 0
M  V30 6626 H 633.833 -2.47128 0.616418 0
M  V30 6627 H 634.616 -2.56174 2.28538 0
M  V30 6628 N 637.061 -0.65484 -1.43351 0
M  V30 6629 C 638.477 -0.32255 -1.56307 0
M  V30 6630 C 638.677 1.17324 -1.63821 0
M  V30 6631 O 637.733 1.95813 -1.59417 0
M  V30 6632 C 639.046 -1.03533 -2.82314 0
M  V30 6633 C 640.594 -1.01574 -2.9606 0
M  V30 6634 C 641.069 -1.70945 -4.24902 0
M  V30 6635 N 642.56 -1.67716 -4.3177 0
M  V30 6636 C 643.295 -2.18265 -5.30234 0
M  V30 6637 N 642.791 -2.7711 -6.34966 0
M  V30 6638 N 644.584 -2.08756 -5.21898 0
M  V30 6639 H 636.735 -1.62549 -1.36717 0
M  V30 6640 H 638.998 -0.683676 -0.656727 0
M  V30 6641 H 638.704 -2.09045 -2.8283 0
M  V30 6642 H 638.578 -0.587913 -3.7259 0
M  V30 6643 H 640.965 0.0309834 -2.95084 0
M  V30 6644 H 641.046 -1.50186 -2.07069 0
M  V30 6645 H 640.69 -2.75574 -4.26639 0
M  V30 6646 H 640.62 -1.19797 -5.12793 0
M  V30 6647 H 643.111 -1.24777 -3.56706 0
M  V30 6648 H 643.424 -3.13353 -7.06421 0
M  V30 6649 H 641.769 -2.81171 -6.35585 0
M  V30 6650 H 644.96 -1.62488 -4.38994 0
M  V30 6651 H 645.133 -2.48459 -5.98475 0
M  V30 6652 N 638.539 1.52521 -0.396863 0
M  V30 6653 C 639.486 2.26671 0.434624 0
M  V30 6654 C 640.456 1.28584 1.05144 0
M  V30 6655 O 641.641 1.57426 1.07804 0
M  V30 6656 C 638.781 3.08234 1.55196 0
M  V30 6657 C 637.894 4.21261 0.957262 0
M  V30 6658 C 637.029 4.90205 2.04627 0
M  V30 6659 C 636.068 5.95213 1.42787 0
M  V30 6660 N 635.205 6.57723 2.45651 0
M  V30 6661 H 640.045 2.973 -0.204139 0
M  V30 6662 H 637.582 1.46669 -0.112505 0
M  V30 6663 H 639.54 3.53819 2.2106 0
M  V30 6664 H 638.17 2.398 2.16092 0
M  V30 6665 H 637.222 3.79935 0.188005 0
M  V30 6666 H 638.534 4.96624 0.465416 0
M  V30 6667 H 637.688 5.39133 2.78246 0
M  V30 6668 H 636.427 4.14383 2.57174 0
M  V30 6669 H 635.432 5.45616 0.676968 0
M  V30 6670 H 636.657 6.72972 0.910255 0
M  V30 6671 H 634.603 5.84737 2.97353 0
M  V30 6672 H 634.52 7.28723 2.01243 0
M  V30 6673 H 635.788 7.11293 3.18876 0
M  V30 6674 N 640.017 0.126909 1.57088 0
M  V30 6675 C 641.263 -0.529952 1.95753 0
M  V30 6676 C 641.596 -1.65823 1.01077 0
M  V30 6677 O 640.871 -1.94437 0.0494162 0
M  V30 6678 C 641.154 -1.05517 3.44294 0
M  V30 6679 C 641.007 0.0702253 4.49745 0
M  V30 6680 C 642.326 -1.9435 3.94862 0
M  V30 6681 H 639.445 -0.191168 0.711775 0
M  V30 6682 H 642.087 0.204071 1.88901 0
M  V30 6683 H 640.237 -1.68069 3.50264 0
M  V30 6684 H 641.909 0.705834 4.55868 0
M  V30 6685 H 640.152 0.732259 4.27575 0
M  V30 6686 H 640.823 -0.338642 5.5096 0
M  V30 6687 H 643.299 -1.41658 3.91244 0
M  V30 6688 H 642.175 -2.28015 4.993 0
M  V30 6689 H 642.436 -2.87299 3.36024 0
M  V30 6690 N 641.495 -1.56914 -0.146875 0
M  V30 6691 C 642.405 -2.0154 -1.20079 0
M  V30 6692 C 643.421 -0.930838 -1.47008 0
M  V30 6693 O 644.597 -1.24032 -1.58676 0
M  V30 6694 C 641.662 -2.38715 -2.51428 0
M  V30 6695 C 640.723 -3.6112 -2.32145 0
M  V30 6696 C 639.956 -3.96512 -3.57231 0
M  V30 6697 O 640.179 -3.32566 -4.63418 0
M  V30 6698 O 639.113 -4.89758 -3.49887 0
M  V30 6699 H 642.939 -2.91506 -0.851924 0
M  V30 6700 H 640.524 -1.45106 -0.355607 0
M  V30 6701 H 642.406 -2.63485 -3.28867 0
M  V30 6702 H 641.081 -1.51903 -2.85845 0
M  V30 6703 H 639.988 -3.41536 -1.52656 0
M  V30 6704 H 641.321 -4.48549 -2.02644 0
M  V30 6705 N 642.974 0.416227 -1.52004 0
M  V30 6706 C 644.199 1.19029 -1.69843 0
M  V30 6707 C 644.624 1.83708 -0.404103 0
M  V30 6708 O 643.982 1.69711 0.637787 0
M  V30 6709 C 644.03 2.23439 -2.83032 0
M  V30 6710 O 643.134 3.29419 -2.48106 0
M  V30 6711 H 642.475 0.347785 -0.565634 0
M  V30 6712 H 645.005 0.488871 -1.98674 0
M  V30 6713 H 645.015 2.67884 -3.07737 0
M  V30 6714 H 643.69 1.75745 -3.76944 0
M  V30 6715 H 642.267 2.90303 -2.34048 0
M  V30 6716 N 644.452 1.42507 0.673017 0
M  V30 6717 C 645.362 1.4853 1.81593 0
M  V30 6718 C 646.378 0.373907 1.69935 0
M  V30 6719 O 647.554 0.625078 1.91454 0
M  V30 6720 C 644.619 1.387 3.17747 0
M  V30 6721 C 643.68 2.60346 3.41348 0
M  V30 6722 C 642.913 2.50975 4.71007 0
M  V30 6723 O 643.136 1.54659 5.49033 0
M  V30 6724 O 642.07 3.41138 4.95892 0
M  V30 6725 H 645.896 2.45001 1.79467 0
M  V30 6726 H 643.481 1.2429 0.82899 0
M  V30 6727 H 645.363 1.35586 3.98992 0
M  V30 6728 H 644.038 0.453555 3.20507 0
M  V30 6729 H 642.945 2.69034 2.59945 0
M  V30 6730 H 644.278 3.52595 3.43421 0
M  V30 6731 N 645.93 -0.909495 1.28709 0
M  V30 6732 C 646.86 -2.0291 1.15542 0
M  V30 6733 C 647.841 -1.7002 0.0521017 0
M  V30 6734 O 649.026 -1.92835 0.229849 0
M  V30 6735 C 646.156 -3.37458 0.820935 0
M  V30 6736 C 645.11 -3.84524 1.87949 0
M  V30 6737 C 644.436 -5.16086 1.39854 0
M  V30 6738 C 645.736 -4.05918 3.28676 0
M  V30 6739 H 647.43 -2.14183 2.09203 0
M  V30 6740 H 644.976 -1.02913 1.00722 0
M  V30 6741 H 646.929 -4.1528 0.715571 0
M  V30 6742 H 645.653 -3.26249 -0.151374 0
M  V30 6743 H 644.312 -3.08911 1.97408 0
M  V30 6744 H 643.96 -5.01284 0.41518 0
M  V30 6745 H 643.66 -5.48547 2.1064 0
M  V30 6746 H 645.184 -5.96459 1.30649 0
M  V30 6747 H 646.598 -4.74252 3.22115 0
M  V30 6748 H 644.995 -4.49717 3.97334 0
M  V30 6749 H 646.065 -3.10583 3.72379 0
M  V30 6750 N 647.408 -1.11026 -1.11852 0
M  V30 6751 C 648.657 -0.851249 -1.82857 0
M  V30 6752 C 648.97 0.62514 -1.85341 0
M  V30 6753 O 650.176 1.00026 -2.52403 0
M  V30 6754 C 648.632 -1.47309 -3.28372 0
M  V30 6755 C 648.24 -2.9832 -3.34229 0
M  V30 6756 C 649.984 -1.29373 -4.04306 0
M  V30 6757 C 647.891 -3.53509 -4.74115 0
M  V30 6758 H 646.821 -0.314794 -0.685143 0
M  V30 6759 H 649.472 -1.33499 -1.25898 0
M  V30 6760 H 647.854 -0.917017 -3.85236 0
M  V30 6761 H 649.028 -3.60295 -2.87271 0
M  V30 6762 H 647.343 -3.15482 -2.71772 0
M  V30 6763 H 649.94 -1.68042 -5.07608 0
M  V30 6764 H 650.283 -0.235879 -4.15631 0
M  V30 6765 H 650.816 -1.8182 -3.53817 0
M  V30 6766 H 647.555 -4.58987 -4.67986 0
M  V30 6767 H 647.075 -2.96305 -5.21501 0
M  V30 6768 H 648.754 -3.51693 -5.43066 0
M  V30 6769 N 648.886 1.2938 -0.899927 0
M  V30 6770 C 649.833 2.27713 -0.376243 0
M  V30 6771 C 650.803 1.57016 0.541774 0
M  V30 6772 O 651.988 1.84997 0.466966 0
M  V30 6773 C 649.128 3.42889 0.39 0
M  V30 6774 C 648.241 4.28369 -0.558938 0
M  V30 6775 C 647.376 5.30726 0.224379 0
M  V30 6776 C 646.415 6.07862 -0.719068 0
M  V30 6777 N 645.552 7.02094 0.0298569 0
M  V30 6778 H 650.392 2.71888 -1.21988 0
M  V30 6779 H 647.929 1.33724 -0.612879 0
M  V30 6780 H 649.887 4.08443 0.850314 0
M  V30 6781 H 648.517 2.99743 1.19809 0
M  V30 6782 H 647.569 3.62986 -1.13777 0
M  V30 6783 H 648.881 4.82068 -1.2811 0
M  V30 6784 H 648.035 6.02098 0.745881 0
M  V30 6785 H 646.774 4.77759 0.979674 0
M  V30 6786 H 645.779 5.35353 -1.25207 0
M  V30 6787 H 647.004 6.62917 -1.4737 0
M  V30 6788 H 644.95 6.51496 0.767415 0
M  V30 6789 H 644.867 7.5335 -0.632391 0
M  V30 6790 H 646.135 7.77685 0.531615 0
M  V30 6791 N 650.364 0.662433 1.43002 0
M  V30 6792 C 651.775 0.258315 1.84904 0
M  V30 6793 C 652.126 -1.19703 1.55453 0
M  V30 6794 O 651.251 -1.91484 1.00811 0
M  V30 6795 C 651.846 0.462047 3.35635 0
M  V30 6796 C 650.405 0.112165 3.76233 0
M  V30 6797 C 649.552 0.760479 2.66668 0
M  V30 6798 H 652.503 0.865467 1.33024 0
M  V30 6799 H 652.524 -0.289646 3.79396 0
M  V30 6800 H 652.036 1.52135 3.57039 0
M  V30 6801 H 650.137 -0.944179 3.60439 0
M  V30 6802 H 650.25 0.544058 4.76001 0
M  V30 6803 H 648.614 0.192887 2.53969 0
M  V30 6804 H 649.397 1.82299 2.90898 0
M  V30 6805 N 651.842 -1.52309 0.404946 0
M  V30 6806 C 653.091 -2.00952 -0.173529 0
M  V30 6807 C 653.404 -1.29512 -1.46581 0
M  V30 6808 O 654.61 -1.6895 -2.12528 0
M  V30 6809 C 653.066 -3.58097 -0.359801 0
M  V30 6810 C 652.674 -4.38449 0.920138 0
M  V30 6811 C 654.418 -4.14984 -0.893794 0
M  V30 6812 C 652.325 -5.87227 0.701285 0
M  V30 6813 H 651.255 -0.750871 -0.0686244 0
M  V30 6814 H 653.906 -1.75687 0.529749 0
M  V30 6815 H 652.288 -3.79675 -1.12531 0
M  V30 6816 H 653.462 -4.28633 1.69147 0
M  V30 6817 H 651.777 -3.92859 1.38024 0
M  V30 6818 H 654.374 -5.23813 -1.0735 0
M  V30 6819 H 654.717 -3.72072 -1.8673 0
M  V30 6820 H 655.25 -3.97358 -0.187453 0
M  V30 6821 H 651.989 -6.34491 1.64624 0
M  V30 6822 H 651.509 -5.99792 -0.0308288 0
M  V30 6823 H 653.188 -6.46096 0.341846 0
M  V30 6824 N 653.32 -0.135238 -1.57019 0
M  V30 6825 C 654.268 0.826099 -2.17436 0
M  V30 6826 C 655.262 1.26378 -1.12805 0
M  V30 6827 O 656.468 1.23363 -1.31079 0
M  V30 6828 H 652.843 0.284568 -0.696078 0
M  V30 6829 H 654.814 0.292212 -2.96966 0
M  V30 6830 C 653.563 2.05991 -2.80112 0
M  V30 6831 H 652.886 1.73209 -3.60331 0
M  V30 6832 H 654.326 2.71225 -3.25903 0
M  V30 6833 C 652.785 2.86027 -1.78017 0
M  V30 6834 O 653.315 3.81971 -1.24344 0
M  V30 6835 N 651.521 2.50332 -1.47588 0
M  V30 6836 H 651.068 1.72377 -1.91426 0
M  V30 6837 H 651.026 3.04177 -0.795228 0
M  V30 6838 N 654.798 1.5699 0.138552 0
M  V30 6839 C 656.209 1.73171 0.697754 0
M  V30 6840 C 656.56 0.750952 1.8126 0
M  V30 6841 O 655.685 -0.080549 2.1625 0
M  V30 6842 C 656.28 3.13996 1.27248 0
M  V30 6843 C 654.839 3.3175 1.77816 0
M  V30 6844 C 653.986 2.69084 0.669991 0
M  V30 6845 H 656.937 1.5846 -0.0871979 0
M  V30 6846 H 656.958 3.14463 2.14227 0
M  V30 6847 H 656.47 3.85354 0.460855 0
M  V30 6848 H 654.571 2.65403 2.61519 0
M  V30 6849 H 654.684 4.39768 1.90107 0
M  V30 6850 H 653.048 2.29782 1.09874 0
M  V30 6851 H 653.831 3.43053 -0.130329 0
M  V30 6852 N 656.276 -0.40816 1.52223 0
M  V30 6853 C 657.692 -0.74685 1.41047 0
M  V30 6854 C 657.892 -1.94788 0.51573 0
M  V30 6855 O 656.948 -2.52494 -0.0181156 0
M  V30 6856 C 658.261 -0.999878 2.83589 0
M  V30 6857 C 659.809 -1.10253 2.92939 0
M  V30 6858 C 660.284 -1.38832 4.36451 0
M  V30 6859 N 661.775 -1.45694 4.3969 0
M  V30 6860 C 662.51 -1.69435 5.47795 0
M  V30 6861 N 662.006 -1.90774 6.66016 0
M  V30 6862 N 663.799 -1.71458 5.35312 0
M  V30 6863 H 655.95 0.382409 2.08929 0
M  V30 6864 H 658.213 0.108807 0.941735 0
M  V30 6865 H 657.919 -0.189723 3.51188 0
M  V30 6866 H 657.793 -1.91978 3.24691 0
M  V30 6867 H 660.18 -1.90328 2.2552 0
M  V30 6868 H 660.261 -0.160973 2.55293 0
M  V30 6869 H 659.905 -0.592741 5.04429 0
M  V30 6870 H 659.835 -2.34241 4.71634 0
M  V30 6871 H 662.326 -1.3099 3.54472 0
M  V30 6872 H 662.639 -2.08342 7.44186 0
M  V30 6873 H 660.984 -1.88037 6.69079 0
M  V30 6874 H 664.175 -1.54326 4.41929 0
M  V30 6875 H 664.348 -1.89621 6.19635 0
M  V30 6876 N 657.755 -1.42862 -0.66545 0
M  V30 6877 C 658.685 -1.49867 -1.79059 0
M  V30 6878 C 659.666 -0.354394 -1.66367 0
M  V30 6879 O 660.851 -0.569969 -1.85647 0
M  V30 6880 C 657.981 -1.40943 -3.17415 0
M  V30 6881 C 656.935 -2.53495 -3.44854 0
M  V30 6882 C 656.261 -2.29626 -4.82883 0
M  V30 6883 C 657.561 -3.95781 -3.40815 0
M  V30 6884 H 659.255 -2.44037 -1.73453 0
M  V30 6885 H 656.801 -1.17456 -0.833071 0
M  V30 6886 H 658.754 -1.4445 -3.95869 0
M  V30 6887 H 657.478 -0.432716 -3.23721 0
M  V30 6888 H 656.137 -2.4932 -2.68766 0
M  V30 6889 H 655.785 -1.30226 -4.8585 0
M  V30 6890 H 655.485 -3.05065 -5.02204 0
M  V30 6891 H 657.009 -2.34897 -5.63609 0
M  V30 6892 H 658.423 -4.01508 -4.09224 0
M  V30 6893 H 656.82 -4.71148 -3.71672 0
M  V30 6894 H 657.89 -4.21786 -2.39216 0
M  V30 6895 N 659.233 0.902656 -1.29189 0
M  V30 6896 C 660.51 1.63296 -1.07674 0
M  V30 6897 C 660.89 2.07649 0.380137 0
M  V30 6898 O 660.238 1.82997 1.36837 0
M  V30 6899 C 660.448 2.81603 -2.06158 0
M  V30 6900 C 661.796 3.52359 -2.36914 0
M  V30 6901 O 662.82 2.91767 -2.04329 0
M  V30 6902 O 661.679 4.61586 -2.92576 0
M  V30 6903 H 658.773 0.716889 -0.41231 0
M  V30 6904 H 661.319 0.950984 -1.4055 0
M  V30 6905 H 660.091 2.46004 -3.04299 0
M  V30 6906 H 659.714 3.57508 -1.73993 0
M  V30 6907 N 660.711 1.11618 1.11262 0
M  V30 6908 C 661.959 0.864469 1.82678 0
M  V30 6909 C 662.28 -0.611564 1.85162 0
M  V30 6910 O 661.55 -1.44429 1.32352 0
M  V30 6911 H 660.13 0.316821 0.676486 0
M  V30 6912 H 662.792 1.40894 1.34666 0
M  V30 6913 H 661.888 1.23832 2.86482 0
M  V30 6914 N 662.189 -1.289 0.906776 0
M  V30 6915 C 663.429 -1.97046 0.543329 0
M  V30 6916 C 663.793 -1.69862 -0.895034 0
M  V30 6917 O 664.994 -2.31521 -1.36571 0
M  V30 6918 C 663.265 -3.47489 0.835833 0
M  V30 6919 S 664.824 -4.3498 0.577756 0
M  V30 6920 H 661.642 -0.681908 0.201302 0
M  V30 6921 H 664.244 -1.5657 1.17073 0
M  V30 6922 H 662.948 -3.64768 1.88075 0
M  V30 6923 H 662.479 -3.92907 0.196817 0
M  V30 6924 H 664.494 -4.92868 -0.574052 0
M  V30 6925 N 663.667 -0.670007 -1.42649 0
M  V30 6926 C 664.916 -0.187526 -2.00826 0
M  V30 6927 C 665.229 1.21142 -1.53571 0
M  V30 6928 O 666.435 1.79001 -2.04134 0
M  V30 6929 C 664.891 -0.284409 -3.58774 0
M  V30 6930 C 664.499 -1.6871 -4.15019 0
M  V30 6931 C 666.243 0.139605 -4.2427 0
M  V30 6932 C 664.15 -1.73701 -5.65316 0
M  V30 6933 H 663.08 -0.0663468 -0.751075 0
M  V30 6934 H 665.731 -0.834492 -1.63427 0
M  V30 6935 H 664.113 0.430364 -3.93655 0
M  V30 6936 H 665.287 -2.42857 -3.91608 0
M  V30 6937 H 663.602 -2.05855 -3.61957 0
M  V30 6938 H 666.199 0.122398 -5.3456 0
M  V30 6939 H 666.542 1.17403 -3.99402 0
M  V30 6940 H 667.075 -0.523995 -3.94334 0
M  V30 6941 H 663.814 -2.75109 -5.94975 0
M  V30 6942 H 663.334 -1.03903 -5.90732 0
M  V30 6943 H 665.013 -1.48829 -6.2965 0
M  V30 6944 N 665.145 1.52092 -0.413018 0
M  V30 6945 C 666.561 1.59471 -0.0640836 0
M  V30 6946 C 666.761 1.42562 1.42402 0
M  V30 6947 O 665.817 1.25453 2.19129 0
M  V30 6948 C 667.13 2.95392 -0.562474 0
M  V30 6949 C 668.678 3.08637 -0.520788 0
M  V30 6950 C 669.153 4.47044 -0.995752 0
M  V30 6951 N 670.644 4.53296 -0.952732 0
M  V30 6952 C 671.379 5.58669 -1.29138 0
M  V30 6953 N 670.875 6.71576 -1.70168 0
M  V30 6954 N 672.668 5.48898 -1.2111 0
M  V30 6955 H 664.819 1.6133 -1.38153 0
M  V30 6956 H 667.082 0.75916 -0.567785 0
M  V30 6957 H 666.788 3.13059 -1.60271 0
M  V30 6958 H 666.662 3.77191 0.0257875 0
M  V30 6959 H 669.049 2.90652 0.510412 0
M  V30 6960 H 669.13 2.28735 -1.14515 0
M  V30 6961 H 668.774 4.65773 -2.0253 0
M  V30 6962 H 668.704 5.25448 -0.348162 0
M  V30 6963 H 671.195 3.72248 -0.651119 0
M  V30 6964 H 671.508 7.47973 -1.9431 0
M  V30 6965 H 669.853 6.72847 -1.74075 0
M  V30 6966 H 673.044 4.59573 -0.889396 0
M  V30 6967 H 673.217 6.30912 -1.47833 0
M  V30 6968 N 666.623 0.143563 1.56945 0
M  V30 6969 C 667.848 -0.518701 2.00809 0
M  V30 6970 C 668.273 -1.5785 1.02298 0
M  V30 6971 O 667.631 -1.813 -0.0017839 0
M  V30 6972 C 667.679 -1.09929 3.43436 0
M  V30 6973 O 666.783 -2.21425 3.47915 0
M  V30 6974 H 666.124 -0.127215 0.6517 0
M  V30 6975 H 668.654 0.239283 2.03196 0
M  V30 6976 H 668.664 -1.4288 3.82164 0
M  V30 6977 H 667.339 -0.323162 4.14643 0
M  V30 6978 H 665.916 -1.89728 3.21026 0
M  V30 6979 N 668.101 -1.57061 -0.130224 0
M  V30 6980 C 669.347 -1.85412 -0.836295 0
M  V30 6981 C 669.702 -0.729831 -1.7802 0
M  V30 6982 O 668.995 0.271021 -1.89673 0
M  V30 6983 C 669.189 -3.17878 -1.63365 0
M  V30 6984 C 669.018 -4.43086 -0.768453 0
M  V30 6985 C 667.788 -5.03488 -0.427598 0
M  V30 6986 C 669.986 -5.14219 -0.0911495 0
M  V30 6987 N 667.968 -6.12253 0.449439 0
M  V30 6988 C 669.339 -6.16632 0.645341 0
M  V30 6989 C 671.394 -4.97898 -0.0135625 0
M  V30 6990 C 670.097 -7.0449 1.45212 0
M  V30 6991 C 672.123 -5.86234 0.780001 0
M  V30 6992 C 671.485 -6.88141 1.50472 0
M  V30 6993 H 667.584 -0.728875 -0.283311 0
M  V30 6994 H 670.168 -1.9444 -0.100662 0
M  V30 6995 H 668.339 -3.09967 -2.3404 0
M  V30 6996 H 670.071 -3.34076 -2.28419 0
M  V30 6997 H 666.826 -4.67344 -0.767264 0
M  V30 6998 H 667.25 -6.71263 0.879476 0
M  V30 6999 H 671.892 -4.19082 -0.559511 0
M  V30 7000 H 669.61 -7.82722 2.00926 0
M  V30 7001 H 673.196 -5.75671 0.842246 0
M  V30 7002 H 672.076 -7.55311 2.1089 0
M  V30 7003 N 669.579 0.400081 -1.52437 0
M  V30 7004 C 670.527 1.50851 -1.7705 0
M  V30 7005 C 671.521 1.56928 -0.637969 0
M  V30 7006 O 672.727 1.60226 -0.820212 0
M  V30 7007 H 669.102 0.50186 -0.560036 0
M  V30 7008 H 671.073 1.27281 -2.69893 0
M  V30 7009 C 669.822 2.88117 -1.94638 0
M  V30 7010 H 669.145 2.84187 -2.81208 0
M  V30 7011 H 670.585 3.64942 -2.15855 0
M  V30 7012 C 669.044 3.29206 -0.715899 0
M  V30 7013 O 669.574 4.01544 0.111944 0
M  V30 7014 N 667.78 2.85363 -0.549191 0
M  V30 7015 H 667.327 2.26664 -1.22397 0
M  V30 7016 H 667.285 3.13214 0.27278 0
M  V30 7017 N 671.057 1.43213 0.657864 0
M  V30 7018 C 671.987 1.50815 1.78262 0
M  V30 7019 C 672.968 0.363211 1.66177 0
M  V30 7020 O 674.153 0.579806 1.85343 0
M  V30 7021 C 671.283 1.42625 3.16663 0
M  V30 7022 C 670.237 2.5532 3.43505 0
M  V30 7023 C 669.563 2.32184 4.81658 0
M  V30 7024 C 670.863 3.97583 3.38711 0
M  V30 7025 H 672.557 2.44954 1.72157 0
M  V30 7026 H 670.103 1.17896 0.82683 0
M  V30 7027 H 672.056 1.46548 3.95097 0
M  V30 7028 H 670.78 0.449877 3.23487 0
M  V30 7029 H 669.439 2.50742 2.6744 0
M  V30 7030 H 669.087 1.32801 4.85153 0
M  V30 7031 H 668.787 3.07724 5.00579 0
M  V30 7032 H 670.311 2.37883 5.62356 0
M  V30 7033 H 671.725 4.03673 4.07089 0
M  V30 7034 H 670.122 4.73112 3.69168 0
M  V30 7035 H 671.192 4.23049 2.36976 0
M  V30 7036 N 672.536 -0.895792 1.29666 0
M  V30 7037 C 673.469 -2.00238 1.09453 0
M  V30 7038 C 674.447 -1.62599 0.00527044 0
M  V30 7039 O 675.631 -1.87847 0.156729 0
M  V30 7040 C 672.758 -3.32066 0.667054 0
M  V30 7041 C 671.804 -3.88691 1.7556 0
M  V30 7042 S 672.637 -4.17317 3.35569 0
M  V30 7043 C 673.793 -5.52181 2.94698 0
M  V30 7044 H 674.026 -2.17076 2.03138 0
M  V30 7045 H 671.559 -1.04287 1.13858 0
M  V30 7046 H 673.517 -4.08272 0.427136 0
M  V30 7047 H 672.178 -3.13101 -0.250256 0
M  V30 7048 H 671.371 -4.83918 1.40853 0
M  V30 7049 H 670.973 -3.19187 1.94924 0
M  V30 7050 H 673.265 -6.3281 2.41986 0
M  V30 7051 H 674.208 -5.91817 3.88791 0
M  V30 7052 H 674.616 -5.14225 2.32879 0
M  V30 7053 N 674.014 -1.12206 -1.10668 0
M  V30 7054 C 674.961 -0.787716 -2.16942 0
M  V30 7055 C 675.931 0.244442 -1.64291 0
M  V30 7056 O 677.116 0.119558 -1.90425 0
M  V30 7057 C 674.256 -0.24584 -3.44223 0
M  V30 7058 C 673.369 -1.33552 -4.10838 0
M  V30 7059 C 672.504 -0.753337 -5.25831 0
M  V30 7060 C 671.543 -1.82231 -5.84344 0
M  V30 7061 N 670.68 -1.25902 -6.90719 0
M  V30 7062 H 675.52 -1.69809 -2.44885 0
M  V30 7063 H 673.057 -0.847862 -1.20207 0
M  V30 7064 H 675.015 0.0863639 -4.17111 0
M  V30 7065 H 673.645 0.627702 -3.16638 0
M  V30 7066 H 672.697 -1.78454 -3.35944 0
M  V30 7067 H 674.009 -2.14396 -4.50373 0
M  V30 7068 H 673.163 -0.37166 -6.05561 0
M  V30 7069 H 671.902 0.0863297 -4.87624 0
M  V30 7070 H 670.907 -2.2132 -5.03287 0
M  V30 7071 H 672.132 -2.66515 -6.24617 0
M  V30 7072 H 670.078 -0.44114 -6.54515 0
M  V30 7073 H 669.995 -2.00408 -7.28953 0
M  V30 7074 H 671.263 -0.904498 -7.74235 0
M  V30 7075 N 675.492 1.28418 -0.913599 0
M  V30 7076 C 676.424 2.26368 -0.359169 0
M  V30 7077 C 677.437 1.54858 0.502285 0
M  V30 7078 O 678.626 1.75659 0.31719 0
M  V30 7079 C 675.726 3.35112 0.50526 0
M  V30 7080 C 674.899 4.36126 -0.333648 0
M  V30 7081 C 673.958 5.24134 0.465845 0
M  V30 7082 O 672.984 5.6907 -0.121538 0
M  V30 7083 N 674.186 5.52892 1.76891 0
M  V30 7084 H 676.951 2.74579 -1.2011 0
M  V30 7085 H 674.512 1.41898 -0.779532 0
M  V30 7086 H 676.504 3.90926 1.04684 0
M  V30 7087 H 675.074 2.86611 1.2479 0
M  V30 7088 H 674.294 3.79776 -1.0566 0
M  V30 7089 H 675.582 5.00638 -0.907669 0
M  V30 7090 H 674.98 5.18217 2.26865 0
M  V30 7091 H 673.537 6.11464 2.25732 0
M  V30 7092 N 676.97 0.677563 1.42291 0
M  V30 7093 C 678.218 0.200578 2.01102 0
M  V30 7094 C 678.539 -1.19803 1.53858 0
M  V30 7095 O 677.809 -1.80496 0.761439 0
M  V30 7096 H 676.389 0.0711634 0.743603 0
M  V30 7097 H 679.051 0.874691 1.7417 0
M  V30 7098 H 678.147 0.204 3.11433 0
M  V30 7099 N 678.448 -1.51871 0.421078 0
M  V30 7100 C 679.411 -2.25914 -0.386712 0
M  V30 7101 C 680.411 -1.28733 -0.963555 0
M  V30 7102 O 681.601 -1.52579 -0.840556 0
M  V30 7103 C 678.733 -3.03853 -1.54551 0
M  V30 7104 H 679.926 -2.98754 0.261978 0
M  V30 7105 H 677.479 -1.5533 0.173862 0
M  V30 7106 H 678.214 -2.35392 -2.23072 0
M  V30 7107 H 677.999 -3.75215 -1.13824 0
M  V30 7108 H 679.489 -3.59984 -2.11663 0
M  V30 7109 N 679.926 -0.151884 -1.56866 0
M  V30 7110 C 681.151 0.508044 -2.01081 0
M  V30 7111 C 681.576 1.57306 -1.03134 0
M  V30 7112 O 680.934 1.81298 -0.0078309 0
M  V30 7113 C 680.982 1.08106 -3.44014 0
M  V30 7114 O 680.086 2.19577 -3.49084 0
M  V30 7115 H 679.427 0.123757 -0.652365 0
M  V30 7116 H 681.957 -0.250055 -2.03066 0
M  V30 7117 H 681.967 1.40851 -3.82916 0
M  V30 7118 H 680.642 0.301168 -4.14808 0
M  V30 7119 H 679.219 1.88023 -3.22027 0
M  V30 7120 N 681.404 1.57128 0.121893 0
M  V30 7121 C 682.652 1.84335 0.828548 0
M  V30 7122 C 682.973 0.736632 1.80551 0
M  V30 7123 O 682.243 -0.23962 1.94429 0
M  V30 7124 H 680.823 0.680108 0.30897 0
M  V30 7125 H 683.485 1.9459 0.109906 0
M  V30 7126 H 682.581 2.80152 1.37554 0
M  V30 7127 N 682.882 -0.391992 1.52647 0
M  V30 7128 C 684.131 -1.13449 1.6677 0
M  V30 7129 C 684.444 -1.91203 0.412399 0
M  V30 7130 O 685.65 -2.68013 0.433707 0
M  V30 7131 C 684.106 -2.06577 2.9471 0
M  V30 7132 C 683.714 -1.3426 4.27409 0
M  V30 7133 C 685.458 -2.80981 3.18198 0
M  V30 7134 C 683.365 -2.26136 5.46458 0
M  V30 7135 H 682.295 -0.427211 0.621295 0
M  V30 7136 H 684.946 -0.397522 1.79142 0
M  V30 7137 H 683.328 -2.83898 2.76076 0
M  V30 7138 H 684.502 -0.621856 4.56585 0
M  V30 7139 H 682.817 -0.718279 4.10158 0
M  V30 7140 H 685.414 -3.49898 4.04321 0
M  V30 7141 H 685.757 -3.44891 2.33144 0
M  V30 7142 H 686.29 -2.10754 3.37383 0
M  V30 7143 H 683.029 -1.66846 6.33911 0
M  V30 7144 H 682.549 -2.96134 5.21598 0
M  V30 7145 H 684.228 -2.86286 5.80215 0
M  V30 7146 N 684.36 -1.4356 -0.65026 0
M  V30 7147 C 685.307 -1.48948 -1.76304 0
M  V30 7148 C 686.277 -0.338919 -1.62605 0
M  V30 7149 O 687.462 -0.54649 -1.82806 0
M  V30 7150 C 684.602 -1.42131 -3.14472 0
M  V30 7151 C 683.715 -2.67415 -3.39284 0
M  V30 7152 C 682.85 -2.52565 -4.67316 0
M  V30 7153 C 681.889 -3.73103 -4.85243 0
M  V30 7154 N 681.026 -3.57046 -6.04535 0
M  V30 7155 H 685.866 -2.44032 -1.71034 0
M  V30 7156 H 683.403 -1.21131 -0.834601 0
M  V30 7157 H 685.361 -1.36172 -3.94351 0
M  V30 7158 H 683.991 -0.506273 -3.18805 0
M  V30 7159 H 683.043 -2.8364 -2.53481 0
M  V30 7160 H 684.355 -3.56943 -3.48415 0
M  V30 7161 H 683.509 -2.44331 -5.55326 0
M  V30 7162 H 682.248 -1.60566 -4.60511 0
M  V30 7163 H 681.253 -3.81743 -3.95667 0
M  V30 7164 H 682.478 -4.66115 -4.93876 0
M  V30 7165 H 680.424 -2.67783 -5.98856 0
M  V30 7166 H 680.341 -4.40178 -6.14638 0
M  V30 7167 H 681.609 -3.52669 -6.95158 0
M  V30 7168 N 685.838 0.888903 -1.30139 0
M  V30 7169 C 686.748 2.02705 -1.18101 0
M  V30 7170 C 687.764 1.73702 -0.101809 0
M  V30 7171 O 688.94 1.98906 -0.315984 0
M  V30 7172 C 686.005 3.35616 -0.869651 0
M  V30 7173 C 685.066 3.78067 -2.03381 0
M  V30 7174 C 684.299 5.04635 -1.73721 0
M  V30 7175 O 684.522 5.66531 -0.663267 0
M  V30 7176 O 683.456 5.43399 -2.58845 0
M  V30 7177 H 687.282 2.15788 -2.13704 0
M  V30 7178 H 684.867 1.01426 -1.09695 0
M  V30 7179 H 686.749 4.15358 -0.711043 0
M  V30 7180 H 685.424 3.23651 0.0565002 0
M  V30 7181 H 684.331 2.99046 -2.24772 0
M  V30 7182 H 685.664 3.94631 -2.94155 0
M  V30 7183 N 687.317 1.12792 1.10072 0
M  V30 7184 C 688.566 0.880232 1.81479 0
M  V30 7185 C 688.879 -0.595575 1.86312 0
M  V30 7186 O 690.085 -0.959979 2.53962 0
M  V30 7187 C 688.541 1.52514 3.25987 0
M  V30 7188 C 688.149 3.036 3.29441 0
M  V30 7189 C 689.893 1.35788 4.02196 0
M  V30 7190 C 687.8 3.61007 4.68431 0
M  V30 7191 H 686.73 0.325654 0.680048 0
M  V30 7192 H 689.381 1.35485 1.23758 0
M  V30 7193 H 687.763 0.978188 3.83728 0
M  V30 7194 H 688.937 3.64819 2.81502 0
M  V30 7195 H 687.252 3.19765 2.66719 0
M  V30 7196 H 689.849 1.76096 5.0487 0
M  V30 7197 H 690.192 0.301972 4.15203 0
M  V30 7198 H 690.725 1.87426 3.50879 0
M  V30 7199 H 687.464 4.66375 4.60625 0
M  V30 7200 H 686.984 3.04564 5.16721 0
M  V30 7201 H 688.663 3.60289 5.37402 0
M  V30 7202 N 688.795 -1.27931 0.920396 0
M  V30 7203 C 690.044 -1.93975 0.552867 0
M  V30 7204 C 690.357 -1.73193 -0.909035 0
M  V30 7205 O 691.563 -2.33515 -1.38502 0
M  V30 7206 C 690.019 -3.47463 0.937947 0
M  V30 7207 C 689.627 -3.77013 2.42003 0
M  V30 7208 C 691.371 -4.19628 0.64132 0
M  V30 7209 C 689.278 -5.23841 2.74489 0
M  V30 7210 H 688.208 -0.726146 0.203046 0
M  V30 7211 H 690.859 -1.45339 1.12022 0
M  V30 7212 H 689.241 -3.94867 0.299317 0
M  V30 7213 H 690.415 -3.40393 3.10595 0
M  V30 7214 H 688.73 -3.18035 2.6878 0
M  V30 7215 H 691.327 -5.27729 0.860622 0
M  V30 7216 H 691.67 -4.14164 -0.421168 0
M  V30 7217 H 692.203 -3.78022 1.23872 0
M  V30 7218 H 688.942 -5.34388 3.79618 0
M  V30 7219 H 688.462 -5.61634 2.1054 0
M  V30 7220 H 690.141 -5.91647 2.61845 0
M  V30 7221 N 690.273 -0.685099 -1.4193 0
M  V30 7222 C 691.205 0.0258679 -2.29185 0
M  V30 7223 C 692.218 0.755076 -1.44231 0
M  V30 7224 O 693.407 0.60752 -1.67844 0
M  V30 7225 C 690.507 1.06055 -3.21878 0
M  V30 7226 C 689.68 0.403088 -4.35539 0
M  V30 7227 C 688.739 1.33895 -5.0888 0
M  V30 7228 O 687.765 0.835326 -5.63037 0
M  V30 7229 N 688.967 2.6718 -5.15359 0
M  V30 7230 H 691.732 -0.723201 -2.90843 0
M  V30 7231 H 689.293 -0.53031 -1.52968 0
M  V30 7232 H 691.285 1.68813 -3.6781 0
M  V30 7233 H 689.855 1.71126 -2.616 0
M  V30 7234 H 689.075 -0.404185 -3.92122 0
M  V30 7235 H 690.363 -0.0545098 -5.08771 0
M  V30 7236 H 689.761 3.10626 -4.72788 0
M  V30 7237 H 688.318 3.25159 -5.64903 0
M  V30 7238 N 691.751 1.51645 -0.429126 0
M  V30 7239 C 692.661 2.31288 0.392809 0
M  V30 7240 C 693.677 1.39852 1.03525 0
M  V30 7241 O 694.853 1.72926 1.03241 0
M  V30 7242 C 691.918 3.13347 1.48372 0
M  V30 7243 C 690.979 4.20551 0.862268 0
M  V30 7244 C 690.212 4.98688 1.9012 0
M  V30 7245 O 690.435 4.77359 3.12225 0
M  V30 7246 O 689.369 5.83005 1.4963 0
M  V30 7247 H 693.195 3.02609 -0.257138 0
M  V30 7248 H 690.78 1.48163 -0.191851 0
M  V30 7249 H 692.662 3.64387 2.1166 0
M  V30 7250 H 691.337 2.44799 2.1179 0
M  V30 7251 H 690.244 3.73609 0.191568 0
M  V30 7252 H 691.577 4.91449 0.271704 0
M  V30 7253 N 693.229 0.160201 1.56784 0
M  V30 7254 C 694.176 -0.774416 2.1742 0
M  V30 7255 C 695.146 -1.23483 1.11091 0
M  V30 7256 O 696.331 -1.30499 1.39193 0
M  V30 7257 C 693.471 -2.00283 2.81035 0
M  V30 7258 C 692.584 -1.58701 4.01793 0
M  V30 7259 C 691.719 -2.76824 4.53367 0
M  V30 7260 C 690.758 -2.31679 5.66561 0
M  V30 7261 N 689.895 -3.42856 6.12694 0
M  V30 7262 H 694.735 -0.250542 2.96945 0
M  V30 7263 H 692.272 -0.111943 1.46673 0
M  V30 7264 H 694.23 -2.72316 3.16069 0
M  V30 7265 H 692.86 -2.5006 2.04132 0
M  V30 7266 H 691.912 -0.76384 3.72652 0
M  V30 7267 H 693.224 -1.21555 4.83762 0
M  V30 7268 H 692.378 -3.57029 4.90525 0
M  V30 7269 H 691.117 -3.17223 3.70433 0
M  V30 7270 H 690.122 -1.49917 5.28966 0
M  V30 7271 H 691.347 -1.9235 6.5129 0
M  V30 7272 H 689.293 -3.82852 5.32692 0
M  V30 7273 H 689.21 -3.09767 6.89624 0
M  V30 7274 H 690.478 -4.23379 6.545 0
M  V30 7275 N 694.707 -1.5719 -0.113559 0
M  V30 7276 C 695.639 -1.97393 -1.16484 0
M  V30 7277 C 696.652 -0.873964 -1.37352 0
M  V30 7278 O 697.841 -1.15222 -1.36331 0
M  V30 7279 C 694.941 -2.26174 -2.52386 0
M  V30 7280 C 694.114 -3.57479 -2.52046 0
M  V30 7281 C 693.173 -3.74409 -3.69735 0
M  V30 7282 O 692.199 -4.46463 -3.53071 0
M  V30 7283 N 693.401 -3.13588 -4.88511 0
M  V30 7284 H 696.166 -2.88184 -0.822814 0
M  V30 7285 H 693.727 -1.59044 -0.302769 0
M  V30 7286 H 695.719 -2.3471 -3.29687 0
M  V30 7287 H 694.289 -1.41483 -2.7875 0
M  V30 7288 H 693.509 -3.60081 -1.60421 0
M  V30 7289 H 694.797 -4.43775 -2.48881 0
M  V30 7290 H 694.195 -2.55026 -5.04953 0
M  V30 7291 H 692.752 -3.27637 -5.63469 0
M  V30 7292 N 696.185 0.383891 -1.52853 0
M  V30 7293 C 697.133 1.48965 -1.7864 0
M  V30 7294 C 698.127 1.56242 -0.654577 0
M  V30 7295 O 699.333 1.59347 -0.83716 0
M  V30 7296 H 695.708 0.495892 -0.565328 0
M  V30 7297 H 697.679 1.24411 -2.71228 0
M  V30 7298 C 696.428 2.86036 -1.97683 0
M  V30 7299 H 695.751 2.81188 -2.84206 0
M  V30 7300 H 697.191 3.62632 -2.19713 0
M  V30 7301 C 695.65 3.28428 -0.750776 0
M  V30 7302 O 696.18 4.0164 0.0693491 0
M  V30 7303 N 694.386 2.84765 -0.579427 0
M  V30 7304 H 693.933 2.25353 -1.24795 0
M  V30 7305 H 693.891 3.13486 0.239544 0
M  V30 7306 N 697.663 1.43903 0.642637 0
M  V30 7307 C 698.61 1.49881 1.75512 0
M  V30 7308 C 699.58 0.347538 1.62423 0
M  V30 7309 O 700.765 0.556177 1.82514 0
M  V30 7310 C 697.905 1.43797 3.13714 0
M  V30 7311 C 697.018 2.6921 3.37861 0
M  V30 7312 C 696.153 2.5504 4.6597 0
M  V30 7313 C 695.192 3.75671 4.83257 0
M  V30 7314 N 694.329 3.60247 6.02633 0
M  V30 7315 H 699.169 2.44935 1.69737 0
M  V30 7316 H 696.706 1.21572 0.828165 0
M  V30 7317 H 698.664 1.38262 3.93624 0
M  V30 7318 H 697.294 0.523173 3.18532 0
M  V30 7319 H 696.346 2.8498 2.51973 0
M  V30 7320 H 697.658 3.58786 3.46517 0
M  V30 7321 H 696.812 2.47273 5.54023 0
M  V30 7322 H 695.551 1.63006 4.59653 0
M  V30 7323 H 694.556 3.83836 3.93637 0
M  V30 7324 H 695.781 4.68728 4.91397 0
M  V30 7325 H 693.727 2.70955 5.97427 0
M  V30 7326 H 693.644 4.43431 6.12295 0
M  V30 7327 H 694.912 3.56351 6.93278 0
M  V30 7328 N 699.141 -0.881989 1.30609 0
M  V30 7329 C 700.091 -1.97539 1.13852 0
M  V30 7330 C 701.075 -1.60813 0.0528428 0
M  V30 7331 O 702.267 -1.74827 0.276484 0
M  V30 7332 C 699.396 -3.32977 0.835519 0
M  V30 7333 C 698.482 -3.76008 1.96159 0
M  V30 7334 N 698.873 -3.91109 3.20729 0
M  V30 7335 C 697.171 -4.05427 1.85863 0
M  V30 7336 C 697.872 -4.27661 3.94311 0
M  V30 7337 N 696.848 -4.37686 3.22385 0
M  V30 7338 H 700.65 -2.07309 2.08327 0
M  V30 7339 H 698.164 -1.072 1.21992 0
M  V30 7340 H 700.161 -4.11041 0.696477 0
M  V30 7341 H 698.821 -3.24542 -0.101135 0
M  V30 7342 H 699.832 -3.7616 3.55984 0
M  V30 7343 H 696.509 -4.05449 0.995847 0
M  V30 7344 H 697.899 -4.47042 5.01601 0
M  V30 7345 N 700.619 -1.13374 -1.09472 0
M  V30 7346 C 701.859 -0.905422 -1.83252 0
M  V30 7347 C 702.223 0.558396 -1.83701 0
M  V30 7348 O 703.424 0.904254 -2.53134 0
M  V30 7349 C 701.695 -1.47658 -3.25472 0
M  V30 7350 S 703.254 -1.38825 -4.16261 0
M  V30 7351 H 700.072 -0.326371 -0.631667 0
M  V30 7352 H 702.674 -1.44517 -1.31663 0
M  V30 7353 H 701.378 -2.53533 -3.22722 0
M  V30 7354 H 700.909 -0.934756 -3.82133 0
M  V30 7355 H 702.924 -0.366379 -4.94846 0
M  V30 7356 N 702.098 1.27442 -0.927168 0
M  V30 7357 C 703.028 2.29256 -0.443188 0
M  V30 7358 C 704.009 1.62701 0.49624 0
M  V30 7359 O 705.194 1.90013 0.401105 0
M  V30 7360 C 702.324 3.45955 0.305366 0
M  V30 7361 C 701.278 4.24501 -0.546178 0
M  V30 7362 C 700.604 5.33671 0.331512 0
M  V30 7363 C 701.904 4.89921 -1.81037 0
M  V30 7364 H 703.598 2.69988 -1.29409 0
M  V30 7365 H 701.144 1.29792 -0.623705 0
M  V30 7366 H 703.097 4.1628 0.654885 0
M  V30 7367 H 701.821 3.04138 1.19029 0
M  V30 7368 H 700.48 3.55921 -0.878398 0
M  V30 7369 H 700.128 4.88096 1.21537 0
M  V30 7370 H 699.828 5.87131 -0.234746 0
M  V30 7371 H 701.352 6.0684 0.676614 0
M  V30 7372 H 702.766 5.52536 -1.52895 0
M  V30 7373 H 701.163 5.53436 -2.32009 0
M  V30 7374 H 702.233 4.13652 -2.53021 0
M  V30 7375 N 703.576 0.692616 1.41565 0
M  V30 7376 C 704.822 0.222664 2.01574 0
M  V30 7377 C 705.155 -1.1737 1.54719 0
M  V30 7378 O 704.43 -1.79161 0.757084 0
M  V30 7379 C 704.713 0.277064 3.59033 0
M  V30 7380 C 704.566 1.71016 4.16021 0
M  V30 7381 C 705.885 -0.36479 4.38586 0
M  V30 7382 H 703.004 0.0823839 0.732381 0
M  V30 7383 H 705.646 0.880778 1.68352 0
M  V30 7384 H 703.796 -0.283288 3.87466 0
M  V30 7385 H 705.468 2.32413 3.98475 0
M  V30 7386 H 703.711 2.24525 3.71175 0
M  V30 7387 H 704.382 1.69978 5.25178 0
M  V30 7388 H 706.858 0.112404 4.15948 0
M  V30 7389 H 705.734 -0.296169 5.481 0
M  V30 7390 H 705.995 -1.44506 4.17816 0
M  V30 7391 N 705.054 -1.51416 0.437162 0
M  V30 7392 C 706.282 -2.06503 -0.128045 0
M  V30 7393 C 706.697 -1.30461 -1.36475 0
M  V30 7394 O 706.054 -0.364127 -1.78831 0
M  V30 7395 C 706.105 -3.58683 -0.450437 0
M  V30 7396 O 705.826 -4.31853 0.737186 0
M  V30 7397 C 707.327 -4.30284 -1.06633 0
M  V30 7398 H 704.547 -0.670952 -0.00800269 0
M  V30 7399 H 707.091 -1.94996 0.616193 0
M  V30 7400 H 705.246 -3.70106 -1.14457 0
M  V30 7401 H 705.66 -5.22467 0.461347 0
M  V30 7402 H 707.134 -5.37848 -1.24191 0
M  V30 7403 H 707.611 -3.88564 -2.0473 0
M  V30 7404 H 708.217 -4.23304 -0.411585 0
M  V30 7405 N 706.532 -0.168513 -1.56696 0
M  V30 7406 C 707.778 0.477865 -1.9709 0
M  V30 7407 C 708.111 1.63084 -1.05438 0
M  V30 7408 O 707.386 1.94238 -0.10095 0
M  V30 7409 C 707.669 0.963521 -3.4697 0
M  V30 7410 C 707.522 -0.189443 -4.49401 0
M  V30 7411 C 708.841 1.83813 -3.99876 0
M  V30 7412 H 705.96 0.172229 -0.716593 0
M  V30 7413 H 708.602 -0.254083 -1.88293 0
M  V30 7414 H 706.752 1.58724 -3.54597 0
M  V30 7415 H 708.424 -0.826451 -4.53836 0
M  V30 7416 H 706.667 -0.845366 -4.25483 0
M  V30 7417 H 707.338 0.192446 -5.51664 0
M  V30 7418 H 709.814 1.31235 -3.94863 0
M  V30 7419 H 708.69 2.14697 -5.0517 0
M  V30 7420 H 708.951 2.78289 -3.43523 0
M  V30 7421 N 708.01 1.57248 0.105221 0
M  V30 7422 C 708.92 2.04653 1.14693 0
M  V30 7423 C 709.936 0.969488 1.44489 0
M  V30 7424 O 711.112 1.28196 1.55331 0
M  V30 7425 C 708.177 2.45297 2.45011 0
M  V30 7426 C 707.238 3.67148 2.22489 0
M  V30 7427 C 706.471 4.05844 3.46592 0
M  V30 7428 O 706.694 3.44736 4.54437 0
M  V30 7429 O 705.628 4.98862 3.36779 0
M  V30 7430 H 709.454 2.93663 0.774336 0
M  V30 7431 H 707.039 1.45998 0.31701 0
M  V30 7432 H 708.921 2.72112 3.21766 0
M  V30 7433 H 707.596 1.59429 2.81717 0
M  V30 7434 H 706.503 3.45463 1.43547 0
M  V30 7435 H 707.836 4.53764 1.9068 0
M  V30 7436 N 709.488 -0.375779 1.53054 0
M  V30 7437 C 710.435 -1.45978 1.78771 0
M  V30 7438 C 711.405 -1.53625 0.631552 0
M  V30 7439 O 712.59 -1.69674 0.872667 0
M  V30 7440 C 709.73 -2.8305 1.97425 0
M  V30 7441 C 708.843 -2.84451 3.25134 0
M  V30 7442 C 707.978 -4.13034 3.34031 0
M  V30 7443 C 707.017 -4.08536 4.55812 0
M  V30 7444 N 706.154 -5.2875 4.61918 0
M  V30 7445 H 710.994 -1.23349 2.71273 0
M  V30 7446 H 708.531 -0.598147 1.3439 0
M  V30 7447 H 710.489 -3.62666 2.06225 0
M  V30 7448 H 709.119 -3.04101 1.0827 0
M  V30 7449 H 708.171 -1.97127 3.25338 0
M  V30 7450 H 709.483 -2.76998 4.14818 0
M  V30 7451 H 708.637 -5.0106 3.42087 0
M  V30 7452 H 707.376 -4.23226 2.42345 0
M  V30 7453 H 706.381 -3.18897 4.47867 0
M  V30 7454 H 707.606 -3.99955 5.48828 0
M  V30 7455 H 705.552 -5.39547 3.73129 0
M  V30 7456 H 705.469 -5.23426 5.45492 0
M  V30 7457 H 706.737 -6.18637 4.74245 0
M  V30 7458 N 710.966 -1.44241 -0.634997 0
M  V30 7459 C 712.214 -1.46531 -1.39187 0
M  V30 7460 C 712.535 -0.0976441 -1.94755 0
M  V30 7461 O 711.805 0.869528 -1.75545 0
M  V30 7462 H 710.385 -0.539544 -0.516625 0
M  V30 7463 H 713.047 -1.79989 -0.747655 0
M  V30 7464 H 712.143 -2.18848 -2.22513 0
M  V30 7465 N 712.444 0.87505 -1.31075 0
M  V30 7466 C 713.669 1.66583 -1.23551 0
M  V30 7467 C 714.094 1.87067 0.19686 0
M  V30 7468 O 713.452 1.40877 1.1412 0
M  V30 7469 C 713.5 3.01401 -1.97965 0
M  V30 7470 O 712.604 3.90923 -1.31351 0
M  V30 7471 H 711.945 0.508645 -0.426821 0
M  V30 7472 H 714.475 1.09139 -1.7306 0
M  V30 7473 H 714.485 3.51374 -2.07366 0
M  V30 7474 H 713.16 2.85812 -3.02133 0
M  V30 7475 H 711.737 3.49369 -1.30368 0
M  V30 7476 N 713.922 1.13953 1.08869 0
M  V30 7477 C 715.152 0.926825 1.84644 0
M  V30 7478 C 715.56 -0.527941 1.81685 0
M  V30 7479 O 714.903 -1.37742 1.21543 0
M  V30 7480 C 714.965 1.34416 3.33426 0
M  V30 7481 C 714.629 2.81351 3.60126 0
M  V30 7482 C 715.626 3.79486 3.55368 0
M  V30 7483 C 713.311 3.1865 3.88288 0
M  V30 7484 C 715.305 5.1293 3.78393 0
M  V30 7485 C 712.992 4.5227 4.10968 0
M  V30 7486 C 713.99 5.4922 4.06013 0
M  V30 7487 O 713.678 6.80429 4.28102 0
M  V30 7488 H 713.41 0.33013 0.589907 0
M  V30 7489 H 715.964 1.51738 1.38436 0
M  V30 7490 H 714.194 0.696901 3.80368 0
M  V30 7491 H 715.883 1.10302 3.90626 0
M  V30 7492 H 716.649 3.52017 3.3363 0
M  V30 7493 H 712.528 2.43785 3.91267 0
M  V30 7494 H 716.072 5.88591 3.74442 0
M  V30 7495 H 711.969 4.79462 4.32188 0
M  V30 7496 H 712.737 6.86617 4.45533 0
M  V30 7497 N 715.4 -1.26948 0.933913 0
M  V30 7498 C 716.63 -1.97898 0.593279 0
M  V30 7499 C 717.038 -1.69806 -0.834412 0
M  V30 7500 O 716.381 -0.958704 -1.56699 0
M  V30 7501 C 716.443 -3.51657 0.746825 0
M  V30 7502 C 716.107 -4.03384 2.14779 0
M  V30 7503 C 717.104 -4.15682 3.12257 0
M  V30 7504 C 714.789 -4.37577 2.46641 0
M  V30 7505 C 716.783 -4.61455 4.39702 0
M  V30 7506 C 714.47 -4.8304 3.7432 0
M  V30 7507 C 715.468 -4.94939 4.70664 0
M  V30 7508 O 715.156 -5.39403 5.96071 0
M  V30 7509 H 714.888 -0.63814 0.223055 0
M  V30 7510 H 717.442 -1.62608 1.2549 0
M  V30 7511 H 715.672 -3.8669 0.0280889 0
M  V30 7512 H 717.361 -4.03821 0.410328 0
M  V30 7513 H 718.127 -3.89519 2.88964 0
M  V30 7514 H 714.006 -4.27554 1.72391 0
M  V30 7515 H 717.55 -4.70658 5.14905 0
M  V30 7516 H 713.447 -5.08646 3.97429 0
M  V30 7517 H 714.215 -5.57641 5.99148 0
M  V30 7518 N 716.879 -0.700114 -1.41195 0
M  V30 7519 C 718.29 -0.307249 -1.84154 0
M  V30 7520 C 718.641 1.15539 -1.58572 0
M  V30 7521 O 717.766 1.88744 -1.05852 0
M  V30 7522 C 718.361 -0.550872 -3.34292 0
M  V30 7523 C 716.92 -0.211877 -3.75803 0
M  V30 7524 C 716.067 -0.830915 -2.64558 0
M  V30 7525 H 719.018 -0.900431 -1.30683 0
M  V30 7526 H 719.039 0.188954 -3.80031 0
M  V30 7527 H 718.551 -1.61548 -3.5288 0
M  V30 7528 H 716.652 0.848283 -3.62815 0
M  V30 7529 H 716.765 -0.67007 -4.74391 0
M  V30 7530 H 715.129 -0.260155 -2.53368 0
M  V30 7531 H 715.912 -1.89948 -2.85963 0
M  V30 7532 N 718.357 1.51182 -0.445186 0
M  V30 7533 C 719.605 2.01753 0.11841 0
M  V30 7534 C 719.926 1.33087 1.42523 0
M  V30 7535 O 719.196 0.467891 1.9023 0
M  V30 7536 H 717.776 0.745536 0.0467492 0
M  V30 7537 H 720.438 1.85765 -0.589688 0
M  V30 7538 H 719.534 3.10762 0.288665 0
M  V30 7539 N 719.835 0.176821 1.56605 0
M  V30 7540 C 721.06 -0.47599 2.01864 0
M  V30 7541 C 721.485 -1.55645 1.05623 0
M  V30 7542 O 720.843 -1.81263 0.0366729 0
M  V30 7543 C 720.891 -1.02619 3.4569 0
M  V30 7544 O 719.995 -2.13996 3.52533 0
M  V30 7545 H 719.336 -0.113363 0.654251 0
M  V30 7546 H 721.866 0.28233 2.02643 0
M  V30 7547 H 721.876 -1.34742 3.85109 0
M  V30 7548 H 720.551 -0.235138 4.15235 0
M  V30 7549 H 719.128 -1.82876 3.24978 0
M  V30 7550 N 721.313 -1.57302 -0.09688 0
M  V30 7551 C 722.561 -1.8563 -0.799117 0
M  V30 7552 C 722.882 -0.765263 -1.79356 0
M  V30 7553 O 722.152 0.208657 -1.94786 0
M  V30 7554 H 720.732 -0.684937 -0.298111 0
M  V30 7555 H 723.394 -1.9474 -0.0789341 0
M  V30 7556 H 722.49 -2.82305 -1.3308 0
M  V30 7557 N 722.791 0.367657 -1.53252 0
M  V30 7558 C 724.04 1.10782 -1.68554 0
M  V30 7559 C 724.353 1.90523 -0.442765 0
M  V30 7560 O 725.559 2.6729 -0.47629 0
M  V30 7561 C 724.015 2.01863 -2.97959 0
M  V30 7562 C 723.623 1.27443 -4.29491 0
M  V30 7563 C 725.367 2.75883 -3.22628 0
M  V30 7564 C 723.274 2.17414 -5.49987 0
M  V30 7565 H 722.204 0.417272 -0.628013 0
M  V30 7566 H 724.855 0.368971 -1.79752 0
M  V30 7567 H 723.237 2.7947 -2.80558 0
M  V30 7568 H 724.411 0.549138 -4.57516 0
M  V30 7569 H 722.726 0.652935 -4.11249 0
M  V30 7570 H 725.323 3.43421 -4.09837 0
M  V30 7571 H 725.666 3.41138 -2.38601 0
M  V30 7572 H 726.199 2.0536 -3.40693 0
M  V30 7573 H 722.938 1.5674 -6.36485 0
M  V30 7574 H 722.458 2.87799 -5.26243 0
M  V30 7575 H 724.137 2.77019 -5.84696 0
M  V30 7576 N 724.269 1.44576 0.627338 0
M  V30 7577 C 725.232 1.51372 1.72102 0
M  V30 7578 C 726.232 0.395329 1.55865 0
M  V30 7579 O 727.422 0.658094 1.61291 0
M  V30 7580 C 724.554 1.39129 3.11217 0
M  V30 7581 H 725.747 2.48798 1.6745 0
M  V30 7582 H 723.3 1.31724 0.841336 0
M  V30 7583 H 724.035 0.428114 3.21462 0
M  V30 7584 H 723.82 2.20229 3.24409 0
M  V30 7585 H 725.31 1.46874 3.90919 0
M  V30 7586 N 725.747 -0.868086 1.31537 0
M  V30 7587 C 726.679 -1.98165 1.15166 0
M  V30 7588 C 727.692 -1.6255 0.0902335 0
M  V30 7589 O 728.881 -1.75272 0.33791 0
M  V30 7590 C 725.981 -3.30772 0.737776 0
M  V30 7591 C 725.154 -3.94716 1.88462 0
M  V30 7592 C 724.213 -5.05641 1.45648 0
M  V30 7593 O 723.239 -5.2636 2.16642 0
M  V30 7594 N 724.441 -5.79474 0.34493 0
M  V30 7595 H 727.206 -2.12754 2.11083 0
M  V30 7596 H 724.767 -1.04217 1.23897 0
M  V30 7597 H 726.759 -4.02366 0.434032 0
M  V30 7598 H 725.329 -3.1233 -0.129834 0
M  V30 7599 H 724.549 -3.16079 2.35558 0
M  V30 7600 H 725.837 -4.34175 2.65273 0
M  V30 7601 H 725.235 -5.65164 -0.246259 0
M  V30 7602 H 723.792 -6.51722 0.100728 0
M  V30 7603 N 727.225 -1.14528 -1.08264 0
M  V30 7604 C 728.472 -0.914405 -1.80679 0
M  V30 7605 C 728.8 0.558952 -1.86295 0
M  V30 7606 O 728.055 1.43017 -1.33584 0
M  V30 7607 C 728.354 -1.46226 -3.26117 0
M  V30 7608 C 728.02 -2.95451 -3.40616 0
M  V30 7609 C 726.682 -3.36191 -3.4428 0
M  V30 7610 C 729.034 -3.91399 -3.44175 0
M  V30 7611 C 726.362 -4.71539 -3.49096 0
M  V30 7612 C 728.714 -5.26606 -3.50526 0
M  V30 7613 C 727.378 -5.66856 -3.52464 0
M  V30 7614 H 726.648 -0.334604 -0.661151 0
M  V30 7615 H 729.295 -1.4292 -1.27461 0
M  V30 7616 H 727.6 -0.868442 -3.82054 0
M  V30 7617 H 729.297 -1.25955 -3.80705 0
M  V30 7618 H 725.887 -2.62955 -3.38456 0
M  V30 7619 H 730.071 -3.61004 -3.40573 0
M  V30 7620 H 725.327 -5.02082 -3.4889 0
M  V30 7621 H 729.501 -6.00758 -3.52225 0
M  V30 7622 H 727.128 -6.71718 -3.55948 0
M  V30 7623 N 728.703 1.26451 -0.940633 0
M  V30 7624 C 729.653 2.24086 -0.420669 0
M  V30 7625 C 730.637 1.53501 0.482301 0
M  V30 7626 O 731.829 1.74127 0.317636 0
M  V30 7627 C 728.958 3.41866 0.313452 0
M  V30 7628 C 728.044 4.19737 -0.606779 0
M  V30 7629 N 728.435 4.7521 -1.73232 0
M  V30 7630 C 726.733 4.44091 -0.41226 0
M  V30 7631 C 727.434 5.34052 -2.30572 0
M  V30 7632 N 726.41 5.1971 -1.59381 0
M  V30 7633 H 730.212 2.64569 -1.27986 0
M  V30 7634 H 727.726 1.4153 -0.796436 0
M  V30 7635 H 729.723 4.1093 0.702991 0
M  V30 7636 H 728.383 3.0291 1.16942 0
M  V30 7637 H 729.394 4.72769 -2.11447 0
M  V30 7638 H 726.071 4.1556 0.401984 0
M  V30 7639 H 727.461 5.87845 -3.25404 0
M  V30 7640 N 730.181 0.707592 1.40822 0
M  V30 7641 C 731.43 0.240705 2.00259 0
M  V30 7642 C 731.743 -1.17027 1.56729 0
M  V30 7643 O 732.949 -1.73526 2.08809 0
M  V30 7644 C 731.405 0.379432 3.57894 0
M  V30 7645 C 731.013 1.79654 4.104 0
M  V30 7646 C 732.757 -0.0270684 4.24491 0
M  V30 7647 C 730.664 1.88628 5.60512 0
M  V30 7648 H 729.594 0.0862369 0.749052 0
M  V30 7649 H 732.245 0.877528 1.61157 0
M  V30 7650 H 730.627 -0.325842 3.94657 0
M  V30 7651 H 731.801 2.53155 3.85032 0
M  V30 7652 H 730.116 2.15379 3.56372 0
M  V30 7653 H 732.713 0.0193743 5.34696 0
M  V30 7654 H 733.056 -1.06772 4.02375 0
M  V30 7655 H 733.589 0.628361 3.92806 0
M  V30 7656 H 730.328 2.90787 5.87472 0
M  V30 7657 H 729.848 1.19528 5.8777 0
M  V30 7658 H 731.527 1.6547 6.25483 0
M  V30 7659 N 731.66 -1.50943 0.453197 0
M  V30 7660 C 732.937 -1.94872 -0.168633 0
M  V30 7661 C 733.317 -1.39272 -1.5864 0
M  V30 7662 O 732.665 -0.586272 -2.20851 0
M  V30 7663 C 732.875 -3.48757 -0.130217 0
M  V30 7664 C 734.223 -4.23331 -0.327975 0
M  V30 7665 O 735.247 -3.55594 -0.207619 0
M  V30 7666 O 734.106 -5.43529 -0.569077 0
M  V30 7667 H 731.2 -0.818042 -0.121394 0
M  V30 7668 H 733.746 -1.61782 0.512316 0
M  V30 7669 H 732.518 -3.81725 0.860346 0
M  V30 7670 H 732.141 -3.88333 -0.853397 0
M  V30 7671 N 733.138 -0.185124 -1.56509 0
M  V30 7672 C 734.368 0.461469 -2.0138 0
M  V30 7673 C 734.776 1.56417 -1.06445 0
M  V30 7674 O 734.119 1.83603 -0.0597515 0
M  V30 7675 C 734.181 1.08731 -3.42663 0
M  V30 7676 C 733.845 0.124581 -4.5683 0
M  V30 7677 C 734.842 -0.662295 -5.15664 0
M  V30 7678 C 732.527 0.0163947 -5.02297 0
M  V30 7679 C 734.521 -1.54442 -6.18406 0
M  V30 7680 C 732.208 -0.869301 -6.04885 0
M  V30 7681 C 733.206 -1.64828 -6.62813 0
M  V30 7682 O 732.894 -2.51915 -7.63409 0
M  V30 7683 H 732.626 0.1212 -0.665046 0
M  V30 7684 H 735.18 -0.288119 -2.03369 0
M  V30 7685 H 733.41 1.8853 -3.37629 0
M  V30 7686 H 735.099 1.63753 -3.71403 0
M  V30 7687 H 735.865 -0.588963 -4.81411 0
M  V30 7688 H 731.744 0.61253 -4.56913 0
M  V30 7689 H 735.288 -2.15289 -6.63548 0
M  V30 7690 H 731.185 -0.943786 -6.38563 0
M  V30 7691 H 731.953 -2.45584 -7.80789 0
M  V30 7692 N 734.616 1.57351 0.0885366 0
M  V30 7693 C 735.564 2.03542 1.12576 0
M  V30 7694 C 736.558 0.937668 1.41082 0
M  V30 7695 O 737.764 1.12283 1.40686 0
M  V30 7696 H 734.139 0.648752 0.380296 0
M  V30 7697 H 736.11 2.89833 0.709906 0
M  V30 7698 C 734.859 2.4811 2.43591 0
M  V30 7699 H 734.182 3.32164 2.22502 0
M  V30 7700 H 735.622 2.842 3.14653 0
M  V30 7701 C 734.081 1.35708 3.08359 0
M  V30 7702 O 734.611 0.689852 3.95732 0
M  V30 7703 N 732.817 1.10641 2.68713 0
M  V30 7704 H 732.364 1.6508 1.97753 0
M  V30 7705 H 732.322 0.356355 3.12374 0
M  V30 7706 N 736.094 -0.359525 1.53444 0
M  V30 7707 C 737.042 -1.46104 1.80987 0
M  V30 7708 C 738.036 -1.55181 0.679351 0
M  V30 7709 O 739.242 -1.57995 0.862405 0
M  V30 7710 H 735.617 -0.486835 0.573145 0
M  V30 7711 H 737.588 -1.2008 2.73173 0
M  V30 7712 C 736.337 -2.82855 2.02208 0
M  V30 7713 H 735.66 -2.76631 2.88644 0
M  V30 7714 H 737.1 -3.59091 2.25455 0
M  V30 7715 C 735.559 -3.27192 0.802931 0
M  V30 7716 O 736.089 -4.017 -0.00544286 0
M  V30 7717 N 734.295 -2.83807 0.624657 0
M  V30 7718 H 733.842 -2.23339 1.28364 0
M  V30 7719 H 733.8 -3.13828 -0.189641 0
M  V30 7720 N 737.572 -1.44907 -0.619662 0
M  V30 7721 C 738.818 -1.48512 -1.38102 0
M  V30 7722 C 739.151 -0.121686 -1.93818 0
M  V30 7723 O 738.426 0.862256 -1.74343 0
M  V30 7724 C 738.709 -2.55469 -2.53787 0
M  V30 7725 C 738.562 -4.01212 -2.03345 0
M  V30 7726 C 739.881 -2.58821 -3.55949 0
M  V30 7727 H 737 -0.540712 -0.500799 0
M  V30 7728 H 739.642 -1.7665 -0.69962 0
M  V30 7729 H 737.792 -2.31606 -3.11915 0
M  V30 7730 H 739.464 -4.36245 -1.49959 0
M  V30 7731 H 737.707 -4.12443 -1.34438 0
M  V30 7732 H 738.378 -4.71717 -2.86683 0
M  V30 7733 H 740.854 -2.80172 -3.07641 0
M  V30 7734 H 739.73 -3.35542 -4.34399 0
M  V30 7735 H 739.991 -1.63451 -4.10775 0
M  V30 7736 N 739.05 0.861098 -1.31996 0
M  V30 7737 C 740.275 1.65264 -1.2531 0
M  V30 7738 C 740.7 1.87265 0.177007 0
M  V30 7739 O 740.058 1.4208 1.12619 0
M  V30 7740 C 740.106 2.99284 -2.0115 0
M  V30 7741 O 739.21 3.89508 -1.3549 0
M  V30 7742 H 738.551 0.50409 -0.432192 0
M  V30 7743 H 741.081 1.07297 -1.74208 0
M  V30 7744 H 741.091 3.49154 -2.11081 0
M  V30 7745 H 739.766 2.82591 -3.05148 0
M  V30 7746 H 738.343 3.47966 -1.34066 0
M  V30 7747 N 740.528 1.15101 1.07655 0
M  V30 7748 C 741.753 0.948177 1.84457 0
M  V30 7749 C 742.178 -0.498432 1.81376 0
M  V30 7750 O 741.536 -1.35509 1.20445 0
M  V30 7751 C 741.584 1.46318 3.29581 0
M  V30 7752 O 740.688 0.660342 4.07079 0
M  V30 7753 H 740.029 0.338428 0.571281 0
M  V30 7754 H 742.559 1.5301 1.35828 0
M  V30 7755 H 742.569 1.47468 3.80417 0
M  V30 7756 H 741.244 2.51635 3.31138 0
M  V30 7757 H 739.821 0.718216 3.65918 0
M  V30 7758 N 742.006 -1.2595 0.947325 0
M  V30 7759 C 742.969 -2.24407 0.466285 0
M  V30 7760 C 743.969 -1.55054 -0.426005 0
M  V30 7761 O 745.159 -1.7275 -0.224319 0
M  V30 7762 C 742.291 -3.39326 -0.327201 0
M  V30 7763 H 743.484 -2.68477 1.33642 0
M  V30 7764 H 741.037 -1.38211 0.729887 0
M  V30 7765 H 741.772 -3.00667 -1.21532 0
M  V30 7766 H 741.557 -3.9085 0.312839 0
M  V30 7767 H 743.047 -4.12455 -0.653477 0
M  V30 7768 N 743.484 -0.715051 -1.40445 0
M  V30 7769 C 744.394 -0.0631624 -2.34515 0
M  V30 7770 C 745.41 0.744397 -1.57273 0
M  V30 7771 O 746.586 0.677475 -1.89663 0
M  V30 7772 C 743.651 0.847915 -3.36172 0
M  V30 7773 C 742.712 0.0303655 -4.29289 0
M  V30 7774 C 741.945 0.898051 -5.2609 0
M  V30 7775 O 742.168 2.13729 -5.28844 0
M  V30 7776 O 741.102 0.337328 -6.00954 0
M  V30 7777 H 744.928 -0.839078 -2.91879 0
M  V30 7778 H 742.513 -0.475527 -1.4163 0
M  V30 7779 H 744.395 1.3698 -3.98515 0
M  V30 7780 H 743.07 1.60299 -2.81222 0
M  V30 7781 H 741.977 -0.536573 -3.70232 0
M  V30 7782 H 743.31 -0.686474 -4.87389 0
M  V30 7783 N 744.962 1.50701 -0.461195 0
M  V30 7784 C 746.21 2.01867 0.0970051 0
M  V30 7785 C 746.531 1.34591 1.41104 0
M  V30 7786 O 745.801 0.488041 1.89723 0
M  V30 7787 H 744.381 0.74599 0.0388392 0
M  V30 7788 H 747.043 1.85129 -0.609357 0
M  V30 7789 H 746.139 3.11051 0.255688 0
M  V30 7790 N 746.441 0.193421 1.56409 0
M  V30 7791 C 747.687 -0.43983 1.98588 0
M  V30 7792 C 748.042 -1.59353 1.07816 0
M  V30 7793 O 747.335 -1.9121 0.122226 0
M  V30 7794 C 747.529 -0.949718 3.44551 0
M  V30 7795 C 747.358 0.153045 4.49439 0
M  V30 7796 C 746.128 0.610119 5.01603 0
M  V30 7797 C 748.326 0.961397 5.05234 0
M  V30 7798 N 746.308 1.69088 5.90155 0
M  V30 7799 C 747.679 1.8916 5.90439 0
M  V30 7800 C 749.734 1.004 4.87672 0
M  V30 7801 C 748.437 2.86086 6.5996 0
M  V30 7802 C 750.463 1.96131 5.57931 0
M  V30 7803 C 749.825 2.87895 6.42881 0
M  V30 7804 H 745.924 -0.128415 0.771384 0
M  V30 7805 H 748.508 0.29873 1.92395 0
M  V30 7806 H 746.679 -1.65772 3.51246 0
M  V30 7807 H 748.411 -1.55344 3.73698 0
M  V30 7808 H 745.166 0.203771 4.73161 0
M  V30 7809 H 745.59 2.23241 6.39134 0
M  V30 7810 H 750.232 0.308536 4.21673 0
M  V30 7811 H 747.95 3.56609 7.25159 0
M  V30 7812 H 751.536 2.00066 5.46319 0
M  V30 7813 H 750.416 3.60763 6.9629 0
M  V30 7814 N 747.919 -1.57396 -0.0801906 0
M  V30 7815 C 748.869 -1.9955 -1.10289 0
M  V30 7816 C 749.853 -0.876234 -1.34948 0
M  V30 7817 O 751.045 -1.14012 -1.35389 0
M  V30 7818 C 748.174 -2.43596 -2.419 0
M  V30 7819 C 747.26 -3.6224 -2.20551 0
M  V30 7820 N 747.651 -4.76693 -1.69109 0
M  V30 7821 C 745.949 -3.68627 -2.51059 0
M  V30 7822 C 746.65 -5.58577 -1.62379 0
M  V30 7823 N 745.626 -5.02178 -2.0813 0
M  V30 7824 H 749.428 -2.85483 -0.698335 0
M  V30 7825 H 746.942 -1.59837 -0.287395 0
M  V30 7826 H 748.939 -2.72031 -3.15919 0
M  V30 7827 H 747.599 -1.59047 -2.8308 0
M  V30 7828 H 748.61 -4.9915 -1.38092 0
M  V30 7829 H 745.287 -2.94772 -2.95661 0
M  V30 7830 H 746.677 -6.60447 -1.2353 0
M  V30 7831 N 749.397 0.351382 -1.53633 0
M  V30 7832 C 750.643 1.09411 -1.70754 0
M  V30 7833 C 750.976 1.88544 -0.465293 0
M  V30 7834 O 750.251 1.86923 0.537608 0
M  V30 7835 C 750.534 2.04173 -2.96623 0
M  V30 7836 C 750.387 1.28556 -4.31038 0
M  V30 7837 C 751.706 3.04102 -3.18136 0
M  V30 7838 H 748.825 0.396373 -0.621335 0
M  V30 7839 H 751.467 0.373464 -1.86293 0
M  V30 7840 H 749.617 2.65625 -2.83506 0
M  V30 7841 H 751.289 0.697786 -4.55992 0
M  V30 7842 H 749.532 0.587498 -4.29803 0
M  V30 7843 H 750.203 1.97989 -5.15271 0
M  V30 7844 H 752.679 2.5276 -3.30532 0
M  V30 7845 H 751.555 3.67616 -4.07615 0
M  V30 7846 H 751.816 3.75053 -2.34068 0
M  V30 7847 N 750.875 1.45233 0.611969 0
M  V30 7848 C 751.823 1.53898 1.74408 0
M  V30 7849 C 752.817 0.409254 1.64382 0
M  V30 7850 O 754.023 0.584988 1.70229 0
M  V30 7851 H 750.398 0.483303 0.576127 0
M  V30 7852 H 752.369 2.49143 1.64227 0
M  V30 7853 C 751.118 1.51865 3.12782 0
M  V30 7854 H 750.441 2.38118 3.21154 0
M  V30 7855 H 751.881 1.61986 3.91838 0
M  V30 7856 C 750.34 0.242374 3.36027 0
M  V30 7857 O 750.87 -0.679587 3.9591 0
M  V30 7858 N 749.076 0.139448 2.90265 0
M  V30 7859 H 748.623 0.890571 2.41716 0
M  V30 7860 H 748.581 -0.713686 3.06193 0
M  V30 7861 N 752.353 -0.854086 1.3245 0
M  V30 7862 C 753.599 -1.61069 1.23225 0
M  V30 7863 C 753.932 -1.93111 -0.205349 0
M  V30 7864 O 753.207 -1.57397 -1.14265 0
M  V30 7865 C 753.49 -2.93065 2.09249 0
M  V30 7866 C 753.343 -2.67801 3.6139 0
M  V30 7867 C 754.662 -3.94341 1.95406 0
M  V30 7868 H 751.781 -0.584449 0.448986 0
M  V30 7869 H 754.423 -0.986189 1.62402 0
M  V30 7870 H 752.573 -3.46364 1.75967 0
M  V30 7871 H 754.245 -2.21052 4.04887 0
M  V30 7872 H 752.488 -2.01756 3.84027 0
M  V30 7873 H 753.159 -3.6179 4.16907 0
M  V30 7874 H 755.635 -3.50301 2.24562 0
M  V30 7875 H 754.511 -4.84555 2.57872 0
M  V30 7876 H 754.772 -4.32382 0.921865 0
M  V30 7877 N 753.831 -1.1567 -1.07043 0
M  V30 7878 C 755.059 -0.957471 -1.83412 0
M  V30 7879 C 755.474 0.494271 -1.82215 0
M  V30 7880 O 754.831 1.34288 -1.23584 0
M  V30 7881 C 754.882 -1.46784 -3.30359 0
M  V30 7882 O 754.603 -2.86271 -3.31633 0
M  V30 7883 C 756.104 -1.31054 -4.23485 0
M  V30 7884 H 753.324 -0.33986 -0.578564 0
M  V30 7885 H 755.868 -1.53518 -1.35102 0
M  V30 7886 H 754.023 -0.932586 -3.76007 0
M  V30 7887 H 754.437 -3.0948 -4.23465 0
M  V30 7888 H 755.911 -1.71605 -5.24648 0
M  V30 7889 H 756.388 -0.255107 -4.38458 0
M  V30 7890 H 756.994 -1.83503 -3.83676 0
M  V30 7891 N 755.309 1.25446 -0.953992 0
M  V30 7892 C 756.239 2.28264 -0.491717 0
M  V30 7893 C 757.22 1.63717 0.461617 0
M  V30 7894 O 758.405 1.90821 0.36071 0
M  V30 7895 C 755.535 3.46525 0.231915 0
M  V30 7896 C 754.489 4.23247 -0.636098 0
M  V30 7897 C 753.815 5.34254 0.218238 0
M  V30 7898 C 755.115 4.85971 -1.91389 0
M  V30 7899 H 756.809 2.67183 -1.35106 0
M  V30 7900 H 754.355 1.2844 -0.651095 0
M  V30 7901 H 756.308 4.17576 0.566439 0
M  V30 7902 H 755.032 3.06594 1.12551 0
M  V30 7903 H 753.691 3.53978 -0.953696 0
M  V30 7904 H 753.339 4.90564 1.11156 0
M  V30 7905 H 753.039 5.86501 -0.359232 0
M  V30 7906 H 754.563 6.08138 0.547743 0
M  V30 7907 H 755.977 5.49168 -1.64581 0
M  V30 7908 H 754.374 5.48391 -2.43696 0
M  V30 7909 H 755.444 4.08192 -2.61738 0
M  V30 7910 N 756.787 0.722489 1.40064 0
M  V30 7911 C 757.735 0.063329 2.32514 0
M  V30 7912 C 758.729 -0.73953 1.52405 0
M  V30 7913 O 759.935 -0.642122 1.68157 0
M  V30 7914 H 756.31 0.00167692 0.751998 0
M  V30 7915 H 758.281 0.859656 2.85749 0
M  V30 7916 C 757.03 -0.839219 3.3742 0
M  V30 7917 H 756.353 -0.230836 3.99133 0
M  V30 7918 H 757.793 -1.26827 4.04587 0
M  V30 7919 C 756.252 -1.96783 2.73456 0
M  V30 7920 O 756.782 -3.05933 2.60323 0
M  V30 7921 N 754.988 -1.75351 2.31734 0
M  V30 7922 H 754.535 -0.865787 2.42615 0
M  V30 7923 H 754.493 -2.51043 1.89275 0
M  V30 7924 N 758.265 -1.50454 0.469181 0
M  V30 7925 C 759.514 -2.01507 -0.0881425 0
M  V30 7926 C 759.827 -1.35613 -1.40956 0
M  V30 7927 O 761.033 -1.77812 -2.05171 0
M  V30 7928 C 759.489 -3.59301 -0.207596 0
M  V30 7929 C 759.097 -4.34152 1.10527 0
M  V30 7930 C 760.841 -4.18401 -0.716981 0
M  V30 7931 C 758.748 -5.83725 0.949717 0
M  V30 7932 H 757.678 -0.753106 -0.0367156 0
M  V30 7933 H 760.329 -1.73282 0.603788 0
M  V30 7934 H 758.711 -3.84106 -0.963265 0
M  V30 7935 H 759.885 -4.21073 1.87175 0
M  V30 7936 H 758.2 -3.86652 1.54562 0
M  V30 7937 H 760.797 -5.27895 -0.850363 0
M  V30 7938 H 761.14 -3.79657 -1.70782 0
M  V30 7939 H 761.673 -3.97796 -0.0187511 0
M  V30 7940 H 758.412 -6.26938 1.91387 0
M  V30 7941 H 757.932 -5.99383 0.223591 0
M  V30 7942 H 759.611 -6.44065 0.61557 0
M  V30 7943 N 759.743 -0.201713 -1.56304 0
M  V30 7944 C 761.159 0.154025 -1.58855 0
M  V30 7945 C 761.359 1.60516 -1.21807 0
M  V30 7946 O 760.415 2.34193 -0.94393 0
M  V30 7947 C 761.728 -0.154319 -3.00304 0
M  V30 7948 C 763.276 -0.0949578 -3.12856 0
M  V30 7949 C 763.751 -0.376703 -4.56448 0
M  V30 7950 N 765.242 -0.325558 -4.62054 0
M  V30 7951 C 765.977 -0.51732 -5.71062 0
M  V30 7952 N 765.473 -0.769789 -6.8851 0
M  V30 7953 N 767.266 -0.45112 -5.60287 0
M  V30 7954 H 759.417 -1.14858 -1.78666 0
M  V30 7955 H 761.68 -0.458934 -0.829508 0
M  V30 7956 H 761.386 -1.16074 -3.31994 0
M  V30 7957 H 761.26 0.540014 -3.73314 0
M  V30 7958 H 763.647 0.902075 -2.80974 0
M  V30 7959 H 763.728 -0.822468 -2.42217 0
M  V30 7960 H 763.372 -1.37108 -4.89044 0
M  V30 7961 H 763.302 0.371772 -5.25286 0
M  V30 7962 H 765.793 -0.137308 -3.7765 0
M  V30 7963 H 766.106 -0.904744 -7.67486 0
M  V30 7964 H 764.451 -0.806758 -6.90302 0
M  V30 7965 H 767.642 -0.254253 -4.67409 0
M  V30 7966 H 767.815 -0.603982 -6.45179 0
M  V30 7967 N 761.222 1.57436 0.0718424 0
M  V30 7968 C 762.633 1.75975 0.623678 0
M  V30 7969 C 762.984 0.827155 1.77912 0
M  V30 7970 O 762.109 0.0112425 2.16397 0
M  V30 7971 C 762.704 3.1911 1.13816 0
M  V30 7972 C 761.263 3.38994 1.63586 0
M  V30 7973 C 760.41 2.71684 0.555261 0
M  V30 7974 H 763.361 1.57948 -0.154328 0
M  V30 7975 H 763.382 3.23267 2.00696 0
M  V30 7976 H 762.894 3.86962 0.296998 0
M  V30 7977 H 760.995 2.76256 2.50027 0
M  V30 7978 H 761.108 4.47436 1.71283 0
M  V30 7979 H 759.472 2.34236 1.00029 0
M  V30 7980 H 760.255 3.42191 -0.275712 0
M  V30 7981 N 762.7 -0.34323 1.53817 0
M  V30 7982 C 763.925 -1.1079 1.75329 0
M  V30 7983 C 764.35 -1.81571 0.491293 0
M  V30 7984 O 763.708 -1.72561 -0.556089 0
M  V30 7985 C 763.756 -2.09681 2.9337 0
M  V30 7986 O 762.86 -3.17207 2.63541 0
M  V30 7987 H 762.201 -0.320402 0.581583 0
M  V30 7988 H 764.731 -0.393525 2.0078 0
M  V30 7989 H 764.741 -2.52897 3.20168 0
M  V30 7990 H 763.416 -1.5756 3.84899 0
M  V30 7991 H 761.993 -2.78806 2.47632 0
M  V30 7992 N 764.178 -1.45556 -0.604258 0
M  V30 7993 C 765.406 -1.53278 -1.38973 0
M  V30 7994 C 765.821 -0.166509 -1.88064 0
M  V30 7995 O 765.178 0.832519 -1.62405 0
M  V30 7996 C 765.229 -2.51992 -2.59195 0
M  V30 7997 O 764.95 -3.8331 -2.12143 0
M  V30 7998 C 766.451 -2.69445 -3.52015 0
M  V30 7999 H 763.671 -0.519003 -0.425297 0
M  V30 8000 H 766.215 -1.90773 -0.736621 0
M  V30 8001 H 764.37 -2.17561 -3.2054 0
M  V30 8002 H 764.784 -4.3685 -2.90279 0
M  V30 8003 H 766.258 -3.42485 -4.32907 0
M  V30 8004 H 766.735 -1.75596 -4.0257 0
M  V30 8005 H 767.341 -3.04886 -2.9652 0
M  V30 8006 N 765.656 0.84705 -1.32902 0
M  V30 8007 C 766.904 1.5986 -1.2365 0
M  V30 8008 C 767.225 1.93974 0.199789 0
M  V30 8009 O 766.495 1.60273 1.12648 0
M  V30 8010 H 765.075 0.592696 -0.454665 0
M  V30 8011 H 767.737 1.01278 -1.66519 0
M  V30 8012 H 766.833 2.53218 -1.82448 0
M  V30 8013 N 767.134 1.16236 1.06428 0
M  V30 8014 C 768.362 0.967184 1.82902 0
M  V30 8015 C 768.777 -0.484601 1.82475 0
M  V30 8016 O 768.134 -1.33631 1.24294 0
M  V30 8017 C 768.185 1.48534 3.29576 0
M  V30 8018 O 767.906 2.88026 3.3011 0
M  V30 8019 C 769.407 1.33298 4.22784 0
M  V30 8020 H 766.627 0.342923 0.576754 0
M  V30 8021 H 769.171 1.54232 1.34286 0
M  V30 8022 H 767.326 0.952513 3.75508 0
M  V30 8023 H 767.74 3.11721 4.21818 0
M  V30 8024 H 769.214 1.74385 5.23731 0
M  V30 8025 H 769.691 0.278356 4.38317 0
M  V30 8026 H 770.297 1.85535 3.82697 0
M  V30 8027 N 768.612 -1.24939 0.960631 0
M  V30 8028 C 769.86 -1.92437 0.617441 0
M  V30 8029 C 770.181 -1.75543 -0.849101 0
M  V30 8030 O 769.451 -1.12269 -1.60538 0
M  V30 8031 H 768.031 -0.712192 0.225371 0
M  V30 8032 H 770.693 -1.5198 1.22017 0
M  V30 8033 H 769.789 -3.00247 0.851933 0
M  V30 8034 N 770.09 -0.729906 -1.39679 0
M  V30 8035 C 771.336 -0.27603 -2.00913 0
M  V30 8036 C 771.669 1.13227 -1.57776 0
M  V30 8037 O 770.944 1.7709 -0.804319 0
M  V30 8038 C 771.227 -0.372157 -3.58172 0
M  V30 8039 C 771.08 -1.81986 -4.11341 0
M  V30 8040 C 772.399 0.248378 -4.39399 0
M  V30 8041 H 769.518 -0.101773 -0.729939 0
M  V30 8042 H 772.16 -0.925104 -1.65957 0
M  V30 8043 H 770.31 0.180459 -3.88081 0
M  V30 8044 H 771.982 -2.42896 -3.92172 0
M  V30 8045 H 770.225 -2.34287 -3.65092 0
M  V30 8046 H 770.896 -1.83842 -5.20486 0
M  V30 8047 H 773.372 -0.222645 -4.15504 0
M  V30 8048 H 772.248 0.150746 -5.48693 0
M  V30 8049 H 772.509 1.33378 -4.21501 0
M  V30 8050 N 771.568 1.50203 -0.477153 0
M  V30 8051 C 772.501 2.25343 0.359983 0
M  V30 8052 C 773.479 1.28909 0.991022 0
M  V30 8053 O 774.663 1.58146 1.02578 0
M  V30 8054 C 771.79 3.03431 1.5049 0
M  V30 8055 C 770.836 4.14836 0.99063 0
M  V30 8056 S 771.669 5.35407 -0.0995413 0
M  V30 8057 C 772.825 6.17045 1.04911 0
M  V30 8058 H 773.058 2.95999 -0.277836 0
M  V30 8059 H 770.591 1.52159 -0.262115 0
M  V30 8060 H 772.549 3.49012 2.16105 0
M  V30 8061 H 771.21 2.32289 2.11425 0
M  V30 8062 H 770.403 4.689 1.84794 0
M  V30 8063 H 770.005 3.71723 0.412097 0
M  V30 8064 H 772.297 6.48546 1.95946 0
M  V30 8065 H 773.24 7.05979 0.547596 0
M  V30 8066 H 773.648 5.49193 1.30567 0
M  V30 8067 N 773.046 0.209999 1.56195 0
M  V30 8068 C 773.976 -0.699746 2.22769 0
M  V30 8069 C 774.957 -1.20993 1.1956 0
M  V30 8070 O 776.142 -1.25605 1.48112 0
M  V30 8071 C 773.272 -1.91302 2.89863 0
M  V30 8072 C 772.226 -1.53715 3.99444 0
M  V30 8073 C 771.552 -2.82826 4.53777 0
M  V30 8074 C 772.852 -0.735836 5.17091 0
M  V30 8075 H 774.546 -0.144716 2.9905 0
M  V30 8076 H 772.092 -0.0681645 1.43839 0
M  V30 8077 H 774.045 -2.5548 3.35124 0
M  V30 8078 H 772.769 -2.49283 2.11011 0
M  V30 8079 H 771.428 -0.918892 3.54897 0
M  V30 8080 H 771.076 -3.38927 3.71669 0
M  V30 8081 H 770.776 -2.58415 5.27727 0
M  V30 8082 H 772.3 -3.47966 5.01749 0
M  V30 8083 H 773.714 -1.28105 5.58804 0
M  V30 8084 H 772.111 -0.589272 5.972 0
M  V30 8085 H 773.181 0.260004 4.84202 0
M  V30 8086 N 774.524 -1.57472 -0.0634922 0
M  V30 8087 C 775.487 -2.03268 -1.059 0
M  V30 8088 C 776.487 -0.931028 -1.31105 0
M  V30 8089 O 777.677 -1.19567 -1.26686 0
M  V30 8090 C 774.809 -2.42039 -2.40062 0
M  V30 8091 H 776.002 -2.92454 -0.664119 0
M  V30 8092 H 773.555 -1.53206 -0.309444 0
M  V30 8093 H 774.29 -1.55904 -2.84367 0
M  V30 8094 H 774.075 -3.22437 -2.23108 0
M  V30 8095 H 775.565 -2.78017 -3.11603 0
M  V30 8096 N 776.003 0.335068 -1.53997 0
M  V30 8097 C 776.933 1.41727 -1.85568 0
M  V30 8098 C 777.914 1.54505 -0.7115 0
M  V30 8099 O 779.099 1.68573 -0.964191 0
M  V30 8100 C 776.229 2.7866 -2.07282 0
M  V30 8101 C 775.183 2.80682 -3.23112 0
M  V30 8102 C 774.509 4.20581 -3.30175 0
M  V30 8103 C 775.809 2.45458 -4.61029 0
M  V30 8104 H 777.503 1.15555 -2.76202 0
M  V30 8105 H 775.049 0.554445 -1.32898 0
M  V30 8106 H 777.002 3.54423 -2.27952 0
M  V30 8107 H 775.726 3.06286 -1.13387 0
M  V30 8108 H 774.385 2.07373 -3.02311 0
M  V30 8109 H 774.033 4.4533 -2.33859 0
M  V30 8110 H 773.733 4.22843 -4.08016 0
M  V30 8111 H 775.257 4.98174 -3.53066 0
M  V30 8112 H 776.671 3.10934 -4.81656 0
M  V30 8113 H 775.068 2.5899 -5.41336 0
M  V30 8114 H 776.138 1.40628 -4.6406 0
M  V30 8115 N 777.481 1.45874 0.596531 0
M  V30 8116 C 778.727 1.5069 1.35722 0
M  V30 8117 C 779.06 0.152506 1.936 0
M  V30 8118 O 778.335 -0.834411 1.75692 0
M  V30 8119 C 778.618 2.59474 2.4969 0
M  V30 8120 C 778.471 4.04396 1.96937 0
M  V30 8121 C 779.79 2.64451 3.51787 0
M  V30 8122 H 776.909 0.548611 0.492133 0
M  V30 8123 H 779.551 1.77741 0.671428 0
M  V30 8124 H 777.701 2.36539 3.08191 0
M  V30 8125 H 779.373 4.38576 1.43 0
M  V30 8126 H 777.616 4.14529 1.27859 0
M  V30 8127 H 778.287 4.76218 2.79143 0
M  V30 8128 H 780.763 2.85031 3.03145 0
M  V30 8129 H 779.639 3.42411 4.29006 0
M  V30 8130 H 779.9 1.69965 4.08123 0
M  V30 8131 N 778.959 -0.83999 1.33349 0
M  V30 8132 C 780.184 -1.63249 1.27924 0
M  V30 8133 C 780.609 -1.87523 -0.147193 0
M  V30 8134 O 779.967 -1.43853 -1.10345 0
M  V30 8135 C 780.015 -2.96046 2.05886 0
M  V30 8136 O 779.119 -3.87303 1.4167 0
M  V30 8137 H 778.46 -0.49715 0.440157 0
M  V30 8138 H 780.99 -1.04512 1.75893 0
M  V30 8139 H 781 -3.45752 2.16609 0
M  V30 8140 H 779.675 -2.77701 3.09605 0
M  V30 8141 H 778.252 -3.45789 1.39585 0
M  V30 8142 N 780.437 -1.16799 -1.0581 0
M  V30 8143 C 781.685 -0.950642 -1.78346 0
M  V30 8144 C 782.006 0.522524 -1.87869 0
M  V30 8145 O 781.276 1.3795 -1.39092 0
M  V30 8146 H 779.856 -0.348736 -0.6606 0
M  V30 8147 H 782.518 -1.47158 -1.27791 0
M  V30 8148 H 781.614 -1.37359 -2.80248 0
M  V30 8149 N 781.915 1.24427 -0.967243 0
M  V30 8150 C 782.863 2.27403 -0.488927 0
M  V30 8151 C 783.857 1.63388 0.447302 0
M  V30 8152 O 785.063 1.77085 0.322643 0
M  V30 8153 H 781.438 0.738921 -0.139643 0
M  V30 8154 H 783.409 2.65122 -1.36942 0
M  V30 8155 C 782.158 3.4709 0.205787 0
M  V30 8156 H 781.481 3.96591 -0.50551 0
M  V30 8157 H 782.921 4.2099 0.504296 0
M  V30 8158 C 781.38 3.04923 1.43261 0
M  V30 8159 O 781.91 3.12043 2.52967 0
M  V30 8160 N 780.116 2.59976 1.29849 0
M  V30 8161 H 779.663 2.54382 0.405876 0
M  V30 8162 H 779.621 2.32128 2.12047 0
M  V30 8163 N 783.393 0.737304 1.3929 0
M  V30 8164 C 784.341 0.0879867 2.32434 0
M  V30 8165 C 785.335 -0.723324 1.53181 0
M  V30 8166 O 786.541 -0.624251 1.68829 0
M  V30 8167 H 782.916 0.00965277 0.751938 0
M  V30 8168 H 784.887 0.889915 2.84821 0
M  V30 8169 C 783.636 -0.803384 3.38291 0
M  V30 8170 H 782.959 -0.18849 3.99355 0
M  V30 8171 H 784.399 -1.22528 4.0591 0
M  V30 8172 C 782.858 -1.93872 2.75527 0
M  V30 8173 O 783.388 -3.03154 2.63553 0
M  V30 8174 N 781.594 -1.72883 2.3358 0
M  V30 8175 H 781.141 -0.840005 2.43519 0
M  V30 8176 H 781.099 -2.49021 1.91927 0
M  V30 8177 N 784.871 -1.49948 0.485112 0
M  V30 8178 C 786.099 -2.06806 -0.0622824 0
M  V30 8179 C 786.514 -1.34736 -1.32256 0
M  V30 8180 O 785.871 -0.420836 -1.77582 0
M  V30 8181 C 785.922 -3.59934 -0.336096 0
M  V30 8182 O 785.643 -4.29289 0.874203 0
M  V30 8183 C 787.144 -4.33459 -0.928903 0
M  V30 8184 H 784.364 -0.670867 0.0133472 0
M  V30 8185 H 786.908 -1.92937 0.677917 0
M  V30 8186 H 785.063 -3.7356 -1.02625 0
M  V30 8187 H 785.477 -5.20735 0.627332 0
M  V30 8188 H 786.951 -5.41527 -1.07017 0
M  V30 8189 H 787.428 -3.94881 -1.92265 0
M  V30 8190 H 788.034 -4.24399 -0.276705 0
M  V30 8191 N 786.349 -0.21828 -1.56081 0
M  V30 8192 C 787.595 0.414921 -1.9851 0
M  V30 8193 C 787.928 1.59648 -1.10573 0
M  V30 8194 O 787.203 1.93818 -0.162695 0
M  V30 8195 C 787.486 0.852647 -3.4986 0
M  V30 8196 C 787.339 -0.33232 -4.48571 0
M  V30 8197 C 788.658 1.70998 -4.05521 0
M  V30 8198 H 785.777 0.149344 -0.72171 0
M  V30 8199 H 788.419 -0.313858 -1.8739 0
M  V30 8200 H 786.569 1.47362 -3.59467 0
M  V30 8201 H 788.241 -0.970418 -4.50977 0
M  V30 8202 H 786.484 -0.980302 -4.22578 0
M  V30 8203 H 787.155 0.0168407 -5.51997 0
M  V30 8204 H 789.631 1.18606 -3.98838 0
M  V30 8205 H 788.507 1.98517 -5.11744 0
M  V30 8206 H 788.768 2.67219 -3.52202 0
M  V30 8207 N 787.827 1.57504 0.0551401 0
M  V30 8208 C 789.238 1.76626 0.604979 0
M  V30 8209 C 789.589 0.845978 1.77024 0
M  V30 8210 O 788.714 0.0341936 2.16373 0
M  V30 8211 C 789.309 3.203 1.10425 0
M  V30 8212 C 787.868 3.4071 1.59981 0
M  V30 8213 C 787.015 2.72258 0.526414 0
M  V30 8214 H 789.966 1.57775 -0.171072 0
M  V30 8215 H 789.987 3.25377 1.97256 0
M  V30 8216 H 789.499 3.87255 0.255939 0
M  V30 8217 H 787.6 2.78892 2.47083 0
M  V30 8218 H 787.713 4.49227 1.66528 0
M  V30 8219 H 786.077 2.35283 0.97539 0
M  V30 8220 H 786.86 3.41879 -0.311991 0
M  V30 8221 N 789.305 -0.326896 1.54172 0
M  V30 8222 C 790.552 -1.06523 1.72218 0
M  V30 8223 C 790.88 -1.88119 0.494114 0
M  V30 8224 O 790.135 -1.8855 -0.524147 0
M  V30 8225 C 790.434 -2.0208 2.94785 0
M  V30 8226 C 790.1 -1.36665 4.2969 0
M  V30 8227 C 788.762 -1.18556 4.66367 0
M  V30 8228 C 791.114 -0.896868 5.13425 0
M  V30 8229 C 788.442 -0.521113 5.84381 0
M  V30 8230 C 790.794 -0.246261 6.3212 0
M  V30 8231 C 789.458 -0.052987 6.67479 0
M  V30 8232 H 788.728 -0.389796 0.63019 0
M  V30 8233 H 791.375 -0.342725 1.88408 0
M  V30 8234 H 789.68 -2.8077 2.73268 0
M  V30 8235 H 791.377 -2.59231 3.05941 0
M  V30 8236 H 787.967 -1.51762 4.00832 0
M  V30 8237 H 792.151 -1.02458 4.85609 0
M  V30 8238 H 787.407 -0.36014 6.10338 0
M  V30 8239 H 791.581 0.125775 6.96286 0
M  V30 8240 H 789.208 0.463903 7.58783 0
M  V30 8241 N 790.784 -1.46188 -0.588786 0
M  V30 8242 C 791.747 -1.55882 -1.68029 0
M  V30 8243 C 792.747 -0.436515 -1.54762 0
M  V30 8244 O 793.937 -0.700626 -1.59489 0
M  V30 8245 C 791.069 -1.47332 -3.07418 0
M  V30 8246 H 792.262 -2.5315 -1.60795 0
M  V30 8247 H 789.815 -1.33908 -0.806116 0
M  V30 8248 H 790.55 -0.513193 -3.20214 0
M  V30 8249 H 790.335 -2.28753 -3.18456 0
M  V30 8250 H 791.825 -1.57187 -3.86887 0
M  V30 8251 N 792.262 0.832906 -1.33792 0
M  V30 8252 C 793.508 1.59089 -1.25772 0
M  V30 8253 C 793.841 1.93414 0.174601 0
M  V30 8254 O 793.116 1.59195 1.11746 0
M  V30 8255 C 793.399 2.89699 -2.13885 0
M  V30 8256 C 793.252 2.62017 -3.65605 0
M  V30 8257 C 794.571 3.91182 -2.01654 0
M  V30 8258 H 791.69 0.577232 -0.458227 0
M  V30 8259 H 794.332 0.960227 -1.6395 0
M  V30 8260 H 792.482 3.4352 -1.81456 0
M  V30 8261 H 794.154 2.14582 -4.08353 0
M  V30 8262 H 792.397 1.95621 -3.87189 0
M  V30 8263 H 793.068 3.55112 -4.2261 0
M  V30 8264 H 795.544 3.46684 -2.30107 0
M  V30 8265 H 794.42 4.80391 -2.65548 0
M  V30 8266 H 794.681 4.30861 -0.990536 0
M  V30 8267 N 793.74 1.17359 1.05189 0
M  V30 8268 C 794.965 0.98709 1.82404 0
M  V30 8269 C 795.39 -0.459848 1.82392 0
M  V30 8270 O 794.748 -1.32924 1.23292 0
M  V30 8271 C 794.796 1.53276 3.26403 0
M  V30 8272 O 793.9 0.746541 4.05587 0
M  V30 8273 H 793.241 0.35047 0.563974 0
M  V30 8274 H 795.771 1.55856 1.32552 0
M  V30 8275 H 795.781 1.55504 3.77203 0
M  V30 8276 H 794.456 2.58603 3.25726 0
M  V30 8277 H 793.033 0.795671 3.64312 0
M  V30 8278 N 795.218 -1.23913 0.973828 0
M  V30 8279 C 796.148 -2.27453 0.527969 0
M  V30 8280 C 797.129 -1.6443 -0.435513 0
M  V30 8281 O 798.314 -1.9137 -0.330306 0
M  V30 8282 C 795.444 -3.4685 -0.176757 0
M  V30 8283 C 794.398 -4.22181 0.703352 0
M  V30 8284 C 793.724 -5.34534 -0.133215 0
M  V30 8285 C 795.024 -4.82865 1.99096 0
M  V30 8286 H 796.718 -2.65 1.3934 0
M  V30 8287 H 794.264 -1.27388 0.671446 0
M  V30 8288 H 796.217 -4.18424 -0.499934 0
M  V30 8289 H 794.941 -3.08346 -1.07659 0
M  V30 8290 H 793.6 -3.52416 1.00989 0
M  V30 8291 H 793.248 -4.92271 -1.03338 0
M  V30 8292 H 792.948 -5.85855 0.452494 0
M  V30 8293 H 794.472 -6.08933 -0.450924 0
M  V30 8294 H 795.886 -5.46481 1.73297 0
M  V30 8295 H 794.283 -5.44444 2.52389 0
M  V30 8296 H 795.353 -4.03977 2.68199 0
M  V30 8297 N 796.696 -0.74468 -1.38897 0
M  V30 8298 C 797.942 -0.297324 -2.00609 0
M  V30 8299 C 798.275 1.11547 -1.58968 0
M  V30 8300 O 797.55 1.76227 -0.823057 0
M  V30 8301 C 797.833 -0.410125 -3.57757 0
M  V30 8302 C 797.686 -1.86338 -4.09387 0
M  V30 8303 C 799.005 0.20176 -4.39637 0
M  V30 8304 H 796.124 -0.109509 -0.728819 0
M  V30 8305 H 798.766 -0.942653 -1.64967 0
M  V30 8306 H 796.916 0.139287 -3.8825 0
M  V30 8307 H 798.588 -2.47042 -3.89574 0
M  V30 8308 H 796.831 -2.38146 -3.62586 0
M  V30 8309 H 797.502 -1.89352 -5.18507 0
M  V30 8310 H 799.978 -0.266703 -4.15244 0
M  V30 8311 H 798.854 0.0925415 -5.48822 0
M  V30 8312 H 799.115 1.289 -4.22891 0
M  V30 8313 N 798.174 1.49689 -0.493057 0
M  V30 8314 C 799.451 1.9525 0.116907 0
M  V30 8315 C 799.831 1.43429 1.54892 0
M  V30 8316 O 799.179 0.644621 2.19219 0
M  V30 8317 C 799.389 3.4898 0.037705 0
M  V30 8318 C 800.737 4.24052 0.215621 0
M  V30 8319 O 801.761 3.5602 0.113266 0
M  V30 8320 O 800.62 5.44847 0.42477 0
M  V30 8321 H 797.714 0.820973 0.099662 0
M  V30 8322 H 800.26 1.60367 -0.555029 0
M  V30 8323 H 799.032 3.79309 -0.961251 0
M  V30 8324 H 798.655 3.9046 0.750137 0
M  V30 8325 N 799.652 0.226554 1.55963 0
M  V30 8326 C 800.877 -0.411527 2.03276 0
M  V30 8327 C 801.302 -1.52206 1.10521 0
M  V30 8328 O 800.66 -1.81054 0.0943217 0
M  V30 8329 C 800.708 -0.915694 3.4878 0
M  V30 8330 O 799.812 -2.02672 3.59163 0
M  V30 8331 H 799.153 -0.0924907 0.657527 0
M  V30 8332 H 801.683 0.346656 2.01642 0
M  V30 8333 H 801.693 -1.22421 3.892 0
M  V30 8334 H 800.368 -0.102915 4.15773 0
M  V30 8335 H 798.945 -1.72445 3.30632 0
M  V30 8336 N 801.13 -1.57531 -0.0467866 0
M  V30 8337 C 802.358 -1.92696 -0.753371 0
M  V30 8338 C 802.773 -0.824792 -1.69831 0
M  V30 8339 O 802.13 0.200155 -1.81399 0
M  V30 8340 C 802.181 -3.27728 -1.52566 0
M  V30 8341 O 801.902 -4.3371 -0.618674 0
M  V30 8342 C 803.403 -3.77066 -2.33101 0
M  V30 8343 H 800.623 -0.636367 -0.212788 0
M  V30 8344 H 803.167 -2.04498 -0.00959361 0
M  V30 8345 H 801.322 -3.17378 -2.22148 0
M  V30 8346 H 801.736 -5.11548 -1.15839 0
M  V30 8347 H 803.21 -4.74109 -2.82709 0
M  V30 8348 H 803.687 -3.07348 -3.13741 0
M  V30 8349 H 804.293 -3.90442 -1.68628 0
M  V30 8350 N 802.608 0.318715 -1.54344 0
M  V30 8351 C 803.833 1.07987 -1.77069 0
M  V30 8352 C 804.258 1.80766 -0.520117 0
M  V30 8353 O 803.616 1.73424 0.528566 0
M  V30 8354 C 803.664 2.04987 -2.96669 0
M  V30 8355 O 802.768 3.12974 -2.68554 0
M  V30 8356 H 802.109 0.311109 -0.586606 0
M  V30 8357 H 804.639 0.361533 -2.0138 0
M  V30 8358 H 804.649 2.47771 -3.2415 0
M  V30 8359 H 803.324 1.51417 -3.87357 0
M  V30 8360 H 801.901 2.74831 -2.52037 0
M  V30 8361 N 804.086 1.46499 0.581025 0
M  V30 8362 C 804.996 1.59778 1.71779 0
M  V30 8363 C 806.012 0.481223 1.67213 0
M  V30 8364 O 807.188 0.74557 1.87091 0
M  V30 8365 C 804.253 1.58626 3.08283 0
M  V30 8366 C 803.314 2.81527 3.241 0
M  V30 8367 C 802.547 2.80421 4.54092 0
M  V30 8368 O 802.77 1.89262 5.38085 0
M  V30 8369 O 801.704 3.71984 4.73193 0
M  V30 8370 H 805.53 2.55918 1.63523 0
M  V30 8371 H 803.115 1.29311 0.748267 0
M  V30 8372 H 804.997 1.60686 3.89561 0
M  V30 8373 H 803.672 0.656467 3.16973 0
M  V30 8374 H 802.579 2.85021 2.42309 0
M  V30 8375 H 803.912 3.73721 3.20302 0
M  V30 8376 N 805.565 -0.825799 1.34232 0
M  V30 8377 C 806.512 -1.93651 1.2557 0
M  V30 8378 C 807.482 -1.65578 0.131536 0
M  V30 8379 O 808.667 -1.88231 0.312027 0
M  V30 8380 C 805.807 -3.29862 1.01415 0
M  V30 8381 C 804.92 -3.70247 2.22579 0
M  V30 8382 C 804.055 -4.95392 1.91731 0
M  V30 8383 C 803.094 -5.28349 3.09053 0
M  V30 8384 N 802.231 -6.44671 2.78107 0
M  V30 8385 H 807.071 -2.00392 2.20561 0
M  V30 8386 H 804.608 -0.980441 1.09662 0
M  V30 8387 H 806.566 -4.08356 0.854485 0
M  V30 8388 H 805.196 -3.22642 0.100936 0
M  V30 8389 H 804.248 -2.87169 2.49476 0
M  V30 8390 H 805.56 -3.90575 3.10246 0
M  V30 8391 H 804.714 -5.81665 1.72484 0
M  V30 8392 H 803.453 -4.77059 1.0132 0
M  V30 8393 H 802.458 -4.40574 3.289 0
M  V30 8394 H 803.683 -5.48622 4.00239 0
M  V30 8395 H 801.629 -6.278 1.9027 0
M  V30 8396 H 801.546 -6.65158 3.59306 0
M  V30 8397 H 802.814 -7.34022 2.62358 0
M  V30 8398 N 807.043 -1.17915 -1.04565 0
M  V30 8399 C 808.268 -0.996749 -1.81878 0
M  V30 8400 C 808.693 0.450169 -1.82634 0
M  V30 8401 O 808.051 1.32268 -1.23995 0
M  V30 8402 C 808.099 -1.55005 -3.25585 0
M  V30 8403 O 807.203 -0.76804 -4.05185 0
M  V30 8404 H 806.544 -0.353456 -0.562108 0
M  V30 8405 H 809.074 -1.56557 -1.31723 0
M  V30 8406 H 809.084 -1.57503 -3.76373 0
M  V30 8407 H 807.759 -2.60327 -3.2435 0
M  V30 8408 H 806.336 -0.81498 -3.63885 0
M  V30 8409 N 808.521 1.23394 -0.980386 0
M  V30 8410 C 809.453 2.24146 -0.478657 0
M  V30 8411 C 810.466 1.57303 0.419492 0
M  V30 8412 O 811.655 1.77094 0.223631 0
M  V30 8413 C 808.755 3.3732 0.326913 0
M  V30 8414 C 807.928 4.33744 -0.56436 0
M  V30 8415 C 806.987 5.25866 0.187358 0
M  V30 8416 O 806.013 5.67626 -0.423019 0
M  V30 8417 N 807.215 5.61492 1.47335 0
M  V30 8418 H 809.98 2.67826 -1.34496 0
M  V30 8419 H 807.541 1.37566 -0.853653 0
M  V30 8420 H 809.533 3.95926 0.838148 0
M  V30 8421 H 808.103 2.92823 1.09422 0
M  V30 8422 H 807.323 3.73641 -1.25642 0
M  V30 8423 H 808.611 4.95123 -1.17177 0
M  V30 8424 H 808.009 5.29514 1.99077 0
M  V30 8425 H 806.566 6.2257 1.93002 0
M  V30 8426 N 809.999 0.752036 1.385 0
M  V30 8427 C 811.276 0.233075 1.94206 0
M  V30 8428 C 811.656 -1.26838 1.68746 0
M  V30 8429 O 811.004 -2.04214 1.02513 0
M  V30 8430 C 811.214 0.58509 3.44061 0
M  V30 8431 C 812.562 0.543871 4.21102 0
M  V30 8432 O 813.586 0.523291 3.52335 0
M  V30 8433 O 812.445 0.553436 5.4369 0
M  V30 8434 H 809.539 0.0483049 0.825588 0
M  V30 8435 H 812.085 0.832053 1.47902 0
M  V30 8436 H 810.857 1.62212 3.56094 0
M  V30 8437 H 810.48 -0.0419738 3.97578 0
M  V30 8438 N 811.477 -1.49425 0.500989 0
M  V30 8439 C 812.726 -2.01649 -0.04538 0
M  V30 8440 C 813.039 -1.38572 -1.38047 0
M  V30 8441 O 814.245 -1.82124 -2.01353 0
M  V30 8442 C 812.701 -3.5966 -0.131337 0
M  V30 8443 C 812.309 -4.3171 1.19711 0
M  V30 8444 C 814.053 -4.19828 -0.628071 0
M  V30 8445 C 811.96 -5.81579 1.07332 0
M  V30 8446 H 810.89 -0.753715 -0.0207329 0
M  V30 8447 H 813.541 -1.71962 0.640407 0
M  V30 8448 H 811.923 -3.86063 -0.881574 0
M  V30 8449 H 813.097 -4.17008 1.96064 0
M  V30 8450 H 811.412 -3.83286 1.62729 0
M  V30 8451 H 814.009 -5.2958 -0.738198 0
M  V30 8452 H 814.352 -3.83194 -1.6269 0
M  V30 8453 H 814.885 -3.97746 0.0656314 0
M  V30 8454 H 811.624 -6.22738 2.04642 0
M  V30 8455 H 811.144 -5.98774 0.350679 0
M  V30 8456 H 812.823 -6.42614 0.752047 0
M  V30 8457 N 812.955 -0.234822 -1.55841 0
M  V30 8458 C 813.885 0.664217 -2.23854 0
M  V30 8459 C 814.866 1.19076 -1.2147 0
M  V30 8460 O 816.051 1.23232 -1.50091 0
M  V30 8461 C 813.181 1.86666 -2.9287 0
M  V30 8462 C 812.135 1.47341 -4.01839 0
M  V30 8463 C 811.461 2.75571 -4.58219 0
M  V30 8464 C 812.761 0.653479 -5.18196 0
M  V30 8465 H 814.455 0.0971213 -2.99242 0
M  V30 8466 H 812.001 0.0452724 -1.43929 0
M  V30 8467 H 813.954 2.50116 -3.39146 0
M  V30 8468 H 812.678 2.45894 -2.1495 0
M  V30 8469 H 811.337 0.862314 -3.56314 0
M  V30 8470 H 810.985 3.32971 -3.77014 0
M  V30 8471 H 810.685 2.49987 -5.31771 0
M  V30 8472 H 812.209 3.39939 -5.07221 0
M  V30 8473 H 813.623 1.19198 -5.60771 0
M  V30 8474 H 812.02 0.494188 -5.98062 0
M  V30 8475 H 813.09 -0.337004 -4.83728 0
M  V30 8476 N 814.433 1.57553 0.0384317 0
M  V30 8477 C 815.363 2.0898 1.04161 0
M  V30 8478 C 816.344 0.99029 1.38301 0
M  V30 8479 O 817.529 1.26499 1.47349 0
M  V30 8480 C 814.659 2.56145 2.34536 0
M  V30 8481 C 813.613 3.70275 2.14663 0
M  V30 8482 C 812.939 4.03612 3.50715 0
M  V30 8483 C 814.239 4.99067 1.54045 0
M  V30 8484 H 815.933 2.93046 0.613548 0
M  V30 8485 H 813.479 1.40973 0.293684 0
M  V30 8486 H 815.432 2.90741 3.05037 0
M  V30 8487 H 814.156 1.6915 2.79385 0
M  V30 8488 H 812.815 3.36013 1.46597 0
M  V30 8489 H 812.463 3.13698 3.93195 0
M  V30 8490 H 812.163 4.80482 3.38247 0
M  V30 8491 H 813.687 4.40735 4.22593 0
M  V30 8492 H 815.101 5.3168 2.14451 0
M  V30 8493 H 813.498 5.80484 1.52178 0
M  V30 8494 H 814.568 4.8226 0.505259 0
M  V30 8495 N 815.911 -0.310526 1.54511 0
M  V30 8496 C 817.136 -1.07046 1.7764 0
M  V30 8497 C 817.561 -1.80488 0.529696 0
M  V30 8498 O 816.919 -1.73702 -0.519361 0
M  V30 8499 C 816.967 -2.03411 2.97752 0
M  V30 8500 O 816.071 -3.11545 2.7021 0
M  V30 8501 H 815.412 -0.307994 0.588248 0
M  V30 8502 H 817.942 -0.350848 2.01569 0
M  V30 8503 H 817.952 -2.46048 3.2546 0
M  V30 8504 H 816.627 -1.49361 3.88155 0
M  V30 8505 H 815.204 -2.7349 2.53491 0
M  V30 8506 N 817.389 -1.46805 -0.573248 0
M  V30 8507 C 818.635 -1.5283 -1.33307 0
M  V30 8508 C 818.968 -0.183287 -1.93333 0
M  V30 8509 O 818.243 0.806354 -1.76998 0
M  V30 8510 C 818.526 -2.63414 -2.45531 0
M  V30 8511 C 818.379 -4.07478 -1.90478 0
M  V30 8512 C 819.698 -2.70014 -3.47535 0
M  V30 8513 H 816.817 -0.556371 -0.483343 0
M  V30 8514 H 819.459 -1.78787 -0.643066 0
M  V30 8515 H 817.609 -2.41412 -3.04389 0
M  V30 8516 H 819.281 -4.40795 -1.36004 0
M  V30 8517 H 817.524 -4.16511 -1.21248 0
M  V30 8518 H 818.195 -4.80598 -2.71531 0
M  V30 8519 H 820.671 -2.89817 -2.98572 0
M  V30 8520 H 819.547 -3.49192 -4.23504 0
M  V30 8521 H 819.808 -1.76436 -4.05367 0
M  V30 8522 N 818.867 0.818669 -1.34668 0
M  V30 8523 C 819.777 1.9616 -1.2868 0
M  V30 8524 C 820.793 1.72918 -0.193742 0
M  V30 8525 O 821.969 1.96951 -0.420975 0
M  V30 8526 C 819.034 3.30534 -1.04633 0
M  V30 8527 C 818.095 3.66755 -2.23136 0
M  V30 8528 C 817.328 4.94717 -2.00227 0
M  V30 8529 O 817.551 5.62218 -0.96264 0
M  V30 8530 O 816.485 5.28915 -2.87286 0
M  V30 8531 H 820.311 2.04157 -2.24842 0
M  V30 8532 H 817.896 0.954691 -1.14917 0
M  V30 8533 H 819.778 4.11005 -0.930216 0
M  V30 8534 H 818.453 3.23495 -0.115139 0
M  V30 8535 H 817.36 2.8671 -2.40308 0
M  V30 8536 H 818.693 3.78484 -3.1466 0
M  V30 8537 N 820.346 1.18468 1.03938 0
M  V30 8538 C 821.294 0.909286 2.14091 0
M  V30 8539 C 822.288 -0.130928 1.68893 0
M  V30 8540 O 823.494 0.0173403 1.79992 0
M  V30 8541 H 819.869 0.27658 0.699291 0
M  V30 8542 H 821.84 1.84514 2.34515 0
M  V30 8543 C 820.589 0.452922 3.44737 0
M  V30 8544 H 819.912 1.24485 3.79926 0
M  V30 8545 H 821.352 0.299238 4.22943 0
M  V30 8546 C 819.811 -0.831435 3.26479 0
M  V30 8547 O 820.341 -1.89535 3.54174 0
M  V30 8548 N 818.547 -0.784545 2.79809 0
M  V30 8549 H 818.094 0.0814746 2.57471 0
M  V30 8550 H 818.052 -1.64431 2.67973 0
M  V30 8551 N 821.824 -1.22873 0.986916 0
M  V30 8552 C 823.052 -1.95487 0.677663 0
M  V30 8553 C 823.467 -1.72978 -0.756572 0
M  V30 8554 O 822.824 -1.02517 -1.50985 0
M  V30 8555 C 822.875 -3.48337 0.966638 0
M  V30 8556 O 822.596 -3.70087 2.34451 0
M  V30 8557 C 824.097 -4.38142 0.674248 0
M  V30 8558 H 821.317 -0.622211 0.251185 0
M  V30 8559 H 823.861 -1.56187 1.32007 0
M  V30 8560 H 822.016 -3.85628 0.370137 0
M  V30 8561 H 822.43 -4.64332 2.43918 0
M  V30 8562 H 823.904 -5.44165 0.926759 0
M  V30 8563 H 824.381 -4.3745 -0.391728 0
M  V30 8564 H 824.987 -4.06469 1.25152 0
M  V30 8565 N 823.302 -0.75937 -1.38099 0
M  V30 8566 C 824.548 -0.318584 -2.00282 0
M  V30 8567 C 824.881 1.09854 -1.60143 0
M  V30 8568 O 824.156 1.75344 -0.841702 0
M  V30 8569 C 824.439 -0.448047 -3.57302 0
M  V30 8570 C 824.292 -1.9067 -4.07388 0
M  V30 8571 C 825.611 0.155119 -4.39827 0
M  V30 8572 H 822.73 -0.117233 -0.727616 0
M  V30 8573 H 825.372 -0.960097 -1.63958 0
M  V30 8574 H 823.522 0.0981003 -3.88376 0
M  V30 8575 H 825.194 -2.5116 -3.86932 0
M  V30 8576 H 823.437 -2.41979 -3.6004 0
M  V30 8577 H 824.108 -1.94841 -5.1647 0
M  V30 8578 H 826.584 -0.31073 -4.14938 0
M  V30 8579 H 825.46 0.0343264 -5.48889 0
M  V30 8580 H 825.721 1.24407 -4.24235 0
M  V30 8581 N 824.78 1.49157 -0.508906 0
M  V30 8582 C 826.029 2.0167 0.0346854 0
M  V30 8583 C 826.342 1.39302 1.37311 0
M  V30 8584 O 827.548 1.83189 2.00385 0
M  V30 8585 C 826.004 3.59725 0.112261 0
M  V30 8586 C 825.612 4.31069 -1.21999 0
M  V30 8587 C 827.356 4.20155 0.605798 0
M  V30 8588 C 825.263 5.81001 -1.10415 0
M  V30 8589 H 824.193 0.753814 0.0167355 0
M  V30 8590 H 826.844 1.7162 -0.649518 0
M  V30 8591 H 825.226 3.86525 0.861087 0
M  V30 8592 H 826.4 4.15962 -1.98273 0
M  V30 8593 H 824.715 3.82418 -1.64759 0
M  V30 8594 H 827.312 5.29964 0.710102 0
M  V30 8595 H 827.655 3.84051 1.60656 0
M  V30 8596 H 828.188 3.97705 -0.0867239 0
M  V30 8597 H 824.927 6.21643 -2.07941 0
M  V30 8598 H 824.447 5.9858 -0.382428 0
M  V30 8599 H 826.126 6.42207 -0.786116 0
M  V30 8600 N 826.258 0.243083 1.55714 0
M  V30 8601 C 827.488 -0.38641 2.02954 0
M  V30 8602 C 827.896 -1.52358 1.12177 0
M  V30 8603 O 827.239 -1.83255 0.127853 0
M  V30 8604 C 827.301 -0.959388 3.46462 0
M  V30 8605 C 826.965 0.0450546 4.56978 0
M  V30 8606 C 827.962 0.853224 5.12851 0
M  V30 8607 C 825.647 0.170041 5.02012 0
M  V30 8608 C 827.641 1.77288 6.12248 0
M  V30 8609 C 825.328 1.0932 6.01242 0
M  V30 8610 C 826.326 1.89315 6.56238 0
M  V30 8611 O 826.014 2.80075 7.53534 0
M  V30 8612 H 825.746 -0.0964333 0.669086 0
M  V30 8613 H 828.3 0.363399 2.0216 0
M  V30 8614 H 826.53 -1.75869 3.44394 0
M  V30 8615 H 828.219 -1.49856 3.77224 0
M  V30 8616 H 828.985 0.767229 4.78893 0
M  V30 8617 H 824.864 -0.442528 4.58871 0
M  V30 8618 H 828.408 2.39768 6.55101 0
M  V30 8619 H 824.305 1.18013 6.3462 0
M  V30 8620 H 825.073 2.74393 7.71136 0
M  V30 8621 N 827.736 -1.57571 -0.0300757 0
M  V30 8622 C 829.152 -1.54869 -0.385703 0
M  V30 8623 C 829.352 -0.969068 -1.76667 0
M  V30 8624 O 828.408 -0.589676 -2.45518 0
M  V30 8625 C 829.721 -2.99313 -0.288482 0
M  V30 8626 C 831.269 -3.10857 -0.365638 0
M  V30 8627 C 831.744 -4.5703 -0.297878 0
M  V30 8628 N 833.235 -4.61825 -0.356703 0
M  V30 8629 C 833.97 -5.72466 -0.327146 0
M  V30 8630 N 833.466 -6.92349 -0.249941 0
M  V30 8631 N 835.259 -5.60836 -0.376801 0
M  V30 8632 H 827.41 -1.936 0.87367 0
M  V30 8633 H 829.673 -0.887924 0.332106 0
M  V30 8634 H 829.379 -3.45443 0.66047 0
M  V30 8635 H 829.253 -3.61332 -1.08253 0
M  V30 8636 H 831.64 -2.64676 -1.30502 0
M  V30 8637 H 831.721 -2.51671 0.457744 0
M  V30 8638 H 831.365 -5.03879 0.637835 0
M  V30 8639 H 831.295 -5.14127 -1.13935 0
M  V30 8640 H 833.786 -3.75571 -0.418926 0
M  V30 8641 H 834.099 -7.7245 -0.23246 0
M  V30 8642 H 832.444 -6.94664 -0.216004 0
M  V30 8643 H 835.635 -4.66073 -0.435101 0
M  V30 8644 H 835.808 -6.47052 -0.350298 0
M  V30 8645 N 829.214 0.302327 -1.54673 0
M  V30 8646 C 830.463 1.03533 -1.73101 0
M  V30 8647 C 830.776 1.88473 -0.523174 0
M  V30 8648 O 831.982 2.65029 -0.589229 0
M  V30 8649 C 830.438 1.89043 -3.06252 0
M  V30 8650 C 830.046 1.09112 -4.3451 0
M  V30 8651 C 831.79 2.61951 -3.34039 0
M  V30 8652 C 829.697 1.93891 -5.58713 0
M  V30 8653 H 828.627 0.390261 -0.645145 0
M  V30 8654 H 831.278 0.2924 -1.81155 0
M  V30 8655 H 829.66 2.67319 -2.92159 0
M  V30 8656 H 830.834 0.354596 -4.59434 0
M  V30 8657 H 829.149 0.477923 -4.13648 0
M  V30 8658 H 831.746 3.25729 -4.24033 0
M  V30 8659 H 832.089 3.30711 -2.52855 0
M  V30 8660 H 832.622 1.90725 -3.49097 0
M  V30 8661 H 829.361 1.29604 -6.4256 0
M  V30 8662 H 828.881 2.6522 -5.37976 0
M  V30 8663 H 830.56 2.51971 -5.95919 0
M  V30 8664 N 830.692 1.47107 0.565454 0
M  V30 8665 C 831.624 1.55024 1.6882 0
M  V30 8666 C 832.637 0.4371 1.56822 0
M  V30 8667 O 833.826 0.706315 1.63931 0
M  V30 8668 C 830.926 1.43069 3.0722 0
M  V30 8669 C 830.099 2.68807 3.45053 0
M  V30 8670 C 829.158 2.50806 4.62583 0
M  V30 8671 O 828.184 3.24593 4.67577 0
M  V30 8672 N 829.386 1.58093 5.58558 0
M  V30 8673 H 832.151 2.51836 1.62477 0
M  V30 8674 H 829.712 1.43382 0.751885 0
M  V30 8675 H 831.704 1.28773 3.83666 0
M  V30 8676 H 830.274 0.543721 3.07835 0
M  V30 8677 H 829.494 2.97923 2.58138 0
M  V30 8678 H 830.782 3.52298 3.67101 0
M  V30 8679 H 830.18 0.972807 5.57273 0
M  V30 8680 H 828.737 1.49753 6.34364 0
M  V30 8681 N 832.17 -0.811516 1.35101 0
M  V30 8682 C 833.133 -1.90467 1.27495 0
M  V30 8683 C 834.133 -1.59703 0.187516 0
M  V30 8684 O 835.323 -1.68528 0.440896 0
M  V30 8685 C 832.455 -3.26774 0.971154 0
M  V30 8686 H 833.648 -1.98631 2.2469 0
M  V30 8687 H 831.201 -1.00681 1.19553 0
M  V30 8688 H 831.936 -3.243 0.0028557 0
M  V30 8689 H 831.721 -3.50488 1.75785 0
M  V30 8690 H 833.211 -4.06804 0.943414 0
M  V30 8691 N 833.648 -1.19017 -1.03309 0
M  V30 8692 C 834.578 -0.94772 -2.13402 0
M  V30 8693 C 835.559 0.117383 -1.69694 0
M  V30 8694 O 836.744 -0.0367733 -1.94165 0
M  V30 8695 C 833.874 -0.480977 -3.43953 0
M  V30 8696 C 832.828 -1.48743 -4.01322 0
M  V30 8697 C 832.154 -0.877924 -5.27443 0
M  V30 8698 C 833.454 -2.86642 -4.36616 0
M  V30 8699 H 835.148 -1.86846 -2.33942 0
M  V30 8700 H 832.694 -0.899781 -1.12427 0
M  V30 8701 H 834.647 -0.298677 -4.2034 0
M  V30 8702 H 833.371 0.475348 -3.23122 0
M  V30 8703 H 832.03 -1.65681 -3.27025 0
M  V30 8704 H 831.678 0.0858232 -5.02927 0
M  V30 8705 H 831.378 -1.54996 -5.66789 0
M  V30 8706 H 832.902 -0.706326 -6.06501 0
M  V30 8707 H 834.316 -2.73312 -5.03958 0
M  V30 8708 H 832.713 -3.50599 -4.87032 0
M  V30 8709 H 833.783 -3.39617 -3.46105 0
M  V30 8710 N 835.127 1.22348 -0.993418 0
M  V30 8711 C 836.352 1.95666 -0.687727 0
M  V30 8712 C 836.777 1.72883 0.741161 0
M  V30 8713 O 836.135 1.00837 1.50671 0
M  V30 8714 C 836.183 3.46457 -0.99998 0
M  V30 8715 O 835.287 4.12281 -0.0989386 0
M  V30 8716 H 834.628 0.612102 -0.257346 0
M  V30 8717 H 837.158 1.55428 -1.33054 0
M  V30 8718 H 837.168 3.96976 -0.942035 0
M  V30 8719 H 835.843 3.62365 -2.04118 0
M  V30 8720 H 834.42 3.72295 -0.212413 0
M  V30 8721 N 836.605 0.766683 1.37694 0
M  V30 8722 C 837.535 0.163432 2.32927 0
M  V30 8723 C 838.516 -0.688861 1.55527 0
M  V30 8724 O 839.701 -0.627363 1.83787 0
M  V30 8725 C 836.831 -0.720416 3.39746 0
M  V30 8726 C 835.785 0.0301718 4.27989 0
M  V30 8727 C 835.111 -0.972788 5.25776 0
M  V30 8728 C 836.411 1.20623 5.0818 0
M  V30 8729 H 838.105 0.958988 2.83626 0
M  V30 8730 H 835.651 0.462601 1.36367 0
M  V30 8731 H 837.604 -1.15221 4.05342 0
M  V30 8732 H 836.328 -1.54844 2.8756 0
M  V30 8733 H 834.987 0.442685 3.63917 0
M  V30 8734 H 834.635 -1.79522 4.69873 0
M  V30 8735 H 834.335 -0.475145 5.85676 0
M  V30 8736 H 835.859 -1.40362 5.94248 0
M  V30 8737 H 837.273 0.851341 5.66944 0
M  V30 8738 H 835.67 1.63561 5.7738 0
M  V30 8739 H 836.74 2.01281 4.41151 0
M  V30 8740 N 838.083 -1.48885 0.516809 0
M  V30 8741 C 839.323 -2.0439 -0.0202232 0
M  V30 8742 C 839.687 -1.38652 -1.32814 0
M  V30 8743 O 840.888 -1.84968 -1.95039 0
M  V30 8744 C 839.159 -3.57071 -0.153257 0
M  V30 8745 S 840.718 -4.34074 -0.642256 0
M  V30 8746 H 837.536 -0.710977 0.00576322 0
M  V30 8747 H 840.138 -1.82753 0.694376 0
M  V30 8748 H 838.842 -4.02454 0.803695 0
M  V30 8749 H 838.373 -3.83139 -0.892627 0
M  V30 8750 H 840.388 -4.58011 -1.90893 0
M  V30 8751 N 839.561 -0.251338 -1.55583 0
M  V30 8752 C 840.786 0.379136 -2.03905 0
M  V30 8753 C 841.211 1.50428 -1.12929 0
M  V30 8754 O 840.569 1.80882 -0.123114 0
M  V30 8755 C 840.617 0.86009 -3.50193 0
M  V30 8756 O 839.721 1.96932 -3.62342 0
M  V30 8757 H 839.062 0.0820183 -0.658915 0
M  V30 8758 H 841.592 -0.378692 -2.01065 0
M  V30 8759 H 841.602 1.16214 -3.91099 0
M  V30 8760 H 840.277 0.0367559 -4.15884 0
M  V30 8761 H 838.854 1.67163 -3.33333 0
M  V30 8762 N 841.039 1.57585 0.0217189 0
M  V30 8763 C 842.316 1.80779 0.74687 0
M  V30 8764 C 842.696 0.851163 1.9318 0
M  V30 8765 O 842.044 -0.105039 2.28258 0
M  V30 8766 C 842.254 3.28696 1.17302 0
M  V30 8767 C 843.602 3.93871 1.58589 0
M  V30 8768 O 844.626 3.3289 1.2674 0
M  V30 8769 O 843.485 5.01254 2.1773 0
M  V30 8770 H 840.579 0.743666 0.361786 0
M  V30 8771 H 843.125 1.697 -0.00206785 0
M  V30 8772 H 841.897 3.89927 0.327453 0
M  V30 8773 H 841.52 3.44692 1.98174 0
M  V30 8774 N 842.517 -0.29412 1.54831 0
M  V30 8775 C 843.449 -1.38476 1.82639 0
M  V30 8776 C 844.462 -1.46517 0.709694 0
M  V30 8777 O 845.651 -1.48712 0.987269 0
M  V30 8778 C 842.751 -2.76791 1.95551 0
M  V30 8779 C 841.924 -2.91599 3.26019 0
M  V30 8780 C 840.983 -4.10456 3.29261 0
M  V30 8781 O 840.009 -4.02214 4.02756 0
M  V30 8782 N 841.211 -5.21422 2.55145 0
M  V30 8783 H 843.976 -1.14974 2.76769 0
M  V30 8784 H 841.537 -0.484206 1.5449 0
M  V30 8785 H 843.529 -3.5456 1.95113 0
M  V30 8786 H 842.099 -2.93209 1.08384 0
M  V30 8787 H 841.319 -2.00886 3.39173 0
M  V30 8788 H 842.607 -2.98409 4.12104 0
M  V30 8789 H 842.005 -5.31 1.95078 0
M  V30 8790 H 840.562 -5.97501 2.60454 0
M  V30 8791 N 843.995 -1.47404 -0.557645 0
M  V30 8792 C 844.927 -1.55917 -1.67995 0
M  V30 8793 C 845.94 -0.445411 -1.56588 0
M  V30 8794 O 847.129 -0.714999 -1.63554 0
M  V30 8795 C 844.229 -1.44697 -3.06457 0
M  V30 8796 C 843.402 -2.70633 -3.43622 0
M  V30 8797 C 842.461 -2.53256 -4.61246 0
M  V30 8798 O 841.487 -3.27068 -4.65849 0
M  V30 8799 N 842.689 -1.61053 -5.57711 0
M  V30 8800 H 845.454 -2.52694 -1.61139 0
M  V30 8801 H 843.015 -1.43778 -0.744271 0
M  V30 8802 H 845.007 -1.30806 -3.82978 0
M  V30 8803 H 843.577 -0.560039 -3.07542 0
M  V30 8804 H 842.797 -2.99288 -2.56555 0
M  V30 8805 H 844.085 -3.5424 -3.65228 0
M  V30 8806 H 843.483 -1.00235 -5.56749 0
M  V30 8807 H 842.04 -1.53115 -6.33561 0
M  V30 8808 N 845.473 0.80434 -1.35529 0
M  V30 8809 C 846.698 1.598 -1.32207 0
M  V30 8810 C 847.123 1.87848 0.0974226 0
M  V30 8811 O 846.481 1.46728 1.06492 0
M  V30 8812 C 846.529 2.90483 -2.13663 0
M  V30 8813 O 845.633 3.83411 -1.51888 0
M  V30 8814 H 844.974 0.485305 -0.453183 0
M  V30 8815 H 847.504 0.998119 -1.78602 0
M  V30 8816 H 847.514 3.39888 -2.257 0
M  V30 8817 H 846.189 2.69395 -3.16859 0
M  V30 8818 H 844.766 3.41967 -1.48704 0
M  V30 8819 N 846.951 1.19563 1.02676 0
M  V30 8820 C 847.901 0.903055 2.09354 0
M  V30 8821 C 848.885 -0.133009 1.60349 0
M  V30 8822 O 850.077 0.0729744 1.7685 0
M  V30 8823 C 847.206 0.445852 3.40392 0
M  V30 8824 C 846.292 1.51477 3.96126 0
M  V30 8825 N 846.683 2.73474 4.25495 0
M  V30 8826 C 844.981 1.37856 4.2416 0
M  V30 8827 C 845.682 3.42348 4.7029 0
M  V30 8828 N 844.658 2.69746 4.71952 0
M  V30 8829 H 848.46 1.83023 2.29956 0
M  V30 8830 H 845.974 1.08812 1.20556 0
M  V30 8831 H 847.971 0.21769 4.16331 0
M  V30 8832 H 846.631 -0.47482 3.2121 0
M  V30 8833 H 847.642 3.10217 4.14711 0
M  V30 8834 H 844.319 0.521512 4.1423 0
M  V30 8835 H 845.709 4.46686 5.01917 0
M  V30 8836 N 848.429 -1.21819 0.999893 0
M  V30 8837 C 849.359 -2.26282 0.576096 0
M  V30 8838 C 850.34 -1.65317 -0.400537 0
M  V30 8839 O 851.525 -1.92028 -0.28964 0
M  V30 8840 C 848.655 -3.47147 -0.103145 0
M  V30 8841 C 847.609 -4.20594 0.792745 0
M  V30 8842 C 846.935 -5.34696 -0.0198026 0
M  V30 8843 C 848.235 -4.78533 2.09293 0
M  V30 8844 H 849.929 -2.61984 1.4493 0
M  V30 8845 H 847.475 -1.25935 0.698316 0
M  V30 8846 H 849.428 -4.1939 -0.411068 0
M  V30 8847 H 848.152 -3.1056 -1.01094 0
M  V30 8848 H 846.811 -3.50194 1.08442 0
M  V30 8849 H 846.459 -4.94352 -0.928729 0
M  V30 8850 H 846.159 -5.84764 0.576661 0
M  V30 8851 H 847.683 -6.09752 -0.321659 0
M  V30 8852 H 849.097 -5.42682 1.8485 0
M  V30 8853 H 847.494 -5.38968 2.63881 0
M  V30 8854 H 848.564 -3.98197 2.76708 0
M  V30 8855 N 849.908 -0.773975 -1.37286 0
M  V30 8856 C 850.818 -0.162571 -2.34036 0
M  V30 8857 C 851.834 0.677022 -1.60289 0
M  V30 8858 O 853.01 0.596423 -1.92366 0
M  V30 8859 C 850.075 0.70457 -3.39465 0
M  V30 8860 C 849.136 -0.151738 -4.29032 0
M  V30 8861 C 848.369 0.674111 -5.29426 0
M  V30 8862 O 848.592 1.91107 -5.37433 0
M  V30 8863 O 847.526 0.0821398 -6.01844 0
M  V30 8864 H 851.352 -0.962119 -2.88057 0
M  V30 8865 H 848.937 -0.53517 -1.39486 0
M  V30 8866 H 850.819 1.19954 -4.03967 0
M  V30 8867 H 849.494 1.48227 -2.87768 0
M  V30 8868 H 848.401 -0.693118 -3.67623 0
M  V30 8869 H 849.734 -0.892575 -4.84039 0
M  V30 8870 N 851.386 1.48609 -0.524698 0
M  V30 8871 C 852.633 2.02497 0.0113214 0
M  V30 8872 C 852.961 1.40229 1.34781 0
M  V30 8873 O 852.216 0.53557 1.88229 0
M  V30 8874 C 852.515 3.56906 0.187873 0
M  V30 8875 C 852.181 4.37932 -1.07359 0
M  V30 8876 C 850.843 4.59792 -1.41933 0
M  V30 8877 C 853.195 4.84902 -1.911 0
M  V30 8878 C 850.523 5.25868 -2.60154 0
M  V30 8879 C 852.875 5.52281 -3.08495 0
M  V30 8880 C 851.539 5.7238 -3.4342 0
M  V30 8881 H 850.809 0.740988 0.0041428 0
M  V30 8882 H 853.456 1.78651 -0.689652 0
M  V30 8883 H 851.761 3.79563 0.971572 0
M  V30 8884 H 853.458 3.96218 0.617443 0
M  V30 8885 H 850.048 4.21175 -0.794331 0
M  V30 8886 H 854.232 4.67821 -1.65701 0
M  V30 8887 H 849.488 5.39628 -2.87422 0
M  V30 8888 H 853.662 5.87645 -3.73692 0
M  V30 8889 H 851.289 6.23354 -4.35126 0
M  V30 8890 N 852.864 0.259585 1.55447 0
M  V30 8891 C 854.28 -0.094961 1.59317 0
M  V30 8892 C 854.48 -1.55884 1.2768 0
M  V30 8893 O 853.536 -2.30528 1.0302 0
M  V30 8894 C 854.849 0.265669 2.99524 0
M  V30 8895 C 856.397 0.211007 3.12288 0
M  V30 8896 C 856.872 0.545851 4.54736 0
M  V30 8897 N 858.363 0.496823 4.60528 0
M  V30 8898 C 859.098 0.728909 5.68748 0
M  V30 8899 N 858.594 1.02479 6.85179 0
M  V30 8900 N 860.387 0.658756 5.58226 0
M  V30 8901 H 852.538 1.2141 1.7428 0
M  V30 8902 H 854.801 0.489404 0.811904 0
M  V30 8903 H 854.507 1.28316 3.27457 0
M  V30 8904 H 854.381 -0.401089 3.75061 0
M  V30 8905 H 856.768 -0.797172 2.84129 0
M  V30 8906 H 856.849 0.911799 2.38998 0
M  V30 8907 H 856.493 1.55164 4.83618 0
M  V30 8908 H 856.423 -0.17656 5.26304 0
M  V30 8909 H 858.914 0.277376 3.76881 0
M  V30 8910 H 859.227 1.18897 7.63599 0
M  V30 8911 H 857.572 1.0624 6.86832 0
M  V30 8912 H 860.763 0.427553 4.66143 0
M  V30 8913 H 860.936 0.84302 6.42493 0
M  V30 8914 N 854.342 -1.57594 -0.0133615 0
M  V30 8915 C 855.588 -1.90262 -0.702019 0
M  V30 8916 C 855.921 -0.859219 -1.74158 0
M  V30 8917 O 855.196 0.123778 -1.94106 0
M  V30 8918 C 855.479 -3.3354 -1.35732 0
M  V30 8919 C 855.332 -4.48586 -0.330208 0
M  V30 8920 C 856.651 -3.76004 -2.28712 0
M  V30 8921 H 853.77 -0.691943 -0.253739 0
M  V30 8922 H 856.412 -1.89967 0.0351894 0
M  V30 8923 H 854.562 -3.33921 -1.98567 0
M  V30 8924 H 856.234 -4.6034 0.297433 0
M  V30 8925 H 854.477 -4.32394 0.348926 0
M  V30 8926 H 855.148 -5.45762 -0.827508 0
M  V30 8927 H 857.624 -3.77089 -1.75906 0
M  V30 8928 H 856.5 -4.77032 -2.71535 0
M  V30 8929 H 856.761 -3.09129 -3.16056 0
M  V30 8930 N 855.82 0.285905 -1.54985 0
M  V30 8931 C 856.768 1.37302 -1.87752 0
M  V30 8932 C 857.762 1.51763 -0.752616 0
M  V30 8933 O 858.968 1.53701 -0.936805 0
M  V30 8934 H 855.343 0.458935 -0.59572 0
M  V30 8935 H 857.314 1.0691 -2.78591 0
M  V30 8936 C 856.063 2.72885 -2.15474 0
M  V30 8937 H 855.386 2.62545 -3.01513 0
M  V30 8938 H 856.826 3.47925 -2.42331 0
M  V30 8939 C 855.285 3.22989 -0.958124 0
M  V30 8940 O 855.815 4.01268 -0.186219 0
M  V30 8941 N 854.021 2.80503 -0.759354 0
M  V30 8942 H 853.568 2.16961 -1.38874 0
M  V30 8943 H 853.526 3.14375 0.0396937 0
M  V30 8944 N 857.298 1.47698 0.54982 0
M  V30 8945 C 858.714 1.3338 0.876468 0
M  V30 8946 C 858.914 0.329837 1.98782 0
M  V30 8947 O 857.97 -0.256022 2.51199 0
M  V30 8948 C 859.283 2.72903 1.26272 0
M  V30 8949 C 860.831 2.81243 1.37373 0
M  V30 8950 C 861.306 4.21423 1.79351 0
M  V30 8951 N 862.797 4.24 1.86489 0
M  V30 8952 C 863.532 5.29386 2.20313 0
M  V30 8953 N 863.028 6.4507 2.527 0
M  V30 8954 N 864.821 5.16768 2.2115 0
M  V30 8955 H 856.972 2.11603 -0.183781 0
M  V30 8956 H 859.235 0.947798 -0.0195601 0
M  V30 8957 H 858.941 3.47836 0.519889 0
M  V30 8958 H 858.815 3.05151 2.21727 0
M  V30 8959 H 861.202 2.06577 2.10737 0
M  V30 8960 H 861.283 2.52639 0.400882 0
M  V30 8961 H 860.927 4.96597 1.06555 0
M  V30 8962 H 860.857 4.47456 2.77652 0
M  V30 8963 H 863.348 3.40547 1.63817 0
M  V30 8964 H 863.661 7.21236 2.77557 0
M  V30 8965 H 862.006 6.48377 2.50263 0
M  V30 8966 H 865.197 4.25416 1.95293 0
M  V30 8967 H 865.37 5.99004 2.4718 0
M  V30 8968 N 858.776 -0.797141 1.35954 0
M  V30 8969 C 859.724 -1.93084 1.29697 0
M  V30 8970 C 860.718 -1.68329 0.190152 0
M  V30 8971 O 861.924 -1.7643 0.3567 0
M  V30 8972 H 858.299 -0.634531 0.403577 0
M  V30 8973 H 860.27 -1.95481 2.25455 0
M  V30 8974 C 859.019 -3.29996 1.09536 0
M  V30 8975 H 858.342 -3.49607 1.93946 0
M  V30 8976 H 859.782 -4.09696 1.09202 0
M  V30 8977 C 858.241 -3.36304 -0.200381 0
M  V30 8978 O 858.771 -3.83579 -1.19291 0
M  V30 8979 N 856.977 -2.89587 -0.242406 0
M  V30 8980 H 856.524 -2.51307 0.565897 0
M  V30 8981 H 856.482 -2.94189 -1.10906 0
M  V30 8982 N 860.254 -1.20106 -1.0204 0
M  V30 8983 C 861.202 -0.943231 -2.12617 0
M  V30 8984 C 862.196 0.104042 -1.6908 0
M  V30 8985 O 863.402 -0.0459732 -1.79941 0
M  V30 8986 H 859.777 -0.28767 -0.694802 0
M  V30 8987 H 861.748 -1.88221 -2.3155 0
M  V30 8988 C 860.497 -0.50771 -3.43973 0
M  V30 8989 H 859.82 -1.30514 -3.77897 0
M  V30 8990 H 861.26 -0.366486 -4.22413 0
M  V30 8991 C 859.719 0.77939 -3.27761 0
M  V30 8992 O 860.249 1.83876 -3.57145 0
M  V30 8993 N 858.455 0.739931 -2.81022 0
M  V30 8994 H 858.002 -0.122426 -2.57309 0
M  V30 8995 H 857.96 1.60147 -2.70556 0
M  V30 8996 N 861.732 1.21287 -1.00634 0
M  V30 8997 C 862.662 2.25973 -0.588089 0
M  V30 8998 C 863.643 1.65527 0.391764 0
M  V30 8999 O 864.828 1.92179 0.279452 0
M  V30 9000 C 861.958 3.47197 0.0847336 0
M  V30 9001 C 860.912 4.20168 -0.815039 0
M  V30 9002 C 860.238 5.34699 -0.00855393 0
M  V30 9003 C 861.538 4.77416 -2.11828 0
M  V30 9004 H 863.232 2.61212 -1.46317 0
M  V30 9005 H 860.778 1.25563 -0.704985 0
M  V30 9006 H 862.731 4.19602 0.388821 0
M  V30 9007 H 861.455 3.11092 0.994456 0
M  V30 9008 H 860.114 3.49614 -1.10297 0
M  V30 9009 H 859.762 4.94837 0.902499 0
M  V30 9010 H 859.462 5.84449 -0.607664 0
M  V30 9011 H 860.986 6.09914 0.289317 0
M  V30 9012 H 862.4 5.41694 -1.87725 0
M  V30 9013 H 860.797 5.37561 -2.66736 0
M  V30 9014 H 861.867 3.96724 -2.78816 0
M  V30 9015 N 863.21 0.781244 1.36873 0
M  V30 9016 C 864.12 0.174981 2.33947 0
M  V30 9017 C 865.136 -0.668512 1.60645 0
M  V30 9018 O 866.312 -0.586213 1.9268 0
M  V30 9019 C 863.377 -0.686557 3.39834 0
M  V30 9020 C 862.438 0.174489 4.28945 0
M  V30 9021 C 861.671 -0.646024 5.29776 0
M  V30 9022 O 861.894 -1.88254 5.38439 0
M  V30 9023 O 860.828 -0.0502214 6.01879 0
M  V30 9024 H 864.654 0.977382 2.87543 0
M  V30 9025 H 862.239 0.542559 1.392 0
M  V30 9026 H 864.121 -1.1781 4.04597 0
M  V30 9027 H 862.796 -1.46699 2.8855 0
M  V30 9028 H 861.703 0.712604 3.6725 0
M  V30 9029 H 863.036 0.918232 4.83559 0
M  V30 9030 N 864.689 -1.48329 0.532571 0
M  V30 9031 C 865.619 -2.32485 -0.217511 0
M  V30 9032 C 866.6 -1.42255 -0.932598 0
M  V30 9033 O 867.785 -1.7114 -0.917873 0
M  V30 9034 C 864.915 -3.23509 -1.26329 0
M  V30 9035 C 863.869 -4.22784 -0.666191 0
M  V30 9036 C 863.195 -5.0296 -1.81482 0
M  V30 9037 C 864.495 -5.21031 0.363813 0
M  V30 9038 H 866.189 -2.95445 0.485014 0
M  V30 9039 H 863.735 -1.42075 0.234694 0
M  V30 9040 H 865.688 -3.81211 -1.79601 0
M  V30 9041 H 864.412 -2.58554 -1.99543 0
M  V30 9042 H 863.071 -3.66272 -0.15498 0
M  V30 9043 H 862.719 -4.34427 -2.5354 0
M  V30 9044 H 862.419 -5.70154 -1.4212 0
M  V30 9045 H 863.943 -5.63514 -2.35126 0
M  V30 9046 H 865.357 -5.73241 -0.0819079 0
M  V30 9047 H 863.754 -5.96292 0.674956 0
M  V30 9048 H 864.824 -4.6801 1.26865 0
M  V30 9049 N 866.167 -0.267825 -1.55308 0
M  V30 9050 C 867.392 0.357487 -2.04296 0
M  V30 9051 C 867.817 1.49222 -1.14518 0
M  V30 9052 O 867.175 1.80741 -0.142292 0
M  V30 9053 C 867.223 0.822899 -3.51085 0
M  V30 9054 O 866.327 1.93078 -3.6441 0
M  V30 9055 H 865.668 0.075025 -0.659748 0
M  V30 9056 H 868.198 -0.399996 -2.00652 0
M  V30 9057 H 868.208 1.12059 -3.92309 0
M  V30 9058 H 866.883 -0.0073562 -4.15899 0
M  V30 9059 H 865.46 1.63618 -3.35087 0
M  V30 9060 N 867.645 1.57599 0.00500368 0
M  V30 9061 C 868.873 1.94626 0.702016 0
M  V30 9062 C 869.288 0.86953 1.67585 0
M  V30 9063 O 868.645 -0.15199 1.81866 0
M  V30 9064 C 868.696 3.31658 1.43824 0
M  V30 9065 O 868.417 4.35197 0.503467 0
M  V30 9066 C 869.918 3.83114 2.23021 0
M  V30 9067 H 867.138 0.641785 0.195841 0
M  V30 9068 H 869.682 2.04451 -0.0446287 0
M  V30 9069 H 867.837 3.23156 2.13655 0
M  V30 9070 H 868.251 5.1444 1.02235 0
M  V30 9071 H 869.725 4.81438 2.7004 0
M  V30 9072 H 870.202 3.15559 3.05482 0
M  V30 9073 H 870.808 3.94775 1.58216 0
M  V30 9074 N 869.123 -0.277682 1.55134 0
M  V30 9075 C 870.534 -0.849063 1.66276 0
M  V30 9076 C 870.885 -1.87223 0.5867 0
M  V30 9077 O 870.01 -2.14676 -0.272635 0
M  V30 9078 C 870.605 -1.54681 3.01429 0
M  V30 9079 C 869.164 -2.06628 3.14614 0
M  V30 9080 C 868.311 -0.906748 2.62056 0
M  V30 9081 H 871.262 -0.0541357 1.58608 0
M  V30 9082 H 871.283 -2.41356 2.94156 0
M  V30 9083 H 870.795 -0.80189 3.79725 0
M  V30 9084 H 868.896 -2.84095 2.41082 0
M  V30 9085 H 869.009 -2.2848 4.2111 0
M  V30 9086 H 867.373 -1.29882 2.19095 0
M  V30 9087 H 868.156 -0.175414 3.42852 0
M  V30 9088 N 870.601 -1.47988 -0.541979 0
M  V30 9089 C 871.531 -1.64503 -1.65713 0
M  V30 9090 C 872.512 -0.494116 -1.62765 0
M  V30 9091 O 873.697 -0.725256 -1.80149 0
M  V30 9092 C 870.827 -1.67337 -3.04328 0
M  V30 9093 C 869.781 -2.81809 -3.2213 0
M  V30 9094 C 869.107 -2.69724 -4.61685 0
M  V30 9095 C 870.407 -4.23241 -3.06046 0
M  V30 9096 H 872.101 -2.5786 -1.52147 0
M  V30 9097 H 869.647 -1.24094 -0.730529 0
M  V30 9098 H 871.6 -1.77481 -3.82202 0
M  V30 9099 H 870.324 -0.705514 -3.18889 0
M  V30 9100 H 868.983 -2.71201 -2.46669 0
M  V30 9101 H 868.631 -1.70934 -4.73065 0
M  V30 9102 H 868.331 -3.4653 -4.74543 0
M  V30 9103 H 869.855 -2.81818 -5.41674 0
M  V30 9104 H 871.269 -4.34746 -3.73723 0
M  V30 9105 H 869.666 -5.00952 -3.30405 0
M  V30 9106 H 870.736 -4.40543 -2.02609 0
M  V30 9107 N 872.079 0.78992 -1.36375 0
M  V30 9108 C 873.026 1.90254 -1.3066 0
M  V30 9109 C 873.996 1.65171 -0.17539 0
M  V30 9110 O 875.181 1.87338 -0.361824 0
M  V30 9111 C 872.321 3.27057 -1.10125 0
M  V30 9112 C 871.434 3.64215 -2.32317 0
M  V30 9113 C 870.569 4.90134 -2.04798 0
M  V30 9114 C 869.608 5.19969 -3.22953 0
M  V30 9115 N 868.745 6.37071 -2.95102 0
M  V30 9116 H 873.585 1.94474 -2.25796 0
M  V30 9117 H 871.122 0.951022 -1.12223 0
M  V30 9118 H 873.08 4.05947 -0.962453 0
M  V30 9119 H 871.71 3.22261 -0.186444 0
M  V30 9120 H 870.762 2.80454 -2.57002 0
M  V30 9121 H 872.074 3.82212 -3.20492 0
M  V30 9122 H 871.228 5.76888 -1.87845 0
M  V30 9123 H 869.967 4.74205 -1.13932 0
M  V30 9124 H 868.972 4.31699 -3.40465 0
M  V30 9125 H 870.197 5.37817 -4.14644 0
M  V30 9126 H 868.143 6.22535 -2.06848 0
M  V30 9127 H 868.06 6.55398 -3.76815 0
M  V30 9128 H 869.328 7.26808 -2.81727 0
M  V30 9129 N 873.557 1.20646 1.01402 0
M  V30 9130 C 874.806 1.01242 1.7445 0
M  V30 9131 C 875.119 -0.455732 1.90217 0
M  V30 9132 O 876.325 -0.768951 2.60383 0
M  V30 9133 C 874.781 1.76275 3.13776 0
M  V30 9134 C 874.389 3.27201 3.06013 0
M  V30 9135 C 876.133 1.65248 3.91016 0
M  V30 9136 C 874.04 3.9476 4.40362 0
M  V30 9137 H 872.97 0.375202 0.654018 0
M  V30 9138 H 875.621 1.44292 1.13367 0
M  V30 9139 H 874.003 1.26013 3.75415 0
M  V30 9140 H 875.177 3.84695 2.53665 0
M  V30 9141 H 873.492 3.38669 2.42265 0
M  V30 9142 H 876.089 2.13061 4.90417 0
M  V30 9143 H 876.432 0.609128 4.1182 0
M  V30 9144 H 876.965 2.12937 3.3601 0
M  V30 9145 H 873.704 4.99258 4.24761 0
M  V30 9146 H 873.224 3.42054 4.92706 0
M  V30 9147 H 874.903 3.99159 5.09196 0
M  V30 9148 N 875.035 -1.20752 1.01276 0
M  V30 9149 C 875.945 -2.27079 0.589277 0
M  V30 9150 C 876.961 -1.6999 -0.371389 0
M  V30 9151 O 878.137 -2.00044 -0.233294 0
M  V30 9152 C 875.202 -3.4663 -0.0696715 0
M  V30 9153 C 874.263 -4.18962 0.936454 0
M  V30 9154 C 873.496 -5.32806 0.308856 0
M  V30 9155 O 873.719 -5.63376 -0.8924 0
M  V30 9156 O 872.653 -5.93131 1.02367 0
M  V30 9157 H 876.479 -2.6551 1.47438 0
M  V30 9158 H 874.064 -1.27297 0.782045 0
M  V30 9159 H 875.946 -4.19119 -0.437873 0
M  V30 9160 H 874.621 -3.10082 -0.929029 0
M  V30 9161 H 873.528 -3.48661 1.35595 0
M  V30 9162 H 874.861 -4.59441 1.76565 0
M  V30 9163 N 876.513 -0.788492 -1.36457 0
M  V30 9164 C 877.741 -0.372365 -2.03522 0
M  V30 9165 C 878.156 1.01093 -1.59454 0
M  V30 9166 O 877.513 1.64824 -0.783535 0
M  V30 9167 C 877.564 -0.425435 -3.58988 0
M  V30 9168 O 877.285 -1.75418 -4.01448 0
M  V30 9169 C 878.786 0.000180167 -4.433 0
M  V30 9170 H 876.006 -0.1536 -0.653183 0
M  V30 9171 H 878.55 -1.06708 -1.74452 0
M  V30 9172 H 876.705 0.220856 -3.8677 0
M  V30 9173 H 877.119 -1.70437 -4.96036 0
M  V30 9174 H 878.593 -0.0880919 -5.5193 0
M  V30 9175 H 879.07 1.05269 -4.26398 0
M  V30 9176 H 879.676 -0.618563 -4.20778 0
M  V30 9177 N 877.991 1.48044 -0.54043 0
M  V30 9178 C 879.24 2.01698 -0.00809961 0
M  V30 9179 C 879.553 1.42184 1.34325 0
M  V30 9180 O 880.759 1.87398 1.96454 0
M  V30 9181 C 879.215 3.59882 0.035933 0
M  V30 9182 C 878.823 4.28384 -1.31115 0
M  V30 9183 C 880.567 4.21346 0.51654 0
M  V30 9184 C 878.474 5.78529 -1.22714 0
M  V30 9185 H 877.404 0.754 0.000742174 0
M  V30 9186 H 880.055 1.70204 -0.685775 0
M  V30 9187 H 878.437 3.88264 0.778906 0
M  V30 9188 H 879.611 4.11663 -2.07051 0
M  V30 9189 H 877.926 3.78837 -1.72834 0
M  V30 9190 H 880.523 5.31351 0.597529 0
M  V30 9191 H 880.866 3.87373 1.52473 0
M  V30 9192 H 881.399 3.97432 -0.171064 0
M  V30 9193 H 878.138 6.17093 -2.21081 0
M  V30 9194 H 877.658 5.97634 -0.50931 0
M  V30 9195 H 879.337 6.40395 -0.92216 0
M  V30 9196 N 879.47 0.276058 1.55163 0
M  V30 9197 C 880.695 -0.346648 2.04483 0
M  V30 9198 C 881.12 -1.48613 1.15308 0
M  V30 9199 O 880.478 -1.80663 0.151875 0
M  V30 9200 C 880.526 -0.804268 3.51517 0
M  V30 9201 O 879.63 -1.91143 3.65429 0
M  V30 9202 H 878.971 -0.0715251 0.660136 0
M  V30 9203 H 881.501 0.410631 2.00437 0
M  V30 9204 H 881.511 -1.09977 3.92898 0
M  V30 9205 H 880.186 0.0294123 4.1589 0
M  V30 9206 H 878.763 -1.61839 3.3595 0
M  V30 9207 N 880.948 -1.576 0.00335426 0
M  V30 9208 C 881.898 -2.05116 -0.995562 0
M  V30 9209 C 882.882 -0.946535 -1.30113 0
M  V30 9210 O 884.074 -1.21028 -1.29156 0
M  V30 9211 C 881.203 -2.56077 -2.28648 0
M  V30 9212 C 880.289 -3.73422 -2.0104 0
M  V30 9213 N 880.68 -4.84986 -1.43603 0
M  V30 9214 C 878.978 -3.81416 -2.31166 0
M  V30 9215 C 879.679 -5.66399 -1.32542 0
M  V30 9216 N 878.655 -5.12505 -1.81218 0
M  V30 9217 H 882.457 -2.88783 -0.546025 0
M  V30 9218 H 879.971 -1.61135 -0.202265 0
M  V30 9219 H 881.968 -2.88395 -3.01055 0
M  V30 9220 H 880.628 -1.73829 -2.74251 0
M  V30 9221 H 881.639 -5.05768 -1.11439 0
M  V30 9222 H 878.316 -3.1003 -2.7962 0
M  V30 9223 H 879.706 -6.66066 -0.88348 0
M  V30 9224 N 882.426 0.269451 -1.5528 0
M  V30 9225 C 883.336 1.35511 -1.91505 0
M  V30 9226 C 884.352 1.53854 -0.812712 0
M  V30 9227 O 885.528 1.67912 -1.1121 0
M  V30 9228 C 882.593 2.6937 -2.18267 0
M  V30 9229 C 881.654 2.59743 -3.41807 0
M  V30 9230 C 880.887 3.87219 -3.67283 0
M  V30 9231 O 881.11 4.88066 -2.95208 0
M  V30 9232 O 880.044 3.87209 -4.60818 0
M  V30 9233 H 883.87 1.07785 -2.8393 0
M  V30 9234 H 881.455 0.468282 -1.41871 0
M  V30 9235 H 883.337 3.48513 -2.36889 0
M  V30 9236 H 882.012 2.96874 -1.29024 0
M  V30 9237 H 880.919 1.78964 -3.28516 0
M  V30 9238 H 882.252 2.37188 -4.3128 0
M  V30 9239 N 883.904 1.48273 0.534124 0
M  V30 9240 C 885.181 1.46567 1.29528 0
M  V30 9241 C 885.561 0.17509 2.10373 0
M  V30 9242 O 884.909 -0.843228 2.12372 0
M  V30 9243 C 885.119 2.72519 2.18023 0
M  V30 9244 C 886.467 3.2068 2.78298 0
M  V30 9245 O 887.491 2.73408 2.28313 0
M  V30 9246 O 886.35 4.02924 3.69208 0
M  V30 9247 H 883.444 0.585151 0.584403 0
M  V30 9248 H 885.99 1.60502 0.551119 0
M  V30 9249 H 884.762 3.57965 1.5804 0
M  V30 9250 H 884.385 2.61285 2.99693 0
M  V30 9251 N 885.382 -0.782676 1.36792 0
M  V30 9252 C 886.312 -1.90973 1.34356 0
M  V30 9253 C 887.293 -1.6875 0.213917 0
M  V30 9254 O 888.478 -1.89766 0.412601 0
M  V30 9255 C 885.608 -3.28097 1.13884 0
M  V30 9256 C 884.562 -3.6486 2.23744 0
M  V30 9257 C 883.888 -5.00406 1.88408 0
M  V30 9258 C 885.188 -3.72742 3.6587 0
M  V30 9259 H 886.882 -1.93268 2.28665 0
M  V30 9260 H 884.428 -0.928447 1.10072 0
M  V30 9261 H 886.381 -4.06569 1.10813 0
M  V30 9262 H 885.105 -3.26206 0.160275 0
M  V30 9263 H 883.764 -2.88689 2.25952 0
M  V30 9264 H 883.412 -4.95044 0.891083 0
M  V30 9265 H 883.112 -5.25973 2.61966 0
M  V30 9266 H 884.636 -5.81291 1.86905 0
M  V30 9267 H 886.05 -4.4139 3.65852 0
M  V30 9268 H 884.447 -4.09798 4.38389 0
M  V30 9269 H 885.517 -2.73676 4.00287 0
M  V30 9270 N 886.86 -1.21182 -1.00761 0
M  V30 9271 C 887.792 -0.926523 -2.09638 0
M  V30 9272 C 888.805 0.0892511 -1.62555 0
M  V30 9273 O 889.994 -0.142915 -1.77927 0
M  V30 9274 C 887.094 -0.369175 -3.36883 0
M  V30 9275 C 886.267 -1.43866 -4.13063 0
M  V30 9276 C 885.326 -0.891015 -5.18601 0
M  V30 9277 O 884.352 -1.57384 -5.47009 0
M  V30 9278 N 885.554 0.295057 -5.7975 0
M  V30 9279 H 888.319 -1.8638 -2.34697 0
M  V30 9280 H 885.88 -1.11671 -1.17223 0
M  V30 9281 H 887.872 0.011534 -4.04698 0
M  V30 9282 H 886.442 0.472861 -3.09003 0
M  V30 9283 H 885.662 -1.99332 -3.40089 0
M  V30 9284 H 886.95 -2.15866 -4.60738 0
M  V30 9285 H 886.348 0.8669 -5.59018 0
M  V30 9286 H 884.905 0.617306 -6.4887 0
M  V30 9287 N 888.338 1.20213 -1.01915 0
M  V30 9288 C 889.754 1.41696 -0.734459 0
M  V30 9289 C 889.954 1.89504 0.684867 0
M  V30 9290 O 889.01 2.06556 1.45227 0
M  V30 9291 C 890.323 2.43644 -1.76233 0
M  V30 9292 C 891.871 2.57406 -1.78076 0
M  V30 9293 C 892.346 3.626 -2.79796 0
M  V30 9294 N 893.837 3.70086 -2.78551 0
M  V30 9295 C 894.572 4.51145 -3.53915 0
M  V30 9296 N 894.068 5.35988 -4.38963 0
M  V30 9297 N 895.861 4.45702 -3.425 0
M  V30 9298 H 888.012 0.874976 -1.93541 0
M  V30 9299 H 890.275 0.446647 -0.836188 0
M  V30 9300 H 889.981 2.15519 -2.77929 0
M  V30 9301 H 889.855 3.42672 -1.57657 0
M  V30 9302 H 892.242 2.8486 -0.770634 0
M  V30 9303 H 892.323 1.58565 -2.00725 0
M  V30 9304 H 891.967 3.35889 -3.80973 0
M  V30 9305 H 891.897 4.61069 -2.54407 0
M  V30 9306 H 894.388 3.09484 -2.1686 0
M  V30 9307 H 894.701 5.94932 -4.9323 0
M  V30 9308 H 893.046 5.35482 -4.4304 0
M  V30 9309 H 896.237 3.78456 -2.75478 0
M  V30 9310 H 896.41 5.08637 -4.01487 0
M  V30 9311 N 889.816 0.795718 1.36037 0
M  V30 9312 C 890.748 0.156336 2.28666 0
M  V30 9313 C 891.761 -0.638075 1.49775 0
M  V30 9314 O 892.95 -0.472222 1.7214 0
M  V30 9315 C 890.05 -0.801417 3.29288 0
M  V30 9316 C 889.223 -0.0557118 4.37365 0
M  V30 9317 C 888.282 -0.930338 5.1791 0
M  V30 9318 O 887.308 -0.385266 5.67895 0
M  V30 9319 N 888.51 -2.25382 5.34961 0
M  V30 9320 H 891.275 0.952033 2.84177 0
M  V30 9321 H 888.836 0.650189 1.48271 0
M  V30 9322 H 890.828 -1.39051 3.80062 0
M  V30 9323 H 889.398 -1.49796 2.74372 0
M  V30 9324 H 888.618 0.714508 3.87671 0
M  V30 9325 H 889.906 0.458633 5.06729 0
M  V30 9326 H 889.304 -2.72073 4.95977 0
M  V30 9327 H 887.861 -2.79241 5.88955 0
M  V30 9328 N 891.294 -1.47756 0.548274 0
M  V30 9329 C 892.224 -2.32702 -0.19284 0
M  V30 9330 C 893.205 -1.43237 -0.917457 0
M  V30 9331 O 894.39 -1.72103 -0.89967 0
M  V30 9332 C 891.52 -3.24831 -1.22891 0
M  V30 9333 C 890.474 -4.23466 -0.621312 0
M  V30 9334 C 889.8 -5.04856 -1.76137 0
M  V30 9335 C 891.1 -5.20616 0.419055 0
M  V30 9336 H 892.794 -2.94914 0.516323 0
M  V30 9337 H 890.34 -1.41818 0.24975 0
M  V30 9338 H 892.293 -3.83094 -1.75547 0
M  V30 9339 H 891.017 -2.60656 -1.9679 0
M  V30 9340 H 889.676 -3.66416 -0.116123 0
M  V30 9341 H 889.324 -4.37091 -2.48918 0
M  V30 9342 H 889.024 -5.71629 -1.36065 0
M  V30 9343 H 890.548 -5.65976 -2.29136 0
M  V30 9344 H 891.962 -5.73296 -0.0211034 0
M  V30 9345 H 890.359 -5.95543 0.738163 0
M  V30 9346 H 891.429 -4.66638 1.31822 0
M  V30 9347 N 892.772 -0.284283 -1.55015 0
M  V30 9348 C 893.735 0.586182 -2.21577 0
M  V30 9349 C 894.735 1.07427 -1.1965 0
M  V30 9350 O 895.925 0.972977 -1.44495 0
M  V30 9351 C 893.057 1.80973 -2.88897 0
M  V30 9352 H 894.25 0.00487253 -2.999 0
M  V30 9353 H 891.803 -0.0349696 -1.56261 0
M  V30 9354 H 892.538 2.43131 -2.14611 0
M  V30 9355 H 892.323 1.46757 -3.636 0
M  V30 9356 H 893.813 2.42853 -3.39724 0
M  V30 9357 N 894.251 1.57596 -0.0117121 0
M  V30 9358 C 895.497 1.91355 0.671661 0
M  V30 9359 C 895.83 0.886818 1.72769 0
M  V30 9360 O 895.105 -0.0928813 1.94278 0
M  V30 9361 C 895.388 3.35657 1.30409 0
M  V30 9362 C 895.241 4.49055 0.2588 0
M  V30 9363 C 896.56 3.79595 2.22701 0
M  V30 9364 H 893.679 0.695893 0.242698 0
M  V30 9365 H 896.321 1.89887 -0.0654071 0
M  V30 9366 H 894.471 3.37038 1.9323 0
M  V30 9367 H 896.143 4.59809 -0.370631 0
M  V30 9368 H 894.386 4.31785 -0.417672 0
M  V30 9369 H 895.057 5.4701 0.740578 0
M  V30 9370 H 897.533 3.7984 1.69885 0
M  V30 9371 H 896.409 4.81292 2.63912 0
M  V30 9372 H 896.67 3.14118 3.11098 0
M  V30 9373 N 895.729 -0.261212 1.5542 0
M  V30 9374 C 896.659 -1.32712 1.92119 0
M  V30 9375 C 897.64 -1.50934 0.784406 0
M  V30 9376 O 898.825 -1.63781 1.04352 0
M  V30 9377 C 895.955 -2.68453 2.20341 0
M  V30 9378 C 894.909 -2.64947 3.36136 0
M  V30 9379 C 894.235 -4.04349 3.49865 0
M  V30 9380 C 895.535 -2.23182 4.72215 0
M  V30 9381 H 897.229 -1.02245 2.81401 0
M  V30 9382 H 894.775 -0.490406 1.35392 0
M  V30 9383 H 896.728 -3.43144 2.44603 0
M  V30 9384 H 895.452 -3.00527 1.27871 0
M  V30 9385 H 894.111 -1.92714 3.11861 0
M  V30 9386 H 893.759 -4.33665 2.5484 0
M  V30 9387 H 893.459 -4.02895 4.27726 0
M  V30 9388 H 894.983 -4.80761 3.76432 0
M  V30 9389 H 896.397 -2.87599 4.95943 0
M  V30 9390 H 894.794 -2.32867 5.53076 0
M  V30 9391 H 895.864 -1.18327 4.70241 0
M  V30 9392 N 897.207 -1.48554 -0.526253 0
M  V30 9393 C 898.484 -1.47252 -1.28748 0
M  V30 9394 C 898.864 -0.186245 -2.10277 0
M  V30 9395 O 898.212 0.831954 -2.12816 0
M  V30 9396 C 898.422 -2.73672 -2.16575 0
M  V30 9397 C 899.77 -3.22151 -2.76593 0
M  V30 9398 O 900.794 -2.74614 -2.2686 0
M  V30 9399 O 899.653 -4.04877 -3.67066 0
M  V30 9400 H 896.747 -0.588242 -0.581292 0
M  V30 9401 H 899.293 -1.60792 -0.5426 0
M  V30 9402 H 898.065 -3.58798 -1.56139 0
M  V30 9403 H 897.688 -2.6287 -2.98304 0
M  V30 9404 N 898.685 0.775411 -1.37205 0
M  V30 9405 C 899.632 1.88857 -1.32671 0
M  V30 9406 C 900.602 1.64976 -0.192899 0
M  V30 9407 O 901.787 1.86944 -0.381673 0
M  V30 9408 C 898.927 3.25871 -1.13588 0
M  V30 9409 C 898.04 3.61731 -2.36167 0
M  V30 9410 C 897.175 4.87934 -2.09985 0
M  V30 9411 C 896.214 5.16514 -3.2845 0
M  V30 9412 N 895.351 6.33905 -3.01842 0
M  V30 9413 H 900.191 1.92068 -2.27846 0
M  V30 9414 H 897.728 0.939066 -1.13225 0
M  V30 9415 H 899.686 4.04903 -1.00546 0
M  V30 9416 H 898.316 3.22045 -0.220613 0
M  V30 9417 H 897.368 2.77712 -2.59962 0
M  V30 9418 H 898.68 3.78792 -3.24528 0
M  V30 9419 H 897.834 5.74863 -1.93953 0
M  V30 9420 H 896.573 4.7297 -1.18956 0
M  V30 9421 H 895.578 4.28063 -3.45025 0
M  V30 9422 H 896.803 5.33389 -4.20325 0
M  V30 9423 H 894.749 6.20306 -2.13439 0
M  V30 9424 H 894.666 6.51364 -3.83746 0
M  V30 9425 H 895.934 7.23779 -2.8942 0
M  V30 9426 N 900.163 1.21714 1.00117 0
M  V30 9427 C 901.126 0.981338 2.07129 0
M  V30 9428 C 902.126 -0.0491116 1.60725 0
M  V30 9429 O 903.316 0.188555 1.73177 0
M  V30 9430 C 900.448 0.480608 3.37495 0
M  V30 9431 H 901.641 1.93075 2.29482 0
M  V30 9432 H 899.194 1.03467 1.17151 0
M  V30 9433 H 899.929 -0.473552 3.20824 0
M  V30 9434 H 899.714 1.22393 3.72508 0
M  V30 9435 H 901.204 0.33561 4.16249 0
M  V30 9436 N 901.641 -1.19671 1.02551 0
M  V30 9437 C 902.574 -2.21522 0.547998 0
M  V30 9438 C 903.552 -1.57363 -0.409349 0
M  V30 9439 O 904.736 -1.85638 -0.327248 0
M  V30 9440 C 901.863 -3.38101 -0.201375 0
M  V30 9441 C 900.909 -4.20601 0.706886 0
M  V30 9442 S 901.742 -4.89066 2.18116 0
M  V30 9443 C 902.898 -6.09058 1.4422 0
M  V30 9444 H 903.131 -2.61684 1.41099 0
M  V30 9445 H 900.664 -1.29864 0.835153 0
M  V30 9446 H 902.622 -4.05674 -0.627607 0
M  V30 9447 H 901.283 -2.96381 -1.04005 0
M  V30 9448 H 900.476 -5.03836 0.128554 0
M  V30 9449 H 900.078 -3.58329 1.07129 0
M  V30 9450 H 902.37 -6.73588 0.726975 0
M  V30 9451 H 903.313 -6.71368 2.25102 0
M  V30 9452 H 903.721 -5.56599 0.941176 0
M  V30 9453 N 903.119 -0.802921 -1.35613 0
M  V30 9454 C 904.066 -0.20874 -2.29854 0
M  V30 9455 C 905.036 0.655128 -1.52634 0
M  V30 9456 O 906.221 0.600979 -1.81088 0
M  V30 9457 C 903.361 0.639663 -3.3912 0
M  V30 9458 C 902.474 -0.244234 -4.31309 0
M  V30 9459 C 901.609 0.611825 -5.27665 0
M  V30 9460 C 900.648 -0.272698 -6.11492 0
M  V30 9461 N 899.785 0.543122 -6.99996 0
M  V30 9462 H 904.625 -1.01782 -2.80079 0
M  V30 9463 H 902.162 -0.513465 -1.37848 0
M  V30 9464 H 904.12 1.14668 -4.01132 0
M  V30 9465 H 902.75 1.41404 -2.9018 0
M  V30 9466 H 901.802 -0.869322 -3.70334 0
M  V30 9467 H 903.114 -0.925202 -4.90144 0
M  V30 9468 H 902.268 1.18412 -5.95032 0
M  V30 9469 H 901.007 1.32637 -4.69317 0
M  V30 9470 H 900.012 -0.857287 -5.43075 0
M  V30 9471 H 901.237 -0.985051 -6.71918 0
M  V30 9472 H 899.183 1.24171 -6.44141 0
M  V30 9473 H 899.1 -0.0798767 -7.55958 0
M  V30 9474 H 900.368 1.09881 -7.71717 0
M  V30 9475 N 904.597 1.47463 -0.556102 0
M  V30 9476 C 905.56 2.28478 0.181743 0
M  V30 9477 C 906.56 1.36886 0.843738 0
M  V30 9478 O 907.75 1.59527 0.69977 0
M  V30 9479 C 904.882 3.16534 1.26566 0
M  V30 9480 H 906.075 2.95182 -0.529892 0
M  V30 9481 H 903.628 1.53134 -0.313005 0
M  V30 9482 H 904.363 2.5452 2.00973 0
M  V30 9483 H 904.148 3.83939 0.795798 0
M  V30 9484 H 905.638 3.77579 1.78393 0
M  V30 9485 N 906.075 0.2925 1.54862 0
M  V30 9486 C 907.022 -0.587365 2.23201 0
M  V30 9487 C 907.992 -1.13623 1.21157 0
M  V30 9488 O 909.177 -1.18233 1.49752 0
M  V30 9489 C 906.317 -1.75745 2.96998 0
M  V30 9490 C 905.43 -1.24078 4.13798 0
M  V30 9491 C 904.565 -2.37405 4.75197 0
M  V30 9492 C 903.604 -1.82829 5.84157 0
M  V30 9493 N 902.741 -2.89696 6.39547 0
M  V30 9494 H 907.581 0.00202207 2.98 0
M  V30 9495 H 905.118 0.012766 1.47094 0
M  V30 9496 H 907.076 -2.44549 3.38011 0
M  V30 9497 H 905.706 -2.3186 2.24591 0
M  V30 9498 H 904.758 -0.445268 3.77785 0
M  V30 9499 H 906.07 -0.801186 4.92324 0
M  V30 9500 H 905.224 -3.14172 5.19019 0
M  V30 9501 H 903.963 -2.84688 3.95985 0
M  V30 9502 H 902.968 -1.04548 5.39768 0
M  V30 9503 H 904.193 -1.36461 6.65248 0
M  V30 9504 H 902.139 -3.36328 5.63222 0
M  V30 9505 H 902.056 -2.50206 7.13395 0
M  V30 9506 H 903.324 -3.66386 6.88027 0
M  V30 9507 N 907.553 -1.57587 0.0200696 0
M  V30 9508 C 908.799 -1.91708 -0.661503 0
M  V30 9509 C 909.132 -0.895968 -1.72296 0
M  V30 9510 O 908.407 0.082577 -1.94325 0
M  V30 9511 C 908.69 -3.36344 -1.28627 0
M  V30 9512 C 908.543 -4.49186 -0.234982 0
M  V30 9513 C 909.862 -3.80771 -2.20685 0
M  V30 9514 H 906.981 -0.69717 -0.239005 0
M  V30 9515 H 909.623 -1.8985 0.0754764 0
M  V30 9516 H 907.773 -3.38058 -1.91439 0
M  V30 9517 H 909.445 -4.59606 0.395011 0
M  V30 9518 H 907.688 -4.31557 0.440565 0
M  V30 9519 H 908.359 -5.47395 -0.711558 0
M  V30 9520 H 910.835 -3.80735 -1.67868 0
M  V30 9521 H 909.711 -4.82685 -2.61356 0
M  V30 9522 H 909.972 -3.15764 -3.09428 0
M  V30 9523 N 909.032 0.252966 -1.55557 0
M  V30 9524 C 909.995 1.29645 -1.8901 0
M  V30 9525 C 910.995 1.41378 -0.766096 0
M  V30 9526 O 912.185 1.40183 -1.03414 0
M  V30 9527 C 909.317 2.67504 -2.11316 0
M  V30 9528 H 910.51 1.01202 -2.82309 0
M  V30 9529 H 908.063 0.491977 -1.48355 0
M  V30 9530 H 908.798 3.01095 -1.20466 0
M  V30 9531 H 908.583 2.6037 -2.93172 0
M  V30 9532 H 910.073 3.42861 -2.38403 0
M  V30 9533 N 910.51 1.48831 0.518367 0
M  V30 9534 C 911.738 1.6112 1.298 0
M  V30 9535 C 912.153 0.275872 1.86774 0
M  V30 9536 O 911.51 -0.736416 1.66983 0
M  V30 9537 C 911.561 2.66675 2.44063 0
M  V30 9538 O 911.282 3.95027 1.89434 0
M  V30 9539 C 912.783 2.8951 3.35706 0
M  V30 9540 H 910.003 0.542916 0.394314 0
M  V30 9541 H 912.547 1.94743 0.624142 0
M  V30 9542 H 910.702 2.35879 3.07311 0
M  V30 9543 H 911.116 4.53031 2.64316 0
M  V30 9544 H 912.59 3.67142 4.12202 0
M  V30 9545 H 913.067 1.98768 3.91648 0
M  V30 9546 H 913.673 3.21656 2.7824 0
M  V30 9547 N 911.988 -0.768124 1.37614 0
M  V30 9548 C 913.218 -1.555 1.36027 0
M  V30 9549 C 913.626 -1.89119 -0.0554273 0
M  V30 9550 O 912.969 -1.52203 -1.02859 0
M  V30 9551 C 913.031 -2.8906 2.13739 0
M  V30 9552 C 912.695 -2.78058 3.62674 0
M  V30 9553 C 913.692 -2.48841 4.5648 0
M  V30 9554 C 911.377 -2.95966 4.05844 0
M  V30 9555 C 913.371 -2.37665 5.91434 0
M  V30 9556 C 911.058 -2.84411 5.40882 0
M  V30 9557 C 912.056 -2.55301 6.33491 0
M  V30 9558 O 911.744 -2.43779 7.66046 0
M  V30 9559 H 911.476 -0.488263 0.467521 0
M  V30 9560 H 914.03 -0.959583 1.81607 0
M  V30 9561 H 912.26 -3.50735 1.62854 0
M  V30 9562 H 913.949 -3.5048 2.04741 0
M  V30 9563 H 914.715 -2.34687 4.24437 0
M  V30 9564 H 910.594 -3.17625 3.34119 0
M  V30 9565 H 914.138 -2.14865 6.63686 0
M  V30 9566 H 910.035 -2.98134 5.72527 0
M  V30 9567 H 910.803 -2.59101 7.76408 0
M  V30 9568 N 913.466 -1.22244 -0.994698 0
M  V30 9569 C 914.396 -1.01513 -2.10279 0
M  V30 9570 C 915.377 0.0633365 -1.69982 0
M  V30 9571 O 916.562 -0.0985268 -1.9395 0
M  V30 9572 C 913.692 -0.59016 -3.42249 0
M  V30 9573 C 912.646 -1.61436 -3.96387 0
M  V30 9574 C 911.972 -1.04528 -5.24383 0
M  V30 9575 C 913.272 -3.00388 -4.27276 0
M  V30 9576 H 914.966 -1.94194 -2.2788 0
M  V30 9577 H 912.512 -0.935094 -1.09508 0
M  V30 9578 H 914.465 -0.432254 -4.19177 0
M  V30 9579 H 913.189 0.372308 -3.24471 0
M  V30 9580 H 911.848 -1.76001 -3.21589 0
M  V30 9581 H 911.496 -0.0742225 -5.02945 0
M  V30 9582 H 911.196 -1.72949 -5.61571 0
M  V30 9583 H 912.72 -0.898922 -6.03947 0
M  V30 9584 H 914.134 -2.89207 -4.95007 0
M  V30 9585 H 912.531 -3.65916 -4.75631 0
M  V30 9586 H 913.601 -3.50456 -3.35125 0
M  V30 9587 N 914.944 1.19125 -1.03184 0
M  V30 9588 C 916.192 1.8851 -0.728587 0
M  V30 9589 C 916.513 1.80195 0.74531 0
M  V30 9590 O 915.783 1.21437 1.5372 0
M  V30 9591 H 914.363 0.69784 -0.266511 0
M  V30 9592 H 917.025 1.44607 -1.3067 0
M  V30 9593 H 916.121 2.9477 -1.02554 0
M  V30 9594 N 916.422 0.810101 1.35185 0
M  V30 9595 C 917.67 0.391343 1.98275 0
M  V30 9596 C 917.991 -1.04592 1.64577 0
M  V30 9597 O 917.261 -1.72417 0.93001 0
M  V30 9598 H 915.841 0.141715 0.733434 0
M  V30 9599 H 918.503 1.03672 1.6504 0
M  V30 9600 H 917.599 0.49991 3.0807 0
M  V30 9601 N 917.9 -1.47166 0.563914 0
M  V30 9602 C 918.83 -2.32894 -0.168148 0
M  V30 9603 C 919.811 -1.44202 -0.902214 0
M  V30 9604 O 920.996 -1.73048 -0.881365 0
M  V30 9605 C 918.126 -3.26116 -1.19439 0
M  V30 9606 C 917.08 -4.24101 -0.576363 0
M  V30 9607 C 916.406 -5.06696 -1.70772 0
M  V30 9608 C 917.706 -5.20142 0.47425 0
M  V30 9609 H 919.4 -2.9435 0.547573 0
M  V30 9610 H 916.946 -1.41545 0.264778 0
M  V30 9611 H 918.899 -3.84935 -1.71474 0
M  V30 9612 H 917.623 -2.62728 -1.94014 0
M  V30 9613 H 916.282 -3.66519 -0.0772534 0
M  V30 9614 H 915.93 -4.39707 -2.44268 0
M  V30 9615 H 915.63 -5.7304 -1.29994 0
M  V30 9616 H 917.154 -5.68375 -2.2312 0
M  V30 9617 H 918.568 -5.73286 0.0397035 0
M  V30 9618 H 916.965 -5.94726 0.801287 0
M  V30 9619 H 918.035 -4.65214 1.36764 0
M  V30 9620 N 919.378 -0.300708 -1.54705 0
M  V30 9621 C 920.789 0.191995 -1.8571 0
M  V30 9622 C 921.14 1.53447 -1.22264 0
M  V30 9623 O 920.265 2.10054 -0.520226 0
M  V30 9624 C 920.86 0.355148 -3.36933 0
M  V30 9625 C 919.419 0.792071 -3.67972 0
M  V30 9626 C 918.566 -0.099756 -2.77121 0
M  V30 9627 H 921.517 -0.521729 -1.49879 0
M  V30 9628 H 921.538 1.18977 -3.61421 0
M  V30 9629 H 921.05 -0.622075 -3.83082 0
M  V30 9630 H 919.151 1.77986 -3.27341 0
M  V30 9631 H 919.264 0.611661 -4.75179 0
M  V30 9632 H 917.628 0.420909 -2.51198 0
M  V30 9633 H 918.411 -1.07333 -3.2609 0
M  V30 9634 N 920.856 1.57574 -0.0284266 0
M  V30 9635 C 922.133 1.83064 0.688979 0
M  V30 9636 C 922.513 0.91219 1.90374 0
M  V30 9637 O 921.861 -0.0323672 2.28477 0
M  V30 9638 C 922.071 3.32262 1.06785 0
M  V30 9639 C 923.419 3.98717 1.45978 0
M  V30 9640 O 924.443 3.36753 1.16085 0
M  V30 9641 O 923.302 5.07927 2.01673 0
M  V30 9642 H 920.396 0.7548 0.337944 0
M  V30 9643 H 922.942 1.69607 -0.0560555 0
M  V30 9644 H 921.714 3.90772 0.203235 0
M  V30 9645 H 921.337 3.50823 1.87107 0
M  V30 9646 N 922.334 -0.244713 1.55689 0
M  V30 9647 C 923.58 -0.973886 1.77886 0
M  V30 9648 C 923.913 -1.8489 0.594071 0
M  V30 9649 O 923.188 -1.90182 -0.407564 0
M  V30 9650 C 923.471 -1.83255 3.09983 0
M  V30 9651 C 923.324 -0.985571 4.3887 0
M  V30 9652 C 924.643 -2.81464 3.38329 0
M  V30 9653 H 921.762 -0.352629 0.647165 0
M  V30 9654 H 924.404 -0.244243 1.88424 0
M  V30 9655 H 922.554 -2.45464 3.01131 0
M  V30 9656 H 924.226 -0.382005 4.59716 0
M  V30 9657 H 922.469 -0.29002 4.32829 0
M  V30 9658 H 923.14 -1.62022 5.27686 0
M  V30 9659 H 925.616 -2.2939 3.47159 0
M  V30 9660 H 924.492 -3.38663 4.31971 0
M  V30 9661 H 924.753 -3.58037 2.59349 0
M  V30 9662 N 923.813 -1.49104 -0.510467 0
M  V30 9663 C 925.224 -1.51423 -1.09215 0
M  V30 9664 C 925.575 -0.295035 -1.93969 0
M  V30 9665 O 924.7 0.596064 -2.08029 0
M  V30 9666 C 925.295 -2.74387 -1.98739 0
M  V30 9667 C 923.854 -2.79515 -2.52088 0
M  V30 9668 C 923.001 -2.4521 -1.29488 0
M  V30 9669 H 925.952 -1.55938 -0.294807 0
M  V30 9670 H 925.973 -2.54012 -2.83298 0
M  V30 9671 H 925.485 -3.63105 -1.37026 0
M  V30 9672 H 923.586 -1.95054 -3.17466 0
M  V30 9673 H 923.699 -3.81447 -2.89887 0
M  V30 9674 H 922.063 -1.96785 -1.61703 0
M  V30 9675 H 922.846 -3.36192 -0.694978 0
M  V30 9676 N 925.291 0.760815 -1.38019 0
M  V30 9677 C 926.538 1.51973 -1.3383 0
M  V30 9678 C 926.866 1.9436 0.0738855 0
M  V30 9679 O 926.121 1.65181 1.04946 0
M  V30 9680 C 926.42 2.79024 -2.23339 0
M  V30 9681 C 926.086 2.55636 -3.71431 0
M  V30 9682 C 924.748 2.48966 -4.11788 0
M  V30 9683 C 927.1 2.35018 -4.65205 0
M  V30 9684 C 924.428 2.19684 -5.44018 0
M  V30 9685 C 926.78 2.07258 -5.97685 0
M  V30 9686 C 925.444 1.9904 -6.37134 0
M  V30 9687 H 924.714 0.556108 -0.489719 0
M  V30 9688 H 927.361 0.87545 -1.70318 0
M  V30 9689 H 925.666 3.48065 -1.79883 0
M  V30 9690 H 927.363 3.36951 -2.17405 0
M  V30 9691 H 923.953 2.61695 -3.39432 0
M  V30 9692 H 928.137 2.39154 -4.34878 0
M  V30 9693 H 923.393 2.11825 -5.73533 0
M  V30 9694 H 927.567 1.90307 -6.69893 0
M  V30 9695 H 925.194 1.76115 -7.39519 0
M  V30 9696 N 926.769 1.22769 0.988202 0
M  V30 9697 C 927.994 1.08239 1.76915 0
M  V30 9698 C 928.419 -0.362519 1.84574 0
M  V30 9699 O 927.777 -1.26202 1.30165 0
M  V30 9700 C 927.825 1.70363 3.17819 0
M  V30 9701 O 926.929 0.960484 4.01059 0
M  V30 9702 H 926.27 0.379872 0.544604 0
M  V30 9703 H 928.8 1.62663 1.24104 0
M  V30 9704 H 928.81 1.7528 3.6843 0
M  V30 9705 H 927.485 2.75505 3.1156 0
M  V30 9706 H 926.062 0.987667 3.59582 0
M  V30 9707 N 928.247 -1.18576 1.03814 0
M  V30 9708 C 929.21 -2.2033 0.63146 0
M  V30 9709 C 930.21 -1.57787 -0.309816 0
M  V30 9710 O 931.4 -1.73938 -0.0955598 0
M  V30 9711 C 928.532 -3.40818 -0.0745963 0
M  V30 9712 H 929.725 -2.57824 1.53189 0
M  V30 9713 H 927.278 -1.32416 0.830398 0
M  V30 9714 H 928.013 -3.08853 -0.988947 0
M  V30 9715 H 927.798 -3.87453 0.6019 0
M  V30 9716 H 929.288 -4.16166 -0.345727 0
M  V30 9717 N 929.725 -0.817259 -1.34754 0
M  V30 9718 C 930.953 -0.415451 -2.02686 0
M  V30 9719 C 931.368 0.97688 -1.61563 0
M  V30 9720 O 930.725 1.63125 -0.818321 0
M  V30 9721 C 930.776 -0.501486 -3.58005 0
M  V30 9722 O 930.497 -1.83893 -3.97637 0
M  V30 9723 C 931.998 -0.0938504 -4.43201 0
M  V30 9724 H 929.218 -0.16742 -0.649778 0
M  V30 9725 H 931.762 -1.10384 -1.7215 0
M  V30 9726 H 929.917 0.138766 -3.87151 0
M  V30 9727 H 930.331 -1.8092 -4.92309 0
M  V30 9728 H 931.805 -0.205145 -5.51619 0
M  V30 9729 H 932.282 0.962011 -4.28535 0
M  V30 9730 H 932.888 -0.707677 -4.19371 0
M  V30 9731 N 931.203 1.46865 -0.571711 0
M  V30 9732 C 932.614 1.86158 -0.142181 0
M  V30 9733 C 932.965 1.47663 1.2919 0
M  V30 9734 O 932.09 0.886393 1.97413 0
M  V30 9735 C 932.685 3.37867 -0.251256 0
M  V30 9736 C 931.244 3.76198 0.123329 0
M  V30 9737 C 930.391 2.70902 -0.592232 0
M  V30 9738 H 933.342 1.38176 -0.780587 0
M  V30 9739 H 933.363 3.76842 0.526331 0
M  V30 9740 H 932.875 3.65853 -1.2951 0
M  V30 9741 H 930.976 3.53829 1.16773 0
M  V30 9742 H 931.089 4.78471 -0.24533 0
M  V30 9743 H 929.453 2.54678 -0.0336927 0
M  V30 9744 H 930.236 3.01729 -1.63751 0
M  V30 9745 N 932.681 0.308908 1.54543 0
M  V30 9746 C 933.927 -0.298478 2.00592 0
M  V30 9747 C 934.26 -1.52929 1.19692 0
M  V30 9748 O 933.535 -1.9254 0.27542 0
M  V30 9749 C 933.818 -0.647218 3.54236 0
M  V30 9750 C 933.671 0.593284 4.4587 0
M  V30 9751 C 934.99 -1.47064 4.14801 0
M  V30 9752 H 932.109 -0.107012 0.72919 0
M  V30 9753 H 934.751 0.422578 1.85241 0
M  V30 9754 H 932.901 -1.26153 3.67447 0
M  V30 9755 H 934.573 1.2317 4.44552 0
M  V30 9756 H 932.816 1.22501 4.16144 0
M  V30 9757 H 933.487 0.305018 5.51157 0
M  V30 9758 H 935.963 -0.951511 4.05075 0
M  V30 9759 H 934.839 -1.68343 5.22448 0
M  V30 9760 H 935.1 -2.4623 3.67183 0
M  V30 9761 N 934.159 -1.57557 0.0367827 0
M  V30 9762 C 935.107 -2.11844 -0.960454 0
M  V30 9763 C 936.101 -1.04681 -1.33185 0
M  V30 9764 O 937.307 -1.23108 -1.31318 0
M  V30 9765 H 933.682 -0.676921 -0.32754 0
M  V30 9766 H 935.653 -2.94557 -0.477346 0
M  V30 9767 C 934.402 -2.66683 -2.23105 0
M  V30 9768 H 933.725 -3.48795 -1.95403 0
M  V30 9769 H 935.165 -3.08305 -2.91074 0
M  V30 9770 C 933.624 -1.59782 -2.96599 0
M  V30 9771 O 934.154 -1.00214 -3.88999 0
M  V30 9772 N 932.36 -1.31644 -2.59072 0
M  V30 9773 H 931.907 -1.80272 -1.8401 0
M  V30 9774 H 931.865 -0.603457 -3.08554 0
M  V30 9775 N 935.637 0.236453 -1.55816 0
M  V30 9776 C 936.6 1.27633 -1.90375 0
M  V30 9777 C 937.6 1.40557 -0.781048 0
M  V30 9778 O 938.79 1.39078 -1.04895 0
M  V30 9779 C 935.922 2.65247 -2.14142 0
M  V30 9780 H 937.115 0.982019 -2.83366 0
M  V30 9781 H 934.668 0.476215 -1.48869 0
M  V30 9782 H 935.403 2.99801 -1.23653 0
M  V30 9783 H 935.188 2.57246 -2.95917 0
M  V30 9784 H 936.678 3.40313 -2.42026 0
M  V30 9785 N 937.115 1.49373 0.502552 0
M  V30 9786 C 938.362 1.58781 1.25678 0
M  V30 9787 C 938.69 0.273819 1.92563 0
M  V30 9788 O 937.945 -0.738141 1.81246 0
M  V30 9789 C 938.244 2.69508 2.34735 0
M  V30 9790 C 937.91 4.11057 1.85318 0
M  V30 9791 C 936.572 4.49578 1.7156 0
M  V30 9792 C 938.924 4.99653 1.48312 0
M  V30 9793 C 936.252 5.74469 1.19172 0
M  V30 9794 C 938.604 6.2506 0.97377 0
M  V30 9795 C 937.268 6.62412 0.822573 0
M  V30 9796 H 936.538 0.581021 0.459887 0
M  V30 9797 H 939.185 1.83197 0.557767 0
M  V30 9798 H 937.49 2.39057 3.10418 0
M  V30 9799 H 939.187 2.73997 2.92791 0
M  V30 9800 H 935.777 3.80651 1.96985 0
M  V30 9801 H 939.961 4.70549 1.57789 0
M  V30 9802 H 935.217 6.0211 1.06176 0
M  V30 9803 H 939.391 6.93089 0.678233 0
M  V30 9804 H 937.018 7.59069 0.414453 0
M  V30 9805 N 938.594 -0.753485 1.38421 0
M  V30 9806 C 939.824 -1.54049 1.37669 0
M  V30 9807 C 940.232 -1.89167 -0.0353656 0
M  V30 9808 O 939.575 -1.53285 -1.01239 0
M  V30 9809 C 939.637 -2.86777 2.16793 0
M  V30 9810 C 939.301 -2.74196 3.65603 0
M  V30 9811 C 940.298 -2.43985 4.59094 0
M  V30 9812 C 937.983 -2.91645 4.0896 0
M  V30 9813 C 939.977 -2.31379 5.93921 0
M  V30 9814 C 937.664 -2.78658 5.43868 0
M  V30 9815 C 938.662 -2.48568 6.36163 0
M  V30 9816 O 938.35 -2.3564 7.68589 0
M  V30 9817 H 938.082 -0.483276 0.472673 0
M  V30 9818 H 940.636 -0.940267 1.82615 0
M  V30 9819 H 938.866 -3.48988 1.66565 0
M  V30 9820 H 940.555 -3.48289 2.08446 0
M  V30 9821 H 941.321 -2.30172 4.26902 0
M  V30 9822 H 937.2 -3.14063 3.37469 0
M  V30 9823 H 940.744 -2.07813 6.65927 0
M  V30 9824 H 936.641 -2.92044 5.75656 0
M  V30 9825 H 937.409 -2.50851 7.79112 0
M  V30 9826 N 940.072 -1.23292 -0.981677 0
M  V30 9827 C 941.02 -1.0104 -2.09508 0
M  V30 9828 C 942.014 0.0501977 -1.69326 0
M  V30 9829 O 943.22 -0.103197 -1.79704 0
M  V30 9830 H 939.595 -0.309629 -0.685298 0
M  V30 9831 H 941.566 -1.95493 -2.25444 0
M  V30 9832 C 940.315 -0.616885 -3.42184 0
M  V30 9833 H 939.638 -1.4247 -3.73554 0
M  V30 9834 H 941.078 -0.500688 -4.21033 0
M  V30 9835 C 939.537 0.674721 -3.30074 0
M  V30 9836 O 940.067 1.72421 -3.62814 0
M  V30 9837 N 938.273 0.650151 -2.83234 0
M  V30 9838 H 937.82 -0.204225 -2.56789 0
M  V30 9839 H 937.778 1.51458 -2.75514 0
M  V30 9840 N 941.55 1.18024 -1.04442 0
M  V30 9841 C 942.798 1.87727 -0.74854 0
M  V30 9842 C 943.119 1.80975 0.726156 0
M  V30 9843 O 942.389 1.23061 1.52423 0
M  V30 9844 H 940.969 0.694974 -0.273897 0
M  V30 9845 H 943.631 1.43213 -1.32197 0
M  V30 9846 H 942.727 2.93665 -1.05674 0
M  V30 9847 N 943.028 0.824394 1.34319 0
M  V30 9848 C 944.268 0.419044 2.00058 0
M  V30 9849 C 944.632 -0.999504 1.63933 0
M  V30 9850 O 945.833 -1.50781 2.22527 0
M  V30 9851 C 944.104 0.616897 3.52036 0
M  V30 9852 S 945.663 0.304614 4.37741 0
M  V30 9853 H 942.481 0.158265 0.693162 0
M  V30 9854 H 945.083 1.07053 1.63585 0
M  V30 9855 H 943.787 1.64896 3.75816 0
M  V30 9856 H 943.318 -0.0492693 3.93369 0
M  V30 9857 H 945.333 -0.88114 4.88314 0
M  V30 9858 N 944.506 -1.46559 0.579492 0
M  V30 9859 C 945.439 -2.27287 -0.203894 0
M  V30 9860 C 946.417 -1.3543 -0.899865 0
M  V30 9861 O 947.601 -1.64836 -0.914398 0
M  V30 9862 C 944.728 -3.13077 -1.2923 0
M  V30 9863 C 943.774 -4.20675 -0.702505 0
M  V30 9864 S 944.607 -5.3345 0.468136 0
M  V30 9865 C 945.763 -6.22806 -0.621544 0
M  V30 9866 H 945.996 -2.93382 0.481083 0
M  V30 9867 H 943.529 -1.49992 0.366311 0
M  V30 9868 H 945.487 -3.63069 -1.91548 0
M  V30 9869 H 944.148 -2.46302 -1.94921 0
M  V30 9870 H 943.341 -4.80516 -1.52053 0
M  V30 9871 H 942.943 -3.73678 -0.155046 0
M  V30 9872 H 945.235 -6.60503 -1.50803 0
M  V30 9873 H 946.178 -7.08075 -0.059961 0
M  V30 9874 H 946.586 -5.56882 -0.924242 0
M  V30 9875 N 945.984 -0.3171 -1.54377 0
M  V30 9876 C 946.894 0.560867 -2.27797 0
M  V30 9877 C 947.91 1.13473 -1.31908 0
M  V30 9878 O 949.086 1.15608 -1.64914 0
M  V30 9879 C 946.151 1.70886 -3.0166 0
M  V30 9880 C 945.212 1.16745 -4.13121 0
M  V30 9881 C 944.445 2.26073 -4.83453 0
M  V30 9882 O 944.668 3.46292 -4.53252 0
M  V30 9883 O 943.602 1.91856 -5.70504 0
M  V30 9884 H 947.428 -0.035193 -3.0368 0
M  V30 9885 H 945.013 -0.0830062 -1.49169 0
M  V30 9886 H 946.895 2.37736 -3.47936 0
M  V30 9887 H 945.57 2.29122 -2.28658 0
M  V30 9888 H 944.477 0.464224 -3.71209 0
M  V30 9889 H 945.81 0.630307 -4.88147 0
M  V30 9890 N 947.462 1.57535 -0.0451378 0
M  V30 9891 C 948.708 1.92736 0.630921 0
M  V30 9892 C 949.041 0.923265 1.70849 0
M  V30 9893 O 948.316 -0.0516512 1.94431 0
M  V30 9894 C 948.599 3.38348 1.23259 0
M  V30 9895 C 948.452 4.49503 0.16349 0
M  V30 9896 C 949.771 3.84233 2.14599 0
M  V30 9897 H 946.89 0.700884 0.227883 0
M  V30 9898 H 949.532 1.89706 -0.10567 0
M  V30 9899 H 947.682 3.41061 1.86037 0
M  V30 9900 H 949.354 4.58919 -0.46808 0
M  V30 9901 H 947.597 4.30802 -0.509166 0
M  V30 9902 H 948.268 5.48457 0.624382 0
M  V30 9903 H 950.744 3.83358 1.6179 0
M  V30 9904 H 949.62 4.86781 2.53644 0
M  V30 9905 H 949.881 3.20646 3.04366 0
M  V30 9906 N 948.94 -0.228186 1.55939 0
M  V30 9907 C 949.888 -1.30239 1.92719 0
M  V30 9908 C 950.882 -1.48865 0.808424 0
M  V30 9909 O 952.088 -1.50118 0.993204 0
M  V30 9910 H 948.463 -0.436509 0.612343 0
M  V30 9911 H 950.434 -0.964965 2.82367 0
M  V30 9912 C 949.183 -2.647 2.25453 0
M  V30 9913 H 948.506 -2.51173 3.1105 0
M  V30 9914 H 949.946 -3.38691 2.55077 0
M  V30 9915 C 948.405 -3.1921 1.07734 0
M  V30 9916 O 948.935 -4.00301 0.335019 0
M  V30 9917 N 947.141 -2.77492 0.862938 0
M  V30 9918 H 946.688 -2.11657 1.4683 0
M  V30 9919 H 946.646 -3.14306 0.0770119 0
M  V30 9920 N 950.418 -1.49637 -0.494624 0
M  V30 9921 C 951.667 -1.58691 -1.24499 0
M  V30 9922 C 951.98 -0.281763 -1.9356 0
M  V30 9923 O 953.186 -0.250925 -2.70338 0
M  V30 9924 C 951.642 -2.8002 -2.26091 0
M  V30 9925 C 951.25 -4.17318 -1.6294 0
M  V30 9926 C 952.994 -2.98407 -3.01916 0
M  V30 9927 C 950.901 -5.29862 -2.62679 0
M  V30 9928 H 949.831 -0.590888 -0.468367 0
M  V30 9929 H 952.482 -1.76034 -0.518112 0
M  V30 9930 H 950.864 -2.56185 -3.01969 0
M  V30 9931 H 952.038 -4.51315 -0.930108 0
M  V30 9932 H 950.353 -4.04342 -0.994819 0
M  V30 9933 H 952.95 -3.79658 -3.76516 0
M  V30 9934 H 953.293 -2.09214 -3.5991 0
M  V30 9935 H 953.826 -3.22312 -2.33152 0
M  V30 9936 H 950.565 -6.21134 -2.09458 0
M  V30 9937 H 950.085 -5.00311 -3.3083 0
M  V30 9938 H 951.764 -5.59461 -3.2498 0
M  V30 9939 N 951.896 0.746133 -1.38819 0
M  V30 9940 C 952.844 1.88137 -1.36774 0
M  V30 9941 C 953.838 1.67508 -0.252495 0
M  V30 9942 O 955.044 1.74985 -0.421935 0
M  V30 9943 H 951.419 0.619116 -0.426849 0
M  V30 9944 H 953.39 1.86978 -2.32555 0
M  V30 9945 C 952.139 3.25703 -1.21708 0
M  V30 9946 H 951.462 3.42168 -2.06788 0
M  V30 9947 H 952.902 4.05361 -1.24332 0
M  V30 9948 C 951.361 3.36816 0.0754257 0
M  V30 9949 O 951.891 3.87742 1.04972 0
M  V30 9950 N 950.097 2.90287 0.134761 0
M  V30 9951 H 949.644 2.49034 -0.658779 0
M  V30 9952 H 949.602 2.98103 0.999109 0
M  V30 9953 N 953.375 1.23811 0.975125 0
M  V30 9954 C 954.623 1.07124 1.71373 0
M  V30 9955 C 954.944 -0.391864 1.91022 0
M  V30 9956 O 954.214 -1.28041 1.48265 0
M  V30 9957 H 952.794 0.393415 0.635007 0
M  V30 9958 H 955.456 1.55612 1.17349 0
M  V30 9959 H 954.552 1.56338 2.7012 0
M  V30 9960 N 954.853 -1.17469 1.05066 0
M  V30 9961 C 956.099 -1.87976 0.761113 0
M  V30 9962 C 956.432 -1.80756 -0.709995 0
M  V30 9963 O 955.707 -1.21469 -1.51906 0
M  V30 9964 C 955.99 -3.38055 1.2406 0
M  V30 9965 C 955.843 -3.54032 2.77455 0
M  V30 9966 C 957.162 -4.32036 0.838612 0
M  V30 9967 H 954.281 -0.682573 0.277963 0
M  V30 9968 H 956.923 -1.38147 1.30443 0
M  V30 9969 H 955.073 -3.80622 0.778388 0
M  V30 9970 H 956.745 -3.20489 3.3179 0
M  V30 9971 H 954.988 -2.96352 3.16793 0
M  V30 9972 H 955.659 -4.59377 3.06066 0
M  V30 9973 H 958.135 -3.97303 1.23651 0
M  V30 9974 H 957.011 -5.35583 1.20173 0
M  V30 9975 H 957.272 -4.41349 -0.257498 0
M  V30 9976 N 956.331 -0.831506 -1.3388 0
M  V30 9977 C 957.263 -0.216908 -2.28171 0
M  V30 9978 C 958.276 0.598141 -1.51414 0
M  V30 9979 O 959.465 0.426416 -1.73332 0
M  V30 9980 C 956.565 0.713831 -3.31297 0
M  V30 9981 C 955.738 -0.0602673 -4.37358 0
M  V30 9982 C 954.797 0.792696 -5.20195 0
M  V30 9983 O 953.823 0.234564 -5.68716 0
M  V30 9984 N 955.025 2.11119 -5.40748 0
M  V30 9985 H 957.79 -1.02704 -2.81553 0
M  V30 9986 H 955.351 -0.689272 -1.46495 0
M  V30 9987 H 957.343 1.28925 -3.83615 0
M  V30 9988 H 955.913 1.42469 -2.78247 0
M  V30 9989 H 955.133 -0.817041 -3.8564 0
M  V30 9990 H 956.421 -0.592822 -5.05335 0
M  V30 9991 H 955.819 2.58828 -5.03016 0
M  V30 9992 H 954.376 2.63527 -5.96151 0
M  V30 9993 N 957.809 1.4625 -0.587256 0
M  V30 9994 C 958.739 2.33132 0.131076 0
M  V30 9995 C 959.72 1.45619 0.879158 0
M  V30 9996 O 960.905 1.74428 0.853723 0
M  V30 9997 C 958.035 3.27975 1.14236 0
M  V30 9998 C 956.989 4.24965 0.508819 0
M  V30 9999 C 956.315 5.09349 1.62689 0
M  V30 10000 C 957.615 5.19322 -0.55694 0
M  V30 10001 H 959.309 2.93442 -0.594333 0
M  V30 10002 H 956.855 1.41106 -0.287263 0
M  V30 10003 H 958.808 3.87614 1.65328 0
M  V30 10004 H 957.532 2.65781 1.8981 0
M  V30 10005 H 956.191 3.66595 0.0189337 0
M  V30 10006 H 955.839 4.43537 2.37242 0
M  V30 10007 H 955.539 5.75036 1.20861 0
M  V30 10008 H 957.063 5.71852 2.14049 0
M  V30 10009 H 958.477 5.73151 -0.130903 0
M  V30 10010 H 956.874 5.93376 -0.895801 0
M  V30 10011 H 957.944 4.62979 -1.44148 0
M  V30 10012 N 959.287 0.325282 1.54207 0
M  V30 10013 C 960.564 -0.33113 1.92777 0
M  V30 10014 C 960.944 -1.69739 1.25506 0
M  V30 10015 O 960.292 -2.24983 0.399385 0
M  V30 10016 C 960.502 -0.421636 3.46444 0
M  V30 10017 C 961.85 -0.681111 4.19101 0
M  V30 10018 O 962.874 -0.504488 3.52609 0
M  V30 10019 O 961.733 -1.02196 5.3686 0
M  V30 10020 H 958.827 -0.18943 0.805013 0
M  V30 10021 H 961.373 0.375123 1.65502 0
M  V30 10022 H 960.145 0.537862 3.87586 0
M  V30 10023 H 959.768 -1.1754 3.79829 0
M  V30 10024 N 960.765 -1.57509 0.0534917 0
M  V30 10025 C 961.695 -2.14698 -0.917999 0
M  V30 10026 C 962.676 -1.06924 -1.32292 0
M  V30 10027 O 963.861 -1.34875 -1.39723 0
M  V30 10028 C 960.991 -2.69383 -2.19203 0
M  V30 10029 C 959.945 -3.82161 -1.9271 0
M  V30 10030 C 959.271 -4.23373 -3.26587 0
M  V30 10031 C 960.571 -5.07199 -1.24686 0
M  V30 10032 H 962.265 -2.96125 -0.44165 0
M  V30 10033 H 959.811 -1.42446 -0.210993 0
M  V30 10034 H 961.764 -3.08031 -2.87567 0
M  V30 10035 H 960.488 -1.85151 -2.69048 0
M  V30 10036 H 959.147 -3.43989 -1.26757 0
M  V30 10037 H 958.795 -3.36089 -3.74237 0
M  V30 10038 H 958.495 -4.99385 -3.09658 0
M  V30 10039 H 960.019 -4.64623 -3.96178 0
M  V30 10040 H 961.433 -5.43279 -1.83088 0
M  V30 10041 H 959.83 -5.88369 -1.18076 0
M  V30 10042 H 960.9 -4.84386 -0.223227 0
M  V30 10043 N 962.243 0.219913 -1.56058 0
M  V30 10044 C 963.52 0.968493 -1.6994 0
M  V30 10045 C 963.9 2.02358 -0.601219 0
M  V30 10046 O 963.248 2.25121 0.391534 0
M  V30 10047 C 963.458 1.57745 -3.11316 0
M  V30 10048 C 964.806 2.06908 -3.70775 0
M  V30 10049 O 965.83 1.67636 -3.14288 0
M  V30 10050 O 964.689 2.79096 -4.69859 0
M  V30 10051 H 961.783 0.452521 -0.692209 0
M  V30 10052 H 964.329 0.211566 -1.68376 0
M  V30 10053 H 963.101 0.815687 -3.82704 0
M  V30 10054 H 962.724 2.39987 -3.17005 0
M  V30 10055 N 963.721 1.49897 0.486681 0
M  V30 10056 C 964.631 1.70379 1.6127 0
M  V30 10057 C 965.647 0.58659 1.63814 0
M  V30 10058 O 966.823 0.863044 1.81971 0
M  V30 10059 C 963.888 1.77911 2.97571 0
M  V30 10060 C 962.949 3.01569 3.0554 0
M  V30 10061 C 962.182 3.08732 4.35339 0
M  V30 10062 O 962.405 2.23099 5.2496 0
M  V30 10063 O 961.339 4.01325 4.48578 0
M  V30 10064 H 965.165 2.65799 1.46916 0
M  V30 10065 H 962.75 1.33808 0.664516 0
M  V30 10066 H 964.632 1.85135 3.78554 0
M  V30 10067 H 963.307 0.856722 3.12157 0
M  V30 10068 H 962.214 2.99854 2.23693 0
M  V30 10069 H 963.547 3.93335 2.95886 0
M  V30 10070 N 965.199 -0.738761 1.39212 0
M  V30 10071 C 966.162 -1.83441 1.37412 0
M  V30 10072 C 967.162 -1.58484 0.271908 0
M  V30 10073 O 968.352 -1.65954 0.529609 0
M  V30 10074 C 965.484 -3.21167 1.143 0
M  V30 10075 H 966.677 -1.86441 2.34904 0
M  V30 10076 H 964.23 -0.942023 1.24722 0
M  V30 10077 H 964.965 -3.23829 0.174756 0
M  V30 10078 H 964.75 -3.40678 1.94116 0
M  V30 10079 H 966.24 -4.01231 1.15773 0
M  V30 10080 N 966.677 -1.24326 -0.968545 0
M  V30 10081 C 967.926 -1.07647 -1.70572 0
M  V30 10082 C 968.239 0.384821 -1.91777 0
M  V30 10083 O 969.445 0.671782 -2.63058 0
M  V30 10084 C 967.901 -1.87799 -3.07017 0
M  V30 10085 C 967.509 -3.38333 -2.93658 0
M  V30 10086 C 969.253 -1.79647 -3.84613 0
M  V30 10087 C 967.16 -4.10831 -4.25407 0
M  V30 10088 H 966.09 -0.399216 -0.639642 0
M  V30 10089 H 968.741 -1.484 -1.07934 0
M  V30 10090 H 967.123 -1.3986 -3.7048 0
M  V30 10091 H 968.297 -3.93845 -2.39213 0
M  V30 10092 H 966.612 -3.47427 -2.29528 0
M  V30 10093 H 969.209 -2.31116 -4.82172 0
M  V30 10094 H 969.552 -0.761553 -4.09275 0
M  V30 10095 H 970.085 -2.25261 -3.27875 0
M  V30 10096 H 966.824 -5.14679 -4.05939 0
M  V30 10097 H 966.344 -3.60105 -4.79671 0
M  V30 10098 H 968.023 -4.17783 -4.94031 0
M  V30 10099 N 968.156 1.1691 -1.05688 0
M  V30 10100 C 969.381 1.91745 -0.790478 0
M  V30 10101 C 969.806 1.76568 0.648478 0
M  V30 10102 O 969.164 1.08682 1.45114 0
M  V30 10103 C 969.212 3.4067 -1.18222 0
M  V30 10104 O 968.316 4.11177 -0.317341 0
M  V30 10105 H 967.657 0.5976 -0.28943 0
M  V30 10106 H 970.187 1.48157 -1.41105 0
M  V30 10107 H 970.197 3.91424 -1.15114 0
M  V30 10108 H 968.872 3.51036 -2.2304 0
M  V30 10109 H 967.449 3.70645 -0.409459 0
M  V30 10110 N 969.634 0.838594 1.33437 0
M  V30 10111 C 970.581 0.269609 2.2922 0
M  V30 10112 C 971.551 -0.614429 1.54318 0
M  V30 10113 O 972.736 -0.552756 1.82618 0
M  V30 10114 C 969.876 -0.549527 3.40697 0
M  V30 10115 C 968.989 0.358502 4.3051 0
M  V30 10116 C 968.124 -0.471709 5.29101 0
M  V30 10117 C 967.163 0.434728 6.10554 0
M  V30 10118 N 966.3 -0.357339 7.0119 0
M  V30 10119 H 971.14 1.09172 2.77282 0
M  V30 10120 H 968.677 0.549832 1.36438 0
M  V30 10121 H 970.635 -1.03992 4.04032 0
M  V30 10122 H 969.265 -1.33661 2.93828 0
M  V30 10123 H 968.317 0.967204 3.67899 0
M  V30 10124 H 969.629 1.05483 4.87519 0
M  V30 10125 H 968.783 -1.02594 5.97963 0
M  V30 10126 H 967.522 -1.20147 4.72669 0
M  V30 10127 H 966.527 1.00097 5.40611 0
M  V30 10128 H 967.752 1.16285 6.6907 0
M  V30 10129 H 965.698 -1.07049 6.47207 0
M  V30 10130 H 965.615 0.280277 7.5548 0
M  V30 10131 H 966.883 -0.893814 7.74359 0
M  V30 10132 N 971.112 -1.45937 0.595003 0
M  V30 10133 C 972.062 -2.27491 -0.152331 0
M  V30 10134 C 973.046 -1.36591 -0.850396 0
M  V30 10135 O 974.238 -1.60675 -0.742462 0
M  V30 10136 C 971.367 -3.23203 -1.15735 0
M  V30 10137 C 970.453 -4.2159 -0.46077 0
M  V30 10138 N 970.844 -5.03416 0.490555 0
M  V30 10139 C 969.142 -4.40313 -0.709949 0
M  V30 10140 C 969.843 -5.74714 0.898825 0
M  V30 10141 N 968.819 -5.43046 0.24529 0
M  V30 10142 H 972.621 -2.8815 0.578526 0
M  V30 10143 H 970.135 -1.56936 0.417716 0
M  V30 10144 H 972.132 -3.8035 -1.70704 0
M  V30 10145 H 970.792 -2.64104 -1.8889 0
M  V30 10146 H 971.803 -5.10597 0.866692 0
M  V30 10147 H 968.48 -3.92351 -1.42713 0
M  V30 10148 H 969.87 -6.50487 1.68273 0
M  V30 10149 N 972.59 -0.333456 -1.54032 0
M  V30 10150 C 973.538 0.543414 -2.26163 0
M  V30 10151 C 974.532 1.11037 -1.27934 0
M  V30 10152 O 975.738 1.05727 -1.45677 0
M  V30 10153 H 972.113 0.19391 -0.726569 0
M  V30 10154 H 974.084 -0.0871052 -2.98273 0
M  V30 10155 C 972.833 1.68769 -3.03994 0
M  V30 10156 H 972.156 1.26069 -3.79403 0
M  V30 10157 H 973.596 2.27662 -3.57695 0
M  V30 10158 C 972.055 2.61117 -2.12884 0
M  V30 10159 O 972.585 3.63097 -1.71823 0
M  V30 10160 N 970.791 2.29573 -1.7817 0
M  V30 10161 H 970.338 1.46684 -2.11759 0
M  V30 10162 H 970.296 2.91622 -1.1749 0
M  V30 10163 N 974.068 1.57479 -0.061844 0
M  V30 10164 C 975.345 1.84484 0.649993 0
M  V30 10165 C 975.725 0.952366 1.88396 0
M  V30 10166 O 975.073 0.0161035 2.28494 0
M  V30 10167 C 975.283 3.34452 0.997133 0
M  V30 10168 C 976.631 4.01724 1.37488 0
M  V30 10169 O 977.655 3.3914 1.08916 0
M  V30 10170 O 976.514 5.12091 1.90854 0
M  V30 10171 H 973.608 0.761798 0.321858 0
M  V30 10172 H 976.154 1.6945 -0.0920192 0
M  V30 10173 H 974.926 3.91115 0.120301 0
M  V30 10174 H 974.549 3.54713 1.79624 0
M  V30 10175 N 975.546 -0.211634 1.56173 0
M  V30 10176 C 976.795 -0.932647 1.78842 0
M  V30 10177 C 977.108 -1.85103 0.63217 0
M  V30 10178 O 978.314 -2.61143 0.742746 0
M  V30 10179 C 976.77 -1.70866 3.16753 0
M  V30 10180 C 976.378 -0.835934 4.40132 0
M  V30 10181 C 978.122 -2.4203 3.48743 0
M  V30 10182 C 976.029 -1.60987 5.69067 0
M  V30 10183 H 974.959 -0.351983 0.666801 0
M  V30 10184 H 977.61 -0.186284 1.82552 0
M  V30 10185 H 975.992 -2.4983 3.07247 0
M  V30 10186 H 977.166 -0.0861298 4.60719 0
M  V30 10187 H 975.481 -0.235941 4.15731 0
M  V30 10188 H 978.078 -3.00453 4.42303 0
M  V30 10189 H 978.421 -3.15406 2.71707 0
M  V30 10190 H 978.954 -1.70048 3.59623 0
M  V30 10191 H 975.693 -0.9192 6.49023 0
M  V30 10192 H 975.213 -2.33403 5.52524 0
M  V30 10193 H 976.892 -2.16798 6.09596 0
M  V30 10194 N 977.024 -1.50153 -0.478725 0
M  V30 10195 C 978.44 -1.3741 -0.811833 0
M  V30 10196 C 978.64 -0.424303 -1.96982 0
M  V30 10197 O 977.696 0.13588 -2.52134 0
M  V30 10198 C 979.009 -2.78616 -1.13108 0
M  V30 10199 C 980.557 -2.87477 -1.23798 0
M  V30 10200 C 981.032 -4.295 -1.5904 0
M  V30 10201 N 982.523 -4.32415 -1.66047 0
M  V30 10202 C 983.258 -5.39295 -1.94805 0
M  V30 10203 N 982.754 -6.56392 -2.21635 0
M  V30 10204 N 984.547 -5.26731 -1.96243 0
M  V30 10205 H 976.698 -2.10486 0.284531 0
M  V30 10206 H 978.961 -0.945786 0.0647585 0
M  V30 10207 H 978.667 -3.49921 -0.35334 0
M  V30 10208 H 978.541 -3.15382 -2.06915 0
M  V30 10209 H 980.928 -2.16396 -2.00641 0
M  V30 10210 H 981.009 -2.54264 -0.279888 0
M  V30 10211 H 980.653 -5.01115 -0.827404 0
M  V30 10212 H 980.583 -4.60194 -2.55987 0
M  V30 10213 H 983.074 -3.47975 -1.47383 0
M  V30 10214 H 983.387 -7.33658 -2.4283 0
M  V30 10215 H 981.732 -6.59579 -2.19043 0
M  V30 10216 H 984.923 -4.34249 -1.74773 0
M  V30 10217 H 985.096 -6.10115 -2.1832 0
M  V30 10218 N 978.502 0.731368 -1.39602 0
M  V30 10219 C 979.465 1.8271 -1.38383 0
M  V30 10220 C 980.465 1.58338 -0.280309 0
M  V30 10221 O 981.655 1.65671 -0.538402 0
M  V30 10222 C 978.787 3.20556 -1.16002 0
M  V30 10223 H 979.98 1.85193 -2.35889 0
M  V30 10224 H 977.533 0.935396 -1.2522 0
M  V30 10225 H 978.268 3.23732 -0.191927 0
M  V30 10226 H 978.053 3.39643 -1.9592 0
M  V30 10227 H 979.543 4.00612 -1.17899 0
M  V30 10228 N 979.98 1.24838 0.961938 0
M  V30 10229 C 980.93 1.01276 2.04272 0
M  V30 10230 C 981.914 -0.0478239 1.60829 0
M  V30 10231 O 983.106 0.166616 1.76214 0
M  V30 10232 C 980.235 0.625659 3.37551 0
M  V30 10233 C 979.321 1.72262 3.87539 0
M  V30 10234 N 979.712 2.95644 4.104 0
M  V30 10235 C 978.01 1.60146 4.16256 0
M  V30 10236 C 978.711 3.66796 4.51482 0
M  V30 10237 N 977.687 2.94383 4.56989 0
M  V30 10238 H 981.489 1.94956 2.19931 0
M  V30 10239 H 979.003 1.15049 1.14619 0
M  V30 10240 H 981 0.438072 4.14592 0
M  V30 10241 H 979.66 -0.303887 3.23275 0
M  V30 10242 H 980.671 3.31764 3.97685 0
M  V30 10243 H 977.348 0.740353 4.10883 0
M  V30 10244 H 978.738 4.72664 4.77534 0
M  V30 10245 N 981.458 -1.16348 1.06306 0
M  V30 10246 C 982.683 -1.91323 0.800636 0
M  V30 10247 C 983.108 -1.7691 -0.639105 0
M  V30 10248 O 982.466 -1.0945 -1.44535 0
M  V30 10249 C 982.514 -3.40038 1.20027 0
M  V30 10250 O 981.618 -4.11003 0.339142 0
M  V30 10251 H 980.959 -0.596057 0.292595 0
M  V30 10252 H 983.489 -1.47406 1.41889 0
M  V30 10253 H 983.499 -3.90808 1.17188 0
M  V30 10254 H 982.174 -3.49848 2.24898 0
M  V30 10255 H 980.751 -3.70423 0.42911 0
M  V30 10256 N 982.937 -0.845659 -1.3299 0
M  V30 10257 C 984.177 -0.450819 -1.99366 0
M  V30 10258 C 984.541 0.973297 -1.65502 0
M  V30 10259 O 985.742 1.47222 -2.24898 0
M  V30 10260 C 984.013 -0.672825 -3.5101 0
M  V30 10261 S 985.572 -0.374216 -4.37201 0
M  V30 10262 H 982.39 -0.169273 -0.690556 0
M  V30 10263 H 984.992 -1.09642 -1.61861 0
M  V30 10264 H 983.696 -1.70855 -3.73145 0
M  V30 10265 H 983.227 -0.0133185 -3.93398 0
M  V30 10266 H 985.242 0.803342 -4.89654 0
M  V30 10267 N 984.415 1.45619 -0.602734 0
M  V30 10268 C 985.826 1.85814 -0.181636 0
M  V30 10269 C 986.177 1.5037 1.26029 0
M  V30 10270 O 985.302 0.928068 1.95489 0
M  V30 10271 C 985.897 3.37258 -0.322866 0
M  V30 10272 C 984.456 3.76375 0.043504 0
M  V30 10273 C 983.603 2.69585 -0.649561 0
M  V30 10274 H 986.554 1.36489 -0.809721 0
M  V30 10275 H 986.575 3.77874 0.446279 0
M  V30 10276 H 986.087 3.63024 -1.37241 0
M  V30 10277 H 984.188 3.56226 1.09241 0
M  V30 10278 H 984.301 4.77843 -0.346765 0
M  V30 10279 H 982.665 2.54549 -0.087706 0
M  V30 10280 H 983.448 2.98188 -1.70115 0
M  V30 10281 N 985.893 0.34162 1.53853 0
M  V30 10282 C 987.118 -0.259608 2.05769 0
M  V30 10283 C 987.543 -1.43588 1.21507 0
M  V30 10284 O 986.901 -1.79856 0.228364 0
M  V30 10285 C 986.949 -0.654455 3.54611 0
M  V30 10286 O 986.053 -1.75472 3.73207 0
M  V30 10287 H 985.394 -0.0434621 0.662576 0
M  V30 10288 H 987.924 0.495274 1.98515 0
M  V30 10289 H 987.934 -0.932142 3.97209 0
M  V30 10290 H 986.609 0.205779 4.15391 0
M  V30 10291 H 985.186 -1.47444 3.42512 0
M  V30 10292 N 987.371 -1.57444 0.0701946 0
M  V30 10293 C 988.617 -1.93716 -0.600178 0
M  V30 10294 C 988.95 -0.950329 -1.69359 0
M  V30 10295 O 988.225 0.0207123 -1.94489 0
M  V30 10296 C 988.508 -3.40266 -1.17861 0
M  V30 10297 C 988.361 -4.49706 -0.0919575 0
M  V30 10298 C 989.68 -3.87599 -2.08459 0
M  V30 10299 H 986.799 -0.704421 -0.216704 0
M  V30 10300 H 989.441 -1.89514 0.135838 0
M  V30 10301 H 987.591 -3.43977 -1.80587 0
M  V30 10302 H 989.263 -4.58116 0.541031 0
M  V30 10303 H 987.506 -4.29937 0.577639 0
M  V30 10304 H 988.177 -5.49381 -0.537048 0
M  V30 10305 H 990.653 -3.85883 -1.5567 0
M  V30 10306 H 989.529 -4.90755 -2.45867 0
M  V30 10307 H 989.79 -3.25448 -2.99226 0
M  V30 10308 N 988.849 0.203349 -1.56283 0
M  V30 10309 C 990.095 0.921876 -1.81309 0
M  V30 10310 C 990.45 1.81231 -0.645994 0
M  V30 10311 O 989.743 1.88203 0.359206 0
M  V30 10312 C 989.937 1.78016 -3.09912 0
M  V30 10313 C 989.766 0.974308 -4.39019 0
M  V30 10314 C 988.536 0.662001 -5.00945 0
M  V30 10315 C 990.734 0.330925 -5.13234 0
M  V30 10316 N 988.716 -0.163344 -6.13683 0
M  V30 10317 C 990.087 -0.356989 -6.18971 0
M  V30 10318 C 992.142 0.245809 -4.97293 0
M  V30 10319 C 990.845 -1.1219 -7.10497 0
M  V30 10320 C 992.871 -0.505684 -5.89234 0
M  V30 10321 C 992.233 -1.18207 -6.94411 0
M  V30 10322 H 988.332 0.317003 -0.714866 0
M  V30 10323 H 990.916 0.191255 -1.93758 0
M  V30 10324 H 989.087 2.48245 -2.98712 0
M  V30 10325 H 990.819 2.43754 -3.23057 0
M  V30 10326 H 987.574 0.984437 -4.63256 0
M  V30 10327 H 987.998 -0.565386 -6.74635 0
M  V30 10328 H 992.64 0.754396 -4.16015 0
M  V30 10329 H 990.358 -1.64195 -7.91243 0
M  V30 10330 H 993.944 -0.572788 -5.78974 0
M  V30 10331 H 992.824 -1.75427 -7.64327 0
M  V30 10332 N 990.327 1.50405 0.470755 0
M  V30 10333 C 991.274 1.69293 1.56871 0
M  V30 10334 C 992.244 0.534248 1.57274 0
M  V30 10335 O 993.429 0.764855 1.74799 0
M  V30 10336 C 990.569 1.79338 2.94842 0
M  V30 10337 C 989.682 3.06709 3.04226 0
M  V30 10338 C 988.817 3.07548 4.33114 0
M  V30 10339 C 987.856 4.29372 4.36241 0
M  V30 10340 N 986.993 4.27949 5.56601 0
M  V30 10341 H 991.833 2.63029 1.40071 0
M  V30 10342 H 989.37 1.30386 0.681016 0
M  V30 10343 H 991.328 1.83143 3.74853 0
M  V30 10344 H 989.958 0.890411 3.10277 0
M  V30 10345 H 989.01 3.12374 2.17086 0
M  V30 10346 H 990.322 3.96684 3.02396 0
M  V30 10347 H 989.476 3.10084 5.21472 0
M  V30 10348 H 988.215 2.15404 4.37553 0
M  V30 10349 H 987.22 4.27048 3.4628 0
M  V30 10350 H 988.445 5.22743 4.33493 0
M  V30 10351 H 986.391 3.38658 5.61824 0
M  V30 10352 H 986.308 5.11692 5.56513 0
M  V30 10353 H 987.576 4.34631 6.47083 0
M  V30 10354 N 991.805 -0.723954 1.39988 0
M  V30 10355 C 992.752 -1.83803 1.39589 0
M  V30 10356 C 993.722 -1.64146 0.253996 0
M  V30 10357 O 994.907 -1.85398 0.450793 0
M  V30 10358 C 992.047 -3.21431 1.25604 0
M  V30 10359 C 991.16 -3.52717 2.49429 0
M  V30 10360 C 990.295 -4.79805 2.27949 0
M  V30 10361 C 989.334 -5.03968 3.47394 0
M  V30 10362 N 988.471 -6.22266 3.25161 0
M  V30 10363 H 993.311 -1.83479 2.34818 0
M  V30 10364 H 990.848 -0.896396 1.16633 0
M  V30 10365 H 992.806 -4.00892 1.15504 0
M  V30 10366 H 991.436 -3.21005 0.339986 0
M  V30 10367 H 990.488 -2.67872 2.7009 0
M  V30 10368 H 991.8 -3.66486 3.38363 0
M  V30 10369 H 990.954 -5.67268 2.15155 0
M  V30 10370 H 989.693 -4.68229 1.36428 0
M  V30 10371 H 988.698 -4.14963 3.60674 0
M  V30 10372 H 989.923 -5.17422 4.39831 0
M  V30 10373 H 987.869 -6.11957 2.36314 0
M  V30 10374 H 987.786 -6.36673 4.07656 0
M  V30 10375 H 989.054 -7.12539 3.16083 0
M  V30 10376 N 993.283 -1.25346 -0.955304 0
M  V30 10377 C 994.511 -1.12793 -1.73451 0
M  V30 10378 C 994.926 0.318344 -1.86097 0
M  V30 10379 O 994.283 1.21897 -1.35821 0
M  V30 10380 C 994.334 -1.77603 -3.14864 0
M  V30 10381 O 994.055 -3.16577 -3.02837 0
M  V30 10382 C 995.556 -1.70821 -4.09066 0
M  V30 10383 H 992.776 -0.393457 -0.543537 0
M  V30 10384 H 995.32 -1.65696 -1.19855 0
M  V30 10385 H 993.475 -1.28673 -3.65407 0
M  V30 10386 H 993.889 -3.48433 -3.92039 0
M  V30 10387 H 995.363 -2.2083 -5.05903 0
M  V30 10388 H 995.84 -0.671858 -4.34031 0
M  V30 10389 H 996.446 -2.19237 -3.64438 0
M  V30 10390 N 994.761 1.15782 -1.06922 0
M  V30 10391 C 995.708 2.2038 -0.685659 0
M  V30 10392 C 996.678 1.62972 0.320816 0
M  V30 10393 O 997.863 1.8966 0.208258 0
M  V30 10394 C 995.003 3.44995 -0.084998 0
M  V30 10395 C 994.116 4.16621 -1.14242 0
M  V30 10396 C 993.251 5.28773 -0.507226 0
M  V30 10397 C 992.29 5.92209 -1.54774 0
M  V30 10398 N 991.427 6.9584 -0.935443 0
M  V30 10399 H 996.267 2.5254 -1.58201 0
M  V30 10400 H 993.804 1.24031 -0.790864 0
M  V30 10401 H 995.762 4.16254 0.280845 0
M  V30 10402 H 994.392 3.13365 0.774725 0
M  V30 10403 H 993.444 3.43903 -1.62589 0
M  V30 10404 H 994.756 4.59884 -1.93154 0
M  V30 10405 H 993.91 6.06635 -0.0887719 0
M  V30 10406 H 992.649 4.8669 0.313704 0
M  V30 10407 H 991.654 5.13063 -1.97602 0
M  V30 10408 H 992.879 6.3637 -2.37088 0
M  V30 10409 H 990.825 6.5586 -0.135339 0
M  V30 10410 H 990.742 7.37508 -1.66186 0
M  V30 10411 H 992.01 7.77611 -0.542346 0
M  V30 10412 N 996.239 0.8527 1.3254 0
M  V30 10413 C 997.187 0.284659 2.30852 0
M  V30 10414 C 998.181 -0.5909 1.5876 0
M  V30 10415 O 999.387 -0.478922 1.73512 0
M  V30 10416 H 995.762 0.0733452 0.748415 0
M  V30 10417 H 997.733 1.1281 2.76254 0
M  V30 10418 C 996.482 -0.51379 3.43883 0
M  V30 10419 H 995.805 0.150644 3.99516 0
M  V30 10420 H 997.245 -0.876866 4.14834 0
M  V30 10421 C 995.704 -1.69823 2.90967 0
M  V30 10422 O 996.234 -2.79727 2.88298 0
M  V30 10423 N 994.44 -1.52465 2.47392 0
M  V30 10424 H 993.987 -0.630599 2.49762 0
M  V30 10425 H 993.945 -2.31859 2.12341 0
M  V30 10426 N 997.718 -1.45297 0.610449 0
M  V30 10427 C 998.943 -2.07101 0.111414 0
M  V30 10428 C 999.368 -1.45161 -1.19625 0
M  V30 10429 O 998.726 -0.545368 -1.72903 0
M  V30 10430 C 998.774 -3.60598 -0.0117372 0
M  V30 10431 O 997.878 -3.98512 -1.06122 0
M  V30 10432 H 997.219 -0.659709 0.075364 0
M  V30 10433 H 999.749 -1.86504 0.841269 0
M  V30 10434 H 999.759 -4.07464 -0.209028 0
M  V30 10435 H 998.434 -4.05067 0.943076 0
M  V30 10436 H 997.011 -3.63312 -0.840158 0
M  V30 10437 O 999.235 -0.491964 -1.53824 0
M  V30 10438 H 999.926 0.0280053 -1.9368 0
M  V30 END ATOM
M  V30 BEGIN BOND
M  V30 END BOND
M  V30 END CTAB
M  END
$$$$
