drugbank_target|P07237 Protein disulfide-isomerase (DB01593; DB03615; DB09130; DB11638; DB14487; DB14533; DB14548)
 OpenBabel12092120213D

  0  0  0     0  0            999 V3000
M  V30 BEGIN CTAB
M  V30 COUNTS 7958 8044 0 0 0
M  V30 BEGIN ATOM
M  V30 1 H -0.908 1.98254 -0.117106 0
M  V30 2 N 0 1.576 0 0
M  V30 3 C 0.933 2.03868 1.02534 0
M  V30 4 C 1.911 0.928543 1.3348 0
M  V30 5 O 3.095 1.19667 1.45644 0
M  V30 6 C 0.222 2.43627 2.35294 0
M  V30 7 C -0.732 3.65373 2.2001 0
M  V30 8 S 0.101 5.13292 1.52614 0
M  V30 9 C 1.257 5.56322 2.86805 0
M  V30 10 H 1.49 2.90518 0.631377 0
M  V30 11 H -0.977 1.52953 0.210867 0
M  V30 12 H 0.981 2.67203 3.11629 0
M  V30 13 H -0.358 1.57376 2.7183 0
M  V30 14 H -1.165 3.90944 3.18086 0
M  V30 15 H -1.563 3.418 1.51819 0
M  V30 16 H 0.729 5.58782 3.83104 0
M  V30 17 H 1.672 6.56266 2.65933 0
M  V30 18 H 2.08 4.83886 2.90714 0
M  V30 19 N 1.4781 -0.272755 1.55222 0
M  V30 20 C 2.4081 -1.34136 1.91127 0
M  V30 21 C 3.3891 -1.51513 0.773168 0
M  V30 22 O 4.5741 -1.64552 1.03132 0
M  V30 23 C 1.7041 -2.70083 2.1834 0
M  V30 24 C 0.6581 -2.67437 3.34158 0
M  V30 25 C -0.0159 -4.06938 3.46851 0
M  V30 26 C 1.2841 -2.26686 4.70543 0
M  V30 27 H 2.9781 -1.04333 2.80633 0
M  V30 28 H 0.5241 -0.500454 1.35024 0
M  V30 29 H 2.4771 -3.44952 2.42046 0
M  V30 30 H 1.2011 -3.01469 1.25634 0
M  V30 31 H -0.1399 -1.95026 3.1042 0
M  V30 32 H -0.4919 -4.35547 2.51611 0
M  V30 33 H -0.7919 -4.06062 4.2472 0
M  V30 34 H 0.7321 -4.83545 3.72849 0
M  V30 35 H 2.1461 -2.91277 4.93792 0
M  V30 36 H 0.5431 -2.36971 5.5133 0
M  V30 37 H 1.6131 -1.21818 4.69349 0
M  V30 38 N 2.9562 -1.48159 -0.537278 0
M  V30 39 C 4.3722 -1.34118 -0.865129 0
M  V30 40 C 4.5722 -0.346678 -1.98495 0
M  V30 41 O 3.6282 0.234715 -2.51407 0
M  V30 42 C 4.9412 -2.73963 -1.23954 0
M  V30 43 C 6.4892 -2.82397 -1.34984 0
M  V30 44 C 6.9642 -4.22928 -1.75772 0
M  V30 45 N 8.4552 -4.25566 -1.82887 0
M  V30 46 C 9.1902 -5.31235 -2.15817 0
M  V30 47 N 8.6862 -6.47189 -2.47222 0
M  V30 48 N 10.4792 -5.18624 -2.16761 0
M  V30 49 H 2.6302 -2.1144 0.201715 0
M  V30 50 H 4.8932 -0.947598 0.0275949 0
M  V30 51 H 4.5992 -3.48264 -0.490381 0
M  V30 52 H 4.4732 -3.0702 -2.19132 0
M  V30 53 H 6.8602 -2.08356 -2.08978 0
M  V30 54 H 6.9412 -2.5297 -0.379448 0
M  V30 55 H 6.5852 -4.97482 -1.02341 0
M  V30 56 H 6.5152 -4.49794 -2.73848 0
M  V30 57 H 9.0062 -3.41924 -1.60924 0
M  V30 58 H 9.3192 -7.23564 -2.71433 0
M  V30 59 H 7.6642 -6.50476 -2.44757 0
M  V30 60 H 10.8552 -4.27056 -1.91679 0
M  V30 61 H 11.0282 -6.01078 -2.42093 0
M  V30 62 N 4.4343 0.785586 -1.36625 0
M  V30 63 C 5.8503 1.08419 -1.17122 0
M  V30 64 C 6.0503 2.015 0.00208491 0
M  V30 65 O 5.1063 2.43551 0.666278 0
M  V30 66 C 6.4193 1.69498 -2.48377 0
M  V30 67 C 7.9673 1.81821 -2.54775 0
M  V30 68 C 8.4423 2.46315 -3.86126 0
M  V30 69 N 9.9333 2.53779 -3.87492 0
M  V30 70 C 10.6683 3.045 -4.85868 0
M  V30 71 N 10.1643 3.55499 -5.94637 0
M  V30 72 N 11.9573 3.03247 -4.73284 0
M  V30 73 H 4.1083 0.167264 -2.1174 0
M  V30 74 H 6.3713 0.13682 -0.938075 0
M  V30 75 H 6.0773 1.08571 -3.34522 0
M  V30 76 H 5.9513 2.6896 -2.64462 0
M  V30 77 H 8.3383 2.41884 -1.69045 0
M  V30 78 H 8.4193 0.811532 -2.42586 0
M  V30 79 H 8.0633 1.86895 -4.72263 0
M  V30 80 H 7.9933 3.47561 -3.95612 0
M  V30 81 H 10.4843 2.17672 -3.08913 0
M  V30 82 H 10.7973 3.92562 -6.65669 0
M  V30 83 H 9.1423 3.5364 -5.98301 0
M  V30 84 H 12.3333 2.62696 -3.87438 0
M  V30 85 H 12.5063 3.42467 -5.50109 0
M  V30 86 N 5.9124 1.20967 1.01018 0
M  V30 87 C 6.8754 0.965918 2.07853 0
M  V30 88 C 7.8754 -0.0610545 1.60684 0
M  V30 89 O 9.0654 0.175681 1.73312 0
M  V30 90 C 6.1974 0.455513 3.37843 0
M  V30 91 H 7.3904 1.91365 2.3091 0
M  V30 92 H 4.9434 1.02594 1.17916 0
M  V30 93 H 5.6784 -0.497381 3.20463 0
M  V30 94 H 5.4634 1.19622 3.73407 0
M  V30 95 H 6.9534 0.304667 4.16487 0
M  V30 96 N 7.3905 -1.2043 1.01659 0
M  V30 97 C 8.3205 -2.25466 0.607226 0
M  V30 98 C 9.3015 -1.65853 -0.377716 0
M  V30 99 O 10.4865 -1.92409 -0.263149 0
M  V30 100 C 7.6165 -3.47256 -0.0552949 0
M  V30 101 C 6.5705 -4.19462 0.850632 0
M  V30 102 C 5.8965 -5.34673 0.0538859 0
M  V30 103 C 7.1965 -4.75603 2.15868 0
M  V30 104 H 8.8905 -2.59962 1.48526 0
M  V30 105 H 6.4365 -1.2496 0.715605 0
M  V30 106 H 8.3895 -4.19917 -0.353233 0
M  V30 107 H 7.1135 -3.11924 -0.968045 0
M  V30 108 H 5.7725 -3.48667 1.13257 0
M  V30 109 H 5.4205 -4.95585 -0.860514 0
M  V30 110 H 5.1205 -5.83913 0.657192 0
M  V30 111 H 6.6445 -6.10138 -0.237598 0
M  V30 112 H 8.0585 -5.40083 1.92311 0
M  V30 113 H 6.4555 -5.3528 2.71284 0
M  V30 114 H 7.5255 -3.94346 2.82169 0
M  V30 115 N 8.8686 -0.792821 -1.36206 0
M  V30 116 C 9.7986 -0.207853 -2.32573 0
M  V30 117 C 10.7796 0.659055 -1.56813 0
M  V30 118 O 11.9646 0.592176 -1.84951 0
M  V30 119 C 9.0946 0.655449 -3.41059 0
M  V30 120 C 8.0486 -0.111842 -4.27854 0
M  V30 121 C 7.3746 0.872274 -5.27537 0
M  V30 122 C 8.6746 -1.30299 -5.05786 0
M  V30 123 H 10.3686 -1.01294 -2.81744 0
M  V30 124 H 7.9146 -0.48854 -1.3546 0
M  V30 125 H 9.8676 1.07464 -4.07467 0
M  V30 126 H 8.5916 1.49328 -2.90463 0
M  V30 127 H 7.2506 -0.512053 -3.63006 0
M  V30 128 H 6.8986 1.70523 -4.73214 0
M  V30 129 H 6.5986 0.363291 -5.86476 0
M  V30 130 H 8.1226 1.28996 -5.96818 0
M  V30 131 H 9.5366 -0.959379 -5.65216 0
M  V30 132 H 7.9336 -1.7455 -5.74154 0
M  V30 133 H 9.0036 -2.09663 -4.37229 0
M  V30 134 N 10.3467 1.47872 -0.545128 0
M  V30 135 C 11.5867 2.04391 -0.0187854 0
M  V30 136 C 11.9507 1.41162 1.30144 0
M  V30 137 O 13.1517 1.88656 1.91474 0
M  V30 138 C 11.4227 3.57299 0.0850867 0
M  V30 139 S 12.9817 4.35221 0.559302 0
M  V30 140 H 9.7997 0.710737 -0.0193301 0
M  V30 141 H 12.4017 1.81395 -0.729125 0
M  V30 142 H 11.1057 4.00847 -0.880351 0
M  V30 143 H 10.6367 3.84773 0.819348 0
M  V30 144 H 12.6517 4.61571 1.82118 0
M  V30 145 N 11.8248 0.280983 1.55075 0
M  V30 146 C 12.7548 -0.597469 2.25727 0
M  V30 147 C 13.7358 -1.15417 1.24952 0
M  V30 148 O 14.9208 -1.18722 1.53684 0
M  V30 149 C 12.0508 -1.7789 2.98283 0
M  V30 150 C 11.0048 -1.35347 4.06036 0
M  V30 151 C 10.3308 -2.61846 4.66198 0
M  V30 152 C 11.6308 -0.499354 5.19907 0
M  V30 153 H 13.3248 -0.00824265 2.99399 0
M  V30 154 H 10.8708 -0.0025244 1.44 0
M  V30 155 H 12.8238 -2.39937 3.46422 0
M  V30 156 H 11.5478 -2.39405 2.22155 0
M  V30 157 H 10.2068 -0.756156 3.58717 0
M  V30 158 H 9.8548 -3.21632 3.86732 0
M  V30 159 H 9.5548 -2.3409 5.38958 0
M  V30 160 H 11.0788 -3.24732 5.1709 0
M  V30 161 H 12.4928 -1.02498 5.64063 0
M  V30 162 H 10.8898 -0.316424 5.99265 0
M  V30 163 H 11.9598 0.480459 4.82514 0
M  V30 164 N 13.3029 -1.57598 0.00835791 0
M  V30 165 C 14.2659 -2.07884 -0.965242 0
M  V30 166 C 15.2659 -0.989825 -1.26725 0
M  V30 167 O 16.4559 -1.25218 -1.21104 0
M  V30 168 C 13.5879 -2.52731 -2.28779 0
M  V30 169 H 14.7809 -2.95178 -0.530112 0
M  V30 170 H 12.3339 -1.54458 -0.239283 0
M  V30 171 H 13.0689 -1.68705 -2.76964 0
M  V30 172 H 12.8539 -3.32272 -2.08177 0
M  V30 173 H 14.3439 -2.91933 -2.98605 0
M  V30 174 N 14.781 0.264519 -1.55364 0
M  V30 175 C 16.027 0.99646 -1.76631 0
M  V30 176 C 16.36 1.85632 -0.570478 0
M  V30 177 O 15.635 1.89647 0.43175 0
M  V30 178 C 15.918 1.87187 -3.07625 0
M  V30 179 C 15.771 1.04138 -4.37579 0
M  V30 180 C 17.09 2.85749 -3.34717 0
M  V30 181 H 14.209 0.360841 -0.642622 0
M  V30 182 H 16.851 0.268218 -1.88097 0
M  V30 183 H 15.001 2.49279 -2.9798 0
M  V30 184 H 16.673 0.440517 -4.59192 0
M  V30 185 H 14.916 0.345115 -4.32425 0
M  V30 186 H 15.587 1.68729 -5.2558 0
M  V30 187 H 18.063 2.33793 -3.4421 0
M  V30 188 H 16.939 3.44136 -4.27623 0
M  V30 189 H 17.2 3.61311 -2.54768 0
M  V30 190 N 16.2591 1.48442 0.529413 0
M  V30 191 C 17.2221 1.62524 1.61612 0
M  V30 192 C 18.2221 0.498509 1.52877 0
M  V30 193 O 19.4121 0.76431 1.56537 0
M  V30 194 C 16.5441 1.59597 3.01233 0
M  V30 195 H 17.7371 2.59423 1.50465 0
M  V30 196 H 15.2901 1.37047 0.751514 0
M  V30 197 H 16.0251 0.641781 3.17886 0
M  V30 198 H 15.8101 2.41397 3.08982 0
M  V30 199 H 17.3001 1.72646 3.80241 0
M  V30 200 N 17.7372 -0.778329 1.37039 0
M  V30 201 C 18.7002 -1.87301 1.32102 0
M  V30 202 C 19.7002 -1.59198 0.226405 0
M  V30 203 O 20.8902 -1.67403 0.481861 0
M  V30 204 C 18.0222 -3.24309 1.05055 0
M  V30 205 H 19.2152 -1.93093 2.29467 0
M  V30 206 H 16.7682 -0.977358 1.21973 0
M  V30 207 H 17.5032 -3.24196 0.0819373 0
M  V30 208 H 17.2882 -3.46098 1.84279 0
M  V30 209 H 18.7782 -4.04382 1.04234 0
M  V30 210 N 19.2153 -1.21501 -1.00376 0
M  V30 211 C 20.1453 -0.999478 -2.11028 0
M  V30 212 C 21.1263 0.0759671 -1.6993 0
M  V30 213 O 22.3113 -0.0841106 -1.94018 0
M  V30 214 C 19.4413 -0.564709 -3.42678 0
M  V30 215 C 18.3953 -1.58486 -3.97576 0
M  V30 216 C 17.7213 -1.00628 -5.25146 0
M  V30 217 C 19.0213 -2.97204 -4.29496 0
M  V30 218 H 20.7153 -1.92495 -2.29317 0
M  V30 219 H 18.2613 -0.92693 -1.102 0
M  V30 220 H 20.2143 -0.401091 -4.19487 0
M  V30 221 H 18.9383 0.396411 -3.24185 0
M  V30 222 H 17.5973 -1.73606 -3.22888 0
M  V30 223 H 17.2453 -0.0368439 -5.02987 0
M  V30 224 H 16.9453 -1.68771 -5.62841 0
M  V30 225 H 18.4693 -0.854015 -6.04598 0
M  V30 226 H 19.8833 -2.8552 -4.97143 0
M  V30 227 H 18.2803 -3.62372 -4.78338 0
M  V30 228 H 19.3503 -3.47956 -3.3772 0
M  V30 229 N 20.6934 1.19889 -1.02296 0
M  V30 230 C 21.9394 1.89701 -0.717033 0
M  V30 231 C 22.2724 1.7905 0.751989 0
M  V30 232 O 21.5474 1.17891 1.547 0
M  V30 233 C 21.8304 3.40858 -1.16136 0
M  V30 234 C 21.6834 3.60411 -2.69117 0
M  V30 235 C 23.0024 4.33876 -0.737549 0
M  V30 236 H 20.1214 0.688874 -0.261957 0
M  V30 237 H 22.7634 1.41154 -1.27183 0
M  V30 238 H 20.9134 3.82335 -0.689342 0
M  V30 239 H 22.5854 3.28145 -3.2422 0
M  V30 240 H 20.8284 3.03665 -3.0979 0
M  V30 241 H 21.4994 4.66396 -2.95261 0
M  V30 242 H 23.9754 4.00081 -1.14344 0
M  V30 243 H 22.8514 5.38242 -1.0764 0
M  V30 244 H 23.1124 4.40628 0.360436 0
M  V30 245 N 22.1715 0.800033 1.35784 0
M  V30 246 C 23.5875 0.482977 1.52117 0
M  V30 247 C 23.7875 -0.996948 1.75109 0
M  V30 248 O 22.8435 -1.78216 1.78872 0
M  V30 249 C 24.1565 1.32264 2.70049 0
M  V30 250 C 25.7045 1.31742 2.83924 0
M  V30 251 C 26.1795 2.14106 4.04874 0
M  V30 252 N 27.6705 2.11607 4.12039 0
M  V30 253 C 28.4055 2.72099 5.04727 0
M  V30 254 N 27.9015 3.41492 6.02789 0
M  V30 255 N 29.6945 2.61776 4.97423 0
M  V30 256 H 21.8455 1.75856 1.19115 0
M  V30 257 H 24.1085 0.748122 0.582252 0
M  V30 258 H 23.8145 2.37261 2.59616 0
M  V30 259 H 23.6885 0.971303 3.6448 0
M  V30 260 H 26.0755 0.275333 2.93813 0
M  V30 261 H 26.1565 1.70859 1.9037 0
M  V30 262 H 25.8005 3.18351 3.95746 0
M  V30 263 H 25.7305 1.72353 4.97596 0
M  V30 264 H 28.2215 1.61112 3.41835 0
M  V30 265 H 28.5345 3.84953 6.70098 0
M  V30 266 H 26.8795 3.45596 6.02983 0
M  V30 267 H 30.0705 2.07157 4.19766 0
M  V30 268 H 30.2435 3.0921 5.69468 0
M  V30 269 N 23.6496 -1.47581 0.552962 0
M  V30 270 C 24.6126 -2.28439 -0.186605 0
M  V30 271 C 25.6126 -1.36706 -0.84665 0
M  V30 272 O 26.8026 -1.59378 -0.703164 0
M  V30 273 C 23.9346 -3.16264 -1.2724 0
M  V30 274 H 25.1276 -2.95294 0.523609 0
M  V30 275 H 22.6806 -1.532 0.309745 0
M  V30 276 H 23.4156 -2.54091 -2.01514 0
M  V30 277 H 23.2006 -3.83769 -0.803968 0
M  V30 278 H 24.6906 -3.77198 -1.79196 0
M  V30 279 N 25.1277 -0.289203 -1.54924 0
M  V30 280 C 26.4047 0.376032 -1.91951 0
M  V30 281 C 26.7847 1.72622 -1.21511 0
M  V30 282 O 26.1327 2.25853 -0.346767 0
M  V30 283 C 26.3427 0.502378 -3.45365 0
M  V30 284 C 27.6907 0.778741 -4.17398 0
M  V30 285 O 28.7147 0.586647 -3.51336 0
M  V30 286 O 27.5737 1.14698 -5.34328 0
M  V30 287 H 24.6677 0.208167 -0.800372 0
M  V30 288 H 27.2137 -0.336394 -1.66332 0
M  V30 289 H 25.9857 -0.447255 -3.88736 0
M  V30 290 H 25.6087 1.26373 -3.76982 0
M  V30 291 N 26.6058 1.57591 -0.0167156 0
M  V30 292 C 27.5688 2.08393 0.954204 0
M  V30 293 C 28.5688 0.996531 1.26198 0
M  V30 294 O 29.7588 1.25858 1.20438 0
M  V30 295 C 26.8908 2.5394 2.27436 0
M  V30 296 H 28.0838 2.95455 0.514451 0
M  V30 297 H 25.6368 1.54582 0.231089 0
M  V30 298 H 26.3718 1.70171 2.76066 0
M  V30 299 H 26.1568 3.33371 2.06412 0
M  V30 300 H 27.6468 2.93512 2.97053 0
M  V30 301 N 28.0839 -0.256276 1.55502 0
M  V30 302 C 29.4949 -0.826068 1.67431 0
M  V30 303 C 29.8459 -1.86396 0.612446 0
M  V30 304 O 28.9709 -2.15031 -0.243025 0
M  V30 305 C 29.5659 -1.50512 3.03532 0
M  V30 306 C 28.1249 -2.02273 3.17431 0
M  V30 307 C 27.2719 -0.870548 2.63281 0
M  V30 308 H 30.2229 -0.0322728 1.58667 0
M  V30 309 H 30.2439 -2.37279 2.97454 0
M  V30 310 H 29.7559 -0.749484 3.80794 0
M  V30 311 H 27.8569 -2.80746 2.44974 0
M  V30 312 H 27.9699 -2.22655 4.24219 0
M  V30 313 H 26.3339 -1.26851 2.20864 0
M  V30 314 H 27.1169 -0.128149 3.43061 0
M  V30 315 N 29.562 -1.4872 -0.521534 0
M  V30 316 C 30.472 -1.66569 -1.65203 0
M  V30 317 C 31.488 -0.548197 -1.65139 0
M  V30 318 O 32.664 -0.820339 -1.83936 0
M  V30 319 C 29.729 -1.70917 -3.01642 0
M  V30 320 C 28.79 -2.94356 -3.12495 0
M  V30 321 C 28.023 -2.98487 -4.42426 0
M  V30 322 O 28.246 -2.10786 -5.30024 0
M  V30 323 O 27.18 -3.90746 -4.57822 0
M  V30 324 H 31.006 -2.62298 -1.5308 0
M  V30 325 H 28.591 -1.3222 -0.695565 0
M  V30 326 H 30.473 -1.7625 -3.82771 0
M  V30 327 H 29.148 -0.783633 -3.14071 0
M  V30 328 H 28.055 -2.94552 -2.3063 0
M  V30 329 H 29.388 -3.86322 -3.04986 0
M  V30 330 N 31.0401 0.771051 -1.3745 0
M  V30 331 C 31.9501 1.91538 -1.35464 0
M  V30 332 C 32.9661 1.72134 -0.254123 0
M  V30 333 O 34.1421 1.95358 -0.489626 0
M  V30 334 C 31.2071 3.26671 -1.16134 0
M  V30 335 C 30.2681 3.58723 -2.35831 0
M  V30 336 C 29.5011 4.87409 -2.17413 0
M  V30 337 O 29.7241 5.58506 -1.15876 0
M  V30 338 O 28.6581 5.18539 -3.05615 0
M  V30 339 H 32.4841 1.96165 -2.31847 0
M  V30 340 H 30.0691 0.9139 -1.18187 0
M  V30 341 H 31.9511 4.07499 -1.07345 0
M  V30 342 H 30.6261 3.22894 -0.228251 0
M  V30 343 H 29.5331 2.78127 -2.50192 0
M  V30 344 H 30.8661 3.67243 -3.27709 0
M  V30 345 N 32.5182 1.22032 0.997298 0
M  V30 346 C 33.4282 1.00271 2.12092 0
M  V30 347 C 34.4442 -0.047621 1.73935 0
M  V30 348 O 35.6202 0.144136 2.00884 0
M  V30 349 C 32.6852 0.578449 3.4184 0
M  V30 350 C 31.7462 1.70189 3.94125 0
M  V30 351 C 30.9792 1.29778 5.17681 0
M  V30 352 O 31.2022 0.174676 5.70132 0
M  V30 353 O 30.1362 2.11261 5.63607 0
M  V30 354 H 33.9622 1.94398 2.3333 0
M  V30 355 H 31.5472 1.00587 1.10465 0
M  V30 356 H 33.4292 0.351998 4.19927 0
M  V30 357 H 32.1042 -0.334019 3.21972 0
M  V30 358 H 31.0112 1.98282 3.1723 0
M  V30 359 H 32.3442 2.59206 4.18417 0
M  V30 360 N 33.9963 -1.19345 1.0293 0
M  V30 361 C 35.2733 -1.84811 0.640642 0
M  V30 362 C 35.6533 -1.91855 -0.88062 0
M  V30 363 O 35.0013 -1.43587 -1.7775 0
M  V30 364 C 35.2113 -3.23755 1.30321 0
M  V30 365 C 36.5593 -3.99912 1.42673 0
M  V30 366 O 37.5833 -3.33155 1.26041 0
M  V30 367 O 36.4423 -5.19494 1.6967 0
M  V30 368 H 33.5363 -0.796443 0.222726 0
M  V30 369 H 36.0823 -1.26831 1.12748 0
M  V30 370 H 34.8543 -3.13466 2.34211 0
M  V30 371 H 34.4773 -3.89381 0.804261 0
M  V30 372 N 35.4744 -0.807222 -1.35358 0
M  V30 373 C 36.4244 -0.190706 -2.27201 0
M  V30 374 C 37.4084 0.635838 -1.47804 0
M  V30 375 O 38.6004 0.492991 -1.69996 0
M  V30 376 C 35.7294 0.659337 -3.36909 0
M  V30 377 C 34.8154 -0.176971 -4.23731 0
M  V30 378 N 35.2064 -1.24029 -4.90357 0
M  V30 379 C 33.5044 0.0412953 -4.45981 0
M  V30 380 C 34.2054 -1.75092 -5.54723 0
M  V30 381 N 33.1814 -1.05727 -5.33219 0
M  V30 382 H 36.9834 -1.0043 -2.76208 0
M  V30 383 H 34.4974 -0.648445 -1.48892 0
M  V30 384 H 36.4944 1.11706 -4.01656 0
M  V30 385 H 35.1544 1.47127 -2.89454 0
M  V30 386 H 36.1654 -1.62295 -4.91814 0
M  V30 387 H 32.8424 0.82232 -4.09322 0
M  V30 388 H 34.2324 -2.63963 -6.17878 0
M  V30 389 N 36.9525 1.47285 -0.560781 0
M  V30 390 C 38.1985 2.02764 -0.0381184 0
M  V30 391 C 38.5315 1.43384 1.30976 0
M  V30 392 O 37.8065 0.590733 1.85312 0
M  V30 393 C 38.0895 3.60064 0.0511427 0
M  V30 394 C 37.9425 4.2987 -1.32408 0
M  V30 395 C 39.2615 4.33439 0.762795 0
M  V30 396 H 36.3805 0.736841 -0.0153264 0
M  V30 397 H 39.0225 1.75675 -0.723759 0
M  V30 398 H 37.1725 3.83274 0.635065 0
M  V30 399 H 38.8445 4.17989 -1.95148 0
M  V30 400 H 37.0875 3.90085 -1.8978 0
M  V30 401 H 37.7585 5.38478 -1.21431 0
M  V30 402 H 40.2345 4.15243 0.266965 0
M  V30 403 H 39.1105 5.43124 0.794221 0
M  V30 404 H 39.3715 4.02915 1.81966 0
M  V30 405 N 38.4306 0.297415 1.54768 0
M  V30 406 C 39.3606 -0.573494 2.26348 0
M  V30 407 C 40.3416 -1.14085 1.26169 0
M  V30 408 O 41.5266 -1.17086 1.54934 0
M  V30 409 C 38.6566 -1.74716 3.00153 0
M  V30 410 C 37.6106 -1.31032 4.07449 0
M  V30 411 C 36.9366 -2.56887 4.68949 0
M  V30 412 C 38.2366 -0.444183 5.20408 0
M  V30 413 H 39.9306 0.0235131 2.99391 0
M  V30 414 H 37.4766 0.0127488 1.43994 0
M  V30 415 H 39.4296 -2.3625 3.48947 0
M  V30 416 H 38.1536 -2.37035 2.24682 0
M  V30 417 H 36.8126 -0.718066 3.59499 0
M  V30 418 H 36.4606 -3.17512 3.90122 0
M  V30 419 H 36.1606 -2.2836 5.41411 0
M  V30 420 H 37.6846 -3.19229 5.20505 0
M  V30 421 H 39.0986 -0.9651 5.65118 0
M  V30 422 H 37.4956 -0.252846 5.99567 0
M  V30 423 H 38.5656 0.531609 4.81977 0
M  V30 424 N 39.9087 -1.5758 0.0250728 0
M  V30 425 C 41.1547 -1.91917 -0.655413 0
M  V30 426 C 41.4877 -0.901433 -1.72011 0
M  V30 427 O 40.7627 0.0764069 -1.9435 0
M  V30 428 C 41.0457 -3.36751 -1.27558 0
M  V30 429 C 40.8987 -4.49258 -0.220719 0
M  V30 430 C 42.2177 -3.81469 -2.19475 0
M  V30 431 H 39.3367 -0.697925 -0.23679 0
M  V30 432 H 41.9787 -1.89825 0.0815036 0
M  V30 433 H 40.1287 -3.38664 -1.90365 0
M  V30 434 H 41.8007 -4.59478 0.409601 0
M  V30 435 H 40.0437 -4.31415 0.454264 0
M  V30 436 H 40.7147 -5.47618 -0.694175 0
M  V30 437 H 43.1907 -3.81266 -1.66659 0
M  V30 438 H 42.0667 -4.83512 -2.59822 0
M  V30 439 H 42.3277 -3.16744 -3.08424 0
M  V30 440 N 41.3868 0.248026 -1.55636 0
M  V30 441 C 42.3168 1.31079 -1.93237 0
M  V30 442 C 43.2978 1.50264 -0.797174 0
M  V30 443 O 44.4828 1.62891 -1.05737 0
M  V30 444 C 41.6128 2.66575 -2.22609 0
M  V30 445 C 40.5668 2.62087 -3.3837 0
M  V30 446 C 39.8928 4.01369 -3.53281 0
M  V30 447 C 41.1928 2.19171 -4.7409 0
M  V30 448 H 42.8868 0.998556 -2.82257 0
M  V30 449 H 40.4328 0.47891 -1.35803 0
M  V30 450 H 42.3858 3.41057 -2.47503 0
M  V30 451 H 41.1098 2.99432 -1.30414 0
M  V30 452 H 39.7688 1.90063 -3.13483 0
M  V30 453 H 39.4168 4.31489 -2.58508 0
M  V30 454 H 39.1168 3.99254 -4.31127 0
M  V30 455 H 40.6408 4.77552 -3.80495 0
M  V30 456 H 42.0548 2.83384 -4.98363 0
M  V30 457 H 40.4518 2.2817 -5.5503 0
M  V30 458 H 41.5218 1.14336 -4.71227 0
M  V30 459 N 42.8649 1.48995 0.513639 0
M  V30 460 C 44.2809 1.35478 0.843682 0
M  V30 461 C 44.4809 0.378213 1.97919 0
M  V30 462 O 43.5369 -0.194689 2.51748 0
M  V30 463 C 44.8499 2.75901 1.1958 0
M  V30 464 C 46.3979 2.84509 1.30474 0
M  V30 465 C 46.8729 4.25671 1.69021 0
M  V30 466 N 48.3639 4.28422 1.76094 0
M  V30 467 C 49.0989 5.34601 2.07338 0
M  V30 468 N 48.5949 6.5104 2.36894 0
M  V30 469 N 50.3879 5.22007 2.08483 0
M  V30 470 H 42.5389 2.11092 -0.235328 0
M  V30 471 H 44.8019 0.947039 -0.0426669 0
M  V30 472 H 44.5079 3.49001 0.434913 0
M  V30 473 H 44.3819 3.10467 2.1422 0
M  V30 474 H 46.7689 2.11655 2.05637 0
M  V30 475 H 46.8499 2.53542 0.339155 0
M  V30 476 H 46.4939 4.99048 0.944135 0
M  V30 477 H 46.4239 4.54094 2.66658 0
M  V30 478 H 48.9149 3.44441 1.55464 0
M  V30 479 H 49.2279 7.2779 2.59887 0
M  V30 480 H 47.5729 6.54287 2.34378 0
M  V30 481 H 50.7639 4.30051 1.84861 0
M  V30 482 H 50.9369 6.04854 2.325 0
M  V30 483 N 44.343 -0.763751 1.37857 0
M  V30 484 C 45.29 -1.87726 1.34267 0
M  V30 485 C 46.26 -1.64807 0.206879 0
M  V30 486 O 47.445 -1.86613 0.397508 0
M  V30 487 C 44.585 -3.24896 1.16346 0
M  V30 488 C 43.698 -3.59716 2.39225 0
M  V30 489 C 42.833 -4.86137 2.14114 0
M  V30 490 C 41.872 -5.13711 3.32817 0
M  V30 491 N 41.009 -6.31323 3.07206 0
M  V30 492 H 45.849 -1.90129 2.29466 0
M  V30 493 H 43.386 -0.929433 1.14017 0
M  V30 494 H 45.344 -4.04036 1.03975 0
M  V30 495 H 43.974 -3.21847 0.247909 0
M  V30 496 H 43.026 -2.75498 2.62307 0
M  V30 497 H 44.338 -3.76027 3.27728 0
M  V30 498 H 43.492 -5.73198 1.9882 0
M  V30 499 H 42.231 -4.71945 1.22961 0
M  V30 500 H 41.236 -4.25123 3.48641 0
M  V30 501 H 42.461 -5.29807 4.24832 0
M  V30 502 H 40.407 -6.18474 2.1869 0
M  V30 503 H 40.324 -6.48087 3.89254 0
M  V30 504 H 41.592 -7.213 2.95546 0
M  V30 505 N 45.8211 -1.22559 -0.990812 0
M  V30 506 C 47.0461 -1.07862 -1.77145 0
M  V30 507 C 47.4711 0.366447 -1.84496 0
M  V30 508 O 46.8291 1.26478 -1.29896 0
M  V30 509 C 46.8771 -1.69686 -3.18181 0
M  V30 510 O 45.9811 -0.951946 -4.01263 0
M  V30 511 H 45.3221 -0.378712 -0.545411 0
M  V30 512 H 47.8521 -1.62399 -1.2445 0
M  V30 513 H 47.8621 -1.74496 -3.68802 0
M  V30 514 H 46.5371 -2.74841 -3.12146 0
M  V30 515 H 45.1141 -0.980011 -3.59792 0
M  V30 516 N 47.2992 1.18797 -1.03562 0
M  V30 517 C 48.2472 2.24297 -0.615905 0
M  V30 518 C 49.2412 1.65643 0.354808 0
M  V30 519 O 50.4472 1.78618 0.22265 0
M  V30 520 H 46.8222 0.729909 -0.180934 0
M  V30 521 H 48.7932 2.5701 -1.5162 0
M  V30 522 C 47.5422 3.47698 0.0104735 0
M  V30 523 H 46.8652 3.93125 -0.727509 0
M  V30 524 H 48.3052 4.23159 0.266995 0
M  V30 525 C 46.7642 3.12489 1.25905 0
M  V30 526 O 47.2942 3.25761 2.35038 0
M  V30 527 N 45.5002 2.6686 1.15039 0
M  V30 528 H 45.0472 2.56261 0.262328 0
M  V30 529 H 45.0052 2.43674 1.98672 0
M  V30 530 N 48.7773 0.814389 1.34928 0
M  V30 531 C 50.0243 0.398423 1.98542 0
M  V30 532 C 50.3523 -1.03638 1.64589 0
M  V30 533 O 49.6073 -1.73509 0.90516 0
M  V30 534 C 49.9063 0.537781 3.53331 0
M  V30 535 C 49.5723 1.93704 4.07172 0
M  V30 536 C 48.2343 2.31984 4.21589 0
M  V30 537 C 50.5863 2.85213 4.36237 0
M  V30 538 C 47.9143 3.61125 4.62391 0
M  V30 539 C 50.2663 4.13809 4.78482 0
M  V30 540 C 48.9303 4.52077 4.91104 0
M  V30 541 H 48.2003 0.145793 0.726516 0
M  V30 542 H 50.8473 1.03669 1.61012 0
M  V30 543 H 49.1523 -0.183906 3.91368 0
M  V30 544 H 50.8493 0.196588 4.00518 0
M  V30 545 H 47.4393 1.62966 3.96409 0
M  V30 546 H 51.6233 2.56885 4.24645 0
M  V30 547 H 46.8793 3.90612 4.70353 0
M  V30 548 H 51.0533 4.84811 4.99932 0
M  V30 549 H 48.6803 5.52196 5.22478 0
M  V30 550 N 50.2554 -1.46986 0.568584 0
M  V30 551 C 51.2184 -2.28624 -0.162366 0
M  V30 552 C 52.2184 -1.37596 -0.832103 0
M  V30 553 O 53.4084 -1.60115 -0.68622 0
M  V30 554 C 50.5404 -3.17596 -1.23878 0
M  V30 555 H 51.7334 -2.94722 0.554899 0
M  V30 556 H 49.2864 -1.52863 0.325976 0
M  V30 557 H 50.0214 -2.56214 -1.98808 0
M  V30 558 H 49.8064 -3.846 -0.763219 0
M  V30 559 H 51.2964 -3.79078 -1.75185 0
M  V30 560 N 51.7335 -0.305618 -1.54608 0
M  V30 561 C 52.6435 0.57778 -2.27374 0
M  V30 562 C 53.6595 1.14451 -1.31061 0
M  V30 563 O 54.8355 1.16831 -1.6405 0
M  V30 564 C 51.9005 1.73123 -3.00382 0
M  V30 565 C 50.9615 1.19812 -4.12242 0
M  V30 566 C 50.1945 2.2966 -4.81759 0
M  V30 567 O 50.4175 3.49651 -4.50666 0
M  V30 568 O 49.3515 1.96091 -5.69062 0
M  V30 569 H 53.1775 -0.012624 -3.03697 0
M  V30 570 H 50.7625 -0.0719184 -1.49227 0
M  V30 571 H 52.6445 2.40315 -3.4616 0
M  V30 572 H 51.3195 2.30815 -2.26949 0
M  V30 573 H 50.2265 0.491798 -3.70853 0
M  V30 574 H 51.5595 0.666566 -4.87666 0
M  V30 575 N 53.2116 1.57565 -0.0334293 0
M  V30 576 C 54.1746 2.09393 0.932048 0
M  V30 577 C 55.1746 1.00986 1.25134 0
M  V30 578 O 56.3646 1.27129 1.19096 0
M  V30 579 C 53.4966 2.56338 2.2473 0
M  V30 580 H 54.6896 2.95984 0.483085 0
M  V30 581 H 52.2426 1.54819 0.21468 0
M  V30 582 H 52.9776 1.7309 2.74245 0
M  V30 583 H 52.7626 3.35542 2.02865 0
M  V30 584 H 54.2526 2.96646 2.93923 0
M  V30 585 N 54.6897 -0.239769 1.55765 0
M  V30 586 C 55.6197 -1.30052 1.9393 0
M  V30 587 C 56.6007 -1.49839 0.805132 0
M  V30 588 O 57.7857 -1.62328 1.06599 0
M  V30 589 C 54.9157 -2.65391 2.2402 0
M  V30 590 C 53.8697 -2.60289 3.39755 0
M  V30 591 C 53.1957 -3.99489 3.55405 0
M  V30 592 C 54.4957 -2.16654 4.75246 0
M  V30 593 H 56.1897 -0.983573 2.82783 0
M  V30 594 H 53.7357 -0.471701 1.36055 0
M  V30 595 H 55.6887 -3.3974 2.49308 0
M  V30 596 H 54.4127 -2.98736 1.32 0
M  V30 597 H 53.0717 -1.88398 3.14487 0
M  V30 598 H 52.7197 -4.30112 2.60793 0
M  V30 599 H 52.4197 -3.96962 4.33238 0
M  V30 600 H 53.9437 -4.75528 3.83022 0
M  V30 601 H 55.3577 -2.80737 4.99859 0
M  V30 602 H 53.7547 -2.25223 5.56232 0
M  V30 603 H 54.8247 -1.11835 4.71827 0
M  V30 604 N 56.1678 -1.49265 -0.50573 0
M  V30 605 C 57.1308 -1.65075 -1.59006 0
M  V30 606 C 58.1308 -0.522768 -1.52065 0
M  V30 607 O 59.3208 -0.789117 -1.55302 0
M  V30 608 C 56.4528 -1.64369 -2.98656 0
M  V30 609 H 57.6458 -2.61784 -1.46319 0
M  V30 610 H 55.1988 -1.38226 -0.729616 0
M  V30 611 H 55.9338 -0.692272 -3.16825 0
M  V30 612 H 55.7188 -2.46282 -3.05103 0
M  V30 613 H 57.2088 -1.78674 -3.77446 0
M  V30 614 N 57.6459 0.756429 -1.3826 0
M  V30 615 C 58.6089 1.85176 -1.35065 0
M  V30 616 C 59.6089 1.58818 -0.251703 0
M  V30 617 O 60.7989 1.66615 -0.508433 0
M  V30 618 C 57.9309 3.22596 -1.10201 0
M  V30 619 H 59.1239 1.89417 -2.3251 0
M  V30 620 H 56.6769 0.95783 -1.23512 0
M  V30 621 H 57.4119 3.24025 -0.133504 0
M  V30 622 H 57.1969 3.43122 -1.89762 0
M  V30 623 H 58.6869 4.02673 -1.10654 0
M  V30 624 N 59.124 1.23083 0.984299 0
M  V30 625 C 60.074 0.975749 2.06066 0
M  V30 626 C 61.058 -0.0768251 1.60716 0
M  V30 627 O 62.25 0.134805 1.76486 0
M  V30 628 C 59.379 0.564673 3.38624 0
M  V30 629 C 58.465 1.65244 3.90583 0
M  V30 630 N 58.856 2.88193 4.15666 0
M  V30 631 C 57.154 1.52612 4.19077 0
M  V30 632 C 57.855 3.58593 4.58024 0
M  V30 633 N 56.831 2.86093 4.62225 0
M  V30 634 H 60.633 1.90957 2.23411 0
M  V30 635 H 58.147 1.12963 1.16675 0
M  V30 636 H 60.144 0.36322 4.15315 0
M  V30 637 H 58.804 -0.362147 3.22674 0
M  V30 638 H 59.815 3.24537 4.03604 0
M  V30 639 H 56.492 0.666121 4.12152 0
M  V30 640 H 57.882 4.63974 4.85982 0
M  V30 641 N 60.6021 -1.18246 1.0419 0
M  V30 642 C 61.5491 -2.2192 0.634037 0
M  V30 643 C 62.5191 -1.62179 -0.358765 0
M  V30 644 O 63.7041 -1.89122 -0.252466 0
M  V30 645 C 60.8441 -3.451 0.00445535 0
M  V30 646 C 59.9571 -4.19174 1.04487 0
M  V30 647 C 59.0921 -5.29813 0.383676 0
M  V30 648 C 58.1311 -5.9566 1.4091 0
M  V30 649 N 57.2681 -6.97834 0.772784 0
M  V30 650 H 62.1081 -2.56164 1.52263 0
M  V30 651 H 59.6451 -1.25843 0.761701 0
M  V30 652 H 61.6031 -4.15485 -0.377919 0
M  V30 653 H 60.2331 -3.11472 -0.847652 0
M  V30 654 H 59.2851 -3.47604 1.54518 0
M  V30 655 H 60.5971 -4.64267 1.82368 0
M  V30 656 H 59.7511 -6.06677 -0.0528366 0
M  V30 657 H 58.4901 -4.85825 -0.427208 0
M  V30 658 H 57.4951 -5.17535 1.85574 0
M  V30 659 H 58.7201 -6.4173 2.22171 0
M  V30 660 H 56.6661 -6.55998 -0.0177708 0
M  V30 661 H 56.5831 -7.41186 1.48928 0
M  V30 662 H 57.8511 -7.78665 0.36071 0
M  V30 663 N 62.0802 -0.821533 -1.34494 0
M  V30 664 C 63.3102 -0.421272 -2.02259 0
M  V30 665 C 63.7182 0.977047 -1.6202 0
M  V30 666 O 63.0612 1.64348 -0.820703 0
M  V30 667 C 63.1232 -0.44231 -3.56769 0
M  V30 668 C 62.7872 -1.79372 -4.20327 0
M  V30 669 C 63.7842 -2.75435 -4.40944 0
M  V30 670 C 61.4692 -2.08182 -4.57127 0
M  V30 671 C 63.4632 -3.98482 -4.97484 0
M  V30 672 C 61.1502 -3.31489 -5.13379 0
M  V30 673 C 62.1482 -4.26457 -5.33501 0
M  V30 674 O 61.8362 -5.47585 -5.88562 0
M  V30 675 H 61.5682 -0.167473 -0.654927 0
M  V30 676 H 64.1222 -1.11073 -1.72777 0
M  V30 677 H 62.3522 0.303836 -3.85505 0
M  V30 678 H 64.0412 -0.0622925 -4.05852 0
M  V30 679 H 64.8072 -2.54473 -4.12878 0
M  V30 680 H 60.6862 -1.35066 -4.4077 0
M  V30 681 H 64.2302 -4.72618 -5.13106 0
M  V30 682 H 60.1272 -3.52316 -5.40873 0
M  V30 683 H 60.8952 -5.49086 -6.06998 0
M  V30 684 N 63.5583 1.46682 -0.576371 0
M  V30 685 C 64.4883 2.33028 0.148397 0
M  V30 686 C 65.4693 1.44961 0.889956 0
M  V30 687 O 66.6543 1.73789 0.866662 0
M  V30 688 C 63.7843 3.27117 1.1667 0
M  V30 689 C 62.7383 4.24575 0.540386 0
M  V30 690 C 62.0643 5.08126 1.6647 0
M  V30 691 C 63.3643 5.19722 -0.518331 0
M  V30 692 H 65.0583 2.93875 -0.572509 0
M  V30 693 H 62.6043 1.41315 -0.276768 0
M  V30 694 H 64.5573 3.86374 1.68204 0
M  V30 695 H 63.2813 2.64364 1.9178 0
M  V30 696 H 61.9403 3.66571 0.0461769 0
M  V30 697 H 61.5883 4.41762 2.40531 0
M  V30 698 H 61.2883 5.74122 1.25131 0
M  V30 699 H 62.8123 5.70246 2.18293 0
M  V30 700 H 64.2263 5.73232 -0.0883058 0
M  V30 701 H 62.6233 5.94026 -0.851679 0
M  V30 702 H 63.6933 4.64037 -1.40703 0
M  V30 703 N 65.0364 0.313813 1.54444 0
M  V30 704 C 65.9664 -0.549454 2.26943 0
M  V30 705 C 66.9474 -1.12741 1.27372 0
M  V30 706 O 68.1324 -1.15436 1.56167 0
M  V30 707 C 65.2624 -1.71523 3.01989 0
M  V30 708 C 64.2164 -1.26703 4.08816 0
M  V30 709 C 63.5424 -2.51898 4.71647 0
M  V30 710 C 64.8424 -0.388962 5.2085 0
M  V30 711 H 66.5364 0.0552661 2.99349 0
M  V30 712 H 64.0824 0.0280207 1.43973 0
M  V30 713 H 66.0354 -2.32535 3.51433 0
M  V30 714 H 64.7594 -2.34639 2.27183 0
M  V30 715 H 63.4184 -0.679896 3.6024 0
M  V30 716 H 63.0664 -3.13356 3.93468 0
M  V30 717 H 62.7664 -2.22605 5.43802 0
M  V30 718 H 64.2904 -3.1369 5.23861 0
M  V30 719 H 65.7044 -0.905107 5.6611 0
M  V30 720 H 64.1014 -0.18924 5.99802 0
M  V30 721 H 65.1714 0.582699 4.81386 0
M  V30 722 N 66.5145 -1.57545 0.0417849 0
M  V30 723 C 67.7605 -1.92601 -0.635021 0
M  V30 724 C 68.0935 -0.919627 -1.71045 0
M  V30 725 O 67.3685 0.0557892 -1.9442 0
M  V30 726 C 67.6515 -3.38085 -1.23979 0
M  V30 727 C 67.5045 -4.49467 -0.173057 0
M  V30 728 C 68.8235 -3.83776 -2.15416 0
M  V30 729 H 65.9425 -0.700397 -0.229374 0
M  V30 730 H 68.5845 -1.89728 0.101633 0
M  V30 731 H 66.7345 -3.40664 -1.86762 0
M  V30 732 H 68.4065 -4.59018 0.458312 0
M  V30 733 H 66.6495 -4.30909 0.499996 0
M  V30 734 H 67.3205 -5.48323 -0.636054 0
M  V30 735 H 69.7965 -3.83013 -1.62605 0
M  V30 736 H 68.6725 -4.8624 -2.54679 0
M  V30 737 H 68.9335 -3.19998 -3.05047 0
M  V30 738 N 67.9926 0.231505 -1.5589 0
M  V30 739 C 68.9026 1.308 -1.94752 0
M  V30 740 C 69.9186 1.51826 -0.849989 0
M  V30 741 O 71.0946 1.6515 -1.15271 0
M  V30 742 C 68.1596 2.63968 -2.24771 0
M  V30 743 C 67.2206 2.51331 -3.48039 0
M  V30 744 C 66.4536 3.78148 -3.76616 0
M  V30 745 O 66.6766 4.80722 -3.07022 0
M  V30 746 O 65.6106 3.75857 -4.70123 0
M  V30 747 H 69.4366 1.0083 -2.86474 0
M  V30 748 H 67.0216 0.433547 -1.42971 0
M  V30 749 H 68.9036 3.42633 -2.45318 0
M  V30 750 H 67.5786 2.9364 -1.36225 0
M  V30 751 H 66.4856 1.709 -3.32782 0
M  V30 752 H 67.8186 2.26601 -4.36936 0
M  V30 753 N 69.4707 1.49531 0.497807 0
M  V30 754 C 70.7177 1.59179 1.25173 0
M  V30 755 C 71.0457 0.279932 1.92475 0
M  V30 756 O 70.3007 -0.732383 1.81479 0
M  V30 757 C 70.5997 2.70252 2.33878 0
M  V30 758 C 70.2657 4.11644 1.84012 0
M  V30 759 C 68.9277 4.50121 1.70132 0
M  V30 760 C 71.2797 5.00121 1.46725 0
M  V30 761 C 68.6077 5.74845 1.17348 0
M  V30 762 C 70.9597 6.25366 0.95392 0
M  V30 763 C 69.6237 6.6267 0.801538 0
M  V30 764 H 68.8937 0.582478 0.45804 0
M  V30 765 H 71.5407 1.83373 0.551948 0
M  V30 766 H 69.8457 2.40041 3.09657 0
M  V30 767 H 71.5427 2.74925 2.9192 0
M  V30 768 H 68.1327 3.81274 1.95775 0
M  V30 769 H 72.3167 4.71048 1.56294 0
M  V30 770 H 67.5727 6.02444 1.04264 0
M  V30 771 H 71.7467 6.93301 0.656225 0
M  V30 772 H 69.3737 7.59197 0.390351 0
M  V30 773 N 70.9488 -0.749086 1.3866 0
M  V30 774 C 72.1788 -1.53611 1.38157 0
M  V30 775 C 72.5868 -1.89177 -0.0293595 0
M  V30 776 O 71.9298 -1.53606 -1.00752 0
M  V30 777 C 71.9918 -2.86087 2.17702 0
M  V30 778 C 71.6558 -2.73034 3.66472 0
M  V30 779 C 72.6528 -2.42526 4.59866 0
M  V30 780 C 70.3378 -2.90345 4.09884 0
M  V30 781 C 72.3318 -2.29492 5.94653 0
M  V30 782 C 70.0188 -2.7693 5.4475 0
M  V30 783 C 71.0168 -2.46547 6.36949 0
M  V30 784 O 70.7048 -2.33199 7.69333 0
M  V30 785 H 70.4368 -0.481773 0.474205 0
M  V30 786 H 72.9908 -0.934465 1.82912 0
M  V30 787 H 71.2208 -3.48458 1.67672 0
M  V30 788 H 72.9098 -3.47625 2.09551 0
M  V30 789 H 73.6758 -2.28816 4.27631 0
M  V30 790 H 69.5548 -3.1299 3.38464 0
M  V30 791 H 73.0988 -2.05698 6.66584 0
M  V30 792 H 68.9958 -2.90215 5.76581 0
M  V30 793 H 69.7638 -2.48376 7.79905 0
M  V30 794 N 72.4269 -1.23603 -0.977757 0
M  V30 795 C 73.3899 -1.02069 -2.05218 0
M  V30 796 C 74.3899 0.0184305 -1.60789 0
M  V30 797 O 75.5799 -0.221569 -1.72785 0
M  V30 798 C 72.7119 -0.544926 -3.36517 0
M  V30 799 H 73.9049 -1.9742 -2.25755 0
M  V30 800 H 71.4579 -1.05684 -1.15155 0
M  V30 801 H 72.1929 0.412241 -3.21669 0
M  V30 802 H 71.9779 -1.2948 -3.70105 0
M  V30 803 H 73.4679 -0.414985 -4.15533 0
M  V30 804 N 73.905 1.17692 -1.04816 0
M  V30 805 C 75.316 1.69501 -0.782698 0
M  V30 806 C 75.667 1.83456 0.695577 0
M  V30 807 O 74.792 1.51942 1.54086 0
M  V30 808 C 75.387 3.07874 -1.41419 0
M  V30 809 C 73.946 3.56864 -1.19686 0
M  V30 810 C 73.093 2.3322 -1.50012 0
M  V30 811 H 76.044 1.02262 -1.2136 0
M  V30 812 H 76.065 3.71528 -0.821428 0
M  V30 813 H 75.577 2.97685 -2.49009 0
M  V30 814 H 73.678 3.72337 -0.140043 0
M  V30 815 H 73.791 4.39851 -1.89916 0
M  V30 816 H 72.155 2.37501 -0.920071 0
M  V30 817 H 72.938 2.25644 -2.58727 0
M  V30 818 N 75.3831 0.828654 1.34056 0
M  V30 819 C 76.6291 0.429279 1.98818 0
M  V30 820 C 76.9841 -0.998011 1.64492 0
M  V30 821 O 76.2771 -1.68652 0.909228 0
M  V30 822 C 76.4711 0.575226 3.52741 0
M  V30 823 C 76.3001 2.01515 4.02022 0
M  V30 824 C 75.0701 2.64825 4.30344 0
M  V30 825 C 77.2681 2.98261 4.18981 0
M  V30 826 N 75.2501 3.99998 4.65698 0
M  V30 827 C 76.6211 4.18356 4.57578 0
M  V30 828 C 78.6761 2.94802 4.01243 0
M  V30 829 C 77.3791 5.35454 4.80293 0
M  V30 830 C 79.4051 4.11121 4.25128 0
M  V30 831 C 78.7671 5.29969 4.64018 0
M  V30 832 H 74.8661 0.205304 0.754569 0
M  V30 833 H 77.4501 1.07457 1.62361 0
M  V30 834 H 75.6211 -0.0401962 3.88379 0
M  V30 835 H 77.3531 0.148292 4.04428 0
M  V30 836 H 74.1081 2.16027 4.21461 0
M  V30 837 H 74.5321 4.69653 4.87601 0
M  V30 838 H 79.1741 2.04054 3.70299 0
M  V30 839 H 76.8921 6.26755 5.10102 0
M  V30 840 H 80.4781 4.0985 4.12934 0
M  V30 841 H 79.3581 6.18479 4.82134 0
M  V30 842 N 76.8612 -1.46375 0.584142 0
M  V30 843 C 78.1012 -2.0427 0.0729695 0
M  V30 844 C 78.4652 -1.44563 -1.26355 0
M  V30 845 O 79.6662 -1.93667 -1.86405 0
M  V30 846 C 77.9372 -3.57399 0.00967464 0
M  V30 847 S 79.4962 -4.36551 -0.443714 0
M  V30 848 H 76.3142 -0.709975 0.0381673 0
M  V30 849 H 78.9162 -1.79398 0.776962 0
M  V30 850 H 77.6202 -3.98372 0.986319 0
M  V30 851 H 77.1512 -3.8681 -0.717044 0
M  V30 852 H 79.1662 -4.66237 -1.69816 0
M  V30 853 N 78.3393 -0.321999 -1.54275 0
M  V30 854 C 79.5873 0.280489 -2.00144 0
M  V30 855 C 79.9083 1.52777 -1.21178 0
M  V30 856 O 79.1783 1.9338 -0.313187 0
M  V30 857 H 77.7583 0.106632 -0.73935 0
M  V30 858 H 80.4203 -0.438184 -1.8991 0
M  V30 859 H 79.5163 0.537972 -3.07428 0
M  V30 860 N 79.8174 1.5752 -0.0501392 0
M  V30 861 C 80.7674 2.07981 0.934231 0
M  V30 862 C 81.7514 0.984745 1.27246 0
M  V30 863 O 82.9434 1.24809 1.25506 0
M  V30 864 C 80.0724 2.62751 2.20945 0
M  V30 865 C 79.1584 3.79225 1.89865 0
M  V30 866 N 79.5494 4.89036 1.29142 0
M  V30 867 C 77.8474 3.88111 2.19741 0
M  V30 868 C 78.5484 5.70084 1.15669 0
M  V30 869 N 77.5244 5.17659 1.65923 0
M  V30 870 H 81.3264 2.90277 0.460053 0
M  V30 871 H 78.8404 1.61665 0.15434 0
M  V30 872 H 80.8374 2.97205 2.9236 0
M  V30 873 H 79.4974 1.81894 2.6897 0
M  V30 874 H 80.5084 5.08854 0.963756 0
M  V30 875 H 77.1854 3.18194 2.70293 0
M  V30 876 H 78.5754 6.68395 0.685356 0
M  V30 877 N 81.2955 -0.223234 1.56011 0
M  V30 878 C 82.5355 -0.954962 1.8072 0
M  V30 879 C 82.8995 -1.81598 0.623384 0
M  V30 880 O 84.1005 -2.58132 0.749745 0
M  V30 881 C 82.3715 -1.77313 3.10314 0
M  V30 882 S 83.9305 -2.56073 3.56332 0
M  V30 883 H 80.7485 -0.320812 0.634508 0
M  V30 884 H 83.3505 -0.220686 1.9425 0
M  V30 885 H 82.0545 -1.13071 3.94516 0
M  V30 886 H 81.5855 -2.54974 2.99586 0
M  V30 887 H 83.6005 -3.79619 3.19536 0
M  V30 888 N 82.7736 -1.49793 -0.48987 0
M  V30 889 C 83.7206 -1.67281 -1.59014 0
M  V30 890 C 84.6906 -0.514177 -1.57941 0
M  V30 891 O 85.8756 -0.742533 -1.75759 0
M  V30 892 C 83.0156 -1.75569 -2.97102 0
M  V30 893 C 82.1286 -3.0281 -3.08107 0
M  V30 894 C 81.2636 -3.02008 -4.36995 0
M  V30 895 C 80.3026 -4.23782 -4.41673 0
M  V30 896 N 79.4396 -4.20826 -5.62005 0
M  V30 897 H 84.2796 -2.61224 -1.43409 0
M  V30 898 H 81.8166 -1.29508 -0.697565 0
M  V30 899 H 83.7746 -1.78354 -3.77155 0
M  V30 900 H 82.4046 -0.850827 -3.11385 0
M  V30 901 H 81.4566 -3.09584 -2.21047 0
M  V30 902 H 82.7686 -3.92801 -3.07423 0
M  V30 903 H 81.9226 -3.03418 -5.25378 0
M  V30 904 H 80.6616 -2.09815 -4.4026 0
M  V30 905 H 79.6666 -4.22604 -3.5169 0
M  V30 906 H 80.8916 -5.17181 -4.40115 0
M  V30 907 H 78.8376 -3.31476 -5.66091 0
M  V30 908 H 78.7546 -5.04564 -5.62984 0
M  V30 909 H 80.0226 -4.26355 -6.52565 0
M  V30 910 N 84.2517 0.741722 -1.39055 0
M  V30 911 C 85.2147 1.83733 -1.37021 0
M  V30 912 C 86.2147 1.58542 -0.268534 0
M  V30 913 O 87.4047 1.66067 -0.526076 0
M  V30 914 C 84.5367 3.2141 -1.13617 0
M  V30 915 H 85.7297 1.86941 -2.34506 0
M  V30 916 H 83.2827 0.944676 -1.24521 0
M  V30 917 H 84.0177 3.23865 -0.167863 0
M  V30 918 H 83.8027 3.4109 -1.93391 0
M  V30 919 H 85.2927 4.01477 -1.14918 0
M  V30 920 N 85.7298 1.2412 0.971189 0
M  V30 921 C 86.6598 1.05508 2.08304 0
M  V30 922 C 87.6408 -0.0308864 1.70072 0
M  V30 923 O 88.8258 0.135521 1.93727 0
M  V30 924 C 85.9558 0.655365 3.4106 0
M  V30 925 C 84.9098 1.68971 3.93234 0
M  V30 926 C 84.2358 1.14516 5.22293 0
M  V30 927 C 85.5358 3.08487 4.21465 0
M  V30 928 H 87.2298 1.98507 2.24132 0
M  V30 929 H 84.7758 0.955821 1.07704 0
M  V30 930 H 86.7288 0.51217 4.18276 0
M  V30 931 H 85.4528 -0.31032 3.25122 0
M  V30 932 H 84.1118 1.82106 3.18171 0
M  V30 933 H 83.7598 0.170189 5.02712 0
M  V30 934 H 83.4598 1.83635 5.58168 0
M  V30 935 H 84.9838 1.01401 6.02121 0
M  V30 936 H 86.3978 2.98601 4.89398 0
M  V30 937 H 84.7948 3.74926 4.68562 0
M  V30 938 H 85.8648 3.56787 3.28376 0
M  V30 939 N 87.2079 -1.17134 1.05439 0
M  V30 940 C 88.1709 -2.19439 0.661764 0
M  V30 941 C 89.1709 -1.58199 -0.288042 0
M  V30 942 O 90.3609 -1.74053 -0.0715803 0
M  V30 943 C 87.4929 -3.40889 -0.0276209 0
M  V30 944 H 88.6859 -2.55688 1.56728 0
M  V30 945 H 86.2389 -1.31259 0.848567 0
M  V30 946 H 86.9739 -3.10187 -0.94629 0
M  V30 947 H 86.7589 -3.86586 0.655238 0
M  V30 948 H 88.2489 -4.16603 -0.288342 0
M  V30 949 N 88.686 -0.835752 -1.33615 0
M  V30 950 C 90.097 -0.487099 -1.80234 0
M  V30 951 C 90.448 0.993627 -1.69179 0
M  V30 952 O 89.573 1.77403 -1.23924 0
M  V30 953 C 90.168 -0.877385 -3.27242 0
M  V30 954 C 88.727 -0.580915 -3.7189 0
M  V30 955 C 87.874 -1.0874 -2.5509 0
M  V30 956 H 90.825 -1.02474 -1.2118 0
M  V30 957 H 90.846 -0.186195 -3.80044 0
M  V30 958 H 90.358 -1.95512 -3.35256 0
M  V30 959 H 88.459 0.486881 -3.69405 0
M  V30 960 H 88.572 -1.13396 -4.65487 0
M  V30 961 H 86.936 -0.508392 -2.49575 0
M  V30 962 H 87.719 -2.17184 -2.65868 0
M  V30 963 N 90.1641 1.46063 -0.591896 0
M  V30 964 C 91.0741 2.34192 0.13831 0
M  V30 965 C 92.0901 1.50305 0.876608 0
M  V30 966 O 93.2661 1.8315 0.837728 0
M  V30 967 C 90.3311 3.27656 1.13326 0
M  V30 968 C 89.3921 4.27445 0.39863 0
M  V30 969 C 88.6251 5.16443 1.34618 0
M  V30 970 O 88.8481 5.08553 2.58321 0
M  V30 971 O 87.7821 5.95843 0.851768 0
M  V30 972 H 91.6081 2.98002 -0.58552 0
M  V30 973 H 89.1931 1.45188 -0.352239 0
M  V30 974 H 91.0751 3.85291 1.70671 0
M  V30 975 H 89.7501 2.6643 1.83839 0
M  V30 976 H 88.6571 3.73471 -0.216895 0
M  V30 977 H 89.9901 4.91482 -0.265709 0
M  V30 978 N 91.6422 0.330177 1.54103 0
M  V30 979 C 92.8722 -0.271784 2.04805 0
M  V30 980 C 93.2802 -1.45816 1.20559 0
M  V30 981 O 92.6232 -1.82247 0.2306 0
M  V30 982 C 92.6852 -0.763238 3.51305 0
M  V30 983 C 92.3492 0.301705 4.56003 0
M  V30 984 C 93.3462 1.13999 5.07248 0
M  V30 985 C 91.0312 0.451793 5.00264 0
M  V30 986 C 93.0252 2.11402 6.01322 0
M  V30 987 C 90.7122 1.42924 5.94151 0
M  V30 988 C 91.7102 2.25882 6.44567 0
M  V30 989 O 91.3982 3.21965 7.3661 0
M  V30 990 H 91.1302 -0.058693 0.673447 0
M  V30 991 H 93.6842 0.476395 1.99799 0
M  V30 992 H 91.9142 -1.56244 3.5373 0
M  V30 993 H 93.6032 -1.28427 3.85047 0
M  V30 994 H 94.3692 1.03505 4.73827 0
M  V30 995 H 90.2482 -0.184044 4.60632 0
M  V30 996 H 93.7922 2.76192 6.40596 0
M  V30 997 H 89.6892 1.53479 6.26988 0
M  V30 998 H 90.4572 3.17281 7.54503 0
M  V30 999 N 93.1203 -1.57491 0.0584922 0
M  V30 1000 C 94.0833 -2.1085 -0.898617 0
M  V30 1001 C 95.0833 -1.02964 -1.23511 0
M  V30 1002 O 96.2733 -1.29007 -1.17059 0
M  V30 1003 C 93.4053 -2.59881 -2.20623 0
M  V30 1004 H 94.5983 -2.96715 -0.435936 0
M  V30 1005 H 92.1513 -1.55141 -0.190023 0
M  V30 1006 H 92.8863 -1.77431 -2.71457 0
M  V30 1007 H 92.6713 -3.38727 -1.97501 0
M  V30 1008 H 94.1613 -3.01285 -2.89166 0
M  V30 1009 N 94.5984 0.214957 -1.56127 0
M  V30 1010 C 95.5454 1.26642 -1.92952 0
M  V30 1011 C 96.5154 1.46244 -0.78753 0
M  V30 1012 O 97.7004 1.59704 -1.04399 0
M  V30 1013 C 94.8404 2.6104 -2.25726 0
M  V30 1014 C 93.9534 2.49183 -3.52891 0
M  V30 1015 C 93.0884 3.76149 -3.7508 0
M  V30 1016 C 92.1274 3.59041 -4.95738 0
M  V30 1017 N 91.2644 4.77972 -5.14283 0
M  V30 1018 H 96.1044 0.945384 -2.82607 0
M  V30 1019 H 93.6414 0.455489 -1.3987 0
M  V30 1020 H 95.5994 3.39313 -2.42739 0
M  V30 1021 H 94.2294 2.91227 -1.39236 0
M  V30 1022 H 93.2814 1.6231 -3.44034 0
M  V30 1023 H 94.5934 2.32466 -4.41318 0
M  V30 1024 H 93.7474 4.62865 -3.92226 0
M  V30 1025 H 92.4864 3.95799 -2.84947 0
M  V30 1026 H 91.4914 2.7071 -4.78535 0
M  V30 1027 H 92.7164 3.40856 -5.87362 0
M  V30 1028 H 90.6624 4.97923 -4.27093 0
M  V30 1029 H 90.5794 4.64006 -5.96853 0
M  V30 1030 H 91.8474 5.66096 -5.35869 0
M  V30 1031 N 96.0765 1.50051 0.48192 0
M  V30 1032 C 97.0395 1.67584 1.5636 0
M  V30 1033 C 98.0395 0.546894 1.51214 0
M  V30 1034 O 99.2295 0.813725 1.54026 0
M  V30 1035 C 96.3615 1.691 2.96003 0
M  V30 1036 H 97.5545 2.64078 1.42136 0
M  V30 1037 H 95.1075 1.39369 0.707533 0
M  V30 1038 H 95.8425 0.742589 3.15684 0
M  V30 1039 H 95.6275 2.51105 3.01146 0
M  V30 1040 H 97.1175 1.84656 3.74556 0
M  V30 1041 N 97.5546 -0.734337 1.39446 0
M  V30 1042 C 98.5176 -1.83004 1.37994 0
M  V30 1043 C 99.5176 -1.58397 0.276938 0
M  V30 1044 O 100.708 -1.65785 0.534875 0
M  V30 1045 C 97.8396 -3.20802 1.1532 0
M  V30 1046 H 99.0326 -1.85694 2.35494 0
M  V30 1047 H 96.5856 -0.938059 1.25021 0
M  V30 1048 H 97.3206 -3.23772 0.185036 0
M  V30 1049 H 97.1056 -3.4006 1.95197 0
M  V30 1050 H 98.5956 -4.00862 1.17046 0
M  V30 1051 N 99.0327 -1.24633 -0.964593 0
M  V30 1052 C 100.281 -1.08573 -1.70459 0
M  V30 1053 C 100.602 0.375655 -1.91347 0
M  V30 1054 O 99.8717 1.26779 -1.49345 0
M  V30 1055 H 98.4517 -0.398784 -0.631649 0
M  V30 1056 H 101.114 -1.56601 -1.16026 0
M  V30 1057 H 100.21 -1.58623 -2.68785 0
M  V30 1058 N 100.511 1.16574 -1.06058 0
M  V30 1059 C 101.458 2.20883 -0.669263 0
M  V30 1060 C 102.428 1.62729 0.332918 0
M  V30 1061 O 103.613 1.895 0.222346 0
M  V30 1062 C 100.753 3.45049 -0.0593572 0
M  V30 1063 C 99.8658 4.17458 -1.11143 0
M  V30 1064 C 99.0008 5.29135 -0.467916 0
M  V30 1065 C 98.0398 5.93343 -1.50369 0
M  V30 1066 N 97.1768 6.96516 -0.883706 0
M  V30 1067 H 102.017 2.53709 -1.5632 0
M  V30 1068 H 99.5538 1.24616 -0.781625 0
M  V30 1069 H 101.512 4.16033 0.311771 0
M  V30 1070 H 100.142 3.12781 0.797992 0
M  V30 1071 H 99.1938 3.45101 -1.60029 0
M  V30 1072 H 100.506 4.61307 -1.89731 0
M  V30 1073 H 99.6598 6.06684 -0.0436871 0
M  V30 1074 H 98.3988 4.86443 0.349864 0
M  V30 1075 H 97.4038 5.14517 -1.93784 0
M  V30 1076 H 98.6288 6.38114 -2.32352 0
M  V30 1077 H 96.5748 6.55943 -0.086595 0
M  V30 1078 H 96.4918 7.38723 -1.607 0
M  V30 1079 H 97.7598 7.77993 -0.484543 0
M  V30 1080 N 101.989 0.842826 1.3317 0
M  V30 1081 C 102.919 0.294028 2.31641 0
M  V30 1082 C 103.9 -0.600401 1.59151 0
M  V30 1083 O 105.085 -0.523124 1.87022 0
M  V30 1084 C 102.215 -0.528416 3.43257 0
M  V30 1085 C 101.169 0.27056 4.27144 0
M  V30 1086 C 100.495 -0.675881 5.30411 0
M  V30 1087 C 101.795 1.48981 5.00602 0
M  V30 1088 H 103.489 1.11681 2.77791 0
M  V30 1089 H 101.035 0.538478 1.33553 0
M  V30 1090 H 102.988 -0.922674 4.11175 0
M  V30 1091 H 101.712 -1.38445 2.95805 0
M  V30 1092 H 100.371 0.646427 3.60856 0
M  V30 1093 H 100.019 -1.52842 4.79216 0
M  V30 1094 H 99.7189 -0.145374 5.8742 0
M  V30 1095 H 101.243 -1.06757 6.01195 0
M  V30 1096 H 102.657 1.16849 5.61266 0
M  V30 1097 H 101.054 1.95739 5.6728 0
M  V30 1098 H 102.124 2.25746 4.29147 0
M  V30 1099 N 103.467 -1.45747 0.599634 0
M  V30 1100 C 104.414 -2.30467 -0.123849 0
M  V30 1101 C 105.384 -1.41632 -0.86774 0
M  V30 1102 O 106.569 -1.70568 -0.855056 0
M  V30 1103 C 103.709 -3.26402 -1.12051 0
M  V30 1104 C 102.822 -4.3034 -0.37832 0
M  V30 1105 C 101.957 -5.13389 -1.364 0
M  V30 1106 C 100.996 -6.09061 -0.609171 0
M  V30 1107 N 100.133 -6.84918 -1.54374 0
M  V30 1108 H 104.973 -2.91802 0.604627 0
M  V30 1109 H 102.51 -1.43797 0.309972 0
M  V30 1110 H 104.468 -3.80482 -1.7114 0
M  V30 1111 H 103.098 -2.66839 -1.8165 0
M  V30 1112 H 102.15 -3.78984 0.327929 0
M  V30 1113 H 103.462 -4.98354 0.210997 0
M  V30 1114 H 102.616 -5.7183 -2.02719 0
M  V30 1115 H 101.355 -4.45376 -1.98725 0
M  V30 1116 H 100.36 -5.49758 0.0676979 0
M  V30 1117 H 101.585 -6.79099 0.00891991 0
M  V30 1118 H 99.531 -6.19601 -2.15478 0
M  V30 1119 H 99.448 -7.49254 -1.00766 0
M  V30 1120 H 100.716 -7.47906 -2.19676 0
M  V30 1121 N 104.945 -0.338344 -1.53925 0
M  V30 1122 C 105.908 0.508299 -2.23493 0
M  V30 1123 C 106.908 1.03175 -1.23335 0
M  V30 1124 O 108.098 0.921826 -1.47811 0
M  V30 1125 C 105.23 1.70754 -2.95052 0
M  V30 1126 H 106.423 -0.100058 -2.99733 0
M  V30 1127 H 103.976 -0.0896198 -1.56043 0
M  V30 1128 H 104.711 2.35474 -2.22986 0
M  V30 1129 H 104.496 1.33946 -3.68512 0
M  V30 1130 H 105.986 2.30818 -3.48013 0
M  V30 1131 N 106.423 1.57458 -0.0668435 0
M  V30 1132 C 107.333 2.15937 0.916975 0
M  V30 1133 C 108.349 1.12123 1.33058 0
M  V30 1134 O 109.525 1.44366 1.40429 0
M  V30 1135 C 106.59 2.70547 2.16807 0
M  V30 1136 C 105.651 3.89215 1.81135 0
M  V30 1137 C 104.884 4.41211 3.0028 0
M  V30 1138 O 105.107 3.92225 4.14144 0
M  V30 1139 O 104.041 5.32605 2.80384 0
M  V30 1140 H 107.867 3.00354 0.449561 0
M  V30 1141 H 105.452 1.48584 0.155949 0
M  V30 1142 H 107.334 3.0557 2.90181 0
M  V30 1143 H 106.009 1.89192 2.62656 0
M  V30 1144 H 104.916 3.59054 1.05028 0
M  V30 1145 H 106.249 4.71848 1.40073 0
M  V30 1146 N 107.901 -0.206675 1.56239 0
M  V30 1147 C 109.149 -0.927007 1.79586 0
M  V30 1148 C 109.47 -1.8427 0.637929 0
M  V30 1149 O 108.74 -1.92849 -0.344398 0
M  V30 1150 H 107.32 -0.345292 0.662407 0
M  V30 1151 H 109.982 -0.21496 1.93711 0
M  V30 1152 H 109.078 -1.52501 2.72305 0
M  V30 1153 N 109.379 -1.50304 -0.473955 0
M  V30 1154 C 110.604 -1.65175 -1.25427 0
M  V30 1155 C 111.029 -0.333673 -1.85117 0
M  V30 1156 O 110.387 0.702114 -1.67153 0
M  V30 1157 C 110.435 -2.74295 -2.34082 0
M  V30 1158 O 109.539 -2.35349 -3.38651 0
M  V30 1159 H 108.88 -0.551944 -0.369126 0
M  V30 1160 H 111.41 -1.96662 -0.564364 0
M  V30 1161 H 111.42 -2.97285 -2.79438 0
M  V30 1162 H 110.095 -3.69959 -1.90008 0
M  V30 1163 H 108.672 -2.22794 -2.99027 0
M  V30 1164 N 110.857 0.726932 -1.39834 0
M  V30 1165 C 111.767 1.87131 -1.41489 0
M  V30 1166 C 112.783 1.71239 -0.308757 0
M  V30 1167 O 113.959 1.93701 -0.551529 0
M  V30 1168 C 111.024 3.22811 -1.26468 0
M  V30 1169 C 110.085 3.51039 -2.47124 0
M  V30 1170 C 109.318 4.80245 -2.3281 0
M  V30 1171 O 109.541 5.54537 -1.33585 0
M  V30 1172 O 108.475 5.08554 -3.21957 0
M  V30 1173 H 112.301 1.8869 -2.3797 0
M  V30 1174 H 109.886 0.875837 -1.21035 0
M  V30 1175 H 111.768 4.03877 -1.20255 0
M  V30 1176 H 110.443 3.22005 -0.330862 0
M  V30 1177 H 109.35 2.70027 -2.58914 0
M  V30 1178 H 110.683 3.56632 -3.39227 0
M  V30 1179 N 112.336 1.25143 0.95797 0
M  V30 1180 C 113.585 1.0909 1.69654 0
M  V30 1181 C 113.898 -0.368548 1.92097 0
M  V30 1182 O 115.104 -0.649455 2.63618 0
M  V30 1183 C 113.56 1.90395 3.05414 0
M  V30 1184 C 113.168 3.4081 2.90779 0
M  V30 1185 C 114.912 1.82901 3.83076 0
M  V30 1186 C 112.819 4.14423 4.21909 0
M  V30 1187 H 111.749 0.404625 0.636235 0
M  V30 1188 H 114.4 1.4931 1.06672 0
M  V30 1189 H 112.782 1.42996 3.69281 0
M  V30 1190 H 113.956 3.95859 2.35865 0
M  V30 1191 H 112.271 3.49361 2.26575 0
M  V30 1192 H 114.868 2.35196 4.80195 0
M  V30 1193 H 115.211 0.796224 4.08615 0
M  V30 1194 H 115.744 2.28033 3.25954 0
M  V30 1195 H 112.483 5.18102 4.01561 0
M  V30 1196 H 112.003 3.64159 4.76601 0
M  V30 1197 H 113.682 4.21956 4.90471 0
M  V30 1198 N 113.814 -1.1601 1.06675 0
M  V30 1199 C 115.23 -1.38622 0.790948 0
M  V30 1200 C 115.43 -1.92109 -0.607965 0
M  V30 1201 O 114.486 -2.12239 -1.36787 0
M  V30 1202 C 115.799 -2.36347 1.85905 0
M  V30 1203 C 117.347 -2.50023 1.88301 0
M  V30 1204 C 117.822 -3.51033 2.94176 0
M  V30 1205 N 119.313 -3.58563 2.93235 0
M  V30 1206 C 120.048 -4.36521 3.71803 0
M  V30 1207 N 119.544 -5.17869 4.602 0
M  V30 1208 N 121.337 -4.31541 3.60178 0
M  V30 1209 H 113.488 -0.796294 1.96908 0
M  V30 1210 H 115.751 -0.412597 0.853503 0
M  V30 1211 H 115.457 -2.04147 2.86386 0
M  V30 1212 H 115.331 -3.36042 1.71334 0
M  V30 1213 H 117.718 -2.81524 0.884769 0
M  V30 1214 H 117.799 -1.5035 2.06951 0
M  V30 1215 H 117.443 -3.20268 3.94196 0
M  V30 1216 H 117.373 -4.50445 2.72776 0
M  V30 1217 H 119.864 -3.00496 2.29152 0
M  V30 1218 H 120.177 -5.74578 5.16797 0
M  V30 1219 H 118.522 -5.17199 4.64253 0
M  V30 1220 H 121.713 -3.67051 2.90502 0
M  V30 1221 H 121.886 -4.9205 4.21653 0
M  V30 1222 N 115.292 -0.849877 -1.32721 0
M  V30 1223 C 116.222 -0.306308 -2.31482 0
M  V30 1224 C 117.203 0.591952 -1.59468 0
M  V30 1225 O 118.388 0.513199 -1.87296 0
M  V30 1226 C 115.518 0.510204 -3.43532 0
M  V30 1227 C 114.472 -0.293209 -4.26994 0
M  V30 1228 C 113.798 0.647743 -5.30762 0
M  V30 1229 C 115.098 -1.51634 -4.99804 0
M  V30 1230 H 116.792 -1.13153 -2.77195 0
M  V30 1231 H 114.338 -0.545553 -1.33266 0
M  V30 1232 H 116.291 0.900856 -4.11658 0
M  V30 1233 H 115.015 1.36874 -2.96535 0
M  V30 1234 H 113.674 -0.665555 -3.60508 0
M  V30 1235 H 113.322 1.50299 -4.8002 0
M  V30 1236 H 113.022 0.11422 -5.87489 0
M  V30 1237 H 114.546 1.03567 -6.01753 0
M  V30 1238 H 115.96 -1.19824 -5.60638 0
M  V30 1239 H 114.357 -1.98745 -5.66234 0
M  V30 1240 H 115.427 -2.28018 -4.27943 0
M  V30 1241 N 116.77 1.45427 -0.607355 0
M  V30 1242 C 117.733 2.28974 0.101693 0
M  V30 1243 C 118.733 1.39754 0.795329 0
M  V30 1244 O 119.923 1.61878 0.643527 0
M  V30 1245 C 117.055 3.20768 1.15414 0
M  V30 1246 H 118.248 2.93147 -0.632844 0
M  V30 1247 H 115.801 1.51945 -0.366391 0
M  V30 1248 H 116.536 2.61395 1.91945 0
M  V30 1249 H 116.321 3.86489 0.66098 0
M  V30 1250 H 117.811 3.83589 1.65073 0
M  V30 1251 N 118.248 0.346503 1.53744 0
M  V30 1252 C 119.195 -0.508914 2.25119 0
M  V30 1253 C 120.165 -1.09315 1.25058 0
M  V30 1254 O 121.35 -1.12921 1.53797 0
M  V30 1255 C 118.49 -1.65246 3.02965 0
M  V30 1256 C 117.603 -1.09525 4.17886 0
M  V30 1257 C 116.738 -2.20634 4.83212 0
M  V30 1258 C 115.777 -1.62279 5.90196 0
M  V30 1259 N 114.914 -2.67143 6.49291 0
M  V30 1260 H 119.754 0.106283 2.9781 0
M  V30 1261 H 117.291 0.0642227 1.4696 0
M  V30 1262 H 119.249 -2.32574 3.4636 0
M  V30 1263 H 117.879 -2.2386 2.32565 0
M  V30 1264 H 116.931 -0.312818 3.79112 0
M  V30 1265 H 118.243 -0.628444 4.94825 0
M  V30 1266 H 117.397 -2.95821 5.29693 0
M  V30 1267 H 116.136 -2.70659 4.05703 0
M  V30 1268 H 115.141 -0.855989 5.43096 0
M  V30 1269 H 116.366 -1.13102 6.69615 0
M  V30 1270 H 114.312 -3.16417 5.74645 0
M  V30 1271 H 114.229 -2.25093 7.21713 0
M  V30 1272 H 115.497 -3.4209 7.00425 0
M  V30 1273 N 119.726 -1.57421 0.075193 0
M  V30 1274 C 120.972 -1.93905 -0.594025 0
M  V30 1275 C 121.305 -0.955701 -1.69056 0
M  V30 1276 O 120.58 0.0145373 -1.94495 0
M  V30 1277 C 120.863 -3.40638 -1.1678 0
M  V30 1278 C 120.716 -4.49733 -0.0776792 0
M  V30 1279 C 122.035 -3.88259 -2.07228 0
M  V30 1280 H 119.154 -0.705105 -0.214466 0
M  V30 1281 H 121.796 -1.8947 0.141854 0
M  V30 1282 H 119.946 -3.44549 -1.79494 0
M  V30 1283 H 121.618 -4.57942 0.555573 0
M  V30 1284 H 119.861 -4.29751 0.591286 0
M  V30 1285 H 120.532 -5.49549 -0.519603 0
M  V30 1286 H 123.008 -3.86376 -1.54445 0
M  V30 1287 H 121.884 -4.91533 -2.44308 0
M  V30 1288 H 122.145 -3.26396 -2.98191 0
M  V30 1289 N 121.204 0.198386 -1.56346 0
M  V30 1290 C 122.481 0.944982 -1.71258 0
M  V30 1291 C 122.861 2.0151 -0.629048 0
M  V30 1292 O 122.209 2.25639 0.360473 0
M  V30 1293 C 122.419 1.5344 -3.1346 0
M  V30 1294 C 123.767 2.01778 -3.73591 0
M  V30 1295 O 124.791 1.63288 -3.16568 0
M  V30 1296 O 123.65 2.72594 -4.73661 0
M  V30 1297 H 120.744 0.442939 -0.69838 0
M  V30 1298 H 123.29 0.188342 -1.68652 0
M  V30 1299 H 122.062 0.762869 -3.83792 0
M  V30 1300 H 121.685 2.35596 -3.20282 0
M  V30 1301 N 122.682 1.50554 0.465978 0
M  V30 1302 C 123.645 1.69233 1.54574 0
M  V30 1303 C 124.645 0.562901 1.50626 0
M  V30 1304 O 125.835 0.830016 1.53155 0
M  V30 1305 C 122.967 1.7223 2.94193 0
M  V30 1306 H 124.16 2.65571 1.39327 0
M  V30 1307 H 121.713 1.40111 0.692711 0
M  V30 1308 H 122.448 0.77603 3.14878 0
M  V30 1309 H 122.233 2.54285 2.98466 0
M  V30 1310 H 123.723 1.88618 3.72576 0
M  V30 1311 N 124.16 -0.719506 1.40217 0
M  V30 1312 C 125.388 -1.50864 1.41589 0
M  V30 1313 C 125.803 -1.88794 0.0145275 0
M  V30 1314 O 125.16 -1.55174 -0.960594 0
M  V30 1315 C 125.211 -2.78646 2.30302 0
M  V30 1316 O 124.932 -2.42321 3.64983 0
M  V30 1317 C 126.433 -3.72569 2.40224 0
M  V30 1318 H 123.653 -0.465709 0.48307 0
M  V30 1319 H 126.197 -0.88785 1.84221 0
M  V30 1320 H 124.352 -3.37019 1.91042 0
M  V30 1321 H 124.766 -3.24514 4.12057 0
M  V30 1322 H 126.24 -4.5908 3.06512 0
M  V30 1323 H 126.717 -4.15403 1.42608 0
M  V30 1324 H 127.323 -3.20109 2.80019 0
M  V30 1325 N 125.638 -1.25649 -0.95132 0
M  V30 1326 C 126.548 -1.08073 -2.08224 0
M  V30 1327 C 127.564 -0.0169666 -1.73992 0
M  V30 1328 O 128.74 -0.218593 -2.0021 0
M  V30 1329 C 125.805 -0.704922 -3.39458 0
M  V30 1330 C 124.866 -1.84699 -3.87537 0
M  V30 1331 C 124.099 -1.48902 -5.12508 0
M  V30 1332 O 124.322 -0.386156 -5.69091 0
M  V30 1333 O 123.256 -2.32033 -5.55378 0
M  V30 1334 H 127.082 -2.02924 -2.25954 0
M  V30 1335 H 124.667 -1.04618 -1.06656 0
M  V30 1336 H 126.549 -0.507609 -4.18332 0
M  V30 1337 H 125.224 0.214291 -3.2299 0
M  V30 1338 H 124.131 -2.09919 -3.09653 0
M  V30 1339 H 125.464 -2.74557 -4.08509 0
M  V30 1340 N 127.117 1.15442 -1.07289 0
M  V30 1341 C 128.027 2.23786 -0.704057 0
M  V30 1342 C 129.043 1.7166 0.284413 0
M  V30 1343 O 130.219 2.00972 0.131205 0
M  V30 1344 C 127.284 3.46535 -0.106792 0
M  V30 1345 C 126.345 4.13654 -1.14842 0
M  V30 1346 C 125.578 5.30544 -0.57956 0
M  V30 1347 O 125.801 5.67187 0.604585 0
M  V30 1348 O 124.735 5.87154 -1.32414 0
M  V30 1349 H 128.561 2.57664 -1.60757 0
M  V30 1350 H 126.146 1.23152 -0.845803 0
M  V30 1351 H 128.028 4.20804 0.224048 0
M  V30 1352 H 126.703 3.14407 0.770049 0
M  V30 1353 H 125.61 3.4131 -1.5316 0
M  V30 1354 H 126.943 4.49861 -1.99714 0
M  V30 1355 N 128.595 0.856903 1.32268 0
M  V30 1356 C 129.82 0.474569 2.01897 0
M  V30 1357 C 130.245 -0.921766 1.63967 0
M  V30 1358 O 129.603 -1.60589 0.84148 0
M  V30 1359 C 129.651 0.623799 3.55164 0
M  V30 1360 O 128.755 -0.342459 4.10976 0
M  V30 1361 H 128.096 0.190422 0.63611 0
M  V30 1362 H 130.626 1.15672 1.68764 0
M  V30 1363 H 130.636 0.512169 4.04773 0
M  V30 1364 H 129.311 1.64202 3.82113 0
M  V30 1365 H 127.888 -0.18688 3.72431 0
M  V30 1366 N 130.073 -1.45103 0.615059 0
M  V30 1367 C 131.35 -1.95549 0.0448276 0
M  V30 1368 C 131.73 -1.55737 -1.4251 0
M  V30 1369 O 131.078 -0.823556 -2.13143 0
M  V30 1370 C 131.288 -3.48098 0.250785 0
M  V30 1371 C 132.636 -4.24384 0.135509 0
M  V30 1372 O 133.66 -3.55738 0.181299 0
M  V30 1373 O 132.519 -5.46493 0.0268878 0
M  V30 1374 H 129.613 -0.8264 -0.0314845 0
M  V30 1375 H 132.159 -1.55232 0.685642 0
M  V30 1376 H 130.931 -3.7007 1.27139 0
M  V30 1377 H 130.554 -3.95323 -0.424937 0
M  V30 1378 N 131.551 -0.354651 -1.53558 0
M  V30 1379 C 132.481 0.489091 -2.2832 0
M  V30 1380 C 133.462 1.09324 -1.30316 0
M  V30 1381 O 134.647 1.11255 -1.59173 0
M  V30 1382 C 131.777 1.63456 -3.0643 0
M  V30 1383 C 130.731 1.1582 -4.12031 0
M  V30 1384 C 130.057 2.39305 -4.7816 0
M  V30 1385 C 131.357 0.250731 -5.21698 0
M  V30 1386 H 133.051 -0.134614 -2.99097 0
M  V30 1387 H 130.597 -0.0661826 -1.43848 0
M  V30 1388 H 132.55 2.23136 -3.57475 0
M  V30 1389 H 131.274 2.28533 -2.33325 0
M  V30 1390 H 129.933 0.584146 -3.61916 0
M  V30 1391 H 129.581 3.02814 -4.01637 0
M  V30 1392 H 129.281 2.08109 -5.49513 0
M  V30 1393 H 130.805 2.99691 -5.31994 0
M  V30 1394 H 132.219 0.754695 -5.68311 0
M  V30 1395 H 130.616 0.0301468 -6.00092 0
M  V30 1396 H 131.686 -0.710125 -4.79672 0
M  V30 1397 N 133.029 1.57378 -0.0835403 0
M  V30 1398 C 133.992 2.12252 0.864959 0
M  V30 1399 C 134.992 1.04916 1.21858 0
M  V30 1400 O 136.182 1.30853 1.14991 0
M  V30 1401 C 133.314 2.63358 2.16461 0
M  V30 1402 H 134.507 2.97371 0.388676 0
M  V30 1403 H 132.06 1.55423 0.165317 0
M  V30 1404 H 132.795 1.81727 2.686 0
M  V30 1405 H 132.58 3.41826 1.92087 0
M  V30 1406 H 134.07 3.05847 2.84337 0
M  V30 1407 N 134.507 -0.190092 1.56449 0
M  V30 1408 C 135.439 -1.25973 1.91477 0
M  V30 1409 C 136.452 -1.41452 0.805931 0
M  V30 1410 O 137.641 -1.41789 1.08435 0
M  V30 1411 C 134.741 -2.63117 2.13594 0
M  V30 1412 C 133.914 -2.69182 3.4476 0
M  V30 1413 C 132.973 -3.87557 3.5593 0
M  V30 1414 O 131.999 -3.74427 4.28711 0
M  V30 1415 N 133.201 -5.03224 2.89388 0
M  V30 1416 H 135.966 -0.962394 2.83828 0
M  V30 1417 H 133.527 -0.379981 1.57378 0
M  V30 1418 H 135.519 -3.40742 2.1835 0
M  V30 1419 H 134.089 -2.85319 1.27719 0
M  V30 1420 H 133.309 -1.77793 3.51828 0
M  V30 1421 H 134.597 -2.70229 4.31107 0
M  V30 1422 H 133.995 -5.16791 2.30094 0
M  V30 1423 H 132.552 -5.78778 2.99764 0
M  V30 1424 N 135.985 -1.50799 -0.457987 0
M  V30 1425 C 136.917 -1.66786 -1.57211 0
M  V30 1426 C 137.93 -0.548962 -1.53265 0
M  V30 1427 O 139.119 -0.8226 -1.58416 0
M  V30 1428 C 136.219 -1.64834 -2.96113 0
M  V30 1429 C 135.392 -2.92971 -3.24787 0
M  V30 1430 C 134.451 -2.83485 -4.43309 0
M  V30 1431 O 133.477 -3.5744 -4.42973 0
M  V30 1432 N 134.679 -1.97929 -5.45714 0
M  V30 1433 H 137.444 -2.62889 -1.43909 0
M  V30 1434 H 135.005 -1.48427 -0.646617 0
M  V30 1435 H 136.997 -1.56084 -3.7339 0
M  V30 1436 H 135.567 -0.764118 -3.03117 0
M  V30 1437 H 134.787 -3.15749 -2.36 0
M  V30 1438 H 136.075 -3.77834 -3.40762 0
M  V30 1439 H 135.473 -1.37182 -5.48815 0
M  V30 1440 H 134.03 -1.95073 -6.21924 0
M  V30 1441 N 137.463 0.71206 -1.40597 0
M  V30 1442 C 138.693 1.49894 -1.42181 0
M  V30 1443 C 139.101 1.89189 -0.0208078 0
M  V30 1444 O 138.444 1.56223 0.966436 0
M  V30 1445 C 138.506 2.80215 -2.25211 0
M  V30 1446 C 138.17 2.63221 -3.73582 0
M  V30 1447 C 139.167 2.30249 -4.66135 0
M  V30 1448 C 136.852 2.79376 -4.17438 0
M  V30 1449 C 138.846 2.13645 -6.00529 0
M  V30 1450 C 136.533 2.6239 -5.51901 0
M  V30 1451 C 137.531 2.29573 -6.43262 0
M  V30 1452 O 137.219 2.12719 -7.75246 0
M  V30 1453 H 136.951 0.469031 -0.486812 0
M  V30 1454 H 139.505 0.88564 -1.85326 0
M  V30 1455 H 137.735 3.4389 -1.76852 0
M  V30 1456 H 139.424 3.41947 -2.18694 0
M  V30 1457 H 140.19 2.17398 -4.33547 0
M  V30 1458 H 136.069 3.03906 -3.46644 0
M  V30 1459 H 139.613 1.87953 -6.71803 0
M  V30 1460 H 135.51 2.74826 -5.84073 0
M  V30 1461 H 136.278 2.27611 -7.86216 0
M  V30 1462 N 138.941 1.26152 0.944643 0
M  V30 1463 C 140.189 1.11271 1.6871 0
M  V30 1464 C 140.51 -0.345166 1.91921 0
M  V30 1465 O 139.78 -1.24387 1.51343 0
M  V30 1466 H 138.36 0.408783 0.625224 0
M  V30 1467 H 141.022 1.58427 1.1352 0
M  V30 1468 H 140.118 1.62879 2.66227 0
M  V30 1469 N 140.419 -1.14872 1.07899 0
M  V30 1470 C 141.665 -1.86064 0.806725 0
M  V30 1471 C 141.998 -1.82434 -0.665706 0
M  V30 1472 O 141.273 -1.25138 -1.48899 0
M  V30 1473 C 141.556 -3.34929 1.32267 0
M  V30 1474 C 141.409 -3.47161 2.86006 0
M  V30 1475 C 142.728 -4.29863 0.943717 0
M  V30 1476 H 139.847 -0.675591 0.294526 0
M  V30 1477 H 142.489 -1.34925 1.33773 0
M  V30 1478 H 140.639 -3.78611 0.870974 0
M  V30 1479 H 142.311 -3.12302 3.39507 0
M  V30 1480 H 140.554 -2.88539 3.23925 0
M  V30 1481 H 141.225 -4.51777 3.17177 0
M  V30 1482 H 143.701 -3.9417 1.33302 0
M  V30 1483 H 142.577 -5.32494 1.33198 0
M  V30 1484 H 142.838 -4.41846 -0.149796 0
M  V30 1485 N 141.898 -0.863906 -1.31812 0
M  V30 1486 C 143.314 -0.555004 -1.49639 0
M  V30 1487 C 143.514 0.912266 -1.79666 0
M  V30 1488 O 142.57 1.69479 -1.87171 0
M  V30 1489 C 143.883 -1.44998 -2.63431 0
M  V30 1490 C 145.431 -1.45138 -2.77316 0
M  V30 1491 C 145.906 -2.33179 -3.94197 0
M  V30 1492 N 147.397 -2.31025 -4.01474 0
M  V30 1493 C 148.132 -2.95871 -4.9117 0
M  V30 1494 N 147.628 -3.69863 -5.8581 0
M  V30 1495 N 149.421 -2.85211 -4.84367 0
M  V30 1496 H 141.572 -1.81339 -1.10589 0
M  V30 1497 H 143.835 -0.77505 -0.545895 0
M  V30 1498 H 143.541 -2.49377 -2.48 0
M  V30 1499 H 143.415 -1.14409 -3.59431 0
M  V30 1500 H 145.802 -0.415201 -2.92164 0
M  V30 1501 H 145.883 -1.79747 -1.82001 0
M  V30 1502 H 145.527 -3.3687 -3.80107 0
M  V30 1503 H 145.457 -1.95897 -4.88807 0
M  V30 1504 H 147.948 -1.77238 -3.33759 0
M  V30 1505 H 148.261 -4.16486 -6.50968 0
M  V30 1506 H 146.606 -3.73971 -5.85808 0
M  V30 1507 H 149.797 -2.26948 -4.09405 0
M  V30 1508 H 149.97 -3.36027 -5.54066 0
M  V30 1509 N 143.376 1.44774 -0.622745 0
M  V30 1510 C 144.624 2.01721 -0.123655 0
M  V30 1511 C 144.945 1.49172 1.25589 0
M  V30 1512 O 144.215 0.691974 1.83272 0
M  V30 1513 H 142.795 0.745777 -0.0427225 0
M  V30 1514 H 145.457 1.77382 -0.807559 0
M  V30 1515 H 144.553 3.11984 -0.0849534 0
M  V30 1516 N 144.854 0.36279 1.53368 0
M  V30 1517 C 146.084 -0.228281 2.05335 0
M  V30 1518 C 146.492 -1.43226 1.23625 0
M  V30 1519 O 145.835 -1.81717 0.269206 0
M  V30 1520 C 145.897 -0.688549 3.52845 0
M  V30 1521 C 145.561 0.398362 4.5526 0
M  V30 1522 C 146.558 1.24732 5.04716 0
M  V30 1523 C 144.243 0.557805 4.99193 0
M  V30 1524 C 146.237 2.2411 5.96702 0
M  V30 1525 C 143.924 1.55495 5.90986 0
M  V30 1526 C 144.922 2.39503 6.39631 0
M  V30 1527 O 144.61 3.37517 7.29615 0
M  V30 1528 H 144.342 -0.044395 0.674541 0
M  V30 1529 H 146.896 0.518668 1.98744 0
M  V30 1530 H 145.126 -1.48706 3.56964 0
M  V30 1531 H 146.815 -1.20231 3.87685 0
M  V30 1532 H 147.581 1.13532 4.71525 0
M  V30 1533 H 143.46 -0.0862959 4.60919 0
M  V30 1534 H 147.004 2.89718 6.34594 0
M  V30 1535 H 142.901 1.66744 6.23592 0
M  V30 1536 H 143.669 3.33213 7.47604 0
M  V30 1537 N 146.332 -1.57332 0.0918853 0
M  V30 1538 C 147.743 -1.81496 -0.437739 0
M  V30 1539 C 148.094 -1.00727 -1.6837 0
M  V30 1540 O 147.219 -0.235694 -2.15113 0
M  V30 1541 C 147.814 -3.29197 -0.800939 0
M  V30 1542 C 146.373 -3.54136 -1.27532 0
M  V30 1543 C 145.52 -2.75979 -0.270392 0
M  V30 1544 H 148.471 -1.55494 0.317366 0
M  V30 1545 H 148.492 -3.42344 -1.66074 0
M  V30 1546 H 148.004 -3.87955 0.106078 0
M  V30 1547 H 146.105 -3.00705 -2.20016 0
M  V30 1548 H 146.218 -4.62792 -1.23938 0
M  V30 1549 H 144.582 -2.43349 -0.751872 0
M  V30 1550 H 145.365 -3.37484 0.629248 0
M  V30 1551 N 147.81 0.181792 -1.56548 0
M  V30 1552 C 149.038 0.915947 -1.85521 0
M  V30 1553 C 149.453 1.76282 -0.676016 0
M  V30 1554 O 148.81 1.79012 0.355077 0
M  V30 1555 C 148.861 1.80126 -3.13427 0
M  V30 1556 O 148.582 0.988562 -4.26801 0
M  V30 1557 C 150.083 2.64597 -3.55673 0
M  V30 1558 H 147.303 0.26661 -0.61576 0
M  V30 1559 H 149.847 0.185039 -2.03661 0
M  V30 1560 H 148.002 2.48563 -2.97145 0
M  V30 1561 H 148.416 1.59308 -4.99721 0
M  V30 1562 H 149.89 3.2235 -4.48101 0
M  V30 1563 H 150.367 3.38958 -2.79292 0
M  V30 1564 H 150.973 2.0151 -3.74532 0
M  V30 1565 N 149.288 1.51039 0.449983 0
M  V30 1566 C 150.537 1.62317 1.19733 0
M  V30 1567 C 150.85 0.339101 1.92638 0
M  V30 1568 O 152.056 0.331069 2.69474 0
M  V30 1569 C 150.512 2.86608 2.17678 0
M  V30 1570 C 150.12 4.21972 1.50479 0
M  V30 1571 C 151.864 3.07239 2.92924 0
M  V30 1572 C 149.771 5.37426 2.46834 0
M  V30 1573 H 148.701 0.604532 0.450619 0
M  V30 1574 H 151.352 1.77494 0.465625 0
M  V30 1575 H 149.734 2.65037 2.94231 0
M  V30 1576 H 150.908 4.53878 0.795716 0
M  V30 1577 H 149.223 4.07117 0.874344 0
M  V30 1578 H 151.82 3.90668 3.65079 0
M  V30 1579 H 152.163 2.19807 3.5354 0
M  V30 1580 H 152.696 3.29091 2.23481 0
M  V30 1581 H 149.435 6.27079 1.90926 0
M  V30 1582 H 148.955 5.09912 3.15832 0
M  V30 1583 H 150.634 5.68862 3.08228 0
M  V30 1584 N 150.766 -0.704594 1.40972 0
M  V30 1585 C 151.713 -1.81862 1.42109 0
M  V30 1586 C 152.683 -1.63781 0.276593 0
M  V30 1587 O 153.868 -1.84759 0.4763 0
M  V30 1588 C 151.008 -3.19669 1.30022 0
M  V30 1589 C 150.121 -3.49246 2.54267 0
M  V30 1590 C 149.256 -4.76618 2.3454 0
M  V30 1591 C 148.295 -4.99133 3.54306 0
M  V30 1592 N 147.432 -6.17726 3.33706 0
M  V30 1593 H 152.272 -1.80226 2.37324 0
M  V30 1594 H 149.809 -0.880238 1.17857 0
M  V30 1595 H 151.767 -3.99263 1.21018 0
M  V30 1596 H 150.397 -3.20506 0.384192 0
M  V30 1597 H 149.449 -2.64125 2.73756 0
M  V30 1598 H 150.761 -3.61788 3.43381 0
M  V30 1599 H 149.915 -5.64249 2.22952 0
M  V30 1600 H 148.654 -4.66305 1.42867 0
M  V30 1601 H 147.659 -4.09953 3.66359 0
M  V30 1602 H 148.884 -5.11311 4.4692 0
M  V30 1603 H 146.83 -6.08642 2.44725 0
M  V30 1604 H 146.747 -6.30995 4.16391 0
M  V30 1605 H 148.015 -7.08115 3.25873 0
M  V30 1606 N 152.244 -1.26651 -0.937939 0
M  V30 1607 C 153.491 -1.12387 -1.6845 0
M  V30 1608 C 153.819 0.332208 -1.91642 0
M  V30 1609 O 153.074 1.2602 -1.49725 0
M  V30 1610 C 153.373 -1.84168 -3.06295 0
M  V30 1611 C 153.039 -3.34056 -3.02849 0
M  V30 1612 C 151.701 -3.74942 -3.01616 0
M  V30 1613 C 154.053 -4.29741 -2.9491 0
M  V30 1614 C 151.381 -5.09894 -2.90215 0
M  V30 1615 C 153.733 -5.64738 -2.8505 0
M  V30 1616 C 152.397 -6.0493 -2.82162 0
M  V30 1617 H 151.667 -0.411252 -0.616403 0
M  V30 1618 H 154.314 -1.57134 -1.09459 0
M  V30 1619 H 152.619 -1.319 -3.6893 0
M  V30 1620 H 154.316 -1.70569 -3.62915 0
M  V30 1621 H 150.906 -3.01534 -3.0459 0
M  V30 1622 H 155.09 -3.99133 -2.94969 0
M  V30 1623 H 150.346 -5.40194 -2.86358 0
M  V30 1624 H 154.52 -6.38561 -2.77872 0
M  V30 1625 H 152.147 -7.09457 -2.73084 0
M  V30 1626 N 153.722 1.14298 -1.08507 0
M  V30 1627 C 154.969 1.85359 -0.815373 0
M  V30 1628 C 155.297 1.83001 0.658865 0
M  V30 1629 O 154.552 1.25655 1.50031 0
M  V30 1630 C 154.851 3.33547 -1.28379 0
M  V30 1631 C 154.517 3.56093 -2.76602 0
M  V30 1632 C 153.179 3.61955 -3.17084 0
M  V30 1633 C 155.531 3.64834 -3.72217 0
M  V30 1634 C 152.859 3.74082 -4.51973 0
M  V30 1635 C 155.211 3.78487 -5.06883 0
M  V30 1636 C 153.875 3.82598 -5.46969 0
M  V30 1637 H 153.145 0.678276 -0.298366 0
M  V30 1638 H 155.792 1.35002 -1.35819 0
M  V30 1639 H 154.097 3.86191 -0.660593 0
M  V30 1640 H 155.794 3.86959 -1.05186 0
M  V30 1641 H 152.384 3.52179 -2.4427 0
M  V30 1642 H 156.568 3.59595 -3.42061 0
M  V30 1643 H 151.824 3.75527 -4.82483 0
M  V30 1644 H 155.998 3.84193 -5.80834 0
M  V30 1645 H 153.625 3.91747 -6.51489 0
M  V30 1646 N 155.201 0.870884 1.31352 0
M  V30 1647 C 156.617 0.562932 1.49343 0
M  V30 1648 C 156.817 -0.902725 1.80148 0
M  V30 1649 O 155.873 -1.68484 1.88067 0
M  V30 1650 C 157.186 1.46393 2.62659 0
M  V30 1651 C 158.734 1.46607 2.76542 0
M  V30 1652 C 159.209 2.35266 3.92955 0
M  V30 1653 N 160.7 2.33151 4.00243 0
M  V30 1654 C 161.435 2.98471 4.89594 0
M  V30 1655 N 160.931 3.72964 5.8384 0
M  V30 1656 N 162.724 2.87775 4.82848 0
M  V30 1657 H 154.875 1.81923 1.09626 0
M  V30 1658 H 157.138 0.777934 0.541777 0
M  V30 1659 H 156.844 2.50689 2.46674 0
M  V30 1660 H 156.718 1.16314 3.58819 0
M  V30 1661 H 159.105 0.43069 2.9194 0
M  V30 1662 H 159.186 1.8071 1.81046 0
M  V30 1663 H 158.83 3.38881 3.78315 0
M  V30 1664 H 158.76 1.98487 4.87761 0
M  V30 1665 H 161.251 1.79006 3.32814 0
M  V30 1666 H 161.564 4.19932 6.4875 0
M  V30 1667 H 159.909 3.77073 5.83816 0
M  V30 1668 H 163.1 2.29116 4.08195 0
M  V30 1669 H 163.273 3.38961 5.52277 0
M  V30 1670 N 156.679 -1.44442 0.630414 0
M  V30 1671 C 157.627 -2.32437 -0.0871428 0
M  V30 1672 C 158.621 -1.47304 -0.836525 0
M  V30 1673 O 159.827 -1.63653 -0.749506 0
M  V30 1674 H 156.202 -0.750533 -0.0469495 0
M  V30 1675 H 158.173 -2.90709 0.673096 0
M  V30 1676 C 156.922 -3.31288 -1.05563 0
M  V30 1677 H 156.245 -3.96805 -0.488426 0
M  V30 1678 H 157.685 -3.9554 -1.52721 0
M  V30 1679 C 156.144 -2.6016 -2.14052 0
M  V30 1680 O 156.674 -2.39997 -3.22124 0
M  V30 1681 N 154.88 -2.19911 -1.89967 0
M  V30 1682 H 154.427 -2.36509 -1.02085 0
M  V30 1683 H 154.385 -1.72646 -2.62756 0
M  V30 1684 N 158.157 -0.370918 -1.53173 0
M  V30 1685 C 159.405 0.216673 -2.00935 0
M  V30 1686 C 159.726 1.48845 -1.25977 0
M  V30 1687 O 158.996 1.92286 -0.374551 0
M  V30 1688 H 157.576 0.0830565 -0.742368 0
M  V30 1689 H 160.238 -0.49838 -1.8842 0
M  V30 1690 H 159.334 0.439893 -3.08984 0
M  V30 1691 N 159.635 1.57281 -0.100228 0
M  V30 1692 C 160.912 1.86014 0.604812 0
M  V30 1693 C 161.292 0.998025 1.86018 0
M  V30 1694 O 160.64 0.0718184 2.28387 0
M  V30 1695 C 160.85 3.36784 0.915278 0
M  V30 1696 C 162.198 4.04957 1.27651 0
M  V30 1697 O 163.222 3.41695 1.00613 0
M  V30 1698 O 162.081 5.16593 1.7831 0
M  V30 1699 H 159.175 0.76942 0.303185 0
M  V30 1700 H 161.721 1.69176 -0.133313 0
M  V30 1701 H 160.493 3.91292 0.0248896 0
M  V30 1702 H 160.116 3.58987 1.70921 0
M  V30 1703 N 161.113 -0.173488 1.56642 0
M  V30 1704 C 162.341 -0.906095 1.86004 0
M  V30 1705 C 162.756 -1.75921 0.685355 0
M  V30 1706 O 162.113 -1.79198 -0.345578 0
M  V30 1707 C 162.164 -1.78462 3.14378 0
M  V30 1708 O 161.885 -0.965914 4.27319 0
M  V30 1709 C 163.386 -2.62707 3.57071 0
M  V30 1710 H 160.606 -0.263341 0.617165 0
M  V30 1711 H 163.15 -0.174236 2.03756 0
M  V30 1712 H 161.305 -2.46984 2.98459 0
M  V30 1713 H 161.719 -1.56655 5.00559 0
M  V30 1714 H 163.193 -3.19969 4.49804 0
M  V30 1715 H 163.67 -3.37472 2.81086 0
M  V30 1716 H 164.276 -1.99521 3.75595 0
M  V30 1717 N 162.591 -1.51276 -0.441967 0
M  V30 1718 C 163.554 -1.7167 -1.51862 0
M  V30 1719 C 164.554 -0.586793 -1.49711 0
M  V30 1720 O 165.744 -0.854276 -1.51815 0
M  V30 1721 C 162.876 -1.76889 -2.91416 0
M  V30 1722 H 164.069 -2.67754 -1.35084 0
M  V30 1723 H 161.622 -1.41196 -0.670333 0
M  V30 1724 H 162.357 -0.826026 -3.13604 0
M  V30 1725 H 162.142 -2.59001 -2.94382 0
M  V30 1726 H 163.632 -1.94522 -3.69528 0
M  V30 1727 N 164.069 0.697108 -1.41344 0
M  V30 1728 C 165.294 1.49096 -1.44171 0
M  V30 1729 C 165.719 1.88038 -0.0481568 0
M  V30 1730 O 165.077 1.54525 0.948243 0
M  V30 1731 C 165.125 2.73088 -2.3549 0
M  V30 1732 O 164.229 3.70514 -1.81088 0
M  V30 1733 H 163.57 0.448801 -0.489361 0
M  V30 1734 H 166.1 0.856992 -1.85787 0
M  V30 1735 H 166.11 3.21413 -2.51312 0
M  V30 1736 H 164.785 2.44081 -3.36745 0
M  V30 1737 H 163.362 3.29441 -1.74708 0
M  V30 1738 N 165.547 1.27147 0.931209 0
M  V30 1739 C 166.958 1.12044 1.49342 0
M  V30 1740 C 167.309 -0.295795 1.93957 0
M  V30 1741 O 166.434 -1.18835 1.80852 0
M  V30 1742 C 167.029 2.02781 2.71414 0
M  V30 1743 C 165.588 1.91794 3.2387 0
M  V30 1744 C 164.735 1.95543 1.96617 0
M  V30 1745 H 167.686 1.40091 0.745672 0
M  V30 1746 H 167.707 1.58156 3.46074 0
M  V30 1747 H 167.219 3.05848 2.38911 0
M  V30 1748 H 165.32 0.916992 3.6114 0
M  V30 1749 H 165.433 2.77852 3.90302 0
M  V30 1750 H 163.797 1.39722 2.12955 0
M  V30 1751 H 164.58 3.00259 1.66432 0
M  V30 1752 N 167.025 -1.13721 1.09112 0
M  V30 1753 C 167.972 -2.19031 0.727591 0
M  V30 1754 C 168.942 -1.63555 -0.289656 0
M  V30 1755 O 170.127 -1.90023 -0.172026 0
M  V30 1756 C 167.267 -3.4477 0.15082 0
M  V30 1757 C 166.38 -4.14365 1.22172 0
M  V30 1758 C 165.515 -5.27709 0.608042 0
M  V30 1759 C 164.554 -5.89147 1.66047 0
M  V30 1760 N 163.691 -6.93929 1.06806 0
M  V30 1761 H 168.531 -2.49475 1.62991 0
M  V30 1762 H 166.068 -1.22499 0.81439 0
M  V30 1763 H 168.026 -4.16714 -0.201358 0
M  V30 1764 H 166.656 -3.14787 -0.714783 0
M  V30 1765 H 165.708 -3.40737 1.69122 0
M  V30 1766 H 167.02 -4.56114 2.01895 0
M  V30 1767 H 166.174 -6.06355 0.204523 0
M  V30 1768 H 164.913 -4.872 -0.220769 0
M  V30 1769 H 163.918 -5.09198 2.07357 0
M  V30 1770 H 165.143 -6.31729 2.49189 0
M  V30 1771 H 163.089 -6.55483 0.260476 0
M  V30 1772 H 163.006 -7.34202 1.8023 0
M  V30 1773 H 164.274 -7.76434 0.690644 0
M  V30 1774 N 168.503 -0.877838 -1.30888 0
M  V30 1775 C 169.413 -0.343096 -2.32078 0
M  V30 1776 C 170.429 0.551022 -1.65045 0
M  V30 1777 O 171.605 0.445854 -1.96403 0
M  V30 1778 C 168.67 0.439905 -3.43898 0
M  V30 1779 C 167.731 -0.483111 -4.26573 0
M  V30 1780 C 166.964 0.262616 -5.33053 0
M  V30 1781 O 167.187 1.48967 -5.50604 0
M  V30 1782 O 166.121 -0.383593 -6.00676 0
M  V30 1783 H 169.947 -1.18203 -2.79753 0
M  V30 1784 H 167.532 -0.64145 -1.34929 0
M  V30 1785 H 169.414 0.883504 -4.12034 0
M  V30 1786 H 168.089 1.25526 -2.98371 0
M  V30 1787 H 166.996 -0.975374 -3.61161 0
M  V30 1788 H 168.329 -1.26427 -4.75686 0
M  V30 1789 N 169.982 1.44106 -0.638065 0
M  V30 1790 C 171.212 2.06037 -0.152394 0
M  V30 1791 C 171.62 1.47808 1.18108 0
M  V30 1792 O 170.963 0.598092 1.73691 0
M  V30 1793 C 171.025 3.59488 0.0293714 0
M  V30 1794 C 170.689 4.4022 -1.22702 0
M  V30 1795 C 171.686 4.73256 -2.15232 0
M  V30 1796 C 169.371 4.8048 -1.46437 0
M  V30 1797 C 171.365 5.45444 -3.29802 0
M  V30 1798 C 169.052 5.52417 -2.61303 0
M  V30 1799 C 170.05 5.84819 -3.52811 0
M  V30 1800 O 169.738 6.55289 -4.65673 0
M  V30 1801 H 169.47 0.671233 -0.0801401 0
M  V30 1802 H 172.024 1.85851 -0.874563 0
M  V30 1803 H 170.254 3.78191 0.806758 0
M  V30 1804 H 171.943 4.03164 0.470475 0
M  V30 1805 H 172.709 4.42684 -1.98131 0
M  V30 1806 H 168.588 4.54676 -0.760977 0
M  V30 1807 H 172.132 5.70653 -4.01249 0
M  V30 1808 H 168.029 5.82404 -2.78344 0
M  V30 1809 H 168.797 6.73762 -4.64744 0
M  V30 1810 N 171.46 0.379036 1.52974 0
M  V30 1811 C 172.688 -0.20679 2.05864 0
M  V30 1812 C 173.103 -1.41356 1.25155 0
M  V30 1813 O 172.46 -1.8009 0.295588 0
M  V30 1814 C 172.511 -0.587045 3.56702 0
M  V30 1815 O 172.232 0.571776 4.34353 0
M  V30 1816 C 173.733 -1.22983 4.25899 0
M  V30 1817 H 170.953 -0.0336123 0.670158 0
M  V30 1818 H 173.497 0.541298 1.97206 0
M  V30 1819 H 171.652 -1.28504 3.65466 0
M  V30 1820 H 172.066 0.261544 5.23847 0
M  V30 1821 H 173.54 -1.44635 5.32715 0
M  V30 1822 H 174.017 -2.19416 3.80465 0
M  V30 1823 H 174.623 -0.572892 4.21424 0
M  V30 1824 N 172.938 -1.57226 0.108567 0
M  V30 1825 C 173.901 -2.13602 -0.831082 0
M  V30 1826 C 174.901 -1.06841 -1.20173 0
M  V30 1827 O 176.091 -1.32666 -1.12895 0
M  V30 1828 C 173.223 -2.66769 -2.12243 0
M  V30 1829 H 174.416 -2.97951 -0.341317 0
M  V30 1830 H 171.969 -1.55667 -0.14057 0
M  V30 1831 H 172.704 -1.85977 -2.65675 0
M  V30 1832 H 172.489 -3.44839 -1.86625 0
M  V30 1833 H 173.979 -3.10332 -2.79435 0
M  V30 1834 N 174.416 0.165178 -1.56732 0
M  V30 1835 C 175.664 0.879068 -1.8198 0
M  V30 1836 C 175.985 1.82514 -0.686561 0
M  V30 1837 O 175.255 1.93694 0.293146 0
M  V30 1838 H 173.835 0.327608 -0.671329 0
M  V30 1839 H 176.497 0.163526 -1.94213 0
M  V30 1840 H 175.593 1.45228 -2.76252 0
M  V30 1841 N 175.894 1.51508 0.433938 0
M  V30 1842 C 177.31 1.39759 0.770682 0
M  V30 1843 C 177.51 0.482594 1.95636 0
M  V30 1844 O 176.566 -0.0609691 2.52426 0
M  V30 1845 C 177.879 2.81851 1.04787 0
M  V30 1846 C 179.427 2.91025 1.1521 0
M  V30 1847 C 179.902 4.34032 1.46219 0
M  V30 1848 N 181.393 4.37154 1.53136 0
M  V30 1849 C 182.128 5.4484 1.78709 0
M  V30 1850 N 181.624 6.62682 2.02051 0
M  V30 1851 N 183.417 5.32324 1.80519 0
M  V30 1852 H 175.568 2.09548 -0.346892 0
M  V30 1853 H 177.831 0.943446 -0.0928074 0
M  V30 1854 H 177.537 3.50815 0.249304 0
M  V30 1855 H 177.411 3.21386 1.97461 0
M  V30 1856 H 179.798 2.22257 1.94128 0
M  V30 1857 H 179.879 2.54983 0.204281 0
M  V30 1858 H 179.523 5.03351 0.678274 0
M  V30 1859 H 179.453 4.6759 2.42212 0
M  V30 1860 H 181.944 3.52197 1.36987 0
M  V30 1861 H 182.257 7.40543 2.20943 0
M  V30 1862 H 180.602 6.65791 1.99366 0
M  V30 1863 H 183.793 4.39246 1.61805 0
M  V30 1864 H 183.966 6.16328 2.00111 0
M  V30 1865 N 177.372 -0.689602 1.41712 0
M  V30 1866 C 178.282 -1.83314 1.46401 0
M  V30 1867 C 179.298 -1.7036 0.35405 0
M  V30 1868 O 180.474 -1.92171 0.602692 0
M  V30 1869 C 177.539 -3.19344 1.34982 0
M  V30 1870 C 176.6 -3.44363 2.56344 0
M  V30 1871 C 175.833 -4.73904 2.45461 0
M  V30 1872 O 176.056 -5.508 1.48241 0
M  V30 1873 O 174.99 -4.99839 3.35328 0
M  V30 1874 H 178.816 -1.82314 2.42889 0
M  V30 1875 H 176.401 -0.843438 1.23315 0
M  V30 1876 H 178.283 -4.00547 1.3092 0
M  V30 1877 H 176.958 -3.21014 0.41612 0
M  V30 1878 H 175.865 -2.63067 2.65982 0
M  V30 1879 H 177.198 -3.47512 3.48563 0
M  V30 1880 N 178.85 -1.27639 -0.924453 0
M  V30 1881 C 179.813 -1.10681 -2.00705 0
M  V30 1882 C 180.813 -0.0497823 -1.60723 0
M  V30 1883 O 182.003 -0.294654 -1.7169 0
M  V30 1884 C 179.135 -0.687164 -3.33902 0
M  V30 1885 H 180.328 -2.06817 -2.17179 0
M  V30 1886 H 177.881 -1.10473 -1.10569 0
M  V30 1887 H 178.616 0.275439 -3.23128 0
M  V30 1888 H 178.401 -1.45061 -3.6428 0
M  V30 1889 H 179.891 -0.590853 -4.13399 0
M  V30 1890 N 180.328 1.1314 -1.09713 0
M  V30 1891 C 181.605 1.80762 -0.747302 0
M  V30 1892 C 181.985 1.96663 0.767265 0
M  V30 1893 O 181.333 1.53706 1.69076 0
M  V30 1894 C 181.543 3.15606 -1.48975 0
M  V30 1895 C 182.891 3.90914 -1.65746 0
M  V30 1896 O 183.915 3.25239 -1.45251 0
M  V30 1897 O 182.774 5.08718 -1.9967 0
M  V30 1898 H 179.868 0.782103 -0.268782 0
M  V30 1899 H 182.414 1.20041 -1.19951 0
M  V30 1900 H 181.186 2.99278 -2.52088 0
M  V30 1901 H 180.809 3.84029 -1.02991 0
M  V30 1902 N 181.806 0.884767 1.30421 0
M  V30 1903 C 183.083 0.423185 1.90967 0
M  V30 1904 C 183.463 -1.09605 1.80416 0
M  V30 1905 O 182.811 -1.93126 1.22125 0
M  V30 1906 C 183.021 0.921056 3.36627 0
M  V30 1907 C 184.369 0.955903 4.137 0
M  V30 1908 O 185.393 0.867706 3.4547 0
M  V30 1909 O 184.252 1.08614 5.35598 0
M  V30 1910 H 181.346 0.129369 0.816819 0
M  V30 1911 H 183.892 0.973653 1.3899 0
M  V30 1912 H 182.664 1.96489 3.3839 0
M  V30 1913 H 182.287 0.349741 3.96059 0
M  V30 1914 N 183.284 -1.43765 0.645699 0
M  V30 1915 C 184.533 -2.01116 0.153412 0
M  V30 1916 C 184.846 -1.51493 -1.23731 0
M  V30 1917 O 186.052 -2.01067 -1.8244 0
M  V30 1918 C 184.508 -3.59206 0.223473 0
M  V30 1919 C 184.116 -4.17823 1.61642 0
M  V30 1920 C 185.86 -4.23972 -0.211597 0
M  V30 1921 C 183.767 -5.68183 1.64081 0
M  V30 1922 H 182.697 -0.752093 0.0535891 0
M  V30 1923 H 185.348 -1.6482 0.806633 0
M  V30 1924 H 183.73 -3.92867 -0.497118 0
M  V30 1925 H 184.904 -3.95674 2.36176 0
M  V30 1926 H 183.219 -3.65399 1.99681 0
M  V30 1927 H 185.816 -5.34275 -0.213112 0
M  V30 1928 H 186.159 -3.97352 -1.24165 0
M  V30 1929 H 186.692 -3.95166 0.456988 0
M  V30 1930 H 183.431 -5.99559 2.64971 0
M  V30 1931 H 182.951 -5.9241 0.938611 0
M  V30 1932 H 184.63 -6.32085 1.3812 0
M  V30 1933 N 184.763 -0.387143 -1.52771 0
M  V30 1934 C 186.009 0.196025 -2.0185 0
M  V30 1935 C 186.342 1.46641 -1.27319 0
M  V30 1936 O 185.617 1.90889 -0.373032 0
M  V30 1937 C 185.9 0.466136 -3.5707 0
M  V30 1938 C 185.753 -0.819385 -4.42274 0
M  V30 1939 C 187.072 1.25768 -4.21747 0
M  V30 1940 H 184.191 0.0697708 -0.73369 0
M  V30 1941 H 186.833 -0.516286 -1.82851 0
M  V30 1942 H 184.983 1.07293 -3.7339 0
M  V30 1943 H 186.655 -1.4563 -4.37709 0
M  V30 1944 H 184.898 -1.43517 -4.09372 0
M  V30 1945 H 185.569 -0.585065 -5.48891 0
M  V30 1946 H 188.045 0.744167 -4.09391 0
M  V30 1947 H 186.921 1.41541 -5.30337 0
M  V30 1948 H 187.182 2.27228 -3.79236 0
M  V30 1949 N 186.241 1.57166 -0.116904 0
M  V30 1950 C 187.189 2.16457 0.851418 0
M  V30 1951 C 188.183 1.11323 1.27686 0
M  V30 1952 O 189.389 1.2963 1.24884 0
M  V30 1953 H 185.764 0.69271 0.292672 0
M  V30 1954 H 187.735 2.96605 0.32685 0
M  V30 1955 C 186.484 2.77689 2.09246 0
M  V30 1956 H 185.807 3.58285 1.77402 0
M  V30 1957 H 187.247 3.22716 2.7501 0
M  V30 1958 C 185.706 1.74667 2.88085 0
M  V30 1959 O 186.236 1.19877 3.83396 0
M  V30 1960 N 184.442 1.44656 2.52038 0
M  V30 1961 H 183.989 1.89402 1.74599 0
M  V30 1962 H 183.947 0.759675 3.05084 0
M  V30 1963 N 187.719 -0.156864 1.56817 0
M  V30 1964 C 188.965 -0.867645 1.83966 0
M  V30 1965 C 189.32 -1.79233 0.699511 0
M  V30 1966 O 188.613 -1.89186 -0.303176 0
M  V30 1967 C 188.807 -1.68737 3.1506 0
M  V30 1968 C 188.636 -0.843548 4.41718 0
M  V30 1969 C 187.406 -0.512994 5.02689 0
M  V30 1970 C 189.604 -0.178416 5.1399 0
M  V30 1971 N 187.586 0.345456 6.12927 0
M  V30 1972 C 188.957 0.540586 6.17639 0
M  V30 1973 C 191.012 -0.0980696 4.97803 0
M  V30 1974 C 189.715 1.33233 7.06853 0
M  V30 1975 C 191.741 0.680387 5.87473 0
M  V30 1976 C 191.103 1.3877 6.90596 0
M  V30 1977 H 187.202 -0.295642 0.723961 0
M  V30 1978 H 189.786 -0.13365 1.94241 0
M  V30 1979 H 187.957 -2.39268 3.0595 0
M  V30 1980 H 189.689 -2.34056 3.30151 0
M  V30 1981 H 186.444 -0.846476 4.65974 0
M  V30 1982 H 186.868 0.765415 6.72659 0
M  V30 1983 H 191.51 -0.630562 4.18071 0
M  V30 1984 H 189.228 1.87612 7.8602 0
M  V30 1985 H 192.814 0.744415 5.77018 0
M  V30 1986 H 191.694 1.9804 7.58782 0
M  V30 1987 N 189.197 -1.51736 -0.425897 0
M  V30 1988 C 190.127 -1.76827 -1.52494 0
M  V30 1989 C 191.108 -0.618524 -1.58456 0
M  V30 1990 O 192.293 -0.862416 -1.74 0
M  V30 1991 C 189.423 -1.90374 -2.90474 0
M  V30 1992 C 188.377 -3.0588 -2.99369 0
M  V30 1993 C 187.703 -3.04625 -4.3944 0
M  V30 1994 C 189.003 -4.45644 -2.72394 0
M  V30 1995 H 190.697 -2.68855 -1.31748 0
M  V30 1996 H 188.243 -1.29372 -0.632362 0
M  V30 1997 H 190.196 -2.0651 -3.6733 0
M  V30 1998 H 188.92 -0.95004 -3.12477 0
M  V30 1999 H 187.579 -2.89467 -2.24954 0
M  V30 2000 H 187.227 -2.0701 -4.58428 0
M  V30 2001 H 186.927 -3.82195 -4.46319 0
M  V30 2002 H 188.451 -3.22869 -5.18255 0
M  V30 2003 H 189.865 -4.62348 -3.38979 0
M  V30 2004 H 188.262 -5.25006 -2.9067 0
M  V30 2005 H 189.332 -4.54893 -1.67929 0
M  V30 2006 N 190.675 0.682077 -1.42076 0
M  V30 2007 C 191.622 1.79578 -1.44984 0
M  V30 2008 C 192.592 1.6332 -0.302614 0
M  V30 2009 O 193.777 1.83978 -0.505633 0
M  V30 2010 C 190.917 3.1756 -1.35091 0
M  V30 2011 C 190.03 3.45156 -2.59791 0
M  V30 2012 C 189.165 4.72826 -2.42093 0
M  V30 2013 C 188.204 4.93433 -3.62202 0
M  V30 2014 N 187.341 6.12338 -3.43491 0
M  V30 2015 H 192.181 1.76427 -2.40161 0
M  V30 2016 H 189.718 0.861376 -1.19242 0
M  V30 2017 H 191.676 3.97287 -1.27354 0
M  V30 2018 H 190.306 3.19854 -0.435133 0
M  V30 2019 H 189.358 2.59736 -2.77923 0
M  V30 2020 H 190.67 3.5628 -3.49094 0
M  V30 2021 H 189.824 5.60631 -2.319 0
M  V30 2022 H 188.563 4.63973 -1.50268 0
M  V30 2023 H 187.568 4.04073 -3.72834 0
M  V30 2024 H 188.793 5.04136 -4.54998 0
M  V30 2025 H 186.739 6.04672 -2.54377 0
M  V30 2026 H 186.656 6.2429 -4.26377 0
M  V30 2027 H 187.924 7.02841 -3.37097 0
M  V30 2028 N 192.153 1.28127 0.917671 0
M  V30 2029 C 193.1 1.11717 2.0196 0
M  V30 2030 C 194.07 0.0153929 1.66093 0
M  V30 2031 O 195.255 0.179596 1.89953 0
M  V30 2032 C 192.395 0.780927 3.36148 0
M  V30 2033 C 191.508 1.96135 3.84909 0
M  V30 2034 C 190.643 1.56609 5.0759 0
M  V30 2035 C 189.682 2.71339 5.48673 0
M  V30 2036 N 188.819 2.32332 6.62545 0
M  V30 2037 H 193.659 2.06003 2.15329 0
M  V30 2038 H 191.196 1.02535 1.05475 0
M  V30 2039 H 193.154 0.56675 4.13333 0
M  V30 2040 H 191.784 -0.124998 3.22558 0
M  V30 2041 H 190.836 2.28777 3.03916 0
M  V30 2042 H 192.148 2.82165 4.1132 0
M  V30 2043 H 191.302 1.31374 5.92305 0
M  V30 2044 H 190.041 0.677014 4.82978 0
M  V30 2045 H 189.046 2.97276 4.62501 0
M  V30 2046 H 190.271 3.60882 5.75274 0
M  V30 2047 H 188.217 1.45889 6.39572 0
M  V30 2048 H 188.134 3.11899 6.88662 0
M  V30 2049 H 189.402 2.10371 7.50576 0
M  V30 2050 N 193.631 -1.12557 1.10312 0
M  V30 2051 C 195.047 -1.36036 0.834649 0
M  V30 2052 C 195.247 -1.93946 -0.546539 0
M  V30 2053 O 194.303 -2.16484 -1.29966 0
M  V30 2054 C 195.616 -2.30312 1.9333 0
M  V30 2055 C 197.164 -2.43906 1.9616 0
M  V30 2056 C 197.639 -3.41496 3.05195 0
M  V30 2057 N 199.13 -3.49053 3.04494 0
M  V30 2058 C 199.865 -4.24471 3.85502 0
M  V30 2059 N 199.361 -5.02966 4.76442 0
M  V30 2060 N 201.154 -4.19864 3.73725 0
M  V30 2061 H 193.305 -0.733246 1.99342 0
M  V30 2062 H 195.568 -0.385234 0.866198 0
M  V30 2063 H 195.274 -1.94933 2.92735 0
M  V30 2064 H 195.148 -3.30421 1.81939 0
M  V30 2065 H 197.535 -2.78567 0.973886 0
M  V30 2066 H 197.616 -1.4369 2.11629 0
M  V30 2067 H 197.26 -3.07565 4.04186 0
M  V30 2068 H 197.19 -4.41539 2.86968 0
M  V30 2069 H 199.681 -2.93053 2.38596 0
M  V30 2070 H 199.994 -5.57846 5.34815 0
M  V30 2071 H 198.339 -5.02167 4.80472 0
M  V30 2072 H 201.53 -3.57623 3.02032 0
M  V30 2073 H 201.703 -4.78386 4.37093 0
M  V30 2074 N 195.109 -0.891671 -1.2995 0
M  V30 2075 C 196.337 -0.52866 -2.00032 0
M  V30 2076 C 196.752 0.884574 -1.66795 0
M  V30 2077 O 196.109 1.5827 -0.908669 0
M  V30 2078 C 196.16 -0.701814 -3.54622 0
M  V30 2079 O 195.881 -2.05942 -3.86678 0
M  V30 2080 C 197.382 -0.342683 -4.41973 0
M  V30 2081 H 194.602 -0.203659 -0.639347 0
M  V30 2082 H 197.146 -1.19881 -1.65677 0
M  V30 2083 H 195.301 -0.0789468 -3.8732 0
M  V30 2084 H 195.715 -2.08291 -4.81368 0
M  V30 2085 H 197.189 -0.514709 -5.49595 0
M  V30 2086 H 197.666 0.71975 -4.33262 0
M  V30 2087 H 198.272 -0.942154 -4.14733 0
M  V30 2088 N 196.587 1.43421 -0.653314 0
M  V30 2089 C 197.835 2.01414 -0.166415 0
M  V30 2090 C 198.156 1.51803 1.22397 0
M  V30 2091 O 197.426 0.730693 1.81763 0
M  V30 2092 H 196.006 0.744703 -0.0585319 0
M  V30 2093 H 198.668 1.75629 -0.845003 0
M  V30 2094 H 197.764 3.11734 -0.151111 0
M  V30 2095 N 198.065 0.39524 1.52563 0
M  V30 2096 C 199.476 -0.0774719 1.86539 0
M  V30 2097 C 199.827 -1.45641 1.31466 0
M  V30 2098 O 198.952 -2.06459 0.648367 0
M  V30 2099 C 199.547 -0.147356 3.38479 0
M  V30 2100 C 198.106 -0.564373 3.72145 0
M  V30 2101 C 197.253 0.269919 2.75983 0
M  V30 2102 H 200.204 0.612876 1.46388 0
M  V30 2103 H 200.225 -0.965343 3.68051 0
M  V30 2104 H 199.737 0.856387 3.78534 0
M  V30 2105 H 197.838 -1.57527 3.37663 0
M  V30 2106 H 197.951 -0.318402 4.78041 0
M  V30 2107 H 196.315 -0.265696 2.5331 0
M  V30 2108 H 197.098 1.27175 3.18875 0
M  V30 2109 N 199.544 -1.57102 0.125237 0
M  V30 2110 C 200.507 -2.14471 -0.80838 0
M  V30 2111 C 201.507 -1.0811 -1.19033 0
M  V30 2112 O 202.697 -1.33856 -1.11482 0
M  V30 2113 C 199.829 -2.69005 -2.09402 0
M  V30 2114 H 201.022 -2.98297 -0.309696 0
M  V30 2115 H 198.575 -1.55807 -0.124051 0
M  V30 2116 H 199.31 -1.88785 -2.63687 0
M  V30 2117 H 199.095 -3.46799 -1.82957 0
M  V30 2118 H 200.585 -3.13278 -2.76128 0
M  V30 2119 N 201.022 0.148545 -1.56898 0
M  V30 2120 C 201.985 1.16736 -1.97244 0
M  V30 2121 C 202.985 1.35947 -0.858777 0
M  V30 2122 O 204.175 1.32966 -1.12542 0
M  V30 2123 C 201.307 2.52798 -2.28705 0
M  V30 2124 H 202.5 0.821279 -2.88435 0
M  V30 2125 H 200.053 0.391831 -1.51309 0
M  V30 2126 H 200.788 2.92381 -1.403 0
M  V30 2127 H 200.573 2.40216 -3.09901 0
M  V30 2128 H 202.063 3.26179 -2.60762 0
M  V30 2129 N 202.5 1.5196 0.417844 0
M  V30 2130 C 203.728 1.69426 1.18753 0
M  V30 2131 C 204.143 0.399955 1.84515 0
M  V30 2132 O 203.5 -0.623288 1.71527 0
M  V30 2133 C 203.551 2.82375 2.25714 0
M  V30 2134 O 203.272 4.06793 1.62638 0
M  V30 2135 C 204.773 3.11277 3.15628 0
M  V30 2136 H 201.993 0.568031 0.357186 0
M  V30 2137 H 204.537 1.98475 0.49273 0
M  V30 2138 H 202.692 2.5587 2.90877 0
M  V30 2139 H 203.106 4.69667 2.3348 0
M  V30 2140 H 204.58 3.93843 3.86771 0
M  V30 2141 H 205.057 2.24473 3.77503 0
M  V30 2142 H 205.663 3.39515 2.56144 0
M  V30 2143 N 203.978 -0.674533 1.42435 0
M  V30 2144 C 205.206 -1.46283 1.46317 0
M  V30 2145 C 205.621 -1.88653 0.0745836 0
M  V30 2146 O 204.978 -1.58151 -0.91074 0
M  V30 2147 C 205.029 -2.71178 2.3905 0
M  V30 2148 O 204.75 -2.30586 3.72507 0
M  V30 2149 C 206.251 -3.64738 2.51955 0
M  V30 2150 H 203.471 -0.450104 0.497642 0
M  V30 2151 H 206.015 -0.828792 1.86953 0
M  V30 2152 H 204.17 -3.3077 2.01667 0
M  V30 2153 H 204.584 -3.11241 4.22172 0
M  V30 2154 H 206.058 -4.49096 3.20962 0
M  V30 2155 H 206.535 -4.10656 1.55752 0
M  V30 2156 H 207.141 -3.11038 2.90061 0
M  V30 2157 N 205.456 -1.28612 -0.910864 0
M  V30 2158 C 206.386 -1.15326 -2.03032 0
M  V30 2159 C 207.367 -0.0502924 -1.70026 0
M  V30 2160 O 208.552 -0.227797 -1.92859 0
M  V30 2161 C 205.682 -0.817343 -3.37545 0
M  V30 2162 C 204.636 -1.8754 -3.84724 0
M  V30 2163 C 203.962 -1.39305 -5.16235 0
M  V30 2164 C 205.262 -3.28244 -4.06267 0
M  V30 2165 H 206.956 -2.08975 -2.14406 0
M  V30 2166 H 204.502 -1.00612 -1.03021 0
M  V30 2167 H 206.455 -0.711151 -4.15356 0
M  V30 2168 H 205.179 0.154846 -3.26233 0
M  V30 2169 H 203.838 -1.97079 -3.09121 0
M  V30 2170 H 203.486 -0.409846 -5.01328 0
M  V30 2171 H 203.186 -2.10057 -5.48771 0
M  V30 2172 H 204.71 -1.30014 -5.96598 0
M  V30 2173 H 206.124 -3.21611 -4.74594 0
M  V30 2174 H 204.521 -3.96855 -4.5014 0
M  V30 2175 H 205.591 -3.72048 -3.10979 0
M  V30 2176 N 206.934 1.1197 -1.10907 0
M  V30 2177 C 208.345 1.65114 -0.871446 0
M  V30 2178 C 208.696 1.86885 0.597353 0
M  V30 2179 O 207.821 1.59896 1.45816 0
M  V30 2180 C 208.416 2.99944 -1.5754 0
M  V30 2181 C 206.975 3.50018 -1.38435 0
M  V30 2182 C 206.122 2.24941 -1.62164 0
M  V30 2183 H 209.073 0.956851 -1.2661 0
M  V30 2184 H 209.094 3.66651 -1.01721 0
M  V30 2185 H 208.606 2.84067 -2.64438 0
M  V30 2186 H 206.707 3.71071 -0.337214 0
M  V30 2187 H 206.82 4.29165 -2.12965 0
M  V30 2188 H 205.184 2.3229 -1.04467 0
M  V30 2189 H 205.967 2.11612 -2.70324 0
M  V30 2190 N 208.412 0.89855 1.29475 0
M  V30 2191 C 209.689 0.443416 1.90508 0
M  V30 2192 C 210.069 -1.07685 1.81569 0
M  V30 2193 O 209.417 -1.9182 1.24166 0
M  V30 2194 C 209.627 0.956708 3.35631 0
M  V30 2195 C 210.975 0.999728 4.12663 0
M  V30 2196 O 211.999 0.904299 3.4453 0
M  V30 2197 O 210.858 1.14289 5.34416 0
M  V30 2198 H 207.952 0.138025 0.815401 0
M  V30 2199 H 210.498 0.98834 1.37949 0
M  V30 2200 H 209.27 2.00067 3.36287 0
M  V30 2201 H 208.893 0.391728 3.95666 0
M  V30 2202 N 209.89 -1.43072 0.660911 0
M  V30 2203 C 211.138 -2.01323 0.177094 0
M  V30 2204 C 211.459 -1.5245 -1.2159 0
M  V30 2205 O 210.729 -0.740322 -1.81373 0
M  V30 2206 H 209.309 -0.744382 0.0624804 0
M  V30 2207 H 211.971 -1.75179 0.854305 0
M  V30 2208 H 211.067 -3.11649 0.167641 0
M  V30 2209 N 211.368 -0.403325 -1.52352 0
M  V30 2210 C 212.331 0.413051 -2.25447 0
M  V30 2211 C 213.331 0.978513 -1.276 0
M  V30 2212 O 214.521 0.858305 -1.51587 0
M  V30 2213 C 211.653 1.58087 -3.02029 0
M  V30 2214 H 212.846 -0.227094 -2.99039 0
M  V30 2215 H 210.399 -0.155722 -1.55522 0
M  V30 2216 H 211.134 2.25804 -2.32772 0
M  V30 2217 H 210.919 1.18195 -3.73861 0
M  V30 2218 H 212.409 2.1585 -3.57489 0
M  V30 2219 N 212.846 1.57033 -0.133567 0
M  V30 2220 C 213.809 2.14897 0.796995 0
M  V30 2221 C 214.809 1.0874 1.18458 0
M  V30 2222 O 215.999 1.34446 1.1077 0
M  V30 2223 C 213.131 2.70112 2.07973 0
M  V30 2224 H 214.324 2.98457 0.293873 0
M  V30 2225 H 211.877 1.55871 0.115787 0
M  V30 2226 H 212.612 1.9018 2.62682 0
M  V30 2227 H 212.397 3.47764 1.81115 0
M  V30 2228 H 213.887 3.14738 2.74462 0
M  V30 2229 N 214.325 -0.140222 1.56975 0
M  V30 2230 C 215.288 -1.15689 1.97861 0
M  V30 2231 C 216.288 -1.3549 0.865974 0
M  V30 2232 O 217.478 -1.32367 1.13246 0
M  V30 2233 C 214.61 -2.51582 2.30042 0
M  V30 2234 H 215.803 -0.805971 2.88867 0
M  V30 2235 H 213.356 -0.383801 1.51515 0
M  V30 2236 H 214.091 -2.91632 1.41849 0
M  V30 2237 H 213.876 -2.38569 3.11171 0
M  V30 2238 H 215.366 -3.24792 2.62488 0
M  V30 2239 N 215.803 -1.52179 -0.40978 0
M  V30 2240 C 216.713 -1.78364 -1.52392 0
M  V30 2241 C 217.729 -0.669183 -1.60617 0
M  V30 2242 O 218.905 -0.954518 -1.77344 0
M  V30 2243 C 215.97 -1.92822 -2.88133 0
M  V30 2244 C 215.031 -3.16725 -2.898 0
M  V30 2245 C 214.264 -3.30483 -4.19067 0
M  V30 2246 O 214.487 -2.49522 -5.12928 0
M  V30 2247 O 213.421 -4.2363 -4.27576 0
M  V30 2248 H 217.247 -2.72931 -1.33201 0
M  V30 2249 H 214.832 -1.37016 -0.59557 0
M  V30 2250 H 216.714 -2.04157 -3.68643 0
M  V30 2251 H 215.389 -1.01444 -3.07393 0
M  V30 2252 H 214.296 -3.10848 -2.08146 0
M  V30 2253 H 215.629 -4.07881 -2.75489 0
M  V30 2254 N 217.281 0.66697 -1.42791 0
M  V30 2255 C 218.506 1.46004 -1.47301 0
M  V30 2256 C 218.931 1.87894 -0.0880317 0
M  V30 2257 O 218.289 1.56502 0.915253 0
M  V30 2258 C 218.337 2.68031 -2.41229 0
M  V30 2259 O 217.441 3.6659 -1.88906 0
M  V30 2260 H 216.782 0.43832 -0.49877 0
M  V30 2261 H 219.312 0.817391 -1.87563 0
M  V30 2262 H 219.322 3.1601 -2.58073 0
M  V30 2263 H 217.997 2.36883 -3.41847 0
M  V30 2264 H 216.574 3.25661 -1.81656 0
M  V30 2265 N 218.759 1.29093 0.90403 0
M  V30 2266 C 219.689 1.16401 2.02418 0
M  V30 2267 C 220.67 0.0593085 1.69997 0
M  V30 2268 O 221.855 0.238021 1.92736 0
M  V30 2269 C 218.985 0.835233 3.37107 0
M  V30 2270 C 217.939 1.89578 3.83724 0
M  V30 2271 C 217.265 1.42041 5.15489 0
M  V30 2272 C 218.565 3.30394 4.04521 0
M  V30 2273 H 220.259 2.10109 2.13295 0
M  V30 2274 H 217.805 1.01157 1.02486 0
M  V30 2275 H 219.758 0.733169 4.14973 0
M  V30 2276 H 218.482 -0.137543 3.2631 0
M  V30 2277 H 217.141 1.98715 3.08071 0
M  V30 2278 H 216.789 0.436426 5.01103 0
M  V30 2279 H 216.489 2.12964 5.4765 0
M  V30 2280 H 218.013 1.33176 5.959 0
M  V30 2281 H 219.427 3.24123 4.72882 0
M  V30 2282 H 217.824 3.99237 4.48029 0
M  V30 2283 H 218.894 3.73692 3.09002 0
M  V30 2284 N 220.237 -1.11381 1.11499 0
M  V30 2285 C 221.483 -1.83403 0.865512 0
M  V30 2286 C 221.816 -1.84459 -0.607329 0
M  V30 2287 O 221.091 -1.29811 -1.44842 0
M  V30 2288 C 221.374 -3.30552 1.42855 0
M  V30 2289 C 221.227 -3.37886 2.96906 0
M  V30 2290 C 222.546 -4.26643 1.08 0
M  V30 2291 H 219.665 -0.665879 0.31587 0
M  V30 2292 H 222.307 -1.30601 1.37998 0
M  V30 2293 H 220.457 -3.75648 0.990985 0
M  V30 2294 H 222.129 -3.01343 3.49271 0
M  V30 2295 H 220.372 -2.78088 3.32941 0
M  V30 2296 H 221.043 -4.41458 3.31389 0
M  V30 2297 H 223.519 -3.89729 1.45775 0
M  V30 2298 H 222.395 -5.27986 1.50072 0
M  V30 2299 H 222.656 -4.42099 -0.00915037 0
M  V30 2300 N 221.715 -0.905404 -1.28997 0
M  V30 2301 C 222.625 -0.392246 -2.31298 0
M  V30 2302 C 223.641 0.515889 -1.66176 0
M  V30 2303 O 224.817 0.404093 -1.97304 0
M  V30 2304 C 221.882 0.36686 -3.44754 0
M  V30 2305 C 220.943 -0.573485 -4.25452 0
M  V30 2306 C 220.176 0.149488 -5.33491 0
M  V30 2307 O 220.399 1.37255 -5.5364 0
M  V30 2308 O 219.333 -0.510919 -5.99728 0
M  V30 2309 H 223.159 -1.2411 -2.77183 0
M  V30 2310 H 220.744 -0.669926 -1.33538 0
M  V30 2311 H 222.626 0.795907 -4.13816 0
M  V30 2312 H 221.301 1.19169 -3.00966 0
M  V30 2313 H 220.208 -1.05176 -3.59011 0
M  V30 2314 H 221.541 -1.36489 -4.72897 0
M  V30 2315 N 223.193 1.4272 -0.668489 0
M  V30 2316 C 224.418 2.06484 -0.194758 0
M  V30 2317 C 224.843 1.49862 1.13679 0
M  V30 2318 O 224.201 0.614582 1.70565 0
M  V30 2319 C 224.249 3.60353 -0.133546 0
M  V30 2320 O 223.353 4.02464 0.899806 0
M  V30 2321 H 222.694 0.656137 -0.10188 0
M  V30 2322 H 225.224 1.82964 -0.915722 0
M  V30 2323 H 225.234 4.07976 0.0447041 0
M  V30 2324 H 223.909 4.00938 -1.1055 0
M  V30 2325 H 222.486 3.66402 0.693109 0
M  V30 2326 N 224.671 0.411399 1.52136 0
M  V30 2327 C 225.896 -0.165538 2.06738 0
M  V30 2328 C 226.321 -1.379 1.27926 0
M  V30 2329 O 225.679 -1.78628 0.310114 0
M  V30 2330 C 225.727 -0.492124 3.57226 0
M  V30 2331 O 224.831 -1.58276 3.80818 0
M  V30 2332 H 224.172 -0.0132132 0.663869 0
M  V30 2333 H 226.702 0.585253 1.96051 0
M  V30 2334 H 226.712 -0.750104 4.01045 0
M  V30 2335 H 225.387 0.394922 4.14021 0
M  V30 2336 H 223.964 -1.31677 3.48877 0
M  V30 2337 N 226.149 -1.5696 0.141893 0
M  V30 2338 C 227.059 -2.20066 -0.812905 0
M  V30 2339 C 228.075 -1.18344 -1.27557 0
M  V30 2340 O 229.251 -1.50902 -1.33381 0
M  V30 2341 C 226.316 -2.80583 -2.03652 0
M  V30 2342 C 225.377 -3.97414 -1.62359 0
M  V30 2343 C 224.61 -4.55036 -2.78887 0
M  V30 2344 O 224.833 -4.11538 -3.94959 0
M  V30 2345 O 223.767 -5.45376 -2.54653 0
M  V30 2346 H 227.593 -3.02157 -0.305746 0
M  V30 2347 H 225.178 -1.49159 -0.0848799 0
M  V30 2348 H 227.06 -3.19067 -2.75272 0
M  V30 2349 H 225.735 -2.01508 -2.5333 0
M  V30 2350 H 224.642 -3.63656 -0.877775 0
M  V30 2351 H 225.975 -4.77994 -1.17401 0
M  V30 2352 N 227.627 0.131896 -1.57047 0
M  V30 2353 C 228.873 0.843179 -1.84441 0
M  V30 2354 C 229.206 1.80129 -0.725749 0
M  V30 2355 O 228.481 1.92624 0.269469 0
M  V30 2356 C 228.764 1.60442 -3.22382 0
M  V30 2357 C 228.617 0.666782 -4.4483 0
M  V30 2358 C 229.936 2.56354 -3.5773 0
M  V30 2359 H 227.055 0.305081 -0.670891 0
M  V30 2360 H 229.697 0.107839 -1.89694 0
M  V30 2361 H 227.847 2.23128 -3.18035 0
M  V30 2362 H 229.519 0.0497646 -4.61273 0
M  V30 2363 H 227.762 -0.022609 -4.33794 0
M  V30 2364 H 228.433 1.23579 -5.37989 0
M  V30 2365 H 230.909 2.0378 -3.62785 0
M  V30 2366 H 229.785 3.06657 -4.5525 0
M  V30 2367 H 230.046 3.38419 -2.84473 0
M  V30 2368 N 229.106 1.52395 0.401703 0
M  V30 2369 C 230.069 1.75636 1.47257 0
M  V30 2370 C 231.069 0.62628 1.48103 0
M  V30 2371 O 232.259 0.894227 1.49497 0
M  V30 2372 C 229.391 1.84553 2.86624 0
M  V30 2373 H 230.584 2.71241 1.27938 0
M  V30 2374 H 228.137 1.42923 0.632662 0
M  V30 2375 H 228.872 0.908882 3.11303 0
M  V30 2376 H 228.657 2.66715 2.87412 0
M  V30 2377 H 230.147 2.04251 3.64241 0
M  V30 2378 N 230.584 -0.659388 1.43143 0
M  V30 2379 C 231.83 -1.42145 1.44647 0
M  V30 2380 C 232.163 -1.9408 0.0681907 0
M  V30 2381 O 231.438 -1.71899 -0.910007 0
M  V30 2382 C 231.721 -2.60735 2.48373 0
M  V30 2383 C 231.574 -2.14332 3.95451 0
M  V30 2384 C 232.893 -3.62951 2.48906 0
M  V30 2385 H 230.012 -0.51552 0.526696 0
M  V30 2386 H 232.654 -0.748069 1.74654 0
M  V30 2387 H 230.804 -3.18184 2.22916 0
M  V30 2388 H 232.476 -1.61932 4.31944 0
M  V30 2389 H 230.719 -1.4576 4.08578 0
M  V30 2390 H 231.39 -2.99583 4.63631 0
M  V30 2391 H 233.866 -3.1525 2.71582 0
M  V30 2392 H 232.742 -4.43487 3.23435 0
M  V30 2393 H 233.003 -4.15126 1.52061 0
M  V30 2394 N 232.062 -1.29571 -0.897171 0
M  V30 2395 C 233.311 -1.1706 -1.64256 0
M  V30 2396 C 233.624 0.276476 -1.93636 0
M  V30 2397 O 234.83 0.52294 -2.66416 0
M  V30 2398 C 233.286 -2.0475 -2.95982 0
M  V30 2399 C 232.894 -3.54295 -2.74187 0
M  V30 2400 C 234.638 -2.0097 -3.73914 0
M  V30 2401 C 232.545 -4.34081 -4.01656 0
M  V30 2402 H 231.475 -0.43452 -0.616205 0
M  V30 2403 H 234.126 -1.54229 -0.994268 0
M  V30 2404 H 232.508 -1.60452 -3.62038 0
M  V30 2405 H 233.682 -4.06662 -2.1671 0
M  V30 2406 H 231.997 -3.59773 -2.09648 0
M  V30 2407 H 234.594 -2.57838 -4.68427 0
M  V30 2408 H 234.937 -0.990273 -4.0435 0
M  V30 2409 H 235.47 -2.43325 -3.14703 0
M  V30 2410 H 232.209 -5.36671 -3.76384 0
M  V30 2411 H 231.729 -3.86483 -4.58684 0
M  V30 2412 H 233.408 -4.44877 -4.69781 0
M  V30 2413 N 233.54 1.10788 -1.12088 0
M  V30 2414 C 234.788 1.8231 -0.872205 0
M  V30 2415 C 235.109 1.85419 0.603709 0
M  V30 2416 O 234.379 1.32963 1.43867 0
M  V30 2417 H 232.959 0.675137 -0.319686 0
M  V30 2418 H 235.621 1.34068 -1.41463 0
M  V30 2419 H 234.717 2.85955 -1.25045 0
M  V30 2420 N 235.018 0.912232 1.28515 0
M  V30 2421 C 236.265 0.544599 1.95039 0
M  V30 2422 C 236.593 -0.911435 1.71823 0
M  V30 2423 O 235.848 -1.66317 1.03137 0
M  V30 2424 C 236.147 0.798392 3.48368 0
M  V30 2425 C 235.813 2.23374 3.91682 0
M  V30 2426 C 234.475 2.62617 4.03219 0
M  V30 2427 C 236.827 3.16786 4.13879 0
M  V30 2428 C 234.155 3.94429 4.3433 0
M  V30 2429 C 236.507 4.48161 4.46469 0
M  V30 2430 C 235.171 4.8726 4.56217 0
M  V30 2431 H 234.441 0.199283 0.7137 0
M  V30 2432 H 237.088 1.15327 1.52879 0
M  V30 2433 H 235.393 0.106908 3.91654 0
M  V30 2434 H 237.09 0.493141 3.97956 0
M  V30 2435 H 233.68 1.91922 3.83228 0
M  V30 2436 H 237.864 2.87677 4.0442 0
M  V30 2437 H 233.12 4.24426 4.40082 0
M  V30 2438 H 237.294 5.20559 4.62592 0
M  V30 2439 H 234.921 5.89431 4.80078 0
M  V30 2440 N 236.496 -1.42363 0.676048 0
M  V30 2441 C 237.743 -2.01522 0.19883 0
M  V30 2442 C 238.071 -1.53456 -1.19505 0
M  V30 2443 O 237.326 -0.727967 -1.81657 0
M  V30 2444 C 237.625 -3.56929 0.183431 0
M  V30 2445 C 237.291 -4.24431 1.52215 0
M  V30 2446 C 235.953 -4.42585 1.8887 0
M  V30 2447 C 238.305 -4.62459 2.40377 0
M  V30 2448 C 235.633 -4.96039 3.13309 0
M  V30 2449 C 237.985 -5.17294 3.64129 0
M  V30 2450 C 236.649 -5.33661 4.00951 0
M  V30 2451 H 235.919 -0.737419 0.0727571 0
M  V30 2452 H 238.566 -1.70531 0.871281 0
M  V30 2453 H 236.871 -3.87594 -0.572532 0
M  V30 2454 H 238.568 -4.00486 -0.203035 0
M  V30 2455 H 235.158 -4.10661 1.22701 0
M  V30 2456 H 239.342 -4.48105 2.13343 0
M  V30 2457 H 234.598 -5.06896 3.41857 0
M  V30 2458 H 238.772 -5.45704 4.32644 0
M  V30 2459 H 236.399 -5.74845 4.9745 0
M  V30 2460 N 237.974 -0.419461 -1.51915 0
M  V30 2461 C 238.921 0.400927 -2.27291 0
M  V30 2462 C 239.891 1.03224 -1.30131 0
M  V30 2463 O 241.076 1.05455 -1.59009 0
M  V30 2464 C 238.216 1.50603 -3.10504 0
M  V30 2465 C 237.329 0.89462 -4.22635 0
M  V30 2466 C 236.464 1.97328 -4.93189 0
M  V30 2467 C 235.503 1.33935 -5.97267 0
M  V30 2468 N 234.64 2.3586 -6.61298 0
M  V30 2469 H 239.48 -0.248251 -2.96964 0
M  V30 2470 H 237.017 -0.134266 -1.46486 0
M  V30 2471 H 238.975 2.15783 -3.57062 0
M  V30 2472 H 237.605 2.12509 -2.42981 0
M  V30 2473 H 236.657 0.131583 -3.80172 0
M  V30 2474 H 237.969 0.391641 -4.9726 0
M  V30 2475 H 237.123 2.70211 -5.43204 0
M  V30 2476 H 235.862 2.50994 -4.18155 0
M  V30 2477 H 234.867 0.595896 -5.46561 0
M  V30 2478 H 236.092 0.810252 -6.74249 0
M  V30 2479 H 234.038 2.88639 -5.89087 0
M  V30 2480 H 233.955 1.90403 -7.3163 0
M  V30 2481 H 235.223 3.08282 -7.15949 0
M  V30 2482 N 239.452 1.56882 -0.150215 0
M  V30 2483 C 240.729 1.87844 0.545327 0
M  V30 2484 C 241.109 1.0567 1.82749 0
M  V30 2485 O 240.457 0.144442 2.28043 0
M  V30 2486 C 240.667 3.39526 0.80767 0
M  V30 2487 C 242.015 4.08814 1.14703 0
M  V30 2488 O 243.039 3.44723 0.896917 0
M  V30 2489 O 241.898 5.22004 1.61784 0
M  V30 2490 H 238.992 0.778677 0.278553 0
M  V30 2491 H 241.538 1.68666 -0.187068 0
M  V30 2492 H 240.31 3.91173 -0.0996096 0
M  V30 2493 H 239.933 3.64243 1.59413 0
M  V30 2494 N 240.93 -0.123565 1.57115 0
M  V30 2495 C 242.176 -0.833386 1.84885 0
M  V30 2496 C 242.509 -1.79742 0.735292 0
M  V30 2497 O 241.784 -1.92764 -0.25925 0
M  V30 2498 C 242.067 -1.5873 3.23228 0
M  V30 2499 C 241.92 -0.643183 4.45178 0
M  V30 2500 C 243.239 -2.54453 3.59085 0
M  V30 2501 H 240.358 -0.301518 0.6725 0
M  V30 2502 H 243 -0.097778 1.89748 0
M  V30 2503 H 241.15 -2.21438 3.19214 0
M  V30 2504 H 242.822 -0.0253015 4.61293 0
M  V30 2505 H 241.065 0.0456139 4.33776 0
M  V30 2506 H 241.736 -1.20724 5.38637 0
M  V30 2507 H 244.212 -2.01853 3.63861 0
M  V30 2508 H 243.088 -3.04238 4.5687 0
M  V30 2509 H 243.349 -3.36906 2.86264 0
M  V30 2510 N 242.408 -1.52605 -0.393616 0
M  V30 2511 C 243.318 -1.79971 -1.50492 0
M  V30 2512 C 244.334 -0.686181 -1.59899 0
M  V30 2513 O 245.51 -0.973274 -1.76322 0
M  V30 2514 C 242.575 -1.95867 -2.86072 0
M  V30 2515 C 241.636 -3.19781 -2.86424 0
M  V30 2516 C 240.869 -3.34909 -4.15538 0
M  V30 2517 O 241.092 -2.54948 -5.10253 0
M  V30 2518 O 240.026 -4.28141 -4.23059 0
M  V30 2519 H 243.852 -2.74328 -1.30299 0
M  V30 2520 H 241.437 -1.3764 -0.581005 0
M  V30 2521 H 243.319 -2.08056 -3.66457 0
M  V30 2522 H 241.994 -1.04699 -3.063 0
M  V30 2523 H 240.901 -3.13038 -2.04837 0
M  V30 2524 H 242.234 -4.1078 -2.71147 0
M  V30 2525 N 243.887 0.651787 -1.4349 0
M  V30 2526 C 245.112 1.44434 -1.48841 0
M  V30 2527 C 245.537 1.8779 -0.107955 0
M  V30 2528 O 244.895 1.57464 0.898602 0
M  V30 2529 C 244.943 2.65458 -2.44059 0
M  V30 2530 O 244.047 3.64566 -1.92784 0
M  V30 2531 H 243.388 0.433005 -0.503391 0
M  V30 2532 H 245.918 0.797451 -1.88419 0
M  V30 2533 H 245.928 3.13255 -2.6141 0
M  V30 2534 H 244.603 2.33244 -3.4434 0
M  V30 2535 H 243.18 3.23716 -1.851 0
M  V30 2536 N 245.365 1.30045 0.890287 0
M  V30 2537 C 246.642 1.09227 1.62262 0
M  V30 2538 C 247.022 -0.360305 2.08002 0
M  V30 2539 O 246.37 -1.35084 1.84295 0
M  V30 2540 C 246.58 2.08835 2.79623 0
M  V30 2541 C 247.928 2.40266 3.50082 0
M  V30 2542 O 248.952 2.07104 2.89804 0
M  V30 2543 O 247.811 2.96967 4.58773 0
M  V30 2544 H 244.905 0.419132 0.712922 0
M  V30 2545 H 247.451 1.41451 0.937529 0
M  V30 2546 H 246.223 3.06633 2.43089 0
M  V30 2547 H 245.846 1.77397 3.55832 0
M  V30 2548 N 246.843 -1.10192 1.12674 0
M  V30 2549 C 248.068 -1.86523 0.906853 0
M  V30 2550 C 248.493 -1.80221 -0.538711 0
M  V30 2551 O 247.851 -1.17396 -1.38158 0
M  V30 2552 C 247.899 -3.32758 1.3894 0
M  V30 2553 O 247.003 -4.08449 0.5695 0
M  V30 2554 H 246.344 -0.578678 0.325619 0
M  V30 2555 H 248.874 -1.39203 1.49946 0
M  V30 2556 H 248.884 -3.83608 1.38958 0
M  V30 2557 H 247.559 -3.36661 2.44197 0
M  V30 2558 H 246.136 -3.67427 0.636528 0
M  V30 2559 N 248.321 -0.919034 -1.28029 0
M  V30 2560 C 249.284 -0.416182 -2.2539 0
M  V30 2561 C 250.284 0.460438 -1.54067 0
M  V30 2562 O 251.474 0.262744 -1.72207 0
M  V30 2563 C 248.606 0.402707 -3.38513 0
M  V30 2564 H 249.799 -1.27629 -2.71387 0
M  V30 2565 H 247.352 -0.698919 -1.39803 0
M  V30 2566 H 248.087 1.282 -2.97885 0
M  V30 2567 H 247.872 -0.225698 -3.9145 0
M  V30 2568 H 249.362 0.745191 -4.10897 0
M  V30 2569 N 249.799 1.42003 -0.683588 0
M  V30 2570 C 250.746 2.30798 -0.0107309 0
M  V30 2571 C 251.716 1.4645 0.783688 0
M  V30 2572 O 252.901 1.75263 0.754156 0
M  V30 2573 C 250.041 3.3238 0.928306 0
M  V30 2574 C 249.154 4.31814 0.126776 0
M  V30 2575 C 248.289 5.20468 1.06236 0
M  V30 2576 C 247.328 6.11577 0.253035 0
M  V30 2577 N 246.465 6.92754 1.14179 0
M  V30 2578 H 251.305 2.8778 -0.773727 0
M  V30 2579 H 248.842 1.41745 -0.393283 0
M  V30 2580 H 250.8 3.89813 1.48666 0
M  V30 2581 H 249.43 2.76976 1.65783 0
M  V30 2582 H 248.482 3.76427 -0.54833 0
M  V30 2583 H 249.794 4.96276 -0.501192 0
M  V30 2584 H 248.948 5.82677 1.69035 0
M  V30 2585 H 247.687 4.56204 1.7242 0
M  V30 2586 H 246.692 5.48428 -0.388108 0
M  V30 2587 H 247.917 6.77892 -0.404839 0
M  V30 2588 H 245.863 6.3111 1.78987 0
M  V30 2589 H 245.78 7.53855 0.569111 0
M  V30 2590 H 247.048 7.59441 1.75697 0
M  V30 2591 N 251.277 0.427512 1.51691 0
M  V30 2592 C 252.209 -0.424521 2.25234 0
M  V30 2593 C 253.222 -0.994671 1.2888 0
M  V30 2594 O 254.411 -0.890483 1.54702 0
M  V30 2595 C 251.511 -1.60479 2.98496 0
M  V30 2596 C 250.684 -1.15527 4.21868 0
M  V30 2597 C 249.743 -2.20454 4.77793 0
M  V30 2598 O 248.769 -1.8029 5.39893 0
M  V30 2599 N 249.971 -3.52831 4.60967 0
M  V30 2600 H 252.736 0.205749 2.98993 0
M  V30 2601 H 250.297 0.255867 1.59865 0
M  V30 2602 H 252.289 -2.30276 3.32799 0
M  V30 2603 H 250.859 -2.14061 2.27809 0
M  V30 2604 H 250.079 -0.284736 3.9317 0
M  V30 2605 H 251.367 -0.832173 5.01949 0
M  V30 2606 H 250.765 -3.88201 4.11481 0
M  V30 2607 H 249.322 -4.18551 4.99658 0
M  V30 2608 N 252.755 -1.56801 0.158532 0
M  V30 2609 C 254.002 -1.9649 -0.489679 0
M  V30 2610 C 254.33 -1.04394 -1.6411 0
M  V30 2611 O 253.585 -0.0754401 -1.95555 0
M  V30 2612 C 253.884 -3.4235 -1.02623 0
M  V30 2613 C 253.55 -4.50899 0.00794526 0
M  V30 2614 C 252.212 -4.80312 0.292207 0
M  V30 2615 C 254.564 -5.16333 0.710584 0
M  V30 2616 C 251.892 -5.72461 1.28472 0
M  V30 2617 C 254.244 -6.09553 1.69199 0
M  V30 2618 C 252.908 -6.37339 1.98383 0
M  V30 2619 H 252.178 -0.719009 -0.179186 0
M  V30 2620 H 254.825 -1.8989 0.247798 0
M  V30 2621 H 253.13 -3.45838 -1.84128 0
M  V30 2622 H 254.827 -3.70393 -1.53656 0
M  V30 2623 H 251.417 -4.28015 -0.22379 0
M  V30 2624 H 255.601 -4.93732 0.504174 0
M  V30 2625 H 250.857 -5.92278 1.51714 0
M  V30 2626 H 255.031 -6.59327 2.24189 0
M  V30 2627 H 252.658 -7.08546 2.7544 0
M  V30 2628 N 254.233 0.115231 -1.57178 0
M  V30 2629 C 255.163 1.1423 -2.03651 0
M  V30 2630 C 256.144 1.42967 -0.921655 0
M  V30 2631 O 257.329 1.53343 -1.19162 0
M  V30 2632 C 254.459 2.4675 -2.44401 0
M  V30 2633 C 253.413 2.32467 -3.59365 0
M  V30 2634 C 252.739 3.69984 -3.86026 0
M  V30 2635 C 254.039 1.78203 -4.90959 0
M  V30 2636 H 255.733 0.755749 -2.89705 0
M  V30 2637 H 253.279 0.362093 -1.39373 0
M  V30 2638 H 255.232 3.18854 -2.75517 0
M  V30 2639 H 253.956 2.87302 -1.55322 0
M  V30 2640 H 252.615 1.62811 -3.28463 0
M  V30 2641 H 252.263 4.08028 -2.94147 0
M  V30 2642 H 251.963 3.61279 -4.63412 0
M  V30 2643 H 253.487 4.43587 -4.19599 0
M  V30 2644 H 254.901 2.40128 -5.20587 0
M  V30 2645 H 253.298 1.8031 -5.72371 0
M  V30 2646 H 254.368 0.739876 -4.79222 0
M  V30 2647 N 255.711 1.52812 0.385517 0
M  V30 2648 C 256.643 1.74096 1.49074 0
M  V30 2649 C 257.656 0.621462 1.50472 0
M  V30 2650 O 258.845 0.897245 1.54311 0
M  V30 2651 C 255.945 1.78774 2.87911 0
M  V30 2652 C 255.118 3.08134 3.10439 0
M  V30 2653 C 254.177 3.04313 4.29278 0
M  V30 2654 O 253.203 3.78168 4.25415 0
M  V30 2655 N 254.405 2.23741 5.35649 0
M  V30 2656 H 257.17 2.69455 1.31202 0
M  V30 2657 H 254.731 1.51343 0.575065 0
M  V30 2658 H 256.723 1.73721 3.65518 0
M  V30 2659 H 255.293 0.907869 2.99126 0
M  V30 2660 H 254.513 3.26649 2.20667 0
M  V30 2661 H 255.801 3.93662 3.22347 0
M  V30 2662 H 255.199 1.63211 5.41645 0
M  V30 2663 H 253.756 2.24524 6.11909 0
M  V30 2664 N 257.189 -0.644168 1.43834 0
M  V30 2665 C 258.152 -1.73857 1.49353 0
M  V30 2666 C 259.152 -1.56315 0.377112 0
M  V30 2667 O 260.342 -1.62048 0.639226 0
M  V30 2668 C 257.474 -3.12819 1.35488 0
M  V30 2669 H 258.667 -1.70342 2.46827 0
M  V30 2670 H 256.22 -0.856652 1.30733 0
M  V30 2671 H 256.955 -3.2194 0.390569 0
M  V30 2672 H 256.74 -3.26958 2.16428 0
M  V30 2673 H 258.23 -3.92606 1.42302 0
M  V30 2674 N 258.668 -1.30515 -0.883378 0
M  V30 2675 C 259.631 -1.1701 -1.97082 0
M  V30 2676 C 260.631 -0.10089 -1.60483 0
M  V30 2677 O 261.821 -0.349127 -1.70666 0
M  V30 2678 C 258.953 -0.793045 -3.31547 0
M  V30 2679 H 260.146 -2.13622 -2.10489 0
M  V30 2680 H 257.699 -1.13935 -1.06998 0
M  V30 2681 H 258.434 0.172499 -3.23841 0
M  V30 2682 H 258.219 -1.56576 -3.5948 0
M  V30 2683 H 259.709 -0.722073 -4.1131 0
M  V30 2684 N 260.146 1.09593 -1.13257 0
M  V30 2685 C 261.056 2.19739 -0.821691 0
M  V30 2686 C 262.072 1.72926 0.19302 0
M  V30 2687 O 263.248 2.01385 0.0244895 0
M  V30 2688 C 260.313 3.45482 -0.290333 0
M  V30 2689 C 259.374 4.06985 -1.36607 0
M  V30 2690 C 258.607 5.26726 -0.859975 0
M  V30 2691 O 258.83 5.69594 0.303082 0
M  V30 2692 O 257.764 5.7931 -1.63351 0
M  V30 2693 H 261.59 2.48781 -1.74189 0
M  V30 2694 H 259.175 1.18496 -0.909894 0
M  V30 2695 H 261.057 4.214 0.000674022 0
M  V30 2696 H 259.732 3.18047 0.602306 0
M  V30 2697 H 258.639 3.32712 -1.71037 0
M  V30 2698 H 259.972 4.38643 -2.23279 0
M  V30 2699 N 261.624 0.925811 1.2754 0
M  V30 2700 C 262.587 0.428129 2.25166 0
M  V30 2701 C 263.587 -0.452261 1.54309 0
M  V30 2702 O 264.777 -0.253608 1.72344 0
M  V30 2703 C 261.909 -0.384749 3.38722 0
M  V30 2704 H 263.102 1.29066 2.70706 0
M  V30 2705 H 260.655 0.706323 1.3943 0
M  V30 2706 H 261.39 -1.26618 2.98561 0
M  V30 2707 H 261.175 0.246454 3.91325 0
M  V30 2708 H 262.665 -0.723389 4.11287 0
M  V30 2709 N 263.102 -1.41638 0.69111 0
M  V30 2710 C 264.351 -2.00526 0.217318 0
M  V30 2711 C 264.664 -1.55353 -1.18848 0
M  V30 2712 O 265.87 -2.06769 -1.75951 0
M  V30 2713 C 264.326 -3.58313 0.337639 0
M  V30 2714 C 263.934 -4.12469 1.74852 0
M  V30 2715 C 265.678 -4.24431 -0.0766066 0
M  V30 2716 C 263.585 -5.62675 1.82074 0
M  V30 2717 H 262.515 -0.750008 0.0774893 0
M  V30 2718 H 265.166 -1.6217 0.858661 0
M  V30 2719 H 263.548 -3.9425 -0.371879 0
M  V30 2720 H 264.722 -3.8796 2.48644 0
M  V30 2721 H 263.037 -3.58861 2.11205 0
M  V30 2722 H 265.634 -5.34683 -0.0430284 0
M  V30 2723 H 265.977 -4.01101 -1.1146 0
M  V30 2724 H 266.51 -3.93512 0.582476 0
M  V30 2725 H 263.249 -5.90826 2.83911 0
M  V30 2726 H 262.769 -5.89124 1.12661 0
M  V30 2727 H 264.448 -6.27371 1.58159 0
M  V30 2728 N 264.58 -0.43555 -1.51462 0
M  V30 2729 C 265.857 0.191364 -1.94662 0
M  V30 2730 C 266.237 1.60254 -1.37411 0
M  V30 2731 O 265.585 2.2152 -0.560458 0
M  V30 2732 C 265.795 0.17091 -3.48581 0
M  V30 2733 C 267.143 0.377357 -4.2292 0
M  V30 2734 O 268.167 0.249104 -3.55328 0
M  V30 2735 O 267.026 0.63247 -5.42828 0
M  V30 2736 H 264.12 0.130932 -0.816569 0
M  V30 2737 H 266.666 -0.4934 -1.62369 0
M  V30 2738 H 265.438 -0.815738 -3.82703 0
M  V30 2739 H 265.061 0.898659 -3.87311 0
M  V30 2740 N 266.058 1.56714 -0.166846 0
M  V30 2741 C 267.335 1.88412 0.525373 0
M  V30 2742 C 267.715 1.07602 1.81618 0
M  V30 2743 O 267.063 0.168621 2.27877 0
M  V30 2744 C 267.273 3.40363 0.771613 0
M  V30 2745 C 268.621 4.10007 1.1036 0
M  V30 2746 O 269.645 3.45655 0.860304 0
M  V30 2747 O 268.504 5.2369 1.56239 0
M  V30 2748 H 265.598 0.781587 0.270278 0
M  V30 2749 H 268.144 1.68458 -0.204946 0
M  V30 2750 H 266.916 3.91046 -0.141093 0
M  V30 2751 H 266.539 3.65914 1.55541 0
M  V30 2752 N 267.536 -0.106894 1.57237 0
M  V30 2753 C 268.785 -0.811163 1.8467 0
M  V30 2754 C 269.098 -1.80469 0.754342 0
M  V30 2755 O 270.304 -2.55601 0.915439 0
M  V30 2756 C 268.76 -1.49337 3.27454 0
M  V30 2757 C 268.368 -0.540217 4.44731 0
M  V30 2758 C 270.112 -2.18206 3.64124 0
M  V30 2759 C 268.019 -1.22634 5.78545 0
M  V30 2760 H 266.949 -0.306679 0.688813 0
M  V30 2761 H 269.6 -0.0639887 1.83388 0
M  V30 2762 H 267.982 -2.2876 3.23241 0
M  V30 2763 H 269.156 0.221659 4.60267 0
M  V30 2764 H 267.471 0.042146 4.16379 0
M  V30 2765 H 270.068 -2.70253 4.61376 0
M  V30 2766 H 270.411 -2.96562 2.92158 0
M  V30 2767 H 270.944 -1.45658 3.70174 0
M  V30 2768 H 267.683 -0.483832 6.53712 0
M  V30 2769 H 267.203 -1.95993 5.66874 0
M  V30 2770 H 268.882 -1.75615 6.2271 0
M  V30 2771 N 269.014 -1.53014 -0.377408 0
M  V30 2772 C 270.425 -1.60438 -0.954798 0
M  V30 2773 C 270.776 -0.464418 -1.90624 0
M  V30 2774 O 269.901 0.41087 -2.12464 0
M  V30 2775 C 270.496 -2.90797 -1.73847 0
M  V30 2776 C 269.055 -3.00595 -2.26538 0
M  V30 2777 C 268.202 -2.55645 -1.07429 0
M  V30 2778 H 271.153 -1.57926 -0.156575 0
M  V30 2779 H 271.174 -2.77935 -2.5987 0
M  V30 2780 H 270.686 -3.73746 -1.04574 0
M  V30 2781 H 268.787 -2.22208 -2.99089 0
M  V30 2782 H 268.9 -4.05456 -2.5523 0
M  V30 2783 H 267.264 -2.10239 -1.43777 0
M  V30 2784 H 268.047 -3.41 -0.396728 0
M  V30 2785 N 270.492 0.636531 -1.44174 0
M  V30 2786 C 271.739 1.39619 -1.46672 0
M  V30 2787 C 272.067 1.94257 -0.0972691 0
M  V30 2788 O 271.322 1.73768 0.900175 0
M  V30 2789 C 271.621 2.58309 -2.47005 0
M  V30 2790 C 271.287 2.21992 -3.92467 0
M  V30 2791 C 269.949 2.118 -4.32081 0
M  V30 2792 C 272.301 1.9321 -4.84065 0
M  V30 2793 C 269.629 1.71007 -5.61225 0
M  V30 2794 C 271.981 1.53911 -6.13591 0
M  V30 2795 C 270.645 1.42257 -6.52165 0
M  V30 2796 H 269.915 0.510902 -0.536712 0
M  V30 2797 H 272.562 0.722328 -1.77355 0
M  V30 2798 H 270.867 3.30903 -2.09786 0
M  V30 2799 H 272.564 3.16533 -2.46186 0
M  V30 2800 H 269.154 2.30841 -3.61124 0
M  V30 2801 H 273.338 1.99997 -4.54219 0
M  V30 2802 H 268.594 1.60583 -5.89935 0
M  V30 2803 H 272.768 1.30677 -6.8403 0
M  V30 2804 H 270.395 1.10419 -7.52138 0
M  V30 2805 N 271.97 1.30982 0.876444 0
M  V30 2806 C 273.218 1.20058 1.62575 0
M  V30 2807 C 273.539 -0.242947 1.93481 0
M  V30 2808 O 272.809 -1.1619 1.57724 0
M  V30 2809 H 271.389 0.44135 0.602677 0
M  V30 2810 H 274.051 1.64222 1.04962 0
M  V30 2811 H 273.147 1.76762 2.57219 0
M  V30 2812 N 273.449 -1.08991 1.13837 0
M  V30 2813 C 274.698 -1.80631 0.897509 0
M  V30 2814 C 275.011 -1.86872 -0.57777 0
M  V30 2815 O 276.217 -2.54866 -0.935701 0
M  V30 2816 C 274.673 -3.24517 1.55618 0
M  V30 2817 C 274.281 -3.26529 3.0673 0
M  V30 2818 C 276.025 -4.00882 1.3962 0
M  V30 2819 C 273.932 -4.64965 3.65461 0
M  V30 2820 H 272.862 -0.67691 0.332129 0
M  V30 2821 H 275.513 -1.2246 1.3666 0
M  V30 2822 H 273.895 -3.82778 1.01476 0
M  V30 2823 H 275.069 -2.78008 3.67489 0
M  V30 2824 H 273.384 -2.63656 3.22296 0
M  V30 2825 H 275.981 -5.03167 1.80906 0
M  V30 2826 H 276.324 -4.14896 0.341578 0
M  V30 2827 H 276.857 -3.49075 1.90766 0
M  V30 2828 H 273.596 -4.56153 4.70749 0
M  V30 2829 H 273.116 -5.13792 3.09481 0
M  V30 2830 H 274.795 -5.3394 3.654 0
M  V30 2831 N 274.927 -0.932562 -1.27047 0
M  V30 2832 C 276.155 -0.592031 -1.98249 0
M  V30 2833 C 276.57 0.831062 -1.69525 0
M  V30 2834 O 275.927 1.55299 -0.958561 0
M  V30 2835 C 275.978 -0.814279 -3.5221 0
M  V30 2836 O 275.699 -2.18139 -3.7993 0
M  V30 2837 C 277.2 -0.483121 -4.4066 0
M  V30 2838 H 274.42 -0.223896 -0.632544 0
M  V30 2839 H 276.964 -1.25091 -1.61779 0
M  V30 2840 H 275.119 -0.20213 -3.86872 0
M  V30 2841 H 275.533 -2.235 -4.74498 0
M  V30 2842 H 277.007 -0.689298 -5.47679 0
M  V30 2843 H 277.484 0.581546 -4.35333 0
M  V30 2844 H 278.09 -1.07362 -4.11526 0
M  V30 2845 N 276.405 1.4127 -0.698611 0
M  V30 2846 C 277.63 2.06024 -0.238512 0
M  V30 2847 C 278.055 1.5224 1.10475 0
M  V30 2848 O 277.413 0.650623 1.69223 0
M  V30 2849 C 277.461 3.59988 -0.209952 0
M  V30 2850 O 276.565 4.04282 0.814235 0
M  V30 2851 H 275.906 0.653829 -0.115775 0
M  V30 2852 H 278.436 1.8098 -0.954326 0
M  V30 2853 H 278.446 4.07979 -0.0418436 0
M  V30 2854 H 277.121 3.98503 -1.1903 0
M  V30 2855 H 275.698 3.6779 0.615234 0
M  V30 2856 N 277.883 0.443576 1.51229 0
M  V30 2857 C 278.831 -0.37904 2.29491 0
M  V30 2858 C 279.825 -1.0153 1.35603 0
M  V30 2859 O 281.031 -0.94955 1.52917 0
M  V30 2860 H 277.406 -0.141053 0.738653 0
M  V30 2861 H 279.377 0.301799 2.9687 0
M  V30 2862 C 278.126 -1.46426 3.15364 0
M  V30 2863 H 277.449 -0.984037 3.87501 0
M  V30 2864 H 278.889 -2.01297 3.7317 0
M  V30 2865 C 277.348 -2.45099 2.31146 0
M  V30 2866 O 277.878 -3.49773 1.9754 0
M  V30 2867 N 276.084 -2.16139 1.94249 0
M  V30 2868 H 275.631 -1.31044 2.21777 0
M  V30 2869 H 275.589 -2.82398 1.38198 0
M  V30 2870 N 279.361 -1.56624 0.175154 0
M  V30 2871 C 280.586 -2.01813 -0.478137 0
M  V30 2872 C 281.011 -1.05457 -1.55757 0
M  V30 2873 O 280.369 -0.0347439 -1.81267 0
M  V30 2874 C 280.417 -3.45581 -1.02987 0
M  V30 2875 O 279.521 -3.52305 -2.14371 0
M  V30 2876 H 278.862 -0.65413 -0.114059 0
M  V30 2877 H 281.392 -2.02673 0.280173 0
M  V30 2878 H 281.402 -3.84965 -1.35151 0
M  V30 2879 H 280.077 -4.1521 -0.239556 0
M  V30 2880 H 278.654 -3.24783 -1.83222 0
M  V30 2881 N 280.839 0.0985539 -1.57292 0
M  V30 2882 C 282.116 0.834155 -1.76921 0
M  V30 2883 C 282.496 1.97101 -0.755928 0
M  V30 2884 O 281.844 2.27474 0.216245 0
M  V30 2885 C 282.054 1.33194 -3.22584 0
M  V30 2886 C 283.402 1.77611 -3.85668 0
M  V30 2887 O 284.426 1.42825 -3.26312 0
M  V30 2888 O 283.285 2.4192 -4.90038 0
M  V30 2889 H 280.379 0.397628 -0.725135 0
M  V30 2890 H 282.925 0.0807044 -1.69508 0
M  V30 2891 H 281.697 0.517248 -3.87866 0
M  V30 2892 H 281.32 2.1475 -3.34616 0
M  V30 2893 N 282.317 1.53212 0.369288 0
M  V30 2894 C 283.563 1.69466 1.11397 0
M  V30 2895 C 283.896 0.443257 1.89074 0
M  V30 2896 O 283.171 -0.559386 1.86282 0
M  V30 2897 C 283.454 2.9422 2.07621 0
M  V30 2898 C 283.307 4.29508 1.33577 0
M  V30 2899 C 284.626 3.14565 3.07794 0
M  V30 2900 H 281.745 0.616667 0.403597 0
M  V30 2901 H 284.387 1.85845 0.395179 0
M  V30 2902 H 282.537 2.80387 2.68916 0
M  V30 2903 H 284.209 4.55147 0.750955 0
M  V30 2904 H 282.452 4.29088 0.637618 0
M  V30 2905 H 283.123 5.12926 2.03989 0
M  V30 2906 H 285.599 3.2756 2.56601 0
M  V30 2907 H 284.475 4.03297 3.72348 0
M  V30 2908 H 284.736 2.29675 3.77759 0
M  V30 2909 N 283.795 -0.628877 1.44509 0
M  V30 2910 C 285.042 -1.38839 1.47411 0
M  V30 2911 C 285.37 -1.94202 0.10757 0
M  V30 2912 O 284.625 -1.74243 -0.890947 0
M  V30 2913 C 284.924 -2.56995 2.48371 0
M  V30 2914 C 284.59 -2.19908 3.93639 0
M  V30 2915 C 283.252 -2.09506 4.33198 0
M  V30 2916 C 285.604 -1.9064 4.85083 0
M  V30 2917 C 282.932 -1.68028 5.62124 0
M  V30 2918 C 285.284 -1.50655 6.14399 0
M  V30 2919 C 283.948 -1.38796 6.5291 0
M  V30 2920 H 283.218 -0.508048 0.539414 0
M  V30 2921 H 285.865 -0.712913 1.77735 0
M  V30 2922 H 284.17 -3.29786 2.11538 0
M  V30 2923 H 285.867 -3.15223 2.47861 0
M  V30 2924 H 282.457 -2.28922 3.62343 0
M  V30 2925 H 286.641 -1.97585 4.55273 0
M  V30 2926 H 281.897 -1.57452 5.90778 0
M  V30 2927 H 286.071 -1.27048 6.84713 0
M  V30 2928 H 283.698 -1.06429 7.52713 0
M  V30 2929 N 285.273 -1.31445 -0.869486 0
M  V30 2930 C 286.498 -1.24256 -1.66058 0
M  V30 2931 C 286.923 0.188928 -1.87149 0
M  V30 2932 O 286.281 1.13522 -1.4136 0
M  V30 2933 C 286.329 -1.9924 -3.00559 0
M  V30 2934 O 285.433 -1.33007 -3.90362 0
M  V30 2935 H 284.774 -0.428973 -0.506831 0
M  V30 2936 H 287.304 -1.73521 -1.08404 0
M  V30 2937 H 287.314 -2.08854 -3.50491 0
M  V30 2938 H 285.989 -3.03342 -2.84528 0
M  V30 2939 H 284.566 -1.31848 -3.48813 0
M  V30 2940 N 286.751 1.08385 -1.14413 0
M  V30 2941 C 287.698 2.15311 -0.831265 0
M  V30 2942 C 288.668 1.64751 0.211292 0
M  V30 2943 O 289.853 1.90627 0.0811674 0
M  V30 2944 C 286.993 3.43658 -0.315143 0
M  V30 2945 C 286.106 4.08064 -1.41802 0
M  V30 2946 C 285.241 5.24207 -0.859126 0
M  V30 2947 C 284.28 5.80554 -1.93967 0
M  V30 2948 N 283.417 6.88042 -1.39793 0
M  V30 2949 H 288.257 2.41415 -1.74708 0
M  V30 2950 H 285.794 1.18474 -0.871909 0
M  V30 2951 H 287.752 4.172 0.00230884 0
M  V30 2952 H 286.382 3.17839 0.56378 0
M  V30 2953 H 285.434 3.3228 -1.85187 0
M  V30 2954 H 286.746 4.45962 -2.23427 0
M  V30 2955 H 285.9 6.04689 -0.49359 0
M  V30 2956 H 284.639 4.87699 -0.011932 0
M  V30 2957 H 283.644 4.98725 -2.31415 0
M  V30 2958 H 284.869 6.19121 -2.79046 0
M  V30 2959 H 282.815 6.53493 -0.572919 0
M  V30 2960 H 282.732 7.24767 -2.15054 0
M  V30 2961 H 284 7.72255 -1.0603 0
M  V30 2962 N 288.23 0.939286 1.26551 0
M  V30 2963 C 289.46 0.601663 1.97645 0
M  V30 2964 C 289.868 -0.827206 1.70159 0
M  V30 2965 O 289.211 -1.56291 0.965338 0
M  V30 2966 C 289.273 0.761725 3.51337 0
M  V30 2967 C 288.937 2.16487 4.0247 0
M  V30 2968 C 289.934 3.14016 4.14355 0
M  V30 2969 C 287.619 2.48494 4.36527 0
M  V30 2970 C 289.613 4.41654 4.59587 0
M  V30 2971 C 287.3 3.76364 4.81449 0
M  V30 2972 C 288.298 4.72758 4.92939 0
M  V30 2973 O 287.986 5.98352 5.36871 0
M  V30 2974 H 287.718 0.225758 0.637189 0
M  V30 2975 H 290.272 1.26178 1.62075 0
M  V30 2976 H 288.502 0.0444808 3.86674 0
M  V30 2977 H 290.191 0.427442 4.03643 0
M  V30 2978 H 290.957 2.90613 3.8829 0
M  V30 2979 H 286.836 1.74202 4.26819 0
M  V30 2980 H 290.38 5.16896 4.68471 0
M  V30 2981 H 286.277 3.99582 5.06956 0
M  V30 2982 H 287.045 6.01507 5.55096 0
M  V30 2983 N 289.708 -1.40897 0.706093 0
M  V30 2984 C 290.64 -2.29199 0.00815776 0
M  V30 2985 C 291.653 -1.45336 -0.733582 0
M  V30 2986 O 292.842 -1.68727 -0.582537 0
M  V30 2987 C 289.942 -3.23417 -1.01265 0
M  V30 2988 C 289.115 -4.36089 -0.338387 0
M  V30 2989 C 288.174 -5.10811 -1.26326 0
M  V30 2990 O 287.2 -5.64215 -0.751651 0
M  V30 2991 N 288.402 -5.19269 -2.595 0
M  V30 2992 H 291.167 -2.89738 0.766297 0
M  V30 2993 H 288.728 -1.52164 0.55296 0
M  V30 2994 H 290.72 -3.70276 -1.63334 0
M  V30 2995 H 289.29 -2.64112 -1.67223 0
M  V30 2996 H 288.51 -3.91479 0.462352 0
M  V30 2997 H 289.798 -5.08634 0.130031 0
M  V30 2998 H 289.196 -4.77347 -3.03573 0
M  V30 2999 H 287.753 -5.69667 -3.16737 0
M  V30 3000 N 291.186 -0.45159 -1.50991 0
M  V30 3001 C 292.116 0.342898 -2.30969 0
M  V30 3002 C 293.097 1.00815 -1.37005 0
M  V30 3003 O 294.282 1.00907 -1.65926 0
M  V30 3004 C 291.412 1.43637 -3.16205 0
M  V30 3005 C 290.366 0.893818 -4.18563 0
M  V30 3006 C 289.692 2.08411 -4.92411 0
M  V30 3007 C 290.992 -0.0815568 -5.22236 0
M  V30 3008 H 292.686 -0.324556 -2.97636 0
M  V30 3009 H 290.232 -0.157531 -1.43136 0
M  V30 3010 H 292.185 1.9995 -3.70942 0
M  V30 3011 H 290.909 2.13232 -2.47386 0
M  V30 3012 H 289.568 0.352798 -3.64898 0
M  V30 3013 H 289.216 2.76658 -4.20082 0
M  V30 3014 H 288.916 1.72741 -5.61636 0
M  V30 3015 H 290.44 2.65251 -5.49976 0
M  V30 3016 H 291.854 0.391742 -5.7196 0
M  V30 3017 H 290.251 -0.351551 -5.99069 0
M  V30 3018 H 291.321 -1.01374 -4.74185 0
M  V30 3019 N 292.664 1.56529 -0.183458 0
M  V30 3020 C 293.941 1.88959 0.50536 0
M  V30 3021 C 294.321 1.09523 1.80466 0
M  V30 3022 O 293.669 0.19278 2.27685 0
M  V30 3023 C 293.879 3.41162 0.73547 0
M  V30 3024 C 295.227 4.11155 1.06005 0
M  V30 3025 O 296.251 3.46548 0.823594 0
M  V30 3026 O 295.11 5.25318 1.50675 0
M  V30 3027 H 292.204 0.78441 0.261973 0
M  V30 3028 H 294.75 1.68231 -0.222802 0
M  V30 3029 H 293.522 3.90874 -0.182561 0
M  V30 3030 H 293.145 3.67543 1.51651 0
M  V30 3031 N 294.142 -0.090211 1.57342 0
M  V30 3032 C 295.089 -1.10909 2.02405 0
M  V30 3033 C 296.059 -1.39523 0.901252 0
M  V30 3034 O 297.244 -1.50903 1.1676 0
M  V30 3035 C 294.384 -2.42277 2.45755 0
M  V30 3036 C 293.497 -2.20352 3.71576 0
M  V30 3037 C 292.632 -3.45154 4.03785 0
M  V30 3038 C 291.671 -3.18512 5.22701 0
M  V30 3039 N 290.808 -4.35593 5.50639 0
M  V30 3040 H 295.648 -0.71782 2.89225 0
M  V30 3041 H 293.185 -0.342901 1.43048 0
M  V30 3042 H 295.143 -3.18951 2.68935 0
M  V30 3043 H 293.773 -2.79242 1.61938 0
M  V30 3044 H 292.825 -1.34458 3.55844 0
M  V30 3045 H 294.137 -1.96661 4.58395 0
M  V30 3046 H 293.291 -4.30233 4.27767 0
M  V30 3047 H 292.03 -3.71904 3.15498 0
M  V30 3048 H 291.035 -2.31827 4.98534 0
M  V30 3049 H 292.26 -2.93103 6.12591 0
M  V30 3050 H 290.206 -4.6241 4.6531 0
M  V30 3051 H 290.123 -4.1511 6.31838 0
M  V30 3052 H 291.391 -5.21723 5.7916 0
M  V30 3053 N 295.62 -1.53406 -0.361157 0
M  V30 3054 C 296.897 -1.60411 -1.11927 0
M  V30 3055 C 297.277 -0.414385 -2.06993 0
M  V30 3056 O 296.625 0.594976 -2.20618 0
M  V30 3057 C 296.835 -2.95652 -1.85448 0
M  V30 3058 C 298.183 -3.50386 -2.39823 0
M  V30 3059 O 299.207 -2.97711 -1.95568 0
M  V30 3060 O 298.066 -4.42482 -3.20737 0
M  V30 3061 H 295.16 -0.64811 -0.513695 0
M  V30 3062 H 297.706 -1.65749 -0.364065 0
M  V30 3063 H 296.478 -3.73682 -1.16091 0
M  V30 3064 H 296.101 -2.93825 -2.67866 0
M  V30 3065 N 297.098 0.621204 -1.44841 0
M  V30 3066 C 298.346 1.37783 -1.47852 0
M  V30 3067 C 298.667 1.94653 -0.116224 0
M  V30 3068 O 297.937 1.76367 0.852737 0
M  V30 3069 H 296.517 0.511453 -0.544449 0
M  V30 3070 H 299.179 0.730446 -1.80694 0
M  V30 3071 H 298.275 2.20414 -2.20961 0
M  V30 3072 N 298.576 1.31904 0.862503 0
M  V30 3073 C 299.822 1.22197 1.61851 0
M  V30 3074 C 300.155 -0.217641 1.92977 0
M  V30 3075 O 299.43 -1.15264 1.56666 0
M  V30 3076 C 299.713 2.07378 2.94391 0
M  V30 3077 C 299.566 3.59678 2.70096 0
M  V30 3078 C 300.885 1.92891 3.95577 0
M  V30 3079 H 298.004 0.445255 0.587296 0
M  V30 3080 H 300.646 1.6177 0.99651 0
M  V30 3081 H 298.796 1.73758 3.47477 0
M  V30 3082 H 300.468 4.03472 2.23625 0
M  V30 3083 H 298.711 3.82735 2.04197 0
M  V30 3084 H 299.382 4.14595 3.64438 0
M  V30 3085 H 301.858 2.22327 3.51724 0
M  V30 3086 H 300.734 2.54781 4.86187 0
M  V30 3087 H 300.995 0.894315 4.3296 0
M  V30 3088 N 300.054 -1.07777 1.14986 0
M  V30 3089 C 301.3 -1.80557 0.923422 0
M  V30 3090 C 301.633 -1.86298 -0.548337 0
M  V30 3091 O 300.908 -1.34354 -1.40639 0
M  V30 3092 C 301.191 -3.25839 1.53299 0
M  V30 3093 C 301.044 -3.28269 3.07505 0
M  V30 3094 C 302.363 -4.22991 1.21518 0
M  V30 3095 H 299.482 -0.655493 0.336894 0
M  V30 3096 H 302.124 -1.26144 1.42083 0
M  V30 3097 H 300.274 -3.72306 1.10999 0
M  V30 3098 H 301.946 -2.90079 3.58681 0
M  V30 3099 H 300.189 -2.67355 3.4162 0
M  V30 3100 H 300.86 -4.30691 3.45266 0
M  V30 3101 H 303.336 -3.84894 1.581 0
M  V30 3102 H 302.212 -5.22945 1.66793 0
M  V30 3103 H 302.473 -4.41904 0.131505 0
M  V30 3104 N 301.532 -0.945985 -1.26051 0
M  V30 3105 C 302.462 -0.477172 -2.28572 0
M  V30 3106 C 303.443 0.472032 -1.63419 0
M  V30 3107 O 304.628 0.372853 -1.90587 0
M  V30 3108 C 301.758 0.253975 -3.4637 0
M  V30 3109 C 300.712 -0.609135 -4.23643 0
M  V30 3110 C 300.038 0.252252 -5.34105 0
M  V30 3111 C 301.338 -1.8829 -4.8718 0
M  V30 3112 H 303.032 -1.33402 -2.68038 0
M  V30 3113 H 300.578 -0.642904 -1.28852 0
M  V30 3114 H 302.531 0.593016 -4.17207 0
M  V30 3115 H 301.255 1.145 -3.05871 0
M  V30 3116 H 299.914 -0.931138 -3.54578 0
M  V30 3117 H 299.562 1.14278 -4.89846 0
M  V30 3118 H 299.262 -0.32188 -5.86718 0
M  V30 3119 H 300.786 0.586454 -6.07777 0
M  V30 3120 H 302.2 -1.61081 -5.50205 0
M  V30 3121 H 300.597 -2.40199 -5.49931 0
M  V30 3122 H 301.667 -2.59134 -4.09851 0
M  V30 3123 N 303.011 1.40521 -0.713556 0
M  V30 3124 C 304.258 2.00923 -0.25219 0
M  V30 3125 C 304.586 1.56571 1.15395 0
M  V30 3126 O 303.841 0.775874 1.79663 0
M  V30 3127 C 304.14 3.56317 -0.278 0
M  V30 3128 C 303.806 4.20246 -1.63415 0
M  V30 3129 C 302.468 4.37422 -2.00538 0
M  V30 3130 C 304.82 4.55923 -2.52554 0
M  V30 3131 C 302.148 4.87558 -3.2635 0
M  V30 3132 C 304.5 5.07458 -3.77716 0
M  V30 3133 C 303.164 5.22843 -4.14959 0
M  V30 3134 H 302.434 0.735231 -0.0922829 0
M  V30 3135 H 305.081 1.68161 -0.916188 0
M  V30 3136 H 303.386 3.88976 0.469567 0
M  V30 3137 H 305.083 4.00883 0.0967819 0
M  V30 3138 H 301.673 4.07263 -1.33546 0
M  V30 3139 H 305.857 4.42291 -2.25149 0
M  V30 3140 H 301.113 4.97654 -3.55176 0
M  V30 3141 H 305.287 5.34041 -4.4696 0
M  V30 3142 H 302.914 5.61454 -5.12516 0
M  V30 3143 N 304.489 0.459591 1.5075 0
M  V30 3144 C 305.436 -0.340524 2.28274 0
M  V30 3145 C 306.406 -0.997371 1.32822 0
M  V30 3146 O 307.591 -1.01202 1.61749 0
M  V30 3147 C 304.731 -1.42317 3.14388 0
M  V30 3148 C 303.844 -0.782251 4.24859 0
M  V30 3149 C 302.979 -1.84182 4.98247 0
M  V30 3150 C 302.018 -1.18053 6.00608 0
M  V30 3151 N 301.155 -2.18244 6.67319 0
M  V30 3152 H 305.995 0.326899 2.96202 0
M  V30 3153 H 303.532 0.173057 1.46078 0
M  V30 3154 H 305.49 -2.06241 3.62658 0
M  V30 3155 H 304.12 -2.05992 2.4853 0
M  V30 3156 H 303.172 -0.0307404 3.80388 0
M  V30 3157 H 304.484 -0.259663 4.98124 0
M  V30 3158 H 303.638 -2.55714 5.50177 0
M  V30 3159 H 302.377 -2.39819 4.24662 0
M  V30 3160 H 301.382 -0.450776 5.47949 0
M  V30 3161 H 302.607 -0.631202 6.7616 0
M  V30 3162 H 300.553 -2.72919 5.96533 0
M  V30 3163 H 300.47 -1.70938 7.36421 0
M  V30 3164 H 301.738 -2.89191 7.23871 0
M  V30 3165 N 305.967 -1.56429 0.191757 0
M  V30 3166 C 306.914 -2.18936 -0.730454 0
M  V30 3167 C 307.884 -1.13557 -1.21219 0
M  V30 3168 O 309.069 -1.41794 -1.27668 0
M  V30 3169 C 306.209 -2.85013 -1.9458 0
M  V30 3170 C 305.322 -4.04909 -1.50574 0
M  V30 3171 C 304.457 -4.58853 -2.67634 0
M  V30 3172 C 303.496 -5.71114 -2.20217 0
M  V30 3173 N 302.633 -6.19478 -3.30442 0
M  V30 3174 H 307.473 -2.97389 -0.190664 0
M  V30 3175 H 305.01 -1.46869 -0.0823694 0
M  V30 3176 H 306.968 -3.21492 -2.65893 0
M  V30 3177 H 305.598 -2.09129 -2.45896 0
M  V30 3178 H 304.65 -3.74115 -0.688605 0
M  V30 3179 H 305.962 -4.86113 -1.11784 0
M  V30 3180 H 305.116 -4.97619 -3.47074 0
M  V30 3181 H 303.855 -3.76749 -3.09696 0
M  V30 3182 H 302.86 -5.31879 -1.3923 0
M  V30 3183 H 304.085 -6.55033 -1.79189 0
M  V30 3184 H 302.031 -5.40297 -3.72041 0
M  V30 3185 H 301.948 -6.95725 -2.9581 0
M  V30 3186 H 303.216 -6.62898 -4.10106 0
M  V30 3187 N 307.445 0.0818655 -1.57387 0
M  V30 3188 C 308.692 0.782914 -1.86753 0
M  V30 3189 C 309.02 1.78082 -0.782118 0
M  V30 3190 O 308.275 1.94426 0.22295 0
M  V30 3191 C 308.574 1.53513 -3.22752 0
M  V30 3192 C 308.24 0.678134 -4.45771 0
M  V30 3193 C 306.902 0.441929 -4.79166 0
M  V30 3194 C 309.254 0.0832243 -5.21134 0
M  V30 3195 C 306.582 -0.398833 -5.85343 0
M  V30 3196 C 308.934 -0.744935 -6.28199 0
M  V30 3197 C 307.598 -0.991107 -6.60101 0
M  V30 3198 H 306.868 0.286489 -0.683378 0
M  V30 3199 H 309.515 0.0439808 -1.91449 0
M  V30 3200 H 307.82 2.34599 -3.138 0
M  V30 3201 H 309.517 2.08218 -3.42705 0
M  V30 3202 H 306.107 0.872357 -4.19628 0
M  V30 3203 H 310.291 0.252847 -4.95655 0
M  V30 3204 H 305.547 -0.598405 -6.08465 0
M  V30 3205 H 309.721 -1.21271 -6.8576 0
M  V30 3206 H 307.348 -1.64437 -7.42202 0
M  V30 3207 N 308.923 1.53595 0.353017 0
M  V30 3208 C 310.2 1.61002 1.11075 0
M  V30 3209 C 310.58 0.425356 2.0677 0
M  V30 3210 O 309.928 -0.583267 2.2093 0
M  V30 3211 C 310.138 2.96631 1.83877 0
M  V30 3212 C 311.486 3.51653 2.37961 0
M  V30 3213 O 312.51 2.98743 1.93987 0
M  V30 3214 O 311.369 4.44177 3.18386 0
M  V30 3215 H 308.463 0.650825 0.510251 0
M  V30 3216 H 311.009 1.6594 0.35527 0
M  V30 3217 H 309.781 3.74293 1.14108 0
M  V30 3218 H 309.404 2.95242 2.66304 0
M  V30 3219 N 310.401 -0.613514 1.45168 0
M  V30 3220 C 311.311 -1.75296 1.55912 0
M  V30 3221 C 312.327 -1.68244 0.443856 0
M  V30 3222 O 313.503 -1.88706 0.70371 0
M  V30 3223 C 310.568 -3.1174 1.5172 0
M  V30 3224 C 309.629 -3.30291 2.74238 0
M  V30 3225 C 308.862 -4.60226 2.70236 0
M  V30 3226 O 309.085 -5.42168 1.77229 0
M  V30 3227 O 308.019 -4.81361 3.61352 0
M  V30 3228 H 311.845 -1.69183 2.52212 0
M  V30 3229 H 309.43 -0.776886 1.27612 0
M  V30 3230 H 311.312 -3.93044 1.51968 0
M  V30 3231 H 309.987 -3.18357 0.585697 0
M  V30 3232 H 308.894 -2.48598 2.79553 0
M  V30 3233 H 310.227 -3.28547 3.66494 0
M  V30 3234 N 311.879 -1.3236 -0.855495 0
M  V30 3235 C 313.127 -1.22629 -1.60644 0
M  V30 3236 C 313.448 0.212136 -1.93843 0
M  V30 3237 O 312.718 1.13666 -1.59552 0
M  V30 3238 H 311.298 -0.450882 -0.595579 0
M  V30 3239 H 313.96 -1.65871 -1.02337 0
M  V30 3240 H 313.056 -1.80832 -2.54374 0
M  V30 3241 N 313.357 1.07166 -1.15556 0
M  V30 3242 C 314.773 1.31899 -0.898603 0
M  V30 3243 C 314.973 1.96333 0.453383 0
M  V30 3244 O 314.029 2.22438 1.19489 0
M  V30 3245 C 315.342 2.20826 -2.04099 0
M  V30 3246 C 316.89 2.34269 -2.07574 0
M  V30 3247 C 317.365 3.26546 -3.21141 0
M  V30 3248 N 318.856 3.34127 -3.20801 0
M  V30 3249 C 319.591 4.05595 -4.05315 0
M  V30 3250 N 319.087 4.79661 -4.99897 0
M  V30 3251 N 320.88 4.01555 -3.93332 0
M  V30 3252 H 313.031 0.637302 -2.02613 0
M  V30 3253 H 315.294 0.343468 -0.883591 0
M  V30 3254 H 315 1.80744 -3.01703 0
M  V30 3255 H 314.874 3.21364 -1.97496 0
M  V30 3256 H 317.261 2.73603 -1.10568 0
M  V30 3257 H 317.342 1.33429 -2.18244 0
M  V30 3258 H 316.986 2.87931 -4.184 0
M  V30 3259 H 316.916 4.27345 -3.07708 0
M  V30 3260 H 319.407 2.81336 -2.52306 0
M  V30 3261 H 319.72 5.31694 -5.60822 0
M  V30 3262 H 318.065 4.78671 -5.03884 0
M  V30 3263 H 321.256 3.42806 -3.18751 0
M  V30 3264 H 321.429 4.56987 -4.5942 0
M  V30 3265 N 314.835 0.952656 1.25548 0
M  V30 3266 C 315.783 0.462354 2.27958 0
M  V30 3267 C 316.777 -0.46634 1.62855 0
M  V30 3268 O 317.983 -0.343287 1.76696 0
M  V30 3269 H 314.358 0.13101 0.7405 0
M  V30 3270 H 316.329 1.33839 2.66702 0
M  V30 3271 C 315.078 -0.24628 3.46827 0
M  V30 3272 H 314.401 0.459192 3.97154 0
M  V30 3273 H 315.841 -0.553393 4.20373 0
M  V30 3274 C 314.3 -1.4681 3.0323 0
M  V30 3275 O 314.83 -2.56591 3.09069 0
M  V30 3276 N 313.036 -1.32874 2.58443 0
M  V30 3277 H 312.583 -0.435536 2.53891 0
M  V30 3278 H 312.541 -2.14742 2.29637 0
M  V30 3279 N 316.313 -1.40141 0.720998 0
M  V30 3280 C 317.261 -2.3252 0.0608547 0
M  V30 3281 C 318.255 -1.52326 -0.741152 0
M  V30 3282 O 319.461 -1.68089 -0.643911 0
M  V30 3283 H 315.836 -0.751999 0.000876664 0
M  V30 3284 H 317.807 -2.8584 0.856614 0
M  V30 3285 C 316.556 -3.37331 -0.842809 0
M  V30 3286 H 315.879 -3.99108 -0.235084 0
M  V30 3287 H 317.319 -4.04452 -1.27257 0
M  V30 3288 C 315.778 -2.73246 -1.97074 0
M  V30 3289 O 316.308 -2.59998 -3.06209 0
M  V30 3290 N 314.514 -2.31547 -1.75597 0
M  V30 3291 H 314.061 -2.42522 -0.868368 0
M  V30 3292 H 314.019 -1.89007 -2.51244 0
M  V30 3293 N 317.792 -0.46758 -1.50504 0
M  V30 3294 C 319.039 0.0886219 -2.02306 0
M  V30 3295 C 319.367 1.40037 -1.34981 0
M  V30 3296 O 318.622 1.90136 -0.463318 0
M  V30 3297 C 318.921 0.323995 -3.55928 0
M  V30 3298 C 318.587 -0.905618 -4.41712 0
M  V30 3299 C 317.249 -1.24275 -4.64875 0
M  V30 3300 C 319.601 -1.72448 -4.91845 0
M  V30 3301 C 316.929 -2.39888 -5.35417 0
M  V30 3302 C 319.281 -2.87185 -5.63656 0
M  V30 3303 C 317.945 -3.21317 -5.85074 0
M  V30 3304 H 317.215 0.0324291 -0.74029 0
M  V30 3305 H 319.862 -0.620945 -1.81153 0
M  V30 3306 H 318.167 1.11577 -3.75577 0
M  V30 3307 H 319.864 0.76826 -3.93572 0
M  V30 3308 H 316.454 -0.632956 -4.239 0
M  V30 3309 H 320.638 -1.4772 -4.73806 0
M  V30 3310 H 315.894 -2.66611 -5.50208 0
M  V30 3311 H 320.068 -3.50985 -6.01484 0
M  V30 3312 H 317.695 -4.1101 -6.39511 0
M  V30 3313 N 319.27 1.56325 -0.20005 0
M  V30 3314 C 320.18 2.22931 0.730668 0
M  V30 3315 C 321.196 1.22997 1.23076 0
M  V30 3316 O 322.372 1.55748 1.27689 0
M  V30 3317 C 319.437 2.87948 1.93098 0
M  V30 3318 C 318.498 4.03166 1.47497 0
M  V30 3319 C 317.731 4.65073 2.61807 0
M  V30 3320 O 317.954 4.25913 3.79413 0
M  V30 3321 O 316.888 5.54452 2.34237 0
M  V30 3322 H 320.714 3.03084 0.193391 0
M  V30 3323 H 318.299 1.49371 0.0294621 0
M  V30 3324 H 320.181 3.29063 2.6324 0
M  V30 3325 H 318.856 2.10771 2.45677 0
M  V30 3326 H 317.763 3.66664 0.742201 0
M  V30 3327 H 319.096 4.82022 0.995796 0
M  V30 3328 N 320.748 -0.0735177 1.57428 0
M  V30 3329 C 321.996 -0.771472 1.86796 0
M  V30 3330 C 322.317 -1.78201 0.791804 0
M  V30 3331 O 321.587 -1.95074 -0.179718 0
M  V30 3332 H 320.167 -0.28791 0.689287 0
M  V30 3333 H 322.829 -0.0500161 1.94836 0
M  V30 3334 H 321.925 -1.28874 2.8425 0
M  V30 3335 N 322.226 -1.5378 -0.344866 0
M  V30 3336 C 323.136 -1.84667 -1.4469 0
M  V30 3337 C 324.152 -0.736704 -1.57635 0
M  V30 3338 O 325.328 -1.02888 -1.73136 0
M  V30 3339 C 322.393 -2.04869 -2.79696 0
M  V30 3340 C 321.454 -3.28731 -2.76106 0
M  V30 3341 C 320.687 -3.4796 -4.04673 0
M  V30 3342 O 320.91 -2.71052 -5.01883 0
M  V30 3343 O 319.844 -4.41383 -4.09224 0
M  V30 3344 H 323.67 -2.78334 -1.21506 0
M  V30 3345 H 321.255 -1.39418 -0.536921 0
M  V30 3346 H 323.137 -2.19609 -3.59652 0
M  V30 3347 H 321.812 -1.14391 -3.02814 0
M  V30 3348 H 320.719 -3.19396 -1.94774 0
M  V30 3349 H 322.052 -4.19198 -2.57941 0
M  V30 3350 N 323.704 0.605807 -1.45491 0
M  V30 3351 C 324.95 1.36679 -1.49823 0
M  V30 3352 C 325.283 1.93693 -0.140175 0
M  V30 3353 O 324.558 1.75158 0.845581 0
M  V30 3354 C 324.841 2.51337 -2.57879 0
M  V30 3355 C 324.694 1.99508 -4.03134 0
M  V30 3356 C 326.013 3.53463 -2.62205 0
M  V30 3357 H 323.132 0.495617 -0.545466 0
M  V30 3358 H 325.774 0.682732 -1.7731 0
M  V30 3359 H 323.924 3.09691 -2.34571 0
M  V30 3360 H 325.596 1.45789 -4.37656 0
M  V30 3361 H 323.839 1.30496 -4.13707 0
M  V30 3362 H 324.51 2.82169 -4.74431 0
M  V30 3363 H 326.986 3.04953 -2.83095 0
M  V30 3364 H 325.862 4.31178 -3.39672 0
M  V30 3365 H 326.123 4.09197 -1.67363 0
M  V30 3366 N 325.182 1.32811 0.848464 0
M  V30 3367 C 326.41 1.26739 1.63538 0
M  V30 3368 C 326.825 -0.163484 1.88091 0
M  V30 3369 O 326.182 -1.10258 1.45429 0
M  V30 3370 C 326.233 2.03013 2.99112 0
M  V30 3371 O 325.954 3.40518 2.75643 0
M  V30 3372 C 327.455 2.04038 3.93552 0
M  V30 3373 H 324.675 0.437024 0.509167 0
M  V30 3374 H 327.219 1.75033 1.05753 0
M  V30 3375 H 325.374 1.58426 3.53525 0
M  V30 3376 H 325.788 3.79635 3.61908 0
M  V30 3377 H 327.262 2.61877 4.85926 0
M  V30 3378 H 327.739 1.0282 4.26995 0
M  V30 3379 H 328.345 2.486 3.45077 0
M  V30 3380 N 326.66 -1.06551 1.16123 0
M  V30 3381 C 327.607 -2.13961 0.865414 0
M  V30 3382 C 328.577 -1.65066 -0.185055 0
M  V30 3383 O 329.762 -1.90732 -0.05083 0
M  V30 3384 C 326.902 -3.43113 0.369776 0
M  V30 3385 C 326.015 -4.05756 1.48276 0
M  V30 3386 C 325.15 -5.22773 0.942414 0
M  V30 3387 C 324.189 -5.77395 2.03179 0
M  V30 3388 N 323.326 -6.85731 1.50721 0
M  V30 3389 H 328.166 -2.38605 1.78527 0
M  V30 3390 H 325.703 -1.17072 0.890646 0
M  V30 3391 H 327.661 -4.17151 0.0640643 0
M  V30 3392 H 326.291 -3.18695 -0.513143 0
M  V30 3393 H 325.343 -3.29292 1.9045 0
M  V30 3394 H 326.655 -4.42351 2.30493 0
M  V30 3395 H 325.809 -6.03827 0.589729 0
M  V30 3396 H 324.548 -4.87618 0.0895191 0
M  V30 3397 H 323.553 -4.94981 2.3932 0
M  V30 3398 H 324.778 -6.14603 2.8886 0
M  V30 3399 H 322.724 -6.52499 0.676811 0
M  V30 3400 H 322.641 -7.21254 2.26557 0
M  V30 3401 H 323.909 -7.7047 1.18303 0
M  V30 3402 N 328.138 -0.959301 -1.25041 0
M  V30 3403 C 329.048 -0.489994 -2.29426 0
M  V30 3404 C 330.064 0.444944 -1.68215 0
M  V30 3405 O 331.24 0.320046 -1.98841 0
M  V30 3406 C 328.305 0.220309 -3.45999 0
M  V30 3407 C 327.366 -0.753418 -4.22637 0
M  V30 3408 C 326.599 -0.076918 -5.33645 0
M  V30 3409 O 326.822 1.13649 -5.58963 0
M  V30 3410 O 325.756 -0.764824 -5.97021 0
M  V30 3411 H 329.582 -1.35755 -2.71669 0
M  V30 3412 H 327.167 -0.725961 -1.30576 0
M  V30 3413 H 329.049 0.619677 -4.16819 0
M  V30 3414 H 327.724 1.06296 -3.0575 0
M  V30 3415 H 326.631 -1.20308 -3.54227 0
M  V30 3416 H 327.964 -1.56423 -4.66683 0
M  V30 3417 N 329.616 1.39756 -0.72842 0
M  V30 3418 C 330.564 2.32485 -0.0731849 0
M  V30 3419 C 331.558 1.52717 0.733063 0
M  V30 3420 O 332.764 1.68428 0.634988 0
M  V30 3421 H 329.139 0.751984 -0.00486469 0
M  V30 3422 H 331.11 2.85382 -0.871761 0
M  V30 3423 C 329.859 3.37773 0.824908 0
M  V30 3424 H 329.182 3.99227 0.213915 0
M  V30 3425 H 330.622 4.05121 1.25111 0
M  V30 3426 C 329.081 2.74287 1.95622 0
M  V30 3427 O 329.611 2.61618 3.04826 0
M  V30 3428 N 327.817 2.32475 1.74367 0
M  V30 3429 H 327.364 2.4298 0.855494 0
M  V30 3430 H 327.322 1.90337 2.50238 0
M  V30 3431 N 331.094 0.475555 1.50254 0
M  V30 3432 C 332.024 -0.30611 2.31485 0
M  V30 3433 C 333.005 -0.986228 1.38591 0
M  V30 3434 O 334.19 -0.982541 1.67511 0
M  V30 3435 C 331.32 -1.38588 3.1845 0
M  V30 3436 C 330.274 -0.827115 4.19932 0
M  V30 3437 C 329.6 -2.00551 4.95665 0
M  V30 3438 C 330.9 0.16463 5.2204 0
M  V30 3439 H 332.594 0.371866 2.97082 0
M  V30 3440 H 330.14 0.180282 1.42867 0
M  V30 3441 H 332.093 -1.94023 3.74076 0
M  V30 3442 H 330.817 -2.09269 2.50747 0
M  V30 3443 H 329.476 -0.294702 3.65414 0
M  V30 3444 H 329.124 -2.6994 4.2443 0
M  V30 3445 H 328.824 -1.63784 5.64313 0
M  V30 3446 H 330.348 -2.56468 5.54127 0
M  V30 3447 H 331.762 -0.300699 5.72511 0
M  V30 3448 H 330.159 0.446813 5.98434 0
M  V30 3449 H 331.229 1.08905 4.72512 0
M  V30 3450 N 332.573 -1.56217 0.208337 0
M  V30 3451 C 333.503 -2.22694 -0.702116 0
M  V30 3452 C 334.484 -1.19432 -1.2112 0
M  V30 3453 O 335.669 -1.47978 -1.25762 0
M  V30 3454 C 332.799 -2.8966 -1.9161 0
M  V30 3455 C 331.753 -3.9928 -1.5414 0
M  V30 3456 C 331.079 -4.53476 -2.83308 0
M  V30 3457 C 332.379 -5.17012 -0.741339 0
M  V30 3458 H 334.073 -2.99034 -0.147898 0
M  V30 3459 H 331.619 -1.43831 -0.0696951 0
M  V30 3460 H 333.572 -3.34852 -2.55836 0
M  V30 3461 H 332.296 -2.10746 -2.49507 0
M  V30 3462 H 330.955 -3.54799 -0.922668 0
M  V30 3463 H 330.603 -3.71308 -3.39322 0
M  V30 3464 H 330.303 -5.27451 -2.58976 0
M  V30 3465 H 331.827 -5.01378 -3.485 0
M  V30 3466 H 333.241 -5.58667 -1.28699 0
M  V30 3467 H 331.638 -5.97137 -0.595627 0
M  V30 3468 H 332.708 -4.8423 0.254851 0
M  V30 3469 N 334.051 0.0651679 -1.57465 0
M  V30 3470 C 335.328 0.79644 -1.78651 0
M  V30 3471 C 335.708 1.95454 -0.797566 0
M  V30 3472 O 335.056 2.27882 0.167946 0
M  V30 3473 C 335.266 1.26322 -3.25337 0
M  V30 3474 C 336.614 1.6939 -3.89348 0
M  V30 3475 O 337.638 1.35872 -3.29268 0
M  V30 3476 O 336.497 2.31471 -4.95059 0
M  V30 3477 H 333.591 0.382157 -0.733407 0
M  V30 3478 H 336.137 0.0447311 -1.69641 0
M  V30 3479 H 334.909 0.434859 -3.88876 0
M  V30 3480 H 334.532 2.07604 -3.39096 0
M  V30 3481 N 335.529 1.53961 0.336706 0
M  V30 3482 C 336.776 1.71536 1.07618 0
M  V30 3483 C 337.104 0.482125 1.8843 0
M  V30 3484 O 336.359 -0.536142 1.88213 0
M  V30 3485 C 336.658 2.93493 2.03953 0
M  V30 3486 C 336.324 4.28811 1.39399 0
M  V30 3487 C 334.986 4.65602 1.21523 0
M  V30 3488 C 337.338 5.12844 0.929541 0
M  V30 3489 C 334.666 5.84037 0.558312 0
M  V30 3490 C 337.018 6.31951 0.286505 0
M  V30 3491 C 335.682 6.67432 0.0954869 0
M  V30 3492 H 334.952 0.627696 0.393801 0
M  V30 3493 H 337.599 1.88186 0.354715 0
M  V30 3494 H 335.904 2.71475 2.82504 0
M  V30 3495 H 337.601 3.04285 2.61174 0
M  V30 3496 H 334.191 3.99858 1.54311 0
M  V30 3497 H 338.375 4.84947 1.05548 0
M  V30 3498 H 333.631 6.10097 0.398995 0
M  V30 3499 H 337.805 6.96352 -0.0814376 0
M  V30 3500 H 335.432 7.59063 -0.415579 0
M  V30 3501 N 337.007 -0.598083 1.45811 0
M  V30 3502 C 338.256 -1.35295 1.49594 0
M  V30 3503 C 338.569 -1.95057 0.145679 0
M  V30 3504 O 339.775 -2.71431 0.0612099 0
M  V30 3505 C 338.231 -2.45124 2.63519 0
M  V30 3506 C 337.839 -1.91732 4.04899 0
M  V30 3507 C 339.583 -3.2205 2.76558 0
M  V30 3508 C 337.49 -2.991 5.1019 0
M  V30 3509 H 336.42 -0.508552 0.556679 0
M  V30 3510 H 339.071 -0.639977 1.71978 0
M  V30 3511 H 337.453 -3.19149 2.34435 0
M  V30 3512 H 338.627 -1.24352 4.43704 0
M  V30 3513 H 336.942 -1.27522 3.96393 0
M  V30 3514 H 339.539 -4.0215 3.52391 0
M  V30 3515 H 339.882 -3.73663 1.83526 0
M  V30 3516 H 340.415 -2.55127 3.05213 0
M  V30 3517 H 337.154 -2.52393 6.04961 0
M  V30 3518 H 336.674 -3.65017 4.75944 0
M  V30 3519 H 338.353 -3.63318 5.35359 0
M  V30 3520 N 338.485 -1.33259 -0.841409 0
M  V30 3521 C 339.432 -1.23302 -1.95103 0
M  V30 3522 C 340.402 -0.112204 -1.65721 0
M  V30 3523 O 341.587 -0.290038 -1.88583 0
M  V30 3524 C 338.727 -0.975583 -3.31023 0
M  V30 3525 C 337.84 -2.18243 -3.72819 0
M  V30 3526 C 336.975 -1.85936 -4.97595 0
M  V30 3527 C 336.014 -3.02866 -5.3192 0
M  V30 3528 N 335.151 -2.70565 -6.47873 0
M  V30 3529 H 339.991 -2.18207 -2.02952 0
M  V30 3530 H 337.528 -1.0851 -0.993173 0
M  V30 3531 H 339.486 -0.80677 -4.09325 0
M  V30 3532 H 338.116 -0.0632755 -3.22738 0
M  V30 3533 H 337.168 -2.46107 -2.90061 0
M  V30 3534 H 338.48 -3.05666 -3.94169 0
M  V30 3535 H 337.634 -1.65684 -5.83638 0
M  V30 3536 H 336.373 -0.957452 -4.78209 0
M  V30 3537 H 335.378 -3.23736 -4.44382 0
M  V30 3538 H 336.603 -3.93809 -5.53255 0
M  V30 3539 H 334.549 -1.8293 -6.29978 0
M  V30 3540 H 334.466 -3.51519 -6.69306 0
M  V30 3541 H 335.734 -2.53774 -7.37034 0
M  V30 3542 N 339.963 1.05934 -1.16686 0
M  V30 3543 C 340.913 2.11764 -0.844978 0
M  V30 3544 C 341.897 1.59922 0.177178 0
M  V30 3545 O 343.089 1.76983 -0.0241768 0
M  V30 3546 C 340.218 3.41493 -0.351812 0
M  V30 3547 C 339.304 4.00152 -1.40496 0
M  V30 3548 N 339.695 4.32874 -2.61636 0
M  V30 3549 C 337.993 4.278 -1.26106 0
M  V30 3550 C 338.694 4.79552 -3.29249 0
M  V30 3551 N 337.67 4.79211 -2.56628 0
M  V30 3552 H 341.472 2.34916 -1.76612 0
M  V30 3553 H 338.986 1.23511 -1.05446 0
M  V30 3554 H 340.983 4.16773 -0.102796 0
M  V30 3555 H 339.643 3.19778 0.56322 0
M  V30 3556 H 340.654 4.23109 -2.98663 0
M  V30 3557 H 337.331 4.15511 -0.407081 0
M  V30 3558 H 338.721 5.14045 -4.32675 0
M  V30 3559 N 341.441 0.965919 1.2453 0
M  V30 3560 C 342.389 0.486506 2.27455 0
M  V30 3561 C 343.383 -0.449041 1.6334 0
M  V30 3562 O 344.589 -0.324527 1.7705 0
M  V30 3563 H 340.964 0.138857 0.739069 0
M  V30 3564 H 342.935 1.3666 2.65267 0
M  V30 3565 C 341.684 -0.209481 3.47068 0
M  V30 3566 H 341.007 0.50129 3.96645 0
M  V30 3567 H 342.447 -0.508775 4.20936 0
M  V30 3568 C 340.906 -1.43586 3.0477 0
M  V30 3569 O 341.436 -2.53299 3.11773 0
M  V30 3570 N 339.642 -1.30126 2.59838 0
M  V30 3571 H 339.189 -0.408583 2.54339 0
M  V30 3572 H 339.147 -2.12294 2.31902 0
M  V30 3573 N 342.919 -1.39368 0.735821 0
M  V30 3574 C 343.851 -2.2913 0.0567723 0
M  V30 3575 C 344.864 -1.46859 -0.702589 0
M  V30 3576 O 346.053 -1.69925 -0.546616 0
M  V30 3577 C 343.153 -3.25492 -0.943823 0
M  V30 3578 C 342.326 -4.36709 -0.24581 0
M  V30 3579 C 341.385 -5.13376 -1.15463 0
M  V30 3580 O 340.411 -5.65683 -0.631803 0
M  V30 3581 N 341.613 -5.24656 -2.48427 0
M  V30 3582 H 344.378 -2.88047 0.827582 0
M  V30 3583 H 341.939 -1.50957 0.585112 0
M  V30 3584 H 343.931 -3.73657 -1.55443 0
M  V30 3585 H 342.501 -2.676 -1.61583 0
M  V30 3586 H 341.721 -3.9041 0.545286 0
M  V30 3587 H 343.009 -5.08244 0.237891 0
M  V30 3588 H 342.407 -4.83679 -2.93379 0
M  V30 3589 H 340.964 -5.76258 -3.04582 0
M  V30 3590 N 344.397 -0.483516 -1.5 0
M  V30 3591 C 345.327 0.293829 -2.31644 0
M  V30 3592 C 346.308 0.978864 -1.39112 0
M  V30 3593 O 347.493 0.973644 -1.68029 0
M  V30 3594 C 344.623 1.36897 -3.19181 0
M  V30 3595 C 343.577 0.804833 -4.20365 0
M  V30 3596 C 342.903 1.9792 -4.96721 0
M  V30 3597 C 344.203 -0.192313 -5.21946 0
M  V30 3598 H 345.897 -0.387616 -2.9688 0
M  V30 3599 H 343.443 -0.187856 -1.42769 0
M  V30 3600 H 345.396 1.92037 -3.751 0
M  V30 3601 H 344.12 2.07936 -2.51853 0
M  V30 3602 H 342.779 0.275319 -3.65565 0
M  V30 3603 H 342.427 2.67686 -4.25856 0
M  V30 3604 H 342.127 1.60789 -5.65173 0
M  V30 3605 H 343.651 2.53526 -5.55479 0
M  V30 3606 H 345.065 0.270333 -5.72662 0
M  V30 3607 H 343.462 -0.478543 -5.98189 0
M  V30 3608 H 344.532 -1.11409 -4.71928 0
M  V30 3609 N 345.875 1.56104 -0.216619 0
M  V30 3610 C 347.286 1.844 0.292128 0
M  V30 3611 C 347.637 1.13788 1.59833 0
M  V30 3612 O 346.762 0.405888 2.12559 0
M  V30 3613 C 347.357 3.3452 0.53681 0
M  V30 3614 C 345.916 3.63151 0.989876 0
M  V30 3615 C 345.063 2.77255 0.0502302 0
M  V30 3616 H 348.014 1.52481 -0.439926 0
M  V30 3617 H 348.035 3.54459 1.38345 0
M  V30 3618 H 347.547 3.85885 -0.414031 0
M  V30 3619 H 345.648 3.17238 1.95425 0
M  V30 3620 H 345.761 4.71177 0.867698 0
M  V30 3621 H 344.125 2.48555 0.556117 0
M  V30 3622 H 344.908 3.31416 -0.89544 0
M  V30 3623 N 347.353 -0.0568162 1.57498 0
M  V30 3624 C 348.283 -1.06593 2.0775 0
M  V30 3625 C 349.264 -1.39448 0.974082 0
M  V30 3626 O 350.449 -1.48815 1.24771 0
M  V30 3627 C 347.579 -2.37509 2.5339 0
M  V30 3628 C 346.533 -2.1897 3.67745 0
M  V30 3629 C 345.859 -3.55402 3.99492 0
M  V30 3630 C 347.159 -1.59859 4.97235 0
M  V30 3631 H 348.853 -0.647706 2.9231 0
M  V30 3632 H 346.399 -0.310116 1.40621 0
M  V30 3633 H 348.352 -3.08409 2.87162 0
M  V30 3634 H 347.076 -2.8134 1.65878 0
M  V30 3635 H 345.735 -1.50508 3.3428 0
M  V30 3636 H 345.383 -3.9683 3.09088 0
M  V30 3637 H 345.083 -3.43831 4.76502 0
M  V30 3638 H 346.607 -4.27708 4.35773 0
M  V30 3639 H 348.021 -2.20642 5.29141 0
M  V30 3640 H 346.418 -1.58942 5.78669 0
M  V30 3641 H 347.488 -0.561506 4.81638 0
M  V30 3642 N 348.832 -1.54138 -0.328536 0
M  V30 3643 C 350.078 -1.7236 -1.06865 0
M  V30 3644 C 350.411 -0.493231 -1.87832 0
M  V30 3645 O 349.686 0.5098 -1.877 0
M  V30 3646 C 349.969 -2.99621 -1.99747 0
M  V30 3647 C 349.822 -4.32899 -1.22143 0
M  V30 3648 C 351.141 -3.22615 -2.99345 0
M  V30 3649 H 348.26 -0.627151 -0.387105 0
M  V30 3650 H 350.902 -1.86827 -0.345767 0
M  V30 3651 H 349.052 -2.87418 -2.61387 0
M  V30 3652 H 350.724 -4.56978 -0.630017 0
M  V30 3653 H 348.967 -4.30628 -0.523628 0
M  V30 3654 H 349.638 -5.18154 -1.90318 0
M  V30 3655 H 352.114 -3.34248 -2.47826 0
M  V30 3656 H 350.99 -4.13027 -3.61524 0
M  V30 3657 H 351.251 -2.3961 -3.71536 0
M  V30 3658 N 350.31 0.590341 -1.46126 0
M  V30 3659 C 351.559 1.34499 -1.50309 0
M  V30 3660 C 351.872 1.94977 -0.156021 0
M  V30 3661 O 353.078 2.71395 -0.0756037 0
M  V30 3662 C 351.534 2.43723 -2.64815 0
M  V30 3663 C 351.142 1.89582 -4.0591 0
M  V30 3664 C 352.886 3.20579 -2.78262 0
M  V30 3665 C 350.793 2.9639 -5.11769 0
M  V30 3666 H 349.723 0.505593 -0.559368 0
M  V30 3667 H 352.374 0.630848 -1.72315 0
M  V30 3668 H 350.756 3.17902 -2.36124 0
M  V30 3669 H 351.93 1.21997 -4.44357 0
M  V30 3670 H 350.245 1.25418 -3.97063 0
M  V30 3671 H 352.842 4.00276 -3.54519 0
M  V30 3672 H 353.185 3.72684 -1.85505 0
M  V30 3673 H 353.718 2.53505 -3.06562 0
M  V30 3674 H 350.457 2.49181 -6.06291 0
M  V30 3675 H 349.977 3.62487 -4.77873 0
M  V30 3676 H 351.656 3.60474 -5.37278 0
M  V30 3677 N 351.788 1.33704 0.83433 0
M  V30 3678 C 352.698 1.26382 1.97648 0
M  V30 3679 C 353.714 0.173548 1.73132 0
M  V30 3680 O 354.89 0.397962 1.97429 0
M  V30 3681 C 351.955 1.00769 3.31733 0
M  V30 3682 C 351.016 2.1884 3.69334 0
M  V30 3683 C 350.249 1.9444 4.9702 0
M  V30 3684 O 350.472 0.896961 5.63303 0
M  V30 3685 O 349.406 2.81093 5.32231 0
M  V30 3686 H 353.232 2.22444 2.06767 0
M  V30 3687 H 350.817 1.13795 0.968037 0
M  V30 3688 H 352.699 0.882186 4.12062 0
M  V30 3689 H 351.374 0.0773783 3.23608 0
M  V30 3690 H 350.281 2.36946 2.89495 0
M  V30 3691 H 351.614 3.10221 3.82131 0
M  V30 3692 N 353.266 -1.05314 1.17247 0
M  V30 3693 C 354.513 -1.78293 0.960091 0
M  V30 3694 C 354.841 -1.87658 -0.51136 0
M  V30 3695 O 354.096 -1.3718 -1.39571 0
M  V30 3696 C 354.395 -3.2229 1.54479 0
M  V30 3697 C 354.061 -3.32987 3.04024 0
M  V30 3698 C 352.723 -3.35613 3.44844 0
M  V30 3699 C 355.075 -3.34102 4.00031 0
M  V30 3700 C 352.403 -3.36982 4.8027 0
M  V30 3701 C 354.755 -3.3701 5.35357 0
M  V30 3702 C 353.419 -3.37923 5.75642 0
M  V30 3703 H 352.689 -0.652422 0.351322 0
M  V30 3704 H 355.336 -1.23782 1.46117 0
M  V30 3705 H 353.641 -3.7972 0.965391 0
M  V30 3706 H 355.338 -3.77376 1.35603 0
M  V30 3707 H 351.928 -3.31655 2.71483 0
M  V30 3708 H 356.112 -3.31276 3.69554 0
M  V30 3709 H 351.368 -3.35999 5.10798 0
M  V30 3710 H 355.542 -3.36822 6.09528 0
M  V30 3711 H 353.169 -3.38738 6.80559 0
M  V30 3712 N 354.744 -0.972509 -1.24016 0
M  V30 3713 C 355.972 -0.654803 -1.96265 0
M  V30 3714 C 356.387 0.776708 -1.72083 0
M  V30 3715 O 355.744 1.52171 -1.00748 0
M  V30 3716 C 355.795 -0.92592 -3.49441 0
M  V30 3717 O 355.516 -2.30116 -3.72798 0
M  V30 3718 C 357.017 -0.623068 -4.38899 0
M  V30 3719 H 354.237 -0.243907 -0.6251 0
M  V30 3720 H 356.781 -1.30175 -1.57717 0
M  V30 3721 H 354.936 -0.325108 -3.86033 0
M  V30 3722 H 355.35 -2.38483 -4.67147 0
M  V30 3723 H 356.824 -0.863189 -5.45209 0
M  V30 3724 H 357.301 0.442754 -4.36963 0
M  V30 3725 H 357.907 -1.204 -4.07902 0
M  V30 3726 N 356.222 1.38976 -0.743202 0
M  V30 3727 C 357.132 2.3434 -0.110399 0
M  V30 3728 C 358.148 1.58741 0.712559 0
M  V30 3729 O 359.324 1.9099 0.639125 0
M  V30 3730 C 356.389 3.37812 0.780012 0
M  V30 3731 C 355.45 4.29263 -0.0561319 0
M  V30 3732 C 354.683 5.27793 0.791875 0
M  V30 3733 O 354.906 5.33043 2.03031 0
M  V30 3734 O 353.84 6.01512 0.216183 0
M  V30 3735 H 357.666 2.90129 -0.897714 0
M  V30 3736 H 355.251 1.40643 -0.503966 0
M  V30 3737 H 357.133 4.01194 1.28923 0
M  V30 3738 H 355.808 2.84395 1.546 0
M  V30 3739 H 354.715 3.69076 -0.611056 0
M  V30 3740 H 356.048 4.85907 -0.784531 0
M  V30 3741 N 357.7 0.491464 1.49741 0
M  V30 3742 C 358.632 -0.328609 2.26832 0
M  V30 3743 C 359.645 -0.939113 1.32983 0
M  V30 3744 O 360.834 -0.824067 1.58339 0
M  V30 3745 C 357.934 -1.47675 3.05033 0
M  V30 3746 C 357.107 -0.975305 4.26388 0
M  V30 3747 C 356.166 -1.99991 4.86714 0
M  V30 3748 O 355.192 -1.57229 5.47054 0
M  V30 3749 N 356.394 -3.32962 4.75517 0
M  V30 3750 H 359.159 0.332377 2.97851 0
M  V30 3751 H 356.72 0.323441 1.58636 0
M  V30 3752 H 358.712 -2.15954 3.42266 0
M  V30 3753 H 357.282 -2.04206 2.36683 0
M  V30 3754 H 356.502 -0.117723 3.94024 0
M  V30 3755 H 357.79 -0.618531 5.05026 0
M  V30 3756 H 357.188 -3.70399 4.27576 0
M  V30 3757 H 355.745 -3.96982 5.16961 0
M  V30 3758 N 359.178 -1.55987 0.224894 0
M  V30 3759 C 360.406 -2.02784 -0.410665 0
M  V30 3760 C 360.821 -1.10464 -1.53112 0
M  V30 3761 O 360.178 -0.114871 -1.82138 0
M  V30 3762 C 360.229 -3.49087 -0.939165 0
M  V30 3763 O 359.95 -4.37887 0.136614 0
M  V30 3764 C 361.451 -4.11543 -1.64763 0
M  V30 3765 H 358.671 -0.663484 -0.100148 0
M  V30 3766 H 361.215 -2.01614 0.342326 0
M  V30 3767 H 359.37 -3.50861 -1.64242 0
M  V30 3768 H 359.784 -5.23849 -0.261155 0
M  V30 3769 H 361.258 -5.15673 -1.96939 0
M  V30 3770 H 361.735 -3.56736 -2.56195 0
M  V30 3771 H 362.341 -4.13629 -0.989503 0
M  V30 3772 N 360.656 0.0484629 -1.57525 0
M  V30 3773 C 361.619 1.03956 -2.04269 0
M  V30 3774 C 362.619 1.30211 -0.943496 0
M  V30 3775 O 363.809 1.25539 -1.20771 0
M  V30 3776 C 360.941 2.37742 -2.44319 0
M  V30 3777 H 362.134 0.636182 -2.93075 0
M  V30 3778 H 359.687 0.294811 -1.53494 0
M  V30 3779 H 360.422 2.82866 -1.5861 0
M  V30 3780 H 360.207 2.20021 -3.24551 0
M  V30 3781 H 361.697 3.08936 -2.80978 0
M  V30 3782 N 362.134 1.5431 0.320358 0
M  V30 3783 C 363.545 1.63872 0.894594 0
M  V30 3784 C 363.896 0.534847 1.88769 0
M  V30 3785 O 363.021 -0.331732 2.13842 0
M  V30 3786 C 363.616 2.97049 1.62934 0
M  V30 3787 C 362.175 3.08796 2.15226 0
M  V30 3788 C 361.322 2.59456 0.978671 0
M  V30 3789 H 364.273 1.58398 0.0978544 0
M  V30 3790 H 364.294 2.87388 2.49376 0
M  V30 3791 H 363.806 3.7737 0.906302 0
M  V30 3792 H 361.907 2.33156 2.90636 0
M  V30 3793 H 362.02 4.14649 2.40006 0
M  V30 3794 H 360.384 2.1543 1.35875 0
M  V30 3795 H 361.167 3.42237 0.269895 0
M  V30 3796 N 363.613 -0.582584 1.46437 0
M  V30 3797 C 364.56 -1.69164 1.5701 0
M  V30 3798 C 365.53 -1.60847 0.414403 0
M  V30 3799 O 366.715 -1.80058 0.631171 0
M  V30 3800 C 363.855 -3.075 1.56646 0
M  V30 3801 C 362.968 -3.2644 2.82951 0
M  V30 3802 C 362.103 -4.55026 2.7409 0
M  V30 3803 C 361.142 -4.6731 3.95333 0
M  V30 3804 N 360.279 -5.87221 3.84858 0
M  V30 3805 H 365.119 -1.59464 2.51744 0
M  V30 3806 H 362.656 -0.777186 1.24893 0
M  V30 3807 H 364.614 -3.8757 1.5442 0
M  V30 3808 H 363.244 -3.16096 0.654439 0
M  V30 3809 H 362.296 -2.39974 2.95155 0
M  V30 3810 H 363.608 -3.31385 3.72808 0
M  V30 3811 H 362.762 -5.43324 2.6997 0
M  V30 3812 H 361.501 -4.52519 1.81873 0
M  V30 3813 H 360.506 -3.77429 3.99784 0
M  V30 3814 H 361.731 -4.71595 4.88646 0
M  V30 3815 H 359.677 -5.85712 2.95427 0
M  V30 3816 H 359.594 -5.93435 4.6837 0
M  V30 3817 H 360.862 -6.7795 3.84713 0
M  V30 3818 N 365.091 -1.34144 -0.827227 0
M  V30 3819 C 366.34 -1.25602 -1.5782 0
M  V30 3820 C 366.653 0.173445 -1.94829 0
M  V30 3821 O 367.859 0.380984 -2.68814 0
M  V30 3822 C 366.315 -2.20151 -2.84713 0
M  V30 3823 C 365.923 -3.68331 -2.55021 0
M  V30 3824 C 367.667 -2.20508 -3.62735 0
M  V30 3825 C 365.574 -4.54762 -3.78082 0
M  V30 3826 H 364.504 -0.466573 -0.592306 0
M  V30 3827 H 367.155 -1.59283 -0.911116 0
M  V30 3828 H 365.537 -1.79417 -3.53023 0
M  V30 3829 H 366.711 -4.17577 -1.94849 0
M  V30 3830 H 365.026 -3.7038 -1.90283 0
M  V30 3831 H 367.623 -2.82306 -4.54101 0
M  V30 3832 H 367.966 -1.20322 -3.98533 0
M  V30 3833 H 368.499 -2.59664 -3.01362 0
M  V30 3834 H 365.238 -5.55867 -3.47407 0
M  V30 3835 H 364.758 -4.10254 -4.37552 0
M  V30 3836 H 366.437 -4.69153 -4.45538 0
M  V30 3837 N 366.569 1.04691 -1.17803 0
M  V30 3838 C 367.816 1.77782 -0.969532 0
M  V30 3839 C 368.144 1.87926 0.501401 0
M  V30 3840 O 367.399 1.37918 1.38842 0
M  V30 3841 C 367.698 3.21467 -1.56186 0
M  V30 3842 C 367.364 3.3137 -3.05786 0
M  V30 3843 C 366.026 3.3378 -3.46619 0
M  V30 3844 C 368.378 3.31976 -4.01797 0
M  V30 3845 C 365.706 3.34431 -4.82051 0
M  V30 3846 C 368.058 3.34167 -5.37136 0
M  V30 3847 C 366.722 3.34866 -5.77426 0
M  V30 3848 H 365.992 0.650549 -0.354777 0
M  V30 3849 H 368.639 1.23006 -1.46772 0
M  V30 3850 H 366.944 3.79203 -0.985515 0
M  V30 3851 H 368.641 3.76652 -1.37602 0
M  V30 3852 H 365.231 3.3021 -2.73238 0
M  V30 3853 H 369.415 3.29311 -3.71306 0
M  V30 3854 H 364.671 3.33285 -5.12573 0
M  V30 3855 H 368.845 3.33585 -6.11305 0
M  V30 3856 H 366.472 3.35124 -6.82346 0
M  V30 3857 N 368.047 0.979072 1.23499 0
M  V30 3858 C 369.295 0.645941 1.91499 0
M  V30 3859 C 369.616 -0.822948 1.76784 0
M  V30 3860 O 368.886 -1.58854 1.14639 0
M  V30 3861 H 367.466 0.235919 0.708767 0
M  V30 3862 H 370.128 1.2426 1.50152 0
M  V30 3863 H 369.224 0.896411 2.9895 0
M  V30 3864 N 369.525 -1.3858 0.750561 0
M  V30 3865 C 370.773 -1.99789 0.30477 0
M  V30 3866 C 371.094 -1.59874 -1.11649 0
M  V30 3867 O 370.364 -0.85417 -1.76297 0
M  V30 3868 H 368.944 -0.738902 0.109694 0
M  V30 3869 H 371.606 -1.69391 0.963983 0
M  V30 3870 H 370.702 -3.09952 0.365499 0
M  V30 3871 N 371.003 -0.499398 -1.49478 0
M  V30 3872 C 371.913 0.284489 -2.32869 0
M  V30 3873 C 372.929 0.968885 -1.44529 0
M  V30 3874 O 374.105 0.95062 -1.77553 0
M  V30 3875 C 371.17 1.33594 -3.19928 0
M  V30 3876 C 370.231 0.665149 -4.24116 0
M  V30 3877 C 369.464 1.6665 -5.07014 0
M  V30 3878 O 369.687 2.89618 -4.91404 0
M  V30 3879 O 368.621 1.22271 -5.8935 0
M  V30 3880 H 372.447 -0.39802 -3.01081 0
M  V30 3881 H 370.032 -0.260758 -1.47107 0
M  V30 3882 H 371.914 1.94431 -3.73864 0
M  V30 3883 H 370.589 2.0014 -2.54412 0
M  V30 3884 H 369.496 0.0170769 -3.74096 0
M  V30 3885 H 370.829 0.0421555 -4.92182 0
M  V30 3886 N 372.481 1.55866 -0.233164 0
M  V30 3887 C 373.73 1.97779 0.39579 0
M  V30 3888 C 374.043 1.12419 1.60066 0
M  V30 3889 O 375.249 1.44283 2.29988 0
M  V30 3890 C 373.705 3.5188 0.755556 0
M  V30 3891 C 373.313 4.45959 -0.427152 0
M  V30 3892 C 375.057 4.02479 1.34946 0
M  V30 3893 C 372.964 5.91383 -0.0443043 0
M  V30 3894 H 371.894 0.738592 0.15165 0
M  V30 3895 H 374.545 1.80486 -0.331212 0
M  V30 3896 H 372.927 3.64816 1.5403 0
M  V30 3897 H 374.101 4.44776 -1.20462 0
M  V30 3898 H 372.416 4.05765 -0.935068 0
M  V30 3899 H 375.013 5.08637 1.649 0
M  V30 3900 H 375.356 3.49014 2.26925 0
M  V30 3901 H 375.889 3.92813 0.62791 0
M  V30 3902 H 372.628 6.48857 -0.930874 0
M  V30 3903 H 372.148 5.95734 0.697238 0
M  V30 3904 H 373.827 6.45893 0.378334 0
M  V30 3905 N 373.959 -0.0401083 1.57549 0
M  V30 3906 C 374.906 -1.04413 2.05831 0
M  V30 3907 C 375.876 -1.36585 0.945184 0
M  V30 3908 O 377.061 -1.47112 1.21502 0
M  V30 3909 C 374.201 -2.34336 2.53339 0
M  V30 3910 C 373.314 -2.08419 3.78398 0
M  V30 3911 C 372.449 -3.32133 4.14561 0
M  V30 3912 C 371.488 -3.01721 5.3257 0
M  V30 3913 N 370.625 -4.17855 5.64218 0
M  V30 3914 H 375.465 -0.625442 2.91363 0
M  V30 3915 H 373.002 -0.297218 1.44066 0
M  V30 3916 H 374.96 -3.10234 2.78946 0
M  V30 3917 H 373.59 -2.73948 1.7074 0
M  V30 3918 H 372.642 -1.23069 3.59942 0
M  V30 3919 H 373.954 -1.81978 4.64419 0
M  V30 3920 H 373.108 -4.16406 4.41238 0
M  V30 3921 H 371.847 -3.61678 3.2717 0
M  V30 3922 H 370.852 -2.15849 5.05657 0
M  V30 3923 H 372.077 -2.73466 6.21605 0
M  V30 3924 H 370.023 -4.47372 4.79786 0
M  V30 3925 H 369.94 -3.94798 6.44725 0
M  V30 3926 H 371.208 -5.03033 5.95465 0
M  V30 3927 N 375.437 -1.54477 -0.31217 0
M  V30 3928 C 376.665 -1.77205 -1.068 0
M  V30 3929 C 377.08 -0.526114 -1.81321 0
M  V30 3930 O 376.437 0.503647 -1.75413 0
M  V30 3931 C 376.488 -2.97253 -2.05725 0
M  V30 3932 O 376.209 -4.1703 -1.34228 0
M  V30 3933 C 377.71 -3.32281 -2.93435 0
M  V30 3934 H 374.93 -0.591287 -0.317208 0
M  V30 3935 H 377.474 -2.01398 -0.354834 0
M  V30 3936 H 375.629 -2.753 -2.72559 0
M  V30 3937 H 376.043 -4.84636 -2.00571 0
M  V30 3938 H 377.517 -4.19551 -3.58721 0
M  V30 3939 H 377.994 -2.49945 -3.61143 0
M  V30 3940 H 378.6 -3.56353 -2.32147 0
M  V30 3941 N 376.915 0.57481 -1.46744 0
M  V30 3942 C 377.865 1.67838 -1.54319 0
M  V30 3943 C 378.849 1.55759 -0.40346 0
M  V30 3944 O 380.041 1.6454 -0.652347 0
M  V30 3945 C 377.17 3.06624 -1.5439 0
M  V30 3946 C 376.256 3.23971 -2.73685 0
M  V30 3947 N 376.647 3.11447 -3.9854 0
M  V30 3948 C 374.945 3.5493 -2.70075 0
M  V30 3949 C 375.646 3.31011 -4.78337 0
M  V30 3950 N 374.622 3.56533 -4.10348 0
M  V30 3951 H 378.424 1.56698 -2.48642 0
M  V30 3952 H 375.938 0.779071 -1.42493 0
M  V30 3953 H 377.935 3.85839 -1.57905 0
M  V30 3954 H 376.595 3.1889 -0.611493 0
M  V30 3955 H 377.606 2.89145 -4.29669 0
M  V30 3956 H 374.283 3.73832 -1.85893 0
M  V30 3957 H 375.673 3.26445 -5.87268 0
M  V30 3958 N 378.394 1.34581 0.820102 0
M  V30 3959 C 379.643 1.26437 1.57151 0
M  V30 3960 C 379.956 -0.163111 1.94919 0
M  V30 3961 O 381.162 -0.366722 2.69012 0
M  V30 3962 C 379.618 2.21658 2.83541 0
M  V30 3963 C 379.226 3.69679 2.53065 0
M  V30 3964 C 380.97 2.22428 3.61561 0
M  V30 3965 C 378.877 4.56761 3.75664 0
M  V30 3966 H 377.807 0.469707 0.589823 0
M  V30 3967 H 380.458 1.59763 0.902656 0
M  V30 3968 H 378.84 1.81287 3.52067 0
M  V30 3969 H 380.014 4.18605 1.92631 0
M  V30 3970 H 378.329 3.71384 1.88316 0
M  V30 3971 H 380.926 2.8471 4.52597 0
M  V30 3972 H 381.269 1.22434 3.97889 0
M  V30 3973 H 381.802 2.61259 2.99981 0
M  V30 3974 H 378.541 5.57702 3.44454 0
M  V30 3975 H 378.061 4.12568 4.35371 0
M  V30 3976 H 379.74 4.71509 4.43044 0
M  V30 3977 N 379.872 -1.04064 1.18357 0
M  V30 3978 C 380.802 -2.14001 0.934113 0
M  V30 3979 C 381.783 -1.69616 -0.128186 0
M  V30 3980 O 382.968 -1.94185 0.0244093 0
M  V30 3981 C 380.098 -3.44253 0.459066 0
M  V30 3982 C 379.052 -4.02261 1.46185 0
M  V30 3983 C 378.378 -5.27992 0.844322 0
M  V30 3984 C 379.678 -4.38432 2.83856 0
M  V30 3985 H 381.372 -2.35127 1.85352 0
M  V30 3986 H 378.918 -1.12998 0.892604 0
M  V30 3987 H 380.871 -4.20522 0.271907 0
M  V30 3988 H 379.595 -3.22813 -0.495912 0
M  V30 3989 H 378.254 -3.28074 1.63595 0
M  V30 3990 H 377.902 -5.02862 -0.117845 0
M  V30 3991 H 377.602 -5.67765 1.51384 0
M  V30 3992 H 379.126 -6.06938 0.667693 0
M  V30 3993 H 380.54 -5.05688 2.70098 0
M  V30 3994 H 378.937 -4.89254 3.47491 0
M  V30 3995 H 380.007 -3.4826 3.37406 0
M  V30 3996 N 381.35 -0.985608 -1.22978 0
M  V30 3997 C 382.28 -0.549649 -2.26939 0
M  V30 3998 C 383.261 0.419803 -1.64838 0
M  V30 3999 O 384.446 0.31203 -1.91677 0
M  V30 4000 C 381.576 0.143652 -3.47003 0
M  V30 4001 C 380.53 -0.743606 -4.21491 0
M  V30 4002 C 379.856 0.0822027 -5.34637 0
M  V30 4003 C 381.156 -2.03694 -4.80943 0
M  V30 4004 H 382.85 -1.41862 -2.63658 0
M  V30 4005 H 380.396 -0.683571 -1.26741 0
M  V30 4006 H 382.349 0.459985 -4.18882 0
M  V30 4007 H 381.073 1.04711 -3.09359 0
M  V30 4008 H 379.732 -1.04347 -3.51436 0
M  V30 4009 H 379.38 0.986359 -4.93234 0
M  V30 4010 H 379.08 -0.508377 -5.85397 0
M  V30 4011 H 380.604 0.392797 -6.09335 0
M  V30 4012 H 382.018 -1.78504 -5.44802 0
M  V30 4013 H 380.415 -2.57573 -5.42011 0
M  V30 4014 H 381.485 -2.72042 -4.01399 0
M  V30 4015 N 382.828 1.3818 -0.7579 0
M  V30 4016 C 384.075 2.00019 -0.315985 0
M  V30 4017 C 384.403 1.60163 1.10355 0
M  V30 4018 O 383.658 0.83264 1.77103 0
M  V30 4019 C 383.957 3.55252 -0.391218 0
M  V30 4020 C 383.623 4.14834 -1.76702 0
M  V30 4021 C 382.285 4.30821 -2.14353 0
M  V30 4022 C 384.637 4.47658 -2.66931 0
M  V30 4023 C 381.965 4.76928 -3.41696 0
M  V30 4024 C 384.317 4.95184 -3.93669 0
M  V30 4025 C 382.981 5.09377 -4.31383 0
M  V30 4026 H 382.251 0.731923 -0.115627 0
M  V30 4027 H 384.898 1.65161 -0.969223 0
M  V30 4028 H 383.203 3.90273 0.34558 0
M  V30 4029 H 384.9 4.00988 -0.030805 0
M  V30 4030 H 381.49 4.02808 -1.46435 0
M  V30 4031 H 385.674 4.34904 -2.39106 0
M  V30 4032 H 380.93 4.86103 -3.70829 0
M  V30 4033 H 385.104 5.19551 -4.63724 0
M  V30 4034 H 382.731 5.44865 -5.30119 0
M  V30 4035 N 384.306 0.507319 1.49211 0
M  V30 4036 C 385.236 -0.256939 2.32082 0
M  V30 4037 C 386.217 -0.956609 1.40652 0
M  V30 4038 O 387.402 -0.946788 1.69557 0
M  V30 4039 C 384.532 -1.31802 3.21318 0
M  V30 4040 C 383.486 -0.737855 4.21592 0
M  V30 4041 C 382.812 -1.89992 4.99807 0
M  V30 4042 C 384.112 0.275325 5.21574 0
M  V30 4043 H 385.806 0.434798 2.96226 0
M  V30 4044 H 383.352 0.210546 1.42452 0
M  V30 4045 H 385.305 -1.86045 3.78107 0
M  V30 4046 H 384.029 -2.03903 2.5513 0
M  V30 4047 H 382.688 -0.217126 3.65956 0
M  V30 4048 H 382.336 -2.60877 4.30061 0
M  V30 4049 H 382.036 -1.51777 5.6766 0
M  V30 4050 H 383.56 -2.44657 5.59442 0
M  V30 4051 H 384.974 -0.179193 5.7302 0
M  V30 4052 H 383.371 0.573649 5.97352 0
M  V30 4053 H 384.441 1.18903 4.70096 0
M  V30 4054 N 385.784 -1.5574 0.241426 0
M  V30 4055 C 387.195 -1.84842 -0.262755 0
M  V30 4056 C 387.546 -1.16317 -1.58003 0
M  V30 4057 O 386.671 -0.439653 -2.11887 0
M  V30 4058 C 387.266 -3.35332 -0.483523 0
M  V30 4059 C 385.825 -3.6468 -0.931977 0
M  V30 4060 C 384.972 -2.77299 -0.0061151 0
M  V30 4061 H 387.923 -1.51761 0.464129 0
M  V30 4062 H 387.944 -3.56615 -1.32688 0
M  V30 4063 H 387.456 -3.85178 0.47537 0
M  V30 4064 H 385.557 -3.20307 -1.90353 0
M  V30 4065 H 385.67 -4.72498 -0.792628 0
M  V30 4066 H 384.034 -2.49408 -0.516503 0
M  V30 4067 H 384.817 -3.2995 0.948052 0
M  V30 4068 N 387.262 0.0317525 -1.57568 0
M  V30 4069 C 388.209 1.0332 -2.06382 0
M  V30 4070 C 389.179 1.36082 -0.952414 0
M  V30 4071 O 390.364 1.46466 -1.2228 0
M  V30 4072 C 387.504 2.32989 -2.54578 0
M  V30 4073 C 386.617 2.0641 -3.79498 0
M  V30 4074 C 385.752 3.2993 -4.16317 0
M  V30 4075 C 384.791 2.98893 -5.34162 0
M  V30 4076 N 383.928 4.14857 -5.66426 0
M  V30 4077 H 388.768 0.609982 -2.9169 0
M  V30 4078 H 386.305 0.289573 -1.44222 0
M  V30 4079 H 388.263 3.0875 -2.80587 0
M  V30 4080 H 386.893 2.73039 -1.7219 0
M  V30 4081 H 385.945 1.21158 -3.6059 0
M  V30 4082 H 387.257 1.79513 -4.65378 0
M  V30 4083 H 386.411 4.1406 -4.4344 0
M  V30 4084 H 385.15 3.59938 -3.29083 0
M  V30 4085 H 384.155 2.13164 -5.06795 0
M  V30 4086 H 385.38 2.70165 -6.23047 0
M  V30 4087 H 383.326 4.44821 -4.82151 0
M  V30 4088 H 383.243 3.91374 -6.4681 0
M  V30 4089 H 384.511 4.99868 -5.98124 0
M  V30 4090 N 388.74 1.54641 0.303973 0
M  V30 4091 C 389.965 1.78092 1.06292 0
M  V30 4092 C 390.39 0.537342 1.80262 0
M  V30 4093 O 389.748 -0.511993 1.7392 0
M  V30 4094 C 389.796 2.98612 2.02147 0
M  V30 4095 O 388.9 2.71528 3.10397 0
M  V30 4096 H 388.241 0.589548 0.305497 0
M  V30 4097 H 390.771 2.01716 0.3423 0
M  V30 4098 H 390.781 3.265 2.44667 0
M  V30 4099 H 389.456 3.88785 1.47714 0
M  V30 4100 H 388.033 2.54648 2.72413 0
M  V30 4101 N 390.218 -0.567019 1.47046 0
M  V30 4102 C 391.464 -1.32658 1.53394 0
M  V30 4103 C 391.797 -1.93254 0.19148 0
M  V30 4104 O 391.072 -1.77338 -0.798844 0
M  V30 4105 C 391.355 -2.44412 2.64452 0
M  V30 4106 C 391.208 -1.88749 4.08282 0
M  V30 4107 C 392.527 -3.46387 2.71485 0
M  V30 4108 H 389.646 -0.48098 0.558415 0
M  V30 4109 H 392.288 -0.635481 1.79058 0
M  V30 4110 H 390.438 -3.03363 2.427 0
M  V30 4111 H 392.11 -1.34134 4.41368 0
M  V30 4112 H 390.353 -1.19481 4.17021 0
M  V30 4113 H 391.024 -2.69491 4.81745 0
M  V30 4114 H 393.5 -2.9734 2.91081 0
M  V30 4115 H 392.376 -4.2202 3.50985 0
M  V30 4116 H 392.637 -4.04616 1.78153 0
M  V30 4117 N 391.696 -1.35014 -0.812953 0
M  V30 4118 C 392.921 -1.31187 -1.60639 0
M  V30 4119 C 393.346 0.109382 -1.87782 0
M  V30 4120 O 392.704 1.07424 -1.46047 0
M  V30 4121 C 392.752 -2.11809 -2.91838 0
M  V30 4122 O 391.856 -1.49444 -3.8437 0
M  V30 4123 H 391.197 -0.450084 -0.488181 0
M  V30 4124 H 393.727 -1.77963 -1.00947 0
M  V30 4125 H 393.737 -2.23531 -3.41318 0
M  V30 4126 H 392.412 -3.15137 -2.71407 0
M  V30 4127 H 390.989 -1.46524 -3.42907 0
M  V30 4128 N 393.175 1.03435 -1.18907 0
M  V30 4129 C 394.452 1.73778 -0.89781 0
M  V30 4130 C 394.832 2.02458 0.597832 0
M  V30 4131 O 394.18 1.67482 1.55441 0
M  V30 4132 C 394.39 3.01845 -1.75187 0
M  V30 4133 C 395.738 3.7546 -1.9828 0
M  V30 4134 O 396.762 3.11759 -1.72293 0
M  V30 4135 O 395.621 4.89966 -2.42065 0
M  V30 4136 H 392.715 0.75651 -0.334098 0
M  V30 4137 H 395.261 1.09444 -1.29693 0
M  V30 4138 H 394.033 2.76836 -2.76545 0
M  V30 4139 H 393.656 3.73919 -1.35167 0
M  V30 4140 N 394.653 0.992116 1.22453 0
M  V30 4141 C 395.883 0.684949 1.94915 0
M  V30 4142 C 396.291 -0.754292 1.73514 0
M  V30 4143 O 395.634 -1.52056 1.03076 0
M  V30 4144 C 395.696 0.910054 3.47791 0
M  V30 4145 C 395.36 2.33363 3.92926 0
M  V30 4146 C 396.357 3.31308 4.00663 0
M  V30 4147 C 394.042 2.66785 4.25595 0
M  V30 4148 C 396.036 4.6075 4.40441 0
M  V30 4149 C 393.723 3.96446 4.65053 0
M  V30 4150 C 394.721 4.9324 4.72444 0
M  V30 4151 O 394.409 6.20584 5.1101 0
M  V30 4152 H 394.141 0.25258 0.62704 0
M  V30 4153 H 396.695 1.32939 1.56577 0
M  V30 4154 H 394.925 0.208443 3.86138 0
M  V30 4155 H 396.614 0.598257 4.01467 0
M  V30 4156 H 397.38 3.0682 3.75615 0
M  V30 4157 H 393.259 1.92148 4.19047 0
M  V30 4158 H 396.803 5.363 4.46126 0
M  V30 4159 H 392.7 4.20724 4.89552 0
M  V30 4160 H 393.468 6.24509 5.29085 0
M  V30 4161 N 396.131 -1.37776 0.765217 0
M  V30 4162 C 397.408 -1.93975 0.251596 0
M  V30 4163 C 397.788 -1.69949 -1.25222 0
M  V30 4164 O 397.136 -1.04457 -2.03226 0
M  V30 4165 C 397.346 -3.43487 0.617895 0
M  V30 4166 C 398.694 -4.20564 0.584029 0
M  V30 4167 O 399.718 -3.5182 0.556888 0
M  V30 4168 O 398.577 -5.43138 0.605291 0
M  V30 4169 H 395.671 -0.82509 0.0561806 0
M  V30 4170 H 398.217 -1.47101 0.846128 0
M  V30 4171 H 396.989 -3.5453 1.65602 0
M  V30 4172 H 396.612 -3.976 -0.00403411 0
M  V30 4173 N 397.609 -0.515225 -1.4894 0
M  V30 4174 C 398.857 0.0241671 -2.02086 0
M  V30 4175 C 399.178 1.3616 -1.3959 0
M  V30 4176 O 398.448 1.87841 -0.556121 0
M  V30 4177 H 397.028 0.0119203 -0.746905 0
M  V30 4178 H 399.69 -0.675702 -1.82812 0
M  V30 4179 H 398.786 0.143385 -3.1177 0
M  V30 4180 N 399.087 1.5561 -0.249682 0
M  V30 4181 C 400.034 2.21496 0.648694 0
M  V30 4182 C 401.004 1.17977 1.16921 0
M  V30 4183 O 402.189 1.46434 1.22318 0
M  V30 4184 C 399.329 2.92039 1.83868 0
M  V30 4185 C 398.442 4.10219 1.35442 0
M  V30 4186 C 397.577 4.6847 2.50419 0
M  V30 4187 C 396.616 5.78893 1.98869 0
M  V30 4188 N 395.753 6.31315 3.07223 0
M  V30 4189 H 400.593 2.97892 0.0801582 0
M  V30 4190 H 398.13 1.47074 0.0278031 0
M  V30 4191 H 400.088 3.31138 2.53778 0
M  V30 4192 H 398.718 2.18111 2.37965 0
M  V30 4193 H 397.77 3.76413 0.54928 0
M  V30 4194 H 399.082 4.89927 0.936649 0
M  V30 4195 H 398.236 5.10158 3.28366 0
M  V30 4196 H 396.975 3.87984 2.95499 0
M  V30 4197 H 395.98 5.3668 1.19393 0
M  V30 4198 H 397.205 6.61232 1.54755 0
M  V30 4199 H 395.151 5.53733 3.51732 0
M  V30 4200 H 395.068 7.06224 2.69784 0
M  V30 4201 H 396.336 6.77662 3.8522 0
M  V30 4202 N 400.565 -0.0233959 1.57583 0
M  V30 4203 C 401.495 -1.02162 2.09965 0
M  V30 4204 C 402.476 -1.3735 1.00344 0
M  V30 4205 O 403.661 -1.46135 1.27899 0
M  V30 4206 C 400.791 -2.32081 2.58371 0
M  V30 4207 C 399.745 -2.1112 3.72307 0
M  V30 4208 C 399.071 -3.46848 4.06941 0
M  V30 4209 C 400.371 -1.49276 5.00514 0
M  V30 4210 H 402.065 -0.585557 2.93618 0
M  V30 4211 H 399.611 -0.280218 1.41247 0
M  V30 4212 H 401.564 -3.02249 2.93639 0
M  V30 4213 H 400.288 -2.77758 1.71808 0
M  V30 4214 H 398.947 -1.43384 3.37397 0
M  V30 4215 H 398.595 -3.90184 3.17436 0
M  V30 4216 H 398.295 -3.33646 4.83688 0
M  V30 4217 H 399.819 -4.18369 4.44747 0
M  V30 4218 H 401.233 -2.09368 5.33702 0
M  V30 4219 H 399.63 -1.46632 5.8191 0
M  V30 4220 H 400.7 -0.459217 4.82721 0
M  V30 4221 N 402.043 -1.548 -0.295768 0
M  V30 4222 C 403.268 -1.78653 -1.05346 0
M  V30 4223 C 403.693 -0.546894 -1.79974 0
M  V30 4224 O 403.051 0.502763 -1.7419 0
M  V30 4225 C 403.099 -2.99679 -2.00561 0
M  V30 4226 O 402.203 -2.7317 -3.08953 0
M  V30 4227 H 401.544 -0.59116 -0.302367 0
M  V30 4228 H 404.074 -2.01895 -0.331598 0
M  V30 4229 H 404.084 -3.27793 -2.42932 0
M  V30 4230 H 402.759 -3.89562 -1.4565 0
M  V30 4231 H 401.336 -2.56089 -2.71059 0
M  V30 4232 N 403.521 0.559213 -1.47345 0
M  V30 4233 C 404.469 1.68747 -1.60085 0
M  V30 4234 C 405.463 1.628 -0.46825 0
M  V30 4235 O 406.669 1.68009 -0.645977 0
M  V30 4236 H 403.044 0.558329 -0.503759 0
M  V30 4237 H 405.015 1.55138 -2.54902 0
M  V30 4238 C 403.764 3.07103 -1.63042 0
M  V30 4239 H 403.087 3.12361 -2.49541 0
M  V30 4240 H 404.527 3.85743 -1.76006 0
M  V30 4241 C 402.986 3.34935 -0.363357 0
M  V30 4242 O 403.516 3.98102 0.536416 0
M  V30 4243 N 401.722 2.89574 -0.244 0
M  V30 4244 H 401.269 2.38348 -0.977133 0
M  V30 4245 H 401.227 3.08566 0.602836 0
M  V30 4246 N 404.999 1.35443 0.805782 0
M  V30 4247 C 406.246 1.28761 1.56291 0
M  V30 4248 C 406.574 -0.137747 1.94012 0
M  V30 4249 O 405.829 -1.1032 1.61642 0
M  V30 4250 C 406.128 2.14045 2.86216 0
M  V30 4251 C 405.794 3.62826 2.67709 0
M  V30 4252 C 404.456 4.0338 2.6237 0
M  V30 4253 C 406.808 4.57227 2.50186 0
M  V30 4254 C 404.136 5.36501 2.37451 0
M  V30 4255 C 406.488 5.90547 2.26797 0
M  V30 4256 C 405.152 6.30245 2.1988 0
M  V30 4257 H 404.422 0.471171 0.571908 0
M  V30 4258 H 407.069 1.67347 0.930974 0
M  V30 4259 H 405.374 1.68342 3.53791 0
M  V30 4260 H 407.071 2.0621 3.43917 0
M  V30 4261 H 403.661 3.30644 2.72713 0
M  V30 4262 H 407.845 4.2678 2.53323 0
M  V30 4263 H 403.101 5.66259 2.30567 0
M  V30 4264 H 407.275 6.63274 2.12228 0
M  V30 4265 H 404.902 7.33328 2.00333 0
M  V30 4266 N 406.477 -1.02803 1.19454 0
M  V30 4267 C 407.424 -2.11099 0.933046 0
M  V30 4268 C 408.394 -1.65571 -0.132447 0
M  V30 4269 O 409.579 -1.90797 0.00987576 0
M  V30 4270 C 406.719 -3.41763 0.478747 0
M  V30 4271 C 405.832 -4.00833 1.6111 0
M  V30 4272 C 404.967 -5.19511 1.10825 0
M  V30 4273 C 404.006 -5.70639 2.21445 0
M  V30 4274 N 403.143 -6.80589 1.72461 0
M  V30 4275 H 407.983 -2.32804 1.86028 0
M  V30 4276 H 405.52 -1.14179 0.927441 0
M  V30 4277 H 407.478 -4.16736 0.196745 0
M  V30 4278 H 406.108 -3.20166 -0.411493 0
M  V30 4279 H 405.16 -3.23066 2.00829 0
M  V30 4280 H 406.472 -4.34794 2.4445 0
M  V30 4281 H 405.626 -6.01645 0.781533 0
M  V30 4282 H 404.365 -4.87086 0.244606 0
M  V30 4283 H 403.37 -4.87116 2.54947 0
M  V30 4284 H 404.595 -6.05102 3.08267 0
M  V30 4285 H 402.541 -6.50016 0.884056 0
M  V30 4286 H 402.458 -7.13681 2.49389 0
M  V30 4287 H 403.726 -7.66317 1.42755 0
M  V30 4288 N 407.956 -0.998596 -1.21925 0
M  V30 4289 C 409.184 -0.696286 -1.94832 0
M  V30 4290 C 409.599 0.740032 -1.73692 0
M  V30 4291 O 408.956 1.5 -1.03953 0
M  V30 4292 C 409.007 -0.999833 -3.47398 0
M  V30 4293 O 408.728 -2.37972 -3.67833 0
M  V30 4294 C 410.229 -0.716025 -4.37479 0
M  V30 4295 H 407.449 -0.257111 -0.619786 0
M  V30 4296 H 409.993 -1.33491 -1.54921 0
M  V30 4297 H 408.148 -0.406918 -3.85257 0
M  V30 4298 H 408.562 -2.48338 -4.61983 0
M  V30 4299 H 410.036 -0.978642 -5.43256 0
M  V30 4300 H 410.513 0.349968 -4.37803 0
M  V30 4301 H 411.119 -1.29025 -4.05256 0
M  V30 4302 N 409.434 1.37368 -0.772513 0
M  V30 4303 C 410.397 2.28601 -0.165541 0
M  V30 4304 C 411.397 1.48062 0.627238 0
M  V30 4305 O 412.587 1.68268 0.450715 0
M  V30 4306 C 409.719 3.32023 0.772897 0
M  V30 4307 H 410.912 2.83787 -0.969787 0
M  V30 4308 H 408.465 1.46647 -0.540775 0
M  V30 4309 H 409.2 2.81962 1.60212 0
M  V30 4310 H 408.985 3.91555 0.206585 0
M  V30 4311 H 410.475 4.00197 1.19298 0
M  V30 4312 N 410.912 0.523116 1.48665 0
M  V30 4313 C 411.875 -0.232592 2.28017 0
M  V30 4314 C 412.875 -0.874021 1.34972 0
M  V30 4315 O 414.065 -0.735132 1.57929 0
M  V30 4316 C 411.197 -1.33586 3.13636 0
M  V30 4317 H 412.39 0.464008 2.96289 0
M  V30 4318 H 409.943 0.278816 1.53793 0
M  V30 4319 H 410.678 -2.06593 2.4998 0
M  V30 4320 H 410.463 -0.881125 3.82071 0
M  V30 4321 H 411.953 -1.86759 3.73511 0
M  V30 4322 N 412.39 -1.55475 0.257931 0
M  V30 4323 C 413.3 -2.2549 -0.647425 0
M  V30 4324 C 414.316 -1.2748 -1.18427 0
M  V30 4325 O 415.492 -1.6038 -1.2182 0
M  V30 4326 C 412.557 -2.94916 -1.82278 0
M  V30 4327 C 411.618 -4.08363 -1.32432 0
M  V30 4328 C 410.851 -4.74469 -2.44366 0
M  V30 4329 O 411.074 -4.39701 -3.63344 0
M  V30 4330 O 410.008 -5.62763 -2.13497 0
M  V30 4331 H 413.834 -3.03593 -0.0807707 0
M  V30 4332 H 411.419 -1.49377 0.0259962 0
M  V30 4333 H 413.301 -3.38606 -2.50846 0
M  V30 4334 H 411.976 -2.19744 -2.37685 0
M  V30 4335 H 410.883 -3.69166 -0.605605 0
M  V30 4336 H 412.216 -4.85385 -0.816211 0
M  V30 4337 N 413.868 0.0150385 -1.57593 0
M  V30 4338 C 415.093 0.718067 -1.94573 0
M  V30 4339 C 415.518 1.6734 -0.859005 0
M  V30 4340 O 414.876 1.80362 0.184147 0
M  V30 4341 C 414.924 1.43918 -3.30636 0
M  V30 4342 O 414.028 2.55299 -3.23876 0
M  V30 4343 H 413.369 0.192125 -0.635597 0
M  V30 4344 H 415.899 -0.0336708 -2.04572 0
M  V30 4345 H 415.909 1.80598 -3.65853 0
M  V30 4346 H 414.584 0.738619 -4.09289 0
M  V30 4347 H 413.161 2.21058 -3.00312 0
M  V30 4348 N 415.346 1.54954 0.287554 0
M  V30 4349 C 416.593 1.74873 1.02106 0
M  V30 4350 C 416.921 0.541829 1.86801 0
M  V30 4351 O 416.176 -0.475992 1.89823 0
M  V30 4352 C 416.475 2.99833 1.94512 0
M  V30 4353 C 416.141 4.33029 1.25686 0
M  V30 4354 C 414.803 4.69233 1.06649 0
M  V30 4355 C 417.155 5.15542 0.765913 0
M  V30 4356 C 414.483 5.85518 0.372222 0
M  V30 4357 C 416.835 6.32542 0.0853101 0
M  V30 4358 C 415.499 6.67398 -0.1169 0
M  V30 4359 H 414.769 0.639906 0.373632 0
M  V30 4360 H 417.416 1.89219 0.294665 0
M  V30 4361 H 415.721 2.80325 2.73725 0
M  V30 4362 H 417.418 3.1244 2.51361 0
M  V30 4363 H 414.008 4.04564 1.41512 0
M  V30 4364 H 418.192 4.88059 0.90066 0
M  V30 4365 H 413.448 6.11057 0.204695 0
M  V30 4366 H 417.622 6.95741 -0.302936 0
M  V30 4367 H 415.249 7.57357 -0.656859 0
M  V30 4368 N 416.824 -0.551391 1.4764 0
M  V30 4369 C 417.771 -1.65796 1.60563 0
M  V30 4370 C 418.741 -1.59932 0.448428 0
M  V30 4371 O 419.926 -1.78679 0.669222 0
M  V30 4372 C 417.066 -3.04108 1.63133 0
M  V30 4373 C 416.179 -3.20365 2.89811 0
M  V30 4374 C 415.314 -4.49109 2.8368 0
M  V30 4375 C 414.353 -4.58819 4.05156 0
M  V30 4376 N 413.49 -5.78926 3.97227 0
M  V30 4377 H 418.33 -1.54088 2.5507 0
M  V30 4378 H 415.867 -0.75052 1.26513 0
M  V30 4379 H 417.825 -3.84207 1.62606 0
M  V30 4380 H 416.455 -3.14637 0.721341 0
M  V30 4381 H 415.507 -2.33659 3.00179 0
M  V30 4382 H 416.819 -3.23402 3.79753 0
M  V30 4383 H 415.973 -5.37475 2.81434 0
M  V30 4384 H 414.712 -4.4856 1.91431 0
M  V30 4385 H 413.717 -3.68864 4.077 0
M  V30 4386 H 414.942 -4.61124 4.98539 0
M  V30 4387 H 412.888 -5.79314 3.07785 0
M  V30 4388 H 412.805 -5.83367 4.80853 0
M  V30 4389 H 414.073 -6.69637 3.99007 0
M  V30 4390 N 418.302 -1.35869 -0.798587 0
M  V30 4391 C 419.55 -1.29332 -1.55298 0
M  V30 4392 C 419.871 0.129729 -1.94568 0
M  V30 4393 O 419.141 1.06796 -1.6423 0
M  V30 4394 H 417.721 -0.475737 -0.57592 0
M  V30 4395 H 420.383 -1.70062 -0.952093 0
M  V30 4396 H 419.479 -1.91458 -2.46476 0
M  V30 4397 N 419.78 1.02168 -1.19998 0
M  V30 4398 C 420.727 2.10601 -0.944228 0
M  V30 4399 C 421.697 1.65639 0.123664 0
M  V30 4400 O 422.882 1.9079 -0.0199941 0
M  V30 4401 C 420.022 3.41504 -0.496865 0
M  V30 4402 C 419.135 3.99973 -1.63234 0
M  V30 4403 C 418.27 5.18915 -1.13579 0
M  V30 4404 C 417.309 5.69456 -2.24468 0
M  V30 4405 N 416.446 6.79665 -1.76068 0
M  V30 4406 H 421.286 2.31814 -1.8726 0
M  V30 4407 H 418.823 1.13686 -0.933483 0
M  V30 4408 H 420.781 4.16626 -0.218843 0
M  V30 4409 H 419.411 3.2038 0.394508 0
M  V30 4410 H 418.463 3.21997 -2.0254 0
M  V30 4411 H 419.775 4.33492 -2.46752 0
M  V30 4412 H 418.929 6.01222 -0.813429 0
M  V30 4413 H 417.668 4.8695 -0.270434 0
M  V30 4414 H 416.673 4.85757 -2.57526 0
M  V30 4415 H 417.898 6.03459 -3.11472 0
M  V30 4416 H 415.844 6.49538 -0.918516 0
M  V30 4417 H 415.761 7.12349 -2.5317 0
M  V30 4418 H 417.029 7.65549 -1.46817 0
M  V30 4419 N 421.258 1.00505 1.21394 0
M  V30 4420 C 422.507 0.683159 1.89778 0
M  V30 4421 C 422.82 -0.789471 1.7896 0
M  V30 4422 O 424.026 -1.22344 2.42372 0
M  V30 4423 C 422.482 1.17146 3.40301 0
M  V30 4424 C 422.09 2.67017 3.5973 0
M  V30 4425 C 423.834 0.924461 4.14311 0
M  V30 4426 C 421.741 3.09387 5.04017 0
M  V30 4427 H 420.671 0.25183 0.710702 0
M  V30 4428 H 423.322 1.21622 1.37406 0
M  V30 4429 H 421.704 0.566451 3.91928 0
M  V30 4430 H 422.878 3.32968 3.18542 0
M  V30 4431 H 421.193 2.89732 2.99073 0
M  V30 4432 H 423.79 1.21658 5.20676 0
M  V30 4433 H 424.133 -0.139286 4.16067 0
M  V30 4434 H 424.666 1.49226 3.6875 0
M  V30 4435 H 421.405 4.14989 5.07409 0
M  V30 4436 H 420.925 2.48149 5.46061 0
M  V30 4437 H 422.604 3.01371 5.72525 0
M  V30 4438 N 422.737 -1.36956 0.779787 0
M  V30 4439 C 423.667 -2.32761 0.185651 0
M  V30 4440 C 424.648 -1.56177 -0.673989 0
M  V30 4441 O 425.833 -1.84378 -0.609797 0
M  V30 4442 C 422.963 -3.40418 -0.687964 0
M  V30 4443 C 421.917 -4.27941 0.0710102 0
M  V30 4444 C 421.243 -5.26681 -0.922573 0
M  V30 4445 C 422.543 -5.07006 1.25467 0
M  V30 4446 H 424.237 -2.82698 0.986008 0
M  V30 4447 H 421.783 -1.3592 0.475592 0
M  V30 4448 H 423.736 -4.06423 -1.11348 0
M  V30 4449 H 422.46 -2.89025 -1.52093 0
M  V30 4450 H 421.119 -3.63478 0.47739 0
M  V30 4451 H 420.767 -4.71565 -1.7503 0
M  V30 4452 H 420.467 -5.86103 -0.419237 0
M  V30 4453 H 421.991 -5.9556 -1.34686 0
M  V30 4454 H 423.405 -5.66105 0.905401 0
M  V30 4455 H 421.802 -5.75793 1.69063 0
M  V30 4456 H 422.872 -4.3921 2.05481 0
M  V30 4457 N 424.215 -0.530993 -1.48385 0
M  V30 4458 C 425.462 0.0027373 -2.025 0
M  V30 4459 C 425.79 1.34186 -1.40799 0
M  V30 4460 O 425.045 1.88 -0.543544 0
M  V30 4461 C 425.344 0.172742 -3.56982 0
M  V30 4462 C 425.01 -1.09215 -4.37473 0
M  V30 4463 C 423.672 -1.43881 -4.59186 0
M  V30 4464 C 426.024 -1.93153 -4.84088 0
M  V30 4465 C 423.352 -2.62381 -5.2476 0
M  V30 4466 C 425.704 -3.10833 -5.50968 0
M  V30 4467 C 424.368 -3.45843 -5.70919 0
M  V30 4468 H 423.638 0.00100165 -0.740999 0
M  V30 4469 H 426.285 -0.697219 -1.78357 0
M  V30 4470 H 424.59 0.955473 -3.79971 0
M  V30 4471 H 426.287 0.600642 -3.96476 0
M  V30 4472 H 422.877 -0.812177 -4.20834 0
M  V30 4473 H 427.061 -1.67683 -4.67115 0
M  V30 4474 H 422.317 -2.89707 -5.38405 0
M  V30 4475 H 426.491 -3.7618 -5.86056 0
M  V30 4476 H 424.118 -4.37764 -6.21503 0
M  V30 4477 N 425.693 1.55336 -0.266172 0
M  V30 4478 C 426.942 1.98574 0.353749 0
M  V30 4479 C 427.255 1.15789 1.57646 0
M  V30 4480 O 428.461 1.49129 2.26876 0
M  V30 4481 C 426.917 3.53403 0.680747 0
M  V30 4482 C 426.525 4.44953 -0.52165 0
M  V30 4483 C 428.269 4.05251 1.26379 0
M  V30 4484 C 426.176 5.91156 -0.169736 0
M  V30 4485 H 425.106 0.741643 0.135949 0
M  V30 4486 H 427.757 1.79743 -0.369421 0
M  V30 4487 H 426.139 3.68001 1.46257 0
M  V30 4488 H 427.313 4.42121 -1.29869 0
M  V30 4489 H 425.628 4.03691 -1.02093 0
M  V30 4490 H 428.225 5.12021 1.54074 0
M  V30 4491 H 428.568 3.53749 2.19471 0
M  V30 4492 H 429.101 3.94057 0.544447 0
M  V30 4493 H 425.84 6.46736 -1.0683 0
M  V30 4494 H 425.36 5.97079 0.570717 0
M  V30 4495 H 427.039 6.4655 0.241245 0
M  V30 4496 N 427.171 -0.0066808 1.57599 0
M  V30 4497 C 428.418 -0.69292 1.90276 0
M  V30 4498 C 428.746 -1.74148 0.866192 0
M  V30 4499 O 428.001 -1.95268 -0.129933 0
M  V30 4500 C 428.3 -1.37939 3.29708 0
M  V30 4501 C 427.966 -0.464679 4.48499 0
M  V30 4502 C 426.628 -0.212809 4.80729 0
M  V30 4503 C 428.98 0.16551 5.20937 0
M  V30 4504 C 426.308 0.677653 5.82773 0
M  V30 4505 C 428.66 1.04381 6.23929 0
M  V30 4506 C 427.324 1.30492 6.54621 0
M  V30 4507 H 426.594 -0.253558 0.696268 0
M  V30 4508 H 429.241 0.0474123 1.91441 0
M  V30 4509 H 427.546 -2.1936 3.24636 0
M  V30 4510 H 429.243 -1.9163 3.52249 0
M  V30 4511 H 425.833 -0.671153 4.23313 0
M  V30 4512 H 430.017 -0.0160756 4.96297 0
M  V30 4513 H 425.273 0.88803 6.04917 0
M  V30 4514 H 429.447 1.53851 6.79193 0
M  V30 4515 H 427.074 1.99662 7.33512 0
M  V30 4516 N 428.649 -1.55105 -0.279332 0
M  V30 4517 C 429.898 -1.74618 -1.00952 0
M  V30 4518 C 430.211 -0.551096 -1.87676 0
M  V30 4519 O 431.417 -0.628507 -2.64125 0
M  V30 4520 C 429.873 -3.09025 -1.84476 0
M  V30 4521 C 429.481 -4.36081 -1.0265 0
M  V30 4522 C 431.225 -3.37891 -2.56963 0
M  V30 4523 C 429.132 -5.6153 -1.85576 0
M  V30 4524 H 428.062 -0.650868 -0.38064 0
M  V30 4525 H 430.713 -1.81569 -0.265475 0
M  V30 4526 H 429.095 -2.96095 -2.62952 0
M  V30 4527 H 430.269 -4.59909 -0.286354 0
M  V30 4528 H 428.584 -4.14312 -0.416464 0
M  V30 4529 H 431.181 -4.28822 -3.19399 0
M  V30 4530 H 431.524 -2.57737 -3.26921 0
M  V30 4531 H 432.057 -3.5189 -1.85522 0
M  V30 4532 H 428.796 -6.44413 -1.2005 0
M  V30 4533 H 428.316 -5.41854 -2.57204 0
M  V30 4534 H 429.995 -5.99594 -2.43096 0
M  V30 4535 N 430.127 0.543554 -1.4793 0
M  V30 4536 C 431.404 1.30458 -1.4574 0
M  V30 4537 C 431.784 2.1048 -0.161692 0
M  V30 4538 O 431.132 2.11831 0.856734 0
M  V30 4539 C 431.342 2.19754 -2.71126 0
M  V30 4540 C 432.69 2.80334 -3.18901 0
M  V30 4541 O 433.714 2.30049 -2.71948 0
M  V30 4542 O 432.573 3.71766 -4.00565 0
M  V30 4543 H 429.667 0.588117 -0.581418 0
M  V30 4544 H 432.213 0.561328 -1.60147 0
M  V30 4545 H 430.985 1.60316 -3.56952 0
M  V30 4546 H 430.608 3.01351 -2.59371 0
M  V30 4547 N 431.605 1.3629 0.791371 0
M  V30 4548 C 432.83 1.33726 1.58531 0
M  V30 4549 C 433.255 -0.0794933 1.87932 0
M  V30 4550 O 432.613 -1.05087 1.47738 0
M  V30 4551 C 432.661 2.16425 2.88431 0
M  V30 4552 O 431.765 1.5554 3.81944 0
M  V30 4553 H 431.106 0.457793 0.480959 0
M  V30 4554 H 433.636 1.79547 0.981031 0
M  V30 4555 H 433.646 2.28933 3.37718 0
M  V30 4556 H 432.321 3.19415 2.66359 0
M  V30 4557 H 430.898 1.51961 3.40532 0
M  V30 4558 N 433.083 -1.0153 1.20538 0
M  V30 4559 C 434.36 -1.72327 0.925343 0
M  V30 4560 C 434.74 -2.03383 -0.565547 0
M  V30 4561 O 434.088 -1.69934 -1.52757 0
M  V30 4562 C 434.298 -2.9902 1.79967 0
M  V30 4563 C 435.646 -3.72258 2.04228 0
M  V30 4564 O 436.67 -3.08979 1.77231 0
M  V30 4565 O 435.529 -4.86053 2.4983 0
M  V30 4566 H 432.623 -0.751099 0.346092 0
M  V30 4567 H 435.169 -1.07366 1.31417 0
M  V30 4568 H 433.941 -2.72402 2.80915 0
M  V30 4569 H 433.564 -3.71721 1.41099 0
M  V30 4570 N 434.561 -1.01147 -1.20859 0
M  V30 4571 C 435.511 -0.548247 -2.2131 0
M  V30 4572 C 436.495 0.393646 -1.5601 0
M  V30 4573 O 437.687 0.217445 -1.75659 0
M  V30 4574 C 434.816 0.117252 -3.431 0
M  V30 4575 C 433.902 -0.846043 -4.15575 0
M  V30 4576 N 434.293 -2.00149 -4.64515 0
M  V30 4577 C 432.591 -0.665783 -4.41003 0
M  V30 4578 C 433.292 -2.60764 -5.19978 0
M  V30 4579 N 432.268 -1.88868 -5.09735 0
M  V30 4580 H 436.07 -1.42921 -2.56809 0
M  V30 4581 H 433.584 -0.876142 -1.36739 0
M  V30 4582 H 435.581 0.46662 -4.1428 0
M  V30 4583 H 434.241 0.994115 -3.09107 0
M  V30 4584 H 435.252 -2.38162 -4.5989 0
M  V30 4585 H 431.929 0.163456 -4.1718 0
M  V30 4586 H 433.319 -3.58519 -5.68255 0
M  V30 4587 N 436.039 1.36541 -0.78704 0
M  V30 4588 C 437.267 2.03561 -0.370199 0
M  V30 4589 C 437.682 1.59347 1.01263 0
M  V30 4590 O 437.039 0.781781 1.64907 0
M  V30 4591 C 437.09 3.59033 -0.421614 0
M  V30 4592 O 436.811 4.01634 -1.7499 0
M  V30 4593 C 438.312 4.433 0.00489763 0
M  V30 4594 H 435.532 0.653346 -0.152904 0
M  V30 4595 H 438.076 1.74566 -1.06522 0
M  V30 4596 H 436.231 3.86746 0.224971 0
M  V30 4597 H 436.645 4.96217 -1.69909 0
M  V30 4598 H 438.119 5.51939 -0.0822184 0
M  V30 4599 H 438.596 4.26285 1.05723 0
M  V30 4600 H 439.202 4.20843 -0.614085 0
M  V30 4601 N 437.518 0.538854 1.48102 0
M  V30 4602 C 438.795 -0.0568108 1.95517 0
M  V30 4603 C 439.175 -1.50408 1.48124 0
M  V30 4604 O 438.523 -2.17133 0.711727 0
M  V30 4605 C 438.733 0.0696262 3.48931 0
M  V30 4606 C 440.081 -0.0851202 4.24515 0
M  V30 4607 O 441.105 -0.0037347 3.562 0
M  V30 4608 O 439.964 -0.257025 5.45895 0
M  V30 4609 H 437.058 -0.0743695 0.823649 0
M  V30 4610 H 439.604 0.604081 1.58584 0
M  V30 4611 H 438.376 1.07744 3.76174 0
M  V30 4612 H 437.999 -0.629714 3.92582 0
M  V30 4613 N 438.996 -1.55193 0.274407 0
M  V30 4614 C 439.944 -2.23924 -0.629362 0
M  V30 4615 C 440.938 -1.23602 -1.1584 0
M  V30 4616 O 442.144 -1.41535 -1.11211 0
M  V30 4617 H 438.519 -0.718637 -0.221507 0
M  V30 4618 H 440.49 -2.98388 -0.0268322 0
M  V30 4619 C 439.239 -2.97329 -1.80252 0
M  V30 4620 H 438.562 -3.74313 -1.40462 0
M  V30 4621 H 440.002 -3.48743 -2.41152 0
M  V30 4622 C 438.461 -2.0276 -2.69054 0
M  V30 4623 O 438.991 -1.57836 -3.69392 0
M  V30 4624 N 437.197 -1.69275 -2.36208 0
M  V30 4625 H 436.744 -2.06004 -1.54661 0
M  V30 4626 H 436.702 -1.06271 -2.95895 0
M  V30 4627 N 440.474 -0.00167713 -1.576 0
M  V30 4628 C 441.406 1.0174 -2.05382 0
M  V30 4629 C 442.419 1.30595 -0.972052 0
M  V30 4630 O 443.608 1.27542 -1.24882 0
M  V30 4631 C 440.708 2.35174 -2.44022 0
M  V30 4632 C 439.881 2.25234 -3.74951 0
M  V30 4633 C 438.94 3.4137 -4.00441 0
M  V30 4634 O 437.966 3.19483 -4.71083 0
M  V30 4635 N 439.168 4.64275 -3.48467 0
M  V30 4636 H 441.933 0.609902 -2.93428 0
M  V30 4637 H 439.494 0.185672 -1.60832 0
M  V30 4638 H 441.486 3.11643 -2.58187 0
M  V30 4639 H 440.056 2.67659 -1.61485 0
M  V30 4640 H 439.276 1.33664 -3.70847 0
M  V30 4641 H 440.564 2.15767 -4.60784 0
M  V30 4642 H 439.962 4.84955 -2.91264 0
M  V30 4643 H 438.519 5.38005 -3.67959 0
M  V30 4644 N 441.952 1.55251 0.271103 0
M  V30 4645 C 443.368 1.47133 0.618393 0
M  V30 4646 C 443.568 0.686994 1.89427 0
M  V30 4647 O 442.624 0.206609 2.51653 0
M  V30 4648 C 443.937 2.91361 0.743593 0
M  V30 4649 C 445.485 3.01587 0.837522 0
M  V30 4650 C 445.96 4.47073 0.994483 0
M  V30 4651 N 447.451 4.50909 1.05996 0
M  V30 4652 C 448.186 5.60698 1.20024 0
M  V30 4653 N 447.682 6.80348 1.30759 0
M  V30 4654 N 449.475 5.48444 1.23149 0
M  V30 4655 H 441.626 2.04698 -0.566784 0
M  V30 4656 H 443.889 0.928319 -0.192165 0
M  V30 4657 H 443.595 3.51483 -0.123493 0
M  V30 4658 H 443.469 3.40484 1.62328 0
M  V30 4659 H 445.856 2.4156 1.69507 0
M  V30 4660 H 445.937 2.55713 -0.0668086 0
M  V30 4661 H 445.581 5.07703 0.141582 0
M  V30 4662 H 445.511 4.90605 1.91349 0
M  V30 4663 H 448.002 3.6472 0.989316 0
M  V30 4664 H 448.315 7.59772 1.41303 0
M  V30 4665 H 446.66 6.83156 1.27761 0
M  V30 4666 H 449.851 4.53907 1.14394 0
M  V30 4667 H 450.024 6.34049 1.33738 0
M  V30 4668 N 443.43 -0.535701 1.48216 0
M  V30 4669 C 444.679 -1.28828 1.55197 0
M  V30 4670 C 444.992 -1.94263 0.228278 0
M  V30 4671 O 446.198 -2.70927 0.176278 0
M  V30 4672 C 444.654 -2.33727 2.73678 0
M  V30 4673 C 444.262 -1.74386 4.12666 0
M  V30 4674 C 446.006 -3.1003 2.89968 0
M  V30 4675 C 443.913 -2.77192 5.22416 0
M  V30 4676 H 442.843 -0.484484 0.577747 0
M  V30 4677 H 445.494 -0.56646 1.74538 0
M  V30 4678 H 443.876 -3.08919 2.4776 0
M  V30 4679 H 445.05 -1.05421 4.48579 0
M  V30 4680 H 443.365 -1.10595 4.01445 0
M  V30 4681 H 445.962 -3.86842 3.6913 0
M  V30 4682 H 446.305 -3.65542 1.9921 0
M  V30 4683 H 446.838 -2.41952 3.15759 0
M  V30 4684 H 443.577 -2.26507 6.15122 0
M  V30 4685 H 443.097 -3.44502 4.90998 0
M  V30 4686 H 444.776 -3.40285 5.50286 0
M  V30 4687 N 444.908 -1.36708 -0.784132 0
M  V30 4688 C 445.838 -1.34153 -1.91116 0
M  V30 4689 C 446.819 -0.212121 -1.68772 0
M  V30 4690 O 448.004 -0.410581 -1.8981 0
M  V30 4691 C 445.134 -1.13535 -3.28218 0
M  V30 4692 C 444.088 -2.23356 -3.65097 0
M  V30 4693 C 443.414 -1.87875 -5.00607 0
M  V30 4694 C 444.714 -3.65473 -3.73131 0
M  V30 4695 H 446.408 -2.28459 -1.93512 0
M  V30 4696 H 443.954 -1.09973 -0.929618 0
M  V30 4697 H 445.907 -1.10381 -4.06687 0
M  V30 4698 H 444.631 -0.156804 -3.26223 0
M  V30 4699 H 443.29 -2.25645 -2.88929 0
M  V30 4700 H 442.938 -0.885814 -4.95139 0
M  V30 4701 H 442.638 -2.61406 -5.26252 0
M  V30 4702 H 444.162 -1.86286 -5.81489 0
M  V30 4703 H 445.576 -3.65382 -4.41779 0
M  V30 4704 H 443.973 -4.37953 -4.10265 0
M  V30 4705 H 445.043 -3.99995 -2.74102 0
M  V30 4706 N 446.386 1.0089 -1.21074 0
M  V30 4707 C 447.296 2.13039 -0.982425 0
M  V30 4708 C 448.312 1.73881 0.0642161 0
M  V30 4709 O 449.488 2.01012 -0.12496 0
M  V30 4710 C 446.553 3.42377 -0.545803 0
M  V30 4711 C 445.614 3.95731 -1.6642 0
M  V30 4712 C 444.847 5.18896 -1.24832 0
M  V30 4713 O 445.07 5.70273 -0.120265 0
M  V30 4714 O 444.004 5.65597 -2.05873 0
M  V30 4715 H 447.83 2.35175 -1.92163 0
M  V30 4716 H 445.415 1.1142 -0.995285 0
M  V30 4717 H 447.297 4.20244 -0.311912 0
M  V30 4718 H 445.972 3.21639 0.364727 0
M  V30 4719 H 444.879 3.19108 -1.95246 0
M  V30 4720 H 446.212 4.20872 -2.55201 0
M  V30 4721 N 447.864 1.01787 1.20321 0
M  V30 4722 C 449.111 0.707936 1.89722 0
M  V30 4723 C 449.439 -0.762535 1.78929 0
M  V30 4724 O 448.694 -1.56977 1.16861 0
M  V30 4725 C 448.993 1.09076 3.40349 0
M  V30 4726 C 448.659 2.55765 3.71342 0
M  V30 4727 C 447.321 2.95845 3.79511 0
M  V30 4728 C 449.673 3.50723 3.85542 0
M  V30 4729 C 447.001 4.2982 3.99339 0
M  V30 4730 C 449.353 4.84387 4.06881 0
M  V30 4731 C 448.017 5.24172 4.1328 0
M  V30 4732 H 447.287 0.259052 0.694243 0
M  V30 4733 H 449.934 1.27868 1.42555 0
M  V30 4734 H 448.239 0.438453 3.89339 0
M  V30 4735 H 449.936 0.828636 3.92345 0
M  V30 4736 H 446.526 2.2371 3.65584 0
M  V30 4737 H 450.71 3.20916 3.78585 0
M  V30 4738 H 445.966 4.60196 4.02529 0
M  V30 4739 H 450.14 5.57891 4.1681 0
M  V30 4740 H 447.767 6.27997 4.28396 0
M  V30 4741 N 449.342 -1.36122 0.79427 0
M  V30 4742 C 450.589 -1.99111 0.368905 0
M  V30 4743 C 450.917 -1.63032 -1.0607 0
M  V30 4744 O 450.172 -0.879303 -1.74833 0
M  V30 4745 C 450.471 -3.5409 0.48527 0
M  V30 4746 C 450.137 -4.10003 1.87638 0
M  V30 4747 C 448.799 -4.24986 2.257 0
M  V30 4748 C 451.151 -4.40423 2.78706 0
M  V30 4749 C 448.479 -4.67701 3.54221 0
M  V30 4750 C 450.831 -4.84573 4.0666 0
M  V30 4751 C 449.495 -4.97761 4.44737 0
M  V30 4752 H 448.765 -0.7286 0.134992 0
M  V30 4753 H 451.412 -1.62534 1.01267 0
M  V30 4754 H 449.717 -3.91052 -0.241984 0
M  V30 4755 H 451.414 -4.00766 0.137109 0
M  V30 4756 H 448.004 -3.98784 1.57064 0
M  V30 4757 H 452.188 -4.28412 2.50553 0
M  V30 4758 H 447.444 -4.761 3.83587 0
M  V30 4759 H 451.618 -5.07074 4.77336 0
M  V30 4760 H 449.245 -5.30618 5.44379 0
M  V30 4761 N 450.82 -0.546701 -1.47814 0
M  V30 4762 C 452.068 -0.0187037 -2.02091 0
M  V30 4763 C 452.389 1.33168 -1.42447 0
M  V30 4764 O 451.659 1.86619 -0.595839 0
M  V30 4765 H 450.239 -0.00392531 -0.74699 0
M  V30 4766 H 452.901 -0.714327 -1.81338 0
M  V30 4767 H 451.997 0.0772219 -3.12004 0
M  V30 4768 N 452.299 1.55045 -0.282633 0
M  V30 4769 C 453.229 2.2579 0.595066 0
M  V30 4770 C 454.21 1.25074 1.15284 0
M  V30 4771 O 455.395 1.5381 1.18559 0
M  V30 4772 C 452.525 2.98472 1.77572 0
M  V30 4773 C 451.479 4.0618 1.34914 0
M  V30 4774 C 450.805 4.66477 2.6135 0
M  V30 4775 C 452.105 5.1996 0.493821 0
M  V30 4776 H 453.799 2.994 0.00505653 0
M  V30 4777 H 451.345 1.44 0.000992001 0
M  V30 4778 H 453.298 3.46677 2.39568 0
M  V30 4779 H 452.022 2.2241 2.39168 0
M  V30 4780 H 450.681 3.58797 0.752338 0
M  V30 4781 H 450.329 3.87074 3.2122 0
M  V30 4782 H 450.029 5.39207 2.33516 0
M  V30 4783 H 451.553 5.17435 3.24181 0
M  V30 4784 H 452.967 5.64172 1.01898 0
M  V30 4785 H 451.364 5.99299 0.310047 0
M  V30 4786 H 452.434 4.82462 -0.485593 0
M  V30 4787 N 453.777 0.010035 1.57597 0
M  V30 4788 C 454.724 -0.978122 2.09049 0
M  V30 4789 C 455.694 -1.33509 0.988159 0
M  V30 4790 O 456.879 -1.43172 1.26121 0
M  V30 4791 C 454.019 -2.26158 2.60666 0
M  V30 4792 C 453.132 -1.96275 3.84838 0
M  V30 4793 C 452.267 -3.18776 4.24918 0
M  V30 4794 C 451.306 -2.84625 5.41899 0
M  V30 4795 N 450.443 -3.99693 5.77226 0
M  V30 4796 H 455.283 -0.532431 2.93205 0
M  V30 4797 H 452.82 -0.251234 1.44939 0
M  V30 4798 H 454.778 -3.01202 2.88675 0
M  V30 4799 H 453.408 -2.68378 1.79369 0
M  V30 4800 H 452.46 -1.11555 3.63675 0
M  V30 4801 H 453.772 -1.67111 4.69974 0
M  V30 4802 H 452.926 -4.02157 4.54262 0
M  V30 4803 H 451.665 -3.51087 3.38511 0
M  V30 4804 H 450.67 -1.99653 5.12268 0
M  V30 4805 H 451.895 -2.53551 6.29991 0
M  V30 4806 H 449.841 -4.31882 4.93776 0
M  V30 4807 H 449.758 -3.74087 6.56959 0
M  V30 4808 H 451.026 -4.83834 6.11167 0
M  V30 4809 N 455.255 -1.55392 -0.262866 0
M  V30 4810 C 456.202 -1.88966 -1.32516 0
M  V30 4811 C 457.172 -0.742187 -1.48596 0
M  V30 4812 O 458.357 -0.99439 -1.62839 0
M  V30 4813 C 455.497 -2.17592 -2.67858 0
M  V30 4814 C 454.61 -3.45061 -2.59917 0
M  V30 4815 C 453.745 -3.63336 -3.87505 0
M  V30 4816 C 452.784 -4.84462 -3.74116 0
M  V30 4817 N 451.921 -4.99342 -4.93561 0
M  V30 4818 H 456.761 -2.79566 -1.03184 0
M  V30 4819 H 454.298 -1.38404 -0.498285 0
M  V30 4820 H 456.256 -2.3219 -3.46617 0
M  V30 4821 H 454.886 -1.30215 -2.95371 0
M  V30 4822 H 453.938 -3.38881 -1.72812 0
M  V30 4823 H 455.25 -4.3396 -2.45926 0
M  V30 4824 H 454.404 -3.77807 -4.74707 0
M  V30 4825 H 453.143 -2.72641 -4.04374 0
M  V30 4826 H 452.148 -4.69985 -2.85297 0
M  V30 4827 H 453.373 -5.76603 -3.58757 0
M  V30 4828 H 451.319 -4.1158 -5.10821 0
M  V30 4829 H 451.236 -5.82303 -4.82141 0
M  V30 4830 H 452.504 -5.18208 -5.82306 0
M  V30 4831 N 456.733 0.527833 -1.48498 0
M  V30 4832 C 457.643 1.65907 -1.65867 0
M  V30 4833 C 458.659 1.6537 -0.541192 0
M  V30 4834 O 459.835 1.84282 -0.812534 0
M  V30 4835 C 456.9 3.02364 -1.69637 0
M  V30 4836 C 455.961 3.1374 -2.93028 0
M  V30 4837 C 455.194 4.43688 -2.96609 0
M  V30 4838 O 455.417 5.30913 -2.08538 0
M  V30 4839 O 454.351 4.59475 -3.88802 0
M  V30 4840 H 458.177 1.5419 -2.61647 0
M  V30 4841 H 455.762 0.701163 -1.31924 0
M  V30 4842 H 457.644 3.83515 -1.74625 0
M  V30 4843 H 456.319 3.14401 -0.770312 0
M  V30 4844 H 455.226 2.31877 -2.93571 0
M  V30 4845 H 456.559 3.06621 -3.85026 0
M  V30 4846 N 458.211 1.37122 0.776871 0
M  V30 4847 C 459.121 1.34651 1.9211 0
M  V30 4848 C 460.137 0.246824 1.7224 0
M  V30 4849 O 461.313 0.48134 1.95563 0
M  V30 4850 C 458.378 1.14748 3.2716 0
M  V30 4851 C 457.439 2.34308 3.5972 0
M  V30 4852 C 456.672 2.15345 4.88326 0
M  V30 4853 O 456.895 1.13507 5.58992 0
M  V30 4854 O 455.829 3.03414 5.1983 0
M  V30 4855 H 459.655 2.31013 1.97146 0
M  V30 4856 H 457.24 1.17799 0.918901 0
M  V30 4857 H 459.122 1.05616 4.0795 0
M  V30 4858 H 457.797 0.214562 3.22988 0
M  V30 4859 H 456.704 2.49011 2.79185 0
M  V30 4860 H 458.037 3.26149 3.68629 0
M  V30 4861 N 459.689 -1.00246 1.21608 0
M  V30 4862 C 460.929 -1.75589 1.04631 0
M  V30 4863 C 461.293 -1.87513 -0.412648 0
M  V30 4864 O 462.494 -2.59444 -0.703003 0
M  V30 4865 C 460.765 -3.12893 1.72722 0
M  V30 4866 S 462.324 -4.04095 1.71034 0
M  V30 4867 H 459.142 -0.604133 0.374892 0
M  V30 4868 H 461.744 -1.19927 1.54395 0
M  V30 4869 H 460.448 -3.0185 2.78055 0
M  V30 4870 H 459.979 -3.73628 1.23149 0
M  V30 4871 H 461.994 -4.9045 0.753231 0
M  V30 4872 N 461.167 -1.02423 -1.1978 0
M  V30 4873 C 462.578 -0.748389 -1.71044 0
M  V30 4874 C 462.929 0.732398 -1.82017 0
M  V30 4875 O 462.054 1.57116 -1.48807 0
M  V30 4876 C 462.649 -1.35187 -3.1066 0
M  V30 4877 C 461.208 -1.12472 -3.59203 0
M  V30 4878 C 460.355 -1.45283 -2.36195 0
M  V30 4879 H 463.306 -1.19275 -1.04686 0
M  V30 4880 H 463.327 -0.746408 -3.73107 0
M  V30 4881 H 462.839 -2.4296 -3.02642 0
M  V30 4882 H 460.94 -0.0649983 -3.72543 0
M  V30 4883 H 461.053 -1.81016 -4.43588 0
M  V30 4884 H 459.417 -0.872034 -2.39307 0
M  V30 4885 H 460.2 -2.54129 -2.30811 0
M  V30 4886 N 462.645 1.35699 -0.801477 0
M  V30 4887 C 463.608 2.28199 -0.213994 0
M  V30 4888 C 464.608 1.49359 0.595691 0
M  V30 4889 O 465.798 1.69186 0.414921 0
M  V30 4890 C 462.93 3.33587 0.702297 0
M  V30 4891 H 464.123 2.81666 -1.02976 0
M  V30 4892 H 461.676 1.45467 -0.571759 0
M  V30 4893 H 462.411 2.85297 1.54195 0
M  V30 4894 H 462.196 3.91906 0.123484 0
M  V30 4895 H 463.686 4.02638 1.10783 0
M  V30 4896 N 464.123 0.554532 1.47522 0
M  V30 4897 C 465.369 0.0295227 2.02779 0
M  V30 4898 C 465.702 -1.31582 1.42828 0
M  V30 4899 O 464.977 -1.85561 0.582872 0
M  V30 4900 C 465.26 -0.0664057 3.60039 0
M  V30 4901 C 465.113 1.30585 4.30427 0
M  V30 4902 C 466.432 -0.781162 4.33112 0
M  V30 4903 H 463.551 0.0122027 0.736899 0
M  V30 4904 H 466.193 0.716305 1.7598 0
M  V30 4905 H 464.343 -0.651307 3.83002 0
M  V30 4906 H 466.015 1.93374 4.18813 0
M  V30 4907 H 464.258 1.88125 3.90886 0
M  V30 4908 H 464.929 1.19147 5.38988 0
M  V30 4909 H 467.405 -0.284565 4.15126 0
M  V30 4910 H 466.281 -0.817237 5.42782 0
M  V30 4911 H 466.542 -1.83672 4.0214 0
M  V30 4912 N 465.601 -1.54893 0.290851 0
M  V30 4913 C 467.017 -1.59476 -0.0628432 0
M  V30 4914 C 467.217 -1.30795 -1.5328 0
M  V30 4915 O 466.273 -1.07644 -2.28406 0
M  V30 4916 C 467.586 -2.98928 0.325962 0
M  V30 4917 C 469.134 -3.11799 0.273882 0
M  V30 4918 C 469.609 -4.53544 0.637359 0
M  V30 4919 N 471.1 -4.59433 0.589507 0
M  V30 4920 C 471.835 -5.67164 0.84335 0
M  V30 4921 N 471.331 -6.82975 1.16263 0
M  V30 4922 N 473.124 -5.56786 0.771091 0
M  V30 4923 H 465.275 -1.71798 1.24896 0
M  V30 4924 H 467.538 -0.801879 0.505663 0
M  V30 4925 H 467.244 -3.24805 1.34887 0
M  V30 4926 H 467.118 -3.75793 -0.325441 0
M  V30 4927 H 469.505 -2.85677 -0.739765 0
M  V30 4928 H 469.586 -2.37112 0.959766 0
M  V30 4929 H 469.23 -4.80394 1.64877 0
M  V30 4930 H 469.16 -5.26553 -0.0704866 0
M  V30 4931 H 471.651 -3.76245 0.353252 0
M  V30 4932 H 471.964 -7.61048 1.34257 0
M  V30 4933 H 470.309 -6.84552 1.20057 0
M  V30 4934 H 473.5 -4.65187 0.521383 0
M  V30 4935 H 473.673 -6.40664 0.972295 0
M  V30 4936 N 467.08 -0.0183926 -1.57589 0
M  V30 4937 C 468.01 0.965596 -2.12599 0
M  V30 4938 C 468.991 1.34641 -1.0395 0
M  V30 4939 O 470.176 1.42693 -1.31729 0
M  V30 4940 C 467.306 2.25149 -2.64434 0
M  V30 4941 C 466.26 2.01175 -3.77773 0
M  V30 4942 C 465.586 3.35937 -4.15994 0
M  V30 4943 C 466.886 1.35953 -5.04296 0
M  V30 4944 H 468.58 0.507504 -2.95067 0
M  V30 4945 H 466.126 0.242671 -1.41941 0
M  V30 4946 H 468.079 2.94357 -3.01549 0
M  V30 4947 H 466.803 2.73105 -1.79112 0
M  V30 4948 H 465.462 1.34388 -3.4108 0
M  V30 4949 H 465.11 3.81631 -3.27669 0
M  V30 4950 H 464.81 3.20705 -4.92364 0
M  V30 4951 H 466.334 4.0643 -4.55683 0
M  V30 4952 H 467.748 1.95144 -5.39065 0
M  V30 4953 H 466.145 1.31152 -5.85593 0
M  V30 4954 H 467.215 0.331071 -4.83768 0
M  V30 4955 N 468.558 1.5553 0.254621 0
M  V30 4956 C 469.807 1.76202 0.981612 0
M  V30 4957 C 470.12 0.580883 1.86776 0
M  V30 4958 O 471.326 0.670448 2.63092 0
M  V30 4959 C 469.782 3.11921 1.79537 0
M  V30 4960 C 469.39 4.37659 0.956991 0
M  V30 4961 C 471.134 3.41936 2.51555 0
M  V30 4962 C 469.041 5.64411 1.76619 0
M  V30 4963 H 467.971 0.656841 0.370237 0
M  V30 4964 H 470.622 1.81969 0.236556 0
M  V30 4965 H 469.004 3.00241 2.58208 0
M  V30 4966 H 470.178 4.60307 0.21315 0
M  V30 4967 H 468.493 4.14922 0.350497 0
M  V30 4968 H 471.09 4.33849 3.12536 0
M  V30 4969 H 471.433 2.62905 3.22779 0
M  V30 4970 H 471.966 3.54797 1.799 0
M  V30 4971 H 468.705 6.46241 1.09783 0
M  V30 4972 H 468.225 5.45877 2.48551 0
M  V30 4973 H 469.904 6.03386 2.33527 0
M  V30 4974 N 470.036 -0.519951 1.48776 0
M  V30 4975 C 471.264 -1.29971 1.60982 0
M  V30 4976 C 471.679 -1.86803 0.273885 0
M  V30 4977 O 471.036 -1.66904 -0.738193 0
M  V30 4978 C 471.087 -2.44346 2.66415 0
M  V30 4979 O 470.808 -1.89855 3.94825 0
M  V30 4980 C 472.309 -3.36014 2.89153 0
M  V30 4981 H 469.529 -0.394891 0.542496 0
M  V30 4982 H 472.073 -0.626214 1.94676 0
M  V30 4983 H 470.228 -3.07562 2.35552 0
M  V30 4984 H 470.642 -2.64798 4.5275 0
M  V30 4985 H 472.116 -4.12593 3.66703 0
M  V30 4986 H 472.593 -3.91859 1.98351 0
M  V30 4987 H 473.199 -2.78582 3.21359 0
M  V30 4988 N 471.514 -1.37532 -0.769588 0
M  V30 4989 C 472.444 -1.36172 -1.89682 0
M  V30 4990 C 473.425 -0.23001 -1.68538 0
M  V30 4991 O 474.61 -0.43069 -1.89364 0
M  V30 4992 C 471.74 -1.1701 -3.26995 0
M  V30 4993 C 470.694 -2.27216 -3.62708 0
M  V30 4994 C 470.02 -1.93174 -4.98586 0
M  V30 4995 C 471.32 -3.6941 -3.69234 0
M  V30 4996 H 473.014 -2.30499 -1.91078 0
M  V30 4997 H 470.56 -1.10953 -0.917902 0
M  V30 4998 H 472.513 -1.14688 -4.05493 0
M  V30 4999 H 471.237 -0.191395 -3.26039 0
M  V30 5000 H 469.896 -2.28697 -2.86519 0
M  V30 5001 H 469.544 -0.938281 -4.94171 0
M  V30 5002 H 469.244 -2.66973 -5.23449 0
M  V30 5003 H 470.768 -1.92443 -5.79481 0
M  V30 5004 H 472.182 -3.70047 -4.37879 0
M  V30 5005 H 470.579 -4.4228 -4.05597 0
M  V30 5006 H 471.649 -4.0288 -2.69844 0
M  V30 5007 N 472.992 0.995999 -1.22138 0
M  V30 5008 C 473.902 2.11985 -1.00496 0
M  V30 5009 C 474.918 1.7394 0.0457701 0
M  V30 5010 O 476.094 2.00868 -0.146273 0
M  V30 5011 C 473.159 3.41779 -0.582086 0
M  V30 5012 C 472.22 3.93943 -1.70608 0
M  V30 5013 C 471.453 5.17542 -1.30328 0
M  V30 5014 O 471.676 5.70114 -0.180743 0
M  V30 5015 O 470.61 5.63382 -2.11861 0
M  V30 5016 H 474.436 2.33123 -1.94647 0
M  V30 5017 H 472.021 1.10358 -1.00705 0
M  V30 5018 H 473.903 4.1989 -0.356467 0
M  V30 5019 H 472.578 3.22007 0.330592 0
M  V30 5020 H 471.485 3.17019 -1.98619 0
M  V30 5021 H 472.818 4.18141 -2.59651 0
M  V30 5022 N 474.47 1.03057 1.19235 0
M  V30 5023 C 475.38 0.622922 2.26179 0
M  V30 5024 C 476.396 -0.346113 1.70523 0
M  V30 5025 O 477.572 -0.203572 2.00369 0
M  V30 5026 C 474.637 -0.0182063 3.46695 0
M  V30 5027 C 473.698 0.998546 4.17526 0
M  V30 5028 C 472.931 0.387917 5.32288 0
M  V30 5029 O 473.154 -0.808668 5.64639 0
M  V30 5030 O 472.088 1.1116 5.91546 0
M  V30 5031 H 475.914 1.51363 2.63292 0
M  V30 5032 H 473.499 0.800856 1.26122 0
M  V30 5033 H 475.381 -0.375606 4.19723 0
M  V30 5034 H 474.056 -0.882895 3.11427 0
M  V30 5035 H 472.963 1.40756 3.4661 0
M  V30 5036 H 474.296 1.83366 4.56769 0
M  V30 5037 N 475.948 -1.35272 0.808662 0
M  V30 5038 C 476.858 -2.33546 0.222079 0
M  V30 5039 C 477.874 -1.6196 -0.636011 0
M  V30 5040 O 479.05 -1.93822 -0.547274 0
M  V30 5041 C 476.115 -3.41148 -0.61795 0
M  V30 5042 C 475.176 -4.28507 0.260875 0
M  V30 5043 C 474.409 -5.3097 -0.539156 0
M  V30 5044 O 474.632 -5.42123 -1.77367 0
M  V30 5045 O 473.566 -6.01858 0.0710526 0
M  V30 5046 H 477.392 -2.85515 1.03512 0
M  V30 5047 H 474.977 -1.38079 0.570495 0
M  V30 5048 H 476.859 -4.06889 -1.09634 0
M  V30 5049 H 475.534 -2.91447 -1.40855 0
M  V30 5050 H 474.441 -3.6574 0.786451 0
M  V30 5051 H 475.774 -4.81611 1.01547 0
M  V30 5052 N 477.426 -0.562348 -1.47226 0
M  V30 5053 C 478.359 0.230405 -2.27034 0
M  V30 5054 C 479.337 0.915609 -1.3437 0
M  V30 5055 O 480.521 0.933573 -1.63758 0
M  V30 5056 C 477.648 1.32874 -3.11548 0
M  V30 5057 C 476.694 0.751552 -4.19826 0
M  V30 5058 S 477.527 -0.405848 -5.3396 0
M  V30 5059 C 478.683 0.694186 -6.22038 0
M  V30 5060 H 478.916 -0.446811 -2.93923 0
M  V30 5061 H 476.449 -0.348781 -1.50409 0
M  V30 5062 H 478.407 1.95773 -3.60809 0
M  V30 5063 H 477.068 1.97782 -2.44011 0
M  V30 5064 H 476.261 1.57651 -4.78709 0
M  V30 5065 H 475.863 0.198645 -3.73472 0
M  V30 5066 H 478.155 1.58501 -6.58698 0
M  V30 5067 H 479.098 0.142592 -7.07956 0
M  V30 5068 H 479.506 0.989169 -5.55766 0
M  V30 5069 N 478.904 1.54736 -0.299062 0
M  V30 5070 C 480.132 2.04512 0.313447 0
M  V30 5071 C 480.547 1.17643 1.47667 0
M  V30 5072 O 479.904 0.20164 1.81383 0
M  V30 5073 C 479.955 3.53171 0.771542 0
M  V30 5074 O 479.676 4.36736 -0.345379 0
M  V30 5075 C 481.177 4.18936 1.4494 0
M  V30 5076 H 478.397 0.667507 0.0683784 0
M  V30 5077 H 480.941 1.99752 -0.438129 0
M  V30 5078 H 479.096 3.58298 1.47314 0
M  V30 5079 H 479.51 5.24499 0.0109219 0
M  V30 5080 H 480.984 5.24482 1.72111 0
M  V30 5081 H 481.461 3.68554 2.38883 0
M  V30 5082 H 482.067 4.17879 0.791028 0
M  V30 5083 N 480.382 0.0267497 1.57577 0
M  V30 5084 C 481.329 -0.955894 2.10075 0
M  V30 5085 C 482.299 -1.32453 1.00226 0
M  V30 5086 O 483.484 -1.41826 1.27632 0
M  V30 5087 C 480.624 -2.2338 2.6305 0
M  V30 5088 C 479.737 -1.92183 3.86898 0
M  V30 5089 C 478.872 -3.14251 4.28275 0
M  V30 5090 C 477.911 -2.78862 5.44888 0
M  V30 5091 N 477.048 -3.93548 5.81433 0
M  V30 5092 H 481.888 -0.501303 2.93753 0
M  V30 5093 H 479.425 -0.235847 1.45197 0
M  V30 5094 H 481.383 -2.98124 2.91853 0
M  V30 5095 H 480.013 -2.6646 1.82205 0
M  V30 5096 H 479.065 -1.07692 3.64838 0
M  V30 5097 H 480.377 -1.62117 4.7172 0
M  V30 5098 H 479.531 -3.97317 4.58502 0
M  V30 5099 H 478.27 -3.47476 3.42215 0
M  V30 5100 H 477.275 -1.94208 5.14357 0
M  V30 5101 H 478.5 -2.46855 6.32645 0
M  V30 5102 H 476.446 -4.2662 4.98328 0
M  V30 5103 H 476.363 -3.67098 6.6089 0
M  V30 5104 H 477.631 -4.77325 6.16264 0
M  V30 5105 N 481.861 -1.55662 -0.24637 0
M  V30 5106 C 483.091 -1.81312 -0.990438 0
M  V30 5107 C 483.499 -0.600234 -1.79426 0
M  V30 5108 O 482.842 0.440537 -1.78339 0
M  V30 5109 C 482.904 -3.0032 -1.97607 0
M  V30 5110 C 482.568 -4.36322 -1.35912 0
M  V30 5111 C 483.565 -5.14295 -0.761348 0
M  V30 5112 C 481.25 -4.83019 -1.37833 0
M  V30 5113 C 483.244 -6.37114 -0.190998 0
M  V30 5114 C 480.931 -6.05786 -0.804128 0
M  V30 5115 C 481.929 -6.82672 -0.211489 0
M  V30 5116 O 481.617 -8.03121 0.353845 0
M  V30 5117 H 481.349 -0.607233 -0.297058 0
M  V30 5118 H 483.903 -2.0356 -0.274351 0
M  V30 5119 H 482.133 -2.73829 -2.73047 0
M  V30 5120 H 483.822 -3.13057 -2.58361 0
M  V30 5121 H 484.588 -4.79337 -0.739013 0
M  V30 5122 H 480.467 -4.23165 -1.829 0
M  V30 5123 H 484.011 -6.97069 0.272206 0
M  V30 5124 H 479.908 -6.40222 -0.823792 0
M  V30 5125 H 480.676 -8.18131 0.245761 0
M  V30 5126 N 483.339 0.512053 -1.4905 0
M  V30 5127 C 484.286 1.6148 -1.64902 0
M  V30 5128 C 485.256 1.58687 -0.490673 0
M  V30 5129 O 486.441 1.76842 -0.71636 0
M  V30 5130 C 483.581 2.99676 -1.71139 0
M  V30 5131 C 482.694 3.12568 -2.98203 0
M  V30 5132 C 481.829 4.4143 -2.95487 0
M  V30 5133 C 480.868 4.47916 -4.17179 0
M  V30 5134 N 480.005 5.68191 -4.12437 0
M  V30 5135 H 484.845 1.47271 -2.59066 0
M  V30 5136 H 482.382 0.716713 -1.28459 0
M  V30 5137 H 484.34 3.79761 -1.72736 0
M  V30 5138 H 482.97 3.12614 -0.804508 0
M  V30 5139 H 482.022 2.25618 -3.06269 0
M  V30 5140 H 483.334 3.1322 -3.88194 0
M  V30 5141 H 482.488 5.29825 -2.95585 0
M  V30 5142 H 481.227 4.43326 -2.03256 0
M  V30 5143 H 480.232 3.57925 -4.17337 0
M  V30 5144 H 481.457 4.47744 -5.1059 0
M  V30 5145 H 479.403 5.7095 -3.23036 0
M  V30 5146 H 479.32 5.70413 -4.96151 0
M  V30 5147 H 480.588 6.58823 -4.16621 0
M  V30 5148 N 484.817 1.37938 0.762283 0
M  V30 5149 C 486.228 1.30094 1.33912 0
M  V30 5150 C 486.579 -0.0472026 1.96143 0
M  V30 5151 O 485.704 -0.94917 1.94473 0
M  V30 5152 C 486.299 2.35592 2.43478 0
M  V30 5153 C 484.858 2.31353 2.96905 0
M  V30 5154 C 484.005 2.18919 1.70205 0
M  V30 5155 H 486.956 1.48423 0.561816 0
M  V30 5156 H 486.977 2.00806 3.23199 0
M  V30 5157 H 486.489 3.33701 1.98155 0
M  V30 5158 H 484.59 1.36799 3.46579 0
M  V30 5159 H 484.703 3.25147 3.51875 0
M  V30 5160 H 483.067 1.65624 1.93496 0
M  V30 5161 H 483.85 3.18956 1.26973 0
M  V30 5162 N 486.295 -0.989507 1.22664 0
M  V30 5163 C 487.205 -2.11449 1.01619 0
M  V30 5164 C 488.221 -1.73962 -0.036545 0
M  V30 5165 O 489.397 -2.00788 0.156924 0
M  V30 5166 C 486.462 -3.41465 0.600204 0
M  V30 5167 C 485.523 -3.93033 1.72695 0
M  V30 5168 C 484.756 -5.16844 1.33071 0
M  V30 5169 O 484.979 -5.7001 0.210975 0
M  V30 5170 O 483.913 -5.6225 2.14845 0
M  V30 5171 H 487.739 -2.32088 1.9588 0
M  V30 5172 H 485.324 -1.09823 1.01289 0
M  V30 5173 H 487.206 -4.19695 0.37873 0
M  V30 5174 H 485.881 -3.22178 -0.313511 0
M  V30 5175 H 484.788 -3.15961 2.00298 0
M  V30 5176 H 486.121 -4.16758 2.61865 0
M  V30 5177 N 487.773 -1.03688 -1.18687 0
M  V30 5178 C 488.998 -0.757819 -1.93059 0
M  V30 5179 C 489.423 0.678353 -1.75442 0
M  V30 5180 O 488.781 1.46938 -1.06203 0
M  V30 5181 C 488.829 -1.12423 -3.42627 0
M  V30 5182 O 487.933 -0.247505 -4.11657 0
M  V30 5183 H 487.274 -0.279245 -0.602427 0
M  V30 5184 H 489.804 -1.3857 -1.5053 0
M  V30 5185 H 489.814 -1.08454 -3.93322 0
M  V30 5186 H 488.489 -2.17049 -3.54771 0
M  V30 5187 H 487.066 -0.34649 -3.71287 0
M  V30 5188 N 489.251 1.34841 -0.815825 0
M  V30 5189 C 490.161 2.33425 -0.234462 0
M  V30 5190 C 491.177 1.62295 0.627413 0
M  V30 5191 O 492.353 1.94109 0.536987 0
M  V30 5192 C 489.418 3.41471 0.599849 0
M  V30 5193 C 488.479 4.28362 -0.283596 0
M  V30 5194 C 487.712 5.31248 0.51099 0
M  V30 5195 O 487.935 5.43056 1.7449 0
M  V30 5196 O 486.869 6.01812 -0.10297 0
M  V30 5197 H 490.695 2.84962 -1.05024 0
M  V30 5198 H 488.28 1.37774 -0.577809 0
M  V30 5199 H 490.162 4.07464 1.07475 0
M  V30 5200 H 488.837 2.9219 1.39308 0
M  V30 5201 H 487.744 3.65318 -0.805836 0
M  V30 5202 H 489.077 4.81066 -1.041 0
M  V30 5203 N 490.729 0.570148 1.46925 0
M  V30 5204 C 491.639 -0.173061 2.33961 0
M  V30 5205 C 492.655 -0.898825 1.48987 0
M  V30 5206 O 493.831 -0.864825 1.81887 0
M  V30 5207 C 490.896 -1.18177 3.25937 0
M  V30 5208 C 489.957 -0.462041 4.26806 0
M  V30 5209 C 489.19 -1.4227 5.14388 0
M  V30 5210 O 489.413 -2.65842 5.04662 0
M  V30 5211 O 488.347 -0.940127 5.94513 0
M  V30 5212 H 492.173 0.541216 2.98839 0
M  V30 5213 H 489.758 0.330647 1.45695 0
M  V30 5214 H 491.64 -1.76372 3.82715 0
M  V30 5215 H 490.315 -1.87774 2.63671 0
M  V30 5216 H 489.222 0.161429 3.73752 0
M  V30 5217 H 490.555 0.192719 4.91823 0
M  V30 5218 N 492.207 -1.54576 0.307264 0
M  V30 5219 C 493.137 -2.26708 -0.55907 0
M  V30 5220 C 494.118 -1.26893 -1.1328 0
M  V30 5221 O 495.303 -1.55677 -1.16097 0
M  V30 5222 C 492.433 -3.01259 -1.72801 0
M  V30 5223 C 491.387 -4.08275 -1.28435 0
M  V30 5224 C 490.713 -4.70575 -2.53895 0
M  V30 5225 C 492.013 -5.2068 -0.411038 0
M  V30 5226 H 493.707 -2.9937 0.042576 0
M  V30 5227 H 491.253 -1.43983 0.0219173 0
M  V30 5228 H 493.206 -3.50444 -2.34023 0
M  V30 5229 H 491.93 -2.26187 -2.356 0
M  V30 5230 H 490.589 -3.59949 -0.695161 0
M  V30 5231 H 490.237 -3.92136 -3.15021 0
M  V30 5232 H 489.937 -5.42854 -2.24908 0
M  V30 5233 H 491.461 -5.22527 -3.15908 0
M  V30 5234 H 492.875 -5.65721 -0.929097 0
M  V30 5235 H 491.272 -5.99716 -0.214664 0
M  V30 5236 H 492.342 -4.81629 0.562287 0
M  V30 5237 N 493.685 -0.035106 -1.57561 0
M  V30 5238 C 494.913 0.652258 -1.9635 0
M  V30 5239 C 495.328 1.65317 -0.911897 0
M  V30 5240 O 494.685 1.82194 0.105657 0
M  V30 5241 C 494.736 1.35337 -3.35211 0
M  V30 5242 O 494.457 0.392548 -4.36338 0
M  V30 5243 C 495.958 2.13199 -3.88666 0
M  V30 5244 H 493.178 0.179444 -0.646561 0
M  V30 5245 H 495.722 -0.0966459 -2.04271 0
M  V30 5246 H 493.877 2.05362 -3.28489 0
M  V30 5247 H 494.291 0.891097 -5.16875 0
M  V30 5248 H 495.765 2.577 -4.88154 0
M  V30 5249 H 496.242 2.97353 -3.23231 0
M  V30 5250 H 496.848 1.48118 -3.98674 0
M  V30 5251 N 495.163 1.55791 0.238111 0
M  V30 5252 C 496.126 1.90239 1.27835 0
M  V30 5253 C 497.126 0.779552 1.4064 0
M  V30 5254 O 498.316 1.04747 1.3919 0
M  V30 5255 C 495.448 2.13859 2.65475 0
M  V30 5256 H 496.641 2.83262 0.985034 0
M  V30 5257 H 494.194 1.48818 0.477799 0
M  V30 5258 H 494.929 1.23334 2.99932 0
M  V30 5259 H 494.714 2.95643 2.57561 0
M  V30 5260 H 496.204 2.41664 3.40571 0
M  V30 5261 N 496.642 -0.504142 1.49319 0
M  V30 5262 C 497.552 -1.63248 1.68486 0
M  V30 5263 C 498.568 -1.64488 0.567432 0
M  V30 5264 O 499.744 -1.82966 0.841749 0
M  V30 5265 C 496.809 -2.99627 1.74426 0
M  V30 5266 C 495.87 -3.09039 2.97982 0
M  V30 5267 C 495.103 -4.38913 3.0363 0
M  V30 5268 O 495.326 -5.27528 2.16958 0
M  V30 5269 O 494.26 -4.53231 3.96062 0
M  V30 5270 H 498.086 -1.50008 2.64067 0
M  V30 5271 H 495.671 -0.680086 1.33023 0
M  V30 5272 H 497.553 -3.80689 1.80705 0
M  V30 5273 H 496.228 -3.13136 0.820233 0
M  V30 5274 H 495.135 -2.27177 2.97223 0
M  V30 5275 H 496.468 -3.00456 3.89855 0
M  V30 5276 N 498.12 -1.38341 -0.754957 0
M  V30 5277 C 499.536 -1.19508 -1.05783 0
M  V30 5278 C 499.736 -0.0428005 -2.01455 0
M  V30 5279 O 498.792 0.611861 -2.44975 0
M  V30 5280 C 500.105 -2.52091 -1.63923 0
M  V30 5281 C 501.653 -2.58762 -1.76101 0
M  V30 5282 C 502.128 -3.91517 -2.37652 0
M  V30 5283 N 503.619 -3.93049 -2.45085 0
M  V30 5284 C 504.354 -4.9253 -2.93602 0
M  V30 5285 N 503.85 -6.02408 -3.42165 0
M  V30 5286 N 505.643 -4.79921 -2.92629 0
M  V30 5287 H 497.794 -2.1206 -0.120056 0
M  V30 5288 H 500.057 -0.94089 -0.11589 0
M  V30 5289 H 499.763 -3.36858 -1.01093 0
M  V30 5290 H 499.637 -2.70388 -2.63003 0
M  V30 5291 H 502.024 -1.74391 -2.38058 0
M  V30 5292 H 502.105 -2.44333 -0.757294 0
M  V30 5293 H 501.749 -4.76309 -1.76329 0
M  V30 5294 H 501.679 -4.03256 -3.38662 0
M  V30 5295 H 504.17 -3.13685 -2.10736 0
M  V30 5296 H 504.483 -6.74248 -3.77637 0
M  V30 5297 H 502.828 -6.0603 -3.40225 0
M  V30 5298 H 506.019 -3.93194 -2.54001 0
M  V30 5299 H 506.192 -5.57601 -3.30128 0
M  V30 5300 N 499.598 0.982988 -1.23187 0
M  V30 5301 C 500.847 1.71817 -1.05649 0
M  V30 5302 C 501.16 1.91315 0.407176 0
M  V30 5303 O 502.366 2.62256 0.702436 0
M  V30 5304 C 500.822 3.09188 -1.84203 0
M  V30 5305 C 500.43 2.97586 -3.34882 0
M  V30 5306 C 502.174 3.86684 -1.75146 0
M  V30 5307 C 500.081 4.30173 -4.05839 0
M  V30 5308 H 499.011 0.644258 -0.391724 0
M  V30 5309 H 501.662 1.09659 -1.4713 0
M  V30 5310 H 500.044 3.72087 -1.35527 0
M  V30 5311 H 501.218 2.43793 -3.91026 0
M  V30 5312 H 499.533 2.33567 -3.44725 0
M  V30 5313 H 502.13 4.84836 -2.25473 0
M  V30 5314 H 502.473 4.10136 -0.713737 0
M  V30 5315 H 503.006 3.30482 -2.21419 0
M  V30 5316 H 499.745 4.11918 -5.09906 0
M  V30 5317 H 499.265 4.83841 -3.54482 0
M  V30 5318 H 500.944 4.98873 -4.11989 0
M  V30 5319 N 501.076 1.04316 1.18135 0
M  V30 5320 C 502.304 0.768117 1.92113 0
M  V30 5321 C 502.719 -0.675057 1.76319 0
M  V30 5322 O 502.076 -1.46038 1.09449 0
M  V30 5323 C 502.127 1.12808 3.43448 0
M  V30 5324 O 501.848 2.5146 3.58747 0
M  V30 5325 C 503.349 0.8779 4.3452 0
M  V30 5326 H 500.569 0.279937 0.609817 0
M  V30 5327 H 503.113 1.39149 1.49859 0
M  V30 5328 H 501.268 0.549623 3.83481 0
M  V30 5329 H 501.682 2.65313 4.52448 0
M  V30 5330 H 503.156 1.17959 5.39249 0
M  V30 5331 H 503.633 -0.187239 4.38801 0
M  V30 5332 H 504.239 1.43977 4.00188 0
M  V30 5333 N 502.554 -1.34406 0.822964 0
M  V30 5334 C 503.464 -2.33298 0.246838 0
M  V30 5335 C 504.48 -1.62625 -0.618797 0
M  V30 5336 O 505.656 -1.94391 -0.526685 0
M  V30 5337 C 502.721 -3.41785 -0.581731 0
M  V30 5338 C 501.782 -4.28206 0.306309 0
M  V30 5339 C 501.015 -5.31512 -0.48281 0
M  V30 5340 O 501.238 -5.43973 -1.71607 0
M  V30 5341 O 500.172 -6.01749 0.134884 0
M  V30 5342 H 503.998 -2.84401 1.06534 0
M  V30 5343 H 501.583 -1.37466 0.585108 0
M  V30 5344 H 503.465 -4.08028 -1.05313 0
M  V30 5345 H 502.14 -2.92925 -1.37756 0
M  V30 5346 H 501.047 -3.64885 0.825199 0
M  V30 5347 H 502.38 -4.80507 1.06649 0
M  V30 5348 N 504.032 -0.577932 -1.46621 0
M  V30 5349 C 505.279 -0.0616879 -2.02406 0
M  V30 5350 C 505.607 1.29638 -1.44997 0
M  V30 5351 O 504.862 1.86176 -0.60308 0
M  V30 5352 C 505.161 0.0590832 -3.57351 0
M  V30 5353 C 504.827 -1.23077 -4.33777 0
M  V30 5354 C 503.489 -1.58416 -4.54376 0
M  V30 5355 C 505.841 -2.08457 -4.77698 0
M  V30 5356 C 503.169 -2.78943 -5.16147 0
M  V30 5357 C 505.521 -3.28204 -5.408 0
M  V30 5358 C 504.185 -3.63832 -5.59627 0
M  V30 5359 H 503.455 -0.0225732 -0.740656 0
M  V30 5360 H 506.102 -0.753609 -1.76048 0
M  V30 5361 H 504.407 0.834104 -3.82818 0
M  V30 5362 H 506.104 0.474202 -3.98186 0
M  V30 5363 H 502.694 -0.945652 -4.18038 0
M  V30 5364 H 506.878 -1.82459 -4.61544 0
M  V30 5365 H 502.134 -3.06689 -5.28916 0
M  V30 5366 H 506.308 -3.94634 -5.73792 0
M  V30 5367 H 503.935 -4.57315 -6.07262 0
M  V30 5368 N 505.51 1.54411 -0.315457 0
M  V30 5369 C 506.75 2.02329 0.290236 0
M  V30 5370 C 507.114 1.19878 1.49977 0
M  V30 5371 O 508.315 1.57562 2.17779 0
M  V30 5372 C 506.586 3.51912 0.623937 0
M  V30 5373 S 508.145 4.21775 1.21044 0
M  V30 5374 H 504.963 0.705499 0.0882739 0
M  V30 5375 H 507.565 1.90328 -0.446694 0
M  V30 5376 H 506.269 4.09546 -0.264624 0
M  V30 5377 H 505.8 3.67977 1.39128 0
M  V30 5378 H 507.815 4.28757 2.49764 0
M  V30 5379 N 506.988 0.0434614 1.5754 0
M  V30 5380 C 507.938 -0.943039 2.07583 0
M  V30 5381 C 508.922 -1.27662 0.979342 0
M  V30 5382 O 510.114 -1.26034 1.24276 0
M  V30 5383 C 507.243 -2.22056 2.61813 0
M  V30 5384 C 506.329 -1.91471 3.78417 0
M  V30 5385 N 506.72 -1.31214 4.88484 0
M  V30 5386 C 505.018 -2.21384 3.87176 0
M  V30 5387 C 505.719 -1.18084 5.69588 0
M  V30 5388 N 504.695 -1.68116 5.16951 0
M  V30 5389 H 508.497 -0.472354 2.90079 0
M  V30 5390 H 506.011 -0.161191 1.61598 0
M  V30 5391 H 508.008 -2.93618 2.95963 0
M  V30 5392 H 506.668 -2.69738 1.80752 0
M  V30 5393 H 507.679 -0.985318 5.08441 0
M  V30 5394 H 504.356 -2.7164 3.17046 0
M  V30 5395 H 505.746 -0.713684 6.68099 0
M  V30 5396 N 508.466 -1.55915 -0.229846 0
M  V30 5397 C 509.882 -1.48721 -0.579166 0
M  V30 5398 C 510.082 -0.736976 -1.87539 0
M  V30 5399 O 509.138 -0.273258 -2.51017 0
M  V30 5400 C 510.451 -2.9323 -0.666082 0
M  V30 5401 C 511.999 -3.03701 -0.757267 0
M  V30 5402 C 512.474 -4.49552 -0.8756 0
M  V30 5403 N 513.965 -4.53561 -0.940035 0
M  V30 5404 C 514.7 -5.63683 -1.05116 0
M  V30 5405 N 514.196 -6.83576 -1.12675 0
M  V30 5406 N 515.989 -5.51516 -1.08565 0
M  V30 5407 H 508.14 -2.03123 0.620857 0
M  V30 5408 H 510.403 -0.922898 0.21671 0
M  V30 5409 H 510.109 -3.51032 0.21664 0
M  V30 5410 H 509.983 -3.44668 -1.53243 0
M  V30 5411 H 512.37 -2.45969 -1.63043 0
M  V30 5412 H 512.451 -2.55446 0.134583 0
M  V30 5413 H 512.095 -5.079 -0.00692351 0
M  V30 5414 H 512.025 -4.95506 -1.78274 0
M  V30 5415 H 514.516 -3.67215 -0.892269 0
M  V30 5416 H 514.829 -7.63251 -1.21109 0
M  V30 5417 H 513.174 -6.86303 -1.09603 0
M  V30 5418 H 516.365 -4.5678 -1.02319 0
M  V30 5419 H 516.538 -6.37372 -1.1688 0
M  V30 5420 N 509.944 0.496216 -1.49584 0
M  V30 5421 C 511.191 1.25003 -1.59312 0
M  V30 5422 C 511.519 1.92445 -0.28198 0
M  V30 5423 O 510.774 1.81557 0.730452 0
M  V30 5424 C 511.073 2.3359 -2.705 0
M  V30 5425 C 510.739 1.83574 -4.11839 0
M  V30 5426 C 509.401 1.69653 -4.50302 0
M  V30 5427 C 511.753 1.46193 -5.00277 0
M  V30 5428 C 509.081 1.16736 -5.74969 0
M  V30 5429 C 511.433 0.947265 -6.25468 0
M  V30 5430 C 510.097 0.794485 -6.62755 0
M  V30 5431 H 509.367 0.45742 -0.582965 0
M  V30 5432 H 512.014 0.549996 -1.83432 0
M  V30 5433 H 510.319 3.09401 -2.40371 0
M  V30 5434 H 512.016 2.91627 -2.75235 0
M  V30 5435 H 508.606 1.9537 -3.81482 0
M  V30 5436 H 512.79 1.55793 -4.71214 0
M  V30 5437 H 508.046 1.03623 -6.02555 0
M  V30 5438 H 512.22 0.648846 -6.93371 0
M  V30 5439 H 509.847 0.382271 -7.59238 0
M  V30 5440 N 511.423 1.38739 0.74761 0
M  V30 5441 C 512.353 1.39173 1.87492 0
M  V30 5442 C 513.334 0.256794 1.6815 0
M  V30 5443 O 514.519 0.460762 1.88655 0
M  V30 5444 C 511.649 1.22197 3.25093 0
M  V30 5445 C 510.603 2.32957 3.59047 0
M  V30 5446 C 509.929 2.01082 4.95449 0
M  V30 5447 C 511.229 3.75237 3.6331 0
M  V30 5448 H 512.923 2.3351 1.87386 0
M  V30 5449 H 510.469 1.12399 0.900134 0
M  V30 5450 H 512.422 1.21124 4.03617 0
M  V30 5451 H 511.146 0.243241 3.25693 0
M  V30 5452 H 509.805 2.33226 2.82845 0
M  V30 5453 H 509.453 1.01678 4.92616 0
M  V30 5454 H 509.153 2.75267 5.19136 0
M  V30 5455 H 510.677 2.01638 5.76346 0
M  V30 5456 H 512.091 3.76966 4.31937 0
M  V30 5457 H 510.488 4.48677 3.98509 0
M  V30 5458 H 511.558 4.07122 2.634 0
M  V30 5459 N 512.901 -0.976442 1.23707 0
M  V30 5460 C 513.811 -2.10359 1.03856 0
M  V30 5461 C 514.827 -1.73991 -0.0180919 0
M  V30 5462 O 516.003 -2.0061 0.178211 0
M  V30 5463 C 513.068 -3.40809 0.636387 0
M  V30 5464 C 512.129 -3.91179 1.76854 0
M  V30 5465 C 511.362 -5.15404 1.38546 0
M  V30 5466 O 511.585 -5.69754 0.27142 0
M  V30 5467 O 510.519 -5.5994 2.20797 0
M  V30 5468 H 514.345 -2.29997 1.98331 0
M  V30 5469 H 511.93 -1.08742 1.02448 0
M  V30 5470 H 513.812 -4.19269 0.423223 0
M  V30 5471 H 512.487 -3.22493 -0.279322 0
M  V30 5472 H 511.394 -3.13819 2.03638 0
M  V30 5473 H 512.727 -4.13958 2.6627 0
M  V30 5474 N 514.379 -1.04941 -1.1758 0
M  V30 5475 C 515.627 -0.756492 -1.87408 0
M  V30 5476 C 515.948 0.718478 -1.81281 0
M  V30 5477 O 515.218 1.519 -1.23706 0
M  V30 5478 H 513.798 -0.276841 -0.693807 0
M  V30 5479 H 516.46 -1.32803 -1.42652 0
M  V30 5480 H 515.556 -1.06918 -2.93215 0
M  V30 5481 N 515.857 1.33968 -0.830081 0
M  V30 5482 C 516.804 2.29387 -0.255008 0
M  V30 5483 C 517.774 1.53923 0.624243 0
M  V30 5484 O 518.959 1.82262 0.564372 0
M  V30 5485 C 516.099 3.4034 0.571209 0
M  V30 5486 C 515.212 4.30729 -0.331083 0
M  V30 5487 C 514.347 5.2879 0.505389 0
M  V30 5488 C 513.386 6.10819 -0.395843 0
M  V30 5489 N 512.523 7.00948 0.401979 0
M  V30 5490 H 517.363 2.77972 -1.07404 0
M  V30 5491 H 514.9 1.36785 -0.541133 0
M  V30 5492 H 516.858 4.03361 1.06562 0
M  V30 5493 H 515.488 2.9297 1.35529 0
M  V30 5494 H 514.54 3.68507 -0.943759 0
M  V30 5495 H 515.852 4.88181 -1.02377 0
M  V30 5496 H 515.006 5.97297 1.06399 0
M  V30 5497 H 513.745 4.71894 1.23155 0
M  V30 5498 H 512.75 5.41238 -0.966529 0
M  V30 5499 H 513.975 6.69797 -1.12023 0
M  V30 5500 H 511.921 6.46512 1.11168 0
M  V30 5501 H 511.838 7.55643 -0.232167 0
M  V30 5502 H 513.106 7.73774 0.943102 0
M  V30 5503 N 517.335 0.585699 1.46312 0
M  V30 5504 C 518.584 0.0701192 2.01578 0
M  V30 5505 C 518.897 -1.29889 1.46247 0
M  V30 5506 O 520.103 -1.90598 1.93351 0
M  V30 5507 C 518.559 0.0747499 3.59822 0
M  V30 5508 C 518.167 1.44226 4.24149 0
M  V30 5509 C 519.911 -0.38673 4.22735 0
M  V30 5510 C 517.818 1.40446 5.74481 0
M  V30 5511 H 516.748 0.0224441 0.753666 0
M  V30 5512 H 519.399 0.737789 1.68015 0
M  V30 5513 H 517.781 -0.659144 3.90476 0
M  V30 5514 H 518.955 2.19612 4.05101 0
M  V30 5515 H 517.27 1.84401 3.73343 0
M  V30 5516 H 519.867 -0.433853 5.32937 0
M  V30 5517 H 520.21 -1.40489 3.91878 0
M  V30 5518 H 520.743 0.293195 3.96718 0
M  V30 5519 H 517.482 2.39952 6.10003 0
M  V30 5520 H 517.002 0.692845 5.95785 0
M  V30 5521 H 518.681 1.11865 6.37256 0
M  V30 5522 N 518.813 -1.54241 0.323641 0
M  V30 5523 C 519.76 -2.24339 -0.542277 0
M  V30 5524 C 520.73 -1.23421 -1.11159 0
M  V30 5525 O 521.915 -1.52104 -1.15192 0
M  V30 5526 C 519.055 -3.00479 -1.69725 0
M  V30 5527 C 518.168 -4.16214 -1.15716 0
M  V30 5528 C 517.303 -4.79884 -2.27783 0
M  V30 5529 C 516.342 -5.87722 -1.71023 0
M  V30 5530 N 515.479 -6.45254 -2.76752 0
M  V30 5531 H 520.319 -2.97935 0.0620613 0
M  V30 5532 H 517.856 -1.47039 0.0423993 0
M  V30 5533 H 519.814 -3.42869 -2.3769 0
M  V30 5534 H 518.444 -2.29217 -2.27288 0
M  V30 5535 H 517.496 -3.78605 -0.369063 0
M  V30 5536 H 518.808 -4.93838 -0.701832 0
M  V30 5537 H 517.962 -5.25243 -3.03651 0
M  V30 5538 H 516.701 -4.01641 -2.76652 0
M  V30 5539 H 515.706 -5.41765 -0.936518 0
M  V30 5540 H 516.931 -6.67863 -1.2303 0
M  V30 5541 H 514.877 -5.69884 -3.24912 0
M  V30 5542 H 514.794 -7.18292 -2.35782 0
M  V30 5543 H 516.062 -6.95269 -3.5245 0
M  V30 5544 N 520.291 -0.0518155 -1.57515 0
M  V30 5545 C 521.702 0.483787 -1.80323 0
M  V30 5546 C 522.053 1.70879 -0.964099 0
M  V30 5547 O 521.178 2.15643 -0.180872 0
M  V30 5548 C 521.773 0.884459 -3.27052 0
M  V30 5549 C 520.332 1.36504 -3.50776 0
M  V30 5550 C 519.479 0.340539 -2.75201 0
M  V30 5551 H 522.43 -0.277691 -1.56252 0
M  V30 5552 H 522.451 1.74733 -3.38007 0
M  V30 5553 H 521.963 -0.00731093 -3.88099 0
M  V30 5554 H 520.064 2.27598 -2.95009 0
M  V30 5555 H 520.177 1.35675 -4.59488 0
M  V30 5556 H 518.541 0.81356 -2.41357 0
M  V30 5557 H 519.324 -0.543156 -3.38976 0
M  V30 5558 N 521.769 1.56035 0.221574 0
M  V30 5559 C 522.719 1.8881 1.27807 0
M  V30 5560 C 523.703 0.751177 1.42289 0
M  V30 5561 O 524.895 1.01359 1.45104 0
M  V30 5562 C 522.024 2.20828 2.6285 0
M  V30 5563 C 521.11 3.40912 2.52269 0
M  V30 5564 N 521.501 4.59531 2.1134 0
M  V30 5565 C 519.799 3.44526 2.83228 0
M  V30 5566 C 520.5 5.41689 2.1201 0
M  V30 5567 N 519.476 4.814 2.52497 0
M  V30 5568 H 523.278 2.78036 0.952529 0
M  V30 5569 H 520.792 1.566 0.430134 0
M  V30 5570 H 522.789 2.42483 3.39127 0
M  V30 5571 H 521.449 1.32914 2.9625 0
M  V30 5572 H 522.46 4.8469 1.82472 0
M  V30 5573 H 519.137 2.66956 3.21 0
M  V30 5574 H 520.527 6.46643 1.82491 0
M  V30 5575 N 523.247 -0.488276 1.49845 0
M  V30 5576 C 524.177 -1.59675 1.70371 0
M  V30 5577 C 525.158 -1.60878 0.552473 0
M  V30 5578 O 526.343 -1.77417 0.78973 0
M  V30 5579 C 523.473 -2.98098 1.782 0
M  V30 5580 C 522.427 -3.11761 2.93239 0
M  V30 5581 C 521.753 -4.51661 2.86193 0
M  V30 5582 C 523.053 -2.90589 4.33999 0
M  V30 5583 H 524.747 -1.42752 2.63177 0
M  V30 5584 H 522.293 -0.685317 1.26647 0
M  V30 5585 H 524.246 -3.75555 1.91144 0
M  V30 5586 H 522.97 -3.16138 0.820018 0
M  V30 5587 H 521.629 -2.36732 2.79917 0
M  V30 5588 H 521.277 -4.66595 1.87877 0
M  V30 5589 H 520.977 -4.61742 3.63412 0
M  V30 5590 H 522.501 -5.31162 3.01163 0
M  V30 5591 H 523.915 -3.57807 4.47936 0
M  V30 5592 H 522.312 -3.1213 5.12538 0
M  V30 5593 H 523.382 -1.86595 4.4756 0
M  V30 5594 N 524.725 -1.39134 -0.740242 0
M  V30 5595 C 525.658 -1.3182 -1.86276 0
M  V30 5596 C 526.636 -0.192794 -1.61453 0
M  V30 5597 O 527.82 -0.372365 -1.84786 0
M  V30 5598 C 524.947 -1.04564 -3.22155 0
M  V30 5599 C 523.993 -2.19224 -3.65846 0
M  V30 5600 S 524.826 -3.81466 -3.75824 0
M  V30 5601 C 525.982 -3.56425 -5.14502 0
M  V30 5602 H 526.215 -2.26822 -1.92195 0
M  V30 5603 H 523.748 -1.25127 -0.904576 0
M  V30 5604 H 525.706 -0.895228 -4.00619 0
M  V30 5605 H 524.367 -0.112578 -3.13898 0
M  V30 5606 H 523.56 -1.95732 -4.6444 0
M  V30 5607 H 523.162 -2.30441 -2.94572 0
M  V30 5608 H 525.454 -3.13366 -6.00673 0
M  V30 5609 H 526.397 -4.54462 -5.43019 0
M  V30 5610 H 526.805 -2.90641 -4.8393 0
M  V30 5611 N 526.204 0.969867 -1.24223 0
M  V30 5612 C 527.429 1.75289 -1.10853 0
M  V30 5613 C 527.854 1.85091 0.335079 0
M  V30 5614 O 527.212 1.32024 1.24255 0
M  V30 5615 C 527.26 3.15255 -1.75062 0
M  V30 5616 O 526.364 3.99589 -1.01992 0
M  V30 5617 H 525.705 0.538904 -0.387915 0
M  V30 5618 H 528.235 1.21675 -1.64488 0
M  V30 5619 H 528.245 3.65787 -1.80731 0
M  V30 5620 H 526.92 3.07436 -2.801 0
M  V30 5621 H 525.497 3.58077 -1.04094 0
M  V30 5622 N 527.682 1.05563 1.17022 0
M  V30 5623 C 528.614 0.617888 2.20714 0
M  V30 5624 C 529.627 -0.320303 1.59618 0
M  V30 5625 O 530.816 -0.112449 1.78145 0
M  V30 5626 C 527.916 -0.115333 3.38704 0
M  V30 5627 C 527.089 0.834493 4.29366 0
M  V30 5628 C 526.148 0.141855 5.26009 0
M  V30 5629 O 525.174 0.777151 5.6387 0
M  V30 5630 N 526.376 -1.11934 5.69606 0
M  V30 5631 H 529.141 1.50981 2.58892 0
M  V30 5632 H 526.702 0.938008 1.31958 0
M  V30 5633 H 528.694 -0.588918 4.00392 0
M  V30 5634 H 527.264 -0.908967 2.99093 0
M  V30 5635 H 526.484 1.48762 3.65053 0
M  V30 5636 H 527.772 1.4791 4.86827 0
M  V30 5637 H 527.17 -1.65574 5.40927 0
M  V30 5638 H 525.727 -1.53692 6.33421 0
M  V30 5639 N 529.16 -1.33526 0.837174 0
M  V30 5640 C 530.07 -2.33023 0.271568 0
M  V30 5641 C 531.086 -1.63272 -0.601514 0
M  V30 5642 O 532.262 -1.94939 -0.506038 0
M  V30 5643 C 529.327 -3.42382 -0.545448 0
M  V30 5644 C 528.388 -4.27857 0.351709 0
M  V30 5645 C 527.621 -5.31994 -0.426409 0
M  V30 5646 O 527.844 -5.45763 -1.65828 0
M  V30 5647 O 526.778 -6.01572 0.1987 0
M  V30 5648 H 530.604 -2.83256 1.09545 0
M  V30 5649 H 528.189 -1.36837 0.599655 0
M  V30 5650 H 530.071 -4.09122 -1.00979 0
M  V30 5651 H 528.746 -2.94369 -1.34641 0
M  V30 5652 H 527.653 -3.6399 0.863853 0
M  V30 5653 H 528.986 -4.79349 1.1174 0
M  V30 5654 N 530.638 -0.59345 -1.46 0
M  V30 5655 C 531.568 0.121192 -2.33185 0
M  V30 5656 C 532.549 0.872977 -1.4599 0
M  V30 5657 O 533.734 0.846321 -1.74789 0
M  V30 5658 C 530.864 1.12844 -3.28456 0
M  V30 5659 C 529.818 0.4908 -4.25177 0
M  V30 5660 C 529.144 1.60529 -5.10034 0
M  V30 5661 C 530.444 -0.578949 -5.19081 0
M  V30 5662 H 532.138 -0.606767 -2.93187 0
M  V30 5663 H 529.684 -0.293242 -1.40983 0
M  V30 5664 H 531.637 1.63684 -3.88311 0
M  V30 5665 H 530.361 1.88681 -2.66584 0
M  V30 5666 H 529.02 0.00339328 -3.666 0
M  V30 5667 H 528.668 2.35359 -4.44539 0
M  V30 5668 H 528.368 1.18422 -5.75543 0
M  V30 5669 H 529.892 2.11623 -5.72755 0
M  V30 5670 H 531.306 -0.155199 -5.7309 0
M  V30 5671 H 529.703 -0.920947 -5.92991 0
M  V30 5672 H 530.773 -1.46109 -4.62364 0
M  V30 5673 N 532.116 1.54067 -0.331816 0
M  V30 5674 C 533.527 1.86059 0.15454 0
M  V30 5675 C 533.878 1.25331 1.50952 0
M  V30 5676 O 533.003 0.562441 2.08963 0
M  V30 5677 C 533.598 3.37581 0.287192 0
M  V30 5678 C 532.157 3.69493 0.717773 0
M  V30 5679 C 531.304 2.76863 -0.155569 0
M  V30 5680 H 534.255 1.48797 -0.55182 0
M  V30 5681 H 534.276 3.63744 1.11671 0
M  V30 5682 H 533.788 3.81751 -0.699131 0
M  V30 5683 H 531.889 3.3086 1.71354 0
M  V30 5684 H 532.002 4.76315 0.5158 0
M  V30 5685 H 530.366 2.51995 0.370213 0
M  V30 5686 H 531.149 3.23861 -1.13881 0
M  V30 5687 N 533.594 0.0601682 1.57485 0
M  V30 5688 C 534.504 -0.926121 2.15546 0
M  V30 5689 C 535.52 -1.33532 1.11558 0
M  V30 5690 O 536.696 -1.4104 1.4377 0
M  V30 5691 C 533.761 -2.17952 2.69625 0
M  V30 5692 C 532.822 -1.82783 3.88444 0
M  V30 5693 C 532.055 -3.02148 4.39935 0
M  V30 5694 O 532.278 -4.15803 3.90466 0
M  V30 5695 O 531.212 -2.82639 5.31412 0
M  V30 5696 H 535.038 -0.462289 3.00161 0
M  V30 5697 H 532.623 -0.162246 1.48516 0
M  V30 5698 H 534.505 -2.91474 3.04337 0
M  V30 5699 H 533.18 -2.63456 1.88077 0
M  V30 5700 H 532.087 -1.06549 3.58606 0
M  V30 5701 H 533.42 -1.42072 4.7125 0
M  V30 5702 N 535.072 -1.5615 -0.213296 0
M  V30 5703 C 536.349 -1.70349 -0.961281 0
M  V30 5704 C 536.729 -0.609791 -2.02101 0
M  V30 5705 O 536.077 0.381987 -2.25285 0
M  V30 5706 C 536.287 -3.11982 -1.56424 0
M  V30 5707 C 537.635 -3.71649 -2.05334 0
M  V30 5708 O 538.659 -3.14995 -1.66302 0
M  V30 5709 O 537.518 -4.71038 -2.77102 0
M  V30 5710 H 534.612 -0.694121 -0.449582 0
M  V30 5711 H 537.158 -1.68464 -0.204426 0
M  V30 5712 H 535.93 -3.83046 -0.799457 0
M  V30 5713 H 535.553 -3.18019 -2.38641 0
M  V30 5714 N 536.55 0.480323 -1.50102 0
M  V30 5715 C 537.796 1.23208 -1.61837 0
M  V30 5716 C 538.151 1.89878 -0.310509 0
M  V30 5717 O 537.444 1.7871 0.690897 0
M  V30 5718 C 537.638 2.30708 -2.72963 0
M  V30 5719 C 537.467 1.74583 -4.14428 0
M  V30 5720 C 536.237 1.54964 -4.80951 0
M  V30 5721 C 538.435 1.24597 -4.98979 0
M  V30 5722 N 536.417 0.939855 -6.06663 0
M  V30 5723 C 537.788 0.758834 -6.15339 0
M  V30 5724 C 539.843 1.13365 -4.84822 0
M  V30 5725 C 538.546 0.17046 -7.19098 0
M  V30 5726 C 540.572 0.559221 -5.8875 0
M  V30 5727 C 539.934 0.082415 -7.04352 0
M  V30 5728 H 536.033 0.440065 -0.646426 0
M  V30 5729 H 538.617 0.535632 -1.87187 0
M  V30 5730 H 536.788 2.9779 -2.4935 0
M  V30 5731 H 538.52 2.97738 -2.74106 0
M  V30 5732 H 535.275 1.79926 -4.38091 0
M  V30 5733 H 535.699 0.653641 -6.73837 0
M  V30 5734 H 540.341 1.48823 -3.95742 0
M  V30 5735 H 538.059 -0.196347 -8.07861 0
M  V30 5736 H 541.645 0.474804 -5.79859 0
M  V30 5737 H 540.525 -0.355119 -7.83396 0
M  V30 5738 N 538.028 1.39524 0.732853 0
M  V30 5739 C 539.305 1.27373 1.48444 0
M  V30 5740 C 539.685 -0.115725 2.10783 0
M  V30 5741 O 539.033 -1.12713 1.98766 0
M  V30 5742 C 539.243 2.39966 2.53412 0
M  V30 5743 C 540.591 2.79384 3.19733 0
M  V30 5744 O 541.615 2.39431 2.63725 0
M  V30 5745 O 540.474 3.48353 4.21085 0
M  V30 5746 H 537.568 0.499272 0.659285 0
M  V30 5747 H 540.114 1.51403 0.766496 0
M  V30 5748 H 538.886 3.32845 2.05742 0
M  V30 5749 H 538.509 2.17612 3.32762 0
M  V30 5750 N 539.506 -0.963266 1.24736 0
M  V30 5751 C 540.453 -2.05857 1.04363 0
M  V30 5752 C 541.423 -1.6604 -0.0444951 0
M  V30 5753 O 542.608 -1.90477 0.110999 0
M  V30 5754 C 539.748 -3.38745 0.659235 0
M  V30 5755 C 538.861 -3.9173 1.82131 0
M  V30 5756 C 537.996 -5.12906 1.38208 0
M  V30 5757 C 537.035 -5.58098 2.51382 0
M  V30 5758 N 536.172 -6.7049 2.08295 0
M  V30 5759 H 541.012 -2.22616 1.98107 0
M  V30 5760 H 538.549 -1.09103 0.986661 0
M  V30 5761 H 540.507 -4.15107 0.417371 0
M  V30 5762 H 539.137 -3.21898 -0.241201 0
M  V30 5763 H 538.189 -3.11966 2.17672 0
M  V30 5764 H 539.501 -4.21225 2.67153 0
M  V30 5765 H 538.655 -5.96657 1.09935 0
M  V30 5766 H 537.394 -4.85105 0.502456 0
M  V30 5767 H 536.399 -4.72917 2.80409 0
M  V30 5768 H 537.624 -5.87911 3.39909 0
M  V30 5769 H 535.57 -6.44416 1.22737 0
M  V30 5770 H 535.487 -6.99458 2.86869 0
M  V30 5771 H 536.755 -7.57672 1.83175 0
M  V30 5772 N 540.985 -1.06182 -1.16461 0
M  V30 5773 C 541.917 -0.629584 -2.20383 0
M  V30 5774 C 542.93 0.311834 -1.59786 0
M  V30 5775 O 544.119 0.103 -1.78203 0
M  V30 5776 C 541.219 0.0973695 -3.3876 0
M  V30 5777 C 540.392 -0.857252 -4.28917 0
M  V30 5778 C 539.451 -0.169749 -5.25926 0
M  V30 5779 O 538.477 -0.807044 -5.6345 0
M  V30 5780 N 539.679 1.08911 -5.70192 0
M  V30 5781 H 542.444 -1.52352 -2.58087 0
M  V30 5782 H 540.005 -0.944993 -1.31459 0
M  V30 5783 H 541.997 0.567676 -4.00699 0
M  V30 5784 H 540.567 0.893093 -2.99571 0
M  V30 5785 H 539.787 -1.50696 -3.64259 0
M  V30 5786 H 541.075 -1.50489 -4.86035 0
M  V30 5787 H 540.473 1.62703 -5.41797 0
M  V30 5788 H 539.03 1.50331 -6.34227 0
M  V30 5789 N 542.463 1.3308 -0.844243 0
M  V30 5790 C 543.874 1.7992 -0.498566 0
M  V30 5791 C 544.225 1.69808 0.982834 0
M  V30 5792 O 543.35 1.25051 1.7661 0
M  V30 5793 C 543.945 3.26677 -0.898204 0
M  V30 5794 C 542.504 3.71513 -0.604583 0
M  V30 5795 C 541.651 2.54393 -1.10362 0
M  V30 5796 H 544.602 1.20526 -1.03244 0
M  V30 5797 H 544.623 3.79918 -0.21039 0
M  V30 5798 H 544.135 3.34004 -1.97643 0
M  V30 5799 H 542.236 3.69708 0.46335 0
M  V30 5800 H 542.349 4.64755 -1.16358 0
M  V30 5801 H 540.713 2.49246 -0.524273 0
M  V30 5802 H 541.496 2.6448 -2.18873 0
M  V30 5803 N 543.941 0.601185 1.45683 0
M  V30 5804 C 545.187 0.0940202 2.02582 0
M  V30 5805 C 545.52 -1.26972 1.46941 0
M  V30 5806 O 544.795 -1.83613 0.641612 0
M  V30 5807 C 545.078 0.0481715 3.60068 0
M  V30 5808 C 544.931 1.44212 4.26055 0
M  V30 5809 C 546.25 -0.642975 4.35378 0
M  V30 5810 H 543.369 0.0356404 0.736138 0
M  V30 5811 H 546.011 0.771929 1.73612 0
M  V30 5812 H 544.161 -0.529128 3.8488 0
M  V30 5813 H 545.833 2.06601 4.12449 0
M  V30 5814 H 544.076 2.00465 3.84703 0
M  V30 5815 H 544.747 1.36234 5.34925 0
M  V30 5816 H 547.223 -0.152351 4.15821 0
M  V30 5817 H 546.099 -0.644141 5.45107 0
M  V30 5818 H 546.36 -1.70785 4.0778 0
M  V30 5819 N 545.419 -1.53889 0.339982 0
M  V30 5820 C 546.366 -2.24902 -0.518452 0
M  V30 5821 C 547.336 -1.24593 -1.09844 0
M  V30 5822 O 548.521 -1.53317 -1.13572 0
M  V30 5823 C 545.661 -3.02262 -1.66529 0
M  V30 5824 C 544.774 -4.17418 -1.11295 0
M  V30 5825 C 543.909 -4.82273 -2.2268 0
M  V30 5826 C 542.948 -5.89503 -1.6478 0
M  V30 5827 N 542.085 -6.48153 -2.69893 0
M  V30 5828 H 546.925 -2.97853 0.0936579 0
M  V30 5829 H 544.462 -1.46986 0.0579924 0
M  V30 5830 H 546.42 -3.45371 -2.3404 0
M  V30 5831 H 545.05 -2.31614 -2.24844 0
M  V30 5832 H 544.102 -3.78976 -0.328886 0
M  V30 5833 H 545.414 -4.94554 -0.649414 0
M  V30 5834 H 544.568 -5.28435 -2.98063 0
M  V30 5835 H 543.307 -4.04552 -2.72376 0
M  V30 5836 H 542.312 -5.42728 -0.879004 0
M  V30 5837 H 543.537 -6.6913 -1.1594 0
M  V30 5838 H 541.483 -5.73298 -3.1885 0
M  V30 5839 H 541.4 -7.20752 -2.28151 0
M  V30 5840 H 542.668 -6.98968 -3.45056 0
M  V30 5841 N 546.897 -0.0685191 -1.57451 0
M  V30 5842 C 548.143 0.602239 -1.93652 0
M  V30 5843 C 548.476 1.6946 -0.948526 0
M  V30 5844 O 547.751 1.94487 0.022782 0
M  V30 5845 C 548.034 1.18223 -3.4014 0
M  V30 5846 C 547.887 0.0967431 -4.49696 0
M  V30 5847 C 549.206 2.08872 -3.87377 0
M  V30 5848 H 546.325 0.217453 -0.70419 0
M  V30 5849 H 548.967 -0.133821 -1.89528 0
M  V30 5850 H 547.117 1.80953 -3.43785 0
M  V30 5851 H 548.789 -0.536155 -4.58174 0
M  V30 5852 H 547.032 -0.573063 -4.29998 0
M  V30 5853 H 547.703 0.542894 -5.49324 0
M  V30 5854 H 550.179 1.56081 -3.85717 0
M  V30 5855 H 549.055 2.46389 -4.90493 0
M  V30 5856 H 549.316 2.99572 -3.25129 0
M  V30 5857 N 548.375 1.56261 0.205012 0
M  V30 5858 C 549.305 1.96779 1.257 0
M  V30 5859 C 550.286 0.838309 1.48008 0
M  V30 5860 O 551.471 1.10189 1.59913 0
M  V30 5861 C 548.601 2.29876 2.60335 0
M  V30 5862 C 547.555 3.45469 2.52656 0
M  V30 5863 C 546.881 3.64215 3.91473 0
M  V30 5864 C 548.181 4.79954 2.06014 0
M  V30 5865 H 549.875 2.84904 0.920338 0
M  V30 5866 H 547.421 1.37072 0.441277 0
M  V30 5867 H 549.374 2.56814 3.34102 0
M  V30 5868 H 548.098 1.38622 2.95722 0
M  V30 5869 H 546.757 3.18605 1.81345 0
M  V30 5870 H 546.405 2.70309 4.24196 0
M  V30 5871 H 546.105 4.41973 3.87213 0
M  V30 5872 H 547.629 3.93519 4.66878 0
M  V30 5873 H 549.043 5.05989 2.69533 0
M  V30 5874 H 547.44 5.61111 2.12777 0
M  V30 5875 H 548.51 4.74201 1.01297 0
M  V30 5876 N 549.853 -0.472356 1.50355 0
M  V30 5877 C 551.099 -1.22634 1.6152 0
M  V30 5878 C 551.432 -1.91645 0.313995 0
M  V30 5879 O 550.707 -1.82059 -0.684446 0
M  V30 5880 C 550.99 -2.27099 2.7946 0
M  V30 5881 C 550.843 -1.62402 4.19459 0
M  V30 5882 C 552.162 -3.28421 2.92964 0
M  V30 5883 H 549.281 -0.444494 0.587873 0
M  V30 5884 H 551.923 -0.520321 1.82737 0
M  V30 5885 H 550.073 -2.87314 2.61501 0
M  V30 5886 H 551.745 -1.05793 4.49005 0
M  V30 5887 H 549.988 -0.927184 4.23776 0
M  V30 5888 H 550.659 -2.38309 4.97909 0
M  V30 5889 H 553.135 -2.78227 3.09401 0
M  V30 5890 H 552.011 -3.98845 3.77113 0
M  V30 5891 H 552.272 -3.92467 2.03525 0
M  V30 5892 N 551.331 -1.39911 -0.725443 0
M  V30 5893 C 552.579 -1.37382 -1.48224 0
M  V30 5894 C 552.9 0.0264107 -1.94982 0
M  V30 5895 O 552.17 0.979408 -1.6966 0
M  V30 5896 H 550.75 -0.505596 -0.549892 0
M  V30 5897 H 553.412 -1.7487 -0.860608 0
M  V30 5898 H 552.508 -2.04254 -2.3598 0
M  V30 5899 N 552.809 0.956637 -1.25245 0
M  V30 5900 C 553.756 2.053 -1.05454 0
M  V30 5901 C 554.726 1.66062 0.0356889 0
M  V30 5902 O 555.911 1.90415 -0.121099 0
M  V30 5903 C 553.051 3.38391 -0.677191 0
M  V30 5904 C 552.164 3.90758 -1.84206 0
M  V30 5905 C 551.299 5.12165 -1.40926 0
M  V30 5906 C 550.338 5.56757 -2.54338 0
M  V30 5907 N 549.475 6.69376 -2.11848 0
M  V30 5908 H 554.315 2.21562 -1.99284 0
M  V30 5909 H 551.852 1.08578 -0.992434 0
M  V30 5910 H 553.81 4.1488 -0.43938 0
M  V30 5911 H 552.44 3.22021 0.224127 0
M  V30 5912 H 551.492 3.10808 -2.19323 0
M  V30 5913 H 552.804 4.19802 -2.69383 0
M  V30 5914 H 551.958 5.96065 -1.13098 0
M  V30 5915 H 550.697 4.84832 -0.528175 0
M  V30 5916 H 549.702 4.71423 -2.82913 0
M  V30 5917 H 550.927 5.861 -3.43022 0
M  V30 5918 H 548.873 6.43756 -1.26153 0
M  V30 5919 H 548.79 6.97927 -2.90574 0
M  V30 5920 H 550.058 7.5669 -1.87191 0
M  V30 5921 N 554.287 1.06798 1.15896 0
M  V30 5922 C 555.235 0.677525 2.22514 0
M  V30 5923 C 556.229 -0.308994 1.66558 0
M  V30 5924 O 557.435 -0.173308 1.79164 0
M  V30 5925 H 553.81 0.200994 0.724642 0
M  V30 5926 H 555.781 1.5865 2.52731 0
M  V30 5927 C 554.53 0.0854153 3.47595 0
M  V30 5928 H 553.853 0.835645 3.90969 0
M  V30 5929 H 555.293 -0.150199 4.23734 0
M  V30 5930 C 553.752 -1.1724 3.15843 0
M  V30 5931 O 554.282 -2.25965 3.32119 0
M  V30 5932 N 552.488 -1.07636 2.69931 0
M  V30 5933 H 552.035 -0.191559 2.56887 0
M  V30 5934 H 551.993 -1.91876 2.4906 0
M  V30 5935 N 555.766 -1.3263 0.851289 0
M  V30 5936 C 557.013 -1.97368 0.453023 0
M  V30 5937 C 557.341 -1.67384 -0.990596 0
M  V30 5938 O 556.596 -0.952665 -1.70947 0
M  V30 5939 C 556.895 -3.51713 0.635015 0
M  V30 5940 C 556.561 -4.01676 2.04859 0
M  V30 5941 C 555.223 -4.15031 2.43522 0
M  V30 5942 C 557.575 -4.28206 2.97135 0
M  V30 5943 C 554.903 -4.52257 3.73739 0
M  V30 5944 C 557.255 -4.66889 4.26846 0
M  V30 5945 C 555.919 -4.7845 4.65448 0
M  V30 5946 H 555.189 -0.722219 0.165773 0
M  V30 5947 H 557.836 -1.58092 1.0807 0
M  V30 5948 H 556.141 -3.91726 -0.0759081 0
M  V30 5949 H 557.838 -3.99823 0.306964 0
M  V30 5950 H 554.428 -3.91764 1.73836 0
M  V30 5951 H 558.612 -4.174 2.68498 0
M  V30 5952 H 553.868 -4.59402 4.03435 0
M  V30 5953 H 558.042 -4.86372 4.98413 0
M  V30 5954 H 555.669 -5.07052 5.66395 0
M  V30 5955 N 557.244 -0.608902 -1.45362 0
M  V30 5956 C 558.154 0.110969 -2.34337 0
M  V30 5957 C 559.17 0.859007 -1.51318 0
M  V30 5958 O 560.346 0.816296 -1.84116 0
M  V30 5959 C 557.411 1.09494 -3.28956 0
M  V30 5960 C 556.472 0.348718 -4.27881 0
M  V30 5961 C 555.705 1.28582 -5.17979 0
M  V30 5962 O 555.928 2.52369 -5.11533 0
M  V30 5963 O 554.862 0.782172 -5.96796 0
M  V30 5964 H 558.688 -0.620258 -2.97299 0
M  V30 5965 H 556.273 -0.36916 -1.44767 0
M  V30 5966 H 558.155 1.66163 -3.87257 0
M  V30 5967 H 556.83 1.80717 -2.68557 0
M  V30 5968 H 555.737 -0.260465 -3.73192 0
M  V30 5969 H 557.07 -0.323049 -4.91139 0
M  V30 5970 N 558.722 1.53707 -0.348139 0
M  V30 5971 C 559.999 1.93247 0.302475 0
M  V30 5972 C 560.379 1.28012 1.67857 0
M  V30 5973 O 559.727 0.43274 2.24365 0
M  V30 5974 C 559.937 3.47031 0.370159 0
M  V30 5975 C 561.285 4.20066 0.61882 0
M  V30 5976 O 562.309 3.53319 0.452087 0
M  V30 5977 O 561.168 5.38318 0.94215 0
M  V30 5978 H 558.262 0.807736 0.177458 0
M  V30 5979 H 560.808 1.64927 -0.399651 0
M  V30 5980 H 559.58 3.86745 -0.59534 0
M  V30 5981 H 559.203 3.81532 1.11888 0
M  V30 5982 N 560.2 0.0768682 1.57412 0
M  V30 5983 C 561.446 -0.591961 1.93968 0
M  V30 5984 C 561.779 -1.68954 0.9575 0
M  V30 5985 O 561.054 -1.94496 -0.0124675 0
M  V30 5986 C 561.337 -1.16418 3.40762 0
M  V30 5987 C 561.19 -0.0728933 4.49741 0
M  V30 5988 C 562.509 -2.06814 3.88479 0
M  V30 5989 H 559.628 -0.213716 0.705333 0
M  V30 5990 H 562.27 0.14387 1.89455 0
M  V30 5991 H 560.42 -1.79128 3.4474 0
M  V30 5992 H 562.092 0.560446 4.57883 0
M  V30 5993 H 560.335 0.595859 4.29688 0
M  V30 5994 H 561.006 -0.513755 5.49604 0
M  V30 5995 H 563.482 -1.54033 3.8654 0
M  V30 5996 H 562.358 -2.43785 4.91793 0
M  V30 5997 H 562.619 -2.97844 3.26713 0
M  V30 5998 N 561.678 -1.56367 -0.196722 0
M  V30 5999 C 562.641 -1.93561 -1.22746 0
M  V30 6000 C 563.641 -0.816566 -1.38524 0
M  V30 6001 O 564.831 -1.084 -1.36363 0
M  V30 6002 C 561.963 -2.20823 -2.59712 0
M  V30 6003 H 563.156 -2.85774 -0.909586 0
M  V30 6004 H 560.709 -1.50032 -0.438174 0
M  V30 6005 H 561.444 -1.31243 -2.96557 0
M  V30 6006 H 561.229 -3.02368 -2.49632 0
M  V30 6007 H 562.719 -2.50608 -3.34044 0
M  V30 6008 N 563.156 0.464375 -1.50603 0
M  V30 6009 C 564.403 1.21596 -1.61928 0
M  V30 6010 C 564.731 1.91804 -0.322737 0
M  V30 6011 O 563.986 1.83065 0.691776 0
M  V30 6012 C 564.285 2.278 -2.75394 0
M  V30 6013 C 563.951 1.74797 -4.1564 0
M  V30 6014 C 562.613 1.60063 -4.53799 0
M  V30 6015 C 564.965 1.35548 -5.03266 0
M  V30 6016 C 562.293 1.04514 -5.77316 0
M  V30 6017 C 564.645 0.814381 -6.27336 0
M  V30 6018 C 563.309 0.653726 -6.64291 0
M  V30 6019 H 562.579 0.444951 -0.592536 0
M  V30 6020 H 565.226 0.510964 -1.84557 0
M  V30 6021 H 563.531 3.04233 -2.46879 0
M  V30 6022 H 565.228 2.85723 -2.81359 0
M  V30 6023 H 561.818 1.87234 -3.8554 0
M  V30 6024 H 566.002 1.45763 -4.74412 0
M  V30 6025 H 561.258 0.908186 -6.04617 0
M  V30 6026 H 565.432 0.501626 -6.94591 0
M  V30 6027 H 563.059 0.22114 -7.59878 0
M  V30 6028 N 564.634 1.40294 0.718013 0
M  V30 6029 C 565.911 1.2894 1.47084 0
M  V30 6030 C 566.291 -0.0933625 2.10893 0
M  V30 6031 O 565.639 -1.10598 1.99951 0
M  V30 6032 C 565.849 2.4264 2.50852 0
M  V30 6033 C 567.197 2.8276 3.16752 0
M  V30 6034 O 568.221 2.42215 2.61171 0
M  V30 6035 O 567.08 3.528 4.17366 0
M  V30 6036 H 564.174 0.506236 0.653952 0
M  V30 6037 H 566.72 1.52208 0.750394 0
M  V30 6038 H 565.492 3.35009 2.022 0
M  V30 6039 H 565.115 2.21129 3.30435 0
M  V30 6040 N 566.112 -0.949982 1.2575 0
M  V30 6041 C 567.022 -2.08109 1.08295 0
M  V30 6042 C 568.038 -1.7399 0.0188181 0
M  V30 6043 O 569.214 -2.00187 0.220724 0
M  V30 6044 C 566.279 -3.39383 0.708534 0
M  V30 6045 C 565.34 -3.8734 1.85111 0
M  V30 6046 C 564.573 -5.12349 1.49447 0
M  V30 6047 O 564.796 -5.6905 0.392212 0
M  V30 6048 O 563.73 -5.5513 2.32624 0
M  V30 6049 H 567.556 -2.25738 2.03165 0
M  V30 6050 H 565.141 -1.06545 1.04731 0
M  V30 6051 H 567.023 -4.18277 0.512061 0
M  V30 6052 H 565.698 -3.23013 -0.210854 0
M  V30 6053 H 564.605 -3.09429 2.10248 0
M  V30 6054 H 565.938 -4.08216 2.74991 0
M  V30 6055 N 567.59 -1.07411 -1.15328 0
M  V30 6056 C 568.537 -0.694995 -2.20087 0
M  V30 6057 C 569.507 0.313904 -1.63107 0
M  V30 6058 O 570.692 0.200216 -1.89747 0
M  V30 6059 C 567.832 -0.0996218 -3.44956 0
M  V30 6060 C 566.945 -1.16007 -4.16133 0
M  V30 6061 C 566.08 -0.529636 -5.28553 0
M  V30 6062 C 565.119 -1.57283 -5.91548 0
M  V30 6063 N 564.256 -0.964932 -6.95438 0
M  V30 6064 H 569.096 -1.5927 -2.51867 0
M  V30 6065 H 566.633 -0.796115 -1.23695 0
M  V30 6066 H 568.591 0.263197 -4.16369 0
M  V30 6067 H 567.221 0.761435 -3.13691 0
M  V30 6068 H 566.273 -1.64045 -3.4321 0
M  V30 6069 H 567.585 -1.95101 -4.59061 0
M  V30 6070 H 566.739 -0.114487 -6.06592 0
M  V30 6071 H 565.478 0.29307 -4.86819 0
M  V30 6072 H 564.483 -1.99775 -5.12221 0
M  V30 6073 H 565.708 -2.39783 -6.35359 0
M  V30 6074 H 563.654 -0.16314 -6.55797 0
M  V30 6075 H 563.571 -1.69311 -7.36797 0
M  V30 6076 H 564.839 -0.575305 -7.77374 0
M  V30 6077 N 569.068 1.32177 -0.85831 0
M  V30 6078 C 570.015 2.28794 -0.303607 0
M  V30 6079 C 570.985 1.55213 0.591453 0
M  V30 6080 O 572.17 1.83418 0.525585 0
M  V30 6081 C 569.31 3.41475 0.49889 0
M  V30 6082 C 568.423 4.2993 -0.422373 0
M  V30 6083 C 567.558 5.29743 0.393111 0
M  V30 6084 C 566.597 6.09842 -0.525317 0
M  V30 6085 N 565.734 7.01643 0.253208 0
M  V30 6086 H 570.574 2.75631 -1.13276 0
M  V30 6087 H 568.111 1.35606 -0.570026 0
M  V30 6088 H 570.069 4.05531 0.979826 0
M  V30 6089 H 568.699 2.95779 1.29284 0
M  V30 6090 H 567.751 3.66422 -1.02171 0
M  V30 6091 H 569.063 4.85899 -1.12709 0
M  V30 6092 H 568.217 5.9942 0.937056 0
M  V30 6093 H 566.956 4.744 1.13117 0
M  V30 6094 H 565.961 5.39066 -1.08112 0
M  V30 6095 H 567.186 6.6727 -1.26205 0
M  V30 6096 H 565.132 6.48725 0.974295 0
M  V30 6097 H 565.049 7.54981 -0.392398 0
M  V30 6098 H 566.317 7.756 0.778761 0
M  V30 6099 N 570.547 0.616602 1.45037 0
M  V30 6100 C 571.495 -0.109318 2.32343 0
M  V30 6101 C 572.489 -0.850543 1.465 0
M  V30 6102 O 573.695 -0.765088 1.62931 0
M  V30 6103 H 570.07 -0.0541091 0.750051 0
M  V30 6104 H 572.041 0.645326 2.91338 0
M  V30 6105 C 570.79 -1.0872 3.30266 0
M  V30 6106 H 570.113 -0.526267 3.96321 0
M  V30 6107 H 571.553 -1.56489 3.94065 0
M  V30 6108 C 570.012 -2.16525 2.58105 0
M  V30 6109 O 570.542 -3.244 2.36913 0
M  V30 6110 N 568.748 -1.92057 2.18088 0
M  V30 6111 H 568.295 -1.04337 2.35524 0
M  V30 6112 H 568.253 -2.64391 1.70131 0
M  V30 6113 N 572.025 -1.5352 0.356285 0
M  V30 6114 C 573.271 -2.01414 -0.236653 0
M  V30 6115 C 573.604 -1.24339 -1.49176 0
M  V30 6116 O 572.879 -0.334496 -1.91602 0
M  V30 6117 C 573.162 -3.56059 -0.537982 0
M  V30 6118 C 573.015 -4.43835 0.730112 0
M  V30 6119 C 574.334 -4.19127 -1.34239 0
M  V30 6120 H 571.453 -0.732135 -0.0845386 0
M  V30 6121 H 574.095 -1.83854 0.479341 0
M  V30 6122 H 572.245 -3.71153 -1.14795 0
M  V30 6123 H 573.917 -4.40555 1.36782 0
M  V30 6124 H 572.16 -4.1218 1.3524 0
M  V30 6125 H 572.831 -5.49958 0.474358 0
M  V30 6126 H 575.307 -4.07809 -0.826498 0
M  V30 6127 H 574.183 -5.27378 -1.52198 0
M  V30 6128 H 574.444 -3.74581 -2.34822 0
M  V30 6129 N 573.503 -0.0852151 -1.57369 0
M  V30 6130 C 574.75 0.580806 -1.93992 0
M  V30 6131 C 575.078 1.68801 -0.966252 0
M  V30 6132 O 574.333 1.95694 0.0158649 0
M  V30 6133 C 574.632 1.18482 -3.3719 0
M  V30 6134 C 574.298 0.2024 -4.50446 0
M  V30 6135 C 572.96 -0.0678318 -4.81152 0
M  V30 6136 C 575.312 -0.46895 -5.19086 0
M  V30 6137 C 572.64 -1.01627 -5.77831 0
M  V30 6138 C 574.992 -1.4058 -6.16782 0
M  V30 6139 C 573.656 -1.68436 -6.45899 0
M  V30 6140 H 572.926 0.212532 -0.709867 0
M  V30 6141 H 575.573 -0.158947 -1.90839 0
M  V30 6142 H 573.878 2.0006 -3.36873 0
M  V30 6143 H 575.575 1.70767 -3.62822 0
M  V30 6144 H 572.165 0.423208 -4.26505 0
M  V30 6145 H 576.349 -0.273307 -4.95547 0
M  V30 6146 H 571.605 -1.2392 -5.9871 0
M  V30 6147 H 575.779 -1.93188 -6.69068 0
M  V30 6148 H 573.406 -2.42088 -7.20623 0
M  V30 6149 N 574.981 1.5647 0.188427 0
M  V30 6150 C 576.227 1.81281 0.909124 0
M  V30 6151 C 576.56 0.66034 1.82628 0
M  V30 6152 O 575.835 -0.338737 1.91528 0
M  V30 6153 C 576.118 3.16388 1.7196 0
M  V30 6154 C 575.971 4.42137 0.826714 0
M  V30 6155 C 577.29 3.48256 2.69083 0
M  V30 6156 H 574.409 0.659457 0.329068 0
M  V30 6157 H 577.051 1.89182 0.176156 0
M  V30 6158 H 575.201 3.09784 2.34448 0
M  V30 6159 H 576.873 4.60794 0.216025 0
M  V30 6160 H 575.116 4.33594 0.133792 0
M  V30 6161 H 575.787 5.33184 1.42893 0
M  V30 6162 H 578.263 3.55203 2.16726 0
M  V30 6163 H 577.139 4.43899 3.2287 0
M  V30 6164 H 577.4 2.72088 3.48455 0
M  V30 6165 N 576.459 -0.456382 1.50847 0
M  V30 6166 C 577.369 -1.57805 1.73594 0
M  V30 6167 C 578.385 -1.62599 0.619476 0
M  V30 6168 O 579.561 -1.80195 0.899532 0
M  V30 6169 C 576.626 -2.93926 1.8387 0
M  V30 6170 C 575.687 -2.99402 3.07663 0
M  V30 6171 C 574.92 -4.29031 3.1744 0
M  V30 6172 O 575.143 -5.20358 2.33631 0
M  V30 6173 O 574.077 -4.40401 4.10281 0
M  V30 6174 H 577.903 -1.41531 2.68705 0
M  V30 6175 H 575.488 -0.637422 1.3512 0
M  V30 6176 H 577.37 -3.74747 1.92725 0
M  V30 6177 H 576.045 -3.10368 0.91944 0
M  V30 6178 H 574.952 -2.17606 3.043 0
M  V30 6179 H 576.285 -2.87901 3.99216 0
M  V30 6180 N 577.937 -1.40673 -0.710563 0
M  V30 6181 C 579.184 -1.39222 -1.47049 0
M  V30 6182 C 579.512 0.0037691 -1.945 0
M  V30 6183 O 578.767 0.989224 -1.68857 0
M  V30 6184 C 579.066 -2.33253 -2.70791 0
M  V30 6185 C 578.732 -3.80406 -2.42079 0
M  V30 6186 C 577.394 -4.20496 -2.33959 0
M  V30 6187 C 579.746 -4.73375 -2.18094 0
M  V30 6188 C 577.074 -5.51584 -1.99929 0
M  V30 6189 C 579.426 -6.04768 -1.85576 0
M  V30 6190 C 578.09 -6.43895 -1.75941 0
M  V30 6191 H 577.36 -0.509449 -0.538092 0
M  V30 6192 H 580.007 -1.73363 -0.81348 0
M  V30 6193 H 578.312 -1.92314 -3.41354 0
M  V30 6194 H 580.009 -2.29412 -3.28894 0
M  V30 6195 H 576.599 -3.48645 -2.49288 0
M  V30 6196 H 580.783 -4.43217 -2.23321 0
M  V30 6197 H 576.039 -5.80797 -1.91011 0
M  V30 6198 H 580.213 -6.76318 -1.66033 0
M  V30 6199 H 577.84 -7.45387 -1.4934 0
M  V30 6200 N 579.415 0.9433 -1.26252 0
M  V30 6201 C 580.645 1.72117 -1.14277 0
M  V30 6202 C 581.053 1.86726 0.304944 0
M  V30 6203 O 580.396 1.3727 1.22076 0
M  V30 6204 C 580.458 3.14778 -1.73651 0
M  V30 6205 C 580.122 3.23561 -3.22734 0
M  V30 6206 C 581.119 3.07001 -4.19579 0
M  V30 6207 C 578.804 3.47019 -3.63157 0
M  V30 6208 C 580.798 3.13763 -5.54826 0
M  V30 6209 C 578.485 3.53416 -4.98538 0
M  V30 6210 C 579.483 3.36804 -5.94182 0
M  V30 6211 O 579.171 3.42906 -7.27098 0
M  V30 6212 H 578.903 0.545781 -0.398873 0
M  V30 6213 H 581.457 1.19123 -1.67328 0
M  V30 6214 H 579.687 3.69186 -1.1506 0
M  V30 6215 H 581.376 3.74469 -1.56613 0
M  V30 6216 H 582.142 2.88736 -3.89688 0
M  V30 6217 H 578.021 3.59006 -2.89199 0
M  V30 6218 H 581.565 3.00714 -6.29458 0
M  V30 6219 H 577.462 3.71201 -5.28091 0
M  V30 6220 H 578.23 3.59463 -7.35342 0
M  V30 6221 N 580.893 1.08022 1.14757 0
M  V30 6222 C 581.856 0.71048 2.1791 0
M  V30 6223 C 582.856 -0.252731 1.58801 0
M  V30 6224 O 584.046 -0.0327915 1.74169 0
M  V30 6225 C 581.178 0.0483203 3.40866 0
M  V30 6226 H 582.371 1.62384 2.52134 0
M  V30 6227 H 579.924 0.877595 1.29337 0
M  V30 6228 H 580.659 -0.876959 3.12218 0
M  V30 6229 H 580.444 0.741189 3.85031 0
M  V30 6230 H 581.934 -0.195471 4.17142 0
M  V30 6231 N 582.371 -1.3172 0.865308 0
M  V30 6232 C 583.782 -1.79104 0.527126 0
M  V30 6233 C 584.133 -1.7135 -0.955695 0
M  V30 6234 O 583.258 -1.27845 -1.74598 0
M  V30 6235 C 583.853 -3.25207 0.950061 0
M  V30 6236 C 582.412 -3.70504 0.663611 0
M  V30 6237 C 581.559 -2.52605 1.14395 0
M  V30 6238 H 584.51 -1.18868 1.05148 0
M  V30 6239 H 584.531 -3.79535 0.270805 0
M  V30 6240 H 584.043 -3.30818 2.02931 0
M  V30 6241 H 582.144 -3.70398 -0.404474 0
M  V30 6242 H 582.257 -4.62845 1.23737 0
M  V30 6243 H 580.621 -2.4838 0.563859 0
M  V30 6244 H 581.404 -2.60964 2.23053 0
M  V30 6245 N 583.85 -0.624285 -1.44708 0
M  V30 6246 C 585.096 -0.13473 -2.02953 0
M  V30 6247 C 585.451 1.22724 -1.48178 0
M  V30 6248 O 584.744 1.80109 -0.653542 0
M  V30 6249 C 584.938 -0.0546353 -3.57358 0
M  V30 6250 C 584.767 -1.40729 -4.27113 0
M  V30 6251 C 583.537 -1.99231 -4.64365 0
M  V30 6252 C 585.735 -2.33968 -4.58 0
M  V30 6253 N 583.716 -3.27803 -5.19055 0
M  V30 6254 C 585.088 -3.47149 -5.137 0
M  V30 6255 C 587.143 -2.33132 -4.39948 0
M  V30 6256 C 585.846 -4.59682 -5.53249 0
M  V30 6257 C 587.872 -3.44724 -4.8054 0
M  V30 6258 C 587.234 -4.56629 -5.36348 0
M  V30 6259 H 583.332 -0.0930617 -0.776443 0
M  V30 6260 H 585.917 -0.826286 -1.76297 0
M  V30 6261 H 584.088 0.606183 -3.8364 0
M  V30 6262 H 585.82 0.443116 -4.02267 0
M  V30 6263 H 582.575 -1.52251 -4.4846 0
M  V30 6264 H 582.999 -3.93519 -5.50883 0
M  V30 6265 H 587.641 -1.47868 -3.961 0
M  V30 6266 H 585.359 -5.4566 -5.96054 0
M  V30 6267 H 588.945 -3.45245 -4.68291 0
M  V30 6268 H 587.825 -5.41551 -5.67179 0
M  V30 6269 N 585.328 1.53329 -0.364422 0
M  V30 6270 C 586.568 2.0315 0.22572 0
M  V30 6271 C 586.932 1.24589 1.46087 0
M  V30 6272 O 588.133 1.64411 2.12656 0
M  V30 6273 C 586.404 3.53718 0.511663 0
M  V30 6274 S 587.963 4.25412 1.07564 0
M  V30 6275 H 584.781 0.70795 0.0657843 0
M  V30 6276 H 587.383 1.88811 -0.507019 0
M  V30 6277 H 586.087 4.08497 -0.394784 0
M  V30 6278 H 585.618 3.72217 1.27351 0
M  V30 6279 H 587.633 4.36486 2.35997 0
M  V30 6280 N 586.806 0.0935595 1.57322 0
M  V30 6281 C 588.054 -0.569383 1.93913 0
M  V30 6282 C 588.375 -1.68817 0.976009 0
M  V30 6283 O 587.645 -1.9588 0.0278099 0
M  V30 6284 H 586.225 -0.21332 0.715894 0
M  V30 6285 H 588.887 0.156531 1.9427 0
M  V30 6286 H 587.983 -0.980577 2.96296 0
M  V30 6287 N 588.284 -1.56567 -0.180126 0
M  V30 6288 C 589.234 -1.92132 -1.22756 0
M  V30 6289 C 590.218 -0.788639 -1.40247 0
M  V30 6290 O 591.41 -1.05171 -1.42366 0
M  V30 6291 C 588.539 -2.27719 -2.56902 0
M  V30 6292 C 587.625 -3.47481 -2.43142 0
M  V30 6293 N 588.016 -4.64973 -1.99082 0
M  V30 6294 C 586.314 -3.51914 -2.73994 0
M  V30 6295 C 587.015 -5.47119 -1.97574 0
M  V30 6296 N 585.991 -4.87925 -2.39645 0
M  V30 6297 H 589.793 -2.80464 -0.878478 0
M  V30 6298 H 587.307 -1.57686 -0.388463 0
M  V30 6299 H 589.304 -2.51389 -3.32579 0
M  V30 6300 H 587.964 -1.40722 -2.92621 0
M  V30 6301 H 588.975 -4.89358 -1.69557 0
M  V30 6302 H 585.652 -2.75372 -3.13809 0
M  V30 6303 H 587.042 -6.51254 -1.65282 0
M  V30 6304 N 589.762 0.448376 -1.51087 0
M  V30 6305 C 591.002 1.20832 -1.64861 0
M  V30 6306 C 591.366 1.88748 -0.351873 0
M  V30 6307 O 592.567 2.66307 -0.365265 0
M  V30 6308 C 590.838 2.20674 -2.81137 0
M  V30 6309 S 592.397 3.05303 -3.15176 0
M  V30 6310 H 589.215 0.40992 -0.580936 0
M  V30 6311 H 591.817 0.501624 -1.88955 0
M  V30 6312 H 590.521 1.69399 -3.73808 0
M  V30 6313 H 590.052 2.9594 -2.59198 0
M  V30 6314 H 592.067 4.22162 -2.60756 0
M  V30 6315 N 591.24 1.41047 0.703093 0
M  V30 6316 C 592.187 1.42302 1.81711 0
M  V30 6317 C 593.157 0.278336 1.63751 0
M  V30 6318 O 594.342 0.478266 1.84709 0
M  V30 6319 C 591.482 1.30362 3.19531 0
M  V30 6320 C 590.595 2.54638 3.48975 0
M  V30 6321 C 589.73 2.35047 4.76368 0
M  V30 6322 C 588.769 3.54837 4.98756 0
M  V30 6323 N 587.906 3.34363 6.1737 0
M  V30 6324 H 592.746 2.37516 1.79973 0
M  V30 6325 H 590.283 1.1795 0.878983 0
M  V30 6326 H 592.241 1.21443 3.99134 0
M  V30 6327 H 590.871 0.387602 3.20464 0
M  V30 6328 H 589.923 2.74037 2.63833 0
M  V30 6329 H 591.235 3.43766 3.61423 0
M  V30 6330 H 590.389 2.23552 5.64012 0
M  V30 6331 H 589.128 1.43363 4.66153 0
M  V30 6332 H 588.133 3.66795 4.09563 0
M  V30 6333 H 589.358 4.47464 5.10835 0
M  V30 6334 H 587.304 2.45373 6.08382 0
M  V30 6335 H 587.221 4.17063 6.30551 0
M  V30 6336 H 588.489 3.26626 7.07768 0
M  V30 6337 N 592.718 -0.936591 1.26751 0
M  V30 6338 C 593.65 -2.03991 1.045 0
M  V30 6339 C 594.663 -1.628 0.00394261 0
M  V30 6340 O 595.852 -1.76817 0.244526 0
M  V30 6341 C 592.952 -3.34218 0.561403 0
M  V30 6342 C 592.125 -4.04151 1.67274 0
M  V30 6343 C 591.184 -5.12651 1.1864 0
M  V30 6344 O 590.21 -5.37104 1.88437 0
M  V30 6345 N 591.412 -5.80488 0.037278 0
M  V30 6346 H 594.177 -2.23644 1.99508 0
M  V30 6347 H 591.738 -1.10638 1.18198 0
M  V30 6348 H 593.73 -4.04101 0.220136 0
M  V30 6349 H 592.3 -3.11203 -0.295211 0
M  V30 6350 H 591.52 -3.28121 2.18472 0
M  V30 6351 H 592.808 -4.47626 2.41885 0
M  V30 6352 H 592.206 -5.63064 -0.545494 0
M  V30 6353 H 590.763 -6.5134 -0.244877 0
M  V30 6354 N 594.196 -1.08629 -1.14182 0
M  V30 6355 C 595.126 -0.740003 -2.21464 0
M  V30 6356 C 596.107 0.278591 -1.67803 0
M  V30 6357 O 597.292 0.148461 -1.93632 0
M  V30 6358 C 594.422 -0.150952 -3.46972 0
M  V30 6359 C 593.376 -1.09815 -4.13672 0
M  V30 6360 C 592.702 -0.3712 -5.3341 0
M  V30 6361 C 594.002 -2.43722 -4.61949 0
M  V30 6362 H 595.696 -1.63697 -2.50686 0
M  V30 6363 H 593.242 -0.788526 -1.20492 0
M  V30 6364 H 595.195 0.103325 -4.21273 0
M  V30 6365 H 593.919 0.781164 -3.1712 0
M  V30 6366 H 592.578 -1.33756 -3.41328 0
M  V30 6367 H 592.226 0.564792 -4.99819 0
M  V30 6368 H 591.926 -1.00267 -5.78982 0
M  V30 6369 H 593.45 -0.12503 -6.10472 0
M  V30 6370 H 594.864 -2.24034 -5.27714 0
M  V30 6371 H 593.261 -3.02582 -5.18232 0
M  V30 6372 H 594.331 -3.05082 -3.76899 0
M  V30 6373 N 595.674 1.31259 -0.872281 0
M  V30 6374 C 596.637 2.26744 -0.334656 0
M  V30 6375 C 597.637 1.52307 0.515681 0
M  V30 6376 O 598.827 1.71148 0.324656 0
M  V30 6377 C 595.959 3.36841 0.524482 0
M  V30 6378 H 597.152 2.75812 -1.17762 0
M  V30 6379 H 594.705 1.42232 -0.648064 0
M  V30 6380 H 595.44 2.93069 1.38855 0
M  V30 6381 H 595.225 3.92009 -0.0844299 0
M  V30 6382 H 596.715 4.07944 0.892838 0
M  V30 6383 N 597.152 0.631951 1.44375 0
M  V30 6384 C 598.563 0.219036 1.85411 0
M  V30 6385 C 598.914 -1.22974 1.52879 0
M  V30 6386 O 598.039 -1.93579 0.967266 0
M  V30 6387 C 598.634 0.39075 3.36539 0
M  V30 6388 C 597.193 0.0323351 3.76386 0
M  V30 6389 C 596.34 0.703744 2.68221 0
M  V30 6390 H 599.291 0.837056 1.3483 0
M  V30 6391 H 599.312 -0.370056 3.78696 0
M  V30 6392 H 598.824 1.44527 3.60185 0
M  V30 6393 H 596.925 -1.02042 3.58355 0
M  V30 6394 H 597.038 0.442969 4.77048 0
M  V30 6395 H 595.402 0.138974 2.54321 0
M  V30 6396 H 596.185 1.76088 2.947 0
M  V30 6397 N 598.631 -1.53133 0.372548 0
M  V30 6398 C 599.88 -2.00539 -0.216115 0
M  V30 6399 C 600.193 -1.26374 -1.49295 0
M  V30 6400 O 601.399 -1.64404 -2.16064 0
M  V30 6401 C 599.855 -3.57253 -0.435678 0
M  V30 6402 C 599.463 -4.40302 0.82693 0
M  V30 6403 C 601.207 -4.12995 -0.981618 0
M  V30 6404 C 599.114 -5.88583 0.576567 0
M  V30 6405 H 598.044 -0.749246 -0.084536 0
M  V30 6406 H 600.695 -1.76771 0.492364 0
M  V30 6407 H 599.077 -3.77202 -1.20559 0
M  V30 6408 H 600.251 -4.32124 1.60017 0
M  V30 6409 H 598.566 -3.95699 1.29659 0
M  V30 6410 H 601.163 -5.21418 -1.18436 0
M  V30 6411 H 601.506 -3.68027 -1.94581 0
M  V30 6412 H 602.039 -3.96871 -0.271696 0
M  V30 6413 H 598.778 -6.37841 1.51128 0
M  V30 6414 H 598.298 -5.99592 -0.158047 0
M  V30 6415 H 599.977 -6.46676 0.204722 0
M  V30 6416 N 600.109 -0.101901 -1.5727 0
M  V30 6417 C 601.355 0.554864 -1.95686 0
M  V30 6418 C 601.71 1.65368 -0.983415 0
M  V30 6419 O 601.003 1.91597 -0.0105374 0
M  V30 6420 C 601.197 1.14898 -3.38427 0
M  V30 6421 C 601.026 0.109251 -4.49567 0
M  V30 6422 C 599.796 -0.316633 -5.04307 0
M  V30 6423 C 601.994 -0.665196 -5.0998 0
M  V30 6424 N 599.976 -1.34393 -5.99009 0
M  V30 6425 C 601.347 -1.54413 -6.00464 0
M  V30 6426 C 603.402 -0.717966 -4.92696 0
M  V30 6427 C 602.105 -2.47122 -6.75517 0
M  V30 6428 C 604.131 -1.63268 -5.68417 0
M  V30 6429 C 603.493 -2.49923 -6.58572 0
M  V30 6430 H 599.592 0.17317 -0.762585 0
M  V30 6431 H 602.176 -0.18605 -1.93809 0
M  V30 6432 H 600.347 1.85969 -3.40984 0
M  V30 6433 H 602.079 1.76867 -3.64006 0
M  V30 6434 H 598.834 0.0724419 -4.73545 0
M  V30 6435 H 599.258 -1.85598 -6.51062 0
M  V30 6436 H 603.9 -0.0621637 -4.22754 0
M  V30 6437 H 601.618 -3.13724 -7.44717 0
M  V30 6438 H 605.204 -1.67874 -5.57054 0
M  V30 6439 H 604.084 -3.19553 -7.16139 0
M  V30 6440 N 601.587 1.56661 0.17182 0
M  V30 6441 C 602.864 1.72838 0.915778 0
M  V30 6442 C 603.244 0.66316 2.00413 0
M  V30 6443 O 602.592 -0.322123 2.26218 0
M  V30 6444 C 602.802 3.16019 1.48097 0
M  V30 6445 C 604.15 3.76962 1.95408 0
M  V30 6446 O 605.174 3.19294 1.57892 0
M  V30 6447 O 604.033 4.78219 2.64516 0
M  V30 6448 H 601.127 0.705797 0.431021 0
M  V30 6449 H 603.673 1.68947 0.159689 0
M  V30 6450 H 602.445 3.85031 0.697618 0
M  V30 6451 H 602.068 3.24234 2.30126 0
M  V30 6452 N 603.065 -0.440357 1.51323 0
M  V30 6453 C 604.012 -1.53429 1.72419 0
M  V30 6454 C 604.982 -1.56165 0.565826 0
M  V30 6455 O 606.167 -1.73222 0.799917 0
M  V30 6456 C 603.307 -2.91169 1.85242 0
M  V30 6457 C 602.42 -2.97985 3.12777 0
M  V30 6458 C 601.555 -4.26829 3.16212 0
M  V30 6459 C 600.594 -4.27501 4.38074 0
M  V30 6460 N 599.731 -5.47866 4.39076 0
M  V30 6461 H 604.571 -1.34743 2.65797 0
M  V30 6462 H 602.108 -0.654608 1.31732 0
M  V30 6463 H 604.066 -3.71087 1.90658 0
M  V30 6464 H 602.696 -3.0842 0.952744 0
M  V30 6465 H 601.748 -2.10749 3.16685 0
M  V30 6466 H 603.06 -2.94342 4.02696 0
M  V30 6467 H 602.214 -5.15118 3.20527 0
M  V30 6468 H 600.953 -4.33124 2.24176 0
M  V30 6469 H 599.958 -3.37606 4.33938 0
M  V30 6470 H 601.183 -4.22873 5.31371 0
M  V30 6471 H 599.129 -5.54887 3.49909 0
M  V30 6472 H 599.046 -5.46091 5.22801 0
M  V30 6473 H 600.314 -6.38195 4.4758 0
M  V30 6474 N 604.543 -1.41418 -0.695603 0
M  V30 6475 C 605.473 -1.46035 -1.82197 0
M  V30 6476 C 606.454 -0.319025 -1.67082 0
M  V30 6477 O 607.639 -0.530462 -1.86815 0
M  V30 6478 C 604.769 -1.34179 -3.20333 0
M  V30 6479 C 603.723 -2.46123 -3.50154 0
M  V30 6480 C 603.049 -2.19332 -4.87645 0
M  V30 6481 C 604.349 -3.88463 -3.49133 0
M  V30 6482 H 606.043 -2.40303 -1.78591 0
M  V30 6483 H 603.589 -1.15663 -0.857797 0
M  V30 6484 H 605.542 -1.36021 -3.98844 0
M  V30 6485 H 604.266 -0.363952 -3.24566 0
M  V30 6486 H 602.925 -2.43563 -2.73994 0
M  V30 6487 H 602.573 -1.19891 -4.88503 0
M  V30 6488 H 602.273 -2.94344 -5.08562 0
M  V30 6489 H 603.797 -2.22889 -5.68465 0
M  V30 6490 H 605.211 -3.92738 -4.17648 0
M  V30 6491 H 603.608 -4.63158 -3.81582 0
M  V30 6492 H 604.678 -4.16617 -2.48109 0
M  V30 6493 N 606.021 0.929856 -1.27246 0
M  V30 6494 C 607.269 1.674 -1.13233 0
M  V30 6495 C 607.59 1.92311 0.322744 0
M  V30 6496 O 606.86 1.52784 1.22612 0
M  V30 6497 H 605.44 0.620411 -0.416052 0
M  V30 6498 H 608.102 1.11663 -1.59741 0
M  V30 6499 H 607.198 2.64308 -1.65975 0
M  V30 6500 N 607.499 1.09233 1.13605 0
M  V30 6501 C 608.409 0.741939 2.22559 0
M  V30 6502 C 609.425 -0.255236 1.72118 0
M  V30 6503 O 610.601 -0.0970747 2.01166 0
M  V30 6504 C 607.666 0.165595 3.46304 0
M  V30 6505 C 606.727 1.21846 4.11645 0
M  V30 6506 C 605.96 0.669526 5.29484 0
M  V30 6507 O 606.183 -0.508228 5.68131 0
M  V30 6508 O 605.117 1.42361 5.84822 0
M  V30 6509 H 608.943 1.65107 2.54899 0
M  V30 6510 H 606.528 0.866584 1.21699 0
M  V30 6511 H 608.41 -0.152592 4.21124 0
M  V30 6512 H 607.085 -0.716573 3.15669 0
M  V30 6513 H 605.992 1.58931 3.38662 0
M  V30 6514 H 607.325 2.07321 4.46407 0
M  V30 6515 N 608.977 -1.30795 0.87923 0
M  V30 6516 C 610.205 -2.00527 0.509548 0
M  V30 6517 C 610.62 -1.65944 -0.90045 0
M  V30 6518 O 609.977 -0.893525 -1.5913 0
M  V30 6519 C 610.028 -3.55276 0.667943 0
M  V30 6520 O 609.749 -3.88625 2.02242 0
M  V30 6521 C 611.25 -4.4228 0.300494 0
M  V30 6522 H 608.47 -0.641261 0.197549 0
M  V30 6523 H 611.014 -1.66813 1.18295 0
M  V30 6524 H 609.169 -3.87377 0.0419843 0
M  V30 6525 H 609.583 -4.83334 2.03688 0
M  V30 6526 H 611.057 -5.50061 0.462242 0
M  V30 6527 H 611.534 -4.32556 -0.76106 0
M  V30 6528 H 612.14 -4.15613 0.902536 0
M  V30 6529 N 610.455 -0.639598 -1.44038 0
M  V30 6530 C 611.685 -0.154586 -2.06021 0
M  V30 6531 C 612.093 1.17951 -1.47933 0
M  V30 6532 O 611.436 1.73627 -0.59994 0
M  V30 6533 C 611.498 0.0255459 -3.59491 0
M  V30 6534 C 611.162 -1.2317 -4.40089 0
M  V30 6535 C 612.159 -2.15735 -4.73027 0
M  V30 6536 C 609.844 -1.46949 -4.80324 0
M  V30 6537 C 611.838 -3.30382 -5.45093 0
M  V30 6538 C 609.525 -2.61891 -5.52138 0
M  V30 6539 C 610.523 -3.53433 -5.84443 0
M  V30 6540 O 610.211 -4.6637 -6.54793 0
M  V30 6541 H 609.943 -0.0808543 -0.671147 0
M  V30 6542 H 612.497 -0.876541 -1.85758 0
M  V30 6543 H 610.727 0.802733 -3.78276 0
M  V30 6544 H 612.416 0.466184 -4.03214 0
M  V30 6545 H 613.182 -1.98602 -4.42473 0
M  V30 6546 H 609.061 -0.765815 -4.54595 0
M  V30 6547 H 612.605 -4.01856 -5.70226 0
M  V30 6548 H 608.502 -2.78964 -5.82108 0
M  V30 6549 H 609.27 -4.6546 -6.73267 0
M  V30 6550 N 611.933 1.52934 -0.380664 0
M  V30 6551 C 612.88 2.26197 0.458641 0
M  V30 6552 C 613.85 1.27462 1.06502 0
M  V30 6553 O 615.035 1.56274 1.09467 0
M  V30 6554 C 612.175 3.06571 1.58456 0
M  V30 6555 C 611.288 4.20222 1.00189 0
M  V30 6556 C 610.423 4.88007 2.09815 0
M  V30 6557 C 609.462 5.93665 1.49092 0
M  V30 6558 N 608.599 6.55081 2.52613 0
M  V30 6559 H 613.439 2.975 -0.172595 0
M  V30 6560 H 610.976 1.4678 -0.0969426 0
M  V30 6561 H 612.934 3.51455 2.24801 0
M  V30 6562 H 611.564 2.37494 2.18624 0
M  V30 6563 H 610.616 3.79714 0.228292 0
M  V30 6564 H 611.928 4.96102 0.518064 0
M  V30 6565 H 611.082 5.36151 2.83948 0
M  V30 6566 H 609.821 4.11632 2.61555 0
M  V30 6567 H 608.826 5.44868 0.7348 0
M  V30 6568 H 610.051 6.71969 0.981582 0
M  V30 6569 H 607.997 5.8155 3.03538 0
M  V30 6570 H 607.914 7.26548 2.08961 0
M  V30 6571 H 609.182 7.07871 3.26402 0
M  V30 6572 N 613.412 0.11024 1.57214 0
M  V30 6573 C 614.689 -0.592956 1.86396 0
M  V30 6574 C 615.069 -1.85379 1.00985 0
M  V30 6575 O 614.417 -2.28337 0.0863592 0
M  V30 6576 C 614.627 -0.893816 3.3736 0
M  V30 6577 C 615.975 -1.25069 4.05762 0
M  V30 6578 O 616.999 -0.984356 3.42329 0
M  V30 6579 O 615.858 -1.75017 5.17718 0
M  V30 6580 H 612.952 -0.29828 0.771335 0
M  V30 6581 H 615.498 0.144083 1.69087 0
M  V30 6582 H 614.27 2.6031e-05 3.913 0
M  V30 6583 H 613.893 -1.68631 3.60068 0
M  V30 6584 N 614.89 -1.56749 -0.16351 0
M  V30 6585 C 615.84 -1.93424 -1.20712 0
M  V30 6586 C 616.824 -0.803469 -1.39403 0
M  V30 6587 O 618.016 -1.06675 -1.41243 0
M  V30 6588 C 615.145 -2.30431 -2.54473 0
M  V30 6589 C 614.231 -3.5004 -2.39443 0
M  V30 6590 N 614.622 -4.67058 -1.9414 0
M  V30 6591 C 612.92 -3.548 -2.70246 0
M  V30 6592 C 613.621 -5.49184 -1.9176 0
M  V30 6593 N 612.597 -4.9044 -2.34457 0
M  V30 6594 H 616.399 -2.8138 -0.848681 0
M  V30 6595 H 613.913 -1.58089 -0.371717 0
M  V30 6596 H 615.91 -2.54903 -3.29894 0
M  V30 6597 H 614.57 -1.43818 -2.91112 0
M  V30 6598 H 615.581 -4.91128 -1.64357 0
M  V30 6599 H 612.258 -2.78685 -3.10871 0
M  V30 6600 H 613.648 -6.5297 -1.58366 0
M  V30 6601 N 616.368 0.432326 -1.51554 0
M  V30 6602 C 617.278 1.55023 -1.76082 0
M  V30 6603 C 618.294 1.61593 -0.645265 0
M  V30 6604 O 619.47 1.78742 -0.928086 0
M  V30 6605 C 616.535 2.90964 -1.88523 0
M  V30 6606 C 615.596 2.9447 -3.12388 0
M  V30 6607 C 614.829 4.23926 -3.24225 0
M  V30 6608 O 615.052 5.16576 -2.4188 0
M  V30 6609 O 613.986 4.33818 -4.17235 0
M  V30 6610 H 617.812 1.37238 -2.70923 0
M  V30 6611 H 615.397 0.615845 -1.36117 0
M  V30 6612 H 617.279 3.71633 -1.98662 0
M  V30 6613 H 615.954 3.08865 -0.9687 0
M  V30 6614 H 614.861 2.12737 -3.07723 0
M  V30 6615 H 616.194 2.81514 -4.03746 0
M  V30 6616 N 617.846 1.41785 0.688094 0
M  V30 6617 C 618.794 1.44436 1.82321 0
M  V30 6618 C 619.788 0.321544 1.6632 0
M  V30 6619 O 620.994 0.493931 1.73091 0
M  V30 6620 H 617.369 0.452084 0.600936 0
M  V30 6621 H 619.34 2.40087 1.77202 0
M  V30 6622 C 618.089 1.35071 3.20392 0
M  V30 6623 H 617.412 2.2076 3.33324 0
M  V30 6624 H 618.852 1.40988 3.99873 0
M  V30 6625 C 617.311 0.0639127 3.36839 0
M  V30 6626 O 617.841 -0.888495 3.91751 0
M  V30 6627 N 616.047 -0.0146114 2.90596 0
M  V30 6628 H 615.594 0.761191 2.46097 0
M  V30 6629 H 615.552 -0.874988 3.01979 0
M  V30 6630 N 619.324 -0.923095 1.27737 0
M  V30 6631 C 620.573 -1.66581 1.13727 0
M  V30 6632 C 620.886 -1.9304 -0.315433 0
M  V30 6633 O 622.092 -2.65309 -0.57651 0
M  V30 6634 C 620.548 -3.00047 1.98745 0
M  V30 6635 C 620.156 -2.8127 3.48699 0
M  V30 6636 C 621.9 -3.77887 1.93395 0
M  V30 6637 C 619.807 -4.1032 4.25901 0
M  V30 6638 H 618.737 -0.624834 0.422017 0
M  V30 6639 H 621.388 -1.02514 1.52194 0
M  V30 6640 H 619.77 -3.65197 1.53125 0
M  V30 6641 H 620.944 -2.24859 4.02213 0
M  V30 6642 H 619.259 -2.16854 3.55476 0
M  V30 6643 H 621.856 -4.73526 2.48348 0
M  V30 6644 H 622.199 -4.06264 0.908605 0
M  V30 6645 H 622.732 -3.19541 2.36935 0
M  V30 6646 H 619.471 -3.8712 5.28978 0
M  V30 6647 H 618.991 -4.66377 3.77163 0
M  V30 6648 H 620.67 -4.78648 4.35321 0
M  V30 6649 N 620.802 -1.09834 -1.13024 0
M  V30 6650 C 622.048 -0.83819 -1.84668 0
M  V30 6651 C 622.381 0.634645 -1.83537 0
M  V30 6652 O 621.656 1.46753 -1.27647 0
M  V30 6653 C 621.939 -1.37933 -3.32636 0
M  V30 6654 C 621.792 -2.91857 -3.42257 0
M  V30 6655 C 623.111 -1.01654 -4.28199 0
M  V30 6656 H 620.23 -0.30595 -0.670495 0
M  V30 6657 H 622.872 -1.36044 -1.32635 0
M  V30 6658 H 621.022 -0.935111 -3.77078 0
M  V30 6659 H 622.694 -3.44759 -3.06495 0
M  V30 6660 H 620.937 -3.28776 -2.83 0
M  V30 6661 H 621.608 -3.24799 -4.46329 0
M  V30 6662 H 624.084 -1.39973 -3.9185 0
M  V30 6663 H 622.96 -1.42217 -5.30156 0
M  V30 6664 H 623.221 0.0747794 -4.42037 0
M  V30 6665 N 622.28 1.30327 -0.886154 0
M  V30 6666 C 623.529 1.95373 -0.501243 0
M  V30 6667 C 623.842 1.70722 0.954634 0
M  V30 6668 O 625.048 2.29761 1.44644 0
M  V30 6669 C 623.504 3.49828 -0.845493 0
M  V30 6670 C 623.112 3.83296 -2.31922 0
M  V30 6671 C 624.856 4.2118 -0.529838 0
M  V30 6672 C 622.763 5.30935 -2.60504 0
M  V30 6673 H 621.693 0.731274 -0.183722 0
M  V30 6674 H 624.344 1.48258 -1.08129 0
M  V30 6675 H 622.726 3.95522 -0.19452 0
M  V30 6676 H 623.9 3.48508 -3.01461 0
M  V30 6677 H 622.215 3.2505 -2.60253 0
M  V30 6678 H 624.812 5.29825 -0.720401 0
M  V30 6679 H 625.155 4.12902 0.530828 0
M  V30 6680 H 625.688 3.81173 -1.13806 0
M  V30 6681 H 622.427 5.44265 -3.65316 0
M  V30 6682 H 621.947 5.67019 -1.95575 0
M  V30 6683 H 623.626 5.98381 -2.46066 0
M  V30 6684 N 623.758 0.647228 1.43697 0
M  V30 6685 C 624.721 -0.0385101 2.29168 0
M  V30 6686 C 625.721 -0.756487 1.41894 0
M  V30 6687 O 626.911 -0.598641 1.63591 0
M  V30 6688 C 624.043 -1.06524 3.23829 0
M  V30 6689 H 625.236 0.713445 2.9129 0
M  V30 6690 H 622.789 0.408153 1.50877 0
M  V30 6691 H 623.524 -1.84664 2.66589 0
M  V30 6692 H 623.309 -0.554147 3.88164 0
M  V30 6693 H 624.799 -1.54432 3.87996 0
M  V30 6694 N 625.236 -1.5273 0.388769 0
M  V30 6695 C 626.183 -2.26437 -0.446639 0
M  V30 6696 C 627.153 -1.28025 -1.05824 0
M  V30 6697 O 628.338 -1.56852 -1.08637 0
M  V30 6698 C 625.478 -3.07407 -1.56828 0
M  V30 6699 C 624.591 -4.20747 -0.979589 0
M  V30 6700 C 623.726 -4.89113 -2.07224 0
M  V30 6701 C 622.765 -5.94447 -1.45942 0
M  V30 6702 N 621.902 -6.56411 -2.49135 0
M  V30 6703 H 626.742 -2.97404 0.18837 0
M  V30 6704 H 624.279 -1.46727 0.104725 0
M  V30 6705 H 626.237 -3.52642 -2.22934 0
M  V30 6706 H 624.867 -2.3865 -2.17361 0
M  V30 6707 H 623.919 -3.7983 -0.208151 0
M  V30 6708 H 625.231 -4.9637 -0.491747 0
M  V30 6709 H 624.385 -5.3765 -2.81101 0
M  V30 6710 H 623.124 -4.13013 -2.59368 0
M  V30 6711 H 622.129 -5.4525 -0.705894 0
M  V30 6712 H 623.354 -6.7248 -0.945932 0
M  V30 6713 H 621.3 -5.83152 -3.00449 0
M  V30 6714 H 621.217 -7.27645 -2.05105 0
M  V30 6715 H 622.485 -7.09592 -3.22644 0
M  V30 6716 N 626.714 -0.118576 -1.57153 0
M  V30 6717 C 627.647 0.869046 -2.11004 0
M  V30 6718 C 628.625 1.26115 -1.02634 0
M  V30 6719 O 629.809 1.36228 -1.30285 0
M  V30 6720 C 626.936 2.16297 -2.6064 0
M  V30 6721 C 625.982 1.91896 -3.80891 0
M  V30 6722 S 626.815 1.13562 -5.2332 0
M  V30 6723 C 627.971 2.44135 -5.76324 0
M  V30 6724 H 628.204 0.411005 -2.94445 0
M  V30 6725 H 625.737 0.0951891 -1.54106 0
M  V30 6726 H 627.695 2.90642 -2.89892 0
M  V30 6727 H 626.356 2.59219 -1.77382 0
M  V30 6728 H 625.549 2.8777 -4.13768 0
M  V30 6729 H 625.151 1.25672 -3.52253 0
M  V30 6730 H 627.443 3.39976 -5.86022 0
M  V30 6731 H 628.386 2.15803 -6.74414 0
M  V30 6732 H 628.794 2.53483 -5.04387 0
M  V30 6733 N 628.193 1.56834 0.155195 0
M  V30 6734 C 629.47 1.73799 0.897395 0
M  V30 6735 C 629.85 0.684379 1.99698 0
M  V30 6736 O 629.198 -0.298111 2.26547 0
M  V30 6737 C 629.408 3.17572 1.44737 0
M  V30 6738 C 630.756 3.79014 1.91399 0
M  V30 6739 O 631.78 3.20951 1.54496 0
M  V30 6740 O 630.639 4.80998 2.59429 0
M  V30 6741 H 627.733 0.710329 0.423511 0
M  V30 6742 H 630.279 1.69107 0.141761 0
M  V30 6743 H 629.051 3.85749 0.656741 0
M  V30 6744 H 628.674 3.26657 2.26674 0
M  V30 6745 N 629.671 -0.424282 1.51781 0
M  V30 6746 C 630.896 -1.19928 1.6921 0
M  V30 6747 C 631.321 -1.8392 0.394355 0
M  V30 6748 O 630.679 -1.69371 -0.646778 0
M  V30 6749 C 630.727 -2.24937 2.81843 0
M  V30 6750 O 629.831 -3.3073 2.46356 0
M  V30 6751 H 629.172 -0.35078 0.563781 0
M  V30 6752 H 631.702 -0.499401 1.98412 0
M  V30 6753 H 631.712 -2.69512 3.06312 0
M  V30 6754 H 630.387 -1.77742 3.76006 0
M  V30 6755 H 628.964 -2.9154 2.32505 0
M  V30 6756 N 631.149 -1.42148 -0.680565 0
M  V30 6757 C 632.377 -1.45696 -1.46902 0
M  V30 6758 C 632.792 -0.0665858 -1.88683 0
M  V30 6759 O 632.149 0.917436 -1.57764 0
M  V30 6760 C 632.2 -2.37898 -2.72188 0
M  V30 6761 O 631.921 -3.71526 -2.32163 0
M  V30 6762 C 633.422 -2.50407 -3.65802 0
M  V30 6763 H 630.642 -0.495729 -0.45221 0
M  V30 6764 H 633.186 -1.866 -0.836709 0
M  V30 6765 H 631.341 -2.00263 -3.31622 0
M  V30 6766 H 631.755 -4.20849 -3.13027 0
M  V30 6767 H 633.229 -3.19056 -4.50452 0
M  V30 6768 H 633.706 -1.5401 -4.11312 0
M  V30 6769 H 634.312 -2.8874 -3.12265 0
M  V30 6770 N 632.627 0.916307 -1.28225 0
M  V30 6771 C 633.59 1.99996 -1.11957 0
M  V30 6772 C 634.59 1.60688 -0.0600152 0
M  V30 6773 O 635.78 1.71499 -0.30558 0
M  V30 6774 C 632.912 3.33458 -0.708411 0
M  V30 6775 H 634.105 2.15858 -2.08196 0
M  V30 6776 H 631.658 1.09863 -1.11175 0
M  V30 6777 H 632.393 3.23297 0.254859 0
M  V30 6778 H 632.178 3.63349 -1.47377 0
M  V30 6779 H 633.668 4.13014 -0.617164 0
M  V30 6780 N 634.105 1.10431 1.1244 0
M  V30 6781 C 635.053 0.747974 2.20246 0
M  V30 6782 C 636.047 -0.255848 1.67457 0
M  V30 6783 O 637.253 -0.116221 1.79624 0
M  V30 6784 H 633.628 0.223946 0.71788 0
M  V30 6785 H 635.599 1.6661 2.47556 0
M  V30 6786 C 634.348 0.195957 3.47147 0
M  V30 6787 H 633.671 0.959606 3.88113 0
M  V30 6788 H 635.111 -0.0153154 4.23997 0
M  V30 6789 C 633.57 -1.07132 3.19413 0
M  V30 6790 O 634.1 -2.15284 3.3914 0
M  V30 6791 N 632.306 -0.98994 2.73219 0
M  V30 6792 H 631.853 -0.109736 2.57366 0
M  V30 6793 H 631.811 -1.83856 2.55038 0
M  V30 6794 N 635.583 -1.29855 0.893053 0
M  V30 6795 C 636.493 -2.31661 0.370157 0
M  V30 6796 C 637.509 -1.65677 -0.531723 0
M  V30 6797 O 638.685 -1.9691 -0.422902 0
M  V30 6798 C 635.75 -3.44388 -0.399741 0
M  V30 6799 C 634.811 -4.2598 0.532861 0
M  V30 6800 C 634.044 -5.33324 -0.200388 0
M  V30 6801 O 634.267 -5.52305 -1.42531 0
M  V30 6802 O 633.201 -6.00188 0.453668 0
M  V30 6803 H 637.027 -2.78354 1.2146 0
M  V30 6804 H 634.612 -1.34171 0.657153 0
M  V30 6805 H 636.494 -4.13037 -0.835358 0
M  V30 6806 H 635.169 -2.99815 -1.22035 0
M  V30 6807 H 634.076 -3.59998 1.01746 0
M  V30 6808 H 635.409 -4.74178 1.3197 0
M  V30 6809 N 637.061 -0.65484 -1.43351 0
M  V30 6810 C 638.307 -0.169142 -2.02093 0
M  V30 6811 C 638.64 1.21431 -1.51553 0
M  V30 6812 O 637.915 1.81105 -0.709317 0
M  V30 6813 C 638.198 -0.181775 -3.59641 0
M  V30 6814 C 638.051 -1.59926 -4.20409 0
M  V30 6815 C 639.37 0.480945 -4.37464 0
M  V30 6816 H 636.489 -0.0629371 -0.734308 0
M  V30 6817 H 639.131 -0.835833 -1.70628 0
M  V30 6818 H 637.281 0.385918 -3.86578 0
M  V30 6819 H 638.953 -2.21766 -4.04497 0
M  V30 6820 H 637.196 -2.14605 -3.76998 0
M  V30 6821 H 637.867 -1.55994 -5.295 0
M  V30 6822 H 640.343 -0.00208273 -4.161 0
M  V30 6823 H 639.219 0.441384 -5.47122 0
M  V30 6824 H 639.48 1.55533 -4.13838 0
M  V30 6825 N 638.539 1.52521 -0.396863 0
M  V30 6826 C 639.449 2.30403 0.44178 0
M  V30 6827 C 640.465 1.37625 1.06468 0
M  V30 6828 O 641.641 1.70697 1.06886 0
M  V30 6829 C 638.706 3.1013 1.54986 0
M  V30 6830 C 637.767 4.18628 0.951279 0
M  V30 6831 C 637 4.94543 2.00655 0
M  V30 6832 O 637.223 4.70629 3.22281 0
M  V30 6833 O 636.157 5.797 1.61962 0
M  V30 6834 H 639.983 3.03087 -0.192892 0
M  V30 6835 H 637.568 1.48537 -0.16038 0
M  V30 6836 H 639.45 3.59816 2.19341 0
M  V30 6837 H 638.125 2.40251 2.16935 0
M  V30 6838 H 637.032 3.73119 0.270773 0
M  V30 6839 H 638.365 4.90763 0.375887 0
M  V30 6840 N 640.017 0.126909 1.57088 0
M  V30 6841 C 640.98 -0.806097 2.14557 0
M  V30 6842 C 641.98 -1.18918 1.08236 0
M  V30 6843 O 643.17 -1.11339 1.33975 0
M  V30 6844 C 640.302 -2.09116 2.69227 0
M  V30 6845 H 641.495 -0.306522 2.98329 0
M  V30 6846 H 639.048 -0.122393 1.5582 0
M  V30 6847 H 639.783 -2.63486 1.89065 0
M  V30 6848 H 639.568 -1.82588 3.46993 0
M  V30 6849 H 641.058 -2.75794 3.13572 0
M  V30 6850 N 641.495 -1.56914 -0.146875 0
M  V30 6851 C 642.741 -1.83628 -0.860741 0
M  V30 6852 C 643.074 -0.708528 -1.80813 0
M  V30 6853 O 642.349 0.287838 -1.92358 0
M  V30 6854 C 642.632 -3.20836 -1.63511 0
M  V30 6855 C 642.485 -4.44174 -0.709199 0
M  V30 6856 C 643.804 -3.55268 -2.59756 0
M  V30 6857 H 640.923 -0.667949 -0.311468 0
M  V30 6858 H 643.565 -1.89582 -0.125936 0
M  V30 6859 H 641.715 -3.15891 -2.26153 0
M  V30 6860 H 643.387 -4.61205 -0.0937781 0
M  V30 6861 H 641.63 -4.33796 -0.0187856 0
M  V30 6862 H 642.301 -5.36785 -1.28707 0
M  V30 6863 H 644.777 -3.60824 -2.07232 0
M  V30 6864 H 643.653 -4.52303 -3.10987 0
M  V30 6865 H 643.914 -2.81231 -3.41118 0
M  V30 6866 N 642.974 0.416227 -1.52004 0
M  V30 6867 C 643.921 1.50666 -1.74838 0
M  V30 6868 C 644.891 1.55245 -0.590599 0
M  V30 6869 O 646.076 1.71928 -0.827374 0
M  V30 6870 C 643.216 2.88185 -1.89851 0
M  V30 6871 C 642.329 2.92971 -3.17478 0
M  V30 6872 C 641.464 4.21745 -3.22962 0
M  V30 6873 C 640.503 4.20478 -4.4482 0
M  V30 6874 N 639.64 5.40811 -4.47736 0
M  V30 6875 H 644.48 1.30498 -2.67907 0
M  V30 6876 H 642.017 0.633568 -1.32757 0
M  V30 6877 H 643.975 3.68007 -1.96537 0
M  V30 6878 H 642.605 3.06865 -1.00169 0
M  V30 6879 H 641.657 2.05684 -3.19997 0
M  V30 6880 H 642.969 2.87899 -4.07328 0
M  V30 6881 H 642.123 5.09954 -3.28682 0
M  V30 6882 H 640.862 4.29503 -2.31038 0
M  V30 6883 H 639.867 3.30659 -4.39254 0
M  V30 6884 H 641.092 4.14366 -5.38031 0
M  V30 6885 H 639.038 5.4925 -3.58692 0
M  V30 6886 H 638.955 5.37705 -5.31422 0
M  V30 6887 H 640.223 6.30993 -4.57676 0
M  V30 6888 N 644.452 1.42507 0.673017 0
M  V30 6889 C 645.698 1.43284 1.43519 0
M  V30 6890 C 646.031 0.049668 1.94136 0
M  V30 6891 O 645.306 -0.926369 1.71022 0
M  V30 6892 C 645.589 2.45874 2.63093 0
M  V30 6893 C 645.442 3.93388 2.18096 0
M  V30 6894 C 646.761 2.45431 3.6531 0
M  V30 6895 H 643.88 0.521752 0.520522 0
M  V30 6896 H 646.522 1.73932 0.764701 0
M  V30 6897 H 644.672 2.19869 3.20296 0
M  V30 6898 H 646.344 4.30379 1.66046 0
M  V30 6899 H 644.587 4.07169 1.49652 0
M  V30 6900 H 645.258 4.60752 3.03993 0
M  V30 6901 H 647.734 2.68561 3.17827 0
M  V30 6902 H 646.61 3.19189 4.46553 0
M  V30 6903 H 646.871 1.48092 4.16559 0
M  V30 6904 N 645.93 -0.909495 1.28709 0
M  V30 6905 C 646.88 -1.9991 1.09636 0
M  V30 6906 C 647.864 -1.60889 0.01872 0
M  V30 6907 O 649.056 -1.75374 0.239338 0
M  V30 6908 C 646.185 -3.34675 0.764702 0
M  V30 6909 C 645.271 -3.80085 1.8814 0
M  V30 6910 N 645.662 -3.97824 3.12361 0
M  V30 6911 C 643.96 -4.09278 1.77221 0
M  V30 6912 C 644.661 -4.35928 3.85151 0
M  V30 6913 N 643.637 -4.44426 3.13028 0
M  V30 6914 H 647.439 -2.11681 2.03883 0
M  V30 6915 H 644.953 -1.09763 1.1969 0
M  V30 6916 H 646.95 -4.12426 0.609132 0
M  V30 6917 H 645.61 -3.24255 -0.169952 0
M  V30 6918 H 646.621 -3.83626 3.47925 0
M  V30 6919 H 643.298 -4.0747 0.909621 0
M  V30 6920 H 644.688 -4.57581 4.92006 0
M  V30 6921 N 647.408 -1.11026 -1.11852 0
M  V30 6922 C 648.633 -0.879064 -1.87849 0
M  V30 6923 C 649.058 0.565406 -1.79401 0
M  V30 6924 O 648.416 1.39886 -1.15333 0
M  V30 6925 C 648.464 -1.33985 -3.34784 0
M  V30 6926 O 647.568 -0.508803 -4.09249 0
M  V30 6927 H 646.909 -0.316992 -0.583448 0
M  V30 6928 H 649.439 -1.47863 -1.41413 0
M  V30 6929 H 649.449 -1.33248 -3.85628 0
M  V30 6930 H 648.124 -2.39172 -3.40249 0
M  V30 6931 H 646.701 -0.581913 -3.68332 0
M  V30 6932 N 648.886 1.2938 -0.899927 0
M  V30 6933 C 650.133 1.9555 -0.525963 0
M  V30 6934 C 650.461 1.70945 0.927789 0
M  V30 6935 O 649.716 1.01545 1.67293 0
M  V30 6936 C 650.015 3.49114 -0.765113 0
M  V30 6937 C 649.681 3.93796 -2.19626 0
M  V30 6938 C 648.343 4.05707 -2.58758 0
M  V30 6939 C 650.695 4.16883 -3.12823 0
M  V30 6940 C 648.023 4.38074 -3.90267 0
M  V30 6941 C 650.375 4.50725 -4.4388 0
M  V30 6942 C 649.039 4.60845 -4.82885 0
M  V30 6943 H 648.309 0.715569 -0.192463 0
M  V30 6944 H 650.956 1.53972 -1.13863 0
M  V30 6945 H 649.261 3.91738 -0.069531 0
M  V30 6946 H 650.958 3.98409 -0.455144 0
M  V30 6947 H 647.548 3.85042 -1.88256 0
M  V30 6948 H 651.732 4.07147 -2.83804 0
M  V30 6949 H 646.988 4.44112 -4.20207 0
M  V30 6950 H 651.162 4.67538 -5.16121 0
M  V30 6951 H 648.789 4.85681 -5.84823 0
M  V30 6952 N 650.364 0.662433 1.43002 0
M  V30 6953 C 651.775 0.258315 1.84904 0
M  V30 6954 C 652.126 -1.19703 1.55453 0
M  V30 6955 O 651.251 -1.91484 1.00811 0
M  V30 6956 C 651.846 0.462047 3.35635 0
M  V30 6957 C 650.405 0.112165 3.76233 0
M  V30 6958 C 649.552 0.760479 2.66668 0
M  V30 6959 H 652.503 0.865467 1.33024 0
M  V30 6960 H 652.524 -0.289646 3.79396 0
M  V30 6961 H 652.036 1.52135 3.57039 0
M  V30 6962 H 650.137 -0.944179 3.60439 0
M  V30 6963 H 650.25 0.544058 4.76001 0
M  V30 6964 H 648.614 0.192887 2.53969 0
M  V30 6965 H 649.397 1.82299 2.90898 0
M  V30 6966 N 651.842 -1.52309 0.404946 0
M  V30 6967 C 653.07 -2.06185 -0.171818 0
M  V30 6968 C 653.485 -1.27536 -1.39212 0
M  V30 6969 O 652.842 -0.326112 -1.79563 0
M  V30 6970 C 652.893 -3.57647 -0.526417 0
M  V30 6971 O 652.614 -4.3332 0.645417 0
M  V30 6972 C 654.115 -4.27925 -1.15736 0
M  V30 6973 H 651.335 -0.670632 -0.0222328 0
M  V30 6974 H 653.879 -1.96259 0.574692 0
M  V30 6975 H 652.034 -3.67595 -1.22282 0
M  V30 6976 H 652.448 -5.23328 0.35042 0
M  V30 6977 H 653.922 -5.35093 -1.35572 0
M  V30 6978 H 654.399 -3.84134 -2.12926 0
M  V30 6979 H 655.005 -4.22335 -0.501281 0
M  V30 6980 N 653.32 -0.135238 -1.57019 0
M  V30 6981 C 654.25 0.805235 -2.19176 0
M  V30 6982 C 655.231 1.2656 -1.13651 0
M  V30 6983 O 656.416 1.32528 -1.4195 0
M  V30 6984 C 653.546 2.04914 -2.80406 0
M  V30 6985 C 652.5 1.72598 -3.91655 0
M  V30 6986 C 651.826 3.04154 -4.39766 0
M  V30 6987 C 653.126 0.981709 -5.12991 0
M  V30 6988 H 654.82 0.287232 -2.98019 0
M  V30 6989 H 652.366 0.136714 -1.4335 0
M  V30 6990 H 654.319 2.71178 -3.22553 0
M  V30 6991 H 653.043 2.59067 -1.98877 0
M  V30 6992 H 651.702 1.08717 -3.50109 0
M  V30 6993 H 651.35 3.56274 -3.55075 0
M  V30 6994 H 651.05 2.83299 -5.14796 0
M  V30 6995 H 652.574 3.71509 -4.84576 0
M  V30 6996 H 653.988 1.5462 -5.52056 0
M  V30 6997 H 652.385 0.873533 -5.93708 0
M  V30 6998 H 653.455 -0.0286887 -4.84892 0
M  V30 6999 N 654.798 1.5699 0.138552 0
M  V30 7000 C 655.745 1.98899 1.17081 0
M  V30 7001 C 656.715 0.857922 1.42228 0
M  V30 7002 O 657.9 1.12065 1.54422 0
M  V30 7003 C 655.04 2.38189 2.4972 0
M  V30 7004 C 654.153 3.64624 2.31674 0
M  V30 7005 C 653.288 3.9298 3.57407 0
M  V30 7006 C 652.327 5.1266 3.34435 0
M  V30 7007 N 651.464 5.36983 4.5232 0
M  V30 7008 H 656.304 2.86881 0.80642 0
M  V30 7009 H 653.841 1.41925 0.386727 0
M  V30 7010 H 655.799 2.59 3.2707 0
M  V30 7011 H 654.429 1.53275 2.84089 0
M  V30 7012 H 653.481 3.51542 1.45337 0
M  V30 7013 H 654.793 4.52131 2.10664 0
M  V30 7014 H 653.947 4.14335 4.43183 0
M  V30 7015 H 652.686 3.03912 3.8143 0
M  V30 7016 H 651.691 4.9117 2.47048 0
M  V30 7017 H 652.916 6.03288 3.11802 0
M  V30 7018 H 650.862 4.50871 4.76499 0
M  V30 7019 H 650.779 6.18775 4.34343 0
M  V30 7020 H 652.047 5.62842 5.39285 0
M  V30 7021 N 656.276 -0.40816 1.52223 0
M  V30 7022 C 657.523 -1.15502 1.66329 0
M  V30 7023 C 657.851 -1.90474 0.393701 0
M  V30 7024 O 657.106 -1.85507 -0.623356 0
M  V30 7025 C 657.405 -2.17422 2.83659 0
M  V30 7026 C 657.071 -1.5925 4.21841 0
M  V30 7027 C 655.733 -1.4311 4.59427 0
M  V30 7028 C 658.085 -1.16776 5.0795 0
M  V30 7029 C 655.413 -0.830148 5.80797 0
M  V30 7030 C 657.765 -0.580988 6.29926 0
M  V30 7031 C 656.429 -0.406729 6.6626 0
M  V30 7032 H 655.699 -0.422653 0.608642 0
M  V30 7033 H 658.346 -0.442114 1.86327 0
M  V30 7034 H 656.651 -2.94861 2.58001 0
M  V30 7035 H 658.348 -2.75084 2.9177 0
M  V30 7036 H 654.938 -1.72796 3.92224 0
M  V30 7037 H 659.122 -1.28055 4.79495 0
M  V30 7038 H 654.378 -0.68316 6.07571 0
M  V30 7039 H 658.552 -0.243488 6.95974 0
M  V30 7040 H 656.179 0.0610366 7.60175 0
M  V30 7041 N 657.755 -1.42862 -0.66545 0
M  V30 7042 C 659.002 -1.4383 -1.42546 0
M  V30 7043 C 659.33 -0.0581114 -1.94413 0
M  V30 7044 O 658.585 0.935002 -1.71919 0
M  V30 7045 C 658.884 -2.4175 -2.63233 0
M  V30 7046 C 658.55 -3.87915 -2.29854 0
M  V30 7047 C 657.212 -4.27726 -2.20463 0
M  V30 7048 C 659.564 -4.80074 -2.02924 0
M  V30 7049 C 656.892 -5.57666 -1.82279 0
M  V30 7050 C 659.244 -6.10366 -1.66242 0
M  V30 7051 C 657.908 -6.49167 -1.55367 0
M  V30 7052 H 657.178 -0.52631 -0.521612 0
M  V30 7053 H 659.825 -1.75863 -0.757914 0
M  V30 7054 H 658.13 -2.03077 -3.35063 0
M  V30 7055 H 659.827 -2.39759 -3.21429 0
M  V30 7056 H 656.417 -3.564 -2.3807 0
M  V30 7057 H 660.601 -4.50097 -2.09108 0
M  V30 7058 H 655.857 -5.8658 -1.72436 0
M  V30 7059 H 660.031 -6.81258 -1.44432 0
M  V30 7060 H 657.658 -7.49761 -1.2555 0
M  V30 7061 N 659.233 0.902656 -1.29189 0
M  V30 7062 C 660.644 1.46809 -1.15343 0
M  V30 7063 C 660.995 1.94568 0.252517 0
M  V30 7064 O 660.12 1.83454 1.14777 0
M  V30 7065 C 660.715 2.66829 -2.08776 0
M  V30 7066 C 659.274 3.19518 -1.98961 0
M  V30 7067 C 658.421 1.92212 -1.99874 0
M  V30 7068 H 661.372 0.714282 -1.41717 0
M  V30 7069 H 661.393 3.42465 -1.65826 0
M  V30 7070 H 660.905 2.32039 -3.11094 0
M  V30 7071 H 659.006 3.59008 -0.99721 0
M  V30 7072 H 659.119 3.84016 -2.86477 0
M  V30 7073 H 657.483 2.0979 -1.44431 0
M  V30 7074 H 658.266 1.59702 -3.03891 0
M  V30 7075 N 660.711 1.11618 1.11262 0
M  V30 7076 C 661.674 0.779447 2.15539 0
M  V30 7077 C 662.674 -0.202081 1.59525 0
M  V30 7078 O 663.864 0.0226356 1.74185 0
M  V30 7079 C 660.996 0.15674 3.40539 0
M  V30 7080 H 662.189 1.70324 2.4684 0
M  V30 7081 H 659.742 0.918298 1.26479 0
M  V30 7082 H 660.477 -0.777186 3.1485 0
M  V30 7083 H 660.262 0.863308 3.82478 0
M  V30 7084 H 661.752 -0.062661 4.17553 0
M  V30 7085 N 662.189 -1.289 0.906776 0
M  V30 7086 C 663.414 -1.99939 0.551303 0
M  V30 7087 C 663.839 -1.67366 -0.858496 0
M  V30 7088 O 663.197 -0.902176 -1.57259 0
M  V30 7089 C 663.245 -3.52523 0.758937 0
M  V30 7090 O 662.349 -4.11983 -0.185308 0
M  V30 7091 H 661.69 -0.628376 0.214568 0
M  V30 7092 H 664.22 -1.64225 1.2203 0
M  V30 7093 H 664.23 -4.02522 0.666329 0
M  V30 7094 H 662.905 -3.75566 1.78671 0
M  V30 7095 H 661.482 -3.72873 -0.0445577 0
M  V30 7096 N 663.667 -0.670007 -1.42649 0
M  V30 7097 C 664.63 0.00204659 -2.292 0
M  V30 7098 C 665.63 0.733817 -1.4308 0
M  V30 7099 O 666.82 0.57254 -1.64522 0
M  V30 7100 C 663.952 1.01359 -3.25483 0
M  V30 7101 H 665.145 -0.759696 -2.90118 0
M  V30 7102 H 662.698 -0.432105 -1.50208 0
M  V30 7103 H 663.433 1.80399 -2.69493 0
M  V30 7104 H 663.218 0.492323 -3.88997 0
M  V30 7105 H 664.708 1.4824 -3.90403 0
M  V30 7106 N 665.145 1.52092 -0.413018 0
M  V30 7107 C 666.422 1.94356 0.22024 0
M  V30 7108 C 666.802 1.35017 1.62277 0
M  V30 7109 O 666.15 0.527511 2.22328 0
M  V30 7110 C 666.36 3.48289 0.222638 0
M  V30 7111 C 667.708 4.22313 0.440098 0
M  V30 7112 O 668.732 3.54919 0.301826 0
M  V30 7113 O 667.591 5.41829 0.712984 0
M  V30 7114 H 664.685 0.814536 0.14304 0
M  V30 7115 H 667.231 1.63083 -0.469242 0
M  V30 7116 H 666.003 3.83872 -0.758836 0
M  V30 7117 H 665.626 3.85934 0.956057 0
M  V30 7118 N 666.623 0.143563 1.56945 0
M  V30 7119 C 668.039 -0.212877 1.58174 0
M  V30 7120 C 668.239 -1.64926 1.15766 0
M  V30 7121 O 667.295 -2.37535 0.856361 0
M  V30 7122 C 668.608 0.0427573 3.0067 0
M  V30 7123 C 670.156 -0.0212221 3.12993 0
M  V30 7124 C 670.631 0.207036 4.57532 0
M  V30 7125 N 672.122 0.153845 4.62944 0
M  V30 7126 C 672.857 0.305018 5.72588 0
M  V30 7127 N 672.353 0.513722 6.90893 0
M  V30 7128 N 674.146 0.242862 5.61575 0
M  V30 7129 H 666.297 1.08148 1.82805 0
M  V30 7130 H 668.56 0.427831 0.84597 0
M  V30 7131 H 668.266 1.03672 3.36073 0
M  V30 7132 H 668.14 -0.678195 3.71053 0
M  V30 7133 H 670.527 -1.00574 2.77433 0
M  V30 7134 H 670.608 0.732004 2.45103 0
M  V30 7135 H 670.252 1.18863 4.93795 0
M  V30 7136 H 670.182 -0.566473 5.23544 0
M  V30 7137 H 672.673 -0.00294866 3.779 0
M  V30 7138 H 672.986 0.619273 7.70315 0
M  V30 7139 H 671.331 0.550001 6.9282 0
M  V30 7140 H 674.522 0.0806015 4.68031 0
M  V30 7141 H 674.695 0.364112 6.46976 0
M  V30 7142 N 668.101 -1.57061 -0.130224 0
M  V30 7143 C 669.329 -1.88432 -0.854456 0
M  V30 7144 C 669.744 -0.733608 -1.73964 0
M  V30 7145 O 669.101 0.296029 -1.80083 0
M  V30 7146 C 669.152 -3.1918 -1.69724 0
M  V30 7147 O 668.873 -4.2982 -0.847705 0
M  V30 7148 C 670.374 -3.6418 -2.5276 0
M  V30 7149 H 667.594 -0.624193 -0.246221 0
M  V30 7150 H 670.138 -2.04159 -0.11798 0
M  V30 7151 H 668.293 -3.05156 -2.3866 0
M  V30 7152 H 668.707 -5.04689 -1.42792 0
M  V30 7153 H 670.181 -4.58457 -3.07443 0
M  V30 7154 H 670.658 -2.90285 -3.29592 0
M  V30 7155 H 671.264 -3.80954 -1.89087 0
M  V30 7156 N 669.579 0.400081 -1.52437 0
M  V30 7157 C 670.825 1.14788 -1.67187 0
M  V30 7158 C 671.158 1.89928 -0.405074 0
M  V30 7159 O 670.433 1.85118 0.596804 0
M  V30 7160 C 670.716 2.13507 -2.89977 0
M  V30 7161 C 670.569 1.42204 -4.2673 0
M  V30 7162 C 671.888 3.14069 -3.083 0
M  V30 7163 H 669.007 0.415939 -0.608411 0
M  V30 7164 H 671.649 0.432542 -1.85011 0
M  V30 7165 H 669.799 2.7451 -2.74912 0
M  V30 7166 H 671.471 0.842503 -4.53541 0
M  V30 7167 H 669.714 0.723939 -4.27717 0
M  V30 7168 H 670.385 2.14281 -5.08712 0
M  V30 7169 H 672.861 2.63148 -3.22323 0
M  V30 7170 H 671.737 3.80398 -3.95713 0
M  V30 7171 H 671.998 3.82309 -2.22018 0
M  V30 7172 N 671.057 1.43213 0.657864 0
M  V30 7173 C 672.306 1.43871 1.41365 0
M  V30 7174 C 672.619 0.064898 1.95492 0
M  V30 7175 O 673.825 -0.0510796 2.71452 0
M  V30 7176 C 672.281 2.53158 2.55811 0
M  V30 7177 C 671.889 3.96624 2.08311 0
M  V30 7178 C 673.633 2.63004 3.3321 0
M  V30 7179 C 671.54 4.97385 3.1994 0
M  V30 7180 H 670.47 0.535174 0.531136 0
M  V30 7181 H 673.121 1.69185 0.710543 0
M  V30 7182 H 671.503 2.21037 3.2857 0
M  V30 7183 H 672.677 4.38182 1.42593 0
M  V30 7184 H 670.992 3.90781 1.43804 0
M  V30 7185 H 673.589 3.3546 4.16378 0
M  V30 7186 H 673.932 1.67918 3.80932 0
M  V30 7187 H 674.465 2.94403 2.67529 0
M  V30 7188 H 671.204 5.94007 2.77192 0
M  V30 7189 H 670.724 4.60444 3.84385 0
M  V30 7190 H 672.403 5.19877 3.85145 0
M  V30 7191 N 672.536 -0.895792 1.29666 0
M  V30 7192 C 673.813 -1.62723 1.08538 0
M  V30 7193 C 674.193 -2.07848 -0.369119 0
M  V30 7194 O 673.541 -1.8372 -1.35864 0
M  V30 7195 C 673.751 -2.80505 2.07648 0
M  V30 7196 C 675.099 -3.51098 2.3878 0
M  V30 7197 O 676.123 -2.90679 2.05874 0
M  V30 7198 O 674.982 -4.60028 2.9502 0
M  V30 7199 H 672.076 -0.714692 0.416106 0
M  V30 7200 H 674.622 -0.943517 1.41053 0
M  V30 7201 H 673.394 -2.44386 3.05599 0
M  V30 7202 H 673.017 -3.5658 1.75887 0
M  V30 7203 N 674.014 -1.12206 -1.10668 0
M  V30 7204 C 675.244 -0.897332 -1.86095 0
M  V30 7205 C 675.652 0.556778 -1.80822 0
M  V30 7206 O 674.995 1.39658 -1.19337 0
M  V30 7207 C 675.057 -1.29095 -3.35522 0
M  V30 7208 C 674.721 -2.75586 -3.64556 0
M  V30 7209 C 675.718 -3.73785 -3.6136 0
M  V30 7210 C 673.403 -3.12432 -3.93309 0
M  V30 7211 C 675.397 -5.06845 -3.86506 0
M  V30 7212 C 673.084 -4.45675 -4.18111 0
M  V30 7213 C 674.082 -5.42691 -4.147 0
M  V30 7214 O 673.77 -6.73532 -4.38873 0
M  V30 7215 H 673.502 -0.320704 -0.595084 0
M  V30 7216 H 676.056 -1.49517 -1.40833 0
M  V30 7217 H 674.286 -0.636299 -3.81429 0
M  V30 7218 H 675.975 -1.04073 -3.92331 0
M  V30 7219 H 676.741 -3.46664 -3.39189 0
M  V30 7220 H 672.62 -2.3753 -3.95096 0
M  V30 7221 H 676.164 -5.82559 -3.83758 0
M  V30 7222 H 672.061 -4.72526 -4.39761 0
M  V30 7223 H 672.829 -6.79442 -4.564 0
M  V30 7224 N 675.492 1.28418 -0.913599 0
M  V30 7225 C 676.44 2.29272 -0.392037 0
M  V30 7226 C 677.434 1.61344 0.516198 0
M  V30 7227 O 678.64 1.75557 0.39746 0
M  V30 7228 H 675.015 0.744178 -0.108178 0
M  V30 7229 H 676.986 2.70691 -1.25574 0
M  V30 7230 C 675.735 3.45905 0.352815 0
M  V30 7231 H 675.058 3.98378 -0.336848 0
M  V30 7232 H 676.498 4.18473 0.682398 0
M  V30 7233 C 674.957 2.98572 1.56065 0
M  V30 7234 O 675.487 3.01033 2.65974 0
M  V30 7235 N 673.693 2.54235 1.40759 0
M  V30 7236 H 673.24 2.52432 0.513403 0
M  V30 7237 H 673.198 2.22925 2.21702 0
M  V30 7238 N 676.97 0.677563 1.42291 0
M  V30 7239 C 678.218 0.200578 2.01102 0
M  V30 7240 C 678.539 -1.19803 1.53858 0
M  V30 7241 O 677.809 -1.80496 0.761439 0
M  V30 7242 H 676.389 0.0711634 0.743603 0
M  V30 7243 H 679.051 0.874691 1.7417 0
M  V30 7244 H 678.147 0.204 3.11433 0
M  V30 7245 N 678.448 -1.51871 0.421078 0
M  V30 7246 C 679.358 -2.31077 -0.405069 0
M  V30 7247 C 680.374 -1.39301 -1.04265 0
M  V30 7248 O 681.55 -1.72376 -1.04157 0
M  V30 7249 C 678.615 -3.12556 -1.50032 0
M  V30 7250 C 677.676 -4.20088 -0.884559 0
M  V30 7251 C 676.909 -4.97673 -1.92762 0
M  V30 7252 O 677.132 -4.75696 -3.14753 0
M  V30 7253 O 676.066 -5.82203 -1.52719 0
M  V30 7254 H 679.892 -3.02742 0.241086 0
M  V30 7255 H 677.477 -1.48263 0.183991 0
M  V30 7256 H 679.359 -3.6326 -2.13589 0
M  V30 7257 H 678.034 -2.43672 -2.13086 0
M  V30 7258 H 676.941 -3.73502 -0.211379 0
M  V30 7259 H 678.274 -4.91298 -0.297763 0
M  V30 7260 N 679.926 -0.151884 -1.56866 0
M  V30 7261 C 681.342 0.204486 -1.58285 0
M  V30 7262 C 681.542 1.6431 -1.16639 0
M  V30 7263 O 680.598 2.37077 -0.868946 0
M  V30 7264 C 681.911 -0.0587019 -3.00643 0
M  V30 7265 C 683.459 0.00462303 -3.13 0
M  V30 7266 C 683.934 -0.231297 -4.57416 0
M  V30 7267 N 685.425 -0.178394 -4.62856 0
M  V30 7268 C 686.16 -0.335379 -5.72418 0
M  V30 7269 N 685.656 -0.550355 -6.90611 0
M  V30 7270 N 687.449 -0.272641 -5.61438 0
M  V30 7271 H 679.6 -1.09116 -1.82229 0
M  V30 7272 H 681.863 -0.432311 -0.843689 0
M  V30 7273 H 681.569 -1.05453 -3.35518 0
M  V30 7274 H 681.443 0.658508 -3.71407 0
M  V30 7275 H 683.83 0.991009 -2.77962 0
M  V30 7276 H 683.911 -0.744992 -2.44711 0
M  V30 7277 H 683.555 -1.2148 -4.93158 0
M  V30 7278 H 683.485 0.5387 -5.23837 0
M  V30 7279 H 685.976 -0.0170923 -3.77896 0
M  V30 7280 H 686.289 -0.660116 -7.69976 0
M  V30 7281 H 684.634 -0.586736 -6.92519 0
M  V30 7282 H 687.825 -0.105421 -4.67981 0
M  V30 7283 H 687.998 -0.398418 -6.46774 0
M  V30 7284 N 681.404 1.57128 0.121893 0
M  V30 7285 C 682.632 1.88883 0.844451 0
M  V30 7286 C 683.047 0.742824 1.73573 0
M  V30 7287 O 682.404 -0.286475 1.80238 0
M  V30 7288 C 682.455 3.20076 1.68029 0
M  V30 7289 O 682.176 4.30264 0.824898 0
M  V30 7290 C 683.677 3.65515 2.50826 0
M  V30 7291 H 680.897 0.62549 0.242907 0
M  V30 7292 H 683.441 2.04219 0.107151 0
M  V30 7293 H 681.596 3.06418 2.37038 0
M  V30 7294 H 682.01 5.05439 1.40113 0
M  V30 7295 H 683.484 4.60081 3.05008 0
M  V30 7296 H 683.961 2.92029 3.28048 0
M  V30 7297 H 684.567 3.81952 1.87064 0
M  V30 7298 N 682.882 -0.391992 1.52647 0
M  V30 7299 C 683.812 -1.48517 1.8018 0
M  V30 7300 C 684.793 -1.57039 0.653667 0
M  V30 7301 O 685.978 -1.72036 0.900962 0
M  V30 7302 C 683.108 -2.86161 1.96797 0
M  V30 7303 C 682.062 -2.92481 3.12472 0
M  V30 7304 C 681.388 -4.32546 3.14338 0
M  V30 7305 C 682.688 -2.624 4.51601 0
M  V30 7306 H 684.382 -1.25726 2.71723 0
M  V30 7307 H 681.928 -0.603387 1.30749 0
M  V30 7308 H 683.881 -3.62639 2.14641 0
M  V30 7309 H 682.605 -3.10283 1.01941 0
M  V30 7310 H 681.264 -2.18451 2.94406 0
M  V30 7311 H 680.912 -4.53703 2.1717 0
M  V30 7312 H 680.612 -4.37695 3.92042 0
M  V30 7313 H 682.136 -5.10934 3.34333 0
M  V30 7314 H 683.55 -3.28596 4.69785 0
M  V30 7315 H 681.947 -2.78903 5.3135 0
M  V30 7316 H 683.017 -1.57754 4.58521 0
M  V30 7317 N 684.36 -1.4356 -0.65026 0
M  V30 7318 C 685.637 -1.35811 -1.40765 0
M  V30 7319 C 686.017 -0.00736379 -2.11099 0
M  V30 7320 O 685.365 1.00932 -2.05 0
M  V30 7321 C 685.575 -2.54332 -2.3899 0
M  V30 7322 C 686.923 -2.97551 -3.02901 0
M  V30 7323 O 687.947 -2.544 -2.49317 0
M  V30 7324 O 686.806 -3.72311 -4.00059 0
M  V30 7325 H 683.9 -0.536861 -0.629054 0
M  V30 7326 H 686.446 -1.55615 -0.676919 0
M  V30 7327 H 685.218 -3.44274 -1.85986 0
M  V30 7328 H 684.841 -2.36643 -3.19509 0
M  V30 7329 N 685.838 0.888903 -1.30139 0
M  V30 7330 C 687.086 1.63713 -1.18501 0
M  V30 7331 C 687.407 1.9324 0.261399 0
M  V30 7332 O 686.677 1.56608 1.17689 0
M  V30 7333 H 685.257 0.606861 -0.435579 0
M  V30 7334 H 687.919 1.06525 -1.63213 0
M  V30 7335 H 687.015 2.58894 -1.743 0
M  V30 7336 N 687.317 1.12792 1.10072 0
M  V30 7337 C 688.564 0.885545 1.82111 0
M  V30 7338 C 688.892 -0.588519 1.85383 0
M  V30 7339 O 688.147 -1.45124 1.31292 0
M  V30 7340 C 688.446 1.4102 3.28403 0
M  V30 7341 C 688.112 2.89995 3.45273 0
M  V30 7342 C 686.774 3.30671 3.49585 0
M  V30 7343 C 689.126 3.85874 3.50358 0
M  V30 7344 C 686.454 4.65925 3.56553 0
M  V30 7345 C 688.806 5.20963 3.58859 0
M  V30 7346 C 687.47 5.61177 3.61437 0
M  V30 7347 H 686.74 0.324044 0.666391 0
M  V30 7348 H 689.387 1.40874 1.29718 0
M  V30 7349 H 687.692 0.807551 3.83387 0
M  V30 7350 H 689.389 1.19882 3.82661 0
M  V30 7351 H 685.979 2.57537 3.42597 0
M  V30 7352 H 690.163 3.5554 3.46273 0
M  V30 7353 H 685.419 4.96468 3.56833 0
M  V30 7354 H 689.593 5.95079 3.61738 0
M  V30 7355 H 687.22 6.6597 3.66589 0
M  V30 7356 N 688.795 -1.27931 0.920396 0
M  V30 7357 C 689.742 -2.27085 0.412422 0
M  V30 7358 C 690.712 -1.57858 -0.516725 0
M  V30 7359 O 691.897 -1.85717 -0.437475 0
M  V30 7360 C 689.037 -3.43466 -0.335399 0
M  V30 7361 C 688.15 -4.27425 0.627017 0
M  V30 7362 C 687.285 -5.31016 -0.139916 0
M  V30 7363 C 686.324 -6.06641 0.815683 0
M  V30 7364 N 685.461 -7.02052 0.0818439 0
M  V30 7365 H 690.301 -2.69913 1.26298 0
M  V30 7366 H 687.838 -1.32732 0.634076 0
M  V30 7367 H 689.796 -4.09744 -0.785226 0
M  V30 7368 H 688.426 -3.01611 -1.15025 0
M  V30 7369 H 687.478 -3.6113 1.19537 0
M  V30 7370 H 688.79 -4.79969 1.35763 0
M  V30 7371 H 687.944 -6.03208 -0.649998 0
M  V30 7372 H 686.683 -4.79257 -0.903543 0
M  V30 7373 H 685.688 -5.33294 1.33708 0
M  V30 7374 H 686.913 -6.60489 1.57897 0
M  V30 7375 H 684.859 -6.52634 -0.663671 0
M  V30 7376 H 684.776 -7.52249 0.752163 0
M  V30 7377 H 686.044 -7.78432 -0.407825 0
M  V30 7378 N 690.273 -0.685099 -1.4193 0
M  V30 7379 C 691.22 -0.0131869 -2.30796 0
M  V30 7380 C 692.19 0.782129 -1.46533 0
M  V30 7381 O 693.375 0.75229 -1.75343 0
M  V30 7382 C 690.515 0.924768 -3.32479 0
M  V30 7383 C 689.628 0.122181 -4.31827 0
M  V30 7384 C 688.763 1.05682 -5.20581 0
M  V30 7385 C 687.802 0.246526 -6.11603 0
M  V30 7386 N 686.939 1.13442 -6.92875 0
M  V30 7387 H 691.779 -0.776789 -2.87698 0
M  V30 7388 H 689.316 -0.394791 -1.41703 0
M  V30 7389 H 691.274 1.48251 -3.89971 0
M  V30 7390 H 689.904 1.65488 -2.77152 0
M  V30 7391 H 688.956 -0.552335 -3.76369 0
M  V30 7392 H 690.268 -0.506473 -4.96222 0
M  V30 7393 H 689.422 1.68415 -5.82856 0
M  V30 7394 H 688.161 1.71935 -4.56388 0
M  V30 7395 H 687.166 -0.393944 -5.48387 0
M  V30 7396 H 688.391 -0.412053 -6.77849 0
M  V30 7397 H 686.337 1.78316 -6.313 0
M  V30 7398 H 686.254 0.561089 -7.53915 0
M  V30 7399 H 687.522 1.74889 -7.59628 0
M  V30 7400 N 691.751 1.51645 -0.429126 0
M  V30 7401 C 692.998 2.02015 0.140079 0
M  V30 7402 C 693.326 1.31374 1.43427 0
M  V30 7403 O 692.581 0.414779 1.91254 0
M  V30 7404 C 692.88 3.54989 0.414472 0
M  V30 7405 C 692.546 4.43874 -0.792911 0
M  V30 7406 C 691.208 4.67887 -1.12404 0
M  V30 7407 C 693.56 4.96074 -1.59875 0
M  V30 7408 C 690.888 5.41348 -2.26184 0
M  V30 7409 C 693.24 5.70782 -2.72747 0
M  V30 7410 C 691.904 5.93062 -3.06324 0
M  V30 7411 H 691.174 0.739225 0.0512585 0
M  V30 7412 H 693.821 1.82675 -0.574641 0
M  V30 7413 H 692.126 3.72615 1.21099 0
M  V30 7414 H 693.823 3.91489 0.868173 0
M  V30 7415 H 690.413 4.25374 -0.524871 0
M  V30 7416 H 694.597 4.77412 -1.35614 0
M  V30 7417 H 689.853 5.56815 -2.52522 0
M  V30 7418 H 694.027 6.10221 -3.35564 0
M  V30 7419 H 691.654 6.49764 -3.94602 0
M  V30 7420 N 693.229 0.160201 1.56784 0
M  V30 7421 C 694.159 -0.770264 2.2043 0
M  V30 7422 C 695.14 -1.24736 1.15651 0
M  V30 7423 O 696.325 -1.30253 1.44041 0
M  V30 7424 C 693.455 -2.00427 2.83631 0
M  V30 7425 C 692.409 -1.66345 3.94352 0
M  V30 7426 C 691.735 -2.97119 4.4455 0
M  V30 7427 C 693.035 -0.899972 5.14488 0
M  V30 7428 H 694.729 -0.239783 2.98438 0
M  V30 7429 H 692.275 -0.113891 1.43549 0
M  V30 7430 H 694.228 -2.66012 3.26827 0
M  V30 7431 H 692.952 -2.5587 2.02973 0
M  V30 7432 H 691.611 -1.03133 3.51794 0
M  V30 7433 H 691.259 -3.5058 3.60698 0
M  V30 7434 H 690.959 -2.75073 5.19238 0
M  V30 7435 H 692.483 -3.63753 4.90425 0
M  V30 7436 H 693.897 -1.45818 5.54446 0
M  V30 7437 H 692.294 -0.778968 5.95023 0
M  V30 7438 H 693.364 0.105827 4.84785 0
M  V30 7439 N 694.707 -1.5719 -0.113559 0
M  V30 7440 C 695.617 -2.04041 -1.15777 0
M  V30 7441 C 696.633 -0.961812 -1.45001 0
M  V30 7442 O 697.809 -1.2737 -1.56009 0
M  V30 7443 C 694.874 -2.43994 -2.46308 0
M  V30 7444 C 693.935 -3.65962 -2.24433 0
M  V30 7445 C 693.168 -4.04 -3.4874 0
M  V30 7446 O 693.391 -3.42321 -4.56259 0
M  V30 7447 O 692.325 -4.97069 -3.3942 0
M  V30 7448 H 696.151 -2.93248 -0.789899 0
M  V30 7449 H 693.736 -1.45828 -0.324748 0
M  V30 7450 H 695.618 -2.70401 -3.23204 0
M  V30 7451 H 694.293 -1.57932 -2.82558 0
M  V30 7452 H 693.2 -3.44697 -1.45377 0
M  V30 7453 H 694.533 -4.52746 -1.93084 0
M  V30 7454 N 696.185 0.383891 -1.52853 0
M  V30 7455 C 697.41 1.154 -1.7233 0
M  V30 7456 C 697.835 1.82809 -0.44298 0
M  V30 7457 O 697.193 1.71026 0.601645 0
M  V30 7458 C 697.241 2.17386 -2.87708 0
M  V30 7459 O 696.345 3.24082 -2.55038 0
M  V30 7460 H 695.686 0.335709 -0.572883 0
M  V30 7461 H 698.216 0.44662 -1.99666 0
M  V30 7462 H 698.226 2.61296 -3.1335 0
M  V30 7463 H 696.901 1.6771 -3.80587 0
M  V30 7464 H 695.478 2.85273 -2.40153 0
M  V30 7465 N 697.663 1.43903 0.642637 0
M  V30 7466 C 698.911 1.45791 1.39962 0
M  V30 7467 C 699.232 0.0873144 1.94804 0
M  V30 7468 O 698.502 -0.878825 1.75081 0
M  V30 7469 H 697.082 0.536797 0.519479 0
M  V30 7470 H 699.744 1.7959 0.757189 0
M  V30 7471 H 698.84 2.17665 2.2367 0
M  V30 7472 N 699.141 -0.881989 1.30609 0
M  V30 7473 C 700.389 -1.63082 1.19368 0
M  V30 7474 C 700.71 -1.93376 -0.251147 0
M  V30 7475 O 699.98 -1.5723 -1.16857 0
M  V30 7476 H 698.56 -0.604542 0.438791 0
M  V30 7477 H 701.222 -1.05658 1.63776 0
M  V30 7478 H 700.318 -2.57966 1.7567 0
M  V30 7479 N 700.619 -1.13374 -1.09472 0
M  V30 7480 C 701.551 -0.768466 -2.15933 0
M  V30 7481 C 702.564 0.209585 -1.61445 0
M  V30 7482 O 703.753 -0.010539 -1.78497 0
M  V30 7483 C 700.853 -0.118266 -3.38694 0
M  V30 7484 C 700.026 -1.12829 -4.22597 0
M  V30 7485 C 699.085 -0.503875 -5.23782 0
M  V30 7486 O 698.111 -1.16374 -5.57177 0
M  V30 7487 N 699.313 0.724288 -5.75964 0
M  V30 7488 H 702.078 -1.68457 -2.47876 0
M  V30 7489 H 699.639 -1.02668 -1.25183 0
M  V30 7490 H 701.631 0.311698 -4.03498 0
M  V30 7491 H 700.201 0.700769 -3.04644 0
M  V30 7492 H 699.421 -1.73556 -3.53938 0
M  V30 7493 H 700.709 -1.81095 -4.75481 0
M  V30 7494 H 700.107 1.27918 -5.51048 0
M  V30 7495 H 698.664 1.09692 -6.42504 0
M  V30 7496 N 702.098 1.27442 -0.927168 0
M  V30 7497 C 703.375 1.89473 -0.485742 0
M  V30 7498 C 703.755 1.83922 1.03614 0
M  V30 7499 O 703.103 1.28409 1.89007 0
M  V30 7500 C 703.313 3.33417 -1.03123 0
M  V30 7501 C 704.661 4.10333 -1.0914 0
M  V30 7502 O 705.685 3.4243 -0.98082 0
M  V30 7503 O 704.544 5.31737 -1.26165 0
M  V30 7504 H 701.638 0.812124 -0.156154 0
M  V30 7505 H 704.184 1.35713 -1.01882 0
M  V30 7506 H 702.956 3.31747 -2.07508 0
M  V30 7507 H 702.579 3.94695 -0.479767 0
M  V30 7508 N 703.576 0.692616 1.41565 0
M  V30 7509 C 704.824 0.221896 2.00878 0
M  V30 7510 C 705.145 -1.18164 1.5512 0
M  V30 7511 O 704.415 -1.79679 0.78054 0
M  V30 7512 H 702.995 0.0790463 0.742806 0
M  V30 7513 H 705.657 0.893115 1.73232 0
M  V30 7514 H 704.753 0.23702 3.11199 0
M  V30 7515 N 705.054 -1.51416 0.437162 0
M  V30 7516 C 706.017 -2.26312 -0.362729 0
M  V30 7517 C 707.017 -1.29748 -0.949847 0
M  V30 7518 O 708.207 -1.53462 -0.824325 0
M  V30 7519 C 705.339 -3.05475 -1.5132 0
M  V30 7520 H 706.532 -2.98459 0.29365 0
M  V30 7521 H 704.085 -1.55137 0.190327 0
M  V30 7522 H 704.82 -2.37744 -2.20563 0
M  V30 7523 H 704.605 -3.76401 -1.09838 0
M  V30 7524 H 706.095 -3.62209 -2.07833 0
M  V30 7525 N 706.532 -0.168513 -1.56696 0
M  V30 7526 C 707.78 0.476216 -1.96409 0
M  V30 7527 C 708.101 1.63968 -1.05544 0
M  V30 7528 O 707.371 1.95525 -0.121235 0
M  V30 7529 H 705.951 0.178921 -0.725256 0
M  V30 7530 H 708.613 -0.249042 -1.93302 0
M  V30 7531 H 707.709 0.838094 -3.00637 0
M  V30 7532 N 708.01 1.57248 0.105221 0
M  V30 7533 C 709.287 1.76566 0.841647 0
M  V30 7534 C 709.667 0.747566 1.9742 0
M  V30 7535 O 709.015 -0.225886 2.27381 0
M  V30 7536 C 709.225 3.22016 1.3456 0
M  V30 7537 C 710.573 3.84911 1.79244 0
M  V30 7538 O 711.597 3.25703 1.44207 0
M  V30 7539 O 710.456 4.89008 2.43995 0
M  V30 7540 H 707.55 0.723443 0.400698 0
M  V30 7541 H 710.096 1.69472 0.0878893 0
M  V30 7542 H 708.868 3.87644 0.533685 0
M  V30 7543 H 708.491 3.33703 2.16167 0
M  V30 7544 N 709.488 -0.375779 1.53054 0
M  V30 7545 C 710.765 -1.13453 1.59336 0
M  V30 7546 C 711.145 -2.07379 0.394614 0
M  V30 7547 O 710.493 -2.2004 -0.616 0
M  V30 7548 C 710.703 -1.8826 2.93869 0
M  V30 7549 C 712.051 -2.43155 3.48081 0
M  V30 7550 O 713.075 -1.984 2.95831 0
M  V30 7551 O 711.934 -3.24944 4.39401 0
M  V30 7552 H 709.028 -0.519856 0.643179 0
M  V30 7553 H 711.574 -0.379865 1.65394 0
M  V30 7554 H 710.346 -1.19652 3.72558 0
M  V30 7555 H 709.969 -2.70658 2.91256 0
M  V30 7556 N 710.966 -1.44241 -0.634997 0
M  V30 7557 C 712.243 -1.37296 -1.39317 0
M  V30 7558 C 712.623 -0.0297532 -2.11079 0
M  V30 7559 O 711.971 0.987524 -2.06059 0
M  V30 7560 C 712.181 -2.56853 -2.36279 0
M  V30 7561 C 713.529 -3.00747 -2.99728 0
M  V30 7562 O 714.553 -2.5703 -2.46605 0
M  V30 7563 O 713.412 -3.76533 -3.96087 0
M  V30 7564 H 710.506 -0.543503 -0.623325 0
M  V30 7565 H 713.052 -1.56324 -0.660376 0
M  V30 7566 H 711.824 -3.46228 -1.82324 0
M  V30 7567 H 711.447 -2.40019 -3.16981 0
M  V30 7568 N 712.444 0.87505 -1.31075 0
M  V30 7569 C 713.721 1.60976 -1.11113 0
M  V30 7570 C 714.101 2.08409 0.336006 0
M  V30 7571 O 713.449 1.85858 1.32924 0
M  V30 7572 C 713.659 2.77166 -2.12085 0
M  V30 7573 C 715.007 3.47254 -2.44335 0
M  V30 7574 O 716.031 2.87367 -2.10472 0
M  V30 7575 O 714.89 4.55276 -3.02301 0
M  V30 7576 H 711.984 0.707982 -0.427424 0
M  V30 7577 H 714.53 0.920957 -1.42536 0
M  V30 7578 H 713.302 2.39494 -3.09449 0
M  V30 7579 H 712.925 3.53737 -1.81538 0
M  V30 7580 N 713.922 1.13953 1.08869 0
M  V30 7581 C 714.852 0.844824 2.17681 0
M  V30 7582 C 715.833 -0.198213 1.68941 0
M  V30 7583 O 717.018 -0.0559073 1.9412 0
M  V30 7584 C 714.148 0.316325 3.45856 0
M  V30 7585 C 713.102 1.29426 4.07962 0
M  V30 7586 C 712.428 0.625275 5.31031 0
M  V30 7587 C 713.728 2.65484 4.49795 0
M  V30 7588 H 715.422 1.75471 2.42591 0
M  V30 7589 H 712.968 0.845116 1.16592 0
M  V30 7590 H 714.921 0.0977876 4.21287 0
M  V30 7591 H 713.645 -0.628972 3.20486 0
M  V30 7592 H 712.304 1.49889 3.34558 0
M  V30 7593 H 711.952 -0.325678 5.01945 0
M  V30 7594 H 711.652 1.27777 5.73539 0
M  V30 7595 H 713.176 0.416152 6.0918 0
M  V30 7596 H 714.59 2.48957 5.16424 0
M  V30 7597 H 712.987 3.26963 5.03205 0
M  V30 7598 H 714.057 3.22717 3.61914 0
M  V30 7599 N 715.4 -1.26948 0.933913 0
M  V30 7600 C 716.31 -2.30366 0.443671 0
M  V30 7601 C 717.326 -1.67284 -0.478745 0
M  V30 7602 O 718.502 -1.98156 -0.360043 0
M  V30 7603 C 715.567 -3.45485 -0.289974 0
M  V30 7604 C 714.628 -4.24069 0.668114 0
M  V30 7605 C 713.861 -5.33691 -0.0306138 0
M  V30 7606 O 714.084 -5.5656 -1.24888 0
M  V30 7607 O 713.018 -5.98441 0.644384 0
M  V30 7608 H 716.844 -2.74349 1.30254 0
M  V30 7609 H 714.429 -1.32012 0.699506 0
M  V30 7610 H 716.311 -4.15486 -0.70353 0
M  V30 7611 H 714.986 -3.03546 -1.12435 0
M  V30 7612 H 713.893 -3.56579 1.13147 0
M  V30 7613 H 715.226 -4.69739 1.46989 0
M  V30 7614 N 716.879 -0.700114 -1.41195 0
M  V30 7615 C 718.156 -0.160836 -1.94938 0
M  V30 7616 C 718.536 1.33014 -1.63922 0
M  V30 7617 O 717.884 2.07878 -0.948636 0
M  V30 7618 C 718.094 -0.456991 -3.45995 0
M  V30 7619 C 719.442 -0.387207 -4.22831 0
M  V30 7620 O 720.466 -0.392164 -3.54035 0
M  V30 7621 O 719.325 -0.351267 -5.4537 0
M  V30 7622 H 716.419 -0.0176304 -0.826812 0
M  V30 7623 H 718.965 -0.776586 -1.50888 0
M  V30 7624 H 717.737 -1.48884 -3.61869 0
M  V30 7625 H 717.36 0.189503 -3.97148 0
M  V30 7626 N 718.357 1.51182 -0.445186 0
M  V30 7627 C 719.287 2.30821 0.352686 0
M  V30 7628 C 720.268 1.36576 1.01395 0
M  V30 7629 O 721.453 1.65497 1.01609 0
M  V30 7630 C 718.583 3.15593 1.44976 0
M  V30 7631 C 717.537 4.1818 0.911553 0
M  V30 7632 C 716.863 4.91523 2.10497 0
M  V30 7633 C 718.163 5.22266 -0.059418 0
M  V30 7634 H 719.857 2.97771 -0.311936 0
M  V30 7635 H 717.403 1.43201 -0.151461 0
M  V30 7636 H 719.356 3.70091 2.01521 0
M  V30 7637 H 718.08 2.4648 2.14278 0
M  V30 7638 H 716.739 3.64746 0.368264 0
M  V30 7639 H 716.387 4.18906 2.78437 0
M  V30 7640 H 716.087 5.60898 1.7512 0
M  V30 7641 H 717.611 5.48847 2.6758 0
M  V30 7642 H 719.025 5.71789 0.415985 0
M  V30 7643 H 717.422 5.99213 -0.326152 0
M  V30 7644 H 718.492 4.7461 -0.993631 0
M  V30 7645 N 719.835 0.176821 1.56605 0
M  V30 7646 C 720.745 -0.763682 2.21822 0
M  V30 7647 C 721.761 -1.24889 1.21156 0
M  V30 7648 O 722.937 -1.29987 1.53836 0
M  V30 7649 C 720.002 -1.97352 2.8505 0
M  V30 7650 C 719.063 -1.53466 4.00932 0
M  V30 7651 C 718.296 -2.68682 4.61135 0
M  V30 7652 O 718.519 -3.85694 4.20234 0
M  V30 7653 O 717.453 -2.42442 5.50913 0
M  V30 7654 H 721.279 -0.238363 3.02763 0
M  V30 7655 H 718.864 -0.0516331 1.49311 0
M  V30 7656 H 720.746 -2.68096 3.25119 0
M  V30 7657 H 719.421 -2.48779 2.07101 0
M  V30 7658 H 718.328 -0.796551 3.65521 0
M  V30 7659 H 719.661 -1.06724 4.8049 0
M  V30 7660 N 721.313 -1.57302 -0.09688 0
M  V30 7661 C 722.223 -2.05258 -1.13606 0
M  V30 7662 C 723.239 -0.977137 -1.43972 0
M  V30 7663 O 724.415 -1.29018 -1.54649 0
M  V30 7664 C 721.48 -2.46593 -2.43706 0
M  V30 7665 C 720.541 -3.68322 -2.20538 0
M  V30 7666 C 719.774 -4.07676 -3.44435 0
M  V30 7667 O 719.997 -3.47141 -4.52603 0
M  V30 7668 O 718.931 -5.00641 -3.34129 0
M  V30 7669 H 722.757 -2.94069 -0.758752 0
M  V30 7670 H 720.342 -1.46164 -0.309263 0
M  V30 7671 H 722.224 -2.73814 -3.20318 0
M  V30 7672 H 720.899 -1.6092 -2.80867 0
M  V30 7673 H 719.806 -3.4622 -1.41713 0
M  V30 7674 H 721.139 -4.54769 -1.88271 0
M  V30 7675 N 722.791 0.367657 -1.53252 0
M  V30 7676 C 723.754 1.43308 -1.78873 0
M  V30 7677 C 724.754 1.46671 -0.659115 0
M  V30 7678 O 725.944 1.47468 -0.927306 0
M  V30 7679 C 723.076 2.82442 -1.90892 0
M  V30 7680 H 724.269 1.21864 -2.74024 0
M  V30 7681 H 721.822 0.600668 -1.44297 0
M  V30 7682 H 722.557 3.09202 -0.978 0
M  V30 7683 H 722.342 2.81399 -2.73051 0
M  V30 7684 H 723.832 3.59601 -2.12314 0
M  V30 7685 N 724.269 1.44576 0.627338 0
M  V30 7686 C 725.179 1.54232 1.76776 0
M  V30 7687 C 726.195 0.427782 1.6866 0
M  V30 7688 O 727.371 0.685671 1.89369 0
M  V30 7689 C 724.436 1.48738 3.13174 0
M  V30 7690 C 723.497 2.71074 3.32893 0
M  V30 7691 C 722.73 2.65832 4.62784 0
M  V30 7692 O 722.953 1.72048 5.43834 0
M  V30 7693 O 721.887 3.56742 4.84787 0
M  V30 7694 H 725.713 2.50586 1.71582 0
M  V30 7695 H 723.298 1.26865 0.789028 0
M  V30 7696 H 725.18 1.48211 3.94476 0
M  V30 7697 H 723.855 0.555292 3.18902 0
M  V30 7698 H 722.762 2.77168 2.51254 0
M  V30 7699 H 724.095 3.63342 3.32029 0
M  V30 7700 N 725.747 -0.868086 1.31537 0
M  V30 7701 C 726.657 -2.00801 1.21311 0
M  V30 7702 C 727.673 -1.73518 0.129431 0
M  V30 7703 O 728.849 -1.98378 0.347588 0
M  V30 7704 C 725.914 -3.3419 0.922935 0
M  V30 7705 C 724.975 -3.74783 2.0937 0
M  V30 7706 C 724.208 -5.01807 1.81728 0
M  V30 7707 O 724.431 -5.65404 0.753313 0
M  V30 7708 O 723.365 -5.39213 2.67457 0
M  V30 7709 H 727.191 -2.12361 2.17109 0
M  V30 7710 H 724.776 -0.996684 1.11295 0
M  V30 7711 H 726.658 -4.14174 0.777033 0
M  V30 7712 H 725.333 -3.237 -0.00500301 0
M  V30 7713 H 724.24 -2.95432 2.29501 0
M  V30 7714 H 725.573 -3.89902 3.00396 0
M  V30 7715 N 727.225 -1.14528 -1.08264 0
M  V30 7716 C 728.636 -0.925261 -1.6216 0
M  V30 7717 C 728.987 0.535587 -1.88748 0
M  V30 7718 O 728.112 1.4048 -1.64604 0
M  V30 7719 C 728.707 -1.67316 -2.94603 0
M  V30 7720 C 727.266 -1.49868 -3.45278 0
M  V30 7721 C 726.413 -1.69471 -2.19487 0
M  V30 7722 H 729.364 -1.29687 -0.914707 0
M  V30 7723 H 729.385 -1.13721 -3.63109 0
M  V30 7724 H 728.897 -2.73635 -2.75219 0
M  V30 7725 H 726.998 -0.459032 -3.69762 0
M  V30 7726 H 727.111 -2.2696 -4.21931 0
M  V30 7727 H 725.475 -1.12048 -2.2873 0
M  V30 7728 H 726.258 -2.77136 -2.0261 0
M  V30 7729 N 728.703 1.26451 -0.940633 0
M  V30 7730 C 729.98 1.88947 -0.505811 0
M  V30 7731 C 730.36 1.85011 1.01657 0
M  V30 7732 O 729.708 1.30406 1.87634 0
M  V30 7733 C 729.918 3.32304 -1.06654 0
M  V30 7734 C 731.266 4.09153 -1.13486 0
M  V30 7735 O 732.29 3.41371 -1.01708 0
M  V30 7736 O 731.149 5.30369 -1.31797 0
M  V30 7737 H 728.243 0.810422 -0.164759 0
M  V30 7738 H 730.789 1.34625 -1.03316 0
M  V30 7739 H 729.561 3.29527 -2.11015 0
M  V30 7740 H 729.184 3.94164 -0.521603 0
M  V30 7741 N 730.181 0.707592 1.40822 0
M  V30 7742 C 731.114 -0.000859377 2.282 0
M  V30 7743 C 732.092 -0.7758 1.42899 0
M  V30 7744 O 733.276 -0.76411 1.72318 0
M  V30 7745 C 730.403 -1.00861 3.23334 0
M  V30 7746 C 729.449 -0.32543 4.25257 0
M  V30 7747 S 730.282 0.940908 5.27169 0
M  V30 7748 C 731.438 -0.0649459 6.25866 0
M  V30 7749 H 731.671 0.740207 2.87938 0
M  V30 7750 H 729.204 0.498311 1.46138 0
M  V30 7751 H 731.162 -1.58485 3.78672 0
M  V30 7752 H 729.823 -1.72233 2.62668 0
M  V30 7753 H 729.016 -1.08697 4.92139 0
M  V30 7754 H 728.618 0.178044 3.73576 0
M  V30 7755 H 730.91 -0.914377 6.71301 0
M  V30 7756 H 731.853 0.570276 7.058 0
M  V30 7757 H 732.261 -0.425098 5.62897 0
M  V30 7758 N 731.66 -1.50943 0.453197 0
M  V30 7759 C 732.57 -2.31884 -0.355963 0
M  V30 7760 C 733.586 -1.41481 -1.01287 0
M  V30 7761 O 734.762 -1.74546 -1.00477 0
M  V30 7762 C 731.827 -3.15668 -1.43369 0
M  V30 7763 C 730.888 -4.2187 -0.795253 0
M  V30 7764 C 730.121 -5.0165 -1.82162 0
M  V30 7765 O 730.344 -4.82266 -3.04592 0
M  V30 7766 O 729.278 -5.85311 -1.40336 0
M  V30 7767 H 733.104 -3.02162 0.305248 0
M  V30 7768 H 730.689 -1.47839 0.215398 0
M  V30 7769 H 732.571 -3.67709 -2.05836 0
M  V30 7770 H 731.246 -2.48137 -2.07869 0
M  V30 7771 H 730.153 -3.73867 -0.132106 0
M  V30 7772 H 731.486 -4.9182 -0.193484 0
M  V30 7773 N 733.138 -0.185124 -1.56509 0
M  V30 7774 C 734.048 0.751908 -2.22224 0
M  V30 7775 C 735.064 1.24244 -1.21817 0
M  V30 7776 O 736.24 1.29169 -1.54523 0
M  V30 7777 C 733.305 1.95837 -2.86092 0
M  V30 7778 C 732.366 1.51337 -4.01741 0
M  V30 7779 C 731.599 2.66233 -4.62554 0
M  V30 7780 O 731.822 3.8346 -4.22273 0
M  V30 7781 O 730.756 2.39517 -5.52191 0
M  V30 7782 H 734.582 0.222304 -3.02885 0
M  V30 7783 H 732.167 0.0437141 -1.49336 0
M  V30 7784 H 734.049 2.66368 -3.26536 0
M  V30 7785 H 732.724 2.47677 -2.08417 0
M  V30 7786 H 731.631 0.777155 -3.65939 0
M  V30 7787 H 732.964 1.04175 -4.81049 0
M  V30 7788 N 734.616 1.57351 0.0885366 0
M  V30 7789 C 735.893 1.77449 0.822873 0
M  V30 7790 C 736.273 0.768463 1.96616 0
M  V30 7791 O 735.621 -0.201757 2.27608 0
M  V30 7792 C 735.831 3.23425 1.31137 0
M  V30 7793 C 737.179 3.86791 1.75152 0
M  V30 7794 O 738.203 3.27215 1.40745 0
M  V30 7795 O 737.062 4.91568 2.38794 0
M  V30 7796 H 734.156 0.727653 0.393002 0
M  V30 7797 H 736.702 1.69556 0.0699095 0
M  V30 7798 H 735.474 3.88188 0.49254 0
M  V30 7799 H 735.097 3.35977 2.12615 0
M  V30 7800 N 736.094 -0.359525 1.53444 0
M  V30 7801 C 737.371 -1.11756 1.6053 0
M  V30 7802 C 737.751 -2.06949 0.416587 0
M  V30 7803 O 737.099 -2.20681 -0.592628 0
M  V30 7804 C 737.309 -1.85133 2.95849 0
M  V30 7805 C 738.657 -2.3945 3.50641 0
M  V30 7806 O 739.681 -1.95251 2.97918 0
M  V30 7807 O 738.54 -3.20266 4.42823 0
M  V30 7808 H 735.634 -0.513005 0.648656 0
M  V30 7809 H 738.18 -0.362301 1.65787 0
M  V30 7810 H 736.952 -1.15694 3.73806 0
M  V30 7811 H 736.575 -2.67554 2.9411 0
M  V30 7812 N 737.572 -1.44907 -0.619662 0
M  V30 7813 C 738.849 -1.38766 -1.37852 0
M  V30 7814 C 739.229 -0.0521393 -2.11036 0
M  V30 7815 O 738.577 0.965613 -2.07095 0
M  V30 7816 C 738.787 -2.59344 -2.33541 0
M  V30 7817 C 740.135 -3.03909 -2.96521 0
M  V30 7818 O 741.159 -2.59631 -2.43865 0
M  V30 7819 O 740.018 -3.80713 -3.92071 0
M  V30 7820 H 737.112 -0.550083 -0.617525 0
M  V30 7821 H 739.658 -1.57015 -0.643759 0
M  V30 7822 H 738.43 -3.48142 -1.78642 0
M  V30 7823 H 738.053 -2.43367 -3.14417 0
M  V30 7824 N 739.05 0.861098 -1.31996 0
M  V30 7825 C 739.982 1.97551 -1.16216 0
M  V30 7826 C 740.995 1.625 -0.0988527 0
M  V30 7827 O 742.184 1.75091 -0.3472 0
M  V30 7828 C 739.284 3.30376 -0.755307 0
M  V30 7829 C 738.457 3.93711 -1.90552 0
M  V30 7830 C 737.516 5.04862 -1.48328 0
M  V30 7831 O 736.542 5.25204 -2.19431 0
M  V30 7832 N 737.744 5.79283 -0.375656 0
M  V30 7833 H 740.509 2.11632 -2.12208 0
M  V30 7834 H 738.07 1.03559 -1.24448 0
M  V30 7835 H 740.062 4.0213 -0.455364 0
M  V30 7836 H 738.632 3.12395 0.113269 0
M  V30 7837 H 737.852 3.14825 -2.37231 0
M  V30 7838 H 739.14 4.32762 -2.67571 0
M  V30 7839 H 738.538 5.65286 0.216284 0
M  V30 7840 H 737.095 6.5166 -0.135289 0
M  V30 7841 N 740.528 1.15101 1.07655 0
M  V30 7842 C 741.475 0.844958 2.14777 0
M  V30 7843 C 742.445 -0.200798 1.64882 0
M  V30 7844 O 743.63 -0.0690278 1.90675 0
M  V30 7845 C 740.77 0.337018 3.4345 0
M  V30 7846 C 739.883 1.44398 4.07153 0
M  V30 7847 C 739.018 0.892487 5.23649 0
M  V30 7848 C 738.057 1.9766 5.79307 0
M  V30 7849 N 737.194 1.44171 6.87138 0
M  V30 7850 H 742.034 1.76242 2.40297 0
M  V30 7851 H 739.571 0.879435 1.17917 0
M  V30 7852 H 741.529 0.024256 4.17193 0
M  V30 7853 H 740.159 -0.543531 3.18191 0
M  V30 7854 H 739.211 1.87299 3.31094 0
M  V30 7855 H 740.523 2.26262 4.4453 0
M  V30 7856 H 739.677 0.532083 6.04362 0
M  V30 7857 H 738.416 0.0429854 4.87681 0
M  V30 7858 H 737.421 2.34586 4.97242 0
M  V30 7859 H 738.646 2.82982 6.17331 0
M  V30 7860 H 736.592 0.614518 6.53115 0
M  V30 7861 H 736.509 2.19665 7.23383 0
M  V30 7862 H 737.777 1.10945 7.71564 0
M  V30 7863 N 742.006 -1.2595 0.947325 0
M  V30 7864 C 742.969 -2.24407 0.466285 0
M  V30 7865 C 743.969 -1.55054 -0.426005 0
M  V30 7866 O 745.159 -1.7275 -0.224319 0
M  V30 7867 C 742.291 -3.39326 -0.327201 0
M  V30 7868 H 743.484 -2.68477 1.33642 0
M  V30 7869 H 741.037 -1.38211 0.729887 0
M  V30 7870 H 741.772 -3.00667 -1.21532 0
M  V30 7871 H 741.557 -3.9085 0.312839 0
M  V30 7872 H 743.047 -4.12455 -0.653477 0
M  V30 7873 N 743.484 -0.715051 -1.40445 0
M  V30 7874 C 744.73 -0.254705 -2.01194 0
M  V30 7875 C 745.063 1.14894 -1.56567 0
M  V30 7876 O 744.338 1.77933 -0.785491 0
M  V30 7877 C 744.621 -0.334148 -3.58546 0
M  V30 7878 C 744.474 -1.77613 -4.13248 0
M  V30 7879 C 745.793 0.294968 -4.3911 0
M  V30 7880 H 742.912 -0.094025 -0.730978 0
M  V30 7881 H 745.554 -0.907449 -1.66929 0
M  V30 7882 H 743.704 0.221609 -3.87867 0
M  V30 7883 H 745.376 -2.38723 -3.94727 0
M  V30 7884 H 743.619 -2.30402 -3.67556 0
M  V30 7885 H 744.29 -1.78311 -5.22407 0
M  V30 7886 H 746.766 -0.178563 -4.15717 0
M  V30 7887 H 745.642 0.208934 -5.48502 0
M  V30 7888 H 745.903 1.37841 -4.20062 0
M  V30 7889 N 744.962 1.50701 -0.461195 0
M  V30 7890 C 745.909 2.2831 0.338094 0
M  V30 7891 C 746.879 1.32928 0.995957 0
M  V30 7892 O 748.064 1.61857 1.0103 0
M  V30 7893 C 745.204 3.14539 1.41983 0
M  V30 7894 C 744.317 4.24942 0.77773 0
M  V30 7895 C 743.452 4.98443 1.83652 0
M  V30 7896 C 742.491 6.00733 1.17413 0
M  V30 7897 N 741.628 6.6755 2.17533 0
M  V30 7898 H 746.468 2.96167 -0.330051 0
M  V30 7899 H 744.005 1.4606 -0.174611 0
M  V30 7900 H 745.963 3.62877 2.05855 0
M  V30 7901 H 744.593 2.48749 2.05727 0
M  V30 7902 H 743.645 3.80391 0.0266924 0
M  V30 7903 H 744.957 4.98151 0.254362 0
M  V30 7904 H 744.111 5.50449 2.55129 0
M  V30 7905 H 742.85 4.24917 2.39367 0
M  V30 7906 H 741.855 5.47997 0.444944 0
M  V30 7907 H 743.08 6.76227 0.624006 0
M  V30 7908 H 741.026 5.96823 2.72284 0
M  V30 7909 H 740.943 7.36603 1.70154 0
M  V30 7910 H 742.211 7.24178 2.88421 0
M  V30 7911 N 746.441 0.193421 1.56409 0
M  V30 7912 C 747.718 -0.493318 1.89277 0
M  V30 7913 C 748.098 -1.79765 1.10669 0
M  V30 7914 O 747.446 -2.27558 0.207274 0
M  V30 7915 C 747.656 -0.713732 3.41624 0
M  V30 7916 C 749.004 -1.03385 4.11821 0
M  V30 7917 O 750.028 -0.801511 3.47065 0
M  V30 7918 O 748.887 -1.47327 5.26267 0
M  V30 7919 H 745.981 -0.256973 0.786062 0
M  V30 7920 H 748.527 0.23351 1.68086 0
M  V30 7921 H 747.299 0.207446 3.9075 0
M  V30 7922 H 746.922 -1.49308 3.68501 0
M  V30 7923 N 747.919 -1.57396 -0.0801906 0
M  V30 7924 C 748.829 -2.06451 -1.11423 0
M  V30 7925 C 749.845 -0.992352 -1.42928 0
M  V30 7926 O 751.021 -1.30651 -1.53272 0
M  V30 7927 C 748.086 -2.49164 -2.41077 0
M  V30 7928 C 747.147 -3.70641 -2.16619 0
M  V30 7929 C 746.38 -4.11307 -3.40092 0
M  V30 7930 O 746.603 -3.51922 -4.48895 0
M  V30 7931 O 745.537 -5.04157 -3.288 0
M  V30 7932 H 749.363 -2.94857 -0.727519 0
M  V30 7933 H 746.948 -1.46484 -0.293743 0
M  V30 7934 H 748.83 -2.77196 -3.17396 0
M  V30 7935 H 747.505 -1.6389 -2.79145 0
M  V30 7936 H 746.412 -3.47703 -1.38033 0
M  V30 7937 H 747.745 -4.5674 -1.83437 0
M  V30 7938 N 749.397 0.351382 -1.53633 0
M  V30 7939 C 750.327 1.43688 -1.84055 0
M  V30 7940 C 751.308 1.55251 -0.695073 0
M  V30 7941 O 752.493 1.69587 -0.946257 0
M  V30 7942 C 749.623 2.80843 -2.04315 0
M  V30 7943 C 748.577 2.84094 -3.20117 0
M  V30 7944 C 747.903 4.2406 -3.25696 0
M  V30 7945 C 749.203 2.50334 -4.58399 0
M  V30 7946 H 750.897 1.18478 -2.74961 0
M  V30 7947 H 748.443 0.568509 -1.32303 0
M  V30 7948 H 750.396 3.56821 -2.2418 0
M  V30 7949 H 749.12 3.07471 -1.10132 0
M  V30 7950 H 747.779 2.10568 -3.00094 0
M  V30 7951 H 747.427 4.47785 -2.29123 0
M  V30 7952 H 747.127 4.27147 -4.03509 0
M  V30 7953 H 748.651 5.0189 -3.47762 0
M  V30 7954 H 750.065 3.16025 -4.78332 0
M  V30 7955 H 748.462 2.64717 -5.38558 0
M  V30 7956 H 749.532 1.45542 -4.62543 0
M  V30 7957 O 750.914 1.53651 0.497361 0
M  V30 7958 H 751.605 1.55706 1.15218 0
M  V30 END ATOM
M  V30 BEGIN BOND
M  V30 END BOND
M  V30 END CTAB
M  END
$$$$
