drugbank_target|P07288 Prostate-specific antigen (DB00834; DB04839; DB16019)
 OpenBabel12092121063D

  0  0  0     0  0            999 V3000
M  V30 BEGIN CTAB
M  V30 COUNTS 4041 4099 0 0 0
M  V30 BEGIN ATOM
M  V30 1 H -0.908 1.98254 -0.117106 0
M  V30 2 N 0 1.576 0 0
M  V30 3 C 0.933 2.03868 1.02534 0
M  V30 4 C 1.911 0.928543 1.3348 0
M  V30 5 O 3.095 1.19667 1.45644 0
M  V30 6 C 0.222 2.43627 2.35294 0
M  V30 7 C -0.732 3.65373 2.2001 0
M  V30 8 S 0.101 5.13292 1.52614 0
M  V30 9 C 1.257 5.56322 2.86805 0
M  V30 10 H 1.49 2.90518 0.631377 0
M  V30 11 H -0.977 1.52953 0.210867 0
M  V30 12 H 0.981 2.67203 3.11629 0
M  V30 13 H -0.358 1.57376 2.7183 0
M  V30 14 H -1.165 3.90944 3.18086 0
M  V30 15 H -1.563 3.418 1.51819 0
M  V30 16 H 0.729 5.58782 3.83104 0
M  V30 17 H 1.672 6.56266 2.65933 0
M  V30 18 H 2.08 4.83886 2.90714 0
M  V30 19 N 1.4781 -0.272755 1.55222 0
M  V30 20 C 2.7241 -1.00172 1.77023 0
M  V30 21 C 3.0791 -1.83928 0.564633 0
M  V30 22 O 2.3721 -1.86416 -0.442674 0
M  V30 23 C 2.5661 -1.91642 3.01675 0
M  V30 24 C 2.3951 -1.16888 4.34243 0
M  V30 25 C 1.1651 -0.884464 4.97499 0
M  V30 26 C 3.3631 -0.55919 5.11251 0
M  V30 27 N 1.3451 -0.11015 6.13801 0
M  V30 28 C 2.7161 0.0809469 6.19947 0
M  V30 29 C 4.7711 -0.467058 4.95705 0
M  V30 30 C 3.4741 0.804335 7.14789 0
M  V30 31 C 5.5001 0.242739 5.90902 0
M  V30 32 C 4.8621 0.871613 6.98987 0
M  V30 33 H 0.9611 -0.348529 0.700037 0
M  V30 34 H 3.5451 -0.277365 1.92714 0
M  V30 35 H 1.7161 -2.61303 2.87359 0
M  V30 36 H 3.4481 -2.57901 3.1188 0
M  V30 37 H 0.2031 -1.18979 4.58411 0
M  V30 38 H 0.6271 0.264344 6.76484 0
M  V30 39 H 5.2691 -0.93894 4.12242 0
M  V30 40 H 2.9871 1.2879 7.97771 0
M  V30 41 H 6.5731 0.314347 5.8095 0
M  V30 42 H 5.4531 1.4121 7.71381 0
M  V30 43 N 2.9562 -1.48159 -0.537278 0
M  V30 44 C 4.2022 -1.56035 -1.29541 0
M  V30 45 C 4.5352 -0.230377 -1.92829 0
M  V30 46 O 3.8102 0.762952 -1.78911 0
M  V30 47 C 4.0932 -2.69323 -2.39034 0
M  V30 48 C 3.9462 -4.12002 -1.80485 0
M  V30 49 C 5.2652 -2.78408 -3.40847 0
M  V30 50 H 2.3842 -0.567992 -0.469632 0
M  V30 51 H 5.0262 -1.80302 -0.599277 0
M  V30 52 H 3.1762 -2.48763 -2.98412 0
M  V30 53 H 4.8482 -4.43981 -1.25215 0
M  V30 54 H 3.0912 -4.19344 -1.11055 0
M  V30 55 H 3.7622 -4.87077 -2.59731 0
M  V30 56 H 6.2382 -2.97012 -2.91416 0
M  V30 57 H 5.1142 -3.59416 -4.14863 0
M  V30 58 H 5.3752 -1.86269 -4.00944 0
M  V30 59 N 4.4343 0.785586 -1.36625 0
M  V30 60 C 5.8453 1.36101 -1.27803 0
M  V30 61 C 6.1963 1.96035 0.0804875 0
M  V30 62 O 5.3213 1.92834 0.982042 0
M  V30 63 C 5.9163 2.47442 -2.31426 0
M  V30 64 C 4.4753 3.00789 -2.26281 0
M  V30 65 C 3.6223 1.73896 -2.15999 0
M  V30 66 H 6.5733 0.586928 -1.47448 0
M  V30 67 H 6.5943 3.2656 -1.95291 0
M  V30 68 H 6.1063 2.03791 -3.30289 0
M  V30 69 H 4.2073 3.48851 -1.30896 0
M  V30 70 H 4.3203 3.57343 -3.19128 0
M  V30 71 H 2.6843 1.9628 -1.62316 0
M  V30 72 H 3.4673 1.32368 -3.16755 0
M  V30 73 N 5.9124 1.20967 1.01018 0
M  V30 74 C 7.1584 1.02526 1.74975 0
M  V30 75 C 7.4914 -0.4408 1.89131 0
M  V30 76 O 6.7664 -1.32718 1.42184 0
M  V30 77 C 7.0494 1.71699 3.1653 0
M  V30 78 C 6.9024 3.25791 3.10129 0
M  V30 79 C 8.2214 1.45531 4.15342 0
M  V30 80 H 5.3404 0.373863 0.635134 0
M  V30 81 H 7.9824 1.49071 1.17805 0
M  V30 82 H 6.1324 1.32128 3.65341 0
M  V30 83 H 7.8044 3.74697 2.69072 0
M  V30 84 H 6.0474 3.56363 2.47362 0
M  V30 85 H 6.7184 3.69353 4.10222 0
M  V30 86 H 9.1944 1.79872 3.75213 0
M  V30 87 H 8.0704 1.96453 5.1254 0
M  V30 88 H 8.3314 0.384237 4.40427 0
M  V30 89 N 7.3905 -1.2043 1.01659 0
M  V30 90 C 8.6365 -1.90079 0.706963 0
M  V30 91 C 8.9695 -1.78648 -0.761474 0
M  V30 92 O 8.2445 -1.17069 -1.55323 0
M  V30 93 C 8.5275 -3.41469 1.14327 0
M  V30 94 C 8.3805 -3.61833 2.67201 0
M  V30 95 C 9.6995 -4.34261 0.714529 0
M  V30 96 H 6.8185 -0.690254 0.2583 0
M  V30 97 H 9.4605 -1.41826 1.26433 0
M  V30 98 H 7.6105 -3.82696 0.669056 0
M  V30 99 H 9.2825 -3.2986 3.22475 0
M  V30 100 H 7.5255 -3.05304 3.08175 0
M  V30 101 H 8.1965 -4.67955 2.92783 0
M  V30 102 H 10.6725 -4.00682 1.12221 0
M  V30 103 H 9.5485 -5.38806 1.04784 0
M  V30 104 H 9.8095 -4.40431 -0.383799 0
M  V30 105 N 8.8686 -0.792821 -1.36206 0
M  V30 106 C 10.1156 -0.366786 -1.99151 0
M  V30 107 C 10.4436 1.06243 -1.62919 0
M  V30 108 O 9.6986 1.74927 -0.877442 0
M  V30 109 C 9.9976 -0.481501 -3.54142 0
M  V30 110 C 9.6636 -1.87202 -4.10203 0
M  V30 111 C 8.3256 -2.25248 -4.25226 0
M  V30 112 C 10.6776 -2.78237 -4.40719 0
M  V30 113 C 8.0056 -3.53723 -4.68078 0
M  V30 114 C 10.3576 -4.06144 -4.85005 0
M  V30 115 C 9.0216 -4.44207 -4.98234 0
M  V30 116 H 8.2916 -0.134217 -0.728743 0
M  V30 117 H 10.9386 -1.01094 -1.62641 0
M  V30 118 H 9.2436 0.246146 -3.91026 0
M  V30 119 H 10.9406 -0.132844 -4.0078 0
M  V30 120 H 7.5306 -1.56639 -3.98951 0
M  V30 121 H 11.7146 -2.50097 -4.28679 0
M  V30 122 H 6.9706 -3.8308 -4.76508 0
M  V30 123 H 11.1446 -4.76796 -5.07581 0
M  V30 124 H 8.7716 -5.43814 -5.31197 0
M  V30 125 N 10.3467 1.47872 -0.545128 0
M  V30 126 C 11.2767 2.32661 0.197793 0
M  V30 127 C 12.2577 1.43041 0.920504 0
M  V30 128 O 13.4427 1.71912 0.90333 0
M  V30 129 C 10.5727 3.24569 1.23582 0
M  V30 130 C 9.5267 4.23333 0.630323 0
M  V30 131 C 8.8527 5.0448 1.77211 0
M  V30 132 C 10.1527 5.20704 -0.407974 0
M  V30 133 H 11.8467 2.95024 -0.510045 0
M  V30 134 H 9.3927 1.4187 -0.246731 0
M  V30 135 H 11.3457 3.8272 1.76362 0
M  V30 136 H 10.0697 2.60236 1.97344 0
M  V30 137 H 8.7287 3.6639 0.123922 0
M  V30 138 H 8.3767 4.36561 2.49847 0
M  V30 139 H 8.0767 5.71339 1.37281 0
M  V30 140 H 9.6007 5.65487 2.3034 0
M  V30 141 H 11.0147 5.7329 0.033305 0
M  V30 142 H 9.4117 5.95699 -0.725486 0
M  V30 143 H 10.4817 4.66917 -1.30828 0
M  V30 144 N 11.8248 0.280983 1.55075 0
M  V30 145 C 13.0528 -0.337293 2.04132 0
M  V30 146 C 13.4678 -1.4903 1.15912 0
M  V30 147 O 12.8248 -1.81606 0.180459 0
M  V30 148 C 12.8758 -0.812706 3.52246 0
M  V30 149 O 12.5968 0.294387 4.3711 0
M  V30 150 C 14.0978 -1.4982 4.17216 0
M  V30 151 H 11.3178 -0.0761638 0.666663 0
M  V30 152 H 13.8618 0.414787 2.00249 0
M  V30 153 H 12.0168 -1.51486 3.56554 0
M  V30 154 H 12.4308 -0.0721325 5.2445 0
M  V30 155 H 13.9048 -1.7822 5.22438 0
M  V30 156 H 14.3818 -2.43168 3.65741 0
M  V30 157 H 14.9878 -0.839742 4.16927 0
M  V30 158 N 13.3029 -1.57598 0.00835791 0
M  V30 159 C 14.2329 -2.1198 -0.979113 0
M  V30 160 C 15.2139 -1.03091 -1.35301 0
M  V30 161 O 16.3989 -1.30818 -1.43528 0
M  V30 162 C 13.5289 -2.62995 -2.26828 0
M  V30 163 C 12.4829 -3.76485 -2.03576 0
M  V30 164 C 11.8089 -4.13846 -3.38579 0
M  V30 165 C 13.1089 -5.0342 -1.39161 0
M  V30 166 H 14.8029 -2.94738 -0.526281 0
M  V30 167 H 12.3489 -1.41783 -0.251704 0
M  V30 168 H 14.3019 -2.99669 -2.96271 0
M  V30 169 H 13.0259 -1.7737 -2.7424 0
M  V30 170 H 11.6849 -3.40217 -1.36557 0
M  V30 171 H 11.3329 -3.25232 -3.83709 0
M  V30 172 H 11.0329 -4.90312 -3.23834 0
M  V30 173 H 12.5569 -4.53086 -4.09323 0
M  V30 174 H 13.9709 -5.37812 -1.98573 0
M  V30 175 H 12.3679 -5.84746 -1.34878 0
M  V30 176 H 13.4379 -4.83548 -0.361868 0
M  V30 177 N 14.781 0.264519 -1.55364 0
M  V30 178 C 16.006 1.01726 -1.80739 0
M  V30 179 C 16.431 1.78836 -0.583044 0
M  V30 180 O 15.789 1.75167 0.467566 0
M  V30 181 C 15.837 1.94482 -3.03659 0
M  V30 182 O 14.941 3.03386 -2.7934 0
M  V30 183 H 14.282 0.290395 -0.597132 0
M  V30 184 H 16.812 0.290854 -2.02522 0
M  V30 185 H 16.822 2.36278 -3.32621 0
M  V30 186 H 15.497 1.37772 -3.92418 0
M  V30 187 H 14.074 2.65844 -2.61498 0
M  V30 188 N 16.2591 1.48442 0.529413 0
M  V30 189 C 17.5051 1.5672 1.28711 0
M  V30 190 C 17.8381 0.2406 1.92704 0
M  V30 191 O 17.1131 -0.753454 1.79313 0
M  V30 192 C 17.3961 2.70587 2.37603 0
M  V30 193 C 17.2491 4.12953 1.78297 0
M  V30 194 C 18.5681 2.80212 3.39366 0
M  V30 195 H 15.6871 0.570474 0.466613 0
M  V30 196 H 18.3291 1.80617 0.589706 0
M  V30 197 H 16.4791 2.50342 2.97088 0
M  V30 198 H 18.1511 4.44639 1.22858 0
M  V30 199 H 16.3941 4.19927 1.0883 0
M  V30 200 H 17.0651 4.88448 2.57144 0
M  V30 201 H 19.5411 2.98553 2.89836 0
M  V30 202 H 18.4171 3.61611 4.12951 0
M  V30 203 H 18.6781 1.88393 3.99951 0
M  V30 204 N 17.7372 -0.778329 1.37039 0
M  V30 205 C 18.9652 -1.56734 1.35063 0
M  V30 206 C 19.3802 -1.88686 -0.0655597 0
M  V30 207 O 18.7372 -1.5096 -1.02554 0
M  V30 208 C 18.7882 -2.88163 2.18276 0
M  V30 209 O 18.5092 -2.57583 3.54376 0
M  V30 210 C 20.0102 -3.82422 2.24206 0
M  V30 211 H 17.2302 -0.485778 0.462883 0
M  V30 212 H 19.7742 -0.965185 1.8029 0
M  V30 213 H 17.9292 -3.44818 1.76576 0
M  V30 214 H 18.3432 -3.41699 3.97922 0
M  V30 215 H 19.8172 -4.71667 2.86765 0
M  V30 216 H 20.2942 -4.21078 1.24861 0
M  V30 217 H 20.9002 -3.31697 2.6619 0
M  V30 218 N 19.2153 -1.21501 -1.00376 0
M  V30 219 C 20.4613 -1.04457 -1.74529 0
M  V30 220 C 20.8163 0.417386 -1.87818 0
M  V30 221 O 20.1093 1.30556 -1.40234 0
M  V30 222 C 20.3033 -1.67673 -3.15627 0
M  V30 223 C 20.1323 -3.19865 -3.16096 0
M  V30 224 C 18.9023 -3.88915 -3.22604 0
M  V30 225 C 21.1003 -4.16936 -3.01112 0
M  V30 226 N 19.0823 -5.28284 -3.12712 0
M  V30 227 C 20.4533 -5.43066 -2.99131 0
M  V30 228 C 22.5083 -4.07968 -2.85423 0
M  V30 229 C 21.2113 -6.6126 -2.83068 0
M  V30 230 C 23.2373 -5.258 -2.70718 0
M  V30 231 C 22.5993 -6.50842 -2.69414 0
M  V30 232 H 18.6983 -0.436584 -0.648782 0
M  V30 233 H 21.2823 -1.53875 -1.19293 0
M  V30 234 H 19.4533 -1.20822 -3.6913 0
M  V30 235 H 21.1853 -1.43824 -3.78281 0
M  V30 236 H 17.9403 -3.39847 -3.2985 0
M  V30 237 H 18.3643 -6.01284 -3.11105 0
M  V30 238 H 23.0063 -3.1209 -2.85236 0
M  V30 239 H 20.7243 -7.57298 -2.82002 0
M  V30 240 H 24.3103 -5.20683 -2.59577 0
M  V30 241 H 23.1903 -7.40485 -2.5817 0
M  V30 242 N 20.6934 1.19889 -1.02296 0
M  V30 243 C 21.9424 1.88743 -0.711257 0
M  V30 244 C 22.2554 1.80112 0.762817 0
M  V30 245 O 23.4614 2.44161 1.18733 0
M  V30 246 C 21.9174 3.38525 -1.22185 0
M  V30 247 C 21.5254 3.55727 -2.72328 0
M  V30 248 C 23.2694 4.12893 -0.985864 0
M  V30 249 C 21.1764 4.99369 -3.16835 0
M  V30 250 H 20.1064 0.706885 -0.262353 0
M  V30 251 H 22.7574 1.35586 -1.23648 0
M  V30 252 H 21.1394 3.91044 -0.624571 0
M  V30 253 H 22.3134 3.13564 -3.3766 0
M  V30 254 H 20.6284 2.94739 -2.9414 0
M  V30 255 H 23.2254 5.18813 -1.29374 0
M  V30 256 H 23.5684 4.16228 0.0775055 0
M  V30 257 H 24.1014 3.66494 -1.54684 0
M  V30 258 H 20.8404 5.01193 -4.22476 0
M  V30 259 H 20.3604 5.42317 -2.56228 0
M  V30 260 H 22.0394 5.67988 -3.09837 0
M  V30 261 N 22.1715 0.800033 1.35784 0
M  V30 262 C 23.4195 0.376597 1.9856 0
M  V30 263 C 23.7405 -1.05812 1.63795 0
M  V30 264 O 23.0105 -1.73103 0.917171 0
M  V30 265 H 21.5905 0.136261 0.734467 0
M  V30 266 H 24.2525 1.02442 1.65806 0
M  V30 267 H 23.3485 0.477002 3.08433 0
M  V30 268 N 23.6496 -1.47581 0.552962 0
M  V30 269 C 24.6126 -2.28439 -0.186605 0
M  V30 270 C 25.6126 -1.36706 -0.84665 0
M  V30 271 O 26.8026 -1.59378 -0.703164 0
M  V30 272 C 23.9346 -3.16264 -1.2724 0
M  V30 273 H 25.1276 -2.95294 0.523609 0
M  V30 274 H 22.6806 -1.532 0.309745 0
M  V30 275 H 23.4156 -2.54091 -2.01514 0
M  V30 276 H 23.2006 -3.83769 -0.803968 0
M  V30 277 H 24.6906 -3.77198 -1.79196 0
M  V30 278 N 25.1277 -0.289203 -1.54924 0
M  V30 279 C 26.0907 0.579144 -2.21762 0
M  V30 280 C 27.0907 1.07047 -1.1999 0
M  V30 281 O 28.2807 0.968384 -1.44803 0
M  V30 282 C 25.4127 1.80055 -2.8947 0
M  V30 283 H 26.6057 -0.00464908 -2.999 0
M  V30 284 H 24.1587 -0.0399306 -1.56249 0
M  V30 285 H 24.8937 2.42449 -2.15381 0
M  V30 286 H 24.6787 1.45602 -3.64064 0
M  V30 287 H 26.1687 2.41773 -3.40493 0
M  V30 288 N 26.6058 1.57591 -0.0167156 0
M  V30 289 C 28.0168 1.79201 0.523834 0
M  V30 290 C 28.3678 0.925796 1.72984 0
M  V30 291 O 27.4928 0.132792 2.15992 0
M  V30 292 C 28.0878 3.25 0.957091 0
M  V30 293 C 26.6468 3.47648 1.44283 0
M  V30 294 C 25.7938 2.74374 0.401757 0
M  V30 295 H 28.7448 1.56831 -0.242816 0
M  V30 296 H 28.7658 3.34031 1.82219 0
M  V30 297 H 28.2778 3.88019 0.0791415 0
M  V30 298 H 26.3788 2.89866 2.34113 0
M  V30 299 H 26.4918 4.56352 1.45877 0
M  V30 300 H 24.8558 2.39485 0.867121 0
M  V30 301 H 25.6388 3.40102 -0.467513 0
M  V30 302 N 28.0839 -0.256276 1.55502 0
M  V30 303 C 29.0139 -1.32102 1.92539 0
M  V30 304 C 29.9949 -1.50684 0.789194 0
M  V30 305 O 31.1799 -1.63449 1.04872 0
M  V30 306 C 28.3099 -2.67752 2.21192 0
M  V30 307 C 27.2639 -2.63878 3.36975 0
M  V30 308 C 26.5899 -4.03236 3.51147 0
M  V30 309 C 27.8899 -2.21682 4.72921 0
M  V30 310 H 29.5839 -1.01351 2.81724 0
M  V30 311 H 27.1299 -0.486105 1.35547 0
M  V30 312 H 29.0829 -3.42365 2.45691 0
M  V30 313 H 27.8069 -3.0012 1.28824 0
M  V30 314 H 26.4659 -1.91722 3.12471 0
M  V30 315 H 26.1139 -4.32854 2.56216 0
M  V30 316 H 25.8139 -4.01535 4.29003 0
M  V30 317 H 27.3379 -4.79563 3.77957 0
M  V30 318 H 28.7519 -2.86023 4.96854 0
M  V30 319 H 27.1489 -2.3111 5.53812 0
M  V30 320 H 28.2189 -1.16833 4.70615 0
M  V30 321 N 29.562 -1.4872 -0.521534 0
M  V30 322 C 30.811 -1.56419 -1.27341 0
M  V30 323 C 31.124 -0.246805 -1.94037 0
M  V30 324 O 32.33 -0.202122 -2.70747 0
M  V30 325 C 30.786 -2.75896 -2.31105 0
M  V30 326 C 30.394 -4.14311 -1.70441 0
M  V30 327 C 32.138 -2.92913 -3.07249 0
M  V30 328 C 30.045 -5.25038 -2.72194 0
M  V30 329 H 28.975 -0.582344 -0.478949 0
M  V30 330 H 31.626 -1.75071 -0.549779 0
M  V30 331 H 30.008 -2.50697 -3.06541 0
M  V30 332 H 31.182 -4.49564 -1.01136 0
M  V30 333 H 29.497 -4.02482 -1.06759 0
M  V30 334 H 32.094 -3.72805 -3.83302 0
M  V30 335 H 32.437 -2.02689 -3.63625 0
M  V30 336 H 32.97 -3.18054 -2.38928 0
M  V30 337 H 29.709 -6.17255 -2.20627 0
M  V30 338 H 29.229 -4.94263 -3.39801 0
M  V30 339 H 30.908 -5.53508 -3.35019 0
M  V30 340 N 31.0401 0.771051 -1.3745 0
M  V30 341 C 31.9701 1.89827 -1.3597 0
M  V30 342 C 32.9511 1.68562 -0.228216 0
M  V30 343 O 34.1361 1.8941 -0.428675 0
M  V30 344 C 31.2661 3.2712 -1.16662 0
M  V30 345 C 30.2201 3.6295 -2.2683 0
M  V30 346 C 29.5461 4.98791 -1.92644 0
M  V30 347 C 30.8461 3.69627 -3.69017 0
M  V30 348 H 32.5401 1.91323 -2.30295 0
M  V30 349 H 30.0861 0.919082 -1.10855 0
M  V30 350 H 32.0391 4.05615 -1.14256 0
M  V30 351 H 30.7631 3.26059 -0.187926 0
M  V30 352 H 29.4221 2.86763 -2.28392 0
M  V30 353 H 29.0701 4.94271 -0.933021 0
M  V30 354 H 28.7701 5.23733 -2.66416 0
M  V30 355 H 30.2941 5.79685 -1.91826 0
M  V30 356 H 31.7081 4.38273 -3.69581 0
M  V30 357 H 30.1051 4.06067 -4.41848 0
M  V30 358 H 31.1751 2.70273 -4.02592 0
M  V30 359 N 32.5182 1.22032 0.997298 0
M  V30 360 C 33.7432 1.06921 1.77715 0
M  V30 361 C 34.1682 -0.376226 1.84299 0
M  V30 362 O 33.5262 -1.27165 1.29223 0
M  V30 363 C 33.5742 1.67996 3.19076 0
M  V30 364 O 32.6782 0.930653 4.01762 0
M  V30 365 H 32.0192 0.375814 0.547412 0
M  V30 366 H 34.5492 1.61737 1.25309 0
M  V30 367 H 34.5592 1.72538 3.69723 0
M  V30 368 H 33.2342 2.73182 3.13599 0
M  V30 369 H 31.8112 0.960917 3.60307 0
M  V30 370 N 33.9963 -1.19345 1.0293 0
M  V30 371 C 35.4123 -1.41069 0.746446 0
M  V30 372 C 35.6123 -1.90078 -0.668776 0
M  V30 373 O 34.6683 -2.0778 -1.4347 0
M  V30 374 C 35.9813 -2.42141 1.78292 0
M  V30 375 C 37.5293 -2.55887 1.80252 0
M  V30 376 C 38.0043 -3.60214 2.8286 0
M  V30 377 N 39.4953 -3.67711 2.81679 0
M  V30 378 C 40.2303 -4.48128 3.57727 0
M  V30 379 N 39.7263 -5.32248 4.43491 0
M  V30 380 N 41.5193 -4.42782 3.46267 0
M  V30 381 H 33.6703 -0.858536 1.94275 0
M  V30 382 H 35.9333 -0.439541 0.839945 0
M  V30 383 H 35.6393 -2.13155 2.79746 0
M  V30 384 H 35.5133 -3.41323 1.60557 0
M  V30 385 H 37.9003 -2.84196 0.794757 0
M  V30 386 H 37.9813 -1.56858 2.02062 0
M  V30 387 H 37.6253 -3.32647 3.83807 0
M  V30 388 H 37.5553 -4.58895 2.58307 0
M  V30 389 H 40.0463 -3.07634 2.19476 0
M  V30 390 H 40.3593 -5.90729 4.98256 0
M  V30 391 H 38.7043 -5.31707 4.47564 0
M  V30 392 H 41.8953 -3.76107 2.78677 0
M  V30 393 H 42.0683 -5.05215 4.05785 0
M  V30 394 N 35.4744 -0.807222 -1.35358 0
M  V30 395 C 36.7234 -0.384376 -1.98004 0
M  V30 396 C 37.0364 1.0543 -1.64754 0
M  V30 397 O 38.2424 1.58029 -2.20769 0
M  V30 398 C 36.6984 -0.636326 -3.5423 0
M  V30 399 C 36.3064 -2.08759 -3.96388 0
M  V30 400 C 38.0504 -0.278869 -4.23583 0
M  V30 401 C 35.9574 -2.28525 -5.45463 0
M  V30 402 H 34.8874 -0.139986 -0.740891 0
M  V30 403 H 37.5384 -0.991369 -1.54415 0
M  V30 404 H 35.9204 0.0406256 -3.95979 0
M  V30 405 H 37.0944 -2.8024 -3.6579 0
M  V30 406 H 35.4094 -2.40497 -3.39926 0
M  V30 407 H 38.0064 -0.404599 -5.33167 0
M  V30 408 H 38.3494 0.775012 -4.09022 0
M  V30 409 H 38.8824 -0.909764 -3.87257 0
M  V30 410 H 35.6214 -3.32361 -5.64992 0
M  V30 411 H 35.1414 -1.61569 -5.77629 0
M  V30 412 H 36.8204 -2.10109 -6.11934 0
M  V30 413 N 36.9525 1.47285 -0.560781 0
M  V30 414 C 38.1985 2.02764 -0.0381184 0
M  V30 415 C 38.5315 1.43384 1.30976 0
M  V30 416 O 37.8065 0.590733 1.85312 0
M  V30 417 C 38.0895 3.60064 0.0511427 0
M  V30 418 C 37.9425 4.2987 -1.32408 0
M  V30 419 C 39.2615 4.33439 0.762795 0
M  V30 420 H 36.3805 0.736841 -0.0153264 0
M  V30 421 H 39.0225 1.75675 -0.723759 0
M  V30 422 H 37.1725 3.83274 0.635065 0
M  V30 423 H 38.8445 4.17989 -1.95148 0
M  V30 424 H 37.0875 3.90085 -1.8978 0
M  V30 425 H 37.7585 5.38478 -1.21431 0
M  V30 426 H 40.2345 4.15243 0.266965 0
M  V30 427 H 39.1105 5.43124 0.794221 0
M  V30 428 H 39.3715 4.02915 1.81966 0
M  V30 429 N 38.4306 0.297415 1.54768 0
M  V30 430 C 39.6786 -0.312295 1.99673 0
M  V30 431 C 39.9996 -1.54686 1.18732 0
M  V30 432 O 39.2696 -1.93854 0.282382 0
M  V30 433 H 37.8496 -0.118381 0.73756 0
M  V30 434 H 40.5116 0.407915 1.90583 0
M  V30 435 H 39.6076 -0.586813 3.06534 0
M  V30 436 N 39.9087 -1.5758 0.0250728 0
M  V30 437 C 41.1567 -1.91255 -0.653151 0
M  V30 438 C 41.4777 -0.901691 -1.729 0
M  V30 439 O 40.7477 0.0573785 -1.95816 0
M  V30 440 H 39.3277 -0.705942 -0.244243 0
M  V30 441 H 41.9897 -1.94767 0.0719209 0
M  V30 442 H 41.0857 -2.91752 -1.10847 0
M  V30 443 N 41.3868 0.248026 -1.55636 0
M  V30 444 C 42.6328 0.973427 -1.78594 0
M  V30 445 C 42.9878 1.83007 -0.593823 0
M  V30 446 O 42.2808 1.87097 0.412961 0
M  V30 447 C 42.4748 1.86819 -3.04686 0
M  V30 448 C 42.3038 1.09965 -4.36048 0
M  V30 449 C 41.0738 0.805204 -4.98843 0
M  V30 450 C 43.2718 0.477783 -5.12076 0
M  V30 451 N 41.2538 0.0124859 -6.13899 0
M  V30 452 C 42.6248 -0.179565 -6.1974 0
M  V30 453 C 44.6798 0.388136 -4.96385 0
M  V30 454 C 43.3828 -0.91795 -7.13419 0
M  V30 455 C 45.4088 -0.336716 -5.90441 0
M  V30 456 C 44.7708 -0.982705 -6.97511 0
M  V30 457 H 40.8698 0.337348 -0.705493 0
M  V30 458 H 43.4538 0.24667 -1.93131 0
M  V30 459 H 41.6248 2.56698 -2.9148 0
M  V30 460 H 43.3568 2.52907 -3.15944 0
M  V30 461 H 40.1118 1.11671 -4.60246 0
M  V30 462 H 40.5358 -0.371933 -6.75978 0
M  V30 463 H 45.1778 0.873237 -4.13684 0
M  V30 464 H 42.8958 -1.41466 -7.95621 0
M  V30 465 H 46.4818 -0.406731 -5.80377 0
M  V30 466 H 45.3618 -1.53464 -7.69037 0
M  V30 467 N 42.8649 1.48995 0.513639 0
M  V30 468 C 43.7749 1.67443 1.64317 0
M  V30 469 C 44.7909 0.556947 1.64846 0
M  V30 470 O 45.9669 0.830082 1.83498 0
M  V30 471 C 43.0319 1.72515 3.00732 0
M  V30 472 C 42.0929 2.96009 3.1093 0
M  V30 473 C 41.3259 3.00829 4.40837 0
M  V30 474 O 41.5489 2.13594 5.28898 0
M  V30 475 O 40.4829 3.93168 4.55744 0
M  V30 476 H 44.3089 2.63106 1.51687 0
M  V30 477 H 41.8939 1.32588 0.688543 0
M  V30 478 H 43.7759 1.78277 3.81831 0
M  V30 479 H 42.4509 0.800278 3.13651 0
M  V30 480 H 41.3579 2.9577 2.29065 0
M  V30 481 H 42.6909 3.87934 3.02933 0
M  V30 482 N 44.343 -0.763751 1.37857 0
M  V30 483 C 45.583 -1.53551 1.34913 0
M  V30 484 C 45.947 -1.91895 -0.0635882 0
M  V30 485 O 47.148 -2.67916 -0.217825 0
M  V30 486 C 45.419 -2.76126 2.26912 0
M  V30 487 S 46.978 -3.66105 2.41893 0
M  V30 488 H 43.796 -0.52559 0.478828 0
M  V30 489 H 46.398 -0.897435 1.73685 0
M  V30 490 H 45.102 -2.4605 3.28463 0
M  V30 491 H 44.633 -3.44887 1.89253 0
M  V30 492 H 46.648 -4.68473 1.63545 0
M  V30 493 N 45.8211 -1.22559 -0.990812 0
M  V30 494 C 46.7311 -1.01394 -2.11557 0
M  V30 495 C 47.7471 0.0383962 -1.73958 0
M  V30 496 O 48.9231 -0.154787 -2.00804 0
M  V30 497 C 45.9881 -0.596569 -3.41529 0
M  V30 498 C 45.0491 -1.72276 -3.93217 0
M  V30 499 C 44.2821 -1.32521 -5.16985 0
M  V30 500 O 44.5051 -0.204909 -5.70032 0
M  V30 501 O 43.4391 -2.14247 -5.62478 0
M  V30 502 H 47.2651 -1.95633 -2.32296 0
M  V30 503 H 44.8501 -1.01172 -1.0993 0
M  V30 504 H 46.7321 -0.374263 -4.19735 0
M  V30 505 H 45.4071 0.316939 -3.22145 0
M  V30 506 H 44.3141 -1.99961 -3.16174 0
M  V30 507 H 45.6471 -2.61421 -4.17037 0
M  V30 508 N 47.2992 1.18797 -1.03562 0
M  V30 509 C 48.2462 2.22253 -0.622259 0
M  V30 510 C 49.2162 1.61987 0.36736 0
M  V30 511 O 50.4012 1.88986 0.262492 0
M  V30 512 C 47.5412 3.45097 0.0138462 0
M  V30 513 C 46.6542 4.19722 -1.02263 0
M  V30 514 C 45.7892 5.30009 -0.355573 0
M  V30 515 C 44.8282 5.96399 -1.37749 0
M  V30 516 N 43.9652 6.98234 -0.735766 0
M  V30 517 H 48.8052 2.56968 -1.50903 0
M  V30 518 H 46.3422 1.26245 -0.755017 0
M  V30 519 H 48.3002 4.15279 0.399948 0
M  V30 520 H 46.9302 3.11018 0.864158 0
M  V30 521 H 45.9822 3.48418 -1.52673 0
M  V30 522 H 47.2942 4.65227 -1.79903 0
M  V30 523 H 46.4482 6.0664 0.0850095 0
M  V30 524 H 45.1872 4.85592 0.452967 0
M  V30 525 H 44.1922 5.18512 -1.82826 0
M  V30 526 H 45.4172 6.42899 -2.18764 0
M  V30 527 H 43.3632 6.55979 0.0525597 0
M  V30 528 H 43.2802 7.41965 -1.44995 0
M  V30 529 H 44.5482 7.78845 -0.31941 0
M  V30 530 N 48.7773 0.814389 1.34928 0
M  V30 531 C 49.7273 0.202752 2.27097 0
M  V30 532 C 50.7113 -0.62799 1.48139 0
M  V30 533 O 51.9033 -0.483969 1.70255 0
M  V30 534 C 49.0323 -0.64146 3.37254 0
M  V30 535 C 48.1183 0.19944 4.23631 0
M  V30 536 N 48.5093 1.26628 4.89693 0
M  V30 537 C 46.8073 -0.0176433 4.45997 0
M  V30 538 C 47.5083 1.78031 5.53787 0
M  V30 539 N 46.4843 1.08553 5.32651 0
M  V30 540 H 50.2863 1.01893 2.75672 0
M  V30 541 H 47.8003 0.656332 1.48546 0
M  V30 542 H 49.7973 -1.09575 4.02243 0
M  V30 543 H 48.4573 -1.4559 2.9023 0
M  V30 544 H 49.4683 1.64901 4.90946 0
M  V30 545 H 46.1453 -0.800601 4.09752 0
M  V30 546 H 47.5353 2.67236 6.16469 0
M  V30 547 N 50.2554 -1.46986 0.568584 0
M  V30 548 C 51.4804 -2.07335 0.0520528 0
M  V30 549 C 51.9054 -1.41675 -1.23733 0
M  V30 550 O 51.2634 -0.495623 -1.74394 0
M  V30 551 C 51.3114 -3.60417 -0.11501 0
M  V30 552 O 50.4154 -3.95309 -1.17492 0
M  V30 553 H 49.7564 -0.661597 0.0564385 0
M  V30 554 H 52.2864 -1.88837 0.787507 0
M  V30 555 H 52.2964 -4.06698 -0.325644 0
M  V30 556 H 50.9714 -4.07601 0.826675 0
M  V30 557 H 49.5484 -3.60757 -0.943869 0
M  V30 558 N 51.7335 -0.305618 -1.54608 0
M  V30 559 C 52.6655 0.602161 -2.21149 0
M  V30 560 C 53.6785 1.09394 -1.20569 0
M  V30 561 O 54.8675 1.0106 -1.47136 0
M  V30 562 C 51.9675 1.83692 -2.84799 0
M  V30 563 C 51.1405 1.48686 -4.11353 0
M  V30 564 C 50.1995 2.57725 -4.58764 0
M  V30 565 O 49.2255 2.22623 -5.23858 0
M  V30 566 N 50.4275 3.88346 -4.31471 0
M  V30 567 H 53.1925 0.0324966 -2.99682 0
M  V30 568 H 50.7535 -0.128021 -1.61393 0
M  V30 569 H 52.7455 2.55994 -3.13448 0
M  V30 570 H 51.3155 2.31486 -2.10078 0
M  V30 571 H 50.5355 0.596269 -3.89664 0
M  V30 572 H 51.8235 1.22842 -4.93748 0
M  V30 573 H 51.2215 4.19671 -3.79331 0
M  V30 574 H 49.7785 4.56932 -4.64818 0
M  V30 575 N 53.2116 1.57565 -0.0334293 0
M  V30 576 C 54.6226 1.79746 0.504798 0
M  V30 577 C 54.9736 0.944091 1.71992 0
M  V30 578 O 54.0986 0.155694 2.15839 0
M  V30 579 C 54.6936 3.25997 0.922567 0
M  V30 580 C 53.2526 3.49159 1.40588 0
M  V30 581 C 52.3996 2.74785 0.372633 0
M  V30 582 H 55.3506 1.56565 -0.259436 0
M  V30 583 H 55.3716 3.35945 1.78666 0
M  V30 584 H 54.8836 3.88081 0.0379825 0
M  V30 585 H 52.9846 2.92332 2.31025 0
M  V30 586 H 53.0976 4.57873 1.41028 0
M  V30 587 H 51.4616 2.40391 0.841672 0
M  V30 588 H 52.2446 3.39587 -0.503559 0
M  V30 589 N 54.6897 -0.239769 1.55765 0
M  V30 590 C 55.9357 -0.963942 1.79108 0
M  V30 591 C 56.2907 -1.82689 0.60352 0
M  V30 592 O 55.5837 -1.87313 -0.403033 0
M  V30 593 C 55.7777 -1.852 3.05672 0
M  V30 594 C 55.6067 -1.07651 4.36625 0
M  V30 595 C 54.3767 -0.778738 4.99263 0
M  V30 596 C 56.5747 -0.45062 5.12322 0
M  V30 597 N 54.5567 0.0200708 6.13897 0
M  V30 598 C 55.9277 0.212429 6.19636 0
M  V30 599 C 57.9827 -0.361806 4.96584 0
M  V30 600 C 56.6857 0.955772 7.12922 0
M  V30 601 C 58.7117 0.368023 5.90254 0
M  V30 602 C 58.0737 1.01968 6.96981 0
M  V30 603 H 54.1727 -0.333601 0.707272 0
M  V30 604 H 56.7567 -0.236425 1.93259 0
M  V30 605 H 54.9277 -2.55149 2.92837 0
M  V30 606 H 56.6597 -2.51228 3.1728 0
M  V30 607 H 53.4147 -1.09229 4.60832 0
M  V30 608 H 53.8387 0.407777 6.75771 0
M  V30 609 H 58.4807 -0.851286 4.14141 0
M  V30 610 H 56.1987 1.45683 7.9486 0
M  V30 611 H 59.7847 0.437504 5.80153 0
M  V30 612 H 58.6647 1.5754 7.68213 0
M  V30 613 N 56.1678 -1.49265 -0.50573 0
M  V30 614 C 57.0998 -1.617 -1.62437 0
M  V30 615 C 58.1128 -0.499924 -1.54934 0
M  V30 616 O 59.3018 -0.771785 -1.60953 0
M  V30 617 C 56.4018 -1.5533 -3.01207 0
M  V30 618 C 55.5748 -2.8249 -3.33943 0
M  V30 619 C 54.6338 -2.69238 -4.52103 0
M  V30 620 O 53.6598 -3.43167 -4.5412 0
M  V30 621 N 54.8618 -1.80468 -5.51735 0
M  V30 622 H 57.6268 -2.58177 -1.52199 0
M  V30 623 H 55.1878 -1.46294 -0.693511 0
M  V30 624 H 57.1798 -1.44125 -3.78167 0
M  V30 625 H 55.7498 -0.667297 -3.05395 0
M  V30 626 H 54.9698 -3.08081 -2.45926 0
M  V30 627 H 56.2578 -3.66802 -3.5261 0
M  V30 628 H 55.6558 -1.19653 -5.52901 0
M  V30 629 H 54.2128 -1.75188 -6.27816 0
M  V30 630 N 57.6459 0.756429 -1.3826 0
M  V30 631 C 58.8919 1.51772 -1.34511 0
M  V30 632 C 59.2249 1.94089 0.0656691 0
M  V30 633 O 58.4999 1.65221 1.02626 0
M  V30 634 C 58.7829 2.77226 -2.29821 0
M  V30 635 C 58.6359 2.41065 -3.79747 0
M  V30 636 C 59.9549 3.79236 -2.23312 0
M  V30 637 H 57.0739 0.550578 -0.489931 0
M  V30 638 H 59.7159 0.866607 -1.69086 0
M  V30 639 H 57.8659 3.32784 -2.00467 0
M  V30 640 H 59.5379 1.91303 -4.19763 0
M  V30 641 H 57.7809 1.7356 -3.97567 0
M  V30 642 H 58.4519 3.3081 -4.41892 0
M  V30 643 H 60.9279 3.3321 -2.49219 0
M  V30 644 H 59.8039 4.64714 -2.92116 0
M  V30 645 H 60.0649 4.24615 -1.23102 0
M  V30 646 N 59.124 1.23083 0.984299 0
M  V30 647 C 60.054 1.03292 2.09411 0
M  V30 648 C 61.035 -0.048923 1.7003 0
M  V30 649 O 62.22 0.114967 1.93859 0
M  V30 650 C 59.35 0.619155 3.41736 0
M  V30 651 C 58.304 1.64791 3.95004 0
M  V30 652 C 57.63 1.0897 5.23478 0
M  V30 653 C 58.93 3.03999 4.24714 0
M  V30 654 H 60.624 1.96119 2.26225 0
M  V30 655 H 58.17 0.944344 1.08711 0
M  V30 656 H 60.123 0.467777 4.18796 0
M  V30 657 H 58.847 -0.344786 3.24775 0
M  V30 658 H 57.506 1.78721 3.20085 0
M  V30 659 H 57.154 0.11686 5.02864 0
M  V30 660 H 56.854 1.77704 5.60085 0
M  V30 661 H 58.378 0.950093 6.03163 0
M  V30 662 H 59.792 2.93393 4.92538 0
M  V30 663 H 58.189 3.69936 4.72512 0
M  V30 664 H 59.259 3.53285 3.32142 0
M  V30 665 N 60.6021 -1.18246 1.0419 0
M  V30 666 C 61.8481 -1.88536 0.747122 0
M  V30 667 C 62.1811 -1.80223 -0.723409 0
M  V30 668 O 61.4561 -1.20337 -1.52804 0
M  V30 669 C 61.7391 -3.38968 1.21544 0
M  V30 670 C 61.5921 -3.56084 2.74816 0
M  V30 671 C 62.9111 -4.32648 0.806482 0
M  V30 672 H 60.0301 -0.684619 0.272883 0
M  V30 673 H 62.6721 -1.39113 1.29413 0
M  V30 674 H 60.8221 -3.8119 0.750081 0
M  V30 675 H 62.4941 -3.22946 3.29399 0
M  V30 676 H 60.7371 -2.98699 3.14582 0
M  V30 677 H 61.4081 -4.61639 3.02644 0
M  V30 678 H 63.8841 -3.98211 1.20695 0
M  V30 679 H 62.7601 -5.36462 1.1619 0
M  V30 680 H 63.0211 -4.41146 -0.29029 0
M  V30 681 N 62.0802 -0.821533 -1.34494 0
M  V30 682 C 63.0432 -0.247847 -2.27856 0
M  V30 683 C 64.0432 0.573453 -1.50227 0
M  V30 684 O 65.2332 0.389759 -1.69784 0
M  V30 685 C 62.3652 0.652698 -3.34593 0
M  V30 686 H 63.5582 -1.07146 -2.80107 0
M  V30 687 H 61.1112 -0.593291 -1.44602 0
M  V30 688 H 61.8462 1.49943 -2.87555 0
M  V30 689 H 61.6312 0.065292 -3.92046 0
M  V30 690 H 63.1212 1.04793 -4.04238 0
M  V30 691 N 63.5583 1.46682 -0.576371 0
M  V30 692 C 64.7833 2.07304 -0.0630475 0
M  V30 693 C 65.2083 1.42329 1.2298 0
M  V30 694 O 64.5663 0.504865 1.74129 0
M  V30 695 C 64.6143 3.60472 0.095895 0
M  V30 696 O 63.7183 3.95927 1.15394 0
M  V30 697 H 63.0593 0.661288 -0.0599463 0
M  V30 698 H 65.5893 1.88417 -0.797511 0
M  V30 699 H 65.5993 4.06865 0.304071 0
M  V30 700 H 64.2743 4.07157 -0.84828 0
M  V30 701 H 62.8513 3.61252 0.924724 0
M  V30 702 N 65.0364 0.313813 1.54444 0
M  V30 703 C 66.4524 -0.0391619 1.59552 0
M  V30 704 C 66.6524 -1.51322 1.33056 0
M  V30 705 O 65.7084 -2.26782 1.11022 0
M  V30 706 C 67.0214 0.370302 2.98411 0
M  V30 707 C 68.5694 0.320139 3.11358 0
M  V30 708 C 69.0444 0.704617 4.52547 0
M  V30 709 N 70.5354 0.657645 4.58508 0
M  V30 710 C 71.2704 0.927453 5.6585 0
M  V30 711 N 70.7664 1.26389 6.81174 0
M  V30 712 N 72.5594 0.853662 5.5558 0
M  V30 713 H 64.7104 1.27433 1.69925 0
M  V30 714 H 66.9734 0.517511 0.794284 0
M  V30 715 H 66.6794 1.39694 3.22767 0
M  V30 716 H 66.5534 -0.269619 3.76235 0
M  V30 717 H 68.9404 -0.697275 2.86744 0
M  V30 718 H 69.0214 0.99486 2.35661 0
M  V30 719 H 68.6654 1.7199 4.77893 0
M  V30 720 H 68.5954 0.00768843 5.26599 0
M  V30 721 H 71.0864 0.409067 3.75679 0
M  V30 722 H 71.3994 1.4554 7.58972 0
M  V30 723 H 69.7444 1.30206 6.82694 0
M  V30 724 H 72.9354 0.590383 4.64362 0
M  V30 725 H 73.1084 1.0673 6.3915 0
M  V30 726 N 66.5145 -1.57545 0.0417849 0
M  V30 727 C 67.7625 -1.91937 -0.632829 0
M  V30 728 C 68.0835 -0.919978 -1.71934 0
M  V30 729 O 67.3535 0.0366064 -1.95866 0
M  V30 730 H 65.9335 -0.708493 -0.236742 0
M  V30 731 H 68.5955 -1.9468 0.0925745 0
M  V30 732 H 67.6915 -2.92912 -1.07746 0
M  V30 733 N 67.9926 0.231505 -1.5589 0
M  V30 734 C 69.4086 0.580748 -1.48659 0
M  V30 735 C 69.6086 1.87617 -0.73498 0
M  V30 736 O 68.6646 2.51046 -0.270586 0
M  V30 737 C 69.9776 0.669202 -2.93159 0
M  V30 738 C 71.5256 0.760499 -3.03621 0
M  V30 739 C 72.0006 0.880383 -4.49459 0
M  V30 740 N 73.4916 0.944861 -4.53461 0
M  V30 741 C 74.2266 1.05716 -5.63571 0
M  V30 742 N 73.7226 1.13403 -6.83456 0
M  V30 743 N 75.5156 1.09152 -5.514 0
M  V30 744 H 67.6666 -0.618695 -2.03189 0
M  V30 745 H 69.9296 -0.215728 -0.923128 0
M  V30 746 H 69.6356 -0.212904 -3.51055 0
M  V30 747 H 69.5096 1.5361 -3.44505 0
M  V30 748 H 71.8966 1.63305 -2.45796 0
M  V30 749 H 71.9776 -0.131864 -2.5546 0
M  V30 750 H 71.6216 0.0123284 -5.07899 0
M  V30 751 H 71.5516 1.78802 -4.95316 0
M  V30 752 H 74.0426 0.896176 -3.6712 0
M  V30 753 H 74.3556 1.21921 -7.63122 0
M  V30 754 H 72.7006 1.10333 -6.86186 0
M  V30 755 H 75.8916 1.02805 -4.56671 0
M  V30 756 H 76.0646 1.17558 -6.37247 0
M  V30 757 N 69.4707 1.49531 0.497807 0
M  V30 758 C 70.4337 1.65916 1.58128 0
M  V30 759 C 71.4337 0.530825 1.51786 0
M  V30 760 O 72.6237 0.797342 1.54881 0
M  V30 761 C 69.7557 1.65951 2.9778 0
M  V30 762 H 70.9487 2.62556 1.44929 0
M  V30 763 H 68.5017 1.38611 0.722275 0
M  V30 764 H 69.2367 0.709065 3.16453 0
M  V30 765 H 69.0217 2.47897 3.03792 0
M  V30 766 H 70.5117 1.80673 3.76493 0
M  V30 767 N 70.9488 -0.749086 1.3866 0
M  V30 768 C 72.1948 -1.51056 1.35314 0
M  V30 769 C 72.5278 -1.94121 -0.0553751 0
M  V30 770 O 71.8028 -1.65763 -1.01749 0
M  V30 771 C 72.0858 -2.76003 2.31288 0
M  V30 772 C 71.9388 -2.39047 3.8102 0
M  V30 773 C 73.2578 -3.78046 2.2532 0
M  V30 774 H 70.3768 -0.547972 0.492844 0
M  V30 775 H 73.0188 -0.857628 1.69543 0
M  V30 776 H 71.1688 -3.31716 2.02229 0
M  V30 777 H 72.8408 -1.89074 4.20771 0
M  V30 778 H 71.0838 -1.71449 3.98482 0
M  V30 779 H 71.7548 -3.28462 4.4364 0
M  V30 780 H 74.2308 -3.31884 2.50983 0
M  V30 781 H 73.1068 -4.63159 2.94576 0
M  V30 782 H 73.3678 -4.23957 1.25352 0
M  V30 783 N 72.4269 -1.23603 -0.977757 0
M  V30 784 C 73.6669 -1.08148 -1.73446 0
M  V30 785 C 74.0309 0.374785 -1.88307 0
M  V30 786 O 75.2319 0.650588 -2.60808 0
M  V30 787 C 73.5029 -1.78991 -3.0935 0
M  V30 788 S 75.0619 -1.79141 -4.00567 0
M  V30 789 H 71.8799 -0.386987 -0.596458 0
M  V30 790 H 74.4819 -1.5678 -1.16792 0
M  V30 791 H 73.1859 -2.8408 -2.96187 0
M  V30 792 H 72.7169 -1.30651 -3.71071 0
M  V30 793 H 74.7319 -0.851892 -4.88833 0
M  V30 794 N 73.905 1.17692 -1.04816 0
M  V30 795 C 75.153 1.87488 -0.754497 0
M  V30 796 C 75.474 1.81205 0.720407 0
M  V30 797 O 74.744 1.23544 1.52032 0
M  V30 798 H 73.324 0.694101 -0.276102 0
M  V30 799 H 75.986 1.42793 -1.32651 0
M  V30 800 H 75.082 2.93328 -1.06606 0
M  V30 801 N 75.3831 0.828654 1.34056 0
M  V30 802 C 76.6311 0.41863 1.97717 0
M  V30 803 C 76.9521 -1.02314 1.66002 0
M  V30 804 O 76.2221 -1.71119 0.953683 0
M  V30 805 H 74.8021 0.151809 0.731412 0
M  V30 806 H 77.4641 1.05936 1.63596 0
M  V30 807 H 76.5601 0.542318 3.07352 0
M  V30 808 N 76.8612 -1.46375 0.584142 0
M  V30 809 C 78.1072 -2.02678 0.0703716 0
M  V30 810 C 78.4402 -1.4545 -1.28678 0
M  V30 811 O 77.7152 -0.62014 -1.84349 0
M  V30 812 C 77.9982 -3.60099 0.00614674 0
M  V30 813 C 77.8512 -4.27709 1.3923 0
M  V30 814 C 79.1702 -4.34598 -0.693742 0
M  V30 815 H 76.2892 -0.736504 0.027047 0
M  V30 816 H 78.9312 -1.74501 0.751615 0
M  V30 817 H 77.0812 -3.84236 -0.574009 0
M  V30 818 H 78.7532 -4.14832 2.01773 0
M  V30 819 H 76.9962 -3.87016 1.95962 0
M  V30 820 H 77.6672 -5.36478 1.29982 0
M  V30 821 H 80.1432 -4.15615 -0.200869 0
M  V30 822 H 79.0192 -5.44318 -0.707714 0
M  V30 823 H 79.2802 -4.05759 -1.75533 0
M  V30 824 N 78.3393 -0.321999 -1.54275 0
M  V30 825 C 79.2693 0.537411 -2.27231 0
M  V30 826 C 80.2503 1.12064 -1.27968 0
M  V30 827 O 81.4353 1.14606 -1.56777 0
M  V30 828 C 78.5653 1.69919 -3.02894 0
M  V30 829 C 77.5193 1.24534 -4.09482 0
M  V30 830 C 76.8453 2.49394 -4.72977 0
M  V30 831 C 78.1453 0.361335 -5.21049 0
M  V30 832 H 79.8393 -0.0711406 -2.99315 0
M  V30 833 H 77.3853 -0.0356555 -1.43956 0
M  V30 834 H 79.3383 2.30668 -3.52662 0
M  V30 835 H 78.0623 2.33431 -2.28424 0
M  V30 836 H 76.7213 0.660782 -3.60596 0
M  V30 837 H 76.3693 3.11265 -3.95124 0
M  V30 838 H 76.0693 2.19718 -5.44975 0
M  V30 839 H 77.5933 3.10908 -5.25517 0
M  V30 840 H 79.0073 0.875072 -5.66582 0
M  V30 841 H 77.4043 0.157428 -5.99893 0
M  V30 842 H 78.4743 -0.60822 -4.8107 0
M  V30 843 N 79.8174 1.5752 -0.0501392 0
M  V30 844 C 81.0634 1.92936 0.624798 0
M  V30 845 C 81.3964 0.928685 1.70555 0
M  V30 846 O 80.6714 -0.0454779 1.94447 0
M  V30 847 C 80.9544 3.38737 1.22185 0
M  V30 848 C 80.8074 4.49552 0.149218 0
M  V30 849 C 82.1264 3.84913 2.13378 0
M  V30 850 H 79.2454 0.701604 0.225657 0
M  V30 851 H 81.8874 1.89671 -0.111693 0
M  V30 852 H 80.0374 3.4165 1.84953 0
M  V30 853 H 81.7094 4.58768 -0.482648 0
M  V30 854 H 79.9524 4.30638 -0.522841 0
M  V30 855 H 80.6234 5.48653 0.606966 0
M  V30 856 H 83.0994 3.8387 1.60572 0
M  V30 857 H 81.9754 4.87584 2.52097 0
M  V30 858 H 82.2364 3.21611 3.03346 0
M  V30 859 N 81.2955 -0.223234 1.56011 0
M  V30 860 C 82.2455 -1.28008 1.88674 0
M  V30 861 C 83.2295 -1.42369 0.749663 0
M  V30 862 O 84.4215 -1.45212 1.01205 0
M  V30 863 C 81.5505 -2.63084 2.20548 0
M  V30 864 C 80.6365 -2.52632 3.40643 0
M  V30 865 N 81.0275 -2.11829 4.59306 0
M  V30 866 C 79.3255 -2.83594 3.44224 0
M  V30 867 C 80.0265 -2.12587 5.41463 0
M  V30 868 N 79.0025 -2.5301 4.81131 0
M  V30 869 H 82.8045 -0.955487 2.77935 0
M  V30 870 H 80.3185 -0.431801 1.56554 0
M  V30 871 H 82.3155 -3.39385 2.42122 0
M  V30 872 H 80.9755 -2.96391 1.32599 0
M  V30 873 H 81.9865 -1.82988 4.84496 0
M  V30 874 H 78.6635 -3.21284 2.66614 0
M  V30 875 H 80.0535 -1.83179 6.46448 0
M  V30 876 N 82.7736 -1.49793 -0.48987 0
M  V30 877 C 84.1846 -1.52914 -1.07118 0
M  V30 878 C 84.5356 -0.321738 -1.93544 0
M  V30 879 O 83.6606 0.567338 -2.08831 0
M  V30 880 C 84.2556 -2.771 -1.94938 0
M  V30 881 C 82.8146 -2.82963 -2.48212 0
M  V30 882 C 81.9616 -2.46972 -1.26096 0
M  V30 883 H 84.9126 -1.56329 -0.273289 0
M  V30 884 H 84.9336 -2.57892 -2.79771 0
M  V30 885 H 84.4456 -3.64959 -1.32009 0
M  V30 886 H 82.5466 -1.99411 -3.14748 0
M  V30 887 H 82.6596 -3.85406 -2.84603 0
M  V30 888 H 81.0236 -1.98994 -1.58976 0
M  V30 889 H 81.8066 -3.37118 -0.648581 0
M  V30 890 N 84.2517 0.741722 -1.39055 0
M  V30 891 C 85.1837 1.8657 -1.33133 0
M  V30 892 C 86.1967 1.61001 -0.241329 0
M  V30 893 O 87.3857 1.7136 -0.499784 0
M  V30 894 C 84.4857 3.22457 -1.04283 0
M  V30 895 C 83.6587 3.75435 -2.24427 0
M  V30 896 C 82.7177 4.89867 -1.92138 0
M  V30 897 O 81.7437 5.03879 -2.64754 0
M  V30 898 N 82.9457 5.73738 -0.88347 0
M  V30 899 H 85.7107 1.92156 -2.29991 0
M  V30 900 H 83.2717 0.922172 -1.3307 0
M  V30 901 H 85.2637 3.9657 -0.807128 0
M  V30 902 H 83.8337 3.12181 -0.161807 0
M  V30 903 H 83.0537 2.92751 -2.6399 0
M  V30 904 H 84.3417 4.07563 -3.04581 0
M  V30 905 H 83.7397 5.64999 -0.281517 0
M  V30 906 H 82.2967 6.47947 -0.707662 0
M  V30 907 N 85.7298 1.2412 0.971189 0
M  V30 908 C 86.9758 1.09048 1.71698 0
M  V30 909 C 87.3308 -0.367442 1.88859 0
M  V30 910 O 86.6238 -1.26792 1.43646 0
M  V30 911 C 86.8178 1.75983 3.11071 0
M  V30 912 C 86.6468 3.28133 3.07504 0
M  V30 913 C 85.4168 3.97331 3.1218 0
M  V30 914 C 87.6148 4.24773 2.89952 0
M  V30 915 N 85.5968 5.3639 2.98596 0
M  V30 916 C 86.9678 5.50806 2.84627 0
M  V30 917 C 89.0228 4.15392 2.74506 0
M  V30 918 C 87.7258 6.68533 2.65437 0
M  V30 919 C 89.7518 5.32793 2.56682 0
M  V30 920 C 89.1138 6.57756 2.52063 0
M  V30 921 H 85.2128 0.453632 0.636979 0
M  V30 922 H 87.7968 1.56983 1.15171 0
M  V30 923 H 85.9678 1.30566 3.65796 0
M  V30 924 H 87.6998 1.53803 3.74335 0
M  V30 925 H 84.4548 3.48473 3.20724 0
M  V30 926 H 84.8788 6.09321 2.95054 0
M  V30 927 H 89.5208 3.19543 2.76861 0
M  V30 928 H 87.2388 7.64509 2.61825 0
M  V30 929 H 90.8248 5.27383 2.4568 0
M  V30 930 H 89.7048 7.4707 2.38446 0
M  V30 931 N 87.2079 -1.17134 1.05439 0
M  V30 932 C 88.4539 -1.87733 0.767077 0
M  V30 933 C 88.7869 -1.8098 -0.704253 0
M  V30 934 O 88.0619 -1.21951 -1.5152 0
M  V30 935 C 88.3449 -3.37659 1.25133 0
M  V30 936 C 88.1979 -3.53149 2.78578 0
M  V30 937 C 89.5169 -4.31768 0.852324 0
M  V30 938 H 86.6359 -0.681687 0.280129 0
M  V30 939 H 89.2779 -1.37732 1.30881 0
M  V30 940 H 87.4279 -3.80373 0.790469 0
M  V30 941 H 89.0999 -3.19434 3.32806 0
M  V30 942 H 87.3429 -2.95345 3.17732 0
M  V30 943 H 88.0139 -4.58403 3.07523 0
M  V30 944 H 90.4899 -3.96909 1.24911 0
M  V30 945 H 89.3659 -5.35199 1.21873 0
M  V30 946 H 89.6269 -4.41429 -0.243485 0
M  V30 947 N 88.686 -0.835752 -1.33615 0
M  V30 948 C 89.616 -0.281739 -2.31794 0
M  V30 949 C 90.597 0.608833 -1.58831 0
M  V30 950 O 91.782 0.533035 -1.86741 0
M  V30 951 C 88.912 0.546612 -3.42971 0
M  V30 952 C 87.866 -0.247904 -4.27281 0
M  V30 953 C 87.192 0.704001 -5.30045 0
M  V30 954 C 88.492 -1.46324 -5.01385 0
M  V30 955 H 90.186 -1.10206 -2.78379 0
M  V30 956 H 87.732 -0.531388 -1.33837 0
M  V30 957 H 89.685 0.944467 -4.1068 0
M  V30 958 H 88.409 1.40011 -2.95067 0
M  V30 959 H 87.068 -0.627281 -3.61194 0
M  V30 960 H 86.716 1.55381 -4.78399 0
M  V30 961 H 86.416 0.176524 -5.87335 0
M  V30 962 H 87.94 1.09944 -6.0062 0
M  V30 963 H 89.354 -1.13871 -5.61877 0
M  V30 964 H 87.751 -1.92728 -5.6831 0
M  V30 965 H 88.821 -2.23467 -4.30338 0
M  V30 966 N 90.1641 1.46063 -0.591896 0
M  V30 967 C 91.3921 2.06717 -0.0868936 0
M  V30 968 C 91.8071 1.43916 1.22203 0
M  V30 969 O 91.1641 0.547698 1.74088 0
M  V30 970 C 91.2151 3.6142 0.0758725 0
M  V30 971 O 90.9361 4.21874 -1.18126 0
M  V30 972 C 92.4371 4.39025 0.61416 0
M  V30 973 H 89.6571 0.668162 -0.0616518 0
M  V30 974 H 92.2011 1.8755 -0.815175 0
M  V30 975 H 90.3561 3.79983 0.754413 0
M  V30 976 H 90.7701 5.14861 -1.00092 0
M  V30 977 H 92.2441 5.4783 0.677193 0
M  V30 978 H 92.7211 4.07708 1.63312 0
M  V30 979 H 93.3271 4.2529 -0.0298142 0
M  V30 980 N 91.6422 0.330177 1.54103 0
M  V30 981 C 92.6052 -0.520144 2.2322 0
M  V30 982 C 93.6052 -1.03828 1.22786 0
M  V30 983 O 94.7952 -0.929652 1.4732 0
M  V30 984 C 91.9272 -1.72317 2.94142 0
M  V30 985 H 93.1202 0.0841605 2.99782 0
M  V30 986 H 90.6732 0.0813433 1.56088 0
M  V30 987 H 91.4082 -2.36653 2.21734 0
M  V30 988 H 91.1932 -1.35898 3.67796 0
M  V30 989 H 92.6832 -2.3266 3.46784 0
M  V30 990 N 93.1203 -1.57491 0.0584922 0
M  V30 991 C 94.0833 -2.1085 -0.898617 0
M  V30 992 C 95.0833 -1.02964 -1.23511 0
M  V30 993 O 96.2733 -1.29007 -1.17059 0
M  V30 994 C 93.4053 -2.59881 -2.20623 0
M  V30 995 H 94.5983 -2.96715 -0.435936 0
M  V30 996 H 92.1513 -1.55141 -0.190023 0
M  V30 997 H 92.8863 -1.77431 -2.71457 0
M  V30 998 H 92.6713 -3.38727 -1.97501 0
M  V30 999 H 94.1613 -3.01285 -2.89166 0
M  V30 1000 N 94.5984 0.214957 -1.56127 0
M  V30 1001 C 95.5484 1.27006 -1.8935 0
M  V30 1002 C 96.5324 1.41969 -0.757202 0
M  V30 1003 O 97.7244 1.44673 -1.01973 0
M  V30 1004 C 94.8534 2.61911 -2.2194 0
M  V30 1005 C 93.9394 2.50822 -3.41978 0
M  V30 1006 N 94.3304 2.09391 -4.60423 0
M  V30 1007 C 92.6284 2.81765 -3.45723 0
M  V30 1008 C 93.3294 2.09712 -5.42582 0
M  V30 1009 N 92.3054 2.50454 -4.82466 0
M  V30 1010 H 96.1074 0.940734 -2.78437 0
M  V30 1011 H 93.6214 0.423492 -1.56781 0
M  V30 1012 H 95.6184 3.38096 -2.43919 0
M  V30 1013 H 94.2784 2.95684 -1.34169 0
M  V30 1014 H 95.2894 1.80416 -4.85459 0
M  V30 1015 H 91.9664 3.19865 -2.68314 0
M  V30 1016 H 93.3564 1.79748 -6.4741 0
M  V30 1017 N 96.0765 1.50051 0.48192 0
M  V30 1018 C 97.3165 1.62128 1.24474 0
M  V30 1019 C 97.6805 0.309742 1.89485 0
M  V30 1020 O 98.8815 0.305854 2.67054 0
M  V30 1021 C 97.1525 2.76151 2.26882 0
M  V30 1022 S 98.7115 3.08297 3.12247 0
M  V30 1023 H 95.5295 0.571661 0.422759 0
M  V30 1024 H 98.1315 1.87791 0.54359 0
M  V30 1025 H 96.8355 3.69942 1.77683 0
M  V30 1026 H 96.3665 2.52541 3.0164 0
M  V30 1027 H 98.3815 2.51287 4.27866 0
M  V30 1028 N 97.5546 -0.734337 1.39446 0
M  V30 1029 C 98.8036 -1.48937 1.36017 0
M  V30 1030 C 99.1166 -1.95557 -0.0409005 0
M  V30 1031 O 100.323 -2.70779 -0.19778 0
M  V30 1032 C 98.7786 -2.69125 2.38955 0
M  V30 1033 C 98.3866 -2.29452 3.8478 0
M  V30 1034 C 100.131 -3.46944 2.44603 0
M  V30 1035 C 98.0376 -3.46366 4.79358 0
M  V30 1036 H 96.9676 -0.559296 0.505672 0
M  V30 1037 H 99.6186 -0.800983 1.65095 0
M  V30 1038 H 98.0006 -3.40041 2.02948 0
M  V30 1039 H 99.1746 -1.66077 4.29831 0
M  V30 1040 H 97.4896 -1.64723 3.82433 0
M  V30 1041 H 100.087 -4.33907 3.12456 0
M  V30 1042 H 100.43 -3.89454 1.47076 0
M  V30 1043 H 100.963 -2.83056 2.79507 0
M  V30 1044 H 97.7016 -3.08905 5.78151 0
M  V30 1045 H 97.2216 -4.08719 4.38986 0
M  V30 1046 H 98.9006 -4.12691 4.98292 0
M  V30 1047 N 99.0327 -1.24633 -0.964593 0
M  V30 1048 C 100.449 -1.01239 -1.2338 0
M  V30 1049 C 100.649 0.2769 -1.99588 0
M  V30 1050 O 99.7047 0.992241 -2.32187 0
M  V30 1051 C 101.018 -2.22937 -2.01791 0
M  V30 1052 C 102.566 -2.27594 -2.14872 0
M  V30 1053 C 103.041 -3.48921 -2.96678 0
M  V30 1054 N 104.532 -3.49257 -3.04259 0
M  V30 1055 C 105.267 -4.39795 -3.67924 0
M  V30 1056 N 104.763 -5.40591 -4.33281 0
M  V30 1057 N 106.556 -4.275 -3.64966 0
M  V30 1058 H 98.7067 -2.0748 -0.454502 0
M  V30 1059 H 100.97 -0.910647 -0.26349 0
M  V30 1060 H 100.676 -3.16587 -1.53184 0
M  V30 1061 H 100.55 -2.25306 -3.02518 0
M  V30 1062 H 102.937 -1.34473 -2.6268 0
M  V30 1063 H 103.018 -2.2925 -1.13482 0
M  V30 1064 H 102.662 -4.42359 -2.49562 0
M  V30 1065 H 102.592 -3.4451 -3.98272 0
M  V30 1066 H 105.083 -2.76337 -2.57771 0
M  V30 1067 H 105.396 -6.05904 -4.79687 0
M  V30 1068 H 103.741 -5.44475 -4.3194 0
M  V30 1069 H 106.932 -3.47987 -3.13086 0
M  V30 1070 H 107.105 -4.98258 -4.14298 0
M  V30 1071 N 100.511 1.16574 -1.06058 0
M  V30 1072 C 101.459 2.22941 -0.663343 0
M  V30 1073 C 102.453 1.66358 0.319593 0
M  V30 1074 O 103.659 1.7905 0.184713 0
M  V30 1075 H 100.034 0.725907 -0.196376 0
M  V30 1076 H 102.005 2.53736 -1.57037 0
M  V30 1077 C 100.754 3.47642 -0.0632808 0
M  V30 1078 H 100.077 3.91493 -0.810733 0
M  V30 1079 H 101.517 4.2363 0.177177 0
M  V30 1080 C 99.9758 3.1509 1.19248 0
M  V30 1081 O 100.506 3.30673 2.28075 0
M  V30 1082 N 98.7118 2.6924 1.09353 0
M  V30 1083 H 98.2588 2.5676 0.207912 0
M  V30 1084 H 98.2168 2.47833 1.93458 0
M  V30 1085 N 101.989 0.842826 1.3317 0
M  V30 1086 C 102.936 0.276885 2.29133 0
M  V30 1087 C 103.906 -0.609527 1.54512 0
M  V30 1088 O 105.091 -0.546955 1.82792 0
M  V30 1089 C 102.231 -0.538707 3.40869 0
M  V30 1090 C 101.344 0.372169 4.30394 0
M  V30 1091 C 100.479 -0.454908 5.29249 0
M  V30 1092 C 99.5179 0.45411 6.10413 0
M  V30 1093 N 98.6549 -0.335075 7.013 0
M  V30 1094 H 103.495 1.10052 2.76934 0
M  V30 1095 H 101.032 0.554161 1.36262 0
M  V30 1096 H 102.99 -1.02709 4.0436 0
M  V30 1097 H 101.62 -1.32727 2.9425 0
M  V30 1098 H 100.672 0.97888 3.6759 0
M  V30 1099 H 101.984 1.0703 4.87182 0
M  V30 1100 H 101.138 -1.00695 5.98285 0
M  V30 1101 H 99.8769 -1.18646 4.73048 0
M  V30 1102 H 98.8819 1.01813 5.40291 0
M  V30 1103 H 100.107 1.18409 6.68697 0
M  V30 1104 H 98.0529 -1.04994 6.47543 0
M  V30 1105 H 97.9699 0.304262 7.55387 0
M  V30 1106 H 99.2379 -0.869224 7.74638 0
M  V30 1107 N 103.467 -1.45747 0.599634 0
M  V30 1108 C 104.692 -2.07178 0.0960198 0
M  V30 1109 C 105.117 -1.44268 -1.207 0
M  V30 1110 O 104.475 -0.532503 -1.73303 0
M  V30 1111 C 104.523 -3.60579 -0.0385348 0
M  V30 1112 O 103.627 -3.97713 -1.0908 0
M  V30 1113 H 102.968 -0.660251 0.0704593 0
M  V30 1114 H 105.498 -1.87124 0.827385 0
M  V30 1115 H 105.508 -4.07298 -0.239304 0
M  V30 1116 H 104.183 -4.05756 0.912947 0
M  V30 1117 H 102.76 -3.62678 -0.867135 0
M  V30 1118 N 104.945 -0.338344 -1.53925 0
M  V30 1119 C 106.191 0.260143 -2.01125 0
M  V30 1120 C 106.524 1.50617 -1.22589 0
M  V30 1121 O 105.799 1.91979 -0.312113 0
M  V30 1122 C 106.082 0.579499 -3.55407 0
M  V30 1123 C 105.935 -0.678264 -4.44657 0
M  V30 1124 C 107.254 1.39122 -4.17532 0
M  V30 1125 H 104.373 0.0930772 -0.731099 0
M  V30 1126 H 107.015 -0.457852 -1.84401 0
M  V30 1127 H 105.165 1.19118 -3.69788 0
M  V30 1128 H 106.837 -1.31631 -4.42121 0
M  V30 1129 H 105.08 -1.3042 -4.13731 0
M  V30 1130 H 105.751 -0.410143 -5.50474 0
M  V30 1131 H 108.227 0.874035 -4.06817 0
M  V30 1132 H 107.103 1.58342 -5.25565 0
M  V30 1133 H 107.364 2.39178 -3.71815 0
M  V30 1134 N 106.423 1.57458 -0.0668435 0
M  V30 1135 C 107.672 1.92477 0.602947 0
M  V30 1136 C 107.985 0.948419 1.71068 0
M  V30 1137 O 109.191 1.19124 2.43971 0
M  V30 1138 C 107.647 3.41903 1.12383 0
M  V30 1139 C 107.255 4.47975 0.04737 0
M  V30 1140 C 108.999 3.85931 1.76797 0
M  V30 1141 C 106.906 5.88529 0.582022 0
M  V30 1142 H 105.836 0.718387 0.22899 0
M  V30 1143 H 108.487 1.82978 -0.138276 0
M  V30 1144 H 106.869 3.46459 1.91787 0
M  V30 1145 H 108.043 4.55029 -0.726978 0
M  V30 1146 H 106.358 4.13384 -0.500243 0
M  V30 1147 H 108.955 4.88322 2.17821 0
M  V30 1148 H 109.298 3.23029 2.62599 0
M  V30 1149 H 109.831 3.83958 1.04024 0
M  V30 1150 H 106.57 6.55065 -0.238721 0
M  V30 1151 H 106.09 5.85004 1.324 0
M  V30 1152 H 107.769 6.38258 1.05999 0
M  V30 1153 N 107.901 -0.206675 1.56239 0
M  V30 1154 C 108.831 -1.25909 1.96645 0
M  V30 1155 C 109.812 -1.48097 0.836734 0
M  V30 1156 O 110.997 -1.6003 1.10019 0
M  V30 1157 C 108.127 -2.6058 2.29599 0
M  V30 1158 C 107.081 -2.53024 3.452 0
M  V30 1159 C 106.407 -3.91861 3.63798 0
M  V30 1160 C 107.707 -2.06524 4.79734 0
M  V30 1161 H 109.401 -0.923369 2.84806 0
M  V30 1162 H 106.947 -0.442735 1.37025 0
M  V30 1163 H 108.9 -3.34375 2.56459 0
M  V30 1164 H 107.624 -2.95869 1.38307 0
M  V30 1165 H 106.283 -1.81684 3.18412 0
M  V30 1166 H 105.931 -4.24483 2.69857 0
M  V30 1167 H 105.631 -3.87683 4.4156 0
M  V30 1168 H 107.155 -4.67296 3.93022 0
M  V30 1169 H 108.569 -2.70072 5.05702 0
M  V30 1170 H 106.966 -2.13374 5.60885 0
M  V30 1171 H 108.036 -1.01802 4.74093 0
M  V30 1172 N 109.379 -1.50304 -0.473955 0
M  V30 1173 C 110.309 -1.71886 -1.58042 0
M  V30 1174 C 111.29 -0.567799 -1.60344 0
M  V30 1175 O 112.475 -0.806623 -1.76656 0
M  V30 1176 C 109.605 -1.81036 -2.96384 0
M  V30 1177 C 108.559 -2.962 -3.08949 0
M  V30 1178 C 107.885 -2.9049 -4.48909 0
M  V30 1179 C 109.185 -4.36752 -2.86434 0
M  V30 1180 H 110.879 -2.64527 -1.40234 0
M  V30 1181 H 108.425 -1.27295 -0.673201 0
M  V30 1182 H 110.378 -1.94719 -3.73714 0
M  V30 1183 H 109.102 -0.850147 -3.15341 0
M  V30 1184 H 107.761 -2.82164 -2.3405 0
M  V30 1185 H 107.409 -1.92321 -4.64781 0
M  V30 1186 H 107.109 -3.67802 -4.58253 0
M  V30 1187 H 108.633 -3.06218 -5.28264 0
M  V30 1188 H 110.047 -4.5133 -3.53517 0
M  V30 1189 H 108.444 -5.15493 -3.07225 0
M  V30 1190 H 109.514 -4.49321 -1.82316 0
M  V30 1191 N 110.857 0.726932 -1.39834 0
M  V30 1192 C 112.105 1.4837 -1.37225 0
M  V30 1193 C 112.426 1.94979 0.0284857 0
M  V30 1194 O 111.696 1.69555 0.981213 0
M  V30 1195 H 110.276 0.55043 -0.505011 0
M  V30 1196 H 112.938 0.862468 -1.74778 0
M  V30 1197 H 112.034 2.36198 -2.04003 0
M  V30 1198 N 112.336 1.25143 0.95797 0
M  V30 1199 C 113.752 1.01892 1.22842 0
M  V30 1200 C 113.952 -0.266311 1.99732 0
M  V30 1201 O 113.008 -0.979913 2.3271 0
M  V30 1202 C 114.321 2.24004 2.00606 0
M  V30 1203 C 115.869 2.28731 2.13662 0
M  V30 1204 C 116.344 3.5049 2.94823 0
M  V30 1205 N 117.835 3.50866 3.02403 0
M  V30 1206 C 118.57 4.4174 3.65586 0
M  V30 1207 N 118.066 5.42882 4.30408 0
M  V30 1208 N 119.859 4.29429 3.62694 0
M  V30 1209 H 112.01 2.07718 0.443493 0
M  V30 1210 H 114.273 0.912031 0.258657 0
M  V30 1211 H 113.979 3.17395 1.51503 0
M  V30 1212 H 113.853 2.26907 3.01319 0
M  V30 1213 H 116.24 1.35865 2.61963 0
M  V30 1214 H 116.321 2.29848 1.12265 0
M  V30 1215 H 115.965 4.43676 2.47213 0
M  V30 1216 H 115.895 3.46617 3.96439 0
M  V30 1217 H 118.386 2.777 2.56302 0
M  V30 1218 H 118.699 6.0844 4.76467 0
M  V30 1219 H 117.044 5.46758 4.29047 0
M  V30 1220 H 120.235 3.49643 3.11236 0
M  V30 1221 H 120.408 5.00448 4.1165 0
M  V30 1222 N 113.814 -1.1601 1.06675 0
M  V30 1223 C 114.764 -2.18512 0.650888 0
M  V30 1224 C 115.748 -1.57677 -0.320441 0
M  V30 1225 O 116.94 -1.76482 -0.135266 0
M  V30 1226 C 114.069 -3.43273 0.0429255 0
M  V30 1227 C 113.155 -4.11176 1.03898 0
M  V30 1228 N 113.546 -4.54672 2.216 0
M  V30 1229 C 111.844 -4.37417 0.870779 0
M  V30 1230 C 112.545 -5.07248 2.84736 0
M  V30 1231 N 111.521 -5.0037 2.12441 0
M  V30 1232 H 115.323 -2.49863 1.54745 0
M  V30 1233 H 112.837 -1.32503 0.938975 0
M  V30 1234 H 114.834 -4.16006 -0.272857 0
M  V30 1235 H 113.494 -3.13408 -0.84884 0
M  V30 1236 H 114.505 -4.4828 2.59356 0
M  V30 1237 H 111.182 -4.17488 0.0313293 0
M  V30 1238 H 112.572 -5.50912 3.84636 0
M  V30 1239 N 115.292 -0.849877 -1.32721 0
M  V30 1240 C 116.517 -0.463856 -2.02146 0
M  V30 1241 C 116.942 0.930449 -1.63476 0
M  V30 1242 O 116.3 1.61033 -0.832952 0
M  V30 1243 C 116.348 -0.604955 -3.55489 0
M  V30 1244 O 115.452 0.36425 -4.10788 0
M  V30 1245 H 114.793 -0.187046 -0.637111 0
M  V30 1246 H 117.323 -1.14775 -1.69375 0
M  V30 1247 H 117.333 -0.490696 -4.05038 0
M  V30 1248 H 116.008 -1.62174 -3.82978 0
M  V30 1249 H 114.585 0.206628 -3.72327 0
M  V30 1250 N 116.77 1.45427 -0.607355 0
M  V30 1251 C 117.7 2.3329 0.0989352 0
M  V30 1252 C 118.681 1.46816 0.859007 0
M  V30 1253 O 119.866 1.75588 0.829604 0
M  V30 1254 C 116.996 3.29518 1.09705 0
M  V30 1255 C 115.95 4.25626 0.450206 0
M  V30 1256 C 115.276 5.11542 1.55655 0
M  V30 1257 C 116.576 5.18505 -0.628455 0
M  V30 1258 H 118.27 2.92595 -0.634716 0
M  V30 1259 H 115.816 1.40696 -0.306681 0
M  V30 1260 H 117.769 3.89855 1.59971 0
M  V30 1261 H 116.493 2.68372 1.86129 0
M  V30 1262 H 115.152 3.66586 -0.0315886 0
M  V30 1263 H 114.8 4.46765 2.31107 0
M  V30 1264 H 114.5 5.76647 1.12925 0
M  V30 1265 H 116.024 5.74748 2.06148 0
M  V30 1266 H 117.438 5.72916 -0.209877 0
M  V30 1267 H 115.835 5.92085 -0.977489 0
M  V30 1268 H 116.905 4.60948 -1.50514 0
M  V30 1269 N 118.248 0.346503 1.53744 0
M  V30 1270 C 119.495 -0.249104 2.00962 0
M  V30 1271 C 119.823 -1.5032 1.23426 0
M  V30 1272 O 119.078 -1.93217 0.310761 0
M  V30 1273 C 119.377 -0.605809 3.52228 0
M  V30 1274 C 119.043 0.551747 4.47512 0
M  V30 1275 C 117.705 0.86941 4.73281 0
M  V30 1276 C 120.057 1.32818 5.03993 0
M  V30 1277 C 117.385 1.96582 5.52786 0
M  V30 1278 C 119.737 2.41486 5.84694 0
M  V30 1279 C 118.401 2.73808 6.08757 0
M  V30 1280 H 117.671 -0.0911538 0.735372 0
M  V30 1281 H 120.318 0.475027 1.85515 0
M  V30 1282 H 118.623 -1.4107 3.65522 0
M  V30 1283 H 120.32 -1.07858 3.86222 0
M  V30 1284 H 116.91 0.294102 4.2759 0
M  V30 1285 H 121.094 1.09602 4.84047 0
M  V30 1286 H 116.35 2.22045 5.69654 0
M  V30 1287 H 120.524 3.02078 6.27473 0
M  V30 1288 H 118.151 3.58892 6.7015 0
M  V30 1289 N 119.726 -1.57421 0.075193 0
M  V30 1290 C 120.676 -2.09441 -0.901025 0
M  V30 1291 C 121.66 -1.00486 -1.25663 0
M  V30 1292 O 122.852 -1.2679 -1.23504 0
M  V30 1293 C 119.981 -2.66233 -2.16737 0
M  V30 1294 C 119.067 -3.82198 -1.83808 0
M  V30 1295 N 119.458 -4.91028 -1.21345 0
M  V30 1296 C 117.756 -3.91558 -2.13538 0
M  V30 1297 C 118.457 -5.71852 -1.06585 0
M  V30 1298 N 117.433 -5.20233 -1.57667 0
M  V30 1299 H 121.235 -2.90972 -0.413815 0
M  V30 1300 H 118.749 -1.6189 -0.128601 0
M  V30 1301 H 120.746 -3.01819 -2.87595 0
M  V30 1302 H 119.406 -1.8615 -2.66042 0
M  V30 1303 H 120.417 -5.10323 -0.88268 0
M  V30 1304 H 117.094 -3.22454 -2.65197 0
M  V30 1305 H 118.484 -6.69401 -0.578933 0
M  V30 1306 N 121.204 0.198386 -1.56346 0
M  V30 1307 C 122.615 0.763358 -1.70381 0
M  V30 1308 C 122.966 1.83995 -0.681203 0
M  V30 1309 O 122.091 2.15785 0.16305 0
M  V30 1310 C 122.686 1.39143 -3.08909 0
M  V30 1311 C 121.245 1.90352 -3.2472 0
M  V30 1312 C 120.392 0.772233 -2.6633 0
M  V30 1313 H 123.343 -0.0266377 -1.58678 0
M  V30 1314 H 123.364 2.26076 -3.06055 0
M  V30 1315 H 122.876 0.607638 -3.83314 0
M  V30 1316 H 120.977 2.71461 -2.55225 0
M  V30 1317 H 121.09 2.06757 -4.3219 0
M  V30 1318 H 119.454 1.18566 -2.2542 0
M  V30 1319 H 120.237 0.00073556 -3.433 0
M  V30 1320 N 122.682 1.50554 0.465978 0
M  V30 1321 C 123.592 1.72585 1.58907 0
M  V30 1322 C 124.608 0.60911 1.6299 0
M  V30 1323 O 125.784 0.88804 1.80765 0
M  V30 1324 C 122.849 1.81995 2.95091 0
M  V30 1325 C 121.91 3.05751 3.01355 0
M  V30 1326 C 121.143 3.14702 4.31043 0
M  V30 1327 O 121.366 2.30313 5.21835 0
M  V30 1328 O 120.3 4.07468 4.43005 0
M  V30 1329 H 124.126 2.67799 1.43239 0
M  V30 1330 H 121.711 1.34711 0.646013 0
M  V30 1331 H 123.593 1.90335 3.75966 0
M  V30 1332 H 122.268 0.899659 3.10947 0
M  V30 1333 H 121.175 3.02908 2.19539 0
M  V30 1334 H 122.508 3.97375 2.90437 0
M  V30 1335 N 124.16 -0.719506 1.40217 0
M  V30 1336 C 125.437 -1.47221 1.28784 0
M  V30 1337 C 125.817 -2.10883 -0.0956067 0
M  V30 1338 O 125.165 -1.99833 -1.10811 0
M  V30 1339 C 125.375 -2.5111 2.42373 0
M  V30 1340 C 126.723 -3.17053 2.82423 0
M  V30 1341 O 127.747 -2.61429 2.41937 0
M  V30 1342 O 126.606 -4.17742 3.52355 0
M  V30 1343 H 123.7 -0.654491 0.50554 0
M  V30 1344 H 126.246 -0.752014 1.52128 0
M  V30 1345 H 125.018 -2.02556 3.34793 0
M  V30 1346 H 124.641 -3.3067 2.20778 0
M  V30 1347 N 125.638 -1.25649 -0.95132 0
M  V30 1348 C 126.866 -1.13343 -1.73092 0
M  V30 1349 C 127.281 0.312434 -1.86197 0
M  V30 1350 O 126.638 1.21465 -1.36207 0
M  V30 1351 C 126.689 -1.78602 -3.14299 0
M  V30 1352 O 126.41 -3.17537 -3.01831 0
M  V30 1353 C 127.911 -1.72119 -4.08522 0
M  V30 1354 H 125.131 -0.395181 -0.542285 0
M  V30 1355 H 127.675 -1.66076 -1.19328 0
M  V30 1356 H 125.83 -1.29832 -3.64996 0
M  V30 1357 H 126.244 -3.49676 -3.90931 0
M  V30 1358 H 127.718 -2.22435 -5.052 0
M  V30 1359 H 128.195 -0.685635 -4.33815 0
M  V30 1360 H 128.801 -2.20393 -3.63741 0
M  V30 1361 N 127.117 1.15442 -1.07289 0
M  V30 1362 C 128.365 1.85845 -0.794096 0
M  V30 1363 C 128.686 1.82692 0.681809 0
M  V30 1364 O 127.956 1.26741 1.49377 0
M  V30 1365 H 126.536 0.688089 -0.290763 0
M  V30 1366 H 129.198 1.39947 -1.3565 0
M  V30 1367 H 128.294 2.91001 -1.12804 0
M  V30 1368 N 128.595 0.856903 1.32268 0
M  V30 1369 C 129.527 0.260412 2.27716 0
M  V30 1370 C 130.54 -0.569137 1.52528 0
M  V30 1371 O 131.729 -0.39326 1.74114 0
M  V30 1372 C 128.829 -0.650477 3.32599 0
M  V30 1373 C 128.002 0.14372 4.37164 0
M  V30 1374 C 127.061 -0.69328 5.21613 0
M  V30 1375 O 126.087 -0.12599 5.69061 0
M  V30 1376 N 127.289 -2.00761 5.44679 0
M  V30 1377 H 130.054 1.08059 2.79541 0
M  V30 1378 H 127.615 0.717103 1.45152 0
M  V30 1379 H 129.607 -1.21581 3.86005 0
M  V30 1380 H 128.177 -1.37133 2.80915 0
M  V30 1381 H 127.397 0.890486 3.8401 0
M  V30 1382 H 128.685 0.68915 5.04111 0
M  V30 1383 H 128.083 -2.49181 5.07863 0
M  V30 1384 H 126.64 -2.52103 6.01072 0
M  V30 1385 N 130.073 -1.45103 0.615059 0
M  V30 1386 C 131.319 -2.02483 0.113347 0
M  V30 1387 C 131.652 -1.48146 -1.25564 0
M  V30 1388 O 130.927 -0.659104 -1.82992 0
M  V30 1389 C 131.21 -3.60005 0.0825278 0
M  V30 1390 C 131.063 -4.2466 1.48271 0
M  V30 1391 C 132.382 -4.35972 -0.601401 0
M  V30 1392 H 129.501 -0.735764 0.0426632 0
M  V30 1393 H 132.143 -1.72868 0.788461 0
M  V30 1394 H 130.293 -3.85367 -0.492378 0
M  V30 1395 H 131.965 -4.10458 2.10527 0
M  V30 1396 H 130.208 -3.82772 2.04127 0
M  V30 1397 H 130.879 -5.336 1.41332 0
M  V30 1398 H 133.355 -4.15947 -0.112666 0
M  V30 1399 H 132.231 -5.45697 -0.592097 0
M  V30 1400 H 132.492 -4.09391 -1.66887 0
M  V30 1401 N 131.551 -0.354651 -1.53558 0
M  V30 1402 C 132.798 0.238443 -2.01091 0
M  V30 1403 C 133.126 1.49663 -1.24222 0
M  V30 1404 O 132.381 1.93049 -0.321003 0
M  V30 1405 C 132.68 0.587121 -3.52545 0
M  V30 1406 C 132.346 -0.575472 -4.47213 0
M  V30 1407 C 131.008 -0.894497 -4.72813 0
M  V30 1408 C 133.36 -1.35489 -5.03281 0
M  V30 1409 C 130.688 -1.99511 -5.51736 0
M  V30 1410 C 133.04 -2.44583 -5.83405 0
M  V30 1411 C 131.704 -2.77033 -6.07296 0
M  V30 1412 H 130.974 0.0872526 -0.735845 0
M  V30 1413 H 133.621 -0.484859 -1.8526 0
M  V30 1414 H 131.926 1.39129 -3.66265 0
M  V30 1415 H 133.623 1.05809 -3.86789 0
M  V30 1416 H 130.213 -0.316774 -4.27428 0
M  V30 1417 H 134.397 -1.12167 -4.83459 0
M  V30 1418 H 129.653 -2.25063 -5.68469 0
M  V30 1419 H 133.827 -3.05401 -6.25862 0
M  V30 1420 H 131.454 -3.6244 -6.68237 0
M  V30 1421 N 133.029 1.57378 -0.0835403 0
M  V30 1422 C 133.961 2.10389 0.909338 0
M  V30 1423 C 134.974 1.03858 1.25369 0
M  V30 1424 O 136.163 1.31338 1.20882 0
M  V30 1425 C 133.263 2.55908 2.2218 0
M  V30 1426 C 132.436 3.86145 2.05453 0
M  V30 1427 C 131.495 4.17633 3.20108 0
M  V30 1428 O 130.521 4.87043 2.94581 0
M  V30 1429 N 131.723 3.72113 4.45547 0
M  V30 1430 H 134.488 2.962 0.456657 0
M  V30 1431 H 132.049 1.61579 0.101877 0
M  V30 1432 H 134.041 2.74027 2.97811 0
M  V30 1433 H 132.611 1.75171 2.58909 0
M  V30 1434 H 131.831 3.7729 1.1422 0
M  V30 1435 H 133.119 4.7137 1.91541 0
M  V30 1436 H 132.517 3.16062 4.69171 0
M  V30 1437 H 131.074 3.95409 5.18165 0
M  V30 1438 N 134.507 -0.190092 1.56449 0
M  V30 1439 C 135.753 -0.911052 1.81184 0
M  V30 1440 C 136.086 -1.82699 0.658396 0
M  V30 1441 O 135.361 -1.91491 -0.340775 0
M  V30 1442 C 135.644 -1.72297 3.16205 0
M  V30 1443 C 135.497 -0.831419 4.42049 0
M  V30 1444 C 136.816 -2.69454 3.47969 0
M  V30 1445 H 133.935 -0.32977 0.659106 0
M  V30 1446 H 136.577 -0.178169 1.89163 0
M  V30 1447 H 134.727 -2.34778 3.09534 0
M  V30 1448 H 136.399 -0.220929 4.60771 0
M  V30 1449 H 134.642 -0.138406 4.33579 0
M  V30 1450 H 135.313 -1.43461 5.33032 0
M  V30 1451 H 137.789 -2.17104 3.54972 0
M  V30 1452 H 136.665 -3.23342 4.43555 0
M  V30 1453 H 136.926 -3.48744 2.71717 0
M  V30 1454 N 135.985 -1.50799 -0.457987 0
M  V30 1455 C 137.21 -1.66496 -1.23668 0
M  V30 1456 C 137.635 -0.353288 -1.84752 0
M  V30 1457 O 136.993 0.684346 -1.67888 0
M  V30 1458 C 137.041 -2.76763 -2.3116 0
M  V30 1459 O 136.145 -2.38928 -3.36136 0
M  V30 1460 H 135.486 -0.555828 -0.363252 0
M  V30 1461 H 138.016 -1.9725 -0.543474 0
M  V30 1462 H 138.026 -3.00232 -2.76269 0
M  V30 1463 H 136.701 -3.71954 -1.86073 0
M  V30 1464 H 135.278 -2.25953 -2.96647 0
M  V30 1465 N 137.463 0.71206 -1.40597 0
M  V30 1466 C 138.413 1.81783 -1.37619 0
M  V30 1467 C 139.397 1.58896 -0.253162 0
M  V30 1468 O 140.589 1.70009 -0.492547 0
M  V30 1469 C 137.718 3.19944 -1.24462 0
M  V30 1470 C 136.804 3.48582 -2.4156 0
M  V30 1471 N 137.195 3.48016 -3.67041 0
M  V30 1472 C 135.493 3.79056 -2.35016 0
M  V30 1473 C 136.194 3.75096 -4.44609 0
M  V30 1474 N 135.17 3.94022 -3.74497 0
M  V30 1475 H 138.972 1.79683 -2.32575 0
M  V30 1476 H 136.486 0.91134 -1.34419 0
M  V30 1477 H 138.483 3.99133 -1.20411 0
M  V30 1478 H 137.143 3.23267 -0.304762 0
M  V30 1479 H 138.154 3.28782 -4.00153 0
M  V30 1480 H 134.831 3.89848 -1.49415 0
M  V30 1481 H 136.221 3.80934 -5.53479 0
M  V30 1482 N 138.941 1.26152 0.944643 0
M  V30 1483 C 140.166 1.14363 1.7302 0
M  V30 1484 C 140.591 -0.29772 1.85729 0
M  V30 1485 O 139.949 -1.2157 1.34501 0
M  V30 1486 C 139.997 1.81378 3.11664 0
M  V30 1487 O 139.101 1.10022 3.97453 0
M  V30 1488 H 138.442 0.398694 0.53098 0
M  V30 1489 H 140.972 1.66906 1.18337 0
M  V30 1490 H 140.982 1.88064 3.62072 0
M  V30 1491 H 139.657 2.86237 3.0173 0
M  V30 1492 H 138.234 1.11287 3.55907 0
M  V30 1493 N 140.419 -1.14872 1.07899 0
M  V30 1494 C 141.666 -1.85789 0.805532 0
M  V30 1495 C 141.994 -1.82649 -0.668561 0
M  V30 1496 O 141.249 -1.24858 -1.50695 0
M  V30 1497 C 141.548 -3.34223 1.26609 0
M  V30 1498 C 141.214 -3.57555 2.74709 0
M  V30 1499 C 139.876 -3.63631 3.1516 0
M  V30 1500 C 142.228 -3.66803 3.70277 0
M  V30 1501 C 139.556 -3.76473 4.49983 0
M  V30 1502 C 141.908 -3.8117 5.04869 0
M  V30 1503 C 140.572 -3.85494 5.44932 0
M  V30 1504 H 139.842 -0.679849 0.294765 0
M  V30 1505 H 142.489 -1.3572 1.35101 0
M  V30 1506 H 140.794 -3.86536 0.640103 0
M  V30 1507 H 142.491 -3.87511 1.03132 0
M  V30 1508 H 139.081 -3.5347 2.42398 0
M  V30 1509 H 143.265 -3.61404 3.40149 0
M  V30 1510 H 138.521 -3.7808 4.80484 0
M  V30 1511 H 142.695 -3.87268 5.78789 0
M  V30 1512 H 140.322 -3.95197 6.49403 0
M  V30 1513 N 141.898 -0.863906 -1.31812 0
M  V30 1514 C 143.309 -0.52522 -1.7916 0
M  V30 1515 C 143.66 0.957518 -1.71248 0
M  V30 1516 O 142.785 1.74734 -1.27659 0
M  V30 1517 C 143.38 -0.9466 -3.25307 0
M  V30 1518 C 141.939 -0.659668 -3.70574 0
M  V30 1519 C 141.086 -1.14126 -2.52726 0
M  V30 1520 H 144.037 -1.05022 -1.1898 0
M  V30 1521 H 144.058 -0.266766 -3.79564 0
M  V30 1522 H 143.57 -2.02579 -3.31034 0
M  V30 1523 H 141.671 0.408416 -3.70355 0
M  V30 1524 H 141.784 -1.23245 -4.62977 0
M  V30 1525 H 140.148 -0.561216 -2.4844 0
M  V30 1526 H 140.931 -2.22775 -2.61201 0
M  V30 1527 N 143.376 1.44774 -0.622745 0
M  V30 1528 C 144.326 2.2774 0.108889 0
M  V30 1529 C 145.31 1.38189 0.824175 0
M  V30 1530 O 146.502 1.62063 0.711664 0
M  V30 1531 C 143.631 3.25353 1.09546 0
M  V30 1532 C 142.717 4.22392 0.380232 0
M  V30 1533 N 143.108 5.02388 -0.586535 0
M  V30 1534 C 141.406 4.41588 0.625792 0
M  V30 1535 C 142.107 5.72894 -1.00834 0
M  V30 1536 N 141.083 5.42479 -0.348878 0
M  V30 1537 H 144.885 2.86993 -0.63341 0
M  V30 1538 H 142.399 1.5611 -0.447589 0
M  V30 1539 H 144.396 3.83538 1.63414 0
M  V30 1540 H 143.056 2.6766 1.83815 0
M  V30 1541 H 144.067 5.0885 -0.963975 0
M  V30 1542 H 140.744 3.95003 1.352 0
M  V30 1543 H 142.134 6.47158 -1.80656 0
M  V30 1544 N 144.854 0.36279 1.53368 0
M  V30 1545 C 146.265 -0.117022 1.86333 0
M  V30 1546 C 146.616 -1.48397 1.28347 0
M  V30 1547 O 145.741 -2.07787 0.604428 0
M  V30 1548 C 146.336 -0.21912 3.38091 0
M  V30 1549 C 144.895 -0.643184 3.70864 0
M  V30 1550 C 144.042 0.211318 2.76494 0
M  V30 1551 H 146.993 0.581687 1.47655 0
M  V30 1552 H 147.014 -1.04319 3.6592 0
M  V30 1553 H 146.526 0.775902 3.80265 0
M  V30 1554 H 144.627 -1.64654 3.34245 0
M  V30 1555 H 144.74 -0.41973 4.77258 0
M  V30 1556 H 143.104 -0.319367 2.5269 0
M  V30 1557 H 143.887 1.20383 3.21501 0
M  V30 1558 N 146.332 -1.57332 0.0918853 0
M  V30 1559 C 147.262 -2.16872 -0.865371 0
M  V30 1560 C 148.243 -1.10118 -1.29646 0
M  V30 1561 O 149.428 -1.38242 -1.36392 0
M  V30 1562 C 146.558 -2.74649 -2.12569 0
M  V30 1563 C 145.512 -3.86747 -1.83333 0
M  V30 1564 C 144.838 -4.31212 -3.16166 0
M  V30 1565 C 146.138 -5.10089 -1.1228 0
M  V30 1566 H 147.832 -2.97114 -0.369307 0
M  V30 1567 H 145.378 -1.42918 -0.176194 0
M  V30 1568 H 147.331 -3.14952 -2.7997 0
M  V30 1569 H 146.055 -1.91657 -2.64452 0
M  V30 1570 H 144.714 -3.46978 -1.18331 0
M  V30 1571 H 144.362 -3.45115 -3.6593 0
M  V30 1572 H 144.062 -5.06788 -2.97388 0
M  V30 1573 H 145.586 -4.74146 -3.84731 0
M  V30 1574 H 147 -5.47582 -1.69785 0
M  V30 1575 H 145.397 -5.91073 -1.03693 0
M  V30 1576 H 146.467 -4.84786 -0.105041 0
M  V30 1577 N 147.81 0.181792 -1.56548 0
M  V30 1578 C 149.04 0.914618 -1.85252 0
M  V30 1579 C 149.448 1.76791 -0.673914 0
M  V30 1580 O 148.791 1.80009 0.366416 0
M  V30 1581 C 148.853 1.85019 -3.08234 0
M  V30 1582 C 148.517 1.17754 -4.41569 0
M  V30 1583 C 149.514 0.548035 -5.17003 0
M  V30 1584 C 147.199 1.17742 -4.88305 0
M  V30 1585 C 149.193 -0.0726128 -6.37359 0
M  V30 1586 C 146.88 0.552946 -6.08593 0
M  V30 1587 C 147.878 -0.070978 -6.82963 0
M  V30 1588 O 147.566 -0.685635 -8.00971 0
M  V30 1589 H 147.298 0.271695 -0.618998 0
M  V30 1590 H 149.852 0.189944 -2.0452 0
M  V30 1591 H 148.082 2.61491 -2.84885 0
M  V30 1592 H 149.771 2.45195 -3.23472 0
M  V30 1593 H 150.537 0.540174 -4.81982 0
M  V30 1594 H 146.416 1.65246 -4.30366 0
M  V30 1595 H 149.96 -0.560213 -6.95347 0
M  V30 1596 H 145.857 0.558354 -6.43081 0
M  V30 1597 H 146.625 -0.58385 -8.16415 0
M  V30 1598 N 149.288 1.51039 0.449983 0
M  V30 1599 C 150.565 1.53612 1.21089 0
M  V30 1600 C 150.945 0.292997 2.09057 0
M  V30 1601 O 150.293 -0.72259 2.16774 0
M  V30 1602 C 150.503 2.84337 2.0237 0
M  V30 1603 C 151.851 3.35807 2.59843 0
M  V30 1604 O 152.875 2.85802 2.12593 0
M  V30 1605 O 151.734 4.23029 3.45989 0
M  V30 1606 H 148.828 0.617057 0.550608 0
M  V30 1607 H 151.374 1.63344 0.460082 0
M  V30 1608 H 150.146 3.66278 1.37681 0
M  V30 1609 H 149.769 2.77708 2.84542 0
M  V30 1610 N 150.766 -0.704594 1.40972 0
M  V30 1611 C 151.699 -1.82861 1.36518 0
M  V30 1612 C 152.677 -1.6091 0.23382 0
M  V30 1613 O 153.861 -1.83778 0.419271 0
M  V30 1614 C 150.988 -3.1939 1.12729 0
M  V30 1615 C 150.034 -3.60148 2.28463 0
M  V30 1616 S 150.867 -3.65994 3.90907 0
M  V30 1617 C 152.023 -5.05264 3.69403 0
M  V30 1618 H 152.256 -1.86361 2.3164 0
M  V30 1619 H 149.789 -0.872439 1.27389 0
M  V30 1620 H 151.747 -3.98211 0.996893 0
M  V30 1621 H 150.408 -3.1351 0.192427 0
M  V30 1622 H 149.601 -4.59309 2.07489 0
M  V30 1623 H 149.203 -2.88612 2.37863 0
M  V30 1624 H 151.495 -5.92504 3.28551 0
M  V30 1625 H 152.438 -5.31278 4.68134 0
M  V30 1626 H 152.846 -4.76377 3.02862 0
M  V30 1627 N 152.244 -1.26651 -0.937939 0
M  V30 1628 C 153.469 -1.15279 -1.72411 0
M  V30 1629 C 153.894 0.287866 -1.85884 0
M  V30 1630 O 153.252 1.20855 -1.35143 0
M  V30 1631 C 153.3 -1.83028 -3.10698 0
M  V30 1632 O 152.404 -1.12128 -3.96864 0
M  V30 1633 H 151.745 -0.401504 -0.528858 0
M  V30 1634 H 154.275 -1.67531 -1.1745 0
M  V30 1635 H 154.285 -1.89981 -3.6107 0
M  V30 1636 H 152.96 -2.87833 -3.00208 0
M  V30 1637 H 151.537 -1.13173 -3.55312 0
M  V30 1638 N 153.722 1.14298 -1.08507 0
M  V30 1639 C 154.652 2.21542 -0.737646 0
M  V30 1640 C 155.633 1.67773 0.280377 0
M  V30 1641 O 156.818 1.93616 0.150521 0
M  V30 1642 C 153.948 3.46988 -0.147259 0
M  V30 1643 C 152.902 4.13789 -1.09374 0
M  V30 1644 C 152.228 5.33449 -0.365524 0
M  V30 1645 C 153.528 4.62208 -2.4323 0
M  V30 1646 H 155.222 2.5086 -1.6343 0
M  V30 1647 H 152.768 1.20576 -0.787243 0
M  V30 1648 H 154.721 4.21262 0.107808 0
M  V30 1649 H 153.445 3.17037 0.784538 0
M  V30 1650 H 152.104 3.4147 -1.33393 0
M  V30 1651 H 151.752 4.99759 0.57011 0
M  V30 1652 H 151.452 5.79088 -0.996512 0
M  V30 1653 H 152.976 6.10485 -0.118534 0
M  V30 1654 H 154.39 5.27952 -2.23472 0
M  V30 1655 H 152.787 5.18553 -3.02031 0
M  V30 1656 H 153.857 3.77224 -3.04681 0
M  V30 1657 N 155.201 0.870884 1.31352 0
M  V30 1658 C 156.131 0.343096 2.30966 0
M  V30 1659 C 157.112 -0.566507 1.60389 0
M  V30 1660 O 158.297 -0.483336 1.88089 0
M  V30 1661 C 155.427 -0.455487 3.443 0
M  V30 1662 C 154.381 0.361103 4.26474 0
M  V30 1663 C 153.707 -0.563221 5.31725 0
M  V30 1664 C 155.007 1.59566 4.97329 0
M  V30 1665 H 156.701 1.17548 2.75359 0
M  V30 1666 H 154.247 0.566686 1.32381 0
M  V30 1667 H 156.2 -0.83525 4.13039 0
M  V30 1668 H 154.924 -1.32139 2.98675 0
M  V30 1669 H 153.583 0.722825 3.59403 0
M  V30 1670 H 153.231 -1.42643 4.82351 0
M  V30 1671 H 152.931 -0.0207409 5.87596 0
M  V30 1672 H 154.455 -0.939808 6.03324 0
M  V30 1673 H 155.869 1.28728 5.58661 0
M  V30 1674 H 154.266 2.07728 5.63 0
M  V30 1675 H 155.336 2.34798 4.24262 0
M  V30 1676 N 156.679 -1.44442 0.630414 0
M  V30 1677 C 157.626 -2.30678 -0.0749355 0
M  V30 1678 C 158.596 -1.4344 -0.837502 0
M  V30 1679 O 159.781 -1.72343 -0.818684 0
M  V30 1680 C 156.921 -3.28706 -1.05103 0
M  V30 1681 C 156.034 -4.31046 -0.286954 0
M  V30 1682 C 155.169 -5.16167 -1.2548 0
M  V30 1683 C 154.208 -6.10216 -0.479843 0
M  V30 1684 N 153.345 -6.88039 -1.39811 0
M  V30 1685 H 158.185 -2.90454 0.666386 0
M  V30 1686 H 155.722 -1.43107 0.340404 0
M  V30 1687 H 157.68 -3.84027 -1.63031 0
M  V30 1688 H 156.31 -2.70632 -1.75949 0
M  V30 1689 H 155.362 -3.78203 0.408243 0
M  V30 1690 H 156.674 -4.97794 0.316657 0
M  V30 1691 H 155.828 -5.76002 -1.90544 0
M  V30 1692 H 154.567 -4.49491 -1.89233 0
M  V30 1693 H 153.572 -5.49491 0.184295 0
M  V30 1694 H 154.797 -6.78928 0.152965 0
M  V30 1695 H 152.743 -6.24032 -2.02287 0
M  V30 1696 H 152.66 -7.51223 -0.848508 0
M  V30 1697 H 153.928 -7.52397 -2.03762 0
M  V30 1698 N 158.157 -0.370918 -1.53173 0
M  V30 1699 C 159.105 0.488101 -2.27421 0
M  V30 1700 C 160.099 1.07884 -1.30604 0
M  V30 1701 O 161.305 1.02143 -1.48212 0
M  V30 1702 H 157.68 0.176134 -0.731082 0
M  V30 1703 H 159.651 -0.159815 -2.97972 0
M  V30 1704 C 158.4 1.61306 -3.08019 0
M  V30 1705 H 157.723 1.1678 -3.82364 0
M  V30 1706 H 159.163 2.18872 -3.63141 0
M  V30 1707 C 157.622 2.55848 -2.19188 0
M  V30 1708 O 158.152 3.58799 -1.80626 0
M  V30 1709 N 156.358 2.2516 -1.83715 0
M  V30 1710 H 155.905 1.41476 -2.15273 0
M  V30 1711 H 155.863 2.8867 -1.24567 0
M  V30 1712 N 159.635 1.57281 -0.100228 0
M  V30 1713 C 161.051 1.57527 0.256416 0
M  V30 1714 C 161.251 1.11173 1.68056 0
M  V30 1715 O 160.307 0.79053 2.39806 0
M  V30 1716 C 161.62 3.00673 0.0401747 0
M  V30 1717 C 163.168 3.12815 0.107528 0
M  V30 1718 C 163.643 4.57929 -0.0807834 0
M  V30 1719 N 165.134 4.63193 -0.0261207 0
M  V30 1720 C 165.869 5.73212 -0.146999 0
M  V30 1721 N 165.365 6.92047 -0.322999 0
M  V30 1722 N 167.158 5.62031 -0.0879044 0
M  V30 1723 H 159.309 1.85718 -1.03065 0
M  V30 1724 H 161.572 0.857446 -0.404339 0
M  V30 1725 H 161.278 3.38804 -0.943649 0
M  V30 1726 H 161.152 3.69042 0.780262 0
M  V30 1727 H 163.539 2.74554 1.08186 0
M  V30 1728 H 163.62 2.47028 -0.664134 0
M  V30 1729 H 163.264 4.96886 -1.05201 0
M  V30 1730 H 163.194 5.21783 0.710635 0
M  V30 1731 H 165.685 3.77748 0.107161 0
M  V30 1732 H 165.998 7.7173 -0.406608 0
M  V30 1733 H 164.343 6.94074 -0.358733 0
M  V30 1734 H 167.534 4.68075 0.048498 0
M  V30 1735 H 167.707 6.47734 -0.185557 0
M  V30 1736 N 161.113 -0.173488 1.56642 0
M  V30 1737 C 162.36 -0.890465 1.81871 0
M  V30 1738 C 162.688 -1.82339 0.67696 0
M  V30 1739 O 161.943 -1.92795 -0.335926 0
M  V30 1740 C 162.242 -1.72069 3.13252 0
M  V30 1741 C 161.908 -0.936878 4.41059 0
M  V30 1742 C 160.57 -0.720545 4.75775 0
M  V30 1743 C 162.922 -0.386919 5.19762 0
M  V30 1744 C 160.25 0.0568829 5.86672 0
M  V30 1745 C 162.602 0.37741 6.31473 0
M  V30 1746 C 161.266 0.604563 6.64757 0
M  V30 1747 H 160.536 -0.325844 0.665512 0
M  V30 1748 H 163.183 -0.155527 1.90867 0
M  V30 1749 H 161.488 -2.52496 2.99588 0
M  V30 1750 H 163.185 -2.27844 3.29982 0
M  V30 1751 H 159.775 -1.11553 4.13828 0
M  V30 1752 H 163.959 -0.541398 4.93338 0
M  V30 1753 H 159.215 0.242635 6.10918 0
M  V30 1754 H 163.389 0.810825 6.91664 0
M  V30 1755 H 161.016 1.20885 7.50527 0
M  V30 1756 N 162.591 -1.51276 -0.441967 0
M  V30 1757 C 163.521 -1.752 -1.54361 0
M  V30 1758 C 164.502 -0.601682 -1.59103 0
M  V30 1759 O 165.687 -0.843913 -1.74905 0
M  V30 1760 C 162.817 -1.87282 -2.92477 0
M  V30 1761 C 161.771 -3.02687 -3.02596 0
M  V30 1762 C 161.097 -2.99947 -4.42647 0
M  V30 1763 C 162.397 -4.4273 -2.77106 0
M  V30 1764 H 164.091 -2.67442 -1.34592 0
M  V30 1765 H 161.637 -1.28694 -0.646048 0
M  V30 1766 H 163.59 -2.02602 -3.695 0
M  V30 1767 H 162.314 -0.916844 -3.13467 0
M  V30 1768 H 160.973 -2.87065 -2.28012 0
M  V30 1769 H 160.621 -2.02136 -4.60597 0
M  V30 1770 H 160.321 -3.77439 -4.50348 0
M  V30 1771 H 161.845 -3.17354 -5.2165 0
M  V30 1772 H 163.259 -4.58727 -3.43864 0
M  V30 1773 H 161.656 -5.21893 -2.96222 0
M  V30 1774 H 162.726 -4.53087 -1.72744 0
M  V30 1775 N 164.069 0.697108 -1.41344 0
M  V30 1776 C 165.485 1.00751 -1.2378 0
M  V30 1777 C 165.685 2.01105 -0.126066 0
M  V30 1778 O 164.741 2.47295 0.51004 0
M  V30 1779 C 166.054 1.53359 -2.58653 0
M  V30 1780 C 167.602 1.6525 -2.65822 0
M  V30 1781 C 168.077 2.2126 -4.01009 0
M  V30 1782 N 169.568 2.28622 -4.02847 0
M  V30 1783 C 170.303 2.72984 -5.04249 0
M  V30 1784 N 169.799 3.16962 -6.16041 0
M  V30 1785 N 171.592 2.72534 -4.91611 0
M  V30 1786 H 163.743 0.0322662 -2.12375 0
M  V30 1787 H 166.006 0.0768853 -0.944877 0
M  V30 1788 H 165.712 0.870773 -3.4075 0
M  V30 1789 H 165.586 2.51597 -2.81032 0
M  V30 1790 H 167.973 2.30644 -1.84086 0
M  V30 1791 H 168.054 0.655614 -2.47256 0
M  V30 1792 H 167.698 1.56482 -4.83193 0
M  V30 1793 H 167.628 3.21698 -4.16915 0
M  V30 1794 H 170.119 1.97585 -3.22131 0
M  V30 1795 H 170.432 3.49434 -6.89287 0
M  V30 1796 H 168.777 3.14875 -6.1958 0
M  V30 1797 H 171.968 2.37525 -4.0336 0
M  V30 1798 H 172.141 3.06789 -5.70775 0
M  V30 1799 N 165.547 1.27147 0.931209 0
M  V30 1800 C 166.958 1.12044 1.49342 0
M  V30 1801 C 167.309 -0.295795 1.93957 0
M  V30 1802 O 166.434 -1.18835 1.80852 0
M  V30 1803 C 167.029 2.02781 2.71414 0
M  V30 1804 C 165.588 1.91794 3.2387 0
M  V30 1805 C 164.735 1.95543 1.96617 0
M  V30 1806 H 167.686 1.40091 0.745672 0
M  V30 1807 H 167.707 1.58156 3.46074 0
M  V30 1808 H 167.219 3.05848 2.38911 0
M  V30 1809 H 165.32 0.916992 3.6114 0
M  V30 1810 H 165.433 2.77852 3.90302 0
M  V30 1811 H 163.797 1.39722 2.12955 0
M  V30 1812 H 164.58 3.00259 1.66432 0
M  V30 1813 N 167.025 -1.13721 1.09112 0
M  V30 1814 C 168.273 -1.84559 0.823562 0
M  V30 1815 C 168.594 -1.83754 -0.652658 0
M  V30 1816 O 167.864 -1.29102 -1.47342 0
M  V30 1817 H 166.444 -0.683376 0.301673 0
M  V30 1818 H 169.106 -1.37771 1.37859 0
M  V30 1819 H 168.202 -2.8917 1.17419 0
M  V30 1820 N 168.503 -0.877838 -1.30888 0
M  V30 1821 C 169.78 -0.413052 -1.91189 0
M  V30 1822 C 170.16 1.1056 -1.79832 0
M  V30 1823 O 169.508 1.93771 -1.21099 0
M  V30 1824 C 169.718 -0.903191 -3.3711 0
M  V30 1825 C 171.066 -0.93395 -4.14201 0
M  V30 1826 O 172.09 -0.849373 -3.45925 0
M  V30 1827 O 170.949 -1.05772 -5.36167 0
M  V30 1828 H 168.043 -0.125035 -0.817493 0
M  V30 1829 H 170.589 -0.966269 -1.39504 0
M  V30 1830 H 169.361 -1.94692 -3.39427 0
M  V30 1831 H 168.984 -0.328732 -3.96239 0
M  V30 1832 N 169.982 1.44106 -0.638065 0
M  V30 1833 C 171.259 1.95453 -0.0759321 0
M  V30 1834 C 171.639 1.57984 1.40015 0
M  V30 1835 O 170.987 0.857361 2.11806 0
M  V30 1836 C 171.197 3.47655 -0.306132 0
M  V30 1837 C 172.545 4.24114 -0.203008 0
M  V30 1838 O 173.569 3.55405 -0.237871 0
M  V30 1839 O 172.428 5.46381 -0.113827 0
M  V30 1840 H 169.522 0.826797 0.0183332 0
M  V30 1841 H 172.068 1.54122 -0.710251 0
M  V30 1842 H 170.84 3.68 -1.3301 0
M  V30 1843 H 170.463 3.95949 0.361991 0
M  V30 1844 N 171.46 0.379036 1.52974 0
M  V30 1845 C 172.685 -0.209353 2.06341 0
M  V30 1846 C 173.11 -1.40583 1.24972 0
M  V30 1847 O 172.468 -1.79246 0.272155 0
M  V30 1848 C 172.516 -0.567786 3.56102 0
M  V30 1849 O 171.62 -1.66318 3.77375 0
M  V30 1850 H 170.961 -0.0272919 0.663439 0
M  V30 1851 H 173.491 0.543536 1.97248 0
M  V30 1852 H 173.501 -0.835003 3.99364 0
M  V30 1853 H 172.176 0.307013 4.14765 0
M  V30 1854 H 170.753 -1.39048 3.46006 0
M  V30 1855 N 172.938 -1.57226 0.108567 0
M  V30 1856 C 174.163 -1.99604 -0.563303 0
M  V30 1857 C 174.588 -0.987563 -1.6009 0
M  V30 1858 O 173.946 0.0421687 -1.81251 0
M  V30 1859 C 173.994 -3.40902 -1.17552 0
M  V30 1860 O 173.098 -3.42896 -2.2912 0
M  V30 1861 H 172.439 -0.648704 -0.1417 0
M  V30 1862 H 174.969 -2.03679 0.193961 0
M  V30 1863 H 174.979 -3.78886 -1.51357 0
M  V30 1864 H 173.654 -4.1382 -0.415445 0
M  V30 1865 H 172.231 -3.1672 -1.96832 0
M  V30 1866 N 174.416 0.165178 -1.56732 0
M  V30 1867 C 175.366 1.20917 -1.93295 0
M  V30 1868 C 176.35 1.39488 -0.801985 0
M  V30 1869 O 177.542 1.41356 -1.06525 0
M  V30 1870 C 174.671 2.54718 -2.3016 0
M  V30 1871 C 173.757 2.39815 -3.49785 0
M  V30 1872 N 174.148 1.94637 -4.66851 0
M  V30 1873 C 172.446 2.70623 -3.54513 0
M  V30 1874 C 173.147 1.92344 -5.4898 0
M  V30 1875 N 172.123 2.34978 -4.9019 0
M  V30 1876 H 175.925 0.851675 -2.81289 0
M  V30 1877 H 173.439 0.373399 -1.58049 0
M  V30 1878 H 175.436 3.30165 -2.54552 0
M  V30 1879 H 174.096 2.91265 -1.43508 0
M  V30 1880 H 175.107 1.6488 -4.90953 0
M  V30 1881 H 171.784 3.11167 -2.78354 0
M  V30 1882 H 173.174 1.5906 -6.52801 0
M  V30 1883 N 175.894 1.51508 0.433938 0
M  V30 1884 C 177.171 1.54888 1.19453 0
M  V30 1885 C 177.551 0.315154 2.08734 0
M  V30 1886 O 176.899 -0.699558 2.17528 0
M  V30 1887 C 177.109 2.86467 1.99342 0
M  V30 1888 C 178.457 3.38545 2.56267 0
M  V30 1889 O 179.481 2.88041 2.0955 0
M  V30 1890 O 178.34 4.26675 3.41483 0
M  V30 1891 H 175.434 0.622863 0.544032 0
M  V30 1892 H 177.98 1.63823 0.442732 0
M  V30 1893 H 176.752 3.67718 1.33788 0
M  V30 1894 H 176.375 2.8071 2.8158 0
M  V30 1895 N 177.372 -0.689602 1.41712 0
M  V30 1896 C 178.302 -1.81577 1.46806 0
M  V30 1897 C 179.283 -1.66945 0.326105 0
M  V30 1898 O 180.468 -1.86588 0.538377 0
M  V30 1899 C 177.598 -3.19762 1.35535 0
M  V30 1900 C 176.552 -3.49107 2.47605 0
M  V30 1901 C 175.878 -4.86711 2.21397 0
M  V30 1902 C 177.178 -3.47483 3.89939 0
M  V30 1903 H 178.872 -1.7757 2.41058 0
M  V30 1904 H 176.418 -0.852887 1.16025 0
M  V30 1905 H 178.371 -3.98263 1.3771 0
M  V30 1906 H 177.095 -3.24409 0.377708 0
M  V30 1907 H 175.754 -2.72959 2.44722 0
M  V30 1908 H 175.402 -4.8799 1.21961 0
M  V30 1909 H 175.102 -5.0731 2.96497 0
M  V30 1910 H 176.626 -5.67515 2.25297 0
M  V30 1911 H 178.04 -4.1598 3.94505 0
M  V30 1912 H 176.437 -3.79615 4.64771 0
M  V30 1913 H 177.507 -2.46341 4.17665 0
M  V30 1914 N 178.85 -1.27639 -0.924453 0
M  V30 1915 C 179.783 -1.04966 -2.02626 0
M  V30 1916 C 180.761 0.0309505 -1.62571 0
M  V30 1917 O 181.945 -0.114846 -1.8815 0
M  V30 1918 C 179.072 -0.59292 -3.3347 0
M  V30 1919 C 178.118 -1.66858 -3.92506 0
M  V30 1920 S 178.951 -3.2619 -4.24689 0
M  V30 1921 C 180.107 -2.82325 -5.58609 0
M  V30 1922 H 180.34 -1.98252 -2.21547 0
M  V30 1923 H 177.873 -1.11506 -1.06798 0
M  V30 1924 H 179.831 -0.336086 -4.09122 0
M  V30 1925 H 178.492 0.319939 -3.12466 0
M  V30 1926 H 177.685 -1.30038 -4.86935 0
M  V30 1927 H 177.287 -1.87766 -3.2345 0
M  V30 1928 H 179.579 -2.2783 -6.38044 0
M  V30 1929 H 180.522 -3.75511 -6.00331 0
M  V30 1930 H 180.93 -2.21367 -5.19285 0
M  V30 1931 N 180.328 1.1314 -1.09713 0
M  V30 1932 C 181.258 2.20748 -0.761102 0
M  V30 1933 C 182.239 1.68061 0.262566 0
M  V30 1934 O 183.424 1.93765 0.129977 0
M  V30 1935 C 180.554 3.46812 -0.184054 0
M  V30 1936 C 179.508 4.12606 -1.13757 0
M  V30 1937 C 178.834 5.33031 -0.422083 0
M  V30 1938 C 180.134 4.59603 -2.48118 0
M  V30 1939 H 181.828 2.49113 -1.66082 0
M  V30 1940 H 179.374 1.19734 -0.799987 0
M  V30 1941 H 181.327 4.21353 0.0631215 0
M  V30 1942 H 180.051 3.17851 0.750868 0
M  V30 1943 H 178.71 3.40036 -1.37007 0
M  V30 1944 H 178.358 5.00335 0.517072 0
M  V30 1945 H 178.058 5.77999 -1.05788 0
M  V30 1946 H 179.582 6.10325 -0.183277 0
M  V30 1947 H 180.996 5.25552 -2.29059 0
M  V30 1948 H 179.393 5.15321 -3.07514 0
M  V30 1949 H 180.463 3.73971 -3.08665 0
M  V30 1950 N 181.806 0.884767 1.30421 0
M  V30 1951 C 182.736 0.367574 2.30589 0
M  V30 1952 C 183.717 -0.549464 1.60981 0
M  V30 1953 O 184.902 -0.46336 1.88591 0
M  V30 1954 C 182.032 -0.418944 3.44764 0
M  V30 1955 C 180.986 0.406316 4.26067 0
M  V30 1956 C 180.312 -0.506793 5.32293 0
M  V30 1957 C 181.612 1.64832 4.95608 0
M  V30 1958 H 183.306 1.20462 2.74097 0
M  V30 1959 H 180.852 0.580695 1.31772 0
M  V30 1960 H 182.805 -0.791395 4.13902 0
M  V30 1961 H 181.529 -1.28964 3.0006 0
M  V30 1962 H 180.188 0.760903 3.58617 0
M  V30 1963 H 179.836 -1.37519 4.83836 0
M  V30 1964 H 179.536 0.0415828 5.87585 0
M  V30 1965 H 181.06 -0.875764 6.04287 0
M  V30 1966 H 182.474 1.34646 5.57264 0
M  V30 1967 H 180.871 2.13688 5.60765 0
M  V30 1968 H 181.941 2.39284 4.21748 0
M  V30 1969 N 183.284 -1.43765 0.645699 0
M  V30 1970 C 184.7 -1.56509 0.312591 0
M  V30 1971 C 184.9 -1.6307 -1.18365 0
M  V30 1972 O 183.956 -1.58167 -1.96824 0
M  V30 1973 C 185.269 -2.82968 1.01733 0
M  V30 1974 C 186.817 -2.96701 0.996865 0
M  V30 1975 C 187.292 -4.25982 1.68236 0
M  V30 1976 N 188.783 -4.32829 1.64964 0
M  V30 1977 C 189.518 -5.31613 2.14885 0
M  V30 1978 N 189.014 -6.36718 2.73061 0
M  V30 1979 N 190.807 -5.23217 2.05428 0
M  V30 1980 H 182.958 -1.3775 1.61675 0
M  V30 1981 H 185.221 -0.661067 0.679481 0
M  V30 1982 H 184.927 -2.84156 2.0724 0
M  V30 1983 H 184.801 -3.72957 0.564177 0
M  V30 1984 H 187.188 -2.95058 -0.0497719 0
M  V30 1985 H 187.269 -2.08022 1.48865 0
M  V30 1986 H 186.913 -4.28386 2.72852 0
M  V30 1987 H 186.843 -5.13545 1.16529 0
M  V30 1988 H 189.334 -3.57493 1.22503 0
M  V30 1989 H 189.647 -7.08401 3.08848 0
M  V30 1990 H 187.992 -6.37362 2.77118 0
M  V30 1991 H 191.183 -4.40019 1.59689 0
M  V30 1992 H 191.356 -6.00045 2.44643 0
M  V30 1993 N 184.763 -0.387143 -1.52771 0
M  V30 1994 C 185.693 0.440551 -2.29306 0
M  V30 1995 C 186.674 1.06535 -1.32606 0
M  V30 1996 O 187.859 1.07853 -1.61497 0
M  V30 1997 C 184.989 1.56919 -3.09829 0
M  V30 1998 C 183.943 1.07054 -4.14395 0
M  V30 1999 C 183.269 2.29109 -4.83129 0
M  V30 2000 C 184.569 0.140015 -5.22112 0
M  V30 2001 H 186.263 -0.198026 -2.98744 0
M  V30 2002 H 183.809 -0.09668 -1.43675 0
M  V30 2003 H 185.762 2.15503 -3.62128 0
M  V30 2004 H 184.486 2.23532 -2.3812 0
M  V30 2005 H 183.145 0.507247 -3.63074 0
M  V30 2006 H 182.793 2.94227 -4.0797 0
M  V30 2007 H 182.493 1.96406 -5.53804 0
M  V30 2008 H 184.017 2.88339 -5.38231 0
M  V30 2009 H 185.431 0.633978 -5.69784 0
M  V30 2010 H 183.828 -0.0971485 -6.00021 0
M  V30 2011 H 184.898 -0.811711 -4.78058 0
M  V30 2012 N 186.241 1.57166 -0.116904 0
M  V30 2013 C 187.466 1.999 0.55271 0
M  V30 2014 C 187.891 0.996039 1.59564 0
M  V30 2015 O 187.249 -0.032556 1.81271 0
M  V30 2016 C 187.297 3.4152 1.15742 0
M  V30 2017 O 186.401 3.44106 2.27299 0
M  V30 2018 H 185.742 0.649447 0.138258 0
M  V30 2019 H 188.272 2.03573 -0.204759 0
M  V30 2020 H 188.282 3.79684 1.49346 0
M  V30 2021 H 186.957 4.14034 0.393493 0
M  V30 2022 H 185.534 3.17759 1.9515 0
M  V30 2023 N 187.719 -0.156864 1.56817 0
M  V30 2024 C 188.629 -1.2136 2.00771 0
M  V30 2025 C 189.645 -1.47598 0.921459 0
M  V30 2026 O 190.821 -1.59462 1.2302 0
M  V30 2027 C 187.886 -2.52943 2.37109 0
M  V30 2028 C 186.947 -2.34439 3.59634 0
M  V30 2029 C 186.18 -3.59748 3.94229 0
M  V30 2030 O 186.403 -4.65526 3.29609 0
M  V30 2031 O 185.337 -3.52998 4.8752 0
M  V30 2032 H 189.163 -0.870468 2.90958 0
M  V30 2033 H 186.748 -0.36484 1.44877 0
M  V30 2034 H 188.63 -3.30538 2.61386 0
M  V30 2035 H 187.305 -2.86806 1.5008 0
M  V30 2036 H 186.212 -1.54828 3.40557 0
M  V30 2037 H 187.545 -2.05496 4.4725 0
M  V30 2038 N 189.197 -1.51736 -0.425897 0
M  V30 2039 C 190.608 -1.5732 -1.00536 0
M  V30 2040 C 190.959 -0.403537 -1.92005 0
M  V30 2041 O 190.084 0.478256 -2.11049 0
M  V30 2042 C 190.679 -2.85119 -1.8301 0
M  V30 2043 C 189.238 -2.93236 -2.35987 0
M  V30 2044 C 188.385 -2.52098 -1.15508 0
M  V30 2045 H 191.336 -1.57348 -0.206739 0
M  V30 2046 H 191.357 -2.69526 -2.68581 0
M  V30 2047 H 190.869 -3.7023 -1.16411 0
M  V30 2048 H 188.97 -2.12581 -3.06007 0
M  V30 2049 H 189.083 -3.9713 -2.68001 0
M  V30 2050 H 187.447 -2.05558 -1.50393 0
M  V30 2051 H 188.23 -3.39565 -0.505014 0
M  V30 2052 N 190.675 0.682077 -1.42076 0
M  V30 2053 C 191.638 1.77756 -1.44691 0
M  V30 2054 C 192.638 1.5726 -0.335535 0
M  V30 2055 O 193.828 1.63686 -0.596037 0
M  V30 2056 C 190.96 3.16301 -1.27146 0
M  V30 2057 H 192.153 1.76826 -2.42224 0
M  V30 2058 H 189.706 0.891012 -1.28416 0
M  V30 2059 H 190.441 3.22862 -0.305075 0
M  V30 2060 H 190.226 3.32581 -2.07683 0
M  V30 2061 H 191.716 3.96241 -1.31843 0
M  V30 2062 N 192.153 1.28127 0.917671 0
M  V30 2063 C 193.063 1.13556 2.05286 0
M  V30 2064 C 194.079 0.0630914 1.73886 0
M  V30 2065 O 195.255 0.271598 1.9956 0
M  V30 2066 C 192.32 0.794676 3.3747 0
M  V30 2067 C 191.381 1.94909 3.82504 0
M  V30 2068 C 190.614 1.62437 5.0838 0
M  V30 2069 O 190.837 0.536905 5.67867 0
M  V30 2070 O 189.771 2.46677 5.4903 0
M  V30 2071 H 193.597 2.08844 2.20495 0
M  V30 2072 H 191.182 1.07409 1.03845 0
M  V30 2073 H 193.064 0.618344 4.16839 0
M  V30 2074 H 191.739 -0.128581 3.23445 0
M  V30 2075 H 190.646 2.18055 3.03978 0
M  V30 2076 H 191.979 2.85291 4.01086 0
M  V30 2077 N 193.631 -1.12557 1.10312 0
M  V30 2078 C 194.561 -2.20341 0.772798 0
M  V30 2079 C 195.542 -1.68198 -0.25365 0
M  V30 2080 O 196.727 -1.93831 -0.119699 0
M  V30 2081 C 193.857 -3.46709 0.202443 0
M  V30 2082 C 192.811 -4.11996 1.15943 0
M  V30 2083 C 192.137 -5.328 0.450345 0
M  V30 2084 C 193.437 -4.5828 2.50552 0
M  V30 2085 H 195.131 -2.48229 1.674 0
M  V30 2086 H 192.677 -1.19308 0.806326 0
M  V30 2087 H 194.63 -4.2138 -0.0407752 0
M  V30 2088 H 193.354 -3.18245 -0.734001 0
M  V30 2089 H 192.013 -3.39305 1.38808 0
M  V30 2090 H 191.661 -5.00602 -0.490531 0
M  V30 2091 H 191.361 -5.7743 1.08851 0
M  V30 2092 H 192.885 -6.10219 0.215642 0
M  V30 2093 H 194.299 -5.2433 2.31843 0
M  V30 2094 H 192.696 -5.13683 3.10242 0
M  V30 2095 H 193.766 -3.72329 3.10643 0
M  V30 2096 N 195.109 -0.891671 -1.2995 0
M  V30 2097 C 196.337 -0.52866 -2.00032 0
M  V30 2098 C 196.752 0.884574 -1.66795 0
M  V30 2099 O 196.109 1.5827 -0.908669 0
M  V30 2100 C 196.16 -0.701814 -3.54622 0
M  V30 2101 O 195.881 -2.05942 -3.86678 0
M  V30 2102 C 197.382 -0.342683 -4.41973 0
M  V30 2103 H 194.602 -0.203659 -0.639347 0
M  V30 2104 H 197.146 -1.19881 -1.65677 0
M  V30 2105 H 195.301 -0.0789468 -3.8732 0
M  V30 2106 H 195.715 -2.08291 -4.81368 0
M  V30 2107 H 197.189 -0.514709 -5.49595 0
M  V30 2108 H 197.666 0.71975 -4.33262 0
M  V30 2109 H 198.272 -0.942154 -4.14733 0
M  V30 2110 N 196.587 1.43421 -0.653314 0
M  V30 2111 C 197.864 1.95361 -0.0966581 0
M  V30 2112 C 198.244 1.59461 1.38331 0
M  V30 2113 O 197.592 0.879777 2.10884 0
M  V30 2114 C 197.802 3.47311 -0.342988 0
M  V30 2115 C 199.15 4.23875 -0.24798 0
M  V30 2116 O 200.174 3.55133 -0.275553 0
M  V30 2117 O 199.033 5.4623 -0.171771 0
M  V30 2118 H 196.127 0.826945 0.00956291 0
M  V30 2119 H 198.673 1.5336 -0.726558 0
M  V30 2120 H 197.445 3.66569 -1.36906 0
M  V30 2121 H 197.068 3.9631 0.319975 0
M  V30 2122 N 198.065 0.39524 1.52563 0
M  V30 2123 C 199.028 -0.425001 2.25225 0
M  V30 2124 C 200.028 -0.985266 1.27079 0
M  V30 2125 O 201.218 -0.866332 1.5113 0
M  V30 2126 C 198.35 -1.59686 3.01186 0
M  V30 2127 H 199.543 0.211233 2.99155 0
M  V30 2128 H 197.096 0.147472 1.55603 0
M  V30 2129 H 197.831 -2.27035 2.31572 0
M  V30 2130 H 197.616 -1.20176 3.73229 0
M  V30 2131 H 199.106 -2.17743 3.5634 0
M  V30 2132 N 199.544 -1.57102 0.125237 0
M  V30 2133 C 200.79 -1.95697 -0.532035 0
M  V30 2134 C 201.123 -1.009 -1.6593 0
M  V30 2135 O 200.398 -0.047347 -1.94442 0
M  V30 2136 C 200.681 -3.44181 -1.05884 0
M  V30 2137 C 200.534 -4.49752 0.0654392 0
M  V30 2138 C 201.853 -3.94655 -1.9477 0
M  V30 2139 H 198.972 -0.711571 -0.191925 0
M  V30 2140 H 201.614 -1.88923 0.20206 0
M  V30 2141 H 199.764 -3.50085 -1.68442 0
M  V30 2142 H 201.436 -4.55943 0.700982 0
M  V30 2143 H 199.679 -4.27653 0.727709 0
M  V30 2144 H 200.35 -5.50924 -0.344505 0
M  V30 2145 H 202.826 -3.91094 -1.42074 0
M  V30 2146 H 201.702 -4.99057 -2.28546 0
M  V30 2147 H 201.963 -3.35718 -2.87656 0
M  V30 2148 N 201.022 0.148545 -1.56898 0
M  V30 2149 C 201.969 1.18345 -1.98149 0
M  V30 2150 C 202.939 1.42772 -0.848848 0
M  V30 2151 O 204.124 1.55132 -1.11079 0
M  V30 2152 C 201.264 2.51231 -2.36594 0
M  V30 2153 C 200.377 2.33991 -3.63142 0
M  V30 2154 C 199.512 3.59902 -3.90697 0
M  V30 2155 C 198.551 3.37692 -5.1052 0
M  V30 2156 N 197.688 4.5573 -5.34092 0
M  V30 2157 H 202.528 0.82467 -2.86362 0
M  V30 2158 H 200.065 0.395756 -1.41676 0
M  V30 2159 H 202.023 3.28713 -2.56912 0
M  V30 2160 H 200.653 2.85059 -1.51463 0
M  V30 2161 H 199.705 1.47572 -3.50609 0
M  V30 2162 H 201.017 2.13539 -4.5078 0
M  V30 2163 H 200.171 4.45813 -4.11505 0
M  V30 2164 H 198.91 3.83357 -3.01477 0
M  V30 2165 H 197.915 2.5017 -4.89587 0
M  V30 2166 H 199.14 3.15637 -6.0129 0
M  V30 2167 H 197.086 4.79361 -4.47827 0
M  V30 2168 H 197.003 4.38274 -6.15996 0
M  V30 2169 H 198.271 5.42858 -5.59397 0
M  V30 2170 N 202.5 1.5196 0.417844 0
M  V30 2171 C 203.746 1.65836 1.16732 0
M  V30 2172 C 204.079 0.382881 1.90388 0
M  V30 2173 O 203.354 -0.618368 1.84408 0
M  V30 2174 C 203.637 2.87466 2.16876 0
M  V30 2175 C 203.49 4.25041 1.47174 0
M  V30 2176 C 204.809 3.04613 3.17646 0
M  V30 2177 H 201.928 0.603515 0.423011 0
M  V30 2178 H 204.57 1.84494 0.454105 0
M  V30 2179 H 202.72 2.71689 2.777 0
M  V30 2180 H 204.392 4.52527 0.895376 0
M  V30 2181 H 202.635 4.26843 0.773806 0
M  V30 2182 H 203.306 5.06176 2.20204 0
M  V30 2183 H 205.782 3.1923 2.66892 0
M  V30 2184 H 204.658 3.91247 3.8499 0
M  V30 2185 H 204.919 2.17541 3.84874 0
M  V30 2186 N 203.978 -0.674533 1.42435 0
M  V30 2187 C 204.911 -1.79924 1.40366 0
M  V30 2188 C 205.889 -1.60378 0.267899 0
M  V30 2189 O 207.073 -1.82847 0.458159 0
M  V30 2190 C 204.2 -3.16927 1.19478 0
M  V30 2191 C 203.246 -3.55221 2.36051 0
M  V30 2192 S 204.079 -3.5762 3.98583 0
M  V30 2193 C 205.235 -4.97315 3.80038 0
M  V30 2194 H 205.468 -1.81405 2.35541 0
M  V30 2195 H 203.001 -0.845221 1.29211 0
M  V30 2196 H 204.959 -3.96007 1.08114 0
M  V30 2197 H 203.62 -3.13031 0.258883 0
M  V30 2198 H 202.813 -4.54804 2.17185 0
M  V30 2199 H 202.415 -2.83502 2.43932 0
M  V30 2200 H 204.707 -5.85401 3.41045 0
M  V30 2201 H 205.65 -5.21228 4.79298 0
M  V30 2202 H 206.058 -4.69845 3.12899 0
M  V30 2203 N 205.456 -1.28612 -0.910864 0
M  V30 2204 C 206.733 -1.06632 -1.63979 0
M  V30 2205 C 207.113 0.393351 -2.07403 0
M  V30 2206 O 206.461 1.37999 -1.82122 0
M  V30 2207 C 206.671 -2.0436 -2.8291 0
M  V30 2208 C 208.019 -2.34666 -3.5386 0
M  V30 2209 O 209.043 -2.02467 -2.93062 0
M  V30 2210 O 207.902 -2.89631 -4.63439 0
M  V30 2211 H 204.996 -0.407737 -0.7195 0
M  V30 2212 H 207.542 -1.39942 -0.959914 0
M  V30 2213 H 206.314 -3.02727 -2.47936 0
M  V30 2214 H 205.937 -1.71714 -3.58609 0
M  V30 2215 N 206.934 1.1197 -1.10907 0
M  V30 2216 C 207.864 2.19928 -0.784473 0
M  V30 2217 C 208.845 1.6833 0.244726 0
M  V30 2218 O 210.03 1.93892 0.109418 0
M  V30 2219 C 207.16 3.46597 -0.220827 0
M  V30 2220 C 206.114 4.11376 -1.18127 0
M  V30 2221 C 205.44 5.32554 -0.478594 0
M  V30 2222 C 206.74 4.56945 -2.52979 0
M  V30 2223 H 208.434 2.47337 -1.68715 0
M  V30 2224 H 205.98 1.18879 -0.812642 0
M  V30 2225 H 207.933 4.21396 0.0184278 0
M  V30 2226 H 206.657 3.1863 0.717113 0
M  V30 2227 H 205.316 3.38564 -1.40606 0
M  V30 2228 H 204.964 5.00856 0.463976 0
M  V30 2229 H 204.664 5.76844 -1.11912 0
M  V30 2230 H 206.188 6.10096 -0.248 0
M  V30 2231 H 207.602 5.23093 -2.3462 0
M  V30 2232 H 205.999 5.1203 -3.12962 0
M  V30 2233 H 207.069 3.70676 -3.12614 0
M  V30 2234 N 208.412 0.89855 1.29475 0
M  V30 2235 C 209.823 0.572537 1.77705 0
M  V30 2236 C 210.174 -0.911778 1.73727 0
M  V30 2237 O 209.299 -1.71288 1.32247 0
M  V30 2238 C 209.894 1.03252 3.22683 0
M  V30 2239 C 208.453 0.757687 3.68695 0
M  V30 2240 C 207.6 1.20787 2.49612 0
M  V30 2241 H 210.551 1.08139 1.16153 0
M  V30 2242 H 210.572 0.367307 3.78723 0
M  V30 2243 H 210.084 2.11285 3.25546 0
M  V30 2244 H 208.185 -0.310079 3.71308 0
M  V30 2245 H 208.298 1.35476 4.59547 0
M  V30 2246 H 206.662 0.626888 2.46865 0
M  V30 2247 H 207.445 2.29622 2.55203 0
M  V30 2248 N 209.89 -1.43072 0.660911 0
M  V30 2249 C 211.118 -2.06067 0.185422 0
M  V30 2250 C 211.533 -1.49582 -1.15198 0
M  V30 2251 O 210.89 -0.630134 -1.71276 0
M  V30 2252 C 210.941 -3.61371 0.0966523 0
M  V30 2253 O 210.662 -4.15758 1.38119 0
M  V30 2254 C 212.163 -4.41455 -0.403996 0
M  V30 2255 H 209.383 -0.664459 0.0934604 0
M  V30 2256 H 211.927 -1.83447 0.90373 0
M  V30 2257 H 210.082 -3.8315 -0.572259 0
M  V30 2258 H 210.496 -5.09499 1.24542 0
M  V30 2259 H 211.97 -5.50437 -0.415045 0
M  V30 2260 H 212.447 -4.15036 -1.43674 0
M  V30 2261 H 213.053 -4.24663 0.232691 0
M  V30 2262 N 211.368 -0.403325 -1.52352 0
M  V30 2263 C 212.3 0.4603 -2.2453 0
M  V30 2264 C 213.313 1.01505 -1.27282 0
M  V30 2265 O 214.502 0.914982 -1.53266 0
M  V30 2266 C 211.602 1.65208 -2.95905 0
M  V30 2267 C 210.775 1.22224 -4.19976 0
M  V30 2268 C 209.834 2.28028 -4.74226 0
M  V30 2269 O 208.86 1.88857 -5.36956 0
M  V30 2270 N 210.062 3.6012 -4.55295 0
M  V30 2271 H 212.827 -0.158156 -2.99282 0
M  V30 2272 H 210.388 -0.230402 -1.60252 0
M  V30 2273 H 212.38 2.35541 -3.29093 0
M  V30 2274 H 210.95 2.17658 -2.24374 0
M  V30 2275 H 210.17 0.34725 -3.92668 0
M  V30 2276 H 211.458 0.911924 -5.00561 0
M  V30 2277 H 210.856 3.94698 -4.05253 0
M  V30 2278 H 209.413 4.26447 -4.92936 0
M  V30 2279 N 212.846 1.57033 -0.133567 0
M  V30 2280 C 213.756 2.19632 0.824564 0
M  V30 2281 C 214.772 1.17666 1.28182 0
M  V30 2282 O 215.948 1.50193 1.3418 0
M  V30 2283 C 213.013 2.79499 2.05137 0
M  V30 2284 C 212.074 3.96548 1.64464 0
M  V30 2285 C 211.307 4.5355 2.81297 0
M  V30 2286 O 211.53 4.09438 3.97136 0
M  V30 2287 O 210.464 5.44018 2.57542 0
M  V30 2288 H 214.29 3.01991 0.321766 0
M  V30 2289 H 211.875 1.49112 0.0927889 0
M  V30 2290 H 213.757 3.17602 2.7696 0
M  V30 2291 H 212.432 2.00162 2.54395 0
M  V30 2292 H 211.339 3.63186 0.897048 0
M  V30 2293 H 212.672 4.77364 1.19934 0
M  V30 2294 N 214.325 -0.140222 1.56975 0
M  V30 2295 C 215.736 -0.699596 1.73097 0
M  V30 2296 C 216.087 -1.8134 0.749022 0
M  V30 2297 O 215.212 -2.16241 -0.0828503 0
M  V30 2298 C 215.807 -1.27582 3.1386 0
M  V30 2299 C 214.366 -1.78169 3.31561 0
M  V30 2300 C 213.513 -0.672855 2.69013 0
M  V30 2301 H 216.464 0.0855115 1.58469 0
M  V30 2302 H 216.485 -2.14561 3.14235 0
M  V30 2303 H 215.997 -0.464955 3.85305 0
M  V30 2304 H 214.098 -2.61801 2.65124 0
M  V30 2305 H 214.211 -1.90574 4.39566 0
M  V30 2306 H 212.575 -1.10118 2.29665 0
M  V30 2307 H 213.358 0.126679 3.43066 0
M  V30 2308 N 215.803 -1.52179 -0.40978 0
M  V30 2309 C 216.766 -1.74853 -1.48186 0
M  V30 2310 C 217.766 -0.618417 -1.48433 0
M  V30 2311 O 218.956 -0.886286 -1.49969 0
M  V30 2312 C 216.088 -1.8303 -2.87598 0
M  V30 2313 H 217.281 -2.70559 -1.29374 0
M  V30 2314 H 214.834 -1.42586 -0.640233 0
M  V30 2315 H 215.569 -0.89236 -3.11781 0
M  V30 2316 H 215.354 -2.65187 -2.88822 0
M  V30 2317 H 216.844 -2.02316 -3.65319 0
M  V30 2318 N 217.281 0.66697 -1.42791 0
M  V30 2319 C 218.211 1.79218 -1.49677 0
M  V30 2320 C 219.192 1.66405 -0.352623 0
M  V30 2321 O 220.377 1.85708 -0.567993 0
M  V30 2322 C 217.507 3.17565 -1.40605 0
M  V30 2323 C 216.461 3.45124 -2.53127 0
M  V30 2324 C 215.787 4.83127 -2.29112 0
M  V30 2325 C 217.087 3.41236 -3.95418 0
M  V30 2326 H 218.781 1.73713 -2.43853 0
M  V30 2327 H 216.327 0.83432 -1.17367 0
M  V30 2328 H 218.28 3.96022 -1.44029 0
M  V30 2329 H 217.004 3.23767 -0.429271 0
M  V30 2330 H 215.663 2.69031 -2.49034 0
M  V30 2331 H 215.311 4.85988 -1.29709 0
M  V30 2332 H 215.011 5.02528 -3.04531 0
M  V30 2333 H 216.535 5.63859 -2.34297 0
M  V30 2334 H 217.949 4.09651 -4.01073 0
M  V30 2335 H 216.346 3.72173 -4.70752 0
M  V30 2336 H 217.416 2.39665 -4.21532 0
M  V30 2337 N 218.759 1.29093 0.90403 0
M  V30 2338 C 220.007 1.16583 1.65085 0
M  V30 2339 C 220.328 -0.283933 1.92922 0
M  V30 2340 O 219.598 -1.19509 1.55224 0
M  V30 2341 H 218.178 0.428467 0.611903 0
M  V30 2342 H 220.84 1.61959 1.08422 0
M  V30 2343 H 219.936 1.71266 2.6091 0
M  V30 2344 N 220.237 -1.11381 1.11499 0
M  V30 2345 C 221.465 -1.86934 0.88675 0
M  V30 2346 C 221.88 -1.80195 -0.563476 0
M  V30 2347 O 221.237 -1.18367 -1.38908 0
M  V30 2348 C 221.288 -3.35722 1.34064 0
M  V30 2349 O 221.009 -3.4232 2.73401 0
M  V30 2350 C 222.51 -4.2818 1.14791 0
M  V30 2351 H 219.73 -0.591117 0.317523 0
M  V30 2352 H 222.274 -1.40865 1.48248 0
M  V30 2353 H 220.429 -3.79294 0.788355 0
M  V30 2354 H 220.843 -4.34971 2.93087 0
M  V30 2355 H 222.317 -5.30817 1.5145 0
M  V30 2356 H 222.794 -4.39113 0.0875279 0
M  V30 2357 H 223.4 -3.90402 1.68721 0
M  V30 2358 N 221.715 -0.905404 -1.28997 0
M  V30 2359 C 222.943 -0.549846 -1.9946 0
M  V30 2360 C 223.358 0.866834 -1.67724 0
M  V30 2361 O 222.715 1.57298 -0.925404 0
M  V30 2362 C 222.766 -0.739387 -3.53858 0
M  V30 2363 O 222.487 -2.10031 -3.84472 0
M  V30 2364 C 223.988 -0.389541 -4.41585 0
M  V30 2365 H 221.208 -0.210429 -0.637151 0
M  V30 2366 H 223.752 -1.21632 -1.64396 0
M  V30 2367 H 221.907 -0.120023 -3.87214 0
M  V30 2368 H 222.321 -2.13385 -4.79132 0
M  V30 2369 H 223.795 -0.572972 -5.49018 0
M  V30 2370 H 224.272 0.673756 -4.34001 0
M  V30 2371 H 224.878 -0.986089 -4.1371 0
M  V30 2372 N 223.193 1.4272 -0.668489 0
M  V30 2373 C 224.433 2.03497 -0.19194 0
M  V30 2374 C 224.797 1.51684 1.17712 0
M  V30 2375 O 225.998 2.04205 1.74796 0
M  V30 2376 C 224.269 3.56734 -0.218032 0
M  V30 2377 S 225.828 4.38395 0.188438 0
M  V30 2378 H 222.646 0.706542 -0.0794959 0
M  V30 2379 H 225.248 1.74563 -0.880235 0
M  V30 2380 H 223.952 3.91943 -1.2169 0
M  V30 2381 H 223.483 3.90333 0.490303 0
M  V30 2382 H 225.498 4.75345 1.42345 0
M  V30 2383 N 224.671 0.411399 1.52136 0
M  V30 2384 C 225.901 -0.16284 2.05957 0
M  V30 2385 C 226.309 -1.3922 1.28119 0
M  V30 2386 O 225.652 -1.80768 0.326881 0
M  V30 2387 C 225.714 -0.575946 3.54856 0
M  V30 2388 C 225.378 0.542998 4.53763 0
M  V30 2389 C 226.375 1.40726 5.00492 0
M  V30 2390 C 224.06 0.716337 4.97166 0
M  V30 2391 C 226.054 2.4298 5.8927 0
M  V30 2392 C 223.741 1.74218 5.8574 0
M  V30 2393 C 224.739 2.59731 6.31687 0
M  V30 2394 O 224.427 3.60558 7.18507 0
M  V30 2395 H 224.159 -0.0229125 0.675612 0
M  V30 2396 H 226.713 0.581634 1.96993 0
M  V30 2397 H 224.943 -1.37274 3.61515 0
M  V30 2398 H 226.632 -1.07836 3.91313 0
M  V30 2399 H 227.398 1.28476 4.67674 0
M  V30 2400 H 223.277 0.0603857 4.6096 0
M  V30 2401 H 226.821 3.0976 6.25055 0
M  V30 2402 H 222.718 1.86498 6.17971 0
M  V30 2403 H 223.486 3.56829 7.36624 0
M  V30 2404 N 226.149 -1.5696 0.141893 0
M  V30 2405 C 227.112 -2.15316 -0.785587 0
M  V30 2406 C 228.112 -1.09366 -1.1788 0
M  V30 2407 O 229.302 -1.35031 -1.10056 0
M  V30 2408 C 226.434 -2.71211 -2.06537 0
M  V30 2409 H 227.627 -2.98608 -0.278041 0
M  V30 2410 H 225.18 -1.5593 -0.107519 0
M  V30 2411 H 225.915 -1.91571 -2.6167 0
M  V30 2412 H 225.7 -3.4872 -1.79268 0
M  V30 2413 H 227.19 -3.16189 -2.72789 0
M  V30 2414 N 227.627 0.131896 -1.57047 0
M  V30 2415 C 228.852 0.860418 -1.8871 0
M  V30 2416 C 229.277 1.73251 -0.73251 0
M  V30 2417 O 228.635 1.785 0.317429 0
M  V30 2418 C 228.683 1.68047 -3.19049 0
M  V30 2419 O 227.787 2.7862 -3.04047 0
M  V30 2420 H 227.128 0.238743 -0.619595 0
M  V30 2421 H 229.658 0.118169 -2.04258 0
M  V30 2422 H 229.668 2.07238 -3.51449 0
M  V30 2423 H 228.343 1.04018 -4.02682 0
M  V30 2424 H 226.92 2.42726 -2.83088 0
M  V30 2425 N 229.106 1.52395 0.401703 0
M  V30 2426 C 230.354 1.66488 1.14569 0
M  V30 2427 C 230.675 0.400897 1.90835 0
M  V30 2428 O 229.945 -0.584415 1.8698 0
M  V30 2429 H 228.525 0.613672 0.425929 0
M  V30 2430 H 231.187 1.89464 0.457093 0
M  V30 2431 H 230.283 2.50942 1.85566 0
M  V30 2432 N 230.584 -0.659388 1.43143 0
M  V30 2433 C 231.83 -1.41984 1.45644 0
M  V30 2434 C 232.185 -1.92245 0.0771718 0
M  V30 2435 O 231.478 -1.68976 -0.903205 0
M  V30 2436 C 231.672 -2.62206 2.42864 0
M  V30 2437 C 231.501 -2.23711 3.90107 0
M  V30 2438 C 230.271 -2.12332 4.58523 0
M  V30 2439 C 232.469 -1.84384 4.80112 0
M  V30 2440 N 230.451 -1.67102 5.9072 0
M  V30 2441 C 231.822 -1.5019 6.01534 0
M  V30 2442 C 233.877 -1.71512 4.67427 0
M  V30 2443 C 232.58 -1.04414 7.11681 0
M  V30 2444 C 234.606 -1.27142 5.77572 0
M  V30 2445 C 233.968 -0.938808 6.98116 0
M  V30 2446 H 230.067 -0.515448 0.588079 0
M  V30 2447 H 232.651 -0.759409 1.79279 0
M  V30 2448 H 230.822 -3.25917 2.11265 0
M  V30 2449 H 232.554 -3.28877 2.35843 0
M  V30 2450 H 229.309 -2.31893 4.12944 0
M  V30 2451 H 229.733 -1.46866 6.60878 0
M  V30 2452 H 234.375 -1.95868 3.74694 0
M  V30 2453 H 232.093 -0.788061 8.04248 0
M  V30 2454 H 235.679 -1.17681 5.69774 0
M  V30 2455 H 234.559 -0.6007 7.81896 0
M  V30 2456 N 232.062 -1.29571 -0.897171 0
M  V30 2457 C 233.31 -1.17456 -1.64464 0
M  V30 2458 C 233.631 0.273698 -1.9307 0
M  V30 2459 O 232.901 1.18684 -1.55855 0
M  V30 2460 H 231.481 -0.431706 -0.609622 0
M  V30 2461 H 234.143 -1.62531 -1.07562 0
M  V30 2462 H 233.239 -1.72648 -2.59998 0
M  V30 2463 N 233.54 1.10788 -1.12088 0
M  V30 2464 C 234.765 1.87002 -0.896949 0
M  V30 2465 C 235.19 1.79933 0.548261 0
M  V30 2466 O 234.548 1.16662 1.38779 0
M  V30 2467 C 234.596 3.3349 -1.37174 0
M  V30 2468 O 233.7 4.08745 -0.547831 0
M  V30 2469 H 233.041 0.580397 -0.322545 0
M  V30 2470 H 235.571 1.39996 -1.49206 0
M  V30 2471 H 235.581 3.84339 -1.36922 0
M  V30 2472 H 234.256 3.37951 -2.42408 0
M  V30 2473 H 232.833 3.6776 -0.617034 0
M  V30 2474 N 235.018 0.912232 1.28515 0
M  V30 2475 C 236.267 0.540504 1.94323 0
M  V30 2476 C 236.58 -0.920044 1.72611 0
M  V30 2477 O 237.786 -1.39986 2.32629 0
M  V30 2478 C 236.242 0.915803 3.48053 0
M  V30 2479 C 235.85 2.39598 3.78546 0
M  V30 2480 C 237.594 0.614588 4.20027 0
M  V30 2481 C 235.501 2.71148 5.25578 0
M  V30 2482 H 234.431 0.198418 0.727424 0
M  V30 2483 H 237.082 1.11094 1.46049 0
M  V30 2484 H 235.464 0.274168 3.9505 0
M  V30 2485 H 236.638 3.08422 3.42364 0
M  V30 2486 H 234.953 2.66749 3.1974 0
M  V30 2487 H 237.55 0.827002 5.28266 0
M  V30 2488 H 237.893 -0.447531 4.13887 0
M  V30 2489 H 238.426 1.21462 3.78803 0
M  V30 2490 H 235.165 3.76207 5.36794 0
M  V30 2491 H 234.685 2.0696 5.62963 0
M  V30 2492 H 236.364 2.58072 5.93302 0
M  V30 2493 N 236.496 -1.42363 0.676048 0
M  V30 2494 C 237.406 -2.346 -0.00153389 0
M  V30 2495 C 238.422 -1.5516 -0.787485 0
M  V30 2496 O 239.598 -1.87723 -0.729521 0
M  V30 2497 C 236.663 -3.33705 -0.940298 0
M  V30 2498 C 235.724 -4.29042 -0.148739 0
M  V30 2499 C 234.957 -5.23413 -1.04279 0
M  V30 2500 O 235.18 -5.22749 -2.28232 0
M  V30 2501 O 234.114 -5.99795 -0.502925 0
M  V30 2502 H 237.94 -2.94082 0.758268 0
M  V30 2503 H 235.525 -1.42888 0.436289 0
M  V30 2504 H 237.407 -3.94586 -1.47917 0
M  V30 2505 H 236.082 -2.76695 -1.67993 0
M  V30 2506 H 234.989 -3.71571 0.43427 0
M  V30 2507 H 236.322 -4.89097 0.551805 0
M  V30 2508 N 237.974 -0.419461 -1.51915 0
M  V30 2509 C 239.385 0.0477853 -1.86639 0
M  V30 2510 C 239.736 1.43531 -1.33766 0
M  V30 2511 O 238.861 2.05401 -0.68113 0
M  V30 2512 C 239.456 0.0934885 -3.38671 0
M  V30 2513 C 238.015 0.505097 -3.72996 0
M  V30 2514 C 237.162 -0.313792 -2.75519 0
M  V30 2515 H 240.113 -0.636088 -1.45395 0
M  V30 2516 H 240.134 0.906667 -3.6954 0
M  V30 2517 H 239.646 -0.916501 -3.77123 0
M  V30 2518 H 237.747 1.52135 -3.40126 0
M  V30 2519 H 237.86 0.242309 -4.78487 0
M  V30 2520 H 236.224 0.225363 -2.53701 0
M  V30 2521 H 237.007 -1.32232 -3.16812 0
M  V30 2522 N 239.452 1.56882 -0.150215 0
M  V30 2523 C 240.362 2.20494 0.801222 0
M  V30 2524 C 241.378 1.19019 1.26927 0
M  V30 2525 O 242.554 1.51607 1.32579 0
M  V30 2526 C 239.619 2.81659 2.02161 0
M  V30 2527 C 238.68 3.9827 1.60249 0
M  V30 2528 C 237.913 4.56508 2.7647 0
M  V30 2529 O 238.136 4.13627 3.92771 0
M  V30 2530 O 237.07 5.46719 2.51757 0
M  V30 2531 H 240.896 3.02315 0.289717 0
M  V30 2532 H 238.481 1.49202 0.0769684 0
M  V30 2533 H 240.363 3.20522 2.73576 0
M  V30 2534 H 239.038 2.02849 2.52258 0
M  V30 2535 H 237.945 3.64117 0.858477 0
M  V30 2536 H 239.278 4.78609 1.14864 0
M  V30 2537 N 240.93 -0.123565 1.57115 0
M  V30 2538 C 241.84 -1.17074 2.033 0
M  V30 2539 C 242.856 -1.4561 0.952559 0
M  V30 2540 O 244.032 -1.56817 1.26374 0
M  V30 2541 C 241.097 -2.47857 2.42421 0
M  V30 2542 C 240.158 -2.26758 3.64526 0
M  V30 2543 C 239.391 -3.51305 4.01771 0
M  V30 2544 O 239.614 -4.5843 3.39409 0
M  V30 2545 O 238.548 -3.42578 4.94898 0
M  V30 2546 H 242.374 -0.808555 2.92739 0
M  V30 2547 H 239.959 -0.334027 1.45618 0
M  V30 2548 H 241.841 -3.2492 2.68338 0
M  V30 2549 H 240.516 -2.83558 1.5613 0
M  V30 2550 H 239.423 -1.47569 3.43765 0
M  V30 2551 H 240.756 -1.95963 4.51508 0
M  V30 2552 N 242.408 -1.52605 -0.393616 0
M  V30 2553 C 243.655 -1.67424 -1.1391 0
M  V30 2554 C 243.983 -0.411859 -1.90089 0
M  V30 2555 O 243.238 0.605626 -1.86093 0
M  V30 2556 C 243.537 -2.85721 -2.14705 0
M  V30 2557 C 243.203 -4.23342 -1.55218 0
M  V30 2558 C 241.865 -4.60771 -1.3872 0
M  V30 2559 C 244.217 -5.09041 -1.11924 0
M  V30 2560 C 241.545 -5.81563 -0.774689 0
M  V30 2561 C 243.897 -6.30452 -0.520853 0
M  V30 2562 C 242.561 -6.66617 -0.343134 0
M  V30 2563 H 241.831 -0.612648 -0.416826 0
M  V30 2564 H 244.478 -1.8674 -0.424315 0
M  V30 2565 H 242.783 -2.60803 -2.92385 0
M  V30 2566 H 244.48 -2.94382 -2.72288 0
M  V30 2567 H 241.07 -3.93855 -1.69045 0
M  V30 2568 H 245.254 -4.80695 -1.23473 0
M  V30 2569 H 240.51 -6.08196 -0.625154 0
M  V30 2570 H 244.684 -6.96175 -0.177065 0
M  V30 2571 H 242.311 -7.60083 0.133571 0
M  V30 2572 N 243.887 0.651787 -1.4349 0
M  V30 2573 C 244.817 1.77621 -1.51569 0
M  V30 2574 C 245.798 1.66022 -0.370253 0
M  V30 2575 O 246.983 1.85095 -0.587658 0
M  V30 2576 C 244.113 3.16056 -1.43966 0
M  V30 2577 C 243.067 3.4242 -2.56774 0
M  V30 2578 C 242.393 4.8067 -2.34223 0
M  V30 2579 C 243.693 3.37023 -3.99015 0
M  V30 2580 H 245.387 1.71117 -2.45681 0
M  V30 2581 H 242.933 0.821825 -1.18246 0
M  V30 2582 H 244.886 3.94472 -1.48221 0
M  V30 2583 H 243.61 3.23293 -0.463586 0
M  V30 2584 H 242.269 2.66375 -2.51873 0
M  V30 2585 H 241.917 4.84585 -1.34856 0
M  V30 2586 H 241.617 4.9927 -3.09844 0
M  V30 2587 H 243.141 5.61342 -2.40265 0
M  V30 2588 H 244.555 4.05374 -4.05395 0
M  V30 2589 H 242.952 3.67159 -4.74673 0
M  V30 2590 H 244.022 2.3518 -4.2405 0
M  V30 2591 N 245.365 1.30045 0.890287 0
M  V30 2592 C 246.593 1.21472 1.67487 0
M  V30 2593 C 247.008 -0.223241 1.87476 0
M  V30 2594 O 246.365 -1.14828 1.41847 0
M  V30 2595 C 246.416 1.93394 3.05419 0
M  V30 2596 O 246.137 3.31576 2.86337 0
M  V30 2597 C 247.638 1.91414 3.99844 0
M  V30 2598 H 244.858 0.420604 0.522813 0
M  V30 2599 H 247.402 1.7158 1.11268 0
M  V30 2600 H 245.557 1.47099 3.58386 0
M  V30 2601 H 245.971 3.67929 3.73802 0
M  V30 2602 H 247.445 2.46285 4.94012 0
M  V30 2603 H 247.922 0.891833 4.3005 0
M  V30 2604 H 248.528 2.37496 3.52811 0
M  V30 2605 N 246.843 -1.10192 1.12674 0
M  V30 2606 C 248.254 -1.63707 0.897604 0
M  V30 2607 C 248.605 -1.87812 -0.567546 0
M  V30 2608 O 247.73 -1.62196 -1.43253 0
M  V30 2609 C 248.325 -2.974 1.62292 0
M  V30 2610 C 246.884 -3.47772 1.43986 0
M  V30 2611 C 246.031 -2.22332 1.65722 0
M  V30 2612 H 248.982 -0.936587 1.28116 0
M  V30 2613 H 249.003 -3.64986 1.07541 0
M  V30 2614 H 248.515 -2.79824 2.68924 0
M  V30 2615 H 246.616 -3.70487 0.396206 0
M  V30 2616 H 246.729 -4.25723 2.19765 0
M  V30 2617 H 245.093 -2.30599 1.08149 0
M  V30 2618 H 245.876 -2.07285 2.73657 0
M  V30 2619 N 248.321 -0.919034 -1.28029 0
M  V30 2620 C 249.268 -0.410005 -2.27129 0
M  V30 2621 C 250.238 0.518405 -1.57803 0
M  V30 2622 O 251.423 0.439451 -1.8567 0
M  V30 2623 C 248.563 0.339054 -3.4343 0
M  V30 2624 C 247.676 -0.622468 -4.27492 0
M  V30 2625 C 246.811 0.145567 -5.31001 0
M  V30 2626 C 245.85 -0.809226 -6.06727 0
M  V30 2627 N 244.987 -0.0743728 -7.02061 0
M  V30 2628 H 249.827 -1.26011 -2.70047 0
M  V30 2629 H 247.364 -0.632663 -1.328 0
M  V30 2630 H 249.322 0.789586 -4.0966 0
M  V30 2631 H 247.952 1.15346 -3.01488 0
M  V30 2632 H 247.004 -1.19153 -3.61257 0
M  V30 2633 H 248.316 -1.35252 -4.80113 0
M  V30 2634 H 247.47 0.656417 -6.03139 0
M  V30 2635 H 246.209 0.908643 -4.79161 0
M  V30 2636 H 245.214 -1.3314 -5.33436 0
M  V30 2637 H 246.439 -1.57194 -6.60656 0
M  V30 2638 H 244.385 0.670616 -6.52563 0
M  V30 2639 H 244.302 -0.744157 -7.52329 0
M  V30 2640 H 245.57 0.416109 -7.78389 0
M  V30 2641 N 249.799 1.42003 -0.683588 0
M  V30 2642 C 250.746 2.30798 -0.0107309 0
M  V30 2643 C 251.716 1.4645 0.783688 0
M  V30 2644 O 252.901 1.75263 0.754156 0
M  V30 2645 C 250.041 3.3238 0.928306 0
M  V30 2646 C 249.154 4.31814 0.126776 0
M  V30 2647 C 248.289 5.20468 1.06236 0
M  V30 2648 C 247.328 6.11577 0.253035 0
M  V30 2649 N 246.465 6.92754 1.14179 0
M  V30 2650 H 251.305 2.8778 -0.773727 0
M  V30 2651 H 248.842 1.41745 -0.393283 0
M  V30 2652 H 250.8 3.89813 1.48666 0
M  V30 2653 H 249.43 2.76976 1.65783 0
M  V30 2654 H 248.482 3.76427 -0.54833 0
M  V30 2655 H 249.794 4.96276 -0.501192 0
M  V30 2656 H 248.948 5.82677 1.69035 0
M  V30 2657 H 247.687 4.56204 1.7242 0
M  V30 2658 H 246.692 5.48428 -0.388108 0
M  V30 2659 H 247.917 6.77892 -0.404839 0
M  V30 2660 H 245.863 6.3111 1.78987 0
M  V30 2661 H 245.78 7.53855 0.569111 0
M  V30 2662 H 247.048 7.59441 1.75697 0
M  V30 2663 N 251.277 0.427512 1.51691 0
M  V30 2664 C 252.207 -0.3796 2.30394 0
M  V30 2665 C 253.188 -1.02982 1.35384 0
M  V30 2666 O 254.373 -1.03534 1.643 0
M  V30 2667 C 251.503 -1.48649 3.1388 0
M  V30 2668 C 250.457 -0.960294 4.17088 0
M  V30 2669 C 249.783 -2.16219 4.89033 0
M  V30 2670 C 251.083 -0.00153679 5.223 0
M  V30 2671 H 252.777 0.277164 2.98114 0
M  V30 2672 H 250.323 0.134739 1.43368 0
M  V30 2673 H 252.276 -2.05826 3.67714 0
M  V30 2674 H 251 -2.1714 2.43962 0
M  V30 2675 H 249.659 -0.410806 3.64291 0
M  V30 2676 H 249.307 -2.83307 4.15628 0
M  V30 2677 H 249.007 -1.81654 5.58816 0
M  V30 2678 H 250.531 -2.73968 5.45687 0
M  V30 2679 H 251.945 -0.482687 5.71264 0
M  V30 2680 H 250.342 0.256199 5.99553 0
M  V30 2681 H 251.412 0.938174 4.75738 0
M  V30 2682 N 252.755 -1.56801 0.158532 0
M  V30 2683 C 253.687 -2.14488 -0.807923 0
M  V30 2684 C 254.7 -1.09721 -1.20271 0
M  V30 2685 O 255.889 -1.36956 -1.14478 0
M  V30 2686 C 252.989 -2.66217 -2.09718 0
M  V30 2687 C 252.162 -3.95507 -1.86796 0
M  V30 2688 C 251.221 -4.3243 -2.99818 0
M  V30 2689 O 250.247 -5.00543 -2.71008 0
M  V30 2690 N 251.449 -3.92947 -4.27285 0
M  V30 2691 H 254.214 -2.98042 -0.314816 0
M  V30 2692 H 251.775 -1.61881 -0.0246692 0
M  V30 2693 H 253.767 -2.87924 -2.84398 0
M  V30 2694 H 252.337 -1.87324 -2.50257 0
M  V30 2695 H 251.557 -3.82309 -0.96089 0
M  V30 2696 H 252.845 -4.79972 -1.68833 0
M  V30 2697 H 252.243 -3.38087 -4.53557 0
M  V30 2698 H 250.8 -4.19681 -4.9871 0
M  V30 2699 N 254.233 0.115231 -1.57178 0
M  V30 2700 C 255.473 0.828199 -1.8687 0
M  V30 2701 C 255.837 1.76873 -0.747002 0
M  V30 2702 O 257.038 2.52354 -0.925785 0
M  V30 2703 C 255.309 1.55515 -3.21792 0
M  V30 2704 S 256.868 2.30917 -3.73125 0
M  V30 2705 H 253.686 0.27634 -0.655101 0
M  V30 2706 H 256.288 0.0863469 -1.95309 0
M  V30 2707 H 254.992 0.856248 -4.01368 0
M  V30 2708 H 254.523 2.3373 -3.16439 0
M  V30 2709 H 256.538 3.56705 -3.44929 0
M  V30 2710 N 255.711 1.52812 0.385517 0
M  V30 2711 C 256.957 1.68275 1.13188 0
M  V30 2712 C 257.29 0.423179 1.89533 0
M  V30 2713 O 256.565 -0.579113 1.85679 0
M  V30 2714 C 256.848 2.92001 2.1073 0
M  V30 2715 C 256.701 4.28067 1.38125 0
M  V30 2716 C 258.02 3.11283 3.11113 0
M  V30 2717 H 255.139 0.612352 0.410115 0
M  V30 2718 H 257.781 1.85415 0.414869 0
M  V30 2719 H 255.931 2.77519 2.71874 0
M  V30 2720 H 257.603 4.54324 0.799187 0
M  V30 2721 H 255.846 4.28388 0.683092 0
M  V30 2722 H 256.517 5.10733 2.09417 0
M  V30 2723 H 258.993 3.2482 2.6006 0
M  V30 2724 H 257.869 3.99325 3.76605 0
M  V30 2725 H 258.13 2.25656 3.80173 0
M  V30 2726 N 257.189 -0.644168 1.43834 0
M  V30 2727 C 258.466 -1.40188 1.36406 0
M  V30 2728 C 258.846 -2.11094 0.0163124 0
M  V30 2729 O 258.194 -2.05426 -1.00062 0
M  V30 2730 C 258.404 -2.3791 2.55343 0
M  V30 2731 C 259.752 -3.01637 2.98832 0
M  V30 2732 O 260.776 -2.48237 2.55455 0
M  V30 2733 O 259.635 -3.98477 3.74003 0
M  V30 2734 H 256.729 -0.626773 0.539523 0
M  V30 2735 H 259.275 -0.670317 1.559 0
M  V30 2736 H 258.047 -1.84525 3.4506 0
M  V30 2737 H 257.67 -3.18503 2.37995 0
M  V30 2738 N 258.668 -1.30515 -0.883378 0
M  V30 2739 C 259.598 -1.19607 -2.00541 0
M  V30 2740 C 260.579 -0.086346 -1.69881 0
M  V30 2741 O 261.764 -0.268654 -1.92333 0
M  V30 2742 C 258.894 -0.888758 -3.35736 0
M  V30 2743 C 257.848 -1.95659 -3.8066 0
M  V30 2744 C 257.174 -1.50224 -5.13164 0
M  V30 2745 C 258.474 -3.36788 -3.99213 0
M  V30 2746 H 260.168 -2.13476 -2.09925 0
M  V30 2747 H 257.714 -1.02775 -1.00863 0
M  V30 2748 H 259.667 -0.799094 -4.13754 0
M  V30 2749 H 258.391 0.0856125 -3.26488 0
M  V30 2750 H 257.05 -2.03591 -3.04871 0
M  V30 2751 H 256.698 -0.516092 -5.00345 0
M  V30 2752 H 256.398 -2.2165 -5.44192 0
M  V30 2753 H 257.922 -1.42639 -5.93706 0
M  V30 2754 H 259.336 -3.31605 -4.67665 0
M  V30 2755 H 257.733 -4.06314 -4.41621 0
M  V30 2756 H 258.803 -3.78561 -3.03017 0
M  V30 2757 N 260.146 1.09593 -1.13257 0
M  V30 2758 C 261.096 2.14345 -0.777179 0
M  V30 2759 C 262.08 1.59277 0.227966 0
M  V30 2760 O 263.272 1.76971 0.0321413 0
M  V30 2761 C 260.401 3.42439 -0.242991 0
M  V30 2762 C 259.487 4.04419 -1.27694 0
M  V30 2763 N 259.878 4.40979 -2.47732 0
M  V30 2764 C 258.176 4.31596 -1.12432 0
M  V30 2765 C 258.877 4.89784 -3.13826 0
M  V30 2766 N 257.853 4.87133 -2.41252 0
M  V30 2767 H 261.655 2.40415 -1.69049 0
M  V30 2768 H 259.169 1.26803 -1.01463 0
M  V30 2769 H 261.166 4.16889 0.0298496 0
M  V30 2770 H 259.826 3.17824 0.66467 0
M  V30 2771 H 260.837 4.32396 -2.85051 0
M  V30 2772 H 257.514 4.16595 -0.274684 0
M  V30 2773 H 258.904 5.2755 -4.16102 0
M  V30 2774 N 261.624 0.925811 1.2754 0
M  V30 2775 C 262.87 0.566092 1.94739 0
M  V30 2776 C 263.203 -0.890057 1.72603 0
M  V30 2777 O 262.478 -1.63467 1.05399 0
M  V30 2778 C 262.761 0.89054 3.48915 0
M  V30 2779 C 262.614 2.4003 3.80402 0
M  V30 2780 C 263.933 0.395101 4.38323 0
M  V30 2781 H 261.052 0.20714 0.707292 0
M  V30 2782 H 263.694 1.15725 1.50691 0
M  V30 2783 H 261.844 0.387452 3.86563 0
M  V30 2784 H 263.516 2.97494 3.52555 0
M  V30 2785 H 261.759 2.85028 3.2702 0
M  V30 2786 H 262.43 2.57785 4.8811 0
M  V30 2787 H 264.906 0.826241 4.07814 0
M  V30 2788 H 263.782 0.651086 5.45025 0
M  V30 2789 H 264.043 -0.704798 4.36446 0
M  V30 2790 N 263.102 -1.41638 0.69111 0
M  V30 2791 C 264.351 -2.00526 0.217318 0
M  V30 2792 C 264.664 -1.55353 -1.18848 0
M  V30 2793 O 265.87 -2.06769 -1.75951 0
M  V30 2794 C 264.326 -3.58313 0.337639 0
M  V30 2795 C 263.934 -4.12469 1.74852 0
M  V30 2796 C 265.678 -4.24431 -0.0766066 0
M  V30 2797 C 263.585 -5.62675 1.82074 0
M  V30 2798 H 262.515 -0.750008 0.0774893 0
M  V30 2799 H 265.166 -1.6217 0.858661 0
M  V30 2800 H 263.548 -3.9425 -0.371879 0
M  V30 2801 H 264.722 -3.8796 2.48644 0
M  V30 2802 H 263.037 -3.58861 2.11205 0
M  V30 2803 H 265.634 -5.34683 -0.0430284 0
M  V30 2804 H 265.977 -4.01101 -1.1146 0
M  V30 2805 H 266.51 -3.93512 0.582476 0
M  V30 2806 H 263.249 -5.90826 2.83911 0
M  V30 2807 H 262.769 -5.89124 1.12661 0
M  V30 2808 H 264.448 -6.27371 1.58159 0
M  V30 2809 N 264.58 -0.43555 -1.51462 0
M  V30 2810 C 265.805 0.132627 -2.06976 0
M  V30 2811 C 266.23 1.35848 -1.30104 0
M  V30 2812 O 265.588 1.78112 -0.338493 0
M  V30 2813 C 265.636 0.43523 -3.57964 0
M  V30 2814 O 264.74 1.52198 -3.83288 0
M  V30 2815 H 264.081 0.00265 -0.663995 0
M  V30 2816 H 266.611 -0.616369 -1.95095 0
M  V30 2817 H 266.621 0.686206 -4.02188 0
M  V30 2818 H 265.296 -0.460739 -4.1334 0
M  V30 2819 H 263.873 1.2611 -3.50928 0
M  V30 2820 N 266.058 1.56714 -0.166846 0
M  V30 2821 C 267.006 2.19056 0.782123 0
M  V30 2822 C 268 1.15328 1.24079 0
M  V30 2823 O 269.206 1.33537 1.20697 0
M  V30 2824 H 265.581 0.70167 0.270486 0
M  V30 2825 H 267.552 2.97494 0.232322 0
M  V30 2826 C 266.301 2.84206 2.00306 0
M  V30 2827 H 265.624 3.63748 1.65914 0
M  V30 2828 H 267.064 3.31302 2.64604 0
M  V30 2829 C 265.523 1.83744 2.82382 0
M  V30 2830 O 266.053 1.32014 3.79388 0
M  V30 2831 N 264.259 1.52601 2.47308 0
M  V30 2832 H 263.806 1.9486 1.68485 0
M  V30 2833 H 263.764 0.856351 3.02513 0
M  V30 2834 N 267.536 -0.106894 1.57237 0
M  V30 2835 C 268.813 -0.843526 1.76477 0
M  V30 2836 C 269.193 -1.97499 0.745464 0
M  V30 2837 O 268.541 -2.27357 -0.228306 0
M  V30 2838 C 268.751 -1.34903 3.21873 0
M  V30 2839 C 270.099 -1.79654 3.8472 0
M  V30 2840 O 271.123 -1.44554 3.2555 0
M  V30 2841 O 269.982 -2.44515 4.88748 0
M  V30 2842 H 267.076 -0.401468 0.723016 0
M  V30 2843 H 269.622 -0.0896927 1.69463 0
M  V30 2844 H 268.394 -0.53781 3.87586 0
M  V30 2845 H 268.017 -2.16522 3.33473 0
M  V30 2846 N 269.014 -1.53014 -0.377408 0
M  V30 2847 C 270.26 -1.68872 -1.12294 0
M  V30 2848 C 270.593 -0.433224 -1.89306 0
M  V30 2849 O 269.868 0.569258 -1.85983 0
M  V30 2850 C 270.151 -2.93115 -2.09179 0
M  V30 2851 C 270.004 -4.28794 -1.35853 0
M  V30 2852 C 271.323 -3.12928 -3.09458 0
M  V30 2853 H 268.442 -0.614518 -0.406862 0
M  V30 2854 H 271.084 -1.85633 -0.40503 0
M  V30 2855 H 269.234 -2.78956 -2.70399 0
M  V30 2856 H 270.906 -4.54742 -0.775082 0
M  V30 2857 H 269.149 -4.28744 -0.660364 0
M  V30 2858 H 269.82 -5.11837 -2.06706 0
M  V30 2859 H 272.296 -3.26194 -2.58334 0
M  V30 2860 H 271.172 -4.01316 -3.74482 0
M  V30 2861 H 271.433 -2.27669 -3.78971 0
M  V30 2862 N 270.492 0.636531 -1.44174 0
M  V30 2863 C 271.732 1.40781 -1.48189 0
M  V30 2864 C 272.096 1.91688 -0.10944 0
M  V30 2865 O 273.297 2.68789 -0.0242741 0
M  V30 2866 C 271.568 2.54575 -2.50851 0
M  V30 2867 S 273.127 3.4284 -2.73873 0
M  V30 2868 H 269.945 0.480345 -0.524204 0
M  V30 2869 H 272.547 0.737416 -1.81059 0
M  V30 2870 H 271.251 2.15478 -3.49281 0
M  V30 2871 H 270.782 3.26447 -2.19536 0
M  V30 2872 H 272.797 4.51846 -2.05059 0
M  V30 2873 N 271.97 1.30982 0.876444 0
M  V30 2874 C 272.933 1.18054 1.96459 0
M  V30 2875 C 273.933 0.109399 1.60427 0
M  V30 2876 O 275.123 0.358173 1.70478 0
M  V30 2877 C 272.255 0.810616 3.31122 0
M  V30 2878 H 273.448 2.14735 2.09354 0
M  V30 2879 H 271.001 1.145 1.06392 0
M  V30 2880 H 271.736 -0.155322 3.23928 0
M  V30 2881 H 271.521 1.58481 3.58645 0
M  V30 2882 H 273.011 0.743876 4.10921 0
M  V30 2883 N 273.449 -1.08991 1.13837 0
M  V30 2884 C 274.381 -2.15606 0.777612 0
M  V30 2885 C 275.394 -1.61533 -0.202739 0
M  V30 2886 O 276.583 -1.78491 0.0181055 0
M  V30 2887 C 273.683 -3.3864 0.132623 0
M  V30 2888 C 272.856 -4.22115 1.1462 0
M  V30 2889 C 271.915 -5.23564 0.526074 0
M  V30 2890 O 270.941 -5.56678 1.18735 0
M  V30 2891 N 272.143 -5.76266 -0.699866 0
M  V30 2892 H 274.908 -2.47159 1.69506 0
M  V30 2893 H 272.469 -1.24747 1.03198 0
M  V30 2894 H 274.461 -4.03626 -0.29459 0
M  V30 2895 H 273.031 -3.04938 -0.687849 0
M  V30 2896 H 272.251 -3.53199 1.75055 0
M  V30 2897 H 273.539 -4.74709 1.83109 0
M  V30 2898 H 272.937 -5.51585 -1.25581 0
M  V30 2899 H 271.494 -6.42963 -1.06968 0
M  V30 2900 N 274.927 -0.932562 -1.27047 0
M  V30 2901 C 276.173 -0.576412 -1.94436 0
M  V30 2902 C 276.506 0.880891 -1.73072 0
M  V30 2903 O 275.781 1.62905 -1.06264 0
M  V30 2904 C 276.064 -0.909031 -3.48437 0
M  V30 2905 C 275.917 -2.42044 -3.79123 0
M  V30 2906 C 277.236 -0.418341 -4.38107 0
M  V30 2907 H 274.355 -0.210888 -0.706184 0
M  V30 2908 H 276.997 -1.16522 -1.50075 0
M  V30 2909 H 275.147 -0.407947 -3.86352 0
M  V30 2910 H 276.819 -2.99359 -3.50973 0
M  V30 2911 H 275.062 -2.86758 -3.25503 0
M  V30 2912 H 275.733 -2.6037 -4.86736 0
M  V30 2913 H 278.209 -0.847856 -4.0737 0
M  V30 2914 H 277.085 -0.679981 -5.44672 0
M  V30 2915 H 277.346 0.681642 -4.36814 0
M  V30 2916 N 276.405 1.4127 -0.698611 0
M  V30 2917 C 277.355 2.27997 -0.0119836 0
M  V30 2918 C 278.339 1.42363 0.749765 0
M  V30 2919 O 279.531 1.65607 0.624758 0
M  V30 2920 C 276.66 3.30702 0.921458 0
M  V30 2921 C 275.746 4.23814 0.155796 0
M  V30 2922 N 276.137 4.98572 -0.852015 0
M  V30 2923 C 274.435 4.44284 0.390836 0
M  V30 2924 C 275.136 5.66744 -1.3106 0
M  V30 2925 N 274.112 5.39867 -0.635944 0
M  V30 2926 H 277.914 2.83232 -0.784649 0
M  V30 2927 H 275.428 1.53518 -0.529711 0
M  V30 2928 H 277.425 3.91661 1.42854 0
M  V30 2929 H 276.085 2.77028 1.69369 0
M  V30 2930 H 277.096 5.03024 -1.23235 0
M  V30 2931 H 273.773 4.01614 1.14071 0
M  V30 2932 H 275.163 6.36672 -2.14707 0
M  V30 2933 N 277.883 0.443576 1.51229 0
M  V30 2934 C 279.294 -0.0180867 1.86691 0
M  V30 2935 C 279.645 -1.41384 1.36033 0
M  V30 2936 O 278.77 -2.04291 0.713722 0
M  V30 2937 C 279.365 -0.039597 3.38777 0
M  V30 2938 C 277.924 -0.445692 3.73752 0
M  V30 2939 C 277.071 0.357584 2.74985 0
M  V30 2940 H 280.022 0.659138 1.44364 0
M  V30 2941 H 280.043 -0.847761 3.70936 0
M  V30 2942 H 279.555 0.976382 3.75617 0
M  V30 2943 H 277.656 -1.46704 3.42503 0
M  V30 2944 H 277.769 -0.166155 4.78812 0
M  V30 2945 H 276.133 -0.184973 2.54027 0
M  V30 2946 H 276.916 1.37256 3.14668 0
M  V30 2947 N 279.361 -1.56624 0.175154 0
M  V30 2948 C 280.293 -2.15333 -0.785128 0
M  V30 2949 C 281.306 -1.1099 -1.19101 0
M  V30 2950 O 282.495 -1.38162 -1.13019 0
M  V30 2951 C 279.595 -2.68427 -2.06882 0
M  V30 2952 C 278.768 -3.97466 -1.8259 0
M  V30 2953 C 277.827 -4.35585 -2.95215 0
M  V30 2954 O 276.853 -5.03389 -2.65684 0
M  V30 2955 N 278.055 -3.97457 -4.23094 0
M  V30 2956 H 280.82 -2.98359 -0.283187 0
M  V30 2957 H 278.381 -1.61898 -0.00749817 0
M  V30 2958 H 280.373 -2.90924 -2.81328 0
M  V30 2959 H 278.943 -1.89968 -2.48256 0
M  V30 2960 H 278.163 -3.83307 -0.920287 0
M  V30 2961 H 279.451 -4.81736 -1.63733 0
M  V30 2962 H 278.849 -3.42878 -4.49945 0
M  V30 2963 H 277.406 -4.24947 -4.9423 0
M  V30 2964 N 280.839 0.0985539 -1.57292 0
M  V30 2965 C 281.786 1.11981 -2.01814 0
M  V30 2966 C 282.756 1.39999 -0.89384 0
M  V30 2967 O 283.941 1.5152 -1.15958 0
M  V30 2968 C 281.081 2.43577 -2.44467 0
M  V30 2969 C 280.194 2.2232 -3.70402 0
M  V30 2970 C 279.329 3.4729 -4.01949 0
M  V30 2971 C 278.368 3.2128 -5.21005 0
M  V30 2972 N 277.505 4.38507 -5.48321 0
M  V30 2973 H 282.345 0.733149 -2.88841 0
M  V30 2974 H 279.882 0.350482 -1.42864 0
M  V30 2975 H 281.84 3.20373 -2.6724 0
M  V30 2976 H 280.47 2.80097 -1.60455 0
M  V30 2977 H 279.522 1.36343 -3.55126 0
M  V30 2978 H 280.834 1.99089 -4.57345 0
M  V30 2979 H 279.988 4.32495 -4.25479 0
M  V30 2980 H 278.727 3.73572 -3.13521 0
M  V30 2981 H 277.732 2.34468 -4.97298 0
M  V30 2982 H 278.957 2.96348 -6.11028 0
M  V30 2983 H 276.903 4.64871 -4.62851 0
M  V30 2984 H 276.82 4.18455 -6.29628 0
M  V30 2985 H 278.088 5.24787 -5.76385 0
M  V30 2986 N 282.317 1.53212 0.369288 0
M  V30 2987 C 283.563 1.69466 1.11397 0
M  V30 2988 C 283.896 0.443257 1.89074 0
M  V30 2989 O 283.171 -0.559386 1.86282 0
M  V30 2990 C 283.454 2.9422 2.07621 0
M  V30 2991 C 283.307 4.29508 1.33577 0
M  V30 2992 C 284.626 3.14565 3.07794 0
M  V30 2993 H 281.745 0.616667 0.403597 0
M  V30 2994 H 284.387 1.85845 0.395179 0
M  V30 2995 H 282.537 2.80387 2.68916 0
M  V30 2996 H 284.209 4.55147 0.750955 0
M  V30 2997 H 282.452 4.29088 0.637618 0
M  V30 2998 H 283.123 5.12926 2.03989 0
M  V30 2999 H 285.599 3.2756 2.56601 0
M  V30 3000 H 284.475 4.03297 3.72348 0
M  V30 3001 H 284.736 2.29675 3.77759 0
M  V30 3002 N 283.795 -0.628877 1.44509 0
M  V30 3003 C 285.023 -1.41554 1.50897 0
M  V30 3004 C 285.438 -1.8832 0.134564 0
M  V30 3005 O 284.795 -1.60969 -0.859965 0
M  V30 3006 C 284.846 -2.63435 2.47556 0
M  V30 3007 O 284.567 -2.18619 3.79654 0
M  V30 3008 C 286.068 -3.56537 2.63431 0
M  V30 3009 H 283.288 -0.434044 0.511709 0
M  V30 3010 H 285.832 -0.768895 1.89495 0
M  V30 3011 H 283.987 -3.24187 2.12089 0
M  V30 3012 H 284.401 -2.97652 4.31861 0
M  V30 3013 H 285.875 -4.38657 3.35088 0
M  V30 3014 H 286.352 -4.05493 1.68738 0
M  V30 3015 H 286.958 -3.01653 2.9981 0
M  V30 3016 N 285.273 -1.31445 -0.869486 0
M  V30 3017 C 286.22 -1.19135 -1.97675 0
M  V30 3018 C 287.19 -0.0770266 -1.65921 0
M  V30 3019 O 288.375 -0.249972 -1.89155 0
M  V30 3020 C 285.515 -0.905149 -3.33018 0
M  V30 3021 C 284.628 -2.10285 -3.77365 0
M  V30 3022 C 283.763 -1.75339 -5.01427 0
M  V30 3023 C 282.802 -2.91515 -5.38224 0
M  V30 3024 N 281.939 -2.56762 -6.53466 0
M  V30 3025 H 286.779 -2.13853 -2.07535 0
M  V30 3026 H 284.316 -1.06379 -1.01597 0
M  V30 3027 H 286.274 -0.719765 -4.10944 0
M  V30 3028 H 284.904 0.00519624 -3.228 0
M  V30 3029 H 283.956 -2.39899 -2.95216 0
M  V30 3030 H 285.268 -2.97237 -4.00564 0
M  V30 3031 H 284.422 -1.53266 -5.87022 0
M  V30 3032 H 283.161 -0.855801 -4.80133 0
M  V30 3033 H 282.166 -3.14237 -4.51149 0
M  V30 3034 H 283.391 -3.81985 -5.61484 0
M  V30 3035 H 281.337 -1.69526 -6.33717 0
M  V30 3036 H 281.254 -3.37243 -6.76612 0
M  V30 3037 H 282.522 -2.38083 -7.42251 0
M  V30 3038 N 286.751 1.08385 -1.14413 0
M  V30 3039 C 287.998 1.80776 -0.912482 0
M  V30 3040 C 288.326 1.86236 0.560934 0
M  V30 3041 O 287.581 1.33431 1.43159 0
M  V30 3042 C 287.88 3.26273 -1.45879 0
M  V30 3043 C 287.546 3.4093 -2.95089 0
M  V30 3044 C 286.208 3.44638 -3.35824 0
M  V30 3045 C 288.56 3.44591 -3.91033 0
M  V30 3046 C 285.888 3.49597 -4.71167 0
M  V30 3047 C 288.24 3.51086 -5.26233 0
M  V30 3048 C 286.904 3.53067 -5.6648 0
M  V30 3049 H 286.174 0.661507 -0.333901 0
M  V30 3050 H 288.821 1.27613 -1.42784 0
M  V30 3051 H 287.126 3.82146 -0.864376 0
M  V30 3052 H 288.823 3.80839 -1.2555 0
M  V30 3053 H 285.413 3.38736 -2.62594 0
M  V30 3054 H 289.597 3.40957 -3.60641 0
M  V30 3055 H 284.853 3.49424 -5.0171 0
M  V30 3056 H 289.027 3.52864 -6.00383 0
M  V30 3057 H 286.654 3.56662 -6.71339 0
M  V30 3058 N 288.23 0.939286 1.26551 0
M  V30 3059 C 289.163 0.391702 2.24813 0
M  V30 3060 C 290.141 -0.518421 1.54114 0
M  V30 3061 O 291.325 -0.456299 1.82894 0
M  V30 3062 C 288.452 -0.437382 3.35864 0
M  V30 3063 C 287.498 0.410946 4.24516 0
M  V30 3064 S 288.331 1.83372 5.03125 0
M  V30 3065 C 289.487 1.01264 6.17654 0
M  V30 3066 H 289.72 1.22448 2.70913 0
M  V30 3067 H 287.253 0.742269 1.35387 0
M  V30 3068 H 289.211 -0.909837 4.0029 0
M  V30 3069 H 287.872 -1.24482 2.8838 0
M  V30 3070 H 287.065 -0.224191 5.03501 0
M  V30 3071 H 286.667 0.818014 3.64945 0
M  V30 3072 H 288.959 0.254023 6.77024 0
M  V30 3073 H 289.902 1.77589 6.85469 0
M  V30 3074 H 290.31 0.549532 5.61819 0
M  V30 3075 N 289.708 -1.40897 0.706093 0
M  V30 3076 C 290.638 -2.33418 0.0620085 0
M  V30 3077 C 291.619 -1.52385 -0.755827 0
M  V30 3078 O 292.804 -1.80886 -0.706674 0
M  V30 3079 C 289.934 -3.36293 -0.867445 0
M  V30 3080 C 288.888 -4.27716 -0.155932 0
M  V30 3081 C 288.214 -5.2105 -1.20046 0
M  V30 3082 C 289.514 -5.12944 0.984149 0
M  V30 3083 H 291.208 -2.87527 0.83477 0
M  V30 3084 H 288.754 -1.38249 0.402875 0
M  V30 3085 H 290.707 -3.99949 -1.32735 0
M  V30 3086 H 289.431 -2.80556 -1.67199 0
M  V30 3087 H 288.09 -3.65498 0.284047 0
M  V30 3088 H 287.738 -4.61624 -1.99781 0
M  V30 3089 H 287.438 -5.83056 -0.729328 0
M  V30 3090 H 288.962 -5.87584 -1.66066 0
M  V30 3091 H 290.376 -5.70109 0.604048 0
M  V30 3092 H 288.773 -5.83945 1.38304 0
M  V30 3093 H 289.843 -4.49485 1.81911 0
M  V30 3094 N 291.186 -0.45159 -1.50991 0
M  V30 3095 C 292.426 0.109066 -2.04109 0
M  V30 3096 C 292.79 1.38716 -1.32747 0
M  V30 3097 O 293.991 2.02896 -1.76314 0
M  V30 3098 C 292.262 0.308354 -3.56067 0
M  V30 3099 S 293.821 0.830369 -4.30872 0
M  V30 3100 H 290.639 0.0251531 -0.710555 0
M  V30 3101 H 293.241 -0.614264 -1.85599 0
M  V30 3102 H 291.945 -0.627962 -4.05567 0
M  V30 3103 H 291.476 1.05836 -3.78896 0
M  V30 3104 H 293.491 2.10626 -4.49279 0
M  V30 3105 N 292.664 1.56529 -0.183458 0
M  V30 3106 C 293.627 2.17324 0.728223 0
M  V30 3107 C 294.627 1.12453 1.14939 0
M  V30 3108 O 295.817 1.37902 1.06437 0
M  V30 3109 C 292.949 2.76591 1.99274 0
M  V30 3110 H 294.142 2.99241 0.198772 0
M  V30 3111 H 291.695 1.5616 0.0661391 0
M  V30 3112 H 292.43 1.98441 2.56499 0
M  V30 3113 H 292.215 3.5335 1.69959 0
M  V30 3114 H 293.705 3.23311 2.6431 0
M  V30 3115 N 294.142 -0.090211 1.57342 0
M  V30 3116 C 295.39 -0.791241 1.85967 0
M  V30 3117 C 295.711 -1.7903 0.772859 0
M  V30 3118 O 294.981 -1.94872 -0.200398 0
M  V30 3119 H 293.561 -0.295205 0.686195 0
M  V30 3120 H 296.223 -0.0706782 1.94772 0
M  V30 3121 H 295.319 -1.31882 2.82867 0
M  V30 3122 N 295.62 -1.53406 -0.361157 0
M  V30 3123 C 297.036 -1.43277 -0.703124 0
M  V30 3124 C 297.236 -0.575384 -1.9311 0
M  V30 3125 O 296.292 -0.0595362 -2.5243 0
M  V30 3126 C 297.605 -2.8653 -0.9122 0
M  V30 3127 C 299.153 -2.96191 -1.01193 0
M  V30 3128 C 299.628 -4.40514 -1.25345 0
M  V30 3129 N 301.119 -4.43962 -1.32105 0
M  V30 3130 C 301.854 -5.52746 -1.5251 0
M  V30 3131 N 301.35 -6.71567 -1.70203 0
M  V30 3132 N 303.143 -5.40331 -1.54916 0
M  V30 3133 H 295.294 -2.07654 0.446475 0
M  V30 3134 H 297.557 -0.937944 0.137715 0
M  V30 3135 H 297.263 -3.51605 -0.0816414 0
M  V30 3136 H 297.137 -3.30441 -1.81903 0
M  V30 3137 H 299.524 -2.31266 -1.83303 0
M  V30 3138 H 299.605 -2.55667 -0.0823929 0
M  V30 3139 H 299.249 -5.06014 -0.437346 0
M  V30 3140 H 299.179 -4.78614 -2.19627 0
M  V30 3141 H 301.67 -3.58332 -1.20028 0
M  V30 3142 H 301.983 -7.50241 -1.85359 0
M  V30 3143 H 300.328 -6.74545 -1.67373 0
M  V30 3144 H 303.519 -4.46465 -1.40663 0
M  V30 3145 H 303.692 -6.25173 -1.70477 0
M  V30 3146 N 297.098 0.621204 -1.44841 0
M  V30 3147 C 298.344 1.38073 -1.49357 0
M  V30 3148 C 298.699 1.91973 -0.128115 0
M  V30 3149 O 297.992 1.71311 0.858087 0
M  V30 3150 C 298.186 2.55675 -2.4973 0
M  V30 3151 C 298.015 2.13289 -3.95901 0
M  V30 3152 C 296.785 2.001 -4.63991 0
M  V30 3153 C 298.983 1.7159 -4.84831 0
M  V30 3154 N 296.965 1.51381 -5.94943 0
M  V30 3155 C 298.336 1.34188 -6.05304 0
M  V30 3156 C 300.391 1.59059 -4.7181 0
M  V30 3157 C 299.094 0.855085 -7.14199 0
M  V30 3158 C 301.12 1.11784 -5.8074 0
M  V30 3159 C 300.482 0.753385 -7.0036 0
M  V30 3160 H 296.581 0.499675 -0.601539 0
M  V30 3161 H 299.165 0.711609 -1.8123 0
M  V30 3162 H 297.336 3.20201 -2.19832 0
M  V30 3163 H 299.068 3.22509 -2.4448 0
M  V30 3164 H 295.823 2.20863 -4.18947 0
M  V30 3165 H 296.247 1.29293 -6.64539 0
M  V30 3166 H 300.889 1.85865 -3.79755 0
M  V30 3167 H 298.607 0.574552 -8.06055 0
M  V30 3168 H 302.193 1.02533 -5.72694 0
M  V30 3169 H 301.073 0.393183 -7.83214 0
M  V30 3170 N 298.576 1.31904 0.862503 0
M  V30 3171 C 299.804 1.24998 1.64873 0
M  V30 3172 C 300.219 -0.183425 1.87907 0
M  V30 3173 O 299.576 -1.11794 1.44251 0
M  V30 3174 C 299.627 1.99829 3.01248 0
M  V30 3175 O 299.348 3.37575 2.79239 0
M  V30 3176 C 300.849 1.99852 3.95694 0
M  V30 3177 H 298.069 0.431599 0.513773 0
M  V30 3178 H 300.613 1.73901 1.07604 0
M  V30 3179 H 298.768 1.54668 3.55185 0
M  V30 3180 H 299.182 3.75776 3.65914 0
M  V30 3181 H 300.656 2.56709 4.88676 0
M  V30 3182 H 301.133 0.982852 4.28062 0
M  V30 3183 H 301.739 2.44926 3.47694 0
M  V30 3184 N 300.054 -1.07777 1.14986 0
M  V30 3185 C 301.302 -1.79934 0.920235 0
M  V30 3186 C 301.623 -1.86955 -0.554336 0
M  V30 3187 O 300.893 -1.36731 -1.40291 0
M  V30 3188 H 299.473 -0.666424 0.337473 0
M  V30 3189 H 302.135 -1.3027 1.44968 0
M  V30 3190 H 301.231 -2.82539 1.32583 0
M  V30 3191 N 301.532 -0.945985 -1.26051 0
M  V30 3192 C 302.78 -0.594941 -1.93145 0
M  V30 3193 C 303.101 0.86953 -1.7454 0
M  V30 3194 O 302.371 1.61838 -1.10387 0
M  V30 3195 H 300.951 -0.217044 -0.714773 0
M  V30 3196 H 303.613 -1.20235 -1.53393 0
M  V30 3197 H 302.709 -0.816835 -3.01221 0
M  V30 3198 N 303.011 1.40521 -0.713556 0
M  V30 3199 C 303.958 2.30723 -0.059684 0
M  V30 3200 C 304.928 1.48079 0.752448 0
M  V30 3201 O 306.113 1.76823 0.71681 0
M  V30 3202 C 303.253 3.34274 0.857594 0
M  V30 3203 C 302.366 4.31986 0.0351536 0
M  V30 3204 C 301.501 5.22605 0.951724 0
M  V30 3205 C 300.54 6.11976 0.123253 0
M  V30 3206 N 299.677 6.9502 0.99459 0
M  V30 3207 H 304.517 2.86074 -0.834596 0
M  V30 3208 H 302.054 1.40879 -0.42326 0
M  V30 3209 H 304.012 3.92879 1.40364 0
M  V30 3210 H 302.642 2.8043 1.59871 0
M  V30 3211 H 301.694 3.7518 -0.628052 0
M  V30 3212 H 303.006 4.95101 -0.606347 0
M  V30 3213 H 302.16 5.86131 1.56638 0
M  V30 3214 H 300.899 4.59759 1.62705 0
M  V30 3215 H 299.904 5.47482 -0.50435 0
M  V30 3216 H 301.129 6.76881 -0.548539 0
M  V30 3217 H 299.075 6.34764 1.6556 0
M  V30 3218 H 298.992 7.54892 0.40908 0
M  V30 3219 H 300.26 7.62997 1.59549 0
M  V30 3220 N 304.489 0.459591 1.5075 0
M  V30 3221 C 305.714 -0.0996819 2.0716 0
M  V30 3222 C 306.139 -1.33761 1.32249 0
M  V30 3223 O 305.497 -1.77551 0.366786 0
M  V30 3224 C 305.545 -0.378226 3.58611 0
M  V30 3225 O 304.649 -1.46081 3.85661 0
M  V30 3226 H 303.99 0.00791392 0.663953 0
M  V30 3227 H 306.52 0.647329 1.9409 0
M  V30 3228 H 306.53 -0.622135 4.03229 0
M  V30 3229 H 305.205 0.526439 4.12555 0
M  V30 3230 H 303.782 -1.20511 3.5289 0
M  V30 3231 N 305.967 -1.56429 0.191757 0
M  V30 3232 C 307.195 -2.01867 -0.453586 0
M  V30 3233 C 307.61 -1.07191 -1.5542 0
M  V30 3234 O 306.967 -0.0762108 -1.82341 0
M  V30 3235 C 307.018 -3.47017 -1.013 0
M  V30 3236 O 306.739 -4.38078 0.0437005 0
M  V30 3237 C 308.24 -4.07956 -1.73456 0
M  V30 3238 H 305.46 -0.661211 -0.114199 0
M  V30 3239 H 308.004 -2.02295 0.299483 0
M  V30 3240 H 306.159 -3.47298 -1.71647 0
M  V30 3241 H 306.573 -5.23178 -0.372212 0
M  V30 3242 H 308.047 -5.1138 -2.07833 0
M  V30 3243 H 308.524 -3.51222 -2.63704 0
M  V30 3244 H 309.13 -4.11437 -1.07702 0
M  V30 3245 N 307.445 0.0818655 -1.57387 0
M  V30 3246 C 308.685 0.788375 -1.88584 0
M  V30 3247 C 309.049 1.75248 -0.784351 0
M  V30 3248 O 310.25 2.50334 -0.979105 0
M  V30 3249 C 308.521 1.48654 -3.25018 0
M  V30 3250 S 310.08 2.22951 -3.7794 0
M  V30 3251 H 306.898 0.262383 -0.660815 0
M  V30 3252 H 309.5 0.0448995 -1.95448 0
M  V30 3253 H 308.204 0.770919 -4.03094 0
M  V30 3254 H 307.735 2.26965 -3.21326 0
M  V30 3255 H 309.75 3.49309 -3.52417 0
M  V30 3256 N 308.923 1.53595 0.353017 0
M  V30 3257 C 310.148 1.7462 1.11904 0
M  V30 3258 C 310.573 0.479721 1.8188 0
M  V30 3259 O 309.931 -0.567066 1.72204 0
M  V30 3260 C 309.979 2.92029 2.11545 0
M  V30 3261 O 309.083 2.61516 3.18878 0
M  V30 3262 H 308.424 0.579531 0.324099 0
M  V30 3263 H 310.954 2.00525 0.406301 0
M  V30 3264 H 310.964 3.18551 2.5493 0
M  V30 3265 H 309.639 3.83888 1.60008 0
M  V30 3266 H 308.216 2.45852 2.80377 0
M  V30 3267 N 310.401 -0.613514 1.45168 0
M  V30 3268 C 311.649 -1.36997 1.48581 0
M  V30 3269 C 311.97 -1.94589 0.126545 0
M  V30 3270 O 311.24 -1.76816 -0.843372 0
M  V30 3271 H 309.82 -0.508558 0.547154 0
M  V30 3272 H 312.482 -0.720853 1.81079 0
M  V30 3273 H 311.578 -2.1924 2.22127 0
M  V30 3274 N 311.879 -1.3236 -0.855495 0
M  V30 3275 C 313.156 -1.13491 -1.59309 0
M  V30 3276 C 313.536 0.30503 -2.08885 0
M  V30 3277 O 312.884 1.30151 -1.87811 0
M  V30 3278 C 313.094 -2.16176 -2.73987 0
M  V30 3279 C 314.442 -2.49463 -3.43589 0
M  V30 3280 O 315.466 -2.14715 -2.84211 0
M  V30 3281 O 314.325 -3.09027 -4.50738 0
M  V30 3282 H 311.419 -0.437887 -0.701559 0
M  V30 3283 H 313.965 -1.43887 -0.899696 0
M  V30 3284 H 312.737 -3.1297 -2.34873 0
M  V30 3285 H 312.36 -1.86769 -3.51003 0
M  V30 3286 N 313.357 1.07166 -1.15556 0
M  V30 3287 C 314.582 1.84053 -0.955988 0
M  V30 3288 C 315.007 1.81586 0.490739 0
M  V30 3289 O 314.365 1.21018 1.34997 0
M  V30 3290 C 314.413 3.28957 -1.47714 0
M  V30 3291 O 313.517 4.06795 -0.677593 0
M  V30 3292 H 312.858 0.569842 -0.340847 0
M  V30 3293 H 315.388 1.35178 -1.53584 0
M  V30 3294 H 315.398 3.79788 -1.4908 0
M  V30 3295 H 314.073 3.30068 -2.53037 0
M  V30 3296 H 312.65 3.6561 -0.733721 0
M  V30 3297 N 314.835 0.952656 1.25548 0
M  V30 3298 C 316.083 0.605176 1.92826 0
M  V30 3299 C 316.404 -0.860261 1.74999 0
M  V30 3300 O 315.674 -1.6125 1.11244 0
M  V30 3301 H 314.254 0.220832 0.713612 0
M  V30 3302 H 316.916 1.21047 1.52754 0
M  V30 3303 H 316.012 0.832798 3.00784 0
M  V30 3304 N 316.313 -1.40141 0.720998 0
M  V30 3305 C 317.561 -2.0039 0.262323 0
M  V30 3306 C 317.882 -1.57469 -1.15015 0
M  V30 3307 O 317.152 -0.816582 -1.78069 0
M  V30 3308 H 315.732 -0.741063 0.093996 0
M  V30 3309 H 318.394 -1.71398 0.927835 0
M  V30 3310 H 317.49 -3.10658 0.299671 0
M  V30 3311 N 317.792 -0.46758 -1.50504 0
M  V30 3312 C 319.203 -0.0116166 -1.86696 0
M  V30 3313 C 319.554 1.39202 -1.38265 0
M  V30 3314 O 318.679 2.0313 -0.746132 0
M  V30 3315 C 319.274 -0.0143044 -3.38797 0
M  V30 3316 C 317.833 0.386175 -3.74414 0
M  V30 3317 C 316.98 -0.401287 -2.74381 0
M  V30 3318 H 319.931 -0.682022 -1.43297 0
M  V30 3319 H 319.952 0.788641 -3.72237 0
M  V30 3320 H 319.464 -1.03602 -3.74016 0
M  V30 3321 H 317.565 1.41237 -3.44794 0
M  V30 3322 H 317.678 0.0899596 -4.79016 0
M  V30 3323 H 316.042 0.144536 -2.5429 0
M  V30 3324 H 316.825 -1.42244 -3.12444 0
M  V30 3325 N 319.27 1.56325 -0.20005 0
M  V30 3326 C 320.2 2.22318 0.713916 0
M  V30 3327 C 321.181 1.18788 1.21752 0
M  V30 3328 O 322.366 1.47309 1.26545 0
M  V30 3329 C 319.496 2.88639 1.93144 0
M  V30 3330 C 318.45 3.98457 1.56255 0
M  V30 3331 C 317.776 4.51967 2.85709 0
M  V30 3332 C 319.076 5.16612 0.768747 0
M  V30 3333 H 320.77 2.98952 0.163755 0
M  V30 3334 H 318.316 1.43792 0.0773219 0
M  V30 3335 H 320.269 3.33491 2.57608 0
M  V30 3336 H 318.993 2.09419 2.50621 0
M  V30 3337 H 317.652 3.54305 0.941471 0
M  V30 3338 H 317.3 3.69503 3.41287 0
M  V30 3339 H 317 5.26071 2.6177 0
M  V30 3340 H 318.524 4.99523 3.51154 0
M  V30 3341 H 319.938 5.57977 1.3166 0
M  V30 3342 H 318.335 5.96812 0.627286 0
M  V30 3343 H 319.405 4.84358 -0.229168 0
M  V30 3344 N 320.748 -0.0735177 1.57428 0
M  V30 3345 C 321.994 -0.774145 1.87443 0
M  V30 3346 C 322.327 -1.77311 0.792103 0
M  V30 3347 O 321.602 -1.93492 -0.197793 0
M  V30 3348 C 321.885 -1.48367 3.28115 0
M  V30 3349 C 321.738 -0.501227 4.46999 0
M  V30 3350 C 323.057 -2.429 3.66998 0
M  V30 3351 H 320.176 -0.279971 0.681752 0
M  V30 3352 H 322.818 -0.0373616 1.89963 0
M  V30 3353 H 320.968 -2.11171 3.26097 0
M  V30 3354 H 322.64 0.121468 4.6114 0
M  V30 3355 H 320.883 0.183593 4.33411 0
M  V30 3356 H 321.554 -1.03526 5.42205 0
M  V30 3357 H 324.03 -1.90175 3.70098 0
M  V30 3358 H 322.906 -2.89549 4.66318 0
M  V30 3359 H 323.167 -3.27628 2.96837 0
M  V30 3360 N 322.226 -1.5378 -0.344866 0
M  V30 3361 C 323.466 -1.72677 -1.09371 0
M  V30 3362 C 323.83 -0.479084 -1.85927 0
M  V30 3363 O 325.031 -0.54505 -2.63216 0
M  V30 3364 C 323.302 -2.95457 -2.01097 0
M  V30 3365 S 324.861 -3.35158 -2.83222 0
M  V30 3366 H 321.679 -0.607402 -0.369573 0
M  V30 3367 H 324.281 -1.91922 -0.372307 0
M  V30 3368 H 322.985 -3.84437 -1.43655 0
M  V30 3369 H 322.516 -2.78673 -2.77678 0
M  V30 3370 H 324.531 -2.88789 -4.03504 0
M  V30 3371 N 323.704 0.605807 -1.45491 0
M  V30 3372 C 324.652 1.73754 -1.54636 0
M  V30 3373 C 325.646 1.64207 -0.416219 0
M  V30 3374 O 326.852 1.69979 -0.592199 0
M  V30 3375 H 323.227 0.574073 -0.485741 0
M  V30 3376 H 325.198 1.63169 -2.49837 0
M  V30 3377 C 323.947 3.12135 -1.53189 0
M  V30 3378 H 323.27 3.20141 -2.39478 0
M  V30 3379 H 324.71 3.91147 -1.63645 0
M  V30 3380 C 323.169 3.35921 -0.256616 0
M  V30 3381 O 323.699 3.96194 0.662798 0
M  V30 3382 N 321.905 2.90204 -0.151751 0
M  V30 3383 H 321.452 2.41336 -0.90081 0
M  V30 3384 H 321.41 3.06492 0.700699 0
M  V30 3385 N 325.182 1.32811 0.848464 0
M  V30 3386 C 326.43 1.23479 1.59991 0
M  V30 3387 C 326.751 -0.201853 1.93952 0
M  V30 3388 O 326.021 -1.12818 1.60153 0
M  V30 3389 H 324.601 0.454034 0.593179 0
M  V30 3390 H 327.263 1.66412 1.01455 0
M  V30 3391 H 326.359 1.82178 2.53412 0
M  V30 3392 N 326.66 -1.06551 1.16123 0
M  V30 3393 C 327.906 -1.79567 0.94252 0
M  V30 3394 C 328.239 -1.86869 -0.528547 0
M  V30 3395 O 327.514 -1.35838 -1.39206 0
M  V30 3396 C 327.797 -3.24195 1.56747 0
M  V30 3397 C 327.65 -3.24989 3.10969 0
M  V30 3398 C 328.969 -4.21678 1.25998 0
M  V30 3399 H 326.088 -0.651883 0.343828 0
M  V30 3400 H 328.73 -1.2463 1.43413 0
M  V30 3401 H 326.88 -3.71107 1.14942 0
M  V30 3402 H 328.552 -2.86258 3.61737 0
M  V30 3403 H 326.795 -2.63716 3.44436 0
M  V30 3404 H 327.466 -4.27005 3.49815 0
M  V30 3405 H 329.942 -3.83196 1.62174 0
M  V30 3406 H 328.818 -5.21146 1.7233 0
M  V30 3407 H 329.079 -4.4174 0.178367 0
M  V30 3408 N 328.138 -0.959301 -1.25041 0
M  V30 3409 C 329.068 -0.501388 -2.28053 0
M  V30 3410 C 330.049 0.454673 -1.63911 0
M  V30 3411 O 331.234 0.352618 -1.90972 0
M  V30 3412 C 328.364 0.217224 -3.4662 0
M  V30 3413 C 327.318 -0.654034 -4.22973 0
M  V30 3414 C 326.644 0.195589 -5.34342 0
M  V30 3415 C 327.944 -1.93447 -4.85155 0
M  V30 3416 H 329.638 -1.36238 -2.66608 0
M  V30 3417 H 327.184 -0.656534 -1.28163 0
M  V30 3418 H 329.137 0.548732 -4.17812 0
M  V30 3419 H 327.861 1.1125 -3.07068 0
M  V30 3420 H 326.52 -0.968693 -3.5357 0
M  V30 3421 H 326.168 1.09076 -4.91031 0
M  V30 3422 H 325.868 -0.384091 -5.86343 0
M  V30 3423 H 327.392 0.521958 -6.08365 0
M  V30 3424 H 328.806 -1.66908 -5.48466 0
M  V30 3425 H 327.203 -2.46018 -5.47353 0
M  V30 3426 H 328.273 -2.63466 -4.07079 0
M  V30 3427 N 329.616 1.39756 -0.72842 0
M  V30 3428 C 330.548 2.29157 -0.0446202 0
M  V30 3429 C 331.561 1.46484 0.710367 0
M  V30 3430 O 332.75 1.69632 0.55562 0
M  V30 3431 C 329.85 3.24987 0.961071 0
M  V30 3432 C 329.023 4.36572 0.268967 0
M  V30 3433 C 328.082 5.12756 1.18184 0
M  V30 3434 O 327.108 5.6534 0.661794 0
M  V30 3435 N 328.31 5.23331 2.51206 0
M  V30 3436 H 331.075 2.88482 -0.812295 0
M  V30 3437 H 328.636 1.51265 -0.577098 0
M  V30 3438 H 330.628 3.72827 1.57423 0
M  V30 3439 H 329.198 2.66739 1.63 0
M  V30 3440 H 328.418 3.90694 -0.524574 0
M  V30 3441 H 329.706 5.08363 -0.210934 0
M  V30 3442 H 329.104 4.82116 2.9594 0
M  V30 3443 H 327.661 5.74634 3.07634 0
M  V30 3444 N 331.094 0.475555 1.50254 0
M  V30 3445 C 332.342 -0.077738 2.0195 0
M  V30 3446 C 332.663 -1.39813 1.35931 0
M  V30 3447 O 331.933 -1.89249 0.506123 0
M  V30 3448 H 330.513 -0.031719 0.746326 0
M  V30 3449 H 333.175 0.626995 1.84539 0
M  V30 3450 H 332.271 -0.225995 3.11281 0
M  V30 3451 N 332.573 -1.56217 0.208337 0
M  V30 3452 C 333.822 -1.97124 -0.427204 0
M  V30 3453 C 334.135 -1.09859 -1.61835 0
M  V30 3454 O 335.341 -1.40606 -2.32255 0
M  V30 3455 C 333.797 -3.50633 -0.811442 0
M  V30 3456 C 333.405 -4.46582 0.35615 0
M  V30 3457 C 335.149 -4.00282 -1.41332 0
M  V30 3458 C 333.056 -5.91379 -0.0497852 0
M  V30 3459 H 331.986 -0.736086 -0.163381 0
M  V30 3460 H 334.637 -1.8099 0.302456 0
M  V30 3461 H 333.019 -3.62319 -1.59815 0
M  V30 3462 H 334.193 -4.46636 1.1337 0
M  V30 3463 H 332.508 -4.07202 0.870396 0
M  V30 3464 H 335.105 -5.0595 -1.72972 0
M  V30 3465 H 335.448 -3.45359 -2.32449 0
M  V30 3466 H 335.981 -3.91764 -0.690323 0
M  V30 3467 H 332.72 -6.50255 0.827529 0
M  V30 3468 H 332.24 -5.94549 -0.791926 0
M  V30 3469 H 333.919 -6.45209 -0.481042 0
M  V30 3470 N 334.051 0.0651679 -1.57465 0
M  V30 3471 C 335.279 0.775808 -1.91804 0
M  V30 3472 C 335.694 1.70782 -0.804916 0
M  V30 3473 O 335.051 1.81153 0.221311 0
M  V30 3474 C 335.102 1.56381 -3.25925 0
M  V30 3475 O 334.823 0.669248 -4.32958 0
M  V30 3476 C 336.324 2.37485 -3.7432 0
M  V30 3477 H 333.544 0.2202 -0.63384 0
M  V30 3478 H 336.088 0.0334587 -2.04473 0
M  V30 3479 H 334.243 2.25837 -3.14764 0
M  V30 3480 H 334.657 1.21801 -5.10162 0
M  V30 3481 H 336.131 2.88223 -4.70778 0
M  V30 3482 H 336.608 3.17307 -3.03666 0
M  V30 3483 H 337.214 1.73173 -3.88447 0
M  V30 3484 N 335.529 1.53961 0.336706 0
M  V30 3485 C 336.754 1.75797 1.10046 0
M  V30 3486 C 337.179 0.498985 1.81361 0
M  V30 3487 O 336.537 -0.548769 1.72795 0
M  V30 3488 C 336.585 2.94257 2.08436 0
M  V30 3489 O 335.689 2.64883 3.16087 0
M  V30 3490 H 335.03 0.582936 0.317934 0
M  V30 3491 H 337.56 2.00945 0.38501 0
M  V30 3492 H 337.57 3.21237 2.51537 0
M  V30 3493 H 336.245 3.85564 1.55927 0
M  V30 3494 H 334.822 2.48812 2.77753 0
M  V30 3495 N 337.007 -0.598083 1.45811 0
M  V30 3496 C 338.253 -1.35679 1.51535 0
M  V30 3497 C 338.608 -1.91745 0.15864 0
M  V30 3498 O 337.901 -1.72654 -0.830724 0
M  V30 3499 C 338.095 -2.51669 2.53766 0
M  V30 3500 C 337.924 -2.06963 3.99245 0
M  V30 3501 C 336.694 -1.92693 4.67116 0
M  V30 3502 C 338.892 -1.63855 4.875 0
M  V30 3503 N 336.874 -1.41897 5.97276 0
M  V30 3504 C 338.245 -1.24541 6.07363 0
M  V30 3505 C 340.3 -1.51533 4.74281 0
M  V30 3506 C 339.003 -0.741354 7.15469 0
M  V30 3507 C 341.029 -1.0253 5.82444 0
M  V30 3508 C 340.391 -0.641869 7.01469 0
M  V30 3509 H 336.49 -0.490042 0.609412 0
M  V30 3510 H 339.074 -0.682687 1.82339 0
M  V30 3511 H 337.245 -3.16663 2.24898 0
M  V30 3512 H 338.977 -3.18578 2.4958 0
M  V30 3513 H 335.732 -2.1417 4.22408 0
M  V30 3514 H 336.156 -1.18704 6.66512 0
M  V30 3515 H 340.798 -1.798 3.82664 0
M  V30 3516 H 338.516 -0.446243 8.06867 0
M  V30 3517 H 342.102 -0.934088 5.74253 0
M  V30 3518 H 340.982 -0.268531 7.8374 0
M  V30 3519 N 338.485 -1.33259 -0.841409 0
M  V30 3520 C 339.733 -1.24326 -1.59334 0
M  V30 3521 C 340.054 0.191564 -1.94057 0
M  V30 3522 O 339.324 1.11967 -1.60749 0
M  V30 3523 H 337.904 -0.457174 -0.590763 0
M  V30 3524 H 340.566 -1.66947 -1.00571 0
M  V30 3525 H 339.662 -1.8352 -2.52442 0
M  V30 3526 N 339.963 1.05934 -1.16686 0
M  V30 3527 C 341.188 1.83029 -0.975455 0
M  V30 3528 C 341.613 1.82096 0.471452 0
M  V30 3529 O 340.971 1.22443 1.33706 0
M  V30 3530 C 341.019 3.27372 -1.51195 0
M  V30 3531 O 340.123 4.06054 -0.720701 0
M  V30 3532 H 339.464 0.566194 -0.346872 0
M  V30 3533 H 341.994 1.33541 -1.55009 0
M  V30 3534 H 342.004 3.78186 -1.53099 0
M  V30 3535 H 340.679 3.27366 -2.56523 0
M  V30 3536 H 339.256 3.64812 -0.772458 0
M  V30 3537 N 341.441 0.965919 1.2453 0
M  V30 3538 C 342.351 0.502154 2.29163 0
M  V30 3539 C 343.367 -0.436017 1.68448 0
M  V30 3540 O 344.543 -0.309497 1.99008 0
M  V30 3541 C 341.608 -0.201956 3.46111 0
M  V30 3542 C 340.669 0.775821 4.22232 0
M  V30 3543 C 339.902 0.105217 5.33596 0
M  V30 3544 O 340.125 -1.10683 5.59558 0
M  V30 3545 O 339.059 0.796475 5.96607 0
M  V30 3546 H 342.885 1.37194 2.70946 0
M  V30 3547 H 340.47 0.732875 1.30189 0
M  V30 3548 H 342.352 -0.597564 4.17142 0
M  V30 3549 H 341.027 -1.04673 3.06309 0
M  V30 3550 H 339.934 1.22185 3.53584 0
M  V30 3551 H 341.267 1.58896 4.65846 0
M  V30 3552 N 342.919 -1.39368 0.735821 0
M  V30 3553 C 344.33 -1.83313 0.354015 0
M  V30 3554 C 344.681 -1.61461 -1.11466 0
M  V30 3555 O 343.806 -1.10621 -1.85989 0
M  V30 3556 C 344.401 -3.32781 0.635769 0
M  V30 3557 C 342.96 -3.75142 0.307448 0
M  V30 3558 C 342.107 -2.62358 0.897974 0
M  V30 3559 H 345.058 -1.28349 0.933398 0
M  V30 3560 H 345.079 -3.80388 -0.0921773 0
M  V30 3561 H 344.591 -3.48654 1.70476 0
M  V30 3562 H 342.692 -3.64857 -0.755674 0
M  V30 3563 H 342.805 -4.72532 0.790583 0
M  V30 3564 H 341.169 -2.52624 0.324551 0
M  V30 3565 H 341.952 -2.81036 1.97164 0
M  V30 3566 N 344.397 -0.483516 -1.5 0
M  V30 3567 C 345.637 0.0657469 -2.04294 0
M  V30 3568 C 346.001 1.35869 -1.35659 0
M  V30 3569 O 347.202 1.99111 -1.80578 0
M  V30 3570 C 345.473 0.232758 -3.56641 0
M  V30 3571 S 347.032 0.738788 -4.32536 0
M  V30 3572 H 343.85 0.0100755 -0.710929 0
M  V30 3573 H 346.452 -0.653494 -1.84254 0
M  V30 3574 H 345.156 -0.713847 -4.04144 0
M  V30 3575 H 344.687 0.977751 -3.81056 0
M  V30 3576 H 346.702 2.01048 -4.53645 0
M  V30 3577 N 345.875 1.56104 -0.216619 0
M  V30 3578 C 346.838 2.18819 0.681962 0
M  V30 3579 C 347.838 1.14866 1.12528 0
M  V30 3580 O 349.028 1.40128 1.03488 0
M  V30 3581 C 346.16 2.80756 1.93362 0
M  V30 3582 H 347.353 2.99595 0.135254 0
M  V30 3583 H 344.906 1.56265 0.0330003 0
M  V30 3584 H 345.641 2.03837 2.52232 0
M  V30 3585 H 345.426 3.56876 1.62426 0
M  V30 3586 H 346.916 3.28844 2.57393 0
M  V30 3587 N 347.353 -0.0568162 1.57498 0
M  V30 3588 C 348.283 -1.06593 2.0775 0
M  V30 3589 C 349.264 -1.39448 0.974082 0
M  V30 3590 O 350.449 -1.48815 1.24771 0
M  V30 3591 C 347.579 -2.37509 2.5339 0
M  V30 3592 C 346.533 -2.1897 3.67745 0
M  V30 3593 C 345.859 -3.55402 3.99492 0
M  V30 3594 C 347.159 -1.59859 4.97235 0
M  V30 3595 H 348.853 -0.647706 2.9231 0
M  V30 3596 H 346.399 -0.310116 1.40621 0
M  V30 3597 H 348.352 -3.08409 2.87162 0
M  V30 3598 H 347.076 -2.8134 1.65878 0
M  V30 3599 H 345.735 -1.50508 3.3428 0
M  V30 3600 H 345.383 -3.9683 3.09088 0
M  V30 3601 H 345.083 -3.43831 4.76502 0
M  V30 3602 H 346.607 -4.27708 4.35773 0
M  V30 3603 H 348.021 -2.20642 5.29141 0
M  V30 3604 H 346.418 -1.58942 5.78669 0
M  V30 3605 H 347.488 -0.561506 4.81638 0
M  V30 3606 N 348.832 -1.54138 -0.328536 0
M  V30 3607 C 350.243 -1.63395 -0.903272 0
M  V30 3608 C 350.594 -0.524828 -1.8905 0
M  V30 3609 O 349.719 0.343068 -2.13663 0
M  V30 3610 C 350.314 -2.9618 -1.64507 0
M  V30 3611 C 348.873 -3.0765 -2.1686 0
M  V30 3612 C 348.02 -2.58933 -0.992416 0
M  V30 3613 H 350.971 -1.58344 -0.106253 0
M  V30 3614 H 350.992 -2.86061 -2.50897 0
M  V30 3615 H 350.504 -3.76884 -0.926302 0
M  V30 3616 H 348.605 -2.31611 -2.91868 0
M  V30 3617 H 348.718 -4.1337 -2.42202 0
M  V30 3618 H 347.082 -2.14706 -1.37016 0
M  V30 3619 H 347.865 -3.42089 -0.288041 0
M  V30 3620 N 350.31 0.590341 -1.46126 0
M  V30 3621 C 351.22 1.72793 -1.58681 0
M  V30 3622 C 352.236 1.67516 -0.470566 0
M  V30 3623 O 353.412 1.87562 -0.733642 0
M  V30 3624 C 350.477 3.09287 -1.5666 0
M  V30 3625 C 349.538 3.25886 -2.79458 0
M  V30 3626 C 348.771 4.55869 -2.77524 0
M  V30 3627 O 348.994 5.3928 -1.85832 0
M  V30 3628 O 347.928 4.75552 -3.68964 0
M  V30 3629 H 351.754 1.65149 -2.54872 0
M  V30 3630 H 349.339 0.756486 -1.28832 0
M  V30 3631 H 351.221 3.90577 -1.58202 0
M  V30 3632 H 349.896 3.17385 -0.636271 0
M  V30 3633 H 348.803 2.44119 -2.83472 0
M  V30 3634 H 350.136 3.22675 -3.71674 0
M  V30 3635 N 351.788 1.33704 0.83433 0
M  V30 3636 C 353.204 1.13137 1.12571 0
M  V30 3637 C 353.404 -0.0747261 2.01361 0
M  V30 3638 O 352.46 -0.753647 2.4099 0
M  V30 3639 C 353.773 2.42105 1.78342 0
M  V30 3640 C 355.321 2.48054 1.90888 0
M  V30 3641 C 355.796 3.76995 2.60075 0
M  V30 3642 N 357.287 3.78092 2.67584 0
M  V30 3643 C 358.022 4.74574 3.21818 0
M  V30 3644 N 357.518 5.81434 3.76705 0
M  V30 3645 N 359.311 4.62044 3.20112 0
M  V30 3646 H 351.462 2.11 0.243489 0
M  V30 3647 H 353.725 0.932532 0.17055 0
M  V30 3648 H 353.431 3.30391 1.20561 0
M  V30 3649 H 353.305 2.54594 2.7832 0
M  V30 3650 H 355.692 1.60215 2.47821 0
M  V30 3651 H 355.773 2.39502 0.898459 0
M  V30 3652 H 355.417 4.65219 2.03799 0
M  V30 3653 H 355.347 3.82825 3.61597 0
M  V30 3654 H 357.838 3.00865 2.28667 0
M  V30 3655 H 358.151 6.51084 4.16305 0
M  V30 3656 H 356.496 5.85163 3.7498 0
M  V30 3657 H 359.687 3.77716 2.76493 0
M  V30 3658 H 359.86 5.37406 3.62076 0
M  V30 3659 N 353.266 -1.05314 1.17247 0
M  V30 3660 C 354.677 -1.59753 0.96623 0
M  V30 3661 C 355.028 -1.9005 -0.487378 0
M  V30 3662 O 354.153 -1.68126 -1.36245 0
M  V30 3663 C 354.748 -2.90249 1.74759 0
M  V30 3664 C 353.307 -3.41352 1.58606 0
M  V30 3665 C 352.454 -2.15103 1.75002 0
M  V30 3666 H 355.405 -0.881406 1.31973 0
M  V30 3667 H 355.426 -3.60097 1.22925 0
M  V30 3668 H 354.938 -2.68166 2.8055 0
M  V30 3669 H 353.039 -3.68474 0.552985 0
M  V30 3670 H 353.152 -4.16019 2.37624 0
M  V30 3671 H 351.516 -2.25804 1.17833 0
M  V30 3672 H 352.299 -1.95491 2.82202 0
M  V30 3673 N 354.744 -0.972509 -1.24016 0
M  V30 3674 C 355.969 -0.654417 -1.96805 0
M  V30 3675 C 356.394 0.770398 -1.716 0
M  V30 3676 O 355.752 1.52361 -0.982647 0
M  V30 3677 C 355.8 -0.941031 -3.48105 0
M  V30 3678 O 354.904 -0.0289472 -4.1239 0
M  V30 3679 H 354.245 -0.24692 -0.616382 0
M  V30 3680 H 356.775 -1.30396 -1.57664 0
M  V30 3681 H 356.785 -0.87452 -3.98517 0
M  V30 3682 H 355.46 -1.97939 -3.65777 0
M  V30 3683 H 354.037 -0.149192 -3.72601 0
M  V30 3684 N 356.222 1.38976 -0.743202 0
M  V30 3685 C 357.152 2.33171 -0.123873 0
M  V30 3686 C 358.133 1.54336 0.71516 0
M  V30 3687 O 359.318 1.82696 0.658467 0
M  V30 3688 C 356.448 3.38474 0.777978 0
M  V30 3689 C 355.402 4.27979 0.0424758 0
M  V30 3690 C 354.728 5.2405 1.06189 0
M  V30 3691 C 356.028 5.10155 -1.1198 0
M  V30 3692 H 357.722 2.85213 -0.910709 0
M  V30 3693 H 355.268 1.37133 -0.439388 0
M  V30 3694 H 357.221 4.03328 1.22084 0
M  V30 3695 H 355.945 2.84891 1.59702 0
M  V30 3696 H 354.604 3.64616 -0.380853 0
M  V30 3697 H 354.252 4.66758 1.87472 0
M  V30 3698 H 353.952 5.84785 0.574485 0
M  V30 3699 H 355.476 5.9178 1.50428 0
M  V30 3700 H 356.89 5.68307 -0.75499 0
M  V30 3701 H 355.287 5.80073 -1.53738 0
M  V30 3702 H 356.357 4.44504 -1.93764 0
M  V30 3703 N 357.7 0.491464 1.49741 0
M  V30 3704 C 358.93 -0.0534375 2.06531 0
M  V30 3705 C 359.338 -1.32233 1.35318 0
M  V30 3706 O 358.681 -1.78781 0.422243 0
M  V30 3707 C 358.743 -0.387034 3.57411 0
M  V30 3708 C 358.407 0.782764 4.50246 0
M  V30 3709 C 359.404 1.67059 4.92329 0
M  V30 3710 C 357.089 0.978866 4.9267 0
M  V30 3711 C 359.083 2.73874 5.75562 0
M  V30 3712 C 356.77 2.05022 5.75682 0
M  V30 3713 C 357.768 2.92851 6.17031 0
M  V30 3714 O 357.456 3.98138 6.98385 0
M  V30 3715 H 357.188 0.0129324 0.675876 0
M  V30 3716 H 359.742 0.685238 1.93633 0
M  V30 3717 H 357.972 -1.17918 3.68283 0
M  V30 3718 H 359.661 -0.869419 3.96479 0
M  V30 3719 H 360.427 1.53086 4.60206 0
M  V30 3720 H 356.306 0.304646 4.59992 0
M  V30 3721 H 359.85 3.42458 6.07757 0
M  V30 3722 H 355.747 2.18993 6.07217 0
M  V30 3723 H 356.515 3.95374 7.16674 0
M  V30 3724 N 359.178 -1.55987 0.224894 0
M  V30 3725 C 360.406 -2.02784 -0.410665 0
M  V30 3726 C 360.821 -1.10464 -1.53112 0
M  V30 3727 O 360.178 -0.114871 -1.82138 0
M  V30 3728 C 360.229 -3.49087 -0.939165 0
M  V30 3729 O 359.95 -4.37887 0.136614 0
M  V30 3730 C 361.451 -4.11543 -1.64763 0
M  V30 3731 H 358.671 -0.663484 -0.100148 0
M  V30 3732 H 361.215 -2.01614 0.342326 0
M  V30 3733 H 359.37 -3.50861 -1.64242 0
M  V30 3734 H 359.784 -5.23849 -0.261155 0
M  V30 3735 H 361.258 -5.15673 -1.96939 0
M  V30 3736 H 361.735 -3.56736 -2.56195 0
M  V30 3737 H 362.341 -4.13629 -0.989503 0
M  V30 3738 N 360.656 0.0484629 -1.57525 0
M  V30 3739 C 361.603 1.05504 -2.05275 0
M  V30 3740 C 362.573 1.37084 -0.937927 0
M  V30 3741 O 363.758 1.47754 -1.2072 0
M  V30 3742 C 360.898 2.35676 -2.52093 0
M  V30 3743 C 360.011 2.10423 -3.77288 0
M  V30 3744 C 359.146 3.34327 -4.12794 0
M  V30 3745 C 358.185 3.04542 -5.30962 0
M  V30 3746 N 357.322 4.20841 -5.61994 0
M  V30 3747 H 362.162 0.640885 -2.91027 0
M  V30 3748 H 359.699 0.304854 -1.43906 0
M  V30 3749 H 361.657 3.11709 -2.77297 0
M  V30 3750 H 360.287 2.7485 -1.69285 0
M  V30 3751 H 359.339 1.24976 -3.59284 0
M  V30 3752 H 360.651 1.84438 -4.63448 0
M  V30 3753 H 359.805 4.1874 -4.39024 0
M  V30 3754 H 358.544 3.63408 -3.25247 0
M  V30 3755 H 357.549 2.18528 -5.04505 0
M  V30 3756 H 358.774 2.76758 -6.20146 0
M  V30 3757 H 356.72 4.4991 -4.77406 0
M  V30 3758 H 356.637 3.98212 -6.42622 0
M  V30 3759 H 357.905 5.06184 -5.92789 0
M  V30 3760 N 362.134 1.5431 0.320358 0
M  V30 3761 C 363.38 1.72924 1.05949 0
M  V30 3762 C 363.713 0.503185 1.87568 0
M  V30 3763 O 362.988 -0.499839 1.87968 0
M  V30 3764 C 363.271 3.00676 1.98156 0
M  V30 3765 C 363.124 4.3354 1.19845 0
M  V30 3766 C 364.443 3.24198 2.9763 0
M  V30 3767 H 361.562 0.629195 0.383774 0
M  V30 3768 H 364.204 1.87008 0.335854 0
M  V30 3769 H 362.354 2.888 2.59859 0
M  V30 3770 H 364.026 4.57305 0.605773 0
M  V30 3771 H 362.269 4.309 0.500784 0
M  V30 3772 H 362.94 5.19156 1.87567 0
M  V30 3773 H 365.416 3.35557 2.4605 0
M  V30 3774 H 364.292 4.14938 3.59329 0
M  V30 3775 H 364.553 2.41577 3.7026 0
M  V30 3776 N 363.613 -0.582584 1.46437 0
M  V30 3777 C 364.859 -1.34278 1.51978 0
M  V30 3778 C 365.192 -1.93446 0.170973 0
M  V30 3779 O 364.467 -1.76481 -0.817608 0
M  V30 3780 C 364.75 -2.47203 2.61845 0
M  V30 3781 C 364.603 -1.93069 4.06257 0
M  V30 3782 C 365.922 -3.49247 2.67795 0
M  V30 3783 H 363.041 -0.486876 0.553282 0
M  V30 3784 H 365.683 -0.654437 1.78374 0
M  V30 3785 H 363.833 -3.0592 2.39469 0
M  V30 3786 H 365.505 -1.38808 4.3992 0
M  V30 3787 H 363.748 -1.23898 4.1573 0
M  V30 3788 H 364.419 -2.74586 4.7886 0
M  V30 3789 H 366.895 -3.00411 2.8791 0
M  V30 3790 H 365.771 -4.25719 3.46489 0
M  V30 3791 H 366.032 -4.06482 1.73852 0
M  V30 3792 N 365.091 -1.34144 -0.827227 0
M  V30 3793 C 366.041 -1.21923 -1.92663 0
M  V30 3794 C 367.025 -0.119294 -1.60457 0
M  V30 3795 O 368.217 -0.348539 -1.73534 0
M  V30 3796 C 365.346 -0.972492 -3.29238 0
M  V30 3797 C 364.432 -2.1154 -3.67576 0
M  V30 3798 N 364.823 -3.36627 -3.77512 0
M  V30 3799 C 363.121 -2.02468 -3.97395 0
M  V30 3800 C 363.822 -4.11658 -4.1099 0
M  V30 3801 N 362.798 -3.40207 -4.23981 0
M  V30 3802 H 366.6 -2.16721 -1.98517 0
M  V30 3803 H 364.114 -1.2632 -1.02064 0
M  V30 3804 H 366.111 -0.865847 -4.0781 0
M  V30 3805 H 364.771 -0.0331509 -3.24683 0
M  V30 3806 H 365.782 -3.71234 -3.61118 0
M  V30 3807 H 362.459 -1.16265 -4.00985 0
M  V30 3808 H 363.849 -5.19657 -4.25918 0
M  V30 3809 N 366.569 1.04691 -1.17803 0
M  V30 3810 C 367.799 1.81183 -0.992788 0
M  V30 3811 C 368.207 1.8347 0.462098 0
M  V30 3812 O 367.55 1.2643 1.33271 0
M  V30 3813 C 367.612 3.28363 -1.46349 0
M  V30 3814 C 367.276 3.49749 -2.94151 0
M  V30 3815 C 368.273 3.41456 -3.92051 0
M  V30 3816 C 365.958 3.76548 -3.32441 0
M  V30 3817 C 367.952 3.59656 -5.26238 0
M  V30 3818 C 365.639 3.94396 -4.66792 0
M  V30 3819 C 366.637 3.8595 -5.635 0
M  V30 3820 O 366.325 4.03294 -6.9542 0
M  V30 3821 H 366.057 0.577622 -0.351182 0
M  V30 3822 H 368.611 1.32876 -1.5663 0
M  V30 3823 H 366.841 3.77609 -0.833574 0
M  V30 3824 H 368.53 3.86395 -1.24313 0
M  V30 3825 H 369.296 3.20723 -3.63815 0
M  V30 3826 H 365.175 3.82224 -2.57732 0
M  V30 3827 H 368.719 3.52979 -6.01707 0
M  V30 3828 H 364.616 4.14622 -4.94731 0
M  V30 3829 H 365.384 4.2049 -7.02232 0
M  V30 3830 N 368.047 0.979072 1.23499 0
M  V30 3831 C 369.463 0.687475 1.44034 0
M  V30 3832 C 369.663 -0.746801 1.8715 0
M  V30 3833 O 368.719 -1.51939 2.0167 0
M  V30 3834 C 370.032 1.68127 2.49307 0
M  V30 3835 C 371.58 1.69516 2.63122 0
M  V30 3836 C 372.055 2.67723 3.71603 0
M  V30 3837 N 373.546 2.66233 3.79044 0
M  V30 3838 C 374.281 3.38891 4.62537 0
M  V30 3839 N 373.777 4.21103 5.50131 0
M  V30 3840 N 375.57 3.27661 4.56721 0
M  V30 3841 H 367.721 1.90559 0.938135 0
M  V30 3842 H 369.984 0.821051 0.473897 0
M  V30 3843 H 369.69 2.70693 2.2454 0
M  V30 3844 H 369.564 1.46306 3.4767 0
M  V30 3845 H 371.951 0.676561 2.8724 0
M  V30 3846 H 372.032 1.95404 1.65079 0
M  V30 3847 H 371.676 3.69724 3.48233 0
M  V30 3848 H 371.606 2.39111 4.69184 0
M  V30 3849 H 374.097 2.06568 3.16446 0
M  V30 3850 H 374.41 4.73403 6.10827 0
M  V30 3851 H 372.755 4.25195 5.49759 0
M  V30 3852 H 375.946 2.62887 3.87309 0
M  V30 3853 H 376.119 3.84547 5.21562 0
M  V30 3854 N 369.525 -1.3858 0.750561 0
M  V30 3855 C 370.472 -2.30483 0.120835 0
M  V30 3856 C 371.442 -1.50022 -0.712923 0
M  V30 3857 O 372.627 -1.78662 -0.669676 0
M  V30 3858 C 369.767 -3.36431 -0.768666 0
M  V30 3859 C 368.88 -4.31927 0.0793922 0
M  V30 3860 C 368.015 -5.24944 -0.81283 0
M  V30 3861 C 367.054 -6.12088 0.0390447 0
M  V30 3862 N 366.191 -6.97412 -0.809969 0
M  V30 3863 H 371.031 -2.83761 0.91015 0
M  V30 3864 H 368.568 -1.39707 0.460463 0
M  V30 3865 H 370.526 -3.96462 -1.29898 0
M  V30 3866 H 369.156 -2.8457 -1.5238 0
M  V30 3867 H 368.208 -3.73382 0.727303 0
M  V30 3868 H 369.52 -4.93319 0.737401 0
M  V30 3869 H 368.674 -5.90078 -1.41042 0
M  V30 3870 H 367.413 -4.63911 -1.50458 0
M  V30 3871 H 366.418 -5.45952 0.649328 0
M  V30 3872 H 367.643 -6.75189 0.727809 0
M  V30 3873 H 365.589 -6.38931 -1.48672 0
M  V30 3874 H 365.506 -7.55712 -0.208789 0
M  V30 3875 H 366.774 -7.66959 -1.39263 0
M  V30 3876 N 371.003 -0.499398 -1.49478 0
M  V30 3877 C 372.249 0.0377587 -2.03365 0
M  V30 3878 C 372.604 1.3484 -1.37244 0
M  V30 3879 O 371.897 1.85 -0.498547 0
M  V30 3880 C 372.091 0.248424 -3.56536 0
M  V30 3881 C 371.92 -1.04025 -4.37503 0
M  V30 3882 C 370.69 -1.59159 -4.79579 0
M  V30 3883 C 372.888 -1.9431 -4.76181 0
M  V30 3884 N 370.87 -2.82634 -5.44969 0
M  V30 3885 C 372.241 -3.02364 -5.41272 0
M  V30 3886 C 374.296 -1.95008 -4.58123 0
M  V30 3887 C 372.999 -4.1114 -5.90217 0
M  V30 3888 C 375.025 -3.02758 -5.08027 0
M  V30 3889 C 374.387 -4.09531 -5.73118 0
M  V30 3890 H 370.486 -0.026923 -0.781536 0
M  V30 3891 H 373.07 -0.673901 -1.82665 0
M  V30 3892 H 371.241 0.929139 -3.77123 0
M  V30 3893 H 372.973 0.782445 -3.97064 0
M  V30 3894 H 369.728 -1.13696 -4.5975 0
M  V30 3895 H 370.152 -3.45416 -5.82252 0
M  V30 3896 H 374.794 -1.13766 -4.07207 0
M  V30 3897 H 372.512 -4.93181 -6.40155 0
M  V30 3898 H 376.098 -3.04315 -4.95866 0
M  V30 3899 H 374.978 -4.91534 -6.11035 0
M  V30 3900 N 372.481 1.55866 -0.233164 0
M  V30 3901 C 373.73 1.97779 0.39579 0
M  V30 3902 C 374.043 1.12419 1.60066 0
M  V30 3903 O 375.249 1.44283 2.29988 0
M  V30 3904 C 373.705 3.5188 0.755556 0
M  V30 3905 C 373.313 4.45959 -0.427152 0
M  V30 3906 C 375.057 4.02479 1.34946 0
M  V30 3907 C 372.964 5.91383 -0.0443043 0
M  V30 3908 H 371.894 0.738592 0.15165 0
M  V30 3909 H 374.545 1.80486 -0.331212 0
M  V30 3910 H 372.927 3.64816 1.5403 0
M  V30 3911 H 374.101 4.44776 -1.20462 0
M  V30 3912 H 372.416 4.05765 -0.935068 0
M  V30 3913 H 375.013 5.08637 1.649 0
M  V30 3914 H 375.356 3.49014 2.26925 0
M  V30 3915 H 375.889 3.92813 0.62791 0
M  V30 3916 H 372.628 6.48857 -0.930874 0
M  V30 3917 H 372.148 5.95734 0.697238 0
M  V30 3918 H 373.827 6.45893 0.378334 0
M  V30 3919 N 373.959 -0.0401083 1.57549 0
M  V30 3920 C 374.906 -1.04413 2.05831 0
M  V30 3921 C 375.876 -1.36585 0.945184 0
M  V30 3922 O 377.061 -1.47112 1.21502 0
M  V30 3923 C 374.201 -2.34336 2.53339 0
M  V30 3924 C 373.314 -2.08419 3.78398 0
M  V30 3925 C 372.449 -3.32133 4.14561 0
M  V30 3926 C 371.488 -3.01721 5.3257 0
M  V30 3927 N 370.625 -4.17855 5.64218 0
M  V30 3928 H 375.465 -0.625442 2.91363 0
M  V30 3929 H 373.002 -0.297218 1.44066 0
M  V30 3930 H 374.96 -3.10234 2.78946 0
M  V30 3931 H 373.59 -2.73948 1.7074 0
M  V30 3932 H 372.642 -1.23069 3.59942 0
M  V30 3933 H 373.954 -1.81978 4.64419 0
M  V30 3934 H 373.108 -4.16406 4.41238 0
M  V30 3935 H 371.847 -3.61678 3.2717 0
M  V30 3936 H 370.852 -2.15849 5.05657 0
M  V30 3937 H 372.077 -2.73466 6.21605 0
M  V30 3938 H 370.023 -4.47372 4.79786 0
M  V30 3939 H 369.94 -3.94798 6.44725 0
M  V30 3940 H 371.208 -5.03033 5.95465 0
M  V30 3941 N 375.437 -1.54477 -0.31217 0
M  V30 3942 C 376.714 -1.63891 -1.06767 0
M  V30 3943 C 377.094 -0.480028 -2.0557 0
M  V30 3944 O 376.442 0.524487 -2.22399 0
M  V30 3945 C 376.652 -3.01402 -1.75948 0
M  V30 3946 C 378 -3.57838 -2.28554 0
M  V30 3947 O 379.024 -3.03782 -1.85998 0
M  V30 3948 O 377.883 -4.52462 -3.06497 0
M  V30 3949 H 374.977 -0.664125 -0.492816 0
M  V30 3950 H 377.523 -1.66823 -0.311149 0
M  V30 3951 H 376.295 -3.77187 -1.04144 0
M  V30 3952 H 375.918 -3.02199 -2.58383 0
M  V30 3953 N 376.915 0.57481 -1.46744 0
M  V30 3954 C 378.143 1.35856 -1.56047 0
M  V30 3955 C 378.558 1.87691 -0.204365 0
M  V30 3956 O 377.915 1.64049 0.79963 0
M  V30 3957 C 377.966 2.54066 -2.57163 0
M  V30 3958 O 377.687 2.04377 -3.87507 0
M  V30 3959 C 379.188 3.46514 -2.76483 0
M  V30 3960 H 376.408 0.414754 -0.527466 0
M  V30 3961 H 378.952 0.698035 -1.92218 0
M  V30 3962 H 377.107 3.16092 -2.23974 0
M  V30 3963 H 377.521 2.81419 -4.4261 0
M  V30 3964 H 378.995 4.25919 -3.51137 0
M  V30 3965 H 379.472 3.98951 -1.83671 0
M  V30 3966 H 380.078 2.90318 -3.10799 0
M  V30 3967 N 378.394 1.34581 0.820102 0
M  V30 3968 C 379.643 1.26437 1.57151 0
M  V30 3969 C 379.956 -0.163111 1.94919 0
M  V30 3970 O 381.162 -0.366722 2.69012 0
M  V30 3971 C 379.618 2.21658 2.83541 0
M  V30 3972 C 379.226 3.69679 2.53065 0
M  V30 3973 C 380.97 2.22428 3.61561 0
M  V30 3974 C 378.877 4.56761 3.75664 0
M  V30 3975 H 377.807 0.469707 0.589823 0
M  V30 3976 H 380.458 1.59763 0.902656 0
M  V30 3977 H 378.84 1.81287 3.52067 0
M  V30 3978 H 380.014 4.18605 1.92631 0
M  V30 3979 H 378.329 3.71384 1.88316 0
M  V30 3980 H 380.926 2.8471 4.52597 0
M  V30 3981 H 381.269 1.22434 3.97889 0
M  V30 3982 H 381.802 2.61259 2.99981 0
M  V30 3983 H 378.541 5.57702 3.44454 0
M  V30 3984 H 378.061 4.12568 4.35371 0
M  V30 3985 H 379.74 4.71509 4.43044 0
M  V30 3986 N 379.872 -1.04064 1.18357 0
M  V30 3987 C 381.118 -1.77528 0.980397 0
M  V30 3988 C 381.451 -1.87948 -0.48879 0
M  V30 3989 O 380.726 -1.3876 -1.36293 0
M  V30 3990 C 381.009 -3.20797 1.63588 0
M  V30 3991 C 380.862 -3.1832 3.17793 0
M  V30 3992 C 382.181 -4.18911 1.34914 0
M  V30 3993 H 379.3 -0.644443 0.357578 0
M  V30 3994 H 381.942 -1.2156 1.46024 0
M  V30 3995 H 380.092 -3.68586 1.22788 0
M  V30 3996 H 381.764 -2.78521 3.67728 0
M  V30 3997 H 380.007 -2.56351 3.49952 0
M  V30 3998 H 380.678 -4.19489 3.58794 0
M  V30 3999 H 383.154 -3.7967 1.70265 0
M  V30 4000 H 382.03 -5.17374 1.83346 0
M  V30 4001 H 382.291 -4.41262 0.272027 0
M  V30 4002 N 381.35 -0.985608 -1.22978 0
M  V30 4003 C 382.313 -0.535071 -2.22867 0
M  V30 4004 C 383.313 0.378123 -1.56291 0
M  V30 4005 O 384.503 0.171092 -1.73358 0
M  V30 4006 C 381.635 0.222702 -3.40172 0
M  V30 4007 H 382.828 -1.41835 -2.6424 0
M  V30 4008 H 380.381 -0.772042 -1.35901 0
M  V30 4009 H 381.116 1.12229 -3.04262 0
M  V30 4010 H 380.901 -0.43288 -3.89703 0
M  V30 4011 H 382.391 0.526335 -4.1427 0
M  V30 4012 N 382.828 1.3818 -0.7579 0
M  V30 4013 C 383.776 2.32277 -0.122482 0
M  V30 4014 C 384.77 1.54238 0.700505 0
M  V30 4015 O 385.976 1.69737 0.599119 0
M  V30 4016 H 382.351 0.751712 -0.0208143 0
M  V30 4017 H 384.322 2.83469 -0.932099 0
M  V30 4018 C 383.071 3.39447 0.753076 0
M  V30 4019 H 382.394 3.99591 0.129184 0
M  V30 4020 H 383.834 4.07684 1.16489 0
M  V30 4021 C 382.293 2.78375 1.8976 0
M  V30 4022 O 382.823 2.68025 2.99208 0
M  V30 4023 N 381.029 2.36121 1.69397 0
M  V30 4024 H 380.576 2.4474 0.803762 0
M  V30 4025 H 380.534 1.95602 2.46145 0
M  V30 4026 N 384.306 0.507319 1.49211 0
M  V30 4027 C 385.717 0.0611118 1.866 0
M  V30 4028 C 386.068 -1.35488 1.41907 0
M  V30 4029 O 385.193 -2.0108 0.799726 0
M  V30 4030 C 385.788 0.104125 3.3864 0
M  V30 4031 C 384.347 -0.28677 3.75306 0
M  V30 4032 C 383.494 0.473893 2.73221 0
M  V30 4033 H 386.445 0.719775 1.41439 0
M  V30 4034 H 386.466 -0.689672 3.74198 0
M  V30 4035 H 385.978 1.13482 3.71138 0
M  V30 4036 H 384.079 -1.32046 3.48417 0
M  V30 4037 H 384.192 0.0370745 4.79086 0
M  V30 4038 H 382.556 -0.0770644 2.54583 0
M  V30 4039 H 383.339 1.50478 3.08563 0
M  V30 4040 O 385.823 -1.56889 0.38316 0
M  V30 4041 H 386.514 -1.93009 -0.163415 0
M  V30 END ATOM
M  V30 BEGIN BOND
M  V30 END BOND
M  V30 END CTAB
M  END
$$$$
