drugbank_target|P07254 Chitinase A (DB03109; DB04404; DB04628)
 OpenBabel12092119573D

  0  0  0     0  0            999 V3000
M  V30 BEGIN CTAB
M  V30 COUNTS 8514 8618 0 0 0
M  V30 BEGIN ATOM
M  V30 1 H -0.908 1.98254 -0.117106 0
M  V30 2 N 0 1.576 0 0
M  V30 3 C 0.933 2.03868 1.02534 0
M  V30 4 C 1.911 0.928543 1.3348 0
M  V30 5 O 3.095 1.19667 1.45644 0
M  V30 6 C 0.222 2.43627 2.35294 0
M  V30 7 C -0.732 3.65373 2.2001 0
M  V30 8 S 0.101 5.13292 1.52614 0
M  V30 9 C 1.257 5.56322 2.86805 0
M  V30 10 H 1.49 2.90518 0.631377 0
M  V30 11 H -0.977 1.52953 0.210867 0
M  V30 12 H 0.981 2.67203 3.11629 0
M  V30 13 H -0.358 1.57376 2.7183 0
M  V30 14 H -1.165 3.90944 3.18086 0
M  V30 15 H -1.563 3.418 1.51819 0
M  V30 16 H 0.729 5.58782 3.83104 0
M  V30 17 H 1.672 6.56266 2.65933 0
M  V30 18 H 2.08 4.83886 2.90714 0
M  V30 19 N 1.4781 -0.272755 1.55222 0
M  V30 20 C 2.8941 -0.619959 1.47067 0
M  V30 21 C 3.0941 -1.895 0.684978 0
M  V30 22 O 2.1501 -2.51675 0.203931 0
M  V30 23 C 3.4631 -0.746693 2.91282 0
M  V30 24 C 5.0111 -0.840731 3.01497 0
M  V30 25 C 5.4861 -0.99924 4.46967 0
M  V30 26 N 6.9771 -1.06476 4.50796 0
M  V30 27 C 7.7121 -1.20621 5.6057 0
M  V30 28 N 7.2081 -1.31483 6.80209 0
M  V30 29 N 9.0011 -1.23733 5.48312 0
M  V30 30 H 1.1521 0.564606 2.04758 0
M  V30 31 H 3.4151 0.191177 0.928523 0
M  V30 32 H 3.1211 0.119753 3.51496 0
M  V30 33 H 2.9951 -1.6269 3.40311 0
M  V30 34 H 5.3821 -1.69764 2.41379 0
M  V30 35 H 5.4631 0.0640874 2.5572 0
M  V30 36 H 5.1071 -0.146984 5.07687 0
M  V30 37 H 5.0371 -1.91871 4.90401 0
M  V30 38 H 7.5281 -0.993196 3.64615 0
M  V30 39 H 7.8411 -1.42111 7.59621 0
M  V30 40 H 6.1861 -1.28487 6.8302 0
M  V30 41 H 9.3771 -1.14877 4.53785 0
M  V30 42 H 9.5501 -1.34412 6.33906 0
M  V30 43 N 2.9562 -1.48159 -0.537278 0
M  V30 44 C 3.9032 -1.62138 -1.64256 0
M  V30 45 C 4.8732 -0.463668 -1.59497 0
M  V30 46 O 6.0582 -0.686241 -1.78032 0
M  V30 47 C 3.1982 -1.66028 -3.02537 0
M  V30 48 C 2.3112 -2.92855 -3.17585 0
M  V30 49 C 1.4462 -2.87952 -4.46382 0
M  V30 50 C 0.4852 -4.09516 -4.54932 0
M  V30 51 N -0.3778 -4.02733 -5.75109 0
M  V30 52 H 4.4622 -2.56529 -1.51647 0
M  V30 53 H 1.9992 -1.27224 -0.738414 0
M  V30 54 H 3.9572 -1.66265 -3.82638 0
M  V30 55 H 2.5872 -0.751331 -3.13934 0
M  V30 56 H 1.6392 -3.02395 -2.30784 0
M  V30 57 H 2.9512 -3.82822 -3.19764 0
M  V30 58 H 2.1052 -2.8655 -5.34765 0
M  V30 59 H 0.8442 -1.95702 -4.46712 0
M  V30 60 H -0.1508 -4.11201 -3.64957 0
M  V30 61 H 1.0742 -5.02917 -4.56346 0
M  V30 62 H -0.9798 -3.13299 -5.76351 0
M  V30 63 H -1.0628 -4.86397 -5.78752 0
M  V30 64 H 0.2052 -4.05379 -6.65799 0
M  V30 65 N 4.4343 0.785586 -1.36625 0
M  V30 66 C 5.6813 1.54362 -1.31067 0
M  V30 67 C 6.0093 1.94195 0.10893 0
M  V30 68 O 5.2643 1.63262 1.07908 0
M  V30 69 C 5.5633 2.83007 -2.1827 0
M  V30 70 C 5.2293 2.62294 -3.6676 0
M  V30 71 C 3.8913 2.56353 -4.0723 0
M  V30 72 C 6.2433 2.43371 -4.6089 0
M  V30 73 C 3.5713 2.29461 -5.39967 0
M  V30 74 C 5.9233 2.18005 -5.93849 0
M  V30 75 C 4.5873 2.105 -6.3344 0
M  V30 76 H 3.8573 0.564851 -0.479609 0
M  V30 77 H 6.5043 0.906028 -1.68711 0
M  V30 78 H 4.8093 3.51253 -1.73576 0
M  V30 79 H 6.5063 3.40817 -2.11292 0
M  V30 80 H 3.0963 2.67774 -3.34656 0
M  V30 81 H 7.2803 2.46959 -4.30494 0
M  V30 82 H 2.5363 2.22135 -5.69619 0
M  V30 83 H 6.7103 2.02359 -6.66351 0
M  V30 84 H 4.3373 1.89425 -7.36222 0
M  V30 85 N 5.9124 1.20967 1.01018 0
M  V30 86 C 6.8604 0.961223 2.1181 0
M  V30 87 C 7.8544 -0.0897034 1.69162 0
M  V30 88 O 9.0604 0.0612271 1.79896 0
M  V30 89 H 5.4354 0.29355 0.692338 0
M  V30 90 H 7.4064 1.90178 2.29946 0
M  V30 91 C 6.1554 0.536854 3.4353 0
M  V30 92 H 5.4784 1.33713 3.76777 0
M  V30 93 H 6.9184 0.402286 4.22087 0
M  V30 94 C 5.3774 -0.751574 3.2841 0
M  V30 95 O 5.9074 -1.80841 3.58691 0
M  V30 96 N 4.1134 -0.716079 2.81639 0
M  V30 97 H 3.6604 0.144236 2.57196 0
M  V30 98 H 3.6184 -1.57847 2.71904 0
M  V30 99 N 7.3905 -1.2043 1.01659 0
M  V30 100 C 8.3375 -2.23215 0.586822 0
M  V30 101 C 9.3075 -1.61382 -0.393085 0
M  V30 102 O 10.4925 -1.88544 -0.292525 0
M  V30 103 C 7.6325 -3.45032 -0.0687464 0
M  V30 104 C 6.7455 -4.21296 0.955724 0
M  V30 105 C 5.8805 -5.30507 0.271208 0
M  V30 106 C 4.9195 -5.98515 1.28244 0
M  V30 107 N 4.0565 -6.99316 0.62459 0
M  V30 108 H 8.8965 -2.59336 1.46796 0
M  V30 109 H 6.4335 -1.27431 0.734836 0
M  V30 110 H 8.3915 -4.1459 -0.465965 0
M  V30 111 H 7.0215 -3.09604 -0.913529 0
M  V30 112 H 6.0735 -3.50803 1.4711 0
M  V30 113 H 7.3855 -4.6803 1.72479 0
M  V30 114 H 6.5395 -6.06428 -0.18151 0
M  V30 115 H 5.2785 -4.8481 -0.530163 0
M  V30 116 H 4.2835 -5.21355 1.74554 0
M  V30 117 H 5.5085 -6.46298 2.08509 0
M  V30 118 H 3.4545 -6.55812 -0.156914 0
M  V30 119 H 3.3715 -7.44178 1.33172 0
M  V30 120 H 4.6395 -7.79255 0.195462 0
M  V30 121 N 8.8686 -0.792821 -1.36206 0
M  V30 122 C 10.2796 -0.429513 -1.81692 0
M  V30 123 C 10.6306 1.04695 -1.65932 0
M  V30 124 O 9.7556 1.81256 -1.18218 0
M  V30 125 C 10.3506 -0.772831 -3.29868 0
M  V30 126 C 8.9096 -0.462307 -3.7355 0
M  V30 127 C 8.0566 -1.00569 -2.5842 0
M  V30 128 H 11.0076 -0.985672 -1.24379 0
M  V30 129 H 11.0286 -0.0651928 -3.80444 0
M  V30 130 H 10.5406 -1.84747 -3.41307 0
M  V30 131 H 8.6416 0.604158 -3.67669 0
M  V30 132 H 8.7546 -0.985299 -4.68859 0
M  V30 133 H 7.1186 -0.428734 -2.51066 0
M  V30 134 H 7.9016 -2.08616 -2.72643 0
M  V30 135 N 10.3467 1.47872 -0.545128 0
M  V30 136 C 11.2767 2.32661 0.197793 0
M  V30 137 C 12.2577 1.43041 0.920504 0
M  V30 138 O 13.4427 1.71912 0.90333 0
M  V30 139 C 10.5727 3.24569 1.23582 0
M  V30 140 C 9.5267 4.23333 0.630323 0
M  V30 141 C 8.8527 5.0448 1.77211 0
M  V30 142 C 10.1527 5.20704 -0.407974 0
M  V30 143 H 11.8467 2.95024 -0.510045 0
M  V30 144 H 9.3927 1.4187 -0.246731 0
M  V30 145 H 11.3457 3.8272 1.76362 0
M  V30 146 H 10.0697 2.60236 1.97344 0
M  V30 147 H 8.7287 3.6639 0.123922 0
M  V30 148 H 8.3767 4.36561 2.49847 0
M  V30 149 H 8.0767 5.71339 1.37281 0
M  V30 150 H 9.6007 5.65487 2.3034 0
M  V30 151 H 11.0147 5.7329 0.033305 0
M  V30 152 H 9.4117 5.95699 -0.725486 0
M  V30 153 H 10.4817 4.66917 -1.30828 0
M  V30 154 N 11.8248 0.280983 1.55075 0
M  V30 155 C 12.7548 -0.597469 2.25727 0
M  V30 156 C 13.7358 -1.15417 1.24952 0
M  V30 157 O 14.9208 -1.18722 1.53684 0
M  V30 158 C 12.0508 -1.7789 2.98283 0
M  V30 159 C 11.0048 -1.35347 4.06036 0
M  V30 160 C 10.3308 -2.61846 4.66198 0
M  V30 161 C 11.6308 -0.499354 5.19907 0
M  V30 162 H 13.3248 -0.00824265 2.99399 0
M  V30 163 H 10.8708 -0.0025244 1.44 0
M  V30 164 H 12.8238 -2.39937 3.46422 0
M  V30 165 H 11.5478 -2.39405 2.22155 0
M  V30 166 H 10.2068 -0.756156 3.58717 0
M  V30 167 H 9.8548 -3.21632 3.86732 0
M  V30 168 H 9.5548 -2.3409 5.38958 0
M  V30 169 H 11.0788 -3.24732 5.1709 0
M  V30 170 H 12.4928 -1.02498 5.64063 0
M  V30 171 H 10.8898 -0.316424 5.99265 0
M  V30 172 H 11.9598 0.480459 4.82514 0
M  V30 173 N 13.3029 -1.57598 0.00835791 0
M  V30 174 C 14.2659 -2.07884 -0.965242 0
M  V30 175 C 15.2659 -0.989825 -1.26725 0
M  V30 176 O 16.4559 -1.25218 -1.21104 0
M  V30 177 C 13.5879 -2.52731 -2.28779 0
M  V30 178 H 14.7809 -2.95178 -0.530112 0
M  V30 179 H 12.3339 -1.54458 -0.239283 0
M  V30 180 H 13.0689 -1.68705 -2.76964 0
M  V30 181 H 12.8539 -3.32272 -2.08177 0
M  V30 182 H 14.3439 -2.91933 -2.98605 0
M  V30 183 N 14.781 0.264519 -1.55364 0
M  V30 184 C 15.711 1.33121 -1.91836 0
M  V30 185 C 16.692 1.51101 -0.781192 0
M  V30 186 O 17.877 1.64003 -1.04003 0
M  V30 187 C 15.007 2.68921 -2.19769 0
M  V30 188 C 13.961 2.65661 -3.35571 0
M  V30 189 C 13.287 4.05093 -3.49004 0
M  V30 190 C 14.587 2.24187 -4.71739 0
M  V30 191 H 16.281 1.02844 -2.81182 0
M  V30 192 H 13.827 0.493286 -1.35287 0
M  V30 193 H 15.78 3.43663 -2.43872 0
M  V30 194 H 14.504 3.00799 -1.27231 0
M  V30 195 H 13.163 1.93377 -3.1145 0
M  V30 196 H 12.811 4.34206 -2.53917 0
M  V30 197 H 12.511 4.03804 -4.26868 0
M  V30 198 H 14.035 4.81561 -3.75408 0
M  V30 199 H 15.449 2.88654 -4.9533 0
M  V30 200 H 13.846 2.34044 -5.52579 0
M  V30 201 H 14.916 1.19327 -4.69988 0
M  V30 202 N 16.2591 1.48442 0.529413 0
M  V30 203 C 17.1891 1.65902 1.64313 0
M  V30 204 C 18.1701 0.507897 1.6234 0
M  V30 205 O 19.3551 0.740503 1.79528 0
M  V30 206 C 16.4851 1.69911 3.02898 0
M  V30 207 C 15.4391 2.8453 3.19729 0
M  V30 208 C 14.7651 2.73629 4.59381 0
M  V30 209 C 16.0651 4.25821 3.02447 0
M  V30 210 H 17.7591 2.5914 1.49955 0
M  V30 211 H 15.3051 1.24709 0.719982 0
M  V30 212 H 17.2581 1.80715 3.80684 0
M  V30 213 H 15.9821 0.732524 3.18279 0
M  V30 214 H 14.6411 2.73283 2.44361 0
M  V30 215 H 14.2891 1.74938 4.71599 0
M  V30 216 H 13.9891 3.50541 4.71588 0
M  V30 217 H 15.5131 2.86401 5.39265 0
M  V30 218 H 16.9271 4.37898 3.70024 0
M  V30 219 H 15.3241 5.03735 3.26146 0
M  V30 220 H 16.3941 4.42244 1.98867 0
M  V30 221 N 17.7372 -0.778329 1.37039 0
M  V30 222 C 18.9862 -1.53189 1.3121 0
M  V30 223 C 19.2992 -1.95328 -0.103095 0
M  V30 224 O 20.5052 -2.70012 -0.283826 0
M  V30 225 C 18.9612 -2.76591 2.30272 0
M  V30 226 C 18.5692 -2.41577 3.77286 0
M  V30 227 C 20.3132 -3.5455 2.33441 0
M  V30 228 C 18.2202 -3.61441 4.68096 0
M  V30 229 H 17.1502 -0.5751 0.487622 0
M  V30 230 H 19.8012 -0.853101 1.62464 0
M  V30 231 H 18.1832 -3.46326 1.92027 0
M  V30 232 H 19.3572 -1.79668 4.2433 0
M  V30 233 H 17.6722 -1.76806 3.76999 0
M  V30 234 H 20.2692 -4.43628 2.98493 0
M  V30 235 H 20.6122 -3.93936 1.34611 0
M  V30 236 H 21.1452 -2.91805 2.7036 0
M  V30 237 H 17.8842 -3.27142 5.6803 0
M  V30 238 H 17.4042 -4.22478 4.25761 0
M  V30 239 H 19.0832 -4.28335 4.8491 0
M  V30 240 N 19.2153 -1.21501 -1.00376 0
M  V30 241 C 20.4633 -1.03095 -1.73827 0
M  V30 242 C 20.7843 0.436341 -1.90055 0
M  V30 243 O 20.0543 1.31466 -1.45236 0
M  V30 244 H 18.6343 -0.378487 -0.644016 0
M  V30 245 H 21.2963 -1.52831 -1.20949 0
M  V30 246 H 20.3923 -1.49991 -2.73695 0
M  V30 247 N 20.6934 1.19889 -1.02296 0
M  V30 248 C 21.9184 1.9393 -0.735237 0
M  V30 249 C 22.3434 1.74639 0.698782 0
M  V30 250 O 21.7014 1.04481 1.48167 0
M  V30 251 C 21.7494 3.43916 -1.08417 0
M  V30 252 O 20.8534 4.11917 -0.199446 0
M  V30 253 H 20.1944 0.605645 -0.272196 0
M  V30 254 H 22.7244 1.52137 -1.36804 0
M  V30 255 H 22.7344 3.9456 -1.03856 0
M  V30 256 H 21.4094 3.5728 -2.12894 0
M  V30 257 H 19.9864 3.71666 -0.303136 0
M  V30 258 N 22.1715 0.800033 1.35784 0
M  V30 259 C 23.3995 0.389606 2.03199 0
M  V30 260 C 23.8145 -0.997375 1.60306 0
M  V30 261 O 23.1715 -1.64154 0.797481 0
M  V30 262 C 23.2225 0.455855 3.58614 0
M  V30 263 O 22.9435 1.78815 3.99946 0
M  V30 264 C 24.4445 0.0374032 4.43284 0
M  V30 265 H 21.6645 0.159132 0.651857 0
M  V30 266 H 24.2085 1.08183 1.73541 0
M  V30 267 H 22.3635 -0.188057 3.86943 0
M  V30 268 H 22.7775 1.74636 4.94573 0
M  V30 269 H 24.2515 0.134882 5.51835 0
M  V30 270 H 24.7285 -1.01651 4.27275 0
M  V30 271 H 25.3345 0.654215 4.20238 0
M  V30 272 N 23.6496 -1.47581 0.552962 0
M  V30 273 C 24.5796 -2.32762 -0.185451 0
M  V30 274 C 25.5606 -1.43527 -0.912905 0
M  V30 275 O 26.7456 -1.72388 -0.894201 0
M  V30 276 C 23.8756 -3.25219 -1.21859 0
M  V30 277 C 22.8296 -4.23661 -0.607864 0
M  V30 278 C 22.1556 -5.05413 -1.74533 0
M  V30 279 C 23.4556 -5.20481 0.435582 0
M  V30 280 H 25.1496 -2.94749 0.525684 0
M  V30 281 H 22.6956 -1.41738 0.254251 0
M  V30 282 H 24.6486 -3.8365 -1.7433 0
M  V30 283 H 23.3726 -2.61279 -1.95961 0
M  V30 284 H 22.0316 -3.66451 -0.104489 0
M  V30 285 H 21.6796 -4.3788 -2.47529 0
M  V30 286 H 21.3796 -5.72059 -1.34249 0
M  V30 287 H 22.9036 -5.66701 -2.27338 0
M  V30 288 H 24.3176 -5.733 -0.00290157 0
M  V30 289 H 22.7146 -5.95305 0.757067 0
M  V30 290 H 23.7846 -4.66217 1.33303 0
M  V30 291 N 25.1277 -0.289203 -1.54924 0
M  V30 292 C 26.3677 0.324536 -2.01807 0
M  V30 293 C 26.7317 1.5199 -1.17316 0
M  V30 294 O 27.9327 2.20422 -1.53843 0
M  V30 295 C 26.2037 0.683578 -3.50802 0
M  V30 296 S 27.7627 1.28185 -4.19659 0
M  V30 297 H 24.5807 0.100236 -0.703899 0
M  V30 298 H 27.1827 -0.414325 -1.91059 0
M  V30 299 H 25.8867 -0.195073 -4.09936 0
M  V30 300 H 25.4177 1.45354 -3.65562 0
M  V30 301 H 27.4327 2.57006 -4.24456 0
M  V30 302 N 26.6058 1.57591 -0.0167156 0
M  V30 303 C 27.8308 1.9598 0.67872 0
M  V30 304 C 28.2558 0.892546 1.65575 0
M  V30 305 O 27.6138 -0.147772 1.80697 0
M  V30 306 C 27.6618 3.33468 1.37227 0
M  V30 307 O 26.7658 3.28954 2.48722 0
M  V30 308 H 26.1068 0.639339 0.17928 0
M  V30 309 H 28.6368 2.04463 -0.0748802 0
M  V30 310 H 28.6468 3.69417 1.7319 0
M  V30 311 H 27.3218 4.10694 0.656007 0
M  V30 312 H 25.8988 3.04705 2.14963 0
M  V30 313 N 28.0839 -0.256276 1.55502 0
M  V30 314 C 29.0469 -1.30047 1.88734 0
M  V30 315 C 30.0469 -1.4154 0.763086 0
M  V30 316 O 31.2369 -1.40403 1.03115 0
M  V30 317 C 28.3689 -2.67953 2.10747 0
M  V30 318 H 29.5619 -1.01802 2.82093 0
M  V30 319 H 27.1149 -0.495134 1.4825 0
M  V30 320 H 27.8499 -3.01351 1.19825 0
M  V30 321 H 27.6349 -2.60993 2.92617 0
M  V30 322 H 29.1249 -3.43368 2.37673 0
M  V30 323 N 29.562 -1.4872 -0.521534 0
M  V30 324 C 30.525 -1.63379 -1.60748 0
M  V30 325 C 31.525 -0.50661 -1.52611 0
M  V30 326 O 32.715 -0.772601 -1.5613 0
M  V30 327 C 29.847 -1.61192 -3.00383 0
M  V30 328 H 31.04 -2.60217 -1.49087 0
M  V30 329 H 28.593 -1.37444 -0.744235 0
M  V30 330 H 29.328 -0.65863 -3.17541 0
M  V30 331 H 29.113 -2.43032 -3.07698 0
M  V30 332 H 30.603 -1.7466 -3.7932 0
M  V30 333 N 31.0401 0.771051 -1.3745 0
M  V30 334 C 31.9721 1.89352 -1.29146 0
M  V30 335 C 32.9851 1.61477 -0.207124 0
M  V30 336 O 34.1741 1.72382 -0.463324 0
M  V30 337 C 31.2741 3.24596 -0.974195 0
M  V30 338 C 30.4471 3.80111 -2.16413 0
M  V30 339 C 29.5061 4.93832 -1.81703 0
M  V30 340 O 28.5321 5.09382 -2.54006 0
M  V30 341 N 29.7341 5.75483 -0.761573 0
M  V30 342 H 32.4991 1.96991 -2.25864 0
M  V30 343 H 30.0601 0.950191 -1.31084 0
M  V30 344 H 32.0521 3.98193 -0.722828 0
M  V30 345 H 30.6221 3.12454 -0.0955527 0
M  V30 346 H 29.8421 2.98284 -2.57721 0
M  V30 347 H 31.1301 4.13932 -2.95867 0
M  V30 348 H 30.5281 5.65469 -0.161609 0
M  V30 349 H 29.0851 6.49302 -0.570064 0
M  V30 350 N 32.5182 1.22032 0.997298 0
M  V30 351 C 33.4812 0.987909 2.06816 0
M  V30 352 C 34.4812 -0.0440084 1.6074 0
M  V30 353 O 35.6712 0.194053 1.73116 0
M  V30 354 C 32.8032 0.49132 3.37341 0
M  V30 355 H 33.9962 1.93803 2.28868 0
M  V30 356 H 31.5492 1.03838 1.16822 0
M  V30 357 H 32.2842 -0.463364 3.20973 0
M  V30 358 H 32.0692 1.23575 3.72118 0
M  V30 359 H 33.5592 0.348824 4.16141 0
M  V30 360 N 33.9963 -1.19345 1.0293 0
M  V30 361 C 34.9593 -2.20793 0.615069 0
M  V30 362 C 35.9593 -1.57553 -0.321533 0
M  V30 363 O 37.1493 -1.73862 -0.108483 0
M  V30 364 C 34.2813 -3.40754 -0.0999222 0
M  V30 365 H 35.4743 -2.58955 1.51269 0
M  V30 366 H 33.0273 -1.3303 0.820534 0
M  V30 367 H 33.7623 -3.0811 -1.01187 0
M  V30 368 H 33.5473 -3.87889 0.57309 0
M  V30 369 H 35.0373 -4.15898 -0.376645 0
M  V30 370 N 35.4744 -0.807222 -1.35358 0
M  V30 371 C 36.4374 -0.223665 -2.28106 0
M  V30 372 C 37.4374 0.589354 -1.4961 0
M  V30 373 O 38.6274 0.407745 -1.69361 0
M  V30 374 C 35.7594 0.688149 -3.33882 0
M  V30 375 H 36.9524 -1.04169 -2.81227 0
M  V30 376 H 34.5054 -0.577921 -1.45223 0
M  V30 377 H 35.2404 1.52984 -2.85948 0
M  V30 378 H 35.0254 0.10687 -3.91954 0
M  V30 379 H 36.5154 1.09075 -4.03104 0
M  V30 380 N 36.9525 1.47285 -0.560781 0
M  V30 381 C 38.3635 1.86258 -0.128343 0
M  V30 382 C 38.7145 1.46699 1.30284 0
M  V30 383 O 37.8395 0.871698 1.98067 0
M  V30 384 C 38.4345 3.38044 -0.22614 0
M  V30 385 C 36.9935 3.76096 0.151283 0
M  V30 386 C 36.1405 2.71335 -0.572084 0
M  V30 387 H 39.0915 1.38752 -0.770297 0
M  V30 388 H 39.1125 3.76441 0.554322 0
M  V30 389 H 38.6245 3.66806 -1.26788 0
M  V30 390 H 36.7255 3.52951 1.19399 0
M  V30 391 H 36.8385 4.78641 -0.209765 0
M  V30 392 H 35.2025 2.54696 -0.0147653 0
M  V30 393 H 35.9855 3.02938 -1.61504 0
M  V30 394 N 38.4306 0.297415 1.54768 0
M  V30 395 C 39.6786 -0.312295 1.99673 0
M  V30 396 C 39.9996 -1.54686 1.18732 0
M  V30 397 O 39.2696 -1.93854 0.282382 0
M  V30 398 H 37.8496 -0.118381 0.73756 0
M  V30 399 H 40.5116 0.407915 1.90583 0
M  V30 400 H 39.6076 -0.586813 3.06534 0
M  V30 401 N 39.9087 -1.5758 0.0250728 0
M  V30 402 C 40.8557 -2.09973 -0.958129 0
M  V30 403 C 41.8257 -1.00085 -1.3256 0
M  V30 404 O 43.0107 -1.27481 -1.41962 0
M  V30 405 C 40.1507 -2.62812 -2.2366 0
M  V30 406 C 39.2637 -3.86693 -1.92594 0
M  V30 407 C 38.3987 -4.27941 -3.14707 0
M  V30 408 C 37.4377 -5.44591 -2.79442 0
M  V30 409 N 36.5747 -5.81014 -3.94167 0
M  V30 410 H 41.4147 -2.937 -0.504428 0
M  V30 411 H 38.9517 -1.45172 -0.237392 0
M  V30 412 H 40.9097 -2.91536 -2.98434 0
M  V30 413 H 39.5397 -1.81922 -2.66654 0
M  V30 414 H 38.5917 -3.64723 -1.0808 0
M  V30 415 H 39.9037 -4.71547 -1.62619 0
M  V30 416 H 39.0577 -4.58079 -3.97804 0
M  V30 417 H 37.7967 -3.41845 -3.4784 0
M  V30 418 H 36.8017 -5.1415 -1.94755 0
M  V30 419 H 38.0267 -6.32382 -2.47528 0
M  V30 420 H 35.9727 -4.97874 -4.2715 0
M  V30 421 H 35.8897 -6.60498 -3.67801 0
M  V30 422 H 37.1577 -6.15756 -4.7798 0
M  V30 423 N 41.3868 0.248026 -1.55636 0
M  V30 424 C 42.7978 0.817177 -1.67866 0
M  V30 425 C 43.1488 1.86069 -0.622322 0
M  V30 426 O 42.2738 2.15157 0.231618 0
M  V30 427 C 42.8688 1.489 -3.04326 0
M  V30 428 C 41.4278 2.00587 -3.185 0
M  V30 429 C 40.5748 0.856573 -2.63739 0
M  V30 430 H 43.5258 0.0238579 -1.58682 0
M  V30 431 H 43.5468 2.35698 -2.98708 0
M  V30 432 H 43.0588 0.729279 -3.81186 0
M  V30 433 H 41.1598 2.79443 -2.4646 0
M  V30 434 H 41.2728 2.20402 -4.25393 0
M  V30 435 H 39.6368 1.25678 -2.21534 0
M  V30 436 H 40.4198 0.109953 -3.43124 0
M  V30 437 N 42.8649 1.48995 0.513639 0
M  V30 438 C 44.0929 1.61531 1.29288 0
M  V30 439 C 44.5079 0.281801 1.86685 0
M  V30 440 O 43.8649 -0.731111 1.67215 0
M  V30 441 C 43.9159 2.67449 2.43215 0
M  V30 442 O 43.6369 3.95626 1.88179 0
M  V30 443 C 45.1379 2.90575 3.34785 0
M  V30 444 H 42.3579 0.544165 0.392588 0
M  V30 445 H 44.9019 1.9494 0.617956 0
M  V30 446 H 43.0569 2.36853 3.0656 0
M  V30 447 H 43.4709 4.53868 2.62876 0
M  V30 448 H 44.9449 3.68449 4.11035 0
M  V30 449 H 45.4219 2.00011 3.91015 0
M  V30 450 H 46.0279 3.22538 2.77218 0
M  V30 451 N 44.343 -0.763751 1.37857 0
M  V30 452 C 45.592 -1.51789 1.32827 0
M  V30 453 C 45.905 -1.95426 -0.0823719 0
M  V30 454 O 47.111 -2.70298 -0.255172 0
M  V30 455 C 45.567 -2.74133 2.33193 0
M  V30 456 C 45.175 -2.37562 3.79827 0
M  V30 457 C 46.919 -3.52054 2.37188 0
M  V30 458 C 44.826 -3.56456 4.71904 0
M  V30 459 H 43.756 -0.569896 0.493695 0
M  V30 460 H 46.407 -0.835822 1.63359 0
M  V30 461 H 44.789 -3.4427 1.9569 0
M  V30 462 H 45.963 -1.75157 4.26212 0
M  V30 463 H 44.278 -1.72798 3.78853 0
M  V30 464 H 46.875 -4.40437 3.03182 0
M  V30 465 H 47.218 -3.92486 1.38782 0
M  V30 466 H 47.751 -2.88921 2.7344 0
M  V30 467 H 44.49 -3.21099 5.71468 0
M  V30 468 H 44.01 -4.17938 4.30218 0
M  V30 469 H 45.689 -4.23168 4.89426 0
M  V30 470 N 45.8211 -1.22559 -0.990812 0
M  V30 471 C 46.7841 -0.998863 -2.0629 0
M  V30 472 C 47.7841 0.0354834 -1.60761 0
M  V30 473 O 48.9741 -0.203231 -1.7301 0
M  V30 474 C 46.1061 -0.509203 -3.37076 0
M  V30 475 H 47.2991 -1.95014 -2.27837 0
M  V30 476 H 44.8521 -1.04456 -1.16269 0
M  V30 477 H 45.5871 0.446335 -3.21214 0
M  V30 478 H 45.3721 -1.25547 -3.71457 0
M  V30 479 H 46.8621 -0.370888 -4.1595 0
M  V30 480 N 47.2992 1.18797 -1.03562 0
M  V30 481 C 48.5452 1.89192 -0.746867 0
M  V30 482 C 48.9002 1.78531 0.717245 0
M  V30 483 O 48.1932 1.17137 1.51622 0
M  V30 484 C 48.3872 3.38692 -1.14117 0
M  V30 485 C 48.2162 3.63902 -2.64207 0
M  V30 486 C 46.9862 3.81553 -3.31279 0
M  V30 487 C 49.1842 3.64903 -3.62423 0
M  V30 488 N 47.1662 3.94455 -4.70402 0
M  V30 489 C 48.5372 3.83458 -4.87196 0
M  V30 490 C 50.5922 3.47965 -3.56125 0
M  V30 491 C 49.2952 3.86829 -6.06429 0
M  V30 492 C 51.3212 3.52616 -4.7478 0
M  V30 493 C 50.6832 3.71663 -5.9837 0
M  V30 494 H 46.7822 0.711141 -0.325273 0
M  V30 495 H 49.3662 1.42727 -1.32428 0
M  V30 496 H 47.5372 3.83864 -0.591889 0
M  V30 497 H 49.2692 3.96634 -0.803966 0
M  V30 498 H 46.0242 3.80723 -2.81686 0
M  V30 499 H 46.4482 4.0474 -5.42692 0
M  V30 500 H 51.0902 3.32189 -2.61553 0
M  V30 501 H 48.8082 4.01395 -7.01362 0
M  V30 502 H 52.3942 3.40791 -4.71543 0
M  V30 503 H 51.2742 3.75145 -6.88648 0
M  V30 504 N 48.7773 0.814389 1.34928 0
M  V30 505 C 50.0253 0.397636 1.9815 0
M  V30 506 C 50.3463 -1.04069 1.64908 0
M  V30 507 O 49.6163 -1.72121 0.93548 0
M  V30 508 H 48.1963 0.144043 0.732981 0
M  V30 509 H 50.8583 1.04195 1.6471 0
M  V30 510 H 49.9543 0.509688 3.0791 0
M  V30 511 N 50.2554 -1.46986 0.568584 0
M  V30 512 C 51.2034 -2.31858 -0.185649 0
M  V30 513 C 52.1974 -1.43624 -0.898249 0
M  V30 514 O 53.4034 -1.60327 -0.818242 0
M  V30 515 H 49.7784 -0.747866 -0.0787399 0
M  V30 516 H 51.7494 -2.93303 0.549191 0
M  V30 517 C 50.4984 -3.26513 -1.19519 0
M  V30 518 H 49.8214 -3.94377 -0.656285 0
M  V30 519 H 51.2614 -3.88707 -1.6936 0
M  V30 520 C 49.7204 -2.50847 -2.24894 0
M  V30 521 O 50.2504 -2.26119 -3.32014 0
M  V30 522 N 48.4564 -2.11656 -1.99124 0
M  V30 523 H 48.0034 -2.31966 -1.12024 0
M  V30 524 H 47.9614 -1.61347 -2.69842 0
M  V30 525 N 51.7335 -0.305618 -1.54608 0
M  V30 526 C 52.9615 0.304775 -2.04643 0
M  V30 527 C 53.3765 1.47167 -1.18268 0
M  V30 528 O 52.7335 1.81296 -0.209328 0
M  V30 529 C 52.7845 0.756564 -3.53495 0
M  V30 530 O 52.5055 -0.36389 -4.36586 0
M  V30 531 C 54.0065 1.43163 -4.19546 0
M  V30 532 H 51.2265 0.0655481 -0.667791 0
M  V30 533 H 53.7705 -0.446592 -1.99564 0
M  V30 534 H 51.9255 1.45794 -3.58919 0
M  V30 535 H 52.3395 -0.0113121 -5.24499 0
M  V30 536 H 53.8135 1.69886 -5.25207 0
M  V30 537 H 54.2905 2.37318 -3.69563 0
M  V30 538 H 54.8965 0.773307 -4.18211 0
M  V30 539 N 53.2116 1.57565 -0.0334293 0
M  V30 540 C 54.1586 2.10478 0.946981 0
M  V30 541 C 55.1286 1.00787 1.32027 0
M  V30 542 O 56.3136 1.28232 1.41284 0
M  V30 543 C 53.4536 2.63994 2.22263 0
M  V30 544 C 52.5666 3.87709 1.90541 0
M  V30 545 C 51.7016 4.29604 3.12433 0
M  V30 546 C 50.7406 5.46065 2.76549 0
M  V30 547 N 49.8776 5.83096 3.9108 0
M  V30 548 H 54.7176 2.93963 0.488846 0
M  V30 549 H 52.2546 1.45296 0.22969 0
M  V30 550 H 54.2126 2.93114 2.96884 0
M  V30 551 H 52.8426 1.83333 2.65685 0
M  V30 552 H 51.8946 3.65291 1.06144 0
M  V30 553 H 53.2066 4.72403 1.60116 0
M  V30 554 H 52.3606 4.60182 3.9537 0
M  V30 555 H 51.0996 3.43685 3.46023 0
M  V30 556 H 50.1046 5.15176 1.92026 0
M  V30 557 H 51.3296 6.33685 2.44171 0
M  V30 558 H 49.2756 5.00132 4.24504 0
M  V30 559 H 49.1926 6.6244 3.64293 0
M  V30 560 H 50.4606 6.18282 4.74708 0
M  V30 561 N 54.6897 -0.239769 1.55765 0
M  V30 562 C 55.9367 -0.966801 1.7793 0
M  V30 563 C 56.2647 -1.85046 0.599015 0
M  V30 564 O 55.5197 -1.91197 -0.417395 0
M  V30 565 C 55.8187 -1.852 3.05672 0
M  V30 566 C 55.4847 -1.1231 4.36689 0
M  V30 567 C 54.1467 -0.921689 4.72291 0
M  V30 568 C 56.4987 -0.607019 5.17653 0
M  V30 569 C 53.8267 -0.191996 5.86386 0
M  V30 570 C 56.1787 0.109241 6.32506 0
M  V30 571 C 54.8427 0.322073 6.66723 0
M  V30 572 H 54.1127 -0.353778 0.651093 0
M  V30 573 H 56.7597 -0.23634 1.90036 0
M  V30 574 H 55.0647 -2.64975 2.8861 0
M  V30 575 H 56.7617 -2.41635 3.20021 0
M  V30 576 H 53.3517 -1.29004 4.08725 0
M  V30 577 H 57.5357 -0.750153 4.90598 0
M  V30 578 H 52.7917 -0.0166949 6.11398 0
M  V30 579 H 56.9657 0.516737 6.9448 0
M  V30 580 H 54.5927 0.88944 7.54979 0
M  V30 581 N 56.1678 -1.49265 -0.50573 0
M  V30 582 C 57.1308 -1.65075 -1.59006 0
M  V30 583 C 58.1308 -0.522768 -1.52065 0
M  V30 584 O 59.3208 -0.789117 -1.55302 0
M  V30 585 C 56.4528 -1.64369 -2.98656 0
M  V30 586 H 57.6458 -2.61784 -1.46319 0
M  V30 587 H 55.1988 -1.38226 -0.729616 0
M  V30 588 H 55.9338 -0.692272 -3.16825 0
M  V30 589 H 55.7188 -2.46282 -3.05103 0
M  V30 590 H 57.2088 -1.78674 -3.77446 0
M  V30 591 N 57.6459 0.756429 -1.3826 0
M  V30 592 C 58.8949 1.51082 -1.3363 0
M  V30 593 C 59.2079 1.95467 0.0720068 0
M  V30 594 O 60.4139 2.7043 0.240834 0
M  V30 595 C 58.8699 2.72893 -2.34644 0
M  V30 596 C 58.4779 2.35544 -3.81081 0
M  V30 597 C 60.2219 3.50791 -2.39052 0
M  V30 598 C 58.1289 3.53948 -4.73787 0
M  V30 599 H 57.0589 0.56727 -0.49671 0
M  V30 600 H 59.7099 0.827147 -1.638 0
M  V30 601 H 58.0919 3.43227 -1.97513 0
M  V30 602 H 59.2659 1.72894 -4.27135 0
M  V30 603 H 57.5809 1.70786 -3.79764 0
M  V30 604 H 60.1779 4.38823 -3.05513 0
M  V30 605 H 60.5209 3.91745 -1.40861 0
M  V30 606 H 61.0539 2.87467 -2.74968 0
M  V30 607 H 57.7929 3.18064 -5.73163 0
M  V30 608 H 57.3129 4.15651 -4.32428 0
M  V30 609 H 58.9919 4.20566 -4.91663 0
M  V30 610 N 59.124 1.23083 0.984299 0
M  V30 611 C 60.37 1.06214 1.72761 0
M  V30 612 C 60.703 -0.400584 1.90024 0
M  V30 613 O 59.978 -1.29672 1.44967 0
M  V30 614 C 60.261 1.78375 3.12817 0
M  V30 615 C 60.114 3.32296 3.03149 0
M  V30 616 C 61.433 1.54309 4.12161 0
M  V30 617 H 58.552 0.387251 0.627061 0
M  V30 618 H 61.194 1.51536 1.14616 0
M  V30 619 H 59.344 1.39848 3.62457 0
M  V30 620 H 61.016 3.8032 2.61064 0
M  V30 621 H 59.259 3.6153 2.39747 0
M  V30 622 H 59.93 3.77972 4.02295 0
M  V30 623 H 62.406 1.87791 3.71314 0
M  V30 624 H 61.282 2.07281 5.08258 0
M  V30 625 H 61.543 0.477572 4.39513 0
M  V30 626 N 60.6021 -1.18246 1.0419 0
M  V30 627 C 61.5121 -2.25574 0.644476 0
M  V30 628 C 62.5281 -1.70845 -0.329826 0
M  V30 629 O 63.7041 -2.00554 -0.184443 0
M  V30 630 C 60.7691 -3.46697 0.014877 0
M  V30 631 C 59.8301 -4.16554 1.03834 0
M  V30 632 C 59.0631 -5.31894 0.438692 0
M  V30 633 O 59.2861 -5.65385 -0.754752 0
M  V30 634 O 58.2201 -5.90459 1.168 0
M  V30 635 H 62.0461 -2.61836 1.53869 0
M  V30 636 H 59.6311 -1.25352 0.812854 0
M  V30 637 H 61.5131 -4.20062 -0.335538 0
M  V30 638 H 60.1881 -3.12255 -0.853138 0
M  V30 639 H 59.0951 -3.45251 1.44057 0
M  V30 640 H 60.4281 -4.54998 1.87716 0
M  V30 641 N 62.0802 -0.821533 -1.34494 0
M  V30 642 C 63.3262 -0.409552 -1.98622 0
M  V30 643 C 63.6592 1.0244 -1.64984 0
M  V30 644 O 62.9342 1.71325 -0.920758 0
M  V30 645 C 63.2172 -0.610458 -3.54888 0
M  V30 646 C 63.0702 -2.09043 -3.98273 0
M  V30 647 C 64.3892 -0.0455379 -4.40076 0
M  V30 648 H 61.5082 -0.15028 -0.721516 0
M  V30 649 H 64.1502 -1.03384 -1.59411 0
M  V30 650 H 62.3002 -0.079044 -3.8842 0
M  V30 651 H 63.9722 -2.68537 -3.75081 0
M  V30 652 H 62.2152 -2.58139 -3.48635 0
M  V30 653 H 62.8862 -2.18182 -5.07051 0
M  V30 654 H 65.3622 -0.499557 -4.1309 0
M  V30 655 H 64.2382 -0.215922 -5.48475 0
M  V30 656 H 64.4992 1.04939 -4.29465 0
M  V30 657 N 63.5583 1.46682 -0.576371 0
M  V30 658 C 64.8353 1.95599 0.00703437 0
M  V30 659 C 65.2153 1.51904 1.46589 0
M  V30 660 O 64.5633 0.766755 2.15251 0
M  V30 661 C 64.7733 3.4864 -0.158404 0
M  V30 662 C 66.1213 4.24594 -0.0229439 0
M  V30 663 O 67.1453 3.56094 -0.0869173 0
M  V30 664 O 66.0043 5.46373 0.118015 0
M  V30 665 H 63.0983 0.825275 0.053384 0
M  V30 666 H 65.6443 1.56996 -0.644244 0
M  V30 667 H 64.4163 3.7331 -1.17282 0
M  V30 668 H 64.0393 3.94057 0.5296 0
M  V30 669 N 65.0364 0.313813 1.54444 0
M  V30 670 C 65.9684 -0.590425 2.21465 0
M  V30 671 C 66.9814 -1.08753 1.21147 0
M  V30 672 O 68.1704 -1.00278 1.4767 0
M  V30 673 C 65.2704 -1.82179 2.85769 0
M  V30 674 C 64.4434 -1.46502 4.12136 0
M  V30 675 C 63.5024 -2.55288 4.60124 0
M  V30 676 O 62.5284 -2.19842 5.25032 0
M  V30 677 N 63.7304 -3.86053 4.33525 0
M  V30 678 H 66.4954 -0.0166033 2.99695 0
M  V30 679 H 64.0564 0.136578 1.61323 0
M  V30 680 H 66.0484 -2.54328 3.14801 0
M  V30 681 H 64.6184 -2.30369 2.11303 0
M  V30 682 H 63.8384 -0.575595 3.89975 0
M  V30 683 H 65.1264 -1.20221 4.94393 0
M  V30 684 H 64.5244 -4.17654 3.81552 0
M  V30 685 H 63.0814 -4.54461 4.67235 0
M  V30 686 N 66.5145 -1.57545 0.0417849 0
M  V30 687 C 67.4775 -2.09885 -0.92093 0
M  V30 688 C 68.4775 -1.01648 -1.24596 0
M  V30 689 O 69.6675 -1.27759 -1.1842 0
M  V30 690 C 66.7995 -2.57527 -2.23367 0
M  V30 691 H 67.9925 -2.96236 -0.467382 0
M  V30 692 H 65.5455 -1.5493 -0.206467 0
M  V30 693 H 66.2805 -1.74542 -2.73323 0
M  V30 694 H 66.0655 -3.36613 -2.01083 0
M  V30 695 H 67.5555 -2.98201 -2.92346 0
M  V30 696 N 67.9926 0.231505 -1.5589 0
M  V30 697 C 68.9556 1.27028 -1.90779 0
M  V30 698 C 69.9556 1.40308 -0.785507 0
M  V30 699 O 71.1456 1.38744 -1.05336 0
M  V30 700 C 68.2776 2.64566 -2.14983 0
M  V30 701 H 69.4706 0.973017 -2.83677 0
M  V30 702 H 67.0236 0.471486 -1.49019 0
M  V30 703 H 67.7586 2.99406 -1.24604 0
M  V30 704 H 67.5436 2.56305 -2.96732 0
M  V30 705 H 69.0336 3.39543 -2.43105 0
M  V30 706 N 69.4707 1.49531 0.497807 0
M  V30 707 C 70.6987 1.62893 1.27567 0
M  V30 708 C 71.1137 0.301585 1.86376 0
M  V30 709 O 70.4707 -0.713335 1.67982 0
M  V30 710 C 70.5217 2.70013 2.40364 0
M  V30 711 O 70.2427 3.976 1.83972 0
M  V30 712 C 71.7437 2.94109 3.31685 0
M  V30 713 H 68.9637 0.548298 0.386794 0
M  V30 714 H 71.5077 1.95584 0.597245 0
M  V30 715 H 69.6627 2.40092 3.04031 0
M  V30 716 H 70.0767 4.56631 2.58047 0
M  V30 717 H 71.5507 3.72788 4.07104 0
M  V30 718 H 72.0277 2.04147 3.88871 0
M  V30 719 H 72.6337 3.2546 2.73781 0
M  V30 720 N 70.9488 -0.749086 1.3866 0
M  V30 721 C 71.9118 -1.84457 1.36045 0
M  V30 722 C 72.9118 -1.58682 0.260122 0
M  V30 723 O 74.1018 -1.66343 0.517261 0
M  V30 724 C 71.2338 -3.22008 1.11911 0
M  V30 725 H 72.4268 -1.88182 2.33512 0
M  V30 726 H 69.9798 -0.951266 1.24019 0
M  V30 727 H 70.7148 -3.2395 0.150686 0
M  V30 728 H 70.4998 -3.42111 1.91579 0
M  V30 729 H 71.9898 -4.0208 1.12788 0
M  V30 730 N 72.4269 -1.23603 -0.977757 0
M  V30 731 C 73.6569 -1.09487 -1.75203 0
M  V30 732 C 74.0649 0.356321 -1.85814 0
M  V30 733 O 73.4079 1.25816 -1.33851 0
M  V30 734 C 73.4699 -1.64905 -3.19447 0
M  V30 735 C 73.1339 -3.13688 -3.32338 0
M  V30 736 C 74.1309 -4.10953 -3.18455 0
M  V30 737 C 71.8159 -3.53449 -3.56902 0
M  V30 738 C 73.8099 -5.45962 -3.28944 0
M  V30 739 C 71.4969 -4.88602 -3.6703 0
M  V30 740 C 72.4949 -5.84668 -3.53062 0
M  V30 741 O 72.1829 -7.17365 -3.62826 0
M  V30 742 H 71.9149 -0.38367 -0.556573 0
M  V30 743 H 74.4689 -1.6398 -1.23693 0
M  V30 744 H 72.6989 -1.04835 -3.72218 0
M  V30 745 H 74.3879 -1.46226 -3.78646 0
M  V30 746 H 75.1539 -3.81577 -2.99372 0
M  V30 747 H 71.0329 -2.79188 -3.66844 0
M  V30 748 H 74.5769 -6.20925 -3.17958 0
M  V30 749 H 70.4739 -5.17653 -3.85623 0
M  V30 750 H 71.2419 -7.2515 -3.79605 0
M  V30 751 N 73.905 1.17692 -1.04816 0
M  V30 752 C 74.853 2.23632 -0.63966 0
M  V30 753 C 75.847 1.6601 0.337219 0
M  V30 754 O 77.053 1.78844 0.203693 0
M  V30 755 H 73.428 0.727949 -0.188665 0
M  V30 756 H 75.399 2.55387 -1.54337 0
M  V30 757 C 74.148 3.4769 -0.0264051 0
M  V30 758 H 73.471 3.92331 -0.769164 0
M  V30 759 H 74.911 4.23418 0.222098 0
M  V30 760 C 73.37 3.13807 1.22584 0
M  V30 761 O 73.9 3.28236 2.31569 0
M  V30 762 N 72.106 2.68065 1.12202 0
M  V30 763 H 71.653 2.56525 0.235133 0
M  V30 764 H 71.611 2.45767 1.96076 0
M  V30 765 N 75.3831 0.828654 1.34056 0
M  V30 766 C 76.3311 0.242973 2.31327 0
M  V30 767 C 77.3251 -0.61944 1.57668 0
M  V30 768 O 78.5311 -0.51014 1.7262 0
M  V30 769 H 74.9061 0.059834 0.749616 0
M  V30 770 H 76.8771 1.07809 2.78244 0
M  V30 771 C 75.6261 -0.575733 3.429 0
M  V30 772 H 74.9491 0.0785582 3.99723 0
M  V30 773 H 76.3891 -0.951547 4.13185 0
M  V30 774 C 74.8481 -1.75044 2.87856 0
M  V30 775 O 75.3781 -2.84882 2.83205 0
M  V30 776 N 73.5841 -1.56903 2.44602 0
M  V30 777 H 73.1311 -0.675547 2.48584 0
M  V30 778 H 73.0891 -2.35652 2.08124 0
M  V30 779 N 76.8612 -1.46375 0.584142 0
M  V30 780 C 77.7912 -2.33103 -0.136037 0
M  V30 781 C 78.7722 -1.45431 -0.882255 0
M  V30 782 O 79.9572 -1.74246 -0.857434 0
M  V30 783 C 77.0872 -3.27731 -1.14933 0
M  V30 784 C 76.0412 -4.24855 -0.517862 0
M  V30 785 C 75.3672 -5.09001 -1.63773 0
M  V30 786 C 76.6672 -5.19439 0.545886 0
M  V30 787 H 78.3612 -2.93568 0.588086 0
M  V30 788 H 75.9072 -1.41166 0.284259 0
M  V30 789 H 77.8602 -3.87261 -1.66153 0
M  V30 790 H 76.5842 -2.65377 -1.90375 0
M  V30 791 H 75.2432 -3.6659 -0.0267361 0
M  V30 792 H 74.8912 -4.43031 -2.38185 0
M  V30 793 H 74.5912 -5.74777 -1.22085 0
M  V30 794 H 76.1152 -5.71396 -2.15266 0
M  V30 795 H 77.5292 -5.73177 0.118704 0
M  V30 796 H 75.9262 -5.93566 0.88317 0
M  V30 797 H 76.9962 -4.63285 1.43162 0
M  V30 798 N 78.3393 -0.321999 -1.54275 0
M  V30 799 C 79.5853 0.281461 -2.00837 0
M  V30 800 C 79.9183 1.51909 -1.20985 0
M  V30 801 O 79.1933 1.923 -0.291733 0
M  V30 802 C 79.4763 0.617162 -3.54772 0
M  V30 803 C 79.3293 -0.631064 -4.45351 0
M  V30 804 C 80.6483 1.43542 -4.16033 0
M  V30 805 H 77.7673 0.100826 -0.730071 0
M  V30 806 H 80.4093 -0.438268 -1.84876 0
M  V30 807 H 78.5593 1.23034 -3.68504 0
M  V30 808 H 80.2313 -1.26934 -4.43492 0
M  V30 809 H 78.4743 -1.26025 -4.15091 0
M  V30 810 H 79.1453 -0.351735 -5.50878 0
M  V30 811 H 81.6213 0.917134 -4.05867 0
M  V30 812 H 80.4973 1.63907 -5.23856 0
M  V30 813 H 80.7583 2.43108 -3.69257 0
M  V30 814 N 79.8174 1.5752 -0.0501392 0
M  V30 815 C 80.7644 2.1147 0.924603 0
M  V30 816 C 81.7344 1.02182 1.30951 0
M  V30 817 O 82.9194 1.29723 1.39916 0
M  V30 818 C 80.0594 2.66337 2.19451 0
M  V30 819 C 79.1724 3.89708 1.86418 0
M  V30 820 C 78.3074 4.32893 3.07859 0
M  V30 821 C 77.3464 5.48967 2.70742 0
M  V30 822 N 76.4834 5.87211 3.84874 0
M  V30 823 H 81.3234 2.94465 0.457639 0
M  V30 824 H 78.8604 1.45531 0.214266 0
M  V30 825 H 80.8184 2.96247 2.93758 0
M  V30 826 H 79.4484 1.86141 2.63726 0
M  V30 827 H 78.5004 3.66396 1.02264 0
M  V30 828 H 79.8124 4.74074 1.55096 0
M  V30 829 H 78.9664 4.6435 3.90466 0
M  V30 830 H 77.7054 3.47336 3.42358 0
M  V30 831 H 76.7104 5.17183 1.86551 0
M  V30 832 H 77.9354 6.3624 2.37436 0
M  V30 833 H 75.8814 5.04607 4.19175 0
M  V30 834 H 75.7984 6.66266 3.57247 0
M  V30 835 H 77.0664 6.23282 4.68123 0
M  V30 836 N 81.2955 -0.223234 1.56011 0
M  V30 837 C 82.5415 -0.949279 1.79211 0
M  V30 838 C 82.8745 -1.84054 0.619494 0
M  V30 839 O 82.1495 -1.90726 -0.381317 0
M  V30 840 C 82.4325 -1.78965 3.12479 0
M  V30 841 C 82.2855 -0.924997 4.40186 0
M  V30 842 C 83.6045 -2.76774 3.42175 0
M  V30 843 H 80.7235 -0.343676 0.651963 0
M  V30 844 H 83.3655 -0.218253 1.88742 0
M  V30 845 H 81.5155 -2.41291 3.04485 0
M  V30 846 H 83.1875 -0.318615 4.60198 0
M  V30 847 H 81.4305 -0.230344 4.33188 0
M  V30 848 H 82.1015 -1.54735 5.29869 0
M  V30 849 H 84.5775 -2.24584 3.50287 0
M  V30 850 H 83.4535 -3.32678 4.36597 0
M  V30 851 H 83.7145 -3.54429 2.64258 0
M  V30 852 N 82.7736 -1.49793 -0.48987 0
M  V30 853 C 83.7206 -1.67281 -1.59014 0
M  V30 854 C 84.6906 -0.514177 -1.57941 0
M  V30 855 O 85.8756 -0.742533 -1.75759 0
M  V30 856 C 83.0156 -1.75569 -2.97102 0
M  V30 857 C 82.1286 -3.0281 -3.08107 0
M  V30 858 C 81.2636 -3.02008 -4.36995 0
M  V30 859 C 80.3026 -4.23782 -4.41673 0
M  V30 860 N 79.4396 -4.20826 -5.62005 0
M  V30 861 H 84.2796 -2.61224 -1.43409 0
M  V30 862 H 81.8166 -1.29508 -0.697565 0
M  V30 863 H 83.7746 -1.78354 -3.77155 0
M  V30 864 H 82.4046 -0.850827 -3.11385 0
M  V30 865 H 81.4566 -3.09584 -2.21047 0
M  V30 866 H 82.7686 -3.92801 -3.07423 0
M  V30 867 H 81.9226 -3.03418 -5.25378 0
M  V30 868 H 80.6616 -2.09815 -4.4026 0
M  V30 869 H 79.6666 -4.22604 -3.5169 0
M  V30 870 H 80.8916 -5.17181 -4.40115 0
M  V30 871 H 78.8376 -3.31476 -5.66091 0
M  V30 872 H 78.7546 -5.04564 -5.62984 0
M  V30 873 H 80.0226 -4.26355 -6.52565 0
M  V30 874 N 84.2517 0.741722 -1.39055 0
M  V30 875 C 85.1997 1.87702 -1.3737 0
M  V30 876 C 86.1937 1.67427 -0.257812 0
M  V30 877 O 87.3997 1.7485 -0.427489 0
M  V30 878 H 83.7747 0.617757 -0.428812 0
M  V30 879 H 85.7457 1.86239 -2.33147 0
M  V30 880 C 84.4947 3.25315 -1.22741 0
M  V30 881 H 83.8177 3.41509 -2.07873 0
M  V30 882 H 85.2577 4.04964 -1.25618 0
M  V30 883 C 83.7167 3.36838 0.0647316 0
M  V30 884 O 84.2467 3.88073 1.03741 0
M  V30 885 N 82.4527 2.90329 0.125544 0
M  V30 886 H 81.9997 2.48823 -0.666682 0
M  V30 887 H 81.9577 2.98418 0.989639 0
M  V30 888 N 85.7298 1.2412 0.971189 0
M  V30 889 C 86.6928 1.03156 2.04674 0
M  V30 890 C 87.6928 -0.00990322 1.60797 0
M  V30 891 O 88.8828 0.230729 1.72665 0
M  V30 892 C 86.0148 0.562765 3.36223 0
M  V30 893 H 87.2078 1.98614 2.24705 0
M  V30 894 H 84.7608 1.06293 1.14593 0
M  V30 895 H 85.4958 -0.395176 3.21883 0
M  V30 896 H 85.2808 1.31441 3.69413 0
M  V30 897 H 86.7708 0.437015 4.15307 0
M  V30 898 N 87.2079 -1.17134 1.05439 0
M  V30 899 C 88.1709 -2.19439 0.661764 0
M  V30 900 C 89.1709 -1.58199 -0.288042 0
M  V30 901 O 90.3609 -1.74053 -0.0715803 0
M  V30 902 C 87.4929 -3.40889 -0.0276209 0
M  V30 903 H 88.6859 -2.55688 1.56728 0
M  V30 904 H 86.2389 -1.31259 0.848567 0
M  V30 905 H 86.9739 -3.10187 -0.94629 0
M  V30 906 H 86.7589 -3.86586 0.655238 0
M  V30 907 H 88.2489 -4.16603 -0.288342 0
M  V30 908 N 88.686 -0.835752 -1.33615 0
M  V30 909 C 89.963 -0.352017 -1.92406 0
M  V30 910 C 90.343 1.16225 -1.76224 0
M  V30 911 O 89.691 1.97526 -1.14873 0
M  V30 912 C 89.901 -0.795485 -3.39813 0
M  V30 913 C 91.249 -0.801703 -4.16963 0
M  V30 914 O 92.273 -0.738889 -3.48452 0
M  V30 915 O 91.132 -0.886607 -5.3926 0
M  V30 916 H 88.226 -0.0989641 -0.821057 0
M  V30 917 H 90.772 -0.921397 -1.42507 0
M  V30 918 H 89.544 -1.83795 -3.45449 0
M  V30 919 H 89.167 -0.202505 -3.97084 0
M  V30 920 N 90.1641 1.46063 -0.591896 0
M  V30 921 C 91.4101 2.02638 -0.0811191 0
M  V30 922 C 91.7431 1.4613 1.27905 0
M  V30 923 O 91.0181 0.629908 1.84017 0
M  V30 924 C 91.3011 3.60091 -0.0252436 0
M  V30 925 C 91.1541 4.26965 -1.41496 0
M  V30 926 C 92.4731 4.3496 0.670685 0
M  V30 927 H 89.5921 0.73635 -0.0309524 0
M  V30 928 H 92.2341 1.741 -0.760859 0
M  V30 929 H 90.3841 3.84535 0.553624 0
M  V30 930 H 92.0561 4.13756 -2.0397 0
M  V30 931 H 90.2991 3.85971 -1.98011 0
M  V30 932 H 90.9701 5.35781 -1.32825 0
M  V30 933 H 93.4461 4.15716 0.178825 0
M  V30 934 H 92.3221 5.44686 0.678837 0
M  V30 935 H 92.5831 4.06685 1.73379 0
M  V30 936 N 91.6422 0.330177 1.54103 0
M  V30 937 C 92.8672 -0.274893 2.0557 0
M  V30 938 C 93.2922 -1.44487 1.20437 0
M  V30 939 O 92.6502 -1.80021 0.214991 0
M  V30 940 C 92.6982 -0.68079 3.54115 0
M  V30 941 O 91.8022 -1.7824 3.71893 0
M  V30 942 H 91.1432 -0.0483849 0.662235 0
M  V30 943 H 93.6732 0.480508 1.98878 0
M  V30 944 H 93.6832 -0.961635 3.96505 0
M  V30 945 H 92.3582 0.174903 4.15532 0
M  V30 946 H 90.9352 -1.49985 3.41407 0
M  V30 947 N 93.1203 -1.57491 0.0584922 0
M  V30 948 C 94.3663 -1.93264 -0.614558 0
M  V30 949 C 94.6993 -0.937717 -1.7006 0
M  V30 950 O 93.9743 0.0351652 -1.94468 0
M  V30 951 C 94.2573 -3.3938 -1.20386 0
M  V30 952 C 94.1103 -4.49625 -0.125375 0
M  V30 953 C 95.4293 -3.86039 -2.11334 0
M  V30 954 H 92.5483 -0.702791 -0.221933 0
M  V30 955 H 95.1903 -1.8961 0.12175 0
M  V30 956 H 93.3403 -3.42626 -1.83139 0
M  V30 957 H 95.0123 -4.58506 0.506971 0
M  V30 958 H 93.2553 -4.30354 0.545672 0
M  V30 959 H 93.9263 -5.48967 -0.577861 0
M  V30 960 H 96.4023 -3.84716 -1.58534 0
M  V30 961 H 95.2783 -4.88914 -2.49507 0
M  V30 962 H 95.5393 -3.23215 -3.01636 0
M  V30 963 N 94.5984 0.214957 -1.56127 0
M  V30 964 C 95.8234 0.95924 -1.83884 0
M  V30 965 C 96.2484 1.7689 -0.639644 0
M  V30 966 O 95.6064 1.76566 0.411601 0
M  V30 967 C 95.6544 1.84723 -3.09693 0
M  V30 968 O 94.7584 2.94346 -2.8885 0
M  V30 969 H 94.0994 0.27125 -0.606069 0
M  V30 970 H 96.6294 0.226276 -2.03345 0
M  V30 971 H 96.6394 2.25576 -3.39969 0
M  V30 972 H 95.3144 1.25218 -3.96602 0
M  V30 973 H 93.8914 2.57391 -2.69823 0
M  V30 974 N 96.0765 1.50051 0.48192 0
M  V30 975 C 97.3225 1.61706 1.2338 0
M  V30 976 C 97.6775 0.308488 1.89911 0
M  V30 977 O 96.9705 -0.692798 1.78636 0
M  V30 978 C 97.1645 2.72717 2.30998 0
M  V30 979 C 96.9935 4.14242 1.75024 0
M  V30 980 C 95.7635 4.80786 1.55476 0
M  V30 981 C 97.9615 4.98846 1.25128 0
M  V30 982 N 95.9435 6.06563 0.946311 0
M  V30 983 C 97.3145 6.15258 0.765382 0
M  V30 984 C 99.3695 4.84702 1.13881 0
M  V30 985 C 98.0725 7.19079 0.178113 0
M  V30 986 C 100.098 5.8869 0.565486 0
M  V30 987 C 99.4605 7.04343 0.0899105 0
M  V30 988 H 95.5595 0.645958 0.440753 0
M  V30 989 H 98.1435 1.8713 0.537624 0
M  V30 990 H 96.3145 2.49033 2.98055 0
M  V30 991 H 98.0465 2.73789 2.9803 0
M  V30 992 H 94.8015 4.37899 1.80392 0
M  V30 993 H 95.2255 6.73767 0.660812 0
M  V30 994 H 99.8675 3.95583 1.49244 0
M  V30 995 H 97.5855 8.07882 -0.187749 0
M  V30 996 H 101.171 5.79808 0.480974 0
M  V30 997 H 100.051 7.83433 -0.346782 0
M  V30 998 N 97.5546 -0.734337 1.39446 0
M  V30 999 C 98.5026 -1.86971 1.38364 0
M  V30 1000 C 99.4966 -1.67288 0.266687 0
M  V30 1001 O 100.703 -1.74621 0.436755 0
M  V30 1002 H 97.0776 -0.615474 0.432082 0
M  V30 1003 H 99.0486 -1.85 2.34132 0
M  V30 1004 C 97.7976 -3.2466 1.24465 0
M  V30 1005 H 97.1206 -3.40402 2.09682 0
M  V30 1006 H 98.5606 -4.04292 1.27764 0
M  V30 1007 C 97.0196 -3.36867 -0.0468674 0
M  V30 1008 O 97.5496 -3.88618 -1.01681 0
M  V30 1009 N 95.7556 -2.90391 -0.110145 0
M  V30 1010 H 95.3026 -2.48466 0.679868 0
M  V30 1011 H 95.2606 -2.98939 -0.973799 0
M  V30 1012 N 99.0327 -1.24633 -0.964593 0
M  V30 1013 C 99.9627 -1.06611 -2.07741 0
M  V30 1014 C 100.944 0.0218666 -1.70086 0
M  V30 1015 O 102.129 -0.145793 -1.93652 0
M  V30 1016 C 99.2587 -0.673444 -3.40708 0
M  V30 1017 C 98.2127 -1.71054 -3.92332 0
M  V30 1018 C 97.5387 -1.17285 -5.21678 0
M  V30 1019 C 98.8387 -3.10718 -4.19824 0
M  V30 1020 H 100.533 -1.99693 -2.23076 0
M  V30 1021 H 98.0787 -0.96152 -1.07195 0
M  V30 1022 H 100.032 -0.534345 -4.17998 0
M  V30 1023 H 98.7557 0.293073 -3.25282 0
M  V30 1024 H 97.4147 -1.83791 -3.17201 0
M  V30 1025 H 97.0627 -0.196847 -5.02615 0
M  V30 1026 H 96.7627 -1.86592 -5.57187 0
M  V30 1027 H 98.2867 -1.04593 -6.01575 0
M  V30 1028 H 99.7007 -3.01192 -4.87808 0
M  V30 1029 H 98.0977 -3.77406 -4.66567 0
M  V30 1030 H 99.1677 -3.58524 -3.26479 0
M  V30 1031 N 100.511 1.16574 -1.06058 0
M  V30 1032 C 101.757 1.87565 -0.78683 0
M  V30 1033 C 102.112 1.80012 0.679214 0
M  V30 1034 O 101.405 1.20327 1.49104 0
M  V30 1035 C 101.599 3.36195 -1.21275 0
M  V30 1036 C 101.428 3.58216 -2.71866 0
M  V30 1037 C 100.198 3.7444 -3.39298 0
M  V30 1038 C 102.396 3.57134 -3.70081 0
M  V30 1039 N 100.378 3.84389 -4.78663 0
M  V30 1040 C 101.749 3.73038 -4.9522 0
M  V30 1041 C 103.804 3.40332 -3.63426 0
M  V30 1042 C 102.507 3.73879 -6.14497 0
M  V30 1043 C 104.533 3.42466 -4.82153 0
M  V30 1044 C 103.895 3.58887 -6.06118 0
M  V30 1045 H 99.9938 0.704081 -0.340284 0
M  V30 1046 H 102.578 1.39885 -1.35426 0
M  V30 1047 H 100.749 3.82522 -0.673179 0
M  V30 1048 H 102.481 3.94839 -0.887917 0
M  V30 1049 H 99.2358 3.74662 -2.89699 0
M  V30 1050 H 99.6598 3.93138 -5.51155 0
M  V30 1051 H 104.302 3.26566 -2.68541 0
M  V30 1052 H 102.02 3.86427 -7.09718 0
M  V30 1053 H 105.606 3.30712 -4.78666 0
M  V30 1054 H 104.486 3.60454 -6.9645 0
M  V30 1055 N 101.989 0.842826 1.3317 0
M  V30 1056 C 102.937 0.267495 2.31057 0
M  V30 1057 C 103.931 -0.602682 1.58316 0
M  V30 1058 O 105.137 -0.491803 1.73151 0
M  V30 1059 H 101.512 0.0677813 0.748939 0
M  V30 1060 H 103.483 1.10754 2.77085 0
M  V30 1061 C 102.232 -0.539331 3.43492 0
M  V30 1062 H 101.555 0.12095 3.99617 0
M  V30 1063 H 102.995 -0.90767 4.14171 0
M  V30 1064 C 101.454 -1.71981 2.89697 0
M  V30 1065 O 101.984 -2.81862 2.86211 0
M  V30 1066 N 100.19 -1.54299 2.46252 0
M  V30 1067 H 99.7369 -0.649143 2.49287 0
M  V30 1068 H 99.6949 -2.33431 2.10612 0
M  V30 1069 N 103.467 -1.45747 0.599634 0
M  V30 1070 C 104.715 -2.01893 0.0915472 0
M  V30 1071 C 105.036 -1.47155 -1.27946 0
M  V30 1072 O 104.306 -0.66273 -1.84349 0
M  V30 1073 H 102.886 -0.746363 0.0308524 0
M  V30 1074 H 105.548 -1.78645 0.779237 0
M  V30 1075 H 104.644 -3.1208 0.0353086 0
M  V30 1076 N 104.945 -0.338344 -1.53925 0
M  V30 1077 C 106.222 0.314774 -1.93051 0
M  V30 1078 C 106.602 1.68669 -1.26941 0
M  V30 1079 O 105.95 2.24636 -0.418445 0
M  V30 1080 C 106.16 0.392249 -3.46789 0
M  V30 1081 C 107.508 0.645554 -4.19664 0
M  V30 1082 O 108.532 0.474575 -3.53024 0
M  V30 1083 O 107.391 0.976408 -5.37707 0
M  V30 1084 H 104.485 0.182598 -0.80659 0
M  V30 1085 H 107.031 -0.389141 -1.65178 0
M  V30 1086 H 105.803 -0.570702 -3.87116 0
M  V30 1087 H 105.426 1.14316 -3.80812 0
M  V30 1088 N 106.423 1.57458 -0.0668435 0
M  V30 1089 C 107.386 2.11323 0.887422 0
M  V30 1090 C 108.386 1.03618 1.22964 0
M  V30 1091 O 109.576 1.29626 1.16373 0
M  V30 1092 C 106.708 2.61048 2.19242 0
M  V30 1093 H 107.901 2.96942 0.420194 0
M  V30 1094 H 105.454 1.55239 0.181793 0
M  V30 1095 H 106.189 1.78868 2.70512 0
M  V30 1096 H 105.974 3.39769 1.95702 0
M  V30 1097 H 107.464 3.02814 2.87565 0
M  V30 1098 N 107.901 -0.206675 1.56239 0
M  V30 1099 C 109.149 -0.927007 1.79586 0
M  V30 1100 C 109.47 -1.8427 0.637929 0
M  V30 1101 O 108.74 -1.92849 -0.344398 0
M  V30 1102 H 107.32 -0.345292 0.662407 0
M  V30 1103 H 109.982 -0.21496 1.93711 0
M  V30 1104 H 109.078 -1.52501 2.72305 0
M  V30 1105 N 109.379 -1.50304 -0.473955 0
M  V30 1106 C 110.607 -1.64902 -1.24959 0
M  V30 1107 C 111.022 -0.331198 -1.85872 0
M  V30 1108 O 110.379 0.68652 -1.69095 0
M  V30 1109 C 110.43 -2.73803 -2.36038 0
M  V30 1110 O 110.151 -4.00477 -1.77624 0
M  V30 1111 C 111.652 -2.99349 -3.26964 0
M  V30 1112 H 108.872 -0.554383 -0.378022 0
M  V30 1113 H 111.416 -1.9651 -0.566054 0
M  V30 1114 H 109.571 -2.44898 -3.00173 0
M  V30 1115 H 109.985 -4.60678 -2.5075 0
M  V30 1116 H 111.459 -3.79217 -4.01121 0
M  V30 1117 H 111.936 -2.10307 -3.85574 0
M  V30 1118 H 112.542 -3.29774 -2.68569 0
M  V30 1119 N 110.857 0.726932 -1.39834 0
M  V30 1120 C 112.085 1.51613 -1.40787 0
M  V30 1121 C 112.5 1.88799 -0.00451505 0
M  V30 1122 O 111.857 1.54662 0.968809 0
M  V30 1123 C 111.908 2.79863 -2.28821 0
M  V30 1124 O 111.629 2.44253 -3.63692 0
M  V30 1125 C 113.13 3.73837 -2.38245 0
M  V30 1126 H 110.35 0.468264 -0.480593 0
M  V30 1127 H 112.894 0.897607 -1.83748 0
M  V30 1128 H 111.049 3.38027 -1.89252 0
M  V30 1129 H 111.463 3.26695 -4.1033 0
M  V30 1130 H 112.937 4.60699 -3.04073 0
M  V30 1131 H 113.414 4.16153 -1.40403 0
M  V30 1132 H 114.02 3.21589 -2.78317 0
M  V30 1133 N 112.336 1.25143 0.95797 0
M  V30 1134 C 113.299 1.05321 2.03569 0
M  V30 1135 C 114.299 0.007152 1.60798 0
M  V30 1136 O 115.489 0.24903 1.72411 0
M  V30 1137 C 112.621 0.598394 3.35607 0
M  V30 1138 H 113.814 2.00986 2.22586 0
M  V30 1139 H 111.367 1.07502 1.13459 0
M  V30 1140 H 112.102 -0.361014 3.22284 0
M  V30 1141 H 111.887 1.35351 3.67998 0
M  V30 1142 H 113.377 0.48104 4.1482 0
M  V30 1143 N 113.814 -1.1601 1.06675 0
M  V30 1144 C 114.761 -2.20525 0.680967 0
M  V30 1145 C 115.731 -1.62904 -0.324283 0
M  V30 1146 O 116.916 -1.89615 -0.212294 0
M  V30 1147 C 114.056 -3.45013 0.0776551 0
M  V30 1148 C 113.169 -4.16863 1.13355 0
M  V30 1149 C 112.304 -5.2888 0.49597 0
M  V30 1150 C 111.343 -5.92537 1.53513 0
M  V30 1151 N 110.48 -6.96038 0.920631 0
M  V30 1152 H 115.32 -2.52876 1.57663 0
M  V30 1153 H 112.857 -1.24199 0.788223 0
M  V30 1154 H 114.815 -4.16193 -0.289704 0
M  V30 1155 H 113.445 -3.132 -0.781393 0
M  V30 1156 H 112.497 -3.44248 1.61857 0
M  V30 1157 H 113.809 -4.60294 1.92174 0
M  V30 1158 H 112.963 -6.06653 0.0758604 0
M  V30 1159 H 111.702 -4.86622 -0.324062 0
M  V30 1160 H 110.707 -5.13482 1.9651 0
M  V30 1161 H 111.932 -6.36873 2.35733 0
M  V30 1162 H 109.878 -6.55888 0.12138 0
M  V30 1163 H 109.795 -7.3786 1.64616 0
M  V30 1164 H 111.063 -7.77725 0.525795 0
M  V30 1165 N 115.292 -0.849877 -1.32721 0
M  V30 1166 C 116.541 -0.447175 -1.96681 0
M  V30 1167 C 116.854 1.00135 -1.68025 0
M  V30 1168 O 118.06 1.50926 -2.25685 0
M  V30 1169 C 116.516 -0.7487 -3.52026 0
M  V30 1170 C 116.124 -2.21264 -3.89546 0
M  V30 1171 C 117.868 -0.413487 -4.22481 0
M  V30 1172 C 115.775 -2.45763 -5.37917 0
M  V30 1173 H 114.705 -0.163486 -0.736063 0
M  V30 1174 H 117.356 -1.03999 -1.51183 0
M  V30 1175 H 115.738 -0.0853727 -3.95908 0
M  V30 1176 H 116.912 -2.91736 -3.56689 0
M  V30 1177 H 115.227 -2.5119 -3.32103 0
M  V30 1178 H 117.824 -0.574017 -5.3161 0
M  V30 1179 H 118.167 0.644492 -4.11281 0
M  V30 1180 H 118.7 -1.03251 -3.84167 0
M  V30 1181 H 115.439 -3.50168 -5.54132 0
M  V30 1182 H 114.959 -1.79864 -5.72197 0
M  V30 1183 H 116.638 -2.29471 -6.0494 0
M  V30 1184 N 116.77 1.45427 -0.607355 0
M  V30 1185 C 117.7 2.3329 0.0989352 0
M  V30 1186 C 118.681 1.46816 0.859007 0
M  V30 1187 O 119.866 1.75588 0.829604 0
M  V30 1188 C 116.996 3.29518 1.09705 0
M  V30 1189 C 115.95 4.25626 0.450206 0
M  V30 1190 C 115.276 5.11542 1.55655 0
M  V30 1191 C 116.576 5.18505 -0.628455 0
M  V30 1192 H 118.27 2.92595 -0.634716 0
M  V30 1193 H 115.816 1.40696 -0.306681 0
M  V30 1194 H 117.769 3.89855 1.59971 0
M  V30 1195 H 116.493 2.68372 1.86129 0
M  V30 1196 H 115.152 3.66586 -0.0315886 0
M  V30 1197 H 114.8 4.46765 2.31107 0
M  V30 1198 H 114.5 5.76647 1.12925 0
M  V30 1199 H 116.024 5.74748 2.06148 0
M  V30 1200 H 117.438 5.72916 -0.209877 0
M  V30 1201 H 115.835 5.92085 -0.977489 0
M  V30 1202 H 116.905 4.60948 -1.50514 0
M  V30 1203 N 118.248 0.346503 1.53744 0
M  V30 1204 C 119.178 -0.501193 2.28058 0
M  V30 1205 C 120.159 -1.10014 1.29734 0
M  V30 1206 O 121.344 -1.12097 1.58581 0
M  V30 1207 C 118.474 -1.65078 3.05559 0
M  V30 1208 C 117.428 -1.18003 4.11411 0
M  V30 1209 C 116.754 -2.41837 4.76884 0
M  V30 1210 C 118.054 -0.278394 5.21558 0
M  V30 1211 H 119.748 0.11875 2.99164 0
M  V30 1212 H 117.294 0.0585531 1.43881 0
M  V30 1213 H 119.247 -2.25028 3.56287 0
M  V30 1214 H 117.971 -2.29767 2.32109 0
M  V30 1215 H 116.63 -0.603331 3.61601 0
M  V30 1216 H 116.278 -3.0494 4.00026 0
M  V30 1217 H 115.978 -2.1102 5.48402 0
M  V30 1218 H 117.502 -3.02508 5.30397 0
M  V30 1219 H 118.916 -0.784823 5.67903 0
M  V30 1220 H 117.313 -0.0619707 6.00068 0
M  V30 1221 H 118.383 0.684677 4.80042 0
M  V30 1222 N 119.726 -1.57421 0.075193 0
M  V30 1223 C 120.674 -2.14124 -0.908508 0
M  V30 1224 C 121.668 -1.07898 -1.30592 0
M  V30 1225 O 122.874 -1.26273 -1.28277 0
M  V30 1226 H 119.249 -0.684707 -0.310935 0
M  V30 1227 H 121.22 -2.95634 -0.405374 0
M  V30 1228 C 119.969 -2.72044 -2.16535 0
M  V30 1229 H 119.292 -3.53456 -1.86839 0
M  V30 1230 H 120.732 -3.15311 -2.83469 0
M  V30 1231 C 119.191 -1.66968 -2.92615 0
M  V30 1232 O 119.721 -1.0967 -3.86439 0
M  V30 1233 N 117.927 -1.37923 -2.55784 0
M  V30 1234 H 117.474 -1.84706 -1.79559 0
M  V30 1235 H 117.432 -0.67852 -3.06991 0
M  V30 1236 N 121.204 0.198386 -1.56346 0
M  V30 1237 C 122.452 0.91747 -1.80075 0
M  V30 1238 C 122.773 1.83929 -0.647692 0
M  V30 1239 O 122.043 1.93029 0.334166 0
M  V30 1240 H 120.623 0.341774 -0.664228 0
M  V30 1241 H 123.285 0.204684 -1.93822 0
M  V30 1242 H 122.381 1.51055 -2.7311 0
M  V30 1243 N 122.682 1.50554 0.465978 0
M  V30 1244 C 123.629 1.6979 1.56333 0
M  V30 1245 C 124.599 0.539239 1.57103 0
M  V30 1246 O 125.784 0.770401 1.74555 0
M  V30 1247 C 122.924 1.80273 2.94271 0
M  V30 1248 C 122.037 3.07674 3.0325 0
M  V30 1249 C 121.172 3.08922 4.32135 0
M  V30 1250 C 120.211 4.30755 4.34875 0
M  V30 1251 N 119.348 4.29714 5.55239 0
M  V30 1252 H 124.188 2.63472 1.39235 0
M  V30 1253 H 121.725 1.30602 0.676873 0
M  V30 1254 H 123.683 1.84332 3.74269 0
M  V30 1255 H 122.313 0.900258 3.09992 0
M  V30 1256 H 121.365 3.13062 2.16094 0
M  V30 1257 H 122.677 3.97642 3.01135 0
M  V30 1258 H 121.831 3.11738 5.20485 0
M  V30 1259 H 120.57 2.16792 4.36866 0
M  V30 1260 H 119.575 4.28146 3.44922 0
M  V30 1261 H 120.8 5.24117 4.31831 0
M  V30 1262 H 118.746 3.4044 5.60746 0
M  V30 1263 H 118.663 5.13456 5.54886 0
M  V30 1264 H 119.931 4.36683 6.457 0
M  V30 1265 N 124.16 -0.719506 1.40217 0
M  V30 1266 C 125.07 -1.86378 1.42479 0
M  V30 1267 C 126.086 -1.71073 0.317834 0
M  V30 1268 O 127.262 -1.93406 0.561794 0
M  V30 1269 C 124.327 -3.22136 1.28178 0
M  V30 1270 C 123.388 -3.49723 2.48982 0
M  V30 1271 C 122.621 -4.79004 2.35353 0
M  V30 1272 O 122.844 -5.53821 1.36524 0
M  V30 1273 O 121.778 -5.06839 3.2465 0
M  V30 1274 H 125.604 -1.87425 2.38968 0
M  V30 1275 H 123.189 -0.869405 1.21498 0
M  V30 1276 H 125.071 -4.03234 1.22395 0
M  V30 1277 H 123.746 -3.21825 0.347934 0
M  V30 1278 H 122.653 -2.6865 2.60342 0
M  V30 1279 H 123.986 -3.54828 3.41113 0
M  V30 1280 N 125.638 -1.25649 -0.95132 0
M  V30 1281 C 126.601 -1.06399 -2.03007 0
M  V30 1282 C 127.601 -0.0156794 -1.60792 0
M  V30 1283 O 128.791 -0.25817 -1.72276 0
M  V30 1284 C 125.923 -0.616184 -3.35285 0
M  V30 1285 H 127.116 -2.02164 -2.21517 0
M  V30 1286 H 124.669 -1.08103 -1.12887 0
M  V30 1287 H 125.404 0.343917 -3.22471 0
M  V30 1288 H 125.189 -1.37301 -3.67275 0
M  V30 1289 H 126.679 -0.503032 -4.14559 0
M  V30 1290 N 127.117 1.15442 -1.07289 0
M  V30 1291 C 128.363 1.8672 -0.806679 0
M  V30 1292 C 128.718 1.80723 0.660084 0
M  V30 1293 O 128.011 1.21902 1.47819 0
M  V30 1294 C 128.205 3.3489 -1.24834 0
M  V30 1295 C 128.034 3.55313 -2.7565 0
M  V30 1296 C 126.804 3.7082 -3.4325 0
M  V30 1297 C 129.002 3.53188 -3.73848 0
M  V30 1298 N 126.984 3.7929 -4.82713 0
M  V30 1299 C 128.355 3.67765 -4.99149 0
M  V30 1300 C 130.41 3.36459 -3.67015 0
M  V30 1301 C 129.113 3.6734 -6.18428 0
M  V30 1302 C 131.139 3.37333 -4.85758 0
M  V30 1303 C 130.501 3.52438 -6.09891 0
M  V30 1304 H 126.6 0.700433 -0.347733 0
M  V30 1305 H 129.184 1.38441 -1.36902 0
M  V30 1306 H 127.355 3.81786 -0.713713 0
M  V30 1307 H 129.087 3.93875 -0.929745 0
M  V30 1308 H 125.842 3.71568 -2.93656 0
M  V30 1309 H 126.266 3.8727 -5.55294 0
M  V30 1310 H 130.908 3.237 -2.71989 0
M  V30 1311 H 128.626 3.78878 -7.13777 0
M  V30 1312 H 132.212 3.25617 -4.82146 0
M  V30 1313 H 131.092 3.53047 -7.00234 0
M  V30 1314 N 128.595 0.856903 1.32268 0
M  V30 1315 C 129.82 0.474569 2.01897 0
M  V30 1316 C 130.245 -0.921766 1.63967 0
M  V30 1317 O 129.603 -1.60589 0.84148 0
M  V30 1318 C 129.651 0.623799 3.55164 0
M  V30 1319 O 128.755 -0.342459 4.10976 0
M  V30 1320 H 128.096 0.190422 0.63611 0
M  V30 1321 H 130.626 1.15672 1.68764 0
M  V30 1322 H 130.636 0.512169 4.04773 0
M  V30 1323 H 129.311 1.64202 3.82113 0
M  V30 1324 H 127.888 -0.18688 3.72431 0
M  V30 1325 N 130.073 -1.45103 0.615059 0
M  V30 1326 C 131.321 -2.01784 0.112955 0
M  V30 1327 C 131.642 -1.48504 -1.26378 0
M  V30 1328 O 130.912 -0.682245 -1.83636 0
M  V30 1329 H 129.492 -0.745993 0.0387668 0
M  V30 1330 H 132.154 -1.77808 0.798141 0
M  V30 1331 H 131.25 -3.12025 0.0684069 0
M  V30 1332 N 131.551 -0.354651 -1.53558 0
M  V30 1333 C 132.962 0.126902 -1.86268 0
M  V30 1334 C 133.313 1.49075 -1.27558 0
M  V30 1335 O 132.438 2.08105 -0.5934 0
M  V30 1336 C 133.033 0.237046 -3.3797 0
M  V30 1337 C 131.592 0.662842 -3.70518 0
M  V30 1338 C 130.739 -0.196652 -2.76602 0
M  V30 1339 H 133.69 -0.573849 -1.47962 0
M  V30 1340 H 133.711 1.06259 -3.65362 0
M  V30 1341 H 133.223 -0.755725 -3.80671 0
M  V30 1342 H 131.324 1.66424 -3.33367 0
M  V30 1343 H 131.437 0.445034 -4.77029 0
M  V30 1344 H 129.801 0.332763 -2.52517 0
M  V30 1345 H 130.584 -1.18676 -3.22135 0
M  V30 1346 N 133.029 1.57378 -0.0835403 0
M  V30 1347 C 134.254 1.98682 0.594987 0
M  V30 1348 C 134.679 0.961969 1.61641 0
M  V30 1349 O 134.037 -0.0709989 1.81161 0
M  V30 1350 C 134.085 3.38988 1.2296 0
M  V30 1351 O 133.189 3.39208 2.34546 0
M  V30 1352 H 132.53 0.646368 0.152002 0
M  V30 1353 H 135.06 2.03961 -0.161533 0
M  V30 1354 H 135.07 3.76431 1.57366 0
M  V30 1355 H 133.745 4.13107 0.481228 0
M  V30 1356 H 132.322 3.13548 2.01846 0
M  V30 1357 N 134.507 -0.190092 1.56449 0
M  V30 1358 C 135.735 -0.925772 1.85033 0
M  V30 1359 C 136.15 -1.76638 0.666658 0
M  V30 1360 O 135.507 -1.78822 -0.364565 0
M  V30 1361 C 135.558 -1.81786 3.12468 0
M  V30 1362 O 135.279 -1.01118 4.26271 0
M  V30 1363 C 136.78 -2.6648 3.54265 0
M  V30 1364 H 134 -0.269872 0.614337 0
M  V30 1365 H 136.544 -0.195837 2.0356 0
M  V30 1366 H 134.699 -2.50136 2.95822 0
M  V30 1367 H 135.113 -1.61956 4.98869 0
M  V30 1368 H 136.587 -3.24722 4.46385 0
M  V30 1369 H 137.064 -3.40434 2.77491 0
M  V30 1370 H 137.67 -2.03493 3.73458 0
M  V30 1371 N 135.985 -1.50799 -0.457987 0
M  V30 1372 C 137.233 -1.62121 -1.2067 0
M  V30 1373 C 137.554 -0.329793 -1.92191 0
M  V30 1374 O 136.824 0.653409 -1.84682 0
M  V30 1375 H 135.404 -0.597441 -0.448411 0
M  V30 1376 H 138.066 -1.87637 -0.527096 0
M  V30 1377 H 137.162 -2.43882 -1.94751 0
M  V30 1378 N 137.463 0.71206 -1.40597 0
M  V30 1379 C 138.688 1.50617 -1.42581 0
M  V30 1380 C 139.113 1.88079 -0.0282102 0
M  V30 1381 O 138.471 1.53511 0.964579 0
M  V30 1382 C 138.519 2.7557 -2.3258 0
M  V30 1383 O 137.623 3.72414 -1.77148 0
M  V30 1384 H 136.964 0.453966 -0.484573 0
M  V30 1385 H 139.494 0.876649 -1.84868 0
M  V30 1386 H 139.504 3.2406 -2.47889 0
M  V30 1387 H 138.179 2.47639 -3.34138 0
M  V30 1388 H 136.756 3.31276 -1.71204 0
M  V30 1389 N 138.941 1.26152 0.944643 0
M  V30 1390 C 140.166 1.14363 1.7302 0
M  V30 1391 C 140.591 -0.29772 1.85729 0
M  V30 1392 O 139.949 -1.2157 1.34501 0
M  V30 1393 C 139.997 1.81378 3.11664 0
M  V30 1394 O 139.101 1.10022 3.97453 0
M  V30 1395 H 138.442 0.398694 0.53098 0
M  V30 1396 H 140.972 1.66906 1.18337 0
M  V30 1397 H 140.982 1.88064 3.62072 0
M  V30 1398 H 139.657 2.86237 3.0173 0
M  V30 1399 H 138.234 1.11287 3.55907 0
M  V30 1400 N 140.419 -1.14872 1.07899 0
M  V30 1401 C 141.667 -1.85422 0.803941 0
M  V30 1402 C 141.988 -1.83051 -0.67211 0
M  V30 1403 O 141.258 -1.27532 -1.48703 0
M  V30 1404 H 139.838 -0.686537 0.294408 0
M  V30 1405 H 142.5 -1.39226 1.3639 0
M  V30 1406 H 141.596 -2.90399 1.14346 0
M  V30 1407 N 141.898 -0.863906 -1.31812 0
M  V30 1408 C 143.126 -0.486111 -2.01108 0
M  V30 1409 C 143.541 0.919755 -1.64882 0
M  V30 1410 O 142.898 1.60162 -0.874893 0
M  V30 1411 C 142.949 -0.626435 -3.56031 0
M  V30 1412 O 142.67 -1.97693 -3.90959 0
M  V30 1413 C 144.171 -0.248857 -4.42601 0
M  V30 1414 H 141.391 -0.190052 -0.643523 0
M  V30 1415 H 143.935 -1.1634 -1.68182 0
M  V30 1416 H 142.09 0.00322717 -3.874 0
M  V30 1417 H 142.504 -1.98034 -4.85678 0
M  V30 1418 H 143.978 -0.398016 -5.50563 0
M  V30 1419 H 144.455 0.811489 -4.31638 0
M  V30 1420 H 145.061 -0.853971 -4.16638 0
M  V30 1421 N 143.376 1.44774 -0.622745 0
M  V30 1422 C 144.339 2.29069 0.0774015 0
M  V30 1423 C 145.339 1.4059 0.780461 0
M  V30 1424 O 146.529 1.62551 0.626322 0
M  V30 1425 C 143.661 3.21974 1.12006 0
M  V30 1426 H 144.854 2.92459 -0.663901 0
M  V30 1427 H 142.407 1.51548 -0.382486 0
M  V30 1428 H 143.142 2.63417 1.89162 0
M  V30 1429 H 142.927 3.87168 0.619951 0
M  V30 1430 H 144.417 3.85318 1.60995 0
M  V30 1431 N 144.854 0.36279 1.53368 0
M  V30 1432 C 145.802 -0.500155 2.27159 0
M  V30 1433 C 146.796 -1.08575 1.3003 0
M  V30 1434 O 148.002 -1.02927 1.47668 0
M  V30 1435 H 144.377 -0.180009 0.730138 0
M  V30 1436 H 146.348 0.14401 2.98052 0
M  V30 1437 C 145.097 -1.62937 3.07159 0
M  V30 1438 H 144.42 -1.18806 3.8174 0
M  V30 1439 H 145.86 -2.20795 3.61975 0
M  V30 1440 C 144.319 -2.57007 2.17829 0
M  V30 1441 O 144.849 -3.59752 1.78721 0
M  V30 1442 N 143.055 -2.26131 1.82518 0
M  V30 1443 H 142.602 -1.42616 2.14519 0
M  V30 1444 H 142.56 -2.89327 1.23034 0
M  V30 1445 N 146.332 -1.57332 0.0918853 0
M  V30 1446 C 147.579 -1.94236 -0.572577 0
M  V30 1447 C 147.907 -0.973398 -1.6839 0
M  V30 1448 O 147.162 0.00756912 -1.95699 0
M  V30 1449 C 147.461 -3.37689 -1.17051 0
M  V30 1450 C 147.127 -4.50527 -0.183304 0
M  V30 1451 C 145.789 -4.81119 0.0882276 0
M  V30 1452 C 148.141 -5.18883 0.49095 0
M  V30 1453 C 145.469 -5.77395 1.04076 0
M  V30 1454 C 147.821 -6.1618 1.43193 0
M  V30 1455 C 146.485 -6.45179 1.71173 0
M  V30 1456 H 145.755 -0.710762 -0.209521 0
M  V30 1457 H 148.402 -1.9077 0.167036 0
M  V30 1458 H 146.707 -3.37718 -1.9863 0
M  V30 1459 H 148.404 -3.63543 -1.69227 0
M  V30 1460 H 144.994 -4.26681 -0.405124 0
M  V30 1461 H 149.178 -4.95427 0.294312 0
M  V30 1462 H 144.434 -5.98179 1.26457 0
M  V30 1463 H 148.608 -6.68243 1.96023 0
M  V30 1464 H 146.235 -7.1959 2.4514 0
M  V30 1465 N 147.81 0.181792 -1.56548 0
M  V30 1466 C 148.757 1.22521 -1.95595 0
M  V30 1467 C 149.727 1.4454 -0.818373 0
M  V30 1468 O 150.912 1.57454 -1.07763 0
M  V30 1469 C 148.052 2.56193 -2.31212 0
M  V30 1470 C 147.165 2.41641 -3.58097 0
M  V30 1471 C 146.3 3.68108 -3.82975 0
M  V30 1472 C 145.339 3.48445 -5.03242 0
M  V30 1473 N 144.476 4.66956 -5.24306 0
M  V30 1474 H 149.316 0.885226 -2.84548 0
M  V30 1475 H 146.853 0.425718 -1.40805 0
M  V30 1476 H 148.811 3.34088 -2.49882 0
M  V30 1477 H 147.441 2.88208 -1.45382 0
M  V30 1478 H 146.493 1.54976 -3.474 0
M  V30 1479 H 147.805 2.23052 -4.46149 0
M  V30 1480 H 146.959 4.54441 -4.01956 0
M  V30 1481 H 145.698 3.89666 -2.93278 0
M  V30 1482 H 144.703 2.60499 -4.8417 0
M  V30 1483 H 145.928 3.2832 -5.9446 0
M  V30 1484 H 143.874 4.88752 -4.37559 0
M  V30 1485 H 143.791 4.51242 -6.06561 0
M  V30 1486 H 145.059 5.54602 -5.47756 0
M  V30 1487 N 149.288 1.51039 0.449983 0
M  V30 1488 C 150.534 1.63322 1.20223 0
M  V30 1489 C 150.867 0.34241 1.91158 0
M  V30 1490 O 150.142 -0.657344 1.83055 0
M  V30 1491 C 150.425 2.82801 2.22925 0
M  V30 1492 C 150.278 4.21823 1.56157 0
M  V30 1493 C 151.597 2.97807 3.24035 0
M  V30 1494 H 148.716 0.594407 0.435718 0
M  V30 1495 H 151.358 1.83489 0.493136 0
M  V30 1496 H 149.508 2.65738 2.834 0
M  V30 1497 H 151.18 4.50526 0.991162 0
M  V30 1498 H 149.423 4.25105 0.864172 0
M  V30 1499 H 150.094 5.01391 2.30891 0
M  V30 1500 H 152.57 3.13497 2.73603 0
M  V30 1501 H 151.446 3.82992 3.93202 0
M  V30 1502 H 151.707 2.09328 3.89402 0
M  V30 1503 N 150.766 -0.704594 1.40972 0
M  V30 1504 C 151.714 -1.83994 1.42299 0
M  V30 1505 C 152.708 -1.66684 0.302111 0
M  V30 1506 O 153.914 -1.73655 0.473697 0
M  V30 1507 H 150.289 -0.606171 0.44504 0
M  V30 1508 H 152.26 -1.79992 2.38003 0
M  V30 1509 C 151.009 -3.21946 1.31323 0
M  V30 1510 H 150.332 -3.35878 2.16855 0
M  V30 1511 H 151.772 -4.01491 1.36311 0
M  V30 1512 C 150.231 -3.36891 0.0245977 0
M  V30 1513 O 150.761 -3.90687 -0.934153 0
M  V30 1514 N 148.967 -2.90559 -0.0485243 0
M  V30 1515 H 148.514 -2.46968 0.732419 0
M  V30 1516 H 148.472 -3.00937 -0.910171 0
M  V30 1517 N 152.244 -1.26651 -0.937939 0
M  V30 1518 C 153.191 -1.0849 -2.03712 0
M  V30 1519 C 154.161 0.011033 -1.66096 0
M  V30 1520 O 155.346 -0.149353 -1.90215 0
M  V30 1521 C 152.486 -0.72735 -3.37348 0
M  V30 1522 C 151.599 -1.89986 -3.87981 0
M  V30 1523 C 150.734 -1.48513 -5.10017 0
M  V30 1524 C 149.773 -2.62575 -5.5292 0
M  V30 1525 N 148.91 -2.21762 -6.66158 0
M  V30 1526 H 153.75 -2.02551 -2.18579 0
M  V30 1527 H 151.287 -1.00844 -1.07093 0
M  V30 1528 H 153.245 -0.50092 -4.14182 0
M  V30 1529 H 151.875 0.176298 -3.22318 0
M  V30 1530 H 150.927 -2.23913 -3.07518 0
M  V30 1531 H 152.239 -2.75586 -4.15757 0
M  V30 1532 H 151.393 -1.21934 -5.94321 0
M  V30 1533 H 150.132 -0.60009 -4.83994 0
M  V30 1534 H 149.137 -2.8988 -4.67172 0
M  V30 1535 H 150.362 -3.51685 -5.80943 0
M  V30 1536 H 148.308 -1.35696 -6.41812 0
M  V30 1537 H 148.225 -3.00903 -6.93537 0
M  V30 1538 H 149.493 -1.98403 -7.53828 0
M  V30 1539 N 153.722 1.14298 -1.08507 0
M  V30 1540 C 154.97 1.84993 -0.813763 0
M  V30 1541 C 155.291 1.83405 0.662393 0
M  V30 1542 O 154.561 1.28319 1.48024 0
M  V30 1543 H 153.141 0.684966 -0.298045 0
M  V30 1544 H 155.803 1.385 -1.37126 0
M  V30 1545 H 154.899 2.89788 -1.15884 0
M  V30 1546 N 155.201 0.870884 1.31352 0
M  V30 1547 C 156.449 0.48132 1.96285 0
M  V30 1548 C 156.77 -0.969813 1.69173 0
M  V30 1549 O 156.04 -1.67998 1.00764 0
M  V30 1550 H 154.62 0.175002 0.726212 0
M  V30 1551 H 157.282 1.11087 1.60143 0
M  V30 1552 H 156.378 0.639825 3.05471 0
M  V30 1553 N 156.679 -1.44442 0.630414 0
M  V30 1554 C 158.095 -1.56832 0.295973 0
M  V30 1555 C 158.295 -1.61806 -1.20088 0
M  V30 1556 O 157.351 -1.5607 -1.9849 0
M  V30 1557 C 158.664 -2.84031 0.987264 0
M  V30 1558 C 160.212 -2.97742 0.96534 0
M  V30 1559 C 160.687 -4.27743 1.63708 0
M  V30 1560 N 162.178 -4.34555 1.60364 0
M  V30 1561 C 162.913 -5.33862 2.09234 0
M  V30 1562 N 162.409 -6.39578 2.66292 0
M  V30 1563 N 164.202 -5.25366 1.99867 0
M  V30 1564 H 156.353 -1.39457 1.60205 0
M  V30 1565 H 158.616 -0.668237 0.672431 0
M  V30 1566 H 158.322 -2.86338 2.04215 0
M  V30 1567 H 158.196 -3.73534 0.524588 0
M  V30 1568 H 160.583 -2.94989 -0.0810639 0
M  V30 1569 H 160.664 -2.09589 1.4665 0
M  V30 1570 H 160.308 -4.31255 2.68293 0
M  V30 1571 H 160.238 -5.14752 1.11076 0
M  V30 1572 H 162.729 -3.58772 1.18705 0
M  V30 1573 H 163.042 -7.11637 3.01317 0
M  V30 1574 H 161.387 -6.40265 2.70343 0
M  V30 1575 H 164.578 -4.41688 1.55013 0
M  V30 1576 H 164.751 -6.02606 2.38265 0
M  V30 1577 N 158.157 -0.370918 -1.53173 0
M  V30 1578 C 159.387 0.217389 -2.05453 0
M  V30 1579 C 159.795 1.42568 -1.24382 0
M  V30 1580 O 159.138 1.81571 -0.278839 0
M  V30 1581 C 159.2 0.669827 -3.53205 0
M  V30 1582 C 158.864 -0.4225 -4.55043 0
M  V30 1583 C 159.861 -1.27407 -5.04047 0
M  V30 1584 C 157.546 -0.58427 -4.9889 0
M  V30 1585 C 159.54 -2.27271 -5.95505 0
M  V30 1586 C 157.227 -1.58627 -5.90153 0
M  V30 1587 C 158.225 -2.42892 -6.38351 0
M  V30 1588 O 157.913 -3.41382 -7.27814 0
M  V30 1589 H 157.645 0.0408171 -0.674767 0
M  V30 1590 H 160.199 -0.5292 -1.98466 0
M  V30 1591 H 158.429 1.4681 -3.57748 0
M  V30 1592 H 160.118 1.18173 -3.88317 0
M  V30 1593 H 160.884 -1.16031 -4.70916 0
M  V30 1594 H 156.763 0.061851 -4.60959 0
M  V30 1595 H 160.307 -2.93079 -6.33049 0
M  V30 1596 H 156.204 -1.70048 -6.22699 0
M  V30 1597 H 156.972 -3.37173 -7.45826 0
M  V30 1598 N 159.635 1.57281 -0.100228 0
M  V30 1599 C 160.567 2.11342 0.886972 0
M  V30 1600 C 161.58 1.05182 1.24261 0
M  V30 1601 O 162.769 1.32613 1.19483 0
M  V30 1602 C 159.869 2.5825 2.19454 0
M  V30 1603 C 159.042 3.88302 2.01346 0
M  V30 1604 C 158.101 4.21004 3.15661 0
M  V30 1605 O 157.127 4.9014 2.89398 0
M  V30 1606 N 158.329 3.76818 4.41575 0
M  V30 1607 H 161.094 2.96668 0.425216 0
M  V30 1608 H 158.655 1.61678 0.0847334 0
M  V30 1609 H 160.647 2.7717 2.94888 0
M  V30 1610 H 159.217 1.77907 2.57037 0
M  V30 1611 H 158.437 3.7848 1.10212 0
M  V30 1612 H 159.725 4.73375 1.8653 0
M  V30 1613 H 159.123 3.2102 4.65792 0
M  V30 1614 H 157.68 4.00882 5.13942 0
M  V30 1615 N 161.113 -0.173488 1.56642 0
M  V30 1616 C 162.046 -1.24353 1.91342 0
M  V30 1617 C 163.024 -1.4289 0.775965 0
M  V30 1618 O 164.208 -1.57932 1.02907 0
M  V30 1619 C 161.335 -2.60683 2.16245 0
M  V30 1620 C 160.381 -2.58894 3.38934 0
M  V30 1621 S 161.214 -2.0819 4.93373 0
M  V30 1622 C 162.37 -3.46302 5.21369 0
M  V30 1623 H 162.603 -0.947345 2.81803 0
M  V30 1624 H 160.136 -0.377958 1.49703 0
M  V30 1625 H 162.094 -3.39149 2.31275 0
M  V30 1626 H 160.755 -2.87502 1.26496 0
M  V30 1627 H 159.948 -3.59188 3.53553 0
M  V30 1628 H 159.55 -1.88522 3.2301 0
M  V30 1629 H 161.842 -4.42287 5.13214 0
M  V30 1630 H 162.785 -3.3656 6.23003 0
M  V30 1631 H 163.193 -3.42214 4.48943 0
M  V30 1632 N 162.591 -1.51276 -0.441967 0
M  V30 1633 C 163.523 -1.68444 -1.55433 0
M  V30 1634 C 164.536 -0.565187 -1.52674 0
M  V30 1635 O 165.725 -0.839356 -1.57534 0
M  V30 1636 C 162.825 -1.67966 -2.94348 0
M  V30 1637 C 161.998 -2.964 -3.21661 0
M  V30 1638 C 161.057 -2.88171 -4.40277 0
M  V30 1639 O 160.083 -3.62119 -4.39157 0
M  V30 1640 N 161.285 -2.03706 -5.43584 0
M  V30 1641 H 164.05 -2.644 -1.41112 0
M  V30 1642 H 161.611 -1.49104 -0.630838 0
M  V30 1643 H 163.603 -1.60035 -3.71713 0
M  V30 1644 H 162.173 -0.796225 -3.0229 0
M  V30 1645 H 161.393 -3.18234 -2.32638 0
M  V30 1646 H 162.681 -3.81427 -3.36736 0
M  V30 1647 H 162.079 -1.42995 -5.47329 0
M  V30 1648 H 160.636 -2.01658 -6.1982 0
M  V30 1649 N 164.069 0.697108 -1.41344 0
M  V30 1650 C 165.315 1.4593 -1.40827 0
M  V30 1651 C 165.648 1.94193 -0.0167098 0
M  V30 1652 O 164.923 1.69425 0.955263 0
M  V30 1653 C 165.206 2.67229 -2.41373 0
M  V30 1654 C 165.059 2.24741 -3.8963 0
M  V30 1655 C 166.378 3.69423 -2.39196 0
M  V30 1656 H 163.497 0.529303 -0.512842 0
M  V30 1657 H 166.139 0.794112 -1.72609 0
M  V30 1658 H 164.289 3.23982 -2.14401 0
M  V30 1659 H 165.961 1.73327 -4.27499 0
M  V30 1660 H 164.204 1.56542 -4.0457 0
M  V30 1661 H 164.875 3.1177 -4.55525 0
M  V30 1662 H 167.351 3.2234 -2.63128 0
M  V30 1663 H 166.227 4.51907 -3.11563 0
M  V30 1664 H 166.488 4.19012 -1.41001 0
M  V30 1665 N 165.547 1.27147 0.931209 0
M  V30 1666 C 166.51 1.09615 2.01289 0
M  V30 1667 C 167.51 0.0412581 1.60747 0
M  V30 1668 O 168.7 0.285545 1.71844 0
M  V30 1669 C 165.832 0.669447 3.34262 0
M  V30 1670 H 167.025 2.05662 2.18273 0
M  V30 1671 H 164.578 1.09885 1.11153 0
M  V30 1672 H 165.313 -0.292572 3.22978 0
M  V30 1673 H 165.098 1.43127 3.65044 0
M  V30 1674 H 166.588 0.568921 4.13706 0
M  V30 1675 N 167.025 -1.13721 1.09112 0
M  V30 1676 C 167.955 -2.21148 0.749385 0
M  V30 1677 C 168.936 -1.6792 -0.271475 0
M  V30 1678 O 170.121 -1.93693 -0.140251 0
M  V30 1679 C 167.251 -3.46905 0.165659 0
M  V30 1680 C 166.205 -4.13203 1.11567 0
M  V30 1681 C 165.531 -5.33248 0.393809 0
M  V30 1682 C 166.831 -4.60912 2.45678 0
M  V30 1683 H 168.525 -2.4999 1.64758 0
M  V30 1684 H 166.071 -1.20156 0.793626 0
M  V30 1685 H 168.024 -4.21313 -0.085466 0
M  V30 1686 H 166.748 -3.17449 -0.767714 0
M  V30 1687 H 165.407 -3.40758 1.35202 0
M  V30 1688 H 165.055 -5.00054 -0.543599 0
M  V30 1689 H 164.755 -5.78552 1.02721 0
M  V30 1690 H 166.279 -6.10413 0.150908 0
M  V30 1691 H 167.693 -5.26759 2.26269 0
M  V30 1692 H 166.09 -5.16944 3.04776 0
M  V30 1693 H 167.16 -3.75603 3.06677 0
M  V30 1694 N 168.503 -0.877838 -1.30888 0
M  V30 1695 C 169.743 -0.499301 -1.98208 0
M  V30 1696 C 170.107 0.932649 -1.67826 0
M  V30 1697 O 171.308 1.41694 -2.28421 0
M  V30 1698 C 169.579 -0.758221 -3.49265 0
M  V30 1699 S 171.138 -0.480719 -4.36159 0
M  V30 1700 H 167.956 -0.186062 -0.686223 0
M  V30 1701 H 170.558 -1.13556 -1.59139 0
M  V30 1702 H 169.262 -1.79903 -3.68867 0
M  V30 1703 H 168.793 -0.109247 -3.93248 0
M  V30 1704 H 170.808 0.683698 -4.91467 0
M  V30 1705 N 169.982 1.44106 -0.638065 0
M  V30 1706 C 170.93 2.3248 0.0748149 0
M  V30 1707 C 171.924 1.47746 0.828702 0
M  V30 1708 O 173.13 1.64049 0.740816 0
M  V30 1709 H 169.505 0.750771 0.0429686 0
M  V30 1710 H 171.476 2.90348 -0.688504 0
M  V30 1711 C 170.225 3.31843 1.03805 0
M  V30 1712 H 169.548 3.97059 0.467375 0
M  V30 1713 H 170.988 3.96345 1.50622 0
M  V30 1714 C 169.447 2.61291 2.1267 0
M  V30 1715 O 169.977 2.41702 3.20847 0
M  V30 1716 N 168.183 2.20915 1.88798 0
M  V30 1717 H 167.73 2.37047 1.00829 0
M  V30 1718 H 167.688 1.74038 2.61836 0
M  V30 1719 N 171.46 0.379036 1.52974 0
M  V30 1720 C 172.423 -0.448865 2.24762 0
M  V30 1721 C 173.423 -0.998689 1.26027 0
M  V30 1722 O 174.613 -0.882313 1.50203 0
M  V30 1723 C 171.745 -1.62872 2.99476 0
M  V30 1724 H 172.938 0.179491 2.99362 0
M  V30 1725 H 170.491 0.13096 1.5575 0
M  V30 1726 H 171.226 -2.29479 2.29151 0
M  V30 1727 H 171.011 -1.24128 3.71934 0
M  V30 1728 H 172.501 -2.2151 3.5401 0
M  V30 1729 N 172.938 -1.57226 0.108567 0
M  V30 1730 C 174.215 -1.86333 -0.594939 0
M  V30 1731 C 174.595 -1.00788 -1.85486 0
M  V30 1732 O 173.943 -0.0839293 -2.28346 0
M  V30 1733 C 174.153 -3.37265 -0.897405 0
M  V30 1734 C 175.501 -4.05629 -1.25501 0
M  V30 1735 O 176.525 -3.42224 -0.987998 0
M  V30 1736 O 175.384 -5.17531 -1.75567 0
M  V30 1737 H 172.478 -0.771018 -0.2991 0
M  V30 1738 H 175.024 -1.69102 0.142283 0
M  V30 1739 H 173.796 -3.913 -0.00413806 0
M  V30 1740 H 173.419 -3.59889 -1.69014 0
M  V30 1741 N 174.416 0.165178 -1.56732 0
M  V30 1742 C 175.664 0.879068 -1.8198 0
M  V30 1743 C 175.985 1.82514 -0.686561 0
M  V30 1744 O 175.255 1.93694 0.293146 0
M  V30 1745 H 173.835 0.327608 -0.671329 0
M  V30 1746 H 176.497 0.163526 -1.94213 0
M  V30 1747 H 175.593 1.45228 -2.76252 0
M  V30 1748 N 175.894 1.51508 0.433938 0
M  V30 1749 C 177.134 1.66006 1.19253 0
M  V30 1750 C 177.498 0.369868 1.88404 0
M  V30 1751 O 178.699 0.39066 2.65946 0
M  V30 1752 C 176.97 2.83229 2.17981 0
M  V30 1753 S 178.529 3.18075 3.02281 0
M  V30 1754 H 175.347 0.584821 0.404358 0
M  V30 1755 H 177.949 1.89425 0.48357 0
M  V30 1756 H 176.653 3.75407 1.65824 0
M  V30 1757 H 176.184 2.6201 2.93453 0
M  V30 1758 H 178.199 2.64772 4.19655 0
M  V30 1759 N 177.372 -0.689602 1.41712 0
M  V30 1760 C 178.6 -1.47827 1.44758 0
M  V30 1761 C 179.015 -1.88721 0.0545703 0
M  V30 1762 O 178.372 -1.57176 -0.927463 0
M  V30 1763 C 178.423 -2.73698 2.3616 0
M  V30 1764 O 178.144 -2.34524 3.7004 0
M  V30 1765 C 179.645 -3.67389 2.48072 0
M  V30 1766 H 176.865 -0.455357 0.49284 0
M  V30 1767 H 179.409 -0.848574 1.86063 0
M  V30 1768 H 177.564 -3.32891 1.98148 0
M  V30 1769 H 177.978 -3.15701 4.18847 0
M  V30 1770 H 179.452 -4.52475 3.16181 0
M  V30 1771 H 179.929 -4.12284 1.51388 0
M  V30 1772 H 180.535 -3.14097 2.86746 0
M  V30 1773 N 178.85 -1.27639 -0.924453 0
M  V30 1774 C 179.813 -1.10681 -2.00705 0
M  V30 1775 C 180.813 -0.0497823 -1.60723 0
M  V30 1776 O 182.003 -0.294654 -1.7169 0
M  V30 1777 C 179.135 -0.687164 -3.33902 0
M  V30 1778 H 180.328 -2.06817 -2.17179 0
M  V30 1779 H 177.881 -1.10473 -1.10569 0
M  V30 1780 H 178.616 0.275439 -3.23128 0
M  V30 1781 H 178.401 -1.45061 -3.6428 0
M  V30 1782 H 179.891 -0.590853 -4.13399 0
M  V30 1783 N 180.328 1.1314 -1.09713 0
M  V30 1784 C 181.553 1.88862 -0.857081 0
M  V30 1785 C 181.978 1.78729 0.586304 0
M  V30 1786 O 181.336 1.13692 1.41222 0
M  V30 1787 C 181.384 3.36325 -1.30069 0
M  V30 1788 O 180.488 4.09815 -0.461007 0
M  V30 1789 H 179.829 0.587108 -0.310162 0
M  V30 1790 H 182.359 1.43129 -1.46203 0
M  V30 1791 H 182.369 3.87157 -1.28738 0
M  V30 1792 H 181.044 3.43017 -2.35185 0
M  V30 1793 H 179.621 3.68986 -0.538888 0
M  V30 1794 N 181.806 0.884767 1.30421 0
M  V30 1795 C 183.083 0.423185 1.90967 0
M  V30 1796 C 183.463 -1.09605 1.80416 0
M  V30 1797 O 182.811 -1.93126 1.22125 0
M  V30 1798 C 183.021 0.921056 3.36627 0
M  V30 1799 C 184.369 0.955903 4.137 0
M  V30 1800 O 185.393 0.867706 3.4547 0
M  V30 1801 O 184.252 1.08614 5.35598 0
M  V30 1802 H 181.346 0.129369 0.816819 0
M  V30 1803 H 183.892 0.973653 1.3899 0
M  V30 1804 H 182.664 1.96489 3.3839 0
M  V30 1805 H 182.287 0.349741 3.96059 0
M  V30 1806 N 183.284 -1.43765 0.645699 0
M  V30 1807 C 184.247 -2.29163 -0.0409488 0
M  V30 1808 C 185.247 -1.41813 -0.757996 0
M  V30 1809 O 186.437 -1.63527 -0.600382 0
M  V30 1810 C 183.569 -3.23716 -1.06869 0
M  V30 1811 H 184.762 -2.91366 0.710345 0
M  V30 1812 H 182.315 -1.5092 0.406547 0
M  V30 1813 H 183.05 -2.66393 -1.84947 0
M  V30 1814 H 182.835 -3.88105 -0.558277 0
M  V30 1815 H 184.325 -3.87831 -1.54845 0
M  V30 1816 N 184.763 -0.387143 -1.52771 0
M  V30 1817 C 185.991 0.195869 -2.05971 0
M  V30 1818 C 186.406 1.40691 -1.25903 0
M  V30 1819 O 185.763 1.79931 -0.305134 0
M  V30 1820 C 185.814 0.56812 -3.57008 0
M  V30 1821 O 185.535 -0.594803 -4.34043 0
M  V30 1822 C 187.036 1.20723 -4.26545 0
M  V30 1823 H 184.256 0.0300578 -0.670326 0
M  V30 1824 H 186.8 -0.551749 -1.96916 0
M  V30 1825 H 184.955 1.26564 -3.66143 0
M  V30 1826 H 185.369 -0.289322 -5.23701 0
M  V30 1827 H 186.843 1.41807 -5.33474 0
M  V30 1828 H 187.32 2.17395 -3.81623 0
M  V30 1829 H 187.926 0.550535 -4.21722 0
M  V30 1830 N 186.241 1.57166 -0.116904 0
M  V30 1831 C 187.151 2.18745 0.847812 0
M  V30 1832 C 188.167 1.163 1.29423 0
M  V30 1833 O 189.343 1.48761 1.35765 0
M  V30 1834 C 186.408 2.77307 2.0809 0
M  V30 1835 C 185.469 3.94781 1.68661 0
M  V30 1836 C 184.702 4.50541 2.86091 0
M  V30 1837 O 184.925 4.05202 4.01456 0
M  V30 1838 O 183.859 5.41256 2.63298 0
M  V30 1839 H 187.685 3.01632 0.353778 0
M  V30 1840 H 185.27 1.49005 0.108599 0
M  V30 1841 H 187.152 3.14647 2.80313 0
M  V30 1842 H 185.827 1.97452 2.56504 0
M  V30 1843 H 184.734 3.62214 0.935518 0
M  V30 1844 H 186.067 4.76065 1.24991 0
M  V30 1845 N 187.719 -0.156864 1.56817 0
M  V30 1846 C 188.968 -0.869504 1.81996 0
M  V30 1847 C 189.281 -1.82777 0.696545 0
M  V30 1848 O 190.487 -2.58384 0.833658 0
M  V30 1849 C 188.943 -1.59679 3.22538 0
M  V30 1850 C 188.551 -0.681431 4.42787 0
M  V30 1851 C 190.295 -2.2968 3.56997 0
M  V30 1852 C 188.202 -1.40978 5.74351 0
M  V30 1853 H 187.132 -0.328438 0.678708 0
M  V30 1854 H 189.783 -0.1223 1.83092 0
M  V30 1855 H 188.165 -2.38927 3.158 0
M  V30 1856 H 189.339 0.0751166 4.60739 0
M  V30 1857 H 187.654 -0.0903431 4.16302 0
M  V30 1858 H 190.251 -2.84794 4.52544 0
M  V30 1859 H 190.594 -3.05707 2.82576 0
M  V30 1860 H 191.127 -1.57361 3.65352 0
M  V30 1861 H 187.866 -0.691561 6.51842 0
M  V30 1862 H 187.386 -2.13929 5.60352 0
M  V30 1863 H 189.065 -1.95337 6.16808 0
M  V30 1864 N 189.197 -1.51736 -0.425897 0
M  V30 1865 C 190.443 -1.65214 -1.1761 0
M  V30 1866 C 190.776 -0.372778 -1.90589 0
M  V30 1867 O 190.051 0.628139 -1.84078 0
M  V30 1868 C 190.334 -2.86312 -2.18398 0
M  V30 1869 C 190.187 -4.24254 -1.49426 0
M  V30 1870 C 191.506 -3.02925 -3.19256 0
M  V30 1871 H 188.625 -0.601263 -0.426206 0
M  V30 1872 H 191.267 -1.8425 -0.463882 0
M  V30 1873 H 189.417 -2.70213 -2.79137 0
M  V30 1874 H 191.089 -4.52046 -0.919362 0
M  V30 1875 H 189.332 -4.26426 -0.796432 0
M  V30 1876 H 190.003 -5.05001 -2.22885 0
M  V30 1877 H 192.479 -3.1781 -2.68581 0
M  V30 1878 H 191.355 -3.89199 -3.8706 0
M  V30 1879 H 191.616 -2.15497 -3.86023 0
M  V30 1880 N 190.675 0.682077 -1.42076 0
M  V30 1881 C 191.921 1.44428 -1.42367 0
M  V30 1882 C 192.254 1.94164 -0.0373056 0
M  V30 1883 O 191.529 1.70429 0.937239 0
M  V30 1884 C 191.812 2.64654 -2.44194 0
M  V30 1885 C 191.665 2.20596 -3.91991 0
M  V30 1886 C 192.984 3.66865 -2.431 0
M  V30 1887 H 190.103 0.523834 -0.518428 0
M  V30 1888 H 192.745 0.77576 -1.73442 0
M  V30 1889 H 190.895 3.2169 -2.17826 0
M  V30 1890 H 192.567 1.68783 -4.29313 0
M  V30 1891 H 190.81 1.52242 -4.06208 0
M  V30 1892 H 191.481 3.06921 -4.58807 0
M  V30 1893 H 193.957 3.19531 -2.66532 0
M  V30 1894 H 192.833 4.48577 -3.16339 0
M  V30 1895 H 193.094 4.17493 -1.45437 0
M  V30 1896 N 192.153 1.28127 0.917671 0
M  V30 1897 C 193.116 1.11744 2.00115 0
M  V30 1898 C 194.116 0.0583052 1.60694 0
M  V30 1899 O 195.306 0.303755 1.71531 0
M  V30 1900 C 192.438 0.704862 3.33533 0
M  V30 1901 H 193.631 2.07966 2.16079 0
M  V30 1902 H 191.184 1.11058 1.09981 0
M  V30 1903 H 191.919 -0.258299 3.2327 0
M  V30 1904 H 191.704 1.4699 3.63505 0
M  V30 1905 H 193.194 0.612768 4.1308 0
M  V30 1906 N 193.631 -1.12557 1.10312 0
M  V30 1907 C 194.908 -1.80363 0.756878 0
M  V30 1908 C 195.288 -1.97067 -0.756824 0
M  V30 1909 O 194.636 -1.54601 -1.68259 0
M  V30 1910 C 194.846 -3.14812 1.50647 0
M  V30 1911 C 196.194 -3.90029 1.67817 0
M  V30 1912 O 197.218 -3.24464 1.46974 0
M  V30 1913 O 196.077 -5.07652 2.02365 0
M  V30 1914 H 193.171 -0.780667 0.272926 0
M  V30 1915 H 195.717 -1.19404 1.20586 0
M  V30 1916 H 194.489 -2.97936 2.53672 0
M  V30 1917 H 194.112 -3.83478 1.05026 0
M  V30 1918 N 195.109 -0.891671 -1.2995 0
M  V30 1919 C 196.337 -0.52866 -2.00032 0
M  V30 1920 C 196.752 0.884574 -1.66795 0
M  V30 1921 O 196.109 1.5827 -0.908669 0
M  V30 1922 C 196.16 -0.701814 -3.54622 0
M  V30 1923 O 195.881 -2.05942 -3.86678 0
M  V30 1924 C 197.382 -0.342683 -4.41973 0
M  V30 1925 H 194.602 -0.203659 -0.639347 0
M  V30 1926 H 197.146 -1.19881 -1.65677 0
M  V30 1927 H 195.301 -0.0789468 -3.8732 0
M  V30 1928 H 195.715 -2.08291 -4.81368 0
M  V30 1929 H 197.189 -0.514709 -5.49595 0
M  V30 1930 H 197.666 0.71975 -4.33262 0
M  V30 1931 H 198.272 -0.942154 -4.14733 0
M  V30 1932 N 196.587 1.43421 -0.653314 0
M  V30 1933 C 197.864 1.95361 -0.0966581 0
M  V30 1934 C 198.244 1.59461 1.38331 0
M  V30 1935 O 197.592 0.879777 2.10884 0
M  V30 1936 C 197.802 3.47311 -0.342988 0
M  V30 1937 C 199.15 4.23875 -0.24798 0
M  V30 1938 O 200.174 3.55133 -0.275553 0
M  V30 1939 O 199.033 5.4623 -0.171771 0
M  V30 1940 H 196.127 0.826945 0.00956291 0
M  V30 1941 H 198.673 1.5336 -0.726558 0
M  V30 1942 H 197.445 3.66569 -1.36906 0
M  V30 1943 H 197.068 3.9631 0.319975 0
M  V30 1944 N 198.065 0.39524 1.52563 0
M  V30 1945 C 199.313 -0.184678 2.01254 0
M  V30 1946 C 199.634 -1.46822 1.28329 0
M  V30 1947 O 198.904 -1.91666 0.405094 0
M  V30 1948 H 197.484 -0.0712355 0.743596 0
M  V30 1949 H 200.146 0.528293 1.87603 0
M  V30 1950 H 199.242 -0.390681 3.09645 0
M  V30 1951 N 199.544 -1.57102 0.125237 0
M  V30 1952 C 200.769 -2.0019 -0.542101 0
M  V30 1953 C 201.194 -1.00449 -1.59034 0
M  V30 1954 O 200.552 0.0229423 -1.81285 0
M  V30 1955 C 200.6 -3.42129 -1.13929 0
M  V30 1956 O 199.704 -3.45307 -2.2547 0
M  V30 1957 H 199.045 -0.650171 -0.134812 0
M  V30 1958 H 201.575 -2.03461 0.215553 0
M  V30 1959 H 201.585 -3.80471 -1.4733 0
M  V30 1960 H 200.26 -4.14237 -0.371531 0
M  V30 1961 H 198.837 -3.1879 -1.93462 0
M  V30 1962 N 201.022 0.148545 -1.56898 0
M  V30 1963 C 201.972 1.1886 -1.94567 0
M  V30 1964 C 202.956 1.3863 -0.816735 0
M  V30 1965 O 204.148 1.40218 -1.08018 0
M  V30 1966 C 201.277 2.52262 -2.32849 0
M  V30 1967 C 200.363 2.36092 -3.52309 0
M  V30 1968 N 200.754 1.89674 -4.6889 0
M  V30 1969 C 199.052 2.66848 -3.57363 0
M  V30 1970 C 199.753 1.86511 -5.50989 0
M  V30 1971 N 198.729 2.29766 -4.92655 0
M  V30 1972 H 202.531 0.821793 -2.82177 0
M  V30 1973 H 200.045 0.356615 -1.58436 0
M  V30 1974 H 202.042 3.27447 -2.58039 0
M  V30 1975 H 200.702 2.89727 -1.46589 0
M  V30 1976 H 201.713 1.59663 -4.92674 0
M  V30 1977 H 198.39 3.08198 -2.81639 0
M  V30 1978 H 199.78 1.52128 -6.54452 0
M  V30 1979 N 202.5 1.5196 0.417844 0
M  V30 1980 C 203.43 1.77634 1.51554 0
M  V30 1981 C 204.411 0.626918 1.58126 0
M  V30 1982 O 205.596 0.871632 1.7354 0
M  V30 1983 C 202.726 1.91911 2.8946 0
M  V30 1984 C 201.68 3.07463 2.97743 0
M  V30 1985 C 201.006 3.06951 4.37819 0
M  V30 1986 C 202.306 4.47082 2.70027 0
M  V30 1987 H 204 2.6955 1.3032 0
M  V30 1988 H 201.546 1.29706 0.625492 0
M  V30 1989 H 203.499 2.08455 3.6623 0
M  V30 1990 H 202.223 0.966598 3.11969 0
M  V30 1991 H 200.882 2.90656 2.23416 0
M  V30 1992 H 200.53 2.09438 4.57323 0
M  V30 1993 H 200.23 3.84556 4.44286 0
M  V30 1994 H 201.754 3.25613 5.16535 0
M  V30 1995 H 203.168 4.6414 3.36522 0
M  V30 1996 H 201.565 5.2654 2.87881 0
M  V30 1997 H 202.635 4.55777 1.65514 0
M  V30 1998 N 203.978 -0.674533 1.42435 0
M  V30 1999 C 204.941 -1.76986 1.45632 0
M  V30 2000 C 205.941 -1.5708 0.343871 0
M  V30 2001 O 207.131 -1.63367 0.604709 0
M  V30 2002 C 204.263 -3.15623 1.28822 0
M  V30 2003 H 205.456 -1.75539 2.43158 0
M  V30 2004 H 203.009 -0.884189 1.28887 0
M  V30 2005 H 203.744 -3.22696 0.322193 0
M  V30 2006 H 203.529 -3.31475 2.09444 0
M  V30 2007 H 205.019 -3.95537 1.33942 0
M  V30 2008 N 205.456 -1.28612 -0.910864 0
M  V30 2009 C 206.867 -1.14406 -1.47541 0
M  V30 2010 C 207.218 0.264901 -1.94403 0
M  V30 2011 O 206.343 1.15942 -1.82719 0
M  V30 2012 C 206.938 -2.07073 -2.68153 0
M  V30 2013 C 205.497 -1.96923 -3.20778 0
M  V30 2014 C 204.644 -1.98646 -1.93481 0
M  V30 2015 H 207.595 -1.41259 -0.723291 0
M  V30 2016 H 207.616 -1.63642 -3.43514 0
M  V30 2017 H 207.128 -3.09611 -2.34015 0
M  V30 2018 H 205.229 -0.97433 -3.59635 0
M  V30 2019 H 205.342 -2.84026 -3.85832 0
M  V30 2020 H 203.706 -1.43093 -2.10705 0
M  V30 2021 H 204.489 -3.02868 -1.61634 0
M  V30 2022 N 206.934 1.1197 -1.10907 0
M  V30 2023 C 207.864 2.19928 -0.784473 0
M  V30 2024 C 208.845 1.6833 0.244726 0
M  V30 2025 O 210.03 1.93892 0.109418 0
M  V30 2026 C 207.16 3.46597 -0.220827 0
M  V30 2027 C 206.114 4.11376 -1.18127 0
M  V30 2028 C 205.44 5.32554 -0.478594 0
M  V30 2029 C 206.74 4.56945 -2.52979 0
M  V30 2030 H 208.434 2.47337 -1.68715 0
M  V30 2031 H 205.98 1.18879 -0.812642 0
M  V30 2032 H 207.933 4.21396 0.0184278 0
M  V30 2033 H 206.657 3.1863 0.717113 0
M  V30 2034 H 205.316 3.38564 -1.40606 0
M  V30 2035 H 204.964 5.00856 0.463976 0
M  V30 2036 H 204.664 5.76844 -1.11912 0
M  V30 2037 H 206.188 6.10096 -0.248 0
M  V30 2038 H 207.602 5.23093 -2.3462 0
M  V30 2039 H 205.999 5.1203 -3.12962 0
M  V30 2040 H 207.069 3.70676 -3.12614 0
M  V30 2041 N 208.412 0.89855 1.29475 0
M  V30 2042 C 209.359 0.373819 2.27753 0
M  V30 2043 C 210.329 -0.543444 1.56958 0
M  V30 2044 O 211.514 -0.468934 1.84948 0
M  V30 2045 C 208.654 -0.393648 3.42848 0
M  V30 2046 C 207.767 0.554379 4.28428 0
M  V30 2047 C 206.902 -0.230026 5.30702 0
M  V30 2048 C 205.941 0.712599 6.07938 0
M  V30 2049 N 205.078 -0.0373283 7.0209 0
M  V30 2050 H 209.918 1.21699 2.72017 0
M  V30 2051 H 207.455 0.611456 1.33789 0
M  V30 2052 H 209.413 -0.85466 4.08352 0
M  V30 2053 H 208.043 -1.20128 2.99615 0
M  V30 2054 H 207.095 1.13391 3.63107 0
M  V30 2055 H 208.407 1.27597 4.82204 0
M  V30 2056 H 207.561 -0.752288 6.02018 0
M  V30 2057 H 206.3 -0.984758 4.77654 0
M  V30 2058 H 205.305 1.24637 5.35486 0
M  V30 2059 H 206.53 1.46664 6.63074 0
M  V30 2060 H 204.476 -0.774348 6.51414 0
M  V30 2061 H 204.393 0.624374 7.53417 0
M  V30 2062 H 205.661 -0.539891 7.77628 0
M  V30 2063 N 209.89 -1.43072 0.660911 0
M  V30 2064 C 210.8 -2.34585 -0.0264163 0
M  V30 2065 C 211.816 -1.54316 -0.803898 0
M  V30 2066 O 212.992 -1.86939 -0.749391 0
M  V30 2067 C 210.057 -3.32689 -0.975639 0
M  V30 2068 C 209.118 -4.2886 -0.194236 0
M  V30 2069 C 208.351 -5.22278 -1.09825 0
M  V30 2070 O 208.574 -5.20299 -2.33763 0
M  V30 2071 O 207.508 -5.99228 -0.566513 0
M  V30 2072 H 211.334 -2.94869 0.727034 0
M  V30 2073 H 208.919 -1.43342 0.42111 0
M  V30 2074 H 210.801 -3.92995 -1.52094 0
M  V30 2075 H 209.476 -2.74898 -1.70918 0
M  V30 2076 H 208.383 -3.72011 0.394835 0
M  V30 2077 H 209.716 -4.89655 0.499899 0
M  V30 2078 N 211.368 -0.403325 -1.52352 0
M  V30 2079 C 212.779 0.0675782 -1.86578 0
M  V30 2080 C 213.13 1.44941 -1.32236 0
M  V30 2081 O 212.255 2.06112 -0.659307 0
M  V30 2082 C 212.85 0.129404 -3.38553 0
M  V30 2083 C 211.409 0.544629 -3.72439 0
M  V30 2084 C 210.556 -0.284551 -2.75836 0
M  V30 2085 H 213.507 -0.620631 -1.46061 0
M  V30 2086 H 213.528 0.94581 -3.68558 0
M  V30 2087 H 213.04 -0.87645 -3.78074 0
M  V30 2088 H 211.141 1.55734 -3.38493 0
M  V30 2089 H 211.254 0.293046 -4.78203 0
M  V30 2090 H 209.618 0.252258 -2.53448 0
M  V30 2091 H 210.401 -1.28865 -3.18196 0
M  V30 2092 N 212.846 1.57033 -0.133567 0
M  V30 2093 C 213.776 2.1909 0.807567 0
M  V30 2094 C 214.757 1.13517 1.26681 0
M  V30 2095 O 215.942 1.41809 1.32679 0
M  V30 2096 C 213.072 2.80188 2.05212 0
M  V30 2097 C 212.026 3.91471 1.73015 0
M  V30 2098 C 211.352 4.39443 3.04622 0
M  V30 2099 C 212.652 5.12886 0.987168 0
M  V30 2100 H 214.346 2.97988 0.290403 0
M  V30 2101 H 211.892 1.43335 0.138239 0
M  V30 2102 H 213.845 3.22264 2.71521 0
M  V30 2103 H 212.569 1.98601 2.59278 0
M  V30 2104 H 211.228 3.49993 1.0909 0
M  V30 2105 H 210.876 3.54695 3.56651 0
M  V30 2106 H 210.576 5.14495 2.83847 0
M  V30 2107 H 212.1 4.8418 3.72024 0
M  V30 2108 H 213.514 5.51891 1.55208 0
M  V30 2109 H 211.911 5.93615 0.87985 0
M  V30 2110 H 212.981 4.84894 -0.0235286 0
M  V30 2111 N 214.325 -0.140222 1.56975 0
M  V30 2112 C 215.255 -1.17456 2.01808 0
M  V30 2113 C 216.236 -1.44415 0.898794 0
M  V30 2114 O 217.421 -1.5522 1.16707 0
M  V30 2115 C 214.551 -2.50607 2.40444 0
M  V30 2116 C 213.505 -2.38155 3.55621 0
M  V30 2117 C 212.831 -3.76078 3.80091 0
M  V30 2118 C 214.131 -1.85991 4.88062 0
M  V30 2119 H 215.825 -0.801743 2.88466 0
M  V30 2120 H 213.371 -0.38422 1.38779 0
M  V30 2121 H 215.324 -3.23197 2.7041 0
M  V30 2122 H 214.048 -2.89737 1.50732 0
M  V30 2123 H 212.707 -1.68016 3.25832 0
M  V30 2124 H 212.355 -4.12656 2.87618 0
M  V30 2125 H 212.055 -3.68606 4.57606 0
M  V30 2126 H 213.579 -4.50206 4.12488 0
M  V30 2127 H 214.993 -2.4838 5.16701 0
M  V30 2128 H 213.39 -1.89393 5.6943 0
M  V30 2129 H 214.46 -0.816023 4.77984 0
M  V30 2130 N 215.803 -1.52179 -0.40978 0
M  V30 2131 C 216.713 -1.78364 -1.52392 0
M  V30 2132 C 217.729 -0.669183 -1.60617 0
M  V30 2133 O 218.905 -0.954518 -1.77344 0
M  V30 2134 C 215.97 -1.92822 -2.88133 0
M  V30 2135 C 215.031 -3.16725 -2.898 0
M  V30 2136 C 214.264 -3.30483 -4.19067 0
M  V30 2137 O 214.487 -2.49522 -5.12928 0
M  V30 2138 O 213.421 -4.2363 -4.27576 0
M  V30 2139 H 217.247 -2.72931 -1.33201 0
M  V30 2140 H 214.832 -1.37016 -0.59557 0
M  V30 2141 H 216.714 -2.04157 -3.68643 0
M  V30 2142 H 215.389 -1.01444 -3.07393 0
M  V30 2143 H 214.296 -3.10848 -2.08146 0
M  V30 2144 H 215.629 -4.07881 -2.75489 0
M  V30 2145 N 217.281 0.66697 -1.42791 0
M  V30 2146 C 218.228 1.7803 -1.4688 0
M  V30 2147 C 219.198 1.6299 -0.319919 0
M  V30 2148 O 220.383 1.83432 -0.525118 0
M  V30 2149 C 217.523 3.1611 -1.38451 0
M  V30 2150 C 216.636 3.42381 -2.63437 0
M  V30 2151 C 215.771 4.70232 -2.47094 0
M  V30 2152 C 214.81 4.89564 -3.67415 0
M  V30 2153 N 213.947 6.08661 -3.49966 0
M  V30 2154 H 218.787 1.7387 -2.42019 0
M  V30 2155 H 216.324 0.84868 -1.20149 0
M  V30 2156 H 218.282 3.95914 -1.31561 0
M  V30 2157 H 216.912 3.19374 -0.469033 0
M  V30 2158 H 215.964 2.56774 -2.80662 0
M  V30 2159 H 217.276 3.52557 -3.52853 0
M  V30 2160 H 216.43 5.5814 -2.37834 0
M  V30 2161 H 215.169 4.62353 -1.5518 0
M  V30 2162 H 214.174 4.00096 -3.77099 0
M  V30 2163 H 215.399 4.99282 -4.6032 0
M  V30 2164 H 213.345 6.0194 -2.60776 0
M  V30 2165 H 213.262 6.19733 -4.32975 0
M  V30 2166 H 214.53 6.99226 -3.44532 0
M  V30 2167 N 218.759 1.29093 0.90403 0
M  V30 2168 C 219.707 1.13727 2.02901 0
M  V30 2169 C 220.701 0.0539853 1.69314 0
M  V30 2170 O 221.907 0.213469 1.7873 0
M  V30 2171 H 218.282 0.35117 0.664969 0
M  V30 2172 H 220.253 2.08982 2.13001 0
M  V30 2173 C 219.002 0.826066 3.37745 0
M  V30 2174 H 218.325 1.65164 3.64089 0
M  V30 2175 H 219.765 0.758559 4.17159 0
M  V30 2176 C 218.224 -0.470541 3.33598 0
M  V30 2177 O 218.754 -1.49792 3.72727 0
M  V30 2178 N 216.96 -0.474812 2.86695 0
M  V30 2179 H 216.507 0.361692 2.55048 0
M  V30 2180 H 216.465 -1.34236 2.84303 0
M  V30 2181 N 220.237 -1.11381 1.11499 0
M  V30 2182 C 221.184 -2.17439 0.773887 0
M  V30 2183 C 222.154 -1.64132 -0.254899 0
M  V30 2184 O 223.339 -1.90345 -0.13168 0
M  V30 2185 C 220.479 -3.44373 0.223917 0
M  V30 2186 C 219.592 -4.1168 1.30934 0
M  V30 2187 C 218.727 -5.263 0.71984 0
M  V30 2188 C 217.766 -5.85493 1.78507 0
M  V30 2189 N 216.903 -6.91507 1.21502 0
M  V30 2190 H 221.743 -2.45962 1.68246 0
M  V30 2191 H 219.28 -1.20744 0.840191 0
M  V30 2192 H 221.238 -4.17047 -0.112921 0
M  V30 2193 H 219.868 -3.16232 -0.647851 0
M  V30 2194 H 218.92 -3.37073 1.76312 0
M  V30 2195 H 220.232 -4.51729 2.11524 0
M  V30 2196 H 219.386 -6.05785 0.333094 0
M  V30 2197 H 218.125 -4.87559 -0.117377 0
M  V30 2198 H 217.13 -5.04686 2.18111 0
M  V30 2199 H 218.355 -6.26301 2.62533 0
M  V30 2200 H 216.301 -6.54783 0.399455 0
M  V30 2201 H 216.218 -7.30214 1.95763 0
M  V30 2202 H 217.486 -7.74795 0.855181 0
M  V30 2203 N 221.715 -0.905404 -1.28997 0
M  V30 2204 C 223.126 -0.581953 -1.77398 0
M  V30 2205 C 223.477 0.902552 -1.74208 0
M  V30 2206 O 222.602 1.70584 -1.33154 0
M  V30 2207 C 223.197 -1.04961 -3.22131 0
M  V30 2208 C 221.756 -0.777229 -3.68288 0
M  V30 2209 C 220.903 -1.22109 -2.48967 0
M  V30 2210 H 223.854 -1.08754 -1.15578 0
M  V30 2211 H 223.875 -0.387387 -3.78523 0
M  V30 2212 H 223.387 -2.13008 -3.24421 0
M  V30 2213 H 221.488 0.290383 -3.71467 0
M  V30 2214 H 221.601 -1.37911 -4.58822 0
M  V30 2215 H 219.965 -0.639971 -2.46529 0
M  V30 2216 H 220.748 -2.30972 -2.53982 0
M  V30 2217 N 223.193 1.4272 -0.668489 0
M  V30 2218 C 224.423 2.05668 -0.196063 0
M  V30 2219 C 224.831 1.5028 1.14946 0
M  V30 2220 O 224.174 0.6348 1.72383 0
M  V30 2221 C 224.236 3.59469 -0.0468879 0
M  V30 2222 C 223.9 4.37518 -1.32012 0
M  V30 2223 C 224.897 4.68584 -2.25222 0
M  V30 2224 C 222.582 4.77266 -1.56596 0
M  V30 2225 C 224.576 5.38326 -3.41297 0
M  V30 2226 C 222.263 5.4675 -2.72962 0
M  V30 2227 C 223.261 5.77204 -3.65137 0
M  V30 2228 O 222.949 6.45264 -4.79468 0
M  V30 2229 H 222.681 0.669382 -0.0943599 0
M  V30 2230 H 225.235 1.83954 -0.913788 0
M  V30 2231 H 223.465 3.79817 0.726357 0
M  V30 2232 H 225.154 4.04071 0.384852 0
M  V30 2233 H 225.92 4.38382 -2.07477 0
M  V30 2234 H 221.799 4.52959 -0.857249 0
M  V30 2235 H 225.343 5.62014 -4.13263 0
M  V30 2236 H 221.24 5.76369 -2.90635 0
M  V30 2237 H 222.008 6.63753 -4.78931 0
M  V30 2238 N 224.671 0.411399 1.52136 0
M  V30 2239 C 225.618 -0.412975 2.27075 0
M  V30 2240 C 226.588 -1.03912 1.29582 0
M  V30 2241 O 227.773 -1.06296 1.58448 0
M  V30 2242 C 224.913 -1.52247 3.09701 0
M  V30 2243 C 224.026 -0.917021 4.22155 0
M  V30 2244 C 223.161 -1.9994 4.92135 0
M  V30 2245 C 222.2 -1.37101 5.96548 0
M  V30 2246 N 221.337 -2.39364 6.60038 0
M  V30 2247 H 226.177 0.232499 2.97092 0
M  V30 2248 H 223.714 0.126496 1.46555 0
M  V30 2249 H 225.672 -2.17674 3.55913 0
M  V30 2250 H 224.302 -2.13794 2.41851 0
M  V30 2251 H 223.354 -0.151742 3.80097 0
M  V30 2252 H 224.666 -0.418006 4.97045 0
M  V30 2253 H 223.82 -2.73088 5.41763 0
M  V30 2254 H 222.559 -2.53208 4.16818 0
M  V30 2255 H 221.564 -0.624873 5.46237 0
M  V30 2256 H 222.789 -0.845998 6.7381 0
M  V30 2257 H 220.735 -2.91759 5.87548 0
M  V30 2258 H 220.652 -1.9428 7.3061 0
M  V30 2259 H 221.92 -3.12074 7.14304 0
M  V30 2260 N 226.149 -1.5696 0.141893 0
M  V30 2261 C 227.081 -2.13619 -0.830627 0
M  V30 2262 C 228.094 -1.08439 -1.21428 0
M  V30 2263 O 229.283 -1.35734 -1.15925 0
M  V30 2264 C 226.383 -2.63978 -2.12529 0
M  V30 2265 C 225.556 -3.93504 -1.9098 0
M  V30 2266 C 224.615 -4.29225 -3.04388 0
M  V30 2267 O 223.641 -4.97641 -2.76302 0
M  V30 2268 N 224.843 -3.88393 -4.31429 0
M  V30 2269 H 227.608 -2.97691 -0.34641 0
M  V30 2270 H 225.169 -1.61846 -0.0418375 0
M  V30 2271 H 227.161 -2.84891 -2.87436 0
M  V30 2272 H 225.731 -1.84659 -2.52229 0
M  V30 2273 H 224.951 -3.81269 -1.00139 0
M  V30 2274 H 226.239 -4.78154 -1.73914 0
M  V30 2275 H 225.637 -3.33257 -4.57117 0
M  V30 2276 H 224.194 -4.14368 -5.03133 0
M  V30 2277 N 227.627 0.131896 -1.57047 0
M  V30 2278 C 228.575 1.18146 -2.0036 0
M  V30 2279 C 229.569 1.43614 -0.898406 0
M  V30 2280 O 230.775 1.43729 -1.08361 0
M  V30 2281 H 227.15 0.398042 -0.638018 0
M  V30 2282 H 229.121 0.789564 -2.87765 0
M  V30 2283 C 227.87 2.50341 -2.41298 0
M  V30 2284 H 227.193 2.31578 -3.25902 0
M  V30 2285 H 228.633 3.22371 -2.75414 0
M  V30 2286 C 227.092 3.11984 -1.27153 0
M  V30 2287 O 227.622 3.97484 -0.580459 0
M  V30 2288 N 225.828 2.71662 -1.03189 0
M  V30 2289 H 225.375 2.02231 -1.59564 0
M  V30 2290 H 225.333 3.13238 -0.270077 0
M  V30 2291 N 229.106 1.52395 0.401703 0
M  V30 2292 C 230.331 1.70972 1.17403 0
M  V30 2293 C 230.756 0.421615 1.83314 0
M  V30 2294 O 230.114 -0.621564 1.70312 0
M  V30 2295 C 230.162 2.85151 2.20728 0
M  V30 2296 O 229.266 2.51238 3.27037 0
M  V30 2297 H 228.607 0.568927 0.342372 0
M  V30 2298 H 231.137 1.99131 0.469891 0
M  V30 2299 H 231.147 3.10279 2.64936 0
M  V30 2300 H 229.822 3.78603 1.7214 0
M  V30 2301 H 228.399 2.36808 2.88057 0
M  V30 2302 N 230.584 -0.659388 1.43143 0
M  V30 2303 C 231.832 -1.41654 1.44147 0
M  V30 2304 C 232.153 -1.94893 0.0645739 0
M  V30 2305 O 231.423 -1.74044 -0.899198 0
M  V30 2306 H 230.003 -0.525708 0.530697 0
M  V30 2307 H 232.665 -0.778097 1.78694 0
M  V30 2308 H 231.761 -2.26195 2.1504 0
M  V30 2309 N 232.062 -1.29571 -0.897171 0
M  V30 2310 C 233.009 -1.14916 -2.00158 0
M  V30 2311 C 233.979 -0.0418149 -1.66047 0
M  V30 2312 O 235.164 -0.209793 -1.89643 0
M  V30 2313 C 232.304 -0.834307 -3.34863 0
M  V30 2314 C 231.417 -2.02234 -3.8174 0
M  V30 2315 C 230.552 -1.64664 -5.05034 0
M  V30 2316 C 229.591 -2.80033 -5.44286 0
M  V30 2317 N 228.728 -2.42843 -6.58765 0
M  V30 2318 H 233.568 -2.09403 -2.12025 0
M  V30 2319 H 231.105 -1.042 -1.0383 0
M  V30 2320 H 233.063 -0.632436 -4.12379 0
M  V30 2321 H 231.693 0.0736656 -3.22716 0
M  V30 2322 H 230.745 -2.33583 -3.00238 0
M  V30 2323 H 232.057 -2.88673 -4.06779 0
M  V30 2324 H 231.211 -1.4078 -5.9014 0
M  V30 2325 H 229.95 -0.753766 -4.8184 0
M  V30 2326 H 228.955 -3.04596 -4.57713 0
M  V30 2327 H 230.18 -3.69989 -5.6946 0
M  V30 2328 H 228.126 -1.56046 -6.3717 0
M  V30 2329 H 228.043 -3.22815 -6.83613 0
M  V30 2330 H 229.311 -2.22285 -7.47134 0
M  V30 2331 N 233.54 1.10788 -1.12088 0
M  V30 2332 C 234.786 1.82942 -0.875226 0
M  V30 2333 C 235.119 1.84779 0.597538 0
M  V30 2334 O 234.394 1.30578 1.44152 0
M  V30 2335 C 234.677 3.29789 -1.44606 0
M  V30 2336 C 234.53 3.36307 -2.98693 0
M  V30 2337 C 235.849 4.26064 -1.10261 0
M  V30 2338 H 232.968 0.664195 -0.319397 0
M  V30 2339 H 235.61 1.29867 -1.38689 0
M  V30 2340 H 233.76 3.75118 -1.01089 0
M  V30 2341 H 235.432 2.99487 -3.50864 0
M  V30 2342 H 233.675 2.76318 -3.34411 0
M  V30 2343 H 234.346 4.39694 -3.33726 0
M  V30 2344 H 236.822 3.88951 -1.4784 0
M  V30 2345 H 235.698 5.27183 -1.52869 0
M  V30 2346 H 235.959 4.42098 -0.0142953 0
M  V30 2347 N 235.018 0.912232 1.28515 0
M  V30 2348 C 236.264 0.545405 1.95328 0
M  V30 2349 C 236.597 -0.908313 1.71649 0
M  V30 2350 O 235.872 -1.64575 1.03659 0
M  V30 2351 C 236.155 0.853483 3.4984 0
M  V30 2352 C 236.008 2.35982 3.82926 0
M  V30 2353 C 237.327 0.348589 4.38717 0
M  V30 2354 H 234.446 0.199626 0.709449 0
M  V30 2355 H 237.088 1.1412 1.5191 0
M  V30 2356 H 235.238 0.34643 3.86952 0
M  V30 2357 H 236.91 2.93738 3.55691 0
M  V30 2358 H 235.153 2.81543 3.30024 0
M  V30 2359 H 235.824 2.52593 4.90816 0
M  V30 2360 H 238.3 0.78294 4.08668 0
M  V30 2361 H 237.176 0.593242 5.45685 0
M  V30 2362 H 237.437 -0.751049 4.35674 0
M  V30 2363 N 236.496 -1.42363 0.676048 0
M  V30 2364 C 237.744 -2.01123 0.198437 0
M  V30 2365 C 238.065 -1.53731 -1.19966 0
M  V30 2366 O 237.335 -0.759518 -1.80577 0
M  V30 2367 H 235.915 -0.743678 0.0703721 0
M  V30 2368 H 238.577 -1.74263 0.872837 0
M  V30 2369 H 237.673 -3.11454 0.200686 0
M  V30 2370 N 237.974 -0.419461 -1.51915 0
M  V30 2371 C 239.199 0.154572 -2.06823 0
M  V30 2372 C 239.624 1.3722 -1.28656 0
M  V30 2373 O 238.982 1.78461 -0.319583 0
M  V30 2374 C 239.03 0.473172 -3.57482 0
M  V30 2375 O 238.134 1.56255 -3.81652 0
M  V30 2376 H 237.475 0.0096924 -0.663929 0
M  V30 2377 H 240.005 -0.595642 -1.95738 0
M  V30 2378 H 240.015 0.728825 -4.01438 0
M  V30 2379 H 238.69 -0.416873 -4.13805 0
M  V30 2380 H 237.267 1.29825 -3.49571 0
M  V30 2381 N 239.452 1.56882 -0.150215 0
M  V30 2382 C 240.682 2.00302 0.506213 0
M  V30 2383 C 241.09 1.02934 1.58749 0
M  V30 2384 O 240.433 0.0188384 1.8369 0
M  V30 2385 C 240.495 3.40156 1.16337 0
M  V30 2386 C 240.159 4.56439 0.226311 0
M  V30 2387 C 241.156 5.17012 -0.547265 0
M  V30 2388 C 238.841 5.02136 0.128279 0
M  V30 2389 C 240.835 6.21693 -1.40629 0
M  V30 2390 C 238.522 6.06672 -0.734345 0
M  V30 2391 C 239.52 6.6632 -1.50023 0
M  V30 2392 O 239.208 7.68831 -2.34848 0
M  V30 2393 H 238.94 0.662182 0.135984 0
M  V30 2394 H 241.494 2.03961 -0.242746 0
M  V30 2395 H 239.724 3.33346 1.96004 0
M  V30 2396 H 241.413 3.67663 1.71985 0
M  V30 2397 H 242.179 4.82603 -0.48158 0
M  V30 2398 H 238.058 4.55435 0.714157 0
M  V30 2399 H 241.602 6.68179 -2.00455 0
M  V30 2400 H 237.499 6.40507 -0.801309 0
M  V30 2401 H 238.267 7.86065 -2.28131 0
M  V30 2402 N 240.93 -0.123565 1.57115 0
M  V30 2403 C 242.177 -0.832153 1.84612 0
M  V30 2404 C 242.505 -1.80093 0.734627 0
M  V30 2405 O 241.76 -1.93766 -0.27442 0
M  V30 2406 C 242.059 -1.62016 3.18568 0
M  V30 2407 C 241.725 -0.796084 4.43817 0
M  V30 2408 C 240.387 -0.568816 4.77826 0
M  V30 2409 C 242.739 -0.221364 5.2073 0
M  V30 2410 C 240.067 0.243499 5.86194 0
M  V30 2411 C 242.419 0.578117 6.29953 0
M  V30 2412 C 241.083 0.815744 6.62497 0
M  V30 2413 H 240.353 -0.304507 0.675542 0
M  V30 2414 H 243 -0.0947248 1.91266 0
M  V30 2415 H 241.305 -2.42837 3.0747 0
M  V30 2416 H 243.002 -2.17231 3.37064 0
M  V30 2417 H 239.592 -0.983307 4.17168 0
M  V30 2418 H 243.776 -0.384173 4.94811 0
M  V30 2419 H 239.032 0.436871 6.09837 0
M  V30 2420 H 243.206 1.03046 6.88734 0
M  V30 2421 H 240.833 1.44701 7.46301 0
M  V30 2422 N 242.408 -1.52605 -0.393616 0
M  V30 2423 C 243.654 -1.67672 -1.14079 0
M  V30 2424 C 243.987 -0.413121 -1.89755 0
M  V30 2425 O 243.262 0.588952 -1.85369 0
M  V30 2426 C 243.545 -2.9088 -2.12276 0
M  V30 2427 C 243.398 -4.27329 -1.40394 0
M  V30 2428 C 244.717 -3.09628 -3.12759 0
M  V30 2429 H 241.836 -0.610168 -0.413356 0
M  V30 2430 H 244.478 -1.85193 -0.424696 0
M  V30 2431 H 242.628 -2.76073 -2.73342 0
M  V30 2432 H 244.3 -4.53894 -0.82327 0
M  V30 2433 H 242.543 -4.2802 -0.705801 0
M  V30 2434 H 243.214 -5.09615 -2.12123 0
M  V30 2435 H 245.69 -3.23436 -2.61779 0
M  V30 2436 H 244.566 -3.97322 -3.78717 0
M  V30 2437 H 244.827 -2.23637 -3.81365 0
M  V30 2438 N 243.887 0.651787 -1.4349 0
M  V30 2439 C 244.797 1.79368 -1.5121 0
M  V30 2440 C 245.813 1.69361 -0.399093 0
M  V30 2441 O 246.989 1.90505 -0.653431 0
M  V30 2442 C 244.054 3.15653 -1.43401 0
M  V30 2443 C 243.115 3.37446 -2.65384 0
M  V30 2444 C 242.348 4.67229 -2.57939 0
M  V30 2445 O 242.571 5.46676 -1.62792 0
M  V30 2446 O 241.505 4.90773 -3.48462 0
M  V30 2447 H 245.331 1.7581 -2.47638 0
M  V30 2448 H 242.916 0.810447 -1.25507 0
M  V30 2449 H 244.798 3.96935 -1.41494 0
M  V30 2450 H 243.473 3.19798 -0.501085 0
M  V30 2451 H 242.38 2.55923 -2.72863 0
M  V30 2452 H 243.713 3.38148 -3.57654 0
M  V30 2453 N 245.365 1.30045 0.890287 0
M  V30 2454 C 246.611 1.19747 1.64415 0
M  V30 2455 C 246.966 -0.246591 1.90813 0
M  V30 2456 O 246.259 -1.174 1.51419 0
M  V30 2457 C 246.453 1.95409 2.99249 0
M  V30 2458 C 246.282 3.47025 2.86013 0
M  V30 2459 C 245.052 4.1638 2.86279 0
M  V30 2460 C 247.25 4.42353 2.62351 0
M  V30 2461 N 245.232 5.54293 2.63879 0
M  V30 2462 C 246.603 5.67792 2.49022 0
M  V30 2463 C 248.658 4.32009 2.47533 0
M  V30 2464 C 247.361 6.8406 2.22383 0
M  V30 2465 C 249.387 5.48038 2.22279 0
M  V30 2466 C 248.749 6.72455 2.09722 0
M  V30 2467 H 244.848 0.493223 0.60684 0
M  V30 2468 H 247.432 1.6399 1.04954 0
M  V30 2469 H 245.603 1.53565 3.56752 0
M  V30 2470 H 247.335 1.77298 3.63796 0
M  V30 2471 H 244.09 3.68164 2.97913 0
M  V30 2472 H 244.514 6.26852 2.55706 0
M  V30 2473 H 249.156 3.36503 2.55979 0
M  V30 2474 H 246.874 7.79612 2.12675 0
M  V30 2475 H 250.46 5.41939 2.11643 0
M  V30 2476 H 249.34 7.60722 1.90453 0
M  V30 2477 N 246.843 -1.10192 1.12674 0
M  V30 2478 C 248.091 -1.81845 0.881861 0
M  V30 2479 C 248.412 -1.85737 -0.593867 0
M  V30 2480 O 247.682 -1.33724 -1.4316 0
M  V30 2481 H 246.262 -0.673432 0.323261 0
M  V30 2482 H 248.924 -1.33316 1.42172 0
M  V30 2483 H 248.02 -2.85288 1.2656 0
M  V30 2484 N 248.321 -0.919034 -1.28029 0
M  V30 2485 C 249.567 -0.555757 -1.95036 0
M  V30 2486 C 249.9 0.899198 -1.72128 0
M  V30 2487 O 249.175 1.64023 -1.04531 0
M  V30 2488 C 249.458 -0.872024 -3.49382 0
M  V30 2489 C 249.311 -2.3801 -3.81669 0
M  V30 2490 C 250.63 -0.37185 -4.38526 0
M  V30 2491 H 247.749 -0.203386 -0.708381 0
M  V30 2492 H 250.391 -1.14924 -1.51303 0
M  V30 2493 H 248.541 -0.366946 -3.86763 0
M  V30 2494 H 250.213 -2.9562 -3.54128 0
M  V30 2495 H 248.456 -2.83289 -3.28526 0
M  V30 2496 H 249.127 -2.55192 -4.8947 0
M  V30 2497 H 251.603 -0.804602 -4.08247 0
M  V30 2498 H 250.479 -0.622173 -5.45362 0
M  V30 2499 H 250.74 0.727934 -4.36066 0
M  V30 2500 N 249.799 1.42003 -0.683588 0
M  V30 2501 C 251.029 2.05448 -0.217866 0
M  V30 2502 C 251.437 1.51491 1.13346 0
M  V30 2503 O 250.78 0.653048 1.717 0
M  V30 2504 C 250.842 3.59399 -0.0850118 0
M  V30 2505 C 250.506 4.36093 -1.36645 0
M  V30 2506 C 251.503 4.66169 -2.30179 0
M  V30 2507 C 249.188 4.75578 -1.61649 0
M  V30 2508 C 251.182 5.34676 -3.46988 0
M  V30 2509 C 248.869 5.43824 -2.78745 0
M  V30 2510 C 249.867 5.73299 -3.71238 0
M  V30 2511 O 249.555 6.40142 -4.86285 0
M  V30 2512 H 249.287 0.668344 -0.101454 0
M  V30 2513 H 251.841 1.82974 -0.933248 0
M  V30 2514 H 250.071 3.80566 0.686031 0
M  V30 2515 H 251.76 4.04457 0.341973 0
M  V30 2516 H 252.526 4.36156 -2.12115 0
M  V30 2517 H 248.405 4.52025 -0.905243 0
M  V30 2518 H 251.949 5.57599 -4.19201 0
M  V30 2519 H 247.846 5.73254 -2.96732 0
M  V30 2520 H 248.614 6.58636 -4.85944 0
M  V30 2521 N 251.277 0.427512 1.51691 0
M  V30 2522 C 252.525 -0.141948 2.01601 0
M  V30 2523 C 252.846 -1.44067 1.31414 0
M  V30 2524 O 252.116 -1.90763 0.445658 0
M  V30 2525 H 250.696 -0.0554468 0.744939 0
M  V30 2526 H 253.358 0.567968 1.86441 0
M  V30 2527 H 252.454 -0.324913 3.10404 0
M  V30 2528 N 252.755 -1.56801 0.158532 0
M  V30 2529 C 254.171 -1.5837 -0.197774 0
M  V30 2530 C 254.371 -1.17334 -1.63814 0
M  V30 2531 O 253.427 -0.878988 -2.36707 0
M  V30 2532 C 254.74 -3.00615 0.0714459 0
M  V30 2533 C 256.288 -3.12999 0.00864533 0
M  V30 2534 C 256.763 -4.57313 0.250685 0
M  V30 2535 N 258.254 -4.62777 0.198014 0
M  V30 2536 C 258.989 -5.72271 0.359642 0
M  V30 2537 N 258.485 -6.90371 0.579625 0
M  V30 2538 N 260.278 -5.61318 0.296438 0
M  V30 2539 H 252.429 -1.81765 1.09887 0
M  V30 2540 H 254.692 -0.841849 0.435884 0
M  V30 2541 H 254.398 -3.35068 1.06874 0
M  V30 2542 H 254.272 -3.71683 -0.642757 0
M  V30 2543 H 256.659 -2.7838 -0.979217 0
M  V30 2544 H 256.74 -2.44393 0.755359 0
M  V30 2545 H 256.384 -4.92639 1.2357 0
M  V30 2546 H 256.314 -5.24061 -0.516489 0
M  V30 2547 H 258.805 -3.77885 0.0331115 0
M  V30 2548 H 259.118 -7.69689 0.69275 0
M  V30 2549 H 257.463 -6.92264 0.616087 0
M  V30 2550 H 260.654 -4.67932 0.125258 0
M  V30 2551 H 260.827 -6.46599 0.425831 0
M  V30 2552 N 254.233 0.115231 -1.57178 0
M  V30 2553 C 255.181 1.16014 -2.01602 0
M  V30 2554 C 256.175 1.42653 -0.913587 0
M  V30 2555 O 257.381 1.42571 -1.09879 0
M  V30 2556 H 253.756 0.391252 -0.642204 0
M  V30 2557 H 255.727 0.758998 -2.88586 0
M  V30 2558 C 254.476 2.47767 -2.4394 0
M  V30 2559 H 253.799 2.28108 -3.28339 0
M  V30 2560 H 255.239 3.19432 -2.78818 0
M  V30 2561 C 253.698 3.10617 -1.30455 0
M  V30 2562 O 254.228 3.96846 -0.622585 0
M  V30 2563 N 252.434 2.70553 -1.06064 0
M  V30 2564 H 251.981 2.00527 -1.61699 0
M  V30 2565 H 251.939 3.12934 -0.303284 0
M  V30 2566 N 255.711 1.52812 0.385517 0
M  V30 2567 C 256.958 1.68026 1.1302 0
M  V30 2568 C 257.286 0.421934 1.89868 0
M  V30 2569 O 256.541 -0.595749 1.86412 0
M  V30 2570 C 256.84 2.86856 2.13187 0
M  V30 2571 C 256.506 4.24159 1.5297 0
M  V30 2572 C 255.168 4.61501 1.36274 0
M  V30 2573 C 257.52 5.09627 1.09223 0
M  V30 2574 C 254.848 5.81966 0.743837 0
M  V30 2575 C 257.2 6.30719 0.487411 0
M  V30 2576 C 255.864 6.6679 0.307777 0
M  V30 2577 H 255.134 0.614849 0.413571 0
M  V30 2578 H 257.781 1.86962 0.414405 0
M  V30 2579 H 256.086 2.6235 2.90998 0
M  V30 2580 H 257.783 2.95821 2.70722 0
M  V30 2581 H 254.373 3.94746 1.66954 0
M  V30 2582 H 258.557 4.81343 1.20922 0
M  V30 2583 H 253.813 6.08519 0.592891 0
M  V30 2584 H 257.987 6.96259 0.140143 0
M  V30 2585 H 255.614 7.60001 -0.173879 0
M  V30 2586 N 257.189 -0.644168 1.43834 0
M  V30 2587 C 258.417 -1.43147 1.49387 0
M  V30 2588 C 258.832 -1.88452 0.114583 0
M  V30 2589 O 258.189 -1.60047 -0.876989 0
M  V30 2590 C 258.24 -2.66046 2.44748 0
M  V30 2591 O 257.961 -2.22633 3.77314 0
M  V30 2592 C 259.462 -3.59311 2.59635 0
M  V30 2593 H 256.682 -0.439447 0.507077 0
M  V30 2594 H 259.226 -0.78895 1.88669 0
M  V30 2595 H 257.381 -3.26418 2.08638 0
M  V30 2596 H 257.795 -3.02216 4.28679 0
M  V30 2597 H 259.269 -4.42187 3.30416 0
M  V30 2598 H 259.746 -4.07259 1.64427 0
M  V30 2599 H 260.352 -3.04816 2.96593 0
M  V30 2600 N 258.668 -1.30515 -0.883378 0
M  V30 2601 C 259.914 -1.19607 -1.63774 0
M  V30 2602 C 260.247 0.248314 -1.92606 0
M  V30 2603 O 259.522 1.17742 -1.54813 0
M  V30 2604 C 259.805 -2.02669 -2.97653 0
M  V30 2605 C 259.658 -3.55335 -2.75784 0
M  V30 2606 C 260.977 -1.86573 -3.98596 0
M  V30 2607 H 258.096 -0.435856 -0.594305 0
M  V30 2608 H 260.738 -1.60165 -1.02212 0
M  V30 2609 H 258.888 -1.68208 -3.50197 0
M  V30 2610 H 260.56 -3.99863 -2.30016 0
M  V30 2611 H 258.803 -3.79438 -2.1026 0
M  V30 2612 H 259.474 -4.08745 -3.70988 0
M  V30 2613 H 261.95 -2.16703 -3.55217 0
M  V30 2614 H 260.826 -2.47014 -4.90179 0
M  V30 2615 H 261.087 -0.825321 -4.34328 0
M  V30 2616 N 260.146 1.09593 -1.13257 0
M  V30 2617 C 261.423 1.78293 -0.804432 0
M  V30 2618 C 261.803 1.99004 0.70431 0
M  V30 2619 O 261.151 1.59007 1.641 0
M  V30 2620 C 261.361 3.10707 -1.5894 0
M  V30 2621 C 262.709 3.85443 -1.78099 0
M  V30 2622 O 263.733 3.20454 -1.55525 0
M  V30 2623 O 262.592 5.02108 -2.15753 0
M  V30 2624 H 259.686 0.773156 -0.293528 0
M  V30 2625 H 262.232 1.16164 -1.23709 0
M  V30 2626 H 261.004 2.91106 -2.61482 0
M  V30 2627 H 260.627 3.80558 -1.15157 0
M  V30 2628 N 261.624 0.925811 1.2754 0
M  V30 2629 C 262.571 0.422045 2.26908 0
M  V30 2630 C 263.541 -0.510029 1.58076 0
M  V30 2631 O 264.726 -0.429599 1.85901 0
M  V30 2632 C 261.866 -0.320837 3.43605 0
M  V30 2633 C 260.979 0.64513 4.27156 0
M  V30 2634 C 260.114 -0.117405 5.3107 0
M  V30 2635 C 259.153 0.841391 6.0629 0
M  V30 2636 N 258.29 0.111604 7.02011 0
M  V30 2637 H 263.13 1.27441 2.69375 0
M  V30 2638 H 260.667 0.639697 1.32462 0
M  V30 2639 H 262.625 -0.76785 4.10073 0
M  V30 2640 H 261.255 -1.13745 3.02096 0
M  V30 2641 H 260.307 1.21067 3.6062 0
M  V30 2642 H 261.619 1.37797 4.79389 0
M  V30 2643 H 260.773 -0.624422 6.03478 0
M  V30 2644 H 259.512 -0.883219 4.79636 0
M  V30 2645 H 258.517 1.35967 5.32722 0
M  V30 2646 H 259.742 1.60696 6.59813 0
M  V30 2647 H 257.688 -0.635999 6.5291 0
M  V30 2648 H 257.605 0.784044 7.51923 0
M  V30 2649 H 258.873 -0.374823 7.78598 0
M  V30 2650 N 263.102 -1.41638 0.69111 0
M  V30 2651 C 264.351 -2.00526 0.217318 0
M  V30 2652 C 264.664 -1.55353 -1.18848 0
M  V30 2653 O 265.87 -2.06769 -1.75951 0
M  V30 2654 C 264.326 -3.58313 0.337639 0
M  V30 2655 C 263.934 -4.12469 1.74852 0
M  V30 2656 C 265.678 -4.24431 -0.0766066 0
M  V30 2657 C 263.585 -5.62675 1.82074 0
M  V30 2658 H 262.515 -0.750008 0.0774893 0
M  V30 2659 H 265.166 -1.6217 0.858661 0
M  V30 2660 H 263.548 -3.9425 -0.371879 0
M  V30 2661 H 264.722 -3.8796 2.48644 0
M  V30 2662 H 263.037 -3.58861 2.11205 0
M  V30 2663 H 265.634 -5.34683 -0.0430284 0
M  V30 2664 H 265.977 -4.01101 -1.1146 0
M  V30 2665 H 266.51 -3.93512 0.582476 0
M  V30 2666 H 263.249 -5.90826 2.83911 0
M  V30 2667 H 262.769 -5.89124 1.12661 0
M  V30 2668 H 264.448 -6.27371 1.58159 0
M  V30 2669 N 264.58 -0.43555 -1.51462 0
M  V30 2670 C 265.991 0.0279871 -1.86679 0
M  V30 2671 C 266.342 1.42104 -1.35281 0
M  V30 2672 O 265.467 2.04667 -0.702878 0
M  V30 2673 C 266.062 0.0575626 -3.38751 0
M  V30 2674 C 264.621 0.465507 -3.7351 0
M  V30 2675 C 263.768 -0.342996 -2.75171 0
M  V30 2676 H 266.719 -0.651473 -1.44712 0
M  V30 2677 H 266.74 0.867421 -3.70481 0
M  V30 2678 H 266.252 -0.956448 -3.7613 0
M  V30 2679 H 264.353 1.48519 -3.41721 0
M  V30 2680 H 264.466 0.191546 -4.78717 0
M  V30 2681 H 262.83 0.198442 -2.53926 0
M  V30 2682 H 263.613 -1.35585 -3.15391 0
M  V30 2683 N 266.058 1.56714 -0.166846 0
M  V30 2684 C 267.021 2.16539 0.751232 0
M  V30 2685 C 268.021 1.11228 1.16125 0
M  V30 2686 O 269.211 1.36765 1.07894 0
M  V30 2687 C 266.343 2.74462 2.02196 0
M  V30 2688 H 267.536 2.99013 0.230499 0
M  V30 2689 H 265.089 1.56081 0.0826982 0
M  V30 2690 H 265.824 1.95709 2.58589 0
M  V30 2691 H 265.609 3.51527 1.73698 0
M  V30 2692 H 267.099 3.20489 2.67725 0
M  V30 2693 N 267.536 -0.106894 1.57237 0
M  V30 2694 C 268.468 -1.15646 1.97885 0
M  V30 2695 C 269.481 -1.36981 0.879779 0
M  V30 2696 O 270.67 -1.35841 1.15799 0
M  V30 2697 C 267.77 -2.51425 2.27241 0
M  V30 2698 C 266.943 -2.50529 3.58545 0
M  V30 2699 C 266.002 -3.68145 3.75973 0
M  V30 2700 O 265.028 -3.51176 4.47956 0
M  V30 2701 N 266.23 -4.87177 3.15656 0
M  V30 2702 H 268.995 -0.81059 2.8853 0
M  V30 2703 H 266.556 -0.296024 1.59171 0
M  V30 2704 H 268.548 -3.28689 2.36105 0
M  V30 2705 H 267.118 -2.78147 1.42663 0
M  V30 2706 H 266.338 -1.58894 3.60758 0
M  V30 2707 H 267.626 -2.46997 4.44826 0
M  V30 2708 H 267.024 -5.03868 2.57165 0
M  V30 2709 H 265.581 -5.62075 3.30023 0
M  V30 2710 N 269.014 -1.53014 -0.377408 0
M  V30 2711 C 269.962 -1.7927 -1.48206 0
M  V30 2712 C 270.956 -0.661195 -1.55963 0
M  V30 2713 O 272.162 -0.843908 -1.58991 0
M  V30 2714 H 268.537 -0.567425 -0.493491 0
M  V30 2715 H 270.508 -2.71753 -1.2326 0
M  V30 2716 C 269.257 -1.98894 -2.85196 0
M  V30 2717 H 268.58 -2.85395 -2.79981 0
M  V30 2718 H 270.02 -2.21249 -3.61698 0
M  V30 2719 C 268.479 -0.764691 -3.28107 0
M  V30 2720 O 269.009 0.0523226 -4.01666 0
M  V30 2721 N 267.215 -0.591493 -2.84517 0
M  V30 2722 H 266.762 -1.25749 -2.24822 0
M  V30 2723 H 266.72 0.226253 -3.13585 0
M  V30 2724 N 270.492 0.636531 -1.44174 0
M  V30 2725 C 271.422 1.76003 -1.53444 0
M  V30 2726 C 272.403 1.65619 -0.387841 0
M  V30 2727 O 273.588 1.84461 -0.607257 0
M  V30 2728 C 270.718 3.14511 -1.4731 0
M  V30 2729 C 269.672 3.39677 -2.60391 0
M  V30 2730 C 268.998 4.78159 -2.39308 0
M  V30 2731 C 270.298 3.32772 -4.02567 0
M  V30 2732 H 271.992 1.68501 -2.47483 0
M  V30 2733 H 269.538 0.809237 -1.19111 0
M  V30 2734 H 271.491 3.92878 -1.52397 0
M  V30 2735 H 270.215 3.22783 -0.49785 0
M  V30 2736 H 268.874 2.63688 -2.54684 0
M  V30 2737 H 268.522 4.83128 -1.39988 0
M  V30 2738 H 268.222 4.95956 -3.15122 0
M  V30 2739 H 269.746 5.58762 -2.46205 0
M  V30 2740 H 271.16 4.01051 -4.09672 0
M  V30 2741 H 269.557 3.62104 -4.7854 0
M  V30 2742 H 270.627 2.30669 -4.2652 0
M  V30 2743 N 271.97 1.30982 0.876444 0
M  V30 2744 C 273.198 1.23242 1.6619 0
M  V30 2745 C 273.613 -0.203345 1.87702 0
M  V30 2746 O 272.97 -1.13317 1.43057 0
M  V30 2747 C 273.021 1.96623 3.03351 0
M  V30 2748 O 272.742 3.34594 2.82804 0
M  V30 2749 C 274.243 1.95644 3.97792 0
M  V30 2750 H 271.463 0.426126 0.518322 0
M  V30 2751 H 274.007 1.7275 1.09442 0
M  V30 2752 H 272.162 1.50892 3.56806 0
M  V30 2753 H 272.576 3.71873 3.69879 0
M  V30 2754 H 274.05 2.51511 4.91372 0
M  V30 2755 H 274.527 0.937395 4.2908 0
M  V30 2756 H 275.133 2.41225 3.50272 0
M  V30 2757 N 273.449 -1.08991 1.13837 0
M  V30 2758 C 274.399 -2.1393 0.788535 0
M  V30 2759 C 275.383 -1.59396 -0.219516 0
M  V30 2760 O 276.575 -1.76985 -0.0227557 0
M  V30 2761 C 273.704 -3.42305 0.261147 0
M  V30 2762 C 272.79 -4.03736 1.29837 0
M  V30 2763 N 273.181 -4.39659 2.50067 0
M  V30 2764 C 271.479 -4.30993 1.1472 0
M  V30 2765 C 272.18 -4.88113 3.16419 0
M  V30 2766 N 271.156 -4.85846 2.43832 0
M  V30 2767 H 274.958 -2.39516 1.70322 0
M  V30 2768 H 272.472 -1.26263 1.02134 0
M  V30 2769 H 274.469 -4.16899 -0.0077405 0
M  V30 2770 H 273.129 -3.18172 -0.647805 0
M  V30 2771 H 274.14 -4.30878 2.8734 0
M  V30 2772 H 270.817 -4.16444 0.296773 0
M  V30 2773 H 272.207 -5.25336 4.18894 0
M  V30 2774 N 274.927 -0.932562 -1.27047 0
M  V30 2775 C 275.857 -0.452902 -2.29066 0
M  V30 2776 C 276.838 0.489338 -1.62909 0
M  V30 2777 O 278.023 0.393046 -1.90181 0
M  V30 2778 C 275.153 0.290698 -3.46081 0
M  V30 2779 C 274.107 -0.564168 -4.24265 0
M  V30 2780 C 273.433 0.308886 -5.33807 0
M  V30 2781 C 274.733 -1.83112 -4.89149 0
M  V30 2782 H 276.427 -1.30552 -2.69437 0
M  V30 2783 H 273.973 -0.629201 -1.29526 0
M  V30 2784 H 275.926 0.637233 -4.16554 0
M  V30 2785 H 274.65 1.17738 -3.0464 0
M  V30 2786 H 273.309 -0.893477 -3.55545 0
M  V30 2787 H 272.957 1.19467 -4.88607 0
M  V30 2788 H 272.657 -0.259633 -5.87026 0
M  V30 2789 H 274.181 0.650884 -6.07121 0
M  V30 2790 H 275.595 -1.55236 -5.51883 0
M  V30 2791 H 273.992 -2.34353 -5.52448 0
M  V30 2792 H 275.062 -2.54772 -4.12576 0
M  V30 2793 N 276.405 1.4127 -0.698611 0
M  V30 2794 C 277.335 2.33447 -0.049629 0
M  V30 2795 C 278.316 1.51982 0.763898 0
M  V30 2796 O 279.501 1.80509 0.716257 0
M  V30 2797 C 276.631 3.35828 0.885267 0
M  V30 2798 C 275.585 4.27627 0.178613 0
M  V30 2799 C 274.911 5.20406 1.22807 0
M  V30 2800 C 276.211 5.13459 -0.956933 0
M  V30 2801 H 277.905 2.87966 -0.81951 0
M  V30 2802 H 275.451 1.38461 -0.395538 0
M  V30 2803 H 277.404 3.9924 1.34854 0
M  V30 2804 H 276.128 2.79666 1.68685 0
M  V30 2805 H 274.787 3.65643 -0.26466 0
M  V30 2806 H 274.435 4.60558 2.02226 0
M  V30 2807 H 274.135 5.82661 0.760239 0
M  V30 2808 H 275.659 5.86695 1.69179 0
M  V30 2809 H 277.073 5.70421 -0.573805 0
M  V30 2810 H 275.47 5.8467 -1.35205 0
M  V30 2811 H 276.54 4.50443 -1.79524 0
M  V30 2812 N 277.883 0.443576 1.51229 0
M  V30 2813 C 279.113 -0.119117 2.06256 0
M  V30 2814 C 279.521 -1.36471 1.31043 0
M  V30 2815 O 278.864 -1.80034 0.365151 0
M  V30 2816 C 278.926 -0.500546 3.55998 0
M  V30 2817 C 278.59 0.639125 4.52509 0
M  V30 2818 C 279.587 1.51311 4.97394 0
M  V30 2819 C 277.272 0.821632 4.95535 0
M  V30 2820 C 279.266 2.55425 5.83984 0
M  V30 2821 C 276.953 1.86603 5.81913 0
M  V30 2822 C 277.951 2.73072 6.26036 0
M  V30 2823 O 277.639 3.75718 7.10698 0
M  V30 2824 H 277.371 -0.00857665 0.675946 0
M  V30 2825 H 279.925 0.623288 1.95715 0
M  V30 2826 H 278.155 -1.29575 3.64345 0
M  V30 2827 H 279.844 -0.995116 3.93513 0
M  V30 2828 H 280.61 1.38367 4.64844 0
M  V30 2829 H 276.489 0.158149 4.60729 0
M  V30 2830 H 280.033 3.22949 6.18344 0
M  V30 2831 H 275.93 1.99564 6.13876 0
M  V30 2832 H 276.698 3.72374 7.2889 0
M  V30 2833 N 279.361 -1.56624 0.175154 0
M  V30 2834 C 280.609 -1.96609 -0.467885 0
M  V30 2835 C 280.93 -1.06238 -1.63519 0
M  V30 2836 O 280.2 -0.129523 -1.95471 0
M  V30 2837 H 278.78 -0.726008 -0.175845 0
M  V30 2838 H 281.442 -1.93195 0.257234 0
M  V30 2839 H 280.538 -3.00989 -0.825342 0
M  V30 2840 N 280.839 0.0985539 -1.57292 0
M  V30 2841 C 282.086 0.802678 -1.85912 0
M  V30 2842 C 282.414 1.78901 -0.763186 0
M  V30 2843 O 281.669 1.94178 0.243559 0
M  V30 2844 C 281.968 1.56927 -3.21105 0
M  V30 2845 C 281.634 0.725376 -4.45027 0
M  V30 2846 C 280.296 0.492726 -4.78671 0
M  V30 2847 C 282.648 0.138493 -5.21016 0
M  V30 2848 C 279.976 -0.336727 -5.85733 0
M  V30 2849 C 282.328 -0.678264 -6.28953 0
M  V30 2850 C 280.992 -0.921039 -6.61115 0
M  V30 2851 H 280.262 0.293721 -0.680301 0
M  V30 2852 H 282.909 0.0642841 -1.91392 0
M  V30 2853 H 281.214 2.37914 -3.11294 0
M  V30 2854 H 282.911 2.11841 -3.40477 0
M  V30 2855 H 279.501 0.916815 -4.18679 0
M  V30 2856 H 283.685 0.305404 -4.95359 0
M  V30 2857 H 278.941 -0.533836 -6.09065 0
M  V30 2858 H 283.115 -1.1399 -6.87007 0
M  V30 2859 H 280.742 -1.56556 -7.43905 0
M  V30 2860 N 282.317 1.53212 0.369288 0
M  V30 2861 C 283.566 1.68436 1.10961 0
M  V30 2862 C 283.879 0.440738 1.9057 0
M  V30 2863 O 285.085 0.473446 2.6734 0
M  V30 2864 C 283.541 2.97744 2.0218 0
M  V30 2865 C 283.149 4.29355 1.279 0
M  V30 2866 C 284.893 3.22334 2.76226 0
M  V30 2867 C 282.8 5.49755 2.17999 0
M  V30 2868 H 281.73 0.627568 0.41794 0
M  V30 2869 H 284.381 1.79713 0.370884 0
M  V30 2870 H 282.763 2.8026 2.79768 0
M  V30 2871 H 283.937 4.57458 0.554007 0
M  V30 2872 H 282.252 4.11179 0.657311 0
M  V30 2873 H 284.849 4.09471 3.43857 0
M  V30 2874 H 285.192 2.38238 3.41392 0
M  V30 2875 H 285.725 3.40475 2.05723 0
M  V30 2876 H 282.464 6.36318 1.57417 0
M  V30 2877 H 281.984 5.25937 2.88359 0
M  V30 2878 H 283.663 5.84401 2.77641 0
M  V30 2879 N 283.795 -0.628877 1.44509 0
M  V30 2880 C 285.206 -1.21054 1.42137 0
M  V30 2881 C 285.557 -1.95715 0.137881 0
M  V30 2882 O 284.682 -2.02554 -0.761645 0
M  V30 2883 C 285.277 -2.20189 2.57493 0
M  V30 2884 C 283.836 -2.73777 2.58308 0
M  V30 2885 C 282.983 -1.48813 2.33987 0
M  V30 2886 H 285.934 -0.41942 1.53057 0
M  V30 2887 H 285.955 -3.02833 2.30375 0
M  V30 2888 H 285.467 -1.6582 3.50892 0
M  V30 2889 H 283.568 -3.32142 1.68856 0
M  V30 2890 H 283.681 -3.19662 3.56865 0
M  V30 2891 H 282.045 -1.77024 1.83124 0
M  V30 2892 H 282.828 -0.963442 3.29504 0
M  V30 2893 N 285.273 -1.31445 -0.869486 0
M  V30 2894 C 286.522 -1.20517 -1.61736 0
M  V30 2895 C 286.835 0.235341 -1.94179 0
M  V30 2896 O 288.041 0.466312 -2.67465 0
M  V30 2897 C 286.497 -2.10982 -2.91573 0
M  V30 2898 C 286.105 -3.60032 -2.66611 0
M  V30 2899 C 287.849 -2.08856 -3.69567 0
M  V30 2900 C 285.756 -4.42503 -3.92358 0
M  V30 2901 H 284.686 -0.447493 -0.606849 0
M  V30 2902 H 287.337 -1.56303 -0.96133 0
M  V30 2903 H 285.719 -1.68095 -3.58553 0
M  V30 2904 H 286.893 -4.11167 -2.08035 0
M  V30 2905 H 285.208 -3.64139 -2.0197 0
M  V30 2906 H 287.805 -2.67716 -4.62852 0
M  V30 2907 H 288.148 -1.07582 -4.02159 0
M  V30 2908 H 288.681 -2.49945 -3.09471 0
M  V30 2909 H 285.42 -5.44533 -3.64916 0
M  V30 2910 H 284.94 -3.96125 -4.50383 0
M  V30 2911 H 286.619 -4.54741 -4.60238 0
M  V30 2912 N 286.751 1.08385 -1.14413 0
M  V30 2913 C 287.991 1.8238 -0.922868 0
M  V30 2914 C 288.355 1.84225 0.540842 0
M  V30 2915 O 289.556 2.53985 0.880058 0
M  V30 2916 C 287.827 3.24048 -1.50757 0
M  V30 2917 S 289.386 4.14917 -1.4279 0
M  V30 2918 H 286.204 0.628524 -0.332384 0
M  V30 2919 H 288.806 1.30278 -1.45766 0
M  V30 2920 H 287.51 3.20288 -2.56601 0
M  V30 2921 H 287.041 3.81224 -0.971178 0
M  V30 2922 H 289.056 4.94473 -0.413582 0
M  V30 2923 N 288.23 0.939286 1.26551 0
M  V30 2924 C 289.478 0.58469 1.93457 0
M  V30 2925 C 289.799 -0.878774 1.74076 0
M  V30 2926 O 289.069 -1.62421 1.09528 0
M  V30 2927 H 287.649 0.21325 0.715914 0
M  V30 2928 H 290.311 1.1942 1.54029 0
M  V30 2929 H 289.407 0.800849 3.0165 0
M  V30 2930 N 289.708 -1.40897 0.706093 0
M  V30 2931 C 290.956 -2.00657 0.241054 0
M  V30 2932 C 291.277 -1.56241 -1.16678 0
M  V30 2933 O 290.547 -0.79765 -1.78926 0
M  V30 2934 H 289.127 -0.742018 0.0861308 0
M  V30 2935 H 291.789 -1.72372 0.909604 0
M  V30 2936 H 290.885 -3.10958 0.266705 0
M  V30 2937 N 291.186 -0.45159 -1.50991 0
M  V30 2938 C 292.134 0.366864 -2.29689 0
M  V30 2939 C 293.128 1.00809 -1.36139 0
M  V30 2940 O 294.334 0.941427 -1.53418 0
M  V30 2941 H 290.709 0.137133 -0.739391 0
M  V30 2942 H 292.68 -0.317538 -2.96706 0
M  V30 2943 C 291.429 1.44751 -3.16137 0
M  V30 2944 H 290.752 0.963473 -3.88017 0
M  V30 2945 H 292.192 1.99315 -3.74232 0
M  V30 2946 C 290.651 2.43869 -2.32442 0
M  V30 2947 O 291.181 3.4872 -1.99392 0
M  V30 2948 N 289.387 2.15105 -1.95392 0
M  V30 2949 H 288.934 1.29866 -2.22469 0
M  V30 2950 H 288.892 2.81661 -1.39693 0
M  V30 2951 N 292.664 1.56529 -0.183458 0
M  V30 2952 C 293.912 1.96855 0.457452 0
M  V30 2953 C 294.233 1.07104 1.62953 0
M  V30 2954 O 293.503 0.139887 1.954 0
M  V30 2955 H 292.083 0.72693 0.171992 0
M  V30 2956 H 294.745 1.93056 -0.267476 0
M  V30 2957 H 293.841 3.01423 0.809368 0
M  V30 2958 N 294.142 -0.090211 1.57342 0
M  V30 2959 C 295.391 -0.791531 1.8552 0
M  V30 2960 C 295.704 -1.79659 0.773441 0
M  V30 2961 O 296.91 -2.54616 0.942497 0
M  V30 2962 C 295.366 -1.45856 3.2902 0
M  V30 2963 C 294.974 -0.493017 4.45279 0
M  V30 2964 C 296.718 -2.14332 3.66418 0
M  V30 2965 C 294.625 -1.16491 5.79814 0
M  V30 2966 H 293.555 -0.299356 0.692027 0
M  V30 2967 H 296.206 -0.0445343 1.83446 0
M  V30 2968 H 294.588 -2.25318 3.2565 0
M  V30 2969 H 295.762 0.270464 4.60006 0
M  V30 2970 H 294.077 0.0863061 4.16311 0
M  V30 2971 H 296.674 -2.65344 4.64216 0
M  V30 2972 H 297.017 -2.93447 2.95287 0
M  V30 2973 H 297.55 -1.41724 3.71698 0
M  V30 2974 H 294.289 -0.41447 6.54188 0
M  V30 2975 H 293.809 -1.8997 5.68921 0
M  V30 2976 H 295.488 -1.69001 6.24538 0
M  V30 2977 N 295.62 -1.53406 -0.361157 0
M  V30 2978 C 296.568 -1.80832 -1.46296 0
M  V30 2979 C 297.562 -0.677699 -1.55253 0
M  V30 2980 O 298.768 -0.860723 -1.58087 0
M  V30 2981 H 295.143 -0.572627 -0.487445 0
M  V30 2982 H 297.114 -2.73045 -1.20371 0
M  V30 2983 C 295.863 -2.01907 -2.8307 0
M  V30 2984 H 295.186 -2.88349 -2.76938 0
M  V30 2985 H 296.626 -2.25072 -3.59331 0
M  V30 2986 C 295.085 -0.799449 -3.27277 0
M  V30 2987 O 295.615 0.00971761 -4.01699 0
M  V30 2988 N 293.821 -0.621637 -2.83873 0
M  V30 2989 H 293.368 -1.28126 -2.23476 0
M  V30 2990 H 293.326 0.19298 -3.13807 0
M  V30 2991 N 297.098 0.621204 -1.44841 0
M  V30 2992 C 298.375 1.38 -1.38619 0
M  V30 2993 C 298.755 2.11041 -0.0498935 0
M  V30 2994 O 298.103 2.06992 0.967816 0
M  V30 2995 C 298.313 2.33817 -2.59096 0
M  V30 2996 C 299.661 2.96844 -3.03593 0
M  V30 2997 O 300.685 2.44141 -2.59371 0
M  V30 2998 O 299.544 3.92476 -3.80296 0
M  V30 2999 H 296.638 0.61811 -0.549426 0
M  V30 3000 H 299.184 0.645429 -1.56947 0
M  V30 3001 H 297.956 1.79012 -3.47952 0
M  V30 3002 H 297.579 3.14676 -2.43032 0
M  V30 3003 N 298.576 1.31904 0.862503 0
M  V30 3004 C 299.801 1.25135 1.65397 0
M  V30 3005 C 300.226 -0.179 1.87246 0
M  V30 3006 O 299.584 -1.1277 1.4196 0
M  V30 3007 C 299.632 2.00832 2.99498 0
M  V30 3008 O 298.736 1.35075 3.89652 0
M  V30 3009 H 298.077 0.431655 0.504549 0
M  V30 3010 H 300.607 1.74094 1.07483 0
M  V30 3011 H 300.617 2.10709 3.49379 0
M  V30 3012 H 299.292 3.04847 2.82916 0
M  V30 3013 H 297.869 1.33696 3.48109 0
M  V30 3014 N 300.054 -1.07777 1.14986 0
M  V30 3015 C 300.984 -2.16865 0.865557 0
M  V30 3016 C 301.965 -1.69123 -0.182083 0
M  V30 3017 O 303.15 -1.94164 -0.0373815 0
M  V30 3018 C 300.28 -3.45539 0.349313 0
M  V30 3019 C 299.234 -4.06708 1.33313 0
M  V30 3020 C 298.56 -5.30411 0.675918 0
M  V30 3021 C 299.86 -4.47241 2.69764 0
M  V30 3022 H 301.554 -2.40905 1.77778 0
M  V30 3023 H 299.1 -1.15781 0.856203 0
M  V30 3024 H 301.053 -4.21174 0.137983 0
M  V30 3025 H 299.777 -3.21072 -0.598362 0
M  V30 3026 H 298.436 -3.33112 1.53075 0
M  V30 3027 H 298.084 -5.02232 -0.277767 0
M  V30 3028 H 297.784 -5.72293 1.33244 0
M  V30 3029 H 299.308 -6.08755 0.474262 0
M  V30 3030 H 300.722 -5.14025 2.53873 0
M  V30 3031 H 299.119 -5.00062 3.3175 0
M  V30 3032 H 300.189 -3.58818 3.26156 0
M  V30 3033 N 301.532 -0.945985 -1.26051 0
M  V30 3034 C 302.479 -0.45809 -2.26208 0
M  V30 3035 C 303.449 0.484816 -1.58867 0
M  V30 3036 O 304.634 0.399969 -1.86561 0
M  V30 3037 C 301.774 0.266131 -3.44072 0
M  V30 3038 C 300.887 -0.713005 -4.26075 0
M  V30 3039 C 300.022 0.0329013 -5.3119 0
M  V30 3040 C 299.061 -0.93774 -6.04874 0
M  V30 3041 N 298.198 -0.223274 -7.01745 0
M  V30 3042 H 303.038 -1.3171 -2.67313 0
M  V30 3043 H 300.575 -0.66069 -1.31428 0
M  V30 3044 H 302.533 0.702514 -4.11243 0
M  V30 3045 H 301.163 1.08925 -3.03867 0
M  V30 3046 H 300.215 -1.26789 -3.58648 0
M  V30 3047 H 301.527 -1.45406 -4.77136 0
M  V30 3048 H 300.681 0.528335 -6.04395 0
M  V30 3049 H 299.42 0.806801 -4.8098 0
M  V30 3050 H 298.425 -1.44425 -5.30492 0
M  V30 3051 H 299.65 -1.71172 -6.57173 0
M  V30 3052 H 297.596 0.532046 -6.53839 0
M  V30 3053 H 297.513 -0.90357 -7.50581 0
M  V30 3054 H 298.781 0.250907 -7.79096 0
M  V30 3055 N 303.011 1.40521 -0.713556 0
M  V30 3056 C 303.921 2.34522 -0.0606667 0
M  V30 3057 C 304.937 1.57193 0.74607 0
M  V30 3058 O 306.113 1.89591 0.679493 0
M  V30 3059 C 303.178 3.36081 0.851491 0
M  V30 3060 C 302.239 4.29286 0.0349339 0
M  V30 3061 C 301.472 5.25994 0.903649 0
M  V30 3062 O 301.695 5.28616 2.14292 0
M  V30 3063 O 300.629 6.00918 0.343723 0
M  V30 3064 H 304.455 2.91968 -0.835972 0
M  V30 3065 H 302.04 1.41681 -0.47402 0
M  V30 3066 H 303.922 3.98369 1.37404 0
M  V30 3067 H 302.597 2.81052 1.60598 0
M  V30 3068 H 301.504 3.70289 -0.532633 0
M  V30 3069 H 302.837 4.87462 -0.681287 0
M  V30 3070 N 304.489 0.459591 1.5075 0
M  V30 3071 C 305.738 -0.100971 2.01447 0
M  V30 3072 C 306.051 -1.41816 1.34713 0
M  V30 3073 O 307.257 -2.06299 1.76502 0
M  V30 3074 C 305.713 -0.23047 3.59161 0
M  V30 3075 C 305.321 1.0776 4.34847 0
M  V30 3076 C 307.065 -0.743608 4.17936 0
M  V30 3077 C 304.972 0.91253 5.84317 0
M  V30 3078 H 303.902 -0.0415102 0.752856 0
M  V30 3079 H 306.553 0.592742 1.73663 0
M  V30 3080 H 304.935 -0.987703 3.83485 0
M  V30 3081 H 306.109 1.8449 4.22256 0
M  V30 3082 H 304.424 1.52097 3.87628 0
M  V30 3083 H 307.021 -0.883959 5.27343 0
M  V30 3084 H 307.364 -1.73196 3.78562 0
M  V30 3085 H 307.897 -0.04408 3.97776 0
M  V30 3086 H 304.636 1.87391 6.28144 0
M  V30 3087 H 304.156 0.185422 5.99513 0
M  V30 3088 H 305.835 0.574547 6.44444 0
M  V30 3089 N 305.967 -1.56429 0.191757 0
M  V30 3090 C 306.877 -2.22541 -0.742481 0
M  V30 3091 C 307.893 -1.22342 -1.23727 0
M  V30 3092 O 309.069 -1.55069 -1.28513 0
M  V30 3093 C 306.134 -2.8692 -1.94623 0
M  V30 3094 C 305.195 -4.02378 -1.49633 0
M  V30 3095 C 304.428 -4.63678 -2.6427 0
M  V30 3096 O 304.651 -4.23895 -3.81666 0
M  V30 3097 O 303.585 -5.53202 -2.37174 0
M  V30 3098 H 307.411 -3.02977 -0.209462 0
M  V30 3099 H 304.996 -1.49353 -0.0373832 0
M  V30 3100 H 306.878 -3.27663 -2.64982 0
M  V30 3101 H 305.553 -2.09466 -2.46791 0
M  V30 3102 H 304.46 -3.66265 -0.761636 0
M  V30 3103 H 305.793 -4.81487 -1.02134 0
M  V30 3104 N 307.445 0.0818655 -1.57387 0
M  V30 3105 C 308.693 0.781368 -1.86384 0
M  V30 3106 C 309.014 1.78618 -0.782342 0
M  V30 3107 O 308.284 1.94976 0.190061 0
M  V30 3108 H 306.864 0.291562 -0.687751 0
M  V30 3109 H 309.526 0.060348 -1.94807 0
M  V30 3110 H 308.622 1.3038 -2.83562 0
M  V30 3111 N 308.923 1.53595 0.353017 0
M  V30 3112 C 310.148 1.7462 1.11904 0
M  V30 3113 C 310.573 0.479721 1.8188 0
M  V30 3114 O 309.931 -0.567066 1.72204 0
M  V30 3115 C 309.979 2.92029 2.11545 0
M  V30 3116 O 309.083 2.61516 3.18878 0
M  V30 3117 H 308.424 0.579531 0.324099 0
M  V30 3118 H 310.954 2.00525 0.406301 0
M  V30 3119 H 310.964 3.18551 2.5493 0
M  V30 3120 H 309.639 3.83888 1.60008 0
M  V30 3121 H 308.216 2.45852 2.80377 0
M  V30 3122 N 310.401 -0.613514 1.45168 0
M  V30 3123 C 311.648 -1.37268 1.48875 0
M  V30 3124 C 311.976 -1.94077 0.128161 0
M  V30 3125 O 311.231 -1.75178 -0.872416 0
M  V30 3126 C 311.53 -2.54347 2.51083 0
M  V30 3127 C 311.196 -2.1572 3.95949 0
M  V30 3128 C 309.858 -2.04899 4.35396 0
M  V30 3129 C 312.21 -1.85485 4.87078 0
M  V30 3130 C 309.538 -1.62057 5.63875 0
M  V30 3131 C 311.89 -1.4413 6.15962 0
M  V30 3132 C 310.554 -1.31863 6.54346 0
M  V30 3133 H 309.824 -0.502299 0.544773 0
M  V30 3134 H 312.471 -0.694021 1.78481 0
M  V30 3135 H 310.776 -3.27524 2.15024 0
M  V30 3136 H 312.473 -3.12577 2.51191 0
M  V30 3137 H 309.063 -2.25066 3.64751 0
M  V30 3138 H 313.247 -1.92745 4.57343 0
M  V30 3139 H 308.503 -1.51177 5.92415 0
M  V30 3140 H 312.677 -1.19778 6.86022 0
M  V30 3141 H 310.304 -0.984392 7.538 0
M  V30 3142 N 311.879 -1.3236 -0.855495 0
M  V30 3143 C 312.811 -1.17052 -1.97057 0
M  V30 3144 C 313.824 -0.10574 -1.62456 0
M  V30 3145 O 315.013 -0.354619 -1.74942 0
M  V30 3146 C 312.113 -0.769305 -3.30053 0
M  V30 3147 C 311.286 -1.9222 -3.929 0
M  V30 3148 C 310.345 -1.50466 -5.04228 0
M  V30 3149 O 309.371 -2.21655 -5.24269 0
M  V30 3150 N 310.573 -0.400209 -5.79119 0
M  V30 3151 H 313.338 -2.13103 -2.1073 0
M  V30 3152 H 310.899 -1.24885 -1.0303 0
M  V30 3153 H 312.891 -0.472407 -4.01933 0
M  V30 3154 H 311.461 0.100025 -3.1244 0
M  V30 3155 H 310.681 -2.38563 -3.13817 0
M  V30 3156 H 311.969 -2.69403 -4.31624 0
M  V30 3157 H 311.367 0.192319 -5.65373 0
M  V30 3158 H 309.924 -0.162912 -6.51596 0
M  V30 3159 N 313.357 1.07166 -1.15556 0
M  V30 3160 C 314.32 2.12589 -0.856644 0
M  V30 3161 C 315.32 1.6015 0.14444 0
M  V30 3162 O 316.51 1.7399 -0.0854163 0
M  V30 3163 C 313.642 3.39753 -0.279405 0
M  V30 3164 H 314.835 2.40539 -1.79112 0
M  V30 3165 H 312.388 1.23086 -0.963298 0
M  V30 3166 H 313.123 3.17447 0.663174 0
M  V30 3167 H 312.908 3.79117 -1.00063 0
M  V30 3168 H 314.398 4.17507 -0.0879113 0
M  V30 3169 N 314.835 0.952656 1.25548 0
M  V30 3170 C 315.765 0.489287 2.28316 0
M  V30 3171 C 316.746 -0.463359 1.63667 0
M  V30 3172 O 317.931 -0.36274 1.90782 0
M  V30 3173 C 315.061 -0.235603 3.465 0
M  V30 3174 C 314.015 0.631593 4.23314 0
M  V30 3175 C 313.341 -0.223923 5.34231 0
M  V30 3176 C 314.641 1.90871 4.86174 0
M  V30 3177 H 316.335 1.34822 2.67326 0
M  V30 3178 H 313.881 0.649728 1.28509 0
M  V30 3179 H 315.834 -0.570882 4.17515 0
M  V30 3180 H 314.558 -1.12877 3.06474 0
M  V30 3181 H 313.217 0.949929 3.54079 0
M  V30 3182 H 312.865 -1.11678 4.90446 0
M  V30 3183 H 312.565 0.35299 5.86539 0
M  V30 3184 H 314.089 -0.554214 6.0808 0
M  V30 3185 H 315.503 1.63997 5.49343 0
M  V30 3186 H 313.9 2.43112 5.4865 0
M  V30 3187 H 314.97 2.61304 4.08471 0
M  V30 3188 N 316.313 -1.40141 0.720998 0
M  V30 3189 C 317.245 -2.29177 0.0324669 0
M  V30 3190 C 318.258 -1.46105 -0.718126 0
M  V30 3191 O 319.447 -1.69335 -0.564608 0
M  V30 3192 C 316.547 -3.24473 -0.978292 0
M  V30 3193 C 315.72 -4.36423 -0.292115 0
M  V30 3194 C 314.779 -5.12122 -1.20901 0
M  V30 3195 O 313.805 -5.64981 -0.691766 0
M  V30 3196 N 315.007 -5.21992 -2.53978 0
M  V30 3197 H 317.772 -2.88909 0.796984 0
M  V30 3198 H 315.333 -1.51569 0.569068 0
M  V30 3199 H 317.325 -3.71987 -1.59398 0
M  V30 3200 H 315.895 -2.65871 -1.64413 0
M  V30 3201 H 315.115 -3.90967 0.503847 0
M  V30 3202 H 316.403 -5.08467 0.183971 0
M  V30 3203 H 315.801 -4.8054 -2.98493 0
M  V30 3204 H 314.358 -5.72995 -3.10677 0
M  V30 3205 N 317.792 -0.46758 -1.50504 0
M  V30 3206 C 319.208 -0.121533 -1.59137 0
M  V30 3207 C 319.408 1.3717 -1.47603 0
M  V30 3208 O 318.464 2.14464 -1.33272 0
M  V30 3209 C 319.777 -0.6686 -2.93173 0
M  V30 3210 C 321.325 -0.631716 -3.06559 0
M  V30 3211 C 321.8 -1.15627 -4.43164 0
M  V30 3212 N 323.291 -1.11553 -4.49567 0
M  V30 3213 C 324.026 -1.49195 -5.5365 0
M  V30 3214 N 323.522 -1.94269 -6.65005 0
M  V30 3215 N 325.315 -1.4082 -5.44175 0
M  V30 3216 H 317.466 -1.4388 -1.56245 0
M  V30 3217 H 319.729 -0.594784 -0.738198 0
M  V30 3218 H 319.435 -1.71453 -3.07078 0
M  V30 3219 H 319.309 -0.11021 -3.77039 0
M  V30 3220 H 321.696 0.405297 -2.92304 0
M  V30 3221 H 321.777 -1.22687 -2.24458 0
M  V30 3222 H 321.421 -2.1919 -4.58168 0
M  V30 3223 H 321.351 -0.537365 -5.23851 0
M  V30 3224 H 323.842 -0.784895 -3.69659 0
M  V30 3225 H 324.155 -2.21148 -7.40482 0
M  V30 3226 H 322.5 -1.98219 -6.66134 0
M  V30 3227 H 325.691 -1.0545 -4.56068 0
M  V30 3228 H 325.864 -1.70481 -6.25172 0
M  V30 3229 N 319.27 1.56325 -0.20005 0
M  V30 3230 C 320.495 2.02548 0.44597 0
M  V30 3231 C 320.92 1.07922 1.5406 0
M  V30 3232 O 320.278 0.0635775 1.81188 0
M  V30 3233 C 320.326 3.47175 0.974761 0
M  V30 3234 O 319.43 3.55671 2.08739 0
M  V30 3235 H 318.771 0.655862 0.103638 0
M  V30 3236 H 321.301 2.02201 -0.312381 0
M  V30 3237 H 321.311 3.87067 1.2901 0
M  V30 3238 H 319.986 4.15538 0.17347 0
M  V30 3239 H 318.563 3.27657 1.78032 0
M  V30 3240 N 320.748 -0.0735177 1.57428 0
M  V30 3241 C 321.988 -0.778363 1.89 0
M  V30 3242 C 322.352 -1.7483 0.793634 0
M  V30 3243 O 323.553 -2.49811 0.992367 0
M  V30 3244 C 321.824 -1.46929 3.25802 0
M  V30 3245 S 323.383 -2.20943 3.79117 0
M  V30 3246 H 320.201 -0.258874 0.662197 0
M  V30 3247 H 322.803 -0.0345338 1.95469 0
M  V30 3248 H 321.507 -0.749532 4.03497 0
M  V30 3249 H 321.038 -2.25258 3.22525 0
M  V30 3250 H 323.053 -3.47435 3.54265 0
M  V30 3251 N 322.226 -1.5378 -0.344866 0
M  V30 3252 C 323.158 -1.77988 -1.44406 0
M  V30 3253 C 324.171 -0.661138 -1.48771 0
M  V30 3254 O 325.36 -0.937842 -1.51877 0
M  V30 3255 C 322.46 -1.86345 -2.8307 0
M  V30 3256 C 321.633 -3.16256 -3.0216 0
M  V30 3257 C 320.692 -3.15588 -4.21059 0
M  V30 3258 O 319.718 -3.89314 -4.15239 0
M  V30 3259 N 320.92 -2.37864 -5.29529 0
M  V30 3260 H 323.685 -2.72839 -1.24012 0
M  V30 3261 H 321.246 -1.52814 -0.534737 0
M  V30 3262 H 323.238 -1.83351 -3.60783 0
M  V30 3263 H 321.808 -0.986858 -2.96614 0
M  V30 3264 H 321.028 -3.32385 -2.11929 0
M  V30 3265 H 322.316 -4.0207 -3.11797 0
M  V30 3266 H 321.714 -1.77514 -5.37127 0
M  V30 3267 H 320.271 -2.40668 -6.05741 0
M  V30 3268 N 323.704 0.605807 -1.45491 0
M  V30 3269 C 324.952 1.36207 -1.49305 0
M  V30 3270 C 325.273 1.94519 -0.136863 0
M  V30 3271 O 324.543 1.77261 0.833983 0
M  V30 3272 H 323.123 0.50565 -0.549843 0
M  V30 3273 H 325.785 0.711239 -1.81459 0
M  V30 3274 H 324.881 2.18058 -2.23287 0
M  V30 3275 N 325.182 1.32811 0.848464 0
M  V30 3276 C 326.598 1.11937 1.13764 0
M  V30 3277 C 326.798 -0.0960789 2.01271 0
M  V30 3278 O 325.854 -0.779165 2.40178 0
M  V30 3279 C 327.167 2.402 1.809 0
M  V30 3280 C 328.715 2.46016 1.93508 0
M  V30 3281 C 329.19 3.74215 2.64059 0
M  V30 3282 N 330.681 3.75232 2.71579 0
M  V30 3283 C 331.416 4.71134 3.26833 0
M  V30 3284 N 330.912 5.77406 3.8285 0
M  V30 3285 N 332.705 4.58623 3.24995 0
M  V30 3286 H 324.856 2.1073 0.265855 0
M  V30 3287 H 327.119 0.930671 0.180431 0
M  V30 3288 H 326.825 3.29093 1.24058 0
M  V30 3289 H 326.699 2.51628 2.81004 0
M  V30 3290 H 329.086 1.57577 2.49506 0
M  V30 3291 H 329.167 2.38536 0.923811 0
M  V30 3292 H 328.811 4.63031 2.08722 0
M  V30 3293 H 328.741 3.78968 3.65637 0
M  V30 3294 H 331.232 2.98423 2.31845 0
M  V30 3295 H 331.545 6.46632 4.23187 0
M  V30 3296 H 329.89 5.81152 3.81165 0
M  V30 3297 H 333.081 3.74762 2.80484 0
M  V30 3298 H 333.254 5.33535 3.67756 0
M  V30 3299 N 326.66 -1.06551 1.16123 0
M  V30 3300 C 327.57 -2.17484 0.879662 0
M  V30 3301 C 328.586 -1.73377 -0.147104 0
M  V30 3302 O 329.762 -2.01379 0.0289128 0
M  V30 3303 C 326.827 -3.44591 0.381829 0
M  V30 3304 C 325.888 -4.0322 1.4735 0
M  V30 3305 C 325.121 -5.24261 0.999324 0
M  V30 3306 O 325.344 -5.70198 -0.151957 0
M  V30 3307 O 324.278 -5.74775 1.78653 0
M  V30 3308 H 328.104 -2.44075 1.80724 0
M  V30 3309 H 325.689 -1.16042 0.940992 0
M  V30 3310 H 327.571 -4.21254 0.111053 0
M  V30 3311 H 326.246 -3.19532 -0.51777 0
M  V30 3312 H 325.153 -3.2806 1.79798 0
M  V30 3313 H 326.486 -4.32568 2.34831 0
M  V30 3314 N 328.138 -0.959301 -1.25041 0
M  V30 3315 C 329.415 -0.533805 -1.88175 0
M  V30 3316 C 329.795 0.988994 -1.865 0
M  V30 3317 O 329.143 1.85677 -1.33177 0
M  V30 3318 C 329.353 -1.11575 -3.30684 0
M  V30 3319 C 330.701 -1.19548 -4.07423 0
M  V30 3320 O 331.725 -1.06765 -3.39823 0
M  V30 3321 O 330.584 -1.39656 -5.28354 0
M  V30 3322 H 327.678 -0.176772 -0.807887 0
M  V30 3323 H 330.224 -1.05303 -1.33076 0
M  V30 3324 H 328.996 -2.15884 -3.26358 0
M  V30 3325 H 328.619 -0.580059 -3.93346 0
M  V30 3326 N 329.616 1.39756 -0.72842 0
M  V30 3327 C 330.863 2.00645 -0.273487 0
M  V30 3328 C 331.191 1.57786 1.13727 0
M  V30 3329 O 330.446 0.794886 1.7883 0
M  V30 3330 C 330.745 3.56002 -0.315776 0
M  V30 3331 C 330.411 4.18489 -1.67863 0
M  V30 3332 C 329.073 4.3527 -2.05166 0
M  V30 3333 C 331.425 4.53219 -2.57375 0
M  V30 3334 C 328.753 4.84069 -3.31503 0
M  V30 3335 C 331.105 5.03423 -3.83077 0
M  V30 3336 C 329.769 5.18413 -4.20481 0
M  V30 3337 H 329.039 0.734211 -0.100076 0
M  V30 3338 H 331.686 1.6718 -0.933972 0
M  V30 3339 H 329.991 3.89452 0.428285 0
M  V30 3340 H 331.688 4.00963 0.0542575 0
M  V30 3341 H 328.278 4.05824 -1.37858 0
M  V30 3342 H 332.462 4.39878 -2.29827 0
M  V30 3343 H 327.718 4.93859 -3.60435 0
M  V30 3344 H 331.892 5.2927 -4.52599 0
M  V30 3345 H 329.519 5.55987 -5.18443 0
M  V30 3346 N 331.094 0.475555 1.50254 0
M  V30 3347 C 332.041 -0.316293 2.28622 0
M  V30 3348 C 333.011 -0.983227 1.33873 0
M  V30 3349 O 334.196 -0.994805 1.62814 0
M  V30 3350 C 331.336 -1.38975 3.1588 0
M  V30 3351 C 330.449 -0.737146 4.25664 0
M  V30 3352 C 329.584 -1.78887 5.00173 0
M  V30 3353 C 328.623 -1.11676 6.01826 0
M  V30 3354 N 327.76 -2.11154 6.69596 0
M  V30 3355 H 332.6 0.358297 2.95838 0
M  V30 3356 H 330.137 0.188541 1.45887 0
M  V30 3357 H 332.095 -2.02383 3.64825 0
M  V30 3358 H 330.725 -2.03344 2.50701 0
M  V30 3359 H 329.777 0.0096065 3.80399 0
M  V30 3360 H 331.089 -0.206816 4.98371 0
M  V30 3361 H 330.243 -2.49865 5.52859 0
M  V30 3362 H 328.982 -2.35302 4.27182 0
M  V30 3363 H 327.987 -0.392633 5.48396 0
M  V30 3364 H 329.212 -0.55945 6.76792 0
M  V30 3365 H 327.158 -2.66577 5.99394 0
M  V30 3366 H 327.075 -1.63118 7.38193 0
M  V30 3367 H 328.343 -2.81497 7.26897 0
M  V30 3368 N 332.573 -1.56217 0.208337 0
M  V30 3369 C 333.819 -1.98242 -0.427552 0
M  V30 3370 C 334.152 -1.09554 -1.60348 0
M  V30 3371 O 333.427 -0.15035 -1.93918 0
M  V30 3372 C 333.71 -3.4931 -0.874907 0
M  V30 3373 C 333.563 -4.48773 0.303751 0
M  V30 3374 C 334.882 -4.04424 -1.73577 0
M  V30 3375 H 332.001 -0.720744 -0.153936 0
M  V30 3376 H 334.643 -1.87586 0.30192 0
M  V30 3377 H 332.793 -3.58522 -1.49648 0
M  V30 3378 H 334.465 -4.51586 0.941682 0
M  V30 3379 H 332.708 -4.23194 0.953375 0
M  V30 3380 H 333.379 -5.51976 -0.0519883 0
M  V30 3381 H 335.855 -3.98075 -1.21143 0
M  V30 3382 H 334.731 -5.1047 -2.01771 0
M  V30 3383 H 334.992 -3.50494 -2.69456 0
M  V30 3384 N 334.051 0.0651679 -1.57465 0
M  V30 3385 C 335.276 0.779605 -1.9219 0
M  V30 3386 C 335.701 1.69988 -0.805333 0
M  V30 3387 O 335.059 1.79685 0.241435 0
M  V30 3388 C 335.107 1.54364 -3.2589 0
M  V30 3389 O 334.211 2.65474 -3.1559 0
M  V30 3390 H 333.552 0.212249 -0.629163 0
M  V30 3391 H 336.082 0.0314294 -2.04576 0
M  V30 3392 H 336.092 1.92146 -3.59922 0
M  V30 3393 H 334.767 0.868457 -4.06732 0
M  V30 3394 H 333.344 2.30501 -2.93128 0
M  V30 3395 N 335.529 1.53961 0.336706 0
M  V30 3396 C 336.778 1.70751 1.07363 0
M  V30 3397 C 337.091 0.481061 1.89592 0
M  V30 3398 O 338.297 0.530046 2.66276 0
M  V30 3399 C 336.753 3.01965 1.95818 0
M  V30 3400 C 336.361 4.31971 1.18764 0
M  V30 3401 C 338.105 3.28121 2.69327 0
M  V30 3402 C 336.012 5.54255 2.06289 0
M  V30 3403 H 334.942 0.636292 0.404535 0
M  V30 3404 H 337.593 1.80459 0.332681 0
M  V30 3405 H 335.975 2.86132 2.7376 0
M  V30 3406 H 337.149 4.5853 0.456849 0
M  V30 3407 H 335.464 4.12481 0.569946 0
M  V30 3408 H 338.061 4.16673 3.35094 0
M  V30 3409 H 338.404 2.45426 3.36261 0
M  V30 3410 H 338.937 3.44762 1.98454 0
M  V30 3411 H 335.676 6.39513 1.43885 0
M  V30 3412 H 335.196 5.31935 2.77138 0
M  V30 3413 H 336.875 5.90159 2.65182 0
M  V30 3414 N 337.007 -0.598083 1.45811 0
M  V30 3415 C 337.957 -1.70272 1.51629 0
M  V30 3416 C 338.941 -1.56382 0.378629 0
M  V30 3417 O 340.133 -1.65557 0.626087 0
M  V30 3418 C 337.262 -3.09042 1.49493 0
M  V30 3419 C 336.348 -3.28284 2.68496 0
M  V30 3420 N 336.739 -3.17748 3.93535 0
M  V30 3421 C 335.037 -3.59182 2.64394 0
M  V30 3422 C 335.738 -3.38579 4.7301 0
M  V30 3423 N 334.714 -3.63016 4.04624 0
M  V30 3424 H 338.516 -1.60634 2.46118 0
M  V30 3425 H 336.03 -0.801642 1.41235 0
M  V30 3426 H 338.027 -3.88302 1.51747 0
M  V30 3427 H 336.687 -3.19823 0.560683 0
M  V30 3428 H 337.698 -2.95944 4.25014 0
M  V30 3429 H 334.375 -3.76742 1.79922 0
M  V30 3430 H 335.765 -3.35747 5.82 0
M  V30 3431 N 338.485 -1.33259 -0.841409 0
M  V30 3432 C 339.762 -1.15174 -1.58096 0
M  V30 3433 C 340.142 0.282858 -2.09196 0
M  V30 3434 O 339.49 1.28151 -1.89181 0
M  V30 3435 C 339.7 -2.1907 -2.71679 0
M  V30 3436 C 341.048 -2.53093 -3.40924 0
M  V30 3437 O 342.072 -2.17717 -2.81918 0
M  V30 3438 O 340.931 -3.1379 -4.47435 0
M  V30 3439 H 338.025 -0.445303 -0.696875 0
M  V30 3440 H 340.571 -1.44833 -0.884385 0
M  V30 3441 H 339.343 -3.15443 -2.31541 0
M  V30 3442 H 338.966 -1.90481 -3.49002 0
M  V30 3443 N 339.963 1.05934 -1.16686 0
M  V30 3444 C 341.374 1.60263 -0.957745 0
M  V30 3445 C 341.725 1.89789 0.49745 0
M  V30 3446 O 340.85 1.67401 1.37135 0
M  V30 3447 C 341.445 2.91172 -1.73218 0
M  V30 3448 C 340.004 3.42188 -1.56794 0
M  V30 3449 C 339.151 2.16028 -1.73859 0
M  V30 3450 H 342.102 0.888392 -1.31504 0
M  V30 3451 H 342.123 3.60744 -1.21014 0
M  V30 3452 H 341.635 2.6965 -2.79124 0
M  V30 3453 H 339.736 3.68762 -0.533437 0
M  V30 3454 H 339.849 4.17273 -2.35414 0
M  V30 3455 H 338.213 2.26426 -1.16633 0
M  V30 3456 H 338.996 1.96985 -2.81161 0
M  V30 3457 N 341.441 0.965919 1.2453 0
M  V30 3458 C 342.688 0.626831 1.92554 0
M  V30 3459 C 343.016 -0.837739 1.75534 0
M  V30 3460 O 342.271 -1.61793 1.10098 0
M  V30 3461 C 342.57 0.945428 3.44669 0
M  V30 3462 C 342.236 2.39785 3.81856 0
M  V30 3463 C 340.898 2.79483 3.91718 0
M  V30 3464 C 343.25 3.34055 4.00071 0
M  V30 3465 C 340.578 4.12496 4.1721 0
M  V30 3466 C 342.93 4.66694 4.27059 0
M  V30 3467 C 341.594 5.06172 4.3514 0
M  V30 3468 H 340.864 0.229374 0.704605 0
M  V30 3469 H 343.511 1.21707 1.4785 0
M  V30 3470 H 341.816 0.272926 3.90848 0
M  V30 3471 H 343.513 0.661484 3.95507 0
M  V30 3472 H 340.103 2.08003 3.74743 0
M  V30 3473 H 344.287 3.04571 3.91855 0
M  V30 3474 H 339.543 4.42709 4.21685 0
M  V30 3475 H 343.717 5.3971 4.40097 0
M  V30 3476 H 341.344 6.09262 4.54646 0
M  V30 3477 N 342.919 -1.39368 0.735821 0
M  V30 3478 C 343.882 -2.2896 0.104874 0
M  V30 3479 C 344.882 -1.46347 -0.666274 0
M  V30 3480 O 346.072 -1.67014 -0.49517 0
M  V30 3481 C 343.204 -3.29857 -0.860656 0
M  V30 3482 H 344.397 -2.86259 0.894205 0
M  V30 3483 H 341.95 -1.48029 0.501704 0
M  V30 3484 H 342.685 -2.77615 -1.67631 0
M  V30 3485 H 342.47 -3.9087 -0.310327 0
M  V30 3486 H 343.96 -3.96893 -1.29867 0
M  V30 3487 N 344.397 -0.483516 -1.5 0
M  V30 3488 C 345.36 0.292965 -2.2732 0
M  V30 3489 C 346.36 0.909499 -1.32608 0
M  V30 3490 O 347.55 0.776745 -1.55924 0
M  V30 3491 C 344.682 1.41854 -3.09984 0
M  V30 3492 H 345.875 -0.385289 -2.97415 0
M  V30 3493 H 343.428 -0.237942 -1.54478 0
M  V30 3494 H 344.163 2.13148 -2.44414 0
M  V30 3495 H 343.948 0.982114 -3.79601 0
M  V30 3496 H 345.438 1.96597 -3.68429 0
M  V30 3497 N 345.875 1.56104 -0.216619 0
M  V30 3498 C 346.805 2.23063 0.690296 0
M  V30 3499 C 347.786 1.20072 1.20485 0
M  V30 3500 O 348.971 1.48643 1.24976 0
M  V30 3501 C 346.101 2.90672 1.90072 0
M  V30 3502 C 345.055 4.00092 1.5202 0
M  V30 3503 C 344.381 4.54972 2.80899 0
M  V30 3504 C 345.681 5.17398 0.71391 0
M  V30 3505 H 347.375 2.99109 0.132038 0
M  V30 3506 H 344.921 1.43866 0.0620664 0
M  V30 3507 H 346.874 3.36204 2.54057 0
M  V30 3508 H 345.598 2.12066 2.48386 0
M  V30 3509 H 344.257 3.55283 0.903839 0
M  V30 3510 H 343.905 3.73102 3.37348 0
M  V30 3511 H 343.605 5.28817 2.56176 0
M  V30 3512 H 345.129 5.0322 3.45836 0
M  V30 3513 H 346.543 5.59342 1.25735 0
M  V30 3514 H 344.94 5.97444 0.563951 0
M  V30 3515 H 346.01 4.84088 -0.280527 0
M  V30 3516 N 347.353 -0.0568162 1.57498 0
M  V30 3517 C 348.285 -1.09292 2.01464 0
M  V30 3518 C 349.298 -1.34112 0.922913 0
M  V30 3519 O 350.487 -1.32089 1.20062 0
M  V30 3520 C 347.587 -2.44068 2.35125 0
M  V30 3521 C 346.76 -2.38995 3.66333 0
M  V30 3522 C 345.819 -3.55997 3.87495 0
M  V30 3523 O 344.845 -3.36746 4.58901 0
M  V30 3524 N 346.047 -4.76888 3.30996 0
M  V30 3525 H 348.812 -0.718386 2.90963 0
M  V30 3526 H 346.373 -0.245235 1.60032 0
M  V30 3527 H 348.365 -3.21011 2.46443 0
M  V30 3528 H 346.935 -2.73468 1.5144 0
M  V30 3529 H 346.155 -1.47336 3.65631 0
M  V30 3530 H 347.443 -2.3272 4.52458 0
M  V30 3531 H 346.841 -4.95431 2.73065 0
M  V30 3532 H 345.398 -5.51291 3.47738 0
M  V30 3533 N 348.832 -1.54138 -0.328536 0
M  V30 3534 C 349.779 -1.83176 -1.40411 0
M  V30 3535 C 350.749 -0.678494 -1.5161 0
M  V30 3536 O 351.934 -0.92443 -1.6691 0
M  V30 3537 C 349.074 -2.06035 -2.76846 0
M  V30 3538 C 348.187 -3.33727 -2.74318 0
M  V30 3539 C 347.322 -3.46574 -4.02567 0
M  V30 3540 C 346.361 -4.68159 -3.94327 0
M  V30 3541 N 345.498 -4.77959 -5.14296 0
M  V30 3542 H 350.338 -2.74938 -1.14948 0
M  V30 3543 H 347.875 -1.36166 -0.556538 0
M  V30 3544 H 349.833 -2.1728 -3.56153 0
M  V30 3545 H 348.463 -1.1757 -3.00628 0
M  V30 3546 H 347.515 -3.31246 -1.8703 0
M  V30 3547 H 348.827 -4.23139 -2.64111 0
M  V30 3548 H 347.981 -3.57333 -4.90304 0
M  V30 3549 H 346.72 -2.55245 -4.15574 0
M  V30 3550 H 345.725 -4.57461 -3.04974 0
M  V30 3551 H 346.95 -5.60868 -3.82889 0
M  V30 3552 H 344.896 -3.89544 -5.27818 0
M  V30 3553 H 344.813 -5.6133 -5.06404 0
M  V30 3554 H 346.081 -4.93044 -6.03761 0
M  V30 3555 N 350.31 0.590341 -1.46126 0
M  V30 3556 C 351.273 1.68194 -1.55703 0
M  V30 3557 C 352.273 1.54808 -0.434868 0
M  V30 3558 O 353.463 1.59564 -0.698928 0
M  V30 3559 C 350.595 3.07575 -1.47005 0
M  V30 3560 H 351.788 1.61064 -2.52979 0
M  V30 3561 H 349.341 0.807541 -1.33823 0
M  V30 3562 H 350.076 3.20268 -0.509785 0
M  V30 3563 H 349.861 3.187 -2.28414 0
M  V30 3564 H 351.351 3.87055 -1.56776 0
M  V30 3565 N 351.788 1.33704 0.83433 0
M  V30 3566 C 352.72 1.20172 1.9517 0
M  V30 3567 C 353.733 0.131572 1.62267 0
M  V30 3568 O 354.922 0.382406 1.74356 0
M  V30 3569 C 352.022 0.821716 3.28787 0
M  V30 3570 C 351.195 1.98446 3.89792 0
M  V30 3571 C 350.254 1.58469 5.01771 0
M  V30 3572 O 349.28 2.29968 5.20676 0
M  V30 3573 N 350.482 0.492291 5.78409 0
M  V30 3574 H 353.247 2.16429 2.07313 0
M  V30 3575 H 350.808 1.26509 1.0103 0
M  V30 3576 H 352.8 0.536291 4.01131 0
M  V30 3577 H 351.37 -0.0503058 3.1256 0
M  V30 3578 H 350.59 2.43526 3.09982 0
M  V30 3579 H 351.878 2.76236 4.27283 0
M  V30 3580 H 351.276 -0.102349 5.65607 0
M  V30 3581 H 349.833 0.266555 6.51255 0
M  V30 3582 N 353.266 -1.05314 1.17247 0
M  V30 3583 C 354.213 -2.13031 0.888058 0
M  V30 3584 C 355.183 -1.65253 -0.167537 0
M  V30 3585 O 356.368 -1.90775 -0.0305974 0
M  V30 3586 C 353.508 -3.42702 0.406147 0
M  V30 3587 C 352.621 -4.04161 1.52572 0
M  V30 3588 C 351.756 -5.21744 0.997808 0
M  V30 3589 C 350.795 -5.75207 2.09291 0
M  V30 3590 N 349.932 -6.84094 1.57986 0
M  V30 3591 H 354.772 -2.36698 1.81048 0
M  V30 3592 H 352.309 -1.16121 0.903013 0
M  V30 3593 H 354.267 -4.17059 0.108305 0
M  V30 3594 H 352.897 -3.19222 -0.479313 0
M  V30 3595 H 351.949 -3.27253 1.93931 0
M  V30 3596 H 353.261 -4.39881 2.35172 0
M  V30 3597 H 352.415 -6.03168 0.653739 0
M  V30 3598 H 351.154 -4.87495 0.141232 0
M  V30 3599 H 350.159 -4.92414 2.44557 0
M  V30 3600 H 351.384 -6.11505 2.95362 0
M  V30 3601 H 349.33 -6.51745 0.74598 0
M  V30 3602 H 349.247 -7.18811 2.34195 0
M  V30 3603 H 350.515 -7.69172 1.26468 0
M  V30 3604 N 354.744 -0.972509 -1.24016 0
M  V30 3605 C 355.992 -0.635776 -1.91839 0
M  V30 3606 C 356.313 0.832312 -1.76345 0
M  V30 3607 O 355.583 1.5946 -1.13795 0
M  V30 3608 H 354.163 -0.232157 -0.710009 0
M  V30 3609 H 356.825 -1.23462 -1.50809 0
M  V30 3610 H 355.921 -0.880545 -2.99421 0
M  V30 3611 N 356.222 1.38976 -0.743202 0
M  V30 3612 C 357.468 2.0064 -0.295189 0
M  V30 3613 C 357.801 1.5885 1.11716 0
M  V30 3614 O 357.076 0.821181 1.76315 0
M  V30 3615 C 357.359 3.578 -0.406318 0
M  V30 3616 C 357.212 4.09586 -1.85903 0
M  V30 3617 C 358.531 4.39616 0.206439 0
M  V30 3618 H 355.65 0.728935 -0.108733 0
M  V30 3619 H 358.292 1.65067 -0.940897 0
M  V30 3620 H 356.442 3.88235 0.143419 0
M  V30 3621 H 358.114 3.89837 -2.46627 0
M  V30 3622 H 356.357 3.6284 -2.3776 0
M  V30 3623 H 357.028 5.18708 -1.888 0
M  V30 3624 H 359.504 4.15273 -0.262283 0
M  V30 3625 H 358.38 5.48812 0.0983819 0
M  V30 3626 H 358.641 4.22754 1.2935 0
M  V30 3627 N 357.7 0.491464 1.49741 0
M  V30 3628 C 358.928 -0.0535151 2.06831 0
M  V30 3629 C 359.343 -1.31683 1.35296 0
M  V30 3630 O 358.7 -1.77402 0.42836 0
M  V30 3631 C 358.751 -0.320835 3.60073 0
M  V30 3632 O 358.472 0.892394 4.28915 0
M  V30 3633 C 359.973 -0.910519 4.33848 0
M  V30 3634 H 357.193 0.0161909 0.670805 0
M  V30 3635 H 359.737 0.68609 1.92647 0
M  V30 3636 H 357.892 -1.0104 3.73991 0
M  V30 3637 H 358.306 0.649401 5.20464 0
M  V30 3638 H 359.78 -1.04721 5.41976 0
M  V30 3639 H 360.257 -1.90589 3.95692 0
M  V30 3640 H 360.863 -0.258712 4.24512 0
M  V30 3641 N 359.178 -1.55987 0.224894 0
M  V30 3642 C 360.141 -2.19178 -0.670348 0
M  V30 3643 C 361.141 -1.15461 -1.11917 0
M  V30 3644 O 362.331 -1.40675 -1.02743 0
M  V30 3645 C 359.463 -2.81777 -1.9187 0
M  V30 3646 H 360.656 -2.99662 -0.119364 0
M  V30 3647 H 358.209 -1.5628 -0.0247128 0
M  V30 3648 H 358.944 -2.05172 -2.51147 0
M  V30 3649 H 358.729 -3.57732 -1.60531 0
M  V30 3650 H 360.219 -3.30205 -2.55645 0
M  V30 3651 N 360.656 0.0484629 -1.57525 0
M  V30 3652 C 361.902 0.738854 -1.89506 0
M  V30 3653 C 362.257 1.73989 -0.821319 0
M  V30 3654 O 361.55 1.90825 0.172129 0
M  V30 3655 C 361.744 1.46632 -3.25935 0
M  V30 3656 C 361.573 0.537254 -4.46479 0
M  V30 3657 C 360.343 0.165484 -5.05029 0
M  V30 3658 C 362.541 -0.176085 -5.13998 0
M  V30 3659 N 360.523 -0.766868 -6.09091 0
M  V30 3660 C 361.894 -0.96478 -6.12448 0
M  V30 3661 C 363.949 -0.24509 -4.97296 0
M  V30 3662 C 362.652 -1.8161 -6.95996 0
M  V30 3663 C 364.678 -1.08347 -5.81391 0
M  V30 3664 C 364.04 -1.86014 -6.79395 0
M  V30 3665 H 360.139 0.245067 -0.742608 0
M  V30 3666 H 362.723 -0.000476161 -1.947 0
M  V30 3667 H 360.894 2.17623 -3.21706 0
M  V30 3668 H 362.626 2.10757 -3.45491 0
M  V30 3669 H 359.381 0.523466 -4.70698 0
M  V30 3670 H 359.805 -1.22698 -6.65788 0
M  V30 3671 H 364.447 0.341063 -4.21422 0
M  V30 3672 H 362.165 -2.41313 -7.71229 0
M  V30 3673 H 365.751 -1.14014 -5.70519 0
M  V30 3674 H 364.631 -2.4984 -7.43337 0
M  V30 3675 N 362.134 1.5431 0.320358 0
M  V30 3676 C 363.411 1.63322 1.07635 0
M  V30 3677 C 363.791 0.46912 2.05821 0
M  V30 3678 O 363.139 -0.536274 2.22118 0
M  V30 3679 C 363.349 3.00465 1.77544 0
M  V30 3680 C 364.697 3.56621 2.30449 0
M  V30 3681 O 365.721 3.02791 1.87606 0
M  V30 3682 O 364.58 4.5083 3.08892 0
M  V30 3683 H 361.674 0.661502 0.496331 0
M  V30 3684 H 364.22 1.66656 0.319992 0
M  V30 3685 H 362.992 3.76629 1.06143 0
M  V30 3686 H 362.615 3.00824 2.59982 0
M  V30 3687 N 363.613 -0.582584 1.46437 0
M  V30 3688 C 364.89 -1.34276 1.4223 0
M  V30 3689 C 365.27 -2.10835 0.10583 0
M  V30 3690 O 364.618 -2.09485 -0.912596 0
M  V30 3691 C 364.828 -2.26865 2.65204 0
M  V30 3692 C 366.176 -2.88691 3.11356 0
M  V30 3693 O 367.2 -2.37178 2.65753 0
M  V30 3694 O 366.059 -3.82255 3.90568 0
M  V30 3695 H 363.153 -0.603326 0.565621 0
M  V30 3696 H 365.699 -0.603591 1.58603 0
M  V30 3697 H 364.471 -1.69724 3.52576 0
M  V30 3698 H 364.094 -3.08122 2.5129 0
M  V30 3699 N 365.091 -1.34144 -0.827227 0
M  V30 3700 C 366.502 -1.23557 -1.39966 0
M  V30 3701 C 366.853 0.140731 -1.95695 0
M  V30 3702 O 365.978 1.04087 -1.89723 0
M  V30 3703 C 366.573 -2.23708 -2.54441 0
M  V30 3704 C 365.132 -2.16924 -3.07605 0
M  V30 3705 C 364.279 -2.10549 -1.80456 0
M  V30 3706 H 367.23 -1.45573 -0.631991 0
M  V30 3707 H 367.251 -1.85157 -3.32411 0
M  V30 3708 H 366.763 -3.23866 -2.13851 0
M  V30 3709 H 364.864 -1.20107 -3.52711 0
M  V30 3710 H 364.977 -3.07988 -3.66988 0
M  V30 3711 H 363.341 -1.56203 -2.01178 0
M  V30 3712 H 364.124 -3.12535 -1.42046 0
M  V30 3713 N 366.569 1.04691 -1.17803 0
M  V30 3714 C 367.799 1.81183 -0.992788 0
M  V30 3715 C 368.207 1.8347 0.462098 0
M  V30 3716 O 367.55 1.2643 1.33271 0
M  V30 3717 C 367.612 3.28363 -1.46349 0
M  V30 3718 C 367.276 3.49749 -2.94151 0
M  V30 3719 C 368.273 3.41456 -3.92051 0
M  V30 3720 C 365.958 3.76548 -3.32441 0
M  V30 3721 C 367.952 3.59656 -5.26238 0
M  V30 3722 C 365.639 3.94396 -4.66792 0
M  V30 3723 C 366.637 3.8595 -5.635 0
M  V30 3724 O 366.325 4.03294 -6.9542 0
M  V30 3725 H 366.057 0.577622 -0.351182 0
M  V30 3726 H 368.611 1.32876 -1.5663 0
M  V30 3727 H 366.841 3.77609 -0.833574 0
M  V30 3728 H 368.53 3.86395 -1.24313 0
M  V30 3729 H 369.296 3.20723 -3.63815 0
M  V30 3730 H 365.175 3.82224 -2.57732 0
M  V30 3731 H 368.719 3.52979 -6.01707 0
M  V30 3732 H 364.616 4.14622 -4.94731 0
M  V30 3733 H 365.384 4.2049 -7.02232 0
M  V30 3734 N 368.047 0.979072 1.23499 0
M  V30 3735 C 368.994 0.517904 2.24914 0
M  V30 3736 C 369.964 -0.442525 1.60097 0
M  V30 3737 O 371.149 -0.350365 1.87556 0
M  V30 3738 C 368.289 -0.174813 3.44657 0
M  V30 3739 C 367.402 0.825721 4.24035 0
M  V30 3740 C 366.537 0.107946 5.3109 0
M  V30 3741 C 365.576 1.09778 6.02175 0
M  V30 3742 N 364.713 0.40925 7.00906 0
M  V30 3743 H 369.553 1.38751 2.63727 0
M  V30 3744 H 367.09 0.695303 1.2963 0
M  V30 3745 H 369.048 -0.593233 4.12961 0
M  V30 3746 H 367.678 -1.0083 3.06648 0
M  V30 3747 H 366.73 1.36253 3.55161 0
M  V30 3748 H 368.042 1.58005 4.73113 0
M  V30 3749 H 367.196 -0.367904 6.05583 0
M  V30 3750 H 365.935 -0.678994 4.8295 0
M  V30 3751 H 364.94 1.5844 5.26476 0
M  V30 3752 H 366.165 1.88536 6.52404 0
M  V30 3753 H 364.111 -0.358506 6.5502 0
M  V30 3754 H 364.028 1.10226 7.47921 0
M  V30 3755 H 365.296 -0.0442557 7.79487 0
M  V30 3756 N 369.525 -1.3858 0.750561 0
M  V30 3757 C 370.773 -1.99789 0.30477 0
M  V30 3758 C 371.094 -1.59874 -1.11649 0
M  V30 3759 O 370.364 -0.85417 -1.76297 0
M  V30 3760 H 368.944 -0.738902 0.109694 0
M  V30 3761 H 371.606 -1.69391 0.963983 0
M  V30 3762 H 370.702 -3.09952 0.365499 0
M  V30 3763 N 371.003 -0.499398 -1.49478 0
M  V30 3764 C 371.951 0.293604 -2.3074 0
M  V30 3765 C 372.945 0.96427 -1.39277 0
M  V30 3766 O 374.151 0.892141 -1.56336 0
M  V30 3767 H 370.526 0.113541 -0.743379 0
M  V30 3768 H 372.497 -0.411772 -2.95545 0
M  V30 3769 C 371.246 1.3462 -3.20582 0
M  V30 3770 H 370.569 0.83954 -3.90886 0
M  V30 3771 H 372.009 1.87308 -3.80384 0
M  V30 3772 C 370.468 2.36351 -2.40083 0
M  V30 3773 O 370.998 3.422 -2.10385 0
M  V30 3774 N 369.204 2.0878 -2.02137 0
M  V30 3775 H 368.751 1.22723 -2.26488 0
M  V30 3776 H 368.709 2.77075 -1.48583 0
M  V30 3777 N 372.481 1.55866 -0.233164 0
M  V30 3778 C 373.728 1.98603 0.395374 0
M  V30 3779 C 374.056 1.12105 1.58942 0
M  V30 3780 O 373.311 0.168656 1.94972 0
M  V30 3781 C 373.61 3.46856 0.861724 0
M  V30 3782 C 373.276 4.50348 -0.223066 0
M  V30 3783 C 371.938 4.78371 -0.521038 0
M  V30 3784 C 374.29 5.12355 -0.956124 0
M  V30 3785 C 371.618 5.6568 -1.55638 0
M  V30 3786 C 373.97 6.00786 -1.98089 0
M  V30 3787 C 372.634 6.27148 -2.28565 0
M  V30 3788 H 371.904 0.726739 0.144677 0
M  V30 3789 H 374.551 1.88491 -0.338114 0
M  V30 3790 H 372.856 3.5423 1.67418 0
M  V30 3791 H 374.553 3.77302 1.35809 0
M  V30 3792 H 371.143 4.28596 0.0193234 0
M  V30 3793 H 375.327 4.90765 -0.739166 0
M  V30 3794 H 370.583 5.84365 -1.798 0
M  V30 3795 H 374.757 6.4788 -2.55391 0
M  V30 3796 H 372.384 6.94597 -3.08932 0
M  V30 3797 N 373.959 -0.0401083 1.57549 0
M  V30 3798 C 375.207 -0.731677 1.8839 0
M  V30 3799 C 375.528 -1.76481 0.829425 0
M  V30 3800 O 374.798 -1.95411 -0.1383 0
M  V30 3801 H 373.378 -0.273225 0.695239 0
M  V30 3802 H 376.04 -0.00867725 1.94898 0
M  V30 3803 H 375.136 -1.22816 2.86919 0
M  V30 3804 N 375.437 -1.54477 -0.31217 0
M  V30 3805 C 376.369 -1.81011 -1.40598 0
M  V30 3806 C 377.382 -0.692546 -1.47335 0
M  V30 3807 O 378.571 -0.969847 -1.49854 0
M  V30 3808 C 375.671 -1.92307 -2.79054 0
M  V30 3809 C 374.844 -3.22594 -2.95384 0
M  V30 3810 C 373.903 -3.24448 -4.1427 0
M  V30 3811 O 372.929 -3.98035 -4.06887 0
M  V30 3812 N 374.131 -2.49042 -5.24365 0
M  V30 3813 H 376.896 -2.75408 -1.18196 0
M  V30 3814 H 374.457 -1.53914 -0.502202 0
M  V30 3815 H 376.449 -1.90962 -3.56813 0
M  V30 3816 H 375.019 -1.04955 -2.94454 0
M  V30 3817 H 374.239 -3.36806 -2.04831 0
M  V30 3818 H 375.527 -4.08593 -3.03198 0
M  V30 3819 H 374.925 -1.88867 -5.33241 0
M  V30 3820 H 373.482 -2.53463 -6.005 0
M  V30 3821 N 376.915 0.57481 -1.46744 0
M  V30 3822 C 377.845 1.69337 -1.60771 0
M  V30 3823 C 378.826 1.63825 -0.457736 0
M  V30 3824 O 380.011 1.8172 -0.684947 0
M  V30 3825 C 377.141 3.0798 -1.60517 0
M  V30 3826 C 376.095 3.28327 -2.74564 0
M  V30 3827 C 375.421 4.67578 -2.59373 0
M  V30 3828 C 376.721 3.15398 -4.16319 0
M  V30 3829 H 378.415 1.57853 -2.54407 0
M  V30 3830 H 375.961 0.75799 -1.22436 0
M  V30 3831 H 377.914 3.86061 -1.68923 0
M  V30 3832 H 376.638 3.20381 -0.634305 0
M  V30 3833 H 375.297 2.52649 -2.65639 0
M  V30 3834 H 374.945 4.76755 -1.60353 0
M  V30 3835 H 374.645 4.82144 -3.35873 0
M  V30 3836 H 376.169 5.47817 -2.69682 0
M  V30 3837 H 377.583 3.83315 -4.26313 0
M  V30 3838 H 375.98 3.41482 -4.93468 0
M  V30 3839 H 377.05 2.12372 -4.3592 0
M  V30 3840 N 378.394 1.34581 0.820102 0
M  V30 3841 C 379.327 1.20735 1.93644 0
M  V30 3842 C 380.305 0.0983343 1.62302 0
M  V30 3843 O 381.489 0.263997 1.86642 0
M  V30 3844 C 378.616 0.856037 3.27704 0
M  V30 3845 C 377.662 1.97521 3.78005 0
M  V30 3846 S 378.495 3.58906 3.97425 0
M  V30 3847 C 379.651 3.25822 5.34407 0
M  V30 3848 H 379.884 2.15231 2.05093 0
M  V30 3849 H 377.417 1.1964 0.97599 0
M  V30 3850 H 379.375 0.660133 4.05157 0
M  V30 3851 H 378.036 -0.0706253 3.14021 0
M  V30 3852 H 377.229 1.68321 4.75062 0
M  V30 3853 H 376.831 2.12875 3.07507 0
M  V30 3854 H 379.123 2.77812 6.17922 0
M  V30 3855 H 380.066 4.22029 5.68592 0
M  V30 3856 H 380.474 2.61932 5.00052 0
M  V30 3857 N 379.872 -1.04064 1.18357 0
M  V30 3858 C 380.835 -2.10243 0.912707 0
M  V30 3859 C 381.835 -1.60477 -0.101928 0
M  V30 3860 O 383.025 -1.73703 0.131517 0
M  V30 3861 C 380.157 -3.38893 0.369387 0
M  V30 3862 H 381.35 -2.35706 1.85426 0
M  V30 3863 H 378.903 -1.20489 0.995594 0
M  V30 3864 H 379.638 -3.19094 -0.578776 0
M  V30 3865 H 379.423 -3.76331 1.1008 0
M  V30 3866 H 380.913 -4.17128 0.198575 0
M  V30 3867 N 381.35 -0.985608 -1.22978 0
M  V30 3868 C 382.28 -0.549649 -2.26939 0
M  V30 3869 C 383.261 0.419803 -1.64838 0
M  V30 3870 O 384.446 0.31203 -1.91677 0
M  V30 3871 C 381.576 0.143652 -3.47003 0
M  V30 3872 C 380.53 -0.743606 -4.21491 0
M  V30 3873 C 379.856 0.0822027 -5.34637 0
M  V30 3874 C 381.156 -2.03694 -4.80943 0
M  V30 3875 H 382.85 -1.41862 -2.63658 0
M  V30 3876 H 380.396 -0.683571 -1.26741 0
M  V30 3877 H 382.349 0.459985 -4.18882 0
M  V30 3878 H 381.073 1.04711 -3.09359 0
M  V30 3879 H 379.732 -1.04347 -3.51436 0
M  V30 3880 H 379.38 0.986359 -4.93234 0
M  V30 3881 H 379.08 -0.508377 -5.85397 0
M  V30 3882 H 380.604 0.392797 -6.09335 0
M  V30 3883 H 382.018 -1.78504 -5.44802 0
M  V30 3884 H 380.415 -2.57573 -5.42011 0
M  V30 3885 H 381.485 -2.72042 -4.01399 0
M  V30 3886 N 382.828 1.3818 -0.7579 0
M  V30 3887 C 383.775 2.30416 -0.133057 0
M  V30 3888 C 384.745 1.50398 0.704957 0
M  V30 3889 O 385.93 1.79014 0.660192 0
M  V30 3890 C 383.07 3.36834 0.750813 0
M  V30 3891 C 382.183 4.31879 -0.102297 0
M  V30 3892 C 381.318 5.25368 0.784979 0
M  V30 3893 C 380.357 6.12058 -0.0715046 0
M  V30 3894 N 379.494 6.97832 0.772972 0
M  V30 3895 H 384.334 2.83274 -0.925186 0
M  V30 3896 H 381.871 1.39461 -0.467866 0
M  V30 3897 H 383.829 3.97145 1.27794 0
M  V30 3898 H 382.459 2.85374 1.50868 0
M  V30 3899 H 381.511 3.72991 -0.747095 0
M  V30 3900 H 382.823 4.92921 -0.763552 0
M  V30 3901 H 381.977 5.90818 1.37911 0
M  V30 3902 H 380.716 4.64703 1.47996 0
M  V30 3903 H 379.721 5.456 -0.678272 0
M  V30 3904 H 380.946 6.74793 -0.763606 0
M  V30 3905 H 378.892 6.3971 1.45282 0
M  V30 3906 H 378.809 7.55812 0.168709 0
M  V30 3907 H 380.077 7.67687 1.35194 0
M  V30 3908 N 384.306 0.507319 1.49211 0
M  V30 3909 C 385.238 -0.304532 2.27168 0
M  V30 3910 C 386.251 -0.924956 1.33972 0
M  V30 3911 O 387.44 -0.807227 1.59205 0
M  V30 3912 C 384.54 -1.44431 3.06583 0
M  V30 3913 C 383.713 -0.930026 4.27398 0
M  V30 3914 C 382.772 -1.94817 4.88807 0
M  V30 3915 O 381.798 -1.51418 5.4869 0
M  V30 3916 N 383 -3.279 4.79022 0
M  V30 3917 H 385.765 0.36395 2.97482 0
M  V30 3918 H 383.326 0.340249 1.58284 0
M  V30 3919 H 385.318 -2.12311 3.44537 0
M  V30 3920 H 383.888 -2.01684 2.38835 0
M  V30 3921 H 383.108 -0.0759244 3.94127 0
M  V30 3922 H 384.396 -0.564932 5.05654 0
M  V30 3923 H 383.794 -3.65843 4.3148 0
M  V30 3924 H 382.351 -3.91476 5.21142 0
M  V30 3925 N 385.784 -1.5574 0.241426 0
M  V30 3926 C 386.747 -2.19877 -0.647063 0
M  V30 3927 C 387.747 -1.16642 -1.10686 0
M  V30 3928 O 388.937 -1.41757 -1.01245 0
M  V30 3929 C 386.069 -2.83797 -1.88871 0
M  V30 3930 H 387.262 -2.99772 -0.087574 0
M  V30 3931 H 384.815 -1.56298 -0.00813574 0
M  V30 3932 H 385.55 -2.07824 -2.48957 0
M  V30 3933 H 385.335 -3.59414 -1.56728 0
M  V30 3934 H 386.825 -3.32898 -2.52129 0
M  V30 3935 N 387.262 0.0317525 -1.57568 0
M  V30 3936 C 388.212 1.04101 -2.02847 0
M  V30 3937 C 389.196 1.3219 -0.917317 0
M  V30 3938 O 390.388 1.31819 -1.18121 0
M  V30 3939 C 387.517 2.34295 -2.5092 0
M  V30 3940 C 386.603 2.09308 -3.68851 0
M  V30 3941 N 386.994 1.5437 -4.81667 0
M  V30 3942 C 385.292 2.39604 -3.76172 0
M  V30 3943 C 385.993 1.45126 -5.63306 0
M  V30 3944 N 384.969 1.92589 -5.08341 0
M  V30 3945 H 388.771 0.610217 -2.87495 0
M  V30 3946 H 386.285 0.238108 -1.60645 0
M  V30 3947 H 388.282 3.07404 -2.81617 0
M  V30 3948 H 386.942 2.78055 -1.67677 0
M  V30 3949 H 387.953 1.22678 -5.03161 0
M  V30 3950 H 384.63 2.86457 -3.03724 0
M  V30 3951 H 386.02 1.03163 -6.63933 0
M  V30 3952 N 388.74 1.54641 0.303973 0
M  V30 3953 C 390.151 1.64811 0.877163 0
M  V30 3954 C 390.502 0.554838 1.88191 0
M  V30 3955 O 389.627 -0.309033 2.14182 0
M  V30 3956 C 390.222 2.9876 1.59775 0
M  V30 3957 C 388.781 3.11061 2.11938 0
M  V30 3958 C 387.928 2.60479 0.951097 0
M  V30 3959 H 390.879 1.58493 0.0810486 0
M  V30 3960 H 390.9 2.90017 2.46314 0
M  V30 3961 H 390.412 3.7831 0.866226 0
M  V30 3962 H 388.513 2.36225 2.88146 0
M  V30 3963 H 388.626 4.17171 2.35595 0
M  V30 3964 H 386.99 2.16859 1.33583 0
M  V30 3965 H 387.773 3.42504 0.233581 0
M  V30 3966 N 390.218 -0.567019 1.47046 0
M  V30 3967 C 391.495 -1.3276 1.43646 0
M  V30 3968 C 391.875 -2.1071 0.128186 0
M  V30 3969 O 391.223 -2.10441 -0.890326 0
M  V30 3970 C 391.433 -2.2404 2.67595 0
M  V30 3971 C 392.781 -2.85372 3.14401 0
M  V30 3972 O 393.805 -2.34346 2.68254 0
M  V30 3973 O 392.664 -3.78091 3.946 0
M  V30 3974 H 389.758 -0.597293 0.571988 0
M  V30 3975 H 392.304 -0.586735 1.59234 0
M  V30 3976 H 391.076 -1.65975 3.54356 0
M  V30 3977 H 390.699 -3.05439 2.54544 0
M  V30 3978 N 391.696 -1.35014 -0.812953 0
M  V30 3979 C 392.626 -1.30069 -1.93919 0
M  V30 3980 C 393.607 -0.176275 -1.69184 0
M  V30 3981 O 394.792 -0.370227 -1.90638 0
M  V30 3982 C 391.922 -1.06547 -3.30552 0
M  V30 3983 C 390.876 -2.15561 -3.69753 0
M  V30 3984 C 390.202 -1.77214 -5.04479 0
M  V30 3985 C 391.502 -3.57476 -3.808 0
M  V30 3986 H 393.196 -2.24303 -1.98314 0
M  V30 3987 H 390.742 -1.07977 -0.952736 0
M  V30 3988 H 392.695 -1.01729 -4.08937 0
M  V30 3989 H 391.419 -0.0875719 -3.26483 0
M  V30 3990 H 390.078 -2.19466 -2.9365 0
M  V30 3991 H 389.726 -0.780589 -4.96906 0
M  V30 3992 H 389.426 -2.50184 -5.31678 0
M  V30 3993 H 390.95 -1.7391 -5.8531 0
M  V30 3994 H 392.364 -3.55929 -4.4943 0
M  V30 3995 H 390.761 -4.29152 -4.19462 0
M  V30 3996 H 391.831 -3.94091 -2.82525 0
M  V30 3997 N 393.175 1.03435 -1.18907 0
M  V30 3998 C 394.122 2.11591 -0.921837 0
M  V30 3999 C 395.092 1.65499 0.141226 0
M  V30 4000 O 396.277 1.908 0.000242829 0
M  V30 4001 C 393.417 3.42012 -0.460616 0
M  V30 4002 C 392.53 4.01682 -1.58982 0
M  V30 4003 C 391.665 5.20091 -1.08069 0
M  V30 4004 C 390.704 5.71805 -2.18416 0
M  V30 4005 N 389.841 6.81494 -1.68849 0
M  V30 4006 H 394.681 2.33787 -1.8479 0
M  V30 4007 H 392.218 1.1467 -0.921373 0
M  V30 4008 H 394.176 4.16834 -0.174642 0
M  V30 4009 H 392.806 3.19944 0.428467 0
M  V30 4010 H 391.858 3.24127 -1.99113 0
M  V30 4011 H 393.17 4.36084 -2.4214 0
M  V30 4012 H 392.324 6.02051 -0.749615 0
M  V30 4013 H 391.063 4.87209 -0.218771 0
M  V30 4014 H 390.068 4.88461 -2.5236 0
M  V30 4015 H 391.293 6.06728 -3.05054 0
M  V30 4016 H 389.239 6.50475 -0.849572 0
M  V30 4017 H 389.156 7.14994 -2.45601 0
M  V30 4018 H 390.424 7.67063 -1.38689 0
M  V30 4019 N 394.653 0.992116 1.22453 0
M  V30 4020 C 395.902 0.662992 1.90492 0
M  V30 4021 C 396.215 -0.808407 1.78113 0
M  V30 4022 O 397.421 -1.24908 2.41061 0
M  V30 4023 C 395.877 1.1353 3.41524 0
M  V30 4024 C 395.485 2.63187 3.62542 0
M  V30 4025 C 397.229 0.880465 4.15269 0
M  V30 4026 C 395.136 3.04024 5.0727 0
M  V30 4027 H 394.066 0.244278 0.713333 0
M  V30 4028 H 396.717 1.20157 1.38688 0
M  V30 4029 H 395.099 0.52485 3.92506 0
M  V30 4030 H 396.273 3.2957 3.22056 0
M  V30 4031 H 394.588 2.86543 3.02129 0
M  V30 4032 H 397.185 1.16128 5.21937 0
M  V30 4033 H 397.528 -0.183408 4.15896 0
M  V30 4034 H 398.061 1.45307 3.70312 0
M  V30 4035 H 394.8 4.09584 5.11782 0
M  V30 4036 H 394.32 2.42343 5.48662 0
M  V30 4037 H 395.999 2.95282 5.75689 0
M  V30 4038 N 396.131 -1.37776 0.765217 0
M  V30 4039 C 397.061 -2.32945 0.160953 0
M  V30 4040 C 398.042 -1.55454 -0.690516 0
M  V30 4041 O 399.227 -1.83721 -0.629318 0
M  V30 4042 C 396.357 -3.39669 -0.724031 0
M  V30 4043 C 395.311 -4.27992 0.0256173 0
M  V30 4044 C 394.637 -5.25673 -0.978383 0
M  V30 4045 C 395.937 -5.08309 1.20082 0
M  V30 4046 H 397.631 -2.83728 0.955969 0
M  V30 4047 H 395.177 -1.36416 0.461149 0
M  V30 4048 H 397.13 -4.05219 -1.15652 0
M  V30 4049 H 395.854 -2.87396 -1.5515 0
M  V30 4050 H 394.513 -3.63964 0.438812 0
M  V30 4051 H 394.161 -4.69682 -1.80022 0
M  V30 4052 H 393.861 -5.85625 -0.481378 0
M  V30 4053 H 395.385 -5.94098 -1.40995 0
M  V30 4054 H 396.799 -5.67034 0.845307 0
M  V30 4055 H 395.196 -5.77554 1.62947 0
M  V30 4056 H 396.266 -4.41365 2.00811 0
M  V30 4057 N 397.609 -0.515225 -1.4894 0
M  V30 4058 C 399.02 -0.0710067 -1.86565 0
M  V30 4059 C 399.371 1.34733 -1.42623 0
M  V30 4060 O 398.496 2.00653 -0.810379 0
M  V30 4061 C 399.091 -0.122083 -3.3858 0
M  V30 4062 C 397.65 0.266863 -3.75453 0
M  V30 4063 C 396.797 -0.488376 -2.72966 0
M  V30 4064 H 399.748 -0.727266 -1.41055 0
M  V30 4065 H 399.769 0.669818 -3.74558 0
M  V30 4066 H 399.281 -1.15448 -3.70531 0
M  V30 4067 H 397.382 1.30196 -3.49113 0
M  V30 4068 H 397.495 -0.0624811 -4.79059 0
M  V30 4069 H 395.859 0.0635622 -2.54621 0
M  V30 4070 H 396.642 -1.52113 -3.07761 0
M  V30 4071 N 399.087 1.5561 -0.249682 0
M  V30 4072 C 400.312 2.03865 0.381305 0
M  V30 4073 C 400.737 1.12769 1.50548 0
M  V30 4074 O 400.095 0.121189 1.80895 0
M  V30 4075 C 400.143 3.50101 0.863816 0
M  V30 4076 O 399.247 3.62132 1.97318 0
M  V30 4077 H 398.588 0.658827 0.0827194 0
M  V30 4078 H 401.118 2.01105 -0.376552 0
M  V30 4079 H 401.128 3.90975 1.1663 0
M  V30 4080 H 399.803 4.1588 0.0411816 0
M  V30 4081 H 398.38 3.33155 1.67517 0
M  V30 4082 N 400.565 -0.0233959 1.57583 0
M  V30 4083 C 401.814 -0.712133 1.8871 0
M  V30 4084 C 402.127 -1.76217 0.848944 0
M  V30 4085 O 403.333 -2.50389 1.04964 0
M  V30 4086 C 401.789 -1.3177 3.3491 0
M  V30 4087 C 401.397 -0.303715 4.46969 0
M  V30 4088 C 403.141 -1.98598 3.75179 0
M  V30 4089 C 401.048 -0.917945 5.84233 0
M  V30 4090 H 399.978 -0.269735 0.704101 0
M  V30 4091 H 402.629 0.0333114 1.8347 0
M  V30 4092 H 401.011 -2.11304 3.34913 0
M  V30 4093 H 402.185 0.465325 4.58445 0
M  V30 4094 H 400.5 0.2628 4.1557 0
M  V30 4095 H 403.097 -2.45416 4.75053 0
M  V30 4096 H 403.44 -2.80659 3.07468 0
M  V30 4097 H 403.973 -1.25831 3.77374 0
M  V30 4098 H 400.712 -0.136633 6.55358 0
M  V30 4099 H 400.232 -1.65669 5.76467 0
M  V30 4100 H 401.911 -1.4236 6.31144 0
M  V30 4101 N 402.043 -1.548 -0.295768 0
M  V30 4102 C 403.291 -1.73985 -1.02828 0
M  V30 4103 C 403.612 -0.531406 -1.87619 0
M  V30 4104 O 402.882 0.454221 -1.90561 0
M  V30 4105 H 401.462 -0.641556 -0.382642 0
M  V30 4106 H 404.124 -1.92163 -0.325489 0
M  V30 4107 H 403.22 -2.63129 -1.67838 0
M  V30 4108 N 403.521 0.559213 -1.47345 0
M  V30 4109 C 404.769 1.31388 -1.53563 0
M  V30 4110 C 405.09 1.93985 -0.198678 0
M  V30 4111 O 404.36 1.79825 0.777167 0
M  V30 4112 H 402.94 0.487901 -0.565652 0
M  V30 4113 H 405.602 0.65315 -1.8363 0
M  V30 4114 H 404.698 2.10844 -2.30111 0
M  V30 4115 N 404.999 1.35443 0.805782 0
M  V30 4116 C 406.245 1.2996 1.56467 0
M  V30 4117 C 406.6 -0.124742 1.91995 0
M  V30 4118 O 405.893 -1.07533 1.58579 0
M  V30 4119 C 406.087 2.14045 2.86216 0
M  V30 4120 C 405.916 3.64512 2.63365 0
M  V30 4121 C 404.686 4.33744 2.59219 0
M  V30 4122 C 406.884 4.58142 2.33688 0
M  V30 4123 N 404.866 5.69953 2.28094 0
M  V30 4124 C 406.237 5.8248 2.12408 0
M  V30 4125 C 408.292 4.46877 2.19558 0
M  V30 4126 C 406.995 6.96818 1.78429 0
M  V30 4127 C 409.021 5.61065 1.86976 0
M  V30 4128 C 408.383 6.84431 1.66532 0
M  V30 4129 H 404.482 0.530817 0.574245 0
M  V30 4130 H 407.066 1.70333 0.943126 0
M  V30 4131 H 405.237 1.75942 3.46264 0
M  V30 4132 H 406.969 2.00075 3.51784 0
M  V30 4133 H 403.724 3.86365 2.73896 0
M  V30 4134 H 404.148 6.41845 2.15323 0
M  V30 4135 H 408.79 3.52102 2.34061 0
M  V30 4136 H 406.508 7.91559 1.62664 0
M  V30 4137 H 410.094 5.54302 1.7675 0
M  V30 4138 H 408.974 7.71294 1.41688 0
M  V30 4139 N 406.477 -1.02803 1.19454 0
M  V30 4140 C 407.705 -1.79841 1.02297 0
M  V30 4141 C 408.12 -1.83879 -0.428259 0
M  V30 4142 O 407.477 -1.28345 -1.29745 0
M  V30 4143 C 407.528 -3.24852 1.58598 0
M  V30 4144 O 407.249 -3.21097 2.98041 0
M  V30 4145 C 408.75 -4.18485 1.46236 0
M  V30 4146 H 405.97 -0.565936 0.360496 0
M  V30 4147 H 408.514 -1.2948 1.58288 0
M  V30 4148 H 406.669 -3.72401 1.06753 0
M  V30 4149 H 407.083 -4.12033 3.24545 0
M  V30 4150 H 408.557 -5.18121 1.90407 0
M  V30 4151 H 409.034 -4.37254 0.41301 0
M  V30 4152 H 409.64 -3.76811 1.97215 0
M  V30 4153 N 407.956 -0.998596 -1.21925 0
M  V30 4154 C 408.886 -0.573688 -2.26343 0
M  V30 4155 C 409.867 0.402296 -1.65274 0
M  V30 4156 O 411.052 0.291683 -1.91997 0
M  V30 4157 C 408.182 0.106839 -3.47136 0
M  V30 4158 C 407.136 -0.788269 -4.20678 0
M  V30 4159 C 406.462 0.0254927 -5.34694 0
M  V30 4160 C 407.762 -2.08784 -4.78755 0
M  V30 4161 H 409.456 -1.44651 -2.62138 0
M  V30 4162 H 407.002 -0.696975 -1.26009 0
M  V30 4163 H 408.955 0.415531 -4.19346 0
M  V30 4164 H 407.679 1.01424 -3.10452 0
M  V30 4165 H 406.338 -1.08069 -3.50309 0
M  V30 4166 H 405.986 0.933989 -4.94253 0
M  V30 4167 H 405.686 -0.570437 -5.84825 0
M  V30 4168 H 407.21 0.328147 -6.09718 0
M  V30 4169 H 408.624 -1.84272 -5.42878 0
M  V30 4170 H 407.021 -2.63307 -5.39249 0
M  V30 4171 H 408.091 -2.76284 -3.98491 0
M  V30 4172 N 409.434 1.37368 -0.772513 0
M  V30 4173 C 410.659 2.0447 -0.347386 0
M  V30 4174 C 411.084 1.57882 1.0225 0
M  V30 4175 O 410.442 0.73941 1.65537 0
M  V30 4176 C 410.49 3.58369 -0.400479 0
M  V30 4177 O 409.594 4.0803 0.598789 0
M  V30 4178 H 408.935 0.646773 -0.15027 0
M  V30 4179 H 411.465 1.75667 -1.04892 0
M  V30 4180 H 411.475 4.07183 -0.258045 0
M  V30 4181 H 410.15 3.91633 -1.39986 0
M  V30 4182 H 408.727 3.70534 0.419411 0
M  V30 4183 N 410.912 0.523116 1.48665 0
M  V30 4184 C 412.189 -0.0775449 1.95446 0
M  V30 4185 C 412.569 -1.5197 1.4652 0
M  V30 4186 O 411.917 -2.17876 0.688657 0
M  V30 4187 C 412.127 0.0326135 3.48985 0
M  V30 4188 C 413.475 -0.130141 4.24401 0
M  V30 4189 O 414.499 -0.0415142 3.56176 0
M  V30 4190 O 413.358 -0.31491 5.45592 0
M  V30 4191 H 410.452 -0.0831012 0.822814 0
M  V30 4192 H 412.998 0.587227 1.59216 0
M  V30 4193 H 411.77 1.03748 3.77296 0
M  V30 4194 H 411.393 -0.671317 3.91892 0
M  V30 4195 N 412.39 -1.55475 0.257931 0
M  V30 4196 C 413.801 -1.8511 -0.243135 0
M  V30 4197 C 414.152 -1.17986 -1.5676 0
M  V30 4198 O 413.277 -0.462102 -2.11409 0
M  V30 4199 C 413.872 -3.35826 -0.447929 0
M  V30 4200 C 412.431 -3.65647 -0.893245 0
M  V30 4201 C 411.578 -2.7729 0.0232965 0
M  V30 4202 H 414.529 -1.51261 0.480199 0
M  V30 4203 H 414.55 -3.58002 -1.28898 0
M  V30 4204 H 414.062 -3.84652 0.516196 0
M  V30 4205 H 412.163 -3.22308 -1.86945 0
M  V30 4206 H 412.276 -4.73312 -0.742469 0
M  V30 4207 H 410.64 -2.49942 -0.490021 0
M  V30 4208 H 411.423 -3.28926 0.982994 0
M  V30 4209 N 413.868 0.0150385 -1.57593 0
M  V30 4210 C 415.115 0.703001 -1.89906 0
M  V30 4211 C 415.443 1.74604 -0.856944 0
M  V30 4212 O 414.698 1.95197 0.140287 0
M  V30 4213 C 414.997 1.39686 -3.28972 0
M  V30 4214 C 414.663 0.488457 -4.48246 0
M  V30 4215 C 413.325 0.2383 -4.8061 0
M  V30 4216 C 415.677 -0.137881 -5.21018 0
M  V30 4217 C 413.005 -0.646738 -5.83125 0
M  V30 4218 C 415.357 -1.0107 -6.24474 0
M  V30 4219 C 414.021 -1.27019 -6.55303 0
M  V30 4220 H 413.291 0.257246 -0.694914 0
M  V30 4221 H 415.938 -0.037259 -1.91464 0
M  V30 4222 H 414.243 2.21079 -3.23468 0
M  V30 4223 H 415.94 1.93495 -3.51227 0
M  V30 4224 H 412.53 0.693593 -4.22951 0
M  V30 4225 H 416.714 0.0423953 -4.96282 0
M  V30 4226 H 411.97 -0.855937 -6.05379 0
M  V30 4227 H 416.144 -1.50247 -6.79999 0
M  V30 4228 H 413.771 -1.95769 -7.3456 0
M  V30 4229 N 415.346 1.54954 0.287554 0
M  V30 4230 C 416.593 1.74873 1.02106 0
M  V30 4231 C 416.921 0.541829 1.86801 0
M  V30 4232 O 416.176 -0.475992 1.89823 0
M  V30 4233 C 416.475 2.99833 1.94512 0
M  V30 4234 C 416.141 4.33029 1.25686 0
M  V30 4235 C 414.803 4.69233 1.06649 0
M  V30 4236 C 417.155 5.15542 0.765913 0
M  V30 4237 C 414.483 5.85518 0.372222 0
M  V30 4238 C 416.835 6.32542 0.0853101 0
M  V30 4239 C 415.499 6.67398 -0.1169 0
M  V30 4240 H 414.769 0.639906 0.373632 0
M  V30 4241 H 417.416 1.89219 0.294665 0
M  V30 4242 H 415.721 2.80325 2.73725 0
M  V30 4243 H 417.418 3.1244 2.51361 0
M  V30 4244 H 414.008 4.04564 1.41512 0
M  V30 4245 H 418.192 4.88059 0.90066 0
M  V30 4246 H 413.448 6.11057 0.204695 0
M  V30 4247 H 417.622 6.95741 -0.302936 0
M  V30 4248 H 415.249 7.57357 -0.656859 0
M  V30 4249 N 416.824 -0.551391 1.4764 0
M  V30 4250 C 418.071 -1.3083 1.54563 0
M  V30 4251 C 418.399 -1.93359 0.210361 0
M  V30 4252 O 417.654 -1.78721 -0.797332 0
M  V30 4253 C 417.953 -2.43469 2.61644 0
M  V30 4254 C 417.619 -1.98732 4.04742 0
M  V30 4255 C 416.281 -1.86248 4.43695 0
M  V30 4256 C 418.633 -1.64659 4.94507 0
M  V30 4257 C 415.961 -1.37995 5.70241 0
M  V30 4258 C 418.313 -1.17875 6.21521 0
M  V30 4259 C 416.977 -1.03992 6.5935 0
M  V30 4260 H 416.247 -0.478741 0.565587 0
M  V30 4261 H 418.894 -0.617697 1.81264 0
M  V30 4262 H 417.199 -3.18109 2.28722 0
M  V30 4263 H 418.896 -3.01642 2.64222 0
M  V30 4264 H 415.486 -2.09393 3.73968 0
M  V30 4265 H 419.67 -1.73174 4.65107 0
M  V30 4266 H 414.926 -1.25915 5.98294 0
M  V30 4267 H 419.1 -0.905739 6.90485 0
M  V30 4268 H 416.727 -0.663794 7.57296 0
M  V30 4269 N 418.302 -1.35869 -0.798587 0
M  V30 4270 C 419.235 -1.23801 -1.91699 0
M  V30 4271 C 420.213 -0.124143 -1.62125 0
M  V30 4272 O 421.397 -0.293656 -1.86199 0
M  V30 4273 C 418.524 -0.908063 -3.263 0
M  V30 4274 C 417.57 -2.0351 -3.74815 0
M  V30 4275 S 418.403 -3.65183 -3.91665 0
M  V30 4276 C 419.559 -3.34283 -5.29156 0
M  V30 4277 H 419.792 -2.18466 -2.01643 0
M  V30 4278 H 417.325 -1.21178 -0.956833 0
M  V30 4279 H 419.283 -0.724506 -4.04056 0
M  V30 4280 H 417.944 0.0206584 -3.14093 0
M  V30 4281 H 417.137 -1.75858 -4.72324 0
M  V30 4282 H 416.739 -2.1774 -3.04081 0
M  V30 4283 H 419.031 -2.87607 -6.13424 0
M  V30 4284 H 419.974 -4.31022 -5.61806 0
M  V30 4285 H 420.382 -2.69854 -4.95822 0
M  V30 4286 N 419.78 1.02168 -1.19998 0
M  V30 4287 C 421.028 1.75338 -1.00504 0
M  V30 4288 C 421.349 1.89387 0.464506 0
M  V30 4289 O 420.619 1.43268 1.33608 0
M  V30 4290 H 419.199 0.649564 -0.368885 0
M  V30 4291 H 421.861 1.23205 -1.51018 0
M  V30 4292 H 420.957 2.75892 -1.45912 0
M  V30 4293 N 421.258 1.00505 1.21394 0
M  V30 4294 C 422.535 0.603277 1.86064 0
M  V30 4295 C 422.915 -0.919095 1.90042 0
M  V30 4296 O 422.263 -1.80607 1.39977 0
M  V30 4297 C 422.473 1.23772 3.26315 0
M  V30 4298 C 423.821 1.34586 4.02705 0
M  V30 4299 O 424.845 1.19304 3.35626 0
M  V30 4300 O 423.704 1.59169 5.22807 0
M  V30 4301 H 420.798 0.206634 0.800769 0
M  V30 4302 H 423.344 1.1017 1.29076 0
M  V30 4303 H 422.116 2.27848 3.18121 0
M  V30 4304 H 421.739 0.725648 3.90922 0
M  V30 4305 N 422.737 -1.36956 0.779787 0
M  V30 4306 C 423.684 -2.30175 0.169697 0
M  V30 4307 C 424.654 -1.51501 -0.68094 0
M  V30 4308 O 425.839 -1.80042 -0.631629 0
M  V30 4309 C 422.979 -3.37985 -0.697131 0
M  V30 4310 C 422.092 -4.31661 0.170992 0
M  V30 4311 C 421.227 -5.2655 -0.701298 0
M  V30 4312 C 420.266 -6.11867 0.168869 0
M  V30 4313 N 419.403 -6.98973 -0.661855 0
M  V30 4314 H 424.243 -2.81767 0.970135 0
M  V30 4315 H 421.78 -1.38699 0.489994 0
M  V30 4316 H 423.738 -3.99128 -1.2146 0
M  V30 4317 H 422.368 -2.87739 -1.46309 0
M  V30 4318 H 421.42 -3.71756 0.80634 0
M  V30 4319 H 422.732 -4.91644 0.841875 0
M  V30 4320 H 421.886 -5.92937 -1.28494 0
M  V30 4321 H 420.625 -4.66998 -1.40584 0
M  V30 4322 H 419.63 -5.44452 0.764986 0
M  V30 4323 H 420.855 -6.73493 0.870863 0
M  V30 4324 H 418.801 -6.41941 -1.35086 0
M  V30 4325 H 418.718 -7.55984 -0.0484447 0
M  V30 4326 H 419.986 -7.6974 -1.22963 0
M  V30 4327 N 424.215 -0.530993 -1.48385 0
M  V30 4328 C 425.461 0.00274135 -2.028 0
M  V30 4329 C 425.794 1.33838 -1.40716 0
M  V30 4330 O 425.069 1.86465 -0.553277 0
M  V30 4331 C 425.352 0.123676 -3.59888 0
M  V30 4332 C 425.205 -1.2372 -4.3245 0
M  V30 4333 C 426.524 0.849967 -4.31814 0
M  V30 4334 H 423.643 -0.000477758 -0.737 0
M  V30 4335 H 426.285 -0.688217 -1.77098 0
M  V30 4336 H 424.435 0.712157 -3.81917 0
M  V30 4337 H 426.107 -1.86687 -4.21836 0
M  V30 4338 H 424.35 -1.81882 -3.93829 0
M  V30 4339 H 425.021 -1.10557 -5.40815 0
M  V30 4340 H 427.497 0.350572 -4.14621 0
M  V30 4341 H 426.373 0.903486 -5.41413 0
M  V30 4342 H 426.634 1.90047 -3.99167 0
M  V30 4343 N 425.693 1.55336 -0.266172 0
M  V30 4344 C 426.64 2.22172 0.625165 0
M  V30 4345 C 427.61 1.19211 1.15663 0
M  V30 4346 O 428.795 1.47723 1.20758 0
M  V30 4347 C 425.935 2.93972 1.8076 0
M  V30 4348 C 425.048 4.11632 1.31084 0
M  V30 4349 C 424.183 4.71099 2.45436 0
M  V30 4350 C 423.222 5.8097 1.92718 0
M  V30 4351 N 422.359 6.34538 3.00509 0
M  V30 4352 H 427.199 2.9796 0.0485582 0
M  V30 4353 H 424.736 1.47095 0.0122024 0
M  V30 4354 H 426.694 3.33811 2.50251 0
M  V30 4355 H 425.324 2.20623 2.35638 0
M  V30 4356 H 424.376 3.76975 0.509326 0
M  V30 4357 H 425.688 4.90893 0.884633 0
M  V30 4358 H 424.842 5.13612 3.22936 0
M  V30 4359 H 423.581 3.91096 2.91368 0
M  V30 4360 H 422.586 5.37916 1.13695 0
M  V30 4361 H 423.811 6.62836 1.47733 0
M  V30 4362 H 421.757 5.57433 3.45839 0
M  V30 4363 H 421.674 7.09046 2.62279 0
M  V30 4364 H 422.942 6.81709 3.78011 0
M  V30 4365 N 427.171 -0.0066808 1.57599 0
M  V30 4366 C 428.587 -0.36267 1.55425 0
M  V30 4367 C 428.787 -1.75209 0.995187 0
M  V30 4368 O 427.843 -2.44616 0.626058 0
M  V30 4369 C 429.156 -0.244017 2.99708 0
M  V30 4370 C 430.704 -0.319451 3.11366 0
M  V30 4371 C 431.179 -0.229998 4.57422 0
M  V30 4372 N 432.67 -0.288105 4.62303 0
M  V30 4373 C 433.405 -0.242127 5.72889 0
M  V30 4374 N 432.901 -0.147133 6.92644 0
M  V30 4375 N 434.694 -0.293502 5.61333 0
M  V30 4376 H 426.845 0.902314 1.92281 0
M  V30 4377 H 429.108 0.34525 0.882896 0
M  V30 4378 H 428.814 0.711678 3.44424 0
M  V30 4379 H 428.688 -1.02877 3.629 0
M  V30 4380 H 431.075 -1.26559 2.66584 0
M  V30 4381 H 431.156 0.495055 2.50964 0
M  V30 4382 H 430.8 0.712566 5.02877 0
M  V30 4383 H 430.73 -1.0629 5.15761 0
M  V30 4384 H 433.221 -0.363126 3.76151 0
M  V30 4385 H 433.534 -0.117763 7.7271 0
M  V30 4386 H 431.879 -0.112857 6.94908 0
M  V30 4387 H 435.07 -0.365864 4.66668 0
M  V30 4388 H 435.243 -0.254204 6.47501 0
M  V30 4389 N 428.649 -1.55105 -0.279332 0
M  V30 4390 C 429.926 -1.66119 -1.03267 0
M  V30 4391 C 430.306 -0.523525 -2.04505 0
M  V30 4392 O 429.654 0.477194 -2.23462 0
M  V30 4393 C 429.864 -3.05067 -1.69515 0
M  V30 4394 C 431.212 -3.62606 -2.20912 0
M  V30 4395 O 432.236 -3.07659 -1.79512 0
M  V30 4396 O 431.095 -4.58861 -2.96831 0
M  V30 4397 H 428.189 -0.674429 -0.478618 0
M  V30 4398 H 430.735 -1.67446 -0.275694 0
M  V30 4399 H 429.507 -3.79311 -0.9612 0
M  V30 4400 H 429.13 -3.07611 -2.51915 0
M  V30 4401 N 430.127 0.543554 -1.4793 0
M  V30 4402 C 431.543 0.870806 -1.3375 0
M  V30 4403 C 431.743 1.9864 -0.338261 0
M  V30 4404 O 430.799 2.51305 0.245371 0
M  V30 4405 C 432.112 1.25114 -2.73435 0
M  V30 4406 C 433.66 1.3618 -2.81823 0
M  V30 4407 C 434.135 1.77563 -4.22179 0
M  V30 4408 N 435.626 1.8469 -4.24787 0
M  V30 4409 C 436.361 2.18067 -5.30315 0
M  V30 4410 N 435.857 2.49963 -6.46135 0
M  V30 4411 N 437.65 2.18958 -5.17701 0
M  V30 4412 H 429.801 -0.19275 -2.11524 0
M  V30 4413 H 432.064 -0.0235777 -0.947707 0
M  V30 4414 H 431.77 0.50514 -3.48053 0
M  V30 4415 H 431.644 2.20431 -3.06088 0
M  V30 4416 H 434.031 2.09859 -2.07468 0
M  V30 4417 H 434.112 0.390169 -2.52807 0
M  V30 4418 H 433.756 1.04449 -4.97044 0
M  V30 4419 H 433.686 2.75753 -4.48629 0
M  V30 4420 H 436.177 1.62372 -3.41239 0
M  V30 4421 H 436.49 2.74497 -7.22406 0
M  V30 4422 H 434.835 2.47513 -6.49432 0
M  V30 4423 H 438.026 1.93488 -4.2624 0
M  V30 4424 H 438.199 2.44639 -6.00047 0
M  V30 4425 N 431.605 1.3629 0.791371 0
M  V30 4426 C 432.852 1.30412 1.54916 0
M  V30 4427 C 433.18 -0.117162 1.94147 0
M  V30 4428 O 432.435 -1.08599 1.62803 0
M  V30 4429 C 432.734 2.17068 2.8393 0
M  V30 4430 C 432.4 3.65645 2.63846 0
M  V30 4431 C 431.062 4.0614 2.58077 0
M  V30 4432 C 433.414 4.59855 2.45322 0
M  V30 4433 C 430.742 5.3899 2.31748 0
M  V30 4434 C 433.094 5.9292 2.2052 0
M  V30 4435 C 431.758 6.32542 2.13183 0
M  V30 4436 H 431.028 0.47721 0.566879 0
M  V30 4437 H 433.675 1.68325 0.913172 0
M  V30 4438 H 431.98 1.72085 3.51986 0
M  V30 4439 H 433.677 2.09846 3.4171 0
M  V30 4440 H 430.267 3.33518 2.69191 0
M  V30 4441 H 434.451 4.29443 2.48782 0
M  V30 4442 H 429.707 5.68672 2.24548 0
M  V30 4443 H 433.881 6.65487 2.05182 0
M  V30 4444 H 431.508 7.35412 1.92544 0
M  V30 4445 N 433.083 -1.0153 1.20538 0
M  V30 4446 C 434.329 -1.75408 1.01783 0
M  V30 4447 C 434.662 -1.88943 -0.448814 0
M  V30 4448 O 433.937 -1.4162 -1.33319 0
M  V30 4449 C 434.22 -3.17255 1.70356 0
M  V30 4450 C 434.073 -3.11508 3.24473 0
M  V30 4451 C 435.392 -4.15955 1.43769 0
M  V30 4452 H 432.511 -0.636713 0.371167 0
M  V30 4453 H 435.153 -1.18436 1.4857 0
M  V30 4454 H 433.303 -3.65898 1.30578 0
M  V30 4455 H 434.975 -2.70658 3.73553 0
M  V30 4456 H 433.218 -2.4887 3.55311 0
M  V30 4457 H 433.889 -4.11784 3.67611 0
M  V30 4458 H 436.365 -3.75973 1.7828 0
M  V30 4459 H 435.241 -5.13368 1.94279 0
M  V30 4460 H 435.502 -4.40586 0.365564 0
M  V30 4461 N 434.561 -1.01147 -1.20859 0
M  V30 4462 C 435.809 -0.696486 -1.89719 0
M  V30 4463 C 436.13 0.775788 -1.78904 0
M  V30 4464 O 435.4 1.55759 -1.18811 0
M  V30 4465 H 433.98 -0.254628 -0.702263 0
M  V30 4466 H 436.642 -1.28197 -1.46804 0
M  V30 4467 H 435.738 -0.975357 -2.96468 0
M  V30 4468 N 436.039 1.36541 -0.78704 0
M  V30 4469 C 437.264 2.0409 -0.369053 0
M  V30 4470 C 437.689 1.58957 1.00569 0
M  V30 4471 O 437.047 0.756926 1.64743 0
M  V30 4472 C 437.095 3.57924 -0.438466 0
M  V30 4473 O 436.199 4.08642 0.555479 0
M  V30 4474 H 435.54 0.645142 -0.157122 0
M  V30 4475 H 438.07 1.74545 -1.06749 0
M  V30 4476 H 438.08 4.06887 -0.301218 0
M  V30 4477 H 436.755 3.90127 -1.44132 0
M  V30 4478 H 435.332 3.70958 0.380088 0
M  V30 4479 N 437.518 0.538854 1.48102 0
M  V30 4480 C 438.764 0.00801365 2.02798 0
M  V30 4481 C 439.097 -1.3309 1.41424 0
M  V30 4482 O 438.372 -1.86169 0.563158 0
M  V30 4483 C 438.655 -0.104589 3.59948 0
M  V30 4484 C 438.508 1.26012 4.31788 0
M  V30 4485 C 439.827 -0.827055 4.32259 0
M  V30 4486 H 436.946 0.00438624 0.736987 0
M  V30 4487 H 439.588 0.6976 1.7673 0
M  V30 4488 H 437.738 -0.691893 3.82289 0
M  V30 4489 H 439.41 1.88922 4.2084 0
M  V30 4490 H 437.653 1.83968 3.92859 0
M  V30 4491 H 438.324 1.13424 5.40221 0
M  V30 4492 H 440.8 -0.328578 4.14801 0
M  V30 4493 H 439.676 -0.87476 5.41885 0
M  V30 4494 H 439.937 -1.87927 4.0017 0
M  V30 4495 N 438.996 -1.55193 0.274407 0
M  V30 4496 C 439.943 -2.225 -0.613374 0
M  V30 4497 C 440.913 -1.19823 -1.15029 0
M  V30 4498 O 442.098 -1.48362 -1.19973 0
M  V30 4499 C 439.238 -2.94927 -1.79199 0
M  V30 4500 C 438.351 -4.12322 -1.28899 0
M  V30 4501 C 437.486 -4.72394 -2.42934 0
M  V30 4502 C 436.525 -5.81984 -1.89634 0
M  V30 4503 N 435.662 -6.36123 -2.9714 0
M  V30 4504 H 440.502 -2.97982 -0.032756 0
M  V30 4505 H 438.039 -1.47099 -0.00440146 0
M  V30 4506 H 439.997 -3.35134 -2.48478 0
M  V30 4507 H 438.627 -2.2187 -2.34465 0
M  V30 4508 H 437.679 -3.7724 -0.489327 0
M  V30 4509 H 438.991 -4.91355 -0.858587 0
M  V30 4510 H 438.145 -5.15317 -3.20208 0
M  V30 4511 H 436.884 -3.92636 -2.8929 0
M  V30 4512 H 435.889 -5.38511 -1.1084 0
M  V30 4513 H 437.114 -6.6361 -1.44215 0
M  V30 4514 H 435.06 -5.59259 -3.42878 0
M  V30 4515 H 434.977 -7.10427 -2.58515 0
M  V30 4516 H 436.245 -6.83704 -3.74391 0
M  V30 4517 N 440.474 -0.00167713 -1.576 0
M  V30 4518 C 441.384 1.00548 -2.1196 0
M  V30 4519 C 442.4 1.3758 -1.06526 0
M  V30 4520 O 443.576 1.46278 -1.38436 0
M  V30 4521 C 440.641 2.27809 -2.6135 0
M  V30 4522 C 439.702 1.97074 -3.81393 0
M  V30 4523 C 438.935 3.18267 -4.28417 0
M  V30 4524 O 439.158 4.30009 -3.74765 0
M  V30 4525 O 438.092 3.02167 -5.20556 0
M  V30 4526 H 441.918 0.573373 -2.98238 0
M  V30 4527 H 439.503 0.217255 -1.47812 0
M  V30 4528 H 441.385 3.02568 -2.93309 0
M  V30 4529 H 440.06 2.70254 -1.78169 0
M  V30 4530 H 438.967 1.19785 -3.54404 0
M  V30 4531 H 440.3 1.59464 -4.65652 0
M  V30 4532 N 441.952 1.55251 0.271103 0
M  V30 4533 C 443.199 1.75946 1.00245 0
M  V30 4534 C 443.527 0.561611 1.86215 0
M  V30 4535 O 442.782 -0.455832 1.90317 0
M  V30 4536 C 443.081 3.01879 1.91321 0
M  V30 4537 C 442.747 4.34337 1.21086 0
M  V30 4538 C 441.409 4.70338 1.01666 0
M  V30 4539 C 443.761 5.16325 0.71119 0
M  V30 4540 C 441.089 5.8588 0.310099 0
M  V30 4541 C 443.441 6.32597 0.0182157 0
M  V30 4542 C 442.105 6.67236 -0.18768 0
M  V30 4543 H 441.375 0.643833 0.366824 0
M  V30 4544 H 444.022 1.89521 0.27458 0
M  V30 4545 H 442.327 2.83212 2.70736 0
M  V30 4546 H 444.024 3.15088 2.48033 0
M  V30 4547 H 440.614 4.06043 1.37213 0
M  V30 4548 H 444.798 4.88987 0.848844 0
M  V30 4549 H 440.054 6.1124 0.139873 0
M  V30 4550 H 444.228 6.9538 -0.376711 0
M  V30 4551 H 441.855 7.56618 -0.73715 0
M  V30 4552 N 443.43 -0.535701 1.48216 0
M  V30 4553 C 444.36 -1.65014 1.65204 0
M  V30 4554 C 445.341 -1.62554 0.501011 0
M  V30 4555 O 446.526 -1.7984 0.732886 0
M  V30 4556 C 443.656 -3.03616 1.68626 0
M  V30 4557 C 442.61 -3.20932 2.83172 0
M  V30 4558 C 441.936 -4.60537 2.71679 0
M  V30 4559 C 443.236 -3.04249 4.24535 0
M  V30 4560 H 444.93 -1.51053 2.58502 0
M  V30 4561 H 442.476 -0.725262 1.24402 0
M  V30 4562 H 444.429 -3.81446 1.79099 0
M  V30 4563 H 443.153 -3.18587 0.719026 0
M  V30 4564 H 441.812 -2.45517 2.72244 0
M  V30 4565 H 441.46 -4.72336 1.72937 0
M  V30 4566 H 441.16 -4.73069 3.48538 0
M  V30 4567 H 442.684 -5.40475 2.84112 0
M  V30 4568 H 444.098 -3.71877 4.36326 0
M  V30 4569 H 442.495 -3.28278 5.02348 0
M  V30 4570 H 443.565 -2.00739 4.41397 0
M  V30 4571 N 444.908 -1.36708 -0.784132 0
M  V30 4572 C 445.84 -1.27333 -1.90575 0
M  V30 4573 C 446.853 -0.191706 -1.61667 0
M  V30 4574 O 448.042 -0.446854 -1.72816 0
M  V30 4575 C 445.142 -0.943177 -3.25511 0
M  V30 4576 C 444.315 -2.12776 -3.82158 0
M  V30 4577 C 443.374 -1.76983 -4.95544 0
M  V30 4578 O 442.4 -2.49134 -5.11782 0
M  V30 4579 N 443.602 -0.706624 -5.76183 0
M  V30 4580 H 446.367 -2.23974 -1.99138 0
M  V30 4581 H 443.928 -1.30171 -0.962656 0
M  V30 4582 H 445.92 -0.684799 -3.98864 0
M  V30 4583 H 444.49 -0.0657333 -3.12531 0
M  V30 4584 H 443.71 -2.54863 -3.0073 0
M  V30 4585 H 444.998 -2.91904 -4.16737 0
M  V30 4586 H 444.396 -0.107643 -5.65598 0
M  V30 4587 H 442.953 -0.50808 -6.49817 0
M  V30 4588 N 446.386 1.0089 -1.21074 0
M  V30 4589 C 447.614 1.78191 -1.05145 0
M  V30 4590 C 448.029 1.84537 0.398952 0
M  V30 4591 O 447.386 1.30393 1.27687 0
M  V30 4592 C 447.437 3.22288 -1.63746 0
M  V30 4593 O 447.158 3.16315 -3.03111 0
M  V30 4594 C 448.659 4.16106 -1.52875 0
M  V30 4595 H 445.879 0.560129 -0.369454 0
M  V30 4596 H 448.423 1.26945 -1.60328 0
M  V30 4597 H 446.578 3.70655 -1.12664 0
M  V30 4598 H 446.992 4.06817 -3.31059 0
M  V30 4599 H 448.466 5.15026 -1.98626 0
M  V30 4600 H 448.943 4.36541 -0.482521 0
M  V30 4601 H 449.549 3.73625 -2.03185 0
M  V30 4602 N 447.864 1.01787 1.20321 0
M  V30 4603 C 449.11 0.718699 1.90279 0
M  V30 4604 C 449.465 -0.743669 1.77447 0
M  V30 4605 O 448.758 -1.53345 1.14874 0
M  V30 4606 C 448.952 1.09076 3.40349 0
M  V30 4607 C 448.781 2.58775 3.67784 0
M  V30 4608 C 447.551 3.25578 3.86428 0
M  V30 4609 C 449.749 3.56966 3.70243 0
M  V30 4610 N 447.731 4.64495 4.01395 0
M  V30 4611 C 449.102 4.8145 3.90649 0
M  V30 4612 C 451.157 3.5092 3.53213 0
M  V30 4613 C 449.86 6.00619 3.95789 0
M  V30 4614 C 451.886 4.69493 3.59625 0
M  V30 4615 C 451.248 5.92786 3.80505 0
M  V30 4616 H 447.347 0.31468 0.715891 0
M  V30 4617 H 449.931 1.30295 1.44677 0
M  V30 4618 H 448.102 0.534839 3.847 0
M  V30 4619 H 449.834 0.744997 3.97784 0
M  V30 4620 H 446.589 2.76003 3.84862 0
M  V30 4621 H 447.013 5.36624 4.12752 0
M  V30 4622 H 451.655 2.56593 3.36035 0
M  V30 4623 H 449.373 6.95326 4.11762 0
M  V30 4624 H 452.959 4.66432 3.47754 0
M  V30 4625 H 451.839 6.83003 3.85327 0
M  V30 4626 N 449.342 -1.36122 0.79427 0
M  V30 4627 C 450.289 -2.29982 0.194101 0
M  V30 4628 C 451.259 -1.52214 -0.664833 0
M  V30 4629 O 452.444 -1.80702 -0.612498 0
M  V30 4630 C 449.584 -3.38706 -0.661244 0
M  V30 4631 C 448.697 -4.31456 0.216766 0
M  V30 4632 C 447.832 -5.27265 -0.645411 0
M  V30 4633 C 446.871 -6.11653 0.233756 0
M  V30 4634 N 446.008 -6.99636 -0.587682 0
M  V30 4635 H 450.848 -2.80722 0.999965 0
M  V30 4636 H 448.385 -1.38172 0.504677 0
M  V30 4637 H 450.343 -4.00394 -1.17219 0
M  V30 4638 H 448.973 -2.89274 -1.43249 0
M  V30 4639 H 448.025 -3.7088 0.845724 0
M  V30 4640 H 449.337 -4.90724 0.893973 0
M  V30 4641 H 448.491 -5.94266 -1.22198 0
M  V30 4642 H 447.23 -4.68463 -1.35623 0
M  V30 4643 H 446.235 -5.4361 0.82269 0
M  V30 4644 H 447.46 -6.72531 0.942247 0
M  V30 4645 H 445.406 -6.43337 -1.2827 0
M  V30 4646 H 445.323 -7.55993 0.0317402 0
M  V30 4647 H 446.591 -7.71001 -1.14792 0
M  V30 4648 N 450.82 -0.546701 -1.47814 0
M  V30 4649 C 452.067 -0.0187407 -2.02491 0
M  V30 4650 C 452.395 1.32685 -1.42215 0
M  V30 4651 O 451.65 1.87413 -0.563454 0
M  V30 4652 C 451.949 0.134869 -3.57145 0
M  V30 4653 C 451.615 -1.13849 -4.3629 0
M  V30 4654 C 450.277 -1.48743 -4.57634 0
M  V30 4655 C 452.629 -1.98277 -4.82012 0
M  V30 4656 C 449.957 -2.67932 -5.21948 0
M  V30 4657 C 452.309 -3.16659 -5.4764 0
M  V30 4658 C 450.973 -3.51879 -5.67219 0
M  V30 4659 H 450.243 -0.0068577 -0.740968 0
M  V30 4660 H 452.89 -0.716097 -1.77607 0
M  V30 4661 H 451.195 0.915118 -3.80963 0
M  V30 4662 H 452.892 0.558556 -3.97091 0
M  V30 4663 H 449.482 -0.856767 -4.19949 0
M  V30 4664 H 453.666 -1.72628 -4.6531 0
M  V30 4665 H 448.922 -2.95401 -5.35302 0
M  V30 4666 H 453.096 -3.82374 -5.82033 0
M  V30 4667 H 450.723 -4.44331 -6.16825 0
M  V30 4668 N 452.299 1.55045 -0.282633 0
M  V30 4669 C 453.546 1.9976 0.33199 0
M  V30 4670 C 453.874 1.17105 1.55295 0
M  V30 4671 O 453.129 0.230599 1.94337 0
M  V30 4672 C 453.428 3.49422 0.750938 0
M  V30 4673 C 453.094 4.4941 -0.366228 0
M  V30 4674 C 451.756 4.76471 -0.672964 0
M  V30 4675 C 454.108 5.09054 -1.11864 0
M  V30 4676 C 451.436 5.60442 -1.73556 0
M  V30 4677 C 453.788 5.9418 -2.17102 0
M  V30 4678 C 452.452 6.19558 -2.48402 0
M  V30 4679 H 451.722 0.730974 0.121484 0
M  V30 4680 H 454.369 1.8732 -0.39791 0
M  V30 4681 H 452.674 3.59377 1.56063 0
M  V30 4682 H 454.371 3.81432 1.23736 0
M  V30 4683 H 450.961 4.2844 -0.117041 0
M  V30 4684 H 455.145 4.88165 -0.894925 0
M  V30 4685 H 450.401 5.78349 -1.983 0
M  V30 4686 H 454.575 6.39427 -2.75873 0
M  V30 4687 H 452.202 6.84417 -3.30874 0
M  V30 4688 N 453.777 0.010035 1.57597 0
M  V30 4689 C 455.054 -0.710296 1.82248 0
M  V30 4690 C 455.434 -1.91426 0.889911 0
M  V30 4691 O 454.782 -2.28424 -0.0590292 0
M  V30 4692 C 454.992 -1.10655 3.30993 0
M  V30 4693 C 456.34 -1.50621 3.96987 0
M  V30 4694 O 457.364 -1.20007 3.35375 0
M  V30 4695 O 456.223 -2.07587 5.05539 0
M  V30 4696 H 453.317 -0.34673 0.750804 0
M  V30 4697 H 455.863 0.0362578 1.69661 0
M  V30 4698 H 454.635 -0.248826 3.90508 0
M  V30 4699 H 454.258 -1.91189 3.48615 0
M  V30 4700 N 455.255 -1.55392 -0.262866 0
M  V30 4701 C 456.503 -1.76127 -0.991147 0
M  V30 4702 C 456.824 -0.571083 -1.8645 0
M  V30 4703 O 456.094 0.413698 -1.91482 0
M  V30 4704 H 454.674 -0.649528 -0.368948 0
M  V30 4705 H 457.336 -1.9281 -0.284655 0
M  V30 4706 H 456.432 -2.6663 -1.62219 0
M  V30 4707 N 456.733 0.527833 -1.48498 0
M  V30 4708 C 457.979 1.28545 -1.56857 0
M  V30 4709 C 458.312 1.92678 -0.242651 0
M  V30 4710 O 457.587 1.79394 0.751545 0
M  V30 4711 C 457.87 2.37314 -2.70839 0
M  V30 4712 C 457.723 1.77858 -4.13142 0
M  V30 4713 C 459.042 3.39068 -2.80573 0
M  V30 4714 H 456.161 0.466006 -0.570971 0
M  V30 4715 H 458.803 0.587784 -1.8068 0
M  V30 4716 H 456.953 2.96821 -2.50658 0
M  V30 4717 H 458.625 1.22385 -4.44769 0
M  V30 4718 H 456.868 1.08383 -4.20042 0
M  V30 4719 H 457.539 2.56624 -4.88721 0
M  V30 4720 H 460.015 2.89518 -2.98862 0
M  V30 4721 H 458.891 4.12566 -3.6205 0
M  V30 4722 H 459.152 3.9975 -1.88818 0
M  V30 4723 N 458.211 1.37122 0.776871 0
M  V30 4724 C 459.488 1.22586 1.52421 0
M  V30 4725 C 459.868 -0.182726 2.10308 0
M  V30 4726 O 459.216 -1.18979 1.9508 0
M  V30 4727 C 459.426 2.31782 2.60918 0
M  V30 4728 C 460.774 2.69071 3.2846 0
M  V30 4729 O 461.798 2.3092 2.71209 0
M  V30 4730 O 460.657 3.3478 4.31954 0
M  V30 4731 H 457.751 0.478045 0.674835 0
M  V30 4732 H 460.297 1.48888 0.814275 0
M  V30 4733 H 459.069 3.26131 2.16227 0
M  V30 4734 H 458.692 2.06916 3.39517 0
M  V30 4735 N 459.689 -1.00246 1.21608 0
M  V30 4736 C 460.938 -1.73476 1.02902 0
M  V30 4737 C 461.251 -1.90643 -0.437561 0
M  V30 4738 O 462.457 -2.61105 -0.74407 0
M  V30 4739 C 460.913 -3.12079 1.79261 0
M  V30 4740 C 460.521 -3.02877 3.30106 0
M  V30 4741 C 462.265 -3.89421 1.68972 0
M  V30 4742 C 460.172 -4.36575 3.98944 0
M  V30 4743 H 459.102 -0.650408 0.381425 0
M  V30 4744 H 461.753 -1.11985 1.45367 0
M  V30 4745 H 460.135 -3.74196 1.2959 0
M  V30 4746 H 461.309 -2.49983 3.87098 0
M  V30 4747 H 459.624 -2.39022 3.40965 0
M  V30 4748 H 462.221 -4.88362 2.17731 0
M  V30 4749 H 462.564 -4.1122 0.648397 0
M  V30 4750 H 463.097 -3.33963 2.16133 0
M  V30 4751 H 459.836 -4.19978 5.03288 0
M  V30 4752 H 459.356 -4.8942 3.4674 0
M  V30 4753 H 461.035 -5.05364 4.04 0
M  V30 4754 N 461.167 -1.02423 -1.1978 0
M  V30 4755 C 462.444 -0.632802 -1.85081 0
M  V30 4756 C 462.824 0.888745 -1.9148 0
M  V30 4757 O 462.172 1.78357 -1.42832 0
M  V30 4758 C 462.382 -1.28947 -3.24305 0
M  V30 4759 C 463.73 -1.40976 -4.00513 0
M  V30 4760 O 464.754 -1.24628 -3.33686 0
M  V30 4761 O 463.613 -1.67467 -5.20209 0
M  V30 4762 H 460.707 -0.219348 -0.79738 0
M  V30 4763 H 463.253 -1.12209 -1.27307 0
M  V30 4764 H 462.025 -2.3288 -3.14456 0
M  V30 4765 H 461.648 -0.787748 -3.89718 0
M  V30 4766 N 462.645 1.35699 -0.801477 0
M  V30 4767 C 463.891 1.99643 -0.389135 0
M  V30 4768 C 464.246 1.62447 1.03095 0
M  V30 4769 O 463.539 0.875064 1.7045 0
M  V30 4770 C 463.733 3.53828 -0.504041 0
M  V30 4771 C 463.562 4.06 -1.93375 0
M  V30 4772 C 462.332 4.35592 -2.561 0
M  V30 4773 C 464.53 4.24905 -2.89759 0
M  V30 4774 N 462.512 4.73663 -3.90534 0
M  V30 4775 C 463.883 4.65914 -4.09052 0
M  V30 4776 C 465.938 4.07101 -2.86658 0
M  V30 4777 C 464.641 4.90984 -5.25669 0
M  V30 4778 C 466.667 4.33324 -4.02472 0
M  V30 4779 C 466.029 4.74601 -5.20512 0
M  V30 4780 H 462.128 0.758552 -0.19006 0
M  V30 4781 H 464.712 1.64493 -1.04164 0
M  V30 4782 H 462.883 3.88219 0.118437 0
M  V30 4783 H 464.615 4.04645 -0.0667794 0
M  V30 4784 H 461.37 4.25728 -2.07492 0
M  V30 4785 H 461.794 4.96965 -4.59734 0
M  V30 4786 H 466.436 3.74335 -1.96552 0
M  V30 4787 H 464.154 5.22626 -6.1635 0
M  V30 4788 H 467.74 4.21107 -4.01447 0
M  V30 4789 H 466.62 4.94497 -6.08639 0
M  V30 4790 N 464.123 0.554532 1.47522 0
M  V30 4791 C 465.033 -0.197865 2.33764 0
M  V30 4792 C 466.049 -0.914576 1.48025 0
M  V30 4793 O 467.225 -0.884067 1.80959 0
M  V30 4794 C 464.29 -1.21628 3.24665 0
M  V30 4795 C 463.351 -0.507283 4.26292 0
M  V30 4796 C 462.584 -1.47718 5.1285 0
M  V30 4797 O 462.807 -2.7118 5.01814 0
M  V30 4798 O 461.741 -1.00313 5.93482 0
M  V30 4799 H 465.567 0.50949 2.99396 0
M  V30 4800 H 463.152 0.315176 1.46038 0
M  V30 4801 H 465.034 -1.80421 3.80823 0
M  V30 4802 H 463.709 -1.9056 2.61665 0
M  V30 4803 H 462.616 0.121778 3.73902 0
M  V30 4804 H 463.949 0.140544 4.91999 0
M  V30 4805 N 465.601 -1.54893 0.290851 0
M  V30 4806 C 466.848 -1.99933 -0.321391 0
M  V30 4807 C 467.176 -1.17927 -1.54672 0
M  V30 4808 O 466.431 -0.240902 -1.94212 0
M  V30 4809 C 466.73 -3.49815 -0.732397 0
M  V30 4810 C 466.396 -4.4921 0.390056 0
M  V30 4811 C 465.058 -4.76107 0.698223 0
M  V30 4812 C 467.41 -5.08453 1.14562 0
M  V30 4813 C 464.738 -5.59514 1.76526 0
M  V30 4814 C 467.09 -5.9302 2.2025 0
M  V30 4815 C 465.754 -6.18232 2.51684 0
M  V30 4816 H 465.024 -0.731608 -0.117605 0
M  V30 4817 H 467.671 -1.87107 0.407839 0
M  V30 4818 H 465.976 -3.60199 -1.54155 0
M  V30 4819 H 467.673 -3.82083 -1.21712 0
M  V30 4820 H 464.263 -4.28372 0.13976 0
M  V30 4821 H 468.447 -4.87683 0.920801 0
M  V30 4822 H 463.703 -5.77289 2.01364 0
M  V30 4823 H 467.877 -6.37955 2.7926 0
M  V30 4824 H 465.504 -6.82653 3.34499 0
M  V30 4825 N 467.08 -0.0183926 -1.57589 0
M  V30 4826 C 468.491 0.521927 -1.79256 0
M  V30 4827 C 468.842 1.72885 -0.927636 0
M  V30 4828 O 467.967 2.15978 -0.135091 0
M  V30 4829 C 468.562 0.953632 -3.25102 0
M  V30 4830 C 467.121 1.43913 -3.47801 0
M  V30 4831 C 466.268 0.398837 -2.74417 0
M  V30 4832 H 469.219 -0.244485 -1.56805 0
M  V30 4833 H 469.24 1.81863 -3.34224 0
M  V30 4834 H 468.752 0.0750123 -3.88028 0
M  V30 4835 H 466.853 2.33804 -2.90115 0
M  V30 4836 H 466.966 1.45391 -4.56507 0
M  V30 4837 H 465.33 0.864572 -2.39577 0
M  V30 4838 H 466.113 -0.471132 -3.40052 0
M  V30 4839 N 468.558 1.5553 0.254621 0
M  V30 4840 C 469.806 1.7665 0.981793 0
M  V30 4841 C 470.127 0.580963 1.86145 0
M  V30 4842 O 469.397 -0.403537 1.91699 0
M  V30 4843 H 467.977 0.651475 0.365498 0
M  V30 4844 H 470.639 1.92958 0.274426 0
M  V30 4845 H 469.735 2.67486 1.60802 0
M  V30 4846 N 470.036 -0.519951 1.48776 0
M  V30 4847 C 471.284 -1.2727 1.56993 0
M  V30 4848 C 471.605 -1.9339 0.25004 0
M  V30 4849 O 470.875 -1.81822 -0.729216 0
M  V30 4850 H 469.455 -0.472732 0.578389 0
M  V30 4851 H 472.117 -0.604234 1.85297 0
M  V30 4852 H 471.213 -2.04669 2.3562 0
M  V30 4853 N 471.514 -1.37532 -0.769588 0
M  V30 4854 C 472.461 -1.3347 -1.88293 0
M  V30 4855 C 473.431 -0.199891 -1.64893 0
M  V30 4856 O 474.616 -0.389594 -1.8678 0
M  V30 4857 C 471.756 -1.14968 -3.25387 0
M  V30 4858 C 470.869 -2.37698 -3.60727 0
M  V30 4859 C 470.004 -2.12051 -4.8704 0
M  V30 4860 C 469.043 -3.30636 -5.15117 0
M  V30 4861 N 468.18 -3.04527 -6.3262 0
M  V30 4862 H 473.02 -2.28658 -1.911 0
M  V30 4863 H 470.557 -1.13622 -0.934257 0
M  V30 4864 H 472.515 -1.02261 -4.04473 0
M  V30 4865 H 471.145 -0.234263 -3.21949 0
M  V30 4866 H 470.197 -2.61137 -2.76608 0
M  V30 4867 H 471.509 -3.26131 -3.77413 0
M  V30 4868 H 470.663 -1.96388 -5.74035 0
M  V30 4869 H 469.402 -1.20959 -4.72462 0
M  V30 4870 H 468.407 -3.46836 -4.26597 0
M  V30 4871 H 469.632 -4.22582 -5.31603 0
M  V30 4872 H 467.578 -2.16067 -6.19396 0
M  V30 4873 H 467.495 -3.86503 -6.49732 0
M  V30 4874 H 468.763 -2.92485 -7.22546 0
M  V30 4875 N 472.992 0.995999 -1.22138 0
M  V30 4876 C 474.24 1.73167 -1.042 0
M  V30 4877 C 474.561 1.90329 0.42423 0
M  V30 4878 O 473.831 1.4607 1.30539 0
M  V30 4879 H 472.411 0.641593 -0.38258 0
M  V30 4880 H 475.073 1.19974 -1.53598 0
M  V30 4881 H 474.169 2.72734 -1.51731 0
M  V30 4882 N 474.47 1.03057 1.19235 0
M  V30 4883 C 475.433 0.617418 2.20727 0
M  V30 4884 C 476.433 -0.319856 1.57587 0
M  V30 4885 O 477.623 -0.106633 1.73873 0
M  V30 4886 C 474.755 -0.096296 3.40764 0
M  V30 4887 H 475.948 1.51544 2.58794 0
M  V30 4888 H 473.501 0.821949 1.32942 0
M  V30 4889 H 474.236 -1.00859 3.08217 0
M  V30 4890 H 474.021 0.577217 3.87828 0
M  V30 4891 H 475.511 -0.372219 4.15938 0
M  V30 4892 N 475.948 -1.35272 0.808662 0
M  V30 4893 C 476.896 -2.31663 0.208606 0
M  V30 4894 C 477.89 -1.56731 -0.642778 0
M  V30 4895 O 479.096 -1.71843 -0.53571 0
M  V30 4896 H 475.471 -0.750421 0.0486993 0
M  V30 4897 H 477.442 -2.79814 1.03666 0
M  V30 4898 C 476.191 -3.42008 -0.626573 0
M  V30 4899 H 475.514 -3.99795 0.0192103 0
M  V30 4900 H 476.954 -4.11727 -1.01278 0
M  V30 4901 C 475.413 -2.85226 -1.79298 0
M  V30 4902 O 475.943 -2.78945 -2.89055 0
M  V30 4903 N 474.149 -2.42245 -1.60516 0
M  V30 4904 H 473.696 -2.47554 -0.712375 0
M  V30 4905 H 473.654 -2.04603 -2.38715 0
M  V30 4906 N 477.426 -0.562348 -1.47226 0
M  V30 4907 C 478.837 -0.130325 -1.86245 0
M  V30 4908 C 479.188 1.30128 -1.46838 0
M  V30 4909 O 478.313 1.97974 -0.873805 0
M  V30 4910 C 478.908 -0.229738 -3.3802 0
M  V30 4911 C 477.467 0.14728 -3.76112 0
M  V30 4912 C 476.614 -0.574971 -2.71274 0
M  V30 4913 H 479.565 -0.771773 -1.3867 0
M  V30 4914 H 479.586 0.550316 -3.76499 0
M  V30 4915 H 479.098 -1.27178 -3.66671 0
M  V30 4916 H 477.199 1.19023 -3.53078 0
M  V30 4917 H 477.312 -0.214858 -4.78618 0
M  V30 4918 H 475.676 -0.0174756 -2.54694 0
M  V30 4919 H 476.459 -1.61827 -3.02766 0
M  V30 4920 N 478.904 1.54736 -0.299062 0
M  V30 4921 C 479.852 2.24897 0.593658 0
M  V30 4922 C 480.846 1.25429 1.13859 0
M  V30 4923 O 482.052 1.43286 1.08945 0
M  V30 4924 H 478.427 0.72207 0.210046 0
M  V30 4925 H 480.398 2.98393 -0.0206421 0
M  V30 4926 C 479.147 3.00159 1.75499 0
M  V30 4927 H 478.47 3.76501 1.34489 0
M  V30 4928 H 479.91 3.52535 2.35574 0
M  V30 4929 C 478.369 2.07015 2.65794 0
M  V30 4930 O 478.899 1.63692 3.66835 0
M  V30 4931 N 477.105 1.73012 2.33485 0
M  V30 4932 H 476.652 2.08439 1.51364 0
M  V30 4933 H 476.61 1.10965 2.94167 0
M  V30 4934 N 480.382 0.0267497 1.57577 0
M  V30 4935 C 481.312 -0.954308 2.13108 0
M  V30 4936 C 482.293 -1.34088 1.04663 0
M  V30 4937 O 483.478 -1.41992 1.32484 0
M  V30 4938 C 480.608 -2.23744 2.65624 0
M  V30 4939 C 479.562 -1.99168 3.78835 0
M  V30 4940 C 478.888 -3.33726 4.17769 0
M  V30 4941 C 480.188 -1.33277 5.0501 0
M  V30 4942 H 481.882 -0.491848 2.95332 0
M  V30 4943 H 479.428 -0.23514 1.42067 0
M  V30 4944 H 481.381 -2.92754 3.03106 0
M  V30 4945 H 480.105 -2.72151 1.80558 0
M  V30 4946 H 478.764 -1.32577 3.41788 0
M  V30 4947 H 478.412 -3.79888 3.29688 0
M  V30 4948 H 478.112 -3.18089 4.94058 0
M  V30 4949 H 479.636 -4.04008 4.57832 0
M  V30 4950 H 481.05 -1.92283 5.40093 0
M  V30 4951 H 479.447 -1.28045 5.8628 0
M  V30 4952 H 480.517 -0.305411 4.83937 0
M  V30 4953 N 481.861 -1.55662 -0.24637 0
M  V30 4954 C 483.109 -1.77168 -0.972411 0
M  V30 4955 C 483.43 -0.590827 -1.85834 0
M  V30 4956 O 482.7 0.393365 -1.9191 0
M  V30 4957 H 481.28 -0.653405 -0.362038 0
M  V30 4958 H 483.942 -1.93101 -0.264189 0
M  V30 4959 H 483.038 -2.68335 -1.59382 0
M  V30 4960 N 483.339 0.512053 -1.4905 0
M  V30 4961 C 484.564 1.2959 -1.6193 0
M  V30 4962 C 484.989 1.85906 -0.286454 0
M  V30 4963 O 484.347 1.65312 0.744426 0
M  V30 4964 C 484.395 2.40987 -2.68249 0
M  V30 4965 O 483.499 3.44531 -2.26654 0
M  V30 4966 H 482.84 0.383053 -0.542371 0
M  V30 4967 H 485.37 0.614231 -1.95162 0
M  V30 4968 H 485.38 2.86913 -2.90078 0
M  V30 4969 H 484.055 1.99361 -3.65004 0
M  V30 4970 H 482.632 3.046 -2.15112 0
M  V30 4971 N 484.817 1.37938 0.762283 0
M  V30 4972 C 486.228 1.30094 1.33912 0
M  V30 4973 C 486.579 -0.0472026 1.96143 0
M  V30 4974 O 485.704 -0.94917 1.94473 0
M  V30 4975 C 486.299 2.35592 2.43478 0
M  V30 4976 C 484.858 2.31353 2.96905 0
M  V30 4977 C 484.005 2.18919 1.70205 0
M  V30 4978 H 486.956 1.48423 0.561816 0
M  V30 4979 H 486.977 2.00806 3.23199 0
M  V30 4980 H 486.489 3.33701 1.98155 0
M  V30 4981 H 484.59 1.36799 3.46579 0
M  V30 4982 H 484.703 3.25147 3.51875 0
M  V30 4983 H 483.067 1.65624 1.93496 0
M  V30 4984 H 483.85 3.18956 1.26973 0
M  V30 4985 N 486.295 -0.989507 1.22664 0
M  V30 4986 C 487.227 -2.0824 0.957542 0
M  V30 4987 C 488.24 -1.6267 -0.0651098 0
M  V30 4988 O 489.429 -1.77695 0.169312 0
M  V30 4989 C 486.529 -3.36298 0.419145 0
M  V30 4990 C 485.702 -4.10882 1.49982 0
M  V30 4991 C 484.761 -5.17221 0.967904 0
M  V30 4992 O 483.787 -5.44613 1.65487 0
M  V30 4993 N 484.989 -5.80124 -0.20896 0
M  V30 4994 H 487.754 -2.31904 1.89843 0
M  V30 4995 H 485.315 -1.15552 1.13399 0
M  V30 4996 H 487.307 -4.04671 0.0485451 0
M  V30 4997 H 485.877 -3.09671 -0.426937 0
M  V30 4998 H 485.097 -3.37092 2.04359 0
M  V30 4999 H 486.385 -4.57482 2.22682 0
M  V30 5000 H 485.783 -5.60244 -0.783818 0
M  V30 5001 H 484.34 -6.49715 -0.520913 0
M  V30 5002 N 487.773 -1.03688 -1.18687 0
M  V30 5003 C 489.05 -0.652397 -1.84399 0
M  V30 5004 C 489.43 0.868386 -1.92412 0
M  V30 5005 O 488.778 1.76832 -1.44716 0
M  V30 5006 C 488.988 -1.3238 -3.22919 0
M  V30 5007 C 490.336 -1.45216 -3.98996 0
M  V30 5008 O 491.36 -1.2816 -3.32345 0
M  V30 5009 O 490.219 -1.72975 -5.18403 0
M  V30 5010 H 487.313 -0.227793 -0.795009 0
M  V30 5011 H 489.859 -1.13553 -1.2611 0
M  V30 5012 H 488.631 -2.36202 -3.11968 0
M  V30 5013 H 488.254 -0.829039 -3.88861 0
M  V30 5014 N 489.251 1.34841 -0.815825 0
M  V30 5015 C 490.499 1.98107 -0.399744 0
M  V30 5016 C 490.82 1.65019 1.03894 0
M  V30 5017 O 490.09 0.937311 1.72021 0
M  V30 5018 H 488.67 0.732827 -0.144823 0
M  V30 5019 H 491.332 1.64599 -1.0437 0
M  V30 5020 H 490.428 3.07856 -0.512965 0
M  V30 5021 N 490.729 0.570148 1.46925 0
M  V30 5022 C 491.639 -0.173061 2.33961 0
M  V30 5023 C 492.655 -0.898825 1.48987 0
M  V30 5024 O 493.831 -0.864825 1.81887 0
M  V30 5025 C 490.896 -1.18177 3.25937 0
M  V30 5026 C 489.957 -0.462041 4.26806 0
M  V30 5027 C 489.19 -1.4227 5.14388 0
M  V30 5028 O 489.413 -2.65842 5.04662 0
M  V30 5029 O 488.347 -0.940127 5.94513 0
M  V30 5030 H 492.173 0.541216 2.98839 0
M  V30 5031 H 489.758 0.330647 1.45695 0
M  V30 5032 H 491.64 -1.76372 3.82715 0
M  V30 5033 H 490.315 -1.87774 2.63671 0
M  V30 5034 H 489.222 0.161429 3.73752 0
M  V30 5035 H 490.555 0.192719 4.91823 0
M  V30 5036 N 492.207 -1.54576 0.307264 0
M  V30 5037 C 493.435 -2.04675 -0.302597 0
M  V30 5038 C 493.85 -1.18425 -1.47041 0
M  V30 5039 O 493.207 -0.211257 -1.81273 0
M  V30 5040 C 493.258 -3.53575 -0.752801 0
M  V30 5041 O 492.979 -4.36547 0.368536 0
M  V30 5042 C 494.48 -4.19699 -1.42717 0
M  V30 5043 H 491.7 -0.66786 -0.0648374 0
M  V30 5044 H 494.244 -1.99516 0.448716 0
M  V30 5045 H 492.399 -3.59074 -1.45412 0
M  V30 5046 H 492.813 -5.24497 0.0168937 0
M  V30 5047 H 494.287 -5.25388 -1.69327 0
M  V30 5048 H 494.764 -3.69815 -2.36925 0
M  V30 5049 H 495.37 -4.18293 -0.768856 0
M  V30 5050 N 493.685 -0.035106 -1.57561 0
M  V30 5051 C 494.915 0.651312 -1.96065 0
M  V30 5052 C 495.323 1.6585 -0.910514 0
M  V30 5053 O 494.666 1.83336 0.11552 0
M  V30 5054 C 494.728 1.40897 -3.30739 0
M  V30 5055 C 494.392 0.559436 -4.53563 0
M  V30 5056 C 495.389 -0.16778 -5.19629 0
M  V30 5057 C 493.074 0.495079 -4.99854 0
M  V30 5058 C 495.068 -0.947963 -6.30311 0
M  V30 5059 C 492.755 -0.288804 -6.10417 0
M  V30 5060 C 493.753 -1.00903 -6.75505 0
M  V30 5061 O 493.441 -1.78005 -7.83945 0
M  V30 5062 H 493.173 0.184036 -0.650467 0
M  V30 5063 H 495.727 -0.0929677 -2.05189 0
M  V30 5064 H 493.957 2.19852 -3.18123 0
M  V30 5065 H 495.646 1.98407 -3.54104 0
M  V30 5066 H 496.412 -0.12743 -4.84833 0
M  V30 5067 H 492.291 1.04524 -4.48994 0
M  V30 5068 H 495.835 -1.51064 -6.81047 0
M  V30 5069 H 491.732 -0.33085 -6.44652 0
M  V30 5070 H 492.5 -1.70046 -8.00641 0
M  V30 5071 N 495.163 1.55791 0.238111 0
M  V30 5072 C 496.409 1.78297 0.966337 0
M  V30 5073 C 496.742 0.601903 1.84637 0
M  V30 5074 O 496.017 -0.399499 1.90353 0
M  V30 5075 C 496.3 3.10758 1.81939 0
M  V30 5076 C 496.153 4.39283 0.966958 0
M  V30 5077 C 497.472 3.39519 2.80027 0
M  V30 5078 H 494.591 0.648654 0.349882 0
M  V30 5079 H 497.233 1.88525 0.236253 0
M  V30 5080 H 495.383 3.02168 2.44185 0
M  V30 5081 H 497.055 4.59873 0.362514 0
M  V30 5082 H 495.298 4.32948 0.271669 0
M  V30 5083 H 495.969 5.28368 1.59784 0
M  V30 5084 H 498.445 3.48128 2.27917 0
M  V30 5085 H 497.321 4.33402 3.36829 0
M  V30 5086 H 497.582 2.60864 3.56934 0
M  V30 5087 N 496.642 -0.504142 1.49319 0
M  V30 5088 C 497.572 -1.61473 1.68667 0
M  V30 5089 C 498.553 -1.61455 0.535378 0
M  V30 5090 O 499.738 -1.78245 0.770868 0
M  V30 5091 C 496.868 -2.99971 1.75028 0
M  V30 5092 C 495.822 -3.14854 2.89916 0
M  V30 5093 C 495.148 -4.54671 2.81387 0
M  V30 5094 C 496.448 -2.95176 4.30893 0
M  V30 5095 H 498.142 -1.45535 2.61648 0
M  V30 5096 H 495.688 -0.698711 1.25913 0
M  V30 5097 H 497.641 -3.77562 1.8715 0
M  V30 5098 H 496.365 -3.1699 0.786441 0
M  V30 5099 H 495.024 -2.39687 2.77391 0
M  V30 5100 H 494.672 -4.68562 1.82917 0
M  V30 5101 H 494.372 -4.6557 3.58494 0
M  V30 5102 H 495.896 -5.34327 2.95512 0
M  V30 5103 H 497.31 -3.62538 4.44116 0
M  V30 5104 H 495.707 -3.17549 5.09198 0
M  V30 5105 H 496.777 -1.91332 4.45556 0
M  V30 5106 N 498.12 -1.38341 -0.754957 0
M  V30 5107 C 499.05 -1.38176 -1.88227 0
M  V30 5108 C 500.031 -0.247873 -1.68284 0
M  V30 5109 O 501.216 -0.45075 -1.88896 0
M  V30 5110 C 498.346 -1.20471 -3.25736 0
M  V30 5111 C 497.3 -2.3105 -3.60278 0
M  V30 5112 C 496.626 -1.98452 -4.96509 0
M  V30 5113 C 497.926 -3.73305 -3.65295 0
M  V30 5114 H 499.62 -2.32512 -1.88622 0
M  V30 5115 H 497.166 -1.1192 -0.906082 0
M  V30 5116 H 499.119 -1.18982 -4.04254 0
M  V30 5117 H 497.843 -0.225965 -3.25817 0
M  V30 5118 H 496.502 -2.31723 -2.84078 0
M  V30 5119 H 496.15 -0.990641 -4.93148 0
M  V30 5120 H 495.85 -2.7251 -5.20588 0
M  V30 5121 H 497.374 -1.98578 -5.77407 0
M  V30 5122 H 498.788 -3.7467 -4.3393 0
M  V30 5123 H 497.185 -4.46557 -4.00883 0
M  V30 5124 H 498.255 -4.05719 -2.65556 0
M  V30 5125 N 499.598 0.982988 -1.23187 0
M  V30 5126 C 500.531 2.07302 -0.953993 0
M  V30 5127 C 501.509 1.62249 0.106753 0
M  V30 5128 O 502.693 1.88481 -0.0269525 0
M  V30 5129 C 499.82 3.35873 -0.436716 0
M  V30 5130 C 498.866 3.99862 -1.48367 0
M  V30 5131 S 499.699 4.39443 -3.06023 0
M  V30 5132 C 500.855 5.7117 -2.55959 0
M  V30 5133 H 501.088 2.30554 -1.87702 0
M  V30 5134 H 498.621 1.11883 -1.06403 0
M  V30 5135 H 500.579 4.10244 -0.144872 0
M  V30 5136 H 499.24 3.10634 0.465351 0
M  V30 5137 H 498.433 4.92471 -1.07182 0
M  V30 5138 H 498.035 3.31857 -1.72473 0
M  V30 5139 H 500.327 6.47977 -1.97818 0
M  V30 5140 H 501.27 6.17194 -3.47098 0
M  V30 5141 H 501.678 5.29046 -1.96902 0
M  V30 5142 N 501.076 1.04316 1.18135 0
M  V30 5143 C 502.023 0.636398 2.21853 0
M  V30 5144 C 502.993 -0.357039 1.62217 0
M  V30 5145 O 504.178 -0.250453 1.89149 0
M  V30 5146 C 501.318 0.00812779 3.45099 0
M  V30 5147 C 500.431 1.04933 4.19062 0
M  V30 5148 C 499.566 0.389313 5.29771 0
M  V30 5149 C 498.605 1.41544 5.9551 0
M  V30 5150 N 497.742 0.78021 6.97751 0
M  V30 5151 H 502.582 1.52536 2.56002 0
M  V30 5152 H 500.119 0.76304 1.25762 0
M  V30 5153 H 502.077 -0.373497 4.15525 0
M  V30 5154 H 500.707 -0.844336 3.11562 0
M  V30 5155 H 499.759 1.54888 3.47439 0
M  V30 5156 H 501.071 1.82862 4.64072 0
M  V30 5157 H 500.225 -0.0463805 6.06682 0
M  V30 5158 H 498.964 -0.422038 4.8587 0
M  V30 5159 H 497.969 1.86124 5.17337 0
M  V30 5160 H 499.194 2.22854 6.41493 0
M  V30 5161 H 497.14 -0.0107899 6.55999 0
M  V30 5162 H 497.057 1.49716 7.41027 0
M  V30 5163 H 498.325 0.368996 7.78626 0
M  V30 5164 N 502.554 -1.34406 0.822964 0
M  V30 5165 C 503.464 -2.33298 0.246838 0
M  V30 5166 C 504.48 -1.62625 -0.618797 0
M  V30 5167 O 505.656 -1.94391 -0.526685 0
M  V30 5168 C 502.721 -3.41785 -0.581731 0
M  V30 5169 C 501.782 -4.28206 0.306309 0
M  V30 5170 C 501.015 -5.31512 -0.48281 0
M  V30 5171 O 501.238 -5.43973 -1.71607 0
M  V30 5172 O 500.172 -6.01749 0.134884 0
M  V30 5173 H 503.998 -2.84401 1.06534 0
M  V30 5174 H 501.583 -1.37466 0.585108 0
M  V30 5175 H 503.465 -4.08028 -1.05313 0
M  V30 5176 H 502.14 -2.92925 -1.37756 0
M  V30 5177 H 501.047 -3.64885 0.825199 0
M  V30 5178 H 502.38 -4.80507 1.06649 0
M  V30 5179 N 504.032 -0.577932 -1.46621 0
M  V30 5180 C 504.962 0.145917 -2.33044 0
M  V30 5181 C 505.943 0.888412 -1.45056 0
M  V30 5182 O 507.128 0.864812 -1.73881 0
M  V30 5183 C 504.258 1.16322 -3.27241 0
M  V30 5184 C 503.212 0.535868 -4.24632 0
M  V30 5185 C 502.538 1.65929 -5.08303 0
M  V30 5186 C 503.838 -0.523861 -5.19666 0
M  V30 5187 H 505.532 -0.575636 -2.93814 0
M  V30 5188 H 503.078 -0.278272 -1.41286 0
M  V30 5189 H 505.031 1.67793 -3.86553 0
M  V30 5190 H 503.755 1.91498 -2.64567 0
M  V30 5191 H 502.414 0.0422759 -3.66576 0
M  V30 5192 H 502.062 2.40061 -4.42018 0
M  V30 5193 H 501.762 1.2452 -5.74255 0
M  V30 5194 H 503.286 2.17686 -5.70478 0
M  V30 5195 H 504.7 -0.0944059 -5.73222 0
M  V30 5196 H 503.097 -0.858 -5.93935 0
M  V30 5197 H 504.167 -1.41197 -4.63887 0
M  V30 5198 N 505.51 1.54411 -0.315457 0
M  V30 5199 C 506.926 1.59556 0.037464 0
M  V30 5200 C 507.126 1.33217 1.5118 0
M  V30 5201 O 506.182 1.11264 2.26664 0
M  V30 5202 C 507.495 2.98372 -0.373477 0
M  V30 5203 C 509.043 3.11324 -0.323452 0
M  V30 5204 C 509.518 4.52472 -0.709433 0
M  V30 5205 N 511.009 4.58437 -0.662524 0
M  V30 5206 C 511.744 5.65751 -0.933474 0
M  V30 5207 N 511.24 6.81039 -1.27114 0
M  V30 5208 N 513.033 5.55489 -0.859573 0
M  V30 5209 H 505.184 1.6979 -1.27614 0
M  V30 5210 H 507.447 0.793732 -0.518356 0
M  V30 5211 H 507.153 3.22618 -1.40037 0
M  V30 5212 H 507.027 3.76264 0.265615 0
M  V30 5213 H 509.414 2.86818 0.694223 0
M  V30 5214 H 509.495 2.35555 -0.997367 0
M  V30 5215 H 509.139 4.7771 -1.72498 0
M  V30 5216 H 509.069 5.26598 -0.0132923 0
M  V30 5217 H 511.56 3.75636 -0.413065 0
M  V30 5218 H 511.873 7.58816 -1.46348 0
M  V30 5219 H 510.218 6.82555 -1.30932 0
M  V30 5220 H 513.409 4.64299 -0.595324 0
M  V30 5221 H 513.582 6.39036 -1.0741 0
M  V30 5222 N 506.988 0.0434614 1.5754 0
M  V30 5223 C 507.951 -0.918696 2.09982 0
M  V30 5224 C 508.951 -1.24488 1.01781 0
M  V30 5225 O 510.141 -1.18284 1.27885 0
M  V30 5226 C 507.273 -2.23093 2.57764 0
M  V30 5227 H 508.466 -0.464229 2.96285 0
M  V30 5228 H 506.019 -0.204818 1.54952 0
M  V30 5229 H 506.754 -2.73137 1.74832 0
M  V30 5230 H 506.539 -2.00724 3.36827 0
M  V30 5231 H 508.029 -2.92028 2.98512 0
M  V30 5232 N 508.466 -1.55915 -0.229846 0
M  V30 5233 C 509.399 -1.86734 -1.3117 0
M  V30 5234 C 510.377 -0.723947 -1.45595 0
M  V30 5235 O 511.561 -0.971462 -1.61539 0
M  V30 5236 C 508.688 -2.06707 -2.68309 0
M  V30 5237 C 507.734 -3.2938 -2.70944 0
M  V30 5238 S 508.567 -4.85547 -2.25842 0
M  V30 5239 C 509.723 -5.08546 -3.64873 0
M  V30 5240 H 509.956 -2.78204 -1.04832 0
M  V30 5241 H 507.489 -1.48243 -0.431681 0
M  V30 5242 H 509.447 -2.18898 -3.47267 0
M  V30 5243 H 508.108 -1.16049 -2.91876 0
M  V30 5244 H 507.301 -3.40374 -3.71701 0
M  V30 5245 H 506.903 -3.16004 -2.00044 0
M  V30 5246 H 509.195 -4.96935 -4.60502 0
M  V30 5247 H 510.138 -6.10465 -3.58801 0
M  V30 5248 H 510.546 -4.36314 -3.58176 0
M  V30 5249 N 509.944 0.496216 -1.49584 0
M  V30 5250 C 510.874 1.60576 -1.69521 0
M  V30 5251 C 511.855 1.61169 -0.543933 0
M  V30 5252 O 513.04 1.77834 -0.78031 0
M  V30 5253 C 510.17 2.99038 -1.76616 0
M  V30 5254 C 509.124 3.13312 -2.91581 0
M  V30 5255 C 508.45 4.53172 -2.83794 0
M  V30 5256 C 509.75 2.92886 -4.32452 0
M  V30 5257 H 511.444 1.44146 -2.62416 0
M  V30 5258 H 508.99 0.692024 -1.26282 0
M  V30 5259 H 510.943 3.76564 -1.8915 0
M  V30 5260 H 509.667 3.16568 -0.80324 0
M  V30 5261 H 508.326 2.38213 -2.78658 0
M  V30 5262 H 507.974 4.67585 -1.854 0
M  V30 5263 H 507.674 4.63662 -3.60958 0
M  V30 5264 H 509.198 5.32752 -2.98342 0
M  V30 5265 H 510.612 3.60178 -4.46032 0
M  V30 5266 H 509.009 3.14844 -5.10875 0
M  V30 5267 H 510.079 1.88966 -4.46565 0
M  V30 5268 N 511.423 1.38739 0.74761 0
M  V30 5269 C 512.7 1.25791 1.49786 0
M  V30 5270 C 513.08 -0.138075 2.10648 0
M  V30 5271 O 512.428 -1.14815 1.9756 0
M  V30 5272 C 512.638 2.37265 2.55942 0
M  V30 5273 C 513.986 2.75978 3.22679 0
M  V30 5274 O 515.01 2.36621 2.6625 0
M  V30 5275 O 513.869 3.43867 4.24756 0
M  V30 5276 H 510.963 0.492251 0.664543 0
M  V30 5277 H 513.509 1.50582 0.782511 0
M  V30 5278 H 512.281 3.30644 2.0926 0
M  V30 5279 H 511.904 2.14071 3.35051 0
M  V30 5280 N 512.901 -0.976442 1.23707 0
M  V30 5281 C 513.833 -2.07212 0.979574 0
M  V30 5282 C 514.846 -1.6273 -0.0478528 0
M  V30 5283 O 516.035 -1.77506 0.18815 0
M  V30 5284 C 513.135 -3.35835 0.45479 0
M  V30 5285 C 512.308 -4.09268 1.54331 0
M  V30 5286 C 511.367 -5.16166 1.02271 0
M  V30 5287 O 510.393 -5.42827 1.71254 0
M  V30 5288 N 511.595 -5.80313 -0.147419 0
M  V30 5289 H 514.36 -2.29878 1.92292 0
M  V30 5290 H 511.921 -1.14343 1.14618 0
M  V30 5291 H 513.913 -4.04597 0.0914631 0
M  V30 5292 H 512.483 -3.10106 -0.394068 0
M  V30 5293 H 511.703 -3.34906 2.07923 0
M  V30 5294 H 512.991 -4.55095 2.27522 0
M  V30 5295 H 512.389 -5.61043 -0.724353 0
M  V30 5296 H 510.946 -6.50231 -0.451972 0
M  V30 5297 N 514.379 -1.04941 -1.1758 0
M  V30 5298 C 515.309 -0.669172 -2.23706 0
M  V30 5299 C 516.29 0.331835 -1.66832 0
M  V30 5300 O 517.475 0.209988 -1.93061 0
M  V30 5301 C 514.605 -0.0404889 -3.47276 0
M  V30 5302 C 513.559 -0.965983 -4.16957 0
M  V30 5303 C 512.885 -0.201312 -5.34321 0
M  V30 5304 C 514.185 -2.28902 -4.69469 0
M  V30 5305 H 515.879 -1.55639 -2.55767 0
M  V30 5306 H 513.425 -0.749793 -1.22939 0
M  V30 5307 H 515.378 0.237298 -4.20731 0
M  V30 5308 H 514.102 0.881658 -3.14475 0
M  V30 5309 H 512.761 -1.22829 -3.45411 0
M  V30 5310 H 512.409 0.723519 -4.97769 0
M  V30 5311 H 512.109 -0.817968 -5.81879 0
M  V30 5312 H 513.633 0.0692499 -6.10561 0
M  V30 5313 H 515.047 -2.07132 -5.34574 0
M  V30 5314 H 513.444 -2.85942 -5.27596 0
M  V30 5315 H 514.514 -2.92937 -3.86414 0
M  V30 5316 N 515.857 1.33968 -0.830081 0
M  V30 5317 C 517.082 2.02813 -0.433796 0
M  V30 5318 C 517.507 1.62076 0.954614 0
M  V30 5319 O 516.865 0.808955 1.62252 0
M  V30 5320 C 516.913 3.56348 -0.552115 0
M  V30 5321 O 516.017 4.10202 0.425191 0
M  V30 5322 H 515.358 0.639817 -0.177567 0
M  V30 5323 H 517.888 1.7106 -1.12248 0
M  V30 5324 H 517.898 4.05722 -0.430513 0
M  V30 5325 H 516.573 3.85344 -1.56471 0
M  V30 5326 H 515.15 3.71979 0.261878 0
M  V30 5327 N 517.335 0.585699 1.46312 0
M  V30 5328 C 518.298 -0.135673 2.28798 0
M  V30 5329 C 519.298 -0.815988 1.38558 0
M  V30 5330 O 520.488 -0.667487 1.60904 0
M  V30 5331 C 517.62 -1.20163 3.1902 0
M  V30 5332 H 518.813 0.589257 2.94054 0
M  V30 5333 H 516.366 0.343794 1.52472 0
M  V30 5334 H 517.101 -1.95804 2.58517 0
M  V30 5335 H 516.886 -0.718282 3.85465 0
M  V30 5336 H 518.376 -1.70749 3.81096 0
M  V30 5337 N 518.813 -1.54241 0.323641 0
M  V30 5338 C 519.723 -2.28033 -0.551205 0
M  V30 5339 C 520.739 -1.32388 -1.12913 0
M  V30 5340 O 521.915 -1.65403 -1.14908 0
M  V30 5341 C 518.98 -3.02382 -1.69606 0
M  V30 5342 C 518.041 -4.13612 -1.14993 0
M  V30 5343 C 517.274 -4.84407 -2.24022 0
M  V30 5344 O 517.497 -4.54716 -3.44368 0
M  V30 5345 O 516.431 -5.71312 -1.89436 0
M  V30 5346 H 520.257 -3.03662 0.048066 0
M  V30 5347 H 517.842 -1.49133 0.0893289 0
M  V30 5348 H 519.724 -3.48941 -2.36259 0
M  V30 5349 H 518.399 -2.29628 -2.28151 0
M  V30 5350 H 517.306 -3.71402 -0.448484 0
M  V30 5351 H 518.639 -4.8841 -0.609608 0
M  V30 5352 N 520.291 -0.0518155 -1.57515 0
M  V30 5353 C 521.519 0.631395 -1.9703 0
M  V30 5354 C 521.934 1.64341 -0.92938 0
M  V30 5355 O 521.291 1.82296 0.0863266 0
M  V30 5356 C 521.342 1.31774 -3.36627 0
M  V30 5357 O 521.063 0.346247 -4.3673 0
M  V30 5358 C 522.564 2.09065 -3.90905 0
M  V30 5359 H 519.784 0.172576 -0.648428 0
M  V30 5360 H 522.328 -0.118306 -2.04158 0
M  V30 5361 H 520.483 2.01867 -3.30649 0
M  V30 5362 H 520.897 0.836226 -5.17791 0
M  V30 5363 H 522.371 2.52508 -4.9086 0
M  V30 5364 H 522.848 2.93908 -3.26366 0
M  V30 5365 H 523.454 1.43882 -4.00223 0
M  V30 5366 N 521.769 1.56035 0.221574 0
M  V30 5367 C 523.017 1.78693 0.944102 0
M  V30 5368 C 523.338 0.620317 1.8487 0
M  V30 5369 O 522.608 -0.362784 1.92512 0
M  V30 5370 H 521.188 0.659082 0.351597 0
M  V30 5371 H 523.85 1.93497 0.233435 0
M  V30 5372 H 522.946 2.70837 1.55093 0
M  V30 5373 N 523.247 -0.488276 1.49845 0
M  V30 5374 C 524.663 -0.820566 1.3689 0
M  V30 5375 C 524.863 -1.97248 0.411752 0
M  V30 5376 O 523.919 -2.52042 -0.151931 0
M  V30 5377 C 525.232 -1.1488 2.77891 0
M  V30 5378 C 526.78 -1.25626 2.86683 0
M  V30 5379 C 527.255 -1.61772 4.28479 0
M  V30 5380 N 528.746 -1.68797 4.31349 0
M  V30 5381 C 529.481 -1.98235 5.38043 0
M  V30 5382 N 528.977 -2.2581 6.54967 0
M  V30 5383 N 530.77 -1.99593 5.2547 0
M  V30 5384 H 522.921 0.271123 2.10662 0
M  V30 5385 H 525.184 0.058735 0.946179 0
M  V30 5386 H 524.89 -0.375614 3.49688 0
M  V30 5387 H 524.764 -2.08919 3.14058 0
M  V30 5388 H 527.151 -2.02014 2.15114 0
M  V30 5389 H 527.232 -0.296072 2.54081 0
M  V30 5390 H 526.876 -0.859295 5.00578 0
M  V30 5391 H 526.806 -2.58912 4.58554 0
M  V30 5392 H 529.297 -1.49595 3.4703 0
M  V30 5393 H 529.61 -2.47497 7.32096 0
M  V30 5394 H 527.955 -2.23239 6.58171 0
M  V30 5395 H 531.146 -1.77535 4.33127 0
M  V30 5396 H 531.319 -2.222 6.08713 0
M  V30 5397 N 524.725 -1.39134 -0.740242 0
M  V30 5398 C 525.672 -1.37434 -1.8542 0
M  V30 5399 C 526.642 -0.234822 -1.64432 0
M  V30 5400 O 527.827 -0.429125 -1.85912 0
M  V30 5401 C 524.967 -1.21844 -3.22875 0
M  V30 5402 C 524.08 -2.45296 -3.55603 0
M  V30 5403 C 523.215 -2.22334 -4.82432 0
M  V30 5404 C 522.254 -3.41488 -5.07988 0
M  V30 5405 N 521.391 -3.17877 -6.26018 0
M  V30 5406 H 526.231 -2.3266 -1.86207 0
M  V30 5407 H 523.768 -1.15578 -0.909946 0
M  V30 5408 H 525.726 -1.10818 -4.02213 0
M  V30 5409 H 524.356 -0.3025 -3.21379 0
M  V30 5410 H 523.408 -2.66945 -2.71006 0
M  V30 5411 H 524.72 -3.34063 -3.7041 0
M  V30 5412 H 523.874 -2.0852 -5.69741 0
M  V30 5413 H 522.613 -1.30954 -4.6979 0
M  V30 5414 H 521.618 -3.55807 -4.19144 0
M  V30 5415 H 522.843 -4.33763 -5.22519 0
M  V30 5416 H 520.789 -2.29156 -6.14673 0
M  V30 5417 H 520.706 -4.00198 -6.41387 0
M  V30 5418 H 521.974 -3.07746 -7.16179 0
M  V30 5419 N 526.204 0.969867 -1.24223 0
M  V30 5420 C 527.434 1.74502 -1.106 0
M  V30 5421 C 527.842 1.86038 0.344483 0
M  V30 5422 O 527.185 1.3465 1.24961 0
M  V30 5423 C 527.247 3.18391 -1.66935 0
M  V30 5424 C 526.911 3.30334 -3.15798 0
M  V30 5425 C 527.908 3.15832 -4.12973 0
M  V30 5426 C 525.593 3.54644 -3.55715 0
M  V30 5427 C 527.587 3.25461 -5.48045 0
M  V30 5428 C 525.274 3.63912 -4.90929 0
M  V30 5429 C 526.272 3.49332 -5.86904 0
M  V30 5430 O 525.96 3.58251 -7.1966 0
M  V30 5431 H 525.692 0.554119 -0.387206 0
M  V30 5432 H 528.246 1.22646 -1.64764 0
M  V30 5433 H 526.476 3.71543 -1.07203 0
M  V30 5434 H 528.165 3.77707 -1.48634 0
M  V30 5435 H 528.931 2.96937 -3.83476 0
M  V30 5436 H 524.81 3.65059 -2.81519 0
M  V30 5437 H 528.354 3.13998 -6.22937 0
M  V30 5438 H 524.251 3.82319 -5.20098 0
M  V30 5439 H 525.019 3.7498 -7.27552 0
M  V30 5440 N 527.682 1.05563 1.17022 0
M  V30 5441 C 528.592 0.670758 2.24807 0
M  V30 5442 C 529.608 -0.309865 1.71219 0
M  V30 5443 O 530.784 -0.161025 2.00755 0
M  V30 5444 C 527.849 0.055337 3.46656 0
M  V30 5445 C 526.91 1.08688 4.15314 0
M  V30 5446 C 526.143 0.500736 5.31346 0
M  V30 5447 O 526.366 -0.688718 5.66227 0
M  V30 5448 O 525.3 1.23683 5.89055 0
M  V30 5449 H 529.126 1.56914 2.60023 0
M  V30 5450 H 526.711 0.827428 1.24395 0
M  V30 5451 H 528.593 -0.286492 4.20425 0
M  V30 5452 H 527.268 -0.816638 3.13229 0
M  V30 5453 H 526.175 1.48077 3.43546 0
M  V30 5454 H 527.508 1.93014 4.52777 0
M  V30 5455 N 529.16 -1.33526 0.837174 0
M  V30 5456 C 530.09 -2.31764 0.284206 0
M  V30 5457 C 531.071 -1.58896 -0.607142 0
M  V30 5458 O 532.256 -1.86798 -0.531047 0
M  V30 5459 C 529.386 -3.43029 -0.542962 0
M  V30 5460 C 528.34 -4.27255 0.252451 0
M  V30 5461 C 527.666 -5.3012 -0.69836 0
M  V30 5462 C 528.966 -5.01229 1.46858 0
M  V30 5463 H 530.66 -2.78262 1.10502 0
M  V30 5464 H 528.206 -1.3378 0.532812 0
M  V30 5465 H 530.159 -4.1078 -0.940096 0
M  V30 5466 H 528.883 -2.95216 -1.39697 0
M  V30 5467 H 527.542 -3.61127 0.631124 0
M  V30 5468 H 527.19 -4.78564 -1.54872 0
M  V30 5469 H 526.89 -5.87353 -0.170274 0
M  V30 5470 H 528.414 -6.00737 -1.09305 0
M  V30 5471 H 529.828 -5.61756 1.14469 0
M  V30 5472 H 528.225 -5.68104 1.93333 0
M  V30 5473 H 529.295 -4.301 2.23924 0
M  V30 5474 N 530.638 -0.59345 -1.46 0
M  V30 5475 C 531.866 -0.0890934 -2.06708 0
M  V30 5476 C 532.281 1.2205 -1.44046 0
M  V30 5477 O 531.638 1.74029 -0.549551 0
M  V30 5478 C 531.689 0.0720263 -3.61428 0
M  V30 5479 O 531.41 -1.18574 -4.21748 0
M  V30 5480 C 532.911 0.609487 -4.3909 0
M  V30 5481 H 530.131 -0.0623628 -0.668096 0
M  V30 5482 H 532.675 -0.817171 -1.87464 0
M  V30 5483 H 530.83 0.750369 -3.80063 0
M  V30 5484 H 531.244 -1.0064 -5.14754 0
M  V30 5485 H 532.718 0.671363 -5.47902 0
M  V30 5486 H 533.195 1.62878 -4.07882 0
M  V30 5487 H 533.801 -0.03434 -4.25286 0
M  V30 5488 N 532.116 1.54067 -0.331816 0
M  V30 5489 C 533.341 2.05599 0.272705 0
M  V30 5490 C 533.766 1.2059 1.44359 0
M  V30 5491 O 533.124 0.216907 1.79998 0
M  V30 5492 C 533.172 3.54188 0.677021 0
M  V30 5493 O 532.276 3.72082 1.77844 0
M  V30 5494 H 531.617 0.662286 0.0476801 0
M  V30 5495 H 534.147 1.98826 -0.482624 0
M  V30 5496 H 534.157 3.96608 0.957415 0
M  V30 5497 H 532.832 4.15513 -0.179325 0
M  V30 5498 H 531.409 3.41566 1.49622 0
M  V30 5499 N 533.594 0.0601682 1.57485 0
M  V30 5500 C 534.557 -0.896373 2.10945 0
M  V30 5501 C 535.557 -1.23402 1.03095 0
M  V30 5502 O 536.747 -1.16921 1.29132 0
M  V30 5503 C 533.879 -2.20346 2.60116 0
M  V30 5504 H 535.072 -0.432778 2.96761 0
M  V30 5505 H 532.625 -0.188372 1.55161 0
M  V30 5506 H 533.36 -2.71268 1.7772 0
M  V30 5507 H 533.145 -1.9714 3.38937 0
M  V30 5508 H 534.635 -2.88846 3.01592 0
M  V30 5509 N 535.072 -1.5615 -0.213296 0
M  V30 5510 C 536.321 -1.78743 -0.93455 0
M  V30 5511 C 536.634 -0.630199 -1.8517 0
M  V30 5512 O 537.84 -0.739966 -2.61222 0
M  V30 5513 C 536.296 -3.16571 -1.71203 0
M  V30 5514 C 535.904 -4.40043 -0.840617 0
M  V30 5515 C 537.648 -3.48485 -2.42401 0
M  V30 5516 C 535.555 -5.68895 -1.61592 0
M  V30 5517 H 534.485 -0.666426 -0.352692 0
M  V30 5518 H 537.136 -1.82532 -0.188227 0
M  V30 5519 H 535.518 -3.06981 -2.50157 0
M  V30 5520 H 536.692 -4.6071 -0.0910326 0
M  V30 5521 H 535.007 -4.15706 -0.240365 0
M  V30 5522 H 537.604 -4.41983 -3.00924 0
M  V30 5523 H 537.947 -2.71371 -3.15695 0
M  V30 5524 H 538.48 -3.59442 -1.7043 0
M  V30 5525 H 535.219 -6.48925 -0.926106 0
M  V30 5526 H 534.739 -5.52275 -2.33991 0
M  V30 5527 H 536.418 -6.09365 -2.17447 0
M  V30 5528 N 536.55 0.480323 -1.50102 0
M  V30 5529 C 537.775 1.26126 -1.64642 0
M  V30 5530 C 538.2 1.85257 -0.325823 0
M  V30 5531 O 537.558 1.66854 0.709194 0
M  V30 5532 C 537.606 2.35243 -2.73301 0
M  V30 5533 O 536.71 3.39646 -2.33911 0
M  V30 5534 H 536.051 0.371463 -0.550374 0
M  V30 5535 H 538.581 0.572696 -1.96421 0
M  V30 5536 H 538.591 2.80695 -2.96098 0
M  V30 5537 H 537.266 1.91574 -3.6915 0
M  V30 5538 H 535.843 2.99969 -2.21525 0
M  V30 5539 N 538.028 1.39524 0.732853 0
M  V30 5540 C 538.991 1.38189 1.82857 0
M  V30 5541 C 539.991 0.278624 1.58368 0
M  V30 5542 O 541.181 0.536639 1.65728 0
M  V30 5543 C 538.313 1.15661 3.2068 0
M  V30 5544 H 539.506 2.35692 1.85444 0
M  V30 5545 H 537.059 1.2512 0.936728 0
M  V30 5546 H 537.794 0.188482 3.23752 0
M  V30 5547 H 537.579 1.95559 3.39852 0
M  V30 5548 H 539.069 1.17472 4.00737 0
M  V30 5549 N 539.506 -0.963266 1.24736 0
M  V30 5550 C 540.754 -1.70343 1.08755 0
M  V30 5551 C 541.075 -1.91387 -0.373619 0
M  V30 5552 O 540.345 -1.4948 -1.2662 0
M  V30 5553 H 538.925 -0.631224 0.399456 0
M  V30 5554 H 541.587 -1.15859 1.56725 0
M  V30 5555 H 540.683 -2.68616 1.58909 0
M  V30 5556 N 540.985 -1.06182 -1.16461 0
M  V30 5557 C 541.932 -0.671613 -2.20812 0
M  V30 5558 C 542.902 0.331186 -1.62765 0
M  V30 5559 O 544.087 0.22033 -1.89524 0
M  V30 5560 C 541.227 -0.063029 -3.45042 0
M  V30 5561 C 540.34 -1.11587 -4.1734 0
M  V30 5562 C 539.475 -0.473546 -5.29085 0
M  V30 5563 C 538.514 -1.51 -5.93182 0
M  V30 5564 N 537.651 -0.891118 -6.96422 0
M  V30 5565 H 542.491 -1.56589 -2.53542 0
M  V30 5566 H 540.028 -0.782951 -1.24532 0
M  V30 5567 H 541.986 0.307344 -4.16066 0
M  V30 5568 H 540.616 0.794663 -3.12866 0
M  V30 5569 H 539.668 -1.60396 -3.44931 0
M  V30 5570 H 540.98 -1.90221 -4.61104 0
M  V30 5571 H 540.134 -0.0501432 -6.06679 0
M  V30 5572 H 538.873 0.344687 -4.8648 0
M  V30 5573 H 537.878 -1.94331 -5.14311 0
M  V30 5574 H 539.103 -2.33031 -6.37866 0
M  V30 5575 H 537.049 -0.0935753 -6.55933 0
M  V30 5576 H 536.966 -1.61486 -7.38551 0
M  V30 5577 H 538.234 -0.492822 -7.77941 0
M  V30 5578 N 542.463 1.3308 -0.844243 0
M  V30 5579 C 543.74 1.92178 -0.364261 0
M  V30 5580 C 544.12 1.76961 1.15101 0
M  V30 5581 O 543.468 1.16128 1.9679 0
M  V30 5582 C 543.678 3.393 -0.817106 0
M  V30 5583 C 545.026 4.16444 -0.828236 0
M  V30 5584 O 546.05 3.47975 -0.761062 0
M  V30 5585 O 544.909 5.38685 -0.920926 0
M  V30 5586 H 542.003 0.820411 -0.10419 0
M  V30 5587 H 544.549 1.41918 -0.930453 0
M  V30 5588 H 543.321 3.44272 -1.85991 0
M  V30 5589 H 542.944 3.96947 -0.227785 0
M  V30 5590 N 543.941 0.601185 1.45683 0
M  V30 5591 C 544.888 -0.121396 2.30481 0
M  V30 5592 C 545.858 -0.866232 1.41724 0
M  V30 5593 O 547.043 -0.85324 1.70659 0
M  V30 5594 C 544.183 -1.11704 3.26521 0
M  V30 5595 C 543.296 -0.373741 4.3038 0
M  V30 5596 C 542.431 -1.35854 5.13534 0
M  V30 5597 C 541.47 -0.602689 6.09126 0
M  V30 5598 N 540.607 -1.53645 6.85082 0
M  V30 5599 H 545.447 0.607732 2.91737 0
M  V30 5600 H 542.984 0.311502 1.43764 0
M  V30 5601 H 544.942 -1.70735 3.80664 0
M  V30 5602 H 543.572 -1.81366 2.67032 0
M  V30 5603 H 542.624 0.331962 3.78949 0
M  V30 5604 H 543.936 0.2163 4.98331 0
M  V30 5605 H 543.09 -2.02111 5.72046 0
M  V30 5606 H 541.829 -1.98251 4.45587 0
M  V30 5607 H 540.834 0.0735482 5.49751 0
M  V30 5608 H 542.059 0.0161467 6.79098 0
M  V30 5609 H 540.005 -2.14819 6.1983 0
M  V30 5610 H 539.922 -0.999688 7.49361 0
M  V30 5611 H 541.19 -2.1888 7.48139 0
M  V30 5612 N 545.419 -1.53889 0.339982 0
M  V30 5613 C 546.668 -2.00035 -0.258604 0
M  V30 5614 C 546.981 -1.23179 -1.51942 0
M  V30 5615 O 548.187 -1.59784 -2.19503 0
M  V30 5616 C 546.643 -3.56249 -0.511359 0
M  V30 5617 C 546.251 -4.41957 0.733349 0
M  V30 5618 C 547.995 -4.1082 -1.069 0
M  V30 5619 C 545.902 -5.89673 0.451591 0
M  V30 5620 H 544.832 -0.747284 -0.10041 0
M  V30 5621 H 547.483 -1.77776 0.454758 0
M  V30 5622 H 545.865 -3.7456 -1.28533 0
M  V30 5623 H 547.039 -4.35421 1.50815 0
M  V30 5624 H 545.354 -3.9836 1.21237 0
M  V30 5625 H 547.951 -5.18789 -1.2947 0
M  V30 5626 H 548.294 -3.63817 -2.02343 0
M  V30 5627 H 548.827 -3.96205 -0.355817 0
M  V30 5628 H 545.566 -6.40903 1.37565 0
M  V30 5629 H 545.086 -5.99122 -0.285193 0
M  V30 5630 H 546.765 -6.46965 0.0675067 0
M  V30 5631 N 546.897 -0.0685191 -1.57451 0
M  V30 5632 C 548.174 0.642167 -1.84758 0
M  V30 5633 C 548.554 1.87991 -0.960344 0
M  V30 5634 O 547.902 2.28485 -0.0257894 0
M  V30 5635 C 548.112 0.982946 -3.34872 0
M  V30 5636 C 549.46 1.35784 -4.02303 0
M  V30 5637 O 550.484 1.07477 -3.39598 0
M  V30 5638 O 549.343 1.88681 -5.12895 0
M  V30 5639 H 546.437 0.318625 -0.763156 0
M  V30 5640 H 548.983 -0.0992015 -1.6941 0
M  V30 5641 H 547.755 0.10372 -3.91163 0
M  V30 5642 H 547.378 1.78119 -3.55471 0
M  V30 5643 N 548.375 1.56261 0.205012 0
M  V30 5644 C 549.322 1.93754 1.25411 0
M  V30 5645 C 550.292 0.796826 1.45739 0
M  V30 5646 O 551.477 1.05414 1.59036 0
M  V30 5647 C 548.617 2.27383 2.59598 0
M  V30 5648 C 547.73 3.5447 2.46931 0
M  V30 5649 C 546.865 3.77468 3.73753 0
M  V30 5650 C 545.904 4.98014 3.55877 0
M  V30 5651 N 545.041 5.17316 4.74688 0
M  V30 5652 H 549.881 2.83203 0.92737 0
M  V30 5653 H 547.418 1.40158 0.446574 0
M  V30 5654 H 549.376 2.44895 3.37761 0
M  V30 5655 H 548.006 1.41088 2.90335 0
M  V30 5656 H 547.058 3.45061 1.60116 0
M  V30 5657 H 548.37 4.42789 2.29651 0
M  V30 5658 H 547.524 3.95165 4.60358 0
M  V30 5659 H 546.263 2.87461 3.93976 0
M  V30 5660 H 545.268 4.80249 2.67657 0
M  V30 5661 H 546.493 5.8952 3.37109 0
M  V30 5662 H 544.439 4.30255 4.95194 0
M  V30 5663 H 544.356 5.99796 4.60197 0
M  V30 5664 H 545.624 5.39463 5.62672 0
M  V30 5665 N 549.853 -0.472356 1.50355 0
M  V30 5666 C 551.099 -1.22634 1.6152 0
M  V30 5667 C 551.432 -1.91645 0.313995 0
M  V30 5668 O 550.707 -1.82059 -0.684446 0
M  V30 5669 C 550.99 -2.27099 2.7946 0
M  V30 5670 C 550.843 -1.62402 4.19459 0
M  V30 5671 C 552.162 -3.28421 2.92964 0
M  V30 5672 H 549.281 -0.444494 0.587873 0
M  V30 5673 H 551.923 -0.520321 1.82737 0
M  V30 5674 H 550.073 -2.87314 2.61501 0
M  V30 5675 H 551.745 -1.05793 4.49005 0
M  V30 5676 H 549.988 -0.927184 4.23776 0
M  V30 5677 H 550.659 -2.38309 4.97909 0
M  V30 5678 H 553.135 -2.78227 3.09401 0
M  V30 5679 H 552.011 -3.98845 3.77113 0
M  V30 5680 H 552.272 -3.92467 2.03525 0
M  V30 5681 N 551.331 -1.39911 -0.725443 0
M  V30 5682 C 552.294 -1.39156 -1.82121 0
M  V30 5683 C 553.294 -0.287018 -1.58218 0
M  V30 5684 O 554.484 -0.545421 -1.65441 0
M  V30 5685 C 551.616 -1.1736 -3.20062 0
M  V30 5686 H 552.809 -2.36672 -1.84191 0
M  V30 5687 H 550.362 -1.25615 -0.930079 0
M  V30 5688 H 551.097 -0.205648 -3.23647 0
M  V30 5689 H 550.882 -1.97358 -3.3881 0
M  V30 5690 H 552.372 -1.19596 -4.00108 0
M  V30 5691 N 552.809 0.956637 -1.25245 0
M  V30 5692 C 554.039 1.7332 -1.12445 0
M  V30 5693 C 554.447 1.86392 0.324732 0
M  V30 5694 O 553.79 1.35967 1.23526 0
M  V30 5695 C 553.852 3.16603 -1.70303 0
M  V30 5696 C 553.516 3.26966 -3.19284 0
M  V30 5697 C 554.513 3.11434 -4.16299 0
M  V30 5698 C 552.198 3.50851 -3.59456 0
M  V30 5699 C 554.192 3.1963 -5.51467 0
M  V30 5700 C 551.879 3.58684 -4.94761 0
M  V30 5701 C 552.877 3.43087 -5.90576 0
M  V30 5702 O 552.565 3.50598 -7.2342 0
M  V30 5703 H 552.297 0.549981 -0.393061 0
M  V30 5704 H 554.851 1.20892 -1.66055 0
M  V30 5705 H 553.081 3.70385 -1.11138 0
M  V30 5706 H 554.77 3.76109 -1.52632 0
M  V30 5707 H 555.536 2.92853 -3.86604 0
M  V30 5708 H 551.415 3.62053 -2.85375 0
M  V30 5709 H 554.959 3.07373 -6.26233 0
M  V30 5710 H 550.856 3.76782 -5.24124 0
M  V30 5711 H 551.624 3.67242 -7.31489 0
M  V30 5712 N 554.287 1.06798 1.15896 0
M  V30 5713 C 555.235 0.677525 2.22514 0
M  V30 5714 C 556.229 -0.308994 1.66558 0
M  V30 5715 O 557.435 -0.173308 1.79164 0
M  V30 5716 H 553.81 0.200994 0.724642 0
M  V30 5717 H 555.781 1.5865 2.52731 0
M  V30 5718 C 554.53 0.0854153 3.47595 0
M  V30 5719 H 553.853 0.835645 3.90969 0
M  V30 5720 H 555.293 -0.150199 4.23734 0
M  V30 5721 C 553.752 -1.1724 3.15843 0
M  V30 5722 O 554.282 -2.25965 3.32119 0
M  V30 5723 N 552.488 -1.07636 2.69931 0
M  V30 5724 H 552.035 -0.191559 2.56887 0
M  V30 5725 H 551.993 -1.91876 2.4906 0
M  V30 5726 N 555.766 -1.3263 0.851289 0
M  V30 5727 C 557.012 -1.9766 0.453694 0
M  V30 5728 C 557.345 -1.67225 -0.987396 0
M  V30 5729 O 556.62 -0.958693 -1.69232 0
M  V30 5730 C 556.903 -3.5344 0.68936 0
M  V30 5731 C 556.756 -3.93517 2.17862 0
M  V30 5732 C 558.075 -4.39866 0.143555 0
M  V30 5733 H 555.194 -0.717989 0.166314 0
M  V30 5734 H 557.836 -1.57068 1.06909 0
M  V30 5735 H 555.986 -3.88147 0.165546 0
M  V30 5736 H 557.658 -3.69006 2.76826 0
M  V30 5737 H 555.901 -3.42798 2.65841 0
M  V30 5738 H 556.572 -5.02065 2.29422 0
M  V30 5739 H 559.048 -4.11875 0.591451 0
M  V30 5740 H 557.924 -5.47858 0.338043 0
M  V30 5741 H 558.185 -4.31696 -0.953466 0
M  V30 5742 N 557.244 -0.608902 -1.45362 0
M  V30 5743 C 558.207 0.0992563 -2.28985 0
M  V30 5744 C 559.207 0.793841 -1.39838 0
M  V30 5745 O 560.397 0.641804 -1.61946 0
M  V30 5746 C 557.529 1.15073 -3.20891 0
M  V30 5747 H 558.722 -0.635964 -2.93079 0
M  V30 5748 H 556.275 -0.368007 -1.51906 0
M  V30 5749 H 557.01 1.91667 -2.616 0
M  V30 5750 H 556.795 0.656867 -3.86559 0
M  V30 5751 H 558.285 1.64665 -3.83765 0
M  V30 5752 N 558.722 1.53707 -0.348139 0
M  V30 5753 C 559.654 2.22725 0.540946 0
M  V30 5754 C 560.667 1.2354 1.06027 0
M  V30 5755 O 561.856 1.49867 0.96964 0
M  V30 5756 C 558.956 2.89756 1.75768 0
M  V30 5757 C 558.129 4.15297 1.37285 0
M  V30 5758 C 557.188 4.65697 2.44976 0
M  V30 5759 O 556.214 5.29798 2.08092 0
M  V30 5760 N 557.416 4.42017 3.763 0
M  V30 5761 H 560.181 2.99658 -0.0501592 0
M  V30 5762 H 557.742 1.60979 -0.17248 0
M  V30 5763 H 559.734 3.20388 2.47252 0
M  V30 5764 H 558.304 2.16382 2.25605 0
M  V30 5765 H 557.524 3.9116 0.488584 0
M  V30 5766 H 558.812 4.96948 1.09179 0
M  V30 5767 H 558.21 3.9076 4.09051 0
M  V30 5768 H 556.767 4.77242 4.4394 0
M  V30 5769 N 560.2 0.0768682 1.57412 0
M  V30 5770 C 561.148 -0.906229 2.1422 0
M  V30 5771 C 562.142 -1.30477 1.08037 0
M  V30 5772 O 563.348 -1.28143 1.2641 0
M  V30 5773 H 559.723 -0.310207 0.685037 0
M  V30 5774 H 561.694 -0.402228 2.95677 0
M  V30 5775 C 560.443 -2.16245 2.72274 0
M  V30 5776 H 559.766 -1.86463 3.53655 0
M  V30 5777 H 561.206 -2.83134 3.15613 0
M  V30 5778 C 559.665 -2.92437 1.67279 0
M  V30 5779 O 560.195 -3.86322 1.10081 0
M  V30 5780 N 558.401 -2.55637 1.38195 0
M  V30 5781 H 557.948 -1.79363 1.84897 0
M  V30 5782 H 557.906 -3.06919 0.681787 0
M  V30 5783 N 561.678 -1.56367 -0.196722 0
M  V30 5784 C 562.903 -1.84991 -0.937714 0
M  V30 5785 C 563.328 -0.660244 -1.76132 0
M  V30 5786 O 562.686 0.390967 -1.77034 0
M  V30 5787 C 562.734 -3.11828 -1.81096 0
M  V30 5788 O 561.838 -2.92266 -2.90955 0
M  V30 5789 H 561.179 -0.609193 -0.264159 0
M  V30 5790 H 563.709 -2.03595 -0.202529 0
M  V30 5791 H 563.719 -3.42579 -2.21594 0
M  V30 5792 H 562.394 -3.98037 -1.2058 0
M  V30 5793 H 560.971 -2.72809 -2.54224 0
M  V30 5794 N 563.156 0.464375 -1.50603 0
M  V30 5795 C 564.089 1.58052 -1.64605 0
M  V30 5796 C 565.067 1.54914 -0.494016 0
M  V30 5797 O 566.251 1.74438 -0.714393 0
M  V30 5798 C 563.378 2.96634 -1.63481 0
M  V30 5799 C 562.424 3.17901 -2.84325 0
M  V30 5800 S 563.257 2.97083 -4.45536 0
M  V30 5801 C 564.413 4.37994 -4.47115 0
M  V30 5802 H 564.646 1.45937 -2.59017 0
M  V30 5803 H 562.179 0.652189 -1.39949 0
M  V30 5804 H 564.137 3.76527 -1.63517 0
M  V30 5805 H 562.798 3.06134 -0.702928 0
M  V30 5806 H 561.991 4.19158 -2.79862 0
M  V30 5807 H 561.593 2.45792 -2.81891 0
M  V30 5808 H 563.885 5.30743 -4.21091 0
M  V30 5809 H 564.828 4.47499 -5.48772 0
M  V30 5810 H 565.236 4.20386 -3.76743 0
M  V30 5811 N 564.634 1.40294 0.718013 0
M  V30 5812 C 565.911 1.2894 1.47084 0
M  V30 5813 C 566.291 -0.0933625 2.10893 0
M  V30 5814 O 565.639 -1.10598 1.99951 0
M  V30 5815 C 565.849 2.4264 2.50852 0
M  V30 5816 C 567.197 2.8276 3.16752 0
M  V30 5817 O 568.221 2.42215 2.61171 0
M  V30 5818 O 567.08 3.528 4.17366 0
M  V30 5819 H 564.174 0.506236 0.653952 0
M  V30 5820 H 566.72 1.52208 0.750394 0
M  V30 5821 H 565.492 3.35009 2.022 0
M  V30 5822 H 565.115 2.21129 3.30435 0
M  V30 5823 N 566.112 -0.949982 1.2575 0
M  V30 5824 C 567.062 -2.03297 1.03221 0
M  V30 5825 C 568.046 -1.60867 -0.0324751 0
M  V30 5826 O 569.238 -1.76047 0.183423 0
M  V30 5827 C 566.367 -3.36938 0.657841 0
M  V30 5828 C 565.453 -3.85878 1.75952 0
M  V30 5829 N 565.844 -4.0756 2.99547 0
M  V30 5830 C 564.142 -4.14709 1.64111 0
M  V30 5831 C 564.843 -4.47961 3.71087 0
M  V30 5832 N 563.819 -4.5416 2.98731 0
M  V30 5833 H 567.621 -2.1806 1.97045 0
M  V30 5834 H 565.135 -1.13516 1.16138 0
M  V30 5835 H 567.132 -4.14155 0.477614 0
M  V30 5836 H 565.792 -3.2355 -0.273025 0
M  V30 5837 H 566.803 -3.94501 3.35544 0
M  V30 5838 H 563.48 -4.10158 0.779527 0
M  V30 5839 H 564.87 -4.73002 4.77199 0
M  V30 5840 N 567.59 -1.07411 -1.15328 0
M  V30 5841 C 568.839 -0.792643 -1.85473 0
M  V30 5842 C 569.152 0.683789 -1.83259 0
M  V30 5843 O 570.358 1.08005 -2.49093 0
M  V30 5844 C 568.814 -1.36787 -3.32892 0
M  V30 5845 C 568.422 -2.87536 -3.43551 0
M  V30 5846 C 570.166 -1.16444 -4.08217 0
M  V30 5847 C 568.073 -3.38247 -4.85122 0
M  V30 5848 H 567.003 -0.292838 -0.694811 0
M  V30 5849 H 569.654 -1.29426 -1.30082 0
M  V30 5850 H 568.036 -0.793993 -3.87958 0
M  V30 5851 H 569.21 -3.50973 -2.98588 0
M  V30 5852 H 567.525 -3.06676 -2.81672 0
M  V30 5853 H 570.122 -1.51808 -5.12697 0
M  V30 5854 H 570.465 -0.10353 -4.16171 0
M  V30 5855 H 570.998 -1.70472 -3.59422 0
M  V30 5856 H 567.737 -4.43866 -4.82351 0
M  V30 5857 H 567.257 -2.79564 -5.30664 0
M  V30 5858 H 568.936 -3.34238 -5.5398 0
M  V30 5859 N 569.068 1.32177 -0.85831 0
M  V30 5860 C 570.315 1.97125 -0.463484 0
M  V30 5861 C 570.643 1.67907 0.981705 0
M  V30 5862 O 569.898 0.961717 1.70439 0
M  V30 5863 C 570.197 3.51372 -0.653658 0
M  V30 5864 C 569.863 4.00584 -2.06987 0
M  V30 5865 C 568.525 4.13733 -2.4572 0
M  V30 5866 C 570.877 4.26624 -2.99402 0
M  V30 5867 C 568.205 4.50268 -3.76132 0
M  V30 5868 C 570.557 4.64618 -4.29316 0
M  V30 5869 C 569.221 4.75975 -4.67979 0
M  V30 5870 H 568.491 0.72133 -0.169601 0
M  V30 5871 H 571.138 1.57517 -1.08907 0
M  V30 5872 H 569.443 3.91761 0.0551328 0
M  V30 5873 H 571.14 3.99655 -0.328163 0
M  V30 5874 H 567.73 3.90837 -1.75911 0
M  V30 5875 H 571.914 4.1597 -2.70708 0
M  V30 5876 H 567.17 4.57256 -4.05865 0
M  V30 5877 H 571.344 4.83722 -5.00985 0
M  V30 5878 H 568.971 5.04041 -5.69076 0
M  V30 5879 N 570.547 0.616602 1.45037 0
M  V30 5880 C 571.477 -0.0840787 2.33349 0
M  V30 5881 C 572.458 -0.849641 1.4736 0
M  V30 5882 O 573.643 -0.818407 1.76113 0
M  V30 5883 C 570.773 -1.07604 3.3021 0
M  V30 5884 C 569.727 -0.423096 4.25904 0
M  V30 5885 C 569.053 -1.52394 5.12523 0
M  V30 5886 C 570.353 0.661457 5.18095 0
M  V30 5887 H 572.047 0.653333 2.92185 0
M  V30 5888 H 569.593 0.315634 1.40498 0
M  V30 5889 H 571.546 -1.57485 3.90866 0
M  V30 5890 H 570.27 -1.84416 2.69552 0
M  V30 5891 H 568.929 0.05493 3.66559 0
M  V30 5892 H 568.577 -2.28257 4.48227 0
M  V30 5893 H 568.277 -1.09251 5.77354 0
M  V30 5894 H 569.801 -2.02485 5.76049 0
M  V30 5895 H 571.215 0.246353 5.7277 0
M  V30 5896 H 569.612 1.01517 5.91451 0
M  V30 5897 H 570.682 1.53446 4.59981 0
M  V30 5898 N 572.025 -1.5352 0.356285 0
M  V30 5899 C 572.958 -2.2177 -0.537913 0
M  V30 5900 C 573.936 -1.20626 -1.09033 0
M  V30 5901 O 575.12 -1.49494 -1.1482 0
M  V30 5902 C 572.247 -2.90513 -1.74126 0
M  V30 5903 C 571.293 -4.05652 -1.31715 0
M  V30 5904 S 572.126 -5.34505 -0.326236 0
M  V30 5905 C 573.282 -6.06757 -1.53612 0
M  V30 5906 H 573.515 -2.97271 0.0417411 0
M  V30 5907 H 571.048 -1.53761 0.140372 0
M  V30 5908 H 573.006 -3.30735 -2.43155 0
M  V30 5909 H 571.667 -2.14754 -2.29215 0
M  V30 5910 H 570.86 -4.52733 -2.21471 0
M  V30 5911 H 570.462 -3.67272 -0.706183 0
M  V30 5912 H 572.754 -6.30924 -2.46863 0
M  V30 5913 H 573.697 -6.99395 -1.10687 0
M  V30 5914 H 574.105 -5.3708 -1.73796 0
M  V30 5915 N 573.503 -0.0852151 -1.57369 0
M  V30 5916 C 574.728 0.592872 -1.98746 0
M  V30 5917 C 575.153 1.61538 -0.963689 0
M  V30 5918 O 574.511 1.81168 0.069071 0
M  V30 5919 C 574.559 1.22599 -3.39119 0
M  V30 5920 O 573.663 2.34185 -3.39457 0
M  V30 5921 H 573.004 0.151314 -0.646529 0
M  V30 5922 H 575.534 -0.163703 -2.03944 0
M  V30 5923 H 575.544 1.56965 -3.76598 0
M  V30 5924 H 574.219 0.476831 -4.13158 0
M  V30 5925 H 572.796 2.01512 -3.13763 0
M  V30 5926 N 574.981 1.5647 0.188427 0
M  V30 5927 C 576.211 1.84863 0.922463 0
M  V30 5928 C 576.619 0.666413 1.77075 0
M  V30 5929 O 575.962 -0.374044 1.79852 0
M  V30 5930 C 576.024 3.07447 1.86324 0
M  V30 5931 C 575.688 4.41066 1.19625 0
M  V30 5932 C 576.685 5.16767 0.569946 0
M  V30 5933 C 574.37 4.87802 1.19811 0
M  V30 5934 C 576.364 6.37384 -0.045594 0
M  V30 5935 C 574.051 6.08353 0.57874 0
M  V30 5936 C 575.049 6.82987 -0.0420259 0
M  V30 5937 O 574.737 8.01254 -0.651675 0
M  V30 5938 H 574.469 0.61784 0.274316 0
M  V30 5939 H 577.023 2.04437 0.198613 0
M  V30 5940 H 575.253 2.83774 2.62696 0
M  V30 5941 H 576.942 3.2243 2.46564 0
M  V30 5942 H 577.708 4.81749 0.560601 0
M  V30 5943 H 573.587 4.29662 1.67069 0
M  V30 5944 H 577.131 6.95578 -0.530731 0
M  V30 5945 H 573.028 6.42838 0.58561 0
M  V30 5946 H 573.796 8.16655 -0.549236 0
M  V30 5947 N 576.459 -0.456382 1.50847 0
M  V30 5948 C 577.736 -1.21739 1.53098 0
M  V30 5949 C 578.116 -2.09179 0.284132 0
M  V30 5950 O 577.464 -2.16466 -0.731773 0
M  V30 5951 C 577.674 -2.03573 2.83477 0
M  V30 5952 C 579.022 -2.61264 3.34703 0
M  V30 5953 O 580.046 -2.13802 2.84898 0
M  V30 5954 O 578.905 -3.47779 4.21559 0
M  V30 5955 H 575.999 -0.553219 0.614718 0
M  V30 5956 H 578.545 -0.467003 1.63148 0
M  V30 5957 H 577.317 -1.39232 3.65691 0
M  V30 5958 H 576.94 -2.85716 2.76499 0
M  V30 5959 N 577.937 -1.40673 -0.710563 0
M  V30 5960 C 579.184 -1.39222 -1.47049 0
M  V30 5961 C 579.512 0.0037691 -1.945 0
M  V30 5962 O 578.767 0.989224 -1.68857 0
M  V30 5963 C 579.066 -2.33253 -2.70791 0
M  V30 5964 C 578.732 -3.80406 -2.42079 0
M  V30 5965 C 577.394 -4.20496 -2.33959 0
M  V30 5966 C 579.746 -4.73375 -2.18094 0
M  V30 5967 C 577.074 -5.51584 -1.99929 0
M  V30 5968 C 579.426 -6.04768 -1.85576 0
M  V30 5969 C 578.09 -6.43895 -1.75941 0
M  V30 5970 H 577.36 -0.509449 -0.538092 0
M  V30 5971 H 580.007 -1.73363 -0.81348 0
M  V30 5972 H 578.312 -1.92314 -3.41354 0
M  V30 5973 H 580.009 -2.29412 -3.28894 0
M  V30 5974 H 576.599 -3.48645 -2.49288 0
M  V30 5975 H 580.783 -4.43217 -2.23321 0
M  V30 5976 H 576.039 -5.80797 -1.91011 0
M  V30 5977 H 580.213 -6.76318 -1.66033 0
M  V30 5978 H 577.84 -7.45387 -1.4934 0
M  V30 5979 N 579.415 0.9433 -1.26252 0
M  V30 5980 C 580.645 1.72117 -1.14277 0
M  V30 5981 C 581.053 1.86726 0.304944 0
M  V30 5982 O 580.396 1.3727 1.22076 0
M  V30 5983 C 580.458 3.14778 -1.73651 0
M  V30 5984 C 580.122 3.23561 -3.22734 0
M  V30 5985 C 581.119 3.07001 -4.19579 0
M  V30 5986 C 578.804 3.47019 -3.63157 0
M  V30 5987 C 580.798 3.13763 -5.54826 0
M  V30 5988 C 578.485 3.53416 -4.98538 0
M  V30 5989 C 579.483 3.36804 -5.94182 0
M  V30 5990 O 579.171 3.42906 -7.27098 0
M  V30 5991 H 578.903 0.545781 -0.398873 0
M  V30 5992 H 581.457 1.19123 -1.67328 0
M  V30 5993 H 579.687 3.69186 -1.1506 0
M  V30 5994 H 581.376 3.74469 -1.56613 0
M  V30 5995 H 582.142 2.88736 -3.89688 0
M  V30 5996 H 578.021 3.59006 -2.89199 0
M  V30 5997 H 581.565 3.00714 -6.29458 0
M  V30 5998 H 577.462 3.71201 -5.28091 0
M  V30 5999 H 578.23 3.59463 -7.35342 0
M  V30 6000 N 580.893 1.08022 1.14757 0
M  V30 6001 C 582.141 0.805913 1.85336 0
M  V30 6002 C 582.462 -0.670162 1.83122 0
M  V30 6003 O 581.732 -1.48567 1.2769 0
M  V30 6004 H 580.312 0.295138 0.686223 0
M  V30 6005 H 582.974 1.36538 1.3908 0
M  V30 6006 H 582.07 1.14655 2.90277 0
M  V30 6007 N 582.371 -1.3172 0.865308 0
M  V30 6008 C 583.782 -1.79104 0.527126 0
M  V30 6009 C 584.133 -1.7135 -0.955695 0
M  V30 6010 O 583.258 -1.27845 -1.74598 0
M  V30 6011 C 583.853 -3.25207 0.950061 0
M  V30 6012 C 582.412 -3.70504 0.663611 0
M  V30 6013 C 581.559 -2.52605 1.14395 0
M  V30 6014 H 584.51 -1.18868 1.05148 0
M  V30 6015 H 584.531 -3.79535 0.270805 0
M  V30 6016 H 584.043 -3.30818 2.02931 0
M  V30 6017 H 582.144 -3.70398 -0.404474 0
M  V30 6018 H 582.257 -4.62845 1.23737 0
M  V30 6019 H 580.621 -2.4838 0.563859 0
M  V30 6020 H 581.404 -2.60964 2.23053 0
M  V30 6021 N 583.85 -0.624285 -1.44708 0
M  V30 6022 C 585.096 -0.126051 -2.02107 0
M  V30 6023 C 585.425 1.2496 -1.49048 0
M  V30 6024 O 584.68 1.84163 -0.662005 0
M  V30 6025 C 584.979 -0.0546353 -3.57358 0
M  V30 6026 C 584.644 -1.36815 -4.29642 0
M  V30 6027 C 583.307 -1.72792 -4.49106 0
M  V30 6028 C 585.659 -2.23549 -4.70824 0
M  V30 6029 C 582.986 -2.95222 -5.07012 0
M  V30 6030 C 585.339 -3.45243 -5.30085 0
M  V30 6031 C 584.003 -3.81452 -5.47769 0
M  V30 6032 H 583.273 -0.0461252 -0.739563 0
M  V30 6033 H 585.92 -0.809236 -1.73562 0
M  V30 6034 H 584.225 0.711891 -3.85278 0
M  V30 6035 H 585.922 0.347282 -3.99493 0
M  V30 6036 H 582.512 -1.07817 -4.14817 0
M  V30 6037 H 586.696 -1.9705 -4.55505 0
M  V30 6038 H 581.952 -3.23361 -5.18891 0
M  V30 6039 H 586.125 -4.12689 -5.60946 0
M  V30 6040 H 583.753 -4.76403 -5.92405 0
M  V30 6041 N 585.328 1.53329 -0.364422 0
M  V30 6042 C 586.605 1.93557 0.281962 0
M  V30 6043 C 586.985 1.29786 1.6649 0
M  V30 6044 O 586.333 0.456512 2.23893 0
M  V30 6045 C 586.543 3.47405 0.333331 0
M  V30 6046 C 587.891 4.20699 0.574231 0
M  V30 6047 O 588.915 3.53779 0.414588 0
M  V30 6048 O 587.774 5.39287 0.885002 0
M  V30 6049 H 584.868 0.809573 0.168881 0
M  V30 6050 H 587.414 1.64494 -0.417121 0
M  V30 6051 H 586.186 3.86091 -0.636326 0
M  V30 6052 H 585.809 3.82697 1.07836 0
M  V30 6053 N 586.806 0.0935595 1.57322 0
M  V30 6054 C 587.736 -0.863062 2.16964 0
M  V30 6055 C 588.717 -1.29528 1.10256 0
M  V30 6056 O 589.902 -1.36245 1.38387 0
M  V30 6057 C 587.032 -2.12276 2.74875 0
M  V30 6058 C 585.986 -1.82921 3.86942 0
M  V30 6059 C 585.312 -3.15707 4.31548 0
M  V30 6060 C 586.612 -1.11737 5.10208 0
M  V30 6061 H 588.306 -0.366145 2.97153 0
M  V30 6062 H 585.852 -0.174673 1.42937 0
M  V30 6063 H 587.805 -2.79634 3.1525 0
M  V30 6064 H 586.529 -2.64248 1.91938 0
M  V30 6065 H 585.188 -1.17961 3.47103 0
M  V30 6066 H 584.836 -3.65563 3.45504 0
M  V30 6067 H 584.536 -2.96849 5.07104 0
M  V30 6068 H 586.06 -3.84226 4.74555 0
M  V30 6069 H 587.474 -1.69203 5.47762 0
M  V30 6070 H 585.871 -1.03064 5.91183 0
M  V30 6071 H 586.941 -0.0998818 4.84797 0
M  V30 6072 N 588.284 -1.56567 -0.180126 0
M  V30 6073 C 589.231 -1.95725 -1.22313 0
M  V30 6074 C 590.201 -0.819911 -1.44453 0
M  V30 6075 O 591.386 -1.07931 -1.57339 0
M  V30 6076 C 588.526 -2.31484 -2.55947 0
M  V30 6077 C 587.639 -3.58354 -2.4126 0
M  V30 6078 C 586.774 -3.83366 -3.67701 0
M  V30 6079 C 585.813 -5.03612 -3.47909 0
M  V30 6080 N 584.95 -5.24802 -4.66398 0
M  V30 6081 H 589.79 -2.84642 -0.882198 0
M  V30 6082 H 587.327 -1.4085 -0.42422 0
M  V30 6083 H 589.285 -2.50237 -3.33822 0
M  V30 6084 H 587.915 -1.45689 -2.88053 0
M  V30 6085 H 586.967 -3.47565 -1.54606 0
M  V30 6086 H 588.279 -4.46386 -2.22577 0
M  V30 6087 H 587.433 -4.02439 -4.54013 0
M  V30 6088 H 586.172 -2.93692 -3.89353 0
M  V30 6089 H 585.177 -4.84447 -2.59983 0
M  V30 6090 H 586.402 -5.94809 -3.27688 0
M  V30 6091 H 584.348 -4.38079 -4.88286 0
M  V30 6092 H 584.265 -6.07041 -4.50596 0
M  V30 6093 H 585.533 -5.48346 -5.54019 0
M  V30 6094 N 589.762 0.448376 -1.51087 0
M  V30 6095 C 590.71 1.56407 -1.72161 0
M  V30 6096 C 591.704 1.58878 -0.587721 0
M  V30 6097 O 592.91 1.62755 -0.768822 0
M  V30 6098 H 589.285 0.519423 -0.543786 0
M  V30 6099 H 591.256 1.35803 -2.65707 0
M  V30 6100 C 590.005 2.94163 -1.85373 0
M  V30 6101 H 589.328 2.9299 -2.72024 0
M  V30 6102 H 590.768 3.71625 -2.04135 0
M  V30 6103 C 589.227 3.31317 -0.610803 0
M  V30 6104 O 589.757 4.00985 0.239636 0
M  V30 6105 N 587.963 2.86966 -0.458127 0
M  V30 6106 H 587.51 2.30443 -1.15124 0
M  V30 6107 H 587.468 3.12188 0.372289 0
M  V30 6108 N 591.24 1.41047 0.703093 0
M  V30 6109 C 592.17 1.45067 1.82969 0
M  V30 6110 C 593.151 0.31016 1.67248 0
M  V30 6111 O 594.336 0.520548 1.87093 0
M  V30 6112 C 591.466 1.32478 3.2104 0
M  V30 6113 C 590.42 2.44262 3.51454 0
M  V30 6114 C 589.746 2.16742 4.88801 0
M  V30 6115 C 591.046 3.86606 3.51189 0
M  V30 6116 H 592.74 2.39353 1.79863 0
M  V30 6117 H 590.286 1.15206 0.863919 0
M  V30 6118 H 592.239 1.33904 3.99559 0
M  V30 6119 H 590.963 0.346735 3.24754 0
M  V30 6120 H 589.622 2.42107 2.75282 0
M  V30 6121 H 589.27 1.17299 4.89132 0
M  V30 6122 H 588.97 2.91643 5.10116 0
M  V30 6123 H 590.494 2.19872 5.69639 0
M  V30 6124 H 591.908 3.90517 4.19725 0
M  V30 6125 H 590.305 4.61128 3.84033 0
M  V30 6126 H 591.375 4.15296 2.50315 0
M  V30 6127 N 592.718 -0.936591 1.26751 0
M  V30 6128 C 593.966 -1.67998 1.12343 0
M  V30 6129 C 594.287 -1.92137 -0.332938 0
M  V30 6130 O 593.557 -1.52132 -1.23421 0
M  V30 6131 H 592.137 -0.622609 0.412756 0
M  V30 6132 H 594.799 -1.12509 1.59147 0
M  V30 6133 H 593.895 -2.65185 1.64571 0
M  V30 6134 N 594.196 -1.08629 -1.14182 0
M  V30 6135 C 595.146 -0.687882 -2.17376 0
M  V30 6136 C 596.13 0.293632 -1.58198 0
M  V30 6137 O 597.322 0.105292 -1.76687 0
M  V30 6138 C 594.451 -0.101184 -3.43151 0
M  V30 6139 C 593.537 -1.10862 -4.09354 0
M  V30 6140 N 593.928 -2.29285 -4.50846 0
M  V30 6141 C 592.226 -0.944897 -4.35876 0
M  V30 6142 C 592.927 -2.93305 -5.02342 0
M  V30 6143 N 591.903 -2.20903 -4.96692 0
M  V30 6144 H 595.705 -1.58963 -2.472 0
M  V30 6145 H 593.219 -0.961329 -1.3089 0
M  V30 6146 H 595.216 0.202209 -4.16409 0
M  V30 6147 H 593.876 0.795522 -3.14804 0
M  V30 6148 H 594.887 -2.66927 -4.43813 0
M  V30 6149 H 591.564 -0.102186 -4.17375 0
M  V30 6150 H 592.954 -3.93932 -5.44304 0
M  V30 6151 N 595.674 1.31259 -0.872281 0
M  V30 6152 C 596.606 2.27396 -0.28697 0
M  V30 6153 C 597.619 1.53181 0.551297 0
M  V30 6154 O 598.808 1.74561 0.372914 0
M  V30 6155 C 595.908 3.33335 0.611617 0
M  V30 6156 C 595.081 4.36966 -0.194729 0
M  V30 6157 C 594.14 5.22387 0.632358 0
M  V30 6158 O 593.166 5.69169 0.0595691 0
M  V30 6159 N 594.368 5.46985 1.94391 0
M  V30 6160 H 597.133 2.78261 -1.11314 0
M  V30 6161 H 594.694 1.44306 -0.733994 0
M  V30 6162 H 596.686 3.87398 1.17068 0
M  V30 6163 H 595.256 2.82496 1.33846 0
M  V30 6164 H 594.476 3.82945 -0.935241 0
M  V30 6165 H 595.764 5.03273 -0.747935 0
M  V30 6166 H 595.162 5.10737 2.43237 0
M  V30 6167 H 593.719 6.03973 2.45071 0
M  V30 6168 N 597.152 0.631951 1.44375 0
M  V30 6169 C 598.38 0.143867 2.06399 0
M  V30 6170 C 598.795 -1.18188 1.47231 0
M  V30 6171 O 598.152 -1.72511 0.595498 0
M  V30 6172 C 598.203 0.0238253 3.61492 0
M  V30 6173 O 597.924 1.29715 4.18456 0
M  V30 6174 C 599.425 -0.492856 4.40552 0
M  V30 6175 H 596.645 0.0800542 0.666207 0
M  V30 6176 H 599.189 0.866586 1.85231 0
M  V30 6177 H 597.344 -0.649338 3.81919 0
M  V30 6178 H 597.758 1.14252 5.11905 0
M  V30 6179 H 599.232 -0.525861 5.49489 0
M  V30 6180 H 599.709 -1.52006 4.12057 0
M  V30 6181 H 600.315 0.147085 4.25046 0
M  V30 6182 N 598.631 -1.53133 0.372548 0
M  V30 6183 C 599.594 -2.24569 -0.458389 0
M  V30 6184 C 600.594 -1.25603 -1.00402 0
M  V30 6185 O 601.784 -1.49827 -0.888672 0
M  V30 6186 C 598.916 -2.98783 -1.6414 0
M  V30 6187 H 600.109 -2.99436 0.166799 0
M  V30 6188 H 597.662 -1.55805 0.124357 0
M  V30 6189 H 598.397 -2.28176 -2.30448 0
M  V30 6190 H 598.182 -3.71404 -1.25704 0
M  V30 6191 H 599.672 -3.53068 -2.23008 0
M  V30 6192 N 600.109 -0.101901 -1.5727 0
M  V30 6193 C 601.039 0.851544 -2.17419 0
M  V30 6194 C 602.02 1.28942 -1.10941 0
M  V30 6195 O 603.205 1.35509 -1.39107 0
M  V30 6196 C 600.335 2.10816 -2.75996 0
M  V30 6197 C 599.289 1.80867 -3.87906 0
M  V30 6198 C 598.615 3.13413 -4.33216 0
M  V30 6199 C 599.915 1.0903 -5.10793 0
M  V30 6200 H 601.609 0.350381 -2.97343 0
M  V30 6201 H 599.155 0.16709 -1.43027 0
M  V30 6202 H 601.108 2.77959 -3.16729 0
M  V30 6203 H 599.832 2.63227 -1.93337 0
M  V30 6204 H 598.491 1.16119 -3.47724 0
M  V30 6205 H 598.139 3.63725 -3.47438 0
M  V30 6206 H 597.839 2.94155 -5.08671 0
M  V30 6207 H 599.363 3.81704 -4.76586 0
M  V30 6208 H 600.777 1.66295 -5.48652 0
M  V30 6209 H 599.174 0.99927 -5.91722 0
M  V30 6210 H 600.244 0.0741704 -4.84843 0
M  V30 6211 N 601.587 1.56661 0.17182 0
M  V30 6212 C 602.535 1.97289 1.23207 0
M  V30 6213 C 603.529 0.861566 1.45854 0
M  V30 6214 O 604.735 1.04668 1.4644 0
M  V30 6215 H 601.11 0.627681 0.41415 0
M  V30 6216 H 603.081 2.85662 0.862542 0
M  V30 6217 C 601.83 2.34849 2.564 0
M  V30 6218 H 601.153 3.19903 2.39797 0
M  V30 6219 H 602.593 2.67121 3.29276 0
M  V30 6220 C 601.052 1.19172 3.15119 0
M  V30 6221 O 601.582 0.479113 3.98833 0
M  V30 6222 N 599.788 0.962415 2.74201 0
M  V30 6223 H 599.335 1.54365 2.06226 0
M  V30 6224 H 599.293 0.190272 3.13824 0
M  V30 6225 N 603.065 -0.440357 1.51323 0
M  V30 6226 C 604.028 -1.51679 1.71832 0
M  V30 6227 C 605.028 -1.49648 0.588386 0
M  V30 6228 O 606.218 -1.51724 0.855891 0
M  V30 6229 C 603.35 -2.91228 1.77199 0
M  V30 6230 H 604.543 -1.34799 2.67898 0
M  V30 6231 H 602.096 -0.66883 1.41267 0
M  V30 6232 H 602.831 -3.13516 0.829363 0
M  V30 6233 H 602.616 -2.94107 2.59314 0
M  V30 6234 H 604.106 -3.69321 1.94915 0
M  V30 6235 N 604.543 -1.41418 -0.695603 0
M  V30 6236 C 605.954 -1.36335 -1.27552 0
M  V30 6237 C 606.305 -0.0464336 -1.96145 0
M  V30 6238 O 605.43 0.855304 -1.9878 0
M  V30 6239 C 606.025 -2.46941 -2.3196 0
M  V30 6240 C 604.584 -2.45256 -2.85529 0
M  V30 6241 C 603.731 -2.2679 -1.59566 0
M  V30 6242 H 606.682 -1.50934 -0.490362 0
M  V30 6243 H 606.703 -2.15997 -3.1325 0
M  V30 6244 H 606.215 -3.42775 -1.82008 0
M  V30 6245 H 604.316 -1.53179 -3.39657 0
M  V30 6246 H 604.429 -3.41565 -3.35961 0
M  V30 6247 H 602.793 -1.74667 -1.85374 0
M  V30 6248 H 603.576 -3.24651 -1.1161 0
M  V30 6249 N 606.021 0.929856 -1.27246 0
M  V30 6250 C 606.984 2.01172 -1.09829 0
M  V30 6251 C 607.984 1.60743 -0.0429687 0
M  V30 6252 O 609.174 1.71813 -0.287373 0
M  V30 6253 C 606.306 3.34191 -0.673003 0
M  V30 6254 H 607.499 2.18054 -2.05895 0
M  V30 6255 H 605.052 1.11036 -1.10003 0
M  V30 6256 H 605.787 3.23009 0.289134 0
M  V30 6257 H 605.572 3.64892 -1.43515 0
M  V30 6258 H 607.062 4.13646 -0.573323 0
M  V30 6259 N 607.499 1.09233 1.13605 0
M  V30 6260 C 608.745 0.838255 1.85324 0
M  V30 6261 C 609.1 -0.629314 1.81817 0
M  V30 6262 O 608.393 -1.45729 1.24393 0
M  V30 6263 C 608.587 1.305 3.32723 0
M  V30 6264 C 608.416 2.81641 3.50583 0
M  V30 6265 C 607.186 3.49494 3.64941 0
M  V30 6266 C 609.384 3.79789 3.46792 0
M  V30 6267 N 607.366 4.89082 3.71042 0
M  V30 6268 C 608.737 5.05319 3.59239 0
M  V30 6269 C 610.792 3.72673 3.30181 0
M  V30 6270 C 609.495 6.24574 3.56791 0
M  V30 6271 C 611.521 4.91413 3.29039 0
M  V30 6272 C 610.883 6.15785 3.42035 0
M  V30 6273 H 606.982 0.359572 0.69443 0
M  V30 6274 H 609.566 1.39232 1.36098 0
M  V30 6275 H 607.737 0.778411 3.8052 0
M  V30 6276 H 609.469 0.996465 3.92241 0
M  V30 6277 H 606.224 2.9992 3.66531 0
M  V30 6278 H 606.648 5.61787 3.77789 0
M  V30 6279 H 611.29 2.77444 3.19037 0
M  V30 6280 H 609.008 7.20105 3.66708 0
M  V30 6281 H 612.594 4.87604 3.17386 0
M  V30 6282 H 611.474 7.06126 3.41111 0
M  V30 6283 N 608.977 -1.30795 0.87923 0
M  V30 6284 C 609.924 -2.28282 0.339968 0
M  V30 6285 C 610.894 -1.56134 -0.566685 0
M  V30 6286 O 612.079 -1.84231 -0.496338 0
M  V30 6287 C 609.219 -3.42225 -0.444501 0
M  V30 6288 C 608.332 -4.29204 0.490717 0
M  V30 6289 C 607.467 -5.30302 -0.308784 0
M  V30 6290 C 606.506 -6.08929 0.622272 0
M  V30 6291 N 605.643 -7.01957 -0.14155 0
M  V30 6292 H 610.483 -2.73794 1.17647 0
M  V30 6293 H 608.02 -1.34682 0.591527 0
M  V30 6294 H 609.978 -4.07038 -0.915186 0
M  V30 6295 H 608.608 -2.97799 -1.24562 0
M  V30 6296 H 607.66 -3.6475 1.07988 0
M  V30 6297 H 608.972 -4.84045 1.20425 0
M  V30 6298 H 608.126 -6.00835 -0.841575 0
M  V30 6299 H 606.865 -4.7614 -1.05556 0
M  V30 6300 H 605.87 -5.37278 1.16674 0
M  V30 6301 H 607.095 -6.65178 1.36804 0
M  V30 6302 H 605.041 -6.50192 -0.870966 0
M  V30 6303 H 604.958 -7.54261 0.51246 0
M  V30 6304 H 606.226 -7.76741 -0.655271 0
M  V30 6305 N 610.455 -0.639598 -1.44038 0
M  V30 6306 C 611.866 -0.228866 -1.85292 0
M  V30 6307 C 612.217 1.22161 -1.53529 0
M  V30 6308 O 611.342 1.93064 -0.977518 0
M  V30 6309 C 611.937 -0.408592 -3.36327 0
M  V30 6310 C 610.496 -0.0522953 -3.76364 0
M  V30 6311 C 609.643 -0.717959 -2.67844 0
M  V30 6312 H 612.594 -0.844194 -1.34384 0
M  V30 6313 H 612.615 0.349968 -3.78887 0
M  V30 6314 H 612.127 -1.46435 -3.59414 0
M  V30 6315 H 610.228 1.0014 -3.58891 0
M  V30 6316 H 610.341 -0.468261 -4.76806 0
M  V30 6317 H 608.705 -0.152459 -2.54243 0
M  V30 6318 H 609.488 -1.77648 -2.93762 0
M  V30 6319 N 611.933 1.52934 -0.380664 0
M  V30 6320 C 613.21 1.93845 0.261417 0
M  V30 6321 C 613.59 1.31544 1.65104 0
M  V30 6322 O 612.938 0.480234 2.23397 0
M  V30 6323 C 613.148 3.47739 0.296466 0
M  V30 6324 C 614.496 4.21284 0.529578 0
M  V30 6325 O 615.52 3.54199 0.377041 0
M  V30 6326 O 614.379 5.40195 0.827753 0
M  V30 6327 H 611.473 0.811318 0.160285 0
M  V30 6328 H 614.019 1.64042 -0.434544 0
M  V30 6329 H 612.791 3.85395 -0.67724 0
M  V30 6330 H 612.414 3.8382 1.0377 0
M  V30 6331 N 613.412 0.11024 1.57214 0
M  V30 6332 C 614.64 -0.557834 1.99238 0
M  V30 6333 C 615.055 -1.60778 0.989734 0
M  V30 6334 O 614.412 -1.82491 -0.0186092 0
M  V30 6335 C 614.463 -1.19189 3.41286 0
M  V30 6336 O 614.184 -0.183919 4.37714 0
M  V30 6337 C 615.685 -1.94413 3.98395 0
M  V30 6338 H 612.905 -0.148392 0.654386 0
M  V30 6339 H 615.449 0.193996 2.03578 0
M  V30 6340 H 613.604 -1.89456 3.37913 0
M  V30 6341 H 614.018 -0.643475 5.20538 0
M  V30 6342 H 615.492 -2.34116 4.99894 0
M  V30 6343 H 615.969 -2.81592 3.3705 0
M  V30 6344 H 616.575 -1.28928 4.05287 0
M  V30 6345 N 614.89 -1.56749 -0.16351 0
M  V30 6346 C 615.853 -1.96121 -1.18613 0
M  V30 6347 C 616.853 -0.845765 -1.36761 0
M  V30 6348 O 618.043 -1.11268 -1.34033 0
M  V30 6349 C 615.175 -2.26282 -2.54969 0
M  V30 6350 H 616.368 -2.87639 -0.848764 0
M  V30 6351 H 613.921 -1.50928 -0.406251 0
M  V30 6352 H 614.656 -1.37504 -2.93706 0
M  V30 6353 H 614.441 -3.07595 -2.43162 0
M  V30 6354 H 615.931 -2.57638 -3.28653 0
M  V30 6355 N 616.368 0.432326 -1.51554 0
M  V30 6356 C 617.598 1.2019 -1.68042 0
M  V30 6357 C 618.006 1.85356 -0.379434 0
M  V30 6358 O 617.349 1.71724 0.652427 0
M  V30 6359 C 617.411 2.32387 -2.74292 0
M  V30 6360 C 617.075 1.87548 -4.16743 0
M  V30 6361 C 618.072 1.37611 -5.01357 0
M  V30 6362 C 615.757 1.95087 -4.62868 0
M  V30 6363 C 617.751 0.958069 -6.30159 0
M  V30 6364 C 615.438 1.52894 -5.91664 0
M  V30 6365 C 616.436 1.03336 -6.75137 0
M  V30 6366 O 616.124 0.617435 -8.01525 0
M  V30 6367 H 615.856 0.368132 -0.56697 0
M  V30 6368 H 618.41 0.517875 -1.98764 0
M  V30 6369 H 616.64 3.04082 -2.38895 0
M  V30 6370 H 618.329 2.94235 -2.79608 0
M  V30 6371 H 619.095 1.31178 -4.66923 0
M  V30 6372 H 614.974 2.32606 -3.98015 0
M  V30 6373 H 618.518 0.570562 -6.95263 0
M  V30 6374 H 614.415 1.58999 -6.25611 0
M  V30 6375 H 615.183 0.742835 -8.15122 0
M  V30 6376 N 617.846 1.41785 0.688094 0
M  V30 6377 C 619.074 1.44915 1.47673 0
M  V30 6378 C 619.489 0.0565786 1.88715 0
M  V30 6379 O 618.846 -0.92579 1.57275 0
M  V30 6380 C 618.897 2.36452 2.73446 0
M  V30 6381 O 618.618 3.7029 2.34131 0
M  V30 6382 C 620.119 2.48463 3.67125 0
M  V30 6383 H 617.339 0.493324 0.454832 0
M  V30 6384 H 619.883 1.86153 0.846594 0
M  V30 6385 H 618.038 1.98502 3.3268 0
M  V30 6386 H 618.452 4.19183 3.15255 0
M  V30 6387 H 619.926 3.16662 4.52138 0
M  V30 6388 H 620.403 1.51826 4.12123 0
M  V30 6389 H 621.009 2.8708 3.13792 0
M  V30 6390 N 619.324 -0.923095 1.27737 0
M  V30 6391 C 620.552 -1.70525 1.17171 0
M  V30 6392 C 620.967 -1.86847 -0.270881 0
M  V30 6393 O 620.324 -1.38879 -1.18401 0
M  V30 6394 C 620.375 -3.10242 1.85559 0
M  V30 6395 O 620.096 -2.94683 3.24182 0
M  V30 6396 C 621.597 -4.04586 1.81176 0
M  V30 6397 H 618.817 -0.533347 0.407163 0
M  V30 6398 H 621.361 -1.15599 1.68692 0
M  V30 6399 H 619.516 -3.62014 1.3793 0
M  V30 6400 H 619.93 -3.83045 3.58297 0
M  V30 6401 H 621.404 -5.00119 2.33633 0
M  V30 6402 H 621.881 -4.3218 0.782099 0
M  V30 6403 H 622.487 -3.58741 2.2844 0
M  V30 6404 N 620.802 -1.09834 -1.13024 0
M  V30 6405 C 622.048 -0.83819 -1.84668 0
M  V30 6406 C 622.381 0.634645 -1.83537 0
M  V30 6407 O 621.656 1.46753 -1.27647 0
M  V30 6408 C 621.939 -1.37933 -3.32636 0
M  V30 6409 C 621.792 -2.91857 -3.42257 0
M  V30 6410 C 623.111 -1.01654 -4.28199 0
M  V30 6411 H 620.23 -0.30595 -0.670495 0
M  V30 6412 H 622.872 -1.36044 -1.32635 0
M  V30 6413 H 621.022 -0.935111 -3.77078 0
M  V30 6414 H 622.694 -3.44759 -3.06495 0
M  V30 6415 H 620.937 -3.28776 -2.83 0
M  V30 6416 H 621.608 -3.24799 -4.46329 0
M  V30 6417 H 624.084 -1.39973 -3.9185 0
M  V30 6418 H 622.96 -1.42217 -5.30156 0
M  V30 6419 H 623.221 0.0747794 -4.42037 0
M  V30 6420 N 622.28 1.30327 -0.886154 0
M  V30 6421 C 623.228 2.30052 -0.343317 0
M  V30 6422 C 624.222 1.60212 0.550305 0
M  V30 6423 O 625.428 1.74674 0.434609 0
M  V30 6424 H 621.803 0.746306 -0.0923681 0
M  V30 6425 H 623.774 2.73294 -1.19804 0
M  V30 6426 C 622.523 3.45079 0.426107 0
M  V30 6427 H 621.846 3.99003 -0.25227 0
M  V30 6428 H 623.286 4.16931 0.771009 0
M  V30 6429 C 621.745 2.95195 1.62363 0
M  V30 6430 O 622.275 2.95323 2.723 0
M  V30 6431 N 620.481 2.51192 1.4612 0
M  V30 6432 H 620.028 2.51286 0.566832 0
M  V30 6433 H 619.986 2.18173 2.2638 0
M  V30 6434 N 623.758 0.647228 1.43697 0
M  V30 6435 C 625.006 0.157876 2.01482 0
M  V30 6436 C 625.327 -1.23039 1.51282 0
M  V30 6437 O 624.597 -1.82071 0.722982 0
M  V30 6438 H 623.177 0.0553745 0.744945 0
M  V30 6439 H 625.839 0.83755 1.75986 0
M  V30 6440 H 624.935 0.137895 3.11795 0
M  V30 6441 N 625.236 -1.5273 0.388769 0
M  V30 6442 C 626.482 -2.01871 -0.193877 0
M  V30 6443 C 626.815 -1.27475 -1.46505 0
M  V30 6444 O 626.09 -0.375063 -1.90849 0
M  V30 6445 C 626.373 -3.5712 -0.462336 0
M  V30 6446 C 626.226 -4.42186 0.824091 0
M  V30 6447 C 627.545 -4.21881 -1.25319 0
M  V30 6448 H 624.664 -0.733764 -0.0689899 0
M  V30 6449 H 627.306 -1.82796 0.518231 0
M  V30 6450 H 625.456 -3.73504 -1.06896 0
M  V30 6451 H 627.128 -4.37554 1.46096 0
M  V30 6452 H 625.371 -4.09219 1.43952 0
M  V30 6453 H 626.042 -5.48828 0.590905 0
M  V30 6454 H 628.518 -4.0947 -0.73981 0
M  V30 6455 H 627.394 -5.30487 -1.40977 0
M  V30 6456 H 627.655 -3.79478 -2.26824 0
M  V30 6457 N 626.714 -0.118576 -1.57153 0
M  V30 6458 C 627.662 0.849114 -2.16547 0
M  V30 6459 C 628.656 1.27567 -1.11458 0
M  V30 6460 O 629.862 1.24746 -1.29763 0
M  V30 6461 H 626.237 0.291935 -0.693021 0
M  V30 6462 H 628.208 0.323693 -2.96639 0
M  V30 6463 C 626.957 2.08951 -2.77912 0
M  V30 6464 H 626.28 1.77021 -3.58474 0
M  V30 6465 H 627.72 2.74666 -3.23008 0
M  V30 6466 C 626.179 2.87899 -1.74974 0
M  V30 6467 O 626.709 3.83268 -1.20285 0
M  V30 6468 N 624.915 2.51884 -1.44924 0
M  V30 6469 H 624.462 1.74397 -1.89587 0
M  V30 6470 H 624.42 3.05003 -0.762921 0
M  V30 6471 N 628.193 1.56834 0.155195 0
M  V30 6472 C 629.156 1.96748 1.17571 0
M  V30 6473 C 630.156 0.853006 1.3631 0
M  V30 6474 O 631.346 1.11978 1.33441 0
M  V30 6475 C 628.478 2.27631 2.53765 0
M  V30 6476 H 629.671 2.88085 0.833498 0
M  V30 6477 H 627.224 1.51141 0.398242 0
M  V30 6478 H 627.959 1.39059 2.92973 0
M  V30 6479 H 627.744 3.0888 2.41527 0
M  V30 6480 H 629.234 2.59377 3.27282 0
M  V30 6481 N 629.671 -0.424282 1.51781 0
M  V30 6482 C 630.601 -1.52305 1.7699 0
M  V30 6483 C 631.582 -1.5839 0.620209 0
M  V30 6484 O 632.767 -1.73908 0.864268 0
M  V30 6485 C 629.897 -2.90271 1.90683 0
M  V30 6486 C 628.851 -2.99043 3.06198 0
M  V30 6487 C 628.177 -4.39116 3.05092 0
M  V30 6488 C 629.477 -2.7192 4.45934 0
M  V30 6489 H 631.171 -1.31461 2.68995 0
M  V30 6490 H 628.717 -0.630985 1.29439 0
M  V30 6491 H 630.67 -3.6711 2.06901 0
M  V30 6492 H 629.394 -3.12376 0.953365 0
M  V30 6493 H 628.053 -2.24646 2.89706 0
M  V30 6494 H 627.701 -4.58207 2.07498 0
M  V30 6495 H 627.401 -4.45912 3.82669 0
M  V30 6496 H 628.925 -5.17911 3.2342 0
M  V30 6497 H 630.339 -3.38487 4.62709 0
M  V30 6498 H 628.736 -2.90111 5.25315 0
M  V30 6499 H 629.806 -1.67445 4.55072 0
M  V30 6500 N 631.149 -1.42148 -0.680565 0
M  V30 6501 C 632.079 -1.4796 -1.80638 0
M  V30 6502 C 633.06 -0.336728 -1.66734 0
M  V30 6503 O 634.245 -0.550247 -1.86242 0
M  V30 6504 C 631.375 -1.37569 -3.18892 0
M  V30 6505 C 630.329 -2.49823 -3.47524 0
M  V30 6506 C 629.655 -2.24491 -4.85291 0
M  V30 6507 C 630.955 -3.92144 -3.44994 0
M  V30 6508 H 632.649 -2.42184 -1.76032 0
M  V30 6509 H 630.195 -1.16566 -0.845481 0
M  V30 6510 H 632.148 -1.40243 -3.97379 0
M  V30 6511 H 630.872 -0.398357 -3.24162 0
M  V30 6512 H 629.531 -2.46455 -2.71395 0
M  V30 6513 H 629.179 -1.25066 -4.87204 0
M  V30 6514 H 628.879 -2.99722 -5.05411 0
M  V30 6515 H 630.403 -2.28906 -5.66069 0
M  V30 6516 H 631.817 -3.97145 -4.13459 0
M  V30 6517 H 630.214 -4.67179 -3.76648 0
M  V30 6518 H 631.284 -4.19225 -2.43676 0
M  V30 6519 N 632.627 0.916307 -1.28225 0
M  V30 6520 C 633.59 1.99996 -1.11957 0
M  V30 6521 C 634.59 1.60688 -0.0600152 0
M  V30 6522 O 635.78 1.71499 -0.30558 0
M  V30 6523 C 632.912 3.33458 -0.708411 0
M  V30 6524 H 634.105 2.15858 -2.08196 0
M  V30 6525 H 631.658 1.09863 -1.11175 0
M  V30 6526 H 632.393 3.23297 0.254859 0
M  V30 6527 H 632.178 3.63349 -1.47377 0
M  V30 6528 H 633.668 4.13014 -0.617164 0
M  V30 6529 N 634.105 1.10431 1.1244 0
M  V30 6530 C 635.037 0.710945 2.17895 0
M  V30 6531 C 636.05 -0.252315 1.60833 0
M  V30 6532 O 637.239 -0.03679 1.78462 0
M  V30 6533 C 634.339 0.0284262 3.38888 0
M  V30 6534 C 633.512 1.01585 4.2544 0
M  V30 6535 C 632.571 0.364826 5.24934 0
M  V30 6536 O 631.597 1.01561 5.60066 0
M  V30 6537 N 632.799 -0.87674 5.73841 0
M  V30 6538 H 635.564 1.61826 2.52255 0
M  V30 6539 H 633.125 0.993132 1.27861 0
M  V30 6540 H 635.117 -0.418568 4.0253 0
M  V30 6541 H 633.687 -0.781294 3.02679 0
M  V30 6542 H 632.907 1.64111 3.58415 0
M  V30 6543 H 634.195 1.68425 4.80115 0
M  V30 6544 H 633.593 -1.42483 5.47462 0
M  V30 6545 H 632.15 -1.26688 6.39369 0
M  V30 6546 N 635.583 -1.29855 0.893053 0
M  V30 6547 C 636.831 -1.9544 0.514566 0
M  V30 6548 C 637.152 -1.70795 -0.940959 0
M  V30 6549 O 636.422 -1.03601 -1.66264 0
M  V30 6550 H 635.002 -0.723137 0.187302 0
M  V30 6551 H 637.664 -1.58234 1.13789 0
M  V30 6552 H 636.76 -3.04341 0.691581 0
M  V30 6553 N 637.061 -0.65484 -1.43351 0
M  V30 6554 C 638.307 -0.169142 -2.02093 0
M  V30 6555 C 638.64 1.21431 -1.51553 0
M  V30 6556 O 637.915 1.81105 -0.709317 0
M  V30 6557 C 638.198 -0.181775 -3.59641 0
M  V30 6558 C 638.051 -1.59926 -4.20409 0
M  V30 6559 C 639.37 0.480945 -4.37464 0
M  V30 6560 H 636.489 -0.0629371 -0.734308 0
M  V30 6561 H 639.131 -0.835833 -1.70628 0
M  V30 6562 H 637.281 0.385918 -3.86578 0
M  V30 6563 H 638.953 -2.21766 -4.04497 0
M  V30 6564 H 637.196 -2.14605 -3.76998 0
M  V30 6565 H 637.867 -1.55994 -5.295 0
M  V30 6566 H 640.343 -0.00208273 -4.161 0
M  V30 6567 H 639.219 0.441384 -5.47122 0
M  V30 6568 H 639.48 1.55533 -4.13838 0
M  V30 6569 N 638.539 1.52521 -0.396863 0
M  V30 6570 C 639.486 2.26671 0.434624 0
M  V30 6571 C 640.456 1.28584 1.05144 0
M  V30 6572 O 641.641 1.57426 1.07804 0
M  V30 6573 C 638.781 3.08234 1.55196 0
M  V30 6574 C 637.894 4.21261 0.957262 0
M  V30 6575 C 637.029 4.90205 2.04627 0
M  V30 6576 C 636.068 5.95213 1.42787 0
M  V30 6577 N 635.205 6.57723 2.45651 0
M  V30 6578 H 640.045 2.973 -0.204139 0
M  V30 6579 H 637.582 1.46669 -0.112505 0
M  V30 6580 H 639.54 3.53819 2.2106 0
M  V30 6581 H 638.17 2.398 2.16092 0
M  V30 6582 H 637.222 3.79935 0.188005 0
M  V30 6583 H 638.534 4.96624 0.465416 0
M  V30 6584 H 637.688 5.39133 2.78246 0
M  V30 6585 H 636.427 4.14383 2.57174 0
M  V30 6586 H 635.432 5.45616 0.676968 0
M  V30 6587 H 636.657 6.72972 0.910255 0
M  V30 6588 H 634.603 5.84737 2.97353 0
M  V30 6589 H 634.52 7.28723 2.01243 0
M  V30 6590 H 635.788 7.11293 3.18876 0
M  V30 6591 N 640.017 0.126909 1.57088 0
M  V30 6592 C 641.428 -0.397201 1.82426 0
M  V30 6593 C 641.779 -1.66084 1.04453 0
M  V30 6594 O 640.904 -2.14534 0.283552 0
M  V30 6595 C 641.499 -0.727411 3.30899 0
M  V30 6596 C 640.058 -1.19612 3.56889 0
M  V30 6597 C 639.205 -0.20885 2.76512 0
M  V30 6598 H 642.156 0.351924 1.54749 0
M  V30 6599 H 642.177 -1.58407 3.45959 0
M  V30 6600 H 641.689 0.19247 3.87622 0
M  V30 6601 H 639.79 -2.13263 3.05532 0
M  V30 6602 H 639.903 -1.13598 4.65438 0
M  V30 6603 H 638.267 -0.697479 2.44964 0
M  V30 6604 H 639.05 0.704267 3.35998 0
M  V30 6605 N 641.495 -1.56914 -0.146875 0
M  V30 6606 C 642.743 -1.82994 -0.85777 0
M  V30 6607 C 643.064 -0.707814 -1.817 0
M  V30 6608 O 642.334 0.270521 -1.94023 0
M  V30 6609 H 640.914 -0.675106 -0.319751 0
M  V30 6610 H 643.576 -1.9439 -0.140849 0
M  V30 6611 H 642.672 -2.77928 -1.41994 0
M  V30 6612 N 642.974 0.416227 -1.52004 0
M  V30 6613 C 643.921 1.50666 -1.74838 0
M  V30 6614 C 644.891 1.55245 -0.590599 0
M  V30 6615 O 646.076 1.71928 -0.827374 0
M  V30 6616 C 643.216 2.88185 -1.89851 0
M  V30 6617 C 642.329 2.92971 -3.17478 0
M  V30 6618 C 641.464 4.21745 -3.22962 0
M  V30 6619 C 640.503 4.20478 -4.4482 0
M  V30 6620 N 639.64 5.40811 -4.47736 0
M  V30 6621 H 644.48 1.30498 -2.67907 0
M  V30 6622 H 642.017 0.633568 -1.32757 0
M  V30 6623 H 643.975 3.68007 -1.96537 0
M  V30 6624 H 642.605 3.06865 -1.00169 0
M  V30 6625 H 641.657 2.05684 -3.19997 0
M  V30 6626 H 642.969 2.87899 -4.07328 0
M  V30 6627 H 642.123 5.09954 -3.28682 0
M  V30 6628 H 640.862 4.29503 -2.31038 0
M  V30 6629 H 639.867 3.30659 -4.39254 0
M  V30 6630 H 641.092 4.14366 -5.38031 0
M  V30 6631 H 639.038 5.4925 -3.58692 0
M  V30 6632 H 638.955 5.37705 -5.31422 0
M  V30 6633 H 640.223 6.30993 -4.57676 0
M  V30 6634 N 644.452 1.42507 0.673017 0
M  V30 6635 C 645.698 1.43284 1.43519 0
M  V30 6636 C 646.031 0.049668 1.94136 0
M  V30 6637 O 645.306 -0.926369 1.71022 0
M  V30 6638 C 645.589 2.45874 2.63093 0
M  V30 6639 C 645.442 3.93388 2.18096 0
M  V30 6640 C 646.761 2.45431 3.6531 0
M  V30 6641 H 643.88 0.521752 0.520522 0
M  V30 6642 H 646.522 1.73932 0.764701 0
M  V30 6643 H 644.672 2.19869 3.20296 0
M  V30 6644 H 646.344 4.30379 1.66046 0
M  V30 6645 H 644.587 4.07169 1.49652 0
M  V30 6646 H 645.258 4.60752 3.03993 0
M  V30 6647 H 647.734 2.68561 3.17827 0
M  V30 6648 H 646.61 3.19189 4.46553 0
M  V30 6649 H 646.871 1.48092 4.16559 0
M  V30 6650 N 645.93 -0.909495 1.28709 0
M  V30 6651 C 647.176 -1.66151 1.16283 0
M  V30 6652 C 647.509 -1.92067 -0.287069 0
M  V30 6653 O 646.784 -1.52409 -1.20837 0
M  V30 6654 C 647.067 -3.01676 1.9663 0
M  V30 6655 C 646.92 -2.82888 3.49707 0
M  V30 6656 C 648.239 -4.02274 1.78504 0
M  V30 6657 H 645.358 -0.602966 0.423793 0
M  V30 6658 H 648 -1.05418 1.58073 0
M  V30 6659 H 646.15 -3.53515 1.61119 0
M  V30 6660 H 647.822 -2.38026 3.95147 0
M  V30 6661 H 646.065 -2.17862 3.75125 0
M  V30 6662 H 646.736 -3.79147 4.01187 0
M  V30 6663 H 649.212 -3.59511 2.09503 0
M  V30 6664 H 648.088 -4.95056 2.37088 0
M  V30 6665 H 648.349 -4.35903 0.737647 0
M  V30 6666 N 647.408 -1.11026 -1.11852 0
M  V30 6667 C 648.654 -0.857729 -1.83768 0
M  V30 6668 C 648.987 0.615143 -1.842 0
M  V30 6669 O 648.262 1.45391 -1.29196 0
M  V30 6670 C 648.545 -1.41453 -3.31154 0
M  V30 6671 C 648.398 -2.95471 -3.39142 0
M  V30 6672 C 649.717 -1.0619 -4.27097 0
M  V30 6673 H 646.836 -0.313044 -0.667212 0
M  V30 6674 H 649.478 -1.37443 -1.31185 0
M  V30 6675 H 647.628 -0.975052 -3.76065 0
M  V30 6676 H 649.3 -3.4799 -3.02821 0
M  V30 6677 H 647.543 -3.31759 -2.79497 0
M  V30 6678 H 648.214 -3.29515 -4.42859 0
M  V30 6679 H 650.69 -1.44122 -3.90344 0
M  V30 6680 H 649.566 -1.47832 -5.28618 0
M  V30 6681 H 649.827 0.0278912 -4.42091 0
M  V30 6682 N 648.886 1.2938 -0.899927 0
M  V30 6683 C 650.134 1.95164 -0.524924 0
M  V30 6684 C 650.455 1.71292 0.931888 0
M  V30 6685 O 649.725 1.04481 1.65712 0
M  V30 6686 H 648.305 0.722133 -0.191135 0
M  V30 6687 H 650.967 1.57628 -1.14627 0
M  V30 6688 H 650.063 3.0397 -0.707711 0
M  V30 6689 N 650.364 0.662433 1.43002 0
M  V30 6690 C 651.592 0.187615 2.06048 0
M  V30 6691 C 652.007 -1.15039 1.49705 0
M  V30 6692 O 651.364 -1.71209 0.631956 0
M  V30 6693 C 651.415 0.100498 3.6136 0
M  V30 6694 O 651.136 1.38562 4.15611 0
M  V30 6695 C 652.637 -0.399298 4.41498 0
M  V30 6696 H 649.857 0.0941675 0.664359 0
M  V30 6697 H 652.401 0.905681 1.83351 0
M  V30 6698 H 650.556 -0.568181 3.83211 0
M  V30 6699 H 650.97 1.25084 5.09366 0
M  V30 6700 H 652.444 -0.409187 5.50481 0
M  V30 6701 H 652.921 -1.43232 4.15188 0
M  V30 6702 H 653.527 0.23721 4.24638 0
M  V30 6703 N 651.842 -1.52309 0.404946 0
M  V30 6704 C 652.805 -2.25491 -0.410651 0
M  V30 6705 C 653.805 -1.27704 -0.977154 0
M  V30 6706 O 654.995 -1.51679 -0.856691 0
M  V30 6707 C 652.127 -3.02197 -1.57765 0
M  V30 6708 H 653.32 -2.99015 0.230277 0
M  V30 6709 H 650.873 -1.55506 0.157377 0
M  V30 6710 H 651.608 -2.33013 -2.25556 0
M  V30 6711 H 651.393 -3.73987 -1.17797 0
M  V30 6712 H 652.883 -3.57719 -2.15469 0
M  V30 6713 N 653.32 -0.135238 -1.57019 0
M  V30 6714 C 654.253 0.846618 -2.11914 0
M  V30 6715 C 655.231 1.25019 -1.03966 0
M  V30 6716 O 656.415 1.34838 -1.31723 0
M  V30 6717 C 653.542 2.1352 -2.6292 0
M  V30 6718 C 652.588 1.87846 -3.82905 0
M  V30 6719 S 653.421 1.08005 -5.24495 0
M  V30 6720 C 654.577 2.38008 -5.78881 0
M  V30 6721 H 654.81 0.379752 -2.94865 0
M  V30 6722 H 652.343 0.0788387 -1.54199 0
M  V30 6723 H 654.301 2.87551 -2.92958 0
M  V30 6724 H 652.962 2.57323 -1.80121 0
M  V30 6725 H 652.155 2.83365 -4.16797 0
M  V30 6726 H 651.757 1.21929 -3.53567 0
M  V30 6727 H 654.049 3.33742 -5.89595 0
M  V30 6728 H 654.992 2.08638 -6.76665 0
M  V30 6729 H 655.4 2.48119 -5.07048 0
M  V30 6730 N 654.798 1.5699 0.138552 0
M  V30 6731 C 656.028 1.87704 0.863184 0
M  V30 6732 C 656.436 0.722411 1.74865 0
M  V30 6733 O 655.779 -0.316636 1.80951 0
M  V30 6734 C 655.841 3.13219 1.76449 0
M  V30 6735 C 655.505 4.44648 1.05532 0
M  V30 6736 C 656.502 5.18318 0.405252 0
M  V30 6737 C 654.187 4.91367 1.04231 0
M  V30 6738 C 656.181 6.36916 -0.24835 0
M  V30 6739 C 653.868 6.09887 0.384904 0
M  V30 6740 C 654.866 6.82508 -0.259292 0
M  V30 6741 O 654.554 7.98775 -0.906258 0
M  V30 6742 H 654.286 0.626255 0.254521 0
M  V30 6743 H 656.84 2.04966 0.133472 0
M  V30 6744 H 655.07 2.91988 2.53535 0
M  V30 6745 H 656.759 3.30111 2.36181 0
M  V30 6746 H 657.525 4.83289 0.407053 0
M  V30 6747 H 653.404 4.34759 1.53315 0
M  V30 6748 H 656.948 6.93538 -0.751755 0
M  V30 6749 H 652.845 6.44376 0.380799 0
M  V30 6750 H 653.613 8.14494 -0.80877 0
M  V30 6751 N 656.276 -0.40816 1.52223 0
M  V30 6752 C 657.524 -1.15274 1.66001 0
M  V30 6753 C 657.845 -1.91003 0.392803 0
M  V30 6754 O 657.115 -1.8673 -0.592336 0
M  V30 6755 H 655.695 -0.428526 0.611861 0
M  V30 6756 H 658.357 -0.46512 1.89269 0
M  V30 6757 H 657.453 -1.86628 2.50153 0
M  V30 6758 N 657.755 -1.42862 -0.66545 0
M  V30 6759 C 659.171 -1.25993 -0.979687 0
M  V30 6760 C 659.371 -0.170831 -2.00775 0
M  V30 6761 O 658.427 0.454827 -2.4837 0
M  V30 6762 C 659.74 -2.62005 -1.47559 0
M  V30 6763 C 661.288 -2.69437 -1.59288 0
M  V30 6764 C 661.763 -4.05838 -2.12272 0
M  V30 6765 N 663.254 -4.0784 -2.19592 0
M  V30 6766 C 663.989 -5.10205 -2.61684 0
M  V30 6767 N 663.485 -6.22949 -3.03161 0
M  V30 6768 N 665.278 -4.9756 -2.61516 0
M  V30 6769 H 657.429 -2.12395 0.0150493 0
M  V30 6770 H 659.692 -0.946355 -0.0558187 0
M  V30 6771 H 659.398 -3.42605 -0.794654 0
M  V30 6772 H 659.272 -2.86566 -2.45275 0
M  V30 6773 H 661.659 -1.89178 -2.26486 0
M  V30 6774 H 661.74 -2.48655 -0.600374 0
M  V30 6775 H 661.384 -4.86559 -1.4568 0
M  V30 6776 H 661.314 -4.23977 -3.12331 0
M  V30 6777 H 663.805 -3.26452 -1.90361 0
M  V30 6778 H 664.118 -6.96899 -3.33993 0
M  V30 6779 H 662.463 -6.2644 -3.00995 0
M  V30 6780 H 665.654 -4.08551 -2.28481 0
M  V30 6781 H 665.827 -5.77468 -2.93999 0
M  V30 6782 N 659.233 0.902656 -1.29189 0
M  V30 6783 C 660.481 1.6496 -1.16758 0
M  V30 6784 C 660.802 1.92952 0.28188 0
M  V30 6785 O 660.072 1.55351 1.19344 0
M  V30 6786 H 658.652 0.611447 -0.429118 0
M  V30 6787 H 661.314 1.0825 -1.62074 0
M  V30 6788 H 660.41 2.60728 -1.71544 0
M  V30 6789 N 660.711 1.11618 1.11262 0
M  V30 6790 C 661.957 0.877377 1.83504 0
M  V30 6791 C 662.312 -0.590606 1.83111 0
M  V30 6792 O 661.605 -1.43057 1.27456 0
M  V30 6793 C 661.799 1.37529 3.2988 0
M  V30 6794 C 661.628 2.89014 3.4453 0
M  V30 6795 C 660.398 3.57157 3.57445 0
M  V30 6796 C 662.596 3.8706 3.38658 0
M  V30 6797 N 660.578 4.96842 3.60585 0
M  V30 6798 C 661.949 5.12825 3.4844 0
M  V30 6799 C 664.004 3.79593 3.22201 0
M  V30 6800 C 662.707 6.32002 3.43462 0
M  V30 6801 C 664.733 4.98282 3.18542 0
M  V30 6802 C 664.095 6.22901 3.28897 0
M  V30 6803 H 660.194 0.37422 0.686646 0
M  V30 6804 H 662.778 1.42087 1.33114 0
M  V30 6805 H 660.949 0.85895 3.78783 0
M  V30 6806 H 662.681 1.07944 3.90039 0
M  V30 6807 H 659.436 3.07628 3.60086 0
M  V30 6808 H 659.86 5.69674 3.65788 0
M  V30 6809 H 664.502 2.84149 3.1308 0
M  V30 6810 H 662.22 7.27721 3.51352 0
M  V30 6811 H 665.806 4.94226 3.06972 0
M  V30 6812 H 664.686 7.13202 3.26056 0
M  V30 6813 N 662.189 -1.289 0.906776 0
M  V30 6814 C 663.417 -1.99401 0.551969 0
M  V30 6815 C 663.832 -1.67816 -0.865048 0
M  V30 6816 O 663.189 -0.927078 -1.57199 0
M  V30 6817 C 663.24 -3.53779 0.743152 0
M  V30 6818 O 662.961 -3.84248 2.1044 0
M  V30 6819 C 664.462 -4.41543 0.39424 0
M  V30 6820 H 661.682 -0.636926 0.211106 0
M  V30 6821 H 664.226 -1.64266 1.21807 0
M  V30 6822 H 662.381 -3.87201 0.124143 0
M  V30 6823 H 662.795 -4.78904 2.13895 0
M  V30 6824 H 664.269 -5.48957 0.578814 0
M  V30 6825 H 664.746 -4.34073 -0.669137 0
M  V30 6826 H 665.352 -4.13605 0.990491 0
M  V30 6827 N 663.667 -0.670007 -1.42649 0
M  V30 6828 C 664.915 -0.18991 -2.01206 0
M  V30 6829 C 665.236 1.20617 -1.53221 0
M  V30 6830 O 664.506 1.80898 -0.751856 0
M  V30 6831 H 663.086 -0.0672189 -0.743969 0
M  V30 6832 H 665.748 -0.865442 -1.74631 0
M  V30 6833 H 664.844 -0.187481 -3.11536 0
M  V30 6834 N 665.145 1.52092 -0.413018 0
M  V30 6835 C 666.391 2.02154 0.161737 0
M  V30 6836 C 666.724 1.29789 1.44459 0
M  V30 6837 O 665.999 0.405378 1.90229 0
M  V30 6838 C 666.282 3.5781 0.405463 0
M  V30 6839 C 666.135 4.40819 -0.894335 0
M  V30 6840 C 667.454 4.23821 1.18591 0
M  V30 6841 H 664.573 0.734769 0.0573077 0
M  V30 6842 H 667.215 1.81948 -0.547247 0
M  V30 6843 H 665.365 3.75158 1.0094 0
M  V30 6844 H 667.037 4.35175 -1.53039 0
M  V30 6845 H 665.28 4.06877 -1.50444 0
M  V30 6846 H 665.951 5.47819 -0.678144 0
M  V30 6847 H 668.427 4.10596 0.674573 0
M  V30 6848 H 667.303 5.32663 1.3252 0
M  V30 6849 H 667.564 3.83038 2.20758 0
M  V30 6850 N 666.623 0.143563 1.56945 0
M  V30 6851 C 667.571 -0.814556 2.17871 0
M  V30 6852 C 668.565 -1.25778 1.13474 0
M  V30 6853 O 669.771 -1.22666 1.31731 0
M  V30 6854 H 666.146 -0.280873 0.697578 0
M  V30 6855 H 668.117 -0.276459 2.97117 0
M  V30 6856 C 666.866 -2.04503 2.81201 0
M  V30 6857 H 666.189 -1.71296 3.61245 0
M  V30 6858 H 667.629 -2.69493 3.27337 0
M  V30 6859 C 666.088 -2.85079 1.79532 0
M  V30 6860 O 666.618 -3.81306 1.26368 0
M  V30 6861 N 664.824 -2.49546 1.48913 0
M  V30 6862 H 664.371 -1.71359 1.92338 0
M  V30 6863 H 664.329 -3.03751 0.811348 0
M  V30 6864 N 668.101 -1.57061 -0.130224 0
M  V30 6865 C 669.349 -1.83893 -0.838313 0
M  V30 6866 C 669.67 -0.727046 -1.80939 0
M  V30 6867 O 668.94 0.249927 -1.94299 0
M  V30 6868 H 667.52 -0.67846 -0.312573 0
M  V30 6869 H 670.182 -1.94529 -0.120224 0
M  V30 6870 H 669.278 -2.79419 -1.39038 0
M  V30 6871 N 669.579 0.400081 -1.52437 0
M  V30 6872 C 670.809 1.16598 -1.70553 0
M  V30 6873 C 671.217 1.8451 -0.418665 0
M  V30 6874 O 670.56 1.73069 0.615855 0
M  V30 6875 C 670.622 2.26517 -2.7916 0
M  V30 6876 C 670.286 1.78666 -4.20628 0
M  V30 6877 C 671.283 1.26946 -5.04163 0
M  V30 6878 C 668.968 1.85225 -4.66902 0
M  V30 6879 C 670.962 0.824187 -6.32049 0
M  V30 6880 C 668.649 1.40309 -5.94774 0
M  V30 6881 C 669.647 0.889922 -6.77178 0
M  V30 6882 O 669.335 0.447281 -8.02655 0
M  V30 6883 H 669.067 0.356023 -0.574651 0
M  V30 6884 H 671.621 0.475598 -1.99818 0
M  V30 6885 H 669.851 2.98946 -2.45292 0
M  V30 6886 H 671.54 2.88237 -2.85787 0
M  V30 6887 H 672.306 1.21244 -4.69601 0
M  V30 6888 H 668.185 2.24111 -4.02859 0
M  V30 6889 H 671.729 0.422958 -6.96317 0
M  V30 6890 H 667.626 1.45693 -6.28843 0
M  V30 6891 H 668.394 0.569768 -8.16514 0
M  V30 6892 N 671.057 1.43213 0.657864 0
M  V30 6893 C 671.989 1.43974 1.78337 0
M  V30 6894 C 673.002 0.336482 1.59285 0
M  V30 6895 O 674.191 0.600631 1.68091 0
M  V30 6896 C 671.291 1.23242 3.15697 0
M  V30 6897 C 670.464 2.46319 3.61449 0
M  V30 6898 C 669.523 2.2088 4.77597 0
M  V30 6899 O 668.549 2.942 4.87273 0
M  V30 6900 N 669.751 1.22251 5.67481 0
M  V30 6901 H 672.516 2.40993 1.78164 0
M  V30 6902 H 670.077 1.3831 0.841549 0
M  V30 6903 H 672.069 1.04113 3.91079 0
M  V30 6904 H 670.639 0.346849 3.1067 0
M  V30 6905 H 669.859 2.80904 2.76563 0
M  V30 6906 H 671.147 3.28239 3.88763 0
M  V30 6907 H 670.545 0.616433 5.62331 0
M  V30 6908 H 669.102 1.09107 6.42603 0
M  V30 6909 N 672.536 -0.895792 1.29666 0
M  V30 6910 C 673.484 -2.02173 1.15017 0
M  V30 6911 C 674.478 -1.69276 0.0647651 0
M  V30 6912 O 675.684 -1.7859 0.224846 0
M  V30 6913 H 672.059 -0.662719 0.355397 0
M  V30 6914 H 674.03 -2.11666 2.10334 0
M  V30 6915 C 672.779 -3.37212 0.847555 0
M  V30 6916 H 672.102 -3.6303 1.67479 0
M  V30 6917 H 673.542 -4.16668 0.785106 0
M  V30 6918 C 672.001 -3.33891 -0.44929 0
M  V30 6919 O 672.531 -3.73673 -1.47415 0
M  V30 6920 N 670.737 -2.86991 -0.456547 0
M  V30 6921 H 670.284 -2.54813 0.377925 0
M  V30 6922 H 670.242 -2.85152 -1.32423 0
M  V30 6923 N 674.014 -1.12206 -1.10668 0
M  V30 6924 C 674.962 -0.782918 -2.19028 0
M  V30 6925 C 675.956 0.229175 -1.67843 0
M  V30 6926 O 677.162 0.0876295 -1.79787 0
M  V30 6927 H 673.537 -0.235339 -0.714227 0
M  V30 6928 H 675.508 -1.70527 -2.44874 0
M  V30 6929 C 674.257 -0.25116 -3.46792 0
M  V30 6930 H 673.58 -1.02123 -3.86537 0
M  V30 6931 H 675.02 -0.0521409 -4.23968 0
M  V30 6932 C 673.479 1.02037 -3.21076 0
M  V30 6933 O 674.009 2.09862 -3.42522 0
M  V30 6934 N 672.215 0.946348 -2.74759 0
M  V30 6935 H 671.762 0.068777 -2.57508 0
M  V30 6936 H 671.72 1.79775 -2.57931 0
M  V30 6937 N 675.492 1.28418 -0.913599 0
M  V30 6938 C 676.741 1.94265 -0.542572 0
M  V30 6939 C 677.054 1.72709 0.918207 0
M  V30 6940 O 678.26 2.32778 1.39738 0
M  V30 6941 C 676.716 3.47956 -0.919507 0
M  V30 6942 C 676.324 3.78291 -2.4 0
M  V30 6943 C 678.068 4.19962 -0.619057 0
M  V30 6944 C 675.975 5.2529 -2.71707 0
M  V30 6945 H 674.905 0.727213 -0.199192 0
M  V30 6946 H 677.556 1.45931 -1.11249 0
M  V30 6947 H 675.938 3.9502 -0.278372 0
M  V30 6948 H 677.112 3.42035 -3.08786 0
M  V30 6949 H 675.427 3.19456 -2.67089 0
M  V30 6950 H 678.024 5.28178 -0.832623 0
M  V30 6951 H 678.367 4.13935 0.443126 0
M  V30 6952 H 678.9 3.78674 -1.21865 0
M  V30 6953 H 675.639 5.36394 -3.76778 0
M  V30 6954 H 675.159 5.62743 -2.07559 0
M  V30 6955 H 676.838 5.93027 -2.58703 0
M  V30 6956 N 676.97 0.677563 1.42291 0
M  V30 6957 C 678.381 0.277912 1.8462 0
M  V30 6958 C 678.732 -1.18048 1.56714 0
M  V30 6959 O 677.857 -1.90404 1.02836 0
M  V30 6960 C 678.452 0.497619 3.35126 0
M  V30 6961 C 677.011 0.152063 3.76093 0
M  V30 6962 C 676.158 0.78872 2.65847 0
M  V30 6963 H 679.109 0.879527 1.32098 0
M  V30 6964 H 679.13 -0.24939 3.79682 0
M  V30 6965 H 678.642 1.55913 3.55405 0
M  V30 6966 H 676.743 -0.905896 3.6142 0
M  V30 6967 H 676.856 0.594514 4.75397 0
M  V30 6968 H 675.22 0.219813 2.5375 0
M  V30 6969 H 676.003 1.85374 2.88949 0
M  V30 6970 N 678.448 -1.51871 0.421078 0
M  V30 6971 C 679.695 -2.01938 -0.15079 0
M  V30 6972 C 680.023 -1.30611 -1.44121 0
M  V30 6973 O 679.278 -0.404631 -1.91471 0
M  V30 6974 C 679.577 -3.54764 -0.433292 0
M  V30 6975 C 679.243 -4.44288 0.76936 0
M  V30 6976 C 677.905 -4.68477 1.09921 0
M  V30 6977 C 680.257 -4.96915 1.57242 0
M  V30 6978 C 677.585 -5.4254 2.2331 0
M  V30 6979 C 679.937 -5.7222 2.69716 0
M  V30 6980 C 678.601 -5.94678 3.03174 0
M  V30 6981 H 677.871 -0.738943 -0.0551781 0
M  V30 6982 H 680.518 -1.82977 0.564945 0
M  V30 6983 H 678.823 -3.71968 -1.23074 0
M  V30 6984 H 680.52 -3.91023 -0.888922 0
M  V30 6985 H 677.11 -4.25646 0.502305 0
M  V30 6986 H 681.294 -4.78125 1.3308 0
M  V30 6987 H 676.55 -5.58146 2.49565 0
M  V30 6988 H 680.724 -6.11992 3.32323 0
M  V30 6989 H 678.351 -6.51848 3.9115 0
M  V30 6990 N 679.926 -0.151884 -1.56866 0
M  V30 6991 C 681.154 0.504813 -2.00647 0
M  V30 6992 C 681.569 1.58098 -1.03201 0
M  V30 6993 O 680.926 1.82476 -0.0297814 0
M  V30 6994 C 680.977 1.10099 -3.44326 0
M  V30 6995 O 680.698 0.0678021 -4.38048 0
M  V30 6996 C 682.199 1.83782 -4.03409 0
M  V30 6997 H 679.419 0.130989 -0.65809 0
M  V30 6998 H 681.963 -0.247903 -2.02992 0
M  V30 6999 H 680.118 1.8043 -3.42817 0
M  V30 7000 H 680.532 0.505237 -5.22061 0
M  V30 7001 H 682.006 2.2078 -5.05925 0
M  V30 7002 H 682.483 2.72557 -3.44397 0
M  V30 7003 H 683.089 1.18138 -4.08563 0
M  V30 7004 N 681.404 1.57128 0.121893 0
M  V30 7005 C 682.652 1.84335 0.828548 0
M  V30 7006 C 682.973 0.736632 1.80551 0
M  V30 7007 O 682.243 -0.23962 1.94429 0
M  V30 7008 H 680.823 0.680108 0.30897 0
M  V30 7009 H 683.485 1.9459 0.109906 0
M  V30 7010 H 682.581 2.80152 1.37554 0
M  V30 7011 N 682.882 -0.391992 1.52647 0
M  V30 7012 C 684.11 -1.1586 1.71418 0
M  V30 7013 C 684.525 -1.8381 0.431216 0
M  V30 7014 O 683.882 -1.7256 -0.594085 0
M  V30 7015 C 683.933 -2.20888 2.86165 0
M  V30 7016 O 683.654 -1.5571 4.09495 0
M  V30 7017 C 685.155 -3.103 3.1659 0
M  V30 7018 H 682.375 -0.347494 0.574011 0
M  V30 7019 H 684.919 -0.458972 1.99283 0
M  V30 7020 H 683.074 -2.86492 2.6077 0
M  V30 7021 H 683.488 -2.25474 4.73563 0
M  V30 7022 H 684.962 -3.8003 4.00351 0
M  V30 7023 H 685.439 -3.73639 2.30848 0
M  V30 7024 H 686.045 -2.50345 3.43813 0
M  V30 7025 N 684.36 -1.4356 -0.65026 0
M  V30 7026 C 685.323 -1.48615 -1.74489 0
M  V30 7027 C 686.323 -0.370483 -1.56474 0
M  V30 7028 O 687.513 -0.632351 -1.62317 0
M  V30 7029 C 684.645 -1.34161 -3.13391 0
M  V30 7030 H 685.838 -2.46103 -1.71387 0
M  V30 7031 H 683.391 -1.30369 -0.862186 0
M  V30 7032 H 684.126 -0.376918 -3.22102 0
M  V30 7033 H 683.911 -2.1504 -3.27872 0
M  V30 7034 H 685.401 -1.40637 -3.93206 0
M  V30 7035 N 685.838 0.888903 -1.30139 0
M  V30 7036 C 687.066 1.67358 -1.21651 0
M  V30 7037 C 687.481 1.87499 0.221246 0
M  V30 7038 O 686.838 1.41969 1.14677 0
M  V30 7039 C 686.889 3.05213 -1.93719 0
M  V30 7040 O 686.61 2.85984 -3.31881 0
M  V30 7041 C 688.111 3.9964 -1.9184 0
M  V30 7042 H 685.331 0.522365 -0.42116 0
M  V30 7043 H 687.875 1.11086 -1.71698 0
M  V30 7044 H 686.03 3.5823 -1.4748 0
M  V30 7045 H 686.444 3.73411 -3.68327 0
M  V30 7046 H 687.918 4.93749 -2.46811 0
M  V30 7047 H 688.395 4.29955 -0.896409 0
M  V30 7048 H 689.001 3.52558 -2.37872 0
M  V30 7049 N 687.317 1.12792 1.10072 0
M  V30 7050 C 688.565 0.883796 1.81751 0
M  V30 7051 C 688.886 -0.591891 1.858 0
M  V30 7052 O 688.156 -1.43017 1.33876 0
M  V30 7053 H 686.736 0.323978 0.673088 0
M  V30 7054 H 689.398 1.42314 1.33164 0
M  V30 7055 H 688.494 1.26863 2.85153 0
M  V30 7056 N 688.795 -1.27931 0.920396 0
M  V30 7057 C 690.206 -1.76707 0.602616 0
M  V30 7058 C 690.557 -1.75249 -0.882159 0
M  V30 7059 O 689.682 -1.35135 -1.69019 0
M  V30 7060 C 690.277 -3.20884 1.08714 0
M  V30 7061 C 688.836 -3.67356 0.820157 0
M  V30 7062 C 687.983 -2.47525 1.25006 0
M  V30 7063 H 690.934 -1.14301 1.10095 0
M  V30 7064 H 690.955 -3.78045 0.431535 0
M  V30 7065 H 690.467 -3.21913 2.1678 0
M  V30 7066 H 688.568 -3.7178 -0.247012 0
M  V30 7067 H 688.681 -4.57181 1.43257 0
M  V30 7068 H 687.045 -2.45765 0.668698 0
M  V30 7069 H 687.828 -2.51269 2.3392 0
M  V30 7070 N 690.273 -0.685099 -1.4193 0
M  V30 7071 C 691.519 -0.211971 -2.01689 0
M  V30 7072 C 691.852 1.18189 -1.54094 0
M  V30 7073 O 691.127 1.79559 -0.747572 0
M  V30 7074 C 691.41 -0.258019 -3.59174 0
M  V30 7075 C 691.263 -1.68807 -4.16922 0
M  V30 7076 C 692.582 0.388044 -4.38386 0
M  V30 7077 H 689.701 -0.0784987 -0.732808 0
M  V30 7078 H 692.343 -0.871837 -1.68816 0
M  V30 7079 H 690.493 0.303832 -3.8731 0
M  V30 7080 H 692.165 -2.30296 -3.99702 0
M  V30 7081 H 690.408 -2.22553 -3.72361 0
M  V30 7082 H 691.079 -1.6719 -5.26072 0
M  V30 7083 H 693.555 -0.0903432 -4.16002 0
M  V30 7084 H 692.431 0.325232 -5.47936 0
M  V30 7085 H 692.692 1.4672 -4.17044 0
M  V30 7086 N 691.751 1.51645 -0.429126 0
M  V30 7087 C 692.698 2.27542 0.386446 0
M  V30 7088 C 693.668 1.30786 1.02393 0
M  V30 7089 O 694.853 1.59678 1.0444 0
M  V30 7090 C 691.993 3.11457 1.48623 0
M  V30 7091 C 691.106 4.23196 0.867691 0
M  V30 7092 C 690.241 4.94435 1.94183 0
M  V30 7093 C 689.28 5.98108 1.30129 0
M  V30 7094 N 688.417 6.62786 2.31644 0
M  V30 7095 H 693.257 2.968 -0.267155 0
M  V30 7096 H 690.794 1.46397 -0.143591 0
M  V30 7097 H 692.752 3.58429 2.13506 0
M  V30 7098 H 691.382 2.44329 2.10957 0
M  V30 7099 H 690.434 3.80248 0.107373 0
M  V30 7100 H 691.746 4.97499 0.35997 0
M  V30 7101 H 690.9 5.44914 2.66747 0
M  V30 7102 H 689.639 4.19744 2.48326 0
M  V30 7103 H 688.644 5.4693 0.561082 0
M  V30 7104 H 689.869 6.74751 0.767303 0
M  V30 7105 H 687.815 5.90913 2.84883 0
M  V30 7106 H 687.732 7.32828 1.85741 0
M  V30 7107 H 689 7.17897 3.03717 0
M  V30 7108 N 693.229 0.160201 1.56784 0
M  V30 7109 C 694.477 -0.486625 1.96154 0
M  V30 7110 C 694.798 -1.64525 1.04673 0
M  V30 7111 O 694.068 -1.95586 0.110864 0
M  V30 7112 H 692.648 -0.182764 0.724297 0
M  V30 7113 H 695.31 0.238787 1.93432 0
M  V30 7114 H 694.406 -0.854025 3.00188 0
M  V30 7115 N 694.707 -1.5719 -0.113559 0
M  V30 7116 C 695.935 -1.89328 -0.834422 0
M  V30 7117 C 696.35 -0.752018 -1.73177 0
M  V30 7118 O 695.707 0.276912 -1.80387 0
M  V30 7119 C 695.758 -3.20962 -1.66329 0
M  V30 7120 O 695.479 -4.30695 -0.802069 0
M  V30 7121 C 696.98 -3.6684 -2.48884 0
M  V30 7122 H 694.2 -0.626769 -0.239587 0
M  V30 7123 H 696.744 -2.04273 -0.0963195 0
M  V30 7124 H 694.899 -3.0767 -2.35409 0
M  V30 7125 H 695.313 -5.06175 -1.37431 0
M  V30 7126 H 696.787 -4.61692 -3.02563 0
M  V30 7127 H 697.264 -2.93765 -3.26495 0
M  V30 7128 H 697.87 -3.82938 -1.85036 0
M  V30 7129 N 696.185 0.383891 -1.52853 0
M  V30 7130 C 697.431 1.12667 -1.69345 0
M  V30 7131 C 697.786 1.87519 -0.430635 0
M  V30 7132 O 697.079 1.82742 0.575846 0
M  V30 7133 C 697.273 2.12881 -2.87082 0
M  V30 7134 C 697.102 1.47873 -4.24692 0
M  V30 7135 C 695.872 1.24064 -4.89833 0
M  V30 7136 C 698.07 0.926118 -5.05893 0
M  V30 7137 N 696.052 0.552138 -6.11412 0
M  V30 7138 C 697.423 0.365966 -6.18919 0
M  V30 7139 C 699.478 0.823023 -4.91051 0
M  V30 7140 C 698.181 -0.287204 -7.18726 0
M  V30 7141 C 700.207 0.183666 -5.91115 0
M  V30 7142 C 699.569 -0.365693 -7.0345 0
M  V30 7143 H 695.668 0.398064 -0.673104 0
M  V30 7144 H 698.252 0.415504 -1.90215 0
M  V30 7145 H 696.423 2.81329 -2.67784 0
M  V30 7146 H 698.155 2.79703 -2.92486 0
M  V30 7147 H 694.91 1.51701 -4.48647 0
M  V30 7148 H 695.334 0.223783 -6.7663 0
M  V30 7149 H 699.976 1.23354 -4.04405 0
M  V30 7150 H 697.694 -0.709719 -8.04977 0
M  V30 7151 H 701.28 0.105074 -5.81705 0
M  V30 7152 H 700.16 -0.85261 -7.79551 0
M  V30 7153 N 697.663 1.43903 0.642637 0
M  V30 7154 C 698.61 1.49881 1.75512 0
M  V30 7155 C 699.58 0.347538 1.62423 0
M  V30 7156 O 700.765 0.556177 1.82514 0
M  V30 7157 C 697.905 1.43797 3.13714 0
M  V30 7158 C 697.018 2.6921 3.37861 0
M  V30 7159 C 696.153 2.5504 4.6597 0
M  V30 7160 C 695.192 3.75671 4.83257 0
M  V30 7161 N 694.329 3.60247 6.02633 0
M  V30 7162 H 699.169 2.44935 1.69737 0
M  V30 7163 H 696.706 1.21572 0.828165 0
M  V30 7164 H 698.664 1.38262 3.93624 0
M  V30 7165 H 697.294 0.523173 3.18532 0
M  V30 7166 H 696.346 2.8498 2.51973 0
M  V30 7167 H 697.658 3.58786 3.46517 0
M  V30 7168 H 696.812 2.47273 5.54023 0
M  V30 7169 H 695.551 1.63006 4.59653 0
M  V30 7170 H 694.556 3.83836 3.93637 0
M  V30 7171 H 695.781 4.68728 4.91397 0
M  V30 7172 H 693.727 2.70955 5.97427 0
M  V30 7173 H 693.644 4.43431 6.12295 0
M  V30 7174 H 694.912 3.56351 6.93278 0
M  V30 7175 N 699.141 -0.881989 1.30609 0
M  V30 7176 C 700.089 -2.00942 1.17155 0
M  V30 7177 C 701.083 -1.69198 0.0827154 0
M  V30 7178 O 702.289 -1.78342 0.243775 0
M  V30 7179 H 698.664 -0.658913 0.362406 0
M  V30 7180 H 700.635 -2.09423 2.12567 0
M  V30 7181 C 699.384 -3.36294 0.883273 0
M  V30 7182 H 698.707 -3.61233 1.7132 0
M  V30 7183 H 700.147 -4.15812 0.829255 0
M  V30 7184 C 698.606 -3.34348 -0.413851 0
M  V30 7185 O 699.136 -3.75216 -1.43444 0
M  V30 7186 N 697.342 -2.87459 -0.426082 0
M  V30 7187 H 696.889 -2.54397 0.40493 0
M  V30 7188 H 696.847 -2.8654 -1.29391 0
M  V30 7189 N 700.619 -1.13374 -1.09472 0
M  V30 7190 C 701.867 -0.893422 -1.8128 0
M  V30 7191 C 702.188 0.582029 -1.86111 0
M  V30 7192 O 701.458 1.42305 -1.34633 0
M  V30 7193 H 700.038 -0.327543 -0.67136 0
M  V30 7194 H 702.7 -1.43018 -1.32408 0
M  V30 7195 H 701.796 -1.28374 -2.84476 0
M  V30 7196 N 702.098 1.27442 -0.927168 0
M  V30 7197 C 703.347 1.93679 -0.563146 0
M  V30 7198 C 703.66 1.73673 0.899837 0
M  V30 7199 O 704.866 2.34247 1.37262 0
M  V30 7200 C 703.322 3.46961 -0.95636 0
M  V30 7201 C 702.93 3.75724 -2.43999 0
M  V30 7202 C 704.674 4.19282 -0.663565 0
M  V30 7203 C 702.581 5.22378 -2.77263 0
M  V30 7204 H 701.511 0.725059 -0.206894 0
M  V30 7205 H 704.162 1.44743 -1.12791 0
M  V30 7206 H 702.544 3.94703 -0.320254 0
M  V30 7207 H 703.718 3.38741 -3.12396 0
M  V30 7208 H 702.033 3.16605 -2.70463 0
M  V30 7209 H 704.63 5.27265 -0.888596 0
M  V30 7210 H 704.973 4.14382 0.399198 0
M  V30 7211 H 705.506 3.7736 -1.25875 0
M  V30 7212 H 702.245 5.32367 -3.82446 0
M  V30 7213 H 701.765 5.6051 -2.13516 0
M  V30 7214 H 703.444 5.9025 -2.64979 0
M  V30 7215 N 703.576 0.692616 1.41565 0
M  V30 7216 C 704.822 0.222664 2.01574 0
M  V30 7217 C 705.155 -1.1737 1.54719 0
M  V30 7218 O 704.43 -1.79161 0.757084 0
M  V30 7219 C 704.713 0.277064 3.59033 0
M  V30 7220 C 704.566 1.71016 4.16021 0
M  V30 7221 C 705.885 -0.36479 4.38586 0
M  V30 7222 H 703.004 0.0823839 0.732381 0
M  V30 7223 H 705.646 0.880778 1.68352 0
M  V30 7224 H 703.796 -0.283288 3.87466 0
M  V30 7225 H 705.468 2.32413 3.98475 0
M  V30 7226 H 703.711 2.24525 3.71175 0
M  V30 7227 H 704.382 1.69978 5.25178 0
M  V30 7228 H 706.858 0.112404 4.15948 0
M  V30 7229 H 705.734 -0.296169 5.481 0
M  V30 7230 H 705.995 -1.44506 4.17816 0
M  V30 7231 N 705.054 -1.51416 0.437162 0
M  V30 7232 C 706.331 -1.94682 -0.189292 0
M  V30 7233 C 706.711 -1.37581 -1.60108 0
M  V30 7234 O 706.059 -0.562815 -2.2146 0
M  V30 7235 C 706.269 -3.48599 -0.167201 0
M  V30 7236 C 707.617 -4.2296 -0.372856 0
M  V30 7237 O 708.641 -3.55354 -0.245323 0
M  V30 7238 O 707.5 -5.42895 -0.626693 0
M  V30 7239 H 704.594 -0.816708 -0.130063 0
M  V30 7240 H 707.14 -1.62316 0.495128 0
M  V30 7241 H 705.912 -3.82616 0.81981 0
M  V30 7242 H 705.535 -3.87406 -0.894537 0
M  V30 7243 N 706.532 -0.168513 -1.56696 0
M  V30 7244 C 707.762 0.482802 -2.0088 0
M  V30 7245 C 708.17 1.57537 -1.0478 0
M  V30 7246 O 707.513 1.83656 -0.0402746 0
M  V30 7247 C 707.575 1.1236 -3.4149 0
M  V30 7248 C 707.239 0.173027 -4.56672 0
M  V30 7249 C 708.236 -0.607565 -5.16338 0
M  V30 7250 C 705.921 0.0696691 -5.02252 0
M  V30 7251 C 707.915 -1.47874 -6.2001 0
M  V30 7252 C 705.602 -0.805096 -6.05773 0
M  V30 7253 C 706.6 -1.57789 -6.64524 0
M  V30 7254 O 706.288 -2.43804 -7.66038 0
M  V30 7255 H 706.02 0.128246 -0.663723 0
M  V30 7256 H 708.574 -0.266532 -2.03663 0
M  V30 7257 H 706.804 1.921 -3.35611 0
M  V30 7258 H 708.493 1.67683 -3.69645 0
M  V30 7259 H 709.259 -0.53787 -4.82008 0
M  V30 7260 H 705.138 0.660957 -4.56237 0
M  V30 7261 H 708.682 -2.0824 -6.65794 0
M  V30 7262 H 704.579 -0.876005 -6.39528 0
M  V30 7263 H 705.347 -2.37289 -7.83349 0
M  V30 7264 N 708.01 1.57248 0.105221 0
M  V30 7265 C 709.426 1.52853 0.459153 0
M  V30 7266 C 709.626 0.883674 1.8109 0
M  V30 7267 O 708.682 0.471864 2.48052 0
M  V30 7268 C 709.995 2.97596 0.43096 0
M  V30 7269 C 711.543 3.08758 0.513536 0
M  V30 7270 C 712.018 4.55089 0.515593 0
M  V30 7271 N 713.509 4.59597 0.576639 0
M  V30 7272 C 714.244 5.70253 0.599904 0
M  V30 7273 N 713.74 6.90368 0.579985 0
M  V30 7274 N 715.533 5.58399 0.643953 0
M  V30 7275 H 707.684 1.97547 -0.780306 0
M  V30 7276 H 709.947 0.902758 -0.289363 0
M  V30 7277 H 709.653 3.48201 -0.494903 0
M  V30 7278 H 709.527 3.55756 1.2537 0
M  V30 7279 H 711.914 2.58148 1.42982 0
M  V30 7280 H 711.995 2.53568 -0.337148 0
M  V30 7281 H 711.639 5.06348 -0.396701 0
M  V30 7282 H 711.569 5.08105 1.38335 0
M  V30 7283 H 714.06 3.73144 0.597639 0
M  V30 7284 H 714.373 7.70462 0.600741 0
M  V30 7285 H 712.718 6.92843 0.547191 0
M  V30 7286 H 715.909 4.63467 0.656975 0
M  V30 7287 H 716.082 6.44644 0.658616 0
M  V30 7288 N 709.488 -0.375779 1.53054 0
M  V30 7289 C 710.42 -1.47963 1.75042 0
M  V30 7290 C 711.433 -1.50073 0.631031 0
M  V30 7291 O 712.622 -1.53736 0.907052 0
M  V30 7292 C 709.722 -2.86767 1.80604 0
M  V30 7293 C 708.895 -3.08471 3.10104 0
M  V30 7294 C 707.954 -4.27332 3.07041 0
M  V30 7295 O 706.98 -4.22998 3.80869 0
M  V30 7296 N 708.182 -5.34214 2.27147 0
M  V30 7297 H 710.947 -1.29484 2.70285 0
M  V30 7298 H 708.508 -0.565416 1.51706 0
M  V30 7299 H 710.5 -3.64404 1.76045 0
M  V30 7300 H 709.07 -2.98542 0.926897 0
M  V30 7301 H 708.29 -2.18583 3.28048 0
M  V30 7302 H 709.578 -3.19834 3.95706 0
M  V30 7303 H 708.976 -5.40594 1.66656 0
M  V30 7304 H 707.533 -6.10467 2.28415 0
M  V30 7305 N 710.966 -1.44241 -0.634997 0
M  V30 7306 C 712.215 -1.46102 -1.39058 0
M  V30 7307 C 712.528 -0.0959909 -1.95364 0
M  V30 7308 O 713.734 0.00788751 -2.71499 0
M  V30 7309 C 712.19 -2.57195 -2.51751 0
M  V30 7310 C 711.798 -3.99888 -2.01974 0
M  V30 7311 C 713.542 -2.68272 -3.28984 0
M  V30 7312 C 711.449 -5.02412 -3.11987 0
M  V30 7313 H 710.379 -0.543556 -0.522554 0
M  V30 7314 H 713.03 -1.70294 -0.683538 0
M  V30 7315 H 711.412 -2.26237 -3.25012 0
M  V30 7316 H 712.586 -4.40396 -1.35604 0
M  V30 7317 H 710.901 -3.93019 -1.37568 0
M  V30 7318 H 713.498 -3.42042 -4.10988 0
M  V30 7319 H 713.841 -1.73957 -3.78212 0
M  V30 7320 H 714.374 -2.98622 -2.62812 0
M  V30 7321 H 711.113 -5.98342 -2.67707 0
M  V30 7322 H 710.633 -4.66501 -3.77011 0
M  V30 7323 H 712.312 -5.25939 -3.76825 0
M  V30 7324 N 712.444 0.87505 -1.31075 0
M  V30 7325 C 713.407 1.96333 -1.18263 0
M  V30 7326 C 714.407 1.60416 -0.111106 0
M  V30 7327 O 715.597 1.7044 -0.359987 0
M  V30 7328 C 712.729 3.31036 -0.81414 0
M  V30 7329 H 713.922 2.09125 -2.14958 0
M  V30 7330 H 711.475 1.06271 -1.14614 0
M  V30 7331 H 712.21 3.23944 0.151875 0
M  V30 7332 H 711.995 3.58476 -1.58862 0
M  V30 7333 H 713.485 4.10842 -0.748249 0
M  V30 7334 N 713.922 1.13953 1.08869 0
M  V30 7335 C 715.17 0.903023 1.80803 0
M  V30 7336 C 715.491 -0.572151 1.86417 0
M  V30 7337 O 714.761 -1.41589 1.35386 0
M  V30 7338 H 713.341 0.331099 0.669614 0
M  V30 7339 H 716.003 1.43719 1.31647 0
M  V30 7340 H 715.099 1.29881 2.83791 0
M  V30 7341 N 715.4 -1.26948 0.933913 0
M  V30 7342 C 716.332 -2.25768 0.395137 0
M  V30 7343 C 717.345 -1.55637 -0.477585 0
M  V30 7344 O 718.534 -1.76142 -0.289204 0
M  V30 7345 C 715.634 -3.35874 -0.451882 0
M  V30 7346 C 714.807 -4.3554 0.40299 0
M  V30 7347 C 713.866 -5.24809 -0.3824 0
M  V30 7348 O 712.892 -5.68805 0.212057 0
M  V30 7349 N 714.094 -5.55636 -1.68072 0
M  V30 7350 H 716.859 -2.72634 1.24463 0
M  V30 7351 H 714.42 -1.40639 0.802008 0
M  V30 7352 H 716.412 -3.92542 -0.984516 0
M  V30 7353 H 714.982 -2.8856 -1.20215 0
M  V30 7354 H 714.202 -3.78047 1.11688 0
M  V30 7355 H 715.49 -4.99131 0.987201 0
M  V30 7356 H 714.888 -5.2176 -2.18592 0
M  V30 7357 H 713.445 -6.14978 -2.15975 0
M  V30 7358 N 716.879 -0.700114 -1.41195 0
M  V30 7359 C 718.126 -0.233006 -2.01155 0
M  V30 7360 C 718.454 1.16883 -1.55462 0
M  V30 7361 O 717.709 1.80395 -0.758695 0
M  V30 7362 C 718.008 -0.243986 -3.56566 0
M  V30 7363 C 717.674 -1.59397 -4.21786 0
M  V30 7364 C 716.336 -1.96355 -4.39316 0
M  V30 7365 C 718.688 -2.48192 -4.58312 0
M  V30 7366 C 716.016 -3.21683 -4.9065 0
M  V30 7367 C 718.368 -3.72857 -5.11039 0
M  V30 7368 C 717.032 -4.09951 -5.26779 0
M  V30 7369 H 716.302 -0.085263 -0.736078 0
M  V30 7370 H 718.949 -0.9001 -1.69028 0
M  V30 7371 H 717.254 0.506663 -3.8851 0
M  V30 7372 H 718.951 0.135031 -4.00773 0
M  V30 7373 H 715.541 -1.29654 -4.08519 0
M  V30 7374 H 719.725 -2.20918 -4.4442 0
M  V30 7375 H 714.981 -3.50412 -5.01021 0
M  V30 7376 H 719.155 -4.41844 -5.38282 0
M  V30 7377 H 716.782 -5.07136 -5.66319 0
M  V30 7378 N 718.357 1.51182 -0.445186 0
M  V30 7379 C 719.29 2.24528 0.4077 0
M  V30 7380 C 720.268 1.26778 1.01814 0
M  V30 7381 O 721.452 1.55934 1.05909 0
M  V30 7382 C 718.579 3.00171 1.56892 0
M  V30 7383 C 717.625 4.12641 1.0784 0
M  V30 7384 S 718.458 5.35498 0.014049 0
M  V30 7385 C 719.614 6.14681 1.17975 0
M  V30 7386 H 719.847 2.96522 -0.214987 0
M  V30 7387 H 717.38 1.52681 -0.229781 0
M  V30 7388 H 719.338 3.44349 2.23459 0
M  V30 7389 H 717.999 2.27752 2.16304 0
M  V30 7390 H 717.192 4.64875 1.94698 0
M  V30 7391 H 716.794 3.70765 0.490852 0
M  V30 7392 H 719.086 6.44244 2.09658 0
M  V30 7393 H 720.029 7.04659 0.697222 0
M  V30 7394 H 720.437 5.46299 1.42187 0
M  V30 7395 N 719.835 0.176821 1.56605 0
M  V30 7396 C 721.06 -0.47599 2.01864 0
M  V30 7397 C 721.485 -1.55645 1.05623 0
M  V30 7398 O 720.843 -1.81263 0.0366729 0
M  V30 7399 C 720.891 -1.02619 3.4569 0
M  V30 7400 O 719.995 -2.13996 3.52533 0
M  V30 7401 H 719.336 -0.113363 0.654251 0
M  V30 7402 H 721.866 0.28233 2.02643 0
M  V30 7403 H 721.876 -1.34742 3.85109 0
M  V30 7404 H 720.551 -0.235138 4.15235 0
M  V30 7405 H 719.128 -1.82876 3.24978 0
M  V30 7406 N 721.313 -1.57302 -0.09688 0
M  V30 7407 C 722.561 -1.8563 -0.799117 0
M  V30 7408 C 722.882 -0.765263 -1.79356 0
M  V30 7409 O 722.152 0.208657 -1.94786 0
M  V30 7410 H 720.732 -0.684937 -0.298111 0
M  V30 7411 H 723.394 -1.9474 -0.0789341 0
M  V30 7412 H 722.49 -2.82305 -1.3308 0
M  V30 7413 N 722.791 0.367657 -1.53252 0
M  V30 7414 C 723.701 1.47415 -1.82499 0
M  V30 7415 C 724.717 1.58711 -0.713222 0
M  V30 7416 O 725.893 1.74644 -1.00306 0
M  V30 7417 C 722.958 2.82706 -2.00694 0
M  V30 7418 C 722.019 2.80955 -3.24596 0
M  V30 7419 C 721.252 4.09793 -3.41914 0
M  V30 7420 O 721.475 5.05852 -2.63572 0
M  V30 7421 O 720.409 4.15731 -4.3526 0
M  V30 7422 H 724.235 1.25624 -2.765 0
M  V30 7423 H 721.82 0.557559 -1.38606 0
M  V30 7424 H 723.702 3.62873 -2.14246 0
M  V30 7425 H 722.377 3.04479 -1.09883 0
M  V30 7426 H 721.284 1.99494 -3.16469 0
M  V30 7427 H 722.617 2.64136 -4.15323 0
M  V30 7428 N 724.269 1.44576 0.627338 0
M  V30 7429 C 725.515 1.4877 1.38705 0
M  V30 7430 C 725.87 0.119976 1.92026 0
M  V30 7431 O 725.163 -0.865341 1.70946 0
M  V30 7432 C 725.357 2.48644 2.56731 0
M  V30 7433 C 725.186 3.94994 2.14965 0
M  V30 7434 C 723.956 4.63139 2.02065 0
M  V30 7435 C 726.154 4.841 1.73643 0
M  V30 7436 N 724.136 5.94296 1.53902 0
M  V30 7437 C 725.507 6.0473 1.36753 0
M  V30 7438 C 727.562 4.71131 1.61058 0
M  V30 7439 C 726.265 7.13831 0.885353 0
M  V30 7440 C 728.291 5.8026 1.14244 0
M  V30 7441 C 727.653 7.00034 0.783067 0
M  V30 7442 H 723.752 0.599415 0.50222 0
M  V30 7443 H 726.336 1.80926 0.719285 0
M  V30 7444 H 724.507 2.18472 3.2113 0
M  V30 7445 H 726.239 2.4311 3.23542 0
M  V30 7446 H 722.994 4.18007 2.22637 0
M  V30 7447 H 723.418 6.63985 1.32108 0
M  V30 7448 H 728.06 3.78964 1.87473 0
M  V30 7449 H 725.778 8.05804 0.608716 0
M  V30 7450 H 729.364 5.72254 1.0496 0
M  V30 7451 H 728.244 7.8304 0.426381 0
M  V30 7452 N 725.747 -0.868086 1.31537 0
M  V30 7453 C 726.679 -1.98165 1.15166 0
M  V30 7454 C 727.692 -1.6255 0.0902335 0
M  V30 7455 O 728.881 -1.75272 0.33791 0
M  V30 7456 C 725.981 -3.30772 0.737776 0
M  V30 7457 C 725.154 -3.94716 1.88462 0
M  V30 7458 C 724.213 -5.05641 1.45648 0
M  V30 7459 O 723.239 -5.2636 2.16642 0
M  V30 7460 N 724.441 -5.79474 0.34493 0
M  V30 7461 H 727.206 -2.12754 2.11083 0
M  V30 7462 H 724.767 -1.04217 1.23897 0
M  V30 7463 H 726.759 -4.02366 0.434032 0
M  V30 7464 H 725.329 -3.1233 -0.129834 0
M  V30 7465 H 724.549 -3.16079 2.35558 0
M  V30 7466 H 725.837 -4.34175 2.65273 0
M  V30 7467 H 725.235 -5.65164 -0.246259 0
M  V30 7468 H 723.792 -6.51722 0.100728 0
M  V30 7469 N 727.225 -1.14528 -1.08264 0
M  V30 7470 C 728.455 -0.936604 -1.8415 0
M  V30 7471 C 728.863 0.518298 -1.81962 0
M  V30 7472 O 728.206 1.37096 -1.22272 0
M  V30 7473 C 728.268 -1.36182 -3.32708 0
M  V30 7474 C 727.932 -2.83257 -3.58629 0
M  V30 7475 C 728.929 -3.81366 -3.5335 0
M  V30 7476 C 726.614 -3.20704 -3.86593 0
M  V30 7477 C 728.608 -5.14929 -3.75668 0
M  V30 7478 C 726.295 -4.54443 -4.08564 0
M  V30 7479 C 727.293 -5.51365 -4.03095 0
M  V30 7480 O 726.981 -6.8269 -4.24488 0
M  V30 7481 H 726.713 -0.333254 -0.588148 0
M  V30 7482 H 729.267 -1.5247 -1.3763 0
M  V30 7483 H 727.497 -0.717063 -3.79994 0
M  V30 7484 H 729.186 -1.12372 -3.90035 0
M  V30 7485 H 729.952 -3.53781 -3.31759 0
M  V30 7486 H 725.831 -2.45857 -3.89969 0
M  V30 7487 H 729.375 -5.90568 -3.71315 0
M  V30 7488 H 725.272 -4.81747 -4.29639 0
M  V30 7489 H 726.04 -6.8897 -4.41886 0
M  V30 7490 N 728.703 1.26451 -0.940633 0
M  V30 7491 C 729.931 1.97868 -0.604642 0
M  V30 7492 C 730.346 1.70051 0.820251 0
M  V30 7493 O 729.703 0.96843 1.54686 0
M  V30 7494 C 729.754 3.51684 -0.836689 0
M  V30 7495 O 729.475 3.78533 -2.20554 0
M  V30 7496 C 730.976 4.40343 -0.511169 0
M  V30 7497 H 728.196 0.631105 -0.227919 0
M  V30 7498 H 730.74 1.60979 -1.26119 0
M  V30 7499 H 728.895 3.86736 -0.226759 0
M  V30 7500 H 729.309 4.73065 -2.26517 0
M  V30 7501 H 730.783 5.47229 -0.724157 0
M  V30 7502 H 731.26 4.35694 0.553815 0
M  V30 7503 H 731.866 4.10834 -1.0998 0
M  V30 7504 N 730.181 0.707592 1.40822 0
M  V30 7505 C 731.411 0.252706 2.05049 0
M  V30 7506 C 731.819 -1.10758 1.53393 0
M  V30 7507 O 731.162 -1.70567 0.682097 0
M  V30 7508 C 731.224 0.146001 3.59203 0
M  V30 7509 C 730.888 1.44027 4.33711 0
M  V30 7510 C 731.885 2.38058 4.62195 0
M  V30 7511 C 729.57 1.69698 4.72766 0
M  V30 7512 C 731.564 3.56013 5.28709 0
M  V30 7513 C 729.251 2.87936 5.39014 0
M  V30 7514 C 730.249 3.80915 5.66915 0
M  V30 7515 O 729.937 4.9708 6.31796 0
M  V30 7516 H 729.669 0.112784 0.666525 0
M  V30 7517 H 732.223 0.96417 1.81364 0
M  V30 7518 H 730.453 -0.621338 3.81676 0
M  V30 7519 H 732.142 -0.273275 4.04979 0
M  V30 7520 H 732.908 2.19487 4.32493 0
M  V30 7521 H 728.787 0.981835 4.50423 0
M  V30 7522 H 732.331 4.28604 5.50404 0
M  V30 7523 H 728.228 3.06419 5.68135 0
M  V30 7524 H 728.996 4.97053 6.50293 0
M  V30 7525 N 731.66 -1.50943 0.453197 0
M  V30 7526 C 732.937 -1.94872 -0.168633 0
M  V30 7527 C 733.317 -1.39272 -1.5864 0
M  V30 7528 O 732.665 -0.586272 -2.20851 0
M  V30 7529 C 732.875 -3.48757 -0.130217 0
M  V30 7530 C 734.223 -4.23331 -0.327975 0
M  V30 7531 O 735.247 -3.55594 -0.207619 0
M  V30 7532 O 734.106 -5.43529 -0.569077 0
M  V30 7533 H 731.2 -0.818042 -0.121394 0
M  V30 7534 H 733.746 -1.61782 0.512316 0
M  V30 7535 H 732.518 -3.81725 0.860346 0
M  V30 7536 H 732.141 -3.88333 -0.853397 0
M  V30 7537 N 733.138 -0.185124 -1.56509 0
M  V30 7538 C 734.101 0.72591 -2.17401 0
M  V30 7539 C 735.101 1.14819 -1.12575 0
M  V30 7540 O 736.291 1.0629 -1.38015 0
M  V30 7541 C 733.423 1.98979 -2.76803 0
M  V30 7542 H 734.616 0.195588 -2.99262 0
M  V30 7543 H 732.169 0.0644772 -1.56167 0
M  V30 7544 H 732.904 2.56287 -1.98714 0
M  V30 7545 H 732.689 1.69583 -3.53531 0
M  V30 7546 H 734.179 2.63966 -3.23592 0
M  V30 7547 N 734.616 1.57351 0.0885366 0
M  V30 7548 C 735.844 1.90631 0.804196 0
M  V30 7549 C 736.259 0.779474 1.71958 0
M  V30 7550 O 735.616 -0.248179 1.80805 0
M  V30 7551 C 735.667 3.23568 1.61202 0
M  V30 7552 O 735.388 4.31917 0.733447 0
M  V30 7553 C 736.889 3.70753 2.43016 0
M  V30 7554 H 734.109 0.630501 0.229585 0
M  V30 7555 H 736.653 2.044 0.0638092 0
M  V30 7556 H 734.808 3.11377 2.30485 0
M  V30 7557 H 735.222 5.08297 1.29361 0
M  V30 7558 H 736.696 4.66447 2.9518 0
M  V30 7559 H 737.173 2.98922 3.2178 0
M  V30 7560 H 737.779 3.85834 1.7892 0
M  V30 7561 N 736.094 -0.359525 1.53444 0
M  V30 7562 C 737.057 -1.42357 1.7963 0
M  V30 7563 C 738.057 -1.46319 0.666884 0
M  V30 7564 O 739.247 -1.46974 0.935113 0
M  V30 7565 C 736.379 -2.81425 1.92387 0
M  V30 7566 H 737.572 -1.20409 2.74666 0
M  V30 7567 H 735.125 -0.593007 1.44614 0
M  V30 7568 H 735.86 -3.08679 0.994384 0
M  V30 7569 H 735.645 -2.79947 2.74539 0
M  V30 7570 H 737.135 -3.5847 2.14218 0
M  V30 7571 N 737.572 -1.44907 -0.619662 0
M  V30 7572 C 738.482 -1.55168 -1.75955 0
M  V30 7573 C 739.498 -0.43672 -1.6843 0
M  V30 7574 O 740.674 -0.695704 -1.89002 0
M  V30 7575 C 737.739 -1.50397 -3.12381 0
M  V30 7576 C 736.8 -2.72835 -3.31451 0
M  V30 7577 C 736.033 -2.68283 -4.61368 0
M  V30 7578 O 736.256 -1.74929 -5.42914 0
M  V30 7579 O 735.19 -3.59308 -4.82889 0
M  V30 7580 H 739.016 -2.51493 -1.7025 0
M  V30 7581 H 736.601 -1.27282 -0.782289 0
M  V30 7582 H 738.483 -1.50301 -3.93685 0
M  V30 7583 H 737.158 -0.572197 -3.18603 0
M  V30 7584 H 736.065 -2.78496 -2.49781 0
M  V30 7585 H 737.398 -3.65098 -3.30098 0
M  V30 7586 N 739.05 0.861098 -1.31996 0
M  V30 7587 C 740.013 1.95068 -1.20338 0
M  V30 7588 C 741.013 1.60289 -0.128114 0
M  V30 7589 O 742.203 1.70048 -0.378044 0
M  V30 7590 C 739.335 3.30153 -0.849205 0
M  V30 7591 H 740.528 2.06833 -2.17164 0
M  V30 7592 H 738.081 1.05049 -1.15734 0
M  V30 7593 H 738.816 3.24087 0.117508 0
M  V30 7594 H 738.601 3.56771 -1.62655 0
M  V30 7595 H 740.091 4.10025 -0.791782 0
M  V30 7596 N 740.528 1.15101 1.07655 0
M  V30 7597 C 741.939 0.933848 1.61667 0
M  V30 7598 C 742.29 -0.525569 1.8903 0
M  V30 7599 O 741.415 -1.39605 1.65346 0
M  V30 7600 C 742.01 1.68876 2.93711 0
M  V30 7601 C 740.569 1.51697 3.44478 0
M  V30 7602 C 739.716 1.70633 2.18586 0
M  V30 7603 H 742.667 1.30171 0.907816 0
M  V30 7604 H 742.688 1.15645 3.625 0
M  V30 7605 H 742.2 2.7509 2.73764 0
M  V30 7606 H 740.301 0.478635 3.69513 0
M  V30 7607 H 740.414 2.29194 4.20722 0
M  V30 7608 H 738.778 1.13259 2.28132 0
M  V30 7609 H 739.561 2.78206 2.01137 0
M  V30 7610 N 742.006 -1.2595 0.947325 0
M  V30 7611 C 743.236 -1.97258 0.614235 0
M  V30 7612 C 743.644 -1.70682 -0.816355 0
M  V30 7613 O 742.987 -0.97527 -1.55673 0
M  V30 7614 C 743.049 -3.50845 0.784081 0
M  V30 7615 C 742.713 -4.01084 2.19045 0
M  V30 7616 C 743.71 -4.12347 3.16648 0
M  V30 7617 C 741.395 -4.34936 2.51268 0
M  V30 7618 C 743.389 -4.56766 4.44572 0
M  V30 7619 C 741.076 -4.79043 3.79422 0
M  V30 7620 C 742.074 -4.89919 4.75887 0
M  V30 7621 O 741.762 -5.3305 6.01758 0
M  V30 7622 H 741.494 -0.635738 0.22981 0
M  V30 7623 H 744.048 -1.61268 1.27207 0
M  V30 7624 H 742.278 -3.86638 0.069101 0
M  V30 7625 H 743.967 -4.03363 0.453135 0
M  V30 7626 H 744.733 -3.86432 2.93079 0
M  V30 7627 H 740.612 -4.25702 1.76916 0
M  V30 7628 H 744.156 -4.6517 5.19868 0
M  V30 7629 H 740.053 -5.04402 4.02802 0
M  V30 7630 H 740.821 -5.51255 6.05029 0
M  V30 7631 N 743.484 -0.715051 -1.40445 0
M  V30 7632 C 744.73 -0.254705 -2.01194 0
M  V30 7633 C 745.063 1.14894 -1.56567 0
M  V30 7634 O 744.338 1.77933 -0.785491 0
M  V30 7635 C 744.621 -0.334148 -3.58546 0
M  V30 7636 C 744.474 -1.77613 -4.13248 0
M  V30 7637 C 745.793 0.294968 -4.3911 0
M  V30 7638 H 742.912 -0.094025 -0.730978 0
M  V30 7639 H 745.554 -0.907449 -1.66929 0
M  V30 7640 H 743.704 0.221609 -3.87867 0
M  V30 7641 H 745.376 -2.38723 -3.94727 0
M  V30 7642 H 743.619 -2.30402 -3.67556 0
M  V30 7643 H 744.29 -1.78311 -5.22407 0
M  V30 7644 H 746.766 -0.178563 -4.15717 0
M  V30 7645 H 745.642 0.208934 -5.48502 0
M  V30 7646 H 745.903 1.37841 -4.20062 0
M  V30 7647 N 744.962 1.50701 -0.461195 0
M  V30 7648 C 746.209 2.02267 0.0971971 0
M  V30 7649 C 746.537 1.34387 1.40608 0
M  V30 7650 O 745.792 0.455254 1.90331 0
M  V30 7651 C 746.091 3.55788 0.33908 0
M  V30 7652 C 745.757 4.42092 -0.886885 0
M  V30 7653 C 744.419 4.65398 -1.22304 0
M  V30 7654 C 746.771 4.92571 -1.70361 0
M  V30 7655 C 744.099 5.36429 -2.37616 0
M  V30 7656 C 746.451 5.64868 -2.84793 0
M  V30 7657 C 745.115 5.86431 -3.18834 0
M  V30 7658 H 744.385 0.740146 0.0355669 0
M  V30 7659 H 747.032 1.81415 -0.61326 0
M  V30 7660 H 745.337 3.751 1.13168 0
M  V30 7661 H 747.034 3.93243 0.784937 0
M  V30 7662 H 743.624 4.24165 -0.614981 0
M  V30 7663 H 747.808 4.74428 -1.4571 0
M  V30 7664 H 743.064 5.51333 -2.64276 0
M  V30 7665 H 747.238 6.02966 -3.48432 0
M  V30 7666 H 744.865 6.41248 -4.08296 0
M  V30 7667 N 746.441 0.193421 1.56409 0
M  V30 7668 C 747.388 -0.728124 2.19014 0
M  V30 7669 C 748.358 -1.21098 1.13686 0
M  V30 7670 O 749.543 -1.27517 1.4193 0
M  V30 7671 C 746.683 -1.94277 2.8522 0
M  V30 7672 C 745.796 -1.50143 4.05069 0
M  V30 7673 C 744.931 -2.67145 4.59137 0
M  V30 7674 C 743.97 -2.19609 5.71348 0
M  V30 7675 N 743.107 -3.29782 6.19829 0
M  V30 7676 H 747.947 -0.187499 2.9741 0
M  V30 7677 H 745.484 -0.0808064 1.46878 0
M  V30 7678 H 747.442 -2.65551 3.21774 0
M  V30 7679 H 746.072 -2.45673 2.09391 0
M  V30 7680 H 745.124 -0.684624 3.74189 0
M  V30 7681 H 746.436 -1.11266 4.86232 0
M  V30 7682 H 745.59 -3.46544 4.97988 0
M  V30 7683 H 744.329 -3.09295 3.77078 0
M  V30 7684 H 743.334 -1.38664 5.32027 0
M  V30 7685 H 744.559 -1.78492 6.55223 0
M  V30 7686 H 742.505 -3.71466 5.40693 0
M  V30 7687 H 742.422 -2.95069 6.96039 0
M  V30 7688 H 743.69 -4.094 6.63334 0
M  V30 7689 N 747.919 -1.57396 -0.0801906 0
M  V30 7690 C 749.33 -1.75642 -0.633002 0
M  V30 7691 C 749.681 -0.817708 -1.78348 0
M  V30 7692 O 748.806 0.000233743 -2.164 0
M  V30 7693 C 749.401 -3.18502 -1.15507 0
M  V30 7694 C 747.96 -3.38121 -1.65381 0
M  V30 7695 C 747.107 -2.71386 -0.569661 0
M  V30 7696 H 750.058 -1.58027 0.145949 0
M  V30 7697 H 750.079 -3.22198 -2.02408 0
M  V30 7698 H 749.591 -3.86799 -0.317515 0
M  V30 7699 H 747.692 -2.74926 -2.51488 0
M  V30 7700 H 747.805 -4.46521 -1.73654 0
M  V30 7701 H 746.169 -2.33702 -1.0127 0
M  V30 7702 H 746.952 -3.42332 0.257561 0
M  V30 7703 N 749.397 0.351382 -1.53633 0
M  V30 7704 C 750.622 1.11718 -1.74739 0
M  V30 7705 C 751.047 1.81829 -0.481657 0
M  V30 7706 O 750.405 1.72264 0.565233 0
M  V30 7707 C 750.453 2.11234 -2.92254 0
M  V30 7708 O 749.557 3.186 -2.61855 0
M  V30 7709 H 748.898 0.323482 -0.579875 0
M  V30 7710 H 751.428 0.404167 -2.00568 0
M  V30 7711 H 751.438 2.54591 -3.18822 0
M  V30 7712 H 750.113 1.59599 -3.84058 0
M  V30 7713 H 748.69 2.80115 -2.4615 0
M  V30 7714 N 750.875 1.45233 0.611969 0
M  V30 7715 C 752.103 1.52539 1.39784 0
M  V30 7716 C 752.518 0.156533 1.8815 0
M  V30 7717 O 751.875 -0.84112 1.61961 0
M  V30 7718 C 751.926 2.50614 2.60528 0
M  V30 7719 O 751.647 3.8218 2.14173 0
M  V30 7720 C 753.148 2.67574 3.53439 0
M  V30 7721 H 750.368 0.51674 0.428043 0
M  V30 7722 H 752.912 1.90379 0.746727 0
M  V30 7723 H 751.067 2.15858 3.2169 0
M  V30 7724 H 751.481 4.35305 2.92592 0
M  V30 7725 H 752.955 3.40184 4.34717 0
M  V30 7726 H 753.432 1.73458 4.03496 0
M  V30 7727 H 754.038 3.0331 2.98133 0
M  V30 7728 N 752.353 -0.854086 1.3245 0
M  V30 7729 C 753.601 -1.60513 1.228 0
M  V30 7730 C 753.922 -1.93865 -0.210073 0
M  V30 7731 O 753.192 -1.59673 -1.13496 0
M  V30 7732 H 751.772 -0.595099 0.451516 0
M  V30 7733 H 754.434 -1.0216 1.6598 0
M  V30 7734 H 753.53 -2.54182 1.81102 0
M  V30 7735 N 753.831 -1.1567 -1.07043 0
M  V30 7736 C 755.108 -0.843948 -1.76456 0
M  V30 7737 C 755.488 0.659806 -2.00524 0
M  V30 7738 O 754.836 1.60518 -1.62623 0
M  V30 7739 C 755.046 -1.65822 -3.0709 0
M  V30 7740 C 756.394 -1.8664 -3.8138 0
M  V30 7741 O 757.418 -1.62624 -3.1691 0
M  V30 7742 O 756.277 -2.26884 -4.97178 0
M  V30 7743 H 753.371 -0.310677 -0.766426 0
M  V30 7744 H 755.917 -1.26266 -1.1338 0
M  V30 7745 H 754.689 -2.67902 -2.85209 0
M  V30 7746 H 754.312 -1.23605 -3.77899 0
M  V30 7747 N 755.309 1.25446 -0.953992 0
M  V30 7748 C 756.239 2.28264 -0.491717 0
M  V30 7749 C 757.22 1.63717 0.461617 0
M  V30 7750 O 758.405 1.90821 0.36071 0
M  V30 7751 C 755.535 3.46525 0.231915 0
M  V30 7752 C 754.489 4.23247 -0.636098 0
M  V30 7753 C 753.815 5.34254 0.218238 0
M  V30 7754 C 755.115 4.85971 -1.91389 0
M  V30 7755 H 756.809 2.67183 -1.35106 0
M  V30 7756 H 754.355 1.2844 -0.651095 0
M  V30 7757 H 756.308 4.17576 0.566439 0
M  V30 7758 H 755.032 3.06594 1.12551 0
M  V30 7759 H 753.691 3.53978 -0.953696 0
M  V30 7760 H 753.339 4.90564 1.11156 0
M  V30 7761 H 753.039 5.86501 -0.359232 0
M  V30 7762 H 754.563 6.08138 0.547743 0
M  V30 7763 H 755.977 5.49168 -1.64581 0
M  V30 7764 H 754.374 5.48391 -2.43696 0
M  V30 7765 H 755.444 4.08192 -2.61738 0
M  V30 7766 N 756.787 0.722489 1.40064 0
M  V30 7767 C 758.036 0.261932 1.99992 0
M  V30 7768 C 758.349 -1.15358 1.57961 0
M  V30 7769 O 759.555 -1.71301 2.10637 0
M  V30 7770 C 758.011 0.41737 3.57472 0
M  V30 7771 C 757.619 1.83997 4.08472 0
M  V30 7772 C 759.363 0.0179561 4.24496 0
M  V30 7773 C 757.27 1.94563 5.5848 0
M  V30 7774 H 756.2 0.0941768 0.748095 0
M  V30 7775 H 758.851 0.894572 1.60218 0
M  V30 7776 H 757.233 -0.283965 3.94981 0
M  V30 7777 H 758.407 2.57224 3.82325 0
M  V30 7778 H 756.722 2.19147 3.54067 0
M  V30 7779 H 759.319 0.076085 5.34646 0
M  V30 7780 H 759.662 -1.02498 4.03485 0
M  V30 7781 H 760.195 0.669988 3.92117 0
M  V30 7782 H 756.934 2.97001 5.84355 0
M  V30 7783 H 756.454 1.25756 5.86469 0
M  V30 7784 H 758.133 1.72095 6.23692 0
M  V30 7785 N 758.265 -1.50454 0.469181 0
M  V30 7786 C 759.493 -2.06729 -0.0842134 0
M  V30 7787 C 759.908 -1.33326 -1.33677 0
M  V30 7788 O 759.265 -0.401977 -1.78018 0
M  V30 7789 C 759.316 -3.59557 -0.374253 0
M  V30 7790 O 759.037 -4.30192 0.828622 0
M  V30 7791 C 760.538 -4.32449 -0.974824 0
M  V30 7792 H 757.758 -0.670971 0.006231 0
M  V30 7793 H 760.302 -1.93645 0.657415 0
M  V30 7794 H 758.457 -3.7245 -1.06581 0
M  V30 7795 H 758.871 -5.21371 0.572066 0
M  V30 7796 H 760.345 -5.40361 -1.12755 0
M  V30 7797 H 760.822 -3.92819 -1.96442 0
M  V30 7798 H 761.428 -4.24082 -0.321703 0
M  V30 7799 N 759.743 -0.201713 -1.56304 0
M  V30 7800 C 760.99 0.435307 -1.97766 0
M  V30 7801 C 761.318 1.61169 -1.0888 0
M  V30 7802 O 760.573 1.95272 -0.12934 0
M  V30 7803 C 760.872 0.931432 -3.45049 0
M  V30 7804 C 760.538 -0.132287 -4.50706 0
M  V30 7805 C 759.2 -0.424552 -4.79323 0
M  V30 7806 C 761.552 -0.852703 -5.14177 0
M  V30 7807 C 758.88 -1.4421 -5.68701 0
M  V30 7808 C 761.232 -1.85944 -6.04655 0
M  V30 7809 C 759.896 -2.15884 -6.31625 0
M  V30 7810 H 759.166 0.15929 -0.723676 0
M  V30 7811 H 761.813 -0.300069 -1.89134 0
M  V30 7812 H 760.118 1.7452 -3.50785 0
M  V30 7813 H 761.815 1.43383 -3.74489 0
M  V30 7814 H 758.405 0.105671 -4.2847 0
M  V30 7815 H 762.589 -0.640139 -4.92154 0
M  V30 7816 H 757.845 -1.6799 -5.87869 0
M  V30 7817 H 762.019 -2.42286 -6.52894 0
M  V30 7818 H 759.646 -2.94875 -7.0068 0
M  V30 7819 N 761.222 1.57436 0.0718424 0
M  V30 7820 C 762.499 1.78312 0.804006 0
M  V30 7821 C 762.879 0.789273 1.9579 0
M  V30 7822 O 762.227 -0.177605 2.27809 0
M  V30 7823 C 762.437 3.24798 1.277 0
M  V30 7824 C 763.785 3.88627 1.71039 0
M  V30 7825 O 764.809 3.28689 1.37266 0
M  V30 7826 O 763.668 4.94073 2.33567 0
M  V30 7827 H 760.762 0.73178 0.385262 0
M  V30 7828 H 763.308 1.69621 0.0519219 0
M  V30 7829 H 762.08 3.88688 0.45134 0
M  V30 7830 H 761.703 3.38213 2.0904 0
M  V30 7831 N 762.7 -0.34323 1.53817 0
M  V30 7832 C 763.977 -1.10047 1.61706 0
M  V30 7833 C 764.357 -2.06495 0.438514 0
M  V30 7834 O 763.705 -2.21297 -0.569188 0
M  V30 7835 C 763.915 -1.81985 2.97796 0
M  V30 7836 C 765.263 -2.35717 3.53161 0
M  V30 7837 O 766.287 -1.9208 2.99973 0
M  V30 7838 O 765.146 -3.15551 4.46195 0
M  V30 7839 H 762.24 -0.506096 0.654061 0
M  V30 7840 H 764.786 -0.344697 1.66162 0
M  V30 7841 H 763.558 -1.11722 3.75012 0
M  V30 7842 H 763.181 -2.64419 2.96931 0
M  V30 7843 N 764.178 -1.45556 -0.604258 0
M  V30 7844 C 765.141 -1.54091 -1.69672 0
M  V30 7845 C 766.141 -0.420076 -1.55216 0
M  V30 7846 O 767.331 -0.683671 -1.60224 0
M  V30 7847 C 764.463 -1.44063 -3.08964 0
M  V30 7848 H 765.656 -2.51431 -1.6347 0
M  V30 7849 H 763.209 -1.33046 -0.820273 0
M  V30 7850 H 763.944 -0.479201 -3.2074 0
M  V30 7851 H 763.729 -2.25362 -3.20865 0
M  V30 7852 H 765.219 -1.53075 -3.88533 0
M  V30 7853 N 765.656 0.84705 -1.32902 0
M  V30 7854 C 767.072 1.13645 -1.12058 0
M  V30 7855 C 767.272 2.01281 0.093937 0
M  V30 7856 O 766.328 2.4026 0.776608 0
M  V30 7857 C 767.641 1.80644 -2.40392 0
M  V30 7858 C 769.189 1.93246 -2.46221 0
M  V30 7859 C 769.664 2.6366 -3.74496 0
M  V30 7860 N 771.155 2.71179 -3.75521 0
M  V30 7861 C 771.89 3.26332 -4.71482 0
M  V30 7862 N 771.386 3.82236 -5.77813 0
M  V30 7863 N 773.179 3.24507 -4.58968 0
M  V30 7864 H 765.33 0.263612 -2.10758 0
M  V30 7865 H 767.593 0.17944 -0.930863 0
M  V30 7866 H 767.299 1.23708 -3.29225 0
M  V30 7867 H 767.173 2.80736 -2.51926 0
M  V30 7868 H 769.56 2.49338 -1.57843 0
M  V30 7869 H 769.641 0.921272 -2.38634 0
M  V30 7870 H 769.285 2.08229 -4.63253 0
M  V30 7871 H 769.215 3.65234 -3.79357 0
M  V30 7872 H 771.706 2.31527 -2.9867 0
M  V30 7873 H 772.019 4.22499 -6.47082 0
M  V30 7874 H 770.364 3.80546 -5.81558 0
M  V30 7875 H 773.555 2.80085 -3.7506 0
M  V30 7876 H 773.728 3.67188 -5.33926 0
M  V30 7877 N 767.134 1.16236 1.06428 0
M  V30 7878 C 768.359 0.967688 1.83441 0
M  V30 7879 C 768.784 -0.479167 1.81894 0
M  V30 7880 O 768.142 -1.34224 1.21875 0
M  V30 7881 C 768.19 1.49806 3.2801 0
M  V30 7882 O 767.294 0.703481 4.06356 0
M  V30 7883 H 766.635 0.344468 0.56766 0
M  V30 7884 H 769.165 1.54442 1.34197 0
M  V30 7885 H 769.175 1.51495 3.78831 0
M  V30 7886 H 767.85 2.55133 3.2845 0
M  V30 7887 H 766.427 0.756986 3.65136 0
M  V30 7888 N 768.612 -1.24939 0.960631 0
M  V30 7889 C 769.858 -1.93104 0.61958 0
M  V30 7890 C 770.191 -1.74991 -0.84212 0
M  V30 7891 O 769.466 -1.09867 -1.60498 0
M  V30 7892 C 769.749 -3.46326 0.986422 0
M  V30 7893 C 769.602 -3.73638 2.50429 0
M  V30 7894 C 770.921 -4.37067 0.515827 0
M  V30 7895 H 768.04 -0.701311 0.226566 0
M  V30 7896 H 770.682 -1.47442 1.19836 0
M  V30 7897 H 768.832 -3.85348 0.493907 0
M  V30 7898 H 770.504 -3.44217 3.07103 0
M  V30 7899 H 768.747 -3.19035 2.93937 0
M  V30 7900 H 769.418 -4.80815 2.71147 0
M  V30 7901 H 771.894 -4.05381 0.938389 0
M  V30 7902 H 770.77 -5.43022 0.80114 0
M  V30 7903 H 771.031 -4.38224 -0.584171 0
M  V30 7904 N 770.09 -0.729906 -1.39679 0
M  V30 7905 C 771.022 -0.0470588 -2.29152 0
M  V30 7906 C 772.035 0.708808 -1.4656 0
M  V30 7907 O 773.224 0.553815 -1.69691 0
M  V30 7908 C 770.324 0.957612 -3.25089 0
M  V30 7909 C 769.497 0.264321 -4.36601 0
M  V30 7910 C 768.556 1.17638 -5.12882 0
M  V30 7911 O 767.582 0.655777 -5.6541 0
M  V30 7912 N 768.784 2.50649 -5.23598 0
M  V30 7913 H 771.549 -0.815364 -2.88395 0
M  V30 7914 H 769.11 -0.578707 -1.51204 0
M  V30 7915 H 771.102 1.57026 -3.72995 0
M  V30 7916 H 769.672 1.62716 -2.66912 0
M  V30 7917 H 768.892 -0.528732 -3.90638 0
M  V30 7918 H 770.18 -0.216344 -5.0834 0
M  V30 7919 H 769.578 2.95427 -4.82431 0
M  V30 7920 H 768.135 3.07022 -5.74961 0
M  V30 7921 N 771.568 1.50203 -0.477153 0
M  V30 7922 C 772.531 2.27194 0.302599 0
M  V30 7923 C 773.531 1.32221 0.915112 0
M  V30 7924 O 774.721 1.55593 0.783348 0
M  V30 7925 C 771.853 3.0938 1.43167 0
M  V30 7926 H 773.046 2.97575 -0.372678 0
M  V30 7927 H 770.599 1.54578 -0.231392 0
M  V30 7928 H 771.334 2.43509 2.14182 0
M  V30 7929 H 771.119 3.79181 0.998197 0
M  V30 7930 H 772.609 3.67592 1.98157 0
M  V30 7931 N 773.046 0.209999 1.56195 0
M  V30 7932 C 773.993 -0.704854 2.19774 0
M  V30 7933 C 774.963 -1.19886 1.14964 0
M  V30 7934 O 776.148 -1.26005 1.43274 0
M  V30 7935 C 773.288 -1.91241 2.87265 0
M  V30 7936 C 772.401 -1.45838 4.06639 0
M  V30 7937 C 771.536 -2.6226 4.61945 0
M  V30 7938 C 770.575 -2.13537 5.73645 0
M  V30 7939 N 769.712 -3.2319 6.23292 0
M  V30 7940 H 774.552 -0.155944 2.97592 0
M  V30 7941 H 772.089 -0.0652235 1.46955 0
M  V30 7942 H 774.047 -2.62123 3.24573 0
M  V30 7943 H 772.677 -2.43439 2.11985 0
M  V30 7944 H 771.729 -0.644897 3.74894 0
M  V30 7945 H 773.041 -1.06103 4.87384 0
M  V30 7946 H 772.195 -3.41243 5.01636 0
M  V30 7947 H 770.934 -3.05278 3.80338 0
M  V30 7948 H 769.939 -1.33013 5.33468 0
M  V30 7949 H 771.164 -1.71533 6.57079 0
M  V30 7950 H 769.11 -3.65711 5.44602 0
M  V30 7951 H 769.027 -2.8767 6.99129 0
M  V30 7952 H 770.295 -4.02342 6.67639 0
M  V30 7953 N 774.524 -1.57472 -0.0634922 0
M  V30 7954 C 775.772 -1.87283 -0.759563 0
M  V30 7955 C 776.093 -0.803135 -1.77693 0
M  V30 7956 O 775.363 0.167293 -1.95184 0
M  V30 7957 H 773.943 -0.691106 -0.283516 0
M  V30 7958 H 776.605 -1.94864 -0.0376091 0
M  V30 7959 H 775.701 -2.85064 -1.27062 0
M  V30 7960 N 776.003 0.335068 -1.53997 0
M  V30 7961 C 776.95 1.41187 -1.82579 0
M  V30 7962 C 777.92 1.51897 -0.672061 0
M  V30 7963 O 779.105 1.673 -0.917346 0
M  V30 7964 C 776.245 2.77717 -2.0486 0
M  V30 7965 C 775.358 2.7573 -3.32561 0
M  V30 7966 C 774.493 4.04032 -3.44864 0
M  V30 7967 C 773.532 3.96308 -4.66483 0
M  V30 7968 N 772.669 5.16317 -4.75774 0
M  V30 7969 H 777.509 1.16113 -2.74448 0
M  V30 7970 H 775.046 0.562305 -1.35928 0
M  V30 7971 H 777.004 3.57071 -2.15768 0
M  V30 7972 H 775.634 3.01124 -1.16294 0
M  V30 7973 H 774.686 1.88432 -3.3045 0
M  V30 7974 H 775.998 2.65902 -4.22016 0
M  V30 7975 H 775.152 4.91814 -3.55251 0
M  V30 7976 H 773.891 4.16652 -2.53481 0
M  V30 7977 H 772.896 3.06911 -4.56164 0
M  V30 7978 H 774.121 3.85263 -5.5924 0
M  V30 7979 H 772.067 5.29464 -3.87303 0
M  V30 7980 H 771.984 5.08779 -5.59178 0
M  V30 7981 H 773.252 6.05846 -4.9048 0
M  V30 7982 N 777.481 1.45874 0.596531 0
M  V30 7983 C 778.711 1.5379 1.37958 0
M  V30 7984 C 779.119 0.173086 1.88407 0
M  V30 7985 O 778.462 -0.837498 1.63498 0
M  V30 7986 C 778.524 2.47044 2.61169 0
M  V30 7987 C 778.188 3.93565 2.32283 0
M  V30 7988 C 779.185 4.83162 1.91965 0
M  V30 7989 C 776.87 4.38579 2.44854 0
M  V30 7990 C 778.864 6.15782 1.64593 0
M  V30 7991 C 776.551 5.71238 2.17095 0
M  V30 7992 C 777.549 6.59659 1.77028 0
M  V30 7993 O 777.237 7.89857 1.49601 0
M  V30 7994 H 776.969 0.523 0.428307 0
M  V30 7995 H 779.523 1.91855 0.733529 0
M  V30 7996 H 777.753 2.0397 3.28532 0
M  V30 7997 H 779.442 2.4552 3.23226 0
M  V30 7998 H 780.208 4.49646 1.8178 0
M  V30 7999 H 776.087 3.6999 2.75006 0
M  V30 8000 H 779.631 6.84757 1.33245 0
M  V30 8001 H 775.528 6.04306 2.26901 0
M  V30 8002 H 776.296 8.01991 1.63561 0
M  V30 8003 N 778.959 -0.83999 1.33349 0
M  V30 8004 C 780.205 -1.59753 1.24927 0
M  V30 8005 C 780.538 -1.93318 -0.184855 0
M  V30 8006 O 779.813 -1.586 -1.12589 0
M  V30 8007 C 780.096 -2.90829 2.12345 0
M  V30 8008 C 779.949 -2.63953 3.6421 0
M  V30 8009 C 781.268 -3.92246 1.99577 0
M  V30 8010 H 778.387 -0.579654 0.45516 0
M  V30 8011 H 781.029 -0.968909 1.63439 0
M  V30 8012 H 779.179 -3.44478 1.79631 0
M  V30 8013 H 780.851 -2.16745 4.07209 0
M  V30 8014 H 779.094 -1.97671 3.86146 0
M  V30 8015 H 779.765 -3.57348 4.20721 0
M  V30 8016 H 782.241 -3.479 2.28265 0
M  V30 8017 H 781.117 -4.81793 2.62996 0
M  V30 8018 H 781.378 -4.3138 0.967673 0
M  V30 8019 N 780.437 -1.16799 -1.0581 0
M  V30 8020 C 781.367 -0.902241 -2.15364 0
M  V30 8021 C 782.348 0.153351 -1.69407 0
M  V30 8022 O 783.533 0.00442032 -1.94199 0
M  V30 8023 C 780.663 -0.407911 -3.44896 0
M  V30 8024 C 779.617 -1.40197 -4.04387 0
M  V30 8025 C 778.943 -0.765848 -5.29187 0
M  V30 8026 C 780.243 -2.77316 -4.42598 0
M  V30 8027 H 781.937 -1.81841 -2.37853 0
M  V30 8028 H 779.483 -0.875731 -1.14311 0
M  V30 8029 H 781.436 -0.20945 -4.20879 0
M  V30 8030 H 780.16 0.54378 -3.22041 0
M  V30 8031 H 778.819 -1.58707 -3.30466 0
M  V30 8032 H 778.467 0.192482 -5.02632 0
M  V30 8033 H 778.167 -1.42939 -5.69949 0
M  V30 8034 H 779.691 -0.577519 -6.07863 0
M  V30 8035 H 781.105 -2.62561 -5.09642 0
M  V30 8036 H 779.502 -3.4019 -4.94359 0
M  V30 8037 H 780.572 -3.32199 -3.53231 0
M  V30 8038 N 781.915 1.24427 -0.967243 0
M  V30 8039 C 783.192 1.87831 -0.545776 0
M  V30 8040 C 783.572 1.87126 0.977099 0
M  V30 8041 O 782.92 1.34357 1.84826 0
M  V30 8042 C 783.13 3.29967 -1.13679 0
M  V30 8043 C 784.478 4.06654 -1.22139 0
M  V30 8044 O 785.502 3.39136 -1.08926 0
M  V30 8045 O 784.361 5.27455 -1.43017 0
M  V30 8046 H 781.455 0.806745 -0.181912 0
M  V30 8047 H 784.001 1.32403 -1.06148 0
M  V30 8048 H 782.773 3.24977 -2.17958 0
M  V30 8049 H 782.396 3.92969 -0.605093 0
M  V30 8050 N 783.393 0.737304 1.3929 0
M  V30 8051 C 784.34 0.0988364 2.30588 0
M  V30 8052 C 785.31 -0.727206 1.49335 0
M  V30 8053 O 786.495 -0.686694 1.78014 0
M  V30 8054 C 783.635 -0.800734 3.35682 0
M  V30 8055 C 782.748 0.0381731 4.31983 0
M  V30 8056 C 781.883 -0.862884 5.24145 0
M  V30 8057 C 780.922 -0.0193639 6.12097 0
M  V30 8058 N 780.059 -0.87648 6.96608 0
M  V30 8059 H 784.899 0.883031 2.84617 0
M  V30 8060 H 782.436 0.447111 1.4014 0
M  V30 8061 H 784.394 -1.33676 3.95205 0
M  V30 8062 H 783.024 -1.55088 2.83103 0
M  V30 8063 H 782.076 0.691641 3.74059 0
M  V30 8064 H 783.388 0.690294 4.94 0
M  V30 8065 H 782.542 -1.46667 5.88705 0
M  V30 8066 H 781.281 -1.54878 4.62454 0
M  V30 8067 H 780.286 0.597202 5.46547 0
M  V30 8068 H 781.511 0.663348 6.75852 0
M  V30 8069 H 779.457 -1.54762 6.37483 0
M  V30 8070 H 779.374 -0.280892 7.55478 0
M  V30 8071 H 780.642 -1.46575 7.65595 0
M  V30 8072 N 784.871 -1.49948 0.485112 0
M  V30 8073 C 785.803 -2.26691 -0.338222 0
M  V30 8074 C 786.816 -1.32584 -0.944742 0
M  V30 8075 O 788.005 -1.57989 -0.830772 0
M  V30 8076 C 785.105 -3.04405 -1.48966 0
M  V30 8077 C 784.278 -4.25971 -0.993371 0
M  V30 8078 C 783.337 -4.85861 -2.02052 0
M  V30 8079 O 782.363 -5.46382 -1.59547 0
M  V30 8080 N 783.565 -4.74101 -3.34975 0
M  V30 8081 H 786.33 -2.97989 0.319748 0
M  V30 8082 H 783.891 -1.58772 0.316714 0
M  V30 8083 H 785.883 -3.41348 -2.17403 0
M  V30 8084 H 784.453 -2.35815 -2.05207 0
M  V30 8085 H 783.673 -3.93971 -0.134424 0
M  V30 8086 H 784.961 -5.0476 -0.639934 0
M  V30 8087 H 784.359 -4.26002 -3.72208 0
M  V30 8088 H 782.916 -5.15274 -3.9917 0
M  V30 8089 N 786.349 -0.21828 -1.56081 0
M  V30 8090 C 787.279 0.687922 -2.23136 0
M  V30 8091 C 788.26 1.20357 -1.202 0
M  V30 8092 O 789.445 1.24817 -1.48776 0
M  V30 8093 C 786.575 1.89762 -2.90874 0
M  V30 8094 C 785.529 1.51595 -4.00254 0
M  V30 8095 C 784.855 2.80415 -4.55271 0
M  V30 8096 C 786.155 0.708404 -5.17474 0
M  V30 8097 H 787.849 0.128854 -2.99123 0
M  V30 8098 H 785.395 0.0605354 -1.43873 0
M  V30 8099 H 787.348 2.53699 -3.36474 0
M  V30 8100 H 786.072 2.4816 -2.1233 0
M  V30 8101 H 784.731 0.900058 -3.55379 0
M  V30 8102 H 784.379 3.36951 -3.73461 0
M  V30 8103 H 784.079 2.55613 -5.2909 0
M  V30 8104 H 785.603 3.453 -5.03587 0
M  V30 8105 H 787.017 1.2514 -5.59476 0
M  V30 8106 H 785.414 0.557593 -5.97504 0
M  V30 8107 H 786.484 -0.285679 -4.84058 0
M  V30 8108 N 787.827 1.57504 0.0551401 0
M  V30 8109 C 789.075 1.87684 0.74962 0
M  V30 8110 C 789.396 0.812547 1.77264 0
M  V30 8111 O 788.666 -0.15694 1.9527 0
M  V30 8112 H 787.246 0.6926 0.279846 0
M  V30 8113 H 789.908 1.94881 0.0272745 0
M  V30 8114 H 789.004 2.85734 1.25548 0
M  V30 8115 N 789.305 -0.326896 1.54172 0
M  V30 8116 C 790.553 -1.06313 1.71878 0
M  V30 8117 C 790.874 -1.88652 0.493498 0
M  V30 8118 O 790.144 -1.89608 -0.492522 0
M  V30 8119 H 788.724 -0.39549 0.633716 0
M  V30 8120 H 791.386 -0.364139 1.91468 0
M  V30 8121 H 790.482 -1.73105 2.59694 0
M  V30 8122 N 790.784 -1.46188 -0.588786 0
M  V30 8123 C 791.714 -1.59148 -1.70863 0
M  V30 8124 C 792.695 -0.442083 -1.64255 0
M  V30 8125 O 793.88 -0.667575 -1.82365 0
M  V30 8126 C 791.01 -1.5757 -3.09498 0
M  V30 8127 C 789.964 -2.71418 -3.30932 0
M  V30 8128 C 789.29 -2.549 -4.70032 0
M  V30 8129 C 790.59 -4.1329 -3.19356 0
M  V30 8130 H 792.284 -2.52889 -1.60274 0
M  V30 8131 H 789.83 -1.21707 -0.769638 0
M  V30 8132 H 791.783 -1.65231 -3.87655 0
M  V30 8133 H 790.507 -0.603705 -3.20972 0
M  V30 8134 H 789.166 -2.63216 -2.55172 0
M  V30 8135 H 788.814 -1.55797 -4.78264 0
M  V30 8136 H 788.514 -3.31257 -4.85327 0
M  V30 8137 H 790.038 -2.64443 -5.50366 0
M  V30 8138 H 791.452 -4.22636 -3.87365 0
M  V30 8139 H 789.849 -4.90187 -3.46175 0
M  V30 8140 H 790.919 -4.33874 -2.16522 0
M  V30 8141 N 792.262 0.832906 -1.33792 0
M  V30 8142 C 793.509 1.58853 -1.25586 0
M  V30 8143 C 793.837 1.93695 0.176807 0
M  V30 8144 O 793.092 1.59386 1.13554 0
M  V30 8145 C 793.391 2.9047 -2.08235 0
M  V30 8146 C 793.057 2.74965 -3.57358 0
M  V30 8147 C 791.719 2.70444 -3.98012 0
M  V30 8148 C 794.071 2.59347 -4.52093 0
M  V30 8149 C 791.399 2.48212 -5.31608 0
M  V30 8150 C 793.751 2.38649 -5.85858 0
M  V30 8151 C 792.415 2.32533 -6.25687 0
M  V30 8152 H 791.685 0.581285 -0.459553 0
M  V30 8153 H 794.332 0.964501 -1.65438 0
M  V30 8154 H 792.637 3.57111 -1.6118 0
M  V30 8155 H 794.334 3.48001 -1.99239 0
M  V30 8156 H 790.924 2.79319 -3.25083 0
M  V30 8157 H 795.108 2.6187 -4.2159 0
M  V30 8158 H 790.364 2.41929 -5.61498 0
M  V30 8159 H 794.538 2.25549 -6.58863 0
M  V30 8160 H 792.165 2.15067 -7.29143 0
M  V30 8161 N 793.74 1.17359 1.05189 0
M  V30 8162 C 794.965 0.98709 1.82404 0
M  V30 8163 C 795.39 -0.459848 1.82392 0
M  V30 8164 O 794.748 -1.32924 1.23292 0
M  V30 8165 C 794.796 1.53276 3.26403 0
M  V30 8166 O 793.9 0.746541 4.05587 0
M  V30 8167 H 793.241 0.35047 0.563974 0
M  V30 8168 H 795.771 1.55856 1.32552 0
M  V30 8169 H 795.781 1.55504 3.77203 0
M  V30 8170 H 794.456 2.58603 3.25726 0
M  V30 8171 H 793.033 0.795671 3.64312 0
M  V30 8172 N 795.218 -1.23913 0.973828 0
M  V30 8173 C 796.464 -1.92747 0.649635 0
M  V30 8174 C 796.819 -1.7465 -0.807157 0
M  V30 8175 O 796.112 -1.09271 -1.57386 0
M  V30 8176 C 796.306 -3.4406 0.967356 0
M  V30 8177 C 796.135 -3.76874 2.45348 0
M  V30 8178 C 794.905 -3.97915 3.11435 0
M  V30 8179 C 797.103 -3.82871 3.43386 0
M  V30 8180 N 795.085 -4.1788 4.49722 0
M  V30 8181 C 796.456 -4.07751 4.67053 0
M  V30 8182 C 798.511 -3.65634 3.37958 0
M  V30 8183 C 797.214 -4.17185 5.8596 0
M  V30 8184 C 799.24 -3.76317 4.56223 0
M  V30 8185 C 798.602 -4.01628 5.78683 0
M  V30 8186 H 794.701 -0.72677 0.288667 0
M  V30 8187 H 797.285 -1.4928 1.24994 0
M  V30 8188 H 795.456 -3.86378 0.395804 0
M  V30 8189 H 797.188 -4.00211 0.601108 0
M  V30 8190 H 793.943 -3.94562 2.61949 0
M  V30 8191 H 794.367 -4.31829 5.21395 0
M  V30 8192 H 799.009 -3.45067 2.44312 0
M  V30 8193 H 796.727 -4.36562 6.80029 0
M  V30 8194 H 800.313 -3.64343 4.53592 0
M  V30 8195 H 799.193 -4.09699 6.68667 0
M  V30 8196 N 796.696 -0.74468 -1.38897 0
M  V30 8197 C 797.606 -0.112892 -2.34328 0
M  V30 8198 C 798.622 0.71087 -1.58816 0
M  V30 8199 O 799.798 0.637092 -1.91058 0
M  V30 8200 C 796.863 0.776417 -3.37894 0
M  V30 8201 C 795.924 -0.0606999 -4.29257 0
M  V30 8202 C 795.157 0.786258 -5.27877 0
M  V30 8203 O 795.38 2.02463 -5.33259 0
M  V30 8204 O 794.314 0.209781 -6.01534 0
M  V30 8205 H 798.14 -0.900801 -2.90033 0
M  V30 8206 H 795.725 -0.505462 -1.4059 0
M  V30 8207 H 797.607 1.28496 -4.01331 0
M  V30 8208 H 796.282 1.54297 -2.84559 0
M  V30 8209 H 795.189 -0.614984 -3.69011 0
M  V30 8210 H 796.522 -0.789702 -4.85824 0
M  V30 8211 N 798.174 1.49689 -0.493057 0
M  V30 8212 C 799.423 2.01622 0.0560733 0
M  V30 8213 C 799.736 1.37838 1.3878 0
M  V30 8214 O 800.942 1.81054 2.02316 0
M  V30 8215 C 799.398 3.59586 0.150409 0
M  V30 8216 C 799.006 4.32338 -1.1742 0
M  V30 8217 C 800.75 4.19489 0.650327 0
M  V30 8218 C 798.657 5.8214 -1.04246 0
M  V30 8219 H 797.587 0.753594 0.0247297 0
M  V30 8220 H 800.238 1.723 -0.631279 0
M  V30 8221 H 798.62 3.8559 0.902035 0
M  V30 8222 H 799.794 4.18042 -1.9385 0
M  V30 8223 H 798.109 3.84144 -1.60694 0
M  V30 8224 H 800.706 5.29181 0.766272 0
M  V30 8225 H 801.049 3.82326 1.6472 0
M  V30 8226 H 801.582 3.97775 -0.0445371 0
M  V30 8227 H 798.321 6.23814 -2.01336 0
M  V30 8228 H 797.841 5.98952 -0.31892 0
M  V30 8229 H 799.52 6.43004 -0.717957 0
M  V30 8230 N 799.652 0.226554 1.55963 0
M  V30 8231 C 800.929 -0.453058 1.90281 0
M  V30 8232 C 801.309 -1.77377 1.14458 0
M  V30 8233 O 800.657 -2.27067 0.255496 0
M  V30 8234 C 800.867 -0.641108 3.43061 0
M  V30 8235 C 802.215 -0.946265 4.13921 0
M  V30 8236 O 803.239 -0.727713 3.48687 0
M  V30 8237 O 802.098 -1.36131 5.29274 0
M  V30 8238 H 799.192 -0.240242 0.791336 0
M  V30 8239 H 801.738 0.26911 1.67553 0
M  V30 8240 H 800.51 0.290283 3.90222 0
M  V30 8241 H 800.133 -1.41458 3.71585 0
M  V30 8242 N 801.13 -1.57531 -0.0467866 0
M  V30 8243 C 802.093 -2.04379 -1.03738 0
M  V30 8244 C 803.093 -0.944881 -1.3011 0
M  V30 8245 O 804.283 -1.20904 -1.25411 0
M  V30 8246 C 801.415 -2.44572 -2.37482 0
M  V30 8247 H 802.608 -2.93142 -0.633063 0
M  V30 8248 H 800.161 -1.53526 -0.293177 0
M  V30 8249 H 800.896 -1.58911 -2.82697 0
M  V30 8250 H 800.681 -3.24785 -2.19675 0
M  V30 8251 H 802.171 -2.81307 -3.08636 0
M  V30 8252 N 802.608 0.318715 -1.54344 0
M  V30 8253 C 803.885 1.07461 -1.63437 0
M  V30 8254 C 804.265 2.05771 -0.47131 0
M  V30 8255 O 803.613 2.22175 0.53391 0
M  V30 8256 C 803.823 1.77224 -3.00654 0
M  V30 8257 C 805.171 2.30069 -3.56866 0
M  V30 8258 O 806.195 1.87284 -3.0299 0
M  V30 8259 O 805.054 3.08412 -4.51159 0
M  V30 8260 H 802.148 0.495627 -0.66203 0
M  V30 8261 H 804.694 0.318218 -1.6669 0
M  V30 8262 H 803.466 1.05742 -3.76742 0
M  V30 8263 H 803.089 2.59662 -3.01101 0
M  V30 8264 N 804.086 1.46499 0.581025 0
M  V30 8265 C 805.034 1.57562 1.71105 0
M  V30 8266 C 806.028 0.44403 1.63477 0
M  V30 8267 O 807.234 0.620964 1.6895 0
M  V30 8268 H 803.609 0.495415 0.565746 0
M  V30 8269 H 805.58 2.5257 1.58905 0
M  V30 8270 C 804.329 1.58465 3.0949 0
M  V30 8271 H 803.652 2.44877 3.16031 0
M  V30 8272 H 805.092 1.70261 3.88313 0
M  V30 8273 C 803.551 0.313596 3.35437 0
M  V30 8274 O 804.081 -0.595456 3.97262 0
M  V30 8275 N 802.287 0.200986 2.89904 0
M  V30 8276 H 801.834 0.941643 2.39773 0
M  V30 8277 H 801.792 -0.648577 3.07638 0
M  V30 8278 N 805.565 -0.825799 1.34232 0
M  V30 8279 C 806.813 -1.57873 1.26177 0
M  V30 8280 C 807.134 -1.94267 -0.168904 0
M  V30 8281 O 806.404 -1.62045 -1.10084 0
M  V30 8282 H 804.984 -0.585388 0.464037 0
M  V30 8283 H 807.646 -0.986163 1.6811 0
M  V30 8284 H 806.742 -2.50283 1.86453 0
M  V30 8285 N 807.043 -1.17915 -1.04565 0
M  V30 8286 C 808.32 -0.881187 -1.74627 0
M  V30 8287 C 808.7 0.617123 -2.01878 0
M  V30 8288 O 808.048 1.57032 -1.65991 0
M  V30 8289 C 808.258 -1.72299 -3.03503 0
M  V30 8290 C 809.606 -1.94688 -3.77335 0
M  V30 8291 O 810.63 -1.6931 -3.13389 0
M  V30 8292 O 809.489 -2.37379 -4.92253 0
M  V30 8293 H 806.583 -0.326864 -0.759664 0
M  V30 8294 H 809.129 -1.28642 -1.10676 0
M  V30 8295 H 807.901 -2.73891 -2.79462 0
M  V30 8296 H 807.524 -1.31593 -3.75192 0
M  V30 8297 N 808.521 1.23394 -0.980386 0
M  V30 8298 C 809.77 1.91116 -0.644785 0
M  V30 8299 C 810.083 1.77333 0.825367 0
M  V30 8300 O 811.289 2.39858 1.27203 0
M  V30 8301 C 809.745 3.42592 -1.10266 0
M  V30 8302 C 809.353 3.65037 -2.59715 0
M  V30 8303 C 811.097 4.1609 -0.8408 0
M  V30 8304 C 809.004 5.10148 -2.9917 0
M  V30 8305 H 807.934 0.715632 -0.23746 0
M  V30 8306 H 810.585 1.39829 -1.18828 0
M  V30 8307 H 808.967 3.92989 -0.487372 0
M  V30 8308 H 810.141 3.25186 -3.26482 0
M  V30 8309 H 808.456 3.04849 -2.83647 0
M  V30 8310 H 811.053 5.23021 -1.11143 0
M  V30 8311 H 811.396 4.15702 0.223085 0
M  V30 8312 H 811.929 3.71681 -1.41767 0
M  V30 8313 H 808.668 5.15668 -4.04682 0
M  V30 8314 H 808.188 5.50949 -2.37097 0
M  V30 8315 H 809.867 5.7848 -2.89775 0
M  V30 8316 N 809.999 0.752036 1.385 0
M  V30 8317 C 810.929 0.138718 2.33088 0
M  V30 8318 C 811.91 -0.705318 1.54788 0
M  V30 8319 O 813.095 -0.646821 1.83112 0
M  V30 8320 C 810.225 -0.75641 3.38963 0
M  V30 8321 C 809.179 -0.0152239 4.27997 0
M  V30 8322 C 808.505 -1.0285 5.24715 0
M  V30 8323 C 809.805 1.15226 5.09431 0
M  V30 8324 H 811.499 0.928852 2.84627 0
M  V30 8325 H 809.045 0.448111 1.3685 0
M  V30 8326 H 810.998 -1.19513 4.04097 0
M  V30 8327 H 809.722 -1.57885 2.85902 0
M  V30 8328 H 808.381 0.404061 3.64366 0
M  V30 8329 H 808.029 -1.84496 4.67943 0
M  V30 8330 H 807.729 -0.537238 5.85139 0
M  V30 8331 H 809.253 -1.46657 5.92726 0
M  V30 8332 H 810.667 0.791161 5.67815 0
M  V30 8333 H 809.064 1.57428 5.79082 0
M  V30 8334 H 810.134 1.9659 4.43261 0
M  V30 8335 N 811.477 -1.49425 0.500989 0
M  V30 8336 C 812.425 -2.30771 -0.291149 0
M  V30 8337 C 813.419 -1.3938 -0.962787 0
M  V30 8338 O 814.625 -1.56431 -0.890477 0
M  V30 8339 H 811 -0.743499 -0.11275 0
M  V30 8340 H 812.971 -2.95501 0.414917 0
M  V30 8341 C 811.72 -3.20725 -1.34279 0
M  V30 8342 H 811.043 -3.90975 -0.83538 0
M  V30 8343 H 812.483 -3.80583 -1.86903 0
M  V30 8344 C 810.942 -2.40334 -2.36095 0
M  V30 8345 O 811.472 -2.10749 -3.41976 0
M  V30 8346 N 809.678 -2.02359 -2.08565 0
M  V30 8347 H 809.225 -2.26619 -1.22482 0
M  V30 8348 H 809.183 -1.48878 -2.76916 0
M  V30 8349 N 812.955 -0.234822 -1.55841 0
M  V30 8350 C 814.18 0.400741 -2.03492 0
M  V30 8351 C 814.605 1.51618 -1.11327 0
M  V30 8352 O 813.963 1.81002 -0.103922 0
M  V30 8353 C 814.011 0.897184 -3.49261 0
M  V30 8354 O 813.115 2.00764 -3.60233 0
M  V30 8355 H 812.456 0.0890023 -0.658008 0
M  V30 8356 H 814.986 -0.357345 -2.01455 0
M  V30 8357 H 814.996 1.20356 -3.89844 0
M  V30 8358 H 813.671 0.0808639 -4.15821 0
M  V30 8359 H 812.248 1.70689 -3.31541 0
M  V30 8360 N 814.433 1.57553 0.0384317 0
M  V30 8361 C 815.366 2.01307 1.07475 0
M  V30 8362 C 816.344 0.895717 1.35704 0
M  V30 8363 O 817.528 1.16079 1.48519 0
M  V30 8364 C 814.655 2.37817 2.41165 0
M  V30 8365 C 813.701 3.599 2.28855 0
M  V30 8366 S 814.534 5.09418 1.65086 0
M  V30 8367 C 815.69 5.49162 3.00286 0
M  V30 8368 H 815.923 2.88892 0.702034 0
M  V30 8369 H 813.456 1.52394 0.248103 0
M  V30 8370 H 815.414 2.59524 3.18053 0
M  V30 8371 H 814.075 1.507 2.75587 0
M  V30 8372 H 813.268 3.83071 3.27525 0
M  V30 8373 H 812.87 3.37996 1.60109 0
M  V30 8374 H 815.162 5.49274 3.96617 0
M  V30 8375 H 816.105 6.49586 2.81858 0
M  V30 8376 H 816.513 4.76653 3.02427 0
M  V30 8377 N 815.911 -0.310526 1.54511 0
M  V30 8378 C 816.859 -1.40272 1.85544 0
M  V30 8379 C 817.853 -1.52941 0.728377 0
M  V30 8380 O 819.059 -1.55172 0.912234 0
M  V30 8381 H 815.434 -0.468355 0.588343 0
M  V30 8382 H 817.405 -1.11329 2.76855 0
M  V30 8383 C 816.154 -2.76279 2.11105 0
M  V30 8384 H 815.477 -2.67308 2.97298 0
M  V30 8385 H 816.917 -3.51736 2.36765 0
M  V30 8386 C 815.376 -3.24472 0.906618 0
M  V30 8387 O 815.906 -4.01514 0.122358 0
M  V30 8388 N 814.112 -2.81676 0.714632 0
M  V30 8389 H 813.659 -2.19143 1.35404 0
M  V30 8390 H 813.617 -3.14272 -0.089703 0
M  V30 8391 N 817.389 -1.46805 -0.573248 0
M  V30 8392 C 818.352 -1.57655 -1.66366 0
M  V30 8393 C 819.352 -0.452905 -1.5429 0
M  V30 8394 O 820.542 -0.717502 -1.58737 0
M  V30 8395 C 817.674 -1.50584 -3.05839 0
M  V30 8396 H 818.867 -2.54842 -1.581 0
M  V30 8397 H 816.42 -1.34756 -0.791868 0
M  V30 8398 H 817.155 -0.547127 -3.19651 0
M  V30 8399 H 816.94 -2.32118 -3.16012 0
M  V30 8400 H 818.43 -1.61282 -3.85199 0
M  V30 8401 N 818.867 0.818669 -1.34668 0
M  V30 8402 C 820.092 1.61193 -1.30505 0
M  V30 8403 C 820.517 1.87734 0.117341 0
M  V30 8404 O 819.875 1.45591 1.08042 0
M  V30 8405 C 819.923 2.92733 -2.1057 0
M  V30 8406 O 819.027 3.85 -1.47813 0
M  V30 8407 H 818.368 0.490085 -0.44801 0
M  V30 8408 H 820.898 1.01701 -1.77534 0
M  V30 8409 H 820.908 3.42262 -2.22082 0
M  V30 8410 H 819.583 2.7274 -3.13984 0
M  V30 8411 H 818.16 3.43525 -1.45069 0
M  V30 8412 N 820.346 1.18468 1.03938 0
M  V30 8413 C 821.276 0.936389 2.13902 0
M  V30 8414 C 822.257 -0.126381 1.6963 0
M  V30 8415 O 823.442 0.0264757 1.94182 0
M  V30 8416 C 820.572 0.462729 3.44204 0
M  V30 8417 C 819.526 1.46613 4.02105 0
M  V30 8418 C 818.852 0.84994 5.27902 0
M  V30 8419 C 820.152 2.84323 4.3813 0
M  V30 8420 H 821.846 1.85602 2.3493 0
M  V30 8421 H 819.392 0.893806 1.12903 0
M  V30 8422 H 821.345 0.276382 4.20493 0
M  V30 8423 H 820.069 -0.492477 3.22866 0
M  V30 8424 H 818.728 1.63944 3.27899 0
M  V30 8425 H 818.376 -0.112493 5.02874 0
M  V30 8426 H 818.076 1.51988 5.67603 0
M  V30 8427 H 819.6 0.674152 6.06867 0
M  V30 8428 H 821.014 2.70636 5.054 0
M  V30 8429 H 819.411 3.48012 4.88884 0
M  V30 8430 H 820.481 3.37776 3.47901 0
M  V30 8431 N 821.824 -1.22873 0.986916 0
M  V30 8432 C 823.072 -1.91084 0.658121 0
M  V30 8433 C 823.393 -1.77304 -0.811675 0
M  V30 8434 O 822.663 -1.15649 -1.58121 0
M  V30 8435 H 821.243 -0.707251 0.240427 0
M  V30 8436 H 823.905 -1.49357 1.25213 0
M  V30 8437 H 823.001 -2.98373 0.915428 0
M  V30 8438 N 823.302 -0.75937 -1.38099 0
M  V30 8439 C 824.25 -0.124954 -2.32264 0
M  V30 8440 C 825.244 0.698863 -1.54312 0
M  V30 8441 O 826.45 0.597312 -1.698 0
M  V30 8442 H 822.825 -0.0216142 -0.751689 0
M  V30 8443 H 824.796 -0.935115 -2.83369 0
M  V30 8444 C 823.545 0.749463 -3.39527 0
M  V30 8445 H 822.868 0.124932 -3.99605 0
M  V30 8446 H 824.308 1.16055 -4.07808 0
M  V30 8447 C 822.767 1.89464 -2.78577 0
M  V30 8448 O 823.297 2.98923 -2.68343 0
M  V30 8449 N 821.503 1.69145 -2.36301 0
M  V30 8450 H 821.05 0.801157 -2.44825 0
M  V30 8451 H 821.008 2.45936 -1.95864 0
M  V30 8452 N 824.78 1.49157 -0.508906 0
M  V30 8453 C 826.005 2.07376 0.0315182 0
M  V30 8454 C 826.43 1.36575 1.2934 0
M  V30 8455 O 825.788 0.424963 1.76249 0
M  V30 8456 C 825.836 3.59661 0.260118 0
M  V30 8457 O 824.94 3.90255 1.33322 0
M  V30 8458 H 824.281 0.663334 -0.029739 0
M  V30 8459 H 826.811 1.91857 -0.710791 0
M  V30 8460 H 826.821 4.05056 0.489225 0
M  V30 8461 H 825.496 4.10601 -0.661794 0
M  V30 8462 H 824.073 3.56661 1.08844 0
M  V30 8463 N 826.258 0.243083 1.55714 0
M  V30 8464 C 827.221 -0.644723 2.19945 0
M  V30 8465 C 828.221 -1.10562 1.16759 0
M  V30 8466 O 829.411 -1.01095 1.41865 0
M  V30 8467 C 826.543 -1.88569 2.83997 0
M  V30 8468 H 827.736 -0.0843839 2.99781 0
M  V30 8469 H 825.289 -0.00647246 1.56299 0
M  V30 8470 H 826.024 -2.48736 2.08089 0
M  V30 8471 H 825.809 -1.56345 3.59581 0
M  V30 8472 H 827.299 -2.51774 3.33166 0
M  V30 8473 N 827.736 -1.57571 -0.0300757 0
M  V30 8474 C 828.984 -1.88852 -0.719666 0
M  V30 8475 C 829.305 -0.840645 -1.75949 0
M  V30 8476 O 828.575 0.125854 -1.95495 0
M  V30 8477 H 827.155 -0.696965 -0.268792 0
M  V30 8478 H 829.817 -1.949 0.00373285 0
M  V30 8479 H 828.913 -2.87695 -1.20987 0
M  V30 8480 N 829.214 0.302327 -1.54673 0
M  V30 8481 C 830.46 1.03924 -1.74149 0
M  V30 8482 C 830.793 1.86968 -0.525041 0
M  V30 8483 O 830.068 1.88538 0.477868 0
M  V30 8484 C 830.351 1.94633 -3.02969 0
M  V30 8485 C 830.204 1.14778 -4.34909 0
M  V30 8486 C 831.523 2.93826 -3.27649 0
M  V30 8487 H 828.642 0.376405 -0.633631 0
M  V30 8488 H 831.284 0.314007 -1.87387 0
M  V30 8489 H 829.434 2.56471 -2.91813 0
M  V30 8490 H 831.106 0.552363 -4.57981 0
M  V30 8491 H 829.349 0.450462 -4.31455 0
M  V30 8492 H 830.02 1.81495 -5.21309 0
M  V30 8493 H 832.496 2.42117 -3.38406 0
M  V30 8494 H 831.372 3.54462 -4.19104 0
M  V30 8495 H 831.633 3.67416 -2.45882 0
M  V30 8496 N 830.692 1.47107 0.565454 0
M  V30 8497 C 831.624 1.55024 1.6882 0
M  V30 8498 C 832.637 0.4371 1.56822 0
M  V30 8499 O 833.826 0.706315 1.63931 0
M  V30 8500 C 830.926 1.43069 3.0722 0
M  V30 8501 C 830.099 2.68807 3.45053 0
M  V30 8502 C 829.158 2.50806 4.62583 0
M  V30 8503 O 828.184 3.24593 4.67577 0
M  V30 8504 N 829.386 1.58093 5.58558 0
M  V30 8505 H 832.151 2.51836 1.62477 0
M  V30 8506 H 829.712 1.43382 0.751885 0
M  V30 8507 H 831.704 1.28773 3.83666 0
M  V30 8508 H 830.274 0.543721 3.07835 0
M  V30 8509 H 829.494 2.97923 2.58138 0
M  V30 8510 H 830.782 3.52298 3.67101 0
M  V30 8511 H 830.18 0.972807 5.57273 0
M  V30 8512 H 828.737 1.49753 6.34364 0
M  V30 8513 O 832.209 -0.709987 1.45057 0
M  V30 8514 H 832.9 -1.36112 1.37816 0
M  V30 END ATOM
M  V30 BEGIN BOND
M  V30 END BOND
M  V30 END CTAB
M  END
$$$$
