drugbank_target|P07355 Annexin A2 (DB00031; DB00591; DB06245; DB11638)
 OpenBabel12092119493D

  0  0  0     0  0            999 V3000
M  V30 BEGIN CTAB
M  V30 COUNTS 5450 5488 0 0 0
M  V30 BEGIN ATOM
M  V30 1 H -0.908 1.98254 -0.117106 0
M  V30 2 N 0 1.576 0 0
M  V30 3 C 0.933 2.03868 1.02534 0
M  V30 4 C 1.911 0.928543 1.3348 0
M  V30 5 O 3.095 1.19667 1.45644 0
M  V30 6 C 0.222 2.43627 2.35294 0
M  V30 7 C -0.732 3.65373 2.2001 0
M  V30 8 S 0.101 5.13292 1.52614 0
M  V30 9 C 1.257 5.56322 2.86805 0
M  V30 10 H 1.49 2.90518 0.631377 0
M  V30 11 H -0.977 1.52953 0.210867 0
M  V30 12 H 0.981 2.67203 3.11629 0
M  V30 13 H -0.358 1.57376 2.7183 0
M  V30 14 H -1.165 3.90944 3.18086 0
M  V30 15 H -1.563 3.418 1.51819 0
M  V30 16 H 0.729 5.58782 3.83104 0
M  V30 17 H 1.672 6.56266 2.65933 0
M  V30 18 H 2.08 4.83886 2.90714 0
M  V30 19 N 1.4781 -0.272755 1.55222 0
M  V30 20 C 2.7031 -1.02683 1.80197 0
M  V30 21 C 3.1281 -1.79142 0.573551 0
M  V30 22 O 2.4861 -1.74917 -0.476849 0
M  V30 23 C 2.5341 -1.9609 3.02624 0
M  V30 24 O 1.6381 -3.04863 2.77727 0
M  V30 25 H 0.9791 -0.293557 0.595584 0
M  V30 26 H 3.5091 -0.30159 2.02365 0
M  V30 27 H 3.5191 -2.38039 3.31363 0
M  V30 28 H 2.1941 -1.39851 3.91682 0
M  V30 29 H 0.7711 -2.67228 2.60084 0
M  V30 30 N 2.9562 -1.48159 -0.537278 0
M  V30 31 C 4.1842 -1.59454 -1.31841 0
M  V30 32 C 4.5992 -0.252065 -1.8711 0
M  V30 33 O 3.9562 0.757621 -1.66031 0
M  V30 34 C 4.0072 -2.63546 -2.47439 0
M  V30 35 O 3.7282 -3.92583 -1.94449 0
M  V30 36 C 5.2292 -2.85212 -3.39366 0
M  V30 37 H 2.4492 -0.53785 -0.401196 0
M  V30 38 H 4.9932 -1.93932 -0.648891 0
M  V30 39 H 3.1482 -2.31946 -3.1029 0
M  V30 40 H 3.5622 -4.49629 -2.70063 0
M  V30 41 H 5.0362 -3.61863 -4.16844 0
M  V30 42 H 5.5132 -1.93765 -3.94147 0
M  V30 43 H 6.1192 -3.18086 -2.82314 0
M  V30 44 N 4.4343 0.785586 -1.36625 0
M  V30 45 C 5.6803 1.54591 -1.31261 0
M  V30 46 C 6.0133 1.93906 0.106823 0
M  V30 47 O 5.2883 1.63007 1.06108 0
M  V30 48 C 5.5713 2.82038 -2.23889 0
M  V30 49 C 5.4243 2.49066 -3.74548 0
M  V30 50 C 6.7433 3.83887 -2.15217 0
M  V30 51 H 3.8623 0.560846 -0.478143 0
M  V30 52 H 6.5043 0.902278 -1.67209 0
M  V30 53 H 4.6543 3.36961 -1.93363 0
M  V30 54 H 6.3263 2.00164 -4.15611 0
M  V30 55 H 4.5693 1.81954 -3.93796 0
M  V30 56 H 5.2403 3.40109 -4.34776 0
M  V30 57 H 7.7163 3.38421 -2.42096 0
M  V30 58 H 6.5923 4.70806 -2.82193 0
M  V30 59 H 6.8533 4.27131 -1.14068 0
M  V30 60 N 5.9124 1.20967 1.01018 0
M  V30 61 C 6.8624 0.93182 2.08089 0
M  V30 62 C 7.8464 -0.110898 1.60517 0
M  V30 63 O 9.0384 0.0973392 1.76732 0
M  V30 64 C 6.1674 0.492719 3.39746 0
M  V30 65 C 5.2534 1.56922 3.94 0
M  V30 66 N 5.6444 2.79312 4.21686 0
M  V30 67 C 3.9424 1.43688 4.2222 0
M  V30 68 C 4.6434 3.48797 4.65527 0
M  V30 69 N 3.6194 2.76224 4.68189 0
M  V30 70 H 7.4214 1.86175 2.27412 0
M  V30 71 H 4.9354 1.10463 1.19045 0
M  V30 72 H 6.9324 0.275044 4.15992 0
M  V30 73 H 5.5924 -0.430509 3.21833 0
M  V30 74 H 6.6034 3.15903 4.10397 0
M  V30 75 H 3.2804 0.578548 4.13472 0
M  V30 76 H 4.6704 4.53561 4.95714 0
M  V30 77 N 7.3905 -1.2043 1.01659 0
M  V30 78 C 8.3005 -2.2689 0.596484 0
M  V30 79 C 9.3165 -1.70107 -0.36599 0
M  V30 80 O 10.4925 -2.00117 -0.226942 0
M  V30 81 C 7.5575 -3.4665 -0.0586659 0
M  V30 82 C 6.6185 -4.18662 0.949751 0
M  V30 83 C 5.8515 -5.32705 0.32577 0
M  V30 84 O 6.0745 -5.63656 -0.874509 0
M  V30 85 O 5.0085 -5.92803 1.04249 0
M  V30 86 H 8.8345 -2.65041 1.4828 0
M  V30 87 H 6.4195 -1.27048 0.786082 0
M  V30 88 H 8.3015 -4.19256 -0.424564 0
M  V30 89 H 6.9765 -3.10375 -0.91918 0
M  V30 90 H 5.8835 -3.48229 1.36702 0
M  V30 91 H 7.2165 -4.58878 1.78023 0
M  V30 92 N 8.8686 -0.792821 -1.36206 0
M  V30 93 C 10.1176 -0.363353 -1.984 0
M  V30 94 C 10.4306 1.07172 -1.63626 0
M  V30 95 O 11.6366 1.60362 -2.19081 0
M  V30 96 C 10.0926 -0.59872 -3.54885 0
M  V30 97 C 9.7006 -2.04543 -3.9858 0
M  V30 98 C 11.4446 -0.233926 -4.23855 0
M  V30 99 C 9.3516 -2.22727 -5.47856 0
M  V30 100 H 8.2816 -0.13212 -0.742334 0
M  V30 101 H 10.9326 -0.974935 -1.55458 0
M  V30 102 H 9.3146 0.0826222 -3.95914 0
M  V30 103 H 10.4886 -2.76345 -3.68741 0
M  V30 104 H 8.8036 -2.36879 -3.42458 0
M  V30 105 H 11.4006 -0.348027 -5.33566 0
M  V30 106 H 11.7436 0.818351 -4.08177 0
M  V30 107 H 12.2766 -0.868639 -3.882 0
M  V30 108 H 9.0156 -3.2635 -5.68486 0
M  V30 109 H 8.5356 -1.55434 -5.7931 0
M  V30 110 H 10.2146 -2.03607 -6.14128 0
M  V30 111 N 10.3467 1.47872 -0.545128 0
M  V30 112 C 11.2767 2.32661 0.197793 0
M  V30 113 C 12.2577 1.43041 0.920504 0
M  V30 114 O 13.4427 1.71912 0.90333 0
M  V30 115 C 10.5727 3.24569 1.23582 0
M  V30 116 C 9.5267 4.23333 0.630323 0
M  V30 117 C 8.8527 5.0448 1.77211 0
M  V30 118 C 10.1527 5.20704 -0.407974 0
M  V30 119 H 11.8467 2.95024 -0.510045 0
M  V30 120 H 9.3927 1.4187 -0.246731 0
M  V30 121 H 11.3457 3.8272 1.76362 0
M  V30 122 H 10.0697 2.60236 1.97344 0
M  V30 123 H 8.7287 3.6639 0.123922 0
M  V30 124 H 8.3767 4.36561 2.49847 0
M  V30 125 H 8.0767 5.71339 1.37281 0
M  V30 126 H 9.6007 5.65487 2.3034 0
M  V30 127 H 11.0147 5.7329 0.033305 0
M  V30 128 H 9.4117 5.95699 -0.725486 0
M  V30 129 H 10.4817 4.66917 -1.30828 0
M  V30 130 N 11.8248 0.280983 1.55075 0
M  V30 131 C 13.0648 -0.335234 2.01632 0
M  V30 132 C 13.4288 -1.5261 1.16508 0
M  V30 133 O 14.6298 -2.21235 1.52672 0
M  V30 134 C 12.9008 -0.702172 3.50434 0
M  V30 135 S 14.4598 -1.30409 4.18974 0
M  V30 136 H 11.2778 -0.103967 0.703358 0
M  V30 137 H 13.8798 0.404187 1.91276 0
M  V30 138 H 12.5838 0.17333 4.10034 0
M  V30 139 H 12.1148 -1.4729 3.64786 0
M  V30 140 H 14.1298 -2.59253 4.23087 0
M  V30 141 N 13.3029 -1.57598 0.00835791 0
M  V30 142 C 14.2499 -2.08945 -0.980346 0
M  V30 143 C 15.2199 -0.986738 -1.33614 0
M  V30 144 O 16.4049 -1.25968 -1.43306 0
M  V30 145 C 13.5449 -2.60425 -2.26435 0
M  V30 146 C 12.6579 -3.84628 -1.96685 0
M  V30 147 C 11.7929 -4.24579 -3.19228 0
M  V30 148 C 10.8319 -5.41596 -2.85202 0
M  V30 149 N 9.9689 -5.768 -4.00307 0
M  V30 150 H 14.8089 -2.93148 -0.535551 0
M  V30 151 H 12.3459 -1.44912 -0.252776 0
M  V30 152 H 14.3039 -2.88354 -3.01509 0
M  V30 153 H 12.9339 -1.79083 -2.68568 0
M  V30 154 H 11.9859 -3.63556 -1.11942 0
M  V30 155 H 13.2979 -4.69796 -1.67611 0
M  V30 156 H 12.4519 -4.53834 -4.02641 0
M  V30 157 H 11.1909 -3.38137 -3.51447 0
M  V30 158 H 10.1959 -5.12056 -2.00198 0
M  V30 159 H 11.4209 -6.29721 -2.54222 0
M  V30 160 H 9.3669 -4.93316 -4.32407 0
M  V30 161 H 9.2839 -6.5656 -3.74786 0
M  V30 162 H 10.5519 -6.10652 -4.84484 0
M  V30 163 N 14.781 0.264519 -1.55364 0
M  V30 164 C 15.711 1.33121 -1.91836 0
M  V30 165 C 16.692 1.51101 -0.781192 0
M  V30 166 O 17.877 1.64003 -1.04003 0
M  V30 167 C 15.007 2.68921 -2.19769 0
M  V30 168 C 13.961 2.65661 -3.35571 0
M  V30 169 C 13.287 4.05093 -3.49004 0
M  V30 170 C 14.587 2.24187 -4.71739 0
M  V30 171 H 16.281 1.02844 -2.81182 0
M  V30 172 H 13.827 0.493286 -1.35287 0
M  V30 173 H 15.78 3.43663 -2.43872 0
M  V30 174 H 14.504 3.00799 -1.27231 0
M  V30 175 H 13.163 1.93377 -3.1145 0
M  V30 176 H 12.811 4.34206 -2.53917 0
M  V30 177 H 12.511 4.03804 -4.26868 0
M  V30 178 H 14.035 4.81561 -3.75408 0
M  V30 179 H 15.449 2.88654 -4.9533 0
M  V30 180 H 13.846 2.34044 -5.52579 0
M  V30 181 H 14.916 1.19327 -4.69988 0
M  V30 182 N 16.2591 1.48442 0.529413 0
M  V30 183 C 17.4841 1.60406 1.31471 0
M  V30 184 C 17.9091 0.264738 1.86228 0
M  V30 185 O 17.2671 -0.763668 1.64432 0
M  V30 186 C 17.3151 2.65419 2.44101 0
M  V30 187 O 16.4191 2.22618 3.47153 0
M  V30 188 H 15.7601 0.537863 0.389357 0
M  V30 189 H 18.2901 1.94432 0.636965 0
M  V30 190 H 18.3001 2.86709 2.90279 0
M  V30 191 H 16.9751 3.62652 2.03608 0
M  V30 192 H 15.5521 2.11543 3.0709 0
M  V30 193 N 17.7372 -0.778329 1.37039 0
M  V30 194 C 18.6672 -1.90546 1.34962 0
M  V30 195 C 19.6482 -1.68681 0.219274 0
M  V30 196 O 20.8332 -1.89634 0.418624 0
M  V30 197 C 17.9632 -3.27734 1.14925 0
M  V30 198 C 16.9172 -3.64147 2.24902 0
M  V30 199 C 16.2432 -4.99806 1.89996 0
M  V30 200 C 17.5432 -3.71579 3.67051 0
M  V30 201 H 19.2372 -1.92541 2.29277 0
M  V30 202 H 16.7832 -0.924948 1.10366 0
M  V30 203 H 18.7362 -4.06215 1.12104 0
M  V30 204 H 17.4602 -3.26154 0.170631 0
M  V30 205 H 16.1192 -2.8797 2.26868 0
M  V30 206 H 15.7672 -4.94759 0.906796 0
M  V30 207 H 15.4672 -5.25139 2.63634 0
M  V30 208 H 16.9912 -5.80694 1.88749 0
M  V30 209 H 18.4052 -4.40227 3.67251 0
M  V30 210 H 16.8022 -4.08405 4.39688 0
M  V30 211 H 17.8722 -2.72404 4.01154 0
M  V30 212 N 19.2153 -1.21501 -1.00376 0
M  V30 213 C 20.1253 -0.991447 -2.12621 0
M  V30 214 C 21.1413 0.0568446 -1.73907 0
M  V30 215 O 22.3173 -0.13348 -2.00957 0
M  V30 216 C 19.3823 -0.560312 -3.42142 0
M  V30 217 C 18.4433 -1.68096 -3.95022 0
M  V30 218 C 17.6763 -1.2703 -5.18362 0
M  V30 219 O 17.8993 -0.144438 -5.70217 0
M  V30 220 O 16.8333 -2.08269 -5.64719 0
M  V30 221 H 20.6593 -1.93158 -2.34358 0
M  V30 222 H 18.2443 -0.999999 -1.10997 0
M  V30 223 H 20.1263 -0.329724 -4.20108 0
M  V30 224 H 18.8013 0.351089 -3.2179 0
M  V30 225 H 17.7083 -1.96597 -3.18278 0
M  V30 226 H 19.0413 -2.56983 -4.19786 0
M  V30 227 N 20.6934 1.19889 -1.02296 0
M  V30 228 C 21.9414 1.89046 -0.714558 0
M  V30 229 C 22.2624 1.79636 0.758681 0
M  V30 230 O 21.5324 1.20292 1.54618 0
M  V30 231 H 20.1124 0.699802 -0.261317 0
M  V30 232 H 22.7744 1.45574 -1.29592 0
M  V30 233 H 21.8704 2.95524 -1.0036 0
M  V30 234 N 22.1715 0.800033 1.35784 0
M  V30 235 C 23.4485 0.30088 1.93272 0
M  V30 236 C 23.8285 -1.20857 1.73081 0
M  V30 237 O 23.1765 -2.00502 1.09596 0
M  V30 238 C 23.3865 0.70511 3.41803 0
M  V30 239 C 24.7345 0.690871 4.18942 0
M  V30 240 O 25.7585 0.646244 3.50289 0
M  V30 241 O 24.6175 0.74332 5.41421 0
M  V30 242 H 21.7115 0.0771605 0.823393 0
M  V30 243 H 24.2575 0.88329 1.449 0
M  V30 244 H 23.0295 1.74571 3.50201 0
M  V30 245 H 22.6525 0.0971541 3.97481 0
M  V30 246 N 23.6496 -1.47581 0.552962 0
M  V30 247 C 24.5996 -2.26961 -0.217423 0
M  V30 248 C 25.5836 -1.34099 -0.889168 0
M  V30 249 O 26.7756 -1.58483 -0.788176 0
M  V30 250 C 23.9046 -3.19756 -1.24944 0
M  V30 251 C 22.9906 -4.20097 -0.581327 0
M  V30 252 N 23.3816 -5.04614 0.346171 0
M  V30 253 C 21.6796 -4.38099 -0.835767 0
M  V30 254 C 22.3806 -5.77052 0.733854 0
M  V30 255 N 21.3566 -5.43526 0.0896567 0
M  V30 256 H 25.1586 -2.89688 0.495761 0
M  V30 257 H 22.6726 -1.58068 0.372597 0
M  V30 258 H 24.6696 -3.75305 -1.81527 0
M  V30 259 H 23.3296 -2.58585 -1.96376 0
M  V30 260 H 24.3406 -5.12869 0.720098 0
M  V30 261 H 21.0176 -3.88102 -1.53892 0
M  V30 262 H 22.4076 -6.5504 1.49574 0
M  V30 263 N 25.1277 -0.289203 -1.54924 0
M  V30 264 C 26.3527 0.329299 -2.04769 0
M  V30 265 C 26.7777 1.4763 -1.16564 0
M  V30 266 O 26.1357 1.80527 -0.167186 0
M  V30 267 C 26.1837 0.774438 -3.52186 0
M  V30 268 O 25.2877 1.88038 -3.67036 0
M  V30 269 H 24.6287 0.0659259 -0.660719 0
M  V30 270 H 27.1587 -0.42761 -2.00082 0
M  V30 271 H 27.1687 1.06642 -3.93816 0
M  V30 272 H 25.8437 -0.0646707 -4.1585 0
M  V30 273 H 24.4207 1.58985 -3.3731 0
M  V30 274 N 26.6058 1.57591 -0.0167156 0
M  V30 275 C 27.8338 1.95575 0.675128 0
M  V30 276 C 28.2488 0.892542 1.6637 0
M  V30 277 O 27.6058 -0.126912 1.82058 0
M  V30 278 C 27.6568 3.33608 1.39239 0
M  V30 279 O 27.3778 4.3585 0.443444 0
M  V30 280 C 28.8788 3.86151 2.17721 0
M  V30 281 H 26.0988 0.644423 0.186978 0
M  V30 282 H 28.6428 2.0437 -0.0728 0
M  V30 283 H 26.7978 3.2607 2.09182 0
M  V30 284 H 27.2118 5.158 0.951358 0
M  V30 285 H 28.6858 4.85114 2.63379 0
M  V30 286 H 29.1628 3.19738 3.01105 0
M  V30 287 H 29.7688 3.96918 1.52761 0
M  V30 288 N 28.0839 -0.256276 1.55502 0
M  V30 289 C 29.4949 -0.826068 1.67431 0
M  V30 290 C 29.8459 -1.86396 0.612446 0
M  V30 291 O 28.9709 -2.15031 -0.243025 0
M  V30 292 C 29.5659 -1.50512 3.03532 0
M  V30 293 C 28.1249 -2.02273 3.17431 0
M  V30 294 C 27.2719 -0.870548 2.63281 0
M  V30 295 H 30.2229 -0.0322728 1.58667 0
M  V30 296 H 30.2439 -2.37279 2.97454 0
M  V30 297 H 29.7559 -0.749484 3.80794 0
M  V30 298 H 27.8569 -2.80746 2.44974 0
M  V30 299 H 27.9699 -2.22655 4.24219 0
M  V30 300 H 26.3339 -1.26851 2.20864 0
M  V30 301 H 27.1169 -0.128149 3.43061 0
M  V30 302 N 29.562 -1.4872 -0.521534 0
M  V30 303 C 30.973 -1.50607 -1.10337 0
M  V30 304 C 31.324 -0.280612 -1.94183 0
M  V30 305 O 30.449 0.611507 -2.0758 0
M  V30 306 C 31.044 -2.72903 -2.00772 0
M  V30 307 C 29.603 -2.77634 -2.54158 0
M  V30 308 C 28.75 -2.44241 -1.31307 0
M  V30 309 H 31.701 -1.55714 -0.306388 0
M  V30 310 H 31.722 -2.519 -2.85178 0
M  V30 311 H 31.234 -3.62077 -1.39721 0
M  V30 312 H 29.335 -1.92689 -3.18907 0
M  V30 313 H 29.448 -3.79283 -2.92714 0
M  V30 314 H 27.812 -1.95577 -1.63161 0
M  V30 315 H 28.595 -3.35666 -0.719943 0
M  V30 316 N 31.0401 0.771051 -1.3745 0
M  V30 317 C 32.2651 1.56529 -1.36065 0
M  V30 318 C 32.6901 1.88029 0.0515859 0
M  V30 319 O 32.0481 1.49282 1.02882 0
M  V30 320 C 32.0961 2.85187 -2.20683 0
M  V30 321 O 31.2001 3.79593 -1.61193 0
M  V30 322 H 30.5411 0.47411 -0.464883 0
M  V30 323 H 33.0711 0.954269 -1.80983 0
M  V30 324 H 33.0811 3.34283 -2.33921 0
M  V30 325 H 31.7561 2.61588 -3.23334 0
M  V30 326 H 30.3331 3.38239 -1.56999 0
M  V30 327 N 32.5182 1.22032 0.997298 0
M  V30 328 C 33.4812 0.987909 2.06816 0
M  V30 329 C 34.4812 -0.0440084 1.6074 0
M  V30 330 O 35.6712 0.194053 1.73116 0
M  V30 331 C 32.8032 0.49132 3.37341 0
M  V30 332 H 33.9962 1.93803 2.28868 0
M  V30 333 H 31.5492 1.03838 1.16822 0
M  V30 334 H 32.2842 -0.463364 3.20973 0
M  V30 335 H 32.0692 1.23575 3.72118 0
M  V30 336 H 33.5592 0.348824 4.16141 0
M  V30 337 N 33.9963 -1.19345 1.0293 0
M  V30 338 C 35.2263 -1.92717 0.744563 0
M  V30 339 C 35.6343 -1.75751 -0.700579 0
M  V30 340 O 34.9773 -1.07703 -1.48815 0
M  V30 341 C 35.0393 -3.44828 1.01657 0
M  V30 342 C 34.7033 -3.85564 2.45335 0
M  V30 343 C 35.7003 -3.90286 3.43472 0
M  V30 344 C 33.3853 -4.1719 2.79746 0
M  V30 345 C 35.3793 -4.26065 4.74075 0
M  V30 346 C 33.0663 -4.52642 4.10559 0
M  V30 347 C 34.0643 -4.57054 5.07534 0
M  V30 348 O 33.7523 -4.91685 6.36004 0
M  V30 349 H 33.4843 -0.618977 0.271742 0
M  V30 350 H 36.0383 -1.52415 1.37691 0
M  V30 351 H 34.2683 -3.85314 0.327084 0
M  V30 352 H 35.9573 -3.99437 0.721427 0
M  V30 353 H 36.7233 -3.66002 3.18225 0
M  V30 354 H 32.6023 -4.1294 2.04943 0
M  V30 355 H 36.1463 -4.29423 5.49765 0
M  V30 356 H 32.0433 -4.76383 4.35579 0
M  V30 357 H 32.8113 -5.09631 6.40483 0
M  V30 358 N 35.4744 -0.807222 -1.35358 0
M  V30 359 C 36.7224 -0.387122 -1.98358 0
M  V30 360 C 37.0434 1.04942 -1.64354 0
M  V30 361 O 36.3134 1.72615 -0.926339 0
M  V30 362 H 34.8934 -0.140154 -0.733734 0
M  V30 363 H 37.5554 -1.0332 -1.6526 0
M  V30 364 H 36.6514 -0.493352 -3.08176 0
M  V30 365 N 36.9525 1.47285 -0.560781 0
M  V30 366 C 38.1775 2.07359 -0.0410566 0
M  V30 367 C 38.6025 1.41017 1.24483 0
M  V30 368 O 37.9605 0.486368 1.74654 0
M  V30 369 C 38.0085 3.6035 0.134123 0
M  V30 370 O 37.1125 3.94681 1.19587 0
M  V30 371 H 36.4535 0.661887 -0.0529291 0
M  V30 372 H 38.9835 1.89252 -0.777482 0
M  V30 373 H 38.9935 4.0652 0.347207 0
M  V30 374 H 37.6685 4.08034 -0.805047 0
M  V30 375 H 36.2455 3.60251 0.962987 0
M  V30 376 N 38.4306 0.297415 1.54768 0
M  V30 377 C 39.6766 -0.313376 2.00364 0
M  V30 378 C 40.0096 -1.53815 1.18553 0
M  V30 379 O 39.2846 -1.92739 0.261103 0
M  V30 380 C 39.5676 -0.673525 3.53745 0
M  V30 381 C 39.4206 0.560133 4.46299 0
M  V30 382 C 40.7396 -1.50143 4.13697 0
M  V30 383 H 37.8586 -0.112428 0.728374 0
M  V30 384 H 40.5006 0.4088 1.8555 0
M  V30 385 H 38.6506 -1.28881 3.665 0
M  V30 386 H 40.3226 1.19863 4.45455 0
M  V30 387 H 38.5656 1.19405 4.17043 0
M  V30 388 H 39.2366 0.26405 5.51368 0
M  V30 389 H 41.7126 -0.981588 4.04356 0
M  V30 390 H 40.5886 -1.72221 5.21182 0
M  V30 391 H 40.8496 -2.48952 3.65343 0
M  V30 392 N 39.9087 -1.5758 0.0250728 0
M  V30 393 C 40.8557 -2.09973 -0.958129 0
M  V30 394 C 41.8257 -1.00085 -1.3256 0
M  V30 395 O 43.0107 -1.27481 -1.41962 0
M  V30 396 C 40.1507 -2.62812 -2.2366 0
M  V30 397 C 39.2637 -3.86693 -1.92594 0
M  V30 398 C 38.3987 -4.27941 -3.14707 0
M  V30 399 C 37.4377 -5.44591 -2.79442 0
M  V30 400 N 36.5747 -5.81014 -3.94167 0
M  V30 401 H 41.4147 -2.937 -0.504428 0
M  V30 402 H 38.9517 -1.45172 -0.237392 0
M  V30 403 H 40.9097 -2.91536 -2.98434 0
M  V30 404 H 39.5397 -1.81922 -2.66654 0
M  V30 405 H 38.5917 -3.64723 -1.0808 0
M  V30 406 H 39.9037 -4.71547 -1.62619 0
M  V30 407 H 39.0577 -4.58079 -3.97804 0
M  V30 408 H 37.7967 -3.41845 -3.4784 0
M  V30 409 H 36.8017 -5.1415 -1.94755 0
M  V30 410 H 38.0267 -6.32382 -2.47528 0
M  V30 411 H 35.9727 -4.97874 -4.2715 0
M  V30 412 H 35.8897 -6.60498 -3.67801 0
M  V30 413 H 37.1577 -6.15756 -4.7798 0
M  V30 414 N 41.3868 0.248026 -1.55636 0
M  V30 415 C 42.3498 1.29044 -1.89421 0
M  V30 416 C 43.3498 1.41134 -0.770581 0
M  V30 417 O 44.5398 1.39854 -1.03858 0
M  V30 418 C 41.6718 2.66831 -2.12165 0
M  V30 419 H 42.8648 1.00305 -2.82629 0
M  V30 420 H 40.4178 0.487265 -1.48511 0
M  V30 421 H 41.1528 3.00711 -1.21422 0
M  V30 422 H 40.9378 2.59438 -2.93997 0
M  V30 423 H 42.4278 3.42103 -2.3949 0
M  V30 424 N 42.8649 1.48995 0.513639 0
M  V30 425 C 44.0949 1.61297 1.291 0
M  V30 426 C 44.5029 0.278656 1.87137 0
M  V30 427 O 43.8459 -0.744325 1.67945 0
M  V30 428 C 43.9079 2.61326 2.46879 0
M  V30 429 C 43.5719 4.05993 2.09807 0
M  V30 430 C 44.5689 4.93183 1.64519 0
M  V30 431 C 42.2539 4.51642 2.19829 0
M  V30 432 C 44.2479 6.24056 1.2974 0
M  V30 433 C 41.9349 5.82532 1.84662 0
M  V30 434 C 42.9329 6.68562 1.3969 0
M  V30 435 O 42.6209 7.97014 1.04992 0
M  V30 436 H 42.3529 0.546236 0.39825 0
M  V30 437 H 44.9069 1.95673 0.62459 0
M  V30 438 H 43.1369 2.22104 3.16554 0
M  V30 439 H 44.8259 2.6329 3.08923 0
M  V30 440 H 45.5919 4.59147 1.56233 0
M  V30 441 H 41.4709 3.84855 2.53786 0
M  V30 442 H 45.0149 6.91161 0.945659 0
M  V30 443 H 40.9119 6.16099 1.92594 0
M  V30 444 H 41.6799 8.09913 1.18249 0
M  V30 445 N 44.343 -0.763751 1.37857 0
M  V30 446 C 45.571 -1.55293 1.36718 0
M  V30 447 C 45.986 -1.88745 -0.0455434 0
M  V30 448 O 45.343 -1.52039 -1.00947 0
M  V30 449 C 45.394 -2.85831 2.2132 0
M  V30 450 O 45.115 -2.5381 3.57089 0
M  V30 451 C 46.616 -3.80023 2.28249 0
M  V30 452 H 43.836 -0.480841 0.468009 0
M  V30 453 H 46.38 -0.946009 1.81303 0
M  V30 454 H 44.535 -3.42926 1.80223 0
M  V30 455 H 44.949 -3.37459 4.01524 0
M  V30 456 H 46.423 -4.68599 2.91752 0
M  V30 457 H 46.9 -4.1973 1.2932 0
M  V30 458 H 47.506 -3.28855 2.69693 0
M  V30 459 N 45.8211 -1.22559 -0.990812 0
M  V30 460 C 46.7691 -0.994798 -2.10253 0
M  V30 461 C 47.7631 0.0627798 -1.69284 0
M  V30 462 O 48.9691 -0.0898392 -1.79776 0
M  V30 463 H 45.3441 -0.304527 -0.687581 0
M  V30 464 H 47.3151 -1.93812 -2.26891 0
M  V30 465 C 46.0641 -0.591439 -3.42633 0
M  V30 466 H 45.3871 -1.3969 -3.74602 0
M  V30 467 H 46.8271 -0.469385 -4.21394 0
M  V30 468 C 45.2861 0.699232 -3.29564 0
M  V30 469 O 45.8161 1.75112 -3.61523 0
M  V30 470 N 44.0221 0.671182 -2.82743 0
M  V30 471 H 43.5691 -0.185136 -2.56934 0
M  V30 472 H 43.5271 1.53502 -2.7438 0
M  V30 473 N 47.2992 1.18797 -1.03562 0
M  V30 474 C 48.5462 1.8865 -0.736023 0
M  V30 475 C 48.8742 1.80041 0.735889 0
M  V30 476 O 48.1292 1.19179 1.55225 0
M  V30 477 C 48.4282 3.38692 -1.14117 0
M  V30 478 C 48.0942 3.67504 -2.6125 0
M  V30 479 C 46.7562 3.75078 -3.01447 0
M  V30 480 C 49.1082 3.80293 -3.56408 0
M  V30 481 C 46.4362 3.92915 -4.35701 0
M  V30 482 C 48.7882 3.99645 -4.90374 0
M  V30 483 C 47.4522 4.05453 -5.30249 0
M  V30 484 H 46.7222 0.690321 -0.26933 0
M  V30 485 H 49.3692 1.40641 -1.29971 0
M  V30 486 H 47.6742 3.88645 -0.496202 0
M  V30 487 H 49.3712 3.91072 -0.886789 0
M  V30 488 H 45.9612 3.62223 -2.29113 0
M  V30 489 H 50.1452 3.73779 -3.26501 0
M  V30 490 H 45.4012 3.95653 -4.66121 0
M  V30 491 H 49.5752 4.08482 -5.64017 0
M  V30 492 H 47.2022 4.19027 -6.34288 0
M  V30 493 N 48.7773 0.814389 1.34928 0
M  V30 494 C 50.0543 0.321363 1.92942 0
M  V30 495 C 50.4343 -1.19014 1.74353 0
M  V30 496 O 49.7823 -1.99328 1.11716 0
M  V30 497 C 49.9923 0.741323 3.41036 0
M  V30 498 C 51.3403 0.735266 4.18185 0
M  V30 499 O 52.3643 0.68336 3.49584 0
M  V30 500 O 51.2233 0.800703 5.40602 0
M  V30 501 H 48.3173 0.0858893 0.822528 0
M  V30 502 H 50.8633 0.898609 1.43955 0
M  V30 503 H 49.6353 1.78276 3.4833 0
M  V30 504 H 49.2583 0.139307 3.97356 0
M  V30 505 N 50.2554 -1.46986 0.568584 0
M  V30 506 C 51.2184 -2.28624 -0.162366 0
M  V30 507 C 52.2184 -1.37596 -0.832103 0
M  V30 508 O 53.4084 -1.60115 -0.68622 0
M  V30 509 C 50.5404 -3.17596 -1.23878 0
M  V30 510 H 51.7334 -2.94722 0.554899 0
M  V30 511 H 49.2864 -1.52863 0.325976 0
M  V30 512 H 50.0214 -2.56214 -1.98808 0
M  V30 513 H 49.8064 -3.846 -0.763219 0
M  V30 514 H 51.2964 -3.79078 -1.75185 0
M  V30 515 N 51.7335 -0.305618 -1.54608 0
M  V30 516 C 52.6435 0.57778 -2.27374 0
M  V30 517 C 53.6595 1.14451 -1.31061 0
M  V30 518 O 54.8355 1.16831 -1.6405 0
M  V30 519 C 51.9005 1.73123 -3.00382 0
M  V30 520 C 50.9615 1.19812 -4.12242 0
M  V30 521 C 50.1945 2.2966 -4.81759 0
M  V30 522 O 50.4175 3.49651 -4.50666 0
M  V30 523 O 49.3515 1.96091 -5.69062 0
M  V30 524 H 53.1775 -0.012624 -3.03697 0
M  V30 525 H 50.7625 -0.0719184 -1.49227 0
M  V30 526 H 52.6445 2.40315 -3.4616 0
M  V30 527 H 51.3195 2.30815 -2.26949 0
M  V30 528 H 50.2265 0.491798 -3.70853 0
M  V30 529 H 51.5595 0.666566 -4.87666 0
M  V30 530 N 53.2116 1.57565 -0.0334293 0
M  V30 531 C 54.6276 1.56297 0.322997 0
M  V30 532 C 54.8276 1.03945 1.7262 0
M  V30 533 O 53.8836 0.688109 2.42943 0
M  V30 534 C 55.1966 3.00232 0.167664 0
M  V30 535 C 56.7446 3.12078 0.240107 0
M  V30 536 C 57.2196 4.57859 0.113513 0
M  V30 537 N 58.7106 4.62887 0.170359 0
M  V30 538 C 59.4456 5.73319 0.0962517 0
M  V30 539 N 58.9416 6.92794 -0.0291881 0
M  V30 540 N 60.7346 5.61898 0.150551 0
M  V30 541 H 52.8856 1.89923 -0.950956 0
M  V30 542 H 55.1486 0.873824 -0.367608 0
M  V30 543 H 54.8546 3.42501 -0.799102 0
M  V30 544 H 54.7286 3.654 0.936083 0
M  V30 545 H 57.1156 2.69718 1.19733 0
M  V30 546 H 57.1966 2.49623 -0.558763 0
M  V30 547 H 56.8406 5.009 -0.840314 0
M  V30 548 H 56.7706 5.18299 0.931302 0
M  V30 549 H 59.2616 3.76954 0.26728 0
M  V30 550 H 59.5746 7.7276 -0.0789252 0
M  V30 551 H 57.9196 6.94971 -0.0640299 0
M  V30 552 H 61.1106 4.67448 0.246981 0
M  V30 553 H 61.2836 6.47938 0.0893365 0
M  V30 554 N 54.6897 -0.239769 1.55765 0
M  V30 555 C 55.9667 -0.990056 1.68693 0
M  V30 556 C 56.3467 -2.03107 0.5754 0
M  V30 557 O 55.6947 -2.24604 -0.42017 0
M  V30 558 C 55.9047 -1.61696 3.09282 0
M  V30 559 C 57.2527 -2.11613 3.6811 0
M  V30 560 O 58.2767 -1.71624 3.12127 0
M  V30 561 O 57.1357 -2.85057 4.66267 0
M  V30 562 H 54.2297 -0.461299 0.686391 0
M  V30 563 H 56.7757 -0.232991 1.68093 0
M  V30 564 H 55.5477 -0.864357 3.81634 0
M  V30 565 H 55.1707 -2.44005 3.13923 0
M  V30 566 N 56.1678 -1.49265 -0.50573 0
M  V30 567 C 57.1308 -1.65075 -1.59006 0
M  V30 568 C 58.1308 -0.522768 -1.52065 0
M  V30 569 O 59.3208 -0.789117 -1.55302 0
M  V30 570 C 56.4528 -1.64369 -2.98656 0
M  V30 571 H 57.6458 -2.61784 -1.46319 0
M  V30 572 H 55.1988 -1.38226 -0.729616 0
M  V30 573 H 55.9338 -0.692272 -3.16825 0
M  V30 574 H 55.7188 -2.46282 -3.05103 0
M  V30 575 H 57.2088 -1.78674 -3.77446 0
M  V30 576 N 57.6459 0.756429 -1.3826 0
M  V30 577 C 58.5759 1.88374 -1.37976 0
M  V30 578 C 59.5569 1.68311 -0.246082 0
M  V30 579 O 60.7419 1.88944 -0.44874 0
M  V30 580 C 57.8719 3.25864 -1.20125 0
M  V30 581 C 56.8259 3.60523 -2.30666 0
M  V30 582 C 56.1519 4.9672 -1.97923 0
M  V30 583 C 57.4519 3.65692 -3.72916 0
M  V30 584 H 59.1459 1.88869 -2.32312 0
M  V30 585 H 56.6919 0.907272 -1.11824 0
M  V30 586 H 58.6449 4.0438 -1.18552 0
M  V30 587 H 57.3689 3.25841 -0.222498 0
M  V30 588 H 56.0279 2.84324 -2.3142 0
M  V30 589 H 55.6759 4.93253 -0.985393 0
M  V30 590 H 55.3759 5.20878 -2.71955 0
M  V30 591 H 56.8999 5.77618 -1.97964 0
M  V30 592 H 58.3139 4.34328 -3.74208 0
M  V30 593 H 56.7109 4.01358 -4.4613 0
M  V30 594 H 57.7809 2.65987 -4.05436 0
M  V30 595 N 59.124 1.23083 0.984299 0
M  V30 596 C 60.072 1.00593 2.09723 0
M  V30 597 C 61.066 -0.0538014 1.69315 0
M  V30 598 O 62.272 0.0993719 1.79725 0
M  V30 599 H 58.647 0.30817 0.685956 0
M  V30 600 H 60.618 1.95012 2.2586 0
M  V30 601 C 59.367 0.609601 3.42314 0
M  V30 602 H 58.69 1.41675 3.73856 0
M  V30 603 H 60.13 0.491726 4.21139 0
M  V30 604 C 58.589 -0.681745 3.2993 0
M  V30 605 O 59.119 -1.73192 3.62446 0
M  V30 606 N 57.325 -0.656178 2.83095 0
M  V30 607 H 56.872 0.198759 2.56832 0
M  V30 608 H 56.83 -1.52044 2.75191 0
M  V30 609 N 60.6021 -1.18246 1.0419 0
M  V30 610 C 61.8511 -1.87588 0.741194 0
M  V30 611 C 62.1641 -1.81303 -0.734066 0
M  V30 612 O 63.3701 -2.46019 -1.14834 0
M  V30 613 C 61.8261 -3.36538 1.27555 0
M  V30 614 C 61.4341 -3.51349 2.77953 0
M  V30 615 C 63.1781 -4.11273 1.05143 0
M  V30 616 C 61.0851 -4.94265 3.2474 0
M  V30 617 H 60.0151 -0.702622 0.273565 0
M  V30 618 H 62.6661 -1.33601 1.25789 0
M  V30 619 H 61.0481 -3.9 0.686703 0
M  V30 620 H 62.2221 -3.08153 3.42605 0
M  V30 621 H 60.5371 -2.90022 2.98791 0
M  V30 622 H 63.1341 -5.16689 1.37611 0
M  V30 623 H 63.4771 -4.16298 -0.0112774 0
M  V30 624 H 64.0101 -3.63987 1.60495 0
M  V30 625 H 60.7491 -4.94408 4.30396 0
M  V30 626 H 60.2691 -5.38172 2.64823 0
M  V30 627 H 61.9481 -5.62987 3.18834 0
M  V30 628 N 62.0802 -0.821533 -1.34494 0
M  V30 629 C 62.9902 -0.244355 -2.33324 0
M  V30 630 C 64.0062 0.620527 -1.62559 0
M  V30 631 O 65.1822 0.528754 -1.94335 0
M  V30 632 C 62.2472 0.585368 -3.41723 0
M  V30 633 C 61.3082 -0.301752 -4.28238 0
M  V30 634 C 60.5412 0.488466 -5.3146 0
M  V30 635 O 60.7642 1.72186 -5.4379 0
M  V30 636 O 59.6982 -0.12848 -6.01763 0
M  V30 637 H 63.5242 -1.06231 -2.84515 0
M  V30 638 H 61.1092 -0.583645 -1.37528 0
M  V30 639 H 62.9912 1.05747 -4.07916 0
M  V30 640 H 61.6662 1.38068 -2.92778 0
M  V30 641 H 60.5732 -0.821315 -3.64973 0
M  V30 642 H 61.9062 -1.06138 -4.8062 0
M  V30 643 N 63.5583 1.46682 -0.576371 0
M  V30 644 C 64.7863 2.06798 -0.0649635 0
M  V30 645 C 65.2013 1.42612 1.23723 0
M  V30 646 O 64.5583 0.529203 1.74659 0
M  V30 647 C 64.6093 3.6132 0.114202 0
M  V30 648 O 64.3303 4.23104 -1.13644 0
M  V30 649 C 65.8313 4.38349 0.66069 0
M  V30 650 H 63.0513 0.668778 -0.0545616 0
M  V30 651 H 65.5953 1.88404 -0.795237 0
M  V30 652 H 63.7503 3.79162 0.794673 0
M  V30 653 H 64.1643 5.15894 -0.946253 0
M  V30 654 H 65.6383 5.47081 0.73526 0
M  V30 655 H 66.1153 4.05953 1.67627 0
M  V30 656 H 66.7213 4.25297 0.0152951 0
M  V30 657 N 65.0364 0.313813 1.54444 0
M  V30 658 C 65.9994 -0.54379 2.22656 0
M  V30 659 C 66.9994 -1.05124 1.21678 0
M  V30 660 O 68.1894 -0.945225 1.46325 0
M  V30 661 C 65.3214 -1.75427 2.92298 0
M  V30 662 H 66.5144 0.0523599 2.99854 0
M  V30 663 H 64.0674 0.0647834 1.56166 0
M  V30 664 H 64.8024 -2.38991 2.19211 0
M  V30 665 H 64.5874 -1.39791 3.66334 0
M  V30 666 H 66.0774 -2.36325 3.44297 0
M  V30 667 N 66.5145 -1.57545 0.0417849 0
M  V30 668 C 67.7635 -1.91494 -0.633492 0
M  V30 669 C 68.0765 -0.921084 -1.72556 0
M  V30 670 O 69.2825 -1.15228 -2.45835 0
M  V30 671 C 67.7385 -3.40072 -1.17808 0
M  V30 672 C 67.3465 -4.47843 -0.118633 0
M  V30 673 C 69.0905 -3.8307 -1.82915 0
M  V30 674 C 66.9975 -5.87529 -0.675578 0
M  V30 675 H 65.9275 -0.714653 -0.24039 0
M  V30 676 H 68.5785 -1.83175 0.109148 0
M  V30 677 H 66.9605 -3.43364 -1.97274 0
M  V30 678 H 68.1345 -4.56128 0.654494 0
M  V30 679 H 66.4495 -4.14128 0.434414 0
M  V30 680 H 69.0465 -4.84794 -2.25563 0
M  V30 681 H 69.3895 -3.1881 -2.67705 0
M  V30 682 H 69.9225 -3.82255 -1.10119 0
M  V30 683 H 66.6615 -6.55362 0.134475 0
M  V30 684 H 66.1815 -5.82824 -1.4169 0
M  V30 685 H 67.8605 -6.36491 -1.1614 0
M  V30 686 N 67.9926 0.231505 -1.5589 0
M  V30 687 C 68.9396 1.28682 -1.91598 0
M  V30 688 C 69.9096 1.47071 -0.771974 0
M  V30 689 O 71.0946 1.60802 -1.027 0
M  V30 690 C 68.2346 2.6342 -2.22944 0
M  V30 691 C 67.3476 2.52912 -3.50228 0
M  V30 692 C 66.4826 3.80106 -3.7107 0
M  V30 693 C 65.5216 3.64279 -4.91902 0
M  V30 694 N 64.6586 4.834 -5.09184 0
M  V30 695 H 69.4986 0.975305 -2.81588 0
M  V30 696 H 67.0356 0.470299 -1.39379 0
M  V30 697 H 68.9936 3.41869 -2.39126 0
M  V30 698 H 67.6236 2.92687 -1.36139 0
M  V30 699 H 66.6756 1.6595 -3.42294 0
M  V30 700 H 67.9876 2.37133 -4.38827 0
M  V30 701 H 67.1416 4.66999 -3.87295 0
M  V30 702 H 65.8806 3.98799 -2.80733 0
M  V30 703 H 64.8856 2.7577 -4.75637 0
M  V30 704 H 66.1106 3.47067 -5.83714 0
M  V30 705 H 64.0566 5.02425 -4.21788 0
M  V30 706 H 63.9736 4.70311 -5.91898 0
M  V30 707 H 65.2416 5.71747 -5.29835 0
M  V30 708 N 69.4707 1.49531 0.497807 0
M  V30 709 C 70.6987 1.62893 1.27567 0
M  V30 710 C 71.1137 0.301585 1.86376 0
M  V30 711 O 70.4707 -0.713335 1.67982 0
M  V30 712 C 70.5217 2.70013 2.40364 0
M  V30 713 O 70.2427 3.976 1.83972 0
M  V30 714 C 71.7437 2.94109 3.31685 0
M  V30 715 H 68.9637 0.548298 0.386794 0
M  V30 716 H 71.5077 1.95584 0.597245 0
M  V30 717 H 69.6627 2.40092 3.04031 0
M  V30 718 H 70.0767 4.56631 2.58047 0
M  V30 719 H 71.5507 3.72788 4.07104 0
M  V30 720 H 72.0277 2.04147 3.88871 0
M  V30 721 H 72.6337 3.2546 2.73781 0
M  V30 722 N 70.9488 -0.749086 1.3866 0
M  V30 723 C 71.8958 -1.86291 1.36251 0
M  V30 724 C 72.8658 -1.64578 0.224347 0
M  V30 725 O 74.0508 -1.86181 0.417279 0
M  V30 726 C 71.1908 -3.23644 1.19786 0
M  V30 727 C 70.3038 -3.57158 2.43027 0
M  V30 728 C 69.4388 -4.83838 2.19258 0
M  V30 729 C 68.4778 -5.10152 3.38247 0
M  V30 730 N 67.6148 -6.28029 3.13884 0
M  V30 731 H 72.4548 -1.87685 2.3147 0
M  V30 732 H 69.9918 -0.917287 1.14997 0
M  V30 733 H 71.9498 -4.0291 1.08254 0
M  V30 734 H 70.5798 -3.21566 0.282031 0
M  V30 735 H 69.6318 -2.72701 2.65214 0
M  V30 736 H 70.9438 -3.7253 3.31697 0
M  V30 737 H 70.0978 -5.71057 2.04888 0
M  V30 738 H 68.8368 -4.70614 1.2796 0
M  V30 739 H 67.8418 -4.21401 3.53131 0
M  V30 740 H 69.0668 -5.25271 4.30427 0
M  V30 741 H 67.0128 -6.1612 2.25238 0
M  V30 742 H 66.9298 -6.43922 3.96106 0
M  V30 743 H 68.1978 -7.18124 3.03179 0
M  V30 744 N 72.4269 -1.23603 -0.977757 0
M  V30 745 C 73.6749 -1.06759 -1.71601 0
M  V30 746 C 73.9959 0.395929 -1.90938 0
M  V30 747 O 73.2659 1.28356 -1.47992 0
M  V30 748 H 71.8459 -0.392062 -0.635843 0
M  V30 749 H 74.5079 -1.55362 -1.1768 0
M  V30 750 H 73.6039 -1.55763 -2.70452 0
M  V30 751 N 73.905 1.17692 -1.04816 0
M  V30 752 C 75.151 1.88137 -0.75711 0
M  V30 753 C 75.484 1.80604 0.713841 0
M  V30 754 O 74.759 1.21146 1.52164 0
M  V30 755 C 75.042 3.38318 -1.2334 0
M  V30 756 C 74.895 3.54622 -2.76701 0
M  V30 757 C 76.214 4.32214 -0.829415 0
M  V30 758 H 73.333 0.683163 -0.27651 0
M  V30 759 H 75.975 1.38424 -1.30149 0
M  V30 760 H 74.125 3.80787 -0.770286 0
M  V30 761 H 75.797 3.21194 -3.31107 0
M  V30 762 H 74.04 2.97026 -3.16161 0
M  V30 763 H 74.711 4.60028 -3.05088 0
M  V30 764 H 77.187 3.97565 -1.22805 0
M  V30 765 H 76.063 5.35838 -1.19033 0
M  V30 766 H 76.324 4.41294 0.266891 0
M  V30 767 N 75.3831 0.828654 1.34056 0
M  V30 768 C 76.6601 0.341809 1.9259 0
M  V30 769 C 77.0401 -1.17158 1.75605 0
M  V30 770 O 76.3881 -1.98132 1.13824 0
M  V30 771 C 76.5981 0.777453 3.4023 0
M  V30 772 C 77.9461 0.779579 4.17382 0
M  V30 773 O 78.9701 0.7204 3.48839 0
M  V30 774 O 77.8291 0.857996 5.39723 0
M  V30 775 H 74.9231 0.0946085 0.821571 0
M  V30 776 H 77.4691 0.913827 1.42994 0
M  V30 777 H 76.2411 1.8196 3.46419 0
M  V30 778 H 75.8641 0.181444 3.97186 0
M  V30 779 N 76.8612 -1.46375 0.584142 0
M  V30 780 C 77.7712 -2.34115 -0.150728 0
M  V30 781 C 78.7872 -1.49838 -0.884567 0
M  V30 782 O 79.9632 -1.82704 -0.847429 0
M  V30 783 C 77.0282 -3.2705 -1.15062 0
M  V30 784 C 76.0892 -4.27228 -0.421293 0
M  V30 785 C 75.3222 -5.15722 -1.37355 0
M  V30 786 O 75.5452 -5.07176 -2.61014 0
M  V30 787 O 74.4792 -5.95383 -0.883355 0
M  V30 788 H 78.3052 -2.98309 0.569708 0
M  V30 789 H 75.8902 -1.45373 0.344535 0
M  V30 790 H 77.7722 -3.84381 -1.72712 0
M  V30 791 H 76.4472 -2.65451 -1.8525 0
M  V30 792 H 75.3542 -3.7358 0.197085 0
M  V30 793 H 76.6872 -4.91616 0.239641 0
M  V30 794 N 78.3393 -0.321999 -1.54275 0
M  V30 795 C 79.5853 0.281461 -2.00837 0
M  V30 796 C 79.9183 1.51909 -1.20985 0
M  V30 797 O 79.1933 1.923 -0.291733 0
M  V30 798 C 79.4763 0.617162 -3.54772 0
M  V30 799 C 79.3293 -0.631064 -4.45351 0
M  V30 800 C 80.6483 1.43542 -4.16033 0
M  V30 801 H 77.7673 0.100826 -0.730071 0
M  V30 802 H 80.4093 -0.438268 -1.84876 0
M  V30 803 H 78.5593 1.23034 -3.68504 0
M  V30 804 H 80.2313 -1.26934 -4.43492 0
M  V30 805 H 78.4743 -1.26025 -4.15091 0
M  V30 806 H 79.1453 -0.351735 -5.50878 0
M  V30 807 H 81.6213 0.917134 -4.05867 0
M  V30 808 H 80.4973 1.63907 -5.23856 0
M  V30 809 H 80.7583 2.43108 -3.69257 0
M  V30 810 N 79.8174 1.5752 -0.0501392 0
M  V30 811 C 81.0454 1.96963 0.633492 0
M  V30 812 C 81.4604 0.927631 1.6444 0
M  V30 813 O 80.8174 -0.0882665 1.82286 0
M  V30 814 C 80.8684 3.36487 1.32132 0
M  V30 815 O 80.5894 4.36693 0.350894 0
M  V30 816 C 82.0904 3.90682 2.09481 0
M  V30 817 H 79.3104 0.648244 0.173266 0
M  V30 818 H 81.8544 2.0417 -0.116134 0
M  V30 819 H 80.0094 3.30434 2.02218 0
M  V30 820 H 80.4234 5.17702 0.841735 0
M  V30 821 H 81.8974 4.90591 2.5303 0
M  V30 822 H 82.3744 3.26053 2.94255 0
M  V30 823 H 82.9804 4.00069 1.44307 0
M  V30 824 N 81.2955 -0.223234 1.56011 0
M  V30 825 C 82.5445 -0.945912 1.78144 0
M  V30 826 C 82.8575 -1.85567 0.618396 0
M  V30 827 O 84.0635 -2.61688 0.723318 0
M  V30 828 C 82.5195 -1.73216 3.15475 0
M  V30 829 C 82.1275 -0.868619 4.39499 0
M  V30 830 C 83.8715 -2.44615 3.46935 0
M  V30 831 C 81.7785 -1.65212 5.67855 0
M  V30 832 H 80.7085 -0.356929 0.664167 0
M  V30 833 H 83.3595 -0.199845 1.82409 0
M  V30 834 H 81.7415 -2.52107 3.05382 0
M  V30 835 H 82.9155 -0.120366 4.60643 0
M  V30 836 H 81.2305 -0.26683 4.15544 0
M  V30 837 H 83.8275 -3.03732 4.40058 0
M  V30 838 H 84.1705 -3.17417 2.69355 0
M  V30 839 H 84.7035 -1.72715 3.58349 0
M  V30 840 H 81.4425 -0.967407 6.48322 0
M  V30 841 H 80.9625 -2.37503 5.50774 0
M  V30 842 H 82.6415 -2.21322 6.07968 0
M  V30 843 N 82.7736 -1.49793 -0.48987 0
M  V30 844 C 84.0196 -1.60078 -1.24511 0
M  V30 845 C 84.3526 -0.291608 -1.91998 0
M  V30 846 O 83.6276 0.705647 -1.81248 0
M  V30 847 C 83.9106 -2.76791 -2.30345 0
M  V30 848 C 83.7636 -4.17535 -1.67286 0
M  V30 849 C 85.0826 -2.89111 -3.31817 0
M  V30 850 H 82.2016 -0.582645 -0.451324 0
M  V30 851 H 84.8436 -1.82117 -0.541612 0
M  V30 852 H 82.9936 -2.5813 -2.90346 0
M  V30 853 H 84.6656 -4.4774 -1.11026 0
M  V30 854 H 82.9086 -4.22665 -0.976577 0
M  V30 855 H 83.5796 -4.95094 -2.44103 0
M  V30 856 H 86.0556 -3.06133 -2.81819 0
M  V30 857 H 84.9316 -3.72433 -4.03219 0
M  V30 858 H 85.1926 -1.9893 -3.94815 0
M  V30 859 N 84.2517 0.741722 -1.39055 0
M  V30 860 C 85.1997 1.87702 -1.3737 0
M  V30 861 C 86.1937 1.67427 -0.257812 0
M  V30 862 O 87.3997 1.7485 -0.427489 0
M  V30 863 H 83.7747 0.617757 -0.428812 0
M  V30 864 H 85.7457 1.86239 -2.33147 0
M  V30 865 C 84.4947 3.25315 -1.22741 0
M  V30 866 H 83.8177 3.41509 -2.07873 0
M  V30 867 H 85.2577 4.04964 -1.25618 0
M  V30 868 C 83.7167 3.36838 0.0647316 0
M  V30 869 O 84.2467 3.88073 1.03741 0
M  V30 870 N 82.4527 2.90329 0.125544 0
M  V30 871 H 81.9997 2.48823 -0.666682 0
M  V30 872 H 81.9577 2.98418 0.989639 0
M  V30 873 N 85.7298 1.2412 0.971189 0
M  V30 874 C 86.9788 1.07284 1.70801 0
M  V30 875 C 87.2918 -0.388902 1.91695 0
M  V30 876 O 88.4978 -0.677379 2.62914 0
M  V30 877 C 86.9538 1.87145 3.07416 0
M  V30 878 C 86.5618 3.37707 2.94377 0
M  V30 879 C 88.3058 1.78828 3.84995 0
M  V30 880 C 86.2128 4.09925 4.26281 0
M  V30 881 H 85.1428 0.397854 0.64049 0
M  V30 882 H 87.7938 1.4817 1.0825 0
M  V30 883 H 86.1758 1.39071 3.70777 0
M  V30 884 H 87.3498 3.93335 2.4005 0
M  V30 885 H 85.6648 3.46938 2.30267 0
M  V30 886 H 88.2618 2.30089 4.82662 0
M  V30 887 H 88.6048 0.75284 4.09436 0
M  V30 888 H 89.1378 2.24563 3.28354 0
M  V30 889 H 85.8768 5.13813 4.07033 0
M  V30 890 H 85.3968 3.59083 4.80437 0
M  V30 891 H 87.0758 4.1673 4.94919 0
M  V30 892 N 87.2079 -1.17134 1.05439 0
M  V30 893 C 88.1379 -2.2342 0.678649 0
M  V30 894 C 89.1189 -1.66971 -0.32476 0
M  V30 895 O 90.3039 -1.93149 -0.201802 0
M  V30 896 C 87.4339 -3.47256 0.0552099 0
M  V30 897 C 86.3879 -4.16543 0.98365 0
M  V30 898 C 85.7139 -5.34231 0.223961 0
M  V30 899 C 87.0139 -4.68495 2.3089 0
M  V30 900 H 88.7079 -2.55105 1.56722 0
M  V30 901 H 86.2539 -1.2262 0.754998 0
M  V30 902 H 88.2069 -4.20828 -0.21946 0
M  V30 903 H 86.9309 -3.14846 -0.868319 0
M  V30 904 H 85.5899 -3.44887 1.24293 0
M  V30 905 H 85.2379 -4.98071 -0.702412 0
M  V30 906 H 84.9379 -5.81527 0.842627 0
M  V30 907 H 86.4619 -6.10585 -0.0433671 0
M  V30 908 H 87.8759 -5.33691 2.09396 0
M  V30 909 H 86.2729 -5.26379 2.88176 0
M  V30 910 H 87.3429 -3.85169 2.94572 0
M  V30 911 N 88.686 -0.835752 -1.33615 0
M  V30 912 C 89.914 -0.443344 -2.02094 0
M  V30 913 C 90.329 0.954522 -1.62894 0
M  V30 914 O 89.686 1.61982 -0.840723 0
M  V30 915 C 89.737 -0.550775 -3.5728 0
M  V30 916 O 89.458 -1.89356 -3.95065 0
M  V30 917 C 90.959 -0.154919 -4.43029 0
M  V30 918 H 88.179 -0.176359 -0.647409 0
M  V30 919 H 90.723 -1.12746 -1.70612 0
M  V30 920 H 88.878 0.0853997 -3.87306 0
M  V30 921 H 89.292 -1.87687 -4.89769 0
M  V30 922 H 90.766 -0.281144 -5.51284 0
M  V30 923 H 91.243 0.902863 -4.2982 0
M  V30 924 H 91.849 -0.765404 -4.18356 0
M  V30 925 N 90.1641 1.46063 -0.591896 0
M  V30 926 C 91.1121 2.32124 0.148739 0
M  V30 927 C 92.1061 1.45035 0.875286 0
M  V30 928 O 93.3121 1.61609 0.792632 0
M  V30 929 H 89.6871 0.749024 0.066832 0
M  V30 930 H 91.6581 2.92392 -0.595783 0
M  V30 931 C 90.4071 3.28373 1.1431 0
M  V30 932 H 89.7301 3.95371 0.59346 0
M  V30 933 H 91.1701 3.91352 1.63155 0
M  V30 934 C 89.6291 2.54393 2.20875 0
M  V30 935 O 90.1591 2.31373 3.28374 0
M  V30 936 N 88.3651 2.14797 1.95731 0
M  V30 937 H 87.9121 2.33719 1.08319 0
M  V30 938 H 87.8701 1.65619 2.67241 0
M  V30 939 N 91.6422 0.330177 1.54103 0
M  V30 940 C 93.0582 -0.0222371 1.59585 0
M  V30 941 C 93.2582 -1.49902 1.34654 0
M  V30 942 O 92.3142 -2.25592 1.13421 0
M  V30 943 C 93.6272 0.401932 2.98002 0
M  V30 944 C 95.1752 0.353145 3.11001 0
M  V30 945 C 95.6502 0.752576 4.51775 0
M  V30 946 N 97.1412 0.706239 4.57784 0
M  V30 947 C 97.8762 0.987417 5.64834 0
M  V30 948 N 97.3722 1.33607 6.79795 0
M  V30 949 N 99.1652 0.91254 5.54643 0
M  V30 950 H 91.3162 1.29228 1.68564 0
M  V30 951 H 93.5792 0.525906 0.78875 0
M  V30 952 H 93.2852 1.4311 3.21267 0
M  V30 953 H 93.1592 -0.229699 3.765 0
M  V30 954 H 95.5462 -0.666822 2.87467 0
M  V30 955 H 95.6272 1.0198 2.34593 0
M  V30 956 H 95.2712 1.77049 4.76042 0
M  V30 957 H 95.2012 0.0635409 5.26562 0
M  V30 958 H 97.6922 0.44889 3.75224 0
M  V30 959 H 98.0052 1.53582 7.57385 0
M  V30 960 H 96.3502 1.37439 6.81275 0
M  V30 961 H 99.5412 0.639601 4.6371 0
M  V30 962 H 99.7142 1.13503 6.37982 0
M  V30 963 N 93.1203 -1.57491 0.0584922 0
M  V30 964 C 94.3453 -1.97711 -0.62652 0
M  V30 965 C 94.7703 -0.936132 -1.63151 0
M  V30 966 O 94.1283 0.099811 -1.81025 0
M  V30 967 C 94.1763 -3.36989 -1.28338 0
M  V30 968 O 93.2803 -3.35433 -2.39913 0
M  V30 969 H 92.6213 -0.643868 -0.162266 0
M  V30 970 H 95.1513 -2.04193 0.129064 0
M  V30 971 H 95.1613 -3.73879 -1.63335 0
M  V30 972 H 93.8363 -4.12289 -0.546889 0
M  V30 973 H 92.4133 -3.10298 -2.06809 0
M  V30 974 N 94.5984 0.214957 -1.56127 0
M  V30 975 C 95.5464 1.28601 -1.93816 0
M  V30 976 C 96.5404 1.48175 -0.821016 0
M  V30 977 O 97.7464 1.49271 -1.0059 0
M  V30 978 H 94.1214 0.431302 -0.616022 0
M  V30 979 H 96.0924 0.940991 -2.83175 0
M  V30 980 C 94.8414 2.62779 -2.27689 0
M  V30 981 H 94.1644 2.48527 -3.13168 0
M  V30 982 H 95.6044 3.36517 -2.57939 0
M  V30 983 C 94.0634 3.18285 -1.10436 0
M  V30 984 O 94.5934 4.00002 -0.368945 0
M  V30 985 N 92.7994 2.7675 -0.886433 0
M  V30 986 H 92.3464 2.10404 -1.48619 0
M  V30 987 H 92.3044 3.14229 -0.103656 0
M  V30 988 N 96.0765 1.50051 0.48192 0
M  V30 989 C 97.0395 1.67584 1.5636 0
M  V30 990 C 98.0395 0.546894 1.51214 0
M  V30 991 O 99.2295 0.813725 1.54026 0
M  V30 992 C 96.3615 1.691 2.96003 0
M  V30 993 H 97.5545 2.64078 1.42136 0
M  V30 994 H 95.1075 1.39369 0.707533 0
M  V30 995 H 95.8425 0.742589 3.15684 0
M  V30 996 H 95.6275 2.51105 3.01146 0
M  V30 997 H 97.1175 1.84656 3.74556 0
M  V30 998 N 97.5546 -0.734337 1.39446 0
M  V30 999 C 98.4866 -1.85861 1.34121 0
M  V30 1000 C 99.4996 -1.60871 0.249864 0
M  V30 1001 O 100.689 -1.71093 0.508865 0
M  V30 1002 C 97.7886 -3.21899 1.05991 0
M  V30 1003 C 96.9616 -3.74239 2.26415 0
M  V30 1004 C 96.0206 -4.88841 1.94733 0
M  V30 1005 O 95.0466 -5.02468 2.67422 0
M  V30 1006 N 96.2486 -5.73261 0.913884 0
M  V30 1007 H 99.0136 -1.90934 2.31007 0
M  V30 1008 H 96.5746 -0.915102 1.33557 0
M  V30 1009 H 98.5666 -3.96136 0.828147 0
M  V30 1010 H 97.1366 -3.12091 0.178361 0
M  V30 1011 H 96.3566 -2.91347 2.65539 0
M  V30 1012 H 97.6446 -4.05942 3.06738 0
M  V30 1013 H 97.0426 -5.64842 0.311476 0
M  V30 1014 H 95.5996 -6.47563 0.742015 0
M  V30 1015 N 99.0327 -1.24633 -0.964593 0
M  V30 1016 C 100.449 -1.01239 -1.2338 0
M  V30 1017 C 100.649 0.2769 -1.99588 0
M  V30 1018 O 99.7047 0.992241 -2.32187 0
M  V30 1019 C 101.018 -2.22937 -2.01791 0
M  V30 1020 C 102.566 -2.27594 -2.14872 0
M  V30 1021 C 103.041 -3.48921 -2.96678 0
M  V30 1022 N 104.532 -3.49257 -3.04259 0
M  V30 1023 C 105.267 -4.39795 -3.67924 0
M  V30 1024 N 104.763 -5.40591 -4.33281 0
M  V30 1025 N 106.556 -4.275 -3.64966 0
M  V30 1026 H 98.7067 -2.0748 -0.454502 0
M  V30 1027 H 100.97 -0.910647 -0.26349 0
M  V30 1028 H 100.676 -3.16587 -1.53184 0
M  V30 1029 H 100.55 -2.25306 -3.02518 0
M  V30 1030 H 102.937 -1.34473 -2.6268 0
M  V30 1031 H 103.018 -2.2925 -1.13482 0
M  V30 1032 H 102.662 -4.42359 -2.49562 0
M  V30 1033 H 102.592 -3.4451 -3.98272 0
M  V30 1034 H 105.083 -2.76337 -2.57771 0
M  V30 1035 H 105.396 -6.05904 -4.79687 0
M  V30 1036 H 103.741 -5.44475 -4.3194 0
M  V30 1037 H 106.932 -3.47987 -3.13086 0
M  V30 1038 H 107.105 -4.98258 -4.14298 0
M  V30 1039 N 100.511 1.16574 -1.06058 0
M  V30 1040 C 101.443 2.2045 -0.627239 0
M  V30 1041 C 102.456 1.59752 0.313534 0
M  V30 1042 O 103.645 1.78192 0.104896 0
M  V30 1043 C 100.745 3.3875 0.100974 0
M  V30 1044 C 99.9178 4.29008 -0.852687 0
M  V30 1045 C 98.9768 5.25944 -0.164152 0
M  V30 1046 O 98.0028 5.63535 -0.801047 0
M  V30 1047 N 99.2048 5.70075 1.09518 0
M  V30 1048 H 101.97 2.58249 -1.52077 0
M  V30 1049 H 99.5308 1.3156 -0.943594 0
M  V30 1050 H 101.523 4.00638 0.57194 0
M  V30 1051 H 100.093 2.99476 0.89628 0
M  V30 1052 H 99.3128 3.64419 -1.50308 0
M  V30 1053 H 100.601 4.86195 -1.49972 0
M  V30 1054 H 99.9988 5.41624 1.6328 0
M  V30 1055 H 98.5558 6.34067 1.51006 0
M  V30 1056 N 101.989 0.842826 1.3317 0
M  V30 1057 C 103.266 0.362216 1.92217 0
M  V30 1058 C 103.646 -1.15289 1.76838 0
M  V30 1059 O 102.994 -1.96914 1.15919 0
M  V30 1060 C 103.204 0.813495 3.39387 0
M  V30 1061 C 104.552 0.823804 4.16532 0
M  V30 1062 O 105.576 0.757358 3.48055 0
M  V30 1063 O 104.435 0.915193 5.38782 0
M  V30 1064 H 101.529 0.103317 0.820521 0
M  V30 1065 H 104.075 0.928942 1.42017 0
M  V30 1066 H 102.847 1.85624 3.4447 0
M  V30 1067 H 102.47 0.223561 3.96971 0
M  V30 1068 N 103.467 -1.45747 0.599634 0
M  V30 1069 C 104.716 -2.01502 0.0893511 0
M  V30 1070 C 105.029 -1.4748 -1.28488 0
M  V30 1071 O 106.235 -1.95161 -1.88745 0
M  V30 1072 C 104.691 -3.59735 0.109082 0
M  V30 1073 C 104.299 -4.22754 1.48267 0
M  V30 1074 C 106.043 -4.23085 -0.346374 0
M  V30 1075 C 103.95 -5.73115 1.45921 0
M  V30 1076 H 102.88 -0.753417 0.0296347 0
M  V30 1077 H 105.531 -1.67303 0.753788 0
M  V30 1078 H 103.913 -3.91087 -0.621854 0
M  V30 1079 H 105.087 -4.02987 2.23468 0
M  V30 1080 H 103.402 -3.71567 1.87955 0
M  V30 1081 H 105.999 -5.33327 -0.38298 0
M  V30 1082 H 106.342 -3.93201 -1.36743 0
M  V30 1083 H 106.875 -3.9642 0.331038 0
M  V30 1084 H 103.614 -6.07685 2.45762 0
M  V30 1085 H 103.134 -5.95097 0.749665 0
M  V30 1086 H 104.813 -6.3616 1.17941 0
M  V30 1087 N 104.945 -0.338344 -1.53925 0
M  V30 1088 C 105.908 0.508299 -2.23493 0
M  V30 1089 C 106.908 1.03175 -1.23335 0
M  V30 1090 O 108.098 0.921826 -1.47811 0
M  V30 1091 C 105.23 1.70754 -2.95052 0
M  V30 1092 H 106.423 -0.100058 -2.99733 0
M  V30 1093 H 103.976 -0.0896198 -1.56043 0
M  V30 1094 H 104.711 2.35474 -2.22986 0
M  V30 1095 H 104.496 1.33946 -3.68512 0
M  V30 1096 H 105.986 2.30818 -3.48013 0
M  V30 1097 N 106.423 1.57458 -0.0668435 0
M  V30 1098 C 107.67 1.93301 0.603406 0
M  V30 1099 C 107.998 0.946486 1.69917 0
M  V30 1100 O 107.253 -0.0387021 1.95662 0
M  V30 1101 C 107.552 3.35784 1.22409 0
M  V30 1102 C 107.218 4.50179 0.254955 0
M  V30 1103 C 105.88 4.81199 -0.0116746 0
M  V30 1104 C 108.232 5.19598 -0.408338 0
M  V30 1105 C 105.56 5.78978 -0.94877 0
M  V30 1106 C 107.912 6.18381 -1.33372 0
M  V30 1107 C 106.576 6.47821 -1.60887 0
M  V30 1108 H 105.846 0.707338 0.220802 0
M  V30 1109 H 108.493 1.91012 -0.136665 0
M  V30 1110 H 106.798 3.34515 2.03978 0
M  V30 1111 H 108.495 3.60804 1.74989 0
M  V30 1112 H 105.085 4.25983 0.472954 0
M  V30 1113 H 109.269 4.95832 -0.215456 0
M  V30 1114 H 104.525 6.00115 -1.16925 0
M  V30 1115 H 108.699 6.71277 -1.85367 0
M  V30 1116 H 106.326 7.23399 -2.33661 0
M  V30 1117 N 107.901 -0.206675 1.56239 0
M  V30 1118 C 108.864 -1.23976 1.92776 0
M  V30 1119 C 109.864 -1.39041 0.807729 0
M  V30 1120 O 111.054 -1.37051 1.0753 0
M  V30 1121 C 108.186 -2.61112 2.19165 0
M  V30 1122 H 109.379 -0.927764 2.85189 0
M  V30 1123 H 106.932 -0.447718 1.4975 0
M  V30 1124 H 107.667 -2.97386 1.29352 0
M  V30 1125 H 107.452 -2.51552 3.00772 0
M  V30 1126 H 108.942 -3.35633 2.48476 0
M  V30 1127 N 109.379 -1.50304 -0.473955 0
M  V30 1128 C 110.609 -1.64663 -1.24778 0
M  V30 1129 C 111.017 -0.328174 -1.86332 0
M  V30 1130 O 110.36 0.699536 -1.69859 0
M  V30 1131 C 110.422 -2.6778 -2.39863 0
M  V30 1132 C 110.086 -4.11413 -1.98969 0
M  V30 1133 C 111.083 -4.97372 -1.51385 0
M  V30 1134 C 108.768 -4.57312 -2.07777 0
M  V30 1135 C 110.762 -6.27277 -1.13148 0
M  V30 1136 C 108.449 -5.87223 -1.69152 0
M  V30 1137 C 109.447 -6.72031 -1.21915 0
M  V30 1138 O 109.135 -7.99518 -0.838237 0
M  V30 1139 H 108.867 -0.556602 -0.383627 0
M  V30 1140 H 111.421 -1.9726 -0.572491 0
M  V30 1141 H 109.651 -2.30419 -3.10554 0
M  V30 1142 H 111.34 -2.71388 -3.01833 0
M  V30 1143 H 112.106 -4.63128 -1.44004 0
M  V30 1144 H 107.985 -3.91449 -2.43493 0
M  V30 1145 H 111.529 -6.93425 -0.762077 0
M  V30 1146 H 107.426 -6.20989 -1.76191 0
M  V30 1147 H 108.194 -8.12764 -0.967339 0
M  V30 1148 N 110.857 0.726932 -1.39834 0
M  V30 1149 C 111.789 1.85147 -1.35104 0
M  V30 1150 C 112.802 1.60736 -0.258392 0
M  V30 1151 O 113.991 1.70821 -0.517931 0
M  V30 1152 C 111.091 3.21332 -1.07697 0
M  V30 1153 C 110.264 3.73033 -2.28396 0
M  V30 1154 C 109.323 4.87802 -1.97322 0
M  V30 1155 O 108.349 5.01043 -2.70083 0
M  V30 1156 N 109.551 5.72768 -0.944273 0
M  V30 1157 H 112.316 1.89706 -2.32017 0
M  V30 1158 H 109.877 0.908006 -1.3404 0
M  V30 1159 H 111.869 3.95691 -0.849144 0
M  V30 1160 H 110.439 3.11992 -0.194909 0
M  V30 1161 H 109.659 2.89934 -2.6708 0
M  V30 1162 H 110.947 4.0431 -3.08887 0
M  V30 1163 H 110.345 5.64669 -0.341427 0
M  V30 1164 H 108.902 6.4716 -0.776346 0
M  V30 1165 N 112.336 1.25143 0.95797 0
M  V30 1166 C 113.752 1.01892 1.22842 0
M  V30 1167 C 113.952 -0.266311 1.99732 0
M  V30 1168 O 113.008 -0.979913 2.3271 0
M  V30 1169 C 114.321 2.24004 2.00606 0
M  V30 1170 C 115.869 2.28731 2.13662 0
M  V30 1171 C 116.344 3.5049 2.94823 0
M  V30 1172 N 117.835 3.50866 3.02403 0
M  V30 1173 C 118.57 4.4174 3.65586 0
M  V30 1174 N 118.066 5.42882 4.30408 0
M  V30 1175 N 119.859 4.29429 3.62694 0
M  V30 1176 H 112.01 2.07718 0.443493 0
M  V30 1177 H 114.273 0.912031 0.258657 0
M  V30 1178 H 113.979 3.17395 1.51503 0
M  V30 1179 H 113.853 2.26907 3.01319 0
M  V30 1180 H 116.24 1.35865 2.61963 0
M  V30 1181 H 116.321 2.29848 1.12265 0
M  V30 1182 H 115.965 4.43676 2.47213 0
M  V30 1183 H 115.895 3.46617 3.96439 0
M  V30 1184 H 118.386 2.777 2.56302 0
M  V30 1185 H 118.699 6.0844 4.76467 0
M  V30 1186 H 117.044 5.46758 4.29047 0
M  V30 1187 H 120.235 3.49643 3.11236 0
M  V30 1188 H 120.408 5.00448 4.1165 0
M  V30 1189 N 113.814 -1.1601 1.06675 0
M  V30 1190 C 115.23 -1.38622 0.790948 0
M  V30 1191 C 115.43 -1.92109 -0.607965 0
M  V30 1192 O 114.486 -2.12239 -1.36787 0
M  V30 1193 C 115.799 -2.36347 1.85905 0
M  V30 1194 C 117.347 -2.50023 1.88301 0
M  V30 1195 C 117.822 -3.51033 2.94176 0
M  V30 1196 N 119.313 -3.58563 2.93235 0
M  V30 1197 C 120.048 -4.36521 3.71803 0
M  V30 1198 N 119.544 -5.17869 4.602 0
M  V30 1199 N 121.337 -4.31541 3.60178 0
M  V30 1200 H 113.488 -0.796294 1.96908 0
M  V30 1201 H 115.751 -0.412597 0.853503 0
M  V30 1202 H 115.457 -2.04147 2.86386 0
M  V30 1203 H 115.331 -3.36042 1.71334 0
M  V30 1204 H 117.718 -2.81524 0.884769 0
M  V30 1205 H 117.799 -1.5035 2.06951 0
M  V30 1206 H 117.443 -3.20268 3.94196 0
M  V30 1207 H 117.373 -4.50445 2.72776 0
M  V30 1208 H 119.864 -3.00496 2.29152 0
M  V30 1209 H 120.177 -5.74578 5.16797 0
M  V30 1210 H 118.522 -5.17199 4.64253 0
M  V30 1211 H 121.713 -3.67051 2.90502 0
M  V30 1212 H 121.886 -4.9205 4.21653 0
M  V30 1213 N 115.292 -0.849877 -1.32721 0
M  V30 1214 C 116.52 -0.464754 -2.01613 0
M  V30 1215 C 116.935 0.937191 -1.63897 0
M  V30 1216 O 116.292 1.61081 -0.857856 0
M  V30 1217 C 116.343 -0.588638 -3.56675 0
M  V30 1218 O 116.064 -1.93535 -3.93034 0
M  V30 1219 C 117.565 -0.2019 -4.4284 0
M  V30 1220 H 114.785 -0.183215 -0.645502 0
M  V30 1221 H 117.329 -1.1455 -1.69407 0
M  V30 1222 H 115.484 0.0443159 -3.87375 0
M  V30 1223 H 115.898 -1.92871 -4.87751 0
M  V30 1224 H 117.372 -0.339599 -5.50954 0
M  V30 1225 H 117.849 0.857224 -4.30753 0
M  V30 1226 H 118.455 -0.809733 -4.17521 0
M  V30 1227 N 116.77 1.45427 -0.607355 0
M  V30 1228 C 117.717 2.3053 0.111625 0
M  V30 1229 C 118.687 1.4209 0.860216 0
M  V30 1230 O 119.872 1.71019 0.845998 0
M  V30 1231 C 117.012 3.26992 1.10319 0
M  V30 1232 C 116.125 4.30535 0.355493 0
M  V30 1233 C 115.26 5.14105 1.33676 0
M  V30 1234 C 114.299 6.09376 0.576862 0
M  V30 1235 N 113.436 6.85727 1.5074 0
M  V30 1236 H 118.276 2.91477 -0.620093 0
M  V30 1237 H 115.813 1.43631 -0.317594 0
M  V30 1238 H 117.771 3.81385 1.6912 0
M  V30 1239 H 116.401 2.67799 1.80232 0
M  V30 1240 H 115.453 3.78805 -0.348023 0
M  V30 1241 H 116.765 4.98235 -0.237423 0
M  V30 1242 H 115.919 5.72897 1.99684 0
M  V30 1243 H 114.658 4.46423 1.9636 0
M  V30 1244 H 113.663 5.49715 -0.0968519 0
M  V30 1245 H 114.888 6.79085 -0.0449341 0
M  V30 1246 H 112.834 6.20735 2.12189 0
M  V30 1247 H 112.751 7.49778 0.967913 0
M  V30 1248 H 114.019 7.4906 2.15706 0
M  V30 1249 N 118.248 0.346503 1.53744 0
M  V30 1250 C 119.195 -0.508914 2.25119 0
M  V30 1251 C 120.165 -1.09315 1.25058 0
M  V30 1252 O 121.35 -1.12921 1.53797 0
M  V30 1253 C 118.49 -1.65246 3.02965 0
M  V30 1254 C 117.603 -1.09525 4.17886 0
M  V30 1255 C 116.738 -2.20634 4.83212 0
M  V30 1256 C 115.777 -1.62279 5.90196 0
M  V30 1257 N 114.914 -2.67143 6.49291 0
M  V30 1258 H 119.754 0.106283 2.9781 0
M  V30 1259 H 117.291 0.0642227 1.4696 0
M  V30 1260 H 119.249 -2.32574 3.4636 0
M  V30 1261 H 117.879 -2.2386 2.32565 0
M  V30 1262 H 116.931 -0.312818 3.79112 0
M  V30 1263 H 118.243 -0.628444 4.94825 0
M  V30 1264 H 117.397 -2.95821 5.29693 0
M  V30 1265 H 116.136 -2.70659 4.05703 0
M  V30 1266 H 115.141 -0.855989 5.43096 0
M  V30 1267 H 116.366 -1.13102 6.69615 0
M  V30 1268 H 114.312 -3.16417 5.74645 0
M  V30 1269 H 114.229 -2.25093 7.21713 0
M  V30 1270 H 115.497 -3.4209 7.00425 0
M  V30 1271 N 119.726 -1.57421 0.075193 0
M  V30 1272 C 120.636 -2.1642 -0.905511 0
M  V30 1273 C 121.652 -1.12828 -1.32461 0
M  V30 1274 O 122.828 -1.45109 -1.39661 0
M  V30 1275 C 119.893 -2.71693 -2.15369 0
M  V30 1276 C 118.954 -3.90171 -1.79068 0
M  V30 1277 C 118.187 -4.42798 -2.97936 0
M  V30 1278 O 118.41 -3.94416 -4.12058 0
M  V30 1279 O 117.344 -5.34085 -2.77555 0
M  V30 1280 H 121.17 -3.00588 -0.433626 0
M  V30 1281 H 118.755 -1.48664 -0.148067 0
M  V30 1282 H 120.637 -3.07104 -2.88557 0
M  V30 1283 H 119.312 -1.90582 -2.61649 0
M  V30 1284 H 118.219 -3.59606 -1.03122 0
M  V30 1285 H 119.552 -4.72584 -1.37569 0
M  V30 1286 N 121.204 0.198386 -1.56346 0
M  V30 1287 C 122.134 1.24865 -1.9731 0
M  V30 1288 C 123.115 1.47651 -0.844576 0
M  V30 1289 O 124.3 1.59444 -1.10866 0
M  V30 1290 C 121.43 2.59358 -2.30977 0
M  V30 1291 C 120.384 2.5119 -3.46537 0
M  V30 1292 C 119.71 3.89926 -3.65871 0
M  V30 1293 C 121.01 2.03977 -4.80823 0
M  V30 1294 H 122.704 0.908252 -2.85291 0
M  V30 1295 H 120.25 0.435462 -1.37258 0
M  V30 1296 H 122.203 3.33011 -2.58228 0
M  V30 1297 H 120.927 2.95132 -1.39874 0
M  V30 1298 H 119.586 1.79993 -3.19371 0
M  V30 1299 H 119.234 4.23046 -2.72105 0
M  V30 1300 H 118.934 3.85336 -4.4361 0
M  V30 1301 H 120.458 4.65205 -3.95495 0
M  V30 1302 H 121.872 2.67386 -5.07127 0
M  V30 1303 H 120.269 2.10397 -5.62008 0
M  V30 1304 H 121.339 0.992861 -4.74626 0
M  V30 1305 N 122.682 1.50554 0.465978 0
M  V30 1306 C 123.645 1.69233 1.54574 0
M  V30 1307 C 124.645 0.562901 1.50626 0
M  V30 1308 O 125.835 0.830016 1.53155 0
M  V30 1309 C 122.967 1.7223 2.94193 0
M  V30 1310 H 124.16 2.65571 1.39327 0
M  V30 1311 H 121.713 1.40111 0.692711 0
M  V30 1312 H 122.448 0.77603 3.14878 0
M  V30 1313 H 122.233 2.54285 2.98466 0
M  V30 1314 H 123.723 1.88618 3.72576 0
M  V30 1315 N 124.16 -0.719506 1.40217 0
M  V30 1316 C 125.385 -1.51371 1.4178 0
M  V30 1317 C 125.81 -1.88091 0.0182355 0
M  V30 1318 O 125.168 -1.52997 -0.972707 0
M  V30 1319 C 125.216 -2.768 2.31115 0
M  V30 1320 O 124.32 -3.73349 1.7517 0
M  V30 1321 H 123.661 -0.456529 0.482159 0
M  V30 1322 H 126.191 -0.88644 1.844 0
M  V30 1323 H 126.201 -3.25371 2.46167 0
M  V30 1324 H 124.876 -2.49407 3.3282 0
M  V30 1325 H 123.453 -3.32179 1.69444 0
M  V30 1326 N 125.638 -1.25649 -0.95132 0
M  V30 1327 C 126.601 -1.06399 -2.03007 0
M  V30 1328 C 127.601 -0.0156794 -1.60792 0
M  V30 1329 O 128.791 -0.25817 -1.72276 0
M  V30 1330 C 125.923 -0.616184 -3.35285 0
M  V30 1331 H 127.116 -2.02164 -2.21517 0
M  V30 1332 H 124.669 -1.08103 -1.12887 0
M  V30 1333 H 125.404 0.343917 -3.22471 0
M  V30 1334 H 125.189 -1.37301 -3.67275 0
M  V30 1335 H 126.679 -0.503032 -4.14559 0
M  V30 1336 N 127.117 1.15442 -1.07289 0
M  V30 1337 C 128.047 2.22312 -0.714107 0
M  V30 1338 C 129.028 1.67467 0.298155 0
M  V30 1339 O 130.213 1.93445 0.171048 0
M  V30 1340 C 127.343 3.47124 -0.110448 0
M  V30 1341 C 126.297 4.14926 -1.04979 0
M  V30 1342 C 125.623 5.33807 -0.308924 0
M  V30 1343 C 126.923 4.64762 -2.38314 0
M  V30 1344 H 128.617 2.5258 -1.6076 0
M  V30 1345 H 126.163 1.21404 -0.77441 0
M  V30 1346 H 128.116 4.21124 0.152482 0
M  V30 1347 H 126.84 3.16187 0.81812 0
M  V30 1348 H 125.499 3.42866 -1.29764 0
M  V30 1349 H 125.147 4.99126 0.623084 0
M  V30 1350 H 124.847 5.80113 -0.935036 0
M  V30 1351 H 126.371 6.10576 -0.0537771 0
M  V30 1352 H 127.785 5.30292 -2.1786 0
M  V30 1353 H 126.182 5.21728 -2.96514 0
M  V30 1354 H 127.252 3.80434 -3.00663 0
M  V30 1355 N 128.595 0.856903 1.32268 0
M  V30 1356 C 129.542 0.301172 2.28827 0
M  V30 1357 C 130.512 -0.593104 1.5515 0
M  V30 1358 O 131.697 -0.527537 1.83362 0
M  V30 1359 C 128.837 -0.502523 3.41422 0
M  V30 1360 C 127.95 0.417797 4.29975 0
M  V30 1361 C 127.085 -0.398749 5.29701 0
M  V30 1362 C 126.124 0.518827 6.09897 0
M  V30 1363 N 125.261 -0.260674 7.01616 0
M  V30 1364 H 130.101 1.12983 2.75751 0
M  V30 1365 H 127.638 0.568582 1.35667 0
M  V30 1366 H 129.596 -0.984141 4.05426 0
M  V30 1367 H 128.226 -1.29599 2.95642 0
M  V30 1368 H 127.278 1.01781 3.66531 0
M  V30 1369 H 128.59 1.12191 4.86019 0
M  V30 1370 H 127.744 -0.943435 5.9932 0
M  V30 1371 H 126.483 -1.13622 4.7428 0
M  V30 1372 H 125.488 1.07538 5.39181 0
M  V30 1373 H 126.713 1.25495 6.67404 0
M  V30 1374 H 124.659 -0.981198 6.4862 0
M  V30 1375 H 124.576 0.384364 7.55022 0
M  V30 1376 H 125.844 -0.787014 7.75517 0
M  V30 1377 N 130.073 -1.45103 0.615059 0
M  V30 1378 C 131.298 -2.07064 0.117988 0
M  V30 1379 C 131.723 -1.4554 -1.19163 0
M  V30 1380 O 131.081 -0.550855 -1.72729 0
M  V30 1381 C 131.129 -3.606 -0.000288387 0
M  V30 1382 O 130.233 -3.98847 -1.04856 0
M  V30 1383 H 129.574 -0.659467 0.0774581 0
M  V30 1384 H 132.104 -1.86236 0.847186 0
M  V30 1385 H 132.114 -4.07529 -0.196091 0
M  V30 1386 H 130.789 -4.04765 0.955932 0
M  V30 1387 H 129.366 -3.63577 -0.828619 0
M  V30 1388 N 131.551 -0.354651 -1.53558 0
M  V30 1389 C 132.514 0.484566 -2.24019 0
M  V30 1390 C 133.514 1.01861 -1.24422 0
M  V30 1391 O 134.704 0.906097 -1.4878 0
M  V30 1392 C 131.836 1.67615 -2.96847 0
M  V30 1393 H 133.029 -0.131843 -2.9961 0
M  V30 1394 H 130.582 -0.106165 -1.55939 0
M  V30 1395 H 131.317 2.33095 -2.25471 0
M  V30 1396 H 131.102 1.30029 -3.69912 0
M  V30 1397 H 132.592 2.27114 -3.50441 0
M  V30 1398 N 133.029 1.57378 -0.0835403 0
M  V30 1399 C 133.959 2.1641 0.87686 0
M  V30 1400 C 134.94 1.09429 1.30228 0
M  V30 1401 O 136.125 1.37516 1.37124 0
M  V30 1402 C 133.255 2.73517 2.14022 0
M  V30 1403 C 132.209 3.85769 1.85381 0
M  V30 1404 C 131.535 4.29529 3.18448 0
M  V30 1405 C 132.835 5.09486 1.14984 0
M  V30 1406 H 134.529 2.96914 0.385059 0
M  V30 1407 H 132.075 1.42823 0.18377 0
M  V30 1408 H 134.028 3.13463 2.81636 0
M  V30 1409 H 132.752 1.90252 2.65465 0
M  V30 1410 H 131.411 3.46345 1.20169 0
M  V30 1411 H 131.059 3.43169 3.67755 0
M  V30 1412 H 130.759 5.05204 3.00071 0
M  V30 1413 H 132.283 4.72099 3.8724 0
M  V30 1414 H 133.697 5.46674 1.72687 0
M  V30 1415 H 132.094 5.90515 1.06826 0
M  V30 1416 H 133.164 4.84724 0.130749 0
M  V30 1417 N 134.507 -0.190092 1.56449 0
M  V30 1418 C 135.732 -0.929864 1.85387 0
M  V30 1419 C 136.157 -1.7585 0.667704 0
M  V30 1420 O 135.515 -1.77198 -0.383459 0
M  V30 1421 C 135.563 -1.79773 3.12593 0
M  V30 1422 O 134.667 -2.89713 2.93496 0
M  V30 1423 H 134.008 -0.261574 0.610307 0
M  V30 1424 H 136.538 -0.193896 2.03679 0
M  V30 1425 H 136.548 -2.20139 3.43515 0
M  V30 1426 H 135.223 -1.18892 3.98544 0
M  V30 1427 H 133.8 -2.53065 2.73884 0
M  V30 1428 N 135.985 -1.50799 -0.457987 0
M  V30 1429 C 137.233 -1.62121 -1.2067 0
M  V30 1430 C 137.554 -0.329793 -1.92191 0
M  V30 1431 O 136.824 0.653409 -1.84682 0
M  V30 1432 H 135.404 -0.597441 -0.448411 0
M  V30 1433 H 138.066 -1.87637 -0.527096 0
M  V30 1434 H 137.162 -2.43882 -1.94751 0
M  V30 1435 N 137.463 0.71206 -1.40597 0
M  V30 1436 C 138.413 1.81783 -1.37619 0
M  V30 1437 C 139.397 1.58896 -0.253162 0
M  V30 1438 O 140.589 1.70009 -0.492547 0
M  V30 1439 C 137.718 3.19944 -1.24462 0
M  V30 1440 C 136.804 3.48582 -2.4156 0
M  V30 1441 N 137.195 3.48016 -3.67041 0
M  V30 1442 C 135.493 3.79056 -2.35016 0
M  V30 1443 C 136.194 3.75096 -4.44609 0
M  V30 1444 N 135.17 3.94022 -3.74497 0
M  V30 1445 H 138.972 1.79683 -2.32575 0
M  V30 1446 H 136.486 0.91134 -1.34419 0
M  V30 1447 H 138.483 3.99133 -1.20411 0
M  V30 1448 H 137.143 3.23267 -0.304762 0
M  V30 1449 H 138.154 3.28782 -4.00153 0
M  V30 1450 H 134.831 3.89848 -1.49415 0
M  V30 1451 H 136.221 3.80934 -5.53479 0
M  V30 1452 N 138.941 1.26152 0.944643 0
M  V30 1453 C 139.871 1.09902 2.06019 0
M  V30 1454 C 140.852 0.00519538 1.70099 0
M  V30 1455 O 142.037 0.176583 1.93396 0
M  V30 1456 C 139.167 0.727562 3.39594 0
M  V30 1457 C 138.121 1.77274 3.89561 0
M  V30 1458 C 137.447 1.25569 5.19747 0
M  V30 1459 C 138.747 3.17357 4.14827 0
M  V30 1460 H 140.441 2.03217 2.19871 0
M  V30 1461 H 137.987 0.978452 1.05652 0
M  V30 1462 H 139.94 0.600777 4.17095 0
M  V30 1463 H 138.664 -0.241287 3.25707 0
M  V30 1464 H 137.323 1.88814 3.14237 0
M  V30 1465 H 136.971 0.276783 5.02238 0
M  V30 1466 H 136.671 1.95433 5.54148 0
M  V30 1467 H 138.195 1.1415 5.99835 0
M  V30 1468 H 139.609 3.08914 4.82954 0
M  V30 1469 H 138.006 3.84781 4.60504 0
M  V30 1470 H 139.076 3.63673 3.20734 0
M  V30 1471 N 140.419 -1.14872 1.07899 0
M  V30 1472 C 141.329 -2.2341 0.715915 0
M  V30 1473 C 142.345 -1.71808 -0.275306 0
M  V30 1474 O 143.521 -2.01039 -0.120545 0
M  V30 1475 C 140.586 -3.46474 0.125168 0
M  V30 1476 C 139.647 -4.13039 1.17034 0
M  V30 1477 C 138.88 -5.30229 0.607688 0
M  V30 1478 O 139.103 -5.675 -0.574497 0
M  V30 1479 O 138.037 -5.86444 1.35526 0
M  V30 1480 H 141.863 -2.56808 1.62121 0
M  V30 1481 H 139.448 -1.22702 0.852322 0
M  V30 1482 H 141.33 -4.20917 -0.201729 0
M  V30 1483 H 140.005 -3.14811 -0.753364 0
M  V30 1484 H 138.912 -3.40493 1.54968 0
M  V30 1485 H 140.245 -4.48796 2.02097 0
M  V30 1486 N 141.898 -0.863906 -1.31812 0
M  V30 1487 C 143.126 -0.486111 -2.01108 0
M  V30 1488 C 143.541 0.919755 -1.64882 0
M  V30 1489 O 142.898 1.60162 -0.874893 0
M  V30 1490 C 142.949 -0.626435 -3.56031 0
M  V30 1491 O 142.67 -1.97693 -3.90959 0
M  V30 1492 C 144.171 -0.248857 -4.42601 0
M  V30 1493 H 141.391 -0.190052 -0.643523 0
M  V30 1494 H 143.935 -1.1634 -1.68182 0
M  V30 1495 H 142.09 0.00322717 -3.874 0
M  V30 1496 H 142.504 -1.98034 -4.85678 0
M  V30 1497 H 143.978 -0.398016 -5.50563 0
M  V30 1498 H 144.455 0.811489 -4.31638 0
M  V30 1499 H 145.061 -0.853971 -4.16638 0
M  V30 1500 N 143.376 1.44774 -0.622745 0
M  V30 1501 C 144.622 2.0242 -0.124083 0
M  V30 1502 C 144.955 1.4881 1.24777 0
M  V30 1503 O 144.23 0.668799 1.8264 0
M  V30 1504 C 144.513 3.59957 -0.101619 0
M  V30 1505 C 144.366 4.23867 -1.50521 0
M  V30 1506 C 145.685 4.36284 0.578272 0
M  V30 1507 H 142.804 0.735528 -0.0465645 0
M  V30 1508 H 145.446 1.72447 -0.797617 0
M  V30 1509 H 143.596 3.85623 0.471934 0
M  V30 1510 H 145.268 4.09336 -2.12701 0
M  V30 1511 H 143.511 3.81684 -2.06154 0
M  V30 1512 H 144.182 5.32843 -1.4416 0
M  V30 1513 H 146.658 4.16001 0.0906057 0
M  V30 1514 H 145.534 5.46004 0.563149 0
M  V30 1515 H 145.795 4.10271 1.64713 0
M  V30 1516 N 144.854 0.36279 1.53368 0
M  V30 1517 C 146.103 -0.22888 2.00397 0
M  V30 1518 C 146.416 -1.50096 1.25421 0
M  V30 1519 O 147.622 -2.17106 1.63025 0
M  V30 1520 C 146.078 -0.458417 3.56969 0
M  V30 1521 C 145.686 0.798877 4.4082 0
M  V30 1522 C 147.43 -1.00789 4.12361 0
M  V30 1523 C 145.337 0.539078 5.88938 0
M  V30 1524 H 144.267 -0.089305 0.748693 0
M  V30 1525 H 146.918 0.481099 1.77081 0
M  V30 1526 H 145.3 -1.22959 3.76427 0
M  V30 1527 H 146.474 1.57262 4.33134 0
M  V30 1528 H 144.789 1.27137 3.96516 0
M  V30 1529 H 147.386 -1.21754 5.20653 0
M  V30 1530 H 147.729 -1.9692 3.66781 0
M  V30 1531 H 148.262 -0.296961 3.9669 0
M  V30 1532 H 145.001 1.47064 6.3879 0
M  V30 1533 H 144.521 -0.196222 5.99479 0
M  V30 1534 H 146.2 0.163542 6.46793 0
M  V30 1535 N 146.332 -1.57332 0.0918853 0
M  V30 1536 C 147.262 -2.16872 -0.865371 0
M  V30 1537 C 148.243 -1.10118 -1.29646 0
M  V30 1538 O 149.428 -1.38242 -1.36392 0
M  V30 1539 C 146.558 -2.74649 -2.12569 0
M  V30 1540 C 145.512 -3.86747 -1.83333 0
M  V30 1541 C 144.838 -4.31212 -3.16166 0
M  V30 1542 C 146.138 -5.10089 -1.1228 0
M  V30 1543 H 147.832 -2.97114 -0.369307 0
M  V30 1544 H 145.378 -1.42918 -0.176194 0
M  V30 1545 H 147.331 -3.14952 -2.7997 0
M  V30 1546 H 146.055 -1.91657 -2.64452 0
M  V30 1547 H 144.714 -3.46978 -1.18331 0
M  V30 1548 H 144.362 -3.45115 -3.6593 0
M  V30 1549 H 144.062 -5.06788 -2.97388 0
M  V30 1550 H 145.586 -4.74146 -3.84731 0
M  V30 1551 H 147 -5.47582 -1.69785 0
M  V30 1552 H 145.397 -5.91073 -1.03693 0
M  V30 1553 H 146.467 -4.84786 -0.105041 0
M  V30 1554 N 147.81 0.181792 -1.56548 0
M  V30 1555 C 149.058 0.89832 -1.81038 0
M  V30 1556 C 149.379 1.83232 -0.667164 0
M  V30 1557 O 148.649 1.93372 0.313673 0
M  V30 1558 H 147.229 0.33471 -0.667816 0
M  V30 1559 H 149.891 0.184116 -1.94028 0
M  V30 1560 H 148.987 1.4815 -2.74696 0
M  V30 1561 N 149.288 1.51039 0.449983 0
M  V30 1562 C 150.218 1.74379 1.55288 0
M  V30 1563 C 151.199 0.593236 1.5942 0
M  V30 1564 O 152.384 0.834625 1.7535 0
M  V30 1565 C 149.514 1.85728 2.93466 0
M  V30 1566 C 148.468 3.01078 3.04197 0
M  V30 1567 C 147.794 2.97595 4.44231 0
M  V30 1568 C 149.094 4.41254 2.7945 0
M  V30 1569 H 150.788 2.66725 1.36008 0
M  V30 1570 H 148.334 1.2835 0.652864 0
M  V30 1571 H 150.287 2.0064 3.70569 0
M  V30 1572 H 149.011 0.900207 3.13949 0
M  V30 1573 H 147.67 2.85851 2.29531 0
M  V30 1574 H 147.318 1.99691 4.61663 0
M  V30 1575 H 147.018 3.75046 4.52343 0
M  V30 1576 H 148.542 3.14583 5.23326 0
M  V30 1577 H 149.956 4.56897 3.46292 0
M  V30 1578 H 148.353 5.20315 2.98985 0
M  V30 1579 H 149.423 4.52164 1.75144 0
M  V30 1580 N 150.766 -0.704594 1.40972 0
M  V30 1581 C 151.696 -1.83124 1.44872 0
M  V30 1582 C 152.677 -1.67281 0.30838 0
M  V30 1583 O 153.862 -1.87149 0.518556 0
M  V30 1584 C 150.992 -3.21181 1.32136 0
M  V30 1585 C 149.946 -3.51714 2.43888 0
M  V30 1586 C 149.272 -4.89032 2.16222 0
M  V30 1587 C 150.572 -3.516 3.86232 0
M  V30 1588 H 152.266 -1.80117 2.39161 0
M  V30 1589 H 149.812 -0.865145 1.15114 0
M  V30 1590 H 151.765 -3.99702 1.33479 0
M  V30 1591 H 150.489 -3.24791 0.343279 0
M  V30 1592 H 149.148 -2.75539 2.41813 0
M  V30 1593 H 148.796 -4.89256 1.16778 0
M  V30 1594 H 148.496 -5.10426 2.911 0
M  V30 1595 H 150.02 -5.69873 2.19265 0
M  V30 1596 H 151.434 -4.2014 3.9007 0
M  V30 1597 H 149.831 -3.84523 4.60719 0
M  V30 1598 H 150.901 -2.50757 4.15029 0
M  V30 1599 N 152.244 -1.26651 -0.937939 0
M  V30 1600 C 153.191 -1.0849 -2.03712 0
M  V30 1601 C 154.161 0.011033 -1.66096 0
M  V30 1602 O 155.346 -0.149353 -1.90215 0
M  V30 1603 C 152.486 -0.72735 -3.37348 0
M  V30 1604 C 151.599 -1.89986 -3.87981 0
M  V30 1605 C 150.734 -1.48513 -5.10017 0
M  V30 1606 C 149.773 -2.62575 -5.5292 0
M  V30 1607 N 148.91 -2.21762 -6.66158 0
M  V30 1608 H 153.75 -2.02551 -2.18579 0
M  V30 1609 H 151.287 -1.00844 -1.07093 0
M  V30 1610 H 153.245 -0.50092 -4.14182 0
M  V30 1611 H 151.875 0.176298 -3.22318 0
M  V30 1612 H 150.927 -2.23913 -3.07518 0
M  V30 1613 H 152.239 -2.75586 -4.15757 0
M  V30 1614 H 151.393 -1.21934 -5.94321 0
M  V30 1615 H 150.132 -0.60009 -4.83994 0
M  V30 1616 H 149.137 -2.8988 -4.67172 0
M  V30 1617 H 150.362 -3.51685 -5.80943 0
M  V30 1618 H 148.308 -1.35696 -6.41812 0
M  V30 1619 H 148.225 -3.00903 -6.93537 0
M  V30 1620 H 149.493 -1.98403 -7.53828 0
M  V30 1621 N 153.722 1.14298 -1.08507 0
M  V30 1622 C 154.95 1.89219 -0.836876 0
M  V30 1623 C 155.365 1.78638 0.611054 0
M  V30 1624 O 154.722 1.14643 1.41998 0
M  V30 1625 C 154.773 3.39158 -1.25116 0
M  V30 1626 O 154.494 3.49449 -2.64229 0
M  V30 1627 C 155.995 4.31073 -1.03398 0
M  V30 1628 H 153.215 0.599328 -0.301739 0
M  V30 1629 H 155.759 1.44746 -1.44461 0
M  V30 1630 H 153.914 3.81251 -0.687514 0
M  V30 1631 H 154.328 4.42589 -2.81452 0
M  V30 1632 H 155.802 5.34646 -1.37323 0
M  V30 1633 H 156.279 4.3919 0.0289259 0
M  V30 1634 H 156.885 3.94738 -1.58311 0
M  V30 1635 N 155.201 0.870884 1.31352 0
M  V30 1636 C 156.612 0.534714 1.78879 0
M  V30 1637 C 156.963 -0.948423 1.71754 0
M  V30 1638 O 156.088 -1.74055 1.28584 0
M  V30 1639 C 156.683 0.963839 3.24801 0
M  V30 1640 C 155.242 0.679311 3.70219 0
M  V30 1641 C 154.389 1.15465 2.52117 0
M  V30 1642 H 157.34 1.05651 1.18421 0
M  V30 1643 H 157.361 0.286892 3.79417 0
M  V30 1644 H 156.873 2.04332 3.29955 0
M  V30 1645 H 154.974 -0.388769 3.70566 0
M  V30 1646 H 155.087 1.25698 4.62317 0
M  V30 1647 H 153.451 0.574383 2.48139 0
M  V30 1648 H 154.234 2.24157 2.60016 0
M  V30 1649 N 156.679 -1.44442 0.630414 0
M  V30 1650 C 157.642 -2.29107 -0.0652523 0
M  V30 1651 C 158.642 -1.41002 -0.772995 0
M  V30 1652 O 159.832 -1.62881 -0.617692 0
M  V30 1653 C 156.964 -3.22564 -1.10296 0
M  V30 1654 H 158.157 -2.92103 0.679401 0
M  V30 1655 H 155.71 -1.51343 0.390517 0
M  V30 1656 H 156.445 -2.64416 -1.87762 0
M  V30 1657 H 156.23 -3.87491 -0.59941 0
M  V30 1658 H 157.72 -3.86167 -1.5895 0
M  V30 1659 N 158.157 -0.370918 -1.53173 0
M  V30 1660 C 159.089 0.507823 -2.23503 0
M  V30 1661 C 160.102 1.04182 -1.251 0
M  V30 1662 O 161.291 0.947286 -1.5129 0
M  V30 1663 C 158.391 1.71447 -2.92334 0
M  V30 1664 C 157.564 1.31105 -4.17289 0
M  V30 1665 C 156.623 2.38035 -4.69282 0
M  V30 1666 O 155.649 2.00204 -5.32829 0
M  V30 1667 N 156.851 3.69697 -4.47554 0
M  V30 1668 H 159.616 -0.0946382 -2.99551 0
M  V30 1669 H 157.177 -0.196358 -1.60705 0
M  V30 1670 H 159.169 2.42469 -3.24023 0
M  V30 1671 H 157.739 2.22368 -2.19707 0
M  V30 1672 H 156.959 0.430462 -3.91843 0
M  V30 1673 H 158.247 1.0179 -4.98514 0
M  V30 1674 H 157.645 4.03205 -3.9679 0
M  V30 1675 H 156.202 4.36807 -4.8378 0
M  V30 1676 N 159.635 1.57281 -0.100228 0
M  V30 1677 C 160.865 1.98591 0.569681 0
M  V30 1678 C 161.273 0.978315 1.61943 0
M  V30 1679 O 160.616 -0.0396108 1.83657 0
M  V30 1680 C 160.678 3.36282 1.271 0
M  V30 1681 C 160.342 4.55488 0.371409 0
M  V30 1682 C 161.339 5.18491 -0.382504 0
M  V30 1683 C 159.024 5.01474 0.287965 0
M  V30 1684 C 161.018 6.25852 -1.20779 0
M  V30 1685 C 158.705 6.08701 -0.540965 0
M  V30 1686 C 159.703 6.70755 -1.28749 0
M  V30 1687 O 159.391 7.75914 -2.10269 0
M  V30 1688 H 159.123 0.65752 0.156982 0
M  V30 1689 H 161.677 2.0463 -0.177734 0
M  V30 1690 H 159.907 3.26941 2.0651 0
M  V30 1691 H 161.596 3.62005 1.83595 0
M  V30 1692 H 162.362 4.83891 -0.3278 0
M  V30 1693 H 158.241 4.52932 0.858689 0
M  V30 1694 H 161.785 6.74218 -1.79096 0
M  V30 1695 H 157.682 6.42732 -0.597131 0
M  V30 1696 H 158.45 7.92925 -2.03007 0
M  V30 1697 N 161.113 -0.173488 1.56642 0
M  V30 1698 C 162.39 -0.917617 1.7274 0
M  V30 1699 C 162.77 -2.00484 0.661027 0
M  V30 1700 O 162.118 -2.26184 -0.32453 0
M  V30 1701 C 162.328 -1.48433 3.15862 0
M  V30 1702 C 163.676 -1.95809 3.76754 0
M  V30 1703 O 164.7 -1.58231 3.19126 0
M  V30 1704 O 163.559 -2.65024 4.77938 0
M  V30 1705 H 160.653 -0.431772 0.705338 0
M  V30 1706 H 163.199 -0.161487 1.6893 0
M  V30 1707 H 161.971 -0.701715 3.84957 0
M  V30 1708 H 161.594 -2.30471 3.23989 0
M  V30 1709 N 162.591 -1.51276 -0.441967 0
M  V30 1710 C 163.554 -1.7167 -1.51862 0
M  V30 1711 C 164.554 -0.586793 -1.49711 0
M  V30 1712 O 165.744 -0.854276 -1.51815 0
M  V30 1713 C 162.876 -1.76889 -2.91416 0
M  V30 1714 H 164.069 -2.67754 -1.35084 0
M  V30 1715 H 161.622 -1.41196 -0.670333 0
M  V30 1716 H 162.357 -0.826026 -3.13604 0
M  V30 1717 H 162.142 -2.59001 -2.94382 0
M  V30 1718 H 163.632 -1.94522 -3.69528 0
M  V30 1719 N 164.069 0.697108 -1.41344 0
M  V30 1720 C 165.294 1.49096 -1.44171 0
M  V30 1721 C 165.719 1.88038 -0.0481568 0
M  V30 1722 O 165.077 1.54525 0.948243 0
M  V30 1723 C 165.125 2.73088 -2.3549 0
M  V30 1724 O 164.229 3.70514 -1.81088 0
M  V30 1725 H 163.57 0.448801 -0.489361 0
M  V30 1726 H 166.1 0.856992 -1.85787 0
M  V30 1727 H 166.11 3.21413 -2.51312 0
M  V30 1728 H 164.785 2.44081 -3.36745 0
M  V30 1729 H 163.362 3.29441 -1.74708 0
M  V30 1730 N 165.547 1.27147 0.931209 0
M  V30 1731 C 166.457 1.11372 2.06478 0
M  V30 1732 C 167.473 0.044645 1.73943 0
M  V30 1733 O 168.649 0.250417 1.99837 0
M  V30 1734 C 165.714 0.758838 3.38294 0
M  V30 1735 C 164.775 1.90841 3.84549 0
M  V30 1736 C 164.008 1.57036 5.10074 0
M  V30 1737 O 164.231 0.476645 5.68405 0
M  V30 1738 O 163.165 2.40839 5.51616 0
M  V30 1739 H 166.991 2.06493 2.22698 0
M  V30 1740 H 164.576 1.06301 1.04978 0
M  V30 1741 H 166.458 0.574098 4.17471 0
M  V30 1742 H 165.133 -0.162879 3.2329 0
M  V30 1743 H 164.04 2.14819 3.06274 0
M  V30 1744 H 165.373 2.81021 4.04089 0
M  V30 1745 N 167.025 -1.13721 1.09112 0
M  V30 1746 C 167.955 -2.21148 0.749385 0
M  V30 1747 C 168.936 -1.6792 -0.271475 0
M  V30 1748 O 170.121 -1.93693 -0.140251 0
M  V30 1749 C 167.251 -3.46905 0.165659 0
M  V30 1750 C 166.205 -4.13203 1.11567 0
M  V30 1751 C 165.531 -5.33248 0.393809 0
M  V30 1752 C 166.831 -4.60912 2.45678 0
M  V30 1753 H 168.525 -2.4999 1.64758 0
M  V30 1754 H 166.071 -1.20156 0.793626 0
M  V30 1755 H 168.024 -4.21313 -0.085466 0
M  V30 1756 H 166.748 -3.17449 -0.767714 0
M  V30 1757 H 165.407 -3.40758 1.35202 0
M  V30 1758 H 165.055 -5.00054 -0.543599 0
M  V30 1759 H 164.755 -5.78552 1.02721 0
M  V30 1760 H 166.279 -6.10413 0.150908 0
M  V30 1761 H 167.693 -5.26759 2.26269 0
M  V30 1762 H 166.09 -5.16944 3.04776 0
M  V30 1763 H 167.16 -3.75603 3.06677 0
M  V30 1764 N 168.503 -0.877838 -1.30888 0
M  V30 1765 C 169.45 -0.337538 -2.28318 0
M  V30 1766 C 170.42 0.568346 -1.56074 0
M  V30 1767 O 171.605 0.498298 -1.84178 0
M  V30 1768 C 168.745 0.448142 -3.42178 0
M  V30 1769 C 167.858 -0.48615 -4.29256 0
M  V30 1770 C 166.993 0.314427 -5.30269 0
M  V30 1771 C 166.032 -0.615791 -6.08995 0
M  V30 1772 N 165.169 0.14902 -7.01942 0
M  V30 1773 H 170.009 -1.17356 -2.73919 0
M  V30 1774 H 167.546 -0.590094 -1.34745 0
M  V30 1775 H 169.504 0.919517 -4.06941 0
M  V30 1776 H 168.134 1.24879 -2.97666 0
M  V30 1777 H 167.186 -1.076 -3.64865 0
M  V30 1778 H 168.498 -1.19909 -4.84173 0
M  V30 1779 H 167.652 0.847969 -6.00745 0
M  V30 1780 H 166.391 1.06062 -4.76027 0
M  V30 1781 H 165.396 -1.16102 -5.37401 0
M  V30 1782 H 166.621 -1.36097 -6.65323 0
M  V30 1783 H 164.567 0.877884 -6.50099 0
M  V30 1784 H 164.484 -0.504433 -7.54315 0
M  V30 1785 H 165.752 0.663537 -7.76671 0
M  V30 1786 N 169.982 1.44106 -0.638065 0
M  V30 1787 C 170.945 2.29138 0.0531013 0
M  V30 1788 C 171.945 1.41409 0.765506 0
M  V30 1789 O 173.135 1.63206 0.609046 0
M  V30 1790 C 170.267 3.23144 1.08584 0
M  V30 1791 H 171.46 2.91739 -0.694883 0
M  V30 1792 H 169.013 1.51134 -0.398538 0
M  V30 1793 H 169.748 2.65408 1.86357 0
M  V30 1794 H 169.533 3.87804 0.578852 0
M  V30 1795 H 171.023 3.87004 1.56899 0
M  V30 1796 N 171.46 0.379036 1.52974 0
M  V30 1797 C 172.685 -0.209353 2.06341 0
M  V30 1798 C 173.11 -1.40583 1.24972 0
M  V30 1799 O 172.468 -1.79246 0.272155 0
M  V30 1800 C 172.516 -0.567786 3.56102 0
M  V30 1801 O 171.62 -1.66318 3.77375 0
M  V30 1802 H 170.961 -0.0272919 0.663439 0
M  V30 1803 H 173.491 0.543536 1.97248 0
M  V30 1804 H 173.501 -0.835003 3.99364 0
M  V30 1805 H 172.176 0.307013 4.14765 0
M  V30 1806 H 170.753 -1.39048 3.46006 0
M  V30 1807 N 172.938 -1.57226 0.108567 0
M  V30 1808 C 173.871 -2.10447 -0.882464 0
M  V30 1809 C 174.849 -1.01829 -1.26766 0
M  V30 1810 O 176.033 -1.29415 -1.37054 0
M  V30 1811 C 173.16 -2.59258 -2.17952 0
M  V30 1812 C 172.206 -3.79662 -1.94318 0
M  V30 1813 S 173.039 -5.22586 -1.16892 0
M  V30 1814 C 174.195 -5.74758 -2.47799 0
M  V30 1815 H 174.428 -2.94178 -0.429745 0
M  V30 1816 H 171.961 -1.54043 -0.105 0
M  V30 1817 H 173.919 -2.88036 -2.92482 0
M  V30 1818 H 172.58 -1.75728 -2.60343 0
M  V30 1819 H 171.773 -4.11928 -2.90399 0
M  V30 1820 H 171.375 -3.51446 -1.27913 0
M  V30 1821 H 173.667 -5.83846 -3.43701 0
M  V30 1822 H 174.61 -6.73027 -2.20093 0
M  V30 1823 H 175.018 -5.02763 -2.56689 0
M  V30 1824 N 174.416 0.165178 -1.56732 0
M  V30 1825 C 175.363 1.2044 -1.96883 0
M  V30 1826 C 176.333 1.43664 -0.833657 0
M  V30 1827 O 177.518 1.56302 -1.09427 0
M  V30 1828 C 174.658 2.53727 -2.33916 0
M  V30 1829 C 173.771 2.3783 -3.6064 0
M  V30 1830 C 172.906 3.64026 -3.86857 0
M  V30 1831 C 171.945 3.43088 -5.06909 0
M  V30 1832 N 171.082 4.61369 -5.29229 0
M  V30 1833 H 175.922 0.854996 -2.85471 0
M  V30 1834 H 173.459 0.41076 -1.41249 0
M  V30 1835 H 175.417 3.31419 -2.53411 0
M  V30 1836 H 174.047 2.8665 -1.48431 0
M  V30 1837 H 173.099 1.51282 -3.49024 0
M  V30 1838 H 174.411 2.18308 -4.4849 0
M  V30 1839 H 173.565 4.50152 -4.06753 0
M  V30 1840 H 172.304 3.86533 -2.97394 0
M  V30 1841 H 171.309 2.55349 -4.86906 0
M  V30 1842 H 172.534 3.21997 -5.97909 0
M  V30 1843 H 170.48 4.84084 -4.42718 0
M  V30 1844 H 170.397 4.44783 -6.11313 0
M  V30 1845 H 171.665 5.48761 -5.53608 0
M  V30 1846 N 175.894 1.51508 0.433938 0
M  V30 1847 C 177.142 1.6402 1.18075 0
M  V30 1848 C 177.463 0.360328 1.91642 0
M  V30 1849 O 176.733 -0.623945 1.85698 0
M  V30 1850 H 175.313 0.6045 0.43885 0
M  V30 1851 H 177.975 1.88452 0.497178 0
M  V30 1852 H 177.071 2.46949 1.90847 0
M  V30 1853 N 177.372 -0.689602 1.41712 0
M  V30 1854 C 178.302 -1.81577 1.46806 0
M  V30 1855 C 179.283 -1.66945 0.326105 0
M  V30 1856 O 180.468 -1.86588 0.538377 0
M  V30 1857 C 177.598 -3.19762 1.35535 0
M  V30 1858 C 176.552 -3.49107 2.47605 0
M  V30 1859 C 175.878 -4.86711 2.21397 0
M  V30 1860 C 177.178 -3.47483 3.89939 0
M  V30 1861 H 178.872 -1.7757 2.41058 0
M  V30 1862 H 176.418 -0.852887 1.16025 0
M  V30 1863 H 178.371 -3.98263 1.3771 0
M  V30 1864 H 177.095 -3.24409 0.377708 0
M  V30 1865 H 175.754 -2.72959 2.44722 0
M  V30 1866 H 175.402 -4.8799 1.21961 0
M  V30 1867 H 175.102 -5.0731 2.96497 0
M  V30 1868 H 176.626 -5.67515 2.25297 0
M  V30 1869 H 178.04 -4.1598 3.94505 0
M  V30 1870 H 176.437 -3.79615 4.64771 0
M  V30 1871 H 177.507 -2.46341 4.17665 0
M  V30 1872 N 178.85 -1.27639 -0.924453 0
M  V30 1873 C 180.098 -1.13941 -1.66918 0
M  V30 1874 C 180.419 0.314589 -1.92446 0
M  V30 1875 O 179.689 1.21964 -1.53303 0
M  V30 1876 H 178.269 -0.418678 -0.618642 0
M  V30 1877 H 180.931 -1.60213 -1.10985 0
M  V30 1878 H 180.027 -1.67094 -2.63602 0
M  V30 1879 N 180.328 1.1314 -1.09713 0
M  V30 1880 C 181.556 1.88321 -0.856898 0
M  V30 1881 C 181.971 1.79276 0.592073 0
M  V30 1882 O 181.328 1.16142 1.40774 0
M  V30 1883 C 181.379 3.37812 -1.28706 0
M  V30 1884 O 181.1 3.46627 -2.67921 0
M  V30 1885 C 182.601 4.29952 -1.07964 0
M  V30 1886 H 179.821 0.596094 -0.308079 0
M  V30 1887 H 182.365 1.43205 -1.45988 0
M  V30 1888 H 180.52 3.805 -0.727912 0
M  V30 1889 H 180.934 4.39579 -2.8613 0
M  V30 1890 H 182.408 5.33159 -1.42986 0
M  V30 1891 H 182.885 4.39196 -0.0176577 0
M  V30 1892 H 183.491 3.93036 -1.62489 0
M  V30 1893 N 181.806 0.884767 1.30421 0
M  V30 1894 C 183.083 0.423185 1.90967 0
M  V30 1895 C 183.463 -1.09605 1.80416 0
M  V30 1896 O 182.811 -1.93126 1.22125 0
M  V30 1897 C 183.021 0.921056 3.36627 0
M  V30 1898 C 184.369 0.955903 4.137 0
M  V30 1899 O 185.393 0.867706 3.4547 0
M  V30 1900 O 184.252 1.08614 5.35598 0
M  V30 1901 H 181.346 0.129369 0.816819 0
M  V30 1902 H 183.892 0.973653 1.3899 0
M  V30 1903 H 182.664 1.96489 3.3839 0
M  V30 1904 H 182.287 0.349741 3.96059 0
M  V30 1905 N 183.284 -1.43765 0.645699 0
M  V30 1906 C 184.194 -2.34544 -0.0512957 0
M  V30 1907 C 185.21 -1.53455 -0.82022 0
M  V30 1908 O 186.386 -1.86133 -0.769176 0
M  V30 1909 C 183.451 -3.31636 -1.01087 0
M  V30 1910 C 182.512 -4.2863 -0.239712 0
M  V30 1911 C 181.745 -5.21084 -1.15358 0
M  V30 1912 O 181.968 -5.1779 -2.39269 0
M  V30 1913 O 180.902 -5.98593 -0.630038 0
M  V30 1914 H 184.728 -2.95624 0.695718 0
M  V30 1915 H 182.313 -1.43781 0.405882 0
M  V30 1916 H 184.195 -3.9136 -1.56254 0
M  V30 1917 H 182.87 -2.73069 -1.73824 0
M  V30 1918 H 181.777 -3.72408 0.355356 0
M  V30 1919 H 183.11 -4.90157 0.447936 0
M  V30 1920 N 184.763 -0.387143 -1.52771 0
M  V30 1921 C 186.04 0.253197 -1.93954 0
M  V30 1922 C 186.42 1.64545 -1.32243 0
M  V30 1923 O 185.768 2.23191 -0.489699 0
M  V30 1924 C 185.978 0.281722 -3.47861 0
M  V30 1925 C 187.326 0.511715 -4.21505 0
M  V30 1926 O 188.35 0.362023 -3.54356 0
M  V30 1927 O 187.209 0.804847 -5.40541 0
M  V30 1928 H 184.303 0.156845 -0.811991 0
M  V30 1929 H 186.849 -0.441494 -1.63856 0
M  V30 1930 H 185.621 -0.693571 -3.85104 0
M  V30 1931 H 185.244 1.02142 -3.84256 0
M  V30 1932 N 186.241 1.57166 -0.116904 0
M  V30 1933 C 187.466 1.999 0.55271 0
M  V30 1934 C 187.891 0.996039 1.59564 0
M  V30 1935 O 187.249 -0.032556 1.81271 0
M  V30 1936 C 187.297 3.4152 1.15742 0
M  V30 1937 O 186.401 3.44106 2.27299 0
M  V30 1938 H 185.742 0.649447 0.138258 0
M  V30 1939 H 188.272 2.03573 -0.204759 0
M  V30 1940 H 188.282 3.79684 1.49346 0
M  V30 1941 H 186.957 4.14034 0.393493 0
M  V30 1942 H 185.534 3.17759 1.9515 0
M  V30 1943 N 187.719 -0.156864 1.56817 0
M  V30 1944 C 188.649 -1.19589 2.00551 0
M  V30 1945 C 189.63 -1.4536 0.883426 0
M  V30 1946 O 190.815 -1.56449 1.15054 0
M  V30 1947 C 187.945 -2.53143 2.37773 0
M  V30 1948 C 186.899 -2.41913 3.53075 0
M  V30 1949 C 186.225 -3.80088 3.76081 0
M  V30 1950 C 187.525 -1.91157 4.86062 0
M  V30 1951 H 189.219 -0.832293 2.87599 0
M  V30 1952 H 186.765 -0.398918 1.38364 0
M  V30 1953 H 188.718 -3.26047 2.66967 0
M  V30 1954 H 187.442 -2.91319 1.4765 0
M  V30 1955 H 186.101 -1.71462 3.24031 0
M  V30 1956 H 185.749 -4.15683 2.83225 0
M  V30 1957 H 185.449 -3.73439 4.53671 0
M  V30 1958 H 186.973 -4.54556 4.0769 0
M  V30 1959 H 188.387 -2.53846 5.14038 0
M  V30 1960 H 186.784 -1.95422 5.67389 0
M  V30 1961 H 187.854 -0.866673 4.77092 0
M  V30 1962 N 189.197 -1.51736 -0.425897 0
M  V30 1963 C 190.446 -1.64201 -1.17136 0
M  V30 1964 C 190.759 -0.369705 -1.92074 0
M  V30 1965 O 191.965 -0.373898 -2.68913 0
M  V30 1966 C 190.421 -2.90035 -2.13091 0
M  V30 1967 C 190.029 -4.24312 -1.43747 0
M  V30 1968 C 191.773 -3.1186 -2.87999 0
M  V30 1969 C 189.68 -5.41285 -2.38253 0
M  V30 1970 H 188.61 -0.611624 -0.440944 0
M  V30 1971 H 191.261 -1.78212 -0.437328 0
M  V30 1972 H 189.643 -2.69684 -2.89977 0
M  V30 1973 H 190.817 -4.55086 -0.723408 0
M  V30 1974 H 189.132 -4.08456 -0.809465 0
M  V30 1975 H 191.729 -3.96427 -3.58817 0
M  V30 1976 H 192.072 -2.25403 -3.49999 0
M  V30 1977 H 192.605 -3.32605 -2.18217 0
M  V30 1978 H 189.344 -6.30037 -1.80925 0
M  V30 1979 H 188.864 -5.14872 -3.0768 0
M  V30 1980 H 190.543 -5.73694 -2.99139 0
M  V30 1981 N 190.675 0.682077 -1.42076 0
M  V30 1982 C 191.585 1.82535 -1.47371 0
M  V30 1983 C 192.601 1.7017 -0.363079 0
M  V30 1984 O 193.777 1.91848 -0.612875 0
M  V30 1985 C 190.842 3.18624 -1.36674 0
M  V30 1986 C 189.903 3.42999 -2.58167 0
M  V30 1987 C 189.136 4.72595 -2.4797 0
M  V30 1988 O 189.359 5.50006 -1.5116 0
M  V30 1989 O 188.293 4.98054 -3.37974 0
M  V30 1990 H 192.119 1.81023 -2.43853 0
M  V30 1991 H 189.704 0.836887 -1.2376 0
M  V30 1992 H 191.586 3.99847 -1.33043 0
M  V30 1993 H 190.261 3.20789 -0.433138 0
M  V30 1994 H 189.168 2.61653 -2.67373 0
M  V30 1995 H 190.501 3.45659 -3.50401 0
M  V30 1996 N 192.153 1.28127 0.917671 0
M  V30 1997 C 193.402 1.14432 1.66097 0
M  V30 1998 C 193.715 -0.307247 1.93172 0
M  V30 1999 O 194.921 -0.565259 2.65551 0
M  V30 2000 C 193.377 2.00015 2.99202 0
M  V30 2001 C 192.985 3.49889 2.79789 0
M  V30 2002 C 194.729 1.94996 3.77064 0
M  V30 2003 C 192.636 4.27636 4.08511 0
M  V30 2004 H 191.566 0.424662 0.62304 0
M  V30 2005 H 194.217 1.52628 1.01868 0
M  V30 2006 H 192.599 1.54672 3.64544 0
M  V30 2007 H 193.773 4.03162 2.23152 0
M  V30 2008 H 192.088 3.56392 2.15345 0
M  V30 2009 H 194.685 2.50354 4.72469 0
M  V30 2010 H 195.028 0.925819 4.05875 0
M  V30 2011 H 195.561 2.38287 3.18534 0
M  V30 2012 H 192.3 5.30615 3.84874 0
M  V30 2013 H 191.82 3.79137 4.64774 0
M  V30 2014 H 193.499 4.37346 4.76799 0
M  V30 2015 N 193.631 -1.12557 1.10312 0
M  V30 2016 C 194.88 -1.83395 0.839588 0
M  V30 2017 C 195.193 -1.84939 -0.636929 0
M  V30 2018 O 196.399 -2.51761 -1.01631 0
M  V30 2019 C 194.855 -3.29303 1.45215 0
M  V30 2020 C 194.463 -3.36122 2.96186 0
M  V30 2021 C 196.207 -4.05121 1.26796 0
M  V30 2022 C 194.114 -4.76357 3.50483 0
M  V30 2023 H 193.044 -0.687133 0.310425 0
M  V30 2024 H 195.695 -1.26746 1.32694 0
M  V30 2025 H 194.077 -3.85812 0.892469 0
M  V30 2026 H 195.251 -2.89559 3.58458 0
M  V30 2027 H 193.566 -2.73776 3.13745 0
M  V30 2028 H 196.163 -5.08668 1.64806 0
M  V30 2029 H 196.506 -4.15773 0.209409 0
M  V30 2030 H 197.039 -3.54967 1.79563 0
M  V30 2031 H 193.778 -4.70899 4.55998 0
M  V30 2032 H 193.298 -5.23377 2.92978 0
M  V30 2033 H 194.977 -5.45294 3.48228 0
M  V30 2034 N 195.109 -0.891671 -1.2995 0
M  V30 2035 C 196.349 -0.520296 -1.97667 0
M  V30 2036 C 196.713 0.914797 -1.68806 0
M  V30 2037 O 197.914 1.39263 -2.29911 0
M  V30 2038 C 196.185 -0.795222 -3.48441 0
M  V30 2039 S 197.744 -0.526953 -4.35624 0
M  V30 2040 H 194.562 -0.19333 -0.684211 0
M  V30 2041 H 197.164 -1.15238 -1.57926 0
M  V30 2042 H 195.868 -1.83805 -3.66938 0
M  V30 2043 H 195.399 -0.15095 -3.9311 0
M  V30 2044 H 197.414 0.631533 -4.92165 0
M  V30 2045 N 196.587 1.43421 -0.653314 0
M  V30 2046 C 197.812 2.06678 -0.172846 0
M  V30 2047 C 198.237 1.48648 1.15262 0
M  V30 2048 O 197.595 0.596457 1.71208 0
M  V30 2049 C 197.643 3.60474 -0.0953184 0
M  V30 2050 O 196.747 4.01487 0.942442 0
M  V30 2051 H 196.088 0.657181 -0.0949155 0
M  V30 2052 H 198.618 1.83925 -0.896265 0
M  V30 2053 H 198.628 4.07905 0.0879728 0
M  V30 2054 H 197.303 4.02088 -1.06291 0
M  V30 2055 H 195.88 3.65646 0.731932 0
M  V30 2056 N 198.065 0.39524 1.52563 0
M  V30 2057 C 199.481 0.0454682 1.59535 0
M  V30 2058 C 199.681 -1.44056 1.4089 0
M  V30 2059 O 198.737 -2.20579 1.22888 0
M  V30 2060 C 200.05 0.527963 2.96029 0
M  V30 2061 C 201.598 0.484733 3.09224 0
M  V30 2062 C 202.073 0.943512 4.48176 0
M  V30 2063 N 203.564 0.899765 4.54377 0
M  V30 2064 C 204.299 1.22609 5.60138 0
M  V30 2065 N 203.795 1.62319 6.73516 0
M  V30 2066 N 205.588 1.14696 5.50274 0
M  V30 2067 H 197.739 1.36261 1.62931 0
M  V30 2068 H 200.002 0.558887 0.765735 0
M  V30 2069 H 199.708 1.56607 3.14908 0
M  V30 2070 H 199.582 -0.0698056 3.77135 0
M  V30 2071 H 201.969 -0.544298 2.90037 0
M  V30 2072 H 202.05 1.11838 2.30056 0
M  V30 2073 H 201.694 1.9708 4.68104 0
M  V30 2074 H 201.624 0.286817 5.25818 0
M  V30 2075 H 204.115 0.607632 3.72983 0
M  V30 2076 H 204.428 1.85567 7.5019 0
M  V30 2077 H 202.773 1.66211 6.74833 0
M  V30 2078 H 205.964 0.835701 4.6058 0
M  V30 2079 H 206.137 1.40459 6.32594 0
M  V30 2080 N 199.544 -1.57102 0.125237 0
M  V30 2081 C 200.772 -1.99761 -0.538797 0
M  V30 2082 C 201.187 -1.00503 -1.59827 0
M  V30 2083 O 200.544 0.00119474 -1.825 0
M  V30 2084 C 200.595 -3.42408 -1.15927 0
M  V30 2085 O 200.316 -4.37869 -0.142143 0
M  V30 2086 C 201.817 -4.00232 -1.90602 0
M  V30 2087 H 199.037 -0.655772 -0.14214 0
M  V30 2088 H 201.581 -2.03383 0.213413 0
M  V30 2089 H 199.736 -3.39706 -1.86223 0
M  V30 2090 H 200.15 -5.21128 -0.593775 0
M  V30 2091 H 201.624 -5.02105 -2.29335 0
M  V30 2092 H 202.101 -3.39721 -2.78363 0
M  V30 2093 H 202.707 -4.06499 -1.25055 0
M  V30 2094 N 201.022 0.148545 -1.56898 0
M  V30 2095 C 201.97 1.20265 -1.99096 0
M  V30 2096 C 202.964 1.44559 -0.883123 0
M  V30 2097 O 204.17 1.4487 -1.0683 0
M  V30 2098 H 200.545 0.404786 -0.63376 0
M  V30 2099 H 202.516 0.82004 -2.86911 0
M  V30 2100 C 201.265 2.52886 -2.3863 0
M  V30 2101 H 200.588 2.35021 -3.23427 0
M  V30 2102 H 202.028 3.25274 -2.7198 0
M  V30 2103 C 200.487 3.13315 -1.23837 0
M  V30 2104 O 201.017 3.98077 -0.538268 0
M  V30 2105 N 199.223 2.72742 -1.00301 0
M  V30 2106 H 198.77 2.03912 -1.5741 0
M  V30 2107 H 198.728 3.13507 -0.236838 0
M  V30 2108 N 202.5 1.5196 0.417844 0
M  V30 2109 C 203.432 1.70895 1.52733 0
M  V30 2110 C 204.445 0.589405 1.51756 0
M  V30 2111 O 205.634 0.864312 1.56179 0
M  V30 2112 C 202.734 1.72627 2.91639 0
M  V30 2113 C 201.907 3.01479 3.16905 0
M  V30 2114 C 200.966 2.95139 4.35637 0
M  V30 2115 O 199.992 3.69059 4.3334 0
M  V30 2116 N 201.194 2.12328 5.40275 0
M  V30 2117 H 203.959 2.66612 1.36888 0
M  V30 2118 H 201.52 1.50089 0.607037 0
M  V30 2119 H 203.512 1.65928 3.6912 0
M  V30 2120 H 202.082 0.844216 3.00985 0
M  V30 2121 H 201.302 3.21895 2.27546 0
M  V30 2122 H 202.59 3.86736 3.30625 0
M  V30 2123 H 201.988 1.51685 5.44985 0
M  V30 2124 H 200.545 2.11494 6.16534 0
M  V30 2125 N 203.978 -0.674533 1.42435 0
M  V30 2126 C 204.888 -1.81751 1.48337 0
M  V30 2127 C 205.904 -1.69975 0.372099 0
M  V30 2128 O 207.08 -1.91521 0.62304 0
M  V30 2129 C 204.145 -3.17895 1.38361 0
M  V30 2130 C 203.206 -3.41625 2.59982 0
M  V30 2131 C 202.439 -4.71274 2.50473 0
M  V30 2132 O 202.662 -5.49197 1.54075 0
M  V30 2133 O 201.596 -4.96254 3.4061 0
M  V30 2134 H 205.422 -1.79728 2.44809 0
M  V30 2135 H 203.007 -0.830312 1.24202 0
M  V30 2136 H 204.889 -3.99136 1.35161 0
M  V30 2137 H 203.564 -3.20555 0.450144 0
M  V30 2138 H 202.471 -2.60231 2.68757 0
M  V30 2139 H 203.804 -3.43796 3.52229 0
M  V30 2140 N 205.456 -1.28612 -0.910864 0
M  V30 2141 C 206.386 -1.15326 -2.03032 0
M  V30 2142 C 207.367 -0.0502924 -1.70026 0
M  V30 2143 O 208.552 -0.227797 -1.92859 0
M  V30 2144 C 205.682 -0.817343 -3.37545 0
M  V30 2145 C 204.636 -1.8754 -3.84724 0
M  V30 2146 C 203.962 -1.39305 -5.16235 0
M  V30 2147 C 205.262 -3.28244 -4.06267 0
M  V30 2148 H 206.956 -2.08975 -2.14406 0
M  V30 2149 H 204.502 -1.00612 -1.03021 0
M  V30 2150 H 206.455 -0.711151 -4.15356 0
M  V30 2151 H 205.179 0.154846 -3.26233 0
M  V30 2152 H 203.838 -1.97079 -3.09121 0
M  V30 2153 H 203.486 -0.409846 -5.01328 0
M  V30 2154 H 203.186 -2.10057 -5.48771 0
M  V30 2155 H 204.71 -1.30014 -5.96598 0
M  V30 2156 H 206.124 -3.21611 -4.74594 0
M  V30 2157 H 204.521 -3.96855 -4.5014 0
M  V30 2158 H 205.591 -3.72048 -3.10979 0
M  V30 2159 N 206.934 1.1197 -1.10907 0
M  V30 2160 C 207.866 2.17592 -0.720175 0
M  V30 2161 C 208.879 1.60938 0.245495 0
M  V30 2162 O 210.068 1.78476 0.0292245 0
M  V30 2163 C 207.168 3.38873 -0.0427917 0
M  V30 2164 C 206.341 4.25006 -1.03388 0
M  V30 2165 C 205.4 5.24774 -0.387075 0
M  V30 2166 O 204.426 5.59631 -1.03934 0
M  V30 2167 N 205.628 5.74208 0.852407 0
M  V30 2168 H 208.393 2.51567 -1.62893 0
M  V30 2169 H 205.954 1.27439 -0.998543 0
M  V30 2170 H 207.946 4.02703 0.401501 0
M  V30 2171 H 206.516 3.03007 0.768456 0
M  V30 2172 H 205.736 3.57716 -1.65629 0
M  V30 2173 H 207.024 4.79397 -1.70458 0
M  V30 2174 H 206.422 5.48062 1.40161 0
M  V30 2175 H 204.979 6.39901 1.23977 0
M  V30 2176 N 208.412 0.89855 1.29475 0
M  V30 2177 C 209.322 0.379974 2.31502 0
M  V30 2178 C 210.338 -0.524695 1.659 0
M  V30 2179 O 211.514 -0.414551 1.97087 0
M  V30 2180 C 208.579 -0.385138 3.44554 0
M  V30 2181 C 207.64 0.550914 4.2575 0
M  V30 2182 C 206.873 -0.177778 5.33404 0
M  V30 2183 O 207.096 -1.40189 5.52904 0
M  V30 2184 O 206.03 0.479106 5.9999 0
M  V30 2185 H 209.856 1.22639 2.77837 0
M  V30 2186 H 207.441 0.662834 1.33891 0
M  V30 2187 H 209.323 -0.817841 4.13388 0
M  V30 2188 H 207.998 -1.20763 3.0033 0
M  V30 2189 H 206.905 1.03271 3.59564 0
M  V30 2190 H 208.238 1.33979 4.73614 0
M  V30 2191 N 209.89 -1.43072 0.660911 0
M  V30 2192 C 211.139 -2.00942 0.174735 0
M  V30 2193 C 211.452 -1.52797 -1.22117 0
M  V30 2194 O 212.658 -2.02991 -1.80297 0
M  V30 2195 C 211.114 -3.58948 0.261559 0
M  V30 2196 C 210.722 -4.16085 1.66064 0
M  V30 2197 C 212.466 -4.24173 -0.166617 0
M  V30 2198 C 210.373 -5.6641 1.70098 0
M  V30 2199 H 209.303 -0.751483 0.0615631 0
M  V30 2200 H 211.954 -1.63955 0.824069 0
M  V30 2201 H 210.336 -3.93372 -0.455421 0
M  V30 2202 H 211.51 -3.93147 2.40359 0
M  V30 2203 H 209.825 -3.6326 2.03546 0
M  V30 2204 H 212.422 -5.34471 -0.156433 0
M  V30 2205 H 212.765 -3.98647 -1.19943 0
M  V30 2206 H 213.298 -3.94659 0.498875 0
M  V30 2207 H 210.037 -5.96715 2.71315 0
M  V30 2208 H 209.557 -5.91382 1.00139 0
M  V30 2209 H 211.236 -6.30585 1.44816 0
M  V30 2210 N 211.368 -0.403325 -1.52352 0
M  V30 2211 C 212.316 0.439752 -2.28405 0
M  V30 2212 C 213.31 1.05089 -1.32863 0
M  V30 2213 O 214.516 0.989759 -1.50345 0
M  V30 2214 H 210.891 0.160587 -0.734653 0
M  V30 2215 H 212.862 -0.222983 -2.97566 0
M  V30 2216 C 211.611 1.54736 -3.11371 0
M  V30 2217 H 210.934 1.08643 -3.84755 0
M  V30 2218 H 212.374 2.1112 -3.67701 0
M  V30 2219 C 210.833 2.51141 -2.24566 0
M  V30 2220 O 211.363 3.54887 -1.88196 0
M  V30 2221 N 209.569 2.21213 -1.8845 0
M  V30 2222 H 209.116 1.36878 -2.18225 0
M  V30 2223 H 209.074 2.85963 -1.30662 0
M  V30 2224 N 212.846 1.57033 -0.133567 0
M  V30 2225 C 214.262 1.58035 0.222944 0
M  V30 2226 C 214.462 1.14713 1.6566 0
M  V30 2227 O 213.518 0.841218 2.38075 0
M  V30 2228 C 214.831 3.00691 -0.0236116 0
M  V30 2229 C 216.379 3.12973 0.0411512 0
M  V30 2230 C 216.854 4.57654 -0.177899 0
M  V30 2231 N 218.345 4.63033 -0.124365 0
M  V30 2232 C 219.08 5.72771 -0.268553 0
M  V30 2233 N 218.576 6.91206 -0.46972 0
M  V30 2234 N 220.369 5.61718 -0.2071 0
M  V30 2235 H 212.52 1.8349 -1.06981 0
M  V30 2236 H 214.783 0.848677 -0.422436 0
M  V30 2237 H 214.489 3.36726 -1.0153 0
M  V30 2238 H 214.363 3.70614 0.701808 0
M  V30 2239 H 216.75 2.76787 1.02338 0
M  V30 2240 H 216.831 2.45564 -0.716383 0
M  V30 2241 H 216.475 4.94542 -1.15717 0
M  V30 2242 H 216.405 5.23173 0.599797 0
M  V30 2243 H 218.896 3.7789 0.027011 0
M  V30 2244 H 219.209 7.70693 -0.570212 0
M  V30 2245 H 217.554 6.93156 -0.505876 0
M  V30 2246 H 220.745 4.68072 -0.0507986 0
M  V30 2247 H 220.918 6.47195 -0.322909 0
M  V30 2248 N 214.325 -0.140222 1.56975 0
M  V30 2249 C 215.571 -0.852949 1.83991 0
M  V30 2250 C 215.904 -1.80512 0.716187 0
M  V30 2251 O 215.179 -1.92479 -0.279681 0
M  V30 2252 C 215.462 -1.6215 3.21527 0
M  V30 2253 C 215.315 -0.690363 4.4447 0
M  V30 2254 C 216.634 -2.58247 3.56366 0
M  V30 2255 H 213.753 -0.308634 0.669264 0
M  V30 2256 H 216.395 -0.117898 1.89634 0
M  V30 2257 H 214.545 -2.24812 3.16847 0
M  V30 2258 H 216.217 -0.0742264 4.6124 0
M  V30 2259 H 214.46 -0.000396433 4.338 0
M  V30 2260 H 215.131 -1.2643 5.37326 0
M  V30 2261 H 217.607 -2.05701 3.61699 0
M  V30 2262 H 216.483 -3.09067 4.53617 0
M  V30 2263 H 216.744 -3.39923 2.82674 0
M  V30 2264 N 215.803 -1.52179 -0.40978 0
M  V30 2265 C 217.033 -1.69807 -1.17682 0
M  V30 2266 C 217.441 -0.406908 -1.84773 0
M  V30 2267 O 216.784 0.626863 -1.72673 0
M  V30 2268 C 216.846 -2.77712 -2.2829 0
M  V30 2269 C 216.51 -4.19481 -1.81341 0
M  V30 2270 C 217.507 -5.03345 -1.30154 0
M  V30 2271 C 215.192 -4.65713 -1.88194 0
M  V30 2272 C 217.186 -6.31511 -0.864416 0
M  V30 2273 C 214.873 -5.93869 -1.44093 0
M  V30 2274 C 215.871 -6.76597 -0.933023 0
M  V30 2275 O 215.559 -8.02354 -0.49838 0
M  V30 2276 H 215.291 -0.572372 -0.359675 0
M  V30 2277 H 217.845 -1.99511 -0.488311 0
M  V30 2278 H 216.075 -2.43383 -3.00502 0
M  V30 2279 H 217.764 -2.83946 -2.90051 0
M  V30 2280 H 218.53 -4.68819 -1.24232 0
M  V30 2281 H 214.409 -4.01424 -2.26671 0
M  V30 2282 H 217.953 -6.96033 -0.467286 0
M  V30 2283 H 213.85 -6.27903 -1.49694 0
M  V30 2284 H 214.618 -8.16135 -0.621747 0
M  V30 2285 N 217.281 0.66697 -1.42791 0
M  V30 2286 C 218.228 1.7803 -1.4688 0
M  V30 2287 C 219.198 1.6299 -0.319919 0
M  V30 2288 O 220.383 1.83432 -0.525118 0
M  V30 2289 C 217.523 3.1611 -1.38451 0
M  V30 2290 C 216.636 3.42381 -2.63437 0
M  V30 2291 C 215.771 4.70232 -2.47094 0
M  V30 2292 C 214.81 4.89564 -3.67415 0
M  V30 2293 N 213.947 6.08661 -3.49966 0
M  V30 2294 H 218.787 1.7387 -2.42019 0
M  V30 2295 H 216.324 0.84868 -1.20149 0
M  V30 2296 H 218.282 3.95914 -1.31561 0
M  V30 2297 H 216.912 3.19374 -0.469033 0
M  V30 2298 H 215.964 2.56774 -2.80662 0
M  V30 2299 H 217.276 3.52557 -3.52853 0
M  V30 2300 H 216.43 5.5814 -2.37834 0
M  V30 2301 H 215.169 4.62353 -1.5518 0
M  V30 2302 H 214.174 4.00096 -3.77099 0
M  V30 2303 H 215.399 4.99282 -4.6032 0
M  V30 2304 H 213.345 6.0194 -2.60776 0
M  V30 2305 H 213.262 6.19733 -4.32975 0
M  V30 2306 H 214.53 6.99226 -3.44532 0
M  V30 2307 N 218.759 1.29093 0.90403 0
M  V30 2308 C 219.669 1.15727 2.0407 0
M  V30 2309 C 220.685 0.0815308 1.73809 0
M  V30 2310 O 221.861 0.292749 1.99261 0
M  V30 2311 C 218.926 0.830424 3.36608 0
M  V30 2312 C 217.987 1.98955 3.80415 0
M  V30 2313 C 217.22 1.6782 5.06628 0
M  V30 2314 O 217.443 0.597105 5.67266 0
M  V30 2315 O 216.377 2.52486 5.46383 0
M  V30 2316 H 220.203 2.11171 2.18267 0
M  V30 2317 H 217.788 1.08504 1.027 0
M  V30 2318 H 219.67 0.662521 4.16159 0
M  V30 2319 H 218.345 -0.0942678 3.23563 0
M  V30 2320 H 217.252 2.21267 3.01648 0
M  V30 2321 H 218.585 2.89529 3.98037 0
M  V30 2322 N 220.237 -1.11381 1.11499 0
M  V30 2323 C 221.17 -2.16621 0.71769 0
M  V30 2324 C 222.148 -1.60058 -0.286413 0
M  V30 2325 O 223.332 -1.87613 -0.182689 0
M  V30 2326 C 220.459 -3.38646 0.0607265 0
M  V30 2327 C 219.505 -4.13874 1.03008 0
M  V30 2328 S 220.338 -4.70731 2.55289 0
M  V30 2329 C 221.494 -5.96079 1.90895 0
M  V30 2330 H 221.727 -2.49987 1.60915 0
M  V30 2331 H 219.26 -1.23015 0.933092 0
M  V30 2332 H 221.218 -4.09313 -0.311965 0
M  V30 2333 H 219.879 -3.03537 -0.807702 0
M  V30 2334 H 219.072 -5.01333 0.517853 0
M  V30 2335 H 218.674 -3.4897 1.34522 0
M  V30 2336 H 220.966 -6.65948 1.24577 0
M  V30 2337 H 221.909 -6.51946 2.76354 0
M  V30 2338 H 222.317 -5.47652 1.36885 0
M  V30 2339 N 221.715 -0.905404 -1.28997 0
M  V30 2340 C 222.945 -0.549049 -1.99171 0
M  V30 2341 C 223.353 0.87203 -1.67906 0
M  V30 2342 O 222.696 1.58796 -0.923561 0
M  V30 2343 C 222.758 -0.668306 -3.53234 0
M  V30 2344 C 222.422 -2.0574 -4.08069 0
M  V30 2345 C 223.419 -3.0292 -4.22534 0
M  V30 2346 C 221.104 -2.36833 -4.42962 0
M  V30 2347 C 223.098 -4.29314 -4.71135 0
M  V30 2348 C 220.785 -3.63467 -4.91258 0
M  V30 2349 C 221.783 -4.59522 -5.053 0
M  V30 2350 O 221.471 -5.83907 -5.52546 0
M  V30 2351 H 221.203 -0.208784 -0.64295 0
M  V30 2352 H 223.757 -1.21836 -1.65363 0
M  V30 2353 H 221.987 0.0580547 -3.86656 0
M  V30 2354 H 223.676 -0.320273 -4.04634 0
M  V30 2355 H 224.442 -2.80216 -3.95859 0
M  V30 2356 H 220.321 -1.62824 -4.31288 0
M  V30 2357 H 223.865 -5.04293 -4.8201 0
M  V30 2358 H 219.762 -3.86 -5.17372 0
M  V30 2359 H 220.53 -5.86578 -5.70849 0
M  V30 2360 N 223.193 1.4272 -0.668489 0
M  V30 2361 C 224.14 2.30796 0.0137489 0
M  V30 2362 C 225.11 1.4561 0.799177 0
M  V30 2363 O 226.295 1.74453 0.772702 0
M  V30 2364 C 223.435 3.31377 0.963507 0
M  V30 2365 C 222.548 4.31655 0.172569 0
M  V30 2366 C 221.683 5.19312 1.1175 0
M  V30 2367 C 220.722 6.11274 0.317886 0
M  V30 2368 N 219.859 6.91504 1.2152 0
M  V30 2369 H 224.699 2.88585 -0.743161 0
M  V30 2370 H 222.236 1.42154 -0.378226 0
M  V30 2371 H 224.194 3.88214 1.52792 0
M  V30 2372 H 222.824 2.75202 1.68712 0
M  V30 2373 H 221.876 3.76988 -0.508374 0
M  V30 2374 H 223.188 4.96779 -0.448527 0
M  V30 2375 H 222.342 5.80851 1.75206 0
M  V30 2376 H 221.081 4.5435 1.77249 0
M  V30 2377 H 220.086 5.48809 -0.329918 0
M  V30 2378 H 221.311 6.78283 -0.332917 0
M  V30 2379 H 219.257 6.29176 1.85671 0
M  V30 2380 H 219.174 7.53209 0.649036 0
M  V30 2381 H 220.442 7.57535 1.83742 0
M  V30 2382 N 224.671 0.411399 1.52136 0
M  V30 2383 C 225.899 -0.163076 2.06256 0
M  V30 2384 C 226.314 -1.3867 1.28125 0
M  V30 2385 O 225.671 -1.79423 0.333721 0
M  V30 2386 C 225.722 -0.511252 3.57867 0
M  V30 2387 O 225.443 0.66378 4.33042 0
M  V30 2388 C 226.944 -1.13921 4.28412 0
M  V30 2389 H 224.164 -0.0193897 0.67072 0
M  V30 2390 H 226.708 0.583007 1.96013 0
M  V30 2391 H 224.863 -1.20723 3.6811 0
M  V30 2392 H 225.277 0.372601 5.23175 0
M  V30 2393 H 226.751 -1.33302 5.35663 0
M  V30 2394 H 227.228 -2.11296 3.85033 0
M  V30 2395 H 227.834 -0.483373 4.22544 0
M  V30 2396 N 226.149 -1.5696 0.141893 0
M  V30 2397 C 227.426 -1.87553 -0.555281 0
M  V30 2398 C 227.806 -1.04699 -1.83306 0
M  V30 2399 O 227.154 -0.132346 -2.28116 0
M  V30 2400 C 227.364 -3.39093 -0.825664 0
M  V30 2401 C 228.712 -4.08199 -1.16869 0
M  V30 2402 O 229.736 -3.44242 -0.915185 0
M  V30 2403 O 228.595 -5.21139 -1.6455 0
M  V30 2404 H 225.689 -0.777188 -0.282679 0
M  V30 2405 H 228.235 -1.68763 0.17812 0
M  V30 2406 H 227.007 -3.91221 0.0788633 0
M  V30 2407 H 226.63 -3.63393 -1.61343 0
M  V30 2408 N 227.627 0.131896 -1.57047 0
M  V30 2409 C 228.557 1.16384 -2.02428 0
M  V30 2410 C 229.538 1.43936 -0.90644 0
M  V30 2411 O 230.723 1.54599 -1.17528 0
M  V30 2412 C 227.853 2.49328 -2.4177 0
M  V30 2413 C 226.807 2.36266 -3.56879 0
M  V30 2414 C 226.133 3.74057 -3.8208 0
M  V30 2415 C 227.433 1.834 -4.89042 0
M  V30 2416 H 229.127 0.786433 -2.88887 0
M  V30 2417 H 226.673 0.376855 -1.38981 0
M  V30 2418 H 228.626 3.21759 -2.7212 0
M  V30 2419 H 227.35 2.88934 -1.52266 0
M  V30 2420 H 226.009 1.66286 -3.26718 0
M  V30 2421 H 225.657 4.11125 -2.89803 0
M  V30 2422 H 225.357 3.66174 -4.59554 0
M  V30 2423 H 226.881 4.48012 -4.1487 0
M  V30 2424 H 228.295 2.45636 -5.18011 0
M  V30 2425 H 226.692 1.8637 -5.70426 0
M  V30 2426 H 227.762 0.790662 -4.7841 0
M  V30 2427 N 229.106 1.52395 0.401703 0
M  V30 2428 C 230.016 1.7917 1.51444 0
M  V30 2429 C 231.032 0.677691 1.6026 0
M  V30 2430 O 232.208 0.963909 1.76835 0
M  V30 2431 C 229.273 1.94347 2.87107 0
M  V30 2432 C 228.334 3.18257 2.88116 0
M  V30 2433 C 227.567 3.32701 4.17308 0
M  V30 2434 O 227.79 2.52238 5.11598 0
M  V30 2435 O 226.724 4.25891 4.25324 0
M  V30 2436 H 230.55 2.73633 1.31752 0
M  V30 2437 H 228.135 1.3733 0.588296 0
M  V30 2438 H 230.017 2.06109 3.67555 0
M  V30 2439 H 228.692 1.03073 3.06851 0
M  V30 2440 H 227.599 3.11947 2.06494 0
M  V30 2441 H 228.932 4.09336 2.73322 0
M  V30 2442 N 230.584 -0.659388 1.43143 0
M  V30 2443 C 231.531 -1.77249 1.47822 0
M  V30 2444 C 232.501 -1.62818 0.328558 0
M  V30 2445 O 233.686 -1.83151 0.534838 0
M  V30 2446 C 230.826 -3.15371 1.40126 0
M  V30 2447 C 229.939 -3.4098 2.65249 0
M  V30 2448 C 229.074 -4.68915 2.49584 0
M  V30 2449 C 228.113 -4.87608 3.70006 0
M  V30 2450 N 227.25 -6.06796 3.53189 0
M  V30 2451 H 232.09 -1.72584 2.42938 0
M  V30 2452 H 229.627 -0.842297 1.20598 0
M  V30 2453 H 231.585 -3.9521 1.33659 0
M  V30 2454 H 230.215 -3.19121 0.485964 0
M  V30 2455 H 229.267 -2.55282 2.8202 0
M  V30 2456 H 230.579 -3.50681 3.54717 0
M  V30 2457 H 229.733 -5.56871 2.4079 0
M  V30 2458 H 228.472 -4.61524 1.5763 0
M  V30 2459 H 227.477 -3.9809 3.79215 0
M  V30 2460 H 228.702 -4.96834 4.62961 0
M  V30 2461 H 226.648 -6.00549 2.63965 0
M  V30 2462 H 226.565 -6.17428 4.36255 0
M  V30 2463 H 227.833 -6.9739 3.48236 0
M  V30 2464 N 232.062 -1.29571 -0.897171 0
M  V30 2465 C 233.339 -1.08365 -1.62839 0
M  V30 2466 C 233.719 0.371331 -2.07808 0
M  V30 2467 O 233.067 1.3606 -1.83576 0
M  V30 2468 C 233.277 -2.0735 -2.80726 0
M  V30 2469 C 234.625 -2.38406 -3.51351 0
M  V30 2470 O 235.649 -2.05564 -2.90898 0
M  V30 2471 O 234.508 -2.9453 -4.60341 0
M  V30 2472 H 231.602 -0.415345 -0.715134 0
M  V30 2473 H 234.148 -1.40952 -0.945018 0
M  V30 2474 H 232.92 -3.05339 -2.44711 0
M  V30 2475 H 232.543 -1.75507 -3.56767 0
M  V30 2476 N 233.54 1.10788 -1.12088 0
M  V30 2477 C 234.789 1.82036 -0.868659 0
M  V30 2478 C 235.102 1.85929 0.607426 0
M  V30 2479 O 236.308 2.53346 0.97613 0
M  V30 2480 C 234.764 3.26951 -1.50435 0
M  V30 2481 C 234.372 3.31367 -3.01496 0
M  V30 2482 C 236.116 4.03053 -1.33225 0
M  V30 2483 C 234.023 4.7072 -3.58017 0
M  V30 2484 H 232.953 0.682108 -0.321318 0
M  V30 2485 H 235.604 1.24618 -1.34694 0
M  V30 2486 H 233.986 3.84343 -0.953735 0
M  V30 2487 H 235.16 2.83819 -3.6302 0
M  V30 2488 H 233.475 2.6875 -3.18061 0
M  V30 2489 H 236.072 5.05981 -1.72878 0
M  V30 2490 H 236.415 4.15387 -0.275529 0
M  V30 2491 H 236.948 3.52066 -1.85188 0
M  V30 2492 H 233.687 4.63585 -4.63432 0
M  V30 2493 H 233.207 5.1865 -3.01268 0
M  V30 2494 H 234.886 5.39685 -3.56859 0
M  V30 2495 N 235.018 0.912232 1.28515 0
M  V30 2496 C 236.267 0.540504 1.94323 0
M  V30 2497 C 236.58 -0.920044 1.72611 0
M  V30 2498 O 237.786 -1.39986 2.32629 0
M  V30 2499 C 236.242 0.915803 3.48053 0
M  V30 2500 C 235.85 2.39598 3.78546 0
M  V30 2501 C 237.594 0.614588 4.20027 0
M  V30 2502 C 235.501 2.71148 5.25578 0
M  V30 2503 H 234.431 0.198418 0.727424 0
M  V30 2504 H 237.082 1.11094 1.46049 0
M  V30 2505 H 235.464 0.274168 3.9505 0
M  V30 2506 H 236.638 3.08422 3.42364 0
M  V30 2507 H 234.953 2.66749 3.1974 0
M  V30 2508 H 237.55 0.827002 5.28266 0
M  V30 2509 H 237.893 -0.447531 4.13887 0
M  V30 2510 H 238.426 1.21462 3.78803 0
M  V30 2511 H 235.165 3.76207 5.36794 0
M  V30 2512 H 234.685 2.0696 5.62963 0
M  V30 2513 H 236.364 2.58072 5.93302 0
M  V30 2514 N 236.496 -1.42363 0.676048 0
M  V30 2515 C 237.721 -2.06377 0.205705 0
M  V30 2516 C 238.146 -1.50463 -1.12883 0
M  V30 2517 O 237.504 -0.623619 -1.70237 0
M  V30 2518 C 237.552 -3.60277 0.152655 0
M  V30 2519 O 236.656 -4.02935 -0.87845 0
M  V30 2520 H 235.997 -0.655588 0.105359 0
M  V30 2521 H 238.527 -1.82475 0.925412 0
M  V30 2522 H 238.537 -4.07993 -0.0230675 0
M  V30 2523 H 237.212 -4.00346 1.12675 0
M  V30 2524 H 235.789 -3.66764 -0.673668 0
M  V30 2525 N 237.974 -0.419461 -1.51915 0
M  V30 2526 C 239.251 0.211999 -1.94448 0
M  V30 2527 C 239.631 1.61703 -1.35703 0
M  V30 2528 O 238.979 2.22102 -0.536931 0
M  V30 2529 C 239.189 0.207872 -3.4838 0
M  V30 2530 C 240.537 0.422192 -4.22496 0
M  V30 2531 O 241.561 0.286778 -3.55044 0
M  V30 2532 O 240.42 0.690009 -5.42126 0
M  V30 2533 H 237.514 0.139586 -0.815135 0
M  V30 2534 H 240.06 -0.476151 -1.62883 0
M  V30 2535 H 238.832 -0.775102 -3.83546 0
M  V30 2536 H 238.455 0.939688 -3.86336 0
M  V30 2537 N 239.452 1.56882 -0.150215 0
M  V30 2538 C 240.68 2.00593 0.506948 0
M  V30 2539 C 241.095 1.03033 1.58208 0
M  V30 2540 O 240.452 0.0278396 1.82479 0
M  V30 2541 C 240.503 3.44209 1.10465 0
M  V30 2542 O 240.224 4.3804 0.0724636 0
M  V30 2543 C 241.725 4.03214 1.84211 0
M  V30 2544 H 238.945 0.65795 0.13169 0
M  V30 2545 H 241.489 2.03018 -0.245743 0
M  V30 2546 H 239.644 3.42625 1.80795 0
M  V30 2547 H 240.058 5.22007 0.510793 0
M  V30 2548 H 241.532 5.0569 2.21318 0
M  V30 2549 H 242.009 3.44107 2.72923 0
M  V30 2550 H 242.615 4.08437 1.18572 0
M  V30 2551 N 240.93 -0.123565 1.57115 0
M  V30 2552 C 242.155 -0.850398 1.89164 0
M  V30 2553 C 242.58 -1.7286 0.741688 0
M  V30 2554 O 241.938 -1.78665 -0.307958 0
M  V30 2555 C 241.986 -1.66353 3.19936 0
M  V30 2556 O 241.09 -2.77004 3.0552 0
M  V30 2557 H 240.431 -0.235454 0.620852 0
M  V30 2558 H 242.961 -0.107335 2.04318 0
M  V30 2559 H 242.971 -2.05372 3.52543 0
M  V30 2560 H 241.646 -1.01881 4.03228 0
M  V30 2561 H 240.223 -2.41221 2.84371 0
M  V30 2562 N 242.408 -1.52605 -0.393616 0
M  V30 2563 C 243.656 -1.67093 -1.13685 0
M  V30 2564 C 243.977 -0.411011 -1.90619 0
M  V30 2565 O 243.247 0.574491 -1.87287 0
M  V30 2566 H 241.827 -0.615923 -0.422668 0
M  V30 2567 H 244.489 -1.89704 -0.447039 0
M  V30 2568 H 243.585 -2.51922 -1.84232 0
M  V30 2569 N 243.887 0.651787 -1.4349 0
M  V30 2570 C 245.164 1.40909 -1.35661 0
M  V30 2571 C 245.544 2.11099 -0.00511733 0
M  V30 2572 O 244.892 2.04892 1.0115 0
M  V30 2573 C 245.102 2.3926 -2.54078 0
M  V30 2574 C 246.45 3.03217 -2.97228 0
M  V30 2575 O 247.474 2.49588 -2.54135 0
M  V30 2576 O 246.333 4.00455 -3.71885 0
M  V30 2577 H 243.427 0.629625 -0.536191 0
M  V30 2578 H 245.973 0.678575 -1.55542 0
M  V30 2579 H 244.745 1.86352 -3.44076 0
M  V30 2580 H 244.368 3.1976 -2.36303 0
M  V30 2581 N 245.365 1.30045 0.890287 0
M  V30 2582 C 246.612 1.18561 1.64163 0
M  V30 2583 C 246.94 -0.260852 1.92743 0
M  V30 2584 O 246.195 -1.20376 1.54299 0
M  V30 2585 C 246.494 1.95409 2.99249 0
M  V30 2586 C 246.16 3.45066 2.90242 0
M  V30 2587 C 244.822 3.85878 2.87492 0
M  V30 2588 C 247.174 4.4039 2.78758 0
M  V30 2589 C 244.502 5.20314 2.7109 0
M  V30 2590 C 246.854 5.74928 2.63894 0
M  V30 2591 C 245.518 6.14986 2.59516 0
M  V30 2592 H 244.788 0.433846 0.600715 0
M  V30 2593 H 247.435 1.61088 1.03552 0
M  V30 2594 H 245.74 1.45501 3.63781 0
M  V30 2595 H 247.437 1.8392 3.56334 0
M  V30 2596 H 244.027 3.12631 2.93189 0
M  V30 2597 H 248.211 4.09806 2.79952 0
M  V30 2598 H 243.467 5.50449 2.66112 0
M  V30 2599 H 247.641 6.48434 2.53981 0
M  V30 2600 H 245.268 7.19104 2.46565 0
M  V30 2601 N 246.843 -1.10192 1.12674 0
M  V30 2602 C 248.259 -1.34235 0.863317 0
M  V30 2603 C 248.459 -1.95062 -0.505277 0
M  V30 2604 O 247.515 -2.19192 -1.25345 0
M  V30 2605 C 248.828 -2.2616 1.98172 0
M  V30 2606 C 250.376 -2.3969 2.0129 0
M  V30 2607 C 250.851 -3.34946 3.1237 0
M  V30 2608 N 252.342 -3.42515 3.11829 0
M  V30 2609 C 253.077 -4.16199 3.94419 0
M  V30 2610 N 252.573 -4.92747 4.87004 0
M  V30 2611 N 254.366 -4.11843 3.82547 0
M  V30 2612 H 246.517 -0.690798 2.00853 0
M  V30 2613 H 248.78 -0.366774 0.874174 0
M  V30 2614 H 248.486 -1.8868 2.96804 0
M  V30 2615 H 248.36 -3.26488 1.88906 0
M  V30 2616 H 250.747 -2.76438 1.03276 0
M  V30 2617 H 250.828 -1.39169 2.14629 0
M  V30 2618 H 250.472 -2.98923 4.10619 0
M  V30 2619 H 250.402 -4.35353 2.96269 0
M  V30 2620 H 252.893 -2.87926 2.44759 0
M  V30 2621 H 253.206 -5.46376 5.46528 0
M  V30 2622 H 251.551 -4.91862 4.91016 0
M  V30 2623 H 254.742 -3.51136 3.0955 0
M  V30 2624 H 254.915 -4.69007 4.47142 0
M  V30 2625 N 248.321 -0.919034 -1.28029 0
M  V30 2626 C 249.268 -0.410005 -2.27129 0
M  V30 2627 C 250.238 0.518405 -1.57803 0
M  V30 2628 O 251.423 0.439451 -1.8567 0
M  V30 2629 C 248.563 0.339054 -3.4343 0
M  V30 2630 C 247.676 -0.622468 -4.27492 0
M  V30 2631 C 246.811 0.145567 -5.31001 0
M  V30 2632 C 245.85 -0.809226 -6.06727 0
M  V30 2633 N 244.987 -0.0743728 -7.02061 0
M  V30 2634 H 249.827 -1.26011 -2.70047 0
M  V30 2635 H 247.364 -0.632663 -1.328 0
M  V30 2636 H 249.322 0.789586 -4.0966 0
M  V30 2637 H 247.952 1.15346 -3.01488 0
M  V30 2638 H 247.004 -1.19153 -3.61257 0
M  V30 2639 H 248.316 -1.35252 -4.80113 0
M  V30 2640 H 247.47 0.656417 -6.03139 0
M  V30 2641 H 246.209 0.908643 -4.79161 0
M  V30 2642 H 245.214 -1.3314 -5.33436 0
M  V30 2643 H 246.439 -1.57194 -6.60656 0
M  V30 2644 H 244.385 0.670616 -6.52563 0
M  V30 2645 H 244.302 -0.744157 -7.52329 0
M  V30 2646 H 245.57 0.416109 -7.78389 0
M  V30 2647 N 249.799 1.42003 -0.683588 0
M  V30 2648 C 250.729 2.33487 -0.024866 0
M  V30 2649 C 251.71 1.51163 0.779975 0
M  V30 2650 O 252.895 1.79739 0.735362 0
M  V30 2651 C 250.025 3.3487 0.920836 0
M  V30 2652 C 248.979 4.27414 0.223958 0
M  V30 2653 C 248.305 5.19074 1.2832 0
M  V30 2654 C 249.605 5.14445 -0.90242 0
M  V30 2655 H 251.299 2.88819 -0.788921 0
M  V30 2656 H 248.845 1.38873 -0.38083 0
M  V30 2657 H 250.798 3.97787 1.39081 0
M  V30 2658 H 249.522 2.77861 1.71642 0
M  V30 2659 H 248.181 3.65904 -0.225864 0
M  V30 2660 H 247.829 4.58387 2.071 0
M  V30 2661 H 247.529 5.81822 0.821995 0
M  V30 2662 H 249.053 5.84867 1.75392 0
M  V30 2663 H 250.467 5.70998 -0.513272 0
M  V30 2664 H 248.864 5.86072 -1.28997 0
M  V30 2665 H 249.934 4.52322 -1.74737 0
M  V30 2666 N 251.277 0.427512 1.51691 0
M  V30 2667 C 252.21 -0.433876 2.24037 0
M  V30 2668 C 253.188 -1.03287 1.25581 0
M  V30 2669 O 254.372 -1.07722 1.54688 0
M  V30 2670 C 251.499 -1.60385 2.98319 0
M  V30 2671 C 250.545 -1.12648 4.11355 0
M  V30 2672 S 251.378 -0.076543 5.35445 0
M  V30 2673 C 252.534 -1.25141 6.13262 0
M  V30 2674 H 252.767 0.180367 2.96752 0
M  V30 2675 H 250.3 0.211946 1.52938 0
M  V30 2676 H 252.258 -2.27462 3.41718 0
M  V30 2677 H 250.919 -2.18948 2.25213 0
M  V30 2678 H 250.112 -2.0011 4.62571 0
M  V30 2679 H 249.714 -0.534088 3.70167 0
M  V30 2680 H 252.006 -2.17162 6.41753 0
M  V30 2681 H 252.949 -0.779411 7.03797 0
M  V30 2682 H 253.357 -1.48553 5.44603 0
M  V30 2683 N 252.755 -1.56801 0.158532 0
M  V30 2684 C 254.001 -1.96781 -0.490405 0
M  V30 2685 C 254.334 -1.04397 -1.63753 0
M  V30 2686 O 253.609 -0.0885805 -1.94298 0
M  V30 2687 C 253.892 -3.4635 -0.985594 0
M  V30 2688 C 253.745 -4.49512 0.160824 0
M  V30 2689 C 255.064 -3.98697 -1.86355 0
M  V30 2690 H 252.183 -0.715482 -0.176788 0
M  V30 2691 H 254.825 -1.88451 0.242088 0
M  V30 2692 H 252.975 -3.53579 -1.60978 0
M  V30 2693 H 254.647 -4.54353 0.797537 0
M  V30 2694 H 252.89 -4.26013 0.818256 0
M  V30 2695 H 253.561 -5.51531 -0.227569 0
M  V30 2696 H 256.037 -3.94019 -1.33746 0
M  V30 2697 H 254.913 -5.03792 -2.17909 0
M  V30 2698 H 255.174 -3.41744 -2.8047 0
M  V30 2699 N 254.233 0.115231 -1.57178 0
M  V30 2700 C 255.196 1.12526 -1.99676 0
M  V30 2701 C 256.196 1.34095 -0.88742 0
M  V30 2702 O 257.386 1.30548 -1.15337 0
M  V30 2703 C 254.518 2.4789 -2.34015 0
M  V30 2704 H 255.711 0.759912 -2.90113 0
M  V30 2705 H 253.264 0.359648 -1.52106 0
M  V30 2706 H 253.999 2.89339 -1.4647 0
M  V30 2707 H 253.784 2.33588 -3.14927 0
M  V30 2708 H 255.274 3.20575 -2.67622 0
M  V30 2709 N 255.711 1.52812 0.385517 0
M  V30 2710 C 256.641 1.80808 1.47752 0
M  V30 2711 C 257.622 0.660318 1.5676 0
M  V30 2712 O 258.807 0.908246 1.71652 0
M  V30 2713 C 255.937 1.98008 2.85324 0
M  V30 2714 C 254.891 3.13709 2.91154 0
M  V30 2715 C 254.217 3.16169 4.31209 0
M  V30 2716 C 255.517 4.52709 2.60483 0
M  V30 2717 H 257.211 2.72253 1.24573 0
M  V30 2718 H 254.757 1.31003 0.597839 0
M  V30 2719 H 256.71 2.16176 3.61726 0
M  V30 2720 H 255.434 1.03255 3.09848 0
M  V30 2721 H 254.093 2.95329 2.17201 0
M  V30 2722 H 253.741 2.19092 4.52778 0
M  V30 2723 H 253.441 3.93894 4.36029 0
M  V30 2724 H 254.965 3.36496 5.09512 0
M  V30 2725 H 256.379 4.71173 3.26602 0
M  V30 2726 H 254.776 5.32528 2.76648 0
M  V30 2727 H 255.846 4.59186 1.55809 0
M  V30 2728 N 257.189 -0.644168 1.43834 0
M  V30 2729 C 258.152 -1.73857 1.49353 0
M  V30 2730 C 259.152 -1.56315 0.377112 0
M  V30 2731 O 260.342 -1.62048 0.639226 0
M  V30 2732 C 257.474 -3.12819 1.35488 0
M  V30 2733 H 258.667 -1.70342 2.46827 0
M  V30 2734 H 256.22 -0.856652 1.30733 0
M  V30 2735 H 256.955 -3.2194 0.390569 0
M  V30 2736 H 256.74 -3.26958 2.16428 0
M  V30 2737 H 258.23 -3.92606 1.42302 0
M  V30 2738 N 258.668 -1.30515 -0.883378 0
M  V30 2739 C 259.615 -1.17032 -1.98927 0
M  V30 2740 C 260.585 -0.0594241 -1.65994 0
M  V30 2741 O 261.77 -0.229895 -1.8941 0
M  V30 2742 C 258.91 -0.869777 -3.33959 0
M  V30 2743 C 258.023 -2.06271 -3.79574 0
M  V30 2744 C 257.158 -1.70011 -5.03259 0
M  V30 2745 C 256.197 -2.8579 -5.41286 0
M  V30 2746 N 255.334 -2.49816 -6.56153 0
M  V30 2747 H 260.174 -2.1164 -2.09792 0
M  V30 2748 H 257.711 -1.05296 -1.02719 0
M  V30 2749 H 259.669 -0.676138 -4.11685 0
M  V30 2750 H 258.299 0.0394332 -3.22776 0
M  V30 2751 H 257.351 -2.36755 -2.97744 0
M  V30 2752 H 258.663 -2.92971 -4.03694 0
M  V30 2753 H 257.817 -1.47032 -5.88614 0
M  V30 2754 H 256.556 -0.804829 -4.81013 0
M  V30 2755 H 255.561 -3.09434 -4.54456 0
M  V30 2756 H 256.786 -3.76008 -5.65504 0
M  V30 2757 H 254.732 -1.62795 -6.35479 0
M  V30 2758 H 254.649 -3.30048 -6.8015 0
M  V30 2759 H 255.917 -2.30197 -7.44735 0
M  V30 2760 N 260.146 1.09593 -1.13257 0
M  V30 2761 C 261.394 1.81375 -0.891492 0
M  V30 2762 C 261.715 1.86049 0.584009 0
M  V30 2763 O 260.985 1.34481 1.42449 0
M  V30 2764 H 259.565 0.671708 -0.326828 0
M  V30 2765 H 262.227 1.3256 -1.42877 0
M  V30 2766 H 261.323 2.84612 -1.28071 0
M  V30 2767 N 261.624 0.925811 1.2754 0
M  V30 2768 C 263.04 0.625767 1.46821 0
M  V30 2769 C 263.24 -0.825506 1.83814 0
M  V30 2770 O 262.296 -1.60356 1.95044 0
M  V30 2771 C 263.609 1.57402 2.56213 0
M  V30 2772 C 265.157 1.58204 2.70075 0
M  V30 2773 C 265.632 2.51721 3.82623 0
M  V30 2774 N 267.123 2.49917 3.89994 0
M  V30 2775 C 267.858 3.18968 4.76494 0
M  V30 2776 N 267.354 3.97391 5.67496 0
M  V30 2777 N 269.147 3.07996 4.70208 0
M  V30 2778 H 261.298 1.86409 1.01811 0
M  V30 2779 H 263.561 0.800213 0.508295 0
M  V30 2780 H 263.267 2.60925 2.35819 0
M  V30 2781 H 263.141 1.31428 3.53563 0
M  V30 2782 H 265.528 0.554124 2.89851 0
M  V30 2783 H 265.609 1.88226 1.73218 0
M  V30 2784 H 265.253 3.54622 3.63601 0
M  V30 2785 H 265.183 2.18996 4.78903 0
M  V30 2786 H 267.674 1.9296 3.24923 0
M  V30 2787 H 267.987 4.4707 6.30356 0
M  V30 2788 H 266.332 4.01495 5.67298 0
M  V30 2789 H 269.523 2.46223 3.9811 0
M  V30 2790 H 269.696 3.6208 5.37403 0
M  V30 2791 N 263.102 -1.41638 0.69111 0
M  V30 2792 C 264.518 -1.55435 0.362224 0
M  V30 2793 C 264.718 -1.66754 -1.13117 0
M  V30 2794 O 263.774 -1.64348 -1.91692 0
M  V30 2795 C 265.087 -2.79588 1.10684 0
M  V30 2796 C 266.635 -2.9338 1.09075 0
M  V30 2797 C 267.11 -4.20414 1.81703 0
M  V30 2798 N 268.601 -4.27362 1.7865 0
M  V30 2799 C 269.336 -5.24507 2.31689 0
M  V30 2800 N 268.832 -6.27708 2.93179 0
M  V30 2801 N 270.625 -5.16416 2.2197 0
M  V30 2802 H 262.776 -1.32536 1.65976 0
M  V30 2803 H 265.039 -0.639115 0.700168 0
M  V30 2804 H 264.745 -2.77419 2.16175 0
M  V30 2805 H 264.619 -3.70973 0.682545 0
M  V30 2806 H 267.006 -2.95067 0.0441238 0
M  V30 2807 H 267.087 -2.0318 1.55407 0
M  V30 2808 H 266.731 -4.19488 2.86343 0
M  V30 2809 H 266.661 -5.09578 1.32808 0
M  V30 2810 H 269.152 -3.53415 1.33815 0
M  V30 2811 H 269.465 -6.98217 3.31229 0
M  V30 2812 H 267.81 -6.28223 2.97255 0
M  V30 2813 H 271.001 -4.34716 1.73607 0
M  V30 2814 H 271.174 -5.91958 2.63609 0
M  V30 2815 N 264.58 -0.43555 -1.51462 0
M  V30 2816 C 265.543 0.365137 -2.26273 0
M  V30 2817 C 266.543 0.951227 -1.29647 0
M  V30 2818 O 267.733 0.825958 -1.53374 0
M  V30 2819 C 264.865 1.51645 -3.05314 0
M  V30 2820 H 266.058 -0.290474 -2.9849 0
M  V30 2821 H 263.611 -0.188676 -1.55157 0
M  V30 2822 H 264.346 2.20816 -2.3751 0
M  V30 2823 H 264.131 1.10238 -3.76284 0
M  V30 2824 H 265.621 2.08218 -3.61987 0
M  V30 2825 N 266.058 1.56714 -0.166846 0
M  V30 2826 C 266.968 2.21331 0.777791 0
M  V30 2827 C 267.984 1.20358 1.25658 0
M  V30 2828 O 269.16 1.53005 1.30964 0
M  V30 2829 C 266.225 2.83787 1.99163 0
M  V30 2830 C 265.286 3.99947 1.56016 0
M  V30 2831 C 264.519 4.59415 2.71613 0
M  V30 2832 O 264.742 4.17769 3.88362 0
M  V30 2833 O 263.676 5.49359 2.45945 0
M  V30 2834 H 267.502 3.02605 0.257636 0
M  V30 2835 H 265.087 1.49275 0.0611393 0
M  V30 2836 H 266.969 3.23405 2.70161 0
M  V30 2837 H 265.644 2.05513 2.50092 0
M  V30 2838 H 264.551 3.65007 0.819809 0
M  V30 2839 H 265.884 4.79801 1.09782 0
M  V30 2840 N 267.536 -0.106894 1.57237 0
M  V30 2841 C 268.813 -0.843526 1.76477 0
M  V30 2842 C 269.193 -1.97499 0.745464 0
M  V30 2843 O 268.541 -2.27357 -0.228306 0
M  V30 2844 C 268.751 -1.34903 3.21873 0
M  V30 2845 C 270.099 -1.79654 3.8472 0
M  V30 2846 O 271.123 -1.44554 3.2555 0
M  V30 2847 O 269.982 -2.44515 4.88748 0
M  V30 2848 H 267.076 -0.401468 0.723016 0
M  V30 2849 H 269.622 -0.0896927 1.69463 0
M  V30 2850 H 268.394 -0.53781 3.87586 0
M  V30 2851 H 268.017 -2.16522 3.33473 0
M  V30 2852 N 269.014 -1.53014 -0.377408 0
M  V30 2853 C 270.262 -1.6829 -1.11906 0
M  V30 2854 C 270.583 -0.431206 -1.90173 0
M  V30 2855 O 269.853 0.554595 -1.87886 0
M  V30 2856 H 268.433 -0.620371 -0.416112 0
M  V30 2857 H 271.095 -1.90167 -0.426893 0
M  V30 2858 H 270.191 -2.53862 -1.8155 0
M  V30 2859 N 270.492 0.636531 -1.44174 0
M  V30 2860 C 271.717 1.42847 -1.50364 0
M  V30 2861 C 272.142 1.87665 -0.127867 0
M  V30 2862 O 271.5 1.58408 0.88185 0
M  V30 2863 C 271.548 2.62854 -2.4686 0
M  V30 2864 O 270.652 3.62501 -1.9664 0
M  V30 2865 H 269.993 0.427642 -0.507955 0
M  V30 2866 H 272.523 0.777422 -1.89255 0
M  V30 2867 H 272.533 3.10465 -2.64718 0
M  V30 2868 H 271.208 2.29578 -3.46795 0
M  V30 2869 H 269.785 3.21735 -1.88523 0
M  V30 2870 N 271.97 1.30982 0.876444 0
M  V30 2871 C 273.216 1.20474 1.63138 0
M  V30 2872 C 273.549 -0.238096 1.92735 0
M  V30 2873 O 272.824 -1.1692 1.55435 0
M  V30 2874 C 273.107 2.04244 2.96574 0
M  V30 2875 C 272.96 3.56793 2.73896 0
M  V30 2876 C 274.279 1.88684 3.97601 0
M  V30 2877 H 271.398 0.439001 0.591985 0
M  V30 2878 H 274.04 1.60704 1.01361 0
M  V30 2879 H 272.19 1.70063 3.493 0
M  V30 2880 H 273.862 4.01077 2.27892 0
M  V30 2881 H 272.105 3.80548 2.08245 0
M  V30 2882 H 272.776 4.10706 3.68815 0
M  V30 2883 H 275.252 2.18584 3.54062 0
M  V30 2884 H 274.128 2.4961 4.88862 0
M  V30 2885 H 274.389 0.848343 4.33884 0
M  V30 2886 N 273.449 -1.08991 1.13837 0
M  V30 2887 C 274.698 -1.80631 0.897509 0
M  V30 2888 C 275.011 -1.86872 -0.57777 0
M  V30 2889 O 276.217 -2.54866 -0.935701 0
M  V30 2890 C 274.673 -3.24517 1.55618 0
M  V30 2891 C 274.281 -3.26529 3.0673 0
M  V30 2892 C 276.025 -4.00882 1.3962 0
M  V30 2893 C 273.932 -4.64965 3.65461 0
M  V30 2894 H 272.862 -0.67691 0.332129 0
M  V30 2895 H 275.513 -1.2246 1.3666 0
M  V30 2896 H 273.895 -3.82778 1.01476 0
M  V30 2897 H 275.069 -2.78008 3.67489 0
M  V30 2898 H 273.384 -2.63656 3.22296 0
M  V30 2899 H 275.981 -5.03167 1.80906 0
M  V30 2900 H 276.324 -4.14896 0.341578 0
M  V30 2901 H 276.857 -3.49075 1.90766 0
M  V30 2902 H 273.596 -4.56153 4.70749 0
M  V30 2903 H 273.116 -5.13792 3.09481 0
M  V30 2904 H 274.795 -5.3394 3.654 0
M  V30 2905 N 274.927 -0.932562 -1.27047 0
M  V30 2906 C 276.204 -0.49377 -1.89265 0
M  V30 2907 C 276.584 1.02833 -1.8436 0
M  V30 2908 O 275.932 1.88461 -1.29209 0
M  V30 2909 C 276.142 -1.04536 -3.32976 0
M  V30 2910 C 277.49 -1.10879 -4.09867 0
M  V30 2911 O 278.514 -0.995327 -3.42011 0
M  V30 2912 O 277.373 -1.28417 -5.31198 0
M  V30 2913 H 274.467 -0.159596 -0.811454 0
M  V30 2914 H 277.013 -1.02457 -1.3528 0
M  V30 2915 H 275.785 -2.08913 -3.30864 0
M  V30 2916 H 275.408 -0.496494 -3.94488 0
M  V30 2917 N 276.405 1.4127 -0.698611 0
M  V30 2918 C 277.635 2.05205 -0.239644 0
M  V30 2919 C 278.043 1.52684 1.11733 0
M  V30 2920 O 277.386 0.671222 1.70998 0
M  V30 2921 C 277.448 3.59289 -0.123126 0
M  V30 2922 C 277.112 4.34619 -1.41263 0
M  V30 2923 C 278.109 4.63701 -2.35111 0
M  V30 2924 C 275.794 4.73837 -1.66684 0
M  V30 2925 C 277.788 5.30966 -3.52639 0
M  V30 2926 C 275.475 5.40837 -2.84498 0
M  V30 2927 C 276.473 5.69329 -3.77298 0
M  V30 2928 O 276.161 6.34949 -4.93047 0
M  V30 2929 H 275.893 0.66723 -0.108537 0
M  V30 2930 H 278.447 1.81974 -0.952602 0
M  V30 2931 H 276.677 3.81272 0.645628 0
M  V30 2932 H 278.366 4.04797 0.299056 0
M  V30 2933 H 279.132 4.33882 -2.16729 0
M  V30 2934 H 275.011 4.51039 -0.953135 0
M  V30 2935 H 278.555 5.53121 -4.25091 0
M  V30 2936 H 274.452 5.70075 -3.02795 0
M  V30 2937 H 275.22 6.53445 -4.92902 0
M  V30 2938 N 277.883 0.443576 1.51229 0
M  V30 2939 C 278.793 -0.370721 2.31652 0
M  V30 2940 C 279.809 -1.02186 1.40833 0
M  V30 2941 O 280.985 -1.01586 1.73903 0
M  V30 2942 C 278.05 -1.45376 3.14749 0
M  V30 2943 C 277.111 -0.822099 4.21355 0
M  V30 2944 C 276.344 -1.85353 5.0048 0
M  V30 2945 O 276.567 -3.07656 4.80316 0
M  V30 2946 O 275.501 -1.4406 5.84406 0
M  V30 2947 H 279.327 0.286002 3.0235 0
M  V30 2948 H 276.912 0.20598 1.47973 0
M  V30 2949 H 278.794 -2.08173 3.66391 0
M  V30 2950 H 277.469 -2.09445 2.46809 0
M  V30 2951 H 276.376 -0.155909 3.73775 0
M  V30 2952 H 277.709 -0.224797 4.91686 0
M  V30 2953 N 279.361 -1.56624 0.175154 0
M  V30 2954 C 280.291 -2.21155 -0.749195 0
M  V30 2955 C 281.272 -1.16836 -1.23626 0
M  V30 2956 O 282.457 -1.45277 -1.28873 0
M  V30 2957 C 279.587 -2.8553 -1.97711 0
M  V30 2958 C 278.541 -3.95921 -1.62575 0
M  V30 2959 C 277.867 -4.47365 -2.92864 0
M  V30 2960 C 279.167 -5.15323 -0.850838 0
M  V30 2961 H 280.861 -2.98653 -0.211295 0
M  V30 2962 H 278.407 -1.43651 -0.100188 0
M  V30 2963 H 280.36 -3.2935 -2.62881 0
M  V30 2964 H 279.084 -2.05406 -2.53921 0
M  V30 2965 H 277.743 -3.52762 -0.997719 0
M  V30 2966 H 277.391 -3.64027 -3.47122 0
M  V30 2967 H 277.091 -5.21839 -2.70106 0
M  V30 2968 H 278.615 -4.93873 -3.59056 0
M  V30 2969 H 280.029 -5.55812 -1.40521 0
M  V30 2970 H 278.426 -5.95739 -0.722154 0
M  V30 2971 H 279.496 -4.84661 0.152082 0
M  V30 2972 N 280.839 0.0985539 -1.57292 0
M  V30 2973 C 282.088 0.801358 -1.85098 0
M  V30 2974 C 282.401 1.80066 -0.763902 0
M  V30 2975 O 283.607 2.55112 -0.928981 0
M  V30 2976 C 282.063 1.47599 -3.28242 0
M  V30 2977 C 281.671 0.516624 -4.45011 0
M  V30 2978 C 283.415 2.16272 -3.65276 0
M  V30 2979 C 281.322 1.19564 -5.79188 0
M  V30 2980 H 280.252 0.303022 -0.69043 0
M  V30 2981 H 282.903 0.0542623 -1.8342 0
M  V30 2982 H 281.285 2.27042 -3.2445 0
M  V30 2983 H 282.459 -0.246065 -4.60143 0
M  V30 2984 H 280.774 -0.064227 -4.1635 0
M  V30 2985 H 283.371 2.67802 -4.62803 0
M  V30 2986 H 283.714 2.95009 -2.93727 0
M  V30 2987 H 284.247 1.43693 -3.70941 0
M  V30 2988 H 280.986 0.449157 -6.53959 0
M  V30 2989 H 280.506 1.92984 -5.67906 0
M  V30 2990 H 282.185 1.7231 -6.23633 0
M  V30 2991 N 282.317 1.53212 0.369288 0
M  V30 2992 C 283.594 1.59815 1.12776 0
M  V30 2993 C 283.974 0.403402 2.0721 0
M  V30 2994 O 283.322 -0.606667 2.20299 0
M  V30 2995 C 283.532 2.94664 1.87013 0
M  V30 2996 C 284.88 3.49109 2.41677 0
M  V30 2997 O 285.904 2.96669 1.97144 0
M  V30 2998 O 284.763 4.40775 3.23079 0
M  V30 2999 H 281.857 0.645376 0.517125 0
M  V30 3000 H 284.403 1.65553 0.37285 0
M  V30 3001 H 283.175 3.73061 1.18071 0
M  V30 3002 H 282.798 2.92401 2.69421 0
M  V30 3003 N 283.795 -0.628877 1.44509 0
M  V30 3004 C 284.727 -1.754 1.47538 0
M  V30 3005 C 285.74 -1.58575 0.368506 0
M  V30 3006 O 286.929 -1.66847 0.634376 0
M  V30 3007 C 284.029 -3.1315 1.29577 0
M  V30 3008 C 283.202 -3.56413 2.53551 0
M  V30 3009 C 282.261 -4.7305 2.30457 0
M  V30 3010 O 281.287 -4.81247 3.03957 0
M  V30 3011 N 282.489 -5.64903 1.3366 0
M  V30 3012 H 285.254 -1.73272 2.44534 0
M  V30 3013 H 282.815 -0.813512 1.39977 0
M  V30 3014 H 284.807 -3.88902 1.11971 0
M  V30 3015 H 283.377 -3.09908 0.409371 0
M  V30 3016 H 282.597 -2.70847 2.86419 0
M  V30 3017 H 283.885 -3.82071 3.36005 0
M  V30 3018 H 283.283 -5.60975 0.729604 0
M  V30 3019 H 281.84 -6.40275 1.22032 0
M  V30 3020 N 285.273 -1.31445 -0.869486 0
M  V30 3021 C 286.55 -1.11795 -1.60503 0
M  V30 3022 C 286.93 0.327168 -2.08549 0
M  V30 3023 O 286.278 1.32135 -1.8642 0
M  V30 3024 C 286.488 -2.13258 -2.76265 0
M  V30 3025 C 287.836 -2.45805 -3.46215 0
M  V30 3026 O 288.86 -2.11688 -2.86473 0
M  V30 3027 O 287.719 -3.04228 -4.5399 0
M  V30 3028 H 284.813 -0.430421 -0.706163 0
M  V30 3029 H 287.359 -1.42925 -0.914907 0
M  V30 3030 H 286.131 -3.10461 -2.3818 0
M  V30 3031 H 285.754 -1.83035 -3.52964 0
M  V30 3032 N 286.751 1.08385 -1.14413 0
M  V30 3033 C 287.714 2.13486 -0.834048 0
M  V30 3034 C 288.714 1.59988 0.161418 0
M  V30 3035 O 289.904 1.74071 -0.0669575 0
M  V30 3036 C 287.036 3.4003 -0.243354 0
M  V30 3037 H 288.229 2.42425 -1.7655 0
M  V30 3038 H 285.782 1.24101 -0.950189 0
M  V30 3039 H 286.517 3.16726 0.696807 0
M  V30 3040 H 286.302 3.80157 -0.960367 0
M  V30 3041 H 287.792 4.17577 -0.0436242 0
M  V30 3042 N 288.23 0.939286 1.26551 0
M  V30 3043 C 289.646 0.641304 1.46149 0
M  V30 3044 C 289.846 -0.805964 1.84679 0
M  V30 3045 O 288.902 -1.58278 1.96734 0
M  V30 3046 C 290.215 1.6011 2.54529 0
M  V30 3047 C 291.763 1.6106 2.68382 0
M  V30 3048 C 292.238 2.55765 3.79932 0
M  V30 3049 N 293.729 2.5404 3.87322 0
M  V30 3050 C 294.464 3.24004 4.73085 0
M  V30 3051 N 293.96 4.03388 5.63249 0
M  V30 3052 N 295.753 3.12965 4.66914 0
M  V30 3053 H 287.904 1.87478 0.998285 0
M  V30 3054 H 290.167 0.805559 0.499779 0
M  V30 3055 H 289.873 2.63412 2.33039 0
M  V30 3056 H 289.747 1.35171 3.52149 0
M  V30 3057 H 292.134 0.584835 2.89247 0
M  V30 3058 H 292.215 1.90053 1.71212 0
M  V30 3059 H 291.859 3.58458 3.5982 0
M  V30 3060 H 291.789 2.24063 4.76554 0
M  V30 3061 H 294.28 1.96396 3.22858 0
M  V30 3062 H 294.593 4.5373 6.25579 0
M  V30 3063 H 292.938 4.07489 5.63008 0
M  V30 3064 H 296.129 2.50432 3.95476 0
M  V30 3065 H 296.302 3.67759 5.33533 0
M  V30 3066 N 289.708 -1.40897 0.706093 0
M  V30 3067 C 290.985 -1.94868 0.169099 0
M  V30 3068 C 291.365 -1.64485 -1.32318 0
M  V30 3069 O 290.713 -0.95744 -2.07474 0
M  V30 3070 C 290.923 -3.45798 0.471654 0
M  V30 3071 C 292.271 -4.22663 0.405127 0
M  V30 3072 O 293.295 -3.53865 0.407168 0
M  V30 3073 O 292.154 -5.45216 0.374383 0
M  V30 3074 H 289.248 -0.82673 0.0211352 0
M  V30 3075 H 291.794 -1.50558 0.782976 0
M  V30 3076 H 290.566 -3.61235 1.50416 0
M  V30 3077 H 290.189 -3.97225 -0.172666 0
M  V30 3078 N 291.186 -0.45159 -1.50991 0
M  V30 3079 C 292.116 0.342898 -2.30969 0
M  V30 3080 C 293.097 1.00815 -1.37005 0
M  V30 3081 O 294.282 1.00907 -1.65926 0
M  V30 3082 C 291.412 1.43637 -3.16205 0
M  V30 3083 C 290.366 0.893818 -4.18563 0
M  V30 3084 C 289.692 2.08411 -4.92411 0
M  V30 3085 C 290.992 -0.0815568 -5.22236 0
M  V30 3086 H 292.686 -0.324556 -2.97636 0
M  V30 3087 H 290.232 -0.157531 -1.43136 0
M  V30 3088 H 292.185 1.9995 -3.70942 0
M  V30 3089 H 290.909 2.13232 -2.47386 0
M  V30 3090 H 289.568 0.352798 -3.64898 0
M  V30 3091 H 289.216 2.76658 -4.20082 0
M  V30 3092 H 288.916 1.72741 -5.61636 0
M  V30 3093 H 290.44 2.65251 -5.49976 0
M  V30 3094 H 291.854 0.391742 -5.7196 0
M  V30 3095 H 290.251 -0.351551 -5.99069 0
M  V30 3096 H 291.321 -1.01374 -4.74185 0
M  V30 3097 N 292.664 1.56529 -0.183458 0
M  V30 3098 C 293.894 2.01331 0.463612 0
M  V30 3099 C 294.302 1.06278 1.5653 0
M  V30 3100 O 293.645 0.0577976 1.83609 0
M  V30 3101 C 293.707 3.42547 1.09096 0
M  V30 3102 C 293.371 4.56817 0.129442 0
M  V30 3103 C 294.368 5.15734 -0.656807 0
M  V30 3104 C 292.053 5.02295 0.02174 0
M  V30 3105 C 294.047 6.1857 -1.53784 0
M  V30 3106 C 291.734 6.04978 -0.862864 0
M  V30 3107 C 292.732 6.62988 -1.64123 0
M  V30 3108 O 292.42 7.63677 -2.51103 0
M  V30 3109 H 292.152 0.664917 0.121907 0
M  V30 3110 H 294.706 2.034 -0.285954 0
M  V30 3111 H 292.936 3.37428 1.88889 0
M  V30 3112 H 294.625 3.71228 1.64148 0
M  V30 3113 H 295.391 4.81473 -0.583839 0
M  V30 3114 H 291.27 4.56847 0.617392 0
M  V30 3115 H 294.814 6.63777 -2.14583 0
M  V30 3116 H 290.711 6.38663 -0.93699 0
M  V30 3117 H 291.479 7.81049 -2.44753 0
M  V30 3118 N 294.142 -0.090211 1.57342 0
M  V30 3119 C 295.419 -0.824761 1.77361 0
M  V30 3120 C 295.799 -1.96698 0.76637 0
M  V30 3121 O 295.147 -2.27586 -0.204179 0
M  V30 3122 C 295.357 -1.31481 3.23286 0
M  V30 3123 C 296.705 -1.75563 3.86604 0
M  V30 3124 O 297.729 -1.41093 3.27065 0
M  V30 3125 O 296.588 -2.39317 4.91314 0
M  V30 3126 H 293.682 -0.393776 0.727234 0
M  V30 3127 H 296.228 -0.0717138 1.69548 0
M  V30 3128 H 295 -0.496671 3.88135 0
M  V30 3129 H 294.623 -2.12973 3.35751 0
M  V30 3130 N 295.62 -1.53406 -0.361157 0
M  V30 3131 C 296.583 -1.79479 -1.42548 0
M  V30 3132 C 297.583 -0.665327 -1.4639 0
M  V30 3133 O 298.773 -0.933549 -1.47073 0
M  V30 3134 C 295.905 -1.92087 -2.8163 0
M  V30 3135 H 297.098 -2.74538 -1.20701 0
M  V30 3136 H 294.651 -1.4455 -0.594546 0
M  V30 3137 H 295.386 -0.991099 -3.08784 0
M  V30 3138 H 295.171 -2.74241 -2.80239 0
M  V30 3139 H 296.661 -2.13836 -3.58697 0
M  V30 3140 N 297.098 0.621204 -1.44841 0
M  V30 3141 C 298.346 1.37783 -1.47852 0
M  V30 3142 C 298.667 1.94653 -0.116224 0
M  V30 3143 O 297.937 1.76367 0.852737 0
M  V30 3144 H 296.517 0.511453 -0.544449 0
M  V30 3145 H 299.179 0.730446 -1.80694 0
M  V30 3146 H 298.275 2.20414 -2.20961 0
M  V30 3147 N 298.576 1.31904 0.862503 0
M  V30 3148 C 299.822 1.22197 1.61851 0
M  V30 3149 C 300.155 -0.217641 1.92977 0
M  V30 3150 O 299.43 -1.15264 1.56666 0
M  V30 3151 C 299.713 2.07378 2.94391 0
M  V30 3152 C 299.566 3.59678 2.70096 0
M  V30 3153 C 300.885 1.92891 3.95577 0
M  V30 3154 H 298.004 0.445255 0.587296 0
M  V30 3155 H 300.646 1.6177 0.99651 0
M  V30 3156 H 298.796 1.73758 3.47477 0
M  V30 3157 H 300.468 4.03472 2.23625 0
M  V30 3158 H 298.711 3.82735 2.04197 0
M  V30 3159 H 299.382 4.14595 3.64438 0
M  V30 3160 H 301.858 2.22327 3.51724 0
M  V30 3161 H 300.734 2.54781 4.86187 0
M  V30 3162 H 300.995 0.894315 4.3296 0
M  V30 3163 N 300.054 -1.07777 1.14986 0
M  V30 3164 C 301.001 -2.14867 0.842672 0
M  V30 3165 C 301.971 -1.6486 -0.202552 0
M  V30 3166 O 303.156 -1.90668 -0.0710568 0
M  V30 3167 C 300.296 -3.43486 0.333363 0
M  V30 3168 C 299.409 -4.07306 1.43965 0
M  V30 3169 C 298.544 -5.23744 0.886914 0
M  V30 3170 C 297.583 -5.79517 1.97043 0
M  V30 3171 N 296.72 -6.87291 1.4344 0
M  V30 3172 H 301.56 -2.40485 1.75986 0
M  V30 3173 H 299.097 -1.1801 0.878179 0
M  V30 3174 H 301.055 -4.17195 0.0198163 0
M  V30 3175 H 299.685 -3.18133 -0.546916 0
M  V30 3176 H 298.737 -3.31293 1.86946 0
M  V30 3177 H 300.049 -4.44771 2.25788 0
M  V30 3178 H 299.203 -6.04419 0.525651 0
M  V30 3179 H 297.942 -4.87685 0.0377957 0
M  V30 3180 H 296.947 -4.97491 2.34057 0
M  V30 3181 H 298.172 -6.17632 2.82325 0
M  V30 3182 H 296.118 -6.5318 0.607567 0
M  V30 3183 H 296.035 -7.23617 2.18895 0
M  V30 3184 H 297.303 -7.71682 1.10124 0
M  V30 3185 N 301.532 -0.945985 -1.26051 0
M  V30 3186 C 302.948 -0.649045 -1.45807 0
M  V30 3187 C 303.148 0.796158 -1.85104 0
M  V30 3188 O 302.204 1.57233 -1.97571 0
M  V30 3189 C 303.517 -1.61458 -2.53677 0
M  V30 3190 C 305.065 -1.62481 -2.67524 0
M  V30 3191 C 305.54 -2.57776 -3.7857 0
M  V30 3192 N 307.031 -2.5609 -3.85969 0
M  V30 3193 C 307.766 -3.26508 -4.7136 0
M  V30 3194 N 307.262 -4.0637 -5.61102 0
M  V30 3195 N 309.055 -3.15437 -4.65248 0
M  V30 3196 H 301.206 -1.88005 -0.988328 0
M  V30 3197 H 303.469 -0.808198 -0.4955 0
M  V30 3198 H 303.175 -2.64644 -2.31638 0
M  V30 3199 H 303.049 -1.37036 -3.51427 0
M  V30 3200 H 305.436 -0.600167 -2.88933 0
M  V30 3201 H 305.517 -1.90958 -1.70202 0
M  V30 3202 H 305.161 -3.60361 -3.57913 0
M  V30 3203 H 305.091 -2.26587 -4.75359 0
M  V30 3204 H 307.582 -1.98105 -3.21812 0
M  V30 3205 H 307.895 -4.57042 -6.23164 0
M  V30 3206 H 306.24 -4.10469 -5.60839 0
M  V30 3207 H 309.431 -2.52525 -3.94143 0
M  V30 3208 H 309.604 -3.70584 -5.31575 0
M  V30 3209 N 303.011 1.40521 -0.713556 0
M  V30 3210 C 303.958 2.30723 -0.059684 0
M  V30 3211 C 304.928 1.48079 0.752448 0
M  V30 3212 O 306.113 1.76823 0.71681 0
M  V30 3213 C 303.253 3.34274 0.857594 0
M  V30 3214 C 302.366 4.31986 0.0351536 0
M  V30 3215 C 301.501 5.22605 0.951724 0
M  V30 3216 C 300.54 6.11976 0.123253 0
M  V30 3217 N 299.677 6.9502 0.99459 0
M  V30 3218 H 304.517 2.86074 -0.834596 0
M  V30 3219 H 302.054 1.40879 -0.42326 0
M  V30 3220 H 304.012 3.92879 1.40364 0
M  V30 3221 H 302.642 2.8043 1.59871 0
M  V30 3222 H 301.694 3.7518 -0.628052 0
M  V30 3223 H 303.006 4.95101 -0.606347 0
M  V30 3224 H 302.16 5.86131 1.56638 0
M  V30 3225 H 300.899 4.59759 1.62705 0
M  V30 3226 H 299.904 5.47482 -0.50435 0
M  V30 3227 H 301.129 6.76881 -0.548539 0
M  V30 3228 H 299.075 6.34764 1.6556 0
M  V30 3229 H 298.992 7.54892 0.40908 0
M  V30 3230 H 300.26 7.62997 1.59549 0
M  V30 3231 N 304.489 0.459591 1.5075 0
M  V30 3232 C 305.737 -0.0991532 2.01857 0
M  V30 3233 C 306.058 -1.41247 1.34441 0
M  V30 3234 O 305.328 -1.89775 0.486022 0
M  V30 3235 H 303.908 -0.039633 0.745948 0
M  V30 3236 H 306.57 0.607387 1.85194 0
M  V30 3237 H 305.666 -0.258998 3.11023 0
M  V30 3238 N 305.967 -1.56429 0.191757 0
M  V30 3239 C 307.195 -2.01867 -0.453586 0
M  V30 3240 C 307.61 -1.07191 -1.5542 0
M  V30 3241 O 306.967 -0.0762108 -1.82341 0
M  V30 3242 C 307.018 -3.47017 -1.013 0
M  V30 3243 O 306.739 -4.38078 0.0437005 0
M  V30 3244 C 308.24 -4.07956 -1.73456 0
M  V30 3245 H 305.46 -0.661211 -0.114199 0
M  V30 3246 H 308.004 -2.02295 0.299483 0
M  V30 3247 H 306.159 -3.47298 -1.71647 0
M  V30 3248 H 306.573 -5.23178 -0.372212 0
M  V30 3249 H 308.047 -5.1138 -2.07833 0
M  V30 3250 H 308.524 -3.51222 -2.63704 0
M  V30 3251 H 309.13 -4.11437 -1.07702 0
M  V30 3252 N 307.445 0.0818655 -1.57387 0
M  V30 3253 C 308.722 0.815343 -1.77796 0
M  V30 3254 C 309.102 1.96289 -0.77679 0
M  V30 3255 O 308.45 2.27691 0.192106 0
M  V30 3256 C 308.66 1.29765 -3.23978 0
M  V30 3257 C 310.008 1.7351 -3.8753 0
M  V30 3258 O 311.032 1.39356 -3.27808 0
M  V30 3259 O 309.891 2.36708 -4.92576 0
M  V30 3260 H 306.985 0.389914 -0.729312 0
M  V30 3261 H 309.531 0.0627213 -1.69584 0
M  V30 3262 H 308.303 0.47608 -3.88393 0
M  V30 3263 H 307.926 2.11189 -3.36875 0
M  V30 3264 N 308.923 1.53595 0.353017 0
M  V30 3265 C 310.169 1.70638 1.09593 0
M  V30 3266 C 310.502 0.463286 1.88593 0
M  V30 3267 O 309.777 -0.539597 1.86865 0
M  V30 3268 C 310.06 2.96406 2.04489 0
M  V30 3269 C 309.913 4.30901 1.29014 0
M  V30 3270 C 311.232 3.17812 3.0444 0
M  V30 3271 H 308.351 0.620913 0.397034 0
M  V30 3272 H 310.993 1.86254 0.375446 0
M  V30 3273 H 309.143 2.83223 2.65927 0
M  V30 3274 H 310.815 4.55917 0.702638 0
M  V30 3275 H 309.058 4.29741 0.592071 0
M  V30 3276 H 309.729 5.1506 1.98537 0
M  V30 3277 H 312.205 3.30263 2.53112 0
M  V30 3278 H 311.081 4.07223 3.6805 0
M  V30 3279 H 311.342 2.33669 3.75301 0
M  V30 3280 N 310.401 -0.613514 1.45168 0
M  V30 3281 C 311.812 -1.19539 1.43413 0
M  V30 3282 C 312.163 -1.95558 0.158632 0
M  V30 3283 O 311.288 -2.0335 -0.740119 0
M  V30 3284 C 311.883 -2.17445 2.59813 0
M  V30 3285 C 310.442 -2.71022 2.61197 0
M  V30 3286 C 309.589 -1.46323 2.35552 0
M  V30 3287 H 312.54 -0.403163 1.53494 0
M  V30 3288 H 312.561 -3.00373 2.33574 0
M  V30 3289 H 312.073 -1.62089 3.52631 0
M  V30 3290 H 310.174 -3.30332 1.7237 0
M  V30 3291 H 310.287 -3.15859 3.60236 0
M  V30 3292 H 308.651 -1.75072 1.84992 0
M  V30 3293 H 309.434 -0.92844 3.30507 0
M  V30 3294 N 311.879 -1.3236 -0.855495 0
M  V30 3295 C 312.826 -1.21225 -1.964 0
M  V30 3296 C 313.796 -0.0946204 -1.6583 0
M  V30 3297 O 314.981 -0.27002 -1.8888 0
M  V30 3298 C 312.121 -0.940419 -3.32039 0
M  V30 3299 C 311.234 -2.14276 -3.75113 0
M  V30 3300 C 310.369 -1.80648 -4.9954 0
M  V30 3301 C 309.408 -2.97208 -5.35102 0
M  V30 3302 N 308.545 -2.63678 -6.50706 0
M  V30 3303 H 313.385 -2.16042 -2.05255 0
M  V30 3304 H 310.922 -1.07451 -1.00463 0
M  V30 3305 H 312.88 -0.763311 -4.10158 0
M  V30 3306 H 311.51 -0.0290413 -3.22787 0
M  V30 3307 H 310.562 -2.43017 -2.92655 0
M  V30 3308 H 311.874 -3.01468 -3.97389 0
M  V30 3309 H 311.028 -1.59484 -5.85363 0
M  V30 3310 H 309.767 -0.906678 -4.79198 0
M  V30 3311 H 308.772 -3.19004 -4.47791 0
M  V30 3312 H 309.997 -3.87918 -5.57401 0
M  V30 3313 H 307.943 -1.76238 -6.31883 0
M  V30 3314 H 307.86 -3.444 -6.72997 0
M  V30 3315 H 309.128 -2.45942 -7.39684 0
M  V30 3316 N 313.357 1.07166 -1.15556 0
M  V30 3317 C 314.603 1.80222 -0.942961 0
M  V30 3318 C 314.958 1.85121 0.524209 0
M  V30 3319 O 314.251 1.32531 1.38369 0
M  V30 3320 C 314.445 3.24707 -1.49332 0
M  V30 3321 C 314.274 3.33887 -3.01247 0
M  V30 3322 C 313.044 3.44337 -3.69811 0
M  V30 3323 C 315.242 3.24484 -3.99017 0
M  V30 3324 N 313.224 3.42439 -5.09518 0
M  V30 3325 C 314.595 3.29726 -5.25053 0
M  V30 3326 C 316.65 3.08307 -3.90962 0
M  V30 3327 C 315.353 3.20455 -6.43973 0
M  V30 3328 C 317.379 3.00371 -5.09442 0
M  V30 3329 C 316.741 3.06227 -6.34354 0
M  V30 3330 H 312.84 0.672709 -0.398731 0
M  V30 3331 H 315.424 1.27905 -1.46794 0
M  V30 3332 H 313.595 3.7544 -0.994946 0
M  V30 3333 H 315.327 3.85894 -1.21935 0
M  V30 3334 H 312.082 3.48762 -3.20409 0
M  V30 3335 H 312.506 3.45013 -5.8249 0
M  V30 3336 H 317.148 3.02633 -2.95251 0
M  V30 3337 H 314.866 3.24888 -7.39914 0
M  V30 3338 H 318.452 2.88955 -5.04971 0
M  V30 3339 H 317.332 3.00132 -7.24493 0
M  V30 3340 N 314.835 0.952656 1.25548 0
M  V30 3341 C 316.084 0.602053 1.92505 0
M  V30 3342 C 316.397 -0.864663 1.75451 0
M  V30 3343 O 317.603 -1.32514 2.36965 0
M  V30 3344 C 316.059 1.02607 3.44963 0
M  V30 3345 C 315.667 2.51519 3.70732 0
M  V30 3346 C 317.411 0.747905 4.1786 0
M  V30 3347 C 315.318 2.87732 5.16686 0
M  V30 3348 H 314.248 0.22146 0.720744 0
M  V30 3349 H 316.899 1.15684 1.42441 0
M  V30 3350 H 315.281 0.399712 3.93978 0
M  V30 3351 H 316.455 3.19157 3.32378 0
M  V30 3352 H 314.77 2.76786 3.11092 0
M  V30 3353 H 317.367 0.994647 5.25367 0
M  V30 3354 H 317.71 -0.315629 4.15102 0
M  V30 3355 H 318.243 1.33452 3.74747 0
M  V30 3356 H 314.982 3.93095 5.24554 0
M  V30 3357 H 314.502 2.24765 5.56094 0
M  V30 3358 H 316.181 2.76817 5.84792 0
M  V30 3359 N 316.313 -1.40141 0.720998 0
M  V30 3360 C 317.538 -2.05618 0.271258 0
M  V30 3361 C 317.963 -1.53978 -1.08039 0
M  V30 3362 O 317.321 -0.677463 -1.68167 0
M  V30 3363 C 317.369 -3.59609 0.267197 0
M  V30 3364 O 316.473 -4.05526 -0.749814 0
M  V30 3365 H 315.814 -0.651904 0.126162 0
M  V30 3366 H 318.344 -1.79439 0.982997 0
M  V30 3367 H 318.354 -4.0786 0.106744 0
M  V30 3368 H 317.029 -3.96559 1.25354 0
M  V30 3369 H 315.606 -3.68722 -0.556644 0
M  V30 3370 N 317.792 -0.46758 -1.50504 0
M  V30 3371 C 319.041 0.0902868 -2.01498 0
M  V30 3372 C 319.354 1.411 -1.35463 0
M  V30 3373 O 320.56 2.0536 -1.77594 0
M  V30 3374 C 319.016 0.21142 -3.59278 0
M  V30 3375 C 318.624 -1.10065 -4.34269 0
M  V30 3376 C 320.368 0.721433 -4.18325 0
M  V30 3377 C 318.275 -0.943505 -5.83825 0
M  V30 3378 H 317.205 0.037517 -0.753066 0
M  V30 3379 H 319.856 -0.601943 -1.73346 0
M  V30 3380 H 318.238 0.967352 -3.84003 0
M  V30 3381 H 319.412 -1.86726 -4.21272 0
M  V30 3382 H 317.727 -1.5415 -3.86816 0
M  V30 3383 H 320.324 0.85598 -5.27804 0
M  V30 3384 H 320.667 1.71186 -3.79475 0
M  V30 3385 H 321.2 0.0229843 -3.97793 0
M  V30 3386 H 317.939 -1.90719 -6.27141 0
M  V30 3387 H 317.459 -0.217213 -5.99407 0
M  V30 3388 H 319.138 -0.608715 -6.4413 0
M  V30 3389 N 319.27 1.56325 -0.20005 0
M  V30 3390 C 320.203 2.15234 0.758267 0
M  V30 3391 C 321.181 1.09046 1.20614 0
M  V30 3392 O 322.365 1.37186 1.29276 0
M  V30 3393 C 319.492 2.71524 2.02466 0
M  V30 3394 C 318.538 3.90345 1.71852 0
M  V30 3395 S 319.371 5.28513 0.862249 0
M  V30 3396 C 320.527 5.88227 2.13868 0
M  V30 3397 H 320.76 2.96183 0.2575 0
M  V30 3398 H 318.293 1.54393 0.0150099 0
M  V30 3399 H 320.251 3.04598 2.75191 0
M  V30 3400 H 318.912 1.90607 2.49655 0
M  V30 3401 H 318.105 4.28158 2.65888 0
M  V30 3402 H 317.707 3.58306 1.07205 0
M  V30 3403 H 319.999 6.02891 3.09076 0
M  V30 3404 H 320.942 6.84714 1.80479 0
M  V30 3405 H 321.35 5.16874 2.2694 0
M  V30 3406 N 320.748 -0.0735177 1.57428 0
M  V30 3407 C 321.976 -0.785969 1.9139 0
M  V30 3408 C 322.391 -1.71207 0.795847 0
M  V30 3409 O 321.748 -1.81033 -0.230915 0
M  V30 3410 C 321.799 -1.58107 3.25091 0
M  V30 3411 O 321.52 -0.6922 4.32597 0
M  V30 3412 C 323.021 -2.39467 3.73055 0
M  V30 3413 H 320.241 -0.223558 0.632663 0
M  V30 3414 H 322.785 -0.044302 2.04452 0
M  V30 3415 H 320.94 -2.27503 3.13562 0
M  V30 3416 H 321.354 -1.24504 5.09508 0
M  V30 3417 H 322.828 -2.90716 4.69242 0
M  V30 3418 H 323.305 -3.18913 3.01979 0
M  V30 3419 H 323.911 -1.7523 3.87523 0
M  V30 3420 N 322.226 -1.5378 -0.344866 0
M  V30 3421 C 323.136 -1.84667 -1.4469 0
M  V30 3422 C 324.152 -0.736704 -1.57635 0
M  V30 3423 O 325.328 -1.02888 -1.73136 0
M  V30 3424 C 322.393 -2.04869 -2.79696 0
M  V30 3425 C 321.454 -3.28731 -2.76106 0
M  V30 3426 C 320.687 -3.4796 -4.04673 0
M  V30 3427 O 320.91 -2.71052 -5.01883 0
M  V30 3428 O 319.844 -4.41383 -4.09224 0
M  V30 3429 H 323.67 -2.78334 -1.21506 0
M  V30 3430 H 321.255 -1.39418 -0.536921 0
M  V30 3431 H 323.137 -2.19609 -3.59652 0
M  V30 3432 H 321.812 -1.14391 -3.02814 0
M  V30 3433 H 320.719 -3.19396 -1.94774 0
M  V30 3434 H 322.052 -4.19198 -2.57941 0
M  V30 3435 N 323.704 0.605807 -1.45491 0
M  V30 3436 C 325.12 0.926751 -1.29936 0
M  V30 3437 C 325.32 1.99896 -0.253706 0
M  V30 3438 O 324.376 2.50038 0.351737 0
M  V30 3439 C 325.689 1.36599 -2.67883 0
M  V30 3440 C 327.237 1.4801 -2.75793 0
M  V30 3441 C 327.712 1.95309 -4.14268 0
M  V30 3442 N 329.203 2.0254 -4.16571 0
M  V30 3443 C 329.938 2.40363 -5.20589 0
M  V30 3444 N 329.434 2.77143 -6.34952 0
M  V30 3445 N 331.227 2.40718 -5.07948 0
M  V30 3446 H 323.378 -0.102862 -2.12151 0
M  V30 3447 H 325.641 0.016639 -0.947854 0
M  V30 3448 H 325.347 0.652306 -3.45598 0
M  V30 3449 H 325.221 2.33215 -2.96463 0
M  V30 3450 H 327.608 2.1847 -1.98381 0
M  V30 3451 H 327.689 0.497041 -2.50925 0
M  V30 3452 H 327.333 1.25436 -4.92167 0
M  V30 3453 H 327.263 2.94532 -4.3653 0
M  V30 3454 H 329.754 1.76699 -3.34045 0
M  V30 3455 H 330.067 3.0489 -7.10114 0
M  V30 3456 H 328.412 2.74834 -6.3835 0
M  V30 3457 H 331.603 2.11392 -4.1765 0
M  V30 3458 H 331.776 2.69869 -5.89131 0
M  V30 3459 N 325.182 1.32811 0.848464 0
M  V30 3460 C 326.407 1.26882 1.6406 0
M  V30 3461 C 326.832 -0.15913 1.87426 0
M  V30 3462 O 326.19 -1.11258 1.43148 0
M  V30 3463 C 326.238 2.03997 2.97351 0
M  V30 3464 O 325.342 1.39201 3.88197 0
M  V30 3465 H 324.683 0.436982 0.499943 0
M  V30 3466 H 327.213 1.75224 1.0563 0
M  V30 3467 H 327.223 2.14403 3.47124 0
M  V30 3468 H 325.898 3.0783 2.79666 0
M  V30 3469 H 324.475 1.37381 3.46671 0
M  V30 3470 N 326.66 -1.06551 1.16123 0
M  V30 3471 C 327.906 -1.79567 0.94252 0
M  V30 3472 C 328.239 -1.86869 -0.528547 0
M  V30 3473 O 327.514 -1.35838 -1.39206 0
M  V30 3474 C 327.797 -3.24195 1.56747 0
M  V30 3475 C 327.65 -3.24989 3.10969 0
M  V30 3476 C 328.969 -4.21678 1.25998 0
M  V30 3477 H 326.088 -0.651883 0.343828 0
M  V30 3478 H 328.73 -1.2463 1.43413 0
M  V30 3479 H 326.88 -3.71107 1.14942 0
M  V30 3480 H 328.552 -2.86258 3.61737 0
M  V30 3481 H 326.795 -2.63716 3.44436 0
M  V30 3482 H 327.466 -4.27005 3.49815 0
M  V30 3483 H 329.942 -3.83196 1.62174 0
M  V30 3484 H 328.818 -5.21146 1.7233 0
M  V30 3485 H 329.079 -4.4174 0.178367 0
M  V30 3486 N 328.138 -0.959301 -1.25041 0
M  V30 3487 C 329.549 -0.65667 -1.74771 0
M  V30 3488 C 329.9 0.827852 -1.77879 0
M  V30 3489 O 329.025 1.64783 -1.40269 0
M  V30 3490 C 329.62 -1.1853 -3.1739 0
M  V30 3491 C 328.179 -0.932734 -3.6466 0
M  V30 3492 C 327.326 -1.32558 -2.43564 0
M  V30 3493 H 330.277 -1.13558 -1.10862 0
M  V30 3494 H 330.298 -0.547582 -3.76539 0
M  V30 3495 H 329.81 -2.26576 -3.15095 0
M  V30 3496 H 327.911 0.13257 -3.72364 0
M  V30 3497 H 328.024 -1.57248 -4.52559 0
M  V30 3498 H 326.388 -0.743956 -2.43593 0
M  V30 3499 H 327.171 -2.41537 -2.43957 0
M  V30 3500 N 329.616 1.39756 -0.72842 0
M  V30 3501 C 330.566 2.2792 -0.0603424 0
M  V30 3502 C 331.55 1.43922 0.719399 0
M  V30 3503 O 332.742 1.66895 0.589489 0
M  V30 3504 C 329.871 3.32582 0.851104 0
M  V30 3505 C 328.957 4.24049 0.0658641 0
M  V30 3506 N 329.348 4.96653 -0.957578 0
M  V30 3507 C 327.646 4.45013 0.296509 0
M  V30 3508 C 328.347 5.63836 -1.43052 0
M  V30 3509 N 327.323 5.38397 -0.750315 0
M  V30 3510 H 331.125 2.81504 -0.84455 0
M  V30 3511 H 328.639 1.5236 -0.562155 0
M  V30 3512 H 330.636 3.94603 1.34514 0
M  V30 3513 H 329.296 2.80558 1.63454 0
M  V30 3514 H 330.307 5.00297 -1.33877 0
M  V30 3515 H 326.984 4.03943 1.05527 0
M  V30 3516 H 328.374 6.31974 -2.28163 0
M  V30 3517 N 331.094 0.475555 1.50254 0
M  V30 3518 C 332.024 -0.30611 2.31485 0
M  V30 3519 C 333.005 -0.986228 1.38591 0
M  V30 3520 O 334.19 -0.982541 1.67511 0
M  V30 3521 C 331.32 -1.38588 3.1845 0
M  V30 3522 C 330.274 -0.827115 4.19932 0
M  V30 3523 C 329.6 -2.00551 4.95665 0
M  V30 3524 C 330.9 0.16463 5.2204 0
M  V30 3525 H 332.594 0.371866 2.97082 0
M  V30 3526 H 330.14 0.180282 1.42867 0
M  V30 3527 H 332.093 -1.94023 3.74076 0
M  V30 3528 H 330.817 -2.09269 2.50747 0
M  V30 3529 H 329.476 -0.294702 3.65414 0
M  V30 3530 H 329.124 -2.6994 4.2443 0
M  V30 3531 H 328.824 -1.63784 5.64313 0
M  V30 3532 H 330.348 -2.56468 5.54127 0
M  V30 3533 H 331.762 -0.300699 5.72511 0
M  V30 3534 H 330.159 0.446813 5.98434 0
M  V30 3535 H 331.229 1.08905 4.72512 0
M  V30 3536 N 332.573 -1.56217 0.208337 0
M  V30 3537 C 333.505 -2.1695 -0.739276 0
M  V30 3538 C 334.518 -1.13492 -1.1672 0
M  V30 3539 O 335.707 -1.40529 -1.10063 0
M  V30 3540 C 332.807 -2.72755 -2.01142 0
M  V30 3541 C 331.98 -4.0125 -1.74118 0
M  V30 3542 C 331.039 -4.41749 -2.85909 0
M  V30 3543 O 330.065 -5.08912 -2.54946 0
M  V30 3544 N 331.267 -4.06342 -4.14568 0
M  V30 3545 H 334.032 -2.98893 -0.219837 0
M  V30 3546 H 331.593 -1.61878 0.0268445 0
M  V30 3547 H 333.585 -2.96826 -2.75094 0
M  V30 3548 H 332.155 -1.95191 -2.4417 0
M  V30 3549 H 331.375 -3.85173 -0.838775 0
M  V30 3550 H 332.663 -4.851 -1.53477 0
M  V30 3551 H 332.061 -3.52345 -4.42571 0
M  V30 3552 H 330.618 -4.35335 -4.85105 0
M  V30 3553 N 334.051 0.0651679 -1.57465 0
M  V30 3554 C 334.998 1.07675 -2.04144 0
M  V30 3555 C 335.968 1.38071 -0.923335 0
M  V30 3556 O 337.153 1.49026 -1.19146 0
M  V30 3557 C 334.293 2.38337 -2.49579 0
M  V30 3558 C 333.406 2.14413 -3.75035 0
M  V30 3559 C 332.541 3.38686 -4.09225 0
M  V30 3560 C 331.58 3.10156 -5.27702 0
M  V30 3561 N 330.717 4.26778 -5.57499 0
M  V30 3562 H 335.557 0.671716 -2.90331 0
M  V30 3563 H 333.094 0.3201 -1.43575 0
M  V30 3564 H 335.052 3.14632 -2.73975 0
M  V30 3565 H 333.682 2.7663 -1.6636 0
M  V30 3566 H 332.734 1.2878 -3.57939 0
M  V30 3567 H 334.046 1.89344 -4.61466 0
M  V30 3568 H 333.2 4.23373 -4.34558 0
M  V30 3569 H 331.939 3.66837 -3.21374 0
M  V30 3570 H 330.944 2.23866 -5.02159 0
M  V30 3571 H 332.169 2.8332 -6.17176 0
M  V30 3572 H 330.115 4.54948 -4.72608 0
M  V30 3573 H 330.032 4.05005 -6.38362 0
M  V30 3574 H 331.3 5.12443 -5.87386 0
M  V30 3575 N 335.529 1.53961 0.336706 0
M  V30 3576 C 336.775 1.7179 1.07777 0
M  V30 3577 C 337.108 0.483263 1.88091 0
M  V30 3578 O 336.383 -0.519747 1.87427 0
M  V30 3579 C 336.666 2.98558 2.01334 0
M  V30 3580 C 336.519 4.32245 1.24437 0
M  V30 3581 C 337.838 3.21023 3.01052 0
M  V30 3582 H 334.957 0.625089 0.390426 0
M  V30 3583 H 337.599 1.86641 0.35567 0
M  V30 3584 H 335.749 2.86028 2.62908 0
M  V30 3585 H 337.421 4.56637 0.654243 0
M  V30 3586 H 335.664 4.30344 0.546458 0
M  V30 3587 H 336.335 5.17137 1.93063 0
M  V30 3588 H 338.811 3.32929 2.49595 0
M  V30 3589 H 337.687 4.11104 3.6371 0
M  V30 3590 H 337.948 2.37637 3.72802 0
M  V30 3591 N 337.007 -0.598083 1.45811 0
M  V30 3592 C 338.254 -1.35681 1.50323 0
M  V30 3593 C 338.582 -1.9393 0.148739 0
M  V30 3594 O 337.837 -1.76094 -0.853787 0
M  V30 3595 C 338.136 -2.51669 2.53766 0
M  V30 3596 C 337.802 -2.11508 3.98215 0
M  V30 3597 C 336.464 -2.0027 4.37545 0
M  V30 3598 C 338.816 -1.80308 4.89018 0
M  V30 3599 C 336.144 -1.56067 5.65562 0
M  V30 3600 C 338.496 -1.37589 6.17456 0
M  V30 3601 C 337.16 -1.24916 6.55708 0
M  V30 3602 H 336.43 -0.496492 0.550069 0
M  V30 3603 H 339.077 -0.675052 1.79207 0
M  V30 3604 H 337.382 -3.25225 2.18486 0
M  V30 3605 H 339.079 -3.09895 2.54492 0
M  V30 3606 H 335.669 -2.21185 3.67117 0
M  V30 3607 H 339.853 -1.87884 4.59362 0
M  V30 3608 H 335.109 -1.44886 5.93985 0
M  V30 3609 H 339.283 -1.12495 6.87254 0
M  V30 3610 H 336.91 -0.904386 7.54801 0
M  V30 3611 N 338.485 -1.33259 -0.841409 0
M  V30 3612 C 339.762 -1.15174 -1.58096 0
M  V30 3613 C 340.142 0.282858 -2.09196 0
M  V30 3614 O 339.49 1.28151 -1.89181 0
M  V30 3615 C 339.7 -2.1907 -2.71679 0
M  V30 3616 C 341.048 -2.53093 -3.40924 0
M  V30 3617 O 342.072 -2.17717 -2.81918 0
M  V30 3618 O 340.931 -3.1379 -4.47435 0
M  V30 3619 H 338.025 -0.445303 -0.696875 0
M  V30 3620 H 340.571 -1.44833 -0.884385 0
M  V30 3621 H 339.343 -3.15443 -2.31541 0
M  V30 3622 H 338.966 -1.90481 -3.49002 0
M  V30 3623 N 339.963 1.05934 -1.16686 0
M  V30 3624 C 341.379 1.30938 -0.912542 0
M  V30 3625 C 341.579 1.96803 0.432533 0
M  V30 3626 O 340.635 2.23693 1.17123 0
M  V30 3627 C 341.948 2.18649 -2.06429 0
M  V30 3628 C 343.496 2.32055 -2.10047 0
M  V30 3629 C 343.971 3.23122 -3.24586 0
M  V30 3630 N 345.462 3.30706 -3.24327 0
M  V30 3631 C 346.197 4.01273 -4.09594 0
M  V30 3632 N 345.693 4.74332 -5.04956 0
M  V30 3633 N 347.486 3.97361 -3.97569 0
M  V30 3634 H 339.637 0.615777 -2.03278 0
M  V30 3635 H 341.9 0.334077 -0.887185 0
M  V30 3636 H 341.606 1.77534 -3.03603 0
M  V30 3637 H 341.48 3.19252 -2.00894 0
M  V30 3638 H 343.867 2.72415 -1.13464 0
M  V30 3639 H 343.948 1.31107 -2.19647 0
M  V30 3640 H 343.592 2.83477 -4.2143 0
M  V30 3641 H 343.522 4.24057 -3.12223 0
M  V30 3642 H 346.013 2.78644 -2.55276 0
M  V30 3643 H 346.326 5.25716 -5.6643 0
M  V30 3644 H 344.671 4.733 -5.08933 0
M  V30 3645 H 347.862 3.39405 -3.22369 0
M  V30 3646 H 348.035 4.52089 -4.64241 0
M  V30 3647 N 341.441 0.965919 1.2453 0
M  V30 3648 C 342.671 0.643451 1.96324 0
M  V30 3649 C 343.079 -0.790927 1.71875 0
M  V30 3650 O 342.422 -1.54208 0.998273 0
M  V30 3651 C 342.484 0.836078 3.49643 0
M  V30 3652 C 342.148 2.24975 3.97788 0
M  V30 3653 C 343.145 3.22735 4.07601 0
M  V30 3654 C 340.83 2.57697 4.31158 0
M  V30 3655 C 342.824 4.51303 4.50116 0
M  V30 3656 C 340.511 3.86492 4.73357 0
M  V30 3657 C 341.509 4.83107 4.828 0
M  V30 3658 O 341.197 6.09605 5.24058 0
M  V30 3659 H 340.929 0.239223 0.632257 0
M  V30 3660 H 343.483 1.29587 1.59362 0
M  V30 3661 H 341.713 0.12649 3.86493 0
M  V30 3662 H 343.402 0.512965 4.02646 0
M  V30 3663 H 344.168 2.98783 3.82039 0
M  V30 3664 H 340.047 1.83216 4.23028 0
M  V30 3665 H 343.591 5.26716 4.57401 0
M  V30 3666 H 339.488 4.10245 4.98366 0
M  V30 3667 H 340.256 6.13146 5.42213 0
M  V30 3668 N 342.919 -1.39368 0.735821 0
M  V30 3669 C 343.866 -2.30599 0.0963825 0
M  V30 3670 C 344.836 -1.49257 -0.728794 0
M  V30 3671 O 346.021 -1.77941 -0.688588 0
M  V30 3672 C 343.161 -3.35596 -0.804305 0
M  V30 3673 C 342.274 -4.31987 0.0335761 0
M  V30 3674 C 341.409 -5.24053 -0.868461 0
M  V30 3675 C 340.448 -6.12095 -0.0258776 0
M  V30 3676 N 339.585 -6.96514 -0.883893 0
M  V30 3677 H 344.425 -2.8471 0.880002 0
M  V30 3678 H 341.962 -1.40188 0.445619 0
M  V30 3679 H 343.92 -3.95062 -1.34096 0
M  V30 3680 H 342.55 -2.82938 -1.55389 0
M  V30 3681 H 341.602 -3.74133 0.68766 0
M  V30 3682 H 342.914 -4.94074 0.685036 0
M  V30 3683 H 342.068 -5.88549 -1.47293 0
M  V30 3684 H 340.807 -4.62289 -1.5537 0
M  V30 3685 H 339.812 -5.4661 0.591386 0
M  V30 3686 H 341.037 -6.75923 0.656156 0
M  V30 3687 H 338.983 -6.37318 -1.55441 0
M  V30 3688 H 338.9 -7.55448 -0.288931 0
M  V30 3689 H 340.168 -7.65439 -1.4739 0
M  V30 3690 N 344.397 -0.483516 -1.5 0
M  V30 3691 C 345.622 0.0667119 -2.07293 0
M  V30 3692 C 346.047 1.3164 -1.3436 0
M  V30 3693 O 345.405 1.76945 -0.394987 0
M  V30 3694 C 345.453 0.321126 -3.59167 0
M  V30 3695 O 344.557 1.39927 -3.87936 0
M  V30 3696 H 343.898 -0.0184758 -0.663743 0
M  V30 3697 H 346.428 -0.678125 -1.93035 0
M  V30 3698 H 346.438 0.557906 -4.04168 0
M  V30 3699 H 345.113 -0.592007 -4.11665 0
M  V30 3700 H 343.69 1.14882 -3.54763 0
M  V30 3701 N 345.875 1.56104 -0.216619 0
M  V30 3702 C 347.105 2.02269 0.420802 0
M  V30 3703 C 347.513 1.09575 1.5424 0
M  V30 3704 O 346.856 0.0967308 1.83445 0
M  V30 3705 C 346.918 3.44784 1.01806 0
M  V30 3706 C 346.582 4.56988 0.0325154 0
M  V30 3707 C 347.579 5.14225 -0.766055 0
M  V30 3708 C 345.264 5.02228 -0.0848092 0
M  V30 3709 C 347.258 6.15169 -1.6687 0
M  V30 3710 C 344.945 6.03011 -0.990994 0
M  V30 3711 C 345.943 6.59357 -1.78149 0
M  V30 3712 O 345.631 7.58179 -2.67245 0
M  V30 3713 H 345.363 0.667353 0.107776 0
M  V30 3714 H 347.917 2.02747 -0.329034 0
M  V30 3715 H 346.147 3.41359 1.81689 0
M  V30 3716 H 347.836 3.74626 1.56237 0
M  V30 3717 H 348.602 4.80126 -0.685836 0
M  V30 3718 H 344.481 4.58054 0.520349 0
M  V30 3719 H 348.025 6.59076 -2.28615 0
M  V30 3720 H 343.922 6.36532 -1.07225 0
M  V30 3721 H 344.69 7.75682 -2.61265 0
M  V30 3722 N 347.353 -0.0568162 1.57498 0
M  V30 3723 C 348.578 -0.769402 1.92601 0
M  V30 3724 C 349.003 -1.69559 0.814336 0
M  V30 3725 O 348.361 -1.79811 -0.231903 0
M  V30 3726 C 348.409 -1.52634 3.26704 0
M  V30 3727 O 347.513 -2.63797 3.16994 0
M  V30 3728 H 346.854 -0.208909 0.63028 0
M  V30 3729 H 349.384 -0.0205798 2.0459 0
M  V30 3730 H 349.394 -1.90234 3.60936 0
M  V30 3731 H 348.069 -0.846875 4.07186 0
M  V30 3732 H 346.646 -2.28943 2.94346 0
M  V30 3733 N 348.832 -1.54138 -0.328536 0
M  V30 3734 C 350.243 -1.63395 -0.903272 0
M  V30 3735 C 350.594 -0.524828 -1.8905 0
M  V30 3736 O 349.719 0.343068 -2.13663 0
M  V30 3737 C 350.314 -2.9618 -1.64507 0
M  V30 3738 C 348.873 -3.0765 -2.1686 0
M  V30 3739 C 348.02 -2.58933 -0.992416 0
M  V30 3740 H 350.971 -1.58344 -0.106253 0
M  V30 3741 H 350.992 -2.86061 -2.50897 0
M  V30 3742 H 350.504 -3.76884 -0.926302 0
M  V30 3743 H 348.605 -2.31611 -2.91868 0
M  V30 3744 H 348.718 -4.1337 -2.42202 0
M  V30 3745 H 347.082 -2.14706 -1.37016 0
M  V30 3746 H 347.865 -3.42089 -0.288041 0
M  V30 3747 N 350.31 0.590341 -1.46126 0
M  V30 3748 C 351.54 1.37304 -1.54373 0
M  V30 3749 C 351.948 1.88332 -0.181071 0
M  V30 3750 O 351.291 1.63852 0.830559 0
M  V30 3751 C 351.353 2.6012 -2.48149 0
M  V30 3752 C 351.017 2.30613 -3.94546 0
M  V30 3753 C 352.014 1.89915 -4.83971 0
M  V30 3754 C 349.699 2.42993 -4.39613 0
M  V30 3755 C 351.693 1.61981 -6.16475 0
M  V30 3756 C 349.38 2.14672 -5.72153 0
M  V30 3757 C 350.378 1.7423 -6.60404 0
M  V30 3758 O 350.066 1.46251 -7.90485 0
M  V30 3759 H 349.798 0.426086 -0.524811 0
M  V30 3760 H 352.352 0.72539 -1.92165 0
M  V30 3761 H 350.582 3.27664 -2.05361 0
M  V30 3762 H 352.271 3.22182 -2.46887 0
M  V30 3763 H 353.037 1.79872 -4.50412 0
M  V30 3764 H 348.916 2.73435 -3.71153 0
M  V30 3765 H 352.46 1.30341 -6.85315 0
M  V30 3766 H 348.357 2.24337 -6.05263 0
M  V30 3767 H 349.125 1.6016 -8.02677 0
M  V30 3768 N 351.788 1.33704 0.83433 0
M  V30 3769 C 353.065 1.16011 1.57483 0
M  V30 3770 C 353.445 -0.27176 2.09343 0
M  V30 3771 O 352.793 -1.27146 1.89858 0
M  V30 3772 C 353.003 2.20507 2.70514 0
M  V30 3773 C 354.351 2.54898 3.39577 0
M  V30 3774 O 355.375 2.19209 2.80759 0
M  V30 3775 O 354.234 3.16158 4.45765 0
M  V30 3776 H 351.328 0.448992 0.694503 0
M  V30 3777 H 353.874 1.453 0.876691 0
M  V30 3778 H 352.646 3.16667 2.29865 0
M  V30 3779 H 352.269 1.92329 3.47987 0
M  V30 3780 N 353.266 -1.05314 1.17247 0
M  V30 3781 C 354.199 -2.12512 0.831507 0
M  V30 3782 C 355.177 -1.61351 -0.201168 0
M  V30 3783 O 356.361 -1.88317 -0.0829831 0
M  V30 3784 C 353.488 -3.37848 0.24015 0
M  V30 3785 C 352.534 -4.07832 1.24801 0
M  V30 3786 S 353.367 -4.56537 2.79882 0
M  V30 3787 C 354.523 -5.85122 2.22223 0
M  V30 3788 H 354.756 -2.41106 1.7394 0
M  V30 3789 H 352.289 -1.17896 0.996988 0
M  V30 3790 H 354.247 -4.10391 -0.0945588 0
M  V30 3791 H 352.908 -3.07392 -0.645668 0
M  V30 3792 H 352.101 -4.97883 0.78287 0
M  V30 3793 H 351.703 -3.41348 1.52831 0
M  V30 3794 H 353.995 -6.58408 1.59703 0
M  V30 3795 H 354.938 -6.36381 3.10523 0
M  V30 3796 H 355.346 -5.39626 1.65722 0
M  V30 3797 N 354.744 -0.972509 -1.24016 0
M  V30 3798 C 355.674 -0.525548 -2.27509 0
M  V30 3799 C 356.655 0.437262 -1.64384 0
M  V30 3800 O 357.84 0.332343 -1.91335 0
M  V30 3801 C 354.97 0.180448 -3.46831 0
M  V30 3802 C 353.924 -0.698859 -4.22256 0
M  V30 3803 C 353.25 0.138903 -5.3452 0
M  V30 3804 C 354.55 -1.98582 -4.83076 0
M  V30 3805 H 356.244 -1.39058 -2.65148 0
M  V30 3806 H 353.79 -0.67009 -1.27459 0
M  V30 3807 H 355.743 0.504387 -4.18371 0
M  V30 3808 H 354.467 1.07987 -3.08231 0
M  V30 3809 H 353.126 -1.00614 -3.52523 0
M  V30 3810 H 352.774 1.03862 -4.9216 0
M  V30 3811 H 352.474 -0.446259 -5.85903 0
M  V30 3812 H 353.998 0.457404 -6.08884 0
M  V30 3813 H 355.412 -1.72715 -5.46665 0
M  V30 3814 H 353.809 -2.5181 -5.44713 0
M  V30 3815 H 354.879 -2.67769 -4.04262 0
M  V30 3816 N 356.222 1.38976 -0.743202 0
M  V30 3817 C 357.132 2.3434 -0.110399 0
M  V30 3818 C 358.148 1.58741 0.712559 0
M  V30 3819 O 359.324 1.9099 0.639125 0
M  V30 3820 C 356.389 3.37812 0.780012 0
M  V30 3821 C 355.45 4.29263 -0.0561319 0
M  V30 3822 C 354.683 5.27793 0.791875 0
M  V30 3823 O 354.906 5.33043 2.03031 0
M  V30 3824 O 353.84 6.01512 0.216183 0
M  V30 3825 H 357.666 2.90129 -0.897714 0
M  V30 3826 H 355.251 1.40643 -0.503966 0
M  V30 3827 H 357.133 4.01194 1.28923 0
M  V30 3828 H 355.808 2.84395 1.546 0
M  V30 3829 H 354.715 3.69076 -0.611056 0
M  V30 3830 H 356.048 4.85907 -0.784531 0
M  V30 3831 N 357.7 0.491464 1.49741 0
M  V30 3832 C 358.925 -0.0557177 2.07325 0
M  V30 3833 C 359.35 -1.30925 1.35056 0
M  V30 3834 O 358.708 -1.76733 0.404365 0
M  V30 3835 C 358.756 -0.302074 3.59333 0
M  V30 3836 O 357.86 -1.37868 3.88672 0
M  V30 3837 H 357.201 0.0219956 0.663636 0
M  V30 3838 H 359.731 0.688352 1.92673 0
M  V30 3839 H 359.741 -0.536464 4.04458 0
M  V30 3840 H 358.416 0.61383 4.11345 0
M  V30 3841 H 356.993 -1.12999 3.55367 0
M  V30 3842 N 359.178 -1.55987 0.224894 0
M  V30 3843 C 360.427 -1.97566 -0.406273 0
M  V30 3844 C 360.74 -1.11569 -1.6066 0
M  V30 3845 O 361.946 -1.43062 -2.3075 0
M  V30 3846 C 360.402 -3.51474 -0.774207 0
M  V30 3847 C 360.01 -4.46179 0.403496 0
M  V30 3848 C 361.754 -4.01758 -1.37079 0
M  V30 3849 C 359.661 -5.91399 0.0129412 0
M  V30 3850 H 358.591 -0.737777 -0.155565 0
M  V30 3851 H 361.242 -1.80659 0.321635 0
M  V30 3852 H 359.624 -3.63994 -1.55963 0
M  V30 3853 H 360.798 -4.45409 1.18101 0
M  V30 3854 H 359.113 -4.06255 0.913536 0
M  V30 3855 H 361.71 -5.07756 -1.67596 0
M  V30 3856 H 362.053 -3.47805 -2.28773 0
M  V30 3857 H 362.586 -3.92475 -0.648733 0
M  V30 3858 H 359.325 -6.49341 0.896451 0
M  V30 3859 H 358.845 -5.95356 -0.728821 0
M  V30 3860 H 360.524 -6.45683 -0.412582 0
M  V30 3861 N 360.656 0.0484629 -1.57525 0
M  V30 3862 C 362.072 0.40375 -1.54409 0
M  V30 3863 C 362.272 1.77786 -0.948384 0
M  V30 3864 O 361.328 2.46189 -0.560983 0
M  V30 3865 C 362.641 0.323394 -2.98956 0
M  V30 3866 C 364.189 0.401892 -3.10409 0
M  V30 3867 C 364.664 0.351195 -4.56652 0
M  V30 3868 N 366.155 0.410576 -4.61377 0
M  V30 3869 C 366.89 0.393933 -5.72045 0
M  V30 3870 N 366.386 0.330724 -6.9201 0
M  V30 3871 N 368.179 0.442227 -5.60358 0
M  V30 3872 H 360.33 -0.851016 -1.94606 0
M  V30 3873 H 362.593 -0.321721 -0.89174 0
M  V30 3874 H 362.299 -0.62011 -3.4619 0
M  V30 3875 H 362.173 1.12463 -3.60044 0
M  V30 3876 H 364.56 1.33582 -2.63134 0
M  V30 3877 H 364.641 -0.428342 -2.52188 0
M  V30 3878 H 364.285 -0.578987 -5.04589 0
M  V30 3879 H 364.215 1.19928 -5.12762 0
M  V30 3880 H 366.706 0.462729 -3.75056 0
M  V30 3881 H 367.019 0.322592 -7.72126 0
M  V30 3882 H 365.364 0.29706 -6.94365 0
M  V30 3883 H 368.555 0.489464 -4.65534 0
M  V30 3884 H 368.728 0.425788 -6.466 0
M  V30 3885 N 362.134 1.5431 0.320358 0
M  V30 3886 C 363.081 1.83918 1.39438 0
M  V30 3887 C 364.051 0.686525 1.51248 0
M  V30 3888 O 365.236 0.933269 1.66417 0
M  V30 3889 C 362.376 2.075 2.75749 0
M  V30 3890 C 361.489 3.35177 2.72544 0
M  V30 3891 C 360.624 3.48704 4.00723 0
M  V30 3892 C 359.663 4.70244 3.91838 0
M  V30 3893 N 358.8 4.80679 5.11754 0
M  V30 3894 H 363.64 2.75544 1.13489 0
M  V30 3895 H 361.177 1.36459 0.549309 0
M  V30 3896 H 363.135 2.19166 3.54996 0
M  V30 3897 H 361.765 1.19163 3 0
M  V30 3898 H 360.817 3.32233 1.85271 0
M  V30 3899 H 362.129 4.24534 2.61863 0
M  V30 3900 H 361.283 3.59928 4.88402 0
M  V30 3901 H 360.022 2.57445 4.14214 0
M  V30 3902 H 359.027 4.59072 3.02544 0
M  V30 3903 H 360.252 5.6289 3.7991 0
M  V30 3904 H 358.198 3.92337 5.25745 0
M  V30 3905 H 358.115 5.64007 5.0342 0
M  V30 3906 H 359.383 4.96239 6.01138 0
M  V30 3907 N 363.613 -0.582584 1.46437 0
M  V30 3908 C 364.523 -1.71949 1.59595 0
M  V30 3909 C 365.539 -1.67264 0.479443 0
M  V30 3910 O 366.715 -1.87171 0.743579 0
M  V30 3911 C 363.78 -3.08452 1.58298 0
M  V30 3912 C 362.841 -3.244 2.81182 0
M  V30 3913 C 362.074 -4.54391 2.79937 0
M  V30 3914 O 362.297 -5.38287 1.8869 0
M  V30 3915 O 361.231 -4.73588 3.71481 0
M  V30 3916 H 365.057 -1.63795 2.55744 0
M  V30 3917 H 362.642 -0.749643 1.29231 0
M  V30 3918 H 364.524 -3.89732 1.60271 0
M  V30 3919 H 363.199 -3.17043 0.653094 0
M  V30 3920 H 362.106 -2.42613 2.84763 0
M  V30 3921 H 363.439 -3.20699 3.7338 0
M  V30 3922 N 365.091 -1.34144 -0.827227 0
M  V30 3923 C 366.337 -1.26446 -1.58554 0
M  V30 3924 C 366.67 0.1664 -1.93486 0
M  V30 3925 O 365.945 1.1107 -1.59667 0
M  V30 3926 C 366.228 -2.15111 -2.8879 0
M  V30 3927 C 366.081 -3.66712 -2.60465 0
M  V30 3928 C 367.4 -2.03311 -3.90324 0
M  V30 3929 H 364.519 -0.46067 -0.575284 0
M  V30 3930 H 367.161 -1.64356 -0.953269 0
M  V30 3931 H 365.311 -1.8291 -3.42748 0
M  V30 3932 H 366.983 -4.09259 -2.1285 0
M  V30 3933 H 365.226 -3.88014 -1.93978 0
M  V30 3934 H 365.897 -4.24112 -3.53317 0
M  V30 3935 H 368.373 -2.31574 -3.45706 0
M  V30 3936 H 367.249 -2.67582 -4.79261 0
M  V30 3937 H 367.51 -1.00879 -4.30437 0
M  V30 3938 N 366.569 1.04691 -1.17803 0
M  V30 3939 C 367.516 2.12557 -0.899343 0
M  V30 3940 C 368.486 1.65339 0.158771 0
M  V30 3941 O 369.671 1.90789 0.0204797 0
M  V30 3942 C 366.811 3.42481 -0.424315 0
M  V30 3943 C 365.924 4.03346 -1.54713 0
M  V30 3944 C 365.059 5.21208 -1.02546 0
M  V30 3945 C 364.098 5.74089 -2.12339 0
M  V30 3946 N 363.235 6.83247 -1.61612 0
M  V30 3947 H 368.075 2.35734 -1.823 0
M  V30 3948 H 365.612 1.1564 -0.909159 0
M  V30 3949 H 367.57 4.16996 -0.130421 0
M  V30 3950 H 366.2 3.19471 0.462377 0
M  V30 3951 H 365.252 3.2622 -1.95664 0
M  V30 3952 H 366.564 4.38628 -2.37501 0
M  V30 3953 H 365.718 6.02812 -0.685718 0
M  V30 3954 H 364.457 4.87414 -0.167084 0
M  V30 3955 H 363.462 4.91111 -2.47165 0
M  V30 3956 H 364.687 6.0993 -2.98601 0
M  V30 3957 H 362.633 6.5134 -0.780533 0
M  V30 3958 H 362.55 7.17559 -2.38003 0
M  V30 3959 H 363.818 7.68491 -1.30545 0
M  V30 3960 N 368.047 0.979072 1.23499 0
M  V30 3961 C 369.295 0.645941 1.91499 0
M  V30 3962 C 369.616 -0.822948 1.76784 0
M  V30 3963 O 368.886 -1.58854 1.14639 0
M  V30 3964 H 367.466 0.235919 0.708767 0
M  V30 3965 H 370.128 1.2426 1.50152 0
M  V30 3966 H 369.224 0.896411 2.9895 0
M  V30 3967 N 369.525 -1.3858 0.750561 0
M  V30 3968 C 370.802 -1.94231 0.231009 0
M  V30 3969 C 371.182 -1.68611 -1.27018 0
M  V30 3970 O 370.53 -1.02296 -2.04323 0
M  V30 3971 C 370.74 -3.44123 0.581428 0
M  V30 3972 C 372.088 -4.2116 0.539389 0
M  V30 3973 O 373.112 -3.52391 0.519541 0
M  V30 3974 O 371.971 -5.43749 0.54765 0
M  V30 3975 H 369.065 -0.825639 0.0474263 0
M  V30 3976 H 371.611 -1.4799 0.830478 0
M  V30 3977 H 370.383 -3.56267 1.61833 0
M  V30 3978 H 370.006 -3.97573 -0.0462047 0
M  V30 3979 N 371.003 -0.499398 -1.49478 0
M  V30 3980 C 371.933 0.269244 -2.31943 0
M  V30 3981 C 372.914 0.964054 -1.40143 0
M  V30 3982 O 374.099 0.955767 -1.69052 0
M  V30 3983 C 371.229 1.33504 -3.20615 0
M  V30 3984 C 370.183 0.760202 -4.21195 0
M  V30 3985 C 369.509 1.9264 -4.98792 0
M  V30 3986 C 370.809 -0.247661 -5.21712 0
M  V30 3987 H 372.503 -0.419082 -2.96452 0
M  V30 3988 H 370.049 -0.202988 -1.42562 0
M  V30 3989 H 372.002 1.88048 -3.77115 0
M  V30 3990 H 370.726 2.05253 -2.54045 0
M  V30 3991 H 369.385 0.23653 -3.65836 0
M  V30 3992 H 369.033 2.63154 -4.28671 0
M  V30 3993 H 368.733 1.54785 -5.66847 0
M  V30 3994 H 370.257 2.4762 -5.58137 0
M  V30 3995 H 371.671 0.209579 -5.72917 0
M  V30 3996 H 370.068 -0.541962 -5.97648 0
M  V30 3997 H 371.138 -1.16409 -4.7072 0
M  V30 3998 N 372.481 1.55866 -0.233164 0
M  V30 3999 C 373.391 2.24431 0.683217 0
M  V30 4000 C 374.407 1.2558 1.2044 0
M  V30 4001 O 375.583 1.58422 1.24356 0
M  V30 4002 C 372.648 2.91979 1.86947 0
M  V30 4003 C 371.709 4.06204 1.38912 0
M  V30 4004 C 370.942 4.70522 2.51883 0
M  V30 4005 O 371.165 4.33865 3.70293 0
M  V30 4006 O 370.099 5.59296 2.22423 0
M  V30 4007 H 373.925 3.03426 0.129059 0
M  V30 4008 H 371.51 1.494 -0.0022283 0
M  V30 4009 H 373.392 3.34573 2.56201 0
M  V30 4010 H 372.067 2.15935 2.41151 0
M  V30 4011 H 370.974 3.68155 0.664259 0
M  V30 4012 H 372.307 4.84025 0.893328 0
M  V30 4013 N 373.959 -0.0401083 1.57549 0
M  V30 4014 C 374.907 -1.06264 2.06908 0
M  V30 4015 C 375.901 -1.38132 0.980608 0
M  V30 4016 O 377.107 -1.37167 1.16556 0
M  V30 4017 H 373.482 -0.360166 0.660139 0
M  V30 4018 H 375.453 -0.620445 2.91878 0
M  V30 4019 C 374.202 -2.35846 2.55483 0
M  V30 4020 H 373.525 -2.12183 3.38849 0
M  V30 4021 H 374.965 -3.05765 2.93741 0
M  V30 4022 C 373.424 -3.0404 1.45126 0
M  V30 4023 O 373.954 -3.93424 0.811216 0
M  V30 4024 N 372.16 -2.65184 1.18852 0
M  V30 4025 H 371.707 -1.92584 1.71083 0
M  V30 4026 H 371.665 -3.1113 0.452244 0
M  V30 4027 N 375.437 -1.54477 -0.31217 0
M  V30 4028 C 376.4 -1.83923 -1.36766 0
M  V30 4029 C 377.4 -0.711563 -1.44199 0
M  V30 4030 O 378.59 -0.979866 -1.44029 0
M  V30 4031 C 375.722 -2.0095 -2.75376 0
M  V30 4032 H 376.915 -2.78239 -1.11906 0
M  V30 4033 H 374.468 -1.46369 -0.548257 0
M  V30 4034 H 375.203 -1.08883 -3.05475 0
M  V30 4035 H 374.988 -2.83018 -2.71373 0
M  V30 4036 H 376.478 -2.2514 -3.51713 0
M  V30 4037 N 376.915 0.57481 -1.46744 0
M  V30 4038 C 378.162 1.33272 -1.52462 0
M  V30 4039 C 378.49 1.93669 -0.179572 0
M  V30 4040 O 377.745 1.7743 0.825664 0
M  V30 4041 C 378.044 2.476 -2.57738 0
M  V30 4042 C 377.71 2.05146 -4.01529 0
M  V30 4043 C 376.372 1.93284 -4.40676 0
M  V30 4044 C 378.724 1.72506 -4.91824 0
M  V30 4045 C 376.052 1.47049 -5.67973 0
M  V30 4046 C 378.404 1.27748 -6.19567 0
M  V30 4047 C 377.068 1.14468 -6.57612 0
M  V30 4048 H 376.338 0.487678 -0.557899 0
M  V30 4049 H 378.985 0.646456 -1.80259 0
M  V30 4050 H 377.29 3.21708 -2.23632 0
M  V30 4051 H 378.987 3.05807 -2.5939 0
M  V30 4052 H 375.577 2.15316 -3.7059 0
M  V30 4053 H 379.761 1.80552 -4.62293 0
M  V30 4054 H 375.017 1.35417 -5.96215 0
M  V30 4055 H 379.191 1.01547 -6.88957 0
M  V30 4056 H 376.818 0.78419 -7.56145 0
M  V30 4057 N 378.394 1.34581 0.820102 0
M  V30 4058 C 379.324 1.29038 1.94606 0
M  V30 4059 C 380.305 0.1673 1.69275 0
M  V30 4060 O 381.49 0.360112 1.90832 0
M  V30 4061 C 378.62 1.04793 3.31113 0
M  V30 4062 C 377.574 2.13597 3.70891 0
M  V30 4063 C 376.9 1.74537 5.05412 0
M  V30 4064 C 378.2 3.55451 3.8269 0
M  V30 4065 H 379.894 2.23248 1.99501 0
M  V30 4066 H 377.44 1.0747 0.958449 0
M  V30 4067 H 379.393 0.995592 4.0947 0
M  V30 4068 H 378.117 0.0702565 3.26524 0
M  V30 4069 H 376.776 2.17905 2.9481 0
M  V30 4070 H 376.424 0.754226 4.97313 0
M  V30 4071 H 376.124 2.47361 5.32997 0
M  V30 4072 H 377.648 1.70803 5.86224 0
M  V30 4073 H 379.062 3.5354 4.51312 0
M  V30 4074 H 377.459 4.26922 4.21732 0
M  V30 4075 H 378.529 3.92587 2.84611 0
M  V30 4076 N 379.872 -1.04064 1.18357 0
M  V30 4077 C 380.82 -2.14187 0.907007 0
M  V30 4078 C 381.814 -1.68879 -0.132725 0
M  V30 4079 O 383.02 -1.79993 0.0154248 0
M  V30 4080 H 379.395 -0.699585 0.275835 0
M  V30 4081 H 381.366 -2.34711 1.84264 0
M  V30 4082 C 380.115 -3.44785 0.449254 0
M  V30 4083 H 379.438 -3.80058 1.24081 0
M  V30 4084 H 380.878 -4.22974 0.294737 0
M  V30 4085 C 379.337 -3.26391 -0.834909 0
M  V30 4086 O 379.867 -3.53973 -1.89911 0
M  V30 4087 N 378.073 -2.79726 -0.787523 0
M  V30 4088 H 377.62 -2.5748 0.0787347 0
M  V30 4089 H 377.578 -2.67798 -1.64716 0
M  V30 4090 N 381.35 -0.985608 -1.22978 0
M  V30 4091 C 382.28 -0.549649 -2.26939 0
M  V30 4092 C 383.261 0.419803 -1.64838 0
M  V30 4093 O 384.446 0.31203 -1.91677 0
M  V30 4094 C 381.576 0.143652 -3.47003 0
M  V30 4095 C 380.53 -0.743606 -4.21491 0
M  V30 4096 C 379.856 0.0822027 -5.34637 0
M  V30 4097 C 381.156 -2.03694 -4.80943 0
M  V30 4098 H 382.85 -1.41862 -2.63658 0
M  V30 4099 H 380.396 -0.683571 -1.26741 0
M  V30 4100 H 382.349 0.459985 -4.18882 0
M  V30 4101 H 381.073 1.04711 -3.09359 0
M  V30 4102 H 379.732 -1.04347 -3.51436 0
M  V30 4103 H 379.38 0.986359 -4.93234 0
M  V30 4104 H 379.08 -0.508377 -5.85397 0
M  V30 4105 H 380.604 0.392797 -6.09335 0
M  V30 4106 H 382.018 -1.78504 -5.44802 0
M  V30 4107 H 380.415 -2.57573 -5.42011 0
M  V30 4108 H 381.485 -2.72042 -4.01399 0
M  V30 4109 N 382.828 1.3818 -0.7579 0
M  V30 4110 C 384.074 2.00316 -0.316453 0
M  V30 4111 C 384.407 1.60026 1.10025 0
M  V30 4112 O 383.682 0.839835 1.75434 0
M  V30 4113 C 383.965 3.57349 -0.444245 0
M  V30 4114 C 383.818 4.07591 -1.90236 0
M  V30 4115 C 385.137 4.3981 0.1598 0
M  V30 4116 H 382.256 0.727741 -0.116459 0
M  V30 4117 H 384.898 1.6406 -0.958352 0
M  V30 4118 H 383.048 3.88365 0.102233 0
M  V30 4119 H 384.72 3.87199 -2.50748 0
M  V30 4120 H 382.963 3.60297 -2.41595 0
M  V30 4121 H 383.634 5.16677 -1.94291 0
M  V30 4122 H 386.11 4.14971 -0.306314 0
M  V30 4123 H 384.986 5.48885 0.0401675 0
M  V30 4124 H 385.247 4.24102 1.24859 0
M  V30 4125 N 384.306 0.507319 1.49211 0
M  V30 4126 C 385.238 -0.304532 2.27168 0
M  V30 4127 C 386.251 -0.924956 1.33972 0
M  V30 4128 O 387.44 -0.807227 1.59205 0
M  V30 4129 C 384.54 -1.44431 3.06583 0
M  V30 4130 C 383.713 -0.930026 4.27398 0
M  V30 4131 C 382.772 -1.94817 4.88807 0
M  V30 4132 O 381.798 -1.51418 5.4869 0
M  V30 4133 N 383 -3.279 4.79022 0
M  V30 4134 H 385.765 0.36395 2.97482 0
M  V30 4135 H 383.326 0.340249 1.58284 0
M  V30 4136 H 385.318 -2.12311 3.44537 0
M  V30 4137 H 383.888 -2.01684 2.38835 0
M  V30 4138 H 383.108 -0.0759244 3.94127 0
M  V30 4139 H 384.396 -0.564932 5.05654 0
M  V30 4140 H 383.794 -3.65843 4.3148 0
M  V30 4141 H 382.351 -3.91476 5.21142 0
M  V30 4142 N 385.784 -1.5574 0.241426 0
M  V30 4143 C 387.024 -2.00714 -0.38644 0
M  V30 4144 C 387.388 -1.12586 -1.55526 0
M  V30 4145 O 388.589 -1.46992 -2.25048 0
M  V30 4146 C 386.86 -3.48534 -0.791128 0
M  V30 4147 S 388.419 -4.15519 -1.41029 0
M  V30 4148 H 385.237 -0.700484 -0.121834 0
M  V30 4149 H 387.839 -1.92243 0.355377 0
M  V30 4150 H 386.543 -4.10342 0.0689225 0
M  V30 4151 H 386.074 -3.6092 -1.56526 0
M  V30 4152 H 388.089 -4.16352 -2.69936 0
M  V30 4153 N 387.262 0.0317525 -1.57568 0
M  V30 4154 C 388.511 0.722131 -1.8833 0
M  V30 4155 C 388.824 1.76664 -0.839587 0
M  V30 4156 O 390.03 2.50942 -1.03635 0
M  V30 4157 C 388.486 1.33544 -3.34207 0
M  V30 4158 C 388.094 0.327415 -4.46802 0
M  V30 4159 C 389.838 2.00585 -3.7412 0
M  V30 4160 C 387.745 0.948915 -5.83738 0
M  V30 4161 H 386.675 0.273466 -0.702661 0
M  V30 4162 H 389.326 -0.0235811 -1.83485 0
M  V30 4163 H 387.708 2.13077 -3.33788 0
M  V30 4164 H 388.882 -0.441006 -4.58685 0
M  V30 4165 H 387.197 -0.240758 -4.15703 0
M  V30 4166 H 389.794 2.47932 -4.73744 0
M  V30 4167 H 390.137 2.82285 -3.05975 0
M  V30 4168 H 390.67 1.27831 -3.76702 0
M  V30 4169 H 387.409 0.171387 -6.55276 0
M  V30 4170 H 386.929 1.68724 -5.7558 0
M  V30 4171 H 388.608 1.45705 -6.3038 0
M  V30 4172 N 388.74 1.54641 0.303973 0
M  V30 4173 C 389.672 1.81754 1.39636 0
M  V30 4174 C 390.685 0.70035 1.46966 0
M  V30 4175 O 391.874 0.97778 1.49338 0
M  V30 4176 C 388.974 1.93785 2.7803 0
M  V30 4177 C 388.147 3.24156 2.93669 0
M  V30 4178 C 387.206 3.26641 4.12544 0
M  V30 4179 O 386.232 4.00187 4.04771 0
M  V30 4180 N 387.434 2.5182 5.23036 0
M  V30 4181 H 390.199 2.76031 1.16734 0
M  V30 4182 H 387.76 1.54178 0.494033 0
M  V30 4183 H 389.752 1.92852 3.55795 0
M  V30 4184 H 388.322 1.06515 2.93893 0
M  V30 4185 H 387.542 3.37887 2.03042 0
M  V30 4186 H 388.83 4.10195 3.01027 0
M  V30 4187 H 388.228 1.91692 5.32232 0
M  V30 4188 H 386.785 2.56644 5.99147 0
M  V30 4189 N 390.218 -0.567019 1.47046 0
M  V30 4190 C 391.166 -1.69593 1.59188 0
M  V30 4191 C 392.16 -1.63046 0.459609 0
M  V30 4192 O 393.366 -1.6835 0.637058 0
M  V30 4193 H 389.741 -0.560993 0.500791 0
M  V30 4194 H 391.712 -1.56488 2.54075 0
M  V30 4195 C 390.461 -3.07964 1.61411 0
M  V30 4196 H 389.784 -3.13679 2.47881 0
M  V30 4197 H 391.224 -3.86671 1.73958 0
M  V30 4198 C 389.683 -3.35123 0.34559 0
M  V30 4199 O 390.213 -3.97812 -0.557521 0
M  V30 4200 N 388.419 -2.89699 0.22864 0
M  V30 4201 H 387.966 -2.38863 0.964479 0
M  V30 4202 H 387.924 -3.08242 -0.619192 0
M  V30 4203 N 391.696 -1.35014 -0.812953 0
M  V30 4204 C 392.643 -1.27412 -1.92444 0
M  V30 4205 C 393.613 -0.14733 -1.65445 0
M  V30 4206 O 394.798 -0.329974 -1.87925 0
M  V30 4207 C 391.938 -1.04558 -3.28879 0
M  V30 4208 C 391.051 -2.26101 -3.68106 0
M  V30 4209 C 390.186 -1.96449 -4.9354 0
M  V30 4210 C 389.225 -3.14081 -5.25376 0
M  V30 4211 N 388.362 -2.84246 -6.41988 0
M  V30 4212 H 393.202 -2.22463 -1.98278 0
M  V30 4213 H 390.739 -1.10593 -0.969933 0
M  V30 4214 H 392.697 -0.893413 -4.07522 0
M  V30 4215 H 391.327 -0.131719 -3.22531 0
M  V30 4216 H 390.379 -2.52204 -2.84775 0
M  V30 4217 H 391.691 -3.13959 -3.87597 0
M  V30 4218 H 390.845 -1.78026 -5.79993 0
M  V30 4219 H 389.584 -1.05867 -4.76071 0
M  V30 4220 H 388.589 -3.33089 -4.37415 0
M  V30 4221 H 389.814 -4.05455 -5.44778 0
M  V30 4222 H 387.76 -1.96252 -6.25956 0
M  V30 4223 H 387.677 -3.65637 -6.61699 0
M  V30 4224 H 388.945 -2.6935 -7.31485 0
M  V30 4225 N 393.175 1.03435 -1.18907 0
M  V30 4226 C 394.586 1.58195 -0.991523 0
M  V30 4227 C 394.937 1.90801 0.457081 0
M  V30 4228 O 394.062 1.70272 1.33553 0
M  V30 4229 C 394.657 2.87432 -1.79355 0
M  V30 4230 C 393.216 3.38785 -1.64017 0
M  V30 4231 C 392.363 2.12292 -1.78402 0
M  V30 4232 H 395.314 0.860299 -1.33359 0
M  V30 4233 H 395.335 3.58096 -1.28638 0
M  V30 4234 H 394.847 2.63669 -2.84781 0
M  V30 4235 H 392.948 3.67547 -0.611536 0
M  V30 4236 H 393.061 4.12186 -2.44212 0
M  V30 4237 H 391.425 2.23901 -1.2141 0
M  V30 4238 H 392.208 1.90977 -2.85277 0
M  V30 4239 N 394.653 0.992116 1.22453 0
M  V30 4240 C 395.583 0.561677 2.26644 0
M  V30 4241 C 396.564 -0.411055 1.65059 0
M  V30 4242 O 397.749 -0.301861 1.9184 0
M  V30 4243 C 394.879 -0.125247 3.47074 0
M  V30 4244 C 393.833 0.765948 4.21091 0
M  V30 4245 C 393.159 -0.0538484 5.34673 0
M  V30 4246 C 394.459 2.06242 4.79856 0
M  V30 4247 H 396.153 1.43259 2.62902 0
M  V30 4248 H 393.699 0.690283 1.26377 0
M  V30 4249 H 395.652 -0.437764 4.1912 0
M  V30 4250 H 394.376 -1.03069 3.0991 0
M  V30 4251 H 393.035 1.0621 3.50878 0
M  V30 4252 H 392.683 -0.960188 4.9375 0
M  V30 4253 H 392.383 0.539415 5.85119 0
M  V30 4254 H 393.907 -0.360477 6.09535 0
M  V30 4255 H 395.321 1.8139 5.43848 0
M  V30 4256 H 393.718 2.60444 5.40638 0
M  V30 4257 H 394.788 2.74167 3.99951 0
M  V30 4258 N 396.131 -1.37776 0.765217 0
M  V30 4259 C 397.361 -2.03828 0.337277 0
M  V30 4260 C 397.769 -1.57841 -1.04321 0
M  V30 4261 O 397.112 -0.752043 -1.67601 0
M  V30 4262 C 397.174 -3.58292 0.294407 0
M  V30 4263 C 396.838 -4.27384 1.61838 0
M  V30 4264 C 397.835 -4.51956 2.56967 0
M  V30 4265 C 395.52 -4.65345 1.89102 0
M  V30 4266 C 397.514 -5.13536 3.77571 0
M  V30 4267 C 395.201 -5.26647 3.09978 0
M  V30 4268 C 396.199 -5.50679 4.04032 0
M  V30 4269 O 395.887 -6.10702 5.2278 0
M  V30 4270 H 395.619 -0.661292 0.140248 0
M  V30 4271 H 398.173 -1.77222 1.03834 0
M  V30 4272 H 396.403 -3.83918 -0.462983 0
M  V30 4273 H 398.092 -4.05763 -0.105581 0
M  V30 4274 H 398.858 -4.23048 2.37183 0
M  V30 4275 H 394.737 -4.45978 1.16725 0
M  V30 4276 H 398.281 -5.3221 4.50997 0
M  V30 4277 H 394.178 -5.54979 3.29649 0
M  V30 4278 H 394.946 -6.29183 5.23517 0
M  V30 4279 N 397.609 -0.515225 -1.4894 0
M  V30 4280 C 398.856 0.024215 -2.02486 0
M  V30 4281 C 399.184 1.35671 -1.39368 0
M  V30 4282 O 398.439 1.88566 -0.523574 0
M  V30 4283 C 398.738 0.210595 -3.56779 0
M  V30 4284 C 398.404 -1.04569 -4.38607 0
M  V30 4285 C 397.066 -1.39002 -4.60686 0
M  V30 4286 C 399.418 -1.88008 -4.86109 0
M  V30 4287 C 396.746 -2.568 -5.27514 0
M  V30 4288 C 399.098 -3.04972 -5.54234 0
M  V30 4289 C 397.762 -3.39768 -5.74555 0
M  V30 4290 H 397.032 0.00886088 -0.740947 0
M  V30 4291 H 399.679 -0.678263 -1.79086 0
M  V30 4292 H 397.984 0.99572 -3.78936 0
M  V30 4293 H 399.681 0.642659 -3.95817 0
M  V30 4294 H 396.271 -0.767497 -4.21672 0
M  V30 4295 H 400.455 -1.62719 -4.68867 0
M  V30 4296 H 395.711 -2.8398 -5.41447 0
M  V30 4297 H 399.885 -3.69943 -5.90013 0
M  V30 4298 H 397.512 -4.31148 -6.26112 0
M  V30 4299 N 399.087 1.5561 -0.249682 0
M  V30 4300 C 400.05 2.20217 0.635394 0
M  V30 4301 C 401.05 1.17227 1.10066 0
M  V30 4302 O 402.24 1.42292 1.00492 0
M  V30 4303 C 399.372 2.84794 1.87363 0
M  V30 4304 H 400.565 2.99814 0.0716752 0
M  V30 4305 H 398.118 1.563 -0.000153234 0
M  V30 4306 H 398.853 2.09142 2.47851 0
M  V30 4307 H 398.638 3.60241 1.5482 0
M  V30 4308 H 400.128 3.3423 2.5036 0
M  V30 4309 N 400.565 -0.0233959 1.57583 0
M  V30 4310 C 401.842 -0.748794 1.807 0
M  V30 4311 C 402.222 -1.9327 0.849106 0
M  V30 4312 O 401.57 -2.28247 -0.107468 0
M  V30 4313 C 401.78 -1.17651 3.28571 0
M  V30 4314 C 403.128 -1.59008 3.93702 0
M  V30 4315 O 404.152 -1.27094 3.32755 0
M  V30 4316 O 403.011 -2.18264 5.01022 0
M  V30 4317 H 400.105 -0.362578 0.743281 0
M  V30 4318 H 402.651 0.000261958 1.697 0
M  V30 4319 H 401.423 -0.331603 3.89892 0
M  V30 4320 H 401.046 -1.98541 3.44481 0
M  V30 4321 N 402.043 -1.548 -0.295768 0
M  V30 4322 C 403.459 -1.4613 -0.641722 0
M  V30 4323 C 403.659 -0.656771 -1.90496 0
M  V30 4324 O 402.715 -0.166547 -2.5195 0
M  V30 4325 C 404.028 -2.90141 -0.789852 0
M  V30 4326 C 405.576 -3.00216 -0.885396 0
M  V30 4327 C 406.051 -4.45434 -1.06548 0
M  V30 4328 N 407.542 -4.49166 -1.13156 0
M  V30 4329 C 408.277 -5.58717 -1.28929 0
M  V30 4330 N 407.773 -6.78182 -1.41567 0
M  V30 4331 N 409.566 -5.46415 -1.31859 0
M  V30 4332 H 401.717 -2.05574 0.534147 0
M  V30 4333 H 403.98 -0.931259 0.177372 0
M  V30 4334 H 403.686 -3.51635 0.0675598 0
M  V30 4335 H 403.56 -3.37859 -1.67724 0
M  V30 4336 H 405.947 -2.38833 -1.73329 0
M  V30 4337 H 406.028 -2.55787 0.0261185 0
M  V30 4338 H 405.672 -5.07413 -0.222335 0
M  V30 4339 H 405.602 -4.87499 -1.9913 0
M  V30 4340 H 408.093 -3.631 -1.04721 0
M  V30 4341 H 408.406 -7.57428 -1.53372 0
M  V30 4342 H 406.751 -6.81037 -1.38613 0
M  V30 4343 H 409.942 -4.5203 -1.21601 0
M  V30 4344 H 410.115 -6.31841 -1.43808 0
M  V30 4345 N 403.521 0.559213 -1.47345 0
M  V30 4346 C 404.451 1.67622 -1.62558 0
M  V30 4347 C 405.432 1.63331 -0.475087 0
M  V30 4348 O 406.617 1.80983 -0.704182 0
M  V30 4349 C 403.747 3.0626 -1.63774 0
M  V30 4350 C 402.701 3.25397 -2.7803 0
M  V30 4351 C 402.027 4.64801 -2.64318 0
M  V30 4352 C 403.327 3.10965 -4.19641 0
M  V30 4353 H 405.021 1.55146 -2.56067 0
M  V30 4354 H 402.567 0.744961 -1.23233 0
M  V30 4355 H 404.52 3.84247 -1.73008 0
M  V30 4356 H 403.244 3.1969 -0.66825 0
M  V30 4357 H 401.903 2.49817 -2.68304 0
M  V30 4358 H 401.551 4.75028 -1.65401 0
M  V30 4359 H 401.251 4.78555 -3.40968 0
M  V30 4360 H 402.775 5.44926 -2.75478 0
M  V30 4361 H 404.189 3.78772 -4.30354 0
M  V30 4362 H 402.586 3.36229 -4.97062 0
M  V30 4363 H 403.656 2.07736 -4.38148 0
M  V30 4364 N 404.999 1.35443 0.805782 0
M  V30 4365 C 406.229 1.31687 1.59192 0
M  V30 4366 C 406.637 -0.10756 1.88894 0
M  V30 4367 O 405.98 -1.07017 1.49309 0
M  V30 4368 C 406.042 2.05686 2.94845 0
M  V30 4369 C 405.706 3.54868 2.87954 0
M  V30 4370 C 406.703 4.49444 2.61335 0
M  V30 4371 C 404.388 3.97528 3.07046 0
M  V30 4372 C 406.382 5.84655 2.53885 0
M  V30 4373 C 404.069 5.32833 2.99219 0
M  V30 4374 C 405.067 6.26209 2.72674 0
M  V30 4375 O 404.755 7.59032 2.64811 0
M  V30 4376 H 404.487 0.453878 0.50097 0
M  V30 4377 H 407.041 1.78892 1.0093 0
M  V30 4378 H 405.271 1.5312 3.55093 0
M  V30 4379 H 406.96 1.94998 3.55993 0
M  V30 4380 H 407.726 4.17804 2.46303 0
M  V30 4381 H 403.605 3.25233 3.26718 0
M  V30 4382 H 407.149 6.57508 2.33086 0
M  V30 4383 H 403.046 5.64087 3.13809 0
M  V30 4384 H 403.814 7.68967 2.80413 0
M  V30 4385 N 406.477 -1.02803 1.19454 0
M  V30 4386 C 407.754 -1.73299 0.907013 0
M  V30 4387 C 408.134 -2.02772 -0.587086 0
M  V30 4388 O 407.482 -1.68304 -1.54551 0
M  V30 4389 C 407.692 -3.00912 1.76785 0
M  V30 4390 C 409.04 -3.74403 2.00268 0
M  V30 4391 O 410.064 -3.10841 1.73943 0
M  V30 4392 O 408.923 -4.88675 2.4466 0
M  V30 4393 H 406.017 -0.754727 0.338106 0
M  V30 4394 H 408.563 -1.08754 1.30271 0
M  V30 4395 H 407.335 -2.75366 2.7801 0
M  V30 4396 H 406.958 -3.73197 1.37149 0
M  V30 4397 N 407.956 -0.998596 -1.21925 0
M  V30 4398 C 409.181 -0.696015 -1.95372 0
M  V30 4399 C 409.606 0.733826 -1.73195 0
M  V30 4400 O 408.964 1.50242 -1.01474 0
M  V30 4401 C 409.012 -1.01466 -3.4603 0
M  V30 4402 O 408.116 -0.116415 -4.12236 0
M  V30 4403 H 407.457 -0.259938 -0.611006 0
M  V30 4404 H 409.987 -1.33711 -1.54863 0
M  V30 4405 H 409.997 -0.958855 -3.96573 0
M  V30 4406 H 408.672 -2.05653 -3.61497 0
M  V30 4407 H 407.249 -0.228193 -3.72201 0
M  V30 4408 N 409.434 1.37368 -0.772513 0
M  V30 4409 C 410.367 2.27956 -0.105593 0
M  V30 4410 C 411.345 1.46362 0.708295 0
M  V30 4411 O 412.529 1.75695 0.682895 0
M  V30 4412 C 409.656 3.27687 0.856686 0
M  V30 4413 C 408.702 4.26312 0.1267 0
M  V30 4414 S 409.535 5.22206 -1.1858 0
M  V30 4415 C 410.691 6.25488 -0.227081 0
M  V30 4416 H 410.924 2.84171 -0.87372 0
M  V30 4417 H 408.457 1.43654 -0.565939 0
M  V30 4418 H 410.415 3.85653 1.40648 0
M  V30 4419 H 409.076 2.70417 1.59793 0
M  V30 4420 H 408.269 4.96674 0.856212 0
M  V30 4421 H 407.871 3.72339 -0.352117 0
M  V30 4422 H 410.163 6.74836 0.600231 0
M  V30 4423 H 411.106 7.02371 -0.898899 0
M  V30 4424 H 411.514 5.64267 0.162053 0
M  V30 4425 N 410.912 0.523116 1.48665 0
M  V30 4426 C 411.859 -0.243398 2.29513 0
M  V30 4427 C 412.829 -0.940139 1.36933 0
M  V30 4428 O 414.014 -0.942503 1.65896 0
M  V30 4429 C 411.154 -1.28855 3.20141 0
M  V30 4430 C 410.267 -0.60135 4.27794 0
M  V30 4431 C 409.402 -1.62884 5.05611 0
M  V30 4432 C 408.441 -0.924726 6.05075 0
M  V30 4433 N 407.578 -1.89744 6.75975 0
M  V30 4434 H 412.418 0.452234 2.94549 0
M  V30 4435 H 409.955 0.234858 1.45213 0
M  V30 4436 H 411.913 -1.90674 3.71079 0
M  V30 4437 H 410.543 -1.95266 2.57043 0
M  V30 4438 H 409.595 0.130623 3.80176 0
M  V30 4439 H 410.907 -0.0481585 4.98777 0
M  V30 4440 H 410.061 -2.32149 5.60528 0
M  V30 4441 H 408.8 -2.21592 4.34452 0
M  V30 4442 H 407.805 -0.217966 5.49368 0
M  V30 4443 H 409.03 -0.343851 6.78229 0
M  V30 4444 H 406.976 -2.47373 6.07571 0
M  V30 4445 H 406.893 -1.3955 7.43009 0
M  V30 4446 H 408.161 -2.58229 7.35485 0
M  V30 4447 N 412.39 -1.55475 0.257931 0
M  V30 4448 C 413.638 -1.98813 -0.363009 0
M  V30 4449 C 413.959 -1.14757 -1.57657 0
M  V30 4450 O 413.229 -0.232956 -1.9451 0
M  V30 4451 H 411.809 -0.734308 -0.137113 0
M  V30 4452 H 414.471 -1.9156 0.359281 0
M  V30 4453 H 413.567 -3.04941 -0.664634 0
M  V30 4454 N 413.868 0.0150385 -1.57593 0
M  V30 4455 C 414.815 1.01126 -2.07466 0
M  V30 4456 C 415.785 1.35064 -0.966794 0
M  V30 4457 O 416.97 1.4516 -1.23827 0
M  V30 4458 C 414.11 2.30276 -2.57035 0
M  V30 4459 C 413.223 2.02373 -3.81666 0
M  V30 4460 C 412.358 3.25496 -4.19793 0
M  V30 4461 C 411.397 2.93211 -5.37303 0
M  V30 4462 N 410.534 4.08826 -5.70794 0
M  V30 4463 H 415.374 0.57901 -2.92321 0
M  V30 4464 H 412.911 0.27426 -1.44521 0
M  V30 4465 H 414.869 3.05757 -2.83846 0
M  V30 4466 H 413.499 2.71197 -1.75077 0
M  V30 4467 H 412.551 1.17327 -3.61854 0
M  V30 4468 H 413.863 1.74567 -4.67256 0
M  V30 4469 H 413.017 4.09333 -4.47807 0
M  V30 4470 H 411.756 3.56428 -3.32882 0
M  V30 4471 H 410.761 2.07777 -5.09027 0
M  V30 4472 H 411.986 2.63542 -6.25877 0
M  V30 4473 H 409.932 4.39682 -4.86842 0
M  V30 4474 H 409.849 3.84491 -6.50924 0
M  V30 4475 H 411.117 4.93496 -6.03392 0
M  V30 4476 N 415.346 1.54954 0.287554 0
M  V30 4477 C 416.594 1.74528 1.01904 0
M  V30 4478 C 416.915 0.541349 1.87335 0
M  V30 4479 O 416.185 -0.444108 1.908 0
M  V30 4480 H 414.765 0.643576 0.379235 0
M  V30 4481 H 417.427 1.92333 0.315294 0
M  V30 4482 H 416.523 2.64015 1.6644 0
M  V30 4483 N 416.824 -0.551391 1.4764 0
M  V30 4484 C 418.052 -1.33357 1.58189 0
M  V30 4485 C 418.467 -1.87342 0.234199 0
M  V30 4486 O 417.824 -1.65301 -0.77343 0
M  V30 4487 C 417.875 -2.49942 2.61173 0
M  V30 4488 O 417.596 -1.98187 3.90709 0
M  V30 4489 C 419.097 -3.42072 2.8196 0
M  V30 4490 H 416.317 -0.40631 0.533998 0
M  V30 4491 H 418.861 -0.667367 1.93304 0
M  V30 4492 H 417.016 -3.12489 2.28975 0
M  V30 4493 H 417.43 -2.74342 4.47031 0
M  V30 4494 H 418.904 -4.20278 3.57869 0
M  V30 4495 H 419.381 -3.95978 1.89995 0
M  V30 4496 H 419.987 -2.85336 3.15378 0
M  V30 4497 N 418.302 -1.35869 -0.798587 0
M  V30 4498 C 419.718 -1.16082 -1.09532 0
M  V30 4499 C 419.918 0.0213124 -2.01489 0
M  V30 4500 O 418.974 0.689488 -2.42904 0
M  V30 4501 C 420.287 -2.46748 -1.7186 0
M  V30 4502 C 421.835 -2.53028 -1.84244 0
M  V30 4503 C 422.31 -3.83758 -2.49988 0
M  V30 4504 N 423.801 -3.85053 -2.57465 0
M  V30 4505 C 424.536 -4.8294 -3.09122 0
M  V30 4506 N 424.032 -5.91217 -3.61157 0
M  V30 4507 N 425.825 -4.70369 -3.0775 0
M  V30 4508 H 417.976 -2.11571 -0.187461 0
M  V30 4509 H 420.239 -0.936726 -0.145765 0
M  V30 4510 H 419.945 -3.33471 -1.11759 0
M  V30 4511 H 419.819 -2.61883 -2.71472 0
M  V30 4512 H 422.206 -1.66729 -2.43486 0
M  V30 4513 H 422.287 -2.418 -0.834643 0
M  V30 4514 H 421.931 -4.70459 -1.91393 0
M  V30 4515 H 421.861 -3.92278 -3.5132 0
M  V30 4516 H 424.352 -3.06822 -2.20609 0
M  V30 4517 H 424.665 -6.61892 -3.98896 0
M  V30 4518 H 423.01 -5.94899 -3.59333 0
M  V30 4519 H 426.201 -3.84914 -2.66381 0
M  V30 4520 H 426.374 -5.46816 -3.47701 0
M  V30 4521 N 419.78 1.02168 -1.19998 0
M  V30 4522 C 421.057 1.72816 -0.916191 0
M  V30 4523 C 421.437 2.03081 0.576325 0
M  V30 4524 O 420.785 1.69122 1.53656 0
M  V30 4525 C 420.995 2.9997 -1.78378 0
M  V30 4526 C 422.343 3.73336 -2.02251 0
M  V30 4527 O 423.367 3.09914 -1.75589 0
M  V30 4528 O 422.226 4.87371 -2.47249 0
M  V30 4529 H 419.32 0.752924 -0.342103 0
M  V30 4530 H 421.866 1.08062 -1.30846 0
M  V30 4531 H 420.638 2.73888 -2.79466 0
M  V30 4532 H 420.261 3.72464 -1.39126 0
M  V30 4533 N 421.258 1.00505 1.21394 0
M  V30 4534 C 422.205 0.565496 2.23765 0
M  V30 4535 C 423.175 -0.408466 1.60999 0
M  V30 4536 O 424.36 -0.310503 1.88257 0
M  V30 4537 C 421.5 -0.101667 3.4495 0
M  V30 4538 C 420.613 0.915479 4.22188 0
M  V30 4539 C 419.748 0.220574 5.30742 0
M  V30 4540 C 418.787 1.22527 5.99711 0
M  V30 4541 N 417.924 0.557831 6.9988 0
M  V30 4542 H 422.764 1.44314 2.60725 0
M  V30 4543 H 420.301 0.722643 1.28126 0
M  V30 4544 H 422.259 -0.505504 4.14126 0
M  V30 4545 H 420.889 -0.94303 3.08718 0
M  V30 4546 H 419.941 1.43756 3.52191 0
M  V30 4547 H 421.253 1.68005 4.69655 0
M  V30 4548 H 420.407 -0.239368 6.06228 0
M  V30 4549 H 419.146 -0.576401 4.84282 0
M  V30 4550 H 418.151 1.69571 5.22997 0
M  V30 4551 H 419.376 2.02332 6.48258 0
M  V30 4552 H 417.322 -0.219486 6.55633 0
M  V30 4553 H 417.239 1.26065 7.45415 0
M  V30 4554 H 418.507 0.121095 7.79406 0
M  V30 4555 N 422.737 -1.36956 0.779787 0
M  V30 4556 C 423.983 -1.99787 0.348281 0
M  V30 4557 C 424.316 -1.61756 -1.07465 0
M  V30 4558 O 423.591 -0.867639 -1.74075 0
M  V30 4559 C 423.874 -3.56597 0.50104 0
M  V30 4560 C 423.727 -4.04513 1.96697 0
M  V30 4561 C 425.046 -4.40008 -0.0898097 0
M  V30 4562 H 422.165 -0.725796 0.128022 0
M  V30 4563 H 424.807 -1.62514 0.984331 0
M  V30 4564 H 422.957 -3.88479 -0.0404347 0
M  V30 4565 H 424.629 -3.83161 2.56876 0
M  V30 4566 H 422.872 -3.56408 2.47297 0
M  V30 4567 H 423.543 -5.1352 2.02486 0
M  V30 4568 H 426.019 -4.14431 0.372293 0
M  V30 4569 H 424.895 -5.4888 0.0471605 0
M  V30 4570 H 425.156 -4.26035 -1.18096 0
M  V30 4571 N 424.215 -0.530993 -1.48385 0
M  V30 4572 C 425.145 0.219985 -2.32461 0
M  V30 4573 C 426.126 0.934111 -1.42156 0
M  V30 4574 O 427.311 0.919694 -1.71042 0
M  V30 4575 C 424.441 1.26674 -3.23375 0
M  V30 4576 C 423.395 0.67069 -4.22712 0
M  V30 4577 C 422.721 1.82017 -5.02766 0
M  V30 4578 C 424.021 -0.358268 -5.2107 0
M  V30 4579 H 425.715 -0.48187 -2.95497 0
M  V30 4580 H 423.261 -0.233182 -1.42099 0
M  V30 4581 H 425.214 1.80006 -3.81019 0
M  V30 4582 H 423.938 1.99818 -2.58341 0
M  V30 4583 H 422.597 0.158878 -3.66256 0
M  V30 4584 H 422.245 2.54002 -4.34157 0
M  V30 4585 H 421.945 1.42727 -5.70003 0
M  V30 4586 H 423.469 2.35725 -5.63264 0
M  V30 4587 H 424.883 0.0880081 -5.73232 0
M  V30 4588 H 423.28 -0.66861 -5.96364 0
M  V30 4589 H 424.35 -1.26367 -4.68145 0
M  V30 4590 N 425.693 1.55336 -0.266172 0
M  V30 4591 C 426.942 1.98574 0.353749 0
M  V30 4592 C 427.255 1.15789 1.57646 0
M  V30 4593 O 428.461 1.49129 2.26876 0
M  V30 4594 C 426.917 3.53403 0.680747 0
M  V30 4595 C 426.525 4.44953 -0.52165 0
M  V30 4596 C 428.269 4.05251 1.26379 0
M  V30 4597 C 426.176 5.91156 -0.169736 0
M  V30 4598 H 425.106 0.741643 0.135949 0
M  V30 4599 H 427.757 1.79743 -0.369421 0
M  V30 4600 H 426.139 3.68001 1.46257 0
M  V30 4601 H 427.313 4.42121 -1.29869 0
M  V30 4602 H 425.628 4.03691 -1.02093 0
M  V30 4603 H 428.225 5.12021 1.54074 0
M  V30 4604 H 428.568 3.53749 2.19471 0
M  V30 4605 H 429.101 3.94057 0.544447 0
M  V30 4606 H 425.84 6.46736 -1.0683 0
M  V30 4607 H 425.36 5.97079 0.570717 0
M  V30 4608 H 427.039 6.4655 0.241245 0
M  V30 4609 N 427.171 -0.0066808 1.57599 0
M  V30 4610 C 428.587 -0.36267 1.55425 0
M  V30 4611 C 428.787 -1.75209 0.995187 0
M  V30 4612 O 427.843 -2.44616 0.626058 0
M  V30 4613 C 429.156 -0.244017 2.99708 0
M  V30 4614 C 430.704 -0.319451 3.11366 0
M  V30 4615 C 431.179 -0.229998 4.57422 0
M  V30 4616 N 432.67 -0.288105 4.62303 0
M  V30 4617 C 433.405 -0.242127 5.72889 0
M  V30 4618 N 432.901 -0.147133 6.92644 0
M  V30 4619 N 434.694 -0.293502 5.61333 0
M  V30 4620 H 426.845 0.902314 1.92281 0
M  V30 4621 H 429.108 0.34525 0.882896 0
M  V30 4622 H 428.814 0.711678 3.44424 0
M  V30 4623 H 428.688 -1.02877 3.629 0
M  V30 4624 H 431.075 -1.26559 2.66584 0
M  V30 4625 H 431.156 0.495055 2.50964 0
M  V30 4626 H 430.8 0.712566 5.02877 0
M  V30 4627 H 430.73 -1.0629 5.15761 0
M  V30 4628 H 433.221 -0.363126 3.76151 0
M  V30 4629 H 433.534 -0.117763 7.7271 0
M  V30 4630 H 431.879 -0.112857 6.94908 0
M  V30 4631 H 435.07 -0.365864 4.66668 0
M  V30 4632 H 435.243 -0.254204 6.47501 0
M  V30 4633 N 428.649 -1.55105 -0.279332 0
M  V30 4634 C 429.898 -1.74618 -1.00952 0
M  V30 4635 C 430.211 -0.551096 -1.87676 0
M  V30 4636 O 431.417 -0.628507 -2.64125 0
M  V30 4637 C 429.873 -3.09025 -1.84476 0
M  V30 4638 C 429.481 -4.36081 -1.0265 0
M  V30 4639 C 431.225 -3.37891 -2.56963 0
M  V30 4640 C 429.132 -5.6153 -1.85576 0
M  V30 4641 H 428.062 -0.650868 -0.38064 0
M  V30 4642 H 430.713 -1.81569 -0.265475 0
M  V30 4643 H 429.095 -2.96095 -2.62952 0
M  V30 4644 H 430.269 -4.59909 -0.286354 0
M  V30 4645 H 428.584 -4.14312 -0.416464 0
M  V30 4646 H 431.181 -4.28822 -3.19399 0
M  V30 4647 H 431.524 -2.57737 -3.26921 0
M  V30 4648 H 432.057 -3.5189 -1.85522 0
M  V30 4649 H 428.796 -6.44413 -1.2005 0
M  V30 4650 H 428.316 -5.41854 -2.57204 0
M  V30 4651 H 429.995 -5.99594 -2.43096 0
M  V30 4652 N 430.127 0.543554 -1.4793 0
M  V30 4653 C 431.06 1.66556 -1.55995 0
M  V30 4654 C 432.038 1.57315 -0.411205 0
M  V30 4655 O 433.222 1.7798 -0.620922 0
M  V30 4656 C 430.349 3.04883 -1.47527 0
M  V30 4657 C 429.395 3.32526 -2.67074 0
M  V30 4658 S 430.228 3.20282 -4.29162 0
M  V30 4659 C 431.384 4.61079 -4.23269 0
M  V30 4660 H 431.617 1.59462 -2.50917 0
M  V30 4661 H 429.15 0.725456 -1.36296 0
M  V30 4662 H 431.108 3.84665 -1.43328 0
M  V30 4663 H 429.769 3.09429 -0.539665 0
M  V30 4664 H 428.962 4.33403 -2.5725 0
M  V30 4665 H 428.564 2.60389 -2.68466 0
M  V30 4666 H 430.856 5.52318 -3.92365 0
M  V30 4667 H 431.799 4.75959 -5.24279 0
M  V30 4668 H 432.207 4.39766 -3.5393 0
M  V30 4669 N 431.605 1.3629 0.791371 0
M  V30 4670 C 432.851 1.30605 1.55146 0
M  V30 4671 C 433.184 -0.115042 1.93859 0
M  V30 4672 O 432.459 -1.06798 1.62556 0
M  V30 4673 C 432.742 2.22692 2.82985 0
M  V30 4674 C 432.595 3.73489 2.50651 0
M  V30 4675 C 433.914 2.13588 3.84796 0
M  V30 4676 H 431.033 0.475761 0.562868 0
M  V30 4677 H 433.675 1.66825 0.909358 0
M  V30 4678 H 431.825 1.91933 3.37778 0
M  V30 4679 H 433.497 4.14758 2.01924 0
M  V30 4680 H 431.74 3.93021 1.83622 0
M  V30 4681 H 432.411 4.3333 3.41949 0
M  V30 4682 H 434.887 2.40659 3.39445 0
M  V30 4683 H 433.763 2.80195 4.71998 0
M  V30 4684 H 434.024 1.12256 4.27611 0
M  V30 4685 N 433.083 -1.0153 1.20538 0
M  V30 4686 C 434.308 -1.79283 1.04271 0
M  V30 4687 C 434.733 -1.8372 -0.403544 0
M  V30 4688 O 434.091 -1.27321 -1.2907 0
M  V30 4689 C 434.139 -3.21535 1.63241 0
M  V30 4690 O 433.243 -4.03099 0.870908 0
M  V30 4691 H 432.584 -0.55293 0.367647 0
M  V30 4692 H 435.114 -1.27696 1.59859 0
M  V30 4693 H 435.124 -3.72243 1.6703 0
M  V30 4694 H 433.799 -3.1762 2.68497 0
M  V30 4695 H 432.376 -3.61693 0.907323 0
M  V30 4696 N 434.561 -1.01147 -1.20859 0
M  V30 4697 C 435.977 -0.725422 -1.42161 0
M  V30 4698 C 436.177 0.696919 -1.89064 0
M  V30 4699 O 435.233 1.46539 -2.05627 0
M  V30 4700 C 436.546 -1.74678 -2.44761 0
M  V30 4701 C 438.094 -1.76433 -2.58535 0
M  V30 4702 C 438.569 -2.77481 -3.64374 0
M  V30 4703 N 440.06 -2.76189 -3.71852 0
M  V30 4704 C 440.795 -3.51035 -4.53389 0
M  V30 4705 N 440.291 -4.35541 -5.38773 0
M  V30 4706 N 442.084 -3.39655 -4.47873 0
M  V30 4707 H 434.235 -1.92979 -0.887282 0
M  V30 4708 H 436.498 -0.833327 -0.451962 0
M  V30 4709 H 436.204 -2.76551 -2.17285 0
M  V30 4710 H 436.078 -1.55472 -3.43669 0
M  V30 4711 H 438.465 -0.75248 -2.85345 0
M  V30 4712 H 438.546 -1.99712 -1.5984 0
M  V30 4713 H 438.19 -3.78827 -3.38308 0
M  V30 4714 H 438.12 -2.51466 -4.6268 0
M  V30 4715 H 440.611 -2.14885 -3.10858 0
M  V30 4716 H 440.924 -4.89432 -5.98061 0
M  V30 4717 H 439.269 -4.39621 -5.38292 0
M  V30 4718 H 442.46 -2.73063 -3.80203 0
M  V30 4719 H 442.633 -3.9824 -5.11184 0
M  V30 4720 N 436.039 1.36541 -0.78704 0
M  V30 4721 C 437.264 2.0409 -0.369053 0
M  V30 4722 C 437.689 1.58957 1.00569 0
M  V30 4723 O 437.047 0.756926 1.64743 0
M  V30 4724 C 437.095 3.57924 -0.438466 0
M  V30 4725 O 436.199 4.08642 0.555479 0
M  V30 4726 H 435.54 0.645142 -0.157122 0
M  V30 4727 H 438.07 1.74545 -1.06749 0
M  V30 4728 H 438.08 4.06887 -0.301218 0
M  V30 4729 H 436.755 3.90127 -1.44132 0
M  V30 4730 H 435.332 3.70958 0.380088 0
M  V30 4731 N 437.518 0.538854 1.48102 0
M  V30 4732 C 438.428 -0.222648 2.33541 0
M  V30 4733 C 439.444 -0.930225 1.47047 0
M  V30 4734 O 440.62 -0.903211 1.80011 0
M  V30 4735 C 437.685 -1.25064 3.23357 0
M  V30 4736 C 436.746 -0.552469 4.2573 0
M  V30 4737 C 435.979 -1.53149 5.11254 0
M  V30 4738 O 436.202 -2.76487 4.9891 0
M  V30 4739 O 435.136 -1.06602 5.92385 0
M  V30 4740 H 438.962 0.477707 2.99919 0
M  V30 4741 H 436.547 0.299669 1.46364 0
M  V30 4742 H 438.429 -1.8445 3.78888 0
M  V30 4743 H 437.104 -1.93325 2.59629 0
M  V30 4744 H 436.011 0.082114 3.7401 0
M  V30 4745 H 437.344 0.0883526 4.92121 0
M  V30 4746 N 438.996 -1.55193 0.274407 0
M  V30 4747 C 440.242 -1.99877 -0.343086 0
M  V30 4748 C 440.575 -1.16256 -1.55558 0
M  V30 4749 O 439.85 -0.232462 -1.93106 0
M  V30 4750 C 440.133 -3.52706 -0.725965 0
M  V30 4751 C 439.986 -4.47081 0.493818 0
M  V30 4752 C 441.305 -4.11422 -1.56268 0
M  V30 4753 H 438.424 -0.726625 -0.123229 0
M  V30 4754 H 441.066 -1.86136 0.38121 0
M  V30 4755 H 439.216 -3.64546 -1.34307 0
M  V30 4756 H 440.888 -4.47186 1.13237 0
M  V30 4757 H 439.131 -4.1877 1.13201 0
M  V30 4758 H 439.802 -5.51699 0.18217 0
M  V30 4759 H 442.278 -4.02855 -1.04151 0
M  V30 4760 H 441.154 -5.18568 -1.79939 0
M  V30 4761 H 441.415 -3.61607 -2.54348 0
M  V30 4762 N 440.474 -0.00167713 -1.576 0
M  V30 4763 C 441.751 0.719951 -1.81868 0
M  V30 4764 C 442.131 1.91895 -0.879747 0
M  V30 4765 O 441.479 2.28389 0.0711423 0
M  V30 4766 C 441.689 1.12409 -3.30402 0
M  V30 4767 C 443.037 1.52724 -3.96182 0
M  V30 4768 O 444.061 1.21784 -3.34734 0
M  V30 4769 O 442.92 2.10265 -5.04431 0
M  V30 4770 H 440.014 0.350707 -0.748955 0
M  V30 4771 H 442.56 -0.0272597 -1.69678 0
M  V30 4772 H 441.332 0.269532 -3.90371 0
M  V30 4773 H 440.955 1.93035 -3.47596 0
M  V30 4774 N 441.952 1.55251 0.271103 0
M  V30 4775 C 442.885 1.83191 1.36075 0
M  V30 4776 C 443.863 0.685091 1.47463 0
M  V30 4777 O 445.047 0.928292 1.64058 0
M  V30 4778 C 442.174 1.99521 2.73696 0
M  V30 4779 C 441.22 3.22081 2.79582 0
M  V30 4780 S 442.053 4.79388 2.38636 0
M  V30 4781 C 443.209 4.98693 3.78228 0
M  V30 4782 H 443.442 2.75327 1.12171 0
M  V30 4783 H 440.975 1.47046 0.470833 0
M  V30 4784 H 442.933 2.09613 3.52948 0
M  V30 4785 H 441.594 1.0827 2.9485 0
M  V30 4786 H 440.787 3.304 3.80594 0
M  V30 4787 H 440.389 3.10589 2.08352 0
M  V30 4788 H 442.681 4.84551 4.73515 0
M  V30 4789 H 443.624 6.00738 3.7486 0
M  V30 4790 H 444.032 4.26665 3.69618 0
M  V30 4791 N 443.43 -0.535701 1.48216 0
M  V30 4792 C 444.36 -1.65014 1.65204 0
M  V30 4793 C 445.341 -1.62554 0.501011 0
M  V30 4794 O 446.526 -1.7984 0.732886 0
M  V30 4795 C 443.656 -3.03616 1.68626 0
M  V30 4796 C 442.61 -3.20932 2.83172 0
M  V30 4797 C 441.936 -4.60537 2.71679 0
M  V30 4798 C 443.236 -3.04249 4.24535 0
M  V30 4799 H 444.93 -1.51053 2.58502 0
M  V30 4800 H 442.476 -0.725262 1.24402 0
M  V30 4801 H 444.429 -3.81446 1.79099 0
M  V30 4802 H 443.153 -3.18587 0.719026 0
M  V30 4803 H 441.812 -2.45517 2.72244 0
M  V30 4804 H 441.46 -4.72336 1.72937 0
M  V30 4805 H 441.16 -4.73069 3.48538 0
M  V30 4806 H 442.684 -5.40475 2.84112 0
M  V30 4807 H 444.098 -3.71877 4.36326 0
M  V30 4808 H 442.495 -3.28278 5.02348 0
M  V30 4809 H 443.565 -2.00739 4.41397 0
M  V30 4810 N 444.908 -1.36708 -0.784132 0
M  V30 4811 C 445.855 -1.31466 -1.89698 0
M  V30 4812 C 446.825 -0.18239 -1.65096 0
M  V30 4813 O 448.01 -0.369762 -1.87183 0
M  V30 4814 C 445.15 -1.1151 -3.26588 0
M  V30 4815 C 444.263 -2.33859 -3.63227 0
M  V30 4816 C 443.398 -2.06873 -4.89262 0
M  V30 4817 C 442.437 -3.25154 -5.18595 0
M  V30 4818 N 441.574 -2.978 -6.35814 0
M  V30 4819 H 446.414 -2.26619 -1.93515 0
M  V30 4820 H 443.951 -1.12625 -0.946256 0
M  V30 4821 H 445.909 -0.979653 -4.05535 0
M  V30 4822 H 444.539 -0.200103 -3.22179 0
M  V30 4823 H 443.591 -2.58188 -2.79362 0
M  V30 4824 H 444.903 -3.22109 -3.8085 0
M  V30 4825 H 444.057 -1.90289 -5.76086 0
M  V30 4826 H 442.796 -1.15942 -4.73718 0
M  V30 4827 H 441.801 -3.42292 -4.30251 0
M  V30 4828 H 443.026 -4.1692 -5.36055 0
M  V30 4829 H 440.972 -2.09485 -6.21653 0
M  V30 4830 H 440.889 -3.7959 -6.53794 0
M  V30 4831 H 442.157 -2.84805 -7.25607 0
M  V30 4832 N 446.386 1.0089 -1.21074 0
M  V30 4833 C 447.635 1.74019 -1.01981 0
M  V30 4834 C 447.948 1.90408 0.447665 0
M  V30 4835 O 449.154 2.60707 0.757906 0
M  V30 4836 C 447.61 3.13026 -1.77603 0
M  V30 4837 C 447.218 3.04623 -3.28495 0
M  V30 4838 C 448.962 3.90312 -1.66904 0
M  V30 4839 C 446.869 4.38685 -3.96623 0
M  V30 4840 H 445.799 0.652422 -0.377971 0
M  V30 4841 H 448.45 1.12755 -1.44771 0
M  V30 4842 H 446.832 3.74878 -1.27604 0
M  V30 4843 H 448.006 2.52032 -3.85767 0
M  V30 4844 H 446.321 2.40827 -3.39693 0
M  V30 4845 H 448.918 4.8951 -2.15138 0
M  V30 4846 H 449.261 4.11558 -0.62658 0
M  V30 4847 H 449.794 3.35104 -2.14359 0
M  V30 4848 H 446.533 4.22641 -5.01054 0
M  V30 4849 H 446.053 4.91252 -3.4414 0
M  V30 4850 H 447.732 5.075 -4.01314 0
M  V30 4851 N 447.864 1.01787 1.20321 0
M  V30 4852 C 449.28 0.732951 1.41774 0
M  V30 4853 C 449.48 -0.686883 1.89431 0
M  V30 4854 O 448.536 -1.45446 2.06402 0
M  V30 4855 C 449.849 1.75973 2.43832 0
M  V30 4856 C 451.397 1.77802 2.57596 0
M  V30 4857 C 451.872 2.7941 3.62897 0
M  V30 4858 N 453.363 2.78157 3.70382 0
M  V30 4859 C 454.098 3.53434 4.51521 0
M  V30 4860 N 453.594 4.38392 5.36455 0
M  V30 4861 N 455.387 3.42026 4.46066 0
M  V30 4862 H 447.538 1.93447 0.877035 0
M  V30 4863 H 449.801 0.835712 0.447536 0
M  V30 4864 H 449.507 2.77699 2.15815 0
M  V30 4865 H 449.381 1.57292 3.4284 0
M  V30 4866 H 451.768 0.767602 2.84942 0
M  V30 4867 H 451.849 2.00557 1.58779 0
M  V30 4868 H 451.493 3.80616 3.36295 0
M  V30 4869 H 451.423 2.53916 4.61339 0
M  V30 4870 H 453.914 2.16531 3.09714 0
M  V30 4871 H 454.227 4.92596 5.95457 0
M  V30 4872 H 452.572 4.4247 5.35953 0
M  V30 4873 H 455.763 2.75075 3.78749 0
M  V30 4874 H 455.936 4.00946 5.09064 0
M  V30 4875 N 449.342 -1.36122 0.79427 0
M  V30 4876 C 450.567 -2.03891 0.379871 0
M  V30 4877 C 450.992 -1.59488 -0.997251 0
M  V30 4878 O 450.35 -0.765652 -1.64339 0
M  V30 4879 C 450.398 -3.57687 0.457442 0
M  V30 4880 O 449.502 -4.08931 -0.5338 0
M  V30 4881 H 448.843 -0.6443 0.160541 0
M  V30 4882 H 451.373 -1.73976 1.07673 0
M  V30 4883 H 451.383 -4.06721 0.322792 0
M  V30 4884 H 450.058 -3.89357 1.46199 0
M  V30 4885 H 448.635 -3.71154 -0.360409 0
M  V30 4886 N 450.82 -0.546701 -1.47814 0
M  V30 4887 C 451.73 0.21026 -2.33656 0
M  V30 4888 C 452.746 0.922413 -1.47538 0
M  V30 4889 O 453.922 0.893652 -1.80488 0
M  V30 4890 C 450.987 1.23348 -3.24016 0
M  V30 4891 C 450.048 0.529883 -4.26017 0
M  V30 4892 C 449.281 1.50435 -5.12059 0
M  V30 4893 O 449.504 2.73837 -5.00369 0
M  V30 4894 O 448.438 1.03459 -5.92942 0
M  V30 4895 H 452.264 -0.493605 -2.99662 0
M  V30 4896 H 449.849 -0.307427 -1.46203 0
M  V30 4897 H 451.731 1.82438 -3.79861 0
M  V30 4898 H 450.406 1.91945 -2.60651 0
M  V30 4899 H 449.313 -0.101948 -3.73961 0
M  V30 4900 H 450.646 -0.11445 -4.92067 0
M  V30 4901 N 452.299 1.55045 -0.282633 0
M  V30 4902 C 453.546 1.9976 0.33199 0
M  V30 4903 C 453.874 1.17105 1.55295 0
M  V30 4904 O 453.129 0.230599 1.94337 0
M  V30 4905 C 453.428 3.49422 0.750938 0
M  V30 4906 C 453.094 4.4941 -0.366228 0
M  V30 4907 C 451.756 4.76471 -0.672964 0
M  V30 4908 C 454.108 5.09054 -1.11864 0
M  V30 4909 C 451.436 5.60442 -1.73556 0
M  V30 4910 C 453.788 5.9418 -2.17102 0
M  V30 4911 C 452.452 6.19558 -2.48402 0
M  V30 4912 H 451.722 0.730974 0.121484 0
M  V30 4913 H 454.369 1.8732 -0.39791 0
M  V30 4914 H 452.674 3.59377 1.56063 0
M  V30 4915 H 454.371 3.81432 1.23736 0
M  V30 4916 H 450.961 4.2844 -0.117041 0
M  V30 4917 H 455.145 4.88165 -0.894925 0
M  V30 4918 H 450.401 5.78349 -1.983 0
M  V30 4919 H 454.575 6.39427 -2.75873 0
M  V30 4920 H 452.202 6.84417 -3.30874 0
M  V30 4921 N 453.777 0.010035 1.57597 0
M  V30 4922 C 454.724 -0.978122 2.09049 0
M  V30 4923 C 455.694 -1.33509 0.988159 0
M  V30 4924 O 456.879 -1.43172 1.26121 0
M  V30 4925 C 454.019 -2.26158 2.60666 0
M  V30 4926 C 453.132 -1.96275 3.84838 0
M  V30 4927 C 452.267 -3.18776 4.24918 0
M  V30 4928 C 451.306 -2.84625 5.41899 0
M  V30 4929 N 450.443 -3.99693 5.77226 0
M  V30 4930 H 455.283 -0.532431 2.93205 0
M  V30 4931 H 452.82 -0.251234 1.44939 0
M  V30 4932 H 454.778 -3.01202 2.88675 0
M  V30 4933 H 453.408 -2.68378 1.79369 0
M  V30 4934 H 452.46 -1.11555 3.63675 0
M  V30 4935 H 453.772 -1.67111 4.69974 0
M  V30 4936 H 452.926 -4.02157 4.54262 0
M  V30 4937 H 451.665 -3.51087 3.38511 0
M  V30 4938 H 450.67 -1.99653 5.12268 0
M  V30 4939 H 451.895 -2.53551 6.29991 0
M  V30 4940 H 449.841 -4.31882 4.93776 0
M  V30 4941 H 449.758 -3.74087 6.56959 0
M  V30 4942 H 451.026 -4.83834 6.11167 0
M  V30 4943 N 455.255 -1.55392 -0.262866 0
M  V30 4944 C 456.671 -1.47459 -0.610582 0
M  V30 4945 C 456.871 -0.697031 -1.8906 0
M  V30 4946 O 455.927 -0.219952 -2.5154 0
M  V30 4947 C 457.24 -2.91751 -0.728131 0
M  V30 4948 C 458.788 -3.02027 -0.821517 0
M  V30 4949 C 459.263 -4.47594 -0.97076 0
M  V30 4950 N 460.754 -4.51465 -1.03603 0
M  V30 4951 C 461.489 -5.61326 -1.17049 0
M  V30 4952 N 460.985 -6.81032 -1.2715 0
M  V30 4953 N 462.778 -5.49089 -1.20239 0
M  V30 4954 H 454.929 -2.04395 0.577632 0
M  V30 4955 H 457.192 -0.927287 0.197086 0
M  V30 4956 H 456.898 -3.51413 0.142132 0
M  V30 4957 H 456.772 -3.4134 -1.6052 0
M  V30 4958 H 459.159 -2.42456 -1.68224 0
M  V30 4959 H 459.24 -2.55674 0.0803688 0
M  V30 4960 H 458.884 -5.07771 -0.114655 0
M  V30 4961 H 458.814 -4.91613 -1.88745 0
M  V30 4962 H 461.305 -3.6524 -0.96996 0
M  V30 4963 H 461.618 -7.60511 -1.37271 0
M  V30 4964 H 459.963 -6.83824 -1.24136 0
M  V30 4965 H 463.154 -4.54507 -1.11985 0
M  V30 4966 H 463.327 -6.34749 -1.30373 0
M  V30 4967 N 456.733 0.527833 -1.48498 0
M  V30 4968 C 457.68 1.6322 -1.6318 0
M  V30 4969 C 458.65 1.59199 -0.473815 0
M  V30 4970 O 459.835 1.77591 -0.697563 0
M  V30 4971 C 456.975 3.01474 -1.67951 0
M  V30 4972 C 456.088 3.15713 -2.94871 0
M  V30 4973 C 455.223 4.44539 -2.90789 0
M  V30 4974 C 454.262 4.52315 -4.12404 0
M  V30 4975 N 453.399 5.72533 -4.06387 0
M  V30 4976 H 458.239 1.50011 -2.57489 0
M  V30 4977 H 455.776 0.730298 -1.27691 0
M  V30 4978 H 457.734 3.81572 -1.68698 0
M  V30 4979 H 456.364 3.1345 -0.771306 0
M  V30 4980 H 455.416 2.28854 -3.03859 0
M  V30 4981 H 456.728 3.1732 -3.8485 0
M  V30 4982 H 455.882 5.3293 -2.89949 0
M  V30 4983 H 454.621 4.45457 -1.98542 0
M  V30 4984 H 453.626 3.62331 -4.13517 0
M  V30 4985 H 454.851 4.53134 -5.05812 0
M  V30 4986 H 452.797 5.74344 -3.16962 0
M  V30 4987 H 452.714 5.75643 -4.90073 0
M  V30 4988 H 453.982 6.63204 -4.0961 0
M  V30 4989 N 458.211 1.37122 0.776871 0
M  V30 4990 C 459.441 1.35034 1.56363 0
M  V30 4991 C 459.849 -0.0674681 1.8908 0
M  V30 4992 O 459.192 -1.03826 1.51545 0
M  V30 4993 C 459.254 2.11894 2.90415 0
M  V30 4994 C 458.918 3.60897 2.80362 0
M  V30 4995 C 459.915 4.54887 2.51742 0
M  V30 4996 C 457.6 4.03951 2.98545 0
M  V30 4997 C 459.594 5.89909 2.41426 0
M  V30 4998 C 457.281 5.3906 2.87849 0
M  V30 4999 C 458.279 6.31852 2.5933 0
M  V30 5000 O 457.967 7.64479 2.48651 0
M  V30 5001 H 457.699 0.464402 0.49123 0
M  V30 5002 H 460.253 1.80992 0.971127 0
M  V30 5003 H 458.483 1.60618 3.51765 0
M  V30 5004 H 460.172 2.02505 3.51776 0
M  V30 5005 H 460.938 4.22934 2.37385 0
M  V30 5006 H 456.817 3.3209 3.19746 0
M  V30 5007 H 460.361 6.62304 2.19086 0
M  V30 5008 H 456.258 5.70617 3.01773 0
M  V30 5009 H 457.026 7.74742 2.64039 0
M  V30 5010 N 459.689 -1.00246 1.21608 0
M  V30 5011 C 460.937 -1.73717 1.0328 0
M  V30 5012 C 461.258 -1.90102 -0.434318 0
M  V30 5013 O 460.528 -1.45376 -1.31311 0
M  V30 5014 H 459.108 -0.643613 0.379172 0
M  V30 5015 H 461.77 -1.20787 1.52959 0
M  V30 5016 H 460.866 -2.73535 1.50283 0
M  V30 5017 N 461.167 -1.02423 -1.1978 0
M  V30 5018 C 462.114 -0.601023 -2.22837 0
M  V30 5019 C 463.084 0.382801 -1.61629 0
M  V30 5020 O 464.269 0.280514 -1.88727 0
M  V30 5021 C 461.409 0.0467755 -3.45068 0
M  V30 5022 C 460.522 -0.98253 -4.20678 0
M  V30 5023 C 459.657 -0.304982 -5.30324 0
M  V30 5024 C 458.696 -1.32052 -5.97686 0
M  V30 5025 N 457.833 -0.669105 -6.98904 0
M  V30 5026 H 462.673 -1.48444 -2.58396 0
M  V30 5027 H 460.21 -0.742936 -1.2696 0
M  V30 5028 H 462.168 0.439556 -4.14878 0
M  V30 5029 H 460.798 0.893796 -3.10179 0
M  V30 5030 H 459.85 -1.49341 -3.49859 0
M  V30 5031 H 461.162 -1.75455 -4.66923 0
M  V30 5032 H 460.316 0.142893 -6.06532 0
M  V30 5033 H 459.055 0.499283 -4.85138 0
M  V30 5034 H 458.06 -1.7787 -5.20233 0
M  V30 5035 H 459.285 -2.1262 -6.44957 0
M  V30 5036 H 457.231 0.115152 -6.55899 0
M  V30 5037 H 457.148 -1.37908 -7.43315 0
M  V30 5038 H 458.416 -0.245076 -7.79115 0
M  V30 5039 N 462.645 1.35699 -0.801477 0
M  V30 5040 C 463.87 2.03687 -0.390678 0
M  V30 5041 C 464.295 1.60015 0.988778 0
M  V30 5042 O 463.653 0.774357 1.63931 0
M  V30 5043 C 463.701 3.57439 -0.476404 0
M  V30 5044 O 462.805 4.09208 0.512106 0
M  V30 5045 H 462.146 0.64344 -0.163956 0
M  V30 5046 H 464.676 1.73403 -1.08594 0
M  V30 5047 H 464.686 4.06544 -0.344357 0
M  V30 5048 H 463.361 3.88576 -1.48262 0
M  V30 5049 H 461.938 3.7134 0.340721 0
M  V30 5050 N 464.123 0.554532 1.47522 0
M  V30 5051 C 465.053 -0.182974 2.32782 0
M  V30 5052 C 466.034 -0.911377 1.43624 0
M  V30 5053 O 467.219 -0.892366 1.72483 0
M  V30 5054 C 464.349 -1.21513 3.25349 0
M  V30 5055 C 463.303 -0.603355 4.23726 0
M  V30 5056 C 462.629 -1.73995 5.05598 0
M  V30 5057 C 463.929 0.441121 5.20434 0
M  V30 5058 H 465.623 0.52882 2.94693 0
M  V30 5059 H 463.169 0.255759 1.41711 0
M  V30 5060 H 465.122 -1.73922 3.83835 0
M  V30 5061 H 463.846 -1.95683 2.61487 0
M  V30 5062 H 462.505 -0.10059 3.66462 0
M  V30 5063 H 462.153 -2.47063 4.38143 0
M  V30 5064 H 461.853 -1.3364 5.72201 0
M  V30 5065 H 463.377 -2.26735 5.66942 0
M  V30 5066 H 464.791 0.00319931 5.733 0
M  V30 5067 H 463.188 0.763402 5.95224 0
M  V30 5068 H 464.258 1.33799 4.66075 0
M  V30 5069 N 465.601 -1.54893 0.290851 0
M  V30 5070 C 466.831 -2.04047 -0.323818 0
M  V30 5071 C 467.239 -1.16809 -1.48837 0
M  V30 5072 O 466.582 -0.184145 -1.82775 0
M  V30 5073 C 466.644 -3.49248 -0.852395 0
M  V30 5074 C 466.308 -4.56623 0.185557 0
M  V30 5075 C 467.305 -5.09985 1.01053 0
M  V30 5076 C 464.99 -5.01252 0.324332 0
M  V30 5077 C 466.984 -6.06507 1.96031 0
M  V30 5078 C 464.671 -5.97596 1.27757 0
M  V30 5079 C 465.669 -6.50107 2.09405 0
M  V30 5080 O 465.357 -7.44565 3.03114 0
M  V30 5081 H 465.089 -0.671735 -0.0758129 0
M  V30 5082 H 467.643 -2.00947 0.425393 0
M  V30 5083 H 465.873 -3.49639 -1.65195 0
M  V30 5084 H 467.562 -3.81654 -1.38185 0
M  V30 5085 H 468.328 -4.76307 0.914129 0
M  V30 5086 H 464.207 -4.60015 -0.301213 0
M  V30 5087 H 467.751 -6.47418 2.598 0
M  V30 5088 H 463.648 -6.30691 1.37473 0
M  V30 5089 H 464.416 -7.62334 2.97976 0
M  V30 5090 N 467.08 -0.0183926 -1.57589 0
M  V30 5091 C 468.31 0.67207 -1.95363 0
M  V30 5092 C 468.718 1.66807 -0.892872 0
M  V30 5093 O 468.061 1.83204 0.134958 0
M  V30 5094 C 468.123 1.44397 -3.29226 0
M  V30 5095 C 467.787 0.607511 -4.52944 0
M  V30 5096 C 468.784 -0.112657 -5.19778 0
M  V30 5097 C 466.469 0.548068 -4.99301 0
M  V30 5098 C 468.463 -0.881057 -6.31281 0
M  V30 5099 C 466.15 -0.224044 -6.10689 0
M  V30 5100 C 467.148 -0.937323 -6.76538 0
M  V30 5101 O 466.836 -1.6968 -7.85789 0
M  V30 5102 H 466.568 0.190925 -0.648478 0
M  V30 5103 H 469.122 -0.0711994 -2.05277 0
M  V30 5104 H 467.352 2.23214 -3.15773 0
M  V30 5105 H 469.041 2.02152 -3.51979 0
M  V30 5106 H 469.807 -0.0759998 -4.8494 0
M  V30 5107 H 465.686 1.09281 -4.4786 0
M  V30 5108 H 469.23 -1.43832 -6.82611 0
M  V30 5109 H 465.127 -0.262457 -6.44966 0
M  V30 5110 H 465.895 -1.61544 -8.024 0
M  V30 5111 N 468.558 1.5553 0.254621 0
M  V30 5112 C 469.788 1.80784 1.00004 0
M  V30 5113 C 470.196 0.59071 1.79742 0
M  V30 5114 O 469.539 -0.449988 1.78103 0
M  V30 5115 C 469.601 2.99268 1.99196 0
M  V30 5116 C 469.265 4.35595 1.38224 0
M  V30 5117 C 470.262 5.13884 0.788611 0
M  V30 5118 C 467.947 4.82281 1.40393 0
M  V30 5119 C 469.941 6.37004 0.224783 0
M  V30 5120 C 467.628 6.05351 0.836243 0
M  V30 5121 C 468.626 6.82551 0.24769 0
M  V30 5122 O 468.314 8.03297 -0.311249 0
M  V30 5123 H 468.046 0.60565 0.300274 0
M  V30 5124 H 470.6 2.03411 0.285143 0
M  V30 5125 H 468.83 2.72377 2.74496 0
M  V30 5126 H 470.519 3.11682 2.60018 0
M  V30 5127 H 471.285 4.78938 0.764423 0
M  V30 5128 H 467.164 4.22189 1.85142 0
M  V30 5129 H 470.708 6.97203 -0.235235 0
M  V30 5130 H 466.605 6.39776 0.857733 0
M  V30 5131 H 467.373 8.1825 -0.20237 0
M  V30 5132 N 470.036 -0.519951 1.48776 0
M  V30 5133 C 471.285 -1.27175 1.56555 0
M  V30 5134 C 471.598 -1.9401 0.248869 0
M  V30 5135 O 472.804 -2.70725 0.205004 0
M  V30 5136 C 471.26 -2.30811 2.76142 0
M  V30 5137 C 470.868 -1.7 4.14493 0
M  V30 5138 C 472.612 -3.06937 2.9324 0
M  V30 5139 C 470.519 -2.71635 5.25327 0
M  V30 5140 H 469.449 -0.478329 0.582853 0
M  V30 5141 H 472.1 -0.547916 1.75129 0
M  V30 5142 H 470.482 -3.06274 2.51023 0
M  V30 5143 H 471.656 -1.00658 4.49672 0
M  V30 5144 H 469.971 -1.06331 4.02595 0
M  V30 5145 H 472.568 -3.82905 3.73213 0
M  V30 5146 H 472.911 -3.63409 2.03075 0
M  V30 5147 H 473.444 -2.38589 3.18308 0
M  V30 5148 H 470.183 -2.1997 6.1749 0
M  V30 5149 H 469.703 -3.39275 4.94624 0
M  V30 5150 H 471.382 -3.34429 5.53865 0
M  V30 5151 N 471.514 -1.37532 -0.769588 0
M  V30 5152 C 472.446 -1.29347 -1.89214 0
M  V30 5153 C 473.459 -0.208842 -1.61455 0
M  V30 5154 O 474.648 -0.465158 -1.72333 0
M  V30 5155 C 471.748 -0.977649 -3.24492 0
M  V30 5156 C 470.921 -2.16817 -3.7988 0
M  V30 5157 C 469.98 -1.82229 -4.93639 0
M  V30 5158 O 469.006 -2.54548 -5.09111 0
M  V30 5159 N 470.208 -0.767696 -5.75401 0
M  V30 5160 H 472.973 -2.26073 -1.96751 0
M  V30 5161 H 470.534 -1.31185 -0.948795 0
M  V30 5162 H 472.526 -0.727065 -3.98115 0
M  V30 5163 H 471.096 -0.0988777 -3.12444 0
M  V30 5164 H 470.316 -2.58038 -2.9801 0
M  V30 5165 H 471.604 -2.96308 -4.13617 0
M  V30 5166 H 471.002 -0.167626 -5.65452 0
M  V30 5167 H 469.559 -0.576973 -6.49241 0
M  V30 5168 N 472.992 0.995999 -1.22138 0
M  V30 5169 C 473.924 2.08745 -0.946485 0
M  V30 5170 C 474.937 1.62633 0.0737356 0
M  V30 5171 O 476.126 1.77782 -0.159886 0
M  V30 5172 C 473.226 3.36516 -0.401305 0
M  V30 5173 C 472.399 4.11672 -1.47801 0
M  V30 5174 C 471.458 5.17728 -0.940461 0
M  V30 5175 O 470.484 5.45482 -1.62596 0
M  V30 5176 N 471.686 5.80005 0.239723 0
M  V30 5177 H 474.451 2.32908 -1.88611 0
M  V30 5178 H 472.012 1.16152 -1.12785 0
M  V30 5179 H 474.004 4.04691 -0.0270837 0
M  V30 5180 H 472.574 3.0944 0.443354 0
M  V30 5181 H 471.794 3.38171 -2.02568 0
M  V30 5182 H 473.082 4.58657 -2.20253 0
M  V30 5183 H 472.48 5.5982 0.813518 0
M  V30 5184 H 471.037 6.4943 0.555361 0
M  V30 5185 N 474.47 1.03057 1.19235 0
M  V30 5186 C 475.747 0.642608 1.84743 0
M  V30 5187 C 476.127 -0.878577 1.91948 0
M  V30 5188 O 475.475 -1.77597 1.43776 0
M  V30 5189 C 475.685 1.30665 3.23616 0
M  V30 5190 C 477.033 1.43098 3.9976 0
M  V30 5191 O 478.057 1.26396 3.3302 0
M  V30 5192 O 476.916 1.70223 5.19313 0
M  V30 5193 H 474.01 0.223573 0.796206 0
M  V30 5194 H 476.556 1.12883 1.26711 0
M  V30 5195 H 475.328 2.34544 3.13217 0
M  V30 5196 H 474.951 0.808405 3.89295 0
M  V30 5197 N 475.948 -1.35272 0.808662 0
M  V30 5198 C 477.176 -2.02946 0.402537 0
M  V30 5199 C 477.591 -1.60937 -0.987147 0
M  V30 5200 O 476.948 -0.807917 -1.63643 0
M  V30 5201 C 476.999 -3.58317 0.47868 0
M  V30 5202 O 476.72 -3.98799 1.81358 0
M  V30 5203 C 478.221 -4.43251 0.0656281 0
M  V30 5204 H 475.441 -0.650831 0.163279 0
M  V30 5205 H 477.985 -1.72849 1.09286 0
M  V30 5206 H 476.14 -3.87055 -0.163415 0
M  V30 5207 H 476.554 -4.93451 1.77781 0
M  V30 5208 H 478.028 -5.51738 0.170017 0
M  V30 5209 H 478.505 -4.27913 -0.989278 0
M  V30 5210 H 479.111 -4.19813 0.68096 0
M  V30 5211 N 477.426 -0.562348 -1.47226 0
M  V30 5212 C 478.373 0.182461 -2.30078 0
M  V30 5213 C 479.343 0.903503 -1.39377 0
M  V30 5214 O 480.528 0.898188 -1.68337 0
M  V30 5215 C 477.668 1.20322 -3.23445 0
M  V30 5216 C 476.781 0.487717 -4.29238 0
M  V30 5217 C 475.916 1.49422 -5.09752 0
M  V30 5218 C 474.955 0.763976 -6.07314 0
M  V30 5219 N 474.092 1.71755 -6.80768 0
M  V30 5220 H 478.932 -0.530169 -2.93246 0
M  V30 5221 H 476.469 -0.273276 -1.44539 0
M  V30 5222 H 478.427 1.80768 -3.76004 0
M  V30 5223 H 477.057 1.88382 -2.6213 0
M  V30 5224 H 476.109 -0.231374 -3.79696 0
M  V30 5225 H 477.421 -0.0841003 -4.98729 0
M  V30 5226 H 476.575 2.17206 -5.66486 0
M  V30 5227 H 475.314 2.09995 -4.40174 0
M  V30 5228 H 474.319 0.0722344 -5.49753 0
M  V30 5229 H 475.544 0.16391 -6.78902 0
M  V30 5230 H 473.49 2.31177 -6.13916 0
M  V30 5231 H 473.407 1.19802 -7.46447 0
M  V30 5232 H 474.675 2.38638 -7.42073 0
M  V30 5233 N 478.904 1.54736 -0.299062 0
M  V30 5234 C 480.152 1.99706 0.31017 0
M  V30 5235 C 480.473 1.18896 1.54559 0
M  V30 5236 O 479.743 0.284445 1.93824 0
M  V30 5237 H 478.323 0.737686 0.117596 0
M  V30 5238 H 480.985 1.9054 -0.409943 0
M  V30 5239 H 480.081 3.06596 0.58355 0
M  V30 5240 N 480.382 0.0267497 1.57577 0
M  V30 5241 C 481.659 -0.690926 1.82991 0
M  V30 5242 C 482.039 -1.90471 0.910164 0
M  V30 5243 O 481.387 -2.28474 -0.0347985 0
M  V30 5244 C 481.597 -1.07139 3.32148 0
M  V30 5245 C 482.945 -1.46402 3.98562 0
M  V30 5246 O 483.969 -1.16443 3.36629 0
M  V30 5247 O 482.828 -2.02214 5.07712 0
M  V30 5248 H 479.922 -0.338747 0.75444 0
M  V30 5249 H 482.468 0.0542506 1.69613 0
M  V30 5250 H 481.24 -0.207394 3.9075 0
M  V30 5251 H 480.863 -1.87481 3.50623 0
M  V30 5252 N 481.861 -1.55662 -0.24637 0
M  V30 5253 C 483.091 -1.81312 -0.990438 0
M  V30 5254 C 483.499 -0.600234 -1.79426 0
M  V30 5255 O 482.842 0.440537 -1.78339 0
M  V30 5256 C 482.904 -3.0032 -1.97607 0
M  V30 5257 C 482.568 -4.36322 -1.35912 0
M  V30 5258 C 483.565 -5.14295 -0.761348 0
M  V30 5259 C 481.25 -4.83019 -1.37833 0
M  V30 5260 C 483.244 -6.37114 -0.190998 0
M  V30 5261 C 480.931 -6.05786 -0.804128 0
M  V30 5262 C 481.929 -6.82672 -0.211489 0
M  V30 5263 O 481.617 -8.03121 0.353845 0
M  V30 5264 H 481.349 -0.607233 -0.297058 0
M  V30 5265 H 483.903 -2.0356 -0.274351 0
M  V30 5266 H 482.133 -2.73829 -2.73047 0
M  V30 5267 H 483.822 -3.13057 -2.58361 0
M  V30 5268 H 484.588 -4.79337 -0.739013 0
M  V30 5269 H 480.467 -4.23165 -1.829 0
M  V30 5270 H 484.011 -6.97069 0.272206 0
M  V30 5271 H 479.908 -6.40222 -0.823792 0
M  V30 5272 H 480.676 -8.18131 0.245761 0
M  V30 5273 N 483.339 0.512053 -1.4905 0
M  V30 5274 C 484.271 1.63121 -1.6101 0
M  V30 5275 C 485.284 1.55145 -0.493352 0
M  V30 5276 O 486.473 1.61278 -0.764955 0
M  V30 5277 C 483.573 3.01863 -1.54052 0
M  V30 5278 C 482.746 3.35138 -2.81072 0
M  V30 5279 C 481.805 4.5324 -2.67319 0
M  V30 5280 O 480.831 4.55571 -3.41238 0
M  V30 5281 N 482.033 5.52495 -1.78127 0
M  V30 5282 H 484.798 1.53292 -2.5753 0
M  V30 5283 H 482.359 0.699706 -1.45999 0
M  V30 5284 H 484.351 3.78774 -1.42521 0
M  V30 5285 H 482.921 3.05675 -0.654345 0
M  V30 5286 H 482.141 2.4723 -3.07036 0
M  V30 5287 H 483.429 3.54162 -3.65304 0
M  V30 5288 H 482.827 5.53403 -1.17308 0
M  V30 5289 H 481.384 6.28553 -1.72525 0
M  V30 5290 N 484.817 1.37938 0.762283 0
M  V30 5291 C 485.764 1.34467 1.87583 0
M  V30 5292 C 486.734 0.208633 1.64785 0
M  V30 5293 O 487.919 0.399494 1.86571 0
M  V30 5294 C 485.059 1.16692 3.24772 0
M  V30 5295 C 484.172 2.39608 3.59461 0
M  V30 5296 C 483.307 2.14631 4.85908 0
M  V30 5297 C 482.346 3.33364 5.13357 0
M  V30 5298 N 481.483 3.07877 6.30996 0
M  V30 5299 H 486.323 2.29669 1.89885 0
M  V30 5300 H 483.86 1.14116 0.928219 0
M  V30 5301 H 485.818 1.04405 4.03925 0
M  V30 5302 H 484.448 0.251333 3.2182 0
M  V30 5303 H 483.5 2.626 2.75219 0
M  V30 5304 H 484.812 3.28128 3.75678 0
M  V30 5305 H 483.966 1.99429 5.72986 0
M  V30 5306 H 482.705 1.23463 4.71814 0
M  V30 5307 H 481.71 3.49094 4.24751 0
M  V30 5308 H 482.935 4.25395 5.29354 0
M  V30 5309 H 480.881 2.19348 6.18241 0
M  V30 5310 H 480.798 3.89944 6.47673 0
M  V30 5311 H 482.066 2.96313 7.20985 0
M  V30 5312 N 486.295 -0.989507 1.22664 0
M  V30 5313 C 487.258 -2.06183 1.00106 0
M  V30 5314 C 488.258 -1.60765 -0.0337726 0
M  V30 5315 O 489.448 -1.72989 0.205072 0
M  V30 5316 C 486.58 -3.37021 0.51279 0
M  V30 5317 H 487.773 -2.27629 1.95256 0
M  V30 5318 H 485.326 -1.16158 1.0458 0
M  V30 5319 H 486.061 -3.21261 -0.442917 0
M  V30 5320 H 485.846 -3.71323 1.25942 0
M  V30 5321 H 487.336 -4.1591 0.375315 0
M  V30 5322 N 487.773 -1.03688 -1.18687 0
M  V30 5323 C 488.703 -0.645407 -2.24403 0
M  V30 5324 C 489.684 0.349511 -1.66471 0
M  V30 5325 O 490.869 0.230453 -1.92828 0
M  V30 5326 C 487.999 -0.00365337 -3.473 0
M  V30 5327 C 486.953 -0.921705 -4.17958 0
M  V30 5328 C 486.279 -0.144629 -5.34504 0
M  V30 5329 C 487.579 -2.23909 -4.71871 0
M  V30 5330 H 489.273 -1.52917 -2.57404 0
M  V30 5331 H 486.819 -0.736711 -1.23728 0
M  V30 5332 H 488.772 0.281908 -4.20456 0
M  V30 5333 H 487.496 0.914963 -3.13522 0
M  V30 5334 H 486.155 -1.19159 -3.46694 0
M  V30 5335 H 485.803 0.776274 -4.96974 0
M  V30 5336 H 485.503 -0.756206 -5.82714 0
M  V30 5337 H 487.027 0.134004 -6.10453 0
M  V30 5338 H 488.441 -2.0145 -5.36741 0
M  V30 5339 H 486.838 -2.8033 -5.30599 0
M  V30 5340 H 487.908 -2.88822 -3.895 0
M  V30 5341 N 489.251 1.34841 -0.815825 0
M  V30 5342 C 490.181 2.32187 -0.247298 0
M  V30 5343 C 491.162 1.5791 0.632344 0
M  V30 5344 O 492.347 1.8593 0.560698 0
M  V30 5345 C 489.477 3.42122 0.597466 0
M  V30 5346 C 488.431 4.27602 -0.184446 0
M  V30 5347 C 487.757 5.28942 0.782609 0
M  V30 5348 C 489.057 5.03502 -1.38865 0
M  V30 5349 H 490.751 2.79985 -1.06061 0
M  V30 5350 H 488.297 1.34611 -0.511461 0
M  V30 5351 H 490.25 4.09232 1.00533 0
M  V30 5352 H 488.974 2.92956 1.44376 0
M  V30 5353 H 487.633 3.62085 -0.573592 0
M  V30 5354 H 487.281 4.7604 1.62466 0
M  V30 5355 H 486.981 5.87008 0.263695 0
M  V30 5356 H 488.505 5.98922 1.18848 0
M  V30 5357 H 489.919 5.63506 -1.05518 0
M  V30 5358 H 488.316 5.71108 -1.8427 0
M  V30 5359 H 489.386 4.33608 -2.17054 0
M  V30 5360 N 490.729 0.570148 1.46925 0
M  V30 5361 C 491.959 0.0561151 2.06524 0
M  V30 5362 C 492.367 -1.24874 1.42137 0
M  V30 5363 O 491.71 -1.76292 0.516417 0
M  V30 5364 C 491.772 -0.197035 3.5896 0
M  V30 5365 C 491.436 1.02033 4.45464 0
M  V30 5366 C 492.433 1.92921 4.82781 0
M  V30 5367 C 490.118 1.23864 4.86788 0
M  V30 5368 C 492.112 3.03999 5.60235 0
M  V30 5369 C 489.799 2.35249 5.64004 0
M  V30 5370 C 490.797 3.25146 6.0064 0
M  V30 5371 O 490.485 4.34598 6.76299 0
M  V30 5372 H 490.217 0.0487409 0.674241 0
M  V30 5373 H 492.771 0.786915 1.89728 0
M  V30 5374 H 491.001 -0.982299 3.74016 0
M  V30 5375 H 492.69 -0.658032 4.00531 0
M  V30 5376 H 493.456 1.77265 4.51444 0
M  V30 5377 H 489.335 0.54805 4.57731 0
M  V30 5378 H 492.879 3.74192 5.8875 0
M  V30 5379 H 488.776 2.50873 5.94755 0
M  V30 5380 H 489.544 4.32808 6.94708 0
M  V30 5381 N 492.207 -1.54576 0.307264 0
M  V30 5382 C 493.137 -2.26708 -0.55907 0
M  V30 5383 C 494.118 -1.26893 -1.1328 0
M  V30 5384 O 495.303 -1.55677 -1.16097 0
M  V30 5385 C 492.433 -3.01259 -1.72801 0
M  V30 5386 C 491.387 -4.08275 -1.28435 0
M  V30 5387 C 490.713 -4.70575 -2.53895 0
M  V30 5388 C 492.013 -5.2068 -0.411038 0
M  V30 5389 H 493.707 -2.9937 0.042576 0
M  V30 5390 H 491.253 -1.43983 0.0219173 0
M  V30 5391 H 493.206 -3.50444 -2.34023 0
M  V30 5392 H 491.93 -2.26187 -2.356 0
M  V30 5393 H 490.589 -3.59949 -0.695161 0
M  V30 5394 H 490.237 -3.92136 -3.15021 0
M  V30 5395 H 489.937 -5.42854 -2.24908 0
M  V30 5396 H 491.461 -5.22527 -3.15908 0
M  V30 5397 H 492.875 -5.65721 -0.929097 0
M  V30 5398 H 491.272 -5.99716 -0.214664 0
M  V30 5399 H 492.342 -4.81629 0.562287 0
M  V30 5400 N 493.685 -0.035106 -1.57561 0
M  V30 5401 C 494.925 0.646316 -1.93913 0
M  V30 5402 C 495.289 1.68947 -0.912185 0
M  V30 5403 O 496.49 2.42381 -1.1621 0
M  V30 5404 C 494.761 1.24136 -3.35149 0
M  V30 5405 S 496.32 1.94302 -3.93436 0
M  V30 5406 H 493.138 0.212642 -0.678457 0
M  V30 5407 H 495.74 -0.100203 -1.95243 0
M  V30 5408 H 494.444 0.46979 -4.07702 0
M  V30 5409 H 493.975 2.02505 -3.37276 0
M  V30 5410 H 495.99 3.22205 -3.77357 0
M  V30 5411 N 495.163 1.55791 0.238111 0
M  V30 5412 C 496.411 1.77681 0.963001 0
M  V30 5413 C 496.732 0.600674 1.85518 0
M  V30 5414 O 496.002 -0.383182 1.92116 0
M  V30 5415 H 494.582 0.655315 0.358568 0
M  V30 5416 H 497.244 1.93239 0.253945 0
M  V30 5417 H 496.34 2.69177 1.57956 0
M  V30 5418 N 496.642 -0.504142 1.49319 0
M  V30 5419 C 497.89 -1.25598 1.58334 0
M  V30 5420 C 498.211 -1.93114 0.270538 0
M  V30 5421 O 497.481 -1.82585 -0.709891 0
M  V30 5422 H 496.061 -0.466571 0.58337 0
M  V30 5423 H 498.723 -0.584547 1.85928 0
M  V30 5424 H 497.819 -2.02159 2.37778 0
M  V30 5425 N 498.12 -1.38341 -0.754957 0
M  V30 5426 C 499.397 -1.24995 -1.50451 0
M  V30 5427 C 499.777 0.149244 -2.10572 0
M  V30 5428 O 499.125 1.15861 -1.96948 0
M  V30 5429 C 499.335 -2.35904 -2.57197 0
M  V30 5430 C 500.683 -2.74262 -3.24138 0
M  V30 5431 O 501.707 -2.35205 -2.67501 0
M  V30 5432 O 500.566 -3.4161 -4.26574 0
M  V30 5433 H 497.66 -0.48872 -0.667144 0
M  V30 5434 H 500.206 -1.50165 -0.790486 0
M  V30 5435 H 498.978 -3.2953 -2.11011 0
M  V30 5436 H 498.601 -2.12291 -3.36182 0
M  V30 5437 N 499.598 0.982988 -1.23187 0
M  V30 5438 C 500.875 1.69814 -0.970707 0
M  V30 5439 C 501.255 2.04811 0.511424 0
M  V30 5440 O 500.603 1.73924 1.48198 0
M  V30 5441 C 500.813 2.94143 -1.87831 0
M  V30 5442 C 502.161 3.66712 -2.14026 0
M  V30 5443 O 503.185 3.04171 -1.8536 0
M  V30 5444 O 502.044 4.79258 -2.62629 0
M  V30 5445 H 499.138 0.741659 -0.365884 0
M  V30 5446 H 501.684 1.03844 -1.34218 0
M  V30 5447 H 500.456 2.64858 -2.88038 0
M  V30 5448 H 500.079 3.6785 -1.50905 0
M  V30 5449 O 501.115 1.16872 1.1146 0
M  V30 5450 H 501.806 0.903209 1.71353 0
M  V30 END ATOM
M  V30 BEGIN BOND
M  V30 END BOND
M  V30 END CTAB
M  END
$$$$
