drugbank_target|P07359 Platelet glycoprotein Ib alpha chain (DB01050; DB05202; DB05391; DB09213)
 OpenBabel12092119453D

  0  0  0     0  0            999 V3000
M  V30 BEGIN CTAB
M  V30 COUNTS 10138 10285 0 0 0
M  V30 BEGIN ATOM
M  V30 1 H -0.908 1.98254 -0.117106 0
M  V30 2 N 0 1.576 0 0
M  V30 3 C 0.933 2.03868 1.02534 0
M  V30 4 C 1.911 0.928543 1.3348 0
M  V30 5 O 3.095 1.19667 1.45644 0
M  V30 6 C 0.222 2.43627 2.35294 0
M  V30 7 C -0.732 3.65373 2.2001 0
M  V30 8 S 0.101 5.13292 1.52614 0
M  V30 9 C 1.257 5.56322 2.86805 0
M  V30 10 H 1.49 2.90518 0.631377 0
M  V30 11 H -0.977 1.52953 0.210867 0
M  V30 12 H 0.981 2.67203 3.11629 0
M  V30 13 H -0.358 1.57376 2.7183 0
M  V30 14 H -1.165 3.90944 3.18086 0
M  V30 15 H -1.563 3.418 1.51819 0
M  V30 16 H 0.729 5.58782 3.83104 0
M  V30 17 H 1.672 6.56266 2.65933 0
M  V30 18 H 2.08 4.83886 2.90714 0
M  V30 19 N 1.4781 -0.272755 1.55222 0
M  V30 20 C 2.8891 -0.84378 1.66545 0
M  V30 21 C 3.2401 -1.87035 0.592641 0
M  V30 22 O 2.3651 -2.14761 -0.265818 0
M  V30 23 C 2.9601 -1.53723 3.01918 0
M  V30 24 C 1.5191 -2.05628 3.15268 0
M  V30 25 C 0.6661 -0.898424 2.62343 0
M  V30 26 H 3.6171 -0.0490998 1.58624 0
M  V30 27 H 3.6381 -2.40421 2.94921 0
M  V30 28 H 3.1501 -0.78983 3.79978 0
M  V30 29 H 1.2511 -2.83329 2.41983 0
M  V30 30 H 1.3641 -2.27142 4.21833 0
M  V30 31 H -0.2719 -1.29186 2.19506 0
M  V30 32 H 0.5111 -0.164528 3.42906 0
M  V30 33 N 2.9562 -1.48159 -0.537278 0
M  V30 34 C 3.8862 -1.65029 -1.6519 0
M  V30 35 C 4.8672 -0.499281 -1.62607 0
M  V30 36 O 6.0522 -0.730972 -1.79918 0
M  V30 37 C 3.1822 -1.68303 -3.03795 0
M  V30 38 C 2.1362 -2.8283 -3.21234 0
M  V30 39 C 1.4622 -2.71189 -4.60826 0
M  V30 40 C 2.7622 -4.24211 -3.04701 0
M  V30 41 H 4.4562 -2.58341 -1.51328 0
M  V30 42 H 2.0022 -1.24325 -0.726585 0
M  V30 43 H 3.9552 -1.78693 -3.81637 0
M  V30 44 H 2.6792 -0.715635 -3.18663 0
M  V30 45 H 1.3382 -2.71983 -2.45807 0
M  V30 46 H 0.9862 -1.72435 -4.7252 0
M  V30 47 H 0.6862 -3.48035 -4.7344 0
M  V30 48 H 2.2102 -2.83537 -5.40777 0
M  V30 49 H 3.6242 -4.3593 -3.72341 0
M  V30 50 H 2.0212 -5.01998 -3.28813 0
M  V30 51 H 3.0912 -4.41184 -2.01209 0
M  V30 52 N 4.4343 0.785586 -1.36625 0
M  V30 53 C 5.3643 1.91259 -1.33949 0
M  V30 54 C 6.3453 1.68795 -0.210325 0
M  V30 55 O 7.5303 1.89854 -0.408561 0
M  V30 56 C 4.6603 3.28339 -1.13186 0
M  V30 57 C 3.6143 3.65335 -2.22967 0
M  V30 58 C 2.9403 5.00806 -1.87342 0
M  V30 59 C 4.2403 3.7352 -3.65075 0
M  V30 60 H 5.9343 1.93755 -2.28253 0
M  V30 61 H 3.4803 0.930788 -1.09874 0
M  V30 62 H 5.4333 4.06804 -1.09948 0
M  V30 63 H 4.1573 3.2624 -0.153332 0
M  V30 64 H 2.8163 2.89169 -2.25337 0
M  V30 65 H 2.4643 4.95233 -0.880545 0
M  V30 66 H 2.1643 5.26529 -2.60846 0
M  V30 67 H 3.6883 5.81687 -1.85667 0
M  V30 68 H 5.1023 4.42168 -3.64911 0
M  V30 69 H 3.4993 4.10731 -4.37516 0
M  V30 70 H 4.5693 2.74527 -3.99703 0
M  V30 71 N 5.9124 1.20967 1.01018 0
M  V30 72 C 6.8424 0.988272 2.11555 0
M  V30 73 C 7.8234 -0.0849778 1.69888 0
M  V30 74 O 9.0084 0.0738202 1.9406 0
M  V30 75 C 6.1384 0.546528 3.42973 0
M  V30 76 C 5.0924 1.56375 3.9841 0
M  V30 77 C 4.4184 0.97842 5.25672 0
M  V30 78 C 5.7184 2.94922 4.31066 0
M  V30 79 H 7.4124 1.91276 2.30334 0
M  V30 80 H 4.9584 0.921073 1.1069 0
M  V30 81 H 6.9114 0.378839 4.19694 0
M  V30 82 H 5.6354 -0.413598 3.23971 0
M  V30 83 H 4.2944 1.71891 3.23804 0
M  V30 84 H 3.9424 0.0101688 5.02999 0
M  V30 85 H 3.6424 1.65784 5.63728 0
M  V30 86 H 5.1664 0.821939 6.05043 0
M  V30 87 H 6.5804 2.8288 4.9865 0
M  V30 88 H 4.9774 3.5983 4.80253 0
M  V30 89 H 6.0474 3.4616 3.39561 0
M  V30 90 N 7.3905 -1.2043 1.01659 0
M  V30 91 C 8.3205 -2.25466 0.607226 0
M  V30 92 C 9.3015 -1.65853 -0.377716 0
M  V30 93 O 10.4865 -1.92409 -0.263149 0
M  V30 94 C 7.6165 -3.47256 -0.0552949 0
M  V30 95 C 6.5705 -4.19462 0.850632 0
M  V30 96 C 5.8965 -5.34673 0.0538859 0
M  V30 97 C 7.1965 -4.75603 2.15868 0
M  V30 98 H 8.8905 -2.59962 1.48526 0
M  V30 99 H 6.4365 -1.2496 0.715605 0
M  V30 100 H 8.3895 -4.19917 -0.353233 0
M  V30 101 H 7.1135 -3.11924 -0.968045 0
M  V30 102 H 5.7725 -3.48667 1.13257 0
M  V30 103 H 5.4205 -4.95585 -0.860514 0
M  V30 104 H 5.1205 -5.83913 0.657192 0
M  V30 105 H 6.6445 -6.10138 -0.237598 0
M  V30 106 H 8.0585 -5.40083 1.92311 0
M  V30 107 H 6.4555 -5.3528 2.71284 0
M  V30 108 H 7.5255 -3.94346 2.82169 0
M  V30 109 N 8.8686 -0.792821 -1.36206 0
M  V30 110 C 9.7986 -0.207853 -2.32573 0
M  V30 111 C 10.7796 0.659055 -1.56813 0
M  V30 112 O 11.9646 0.592176 -1.84951 0
M  V30 113 C 9.0946 0.655449 -3.41059 0
M  V30 114 C 8.0486 -0.111842 -4.27854 0
M  V30 115 C 7.3746 0.872274 -5.27537 0
M  V30 116 C 8.6746 -1.30299 -5.05786 0
M  V30 117 H 10.3686 -1.01294 -2.81744 0
M  V30 118 H 7.9146 -0.48854 -1.3546 0
M  V30 119 H 9.8676 1.07464 -4.07467 0
M  V30 120 H 8.5916 1.49328 -2.90463 0
M  V30 121 H 7.2506 -0.512053 -3.63006 0
M  V30 122 H 6.8986 1.70523 -4.73214 0
M  V30 123 H 6.5986 0.363291 -5.86476 0
M  V30 124 H 8.1226 1.28996 -5.96818 0
M  V30 125 H 9.5366 -0.959379 -5.65216 0
M  V30 126 H 7.9336 -1.7455 -5.74154 0
M  V30 127 H 9.0036 -2.09663 -4.37229 0
M  V30 128 N 10.3467 1.47872 -0.545128 0
M  V30 129 C 11.2767 2.32661 0.197793 0
M  V30 130 C 12.2577 1.43041 0.920504 0
M  V30 131 O 13.4427 1.71912 0.90333 0
M  V30 132 C 10.5727 3.24569 1.23582 0
M  V30 133 C 9.5267 4.23333 0.630323 0
M  V30 134 C 8.8527 5.0448 1.77211 0
M  V30 135 C 10.1527 5.20704 -0.407974 0
M  V30 136 H 11.8467 2.95024 -0.510045 0
M  V30 137 H 9.3927 1.4187 -0.246731 0
M  V30 138 H 11.3457 3.8272 1.76362 0
M  V30 139 H 10.0697 2.60236 1.97344 0
M  V30 140 H 8.7287 3.6639 0.123922 0
M  V30 141 H 8.3767 4.36561 2.49847 0
M  V30 142 H 8.0767 5.71339 1.37281 0
M  V30 143 H 9.6007 5.65487 2.3034 0
M  V30 144 H 11.0147 5.7329 0.033305 0
M  V30 145 H 9.4117 5.95699 -0.725486 0
M  V30 146 H 10.4817 4.66917 -1.30828 0
M  V30 147 N 11.8248 0.280983 1.55075 0
M  V30 148 C 12.7548 -0.597469 2.25727 0
M  V30 149 C 13.7358 -1.15417 1.24952 0
M  V30 150 O 14.9208 -1.18722 1.53684 0
M  V30 151 C 12.0508 -1.7789 2.98283 0
M  V30 152 C 11.0048 -1.35347 4.06036 0
M  V30 153 C 10.3308 -2.61846 4.66198 0
M  V30 154 C 11.6308 -0.499354 5.19907 0
M  V30 155 H 13.3248 -0.00824265 2.99399 0
M  V30 156 H 10.8708 -0.0025244 1.44 0
M  V30 157 H 12.8238 -2.39937 3.46422 0
M  V30 158 H 11.5478 -2.39405 2.22155 0
M  V30 159 H 10.2068 -0.756156 3.58717 0
M  V30 160 H 9.8548 -3.21632 3.86732 0
M  V30 161 H 9.5548 -2.3409 5.38958 0
M  V30 162 H 11.0788 -3.24732 5.1709 0
M  V30 163 H 12.4928 -1.02498 5.64063 0
M  V30 164 H 10.8898 -0.316424 5.99265 0
M  V30 165 H 11.9598 0.480459 4.82514 0
M  V30 166 N 13.3029 -1.57598 0.00835791 0
M  V30 167 C 14.2329 -2.1198 -0.979113 0
M  V30 168 C 15.2139 -1.03091 -1.35301 0
M  V30 169 O 16.3989 -1.30818 -1.43528 0
M  V30 170 C 13.5289 -2.62995 -2.26828 0
M  V30 171 C 12.4829 -3.76485 -2.03576 0
M  V30 172 C 11.8089 -4.13846 -3.38579 0
M  V30 173 C 13.1089 -5.0342 -1.39161 0
M  V30 174 H 14.8029 -2.94738 -0.526281 0
M  V30 175 H 12.3489 -1.41783 -0.251704 0
M  V30 176 H 14.3019 -2.99669 -2.96271 0
M  V30 177 H 13.0259 -1.7737 -2.7424 0
M  V30 178 H 11.6849 -3.40217 -1.36557 0
M  V30 179 H 11.3329 -3.25232 -3.83709 0
M  V30 180 H 11.0329 -4.90312 -3.23834 0
M  V30 181 H 12.5569 -4.53086 -4.09323 0
M  V30 182 H 13.9709 -5.37812 -1.98573 0
M  V30 183 H 12.3679 -5.84746 -1.34878 0
M  V30 184 H 13.4379 -4.83548 -0.361868 0
M  V30 185 N 14.781 0.264519 -1.55364 0
M  V30 186 C 16.192 0.834936 -1.6699 0
M  V30 187 C 16.543 1.86718 -0.602552 0
M  V30 188 O 15.668 2.14899 0.254425 0
M  V30 189 C 16.263 1.5212 -3.02729 0
M  V30 190 C 14.822 2.03954 -3.16354 0
M  V30 191 C 13.969 0.884498 -2.62815 0
M  V30 192 H 16.92 0.0406869 -1.58648 0
M  V30 193 H 16.941 2.38853 -2.96191 0
M  V30 194 H 16.453 0.769668 -3.80392 0
M  V30 195 H 14.554 2.82041 -2.43482 0
M  V30 196 H 14.667 2.24902 -4.23032 0
M  V30 197 H 13.031 1.2802 -2.20188 0
M  V30 198 H 13.814 0.14634 -3.42988 0
M  V30 199 N 16.2591 1.48442 0.529413 0
M  V30 200 C 17.4841 1.60406 1.31471 0
M  V30 201 C 17.9091 0.264738 1.86228 0
M  V30 202 O 17.2671 -0.763668 1.64432 0
M  V30 203 C 17.3151 2.65419 2.44101 0
M  V30 204 O 16.4191 2.22618 3.47153 0
M  V30 205 H 15.7601 0.537863 0.389357 0
M  V30 206 H 18.2901 1.94432 0.636965 0
M  V30 207 H 18.3001 2.86709 2.90279 0
M  V30 208 H 16.9751 3.62652 2.03608 0
M  V30 209 H 15.5521 2.11543 3.0709 0
M  V30 210 N 17.7372 -0.778329 1.37039 0
M  V30 211 C 19.1482 -1.35421 1.28523 0
M  V30 212 C 19.4992 -1.96075 -0.0700901 0
M  V30 213 O 18.6242 -1.93352 -0.971801 0
M  V30 214 C 19.2192 -2.46211 2.32735 0
M  V30 215 C 17.7782 -2.99585 2.27873 0
M  V30 216 C 16.9252 -1.72748 2.16918 0
M  V30 217 H 19.8762 -0.5791 1.47757 0
M  V30 218 H 19.8972 -3.2552 1.9702 0
M  V30 219 H 19.4092 -2.02036 3.31365 0
M  V30 220 H 17.5102 -3.48152 1.32745 0
M  V30 221 H 17.6232 -3.55646 3.21018 0
M  V30 222 H 15.9872 -1.95416 1.63354 0
M  V30 223 H 16.7702 -1.30686 3.17452 0
M  V30 224 N 19.2153 -1.21501 -1.00376 0
M  V30 225 C 20.1453 -0.999478 -2.11028 0
M  V30 226 C 21.1263 0.0759671 -1.6993 0
M  V30 227 O 22.3113 -0.0841106 -1.94018 0
M  V30 228 C 19.4413 -0.564709 -3.42678 0
M  V30 229 C 18.3953 -1.58486 -3.97576 0
M  V30 230 C 17.7213 -1.00628 -5.25146 0
M  V30 231 C 19.0213 -2.97204 -4.29496 0
M  V30 232 H 20.7153 -1.92495 -2.29317 0
M  V30 233 H 18.2613 -0.92693 -1.102 0
M  V30 234 H 20.2143 -0.401091 -4.19487 0
M  V30 235 H 18.9383 0.396411 -3.24185 0
M  V30 236 H 17.5973 -1.73606 -3.22888 0
M  V30 237 H 17.2453 -0.0368439 -5.02987 0
M  V30 238 H 16.9453 -1.68771 -5.62841 0
M  V30 239 H 18.4693 -0.854015 -6.04598 0
M  V30 240 H 19.8833 -2.8552 -4.97143 0
M  V30 241 H 18.2803 -3.62372 -4.78338 0
M  V30 242 H 19.3503 -3.47956 -3.3772 0
M  V30 243 N 20.6934 1.19889 -1.02296 0
M  V30 244 C 21.6434 2.20777 -0.56934 0
M  V30 245 C 22.6274 1.56379 0.378741 0
M  V30 246 O 23.8194 1.75859 0.200673 0
M  V30 247 C 20.9484 3.43196 0.0845077 0
M  V30 248 C 20.0344 4.14749 -0.88566 0
M  V30 249 N 20.4254 4.62584 -2.04573 0
M  V30 250 C 18.7234 4.40347 -0.707835 0
M  V30 251 C 19.4244 5.17466 -2.65714 0
M  V30 252 N 18.4004 5.0791 -1.93723 0
M  V30 253 H 22.2024 2.55434 -1.45365 0
M  V30 254 H 19.7164 1.35897 -0.88915 0
M  V30 255 H 21.7134 4.14707 0.427067 0
M  V30 256 H 20.3734 3.10042 0.964574 0
M  V30 257 H 21.3844 4.57597 -2.4254 0
M  V30 258 H 18.0614 4.17317 0.12364 0
M  V30 259 H 19.4514 5.64808 -3.63925 0
M  V30 260 N 22.1715 0.800033 1.35784 0
M  V30 261 C 23.5825 0.439142 1.81462 0
M  V30 262 C 23.9335 -1.03813 1.66485 0
M  V30 263 O 23.0585 -1.80626 1.19177 0
M  V30 264 C 23.6535 0.790314 3.29453 0
M  V30 265 C 22.2125 0.482111 3.733 0
M  V30 266 C 21.3595 1.01938 2.57883 0
M  V30 267 H 24.3105 0.992254 1.23855 0
M  V30 268 H 24.3315 0.0853677 3.80404 0
M  V30 269 H 23.8435 1.86554 3.40322 0
M  V30 270 H 21.9445 -0.584652 3.67984 0
M  V30 271 H 22.0575 1.01015 4.6833 0
M  V30 272 H 20.4215 0.442043 2.50835 0
M  V30 273 H 21.2045 2.10059 2.71533 0
M  V30 274 N 23.6496 -1.47581 0.552962 0
M  V30 275 C 24.5996 -2.26961 -0.217423 0
M  V30 276 C 25.5836 -1.34099 -0.889168 0
M  V30 277 O 26.7756 -1.58483 -0.788176 0
M  V30 278 C 23.9046 -3.19756 -1.24944 0
M  V30 279 C 22.9906 -4.20097 -0.581327 0
M  V30 280 N 23.3816 -5.04614 0.346171 0
M  V30 281 C 21.6796 -4.38099 -0.835767 0
M  V30 282 C 22.3806 -5.77052 0.733854 0
M  V30 283 N 21.3566 -5.43526 0.0896567 0
M  V30 284 H 25.1586 -2.89688 0.495761 0
M  V30 285 H 22.6726 -1.58068 0.372597 0
M  V30 286 H 24.6696 -3.75305 -1.81527 0
M  V30 287 H 23.3296 -2.58585 -1.96376 0
M  V30 288 H 24.3406 -5.12869 0.720098 0
M  V30 289 H 21.0176 -3.88102 -1.53892 0
M  V30 290 H 22.4076 -6.5504 1.49574 0
M  V30 291 N 25.1277 -0.289203 -1.54924 0
M  V30 292 C 26.5387 0.205791 -1.85562 0
M  V30 293 C 26.8897 1.54351 -1.2112 0
M  V30 294 O 26.0147 2.10435 -0.504601 0
M  V30 295 C 26.6097 0.380177 -3.3666 0
M  V30 296 C 25.1687 0.819395 -3.67373 0
M  V30 297 C 24.3157 -0.079159 -2.77187 0
M  V30 298 H 27.2667 -0.510577 -1.50262 0
M  V30 299 H 27.2877 1.21659 -3.60526 0
M  V30 300 H 26.7997 -0.593589 -3.83534 0
M  V30 301 H 24.9007 1.80413 -3.26009 0
M  V30 302 H 25.0137 0.646957 -4.74712 0
M  V30 303 H 23.3777 0.439565 -2.50878 0
M  V30 304 H 24.1607 -1.04906 -3.26878 0
M  V30 305 N 26.6058 1.57591 -0.0167156 0
M  V30 306 C 27.8548 1.90461 0.663877 0
M  V30 307 C 28.1678 0.893515 1.73999 0
M  V30 308 O 29.3738 1.11302 2.47637 0
M  V30 309 C 27.8298 3.38155 1.23204 0
M  V30 310 C 27.4378 4.47597 0.189866 0
M  V30 311 C 29.1818 3.80111 1.88986 0
M  V30 312 C 27.0888 5.86379 0.768964 0
M  V30 313 H 26.0188 0.710738 0.251729 0
M  V30 314 H 28.6698 1.83326 -0.0799926 0
M  V30 315 H 27.0518 3.40182 2.02712 0
M  V30 316 H 28.2258 4.57112 -0.581846 0
M  V30 317 H 26.5408 4.14766 -0.368475 0
M  V30 318 H 29.1378 4.81145 2.33247 0
M  V30 319 H 29.4808 3.14511 2.72743 0
M  V30 320 H 30.0138 3.80454 1.16187 0
M  V30 321 H 26.7528 6.55493 -0.0301957 0
M  V30 322 H 26.2728 5.80496 1.50945 0
M  V30 323 H 27.9518 6.34563 1.26251 0
M  V30 324 N 28.0839 -0.256276 1.55502 0
M  V30 325 C 29.3239 -0.993081 1.78654 0
M  V30 326 C 29.6879 -1.8288 0.584724 0
M  V30 327 O 30.8889 -2.59665 0.694822 0
M  V30 328 C 29.1599 -1.83856 3.06483 0
M  V30 329 S 30.7189 -2.63573 3.5082 0
M  V30 330 H 27.5369 -0.334199 0.62756 0
M  V30 331 H 30.1389 -0.26184 1.93739 0
M  V30 332 H 28.8429 -1.21414 3.92029 0
M  V30 333 H 28.3739 -2.61271 2.94111 0
M  V30 334 H 30.3889 -3.86312 3.11412 0
M  V30 335 N 29.562 -1.4872 -0.521534 0
M  V30 336 C 30.472 -1.66569 -1.65203 0
M  V30 337 C 31.488 -0.548197 -1.65139 0
M  V30 338 O 32.664 -0.820339 -1.83936 0
M  V30 339 C 29.729 -1.70917 -3.01642 0
M  V30 340 C 28.79 -2.94356 -3.12495 0
M  V30 341 C 28.023 -2.98487 -4.42426 0
M  V30 342 O 28.246 -2.10786 -5.30024 0
M  V30 343 O 27.18 -3.90746 -4.57822 0
M  V30 344 H 31.006 -2.62298 -1.5308 0
M  V30 345 H 28.591 -1.3222 -0.695565 0
M  V30 346 H 30.473 -1.7625 -3.82771 0
M  V30 347 H 29.148 -0.783633 -3.14071 0
M  V30 348 H 28.055 -2.94552 -2.3063 0
M  V30 349 H 29.388 -3.86322 -3.04986 0
M  V30 350 N 31.0401 0.771051 -1.3745 0
M  V30 351 C 32.2861 1.5319 -1.32894 0
M  V30 352 C 32.6191 1.94008 0.0862511 0
M  V30 353 O 31.8941 1.64124 1.04373 0
M  V30 354 C 32.1771 2.79648 -2.26868 0
M  V30 355 C 32.0301 2.45079 -3.77169 0
M  V30 356 C 33.3491 3.81583 -2.19277 0
M  V30 357 H 30.4681 0.555744 -0.484064 0
M  V30 358 H 33.1101 0.884492 -1.68157 0
M  V30 359 H 31.2601 3.34891 -1.96926 0
M  V30 360 H 32.9321 1.95745 -4.1771 0
M  V30 361 H 31.1751 1.77767 -3.95704 0
M  V30 362 H 31.8461 3.35478 -4.38359 0
M  V30 363 H 34.3221 3.35835 -2.45671 0
M  V30 364 H 33.1981 4.67787 -2.87171 0
M  V30 365 H 33.4591 4.25897 -1.18592 0
M  V30 366 N 32.5182 1.22032 0.997298 0
M  V30 367 C 33.7432 1.06921 1.77715 0
M  V30 368 C 34.1682 -0.376226 1.84299 0
M  V30 369 O 33.5262 -1.27165 1.29223 0
M  V30 370 C 33.5742 1.67996 3.19076 0
M  V30 371 O 32.6782 0.930653 4.01762 0
M  V30 372 H 32.0192 0.375814 0.547412 0
M  V30 373 H 34.5492 1.61737 1.25309 0
M  V30 374 H 34.5592 1.72538 3.69723 0
M  V30 375 H 33.2342 2.73182 3.13599 0
M  V30 376 H 31.8112 0.960917 3.60307 0
M  V30 377 N 33.9963 -1.19345 1.0293 0
M  V30 378 C 34.9433 -2.2258 0.610464 0
M  V30 379 C 35.9133 -1.6179 -0.375946 0
M  V30 380 O 37.0983 -1.88844 -0.272511 0
M  V30 381 C 34.2383 -3.45085 -0.0321473 0
M  V30 382 C 33.3513 -4.20258 1.00035 0
M  V30 383 C 32.4863 -5.3019 0.32746 0
M  V30 384 C 31.5253 -5.97121 1.34584 0
M  V30 385 N 30.6623 -6.98615 0.698726 0
M  V30 386 H 35.5023 -2.57764 1.49538 0
M  V30 387 H 33.0393 -1.26644 0.748311 0
M  V30 388 H 34.9973 -4.15061 -0.421966 0
M  V30 389 H 33.6273 -3.10555 -0.88064 0
M  V30 390 H 32.6793 -3.49223 1.50823 0
M  V30 391 H 33.9913 -4.66175 1.77433 0
M  V30 392 H 33.1453 -6.06587 -0.11718 0
M  V30 393 H 31.8843 -4.85345 -0.478713 0
M  V30 394 H 30.8893 -5.19474 1.80074 0
M  V30 395 H 32.1143 -6.4405 2.15352 0
M  V30 396 H 30.0603 -6.55942 -0.0873471 0
M  V30 397 H 29.9773 -7.42724 1.41058 0
M  V30 398 H 31.2453 -7.79004 0.278102 0
M  V30 399 N 35.4744 -0.807222 -1.35358 0
M  V30 400 C 36.7204 -0.388463 -1.99045 0
M  V30 401 C 37.0534 1.04184 -1.63888 0
M  V30 402 O 36.3284 1.72292 -0.902535 0
M  V30 403 C 36.6114 -0.572783 -3.55515 0
M  V30 404 C 36.4644 -2.04807 -4.00468 0
M  V30 405 C 37.7834 0.00114064 -4.401 0
M  V30 406 H 34.9024 -0.142619 -0.723069 0
M  V30 407 H 37.5444 -1.01687 -1.60498 0
M  V30 408 H 35.6944 -0.0378425 -3.88482 0
M  V30 409 H 37.3664 -2.64544 -3.77908 0
M  V30 410 H 35.6094 -2.54427 -3.51353 0
M  V30 411 H 36.2804 -2.12792 -5.09337 0
M  V30 412 H 38.7564 -0.455716 -4.13597 0
M  V30 413 H 37.6324 -0.157737 -5.48673 0
M  V30 414 H 37.8934 1.09488 -4.28328 0
M  V30 415 N 36.9525 1.47285 -0.560781 0
M  V30 416 C 37.9155 2.28535 0.174488 0
M  V30 417 C 38.9155 1.37153 0.839388 0
M  V30 418 O 40.1055 1.59748 0.694702 0
M  V30 419 C 37.2375 3.16934 1.25561 0
M  V30 420 H 38.4305 2.95012 -0.539262 0
M  V30 421 H 35.9835 1.53034 -0.317865 0
M  V30 422 H 36.7185 2.55157 2.00164 0
M  V30 423 H 36.5035 3.8419 0.783604 0
M  V30 424 H 37.9935 3.78143 1.77193 0
M  V30 425 N 38.4306 0.297415 1.54768 0
M  V30 426 C 39.6556 -0.318435 2.04941 0
M  V30 427 C 40.0806 -1.4701 1.17345 0
M  V30 428 O 39.4386 -1.80436 0.176758 0
M  V30 429 C 39.4866 -0.755749 3.52592 0
M  V30 430 O 38.5906 -1.86088 3.68028 0
M  V30 431 H 37.9316 -0.062421 0.661059 0
M  V30 432 H 40.4616 0.438215 1.99852 0
M  V30 433 H 40.4716 -1.04552 3.94376 0
M  V30 434 H 39.1466 0.0867233 4.1581 0
M  V30 435 H 37.7236 -1.57193 3.38149 0
M  V30 436 N 39.9087 -1.5758 0.0250728 0
M  V30 437 C 40.8587 -2.06468 -0.967201 0
M  V30 438 C 41.8427 -0.964376 -1.28797 0
M  V30 439 O 43.0347 -1.22797 -1.27475 0
M  V30 440 C 40.1637 -2.59203 -2.25097 0
M  V30 441 C 39.2497 -3.76157 -1.95874 0
M  V30 442 N 39.6407 -4.86919 -1.36905 0
M  V30 443 C 37.9387 -3.84566 -2.25887 0
M  V30 444 C 38.6397 -5.68172 -1.24724 0
M  V30 445 N 37.6157 -5.14953 -1.74138 0
M  V30 446 H 41.4177 -2.89508 -0.506176 0
M  V30 447 H 38.9317 -1.61399 -0.18004 0
M  V30 448 H 40.9287 -2.92517 -2.97052 0
M  V30 449 H 39.5887 -1.77592 -2.71829 0
M  V30 450 H 40.5997 -5.07256 -1.04459 0
M  V30 451 H 37.2767 -3.13854 -2.75321 0
M  V30 452 H 38.6667 -6.67221 -0.791605 0
M  V30 453 N 41.3868 0.248026 -1.55636 0
M  V30 454 C 42.3168 1.31079 -1.93237 0
M  V30 455 C 43.2978 1.50264 -0.797174 0
M  V30 456 O 44.4828 1.62891 -1.05737 0
M  V30 457 C 41.6128 2.66575 -2.22609 0
M  V30 458 C 40.5668 2.62087 -3.3837 0
M  V30 459 C 39.8928 4.01369 -3.53281 0
M  V30 460 C 41.1928 2.19171 -4.7409 0
M  V30 461 H 42.8868 0.998556 -2.82257 0
M  V30 462 H 40.4328 0.47891 -1.35803 0
M  V30 463 H 42.3858 3.41057 -2.47503 0
M  V30 464 H 41.1098 2.99432 -1.30414 0
M  V30 465 H 39.7688 1.90063 -3.13483 0
M  V30 466 H 39.4168 4.31489 -2.58508 0
M  V30 467 H 39.1168 3.99254 -4.31127 0
M  V30 468 H 40.6408 4.77552 -3.80495 0
M  V30 469 H 42.0548 2.83384 -4.98363 0
M  V30 470 H 40.4518 2.2817 -5.5503 0
M  V30 471 H 41.5218 1.14336 -4.71227 0
M  V30 472 N 42.8649 1.48995 0.513639 0
M  V30 473 C 43.7749 1.67443 1.64317 0
M  V30 474 C 44.7909 0.556947 1.64846 0
M  V30 475 O 45.9669 0.830082 1.83498 0
M  V30 476 C 43.0319 1.72515 3.00732 0
M  V30 477 C 42.0929 2.96009 3.1093 0
M  V30 478 C 41.3259 3.00829 4.40837 0
M  V30 479 O 41.5489 2.13594 5.28898 0
M  V30 480 O 40.4829 3.93168 4.55744 0
M  V30 481 H 44.3089 2.63106 1.51687 0
M  V30 482 H 41.8939 1.32588 0.688543 0
M  V30 483 H 43.7759 1.78277 3.81831 0
M  V30 484 H 42.4509 0.800278 3.13651 0
M  V30 485 H 41.3579 2.9577 2.29065 0
M  V30 486 H 42.6909 3.87934 3.02933 0
M  V30 487 N 44.343 -0.763751 1.37857 0
M  V30 488 C 45.589 -1.52483 1.33704 0
M  V30 489 C 45.922 -1.94051 -0.0759612 0
M  V30 490 O 45.197 -1.64675 -1.03501 0
M  V30 491 C 45.48 -2.78441 2.28348 0
M  V30 492 C 45.333 -2.43075 3.78463 0
M  V30 493 C 46.652 -3.80415 2.21298 0
M  V30 494 H 43.771 -0.553169 0.487005 0
M  V30 495 H 46.413 -0.875562 1.68624 0
M  V30 496 H 44.563 -3.33842 1.987 0
M  V30 497 H 46.235 -1.93527 4.18742 0
M  V30 498 H 44.478 -1.75666 3.96641 0
M  V30 499 H 45.149 -3.33149 4.40132 0
M  V30 500 H 47.625 -3.34527 2.47449 0
M  V30 501 H 46.501 -4.66257 2.89647 0
M  V30 502 H 46.762 -4.25262 1.20849 0
M  V30 503 N 45.8211 -1.22559 -0.990812 0
M  V30 504 C 46.7691 -0.994798 -2.10253 0
M  V30 505 C 47.7631 0.0627798 -1.69284 0
M  V30 506 O 48.9691 -0.0898392 -1.79776 0
M  V30 507 H 45.3441 -0.304527 -0.687581 0
M  V30 508 H 47.3151 -1.93812 -2.26891 0
M  V30 509 C 46.0641 -0.591439 -3.42633 0
M  V30 510 H 45.3871 -1.3969 -3.74602 0
M  V30 511 H 46.8271 -0.469385 -4.21394 0
M  V30 512 C 45.2861 0.699232 -3.29564 0
M  V30 513 O 45.8161 1.75112 -3.61523 0
M  V30 514 N 44.0221 0.671182 -2.82743 0
M  V30 515 H 43.5691 -0.185136 -2.56934 0
M  V30 516 H 43.5271 1.53502 -2.7438 0
M  V30 517 N 47.2992 1.18797 -1.03562 0
M  V30 518 C 48.5392 1.90346 -0.744832 0
M  V30 519 C 48.9032 1.78231 0.713972 0
M  V30 520 O 50.1042 2.44441 1.11813 0
M  V30 521 C 48.3752 3.36942 -1.19184 0
M  V30 522 S 49.9342 4.26638 -1.02593 0
M  V30 523 H 46.7522 0.657343 -0.270963 0
M  V30 524 H 49.3542 1.43579 -1.32685 0
M  V30 525 H 48.0582 3.43287 -2.24905 0
M  V30 526 H 47.5892 3.88745 -0.603397 0
M  V30 527 H 49.6042 4.96164 0.0596033 0
M  V30 528 N 48.7773 0.814389 1.34928 0
M  V30 529 C 50.0543 0.321363 1.92942 0
M  V30 530 C 50.4343 -1.19014 1.74353 0
M  V30 531 O 49.7823 -1.99328 1.11716 0
M  V30 532 C 49.9923 0.741323 3.41036 0
M  V30 533 C 51.3403 0.735266 4.18185 0
M  V30 534 O 52.3643 0.68336 3.49584 0
M  V30 535 O 51.2233 0.800703 5.40602 0
M  V30 536 H 48.3173 0.0858893 0.822528 0
M  V30 537 H 50.8633 0.898609 1.43955 0
M  V30 538 H 49.6353 1.78276 3.4833 0
M  V30 539 H 49.2583 0.139307 3.97356 0
M  V30 540 N 50.2554 -1.46986 0.568584 0
M  V30 541 C 51.2024 -2.30153 -0.172707 0
M  V30 542 C 52.1724 -1.39759 -0.897586 0
M  V30 543 O 53.3574 -1.68716 -0.891044 0
M  V30 544 C 50.4974 -3.23952 -1.1895 0
M  V30 545 C 49.6104 -4.29441 -0.469517 0
M  V30 546 C 48.7454 -5.1038 -1.47259 0
M  V30 547 C 47.7844 -6.07632 -0.738225 0
M  V30 548 N 46.9214 -6.8149 -1.68868 0
M  V30 549 H 51.7614 -2.93019 0.542596 0
M  V30 550 H 49.2984 -1.44422 0.279401 0
M  V30 551 H 51.2564 -3.76767 -1.79173 0
M  V30 552 H 49.8864 -2.62926 -1.87269 0
M  V30 553 H 48.9384 -3.79594 0.247467 0
M  V30 554 H 50.2504 -4.98689 0.105241 0
M  V30 555 H 49.4044 -5.67402 -2.14803 0
M  V30 556 H 48.1434 -4.4106 -2.08128 0
M  V30 557 H 47.1484 -5.49778 -0.0489293 0
M  V30 558 H 48.3734 -6.78966 -0.135129 0
M  V30 559 H 46.3194 -6.14891 -2.28573 0
M  V30 560 H 46.2364 -7.46948 -1.16636 0
M  V30 561 H 47.5044 -7.43078 -2.3549 0
M  V30 562 N 51.7335 -0.305618 -1.54608 0
M  V30 563 C 53.1495 0.0476228 -1.59529 0
M  V30 564 C 53.3495 1.52025 -1.32252 0
M  V30 565 O 52.4055 2.27368 -1.09818 0
M  V30 566 C 53.7185 -0.354471 -2.98603 0
M  V30 567 C 55.2665 -0.303622 -3.11524 0
M  V30 568 C 55.7415 -0.680608 -4.52915 0
M  V30 569 N 57.2325 -0.63332 -4.5885 0
M  V30 570 C 57.9675 -0.897432 -5.66334 0
M  V30 571 N 57.4635 -1.22775 -6.81834 0
M  V30 572 N 59.2565 -0.824186 -5.56025 0
M  V30 573 H 51.4075 -1.2653 -1.70599 0
M  V30 574 H 53.6705 -0.513291 -0.797017 0
M  V30 575 H 53.3765 -1.3798 -3.23503 0
M  V30 576 H 53.2505 0.289568 -3.76087 0
M  V30 577 H 55.6375 0.712472 -2.8637 0
M  V30 578 H 55.7185 -0.982348 -2.36185 0
M  V30 579 H 55.3625 -1.69453 -4.78799 0
M  V30 580 H 55.2925 0.0202385 -5.26596 0
M  V30 581 H 57.7835 -0.389138 -3.75891 0
M  V30 582 H 58.0965 -1.41513 -7.59733 0
M  V30 583 H 56.4415 -1.26583 -6.83375 0
M  V30 584 H 59.6325 -0.565748 -4.64669 0
M  V30 585 H 59.8055 -1.03338 -6.39707 0
M  V30 586 N 53.2116 1.57565 -0.0334293 0
M  V30 587 C 54.1596 2.1164 0.96496 0
M  V30 588 C 55.1536 1.04398 1.33407 0
M  V30 589 O 56.3596 1.22828 1.3158 0
M  V30 590 H 52.7346 0.676222 0.32898 0
M  V30 591 H 54.7056 2.94455 0.483614 0
M  V30 592 C 53.4546 2.66207 2.23672 0
M  V30 593 H 52.7776 3.48378 1.96145 0
M  V30 594 H 54.2176 3.07685 2.9173 0
M  V30 595 C 52.6766 1.59151 2.96939 0
M  V30 596 O 53.2066 0.993858 3.89211 0
M  V30 597 N 51.4126 1.31093 2.59351 0
M  V30 598 H 50.9596 1.7988 1.84393 0
M  V30 599 H 50.9176 0.596889 3.08682 0
M  V30 600 N 54.6897 -0.239769 1.55765 0
M  V30 601 C 55.6197 -1.30052 1.9393 0
M  V30 602 C 56.6007 -1.49839 0.805132 0
M  V30 603 O 57.7857 -1.62328 1.06599 0
M  V30 604 C 54.9157 -2.65391 2.2402 0
M  V30 605 C 53.8697 -2.60289 3.39755 0
M  V30 606 C 53.1957 -3.99489 3.55405 0
M  V30 607 C 54.4957 -2.16654 4.75246 0
M  V30 608 H 56.1897 -0.983573 2.82783 0
M  V30 609 H 53.7357 -0.471701 1.36055 0
M  V30 610 H 55.6887 -3.3974 2.49308 0
M  V30 611 H 54.4127 -2.98736 1.32 0
M  V30 612 H 53.0717 -1.88398 3.14487 0
M  V30 613 H 52.7197 -4.30112 2.60793 0
M  V30 614 H 52.4197 -3.96962 4.33238 0
M  V30 615 H 53.9437 -4.75528 3.83022 0
M  V30 616 H 55.3577 -2.80737 4.99859 0
M  V30 617 H 53.7547 -2.25223 5.56232 0
M  V30 618 H 54.8247 -1.11835 4.71827 0
M  V30 619 N 56.1678 -1.49265 -0.50573 0
M  V30 620 C 57.3958 -1.62215 -1.28429 0
M  V30 621 C 57.8108 -0.291697 -1.86533 0
M  V30 622 O 57.1678 0.722233 -1.67601 0
M  V30 623 C 57.2188 -2.68735 -2.41793 0
M  V30 624 O 56.9398 -3.96619 -1.86078 0
M  V30 625 C 58.4408 -2.92346 -3.3324 0
M  V30 626 H 55.6608 -0.546239 -0.389697 0
M  V30 627 H 58.2048 -1.95265 -0.607609 0
M  V30 628 H 56.3598 -2.38476 -3.053 0
M  V30 629 H 56.7738 -4.55256 -2.60465 0
M  V30 630 H 58.2478 -3.70623 -4.09075 0
M  V30 631 H 58.7248 -2.02081 -3.89948 0
M  V30 632 H 59.3308 -3.24003 -2.75503 0
M  V30 633 N 57.6459 0.756429 -1.3826 0
M  V30 634 C 58.6089 1.85176 -1.35065 0
M  V30 635 C 59.6089 1.58818 -0.251703 0
M  V30 636 O 60.7989 1.66615 -0.508433 0
M  V30 637 C 57.9309 3.22596 -1.10201 0
M  V30 638 H 59.1239 1.89417 -2.3251 0
M  V30 639 H 56.6769 0.95783 -1.23512 0
M  V30 640 H 57.4119 3.24025 -0.133504 0
M  V30 641 H 57.1969 3.43122 -1.89762 0
M  V30 642 H 58.6869 4.02673 -1.10654 0
M  V30 643 N 59.124 1.23083 0.984299 0
M  V30 644 C 60.054 1.03292 2.09411 0
M  V30 645 C 61.035 -0.048923 1.7003 0
M  V30 646 O 62.22 0.114967 1.93859 0
M  V30 647 C 59.35 0.619155 3.41736 0
M  V30 648 C 58.304 1.64791 3.95004 0
M  V30 649 C 57.63 1.0897 5.23478 0
M  V30 650 C 58.93 3.03999 4.24714 0
M  V30 651 H 60.624 1.96119 2.26225 0
M  V30 652 H 58.17 0.944344 1.08711 0
M  V30 653 H 60.123 0.467777 4.18796 0
M  V30 654 H 58.847 -0.344786 3.24775 0
M  V30 655 H 57.506 1.78721 3.20085 0
M  V30 656 H 57.154 0.11686 5.02864 0
M  V30 657 H 56.854 1.77704 5.60085 0
M  V30 658 H 58.378 0.950093 6.03163 0
M  V30 659 H 59.792 2.93393 4.92538 0
M  V30 660 H 58.189 3.69936 4.72512 0
M  V30 661 H 59.259 3.53285 3.32142 0
M  V30 662 N 60.6021 -1.18246 1.0419 0
M  V30 663 C 62.0131 -1.69914 0.773698 0
M  V30 664 C 62.3641 -1.83085 -0.705297 0
M  V30 665 O 61.4891 -1.51123 -1.5489 0
M  V30 666 C 62.0841 -3.08619 1.39784 0
M  V30 667 C 60.6431 -3.57494 1.17792 0
M  V30 668 C 59.7901 -2.34013 1.48773 0
M  V30 669 H 62.7411 -1.02904 1.20816 0
M  V30 670 H 62.7621 -3.71958 0.801714 0
M  V30 671 H 62.2741 -2.99001 2.47426 0
M  V30 672 H 60.3751 -3.72406 0.120295 0
M  V30 673 H 60.4881 -4.40852 1.87581 0
M  V30 674 H 58.8521 -2.37986 0.907463 0
M  V30 675 H 59.6351 -2.27013 2.57527 0
M  V30 676 N 62.0802 -0.821533 -1.34494 0
M  V30 677 C 63.4912 -0.467956 -1.8074 0
M  V30 678 C 63.8422 1.01151 -1.68116 0
M  V30 679 O 62.9672 1.78707 -1.22036 0
M  V30 680 C 63.5622 -0.842627 -3.28154 0
M  V30 681 C 62.1212 -0.541439 -3.72485 0
M  V30 682 C 61.2682 -1.06028 -2.56229 0
M  V30 683 H 64.2192 -1.01183 -1.22261 0
M  V30 684 H 64.2402 -0.145876 -3.8022 0
M  V30 685 H 63.7522 -1.91945 -3.37311 0
M  V30 686 H 61.8532 0.526034 -3.68868 0
M  V30 687 H 61.9662 -1.08453 -4.66663 0
M  V30 688 H 60.3302 -0.481892 -2.501 0
M  V30 689 H 61.1132 -2.14352 -2.68157 0
M  V30 690 N 63.5583 1.46682 -0.576371 0
M  V30 691 C 64.8353 1.95599 0.00703437 0
M  V30 692 C 65.2153 1.51904 1.46589 0
M  V30 693 O 64.5633 0.766755 2.15251 0
M  V30 694 C 64.7733 3.4864 -0.158404 0
M  V30 695 C 66.1213 4.24594 -0.0229439 0
M  V30 696 O 67.1453 3.56094 -0.0869173 0
M  V30 697 O 66.0043 5.46373 0.118015 0
M  V30 698 H 63.0983 0.825275 0.053384 0
M  V30 699 H 65.6443 1.56996 -0.644244 0
M  V30 700 H 64.4163 3.7331 -1.17282 0
M  V30 701 H 64.0393 3.94057 0.5296 0
M  V30 702 N 65.0364 0.313813 1.54444 0
M  V30 703 C 65.9664 -0.549454 2.26943 0
M  V30 704 C 66.9474 -1.12741 1.27372 0
M  V30 705 O 68.1324 -1.15436 1.56167 0
M  V30 706 C 65.2624 -1.71523 3.01989 0
M  V30 707 C 64.2164 -1.26703 4.08816 0
M  V30 708 C 63.5424 -2.51898 4.71647 0
M  V30 709 C 64.8424 -0.388962 5.2085 0
M  V30 710 H 66.5364 0.0552661 2.99349 0
M  V30 711 H 64.0824 0.0280207 1.43973 0
M  V30 712 H 66.0354 -2.32535 3.51433 0
M  V30 713 H 64.7594 -2.34639 2.27183 0
M  V30 714 H 63.4184 -0.679896 3.6024 0
M  V30 715 H 63.0664 -3.13356 3.93468 0
M  V30 716 H 62.7664 -2.22605 5.43802 0
M  V30 717 H 64.2904 -3.1369 5.23861 0
M  V30 718 H 65.7044 -0.905107 5.6611 0
M  V30 719 H 64.1014 -0.18924 5.99802 0
M  V30 720 H 65.1714 0.582699 4.81386 0
M  V30 721 N 66.5145 -1.57545 0.0417849 0
M  V30 722 C 67.9255 -1.80011 -0.495259 0
M  V30 723 C 68.2765 -0.953199 -1.71489 0
M  V30 724 O 67.4015 -0.167138 -2.15754 0
M  V30 725 C 67.9965 -3.26482 -0.905265 0
M  V30 726 C 66.5555 -3.499 -1.38734 0
M  V30 727 C 65.7025 -2.74979 -0.358056 0
M  V30 728 H 68.6535 -1.56425 0.267736 0
M  V30 729 H 68.6745 -3.36887 -1.76882 0
M  V30 730 H 68.1865 -3.88096 -0.017401 0
M  V30 731 H 66.2875 -2.93553 -2.29471 0
M  V30 732 H 66.4005 -4.58615 -1.38598 0
M  V30 733 H 64.7645 -2.40834 -0.828912 0
M  V30 734 H 65.5475 -3.39315 0.521561 0
M  V30 735 N 67.9926 0.231505 -1.5589 0
M  V30 736 C 68.9396 1.28682 -1.91598 0
M  V30 737 C 69.9096 1.47071 -0.771974 0
M  V30 738 O 71.0946 1.60802 -1.027 0
M  V30 739 C 68.2346 2.6342 -2.22944 0
M  V30 740 C 67.3476 2.52912 -3.50228 0
M  V30 741 C 66.4826 3.80106 -3.7107 0
M  V30 742 C 65.5216 3.64279 -4.91902 0
M  V30 743 N 64.6586 4.834 -5.09184 0
M  V30 744 H 69.4986 0.975305 -2.81588 0
M  V30 745 H 67.0356 0.470299 -1.39379 0
M  V30 746 H 68.9936 3.41869 -2.39126 0
M  V30 747 H 67.6236 2.92687 -1.36139 0
M  V30 748 H 66.6756 1.6595 -3.42294 0
M  V30 749 H 67.9876 2.37133 -4.38827 0
M  V30 750 H 67.1416 4.66999 -3.87295 0
M  V30 751 H 65.8806 3.98799 -2.80733 0
M  V30 752 H 64.8856 2.7577 -4.75637 0
M  V30 753 H 66.1106 3.47067 -5.83714 0
M  V30 754 H 64.0566 5.02425 -4.21788 0
M  V30 755 H 63.9736 4.70311 -5.91898 0
M  V30 756 H 65.2416 5.71747 -5.29835 0
M  V30 757 N 69.4707 1.49531 0.497807 0
M  V30 758 C 70.7477 1.49682 1.25915 0
M  V30 759 C 71.1277 0.226339 2.09883 0
M  V30 760 O 70.4757 -0.791189 2.14365 0
M  V30 761 C 70.6857 2.77755 2.11313 0
M  V30 762 C 72.0337 3.27371 2.70395 0
M  V30 763 O 73.0577 2.78894 2.21578 0
M  V30 764 O 71.9167 4.11808 3.59272 0
M  V30 765 H 69.0107 0.599228 0.56996 0
M  V30 766 H 71.5567 1.61798 0.511816 0
M  V30 767 H 70.3287 3.61713 1.49264 0
M  V30 768 H 69.9517 2.68515 2.93233 0
M  V30 769 N 70.9488 -0.749086 1.3866 0
M  V30 770 C 72.1768 -1.53834 1.38358 0
M  V30 771 C 72.5918 -1.88783 -0.0255219 0
M  V30 772 O 71.9488 -1.53101 -0.993292 0
M  V30 773 C 71.9998 -2.83468 2.2434 0
M  V30 774 O 71.7208 -2.50008 3.5976 0
M  V30 775 C 73.2218 -3.7758 2.32267 0
M  V30 776 H 70.4418 -0.47585 0.473083 0
M  V30 777 H 72.9858 -0.926726 1.82297 0
M  V30 778 H 71.1408 -3.40995 1.83851 0
M  V30 779 H 71.5548 -3.33182 4.05081 0
M  V30 780 H 73.0288 -4.65478 2.96706 0
M  V30 781 H 73.5058 -4.18334 1.33765 0
M  V30 782 H 74.1118 -3.25976 2.73166 0
M  V30 783 N 72.4269 -1.23603 -0.977757 0
M  V30 784 C 73.6549 -1.09646 -1.75458 0
M  V30 785 C 74.0699 0.351859 -1.85492 0
M  V30 786 O 73.4269 1.24327 -1.336 0
M  V30 787 C 73.4779 -1.71895 -3.18016 0
M  V30 788 O 73.1989 -3.11063 -3.08498 0
M  V30 789 C 74.6999 -1.63415 -4.12081 0
M  V30 790 H 71.9199 -0.38359 -0.550545 0
M  V30 791 H 74.4639 -1.63507 -1.22824 0
M  V30 792 H 72.6189 -1.22061 -3.67668 0
M  V30 793 H 73.0329 -3.41305 -3.9826 0
M  V30 794 H 74.5069 -2.11669 -5.09804 0
M  V30 795 H 74.9839 -0.593462 -4.35172 0
M  V30 796 H 75.5899 -2.12628 -3.68334 0
M  V30 797 N 73.905 1.17692 -1.04816 0
M  V30 798 C 75.154 1.87192 -0.751132 0
M  V30 799 C 75.467 1.8169 0.724441 0
M  V30 800 O 76.673 2.46625 1.13527 0
M  V30 801 C 75.129 3.35857 -1.29338 0
M  V30 802 C 74.737 3.4987 -2.79812 0
M  V30 803 C 76.481 4.10709 -1.07322 0
M  V30 804 C 74.388 4.92536 -3.27356 0
M  V30 805 H 73.318 0.701162 -0.277288 0
M  V30 806 H 75.969 1.32932 -1.26496 0
M  V30 807 H 74.351 3.89631 -0.707376 0
M  V30 808 H 75.525 3.06332 -3.44235 0
M  V30 809 H 73.84 2.88433 -3.00325 0
M  V30 810 H 76.437 5.15952 -1.4035 0
M  V30 811 H 76.78 4.16299 -0.0108001 0
M  V30 812 H 77.313 3.6313 -1.62423 0
M  V30 813 H 74.052 4.92119 -4.33012 0
M  V30 814 H 73.572 5.3676 -2.67673 0
M  V30 815 H 75.251 5.61288 -3.21815 0
M  V30 816 N 75.3831 0.828654 1.34056 0
M  V30 817 C 76.3131 0.269443 2.3194 0
M  V30 818 C 77.2941 -0.617247 1.58506 0
M  V30 819 O 78.4791 -0.542931 1.86456 0
M  V30 820 C 75.6091 -0.564793 3.42677 0
M  V30 821 C 74.5631 0.225241 4.27407 0
M  V30 822 C 73.8891 -0.7321 5.29664 0
M  V30 823 C 75.1891 1.43663 5.02154 0
M  V30 824 H 76.8831 1.08728 2.7896 0
M  V30 825 H 74.4291 0.524283 1.34117 0
M  V30 826 H 76.3821 -0.966233 4.10173 0
M  V30 827 H 75.1061 -1.41574 2.9432 0
M  V30 828 H 73.7651 0.608117 3.61521 0
M  V30 829 H 73.4131 -1.57916 4.77568 0
M  V30 830 H 73.1131 -0.20767 5.87233 0
M  V30 831 H 74.6371 -1.13128 6.00029 0
M  V30 832 H 76.0511 1.1089 5.62473 0
M  V30 833 H 74.4481 1.89711 5.69324 0
M  V30 834 H 75.5181 2.21181 4.31517 0
M  V30 835 N 76.8612 -1.46375 0.584142 0
M  V30 836 C 77.8112 -2.27371 -0.169232 0
M  V30 837 C 78.7952 -1.35955 -0.860523 0
M  V30 838 O 79.9872 -1.60119 -0.754382 0
M  V30 839 C 77.1162 -3.22334 -1.18134 0
M  V30 840 C 76.2022 -4.21235 -0.492088 0
M  V30 841 N 76.5932 -5.03766 0.453129 0
M  V30 842 C 74.8912 -4.39773 -0.742652 0
M  V30 843 C 75.5922 -5.75366 0.85609 0
M  V30 844 N 74.5682 -5.43214 0.204926 0
M  V30 845 H 78.3702 -2.88572 0.557097 0
M  V30 846 H 75.8842 -1.57242 0.406042 0
M  V30 847 H 77.8812 -3.79071 -1.73525 0
M  V30 848 H 76.5412 -2.62693 -1.90847 0
M  V30 849 H 77.5522 -5.11227 0.828723 0
M  V30 850 H 74.2292 -3.91279 -1.45625 0
M  V30 851 H 75.6192 -6.5172 1.63434 0
M  V30 852 N 78.3393 -0.321999 -1.54275 0
M  V30 853 C 79.2693 0.537411 -2.27231 0
M  V30 854 C 80.2503 1.12064 -1.27968 0
M  V30 855 O 81.4353 1.14606 -1.56777 0
M  V30 856 C 78.5653 1.69919 -3.02894 0
M  V30 857 C 77.5193 1.24534 -4.09482 0
M  V30 858 C 76.8453 2.49394 -4.72977 0
M  V30 859 C 78.1453 0.361335 -5.21049 0
M  V30 860 H 79.8393 -0.0711406 -2.99315 0
M  V30 861 H 77.3853 -0.0356555 -1.43956 0
M  V30 862 H 79.3383 2.30668 -3.52662 0
M  V30 863 H 78.0623 2.33431 -2.28424 0
M  V30 864 H 76.7213 0.660782 -3.60596 0
M  V30 865 H 76.3693 3.11265 -3.95124 0
M  V30 866 H 76.0693 2.19718 -5.44975 0
M  V30 867 H 77.5933 3.10908 -5.25517 0
M  V30 868 H 79.0073 0.875072 -5.66582 0
M  V30 869 H 77.4043 0.157428 -5.99893 0
M  V30 870 H 78.4743 -0.60822 -4.8107 0
M  V30 871 N 79.8174 1.5752 -0.0501392 0
M  V30 872 C 81.0424 1.97376 0.636997 0
M  V30 873 C 81.4674 0.927466 1.63645 0
M  V30 874 O 80.8254 -0.10941 1.8097 0
M  V30 875 C 80.8734 3.36304 1.30123 0
M  V30 876 O 79.9774 3.34156 2.41689 0
M  V30 877 H 79.3184 0.642998 0.165679 0
M  V30 878 H 81.8484 2.04258 -0.118233 0
M  V30 879 H 81.8584 3.73008 1.65315 0
M  V30 880 H 80.5334 4.11993 0.568746 0
M  V30 881 H 79.1104 3.09196 2.08451 0
M  V30 882 N 81.2955 -0.223234 1.56011 0
M  V30 883 C 82.2055 -1.29766 1.95443 0
M  V30 884 C 83.2215 -1.51373 0.858028 0
M  V30 885 O 84.3975 -1.64536 1.16146 0
M  V30 886 C 81.4625 -2.62772 2.26167 0
M  V30 887 C 80.5235 -2.49482 3.49367 0
M  V30 888 C 79.7565 -3.76145 3.78616 0
M  V30 889 O 79.9795 -4.79087 3.09568 0
M  V30 890 O 78.9135 -3.73358 4.72109 0
M  V30 891 H 82.7395 -0.99309 2.87004 0
M  V30 892 H 80.3245 -0.425958 1.43199 0
M  V30 893 H 82.2065 -3.41327 2.47131 0
M  V30 894 H 80.8815 -2.92913 1.37781 0
M  V30 895 H 79.7885 -1.69133 3.33684 0
M  V30 896 H 81.1215 -2.2428 4.38131 0
M  V30 897 N 82.7736 -1.49793 -0.48987 0
M  V30 898 C 83.7216 -1.67783 -1.61095 0
M  V30 899 C 84.7156 -0.543683 -1.60438 0
M  V30 900 O 85.9216 -0.723647 -1.64813 0
M  V30 901 H 82.2966 -0.529255 -0.534222 0
M  V30 902 H 84.2676 -2.61861 -1.43078 0
M  V30 903 C 83.0166 -1.77191 -2.99164 0
M  V30 904 H 82.3396 -2.63841 -3.0038 0
M  V30 905 H 83.7796 -1.93809 -3.77113 0
M  V30 906 C 82.2386 -0.519203 -3.32875 0
M  V30 907 O 82.7686 0.350124 -4.00171 0
M  V30 908 N 80.9746 -0.378816 -2.8812 0
M  V30 909 H 80.5216 -1.08725 -2.33531 0
M  V30 910 H 80.4796 0.458239 -3.11043 0
M  V30 911 N 84.2517 0.741722 -1.39055 0
M  V30 912 C 85.1817 1.869 -1.39966 0
M  V30 913 C 86.1627 1.6804 -0.26392 0
M  V30 914 O 87.3477 1.88458 -0.468755 0
M  V30 915 C 84.4777 3.24572 -1.23574 0
M  V30 916 C 83.4317 3.58056 -2.34477 0
M  V30 917 C 82.7577 4.94593 -2.0318 0
M  V30 918 C 84.0577 3.61716 -3.76774 0
M  V30 919 H 85.7517 1.86395 -2.34302 0
M  V30 920 H 83.2977 0.895361 -1.1278 0
M  V30 921 H 85.2507 4.031 -1.22834 0
M  V30 922 H 83.9747 3.25587 -0.257045 0
M  V30 923 H 82.6337 2.81854 -2.34423 0
M  V30 924 H 82.2817 4.92181 -1.03765 0
M  V30 925 H 81.9817 5.17964 -2.77465 0
M  V30 926 H 83.5057 5.75486 -2.04079 0
M  V30 927 H 84.9197 4.30335 -3.78794 0
M  V30 928 H 83.3167 3.96603 -4.50362 0
M  V30 929 H 84.3867 2.61672 -4.08235 0
M  V30 930 N 85.7298 1.2412 0.971189 0
M  V30 931 C 86.6598 1.05508 2.08304 0
M  V30 932 C 87.6408 -0.0308864 1.70072 0
M  V30 933 O 88.8258 0.135521 1.93727 0
M  V30 934 C 85.9558 0.655365 3.4106 0
M  V30 935 C 84.9098 1.68971 3.93234 0
M  V30 936 C 84.2358 1.14516 5.22293 0
M  V30 937 C 85.5358 3.08487 4.21465 0
M  V30 938 H 87.2298 1.98507 2.24132 0
M  V30 939 H 84.7758 0.955821 1.07704 0
M  V30 940 H 86.7288 0.51217 4.18276 0
M  V30 941 H 85.4528 -0.31032 3.25122 0
M  V30 942 H 84.1118 1.82106 3.18171 0
M  V30 943 H 83.7598 0.170189 5.02712 0
M  V30 944 H 83.4598 1.83635 5.58168 0
M  V30 945 H 84.9838 1.01401 6.02121 0
M  V30 946 H 86.3978 2.98601 4.89398 0
M  V30 947 H 84.7948 3.74926 4.68562 0
M  V30 948 H 85.8648 3.56787 3.28376 0
M  V30 949 N 87.2079 -1.17134 1.05439 0
M  V30 950 C 88.4379 -1.91094 0.785274 0
M  V30 951 C 88.8459 -1.77198 -0.663142 0
M  V30 952 O 88.1889 -1.10835 -1.46497 0
M  V30 953 C 88.2509 -3.42594 1.08949 0
M  V30 954 C 87.9149 -3.80274 2.53458 0
M  V30 955 C 88.9119 -3.82912 3.51673 0
M  V30 956 C 86.5969 -4.11162 2.88532 0
M  V30 957 C 88.5909 -4.15913 4.83006 0
M  V30 958 C 86.2779 -4.43831 4.20068 0
M  V30 959 C 87.2759 -4.46185 5.17115 0
M  V30 960 O 86.9639 -4.78083 6.46291 0
M  V30 961 H 86.6959 -0.613073 0.284811 0
M  V30 962 H 89.2499 -1.49461 1.40893 0
M  V30 963 H 87.4799 -3.84534 0.408741 0
M  V30 964 H 89.1689 -3.97817 0.805991 0
M  V30 965 H 89.9349 -3.5917 3.25917 0
M  V30 966 H 85.8139 -4.085 2.13656 0
M  V30 967 H 89.3579 -4.17665 5.5875 0
M  V30 968 H 85.2549 -4.67037 4.45586 0
M  V30 969 H 86.0229 -4.9593 6.51149 0
M  V30 970 N 88.686 -0.835752 -1.33615 0
M  V30 971 C 89.914 -0.443344 -2.02094 0
M  V30 972 C 90.329 0.954522 -1.62894 0
M  V30 973 O 89.686 1.61982 -0.840723 0
M  V30 974 C 89.737 -0.550775 -3.5728 0
M  V30 975 O 89.458 -1.89356 -3.95065 0
M  V30 976 C 90.959 -0.154919 -4.43029 0
M  V30 977 H 88.179 -0.176359 -0.647409 0
M  V30 978 H 90.723 -1.12746 -1.70612 0
M  V30 979 H 88.878 0.0853997 -3.87306 0
M  V30 980 H 89.292 -1.87687 -4.89769 0
M  V30 981 H 90.766 -0.281144 -5.51284 0
M  V30 982 H 91.243 0.902863 -4.2982 0
M  V30 983 H 91.849 -0.765404 -4.18356 0
M  V30 984 N 90.1641 1.46063 -0.591896 0
M  V30 985 C 91.4111 2.02338 -0.0809991 0
M  V30 986 C 91.7391 1.46228 1.28249 0
M  V30 987 O 90.9941 0.620818 1.85592 0
M  V30 988 C 91.2931 3.57391 0.0249813 0
M  V30 989 C 90.9591 4.32583 -1.27211 0
M  V30 990 C 89.6211 4.52844 -1.62745 0
M  V30 991 C 91.9731 4.75687 -2.13005 0
M  V30 992 C 89.3011 5.13462 -2.83855 0
M  V30 993 C 91.6531 5.37644 -3.3335 0
M  V30 994 C 90.3171 5.5613 -3.69155 0
M  V30 995 H 89.5871 0.740407 -0.0296397 0
M  V30 996 H 92.2341 1.75321 -0.770374 0
M  V30 997 H 90.5391 3.83597 0.797537 0
M  V30 998 H 92.2361 3.98621 0.436184 0
M  V30 999 H 88.8261 4.17116 -0.985499 0
M  V30 1000 H 93.0101 4.59782 -1.86855 0
M  V30 1001 H 88.2661 5.25965 -3.11722 0
M  V30 1002 H 92.4401 5.7 -4.00092 0
M  V30 1003 H 90.0671 6.0287 -4.63089 0
M  V30 1004 N 91.6422 0.330177 1.54103 0
M  V30 1005 C 92.8672 -0.274893 2.0557 0
M  V30 1006 C 93.2922 -1.44487 1.20437 0
M  V30 1007 O 92.6502 -1.80021 0.214991 0
M  V30 1008 C 92.6982 -0.68079 3.54115 0
M  V30 1009 O 91.8022 -1.7824 3.71893 0
M  V30 1010 H 91.1432 -0.0483849 0.662235 0
M  V30 1011 H 93.6732 0.480508 1.98878 0
M  V30 1012 H 93.6832 -0.961635 3.96505 0
M  V30 1013 H 92.3582 0.174903 4.15532 0
M  V30 1014 H 90.9352 -1.49985 3.41407 0
M  V30 1015 N 93.1203 -1.57491 0.0584922 0
M  V30 1016 C 94.0503 -2.14988 -0.911178 0
M  V30 1017 C 95.0313 -1.07343 -1.31952 0
M  V30 1018 O 96.2163 -1.35318 -1.39294 0
M  V30 1019 C 93.3463 -2.70078 -2.18347 0
M  V30 1020 C 92.3003 -3.82771 -1.91495 0
M  V30 1021 C 91.6263 -4.24408 -3.25241 0
M  V30 1022 C 92.9263 -5.07592 -1.23075 0
M  V30 1023 H 94.6203 -2.96263 -0.432246 0
M  V30 1024 H 92.1663 -1.42512 -0.206469 0
M  V30 1025 H 94.1193 -3.08943 -2.86587 0
M  V30 1026 H 92.8433 -1.86005 -2.68458 0
M  V30 1027 H 91.5023 -3.44389 -1.25664 0
M  V30 1028 H 91.1503 -3.37275 -3.73168 0
M  V30 1029 H 90.8503 -5.00366 -3.08071 0
M  V30 1030 H 92.3743 -4.65879 -3.94701 0
M  V30 1031 H 93.7883 -5.43857 -1.81362 0
M  V30 1032 H 92.1853 -5.88741 -1.16207 0
M  V30 1033 H 93.2553 -4.84454 -0.207847 0
M  V30 1034 N 94.5984 0.214957 -1.56127 0
M  V30 1035 C 95.5614 1.24997 -1.92116 0
M  V30 1036 C 96.5614 1.39467 -0.800344 0
M  V30 1037 O 97.7514 1.37619 -1.06802 0
M  V30 1038 C 94.8834 2.62271 -2.17777 0
M  V30 1039 H 96.0764 0.942875 -2.84693 0
M  V30 1040 H 93.6294 0.455654 -1.49511 0
M  V30 1041 H 94.3644 2.98068 -1.27773 0
M  V30 1042 H 94.1494 2.53143 -2.99434 0
M  V30 1043 H 95.6394 3.36946 -2.46693 0
M  V30 1044 N 96.0765 1.50051 0.48192 0
M  V30 1045 C 97.3045 1.64237 1.25832 0
M  V30 1046 C 97.7195 0.321336 1.86045 0
M  V30 1047 O 97.0765 -0.695478 1.68729 0
M  V30 1048 C 97.1275 2.72548 2.37487 0
M  V30 1049 O 96.8485 3.99529 1.79745 0
M  V30 1050 C 98.3495 2.9761 3.28547 0
M  V30 1051 H 95.5695 0.55237 0.380957 0
M  V30 1052 H 98.1135 1.96207 0.576467 0
M  V30 1053 H 96.2685 2.43303 3.01467 0
M  V30 1054 H 96.6825 4.59342 2.5319 0
M  V30 1055 H 98.1565 3.77084 4.03127 0
M  V30 1056 H 98.6335 2.0826 3.86684 0
M  V30 1057 H 99.2395 3.28345 2.70314 0
M  V30 1058 N 97.5546 -0.734337 1.39446 0
M  V30 1059 C 98.4846 -1.86155 1.40955 0
M  V30 1060 C 99.4656 -1.67898 0.272827 0
M  V30 1061 O 100.651 -1.88207 0.478743 0
M  V30 1062 C 97.7806 -3.23912 1.25294 0
M  V30 1063 C 96.7346 -3.56808 2.36373 0
M  V30 1064 C 96.0606 -4.93508 2.058 0
M  V30 1065 C 97.3606 -3.59713 3.78687 0
M  V30 1066 H 99.0546 -1.8515 2.35287 0
M  V30 1067 H 96.6006 -0.889367 1.13253 0
M  V30 1068 H 98.5536 -4.02443 1.2497 0
M  V30 1069 H 97.2776 -3.25446 0.274308 0
M  V30 1070 H 95.9366 -2.80606 2.35914 0
M  V30 1071 H 95.5846 -4.91623 1.06374 0
M  V30 1072 H 95.2846 -5.16486 2.80208 0
M  V30 1073 H 96.8086 -5.74396 2.07128 0
M  V30 1074 H 98.2226 -4.2832 3.81071 0
M  V30 1075 H 96.6196 -3.94209 4.52459 0
M  V30 1076 H 97.6896 -2.59504 4.09617 0
M  V30 1077 N 99.0327 -1.24633 -0.964593 0
M  V30 1078 C 99.9657 -0.984662 -2.05863 0
M  V30 1079 C 100.944 0.0826554 -1.6239 0
M  V30 1080 O 102.128 -0.0549296 -1.8842 0
M  V30 1081 C 99.2547 -0.486529 -3.35187 0
M  V30 1082 C 98.3007 -1.54286 -3.97615 0
M  V30 1083 S 99.1337 -3.12513 -4.34851 0
M  V30 1084 C 100.29 -2.6441 -5.67308 0
M  V30 1085 H 100.523 -1.91104 -2.27743 0
M  V30 1086 H 98.0557 -1.08052 -1.10291 0
M  V30 1087 H 100.014 -0.205757 -4.09984 0
M  V30 1088 H 98.6747 0.419186 -3.1129 0
M  V30 1089 H 97.8677 -1.14481 -4.90826 0
M  V30 1090 H 97.4697 -1.7738 -3.2926 0
M  V30 1091 H 99.7617 -2.07416 -6.44969 0
M  V30 1092 H 100.705 -3.56222 -6.11973 0
M  V30 1093 H 101.113 -2.04734 -5.26065 0
M  V30 1094 N 100.511 1.16574 -1.06058 0
M  V30 1095 C 101.922 1.68662 -0.800632 0
M  V30 1096 C 102.273 1.84184 0.67608 0
M  V30 1097 O 101.398 1.53568 1.52466 0
M  V30 1098 C 101.993 3.06356 -1.44676 0
M  V30 1099 C 100.552 3.55575 -1.23465 0
M  V30 1100 C 99.6988 2.31616 -1.52477 0
M  V30 1101 H 102.65 1.00969 -1.22438 0
M  V30 1102 H 102.671 3.70636 -0.860788 0
M  V30 1103 H 102.183 2.95027 -2.52152 0
M  V30 1104 H 100.284 3.72167 -0.179527 0
M  V30 1105 H 100.397 4.37812 -1.94571 0
M  V30 1106 H 98.7608 2.36512 -0.945209 0
M  V30 1107 H 99.5438 2.22887 -2.61106 0
M  V30 1108 N 101.989 0.842826 1.3317 0
M  V30 1109 C 103.219 0.453397 2.01564 0
M  V30 1110 C 103.627 -0.951147 1.63554 0
M  V30 1111 O 102.97 -1.63021 0.846746 0
M  V30 1112 C 103.032 0.499013 3.5602 0
M  V30 1113 C 102.696 1.86037 4.1742 0
M  V30 1114 C 103.693 2.82416 4.36506 0
M  V30 1115 C 101.378 2.15428 4.53757 0
M  V30 1116 C 103.372 4.06346 4.91082 0
M  V30 1117 C 101.059 3.39615 5.0804 0
M  V30 1118 C 102.057 4.3489 5.26649 0
M  V30 1119 O 101.745 5.5688 5.79776 0
M  V30 1120 H 101.477 0.177871 0.652179 0
M  V30 1121 H 104.031 1.13808 1.70988 0
M  V30 1122 H 102.261 -0.242467 3.85939 0
M  V30 1123 H 103.95 0.126852 4.05702 0
M  V30 1124 H 104.716 2.6101 4.08777 0
M  V30 1125 H 100.595 1.42061 4.38565 0
M  V30 1126 H 104.139 4.80722 5.05522 0
M  V30 1127 H 100.036 3.60876 5.352 0
M  V30 1128 H 100.804 5.58674 5.98185 0
M  V30 1129 N 103.467 -1.45747 0.599634 0
M  V30 1130 C 104.695 -2.06668 0.0978551 0
M  V30 1131 C 105.11 -1.44562 -1.21439 0
M  V30 1132 O 104.467 -0.556923 -1.73795 0
M  V30 1133 C 104.518 -3.61456 -0.0567044 0
M  V30 1134 O 104.239 -4.21242 1.20361 0
M  V30 1135 C 105.74 -4.39345 -0.590869 0
M  V30 1136 H 102.96 -0.667825 0.0651943 0
M  V30 1137 H 105.504 -1.87115 0.82511 0
M  V30 1138 H 103.659 -3.80378 -0.734251 0
M  V30 1139 H 104.073 -5.14323 1.02821 0
M  V30 1140 H 105.547 -5.48182 -0.648131 0
M  V30 1141 H 106.024 -4.08568 -1.61147 0
M  V30 1142 H 106.63 -4.25268 0.0523679 0
M  V30 1143 N 104.945 -0.338344 -1.53925 0
M  V30 1144 C 106.361 0.0137736 -1.59594 0
M  V30 1145 C 106.561 1.49186 -1.35447 0
M  V30 1146 O 105.617 2.24987 -1.14616 0
M  V30 1147 C 106.93 -0.41773 -2.97784 0
M  V30 1148 C 108.478 -0.369633 -3.1081 0
M  V30 1149 C 108.953 -0.776524 -4.51369 0
M  V30 1150 N 110.444 -0.730506 -4.57403 0
M  V30 1151 C 111.179 -1.01736 -5.64303 0
M  V30 1152 N 110.675 -1.3721 -6.79077 0
M  V30 1153 N 112.468 -0.941942 -5.54151 0
M  V30 1154 H 104.619 -1.3012 -1.67876 0
M  V30 1155 H 106.882 -0.530082 -0.78595 0
M  V30 1156 H 106.588 -1.44811 -3.20504 0
M  V30 1157 H 106.462 0.209729 -3.76616 0
M  V30 1158 H 108.849 0.651568 -2.87817 0
M  V30 1159 H 108.93 -1.03223 -2.34049 0
M  V30 1160 H 108.574 -1.79571 -4.75096 0
M  V30 1161 H 108.504 -0.0914649 -5.26521 0
M  V30 1162 H 110.995 -0.468783 -3.74981 0
M  V30 1163 H 111.308 -1.57597 -7.5656 0
M  V30 1164 H 109.653 -1.4105 -6.80536 0
M  V30 1165 H 112.844 -0.664184 -4.63364 0
M  V30 1166 H 113.017 -1.16884 -6.37371 0
M  V30 1167 N 106.423 1.57458 -0.0668435 0
M  V30 1168 C 107.353 2.15468 0.899764 0
M  V30 1169 C 108.334 1.08042 1.31381 0
M  V30 1170 O 109.519 1.36054 1.38574 0
M  V30 1171 C 106.649 2.71232 2.16911 0
M  V30 1172 C 105.603 3.83781 1.89463 0
M  V30 1173 C 104.929 4.26127 3.22986 0
M  V30 1174 C 106.229 5.08238 1.20381 0
M  V30 1175 H 107.923 2.96488 0.416529 0
M  V30 1176 H 105.469 1.4262 0.198908 0
M  V30 1177 H 107.422 3.10458 2.84945 0
M  V30 1178 H 106.146 1.87426 2.67468 0
M  V30 1179 H 104.805 3.45051 1.23836 0
M  V30 1180 H 104.453 3.39249 3.71374 0
M  V30 1181 H 104.153 5.01993 3.05413 0
M  V30 1182 H 105.677 4.67966 3.92225 0
M  V30 1183 H 107.091 5.44811 1.78475 0
M  V30 1184 H 105.488 5.89349 1.13083 0
M  V30 1185 H 106.558 4.84558 0.182153 0
M  V30 1186 N 107.901 -0.206675 1.56239 0
M  V30 1187 C 109.129 -0.945345 1.8404 0
M  V30 1188 C 109.544 -1.77336 0.647885 0
M  V30 1189 O 108.901 -1.78425 -0.383511 0
M  V30 1190 C 108.952 -1.8509 3.10522 0
M  V30 1191 O 108.673 -1.05634 4.25174 0
M  V30 1192 C 110.174 -2.70222 3.51418 0
M  V30 1193 H 107.394 -0.276372 0.61144 0
M  V30 1194 H 109.938 -0.217417 2.03341 0
M  V30 1195 H 108.093 -2.53259 2.93153 0
M  V30 1196 H 108.507 -1.67238 4.97124 0
M  V30 1197 H 109.981 -3.29438 4.42916 0
M  V30 1198 H 110.458 -3.43358 2.73864 0
M  V30 1199 H 111.064 -2.07443 3.71278 0
M  V30 1200 N 109.379 -1.50304 -0.473955 0
M  V30 1201 C 110.311 -1.65109 -1.58971 0
M  V30 1202 C 111.324 -0.532676 -1.53839 0
M  V30 1203 O 112.513 -0.805751 -1.59279 0
M  V30 1204 C 109.613 -1.61684 -2.97845 0
M  V30 1205 C 108.786 -2.8951 -3.27876 0
M  V30 1206 C 107.845 -2.78768 -4.4629 0
M  V30 1207 O 106.871 -3.52722 -4.46739 0
M  V30 1208 N 108.073 -1.9213 -5.47783 0
M  V30 1209 H 110.838 -2.61347 -1.46689 0
M  V30 1210 H 108.399 -1.47732 -0.662324 0
M  V30 1211 H 110.391 -1.52114 -3.75024 0
M  V30 1212 H 108.961 -0.731925 -3.03911 0
M  V30 1213 H 108.181 -3.13228 -2.39336 0
M  V30 1214 H 109.469 -3.74199 -3.4475 0
M  V30 1215 H 108.867 -1.31353 -5.50239 0
M  V30 1216 H 107.424 -1.88466 -6.23958 0
M  V30 1217 N 110.857 0.726932 -1.39834 0
M  V30 1218 C 111.787 1.85405 -1.41941 0
M  V30 1219 C 112.768 1.67751 -0.281728 0
M  V30 1220 O 113.953 1.8795 -0.488717 0
M  V30 1221 C 111.083 3.23243 -1.2701 0
M  V30 1222 C 110.037 3.55549 -2.38262 0
M  V30 1223 C 109.363 4.9241 -2.08415 0
M  V30 1224 C 110.663 3.577 -3.80589 0
M  V30 1225 H 112.357 1.83899 -2.36266 0
M  V30 1226 H 109.903 0.883349 -1.13723 0
M  V30 1227 H 111.856 4.01775 -1.27103 0
M  V30 1228 H 110.58 3.25296 -0.291564 0
M  V30 1229 H 109.239 2.79351 -2.37399 0
M  V30 1230 H 108.887 4.91052 -1.0898 0
M  V30 1231 H 108.587 5.14992 -2.82943 0
M  V30 1232 H 110.111 5.73289 -2.10171 0
M  V30 1233 H 111.525 4.26293 -3.83337 0
M  V30 1234 H 109.922 3.91804 -4.54543 0
M  V30 1235 H 110.992 2.57328 -4.10987 0
M  V30 1236 N 112.336 1.25143 0.95797 0
M  V30 1237 C 113.284 1.05019 2.07542 0
M  V30 1238 C 114.278 -0.0178751 1.69391 0
M  V30 1239 O 115.484 0.137472 1.79474 0
M  V30 1240 H 111.859 0.32265 0.679265 0
M  V30 1241 H 113.83 1.99759 2.21673 0
M  V30 1242 C 112.579 0.682074 3.40944 0
M  V30 1243 H 111.902 1.49573 3.70767 0
M  V30 1244 H 113.342 0.580945 4.20001 0
M  V30 1245 C 111.801 -0.611608 3.31302 0
M  V30 1246 O 112.331 -1.65465 3.66038 0
M  V30 1247 N 110.537 -0.595982 2.84423 0
M  V30 1248 H 110.084 0.253192 2.56353 0
M  V30 1249 H 110.042 -1.46173 2.78354 0
M  V30 1250 N 113.814 -1.1601 1.06675 0
M  V30 1251 C 114.744 -2.22688 0.702307 0
M  V30 1252 C 115.725 -1.67306 -0.307032 0
M  V30 1253 O 116.91 -1.93352 -0.181305 0
M  V30 1254 C 114.04 -3.47178 0.092038 0
M  V30 1255 C 112.994 -4.15477 1.02777 0
M  V30 1256 C 112.32 -5.33963 0.28061 0
M  V30 1257 C 113.62 -4.66019 2.35846 0
M  V30 1258 H 115.314 -2.53429 1.59419 0
M  V30 1259 H 112.86 -1.21813 0.767961 0
M  V30 1260 H 114.813 -4.21037 -0.174814 0
M  V30 1261 H 113.537 -3.15749 -0.834877 0
M  V30 1262 H 112.196 -3.43549 1.27944 0
M  V30 1263 H 111.844 -4.98788 -0.649545 0
M  V30 1264 H 111.544 -5.806 0.904258 0
M  V30 1265 H 113.068 -6.10596 0.021396 0
M  V30 1266 H 114.482 -5.3144 2.15045 0
M  V30 1267 H 112.879 -5.23293 2.93743 0
M  V30 1268 H 113.949 -3.82023 2.98641 0
M  V30 1269 N 115.292 -0.849877 -1.32721 0
M  V30 1270 C 116.569 -0.372405 -1.92022 0
M  V30 1271 C 116.949 1.1435 -1.77447 0
M  V30 1272 O 116.297 1.96296 -1.16962 0
M  V30 1273 C 116.507 -0.831482 -3.3895 0
M  V30 1274 C 117.855 -0.845882 -4.16089 0
M  V30 1275 O 118.879 -0.775806 -3.47649 0
M  V30 1276 O 117.738 -0.943753 -5.38289 0
M  V30 1277 H 114.832 -0.107667 -0.819961 0
M  V30 1278 H 117.378 -0.93646 -1.41522 0
M  V30 1279 H 116.15 -1.87448 -3.4348 0
M  V30 1280 H 115.773 -0.24461 -3.96847 0
M  V30 1281 N 116.77 1.45427 -0.607355 0
M  V30 1282 C 118.186 1.57283 -0.270985 0
M  V30 1283 C 118.386 1.59875 1.22647 0
M  V30 1284 O 117.442 1.52893 2.00948 0
M  V30 1285 C 118.755 2.85566 -0.941952 0
M  V30 1286 C 120.303 2.9924 -0.917849 0
M  V30 1287 C 120.778 4.30293 -1.56882 0
M  V30 1288 N 122.269 4.37051 -1.5343 0
M  V30 1289 C 123.004 5.37123 -2.00715 0
M  V30 1290 N 122.5 6.43734 -2.56084 0
M  V30 1291 N 124.293 5.28479 -1.91484 0
M  V30 1292 H 116.444 1.41988 -1.57966 0
M  V30 1293 H 118.707 0.67885 -0.661715 0
M  V30 1294 H 118.413 2.8955 -1.99633 0
M  V30 1295 H 118.287 3.74322 -0.465096 0
M  V30 1296 H 120.674 2.94822 0.127984 0
M  V30 1297 H 120.755 2.11895 -1.43297 0
M  V30 1298 H 120.399 4.35469 -2.61398 0
M  V30 1299 H 120.329 5.16454 -1.02873 0
M  V30 1300 H 122.82 3.60615 -1.12982 0
M  V30 1301 H 123.133 7.16341 -2.89958 0
M  V30 1302 H 121.478 6.44485 -2.60122 0
M  V30 1303 H 124.669 4.44098 -1.47967 0
M  V30 1304 H 124.842 6.0632 -2.28648 0
M  V30 1305 N 118.248 0.346503 1.53744 0
M  V30 1306 C 119.488 -0.249413 2.02873 0
M  V30 1307 C 119.852 -1.47532 1.22876 0
M  V30 1308 O 121.053 -2.1456 1.61918 0
M  V30 1309 C 119.324 -0.552909 3.53097 0
M  V30 1310 S 120.883 -1.12521 4.24128 0
M  V30 1311 H 117.701 -0.074042 0.707134 0
M  V30 1312 H 120.303 0.48495 1.8939 0
M  V30 1313 H 119.007 0.347083 4.0893 0
M  V30 1314 H 118.538 -1.31686 3.70705 0
M  V30 1315 H 120.553 -2.41075 4.33702 0
M  V30 1316 N 119.726 -1.57421 0.075193 0
M  V30 1317 C 120.636 -2.1642 -0.905511 0
M  V30 1318 C 121.652 -1.12828 -1.32461 0
M  V30 1319 O 122.828 -1.45109 -1.39661 0
M  V30 1320 C 119.893 -2.71693 -2.15369 0
M  V30 1321 C 118.954 -3.90171 -1.79068 0
M  V30 1322 C 118.187 -4.42798 -2.97936 0
M  V30 1323 O 118.41 -3.94416 -4.12058 0
M  V30 1324 O 117.344 -5.34085 -2.77555 0
M  V30 1325 H 121.17 -3.00588 -0.433626 0
M  V30 1326 H 118.755 -1.48664 -0.148067 0
M  V30 1327 H 120.637 -3.07104 -2.88557 0
M  V30 1328 H 119.312 -1.90582 -2.61649 0
M  V30 1329 H 118.219 -3.59606 -1.03122 0
M  V30 1330 H 119.552 -4.72584 -1.37569 0
M  V30 1331 N 121.204 0.198386 -1.56346 0
M  V30 1332 C 122.134 1.24865 -1.9731 0
M  V30 1333 C 123.115 1.47651 -0.844576 0
M  V30 1334 O 124.3 1.59444 -1.10866 0
M  V30 1335 C 121.43 2.59358 -2.30977 0
M  V30 1336 C 120.384 2.5119 -3.46537 0
M  V30 1337 C 119.71 3.89926 -3.65871 0
M  V30 1338 C 121.01 2.03977 -4.80823 0
M  V30 1339 H 122.704 0.908252 -2.85291 0
M  V30 1340 H 120.25 0.435462 -1.37258 0
M  V30 1341 H 122.203 3.33011 -2.58228 0
M  V30 1342 H 120.927 2.95132 -1.39874 0
M  V30 1343 H 119.586 1.79993 -3.19371 0
M  V30 1344 H 119.234 4.23046 -2.72105 0
M  V30 1345 H 118.934 3.85336 -4.4361 0
M  V30 1346 H 120.458 4.65205 -3.95495 0
M  V30 1347 H 121.872 2.67386 -5.07127 0
M  V30 1348 H 120.269 2.10397 -5.62008 0
M  V30 1349 H 121.339 0.992861 -4.74626 0
M  V30 1350 N 122.682 1.50554 0.465978 0
M  V30 1351 C 123.91 1.65563 1.24083 0
M  V30 1352 C 124.325 0.341051 1.85694 0
M  V30 1353 O 123.682 -0.677543 1.69457 0
M  V30 1354 C 123.733 2.75051 2.34583 0
M  V30 1355 O 123.454 4.01413 1.75497 0
M  V30 1356 C 124.955 3.01078 3.25372 0
M  V30 1357 H 122.175 0.55638 0.375077 0
M  V30 1358 H 124.719 1.96807 0.555624 0
M  V30 1359 H 122.874 2.46486 2.9887 0
M  V30 1360 H 123.288 4.62002 2.48303 0
M  V30 1361 H 124.762 3.81339 3.99105 0
M  V30 1362 H 125.239 2.12349 3.84453 0
M  V30 1363 H 125.845 3.31194 2.66816 0
M  V30 1364 N 124.16 -0.719506 1.40217 0
M  V30 1365 C 125.107 -1.83359 1.40172 0
M  V30 1366 C 126.077 -1.64065 0.259206 0
M  V30 1367 O 127.262 -1.85254 0.456677 0
M  V30 1368 C 124.402 -3.2103 1.26624 0
M  V30 1369 C 123.515 -3.51923 2.50548 0
M  V30 1370 C 122.65 -4.79079 2.29471 0
M  V30 1371 C 121.689 -5.02863 3.48992 0
M  V30 1372 N 120.826 -6.2123 3.27135 0
M  V30 1373 H 125.666 -1.82733 2.35399 0
M  V30 1374 H 123.203 -0.892688 1.16917 0
M  V30 1375 H 125.161 -4.00524 1.16776 0
M  V30 1376 H 123.791 -3.20895 0.350176 0
M  V30 1377 H 122.843 -2.67014 2.70939 0
M  V30 1378 H 124.155 -3.6541 3.39525 0
M  V30 1379 H 123.309 -5.66582 2.16955 0
M  V30 1380 H 122.048 -4.67794 1.37913 0
M  V30 1381 H 121.053 -4.13816 3.6199 0
M  V30 1382 H 122.278 -5.16023 4.41472 0
M  V30 1383 H 120.224 -6.11204 2.38256 0
M  V30 1384 H 120.141 -6.35375 4.09675 0
M  V30 1385 H 121.409 -7.11532 3.18344 0
M  V30 1386 N 125.638 -1.25649 -0.95132 0
M  V30 1387 C 126.568 -1.08808 -2.06599 0
M  V30 1388 C 127.549 0.00382547 -1.701 0
M  V30 1389 O 128.734 -0.166325 -1.93486 0
M  V30 1390 C 125.864 -0.709542 -3.39975 0
M  V30 1391 C 124.818 -1.75206 -3.90496 0
M  V30 1392 C 124.144 -1.22811 -5.20405 0
M  V30 1393 C 125.444 -3.15153 -4.16504 0
M  V30 1394 H 127.138 -2.02048 -2.20946 0
M  V30 1395 H 124.684 -0.972835 -1.06169 0
M  V30 1396 H 126.637 -0.578649 -4.17408 0
M  V30 1397 H 125.361 0.258556 -3.25575 0
M  V30 1398 H 124.02 -1.87145 -3.15234 0
M  V30 1399 H 123.668 -0.250145 -5.02378 0
M  V30 1400 H 123.368 -1.92492 -5.55176 0
M  V30 1401 H 124.892 -1.10968 -6.00432 0
M  V30 1402 H 126.306 -3.06349 -4.84586 0
M  V30 1403 H 124.703 -3.82333 -4.62538 0
M  V30 1404 H 125.773 -3.61966 -3.22658 0
M  V30 1405 N 127.117 1.15442 -1.07289 0
M  V30 1406 C 128.049 2.19773 -0.650585 0
M  V30 1407 C 129.062 1.60076 0.296572 0
M  V30 1408 O 130.251 1.78293 0.0859905 0
M  V30 1409 C 127.351 3.38838 0.0650398 0
M  V30 1410 C 126.524 4.2808 -0.898141 0
M  V30 1411 C 125.583 5.2574 -0.219926 0
M  V30 1412 O 124.609 5.62654 -0.860773 0
M  V30 1413 N 125.811 5.71205 1.03466 0
M  V30 1414 H 128.576 2.56622 -1.54808 0
M  V30 1415 H 126.137 1.30551 -0.957494 0
M  V30 1416 H 128.129 4.01222 0.529415 0
M  V30 1417 H 126.699 3.00409 0.864466 0
M  V30 1418 H 125.919 3.62804 -1.54165 0
M  V30 1419 H 127.207 4.84577 -1.5512 0
M  V30 1420 H 126.605 5.43325 1.57526 0
M  V30 1421 H 125.162 6.35633 1.44272 0
M  V30 1422 N 128.595 0.856903 1.32268 0
M  V30 1423 C 129.841 0.462069 1.97466 0
M  V30 1424 C 130.174 -0.980298 1.67642 0
M  V30 1425 O 129.449 -1.68824 0.965858 0
M  V30 1426 C 129.732 0.704336 3.53145 0
M  V30 1427 C 129.585 2.19529 3.9259 0
M  V30 1428 C 130.904 0.1622 4.39801 0
M  V30 1429 H 128.023 0.169357 0.717278 0
M  V30 1430 H 130.665 1.07574 1.56614 0
M  V30 1431 H 128.815 0.181999 3.88073 0
M  V30 1432 H 130.487 2.78387 3.67829 0
M  V30 1433 H 128.73 2.67292 3.41668 0
M  V30 1434 H 129.401 2.31549 5.01088 0
M  V30 1435 H 131.877 0.608905 4.11621 0
M  V30 1436 H 130.753 0.361265 5.4771 0
M  V30 1437 H 131.014 -0.935158 4.32096 0
M  V30 1438 N 130.073 -1.45103 0.615059 0
M  V30 1439 C 131.35 -1.95549 0.0448276 0
M  V30 1440 C 131.73 -1.55737 -1.4251 0
M  V30 1441 O 131.078 -0.823556 -2.13143 0
M  V30 1442 C 131.288 -3.48098 0.250785 0
M  V30 1443 C 132.636 -4.24384 0.135509 0
M  V30 1444 O 133.66 -3.55738 0.181299 0
M  V30 1445 O 132.519 -5.46493 0.0268878 0
M  V30 1446 H 129.613 -0.8264 -0.0314845 0
M  V30 1447 H 132.159 -1.55232 0.685642 0
M  V30 1448 H 130.931 -3.7007 1.27139 0
M  V30 1449 H 130.554 -3.95323 -0.424937 0
M  V30 1450 N 131.551 -0.354651 -1.53558 0
M  V30 1451 C 132.799 0.237972 -2.00694 0
M  V30 1452 C 133.12 1.50173 -1.24391 0
M  V30 1453 O 132.39 1.92673 -0.354135 0
M  V30 1454 H 130.97 0.0909256 -0.741446 0
M  V30 1455 H 133.632 -0.478368 -1.88938 0
M  V30 1456 H 132.728 0.47264 -3.085 0
M  V30 1457 N 133.029 1.57378 -0.0835403 0
M  V30 1458 C 134.257 1.98263 0.59157 0
M  V30 1459 C 134.672 0.962302 1.62435 0
M  V30 1460 O 134.029 -0.049581 1.82433 0
M  V30 1461 C 134.08 3.39214 1.24965 0
M  V30 1462 O 133.801 4.37339 0.258186 0
M  V30 1463 C 135.302 3.95038 2.01147 0
M  V30 1464 H 132.522 0.651773 0.159477 0
M  V30 1465 H 135.066 2.03878 -0.159415 0
M  V30 1466 H 133.221 3.34649 1.95164 0
M  V30 1467 H 133.635 5.19371 0.731734 0
M  V30 1468 H 135.109 4.95848 2.42567 0
M  V30 1469 H 135.586 3.32222 2.87272 0
M  V30 1470 H 136.192 4.0304 1.35789 0
M  V30 1471 N 134.507 -0.190092 1.56449 0
M  V30 1472 C 135.437 -1.23816 1.97969 0
M  V30 1473 C 136.418 -1.47201 0.852395 0
M  V30 1474 O 137.603 -1.58854 1.1171 0
M  V30 1475 C 134.733 -2.5813 2.3235 0
M  V30 1476 C 133.687 -2.49348 3.47864 0
M  V30 1477 C 133.013 -3.8798 3.67934 0
M  V30 1478 C 134.313 -2.01424 4.81898 0
M  V30 1479 H 136.007 -0.89311 2.85769 0
M  V30 1480 H 133.553 -0.428177 1.37487 0
M  V30 1481 H 135.506 -3.31637 2.59991 0
M  V30 1482 H 134.23 -2.94386 1.41438 0
M  V30 1483 H 132.889 -1.78297 3.20321 0
M  V30 1484 H 132.537 -4.21597 2.74344 0
M  V30 1485 H 132.237 -3.82978 4.45648 0
M  V30 1486 H 133.761 -4.63101 3.97957 0
M  V30 1487 H 135.175 -2.64693 5.08538 0
M  V30 1488 H 133.572 -2.07413 5.63116 0
M  V30 1489 H 134.642 -0.967677 4.75146 0
M  V30 1490 N 135.985 -1.50799 -0.457987 0
M  V30 1491 C 137.396 -1.55152 -1.0385 0
M  V30 1492 C 137.747 -0.362719 -1.92818 0
M  V30 1493 O 136.872 0.522915 -2.09987 0
M  V30 1494 C 137.467 -2.81173 -1.89017 0
M  V30 1495 C 136.026 -2.88164 -2.42154 0
M  V30 1496 C 135.173 -2.49591 -1.20829 0
M  V30 1497 H 138.124 -1.56874 -0.240068 0
M  V30 1498 H 138.145 -2.63769 -2.74238 0
M  V30 1499 H 137.657 -3.67677 -1.24238 0
M  V30 1500 H 135.758 -2.06042 -3.10447 0
M  V30 1501 H 135.871 -3.91356 -2.76364 0
M  V30 1502 H 134.235 -2.02322 -1.54719 0
M  V30 1503 H 135.018 -3.38418 -0.576927 0
M  V30 1504 N 137.463 0.71206 -1.40597 0
M  V30 1505 C 138.709 1.47416 -1.39271 0
M  V30 1506 C 139.042 1.942 0.00388791 0
M  V30 1507 O 138.317 1.68403 0.973179 0
M  V30 1508 C 138.6 2.69774 -2.38525 0
M  V30 1509 C 138.453 2.28861 -3.87224 0
M  V30 1510 C 139.772 3.71939 -2.35264 0
M  V30 1511 H 136.891 0.534713 -0.5072 0
M  V30 1512 H 139.533 0.812375 -1.71757 0
M  V30 1513 H 137.683 3.26238 -2.10953 0
M  V30 1514 H 139.355 1.77852 -4.25636 0
M  V30 1515 H 137.598 1.60824 -4.02887 0
M  V30 1516 H 138.269 3.16584 -4.52193 0
M  V30 1517 H 140.745 3.25113 -2.59694 0
M  V30 1518 H 139.621 4.55186 -3.06753 0
M  V30 1519 H 139.882 4.20484 -1.36549 0
M  V30 1520 N 138.941 1.26152 0.944643 0
M  V30 1521 C 139.871 1.09902 2.06019 0
M  V30 1522 C 140.852 0.00519538 1.70099 0
M  V30 1523 O 142.037 0.176583 1.93396 0
M  V30 1524 C 139.167 0.727562 3.39594 0
M  V30 1525 C 138.121 1.77274 3.89561 0
M  V30 1526 C 137.447 1.25569 5.19747 0
M  V30 1527 C 138.747 3.17357 4.14827 0
M  V30 1528 H 140.441 2.03217 2.19871 0
M  V30 1529 H 137.987 0.978452 1.05652 0
M  V30 1530 H 139.94 0.600777 4.17095 0
M  V30 1531 H 138.664 -0.241287 3.25707 0
M  V30 1532 H 137.323 1.88814 3.14237 0
M  V30 1533 H 136.971 0.276783 5.02238 0
M  V30 1534 H 136.671 1.95433 5.54148 0
M  V30 1535 H 138.195 1.1415 5.99835 0
M  V30 1536 H 139.609 3.08914 4.82954 0
M  V30 1537 H 138.006 3.84781 4.60504 0
M  V30 1538 H 139.076 3.63673 3.20734 0
M  V30 1539 N 140.419 -1.14872 1.07899 0
M  V30 1540 C 141.667 -1.85422 0.803941 0
M  V30 1541 C 141.988 -1.83051 -0.67211 0
M  V30 1542 O 141.258 -1.27532 -1.48703 0
M  V30 1543 H 139.838 -0.686537 0.294408 0
M  V30 1544 H 142.5 -1.39226 1.3639 0
M  V30 1545 H 141.596 -2.90399 1.14346 0
M  V30 1546 N 141.898 -0.863906 -1.31812 0
M  V30 1547 C 143.126 -0.486111 -2.01108 0
M  V30 1548 C 143.541 0.919755 -1.64882 0
M  V30 1549 O 142.898 1.60162 -0.874893 0
M  V30 1550 C 142.949 -0.626435 -3.56031 0
M  V30 1551 O 142.67 -1.97693 -3.90959 0
M  V30 1552 C 144.171 -0.248857 -4.42601 0
M  V30 1553 H 141.391 -0.190052 -0.643523 0
M  V30 1554 H 143.935 -1.1634 -1.68182 0
M  V30 1555 H 142.09 0.00322717 -3.874 0
M  V30 1556 H 142.504 -1.98034 -4.85678 0
M  V30 1557 H 143.978 -0.398016 -5.50563 0
M  V30 1558 H 144.455 0.811489 -4.31638 0
M  V30 1559 H 145.061 -0.853971 -4.16638 0
M  V30 1560 N 143.376 1.44774 -0.622745 0
M  V30 1561 C 144.306 2.33382 0.0741861 0
M  V30 1562 C 145.287 1.47719 0.843387 0
M  V30 1563 O 146.472 1.76458 0.810934 0
M  V30 1564 C 143.602 3.30663 1.06204 0
M  V30 1565 C 142.556 4.26079 0.405037 0
M  V30 1566 C 141.882 5.13165 1.5022 0
M  V30 1567 C 143.182 5.1781 -0.683414 0
M  V30 1568 H 144.876 2.91905 -0.665713 0
M  V30 1569 H 142.422 1.40363 -0.321587 0
M  V30 1570 H 144.375 3.9153 1.55827 0
M  V30 1571 H 143.099 2.70331 1.83272 0
M  V30 1572 H 141.758 3.66532 -0.0704683 0
M  V30 1573 H 141.406 4.49191 2.26355 0
M  V30 1574 H 141.106 5.77812 1.06803 0
M  V30 1575 H 142.63 5.76902 2.00041 0
M  V30 1576 H 144.044 5.72661 -0.270631 0
M  V30 1577 H 142.441 5.91015 -1.04023 0
M  V30 1578 H 143.511 4.59326 -1.55395 0
M  V30 1579 N 144.854 0.36279 1.53368 0
M  V30 1580 C 146.131 -0.284021 1.93527 0
M  V30 1581 C 146.511 -1.66628 1.29608 0
M  V30 1582 O 145.859 -2.23942 0.45413 0
M  V30 1583 C 146.069 -0.337028 3.47369 0
M  V30 1584 C 147.417 -0.578708 4.20638 0
M  V30 1585 O 148.441 -0.418352 3.53735 0
M  V30 1586 O 147.3 -0.89074 5.39192 0
M  V30 1587 H 144.394 -0.169743 0.809393 0
M  V30 1588 H 146.94 0.41537 1.64538 0
M  V30 1589 H 145.712 0.632217 3.86159 0
M  V30 1590 H 145.335 -1.08243 3.82582 0
M  V30 1591 N 146.332 -1.57332 0.0918853 0
M  V30 1592 C 147.262 -2.16872 -0.865371 0
M  V30 1593 C 148.243 -1.10118 -1.29646 0
M  V30 1594 O 149.428 -1.38242 -1.36392 0
M  V30 1595 C 146.558 -2.74649 -2.12569 0
M  V30 1596 C 145.512 -3.86747 -1.83333 0
M  V30 1597 C 144.838 -4.31212 -3.16166 0
M  V30 1598 C 146.138 -5.10089 -1.1228 0
M  V30 1599 H 147.832 -2.97114 -0.369307 0
M  V30 1600 H 145.378 -1.42918 -0.176194 0
M  V30 1601 H 147.331 -3.14952 -2.7997 0
M  V30 1602 H 146.055 -1.91657 -2.64452 0
M  V30 1603 H 144.714 -3.46978 -1.18331 0
M  V30 1604 H 144.362 -3.45115 -3.6593 0
M  V30 1605 H 144.062 -5.06788 -2.97388 0
M  V30 1606 H 145.586 -4.74146 -3.84731 0
M  V30 1607 H 147 -5.47582 -1.69785 0
M  V30 1608 H 145.397 -5.91073 -1.03693 0
M  V30 1609 H 146.467 -4.84786 -0.105041 0
M  V30 1610 N 147.81 0.181792 -1.56548 0
M  V30 1611 C 149.035 0.920019 -1.85877 0
M  V30 1612 C 149.46 1.75494 -0.677021 0
M  V30 1613 O 148.818 1.77399 0.374056 0
M  V30 1614 C 148.866 1.78112 -3.13542 0
M  V30 1615 O 147.97 2.88152 -2.95029 0
M  V30 1616 H 147.311 0.258334 -0.611686 0
M  V30 1617 H 149.841 0.183092 -2.03779 0
M  V30 1618 H 149.851 2.18314 -3.44678 0
M  V30 1619 H 148.526 1.16777 -3.99169 0
M  V30 1620 H 147.103 2.51609 -2.75222 0
M  V30 1621 N 149.288 1.51039 0.449983 0
M  V30 1622 C 150.238 1.67824 1.54335 0
M  V30 1623 C 151.222 0.5324 1.51836 0
M  V30 1624 O 152.414 0.787762 1.58503 0
M  V30 1625 C 149.543 1.7951 2.92628 0
M  V30 1626 C 148.629 2.99838 2.9993 0
M  V30 1627 N 149.02 4.23207 2.77001 0
M  V30 1628 C 147.318 2.98832 3.31082 0
M  V30 1629 C 148.019 5.04361 2.89818 0
M  V30 1630 N 146.995 4.38746 3.2094 0
M  V30 1631 H 150.797 2.60884 1.35339 0
M  V30 1632 H 148.311 1.48513 0.657085 0
M  V30 1633 H 150.308 1.89642 3.7127 0
M  V30 1634 H 148.968 0.876227 3.12654 0
M  V30 1635 H 149.979 4.5236 2.52172 0
M  V30 1636 H 146.656 2.16527 3.56963 0
M  V30 1637 H 148.046 6.12528 2.76151 0
M  V30 1638 N 150.766 -0.704594 1.40972 0
M  V30 1639 C 151.714 -1.83994 1.42299 0
M  V30 1640 C 152.708 -1.66684 0.302111 0
M  V30 1641 O 153.914 -1.73655 0.473697 0
M  V30 1642 H 150.289 -0.606171 0.44504 0
M  V30 1643 H 152.26 -1.79992 2.38003 0
M  V30 1644 C 151.009 -3.21946 1.31323 0
M  V30 1645 H 150.332 -3.35878 2.16855 0
M  V30 1646 H 151.772 -4.01491 1.36311 0
M  V30 1647 C 150.231 -3.36891 0.0245977 0
M  V30 1648 O 150.761 -3.90687 -0.934153 0
M  V30 1649 N 148.967 -2.90559 -0.0485243 0
M  V30 1650 H 148.514 -2.46968 0.732419 0
M  V30 1651 H 148.472 -3.00937 -0.910171 0
M  V30 1652 N 152.244 -1.26651 -0.937939 0
M  V30 1653 C 153.176 -1.04283 -2.04102 0
M  V30 1654 C 154.189 -0.00221014 -1.628 0
M  V30 1655 O 155.378 -0.242645 -1.76843 0
M  V30 1656 C 152.478 -0.557846 -3.34277 0
M  V30 1657 C 151.651 -1.66843 -4.04329 0
M  V30 1658 C 150.71 -1.18095 -5.12777 0
M  V30 1659 O 149.736 -1.87865 -5.37304 0
M  V30 1660 N 150.938 -0.0311006 -5.80492 0
M  V30 1661 H 153.703 -1.9927 -2.23856 0
M  V30 1662 H 151.264 -1.1808 -1.10764 0
M  V30 1663 H 153.256 -0.215836 -4.04124 0
M  V30 1664 H 151.826 0.298523 -3.11171 0
M  V30 1665 H 151.046 -2.18123 -3.28353 0
M  V30 1666 H 152.334 -2.41408 -4.47883 0
M  V30 1667 H 151.732 0.551486 -5.63005 0
M  V30 1668 H 150.289 0.251809 -6.51313 0
M  V30 1669 N 153.722 1.14298 -1.08507 0
M  V30 1670 C 154.652 2.21542 -0.737646 0
M  V30 1671 C 155.633 1.67773 0.280377 0
M  V30 1672 O 156.818 1.93616 0.150521 0
M  V30 1673 C 153.948 3.46988 -0.147259 0
M  V30 1674 C 152.902 4.13789 -1.09374 0
M  V30 1675 C 152.228 5.33449 -0.365524 0
M  V30 1676 C 153.528 4.62208 -2.4323 0
M  V30 1677 H 155.222 2.5086 -1.6343 0
M  V30 1678 H 152.768 1.20576 -0.787243 0
M  V30 1679 H 154.721 4.21262 0.107808 0
M  V30 1680 H 153.445 3.17037 0.784538 0
M  V30 1681 H 152.104 3.4147 -1.33393 0
M  V30 1682 H 151.752 4.99759 0.57011 0
M  V30 1683 H 151.452 5.79088 -0.996512 0
M  V30 1684 H 152.976 6.10485 -0.118534 0
M  V30 1685 H 154.39 5.27952 -2.23472 0
M  V30 1686 H 152.787 5.18553 -3.02031 0
M  V30 1687 H 153.857 3.77224 -3.04681 0
M  V30 1688 N 155.201 0.870884 1.31352 0
M  V30 1689 C 156.133 0.28455 2.27427 0
M  V30 1690 C 157.146 -0.552927 1.53123 0
M  V30 1691 O 158.335 -0.374771 1.74521 0
M  V30 1692 C 155.435 -0.615164 3.3327 0
M  V30 1693 C 154.608 0.190079 4.36987 0
M  V30 1694 C 153.667 -0.637917 5.22319 0
M  V30 1695 O 152.693 -0.065626 5.69162 0
M  V30 1696 N 153.895 -1.94973 5.46778 0
M  V30 1697 H 156.66 1.11017 2.7838 0
M  V30 1698 H 154.221 0.732458 1.44384 0
M  V30 1699 H 156.213 -1.1748 3.87273 0
M  V30 1700 H 154.783 -1.34146 2.82354 0
M  V30 1701 H 154.003 0.931165 3.83044 0
M  V30 1702 H 155.291 0.742579 5.03352 0
M  V30 1703 H 154.689 -2.4378 5.10478 0
M  V30 1704 H 153.246 -2.45713 6.03712 0
M  V30 1705 N 156.679 -1.44442 0.630414 0
M  V30 1706 C 157.904 -2.06927 0.139944 0
M  V30 1707 C 158.329 -1.46795 -1.17613 0
M  V30 1708 O 157.687 -0.569144 -1.72135 0
M  V30 1709 C 157.735 -3.6058 0.0379581 0
M  V30 1710 O 156.839 -3.99937 -1.0062 0
M  V30 1711 H 156.18 -0.658608 0.0844483 0
M  V30 1712 H 158.71 -1.85327 0.866891 0
M  V30 1713 H 158.72 -4.07714 -0.152856 0
M  V30 1714 H 157.395 -4.03728 0.998809 0
M  V30 1715 H 155.972 -3.64436 -0.79001 0
M  V30 1716 N 158.157 -0.370918 -1.53173 0
M  V30 1717 C 159.087 0.464847 -2.28826 0
M  V30 1718 C 160.068 1.07936 -1.31468 0
M  V30 1719 O 161.253 1.0956 -1.60344 0
M  V30 1720 C 158.383 1.60196 -3.08147 0
M  V30 1721 C 157.337 1.11443 -4.13237 0
M  V30 1722 C 156.663 2.3422 -4.80672 0
M  V30 1723 C 157.963 0.195384 -5.21934 0
M  V30 1724 H 159.657 -0.166329 -2.98938 0
M  V30 1725 H 157.203 -0.0814359 -1.4377 0
M  V30 1726 H 159.156 2.19332 -3.59822 0
M  V30 1727 H 157.88 2.26045 -2.35735 0
M  V30 1728 H 156.539 0.545727 -3.62515 0
M  V30 1729 H 156.187 2.98537 -4.04827 0
M  V30 1730 H 155.887 2.02269 -5.51689 0
M  V30 1731 H 157.411 2.94032 -5.35143 0
M  V30 1732 H 158.825 0.694375 -5.69079 0
M  V30 1733 H 157.222 -0.0335027 -6.00091 0
M  V30 1734 H 158.292 -0.760961 -4.78892 0
M  V30 1735 N 159.635 1.57281 -0.100228 0
M  V30 1736 C 161.046 1.81725 0.428107 0
M  V30 1737 C 161.397 1.01619 1.67833 0
M  V30 1738 O 160.522 0.247098 2.14985 0
M  V30 1739 C 161.117 3.29617 0.78347 0
M  V30 1740 C 159.676 3.54808 1.25653 0
M  V30 1741 C 158.823 2.76118 0.255752 0
M  V30 1742 H 161.774 1.55324 -0.325608 0
M  V30 1743 H 161.795 3.4322 1.64256 0
M  V30 1744 H 161.307 3.87893 -0.12665 0
M  V30 1745 H 159.408 3.01868 2.18418 0
M  V30 1746 H 159.521 4.63443 1.21482 0
M  V30 1747 H 157.885 2.43745 0.738956 0
M  V30 1748 H 158.668 3.37145 -0.647136 0
M  V30 1749 N 161.113 -0.173488 1.56642 0
M  V30 1750 C 162.043 -1.2171 1.99271 0
M  V30 1751 C 163.024 -1.46289 0.867959 0
M  V30 1752 O 164.209 -1.5766 1.13388 0
M  V30 1753 C 161.339 -2.55651 2.35074 0
M  V30 1754 C 160.293 -2.45645 3.50489 0
M  V30 1755 C 159.619 -3.84056 3.72028 0
M  V30 1756 C 160.919 -1.96302 4.84007 0
M  V30 1757 H 162.613 -0.86275 2.867 0
M  V30 1758 H 160.159 -0.413571 1.37933 0
M  V30 1759 H 162.112 -3.2886 2.63494 0
M  V30 1760 H 160.836 -2.92869 1.44552 0
M  V30 1761 H 159.495 -1.7489 3.22194 0
M  V30 1762 H 159.143 -4.18664 2.788 0
M  V30 1763 H 158.843 -3.7823 4.49684 0
M  V30 1764 H 160.367 -4.58854 4.02846 0
M  V30 1765 H 161.781 -2.59284 5.11317 0
M  V30 1766 H 160.178 -2.01429 5.65284 0
M  V30 1767 H 161.248 -0.917226 4.76146 0
M  V30 1768 N 162.591 -1.51276 -0.441967 0
M  V30 1769 C 163.521 -1.752 -1.54361 0
M  V30 1770 C 164.502 -0.601682 -1.59103 0
M  V30 1771 O 165.687 -0.843913 -1.74905 0
M  V30 1772 C 162.817 -1.87282 -2.92477 0
M  V30 1773 C 161.771 -3.02687 -3.02596 0
M  V30 1774 C 161.097 -2.99947 -4.42647 0
M  V30 1775 C 162.397 -4.4273 -2.77106 0
M  V30 1776 H 164.091 -2.67442 -1.34592 0
M  V30 1777 H 161.637 -1.28694 -0.646048 0
M  V30 1778 H 163.59 -2.02602 -3.695 0
M  V30 1779 H 162.314 -0.916844 -3.13467 0
M  V30 1780 H 160.973 -2.87065 -2.28012 0
M  V30 1781 H 160.621 -2.02136 -4.60597 0
M  V30 1782 H 160.321 -3.77439 -4.50348 0
M  V30 1783 H 161.845 -3.17354 -5.2165 0
M  V30 1784 H 163.259 -4.58727 -3.43864 0
M  V30 1785 H 161.656 -5.21893 -2.96222 0
M  V30 1786 H 162.726 -4.53087 -1.72744 0
M  V30 1787 N 164.069 0.697108 -1.41344 0
M  V30 1788 C 165.317 1.45426 -1.40341 0
M  V30 1789 C 165.638 1.94996 -0.0128787 0
M  V30 1790 O 164.908 1.71599 0.945027 0
M  V30 1791 H 163.488 0.539594 -0.516573 0
M  V30 1792 H 166.15 0.825201 -1.76569 0
M  V30 1793 H 165.246 2.31817 -2.08967 0
M  V30 1794 N 165.547 1.27147 0.931209 0
M  V30 1795 C 166.479 1.05364 2.03546 0
M  V30 1796 C 167.492 0.0108438 1.62796 0
M  V30 1797 O 168.681 0.25202 1.76712 0
M  V30 1798 C 165.781 0.575566 3.33977 0
M  V30 1799 C 164.954 1.68985 4.03439 0
M  V30 1800 C 164.013 1.20813 5.12143 0
M  V30 1801 O 163.039 1.90712 5.363 0
M  V30 1802 N 164.241 0.0618851 5.80467 0
M  V30 1803 H 167.006 2.00454 2.22796 0
M  V30 1804 H 164.567 1.18666 1.10136 0
M  V30 1805 H 166.559 0.237264 4.04004 0
M  V30 1806 H 165.129 -0.282016 3.11325 0
M  V30 1807 H 164.349 2.19861 3.27192 0
M  V30 1808 H 165.637 2.4378 4.46597 0
M  V30 1809 H 165.035 -0.521621 5.6329 0
M  V30 1810 H 163.592 -0.217264 6.51438 0
M  V30 1811 N 167.025 -1.13721 1.09112 0
M  V30 1812 C 168.253 -1.88773 0.846899 0
M  V30 1813 C 168.668 -1.7896 -0.601572 0
M  V30 1814 O 168.025 -1.15394 -1.41388 0
M  V30 1815 C 168.076 -3.3849 1.26913 0
M  V30 1816 O 167.797 -3.48043 2.66079 0
M  V30 1817 C 169.298 -4.30518 1.05682 0
M  V30 1818 H 166.518 -0.59772 0.304914 0
M  V30 1819 H 169.062 -1.43977 1.45227 0
M  V30 1820 H 167.217 -3.80881 0.707723 0
M  V30 1821 H 167.631 -4.4109 2.83795 0
M  V30 1822 H 169.105 -5.3391 1.40156 0
M  V30 1823 H 169.582 -4.392 -0.00563416 0
M  V30 1824 H 170.188 -3.93893 1.60402 0
M  V30 1825 N 168.503 -0.877838 -1.30888 0
M  V30 1826 C 169.433 -0.35534 -2.3078 0
M  V30 1827 C 170.414 0.557994 -1.60687 0
M  V30 1828 O 171.599 0.473355 -1.88343 0
M  V30 1829 C 168.729 0.437221 -3.44537 0
M  V30 1830 C 167.683 -0.383715 -4.26276 0
M  V30 1831 C 167.009 0.535014 -5.32017 0
M  V30 1832 C 168.309 -1.62201 -4.96476 0
M  V30 1833 H 170.003 -1.19007 -2.74732 0
M  V30 1834 H 167.549 -0.573698 -1.32078 0
M  V30 1835 H 169.502 0.813334 -4.13477 0
M  V30 1836 H 168.226 1.30553 -2.99372 0
M  V30 1837 H 166.885 -0.741874 -3.59015 0
M  V30 1838 H 166.533 1.40083 -4.831 0
M  V30 1839 H 166.233 -0.0104211 -5.87599 0
M  V30 1840 H 167.757 0.907799 -6.03814 0
M  V30 1841 H 169.171 -1.31689 -5.5797 0
M  V30 1842 H 167.568 -2.10711 -5.61891 0
M  V30 1843 H 168.638 -2.37044 -4.23011 0
M  V30 1844 N 169.982 1.44106 -0.638065 0
M  V30 1845 C 171.393 1.85316 -0.226894 0
M  V30 1846 C 171.744 1.53399 1.22324 0
M  V30 1847 O 170.869 0.975463 1.93167 0
M  V30 1848 C 171.464 3.3637 -0.405013 0
M  V30 1849 C 170.023 3.76369 -0.0482902 0
M  V30 1850 C 169.17 2.67921 -0.715108 0
M  V30 1851 H 172.121 1.34474 -0.842764 0
M  V30 1852 H 172.142 3.7885 0.354 0
M  V30 1853 H 171.654 3.59569 -1.46053 0
M  V30 1854 H 169.755 3.58784 1.00522 0
M  V30 1855 H 169.868 4.76856 -0.463187 0
M  V30 1856 H 168.232 2.54259 -0.149753 0
M  V30 1857 H 169.015 2.93951 -1.77335 0
M  V30 1858 N 171.46 0.379036 1.52974 0
M  V30 1859 C 172.423 -0.448865 2.24762 0
M  V30 1860 C 173.423 -0.998689 1.26027 0
M  V30 1861 O 174.613 -0.882313 1.50203 0
M  V30 1862 C 171.745 -1.62872 2.99476 0
M  V30 1863 H 172.938 0.179491 2.99362 0
M  V30 1864 H 170.491 0.13096 1.5575 0
M  V30 1865 H 171.226 -2.29479 2.29151 0
M  V30 1866 H 171.011 -1.24128 3.71934 0
M  V30 1867 H 172.501 -2.2151 3.5401 0
M  V30 1868 N 172.938 -1.57226 0.108567 0
M  V30 1869 C 173.868 -2.17778 -0.84232 0
M  V30 1870 C 174.849 -1.11487 -1.2847 0
M  V30 1871 O 176.034 -1.39681 -1.34918 0
M  V30 1872 C 173.164 -2.76888 -2.09644 0
M  V30 1873 C 172.118 -3.88669 -1.79221 0
M  V30 1874 C 171.444 -4.34541 -3.11574 0
M  V30 1875 C 172.744 -5.11251 -1.06864 0
M  V30 1876 H 174.438 -2.97489 -0.337774 0
M  V30 1877 H 171.984 -1.43097 -0.161025 0
M  V30 1878 H 173.937 -3.17904 -2.76614 0
M  V30 1879 H 172.661 -1.94451 -2.62405 0
M  V30 1880 H 171.32 -3.48213 -1.14644 0
M  V30 1881 H 170.968 -3.48977 -3.62249 0
M  V30 1882 H 170.668 -5.09914 -2.91996 0
M  V30 1883 H 172.192 -4.782 -3.7968 0
M  V30 1884 H 173.606 -5.49352 -1.63968 0
M  V30 1885 H 172.003 -5.9214 -0.974178 0
M  V30 1886 H 173.073 -4.8487 -0.0536168 0
M  V30 1887 N 174.416 0.165178 -1.56732 0
M  V30 1888 C 175.644 0.896218 -1.86482 0
M  V30 1889 C 176.059 1.75555 -0.694675 0
M  V30 1890 O 175.416 1.79379 0.33607 0
M  V30 1891 C 175.467 1.76792 -3.1532 0
M  V30 1892 O 175.188 0.943239 -4.27825 0
M  V30 1893 C 176.689 2.6081 -3.58459 0
M  V30 1894 H 173.909 0.260064 -0.618553 0
M  V30 1895 H 176.453 0.163428 -2.03846 0
M  V30 1896 H 174.608 2.45398 -2.99764 0
M  V30 1897 H 175.022 1.53998 -5.01383 0
M  V30 1898 H 176.496 3.17579 -4.51495 0
M  V30 1899 H 176.973 3.35977 -2.82872 0
M  V30 1900 H 177.579 1.97526 -3.76648 0
M  V30 1901 N 175.894 1.51508 0.433938 0
M  V30 1902 C 177.14 1.64588 1.18484 0
M  V30 1903 C 177.473 0.362666 1.90784 0
M  V30 1904 O 176.748 -0.637892 1.83742 0
M  V30 1905 C 177.031 2.85149 2.19913 0
M  V30 1906 C 176.884 4.23456 1.51674 0
M  V30 1907 C 178.203 3.01227 3.20858 0
M  V30 1908 H 175.322 0.598994 0.429389 0
M  V30 1909 H 177.964 1.84002 0.473647 0
M  V30 1910 H 176.114 2.68729 2.80566 0
M  V30 1911 H 177.786 4.51552 0.943322 0
M  V30 1912 H 176.029 4.25998 0.819035 0
M  V30 1913 H 176.7 5.03812 2.2556 0
M  V30 1914 H 179.176 3.16382 2.70263 0
M  V30 1915 H 178.052 3.87141 3.89118 0
M  V30 1916 H 178.313 2.13447 3.8716 0
M  V30 1917 N 177.372 -0.689602 1.41712 0
M  V30 1918 C 178.302 -1.81577 1.46806 0
M  V30 1919 C 179.283 -1.66945 0.326105 0
M  V30 1920 O 180.468 -1.86588 0.538377 0
M  V30 1921 C 177.598 -3.19762 1.35535 0
M  V30 1922 C 176.552 -3.49107 2.47605 0
M  V30 1923 C 175.878 -4.86711 2.21397 0
M  V30 1924 C 177.178 -3.47483 3.89939 0
M  V30 1925 H 178.872 -1.7757 2.41058 0
M  V30 1926 H 176.418 -0.852887 1.16025 0
M  V30 1927 H 178.371 -3.98263 1.3771 0
M  V30 1928 H 177.095 -3.24409 0.377708 0
M  V30 1929 H 175.754 -2.72959 2.44722 0
M  V30 1930 H 175.402 -4.8799 1.21961 0
M  V30 1931 H 175.102 -5.0731 2.96497 0
M  V30 1932 H 176.626 -5.67515 2.25297 0
M  V30 1933 H 178.04 -4.1598 3.94505 0
M  V30 1934 H 176.437 -3.79615 4.64771 0
M  V30 1935 H 177.507 -2.46341 4.17665 0
M  V30 1936 N 178.85 -1.27639 -0.924453 0
M  V30 1937 C 180.127 -1.04887 -1.651 0
M  V30 1938 C 180.507 0.415327 -2.06974 0
M  V30 1939 O 179.855 1.39923 -1.80648 0
M  V30 1940 C 180.065 -2.01348 -2.85061 0
M  V30 1941 C 181.413 -2.30899 -3.56329 0
M  V30 1942 O 182.437 -1.99348 -2.95193 0
M  V30 1943 O 181.296 -2.84699 -4.66485 0
M  V30 1944 H 178.39 -0.400083 -0.723784 0
M  V30 1945 H 180.936 -1.38916 -0.974703 0
M  V30 1946 H 179.708 -3.0008 -2.51133 0
M  V30 1947 H 179.331 -1.679 -3.6041 0
M  V30 1948 N 180.328 1.1314 -1.09713 0
M  V30 1949 C 181.574 1.84757 -0.836224 0
M  V30 1950 C 181.907 1.8347 0.636598 0
M  V30 1951 O 181.182 1.27491 1.46889 0
M  V30 1952 C 181.465 3.32782 -1.37578 0
M  V30 1953 C 181.318 3.42567 -2.91493 0
M  V30 1954 C 182.637 4.28307 -1.01198 0
M  V30 1955 H 179.756 0.67082 -0.305236 0
M  V30 1956 H 182.398 1.3278 -1.35903 0
M  V30 1957 H 180.548 3.77177 -0.931097 0
M  V30 1958 H 182.22 3.06862 -3.44432 0
M  V30 1959 H 180.463 2.83349 -3.28475 0
M  V30 1960 H 181.134 4.46674 -3.24324 0
M  V30 1961 H 183.61 3.91999 -1.39556 0
M  V30 1962 H 182.486 5.30307 -1.41653 0
M  V30 1963 H 182.747 4.42029 0.0794833 0
M  V30 1964 N 181.806 0.884767 1.30421 0
M  V30 1965 C 183.031 0.517288 2.00845 0
M  V30 1966 C 183.456 -0.886779 1.65885 0
M  V30 1967 O 182.814 -1.58768 0.875354 0
M  V30 1968 C 182.862 0.698994 3.5376 0
M  V30 1969 O 181.966 -0.255208 4.1161 0
M  V30 1970 H 181.307 0.203872 0.631927 0
M  V30 1971 H 183.837 1.19225 1.66272 0
M  V30 1972 H 183.847 0.597912 4.03595 0
M  V30 1973 H 182.522 1.72271 3.78544 0
M  V30 1974 H 181.099 -0.10784 3.72744 0
M  V30 1975 N 183.284 -1.43765 0.645699 0
M  V30 1976 C 184.531 -2.01898 0.15604 0
M  V30 1977 C 184.859 -1.50887 -1.22733 0
M  V30 1978 O 184.114 -0.689271 -1.8316 0
M  V30 1979 C 184.413 -3.57238 0.107679 0
M  V30 1980 C 184.079 -4.27564 1.43178 0
M  V30 1981 C 182.741 -4.46492 1.7944 0
M  V30 1982 C 185.093 -4.67454 2.30513 0
M  V30 1983 C 182.421 -5.02573 3.02716 0
M  V30 1984 C 184.773 -5.24901 3.53074 0
M  V30 1985 C 183.437 -5.42046 3.89541 0
M  V30 1986 H 182.707 -0.738797 0.057099 0
M  V30 1987 H 185.354 -1.72341 0.834912 0
M  V30 1988 H 183.659 -3.86293 -0.654618 0
M  V30 1989 H 185.356 -3.99965 -0.287938 0
M  V30 1990 H 181.946 -4.13171 1.13963 0
M  V30 1991 H 186.13 -4.5253 2.0379 0
M  V30 1992 H 181.386 -5.14033 3.31028 0
M  V30 1993 H 185.56 -5.54758 4.20971 0
M  V30 1994 H 183.187 -5.85268 4.85145 0
M  V30 1995 N 184.763 -0.387143 -1.52771 0
M  V30 1996 C 185.711 0.463953 -2.27926 0
M  V30 1997 C 186.705 1.06493 -1.31741 0
M  V30 1998 O 187.911 1.00565 -1.49287 0
M  V30 1999 H 184.286 0.16837 -0.732909 0
M  V30 2000 H 186.257 -0.19141 -2.97785 0
M  V30 2001 C 185.006 1.5803 -3.09713 0
M  V30 2002 H 184.329 1.12718 -3.83581 0
M  V30 2003 H 185.769 2.15008 -3.65442 0
M  V30 2004 C 184.228 2.53509 -2.2189 0
M  V30 2005 O 184.758 3.56863 -1.84422 0
M  V30 2006 N 182.964 2.23199 -1.86093 0
M  V30 2007 H 182.511 1.39185 -2.16761 0
M  V30 2008 H 182.469 2.87333 -1.27621 0
M  V30 2009 N 186.241 1.57166 -0.116904 0
M  V30 2010 C 187.657 1.5779 0.239693 0
M  V30 2011 C 187.857 1.1295 1.66867 0
M  V30 2012 O 186.913 0.81592 2.38954 0
M  V30 2013 C 188.226 3.00699 0.00828202 0
M  V30 2014 C 189.774 3.12912 0.0743438 0
M  V30 2015 C 190.249 4.57817 -0.129348 0
M  V30 2016 N 191.74 4.63139 -0.075247 0
M  V30 2017 C 192.475 5.73023 -0.207788 0
M  V30 2018 N 191.971 6.91665 -0.396382 0
M  V30 2019 N 193.764 5.61906 -0.14751 0
M  V30 2020 H 185.915 1.84615 -1.05029 0
M  V30 2021 H 188.178 0.85311 -0.41341 0
M  V30 2022 H 187.884 3.37784 -0.979531 0
M  V30 2023 H 187.758 3.69848 0.741077 0
M  V30 2024 H 190.145 2.75686 1.05268 0
M  V30 2025 H 190.226 2.4631 -0.690297 0
M  V30 2026 H 189.87 4.95742 -1.10465 0
M  V30 2027 H 189.8 5.22507 0.655253 0
M  V30 2028 H 192.291 3.7784 0.0670898 0
M  V30 2029 H 192.604 7.71255 -0.488437 0
M  V30 2030 H 190.949 6.93654 -0.432329 0
M  V30 2031 H 194.14 4.681 -0.00115036 0
M  V30 2032 H 194.313 6.47501 -0.254247 0
M  V30 2033 N 187.719 -0.156864 1.56817 0
M  V30 2034 C 188.649 -1.19589 2.00551 0
M  V30 2035 C 189.63 -1.4536 0.883426 0
M  V30 2036 O 190.815 -1.56449 1.15054 0
M  V30 2037 C 187.945 -2.53143 2.37773 0
M  V30 2038 C 186.899 -2.41913 3.53075 0
M  V30 2039 C 186.225 -3.80088 3.76081 0
M  V30 2040 C 187.525 -1.91157 4.86062 0
M  V30 2041 H 189.219 -0.832293 2.87599 0
M  V30 2042 H 186.765 -0.398918 1.38364 0
M  V30 2043 H 188.718 -3.26047 2.66967 0
M  V30 2044 H 187.442 -2.91319 1.4765 0
M  V30 2045 H 186.101 -1.71462 3.24031 0
M  V30 2046 H 185.749 -4.15683 2.83225 0
M  V30 2047 H 185.449 -3.73439 4.53671 0
M  V30 2048 H 186.973 -4.54556 4.0769 0
M  V30 2049 H 188.387 -2.53846 5.14038 0
M  V30 2050 H 186.784 -1.95422 5.67389 0
M  V30 2051 H 187.854 -0.866673 4.77092 0
M  V30 2052 N 189.197 -1.51736 -0.425897 0
M  V30 2053 C 190.425 -1.68794 -1.1965 0
M  V30 2054 C 190.84 -0.390164 -1.84725 0
M  V30 2055 O 190.197 0.632376 -1.71194 0
M  V30 2056 C 190.248 -2.81174 -2.27208 0
M  V30 2057 O 189.969 -4.05925 -1.64793 0
M  V30 2058 C 191.47 -3.09599 -3.17275 0
M  V30 2059 H 188.69 -0.566128 -0.360194 0
M  V30 2060 H 191.234 -1.98211 -0.503249 0
M  V30 2061 H 189.389 -2.54324 -2.9223 0
M  V30 2062 H 189.803 -4.68423 -2.35967 0
M  V30 2063 H 191.277 -3.91786 -3.88854 0
M  V30 2064 H 191.754 -2.22468 -3.78688 0
M  V30 2065 H 192.36 -3.38151 -2.57941 0
M  V30 2066 N 190.675 0.682077 -1.42076 0
M  V30 2067 C 191.9 1.47558 -1.45744 0
M  V30 2068 C 192.325 1.87977 -0.0680981 0
M  V30 2069 O 191.683 1.55522 0.9318 0
M  V30 2070 C 191.731 2.70575 -2.38373 0
M  V30 2071 O 190.835 3.68573 -1.85007 0
M  V30 2072 H 190.176 0.443585 -0.494093 0
M  V30 2073 H 192.706 0.837238 -1.86686 0
M  V30 2074 H 192.716 3.18729 -2.54707 0
M  V30 2075 H 191.391 2.40495 -3.39315 0
M  V30 2076 H 189.968 3.2757 -1.78192 0
M  V30 2077 N 192.153 1.28127 0.917671 0
M  V30 2078 C 193.083 1.14248 2.03641 0
M  V30 2079 C 194.064 0.0412748 1.7005 0
M  V30 2080 O 195.249 0.217566 1.92977 0
M  V30 2081 C 192.379 0.799431 3.37974 0
M  V30 2082 C 191.333 1.85497 3.85713 0
M  V30 2083 C 190.659 1.36565 5.16966 0
M  V30 2084 C 191.959 3.26085 4.08002 0
M  V30 2085 H 193.653 2.07835 2.15511 0
M  V30 2086 H 191.199 1.00064 1.03553 0
M  V30 2087 H 193.152 0.689114 4.15727 0
M  V30 2088 H 191.876 -0.172145 3.26146 0
M  V30 2089 H 190.535 1.95437 3.10161 0
M  V30 2090 H 190.183 0.383253 5.01538 0
M  V30 2091 H 189.883 2.07143 5.49878 0
M  V30 2092 H 191.407 1.26848 5.97279 0
M  V30 2093 H 192.821 3.19089 4.76293 0
M  V30 2094 H 191.218 3.94462 4.52238 0
M  V30 2095 H 192.288 3.70394 3.12948 0
M  V30 2096 N 193.631 -1.12557 1.10312 0
M  V30 2097 C 195.042 -1.65574 0.862678 0
M  V30 2098 C 195.393 -1.86566 -0.607256 0
M  V30 2099 O 194.518 -1.59121 -1.46662 0
M  V30 2100 C 195.113 -3.00776 1.55947 0
M  V30 2101 C 193.672 -3.50748 1.36576 0
M  V30 2102 C 192.819 -2.25797 1.60968 0
M  V30 2103 H 195.77 -0.963552 1.26101 0
M  V30 2104 H 195.791 -3.67185 0.997753 0
M  V30 2105 H 195.303 -2.85465 2.62928 0
M  V30 2106 H 193.404 -3.71245 0.317531 0
M  V30 2107 H 193.517 -4.30289 2.10686 0
M  V30 2108 H 191.881 -2.32841 1.03234 0
M  V30 2109 H 192.664 -2.13043 2.69198 0
M  V30 2110 N 195.109 -0.891671 -1.2995 0
M  V30 2111 C 196.039 -0.379797 -2.30391 0
M  V30 2112 C 197.02 0.540919 -1.6127 0
M  V30 2113 O 198.205 0.453352 -1.88834 0
M  V30 2114 C 195.335 0.400654 -3.44981 0
M  V30 2115 C 194.289 -0.428905 -4.25846 0
M  V30 2116 C 193.615 0.478557 -5.32554 0
M  V30 2117 C 194.915 -1.67458 -4.94727 0
M  V30 2118 H 196.609 -1.21914 -2.73454 0
M  V30 2119 H 194.155 -0.587675 -1.31462 0
M  V30 2120 H 196.108 0.769434 -4.14316 0
M  V30 2121 H 194.832 1.27371 -3.0074 0
M  V30 2122 H 193.491 -0.779911 -3.58208 0
M  V30 2123 H 193.139 1.34951 -4.84559 0
M  V30 2124 H 192.839 -0.0727433 -5.87555 0
M  V30 2125 H 194.363 0.843705 -6.04743 0
M  V30 2126 H 195.777 -1.376 -5.56542 0
M  V30 2127 H 194.174 -2.16659 -5.59624 0
M  V30 2128 H 195.244 -2.41518 -4.20473 0
M  V30 2129 N 196.587 1.43421 -0.653314 0
M  V30 2130 C 197.835 2.01414 -0.166415 0
M  V30 2131 C 198.156 1.51803 1.22397 0
M  V30 2132 O 197.426 0.730693 1.81763 0
M  V30 2133 H 196.006 0.744703 -0.0585319 0
M  V30 2134 H 198.668 1.75629 -0.845003 0
M  V30 2135 H 197.764 3.11734 -0.151111 0
M  V30 2136 N 198.065 0.39524 1.52563 0
M  V30 2137 C 199.028 -0.425001 2.25225 0
M  V30 2138 C 200.028 -0.985266 1.27079 0
M  V30 2139 O 201.218 -0.866332 1.5113 0
M  V30 2140 C 198.35 -1.59686 3.01186 0
M  V30 2141 H 199.543 0.211233 2.99155 0
M  V30 2142 H 197.096 0.147472 1.55603 0
M  V30 2143 H 197.831 -2.27035 2.31572 0
M  V30 2144 H 197.616 -1.20176 3.73229 0
M  V30 2145 H 199.106 -2.17743 3.5634 0
M  V30 2146 N 199.544 -1.57102 0.125237 0
M  V30 2147 C 200.474 -2.18659 -0.819174 0
M  V30 2148 C 201.455 -1.12843 -1.27281 0
M  V30 2149 O 202.64 -1.41104 -1.33429 0
M  V30 2150 C 199.77 -2.79096 -2.06695 0
M  V30 2151 C 198.724 -3.90548 -1.75088 0
M  V30 2152 C 198.05 -4.37821 -3.06948 0
M  V30 2153 C 199.35 -5.12356 -1.01435 0
M  V30 2154 H 201.044 -2.9783 -0.306202 0
M  V30 2155 H 198.59 -1.4326 -0.145839 0
M  V30 2156 H 200.543 -3.2082 -2.73226 0
M  V30 2157 H 199.267 -1.97223 -2.60328 0
M  V30 2158 H 197.926 -3.49409 -1.10944 0
M  V30 2159 H 197.574 -3.52799 -3.58527 0
M  V30 2160 H 197.274 -5.12982 -2.86571 0
M  V30 2161 H 198.798 -4.822 -3.74587 0
M  V30 2162 H 200.212 -5.5106 -1.58132 0
M  V30 2163 H 198.609 -5.9314 -0.911319 0
M  V30 2164 H 199.679 -4.849 -0.00218681 0
M  V30 2165 N 201.022 0.148545 -1.56898 0
M  V30 2166 C 202.438 0.501131 -1.51528 0
M  V30 2167 C 202.638 1.83458 -0.833399 0
M  V30 2168 O 201.694 2.49259 -0.40328 0
M  V30 2169 C 203.007 0.512864 -2.96294 0
M  V30 2170 C 204.555 0.598487 -3.07225 0
M  V30 2171 C 205.03 0.640897 -4.53494 0
M  V30 2172 N 206.521 0.703163 -4.57832 0
M  V30 2173 C 207.256 0.756935 -5.68382 0
M  V30 2174 N 206.752 0.770147 -6.88506 0
M  V30 2175 N 208.545 0.797698 -5.56411 0
M  V30 2176 H 200.696 -0.725532 -1.99624 0
M  V30 2177 H 202.959 -0.264358 -0.910395 0
M  V30 2178 H 202.665 -0.398691 -3.49433 0
M  V30 2179 H 202.539 1.35133 -3.52163 0
M  V30 2180 H 204.926 1.50046 -2.54106 0
M  V30 2181 H 205.007 -0.267093 -2.54402 0
M  V30 2182 H 204.651 -0.256915 -5.0725 0
M  V30 2183 H 204.581 1.52295 -5.04097 0
M  V30 2184 H 207.072 0.700314 -3.71354 0
M  V30 2185 H 207.385 0.812983 -7.68512 0
M  V30 2186 H 205.73 0.738049 -6.9107 0
M  V30 2187 H 208.921 0.784535 -4.61479 0
M  V30 2188 H 209.094 0.83614 -6.42583 0
M  V30 2189 N 202.5 1.5196 0.417844 0
M  V30 2190 C 203.748 1.65263 1.16329 0
M  V30 2191 C 204.069 0.380634 1.91249 0
M  V30 2192 O 203.339 -0.604214 1.86349 0
M  V30 2193 H 201.919 0.60912 0.432414 0
M  V30 2194 H 204.581 1.88969 0.477162 0
M  V30 2195 H 203.677 2.4896 1.88217 0
M  V30 2196 N 203.978 -0.674533 1.42435 0
M  V30 2197 C 204.908 -1.80009 1.48724 0
M  V30 2198 C 205.889 -1.6659 0.343793 0
M  V30 2199 O 207.074 -1.86007 0.558137 0
M  V30 2200 C 204.204 -3.18306 1.38919 0
M  V30 2201 C 203.158 -3.46461 2.51294 0
M  V30 2202 C 202.484 -4.84335 2.26547 0
M  V30 2203 C 203.784 -3.43328 3.93603 0
M  V30 2204 H 205.478 -1.75004 2.42928 0
M  V30 2205 H 203.024 -0.840533 1.16923 0
M  V30 2206 H 204.977 -3.9678 1.41927 0
M  V30 2207 H 203.701 -3.2399 0.412094 0
M  V30 2208 H 202.36 -2.70348 2.47604 0
M  V30 2209 H 202.008 -4.86669 1.2713 0
M  V30 2210 H 201.708 -5.04136 3.01861 0
M  V30 2211 H 203.232 -5.65094 2.31304 0
M  V30 2212 H 204.646 -4.11772 3.98894 0
M  V30 2213 H 203.043 -3.74664 4.68771 0
M  V30 2214 H 204.113 -2.41897 4.20255 0
M  V30 2215 N 205.456 -1.28612 -0.910864 0
M  V30 2216 C 206.704 -1.15705 -1.65701 0
M  V30 2217 C 207.025 0.29416 -1.92769 0
M  V30 2218 O 206.295 1.20331 -1.54588 0
M  V30 2219 H 204.875 -0.425216 -0.614167 0
M  V30 2220 H 207.537 -1.61381 -1.0928 0
M  V30 2221 H 206.633 -1.6988 -2.61815 0
M  V30 2222 N 206.934 1.1197 -1.10907 0
M  V30 2223 C 207.844 2.21433 -0.774896 0
M  V30 2224 C 208.86 1.72478 0.229657 0
M  V30 2225 O 210.036 2.01288 0.0672008 0
M  V30 2226 C 207.101 3.4602 -0.216986 0
M  V30 2227 C 206.162 4.09791 -1.27944 0
M  V30 2228 C 205.395 5.28431 -0.748055 0
M  V30 2229 O 205.618 5.68823 0.423833 0
M  V30 2230 O 204.552 5.82644 -1.51027 0
M  V30 2231 H 208.378 2.5242 -1.68873 0
M  V30 2232 H 205.963 1.20399 -0.884555 0
M  V30 2233 H 207.845 4.21304 0.090059 0
M  V30 2234 H 206.52 3.16698 0.669633 0
M  V30 2235 H 205.427 3.36265 -1.63941 0
M  V30 2236 H 206.76 4.4328 -2.13925 0
M  V30 2237 N 208.412 0.89855 1.29475 0
M  V30 2238 C 209.342 0.39201 2.30186 0
M  V30 2239 C 210.323 -0.532359 1.61555 0
M  V30 2240 O 211.508 -0.443331 1.89072 0
M  V30 2241 C 208.638 -0.382353 3.45189 0
M  V30 2242 C 207.592 0.451483 4.25612 0
M  V30 2243 C 206.918 -0.450307 5.328 0
M  V30 2244 C 208.218 1.70079 4.93832 0
M  V30 2245 H 209.912 1.23362 2.72804 0
M  V30 2246 H 207.458 0.594638 1.31149 0
M  V30 2247 H 209.411 -0.747451 4.14718 0
M  V30 2248 H 208.135 -1.25774 3.01411 0
M  V30 2249 H 206.794 0.798897 3.57789 0
M  V30 2250 H 206.442 -1.32379 4.85268 0
M  V30 2251 H 206.142 0.103902 5.87508 0
M  V30 2252 H 207.666 -0.811623 6.05182 0
M  V30 2253 H 209.08 1.40549 5.55805 0
M  V30 2254 H 207.477 2.19623 5.58467 0
M  V30 2255 H 208.547 2.43744 4.19186 0
M  V30 2256 N 209.89 -1.43072 0.660911 0
M  V30 2257 C 210.822 -2.29108 -0.0647641 0
M  V30 2258 C 211.835 -1.42928 -0.779448 0
M  V30 2259 O 213.024 -1.66788 -0.635921 0
M  V30 2260 C 210.124 -3.20032 -1.11503 0
M  V30 2261 C 209.297 -4.34792 -0.476955 0
M  V30 2262 C 208.356 -5.06534 -1.42513 0
M  V30 2263 O 207.382 -5.61538 -0.930771 0
M  V30 2264 N 208.584 -5.1075 -2.75889 0
M  V30 2265 H 211.349 -2.92029 0.673731 0
M  V30 2266 H 208.91 -1.53846 0.50427 0
M  V30 2267 H 210.902 -3.64892 -1.75032 0
M  V30 2268 H 209.472 -2.58658 -1.75541 0
M  V30 2269 H 208.692 -3.92752 0.337572 0
M  V30 2270 H 209.98 -5.0879 -0.0318525 0
M  V30 2271 H 209.378 -4.67447 -3.18606 0
M  V30 2272 H 207.935 -5.59302 -3.347 0
M  V30 2273 N 211.368 -0.403325 -1.52352 0
M  V30 2274 C 212.278 0.432009 -2.30588 0
M  V30 2275 C 213.294 1.05884 -1.38075 0
M  V30 2276 O 214.47 1.06161 -1.71148 0
M  V30 2277 C 211.535 1.53669 -3.10784 0
M  V30 2278 C 210.596 0.933525 -4.19027 0
M  V30 2279 C 209.829 1.98557 -4.9539 0
M  V30 2280 O 210.052 3.20283 -4.71991 0
M  V30 2281 O 208.986 1.59504 -5.80381 0
M  V30 2282 H 212.812 -0.205739 -3.03002 0
M  V30 2283 H 210.397 -0.166675 -1.48467 0
M  V30 2284 H 212.279 2.17814 -3.60742 0
M  V30 2285 H 210.954 2.15915 -2.41169 0
M  V30 2286 H 209.861 0.254954 -3.7323 0
M  V30 2287 H 211.194 0.35508 -4.90918 0
M  V30 2288 N 212.846 1.57033 -0.133567 0
M  V30 2289 C 213.776 2.1909 0.807567 0
M  V30 2290 C 214.757 1.13517 1.26681 0
M  V30 2291 O 215.942 1.41809 1.32679 0
M  V30 2292 C 213.072 2.80188 2.05212 0
M  V30 2293 C 212.026 3.91471 1.73015 0
M  V30 2294 C 211.352 4.39443 3.04622 0
M  V30 2295 C 212.652 5.12886 0.987168 0
M  V30 2296 H 214.346 2.97988 0.290403 0
M  V30 2297 H 211.892 1.43335 0.138239 0
M  V30 2298 H 213.845 3.22264 2.71521 0
M  V30 2299 H 212.569 1.98601 2.59278 0
M  V30 2300 H 211.228 3.49993 1.0909 0
M  V30 2301 H 210.876 3.54695 3.56651 0
M  V30 2302 H 210.576 5.14495 2.83847 0
M  V30 2303 H 212.1 4.8418 3.72024 0
M  V30 2304 H 213.514 5.51891 1.55208 0
M  V30 2305 H 211.911 5.93615 0.87985 0
M  V30 2306 H 212.981 4.84894 -0.0235286 0
M  V30 2307 N 214.325 -0.140222 1.56975 0
M  V30 2308 C 215.555 -0.865181 1.87612 0
M  V30 2309 C 215.963 -1.74942 0.72055 0
M  V30 2310 O 215.306 -1.80917 -0.318561 0
M  V30 2311 C 215.368 -1.76782 3.13031 0
M  V30 2312 C 215.032 -1.06005 4.44536 0
M  V30 2313 C 216.029 -0.410768 5.18275 0
M  V30 2314 C 213.714 -1.04754 4.91255 0
M  V30 2315 C 215.708 0.241572 6.36942 0
M  V30 2316 C 213.395 -0.391394 6.09845 0
M  V30 2317 C 214.393 0.252029 6.82535 0
M  V30 2318 O 214.081 0.897757 7.98871 0
M  V30 2319 H 213.813 -0.255188 0.625983 0
M  V30 2320 H 216.367 -0.135653 2.04952 0
M  V30 2321 H 214.597 -2.53846 2.91718 0
M  V30 2322 H 216.286 -2.36533 3.29859 0
M  V30 2323 H 217.052 -0.412195 4.83245 0
M  V30 2324 H 212.931 -1.53777 4.34596 0
M  V30 2325 H 216.475 0.744375 6.93617 0
M  V30 2326 H 212.372 -0.387656 6.44335 0
M  V30 2327 H 213.14 0.800102 8.1458 0
M  V30 2328 N 215.803 -1.52179 -0.40978 0
M  V30 2329 C 216.733 -1.78435 -1.5061 0
M  V30 2330 C 217.714 -0.635295 -1.57791 0
M  V30 2331 O 218.899 -0.880823 -1.73076 0
M  V30 2332 C 216.029 -1.93444 -2.88439 0
M  V30 2333 C 214.983 -3.09038 -2.96108 0
M  V30 2334 C 214.309 -3.09268 -4.36185 0
M  V30 2335 C 215.609 -4.48508 -2.67652 0
M  V30 2336 H 217.303 -2.70237 -1.28889 0
M  V30 2337 H 214.849 -1.30036 -0.618605 0
M  V30 2338 H 216.802 -2.10394 -3.65119 0
M  V30 2339 H 215.526 -0.983129 -3.11452 0
M  V30 2340 H 214.185 -2.91837 -2.21872 0
M  V30 2341 H 213.833 -2.11861 -4.56206 0
M  V30 2342 H 213.533 -3.86907 -4.42241 0
M  V30 2343 H 215.057 -3.28348 -5.14801 0
M  V30 2344 H 216.471 -4.65918 -3.34056 0
M  V30 2345 H 214.868 -5.28059 -2.85085 0
M  V30 2346 H 215.938 -4.56649 -1.63095 0
M  V30 2347 N 217.281 0.66697 -1.42791 0
M  V30 2348 C 218.228 1.7803 -1.4688 0
M  V30 2349 C 219.198 1.6299 -0.319919 0
M  V30 2350 O 220.383 1.83432 -0.525118 0
M  V30 2351 C 217.523 3.1611 -1.38451 0
M  V30 2352 C 216.636 3.42381 -2.63437 0
M  V30 2353 C 215.771 4.70232 -2.47094 0
M  V30 2354 C 214.81 4.89564 -3.67415 0
M  V30 2355 N 213.947 6.08661 -3.49966 0
M  V30 2356 H 218.787 1.7387 -2.42019 0
M  V30 2357 H 216.324 0.84868 -1.20149 0
M  V30 2358 H 218.282 3.95914 -1.31561 0
M  V30 2359 H 216.912 3.19374 -0.469033 0
M  V30 2360 H 215.964 2.56774 -2.80662 0
M  V30 2361 H 217.276 3.52557 -3.52853 0
M  V30 2362 H 216.43 5.5814 -2.37834 0
M  V30 2363 H 215.169 4.62353 -1.5518 0
M  V30 2364 H 214.174 4.00096 -3.77099 0
M  V30 2365 H 215.399 4.99282 -4.6032 0
M  V30 2366 H 213.345 6.0194 -2.60776 0
M  V30 2367 H 213.262 6.19733 -4.32975 0
M  V30 2368 H 214.53 6.99226 -3.44532 0
M  V30 2369 N 218.759 1.29093 0.90403 0
M  V30 2370 C 220.007 1.16583 1.65085 0
M  V30 2371 C 220.328 -0.283933 1.92922 0
M  V30 2372 O 219.598 -1.19509 1.55224 0
M  V30 2373 H 218.178 0.428467 0.611903 0
M  V30 2374 H 220.84 1.61959 1.08422 0
M  V30 2375 H 219.936 1.71266 2.6091 0
M  V30 2376 N 220.237 -1.11381 1.11499 0
M  V30 2377 C 221.185 -2.19522 0.768956 0
M  V30 2378 C 222.179 -1.67693 -0.239857 0
M  V30 2379 O 223.385 -1.79727 -0.0990755 0
M  V30 2380 H 219.76 -0.715711 0.230786 0
M  V30 2381 H 221.731 -2.45954 1.68964 0
M  V30 2382 C 220.48 -3.46945 0.229073 0
M  V30 2383 H 219.803 -3.8718 0.996596 0
M  V30 2384 H 221.243 -4.23993 0.0251441 0
M  V30 2385 C 219.702 -3.2042 -1.04079 0
M  V30 2386 O 220.232 -3.41178 -2.12038 0
M  V30 2387 N 218.438 -2.74151 -0.963823 0
M  V30 2388 H 217.985 -2.57459 -0.0851722 0
M  V30 2389 H 217.943 -2.56781 -1.81414 0
M  V30 2390 N 221.715 -0.905404 -1.28997 0
M  V30 2391 C 222.625 -0.392246 -2.31298 0
M  V30 2392 C 223.641 0.515889 -1.66176 0
M  V30 2393 O 224.817 0.404093 -1.97304 0
M  V30 2394 C 221.882 0.36686 -3.44754 0
M  V30 2395 C 220.943 -0.573485 -4.25452 0
M  V30 2396 C 220.176 0.149488 -5.33491 0
M  V30 2397 O 220.399 1.37255 -5.5364 0
M  V30 2398 O 219.333 -0.510919 -5.99728 0
M  V30 2399 H 223.159 -1.2411 -2.77183 0
M  V30 2400 H 220.744 -0.669926 -1.33538 0
M  V30 2401 H 222.626 0.795907 -4.13816 0
M  V30 2402 H 221.301 1.19169 -3.00966 0
M  V30 2403 H 220.208 -1.05176 -3.59011 0
M  V30 2404 H 221.541 -1.36489 -4.72897 0
M  V30 2405 N 223.193 1.4272 -0.668489 0
M  V30 2406 C 224.123 2.335 -0.000100175 0
M  V30 2407 C 225.104 1.50328 0.795964 0
M  V30 2408 O 226.289 1.78949 0.754385 0
M  V30 2409 C 223.419 3.33874 0.956302 0
M  V30 2410 C 222.373 4.27152 0.269278 0
M  V30 2411 C 221.699 5.17684 1.33818 0
M  V30 2412 C 222.999 5.15373 -0.847805 0
M  V30 2413 H 224.693 2.89639 -0.758244 0
M  V30 2414 H 222.239 1.39269 -0.366079 0
M  V30 2415 H 224.192 3.9629 1.43292 0
M  V30 2416 H 222.916 2.76025 1.74579 0
M  V30 2417 H 221.575 3.66123 -0.187042 0
M  V30 2418 H 221.223 4.56165 2.1195 0
M  V30 2419 H 220.923 5.80918 0.883659 0
M  V30 2420 H 222.447 5.82974 1.81586 0
M  V30 2421 H 223.861 5.7151 -0.452681 0
M  V30 2422 H 222.258 5.87407 -1.22773 0
M  V30 2423 H 223.328 4.5415 -1.69929 0
M  V30 2424 N 224.671 0.411399 1.52136 0
M  V30 2425 C 225.618 -0.412975 2.27075 0
M  V30 2426 C 226.588 -1.03912 1.29582 0
M  V30 2427 O 227.773 -1.06296 1.58448 0
M  V30 2428 C 224.913 -1.52247 3.09701 0
M  V30 2429 C 224.026 -0.917021 4.22155 0
M  V30 2430 C 223.161 -1.9994 4.92135 0
M  V30 2431 C 222.2 -1.37101 5.96548 0
M  V30 2432 N 221.337 -2.39364 6.60038 0
M  V30 2433 H 226.177 0.232499 2.97092 0
M  V30 2434 H 223.714 0.126496 1.46555 0
M  V30 2435 H 225.672 -2.17674 3.55913 0
M  V30 2436 H 224.302 -2.13794 2.41851 0
M  V30 2437 H 223.354 -0.151742 3.80097 0
M  V30 2438 H 224.666 -0.418006 4.97045 0
M  V30 2439 H 223.82 -2.73088 5.41763 0
M  V30 2440 H 222.559 -2.53208 4.16818 0
M  V30 2441 H 221.564 -0.624873 5.46237 0
M  V30 2442 H 222.789 -0.845998 6.7381 0
M  V30 2443 H 220.735 -2.91759 5.87548 0
M  V30 2444 H 220.652 -1.9428 7.3061 0
M  V30 2445 H 221.92 -3.12074 7.14304 0
M  V30 2446 N 226.149 -1.5696 0.141893 0
M  V30 2447 C 227.377 -2.00322 -0.517579 0
M  V30 2448 C 227.792 -1.02193 -1.58752 0
M  V30 2449 O 227.149 -0.0181619 -1.82491 0
M  V30 2450 C 227.2 -3.43618 -1.12289 0
M  V30 2451 O 226.921 -4.37995 -0.0956929 0
M  V30 2452 C 228.422 -4.02231 -1.86347 0
M  V30 2453 H 225.642 -0.657243 -0.135177 0
M  V30 2454 H 228.186 -2.03146 0.234973 0
M  V30 2455 H 226.341 -3.41662 -1.82609 0
M  V30 2456 H 226.755 -5.21729 -0.538469 0
M  V30 2457 H 228.229 -5.04509 -2.23997 0
M  V30 2458 H 228.706 -3.42655 -2.74744 0
M  V30 2459 H 229.312 -4.07802 -1.20737 0
M  V30 2460 N 227.627 0.131896 -1.57047 0
M  V30 2461 C 228.557 1.16384 -2.02428 0
M  V30 2462 C 229.538 1.43936 -0.90644 0
M  V30 2463 O 230.723 1.54599 -1.17528 0
M  V30 2464 C 227.853 2.49328 -2.4177 0
M  V30 2465 C 226.807 2.36266 -3.56879 0
M  V30 2466 C 226.133 3.74057 -3.8208 0
M  V30 2467 C 227.433 1.834 -4.89042 0
M  V30 2468 H 229.127 0.786433 -2.88887 0
M  V30 2469 H 226.673 0.376855 -1.38981 0
M  V30 2470 H 228.626 3.21759 -2.7212 0
M  V30 2471 H 227.35 2.88934 -1.52266 0
M  V30 2472 H 226.009 1.66286 -3.26718 0
M  V30 2473 H 225.657 4.11125 -2.89803 0
M  V30 2474 H 225.357 3.66174 -4.59554 0
M  V30 2475 H 226.881 4.48012 -4.1487 0
M  V30 2476 H 228.295 2.45636 -5.18011 0
M  V30 2477 H 226.692 1.8637 -5.70426 0
M  V30 2478 H 227.762 0.790662 -4.7841 0
M  V30 2479 N 229.106 1.52395 0.401703 0
M  V30 2480 C 230.517 1.58899 0.980202 0
M  V30 2481 C 230.868 0.434032 1.91339 0
M  V30 2482 O 229.993 -0.444619 2.11783 0
M  V30 2483 C 230.588 2.87994 1.78451 0
M  V30 2484 C 229.147 2.96953 2.31292 0
M  V30 2485 C 228.294 2.53903 1.11483 0
M  V30 2486 H 231.245 1.57657 0.18168 0
M  V30 2487 H 231.266 2.73765 2.64259 0
M  V30 2488 H 230.778 3.72035 1.10506 0
M  V30 2489 H 228.879 2.17422 3.02586 0
M  V30 2490 H 228.992 4.01344 2.61649 0
M  V30 2491 H 227.356 2.07925 1.47104 0
M  V30 2492 H 228.139 3.40326 0.450928 0
M  V30 2493 N 230.584 -0.659388 1.43143 0
M  V30 2494 C 231.995 -1.24041 1.39537 0
M  V30 2495 C 232.346 -1.95963 0.0963364 0
M  V30 2496 O 231.471 -2.00892 -0.804438 0
M  V30 2497 C 232.066 -2.25601 2.52764 0
M  V30 2498 C 230.625 -2.79195 2.52443 0
M  V30 2499 C 229.772 -1.53743 2.30778 0
M  V30 2500 H 232.723 -0.451792 1.52133 0
M  V30 2501 H 232.744 -3.07651 2.23899 0
M  V30 2502 H 232.256 -1.73226 3.47296 0
M  V30 2503 H 230.357 -3.35649 1.61773 0
M  V30 2504 H 230.47 -3.2716 3.50004 0
M  V30 2505 H 228.834 -1.80869 1.79328 0
M  V30 2506 H 229.617 -1.03312 3.27386 0
M  V30 2507 N 232.062 -1.29571 -0.897171 0
M  V30 2508 C 233.31 -1.17456 -1.64464 0
M  V30 2509 C 233.631 0.273698 -1.9307 0
M  V30 2510 O 232.901 1.18684 -1.55855 0
M  V30 2511 H 231.481 -0.431706 -0.609622 0
M  V30 2512 H 234.143 -1.62531 -1.07562 0
M  V30 2513 H 233.239 -1.72648 -2.59998 0
M  V30 2514 N 233.54 1.10788 -1.12088 0
M  V30 2515 C 234.47 2.19083 -0.807755 0
M  V30 2516 C 235.451 1.6858 0.226859 0
M  V30 2517 O 236.636 1.93997 0.0888475 0
M  V30 2518 C 233.766 3.46344 -0.257576 0
M  V30 2519 C 232.72 4.101 -1.22483 0
M  V30 2520 C 232.046 5.32016 -0.535052 0
M  V30 2521 C 233.346 4.54236 -2.57811 0
M  V30 2522 H 235.04 2.45534 -1.71328 0
M  V30 2523 H 232.586 1.1801 -0.825205 0
M  V30 2524 H 234.539 4.21392 -0.0262679 0
M  V30 2525 H 233.263 3.19373 0.683278 0
M  V30 2526 H 231.922 3.37054 -1.44189 0
M  V30 2527 H 231.57 5.01319 0.410827 0
M  V30 2528 H 231.27 5.75625 -1.18024 0
M  V30 2529 H 232.794 6.09799 -0.312695 0
M  V30 2530 H 234.208 5.20575 -2.40155 0
M  V30 2531 H 232.605 5.08682 -3.18375 0
M  V30 2532 H 233.675 3.6734 -3.16528 0
M  V30 2533 N 235.018 0.912232 1.28515 0
M  V30 2534 C 235.948 0.416403 2.29757 0
M  V30 2535 C 236.929 -0.515194 1.6211 0
M  V30 2536 O 238.114 -0.423253 1.89532 0
M  V30 2537 C 235.244 -0.34572 3.45575 0
M  V30 2538 C 234.198 0.496599 4.25109 0
M  V30 2539 C 233.524 -0.393771 5.33248 0
M  V30 2540 C 234.824 1.75307 4.92001 0
M  V30 2541 H 236.518 1.26249 2.7148 0
M  V30 2542 H 234.064 0.608515 1.30511 0
M  V30 2543 H 236.017 -0.703422 4.15488 0
M  V30 2544 H 234.741 -1.2257 3.02728 0
M  V30 2545 H 233.4 0.8368 3.56922 0
M  V30 2546 H 233.048 -1.27225 4.86644 0
M  V30 2547 H 232.748 0.166209 5.87365 0
M  V30 2548 H 234.272 -0.747389 6.06009 0
M  V30 2549 H 235.686 1.46437 5.54283 0
M  V30 2550 H 234.083 2.25534 5.56106 0
M  V30 2551 H 235.153 2.48176 4.16577 0
M  V30 2552 N 236.496 -1.42363 0.676048 0
M  V30 2553 C 237.724 -2.05859 0.207268 0
M  V30 2554 C 238.139 -1.50796 -1.13605 0
M  V30 2555 O 237.496 -0.648265 -1.70598 0
M  V30 2556 C 237.547 -3.61248 0.134975 0
M  V30 2557 O 237.268 -4.1427 1.42521 0
M  V30 2558 C 238.769 -4.41859 -0.357151 0
M  V30 2559 H 235.989 -0.663431 0.100503 0
M  V30 2560 H 238.533 -1.82479 0.923136 0
M  V30 2561 H 236.688 -3.83735 -0.531588 0
M  V30 2562 H 237.102 -5.0815 1.29939 0
M  V30 2563 H 238.576 -5.50847 -0.356641 0
M  V30 2564 H 239.053 -4.16536 -1.39264 0
M  V30 2565 H 239.659 -4.24392 0.27772 0
M  V30 2566 N 237.974 -0.419461 -1.51915 0
M  V30 2567 C 239.385 0.0477853 -1.86639 0
M  V30 2568 C 239.736 1.43531 -1.33766 0
M  V30 2569 O 238.861 2.05401 -0.68113 0
M  V30 2570 C 239.456 0.0934885 -3.38671 0
M  V30 2571 C 238.015 0.505097 -3.72996 0
M  V30 2572 C 237.162 -0.313792 -2.75519 0
M  V30 2573 H 240.113 -0.636088 -1.45395 0
M  V30 2574 H 240.134 0.906667 -3.6954 0
M  V30 2575 H 239.646 -0.916501 -3.77123 0
M  V30 2576 H 237.747 1.52135 -3.40126 0
M  V30 2577 H 237.86 0.242309 -4.78487 0
M  V30 2578 H 236.224 0.225363 -2.53701 0
M  V30 2579 H 237.007 -1.32232 -3.16812 0
M  V30 2580 N 239.452 1.56882 -0.150215 0
M  V30 2581 C 240.68 2.00593 0.506948 0
M  V30 2582 C 241.095 1.03033 1.58208 0
M  V30 2583 O 240.452 0.0278396 1.82479 0
M  V30 2584 C 240.503 3.44209 1.10465 0
M  V30 2585 O 240.224 4.3804 0.0724636 0
M  V30 2586 C 241.725 4.03214 1.84211 0
M  V30 2587 H 238.945 0.65795 0.13169 0
M  V30 2588 H 241.489 2.03018 -0.245743 0
M  V30 2589 H 239.644 3.42625 1.80795 0
M  V30 2590 H 240.058 5.22007 0.510793 0
M  V30 2591 H 241.532 5.0569 2.21318 0
M  V30 2592 H 242.009 3.44107 2.72923 0
M  V30 2593 H 242.615 4.08437 1.18572 0
M  V30 2594 N 240.93 -0.123565 1.57115 0
M  V30 2595 C 242.341 -0.681198 1.73829 0
M  V30 2596 C 242.692 -1.80535 0.768214 0
M  V30 2597 O 241.817 -2.16317 -0.0599103 0
M  V30 2598 C 242.412 -1.24246 3.15196 0
M  V30 2599 C 240.971 -1.74643 3.33432 0
M  V30 2600 C 240.118 -0.644284 2.69711 0
M  V30 2601 H 243.069 0.102315 1.5837 0
M  V30 2602 H 243.09 -2.11216 3.16493 0
M  V30 2603 H 242.602 -0.424062 3.85776 0
M  V30 2604 H 240.703 -2.58974 2.67886 0
M  V30 2605 H 240.816 -1.85902 4.41562 0
M  V30 2606 H 239.18 -1.07676 2.3082 0
M  V30 2607 H 239.963 0.163058 3.42913 0
M  V30 2608 N 242.408 -1.52605 -0.393616 0
M  V30 2609 C 243.355 -1.77055 -1.48054 0
M  V30 2610 C 244.325 -0.61358 -1.54352 0
M  V30 2611 O 245.51 -0.852806 -1.70681 0
M  V30 2612 C 242.65 -1.94108 -2.85335 0
M  V30 2613 C 241.763 -3.21792 -2.88226 0
M  V30 2614 C 240.898 -3.29188 -4.16904 0
M  V30 2615 C 239.937 -4.51013 -4.13828 0
M  V30 2616 N 239.074 -4.55716 -5.34105 0
M  V30 2617 H 243.914 -2.69815 -1.26506 0
M  V30 2618 H 241.451 -1.33683 -0.61379 0
M  V30 2619 H 243.409 -2.01979 -3.65049 0
M  V30 2620 H 242.039 -1.04713 -3.05344 0
M  V30 2621 H 241.091 -3.23015 -2.00911 0
M  V30 2622 H 242.403 -4.11557 -2.8182 0
M  V30 2623 H 241.557 -3.36216 -5.05018 0
M  V30 2624 H 240.296 -2.37389 -4.26026 0
M  V30 2625 H 239.301 -4.44115 -3.24102 0
M  V30 2626 H 240.526 -5.44123 -4.06333 0
M  V30 2627 H 238.472 -3.66807 -5.43865 0
M  V30 2628 H 238.389 -5.39346 -5.29756 0
M  V30 2629 H 239.657 -4.66993 -6.2413 0
M  V30 2630 N 243.887 0.651787 -1.4349 0
M  V30 2631 C 244.817 1.77621 -1.51569 0
M  V30 2632 C 245.798 1.66022 -0.370253 0
M  V30 2633 O 246.983 1.85095 -0.587658 0
M  V30 2634 C 244.113 3.16056 -1.43966 0
M  V30 2635 C 243.067 3.4242 -2.56774 0
M  V30 2636 C 242.393 4.8067 -2.34223 0
M  V30 2637 C 243.693 3.37023 -3.99015 0
M  V30 2638 H 245.387 1.71117 -2.45681 0
M  V30 2639 H 242.933 0.821825 -1.18246 0
M  V30 2640 H 244.886 3.94472 -1.48221 0
M  V30 2641 H 243.61 3.23293 -0.463586 0
M  V30 2642 H 242.269 2.66375 -2.51873 0
M  V30 2643 H 241.917 4.84585 -1.34856 0
M  V30 2644 H 241.617 4.9927 -3.09844 0
M  V30 2645 H 243.141 5.61342 -2.40265 0
M  V30 2646 H 244.555 4.05374 -4.05395 0
M  V30 2647 H 242.952 3.67159 -4.74673 0
M  V30 2648 H 244.022 2.3518 -4.2405 0
M  V30 2649 N 245.365 1.30045 0.890287 0
M  V30 2650 C 246.275 1.17885 2.02831 0
M  V30 2651 C 247.291 0.0999609 1.73713 0
M  V30 2652 O 248.467 0.313867 1.98939 0
M  V30 2653 C 245.532 0.866079 3.35708 0
M  V30 2654 C 244.593 2.02979 3.78283 0
M  V30 2655 C 243.826 1.73184 5.0482 0
M  V30 2656 O 244.049 0.657237 5.66601 0
M  V30 2657 O 242.983 2.58267 5.43674 0
M  V30 2658 H 246.809 2.13474 2.16015 0
M  V30 2659 H 244.394 1.09587 1.01543 0
M  V30 2660 H 246.276 0.706623 4.15433 0
M  V30 2661 H 244.951 -0.0599443 3.23644 0
M  V30 2662 H 243.858 2.24454 2.99285 0
M  V30 2663 H 245.191 2.93734 3.94944 0
M  V30 2664 N 246.843 -1.10192 1.12674 0
M  V30 2665 C 247.79 -2.16606 0.796906 0
M  V30 2666 C 248.76 -1.64394 -0.237476 0
M  V30 2667 O 249.945 -1.90474 -0.111484 0
M  V30 2668 C 247.085 -3.44116 0.26043 0
M  V30 2669 C 246.198 -4.10268 1.35293 0
M  V30 2670 C 245.333 -5.25507 0.775621 0
M  V30 2671 C 244.372 -5.83567 1.84706 0
M  V30 2672 N 243.509 -6.90179 1.28829 0
M  V30 2673 H 248.349 -2.44163 1.70846 0
M  V30 2674 H 245.886 -1.19846 0.85295 0
M  V30 2675 H 247.844 -4.17143 -0.0686814 0
M  V30 2676 H 246.474 -3.16901 -0.614274 0
M  V30 2677 H 245.526 -3.35184 1.79877 0
M  V30 2678 H 246.838 -4.4946 2.16303 0
M  V30 2679 H 245.992 -6.05398 0.397327 0
M  V30 2680 H 244.731 -4.87656 -0.0656581 0
M  V30 2681 H 243.736 -5.02344 2.23452 0
M  V30 2682 H 244.961 -6.23482 2.69161 0
M  V30 2683 H 242.907 -6.54322 0.468881 0
M  V30 2684 H 242.824 -7.28097 2.03497 0
M  V30 2685 H 244.092 -7.73844 0.937311 0
M  V30 2686 N 248.321 -0.919034 -1.28029 0
M  V30 2687 C 249.251 -0.428581 -2.29533 0
M  V30 2688 C 250.232 0.50659 -1.62381 0
M  V30 2689 O 251.417 0.413195 -1.89753 0
M  V30 2690 C 248.547 0.327388 -3.45753 0
M  V30 2691 C 247.501 -0.519137 -4.2484 0
M  V30 2692 C 246.827 0.365486 -5.33449 0
M  V30 2693 C 248.127 -1.77914 -4.91064 0
M  V30 2694 H 249.821 -1.27687 -2.70807 0
M  V30 2695 H 247.367 -0.615428 -1.30186 0
M  V30 2696 H 249.32 0.681378 -4.15855 0
M  V30 2697 H 248.044 1.20963 -3.03374 0
M  V30 2698 H 246.703 -0.855717 -3.56473 0
M  V30 2699 H 246.351 1.24642 -4.87312 0
M  V30 2700 H 246.051 -0.197356 -5.87268 0
M  V30 2701 H 247.575 0.715241 -6.06396 0
M  V30 2702 H 248.989 -1.49374 -5.53498 0
M  V30 2703 H 247.386 -2.2848 -5.54903 0
M  V30 2704 H 248.456 -2.50382 -4.15255 0
M  V30 2705 N 249.799 1.42003 -0.683588 0
M  V30 2706 C 251.024 2.06265 -0.216647 0
M  V30 2707 C 251.449 1.51059 1.12083 0
M  V30 2708 O 250.807 0.632638 1.69904 0
M  V30 2709 C 250.855 3.60191 -0.171759 0
M  V30 2710 O 249.959 4.03396 0.857069 0
M  V30 2711 H 249.3 0.65502 -0.108834 0
M  V30 2712 H 251.83 1.81982 -0.935077 0
M  V30 2713 H 251.84 4.08 0.0014303 0
M  V30 2714 H 250.515 3.99743 -1.14796 0
M  V30 2715 H 249.092 3.67117 0.654208 0
M  V30 2716 N 251.277 0.427512 1.51691 0
M  V30 2717 C 252.207 -0.3796 2.30394 0
M  V30 2718 C 253.188 -1.02982 1.35384 0
M  V30 2719 O 254.373 -1.03534 1.643 0
M  V30 2720 C 251.503 -1.48649 3.1388 0
M  V30 2721 C 250.457 -0.960294 4.17088 0
M  V30 2722 C 249.783 -2.16219 4.89033 0
M  V30 2723 C 251.083 -0.00153679 5.223 0
M  V30 2724 H 252.777 0.277164 2.98114 0
M  V30 2725 H 250.323 0.134739 1.43368 0
M  V30 2726 H 252.276 -2.05826 3.67714 0
M  V30 2727 H 251 -2.1714 2.43962 0
M  V30 2728 H 249.659 -0.410806 3.64291 0
M  V30 2729 H 249.307 -2.83307 4.15628 0
M  V30 2730 H 249.007 -1.81654 5.58816 0
M  V30 2731 H 250.531 -2.73968 5.45687 0
M  V30 2732 H 251.945 -0.482687 5.71264 0
M  V30 2733 H 250.342 0.256199 5.99553 0
M  V30 2734 H 251.412 0.938174 4.75738 0
M  V30 2735 N 252.755 -1.56801 0.158532 0
M  V30 2736 C 253.718 -2.16138 -0.762705 0
M  V30 2737 C 254.718 -1.1061 -1.16713 0
M  V30 2738 O 255.908 -1.36191 -1.08617 0
M  V30 2739 C 253.04 -2.73386 -2.03649 0
M  V30 2740 H 254.233 -2.98886 -0.246354 0
M  V30 2741 H 251.786 -1.56035 -0.0909744 0
M  V30 2742 H 252.521 -1.94335 -2.59623 0
M  V30 2743 H 252.306 -3.50601 -1.75559 0
M  V30 2744 H 253.796 -3.19065 -2.6942 0
M  V30 2745 N 254.233 0.115231 -1.57178 0
M  V30 2746 C 255.181 1.16014 -2.01602 0
M  V30 2747 C 256.175 1.42653 -0.913587 0
M  V30 2748 O 257.381 1.42571 -1.09879 0
M  V30 2749 H 253.756 0.391252 -0.642204 0
M  V30 2750 H 255.727 0.758998 -2.88586 0
M  V30 2751 C 254.476 2.47767 -2.4394 0
M  V30 2752 H 253.799 2.28108 -3.28339 0
M  V30 2753 H 255.239 3.19432 -2.78818 0
M  V30 2754 C 253.698 3.10617 -1.30455 0
M  V30 2755 O 254.228 3.96846 -0.622585 0
M  V30 2756 N 252.434 2.70553 -1.06064 0
M  V30 2757 H 251.981 2.00527 -1.61699 0
M  V30 2758 H 251.939 3.12934 -0.303284 0
M  V30 2759 N 255.711 1.52812 0.385517 0
M  V30 2760 C 256.659 1.78482 1.49155 0
M  V30 2761 C 257.653 0.652914 1.56312 0
M  V30 2762 O 258.859 0.835464 1.59436 0
M  V30 2763 H 255.234 0.5648 0.496493 0
M  V30 2764 H 257.205 2.71095 1.24699 0
M  V30 2765 C 255.954 1.97378 2.86247 0
M  V30 2766 H 255.277 2.83907 2.81491 0
M  V30 2767 H 256.717 2.19327 3.62866 0
M  V30 2768 C 255.176 0.74728 3.28508 0
M  V30 2769 O 255.706 -0.0736232 4.01633 0
M  V30 2770 N 253.912 0.576396 2.84826 0
M  V30 2771 H 253.459 1.24555 2.25486 0
M  V30 2772 H 253.417 -0.24288 3.1346 0
M  V30 2773 N 257.189 -0.644168 1.43834 0
M  V30 2774 C 258.137 -1.77793 1.49974 0
M  V30 2775 C 259.131 -1.65253 0.372536 0
M  V30 2776 O 260.337 -1.7149 0.546924 0
M  V30 2777 H 256.712 -0.58675 0.47035 0
M  V30 2778 H 258.683 -1.69736 2.45423 0
M  V30 2779 C 257.432 -3.16087 1.4486 0
M  V30 2780 H 256.755 -3.26378 2.30905 0
M  V30 2781 H 258.195 -3.95349 1.53217 0
M  V30 2782 C 256.654 -3.36484 0.167463 0
M  V30 2783 O 257.184 -3.94298 -0.767609 0
M  V30 2784 N 255.39 -2.90504 0.0747556 0
M  V30 2785 H 254.937 -2.4364 0.836507 0
M  V30 2786 H 254.895 -3.04527 -0.781714 0
M  V30 2787 N 258.668 -1.30515 -0.883378 0
M  V30 2788 C 259.598 -1.19607 -2.00541 0
M  V30 2789 C 260.579 -0.086346 -1.69881 0
M  V30 2790 O 261.764 -0.268654 -1.92333 0
M  V30 2791 C 258.894 -0.888758 -3.35736 0
M  V30 2792 C 257.848 -1.95659 -3.8066 0
M  V30 2793 C 257.174 -1.50224 -5.13164 0
M  V30 2794 C 258.474 -3.36788 -3.99213 0
M  V30 2795 H 260.168 -2.13476 -2.09925 0
M  V30 2796 H 257.714 -1.02775 -1.00863 0
M  V30 2797 H 259.667 -0.799094 -4.13754 0
M  V30 2798 H 258.391 0.0856125 -3.26488 0
M  V30 2799 H 257.05 -2.03591 -3.04871 0
M  V30 2800 H 256.698 -0.516092 -5.00345 0
M  V30 2801 H 256.398 -2.2165 -5.44192 0
M  V30 2802 H 257.922 -1.42639 -5.93706 0
M  V30 2803 H 259.336 -3.31605 -4.67665 0
M  V30 2804 H 257.733 -4.06314 -4.41621 0
M  V30 2805 H 258.803 -3.78561 -3.03017 0
M  V30 2806 N 260.146 1.09593 -1.13257 0
M  V30 2807 C 261.374 1.855 -0.916378 0
M  V30 2808 C 261.789 1.81069 0.534738 0
M  V30 2809 O 261.146 1.20562 1.37007 0
M  V30 2810 C 261.197 3.33546 -1.39388 0
M  V30 2811 O 260.918 3.37927 -2.78813 0
M  V30 2812 C 262.419 4.26299 -1.21588 0
M  V30 2813 H 259.639 0.585991 -0.326887 0
M  V30 2814 H 262.183 1.38488 -1.5047 0
M  V30 2815 H 260.338 3.77992 -0.848597 0
M  V30 2816 H 260.752 4.30254 -2.9997 0
M  V30 2817 H 262.226 5.28341 -1.59876 0
M  V30 2818 H 262.703 4.38918 -0.157376 0
M  V30 2819 H 263.309 3.87668 -1.7491 0
M  V30 2820 N 261.624 0.925811 1.2754 0
M  V30 2821 C 262.534 0.428993 2.30644 0
M  V30 2822 C 263.55 -0.489387 1.66976 0
M  V30 2823 O 264.726 -0.372653 1.97922 0
M  V30 2824 C 261.791 -0.311967 3.45294 0
M  V30 2825 C 260.852 0.641098 4.24486 0
M  V30 2826 C 260.085 -0.0645955 5.33661 0
M  V30 2827 O 260.308 -1.28429 5.55754 0
M  V30 2828 O 259.242 0.606265 5.98839 0
M  V30 2829 H 263.068 1.28504 2.75173 0
M  V30 2830 H 260.653 0.691086 1.32455 0
M  V30 2831 H 262.535 -0.729972 4.15029 0
M  V30 2832 H 261.21 -1.14365 3.02824 0
M  V30 2833 H 260.117 1.10874 3.57292 0
M  V30 2834 H 261.45 1.43995 4.70666 0
M  V30 2835 N 263.102 -1.41638 0.69111 0
M  V30 2836 C 264.032 -2.3347 0.037248 0
M  V30 2837 C 265.013 -1.51575 -0.771947 0
M  V30 2838 O 266.198 -1.80126 -0.72582 0
M  V30 2839 C 263.328 -3.35354 -0.903064 0
M  V30 2840 C 262.282 -4.27526 -0.201288 0
M  V30 2841 C 261.608 -5.19747 -1.25565 0
M  V30 2842 C 262.908 -5.13959 0.929689 0
M  V30 2843 H 264.602 -2.88397 0.804227 0
M  V30 2844 H 262.148 -1.38669 0.388189 0
M  V30 2845 H 264.101 -3.98519 -1.36969 0
M  V30 2846 H 262.825 -2.78767 -1.70166 0
M  V30 2847 H 261.484 -3.65779 0.245265 0
M  V30 2848 H 261.132 -4.59479 -2.04666 0
M  V30 2849 H 260.832 -5.8225 -0.791128 0
M  V30 2850 H 262.356 -5.85789 -1.72288 0
M  V30 2851 H 263.77 -5.70718 0.543546 0
M  V30 2852 H 262.167 -5.85379 1.32103 0
M  V30 2853 H 263.237 -4.51389 1.77133 0
M  V30 2854 N 264.58 -0.43555 -1.51462 0
M  V30 2855 C 265.991 0.0279871 -1.86679 0
M  V30 2856 C 266.342 1.42104 -1.35281 0
M  V30 2857 O 265.467 2.04667 -0.702878 0
M  V30 2858 C 266.062 0.0575626 -3.38751 0
M  V30 2859 C 264.621 0.465507 -3.7351 0
M  V30 2860 C 263.768 -0.342996 -2.75171 0
M  V30 2861 H 266.719 -0.651473 -1.44712 0
M  V30 2862 H 266.74 0.867421 -3.70481 0
M  V30 2863 H 266.252 -0.956448 -3.7613 0
M  V30 2864 H 264.353 1.48519 -3.41721 0
M  V30 2865 H 264.466 0.191546 -4.78717 0
M  V30 2866 H 262.83 0.198442 -2.53926 0
M  V30 2867 H 263.613 -1.35585 -3.15391 0
M  V30 2868 N 266.058 1.56714 -0.166846 0
M  V30 2869 C 267.021 2.16539 0.751232 0
M  V30 2870 C 268.021 1.11228 1.16125 0
M  V30 2871 O 269.211 1.36765 1.07894 0
M  V30 2872 C 266.343 2.74462 2.02196 0
M  V30 2873 H 267.536 2.99013 0.230499 0
M  V30 2874 H 265.089 1.56081 0.0826982 0
M  V30 2875 H 265.824 1.95709 2.58589 0
M  V30 2876 H 265.609 3.51527 1.73698 0
M  V30 2877 H 267.099 3.20489 2.67725 0
M  V30 2878 N 267.536 -0.106894 1.57237 0
M  V30 2879 C 268.784 -0.810921 1.85117 0
M  V30 2880 C 269.105 -1.7984 0.753827 0
M  V30 2881 O 268.375 -1.94649 -0.221056 0
M  V30 2882 H 266.955 -0.302466 0.683025 0
M  V30 2883 H 269.617 -0.0913324 1.94686 0
M  V30 2884 H 268.713 -1.34875 2.81452 0
M  V30 2885 N 269.014 -1.53014 -0.377408 0
M  V30 2886 C 269.944 -1.81589 -1.46791 0
M  V30 2887 C 270.925 -0.668622 -1.56408 0
M  V30 2888 O 272.11 -0.917337 -1.71168 0
M  V30 2889 C 269.24 -1.99519 -2.8427 0
M  V30 2890 C 268.194 -3.15249 -2.89486 0
M  V30 2891 C 267.52 -3.18451 -4.29527 0
M  V30 2892 C 268.82 -4.54084 -2.58079 0
M  V30 2893 H 270.514 -2.7291 -1.23127 0
M  V30 2894 H 268.06 -1.31319 -0.590883 0
M  V30 2895 H 270.013 -2.18092 -3.60575 0
M  V30 2896 H 268.737 -1.04897 -3.09296 0
M  V30 2897 H 267.396 -2.96477 -2.15631 0
M  V30 2898 H 267.044 -2.2149 -4.5161 0
M  V30 2899 H 266.744 -3.962 -4.33934 0
M  V30 2900 H 268.268 -3.39193 -5.07721 0
M  V30 2901 H 269.682 -4.72899 -3.24098 0
M  V30 2902 H 268.079 -5.33987 -2.7382 0
M  V30 2903 H 269.149 -4.60006 -1.53372 0
M  V30 2904 N 270.492 0.636531 -1.44174 0
M  V30 2905 C 271.422 1.76003 -1.53444 0
M  V30 2906 C 272.403 1.65619 -0.387841 0
M  V30 2907 O 273.588 1.84461 -0.607257 0
M  V30 2908 C 270.718 3.14511 -1.4731 0
M  V30 2909 C 269.672 3.39677 -2.60391 0
M  V30 2910 C 268.998 4.78159 -2.39308 0
M  V30 2911 C 270.298 3.32772 -4.02567 0
M  V30 2912 H 271.992 1.68501 -2.47483 0
M  V30 2913 H 269.538 0.809237 -1.19111 0
M  V30 2914 H 271.491 3.92878 -1.52397 0
M  V30 2915 H 270.215 3.22783 -0.49785 0
M  V30 2916 H 268.874 2.63688 -2.54684 0
M  V30 2917 H 268.522 4.83128 -1.39988 0
M  V30 2918 H 268.222 4.95956 -3.15122 0
M  V30 2919 H 269.746 5.58762 -2.46205 0
M  V30 2920 H 271.16 4.01051 -4.09672 0
M  V30 2921 H 269.557 3.62104 -4.7854 0
M  V30 2922 H 270.627 2.30669 -4.2652 0
M  V30 2923 N 271.97 1.30982 0.876444 0
M  V30 2924 C 272.918 1.18006 2.00443 0
M  V30 2925 C 273.912 0.0898871 1.69161 0
M  V30 2926 O 275.118 0.251333 1.78237 0
M  V30 2927 H 271.493 0.365196 0.65737 0
M  V30 2928 H 273.464 2.13453 2.0852 0
M  V30 2929 C 272.213 0.897521 3.35916 0
M  V30 2930 H 271.536 1.7285 3.60504 0
M  V30 2931 H 272.976 0.846874 4.15456 0
M  V30 2932 C 271.435 -0.399674 3.34521 0
M  V30 2933 O 271.965 -1.41852 3.7582 0
M  V30 2934 N 270.171 -0.413893 2.87637 0
M  V30 2935 H 269.718 0.41571 2.54224 0
M  V30 2936 H 269.676 -1.28175 2.87086 0
M  V30 2937 N 273.449 -1.08991 1.13837 0
M  V30 2938 C 274.697 -1.80899 0.901098 0
M  V30 2939 C 275.018 -1.86356 -0.574134 0
M  V30 2940 O 274.288 -1.35235 -1.41733 0
M  V30 2941 H 272.868 -0.669966 0.330386 0
M  V30 2942 H 275.53 -1.318 1.43578 0
M  V30 2943 H 274.626 -2.83929 1.29578 0
M  V30 2944 N 274.927 -0.932562 -1.27047 0
M  V30 2945 C 275.857 -0.452902 -2.29066 0
M  V30 2946 C 276.838 0.489338 -1.62909 0
M  V30 2947 O 278.023 0.393046 -1.90181 0
M  V30 2948 C 275.153 0.290698 -3.46081 0
M  V30 2949 C 274.107 -0.564168 -4.24265 0
M  V30 2950 C 273.433 0.308886 -5.33807 0
M  V30 2951 C 274.733 -1.83112 -4.89149 0
M  V30 2952 H 276.427 -1.30552 -2.69437 0
M  V30 2953 H 273.973 -0.629201 -1.29526 0
M  V30 2954 H 275.926 0.637233 -4.16554 0
M  V30 2955 H 274.65 1.17738 -3.0464 0
M  V30 2956 H 273.309 -0.893477 -3.55545 0
M  V30 2957 H 272.957 1.19467 -4.88607 0
M  V30 2958 H 272.657 -0.259633 -5.87026 0
M  V30 2959 H 274.181 0.650884 -6.07121 0
M  V30 2960 H 275.595 -1.55236 -5.51883 0
M  V30 2961 H 273.992 -2.34353 -5.52448 0
M  V30 2962 H 275.062 -2.54772 -4.12576 0
M  V30 2963 N 276.405 1.4127 -0.698611 0
M  V30 2964 C 277.315 2.34573 -0.0357891 0
M  V30 2965 C 278.331 1.56393 0.762701 0
M  V30 2966 O 279.507 1.8886 0.699564 0
M  V30 2967 C 276.572 3.35159 0.887089 0
M  V30 2968 C 275.633 4.29225 0.0804634 0
M  V30 2969 C 274.866 5.25006 0.959387 0
M  V30 2970 O 275.089 5.26314 2.19886 0
M  V30 2971 O 274.023 6.00519 0.407439 0
M  V30 2972 H 277.849 2.92838 -0.804957 0
M  V30 2973 H 275.434 1.42175 -0.458966 0
M  V30 2974 H 277.316 3.9689 1.41621 0
M  V30 2975 H 275.991 2.79333 1.6357 0
M  V30 2976 H 274.898 3.70833 -0.493328 0
M  V30 2977 H 276.231 4.88157 -0.629547 0
M  V30 2978 N 277.883 0.443576 1.51229 0
M  V30 2979 C 278.831 -0.37904 2.29491 0
M  V30 2980 C 279.825 -1.0153 1.35603 0
M  V30 2981 O 281.031 -0.94955 1.52917 0
M  V30 2982 H 277.406 -0.141053 0.738653 0
M  V30 2983 H 279.377 0.301799 2.9687 0
M  V30 2984 C 278.126 -1.46426 3.15364 0
M  V30 2985 H 277.449 -0.984037 3.87501 0
M  V30 2986 H 278.889 -2.01297 3.7317 0
M  V30 2987 C 277.348 -2.45099 2.31146 0
M  V30 2988 O 277.878 -3.49773 1.9754 0
M  V30 2989 N 276.084 -2.16139 1.94249 0
M  V30 2990 H 275.631 -1.31044 2.21777 0
M  V30 2991 H 275.589 -2.82398 1.38198 0
M  V30 2992 N 279.361 -1.56624 0.175154 0
M  V30 2993 C 280.291 -2.21155 -0.749195 0
M  V30 2994 C 281.272 -1.16836 -1.23626 0
M  V30 2995 O 282.457 -1.45277 -1.28873 0
M  V30 2996 C 279.587 -2.8553 -1.97711 0
M  V30 2997 C 278.541 -3.95921 -1.62575 0
M  V30 2998 C 277.867 -4.47365 -2.92864 0
M  V30 2999 C 279.167 -5.15323 -0.850838 0
M  V30 3000 H 280.861 -2.98653 -0.211295 0
M  V30 3001 H 278.407 -1.43651 -0.100188 0
M  V30 3002 H 280.36 -3.2935 -2.62881 0
M  V30 3003 H 279.084 -2.05406 -2.53921 0
M  V30 3004 H 277.743 -3.52762 -0.997719 0
M  V30 3005 H 277.391 -3.64027 -3.47122 0
M  V30 3006 H 277.091 -5.21839 -2.70106 0
M  V30 3007 H 278.615 -4.93873 -3.59056 0
M  V30 3008 H 280.029 -5.55812 -1.40521 0
M  V30 3009 H 278.426 -5.95739 -0.722154 0
M  V30 3010 H 279.496 -4.84661 0.152082 0
M  V30 3011 N 280.839 0.0985539 -1.57292 0
M  V30 3012 C 282.116 0.834155 -1.76921 0
M  V30 3013 C 282.496 1.97101 -0.755928 0
M  V30 3014 O 281.844 2.27474 0.216245 0
M  V30 3015 C 282.054 1.33194 -3.22584 0
M  V30 3016 C 283.402 1.77611 -3.85668 0
M  V30 3017 O 284.426 1.42825 -3.26312 0
M  V30 3018 O 283.285 2.4192 -4.90038 0
M  V30 3019 H 280.379 0.397628 -0.725135 0
M  V30 3020 H 282.925 0.0807044 -1.69508 0
M  V30 3021 H 281.697 0.517248 -3.87866 0
M  V30 3022 H 281.32 2.1475 -3.34616 0
M  V30 3023 N 282.317 1.53212 0.369288 0
M  V30 3024 C 283.545 1.73119 1.13303 0
M  V30 3025 C 283.96 0.458455 1.83149 0
M  V30 3026 O 283.317 -0.568403 1.73423 0
M  V30 3027 C 283.368 2.89413 2.16616 0
M  V30 3028 O 283.089 4.11761 1.49614 0
M  V30 3029 C 284.59 3.21161 3.05566 0
M  V30 3030 H 281.81 0.579107 0.338934 0
M  V30 3031 H 284.354 1.99942 0.429338 0
M  V30 3032 H 282.509 2.64994 2.82589 0
M  V30 3033 H 282.923 4.76858 2.18419 0
M  V30 3034 H 284.397 4.05949 3.74045 0
M  V30 3035 H 284.874 2.36369 3.70171 0
M  V30 3036 H 285.48 3.47492 2.45213 0
M  V30 3037 N 283.795 -0.628877 1.44509 0
M  V30 3038 C 284.725 -1.75187 1.54376 0
M  V30 3039 C 285.706 -1.65411 0.396618 0
M  V30 3040 O 286.891 -1.84137 0.617031 0
M  V30 3041 C 284.021 -3.13725 1.48976 0
M  V30 3042 C 282.975 -3.38291 2.62189 0
M  V30 3043 C 282.301 -4.76883 2.41841 0
M  V30 3044 C 283.601 -3.30632 4.04326 0
M  V30 3045 H 285.295 -1.67187 2.48373 0
M  V30 3046 H 282.841 -0.802909 1.19538 0
M  V30 3047 H 284.794 -3.92064 1.54478 0
M  V30 3048 H 283.518 -3.22515 0.514961 0
M  V30 3049 H 282.177 -2.62334 2.56079 0
M  V30 3050 H 281.825 -4.82378 1.42548 0
M  V30 3051 H 281.525 -4.94278 3.17747 0
M  V30 3052 H 283.049 -5.57449 2.49165 0
M  V30 3053 H 284.463 -3.98873 4.11793 0
M  V30 3054 H 282.86 -3.59561 4.80454 0
M  V30 3055 H 283.93 -2.28404 4.27738 0
M  V30 3056 N 285.273 -1.31445 -0.869486 0
M  V30 3057 C 286.203 -1.21727 -1.99261 0
M  V30 3058 C 287.184 -0.104359 -1.6978 0
M  V30 3059 O 288.369 -0.289038 -1.92037 0
M  V30 3060 C 285.499 -0.924317 -3.34774 0
M  V30 3061 C 284.453 -1.99685 -3.78563 0
M  V30 3062 C 283.779 -1.55658 -5.11541 0
M  V30 3063 C 285.079 -3.41003 -3.95619 0
M  V30 3064 H 286.773 -2.1569 -2.07649 0
M  V30 3065 H 284.319 -1.03839 -0.997675 0
M  V30 3066 H 286.272 -0.842934 -4.12883 0
M  V30 3067 H 284.996 0.0509793 -3.2656 0
M  V30 3068 H 283.655 -2.06813 -3.02694 0
M  V30 3069 H 283.303 -0.569132 -4.9977 0
M  V30 3070 H 283.003 -2.27409 -5.41811 0
M  V30 3071 H 284.527 -1.48928 -5.92159 0
M  V30 3072 H 285.941 -3.36547 -4.64122 0
M  V30 3073 H 284.338 -4.10975 -4.37286 0
M  V30 3074 H 285.408 -3.81754 -2.98985 0
M  V30 3075 N 286.751 1.08385 -1.14413 0
M  V30 3076 C 287.681 2.17321 -0.854044 0
M  V30 3077 C 288.662 1.69024 0.191049 0
M  V30 3078 O 289.847 1.94141 0.0476779 0
M  V30 3079 C 286.977 3.45719 -0.330983 0
M  V30 3080 C 285.931 4.07409 -1.31155 0
M  V30 3081 C 285.257 5.30762 -0.64778 0
M  V30 3082 C 286.557 4.48665 -2.67388 0
M  V30 3083 H 288.251 2.41845 -1.76498 0
M  V30 3084 H 285.797 1.16233 -0.850051 0
M  V30 3085 H 287.75 4.21241 -0.115645 0
M  V30 3086 H 286.474 3.2075 0.615381 0
M  V30 3087 H 285.133 3.33919 -1.51306 0
M  V30 3088 H 284.781 5.02078 0.304398 0
M  V30 3089 H 284.481 5.72992 -1.30207 0
M  V30 3090 H 286.005 6.08998 -0.441972 0
M  V30 3091 H 287.419 5.15364 -2.51143 0
M  V30 3092 H 285.816 5.01814 -3.29093 0
M  V30 3093 H 286.886 3.60543 -3.24248 0
M  V30 3094 N 288.23 0.939286 1.26551 0
M  V30 3095 C 289.162 0.404704 2.25599 0
M  V30 3096 C 290.175 -0.470983 1.55838 0
M  V30 3097 O 291.364 -0.281734 1.76263 0
M  V30 3098 C 288.464 -0.43764 3.36062 0
M  V30 3099 C 287.637 0.421449 4.35365 0
M  V30 3100 C 286.696 -0.36015 5.24966 0
M  V30 3101 O 285.722 0.236167 5.6871 0
M  V30 3102 N 286.924 -1.65715 5.56344 0
M  V30 3103 H 289.689 1.25618 2.72103 0
M  V30 3104 H 287.25 0.807963 1.40298 0
M  V30 3105 H 289.242 -0.967866 3.92956 0
M  V30 3106 H 287.812 -1.18991 2.89067 0
M  V30 3107 H 287.032 1.1329 3.7757 0
M  V30 3108 H 288.32 1.00835 4.98708 0
M  V30 3109 H 287.718 -2.16378 5.22682 0
M  V30 3110 H 286.275 -2.13366 6.15888 0
M  V30 3111 N 289.708 -1.40897 0.706093 0
M  V30 3112 C 290.618 -2.3455 0.0482286 0
M  V30 3113 C 291.634 -1.56796 -0.754396 0
M  V30 3114 O 292.81 -1.89228 -0.689538 0
M  V30 3115 C 289.875 -3.35625 -0.869303 0
M  V30 3116 C 288.936 -4.29261 -0.0576994 0
M  V30 3117 C 288.169 -5.25508 -0.931531 0
M  V30 3118 O 288.392 -5.27472 -2.17092 0
M  V30 3119 O 287.326 -6.00727 -0.375587 0
M  V30 3120 H 291.152 -2.92407 0.820476 0
M  V30 3121 H 288.737 -1.4193 0.4665 0
M  V30 3122 H 290.619 -3.97635 -1.39514 0
M  V30 3123 H 289.294 -2.80196 -1.62086 0
M  V30 3124 H 288.201 -3.70566 0.512988 0
M  V30 3125 H 289.534 -4.87817 0.655426 0
M  V30 3126 N 291.186 -0.45159 -1.50991 0
M  V30 3127 C 292.134 0.366864 -2.29689 0
M  V30 3128 C 293.128 1.00809 -1.36139 0
M  V30 3129 O 294.334 0.941427 -1.53418 0
M  V30 3130 H 290.709 0.137133 -0.739391 0
M  V30 3131 H 292.68 -0.317538 -2.96706 0
M  V30 3132 C 291.429 1.44751 -3.16137 0
M  V30 3133 H 290.752 0.963473 -3.88017 0
M  V30 3134 H 292.192 1.99315 -3.74232 0
M  V30 3135 C 290.651 2.43869 -2.32442 0
M  V30 3136 O 291.181 3.4872 -1.99392 0
M  V30 3137 N 289.387 2.15105 -1.95392 0
M  V30 3138 H 288.934 1.29866 -2.22469 0
M  V30 3139 H 288.892 2.81661 -1.39693 0
M  V30 3140 N 292.664 1.56529 -0.183458 0
M  V30 3141 C 293.889 2.02064 0.467428 0
M  V30 3142 C 294.314 1.06282 1.55196 0
M  V30 3143 O 293.672 0.0443565 1.81246 0
M  V30 3144 C 293.72 3.46122 1.01153 0
M  V30 3145 O 292.824 3.53437 2.12499 0
M  V30 3146 H 292.165 0.654726 0.110588 0
M  V30 3147 H 294.695 2.02521 -0.290917 0
M  V30 3148 H 294.705 3.85676 1.33108 0
M  V30 3149 H 293.38 4.15331 0.217533 0
M  V30 3150 H 291.957 3.2575 1.81497 0
M  V30 3151 N 294.142 -0.090211 1.57342 0
M  V30 3152 C 295.072 -1.10976 2.05443 0
M  V30 3153 C 296.053 -1.41482 0.944284 0
M  V30 3154 O 297.238 -1.51428 1.21586 0
M  V30 3155 C 294.368 -2.42831 2.48295 0
M  V30 3156 C 293.322 -2.26721 3.63018 0
M  V30 3157 C 292.648 -3.63796 3.91863 0
M  V30 3158 C 293.948 -1.7037 4.93732 0
M  V30 3159 H 295.642 -0.709564 2.9087 0
M  V30 3160 H 293.188 -0.339874 1.39932 0
M  V30 3161 H 295.141 -3.14431 2.80555 0
M  V30 3162 H 293.865 -2.84795 1.59873 0
M  V30 3163 H 292.524 -1.57565 3.31012 0
M  V30 3164 H 292.172 -4.03297 3.00601 0
M  V30 3165 H 291.872 -3.53861 4.69101 0
M  V30 3166 H 293.396 -4.36855 4.26603 0
M  V30 3167 H 294.81 -2.31816 5.24342 0
M  V30 3168 H 293.207 -1.71181 5.75167 0
M  V30 3169 H 294.277 -0.663542 4.80339 0
M  V30 3170 N 295.62 -1.53406 -0.361157 0
M  V30 3171 C 296.85 -1.73465 -1.1222 0
M  V30 3172 C 297.258 -0.465486 -1.83384 0
M  V30 3173 O 296.601 0.571611 -1.7458 0
M  V30 3174 C 296.663 -2.84834 -2.19339 0
M  V30 3175 C 296.327 -4.25038 -1.67903 0
M  V30 3176 C 297.324 -5.07231 -1.14074 0
M  V30 3177 C 295.009 -4.71464 -1.73282 0
M  V30 3178 C 297.003 -6.33942 -0.663068 0
M  V30 3179 C 294.69 -5.98153 -1.25127 0
M  V30 3180 C 295.688 -6.79223 -0.717296 0
M  V30 3181 O 295.376 -8.03533 -0.242865 0
M  V30 3182 H 295.108 -0.583526 -0.341283 0
M  V30 3183 H 297.662 -2.00964 -0.424591 0
M  V30 3184 H 295.892 -2.5282 -2.92607 0
M  V30 3185 H 297.581 -2.9303 -2.80871 0
M  V30 3186 H 298.347 -4.72534 -1.09254 0
M  V30 3187 H 294.226 -4.08432 -2.13786 0
M  V30 3188 H 297.77 -6.97167 -0.245612 0
M  V30 3189 H 293.667 -6.32347 -1.29642 0
M  V30 3190 H 294.435 -8.177 -0.361786 0
M  V30 3191 N 297.098 0.621204 -1.44841 0
M  V30 3192 C 298.326 1.40752 -1.51646 0
M  V30 3193 C 298.741 1.88246 -0.144549 0
M  V30 3194 O 298.098 1.61422 0.851416 0
M  V30 3195 C 298.149 2.62119 -2.4895 0
M  V30 3196 O 297.87 2.16602 -3.80808 0
M  V30 3197 C 299.371 3.55135 -2.65319 0
M  V30 3198 H 296.591 0.431325 -0.514004 0
M  V30 3199 H 299.135 0.758835 -1.899 0
M  V30 3200 H 297.29 3.23058 -2.13805 0
M  V30 3201 H 297.704 2.95358 -4.33433 0
M  V30 3202 H 299.178 4.36874 -3.37409 0
M  V30 3203 H 299.655 4.04592 -1.70886 0
M  V30 3204 H 300.261 3.00058 -3.01405 0
M  V30 3205 N 298.576 1.31904 0.862503 0
M  V30 3206 C 299.825 1.21373 1.61094 0
M  V30 3207 C 300.138 -0.22504 1.94301 0
M  V30 3208 O 301.344 -0.452121 2.67709 0
M  V30 3209 C 299.8 2.12525 2.9045 0
M  V30 3210 C 299.408 3.61441 2.64697 0
M  V30 3211 C 301.152 2.10813 3.68454 0
M  V30 3212 C 299.059 4.44578 3.90006 0
M  V30 3213 H 297.989 0.450705 0.604468 0
M  V30 3214 H 300.64 1.56811 0.953027 0
M  V30 3215 H 299.022 1.69994 3.57656 0
M  V30 3216 H 300.196 4.12264 2.05851 0
M  V30 3217 H 298.511 3.65205 2.00036 0
M  V30 3218 H 301.108 2.70167 4.61426 0
M  V30 3219 H 301.451 1.09713 4.01583 0
M  V30 3220 H 301.984 2.51583 3.08141 0
M  V30 3221 H 298.723 5.46461 3.62023 0
M  V30 3222 H 298.243 3.98508 4.48276 0
M  V30 3223 H 299.922 4.57176 4.5782 0
M  V30 3224 N 300.054 -1.07777 1.14986 0
M  V30 3225 C 301.465 -1.61766 0.932127 0
M  V30 3226 C 301.816 -1.88974 -0.527581 0
M  V30 3227 O 300.941 -1.65198 -1.39781 0
M  V30 3228 C 301.536 -2.93891 1.68563 0
M  V30 3229 C 300.095 -3.44639 1.5133 0
M  V30 3230 C 299.242 -2.18767 1.704 0
M  V30 3231 H 302.193 -0.909201 1.30074 0
M  V30 3232 H 302.214 -3.62623 1.15259 0
M  V30 3233 H 301.726 -2.74057 2.74799 0
M  V30 3234 H 299.827 -3.69564 0.474702 0
M  V30 3235 H 299.94 -4.20966 2.28746 0
M  V30 3236 H 298.304 -2.28253 1.13016 0
M  V30 3237 H 299.087 -2.01433 2.77992 0
M  V30 3238 N 301.532 -0.945985 -1.26051 0
M  V30 3239 C 302.479 -0.45809 -2.26208 0
M  V30 3240 C 303.449 0.484816 -1.58867 0
M  V30 3241 O 304.634 0.399969 -1.86561 0
M  V30 3242 C 301.774 0.266131 -3.44072 0
M  V30 3243 C 300.887 -0.713005 -4.26075 0
M  V30 3244 C 300.022 0.0329013 -5.3119 0
M  V30 3245 C 299.061 -0.93774 -6.04874 0
M  V30 3246 N 298.198 -0.223274 -7.01745 0
M  V30 3247 H 303.038 -1.3171 -2.67313 0
M  V30 3248 H 300.575 -0.66069 -1.31428 0
M  V30 3249 H 302.533 0.702514 -4.11243 0
M  V30 3250 H 301.163 1.08925 -3.03867 0
M  V30 3251 H 300.215 -1.26789 -3.58648 0
M  V30 3252 H 301.527 -1.45406 -4.77136 0
M  V30 3253 H 300.681 0.528335 -6.04395 0
M  V30 3254 H 299.42 0.806801 -4.8098 0
M  V30 3255 H 298.425 -1.44425 -5.30492 0
M  V30 3256 H 299.65 -1.71172 -6.57173 0
M  V30 3257 H 297.596 0.532046 -6.53839 0
M  V30 3258 H 297.513 -0.90357 -7.50581 0
M  V30 3259 H 298.781 0.250907 -7.79096 0
M  V30 3260 N 303.011 1.40521 -0.713556 0
M  V30 3261 C 304.259 2.00527 -0.251692 0
M  V30 3262 C 304.58 1.56857 1.15848 0
M  V30 3263 O 303.85 0.807127 1.785 0
M  V30 3264 H 302.43 0.741551 -0.0900646 0
M  V30 3265 H 305.092 1.71887 -0.918733 0
M  V30 3266 H 304.188 3.10813 -0.283192 0
M  V30 3267 N 304.489 0.459591 1.5075 0
M  V30 3268 C 305.736 -0.0993495 2.02256 0
M  V30 3269 C 306.064 -1.40751 1.34237 0
M  V30 3270 O 305.319 -1.90379 0.453228 0
M  V30 3271 C 305.618 -0.342866 3.55752 0
M  V30 3272 C 305.284 0.88218 4.42186 0
M  V30 3273 C 303.946 1.21808 4.65528 0
M  V30 3274 C 306.298 1.69837 4.92752 0
M  V30 3275 C 303.626 2.37045 5.36681 0
M  V30 3276 C 305.978 2.84192 5.65171 0
M  V30 3277 C 304.642 3.1821 5.8677 0
M  V30 3278 H 303.912 -0.0363545 0.740108 0
M  V30 3279 H 306.559 0.611329 1.8148 0
M  V30 3280 H 304.864 -1.13567 3.7498 0
M  V30 3281 H 306.561 -0.789121 3.93159 0
M  V30 3282 H 303.151 0.610467 4.2423 0
M  V30 3283 H 307.335 1.45205 4.74583 0
M  V30 3284 H 302.591 2.63689 5.51614 0
M  V30 3285 H 306.765 3.4779 6.03337 0
M  V30 3286 H 304.392 4.07613 6.41682 0
M  V30 3287 N 305.967 -1.56429 0.191757 0
M  V30 3288 C 307.214 -1.97485 -0.447891 0
M  V30 3289 C 307.542 -1.07852 -1.61859 0
M  V30 3290 O 306.797 -0.116903 -1.95351 0
M  V30 3291 C 307.096 -3.44449 -0.953384 0
M  V30 3292 C 306.762 -4.50781 0.103586 0
M  V30 3293 C 305.424 -4.79584 0.394023 0
M  V30 3294 C 307.776 -5.1471 0.819946 0
M  V30 3295 C 305.104 -5.69607 1.40585 0
M  V30 3296 C 307.456 -6.05827 1.8209 0
M  V30 3297 C 306.12 -6.32987 2.11857 0
M  V30 3298 H 305.39 -0.722648 -0.163895 0
M  V30 3299 H 308.037 -1.89322 0.28802 0
M  V30 3300 H 306.342 -3.49666 -1.76751 0
M  V30 3301 H 308.039 -3.73569 -1.45765 0
M  V30 3302 H 304.629 -4.28394 -0.132951 0
M  V30 3303 H 308.813 -4.92552 0.608789 0
M  V30 3304 H 304.069 -5.88926 1.64243 0
M  V30 3305 H 308.243 -6.54424 2.38123 0
M  V30 3306 H 305.87 -7.02544 2.90407 0
M  V30 3307 N 307.445 0.0818655 -1.57387 0
M  V30 3308 C 308.693 0.781368 -1.86384 0
M  V30 3309 C 309.014 1.78618 -0.782342 0
M  V30 3310 O 308.284 1.94976 0.190061 0
M  V30 3311 H 306.864 0.291562 -0.687751 0
M  V30 3312 H 309.526 0.060348 -1.94807 0
M  V30 3313 H 308.622 1.3038 -2.83562 0
M  V30 3314 N 308.923 1.53595 0.353017 0
M  V30 3315 C 310.148 1.7462 1.11904 0
M  V30 3316 C 310.573 0.479721 1.8188 0
M  V30 3317 O 309.931 -0.567066 1.72204 0
M  V30 3318 C 309.979 2.92029 2.11545 0
M  V30 3319 O 309.083 2.61516 3.18878 0
M  V30 3320 H 308.424 0.579531 0.324099 0
M  V30 3321 H 310.954 2.00525 0.406301 0
M  V30 3322 H 310.964 3.18551 2.5493 0
M  V30 3323 H 309.639 3.83888 1.60008 0
M  V30 3324 H 308.216 2.45852 2.80377 0
M  V30 3325 N 310.401 -0.613514 1.45168 0
M  V30 3326 C 311.351 -1.71871 1.49815 0
M  V30 3327 C 312.335 -1.56774 0.362021 0
M  V30 3328 O 313.527 -1.66212 0.608493 0
M  V30 3329 C 310.656 -3.1061 1.46207 0
M  V30 3330 C 309.742 -3.31114 2.64999 0
M  V30 3331 N 310.133 -3.21904 3.90143 0
M  V30 3332 C 308.431 -3.61966 2.6057 0
M  V30 3333 C 309.132 -3.43577 4.69393 0
M  V30 3334 N 308.108 -3.67287 4.00751 0
M  V30 3335 H 311.91 -1.63235 2.444 0
M  V30 3336 H 309.424 -0.816577 1.40377 0
M  V30 3337 H 311.421 -3.8989 1.4762 0
M  V30 3338 H 310.081 -3.20399 0.52673 0
M  V30 3339 H 311.092 -3.00436 4.21852 0
M  V30 3340 H 307.769 -3.78629 1.75916 0
M  V30 3341 H 309.159 -3.41901 5.78406 0
M  V30 3342 N 311.879 -1.3236 -0.855495 0
M  V30 3343 C 312.809 -1.23833 -1.97958 0
M  V30 3344 C 313.79 -0.122361 -1.69659 0
M  V30 3345 O 314.975 -0.30939 -1.9172 0
M  V30 3346 C 312.105 -0.959772 -3.33775 0
M  V30 3347 C 311.059 -2.03689 -3.76424 0
M  V30 3348 C 310.385 -1.61075 -5.09862 0
M  V30 3349 C 311.685 -3.4518 -3.9198 0
M  V30 3350 H 313.379 -2.1788 -2.0535 0
M  V30 3351 H 310.925 -1.04891 -0.986605 0
M  V30 3352 H 312.878 -0.886678 -4.11966 0
M  V30 3353 H 311.602 0.0163404 -3.26596 0
M  V30 3354 H 310.261 -2.10012 -3.00484 0
M  V30 3355 H 309.909 -0.622107 -4.99138 0
M  V30 3356 H 309.609 -2.33143 -5.39368 0
M  V30 3357 H 311.133 -1.55201 -5.90546 0
M  V30 3358 H 312.547 -3.4145 -4.60526 0
M  V30 3359 H 310.944 -4.1559 -4.32903 0
M  V30 3360 H 312.014 -3.84903 -2.94919 0
M  V30 3361 N 313.357 1.07166 -1.15556 0
M  V30 3362 C 314.287 2.16403 -0.877046 0
M  V30 3363 C 315.268 1.69217 0.173111 0
M  V30 3364 O 316.453 1.94181 0.027084 0
M  V30 3365 C 313.583 3.45349 -0.367632 0
M  V30 3366 C 312.537 4.05995 -1.35468 0
M  V30 3367 C 311.863 5.30045 -0.704038 0
M  V30 3368 C 313.163 4.45804 -2.72132 0
M  V30 3369 H 314.857 2.39959 -1.79053 0
M  V30 3370 H 312.403 1.15325 -0.862331 0
M  V30 3371 H 314.356 4.21095 -0.160317 0
M  V30 3372 H 313.08 3.21385 0.581326 0
M  V30 3373 H 311.739 3.32296 -1.54839 0
M  V30 3374 H 311.387 5.02373 0.251128 0
M  V30 3375 H 311.087 5.71579 -1.36277 0
M  V30 3376 H 312.611 6.08495 -0.50654 0
M  V30 3377 H 314.025 5.12671 -2.56595 0
M  V30 3378 H 312.422 4.98296 -3.34397 0
M  V30 3379 H 313.492 3.57083 -3.28054 0
M  V30 3380 N 314.835 0.952656 1.25548 0
M  V30 3381 C 316.246 0.647392 1.75116 0
M  V30 3382 C 316.597 -0.837274 1.77438 0
M  V30 3383 O 315.722 -1.65525 1.39393 0
M  V30 3384 C 316.317 1.16845 3.18014 0
M  V30 3385 C 314.876 0.913382 3.6515 0
M  V30 3386 C 314.023 1.31265 2.44264 0
M  V30 3387 H 316.974 1.12968 1.11462 0
M  V30 3388 H 316.995 0.527606 3.76824 0
M  V30 3389 H 316.507 2.24902 3.16292 0
M  V30 3390 H 314.608 -0.152316 3.72289 0
M  V30 3391 H 314.721 1.54845 4.53387 0
M  V30 3392 H 313.085 0.731028 2.43984 0
M  V30 3393 H 313.868 2.40239 2.45234 0
M  V30 3394 N 316.313 -1.40141 0.720998 0
M  V30 3395 C 317.56 -2.00787 0.262842 0
M  V30 3396 C 317.888 -1.5718 -1.14563 0
M  V30 3397 O 317.143 -0.785391 -1.79249 0
M  V30 3398 C 317.442 -3.56165 0.296892 0
M  V30 3399 C 317.108 -4.19373 1.65641 0
M  V30 3400 C 315.77 -4.36352 2.02855 0
M  V30 3401 C 318.122 -4.54578 2.54968 0
M  V30 3402 C 315.45 -4.8582 3.28931 0
M  V30 3403 C 317.802 -5.05447 3.80402 0
M  V30 3404 C 316.466 -5.20635 4.17726 0
M  V30 3405 H 315.736 -0.734731 0.0961807 0
M  V30 3406 H 318.383 -1.67673 0.925093 0
M  V30 3407 H 316.688 -3.8922 -0.448932 0
M  V30 3408 H 318.385 -4.00929 -0.0755208 0
M  V30 3409 H 314.975 -4.06549 1.35704 0
M  V30 3410 H 319.159 -4.41091 2.27491 0
M  V30 3411 H 314.415 -4.95764 3.57811 0
M  V30 3412 H 318.589 -5.31663 4.49786 0
M  V30 3413 H 316.216 -5.58728 5.15487 0
M  V30 3414 N 317.792 -0.46758 -1.50504 0
M  V30 3415 C 318.755 0.317059 -2.26996 0
M  V30 3416 C 319.755 0.923513 -1.31635 0
M  V30 3417 O 320.945 0.793239 -1.55091 0
M  V30 3418 C 318.077 1.45134 -3.08462 0
M  V30 3419 H 319.27 -0.353723 -2.97807 0
M  V30 3420 H 316.823 -0.221545 -1.54722 0
M  V30 3421 H 317.558 2.15728 -2.4214 0
M  V30 3422 H 317.343 1.02232 -3.78538 0
M  V30 3423 H 318.833 2.00493 -3.66323 0
M  V30 3424 N 319.27 1.56325 -0.20005 0
M  V30 3425 C 320.517 1.97719 0.437411 0
M  V30 3426 C 320.845 1.08709 1.61284 0
M  V30 3427 O 320.1 0.127261 1.95286 0
M  V30 3428 C 320.399 3.4495 0.935103 0
M  V30 3429 C 320.065 4.5072 -0.12749 0
M  V30 3430 C 318.727 4.79368 -0.419451 0
M  V30 3431 C 321.079 5.14268 -0.847231 0
M  V30 3432 C 318.407 5.68854 -1.43604 0
M  V30 3433 C 320.759 6.04852 -1.85301 0
M  V30 3434 C 319.423 6.31855 -2.15211 0
M  V30 3435 H 318.693 0.723507 0.16006 0
M  V30 3436 H 321.34 1.89166 -0.298056 0
M  V30 3437 H 319.645 3.50599 1.74894 0
M  V30 3438 H 321.342 3.74337 1.43781 0
M  V30 3439 H 317.932 4.28458 0.11023 0
M  V30 3440 H 322.116 4.92222 -0.634901 0
M  V30 3441 H 317.372 5.88047 -1.67364 0
M  V30 3442 H 321.546 6.53152 -2.41591 0
M  V30 3443 H 319.173 7.00994 -2.94129 0
M  V30 3444 N 320.748 -0.0735177 1.57428 0
M  V30 3445 C 321.678 -1.0879 2.06608 0
M  V30 3446 C 322.659 -1.40473 0.959237 0
M  V30 3447 O 323.844 -1.5013 1.23185 0
M  V30 3448 C 320.974 -2.40183 2.50857 0
M  V30 3449 C 319.928 -2.22858 3.65402 0
M  V30 3450 C 319.254 -3.59619 3.957 0
M  V30 3451 C 320.554 -1.65123 4.95511 0
M  V30 3452 H 322.248 -0.678673 2.91607 0
M  V30 3453 H 319.794 -0.325013 1.40284 0
M  V30 3454 H 321.747 -3.11437 2.83874 0
M  V30 3455 H 320.471 -2.83083 1.62885 0
M  V30 3456 H 319.13 -1.54045 3.32664 0
M  V30 3457 H 318.778 -4.00086 3.04861 0
M  V30 3458 H 318.478 -3.48866 4.72828 0
M  V30 3459 H 320.002 -4.32306 4.31212 0
M  V30 3460 H 321.416 -2.26241 5.26771 0
M  V30 3461 H 319.813 -1.65071 5.7695 0
M  V30 3462 H 320.883 -0.612559 4.81015 0
M  V30 3463 N 322.226 -1.5378 -0.344866 0
M  V30 3464 C 323.176 -1.78057 -1.42407 0
M  V30 3465 C 324.16 -0.635732 -1.47808 0
M  V30 3466 O 325.352 -0.89508 -1.527 0
M  V30 3467 C 322.481 -1.99242 -2.79566 0
M  V30 3468 C 321.567 -3.19787 -2.78562 0
M  V30 3469 N 321.958 -4.41284 -2.47189 0
M  V30 3470 C 320.256 -3.2093 -3.0971 0
M  V30 3471 C 320.957 -5.23128 -2.54385 0
M  V30 3472 N 319.933 -4.59813 -2.89953 0
M  V30 3473 H 323.735 -2.69588 -1.17046 0
M  V30 3474 H 321.249 -1.52687 -0.553217 0
M  V30 3475 H 323.246 -2.14768 -3.57324 0
M  V30 3476 H 321.906 -1.08953 -3.05875 0
M  V30 3477 H 322.917 -4.68657 -2.20411 0
M  V30 3478 H 319.594 -2.40603 -3.41199 0
M  V30 3479 H 320.984 -6.30096 -2.333 0
M  V30 3480 N 323.704 0.605807 -1.45491 0
M  V30 3481 C 324.952 1.36207 -1.49305 0
M  V30 3482 C 325.273 1.94519 -0.136863 0
M  V30 3483 O 324.543 1.77261 0.833983 0
M  V30 3484 H 323.123 0.50565 -0.549843 0
M  V30 3485 H 325.785 0.711239 -1.81459 0
M  V30 3486 H 324.881 2.18058 -2.23287 0
M  V30 3487 N 325.182 1.32811 0.848464 0
M  V30 3488 C 326.13 1.22231 1.97895 0
M  V30 3489 C 327.124 0.125749 1.68933 0
M  V30 3490 O 328.33 0.289083 1.77663 0
M  V30 3491 H 324.705 0.379058 0.649476 0
M  V30 3492 H 326.676 2.17828 2.03945 0
M  V30 3493 C 325.425 0.968572 3.33937 0
M  V30 3494 H 324.748 1.80458 3.56756 0
M  V30 3495 H 326.188 0.934808 4.13567 0
M  V30 3496 C 324.647 -0.328628 3.35293 0
M  V30 3497 O 325.177 -1.33848 3.78745 0
M  V30 3498 N 323.383 -0.352788 2.88451 0
M  V30 3499 H 322.93 0.469541 2.53285 0
M  V30 3500 H 322.888 -1.22057 2.89741 0
M  V30 3501 N 326.66 -1.06551 1.16123 0
M  V30 3502 C 328.071 -1.60768 0.949232 0
M  V30 3503 C 328.422 -1.89523 -0.507508 0
M  V30 3504 O 327.547 -1.66671 -1.38021 0
M  V30 3505 C 328.142 -2.92086 1.71671 0
M  V30 3506 C 326.701 -3.43015 1.54977 0
M  V30 3507 C 325.848 -2.16947 1.72711 0
M  V30 3508 H 328.799 -0.895354 1.31031 0
M  V30 3509 H 328.82 -3.6138 1.19099 0
M  V30 3510 H 328.332 -2.71127 2.7769 0
M  V30 3511 H 326.433 -3.69039 0.513873 0
M  V30 3512 H 326.546 -4.18516 2.33198 0
M  V30 3513 H 324.91 -2.27041 1.15431 0
M  V30 3514 H 325.693 -1.98473 2.80113 0
M  V30 3515 N 328.138 -0.959301 -1.25041 0
M  V30 3516 C 329.384 -0.627096 -1.93492 0
M  V30 3517 C 329.739 0.827484 -1.73696 0
M  V30 3518 O 329.032 1.58651 -1.07427 0
M  V30 3519 C 329.226 -0.927136 -3.45165 0
M  V30 3520 C 329.055 -2.40933 -3.79712 0
M  V30 3521 C 327.825 -3.0677 -4.01522 0
M  V30 3522 C 330.023 -3.38894 -3.86853 0
M  V30 3523 N 328.005 -4.44815 -4.231 0
M  V30 3524 C 329.376 -4.62263 -4.13174 0
M  V30 3525 C 331.431 -3.33668 -3.69554 0
M  V30 3526 C 330.134 -5.81052 -4.23995 0
M  V30 3527 C 332.16 -4.518 -3.81616 0
M  V30 3528 C 331.522 -5.73957 -4.08354 0
M  V30 3529 H 327.621 -0.280166 -0.73009 0
M  V30 3530 H 330.205 -1.23244 -1.50729 0
M  V30 3531 H 328.376 -0.350685 -3.86814 0
M  V30 3532 H 330.108 -0.554361 -4.00885 0
M  V30 3533 H 326.863 -2.57327 -3.97593 0
M  V30 3534 H 327.287 -5.16319 -4.37885 0
M  V30 3535 H 331.929 -2.40268 -3.47895 0
M  V30 3536 H 329.647 -6.74888 -4.44468 0
M  V30 3537 H 333.233 -4.49309 -3.69612 0
M  V30 3538 H 332.113 -6.6384 -4.17475 0
M  V30 3539 N 329.616 1.39756 -0.72842 0
M  V30 3540 C 330.546 2.33289 -0.0991354 0
M  V30 3541 C 331.527 1.53568 0.731489 0
M  V30 3542 O 332.712 1.81987 0.677807 0
M  V30 3543 C 329.842 3.3763 0.813834 0
M  V30 3544 C 328.796 4.2791 0.0878663 0
M  V30 3545 C 328.122 5.22894 1.11741 0
M  V30 3546 C 329.422 5.11314 -1.06563 0
M  V30 3547 H 331.116 2.86163 -0.880408 0
M  V30 3548 H 328.662 1.37591 -0.424819 0
M  V30 3549 H 330.615 4.0201 1.26355 0
M  V30 3550 H 329.339 2.83181 1.62715 0
M  V30 3551 H 327.998 3.65 -0.342159 0
M  V30 3552 H 327.646 4.64744 1.92412 0
M  V30 3553 H 327.346 5.84143 0.636477 0
M  V30 3554 H 328.87 5.90151 1.56697 0
M  V30 3555 H 330.284 5.69076 -0.694671 0
M  V30 3556 H 328.681 5.81671 -1.47577 0
M  V30 3557 H 329.751 4.46534 -1.89038 0
M  V30 3558 N 331.094 0.475555 1.50254 0
M  V30 3559 C 332.334 -0.0765802 2.04256 0
M  V30 3560 C 332.698 -1.36587 1.34937 0
M  V30 3561 O 333.899 -2.00066 1.79519 0
M  V30 3562 C 332.17 -0.251668 3.56513 0
M  V30 3563 S 333.729 -0.761716 4.32138 0
M  V30 3564 H 330.547 -0.0138456 0.710865 0
M  V30 3565 H 333.149 0.643714 1.84598 0
M  V30 3566 H 331.853 0.692404 4.04517 0
M  V30 3567 H 331.384 -0.997946 3.80532 0
M  V30 3568 H 333.399 -2.03451 4.52573 0
M  V30 3569 N 332.573 -1.56217 0.208337 0
M  V30 3570 C 333.521 -2.21053 -0.723769 0
M  V30 3571 C 334.515 -1.18578 -1.20978 0
M  V30 3572 O 335.721 -1.36691 -1.17114 0
M  V30 3573 H 332.096 -0.708595 -0.251788 0
M  V30 3574 H 334.067 -2.98006 -0.153365 0
M  V30 3575 C 332.816 -2.89417 -1.927 0
M  V30 3576 H 332.139 -3.68019 -1.56212 0
M  V30 3577 H 333.579 -3.38201 -2.55727 0
M  V30 3578 C 332.038 -1.91166 -2.77411 0
M  V30 3579 O 332.568 -1.42026 -3.75754 0
M  V30 3580 N 330.774 -1.59105 -2.43175 0
M  V30 3581 H 330.321 -1.99259 -1.63259 0
M  V30 3582 H 330.279 -0.936255 -3.00136 0
M  V30 3583 N 334.051 0.0651679 -1.57465 0
M  V30 3584 C 335.291 0.768329 -1.8941 0
M  V30 3585 C 335.655 1.74406 -0.802894 0
M  V30 3586 O 336.856 2.49281 -1.0056 0
M  V30 3587 C 335.127 1.45199 -3.26576 0
M  V30 3588 S 336.686 2.1893 -3.80283 0
M  V30 3589 H 333.504 0.255359 -0.663561 0
M  V30 3590 H 336.106 0.024167 -1.95485 0
M  V30 3591 H 334.81 0.728123 -4.03889 0
M  V30 3592 H 334.341 2.23545 -3.23715 0
M  V30 3593 H 336.356 3.45551 -3.56102 0
M  V30 3594 N 335.529 1.53961 0.336706 0
M  V30 3595 C 336.439 1.85432 1.43708 0
M  V30 3596 C 337.455 0.745053 1.57242 0
M  V30 3597 O 338.631 1.03804 1.72588 0
M  V30 3598 C 335.696 2.06349 2.78605 0
M  V30 3599 C 334.757 3.30191 2.74358 0
M  V30 3600 C 333.99 3.50101 4.02822 0
M  V30 3601 O 334.213 2.7371 5.00439 0
M  V30 3602 O 333.147 4.43547 4.06878 0
M  V30 3603 H 336.973 2.78975 1.20028 0
M  V30 3604 H 334.558 1.39701 0.52952 0
M  V30 3605 H 336.44 2.21513 3.58483 0
M  V30 3606 H 335.115 1.15995 3.02203 0
M  V30 3607 H 334.022 3.20425 1.93078 0
M  V30 3608 H 335.355 4.2056 2.55715 0
M  V30 3609 N 337.007 -0.598083 1.45811 0
M  V30 3610 C 338.256 -1.35295 1.49594 0
M  V30 3611 C 338.569 -1.95057 0.145679 0
M  V30 3612 O 339.775 -2.71431 0.0612099 0
M  V30 3613 C 338.231 -2.45124 2.63519 0
M  V30 3614 C 337.839 -1.91732 4.04899 0
M  V30 3615 C 339.583 -3.2205 2.76558 0
M  V30 3616 C 337.49 -2.991 5.1019 0
M  V30 3617 H 336.42 -0.508552 0.556679 0
M  V30 3618 H 339.071 -0.639977 1.71978 0
M  V30 3619 H 337.453 -3.19149 2.34435 0
M  V30 3620 H 338.627 -1.24352 4.43704 0
M  V30 3621 H 336.942 -1.27522 3.96393 0
M  V30 3622 H 339.539 -4.0215 3.52391 0
M  V30 3623 H 339.882 -3.73663 1.83526 0
M  V30 3624 H 340.415 -2.55127 3.05213 0
M  V30 3625 H 337.154 -2.52393 6.04961 0
M  V30 3626 H 336.674 -3.65017 4.75944 0
M  V30 3627 H 338.353 -3.63318 5.35359 0
M  V30 3628 N 338.485 -1.33259 -0.841409 0
M  V30 3629 C 339.415 -1.25926 -1.96634 0
M  V30 3630 C 340.396 -0.140349 -1.6952 0
M  V30 3631 O 341.581 -0.329707 -1.91381 0
M  V30 3632 C 338.711 -0.99512 -3.32738 0
M  V30 3633 C 337.665 -2.0767 -3.74242 0
M  V30 3634 C 336.991 -1.66474 -5.08125 0
M  V30 3635 C 338.291 -3.49318 -3.88297 0
M  V30 3636 H 339.985 -2.20046 -2.03027 0
M  V30 3637 H 337.531 -1.05931 -0.975425 0
M  V30 3638 H 339.484 -0.930323 -4.11002 0
M  V30 3639 H 338.208 -0.0183004 -3.26595 0
M  V30 3640 H 336.867 -2.13187 -2.98239 0
M  V30 3641 H 336.515 -0.675012 -4.9845 0
M  V30 3642 H 336.215 -2.3885 -5.36865 0
M  V30 3643 H 337.739 -1.61455 -5.88867 0
M  V30 3644 H 339.153 -3.46316 -4.56879 0
M  V30 3645 H 337.55 -4.20158 -4.28471 0
M  V30 3646 H 338.62 -3.8801 -2.9082 0
M  V30 3647 N 339.963 1.05934 -1.16686 0
M  V30 3648 C 341.193 1.82226 -0.973515 0
M  V30 3649 C 341.601 1.8297 0.481532 0
M  V30 3650 O 340.944 1.25009 1.34604 0
M  V30 3651 C 341.006 3.29897 -1.42858 0
M  V30 3652 C 340.67 3.52849 -2.90425 0
M  V30 3653 C 341.667 3.45595 -3.88407 0
M  V30 3654 C 339.352 3.80053 -3.28428 0
M  V30 3655 C 341.346 3.65217 -5.22394 0
M  V30 3656 C 339.033 3.99325 -4.62583 0
M  V30 3657 C 340.031 3.91905 -5.59374 0
M  V30 3658 O 339.719 4.10647 -6.91104 0
M  V30 3659 H 339.451 0.581314 -0.345036 0
M  V30 3660 H 342.005 1.3453 -1.55212 0
M  V30 3661 H 340.235 3.78472 -0.793477 0
M  V30 3662 H 341.924 3.87692 -1.20207 0
M  V30 3663 H 342.69 3.24564 -3.60393 0
M  V30 3664 H 338.569 3.84936 -2.53664 0
M  V30 3665 H 342.113 3.59341 -5.9793 0
M  V30 3666 H 338.01 4.19846 -4.90306 0
M  V30 3667 H 338.778 4.27915 -6.97733 0
M  V30 3668 N 341.441 0.965919 1.2453 0
M  V30 3669 C 342.688 0.626831 1.92554 0
M  V30 3670 C 343.016 -0.837739 1.75534 0
M  V30 3671 O 342.271 -1.61793 1.10098 0
M  V30 3672 C 342.57 0.945428 3.44669 0
M  V30 3673 C 342.236 2.39785 3.81856 0
M  V30 3674 C 340.898 2.79483 3.91718 0
M  V30 3675 C 343.25 3.34055 4.00071 0
M  V30 3676 C 340.578 4.12496 4.1721 0
M  V30 3677 C 342.93 4.66694 4.27059 0
M  V30 3678 C 341.594 5.06172 4.3514 0
M  V30 3679 H 340.864 0.229374 0.704605 0
M  V30 3680 H 343.511 1.21707 1.4785 0
M  V30 3681 H 341.816 0.272926 3.90848 0
M  V30 3682 H 343.513 0.661484 3.95507 0
M  V30 3683 H 340.103 2.08003 3.74743 0
M  V30 3684 H 344.287 3.04571 3.91855 0
M  V30 3685 H 339.543 4.42709 4.21685 0
M  V30 3686 H 343.717 5.3971 4.40097 0
M  V30 3687 H 341.344 6.09262 4.54646 0
M  V30 3688 N 342.919 -1.39368 0.735821 0
M  V30 3689 C 344.335 -1.54204 0.411492 0
M  V30 3690 C 344.535 -1.70268 -1.07755 0
M  V30 3691 O 343.591 -1.70364 -1.86366 0
M  V30 3692 C 344.904 -2.75925 1.19523 0
M  V30 3693 C 346.452 -2.89761 1.18354 0
M  V30 3694 C 346.927 -4.14421 1.94986 0
M  V30 3695 N 348.418 -4.21462 1.92156 0
M  V30 3696 C 349.153 -5.16871 2.48258 0
M  V30 3697 N 348.649 -6.18063 3.13001 0
M  V30 3698 N 350.442 -5.09093 2.38287 0
M  V30 3699 H 342.593 -1.27189 1.70108 0
M  V30 3700 H 344.856 -0.616517 0.720147 0
M  V30 3701 H 344.562 -2.70401 2.24892 0
M  V30 3702 H 344.436 -3.68614 0.800222 0
M  V30 3703 H 346.823 -2.94777 0.137975 0
M  V30 3704 H 346.904 -1.98133 1.61793 0
M  V30 3705 H 346.548 -4.10166 2.99543 0
M  V30 3706 H 346.478 -5.05095 1.48953 0
M  V30 3707 H 348.969 -3.48979 1.44991 0
M  V30 3708 H 349.282 -6.87326 3.53275 0
M  V30 3709 H 347.627 -6.18448 3.17091 0
M  V30 3710 H 350.818 -4.28973 1.8735 0
M  V30 3711 H 350.991 -5.83272 2.82308 0
M  V30 3712 N 344.397 -0.483516 -1.5 0
M  V30 3713 C 345.813 -0.138404 -1.58999 0
M  V30 3714 C 346.013 1.35597 -1.4905 0
M  V30 3715 O 345.069 2.13039 -1.35539 0
M  V30 3716 C 346.382 -0.699658 -2.92447 0
M  V30 3717 C 347.93 -0.664195 -3.05872 0
M  V30 3718 C 348.405 -1.20321 -4.41913 0
M  V30 3719 N 349.896 -1.16315 -4.48358 0
M  V30 3720 C 350.631 -1.55058 -5.52037 0
M  V30 3721 N 350.127 -2.01311 -6.62907 0
M  V30 3722 N 351.92 -1.46584 -5.42651 0
M  V30 3723 H 344.071 -1.45529 -1.5471 0
M  V30 3724 H 346.334 -0.60258 -0.731848 0
M  V30 3725 H 346.04 -1.747 -3.05242 0
M  V30 3726 H 345.914 -0.150194 -3.76901 0
M  V30 3727 H 348.301 0.374272 -2.92717 0
M  V30 3728 H 348.382 -1.25061 -2.23144 0
M  V30 3729 H 348.026 -2.24037 -4.55818 0
M  V30 3730 H 347.956 -0.592896 -5.23252 0
M  V30 3731 H 350.447 -0.824058 -3.68806 0
M  V30 3732 H 350.76 -2.2899 -7.38095 0
M  V30 3733 H 349.105 -2.05273 -6.63994 0
M  V30 3734 H 352.296 -1.10281 -4.54924 0
M  V30 3735 H 352.469 -1.77103 -6.23329 0
M  V30 3736 N 345.875 1.56104 -0.216619 0
M  V30 3737 C 347.121 1.99219 0.410301 0
M  V30 3738 C 347.476 1.10169 1.57735 0
M  V30 3739 O 346.769 0.150598 1.91007 0
M  V30 3740 C 346.963 3.45923 0.898464 0
M  V30 3741 C 346.792 4.49163 -0.219748 0
M  V30 3742 C 345.562 5.00642 -0.684516 0
M  V30 3743 C 347.76 5.03751 -1.03629 0
M  V30 3744 N 345.742 5.87579 -1.7783 0
M  V30 3745 C 347.113 5.87566 -1.97904 0
M  V30 3746 C 349.168 4.86128 -1.07629 0
M  V30 3747 C 347.871 6.5564 -2.95851 0
M  V30 3748 C 349.897 5.54958 -2.04392 0
M  V30 3749 C 349.259 6.38536 -2.97407 0
M  V30 3750 H 345.358 0.773206 0.11695 0
M  V30 3751 H 347.942 1.9193 -0.327258 0
M  V30 3752 H 346.113 3.53669 1.6054 0
M  V30 3753 H 347.845 3.75963 1.49779 0
M  V30 3754 H 344.6 4.72807 -0.27399 0
M  V30 3755 H 345.024 6.3575 -2.32705 0
M  V30 3756 H 349.666 4.21168 -0.371099 0
M  V30 3757 H 347.384 7.19785 -3.67335 0
M  V30 3758 H 350.97 5.43289 -2.08154 0
M  V30 3759 H 349.85 6.90858 -3.71059 0
M  V30 3760 N 347.353 -0.0568162 1.57498 0
M  V30 3761 C 348.283 -1.06593 2.0775 0
M  V30 3762 C 349.264 -1.39448 0.974082 0
M  V30 3763 O 350.449 -1.48815 1.24771 0
M  V30 3764 C 347.579 -2.37509 2.5339 0
M  V30 3765 C 346.533 -2.1897 3.67745 0
M  V30 3766 C 345.859 -3.55402 3.99492 0
M  V30 3767 C 347.159 -1.59859 4.97235 0
M  V30 3768 H 348.853 -0.647706 2.9231 0
M  V30 3769 H 346.399 -0.310116 1.40621 0
M  V30 3770 H 348.352 -3.08409 2.87162 0
M  V30 3771 H 347.076 -2.8134 1.65878 0
M  V30 3772 H 345.735 -1.50508 3.3428 0
M  V30 3773 H 345.383 -3.9683 3.09088 0
M  V30 3774 H 345.083 -3.43831 4.76502 0
M  V30 3775 H 346.607 -4.27708 4.35773 0
M  V30 3776 H 348.021 -2.20642 5.29141 0
M  V30 3777 H 346.418 -1.58942 5.78669 0
M  V30 3778 H 347.488 -0.561506 4.81638 0
M  V30 3779 N 348.832 -1.54138 -0.328536 0
M  V30 3780 C 349.764 -1.79509 -1.4251 0
M  V30 3781 C 350.777 -0.67688 -1.48061 0
M  V30 3782 O 351.966 -0.953898 -1.50874 0
M  V30 3783 C 349.066 -1.89337 -2.81078 0
M  V30 3784 C 348.239 -3.19443 -2.98789 0
M  V30 3785 C 347.298 -3.20036 -4.17688 0
M  V30 3786 O 346.324 -3.93697 -4.11086 0
M  V30 3787 N 347.526 -2.43467 -5.26976 0
M  V30 3788 H 350.291 -2.74139 -1.21111 0
M  V30 3789 H 347.852 -1.53373 -0.518499 0
M  V30 3790 H 349.844 -1.87167 -3.58818 0
M  V30 3791 H 348.414 -1.01826 -2.95551 0
M  V30 3792 H 347.634 -3.34614 -2.08391 0
M  V30 3793 H 348.922 -4.05354 -3.07515 0
M  V30 3794 H 348.32 -1.83201 -5.35214 0
M  V30 3795 H 346.877 -2.4708 -6.03154 0
M  V30 3796 N 350.31 0.590341 -1.46126 0
M  V30 3797 C 351.587 1.35029 -1.41515 0
M  V30 3798 C 351.967 2.10888 -0.0946472 0
M  V30 3799 O 351.315 2.08998 0.923693 0
M  V30 3800 C 351.525 2.28269 -2.63997 0
M  V30 3801 C 352.873 2.90338 -3.09821 0
M  V30 3802 O 353.897 2.38585 -2.64492 0
M  V30 3803 O 352.756 3.84321 -3.88535 0
M  V30 3804 H 349.85 0.606317 -0.562413 0
M  V30 3805 H 352.396 0.611994 -1.58281 0
M  V30 3806 H 351.168 1.71591 -3.51671 0
M  V30 3807 H 350.791 3.0945 -2.49652 0
M  V30 3808 N 351.788 1.33704 0.83433 0
M  V30 3809 C 352.736 1.24323 1.96587 0
M  V30 3810 C 353.73 0.143659 1.6879 0
M  V30 3811 O 354.936 0.30791 1.77347 0
M  V30 3812 H 351.311 0.385925 0.645419 0
M  V30 3813 H 353.282 2.19978 2.01624 0
M  V30 3814 C 352.031 1.00394 3.32891 0
M  V30 3815 H 351.354 1.84231 3.54822 0
M  V30 3816 H 352.794 0.97862 4.12552 0
M  V30 3817 C 351.253 -0.293047 3.35623 0
M  V30 3818 O 351.783 -1.29823 3.80143 0
M  V30 3819 N 349.989 -0.322174 2.88809 0
M  V30 3820 H 349.536 0.496379 2.52772 0
M  V30 3821 H 349.494 -1.18977 2.91019 0
M  V30 3822 N 353.266 -1.05314 1.17247 0
M  V30 3823 C 354.229 -2.112 0.890357 0
M  V30 3824 C 355.229 -1.60359 -0.118943 0
M  V30 3825 O 356.419 -1.73833 0.113086 0
M  V30 3826 C 353.551 -3.39266 0.333422 0
M  V30 3827 H 354.744 -2.37659 1.82916 0
M  V30 3828 H 352.297 -1.21538 0.982758 0
M  V30 3829 H 353.032 -3.18462 -0.612587 0
M  V30 3830 H 352.817 -3.77477 1.06082 0
M  V30 3831 H 354.307 -4.17315 0.154322 0
M  V30 3832 N 354.744 -0.972509 -1.24016 0
M  V30 3833 C 355.654 -0.5143 -2.28893 0
M  V30 3834 C 356.67 0.427078 -1.68677 0
M  V30 3835 O 357.846 0.298939 -1.99169 0
M  V30 3836 C 354.911 0.183598 -3.46214 0
M  V30 3837 C 353.972 -0.798202 -4.21814 0
M  V30 3838 C 353.205 -0.133514 -5.33533 0
M  V30 3839 O 353.428 1.07714 -5.60137 0
M  V30 3840 O 352.362 -0.828103 -5.96176 0
M  V30 3841 H 356.188 -1.38629 -2.70214 0
M  V30 3842 H 353.773 -0.739769 -1.29799 0
M  V30 3843 H 355.655 0.575433 -4.17453 0
M  V30 3844 H 354.33 1.03048 -3.0686 0
M  V30 3845 H 353.237 -1.24059 -3.52931 0
M  V30 3846 H 354.57 -1.61364 -4.64997 0
M  V30 3847 N 356.222 1.38976 -0.743202 0
M  V30 3848 C 357.17 2.32394 -0.0978389 0
M  V30 3849 C 358.164 1.53486 0.716824 0
M  V30 3850 O 359.37 1.69092 0.617088 0
M  V30 3851 H 355.745 0.75189 -0.0128402 0
M  V30 3852 H 357.716 2.84441 -0.901981 0
M  V30 3853 C 356.465 3.38629 0.789036 0
M  V30 3854 H 355.788 3.99432 0.171559 0
M  V30 3855 H 357.228 4.06426 1.20807 0
M  V30 3856 C 355.687 2.76347 1.92702 0
M  V30 3857 O 356.217 2.64836 3.02034 0
M  V30 3858 N 354.423 2.34311 1.71891 0
M  V30 3859 H 353.97 2.43873 0.829675 0
M  V30 3860 H 353.928 1.9298 2.48205 0
M  V30 3861 N 357.7 0.491464 1.49741 0
M  V30 3862 C 358.946 -0.0565092 2.02721 0
M  V30 3863 C 359.279 -1.37522 1.37118 0
M  V30 3864 O 358.554 -1.87866 0.503645 0
M  V30 3865 C 358.837 -0.219051 3.59433 0
M  V30 3866 C 358.69 1.12211 4.35579 0
M  V30 3867 C 360.009 -0.964157 4.29409 0
M  V30 3868 H 357.128 -0.0190627 0.736753 0
M  V30 3869 H 359.77 0.641021 1.7886 0
M  V30 3870 H 357.92 -0.813165 3.79895 0
M  V30 3871 H 359.592 1.75437 4.26637 0
M  V30 3872 H 357.835 1.71377 3.98513 0
M  V30 3873 H 358.506 0.961794 5.43556 0
M  V30 3874 H 360.982 -0.460378 4.13545 0
M  V30 3875 H 359.858 -1.04671 5.38828 0
M  V30 3876 H 360.119 -2.00563 3.93988 0
M  V30 3877 N 359.178 -1.55987 0.224894 0
M  V30 3878 C 360.408 -2.02489 -0.41007 0
M  V30 3879 C 360.816 -1.10391 -1.53657 0
M  V30 3880 O 360.159 -0.106458 -1.83391 0
M  V30 3881 C 360.221 -3.45319 -0.999757 0
M  V30 3882 C 359.885 -4.56999 -0.00827976 0
M  V30 3883 C 360.882 -5.13812 0.793314 0
M  V30 3884 C 358.567 -5.02176 0.111442 0
M  V30 3885 C 360.561 -6.14276 1.7013 0
M  V30 3886 C 358.248 -6.02477 1.02296 0
M  V30 3887 C 359.246 -6.58403 1.81643 0
M  V30 3888 O 358.934 -7.56751 2.71262 0
M  V30 3889 H 358.666 -0.667915 -0.104235 0
M  V30 3890 H 361.22 -2.0257 0.339782 0
M  V30 3891 H 359.45 -3.42318 -1.79876 0
M  V30 3892 H 361.139 -3.7545 -1.54248 0
M  V30 3893 H 361.905 -4.79756 0.711288 0
M  V30 3894 H 357.784 -4.58323 -0.49605 0
M  V30 3895 H 361.328 -6.57854 2.32107 0
M  V30 3896 H 357.225 -6.35954 1.10599 0
M  V30 3897 H 357.993 -7.74286 2.65375 0
M  V30 3898 N 360.656 0.0484629 -1.57525 0
M  V30 3899 C 361.902 0.744226 -1.88651 0
M  V30 3900 C 362.235 1.76029 -0.820212 0
M  V30 3901 O 361.51 1.93782 0.166985 0
M  V30 3902 C 361.793 1.43128 -3.30434 0
M  V30 3903 C 361.646 0.43005 -4.47739 0
M  V30 3904 C 362.965 2.37031 -3.70816 0
M  V30 3905 H 360.084 0.269089 -0.68612 0
M  V30 3906 H 362.726 0.00713532 -1.89999 0
M  V30 3907 H 360.876 2.05956 -3.29415 0
M  V30 3908 H 362.548 -0.194816 -4.60888 0
M  V30 3909 H 360.791 -0.252522 -4.33064 0
M  V30 3910 H 361.462 0.948874 -5.43783 0
M  V30 3911 H 363.938 1.84263 -3.73077 0
M  V30 3912 H 362.814 2.82094 -4.70865 0
M  V30 3913 H 363.075 3.22864 -3.02012 0
M  V30 3914 N 362.134 1.5431 0.320358 0
M  V30 3915 C 363.38 1.73859 1.05568 0
M  V30 3916 C 363.735 0.507807 1.85578 0
M  V30 3917 O 363.028 -0.499789 1.84967 0
M  V30 3918 C 363.222 2.95639 2.00828 0
M  V30 3919 C 363.051 4.30444 1.30186 0
M  V30 3920 C 361.821 4.94544 1.03703 0
M  V30 3921 C 364.019 5.0929 0.716138 0
M  V30 3922 N 362.001 6.13172 0.298846 0
M  V30 3923 C 363.372 6.19903 0.109729 0
M  V30 3924 C 365.427 4.94034 0.619269 0
M  V30 3925 C 364.13 7.16924 -0.584153 0
M  V30 3926 C 366.156 5.91369 -0.0609184 0
M  V30 3927 C 365.518 7.01336 -0.656258 0
M  V30 3928 H 361.617 0.688988 0.36989 0
M  V30 3929 H 364.201 1.9177 0.336494 0
M  V30 3930 H 362.372 2.79188 2.70016 0
M  V30 3931 H 364.104 3.03802 2.6737 0
M  V30 3932 H 360.859 4.54536 1.33019 0
M  V30 3933 H 361.283 6.76977 -0.0561964 0
M  V30 3934 H 365.925 4.0916 1.06526 0
M  V30 3935 H 363.643 8.01354 -1.04197 0
M  V30 3936 H 367.229 5.81642 -0.135552 0
M  V30 3937 H 366.109 7.75359 -1.17423 0
M  V30 3938 N 363.613 -0.582584 1.46437 0
M  V30 3939 C 364.56 -1.69164 1.5701 0
M  V30 3940 C 365.53 -1.60847 0.414403 0
M  V30 3941 O 366.715 -1.80058 0.631171 0
M  V30 3942 C 363.855 -3.075 1.56646 0
M  V30 3943 C 362.968 -3.2644 2.82951 0
M  V30 3944 C 362.103 -4.55026 2.7409 0
M  V30 3945 C 361.142 -4.6731 3.95333 0
M  V30 3946 N 360.279 -5.87221 3.84858 0
M  V30 3947 H 365.119 -1.59464 2.51744 0
M  V30 3948 H 362.656 -0.777186 1.24893 0
M  V30 3949 H 364.614 -3.8757 1.5442 0
M  V30 3950 H 363.244 -3.16096 0.654439 0
M  V30 3951 H 362.296 -2.39974 2.95155 0
M  V30 3952 H 363.608 -3.31385 3.72808 0
M  V30 3953 H 362.762 -5.43324 2.6997 0
M  V30 3954 H 361.501 -4.52519 1.81873 0
M  V30 3955 H 360.506 -3.77429 3.99784 0
M  V30 3956 H 361.731 -4.71595 4.88646 0
M  V30 3957 H 359.677 -5.85712 2.95427 0
M  V30 3958 H 359.594 -5.93435 4.6837 0
M  V30 3959 H 360.862 -6.7795 3.84713 0
M  V30 3960 N 365.091 -1.34144 -0.827227 0
M  V30 3961 C 366.023 -1.21206 -1.9453 0
M  V30 3962 C 367.036 -0.140176 -1.62195 0
M  V30 3963 O 368.225 -0.391647 -1.7415 0
M  V30 3964 C 365.325 -0.839141 -3.28347 0
M  V30 3965 C 364.498 -2.0051 -3.88734 0
M  V30 3966 C 363.557 -1.61128 -5.00923 0
M  V30 3967 O 362.583 -2.32726 -5.19449 0
M  V30 3968 N 363.785 -0.522958 -5.7814 0
M  V30 3969 H 366.55 -2.17525 -2.06162 0
M  V30 3970 H 364.111 -1.27043 -1.00358 0
M  V30 3971 H 366.103 -0.557556 -4.00841 0
M  V30 3972 H 364.673 0.0337293 -3.12582 0
M  V30 3973 H 363.893 -2.45166 -3.08686 0
M  V30 3974 H 365.181 -2.78498 -4.25812 0
M  V30 3975 H 364.579 0.0723518 -5.65654 0
M  V30 3976 H 363.136 -0.301089 -6.51104 0
M  V30 3977 N 366.569 1.04691 -1.17803 0
M  V30 3978 C 367.817 1.7743 -0.967617 0
M  V30 3979 C 368.138 1.88359 0.504574 0
M  V30 3980 O 367.408 1.40402 1.36617 0
M  V30 3981 H 365.988 0.657242 -0.355024 0
M  V30 3982 H 368.65 1.2638 -1.48371 0
M  V30 3983 H 367.746 2.78924 -1.40027 0
M  V30 3984 N 368.047 0.979072 1.23499 0
M  V30 3985 C 369.293 0.648178 1.92163 0
M  V30 3986 C 369.626 -0.816049 1.76222 0
M  V30 3987 O 368.901 -1.58849 1.12237 0
M  V30 3988 C 369.184 1.03773 3.44824 0
M  V30 3989 C 369.037 2.55948 3.69879 0
M  V30 3990 C 370.356 0.580653 4.36253 0
M  V30 3991 H 367.475 0.236952 0.69787 0
M  V30 3992 H 370.117 1.22012 1.45647 0
M  V30 3993 H 368.267 0.551058 3.84572 0
M  V30 3994 H 369.939 3.12179 3.3962 0
M  V30 3995 H 368.182 2.98641 3.14636 0
M  V30 3996 H 368.853 2.78255 4.76737 0
M  V30 3997 H 371.329 0.998465 4.03943 0
M  V30 3998 H 370.205 0.881663 5.41773 0
M  V30 3999 H 370.466 -0.519052 4.39042 0
M  V30 4000 N 369.525 -1.3858 0.750561 0
M  V30 4001 C 370.802 -1.94231 0.231009 0
M  V30 4002 C 371.182 -1.68611 -1.27018 0
M  V30 4003 O 370.53 -1.02296 -2.04323 0
M  V30 4004 C 370.74 -3.44123 0.581428 0
M  V30 4005 C 372.088 -4.2116 0.539389 0
M  V30 4006 O 373.112 -3.52391 0.519541 0
M  V30 4007 O 371.971 -5.43749 0.54765 0
M  V30 4008 H 369.065 -0.825639 0.0474263 0
M  V30 4009 H 371.611 -1.4799 0.830478 0
M  V30 4010 H 370.383 -3.56267 1.61833 0
M  V30 4011 H 370.006 -3.97573 -0.0462047 0
M  V30 4012 N 371.003 -0.499398 -1.49478 0
M  V30 4013 C 372.249 0.0457576 -2.02748 0
M  V30 4014 C 372.582 1.36793 -1.37846 0
M  V30 4015 O 371.857 1.87596 -0.513601 0
M  V30 4016 C 372.14 0.199986 -3.59544 0
M  V30 4017 C 371.993 -1.1452 -4.34977 0
M  V30 4018 C 373.312 0.94137 -4.29914 0
M  V30 4019 H 370.431 0.0151552 -0.736844 0
M  V30 4020 H 373.073 -0.650498 -1.78518 0
M  V30 4021 H 371.223 0.793007 -3.8032 0
M  V30 4022 H 372.895 -1.77697 -4.25701 0
M  V30 4023 H 371.138 -1.73488 -3.97598 0
M  V30 4024 H 371.809 -0.990607 -5.43039 0
M  V30 4025 H 374.285 0.43844 -4.13784 0
M  V30 4026 H 373.161 1.01812 -5.39375 0
M  V30 4027 H 373.422 1.98471 -3.95046 0
M  V30 4028 N 372.481 1.55866 -0.233164 0
M  V30 4029 C 373.428 2.20796 0.67215 0
M  V30 4030 C 374.398 1.16731 1.18166 0
M  V30 4031 O 375.583 1.45129 1.23864 0
M  V30 4032 C 372.723 2.90072 1.86955 0
M  V30 4033 C 371.836 4.08759 1.39786 0
M  V30 4034 C 370.971 4.65787 2.55374 0
M  V30 4035 C 370.01 5.76752 2.04998 0
M  V30 4036 N 369.147 6.28021 3.13901 0
M  V30 4037 H 373.987 2.9779 0.111749 0
M  V30 4038 H 371.524 1.47036 0.0434007 0
M  V30 4039 H 373.482 3.28428 2.57276 0
M  V30 4040 H 372.112 2.15575 2.40265 0
M  V30 4041 H 371.164 3.7581 0.589173 0
M  V30 4042 H 372.476 4.88906 0.98856 0
M  V30 4043 H 371.63 5.06646 3.33758 0
M  V30 4044 H 370.369 3.84828 2.99598 0
M  V30 4045 H 369.374 5.35383 1.25079 0
M  V30 4046 H 370.599 6.59553 1.61759 0
M  V30 4047 H 368.545 5.49971 3.57586 0
M  V30 4048 H 368.462 7.03323 2.7726 0
M  V30 4049 H 369.73 6.73538 3.92386 0
M  V30 4050 N 373.959 -0.0401083 1.57549 0
M  V30 4051 C 374.922 -1.02871 2.04817 0
M  V30 4052 C 375.922 -1.29708 0.950388 0
M  V30 4053 O 377.112 -1.24897 1.21435 0
M  V30 4054 C 374.244 -2.36443 2.45576 0
M  V30 4055 H 375.437 -0.620631 2.93408 0
M  V30 4056 H 372.99 -0.286667 1.53649 0
M  V30 4057 H 373.725 -2.82021 1.60108 0
M  V30 4058 H 373.51 -2.18296 3.25713 0
M  V30 4059 H 375 -3.07441 2.82612 0
M  V30 4060 N 375.437 -1.54477 -0.31217 0
M  V30 4061 C 376.37 -1.79519 -1.40884 0
M  V30 4062 C 377.348 -0.645753 -1.49227 0
M  V30 4063 O 378.532 -0.884468 -1.66461 0
M  V30 4064 C 375.659 -1.92194 -2.78889 0
M  V30 4065 C 374.705 -3.14555 -2.88023 0
M  V30 4066 S 375.538 -4.72893 -2.51262 0
M  V30 4067 C 376.694 -4.8849 -3.91317 0
M  V30 4068 H 376.927 -2.72256 -1.19432 0
M  V30 4069 H 374.46 -1.45746 -0.509654 0
M  V30 4070 H 376.418 -2.00182 -3.58382 0
M  V30 4071 H 375.079 -1.00414 -2.97617 0
M  V30 4072 H 374.272 -3.20193 -3.89221 0
M  V30 4073 H 373.874 -3.04955 -2.16514 0
M  V30 4074 H 376.166 -4.71826 -4.86196 0
M  V30 4075 H 377.109 -5.90588 -3.90656 0
M  V30 4076 H 377.517 -4.16715 -3.80801 0
M  V30 4077 N 376.915 0.57481 -1.46744 0
M  V30 4078 C 378.143 1.35856 -1.56047 0
M  V30 4079 C 378.558 1.87691 -0.204365 0
M  V30 4080 O 377.915 1.64049 0.79963 0
M  V30 4081 C 377.966 2.54066 -2.57163 0
M  V30 4082 O 377.687 2.04377 -3.87507 0
M  V30 4083 C 379.188 3.46514 -2.76483 0
M  V30 4084 H 376.408 0.414754 -0.527466 0
M  V30 4085 H 378.952 0.698035 -1.92218 0
M  V30 4086 H 377.107 3.16092 -2.23974 0
M  V30 4087 H 377.521 2.81419 -4.4261 0
M  V30 4088 H 378.995 4.25919 -3.51137 0
M  V30 4089 H 379.472 3.98951 -1.83671 0
M  V30 4090 H 380.078 2.90318 -3.10799 0
M  V30 4091 N 378.394 1.34581 0.820102 0
M  V30 4092 C 379.619 1.30333 1.61332 0
M  V30 4093 C 380.044 -0.119339 1.87721 0
M  V30 4094 O 379.402 -1.08197 1.45475 0
M  V30 4095 C 379.45 2.10258 2.92957 0
M  V30 4096 O 378.554 1.47404 3.85157 0
M  V30 4097 H 377.895 0.447488 0.490561 0
M  V30 4098 H 380.425 1.77425 1.01889 0
M  V30 4099 H 380.435 2.21718 3.42498 0
M  V30 4100 H 379.11 3.13693 2.73074 0
M  V30 4101 H 377.687 1.44703 3.43679 0
M  V30 4102 N 379.872 -1.04064 1.18357 0
M  V30 4103 C 380.82 -2.14187 0.907007 0
M  V30 4104 C 381.814 -1.68879 -0.132725 0
M  V30 4105 O 383.02 -1.79993 0.0154248 0
M  V30 4106 H 379.395 -0.699585 0.275835 0
M  V30 4107 H 381.366 -2.34711 1.84264 0
M  V30 4108 C 380.115 -3.44785 0.449254 0
M  V30 4109 H 379.438 -3.80058 1.24081 0
M  V30 4110 H 380.878 -4.22974 0.294737 0
M  V30 4111 C 379.337 -3.26391 -0.834909 0
M  V30 4112 O 379.867 -3.53973 -1.89911 0
M  V30 4113 N 378.073 -2.79726 -0.787523 0
M  V30 4114 H 377.62 -2.5748 0.0787347 0
M  V30 4115 H 377.578 -2.67798 -1.64716 0
M  V30 4116 N 381.35 -0.985608 -1.22978 0
M  V30 4117 C 382.596 -0.65836 -1.91816 0
M  V30 4118 C 382.929 0.806692 -1.76653 0
M  V30 4119 O 382.204 1.58252 -1.13078 0
M  V30 4120 C 382.487 -1.056 -3.44268 0
M  V30 4121 C 382.34 -2.57906 -3.68516 0
M  V30 4122 C 383.659 -0.603781 -4.35939 0
M  V30 4123 H 380.778 -0.24065 -0.696604 0
M  V30 4124 H 383.42 -1.22783 -1.44998 0
M  V30 4125 H 381.57 -0.571445 -3.84274 0
M  V30 4126 H 383.242 -3.13976 -3.3796 0
M  V30 4127 H 381.485 -3.00305 -3.13048 0
M  V30 4128 H 382.156 -2.80779 -4.75255 0
M  V30 4129 H 384.632 -1.01987 -4.03408 0
M  V30 4130 H 383.508 -0.910383 -5.41298 0
M  V30 4131 H 383.769 0.495761 -4.39312 0
M  V30 4132 N 382.828 1.3818 -0.7579 0
M  V30 4133 C 383.791 2.28764 -0.141286 0
M  V30 4134 C 384.791 1.47388 0.642907 0
M  V30 4135 O 385.981 1.67781 0.468536 0
M  V30 4136 C 383.113 3.31184 0.808069 0
M  V30 4137 H 384.306 2.848 -0.939633 0
M  V30 4138 H 381.859 1.47212 -0.525191 0
M  V30 4139 H 382.594 2.80247 1.63193 0
M  V30 4140 H 382.379 3.91314 0.248104 0
M  V30 4141 H 383.869 3.98909 1.23536 0
M  V30 4142 N 384.306 0.507319 1.49211 0
M  V30 4143 C 385.531 -0.033725 2.07373 0
M  V30 4144 C 385.956 -1.29485 1.36437 0
M  V30 4145 O 385.314 -1.76294 0.423087 0
M  V30 4146 C 385.362 -0.263945 3.59633 0
M  V30 4147 O 384.466 -1.33737 3.90113 0
M  V30 4148 H 383.807 0.0290331 0.663365 0
M  V30 4149 H 386.337 0.708749 1.91932 0
M  V30 4150 H 386.347 -0.493536 4.05004 0
M  V30 4151 H 385.022 0.657424 4.10671 0
M  V30 4152 H 383.599 -1.09224 3.56545 0
M  V30 4153 N 385.784 -1.5574 0.241426 0
M  V30 4154 C 387.03 -1.99104 -0.385406 0
M  V30 4155 C 387.363 -1.1293 -1.57988 0
M  V30 4156 O 386.638 -0.191449 -1.93555 0
M  V30 4157 C 386.921 -3.51087 -0.800616 0
M  V30 4158 C 386.774 -4.48028 0.398874 0
M  V30 4159 C 388.093 -4.08015 -1.64959 0
M  V30 4160 H 385.212 -0.723848 -0.138614 0
M  V30 4161 H 387.854 -1.86903 0.341642 0
M  V30 4162 H 386.004 -3.61615 -1.4201 0
M  V30 4163 H 387.676 -4.49487 1.03726 0
M  V30 4164 H 385.919 -4.21077 1.04293 0
M  V30 4165 H 386.59 -5.51962 0.0651056 0
M  V30 4166 H 389.066 -4.00555 -1.12672 0
M  V30 4167 H 387.942 -5.14635 -1.90898 0
M  V30 4168 H 388.203 -3.56131 -2.61961 0
M  V30 4169 N 387.262 0.0317525 -1.57568 0
M  V30 4170 C 388.194 1.06073 -2.03178 0
M  V30 4171 C 389.207 1.32627 -0.944132 0
M  V30 4172 O 390.396 1.30162 -1.22148 0
M  V30 4173 C 387.496 2.40297 -2.38978 0
M  V30 4174 C 386.669 2.33137 -3.70089 0
M  V30 4175 C 385.728 3.49787 -3.9311 0
M  V30 4176 O 384.754 3.29403 -4.64201 0
M  V30 4177 N 385.956 4.71562 -3.38541 0
M  V30 4178 H 388.721 0.672006 -2.92069 0
M  V30 4179 H 386.282 0.219745 -1.60402 0
M  V30 4180 H 388.274 3.1705 -2.51518 0
M  V30 4181 H 386.844 2.71024 -1.55771 0
M  V30 4182 H 386.064 1.415 -3.67928 0
M  V30 4183 H 387.352 2.25493 -4.56104 0
M  V30 4184 H 386.75 4.91024 -2.80912 0
M  V30 4185 H 385.307 5.45689 -3.56464 0
M  V30 4186 N 388.74 1.54641 0.303973 0
M  V30 4187 C 389.98 1.75516 1.04755 0
M  V30 4188 C 390.344 0.528211 1.84591 0
M  V30 4189 O 391.545 0.614645 2.61678 0
M  V30 4190 C 389.816 3.00685 1.93193 0
M  V30 4191 S 391.375 3.42549 2.74237 0
M  V30 4192 H 388.193 0.616987 0.353339 0
M  V30 4193 H 390.795 1.92842 0.321292 0
M  V30 4194 H 389.499 3.8811 1.33411 0
M  V30 4195 H 389.03 2.85937 2.70191 0
M  V30 4196 H 391.045 2.99386 3.95705 0
M  V30 4197 N 390.218 -0.567019 1.47046 0
M  V30 4198 C 391.495 -1.3276 1.43646 0
M  V30 4199 C 391.875 -2.1071 0.128186 0
M  V30 4200 O 391.223 -2.10441 -0.890326 0
M  V30 4201 C 391.433 -2.2404 2.67595 0
M  V30 4202 C 392.781 -2.85372 3.14401 0
M  V30 4203 O 393.805 -2.34346 2.68254 0
M  V30 4204 O 392.664 -3.78091 3.946 0
M  V30 4205 H 389.758 -0.597293 0.571988 0
M  V30 4206 H 392.304 -0.586735 1.59234 0
M  V30 4207 H 391.076 -1.65975 3.54356 0
M  V30 4208 H 390.699 -3.05439 2.54544 0
M  V30 4209 N 391.696 -1.35014 -0.812953 0
M  V30 4210 C 392.644 -1.27435 -1.94585 0
M  V30 4211 C 393.638 -0.170494 -1.6854 0
M  V30 4212 O 394.844 -0.336085 -1.76835 0
M  V30 4213 H 391.219 -0.396144 -0.639198 0
M  V30 4214 H 393.19 -2.23158 -1.98098 0
M  V30 4215 C 391.939 -1.05677 -3.31252 0
M  V30 4216 H 391.262 -1.89853 -3.51846 0
M  V30 4217 H 392.702 -1.04413 -4.10943 0
M  V30 4218 C 391.161 0.239615 -3.36047 0
M  V30 4219 O 391.691 1.23759 -3.8216 0
M  V30 4220 N 389.897 0.276186 -2.89285 0
M  V30 4221 H 389.444 -0.53653 -2.51951 0
M  V30 4222 H 389.402 1.14332 -2.92875 0
M  V30 4223 N 393.175 1.03435 -1.18907 0
M  V30 4224 C 394.4 1.80919 -1.01406 0
M  V30 4225 C 394.825 1.83055 0.432721 0
M  V30 4226 O 394.183 1.25252 1.31079 0
M  V30 4227 C 394.231 3.24091 -1.58105 0
M  V30 4228 O 393.335 4.04434 -0.806669 0
M  V30 4229 H 392.676 0.558709 -0.358803 0
M  V30 4230 H 395.206 1.30223 -1.57807 0
M  V30 4231 H 395.216 3.74853 -1.61087 0
M  V30 4232 H 393.891 3.21851 -2.6341 0
M  V30 4233 H 392.468 3.63091 -0.849666 0
M  V30 4234 N 394.653 0.992116 1.22453 0
M  V30 4235 C 395.93 0.583508 1.86694 0
M  V30 4236 C 396.31 -0.9392 1.89056 0
M  V30 4237 O 395.658 -1.82081 1.38053 0
M  V30 4238 C 395.868 1.20304 3.2761 0
M  V30 4239 C 397.216 1.30308 4.0411 0
M  V30 4240 O 398.24 1.15737 3.36873 0
M  V30 4241 O 397.099 1.53615 5.24466 0
M  V30 4242 H 394.193 0.198129 0.802916 0
M  V30 4243 H 396.739 1.08794 1.30238 0
M  V30 4244 H 395.511 2.24461 3.2052 0
M  V30 4245 H 395.134 0.684144 3.9167 0
M  V30 4246 N 396.131 -1.37776 0.765217 0
M  V30 4247 C 397.078 -2.30342 0.145274 0
M  V30 4248 C 398.048 -1.5077 -0.696971 0
M  V30 4249 O 399.233 -1.79362 -0.650689 0
M  V30 4250 C 396.373 -3.37227 -0.732939 0
M  V30 4251 C 395.486 -4.31819 0.125199 0
M  V30 4252 C 394.621 -5.25777 -0.757107 0
M  V30 4253 C 393.66 -6.12012 0.103963 0
M  V30 4254 N 392.797 -6.98232 -0.735953 0
M  V30 4255 H 397.637 -2.8278 0.940195 0
M  V30 4256 H 395.174 -1.39211 0.475255 0
M  V30 4257 H 397.132 -3.97818 -1.25686 0
M  V30 4258 H 395.762 -2.86171 -1.49353 0
M  V30 4259 H 394.814 -3.7259 0.766865 0
M  V30 4260 H 396.126 -4.92509 0.789683 0
M  V30 4261 H 395.28 -5.91541 -1.34776 0
M  V30 4262 H 394.019 -4.65481 -1.45529 0
M  V30 4263 H 393.024 -5.45233 0.707197 0
M  V30 4264 H 394.249 -6.74379 0.799381 0
M  V30 4265 H 392.195 -6.40472 -1.41887 0
M  V30 4266 H 392.112 -7.55891 -0.128624 0
M  V30 4267 H 393.38 -7.68393 -1.31121 0
M  V30 4268 N 397.609 -0.515225 -1.4894 0
M  V30 4269 C 398.856 0.024215 -2.02486 0
M  V30 4270 C 399.184 1.35671 -1.39368 0
M  V30 4271 O 398.439 1.88566 -0.523574 0
M  V30 4272 C 398.738 0.210595 -3.56779 0
M  V30 4273 C 398.404 -1.04569 -4.38607 0
M  V30 4274 C 397.066 -1.39002 -4.60686 0
M  V30 4275 C 399.418 -1.88008 -4.86109 0
M  V30 4276 C 396.746 -2.568 -5.27514 0
M  V30 4277 C 399.098 -3.04972 -5.54234 0
M  V30 4278 C 397.762 -3.39768 -5.74555 0
M  V30 4279 H 397.032 0.00886088 -0.740947 0
M  V30 4280 H 399.679 -0.678263 -1.79086 0
M  V30 4281 H 397.984 0.99572 -3.78936 0
M  V30 4282 H 399.681 0.642659 -3.95817 0
M  V30 4283 H 396.271 -0.767497 -4.21672 0
M  V30 4284 H 400.455 -1.62719 -4.68867 0
M  V30 4285 H 395.711 -2.8398 -5.41447 0
M  V30 4286 H 399.885 -3.69943 -5.90013 0
M  V30 4287 H 397.512 -4.31148 -6.26112 0
M  V30 4288 N 399.087 1.5561 -0.249682 0
M  V30 4289 C 400.498 1.84979 0.252949 0
M  V30 4290 C 400.849 1.17153 1.57384 0
M  V30 4291 O 399.974 0.450884 2.11651 0
M  V30 4292 C 400.569 3.35584 0.465732 0
M  V30 4293 C 399.128 3.65169 0.912624 0
M  V30 4294 C 398.275 2.77299 -0.00859085 0
M  V30 4295 H 401.226 1.51513 -0.47217 0
M  V30 4296 H 401.247 3.57313 1.30795 0
M  V30 4297 H 400.759 3.8492 -0.49579 0
M  V30 4298 H 398.86 3.21312 1.88652 0
M  V30 4299 H 398.973 4.72912 0.767559 0
M  V30 4300 H 397.337 2.49678 0.50327 0
M  V30 4301 H 398.12 3.29442 -0.965537 0
M  V30 4302 N 400.565 -0.0233959 1.57583 0
M  V30 4303 C 401.811 -0.714119 1.89811 0
M  V30 4304 C 402.144 -1.74702 0.848113 0
M  V30 4305 O 401.419 -1.94023 -0.136135 0
M  V30 4306 C 401.702 -1.37853 3.32669 0
M  V30 4307 C 401.555 -0.358764 4.48367 0
M  V30 4308 C 402.874 -2.31101 3.7454 0
M  V30 4309 H 399.993 -0.25814 0.690314 0
M  V30 4310 H 402.635 0.0230927 1.89986 0
M  V30 4311 H 400.785 -2.00689 3.3265 0
M  V30 4312 H 402.457 0.268115 4.6052 0
M  V30 4313 H 400.7 0.321387 4.32608 0
M  V30 4314 H 401.371 -0.862242 5.45224 0
M  V30 4315 H 403.847 -1.78304 3.75961 0
M  V30 4316 H 402.723 -2.74567 4.75294 0
M  V30 4317 H 402.984 -3.18018 3.0711 0
M  V30 4318 N 402.043 -1.548 -0.295768 0
M  V30 4319 C 403.273 -1.78069 -1.04762 0
M  V30 4320 C 403.681 -0.542847 -1.81245 0
M  V30 4321 O 403.024 0.497051 -1.76848 0
M  V30 4322 C 403.086 -2.93881 -2.07061 0
M  V30 4323 C 402.75 -4.31777 -1.49725 0
M  V30 4324 C 403.747 -5.11613 -0.924581 0
M  V30 4325 C 401.432 -4.78389 -1.5313 0
M  V30 4326 C 403.426 -6.36184 -0.393594 0
M  V30 4327 C 401.113 -6.02921 -0.996447 0
M  V30 4328 C 402.111 -6.81654 -0.428569 0
M  V30 4329 O 401.799 -8.0384 0.0981593 0
M  V30 4330 H 401.531 -0.597475 -0.316226 0
M  V30 4331 H 404.085 -2.02584 -0.338973 0
M  V30 4332 H 402.315 -2.65003 -2.81621 0
M  V30 4333 H 404.004 -3.04679 -2.6819 0
M  V30 4334 H 404.77 -4.76743 -0.891136 0
M  V30 4335 H 400.649 -4.17132 -1.9627 0
M  V30 4336 H 404.193 -6.97582 0.0503014 0
M  V30 4337 H 400.09 -6.37277 -1.02706 0
M  V30 4338 H 400.858 -8.18499 -0.0146455 0
M  V30 4339 N 403.521 0.559213 -1.47345 0
M  V30 4340 C 404.468 1.66645 -1.59682 0
M  V30 4341 C 405.438 1.60168 -0.43994 0
M  V30 4342 O 406.623 1.79031 -0.659736 0
M  V30 4343 C 403.763 3.04969 -1.61518 0
M  V30 4344 C 402.876 3.21897 -2.88108 0
M  V30 4345 C 402.011 4.50608 -2.81294 0
M  V30 4346 C 401.05 4.60961 -4.02717 0
M  V30 4347 N 400.187 5.81024 -3.94151 0
M  V30 4348 H 405.027 1.55439 -2.54249 0
M  V30 4349 H 402.564 0.757219 -1.26113 0
M  V30 4350 H 404.522 3.85064 -1.60566 0
M  V30 4351 H 403.152 3.15015 -0.704645 0
M  V30 4352 H 402.204 2.35248 -2.98936 0
M  V30 4353 H 403.516 3.25412 -3.78032 0
M  V30 4354 H 402.67 5.3896 -2.7858 0
M  V30 4355 H 401.409 4.49568 -1.89049 0
M  V30 4356 H 400.414 3.71021 -4.05738 0
M  V30 4357 H 401.639 4.63761 -4.96087 0
M  V30 4358 H 399.585 5.80938 -3.04708 0
M  V30 4359 H 399.502 5.85909 -4.77752 0
M  V30 4360 H 400.77 6.71744 -3.9545 0
M  V30 4361 N 404.999 1.35443 0.805782 0
M  V30 4362 C 406.229 1.31687 1.59192 0
M  V30 4363 C 406.637 -0.10756 1.88894 0
M  V30 4364 O 405.98 -1.07017 1.49309 0
M  V30 4365 C 406.042 2.05686 2.94845 0
M  V30 4366 C 405.706 3.54868 2.87954 0
M  V30 4367 C 406.703 4.49444 2.61335 0
M  V30 4368 C 404.388 3.97528 3.07046 0
M  V30 4369 C 406.382 5.84655 2.53885 0
M  V30 4370 C 404.069 5.32833 2.99219 0
M  V30 4371 C 405.067 6.26209 2.72674 0
M  V30 4372 O 404.755 7.59032 2.64811 0
M  V30 4373 H 404.487 0.453878 0.50097 0
M  V30 4374 H 407.041 1.78892 1.0093 0
M  V30 4375 H 405.271 1.5312 3.55093 0
M  V30 4376 H 406.96 1.94998 3.55993 0
M  V30 4377 H 407.726 4.17804 2.46303 0
M  V30 4378 H 403.605 3.25233 3.26718 0
M  V30 4379 H 407.149 6.57508 2.33086 0
M  V30 4380 H 403.046 5.64087 3.13809 0
M  V30 4381 H 403.814 7.68967 2.80413 0
M  V30 4382 N 406.477 -1.02803 1.19454 0
M  V30 4383 C 407.888 -1.57667 0.999899 0
M  V30 4384 C 408.239 -1.91041 -0.446956 0
M  V30 4385 O 407.364 -1.70978 -1.32648 0
M  V30 4386 C 407.959 -2.86477 1.80877 0
M  V30 4387 C 406.518 -3.37911 1.65811 0
M  V30 4388 C 405.665 -2.11343 1.79526 0
M  V30 4389 H 408.616 -0.853214 1.33813 0
M  V30 4390 H 408.637 -3.57408 1.30536 0
M  V30 4391 H 408.149 -2.62155 2.86175 0
M  V30 4392 H 406.25 -3.67218 0.63102 0
M  V30 4393 H 406.363 -4.10885 2.46395 0
M  V30 4394 H 404.727 -2.23254 1.22596 0
M  V30 4395 H 405.51 -1.89461 2.86285 0
M  V30 4396 N 407.956 -0.998596 -1.21925 0
M  V30 4397 C 409.204 -0.676325 -1.90448 0
M  V30 4398 C 409.525 0.794719 -1.78071 0
M  V30 4399 O 408.795 1.5701 -1.17152 0
M  V30 4400 H 407.375 -0.247165 -0.704925 0
M  V30 4401 H 410.037 -1.26633 -1.48156 0
M  V30 4402 H 409.133 -0.943858 -2.97486 0
M  V30 4403 N 409.434 1.37368 -0.772513 0
M  V30 4404 C 410.381 2.30262 -0.157488 0
M  V30 4405 C 411.351 1.51137 0.688965 0
M  V30 4406 O 412.536 1.79704 0.641168 0
M  V30 4407 C 409.676 3.37611 0.715045 0
M  V30 4408 C 408.789 4.31746 -0.148098 0
M  V30 4409 C 407.924 5.26171 0.729213 0
M  V30 4410 C 406.963 6.11948 -0.136418 0
M  V30 4411 N 406.1 6.98613 0.698914 0
M  V30 4412 H 410.94 2.82277 -0.955179 0
M  V30 4413 H 408.477 1.38957 -0.482631 0
M  V30 4414 H 410.435 3.98479 1.23575 0
M  V30 4415 H 409.065 2.86959 1.47833 0
M  V30 4416 H 408.117 3.72178 -0.786613 0
M  V30 4417 H 409.429 4.92084 -0.81579 0
M  V30 4418 H 408.583 5.92247 1.31637 0
M  V30 4419 H 407.322 4.66246 1.43059 0
M  V30 4420 H 406.327 5.4485 -0.736102 0
M  V30 4421 H 407.552 6.73945 -0.835134 0
M  V30 4422 H 405.498 6.41215 1.38489 0
M  V30 4423 H 405.415 7.55948 0.0885358 0
M  V30 4424 H 406.683 7.69077 1.27044 0
M  V30 4425 N 410.912 0.523116 1.48665 0
M  V30 4426 C 412.16 -0.0134497 2.02096 0
M  V30 4427 C 412.481 -1.35418 1.40311 0
M  V30 4428 O 411.751 -1.87543 0.566074 0
M  V30 4429 H 410.331 -0.00795915 0.746958 0
M  V30 4430 H 412.993 0.685388 1.82451 0
M  V30 4431 H 412.089 -0.126849 3.11842 0
M  V30 4432 N 412.39 -1.55475 0.257931 0
M  V30 4433 C 413.63 -2.01112 -0.365129 0
M  V30 4434 C 413.994 -1.1423 -1.54323 0
M  V30 4435 O 415.195 -1.49371 -2.23477 0
M  V30 4436 C 413.466 -3.49353 -0.754117 0
M  V30 4437 S 415.025 -4.16992 -1.36614 0
M  V30 4438 H 411.843 -0.701737 -0.114397 0
M  V30 4439 H 414.445 -1.91855 0.375747 0
M  V30 4440 H 413.149 -4.10246 0.112441 0
M  V30 4441 H 412.68 -3.6256 -1.52689 0
M  V30 4442 H 414.695 -4.19191 -2.65505 0
M  V30 4443 N 413.868 0.0150385 -1.57593 0
M  V30 4444 C 415.279 0.559832 -1.78109 0
M  V30 4445 C 415.63 1.74814 -0.890756 0
M  V30 4446 O 414.755 2.16216 -0.0892482 0
M  V30 4447 C 415.35 1.02238 -3.23006 0
M  V30 4448 C 413.909 1.51258 -3.44671 0
M  V30 4449 C 413.056 0.456955 -2.73509 0
M  V30 4450 H 416.007 -0.211169 -1.57289 0
M  V30 4451 H 416.028 1.88912 -3.30292 0
M  V30 4452 H 415.54 0.157302 -3.87781 0
M  V30 4453 H 413.641 2.39905 -2.8509 0
M  V30 4454 H 413.754 1.55042 -4.5332 0
M  V30 4455 H 412.118 0.915196 -2.37689 0
M  V30 4456 H 412.901 -0.398896 -3.40975 0
M  V30 4457 N 415.346 1.54954 0.287554 0
M  V30 4458 C 416.574 1.78881 1.03967 0
M  V30 4459 C 416.989 0.554894 1.80462 0
M  V30 4460 O 416.346 -0.475676 1.76192 0
M  V30 4461 C 416.397 3.00488 2.0097 0
M  V30 4462 O 416.118 4.19113 1.27577 0
M  V30 4463 C 417.619 3.36907 2.88112 0
M  V30 4464 H 414.839 0.596259 0.307761 0
M  V30 4465 H 417.383 2.01937 0.322749 0
M  V30 4466 H 415.538 2.79601 2.68145 0
M  V30 4467 H 415.952 4.87765 1.92835 0
M  V30 4468 H 417.426 4.25205 3.52001 0
M  V30 4469 H 417.903 2.55659 3.57121 0
M  V30 4470 H 418.509 3.60001 2.26449 0
M  V30 4471 N 416.824 -0.551391 1.4764 0
M  V30 4472 C 417.754 -1.66757 1.63445 0
M  V30 4473 C 418.735 -1.63077 0.483742 0
M  V30 4474 O 419.92 -1.80607 0.71377 0
M  V30 4475 C 417.05 -3.05387 1.65396 0
M  V30 4476 C 416.004 -3.23918 2.79752 0
M  V30 4477 C 415.33 -4.63393 2.66779 0
M  V30 4478 C 416.63 -3.08735 4.21284 0
M  V30 4479 H 418.324 -1.53786 2.56886 0
M  V30 4480 H 415.87 -0.738415 1.23626 0
M  V30 4481 H 417.823 -3.83325 1.75043 0
M  V30 4482 H 416.547 -3.19332 0.685195 0
M  V30 4483 H 415.206 -2.48391 2.69625 0
M  V30 4484 H 414.854 -4.74144 1.67918 0
M  V30 4485 H 414.554 -4.7674 3.43501 0
M  V30 4486 H 416.078 -5.43458 2.78364 0
M  V30 4487 H 417.492 -3.76484 4.32357 0
M  V30 4488 H 415.889 -3.33588 4.98838 0
M  V30 4489 H 416.959 -2.0541 4.39243 0
M  V30 4490 N 418.302 -1.35869 -0.798587 0
M  V30 4491 C 419.55 -1.29332 -1.55298 0
M  V30 4492 C 419.871 0.129729 -1.94568 0
M  V30 4493 O 419.141 1.06796 -1.6423 0
M  V30 4494 H 417.721 -0.475737 -0.57592 0
M  V30 4495 H 420.383 -1.70062 -0.952093 0
M  V30 4496 H 419.479 -1.91458 -2.46476 0
M  V30 4497 N 419.78 1.02168 -1.19998 0
M  V30 4498 C 421.057 1.72816 -0.916191 0
M  V30 4499 C 421.437 2.03081 0.576325 0
M  V30 4500 O 420.785 1.69122 1.53656 0
M  V30 4501 C 420.995 2.9997 -1.78378 0
M  V30 4502 C 422.343 3.73336 -2.02251 0
M  V30 4503 O 423.367 3.09914 -1.75589 0
M  V30 4504 O 422.226 4.87371 -2.47249 0
M  V30 4505 H 419.32 0.752924 -0.342103 0
M  V30 4506 H 421.866 1.08062 -1.30846 0
M  V30 4507 H 420.638 2.73888 -2.79466 0
M  V30 4508 H 420.261 3.72464 -1.39126 0
M  V30 4509 N 421.258 1.00505 1.21394 0
M  V30 4510 C 422.168 0.574806 2.27449 0
M  V30 4511 C 423.184 -0.382206 1.6975 0
M  V30 4512 O 424.36 -0.246027 1.99892 0
M  V30 4513 C 421.425 -0.0917414 3.46579 0
M  V30 4514 C 420.486 0.909758 4.1955 0
M  V30 4515 C 419.719 0.274924 5.32991 0
M  V30 4516 O 419.942 -0.928254 5.62796 0
M  V30 4517 O 418.876 0.985877 5.93771 0
M  V30 4518 H 422.702 1.45744 2.66444 0
M  V30 4519 H 420.287 0.773923 1.27792 0
M  V30 4520 H 422.169 -0.464551 4.18832 0
M  V30 4521 H 420.844 -0.948755 3.09484 0
M  V30 4522 H 419.751 1.33372 3.49518 0
M  V30 4523 H 421.084 1.73636 4.60555 0
M  V30 4524 N 422.737 -1.36956 0.779787 0
M  V30 4525 C 423.985 -1.99097 0.347079 0
M  V30 4526 C 424.306 -1.62206 -1.08232 0
M  V30 4527 O 423.576 -0.891373 -1.74446 0
M  V30 4528 H 422.156 -0.736409 0.125342 0
M  V30 4529 H 424.818 -1.67308 0.999696 0
M  V30 4530 H 423.914 -3.09107 0.431162 0
M  V30 4531 N 424.215 -0.530993 -1.48385 0
M  V30 4532 C 425.492 0.0671788 -1.95485 0
M  V30 4533 C 425.872 1.51191 -1.47324 0
M  V30 4534 O 425.22 2.17507 -0.700202 0
M  V30 4535 C 425.43 -0.0511206 -3.48963 0
M  V30 4536 C 426.778 0.107632 -4.24464 0
M  V30 4537 O 427.802 0.0226248 -3.56193 0
M  V30 4538 O 426.661 0.285972 -5.45751 0
M  V30 4539 H 423.755 0.0787365 -0.823243 0
M  V30 4540 H 426.301 -0.595662 -1.58902 0
M  V30 4541 H 425.073 -1.05747 -3.7674 0
M  V30 4542 H 424.696 0.650525 -3.92242 0
M  V30 4543 N 425.693 1.55336 -0.266172 0
M  V30 4544 C 426.921 2.03801 0.356756 0
M  V30 4545 C 427.336 1.14485 1.50129 0
M  V30 4546 O 426.693 0.163121 1.8177 0
M  V30 4547 C 426.744 3.51455 0.846281 0
M  V30 4548 O 426.465 4.37371 -0.252663 0
M  V30 4549 C 427.966 4.15767 1.53794 0
M  V30 4550 H 425.186 0.665906 0.0825218 0
M  V30 4551 H 427.73 2.00636 -0.39566 0
M  V30 4552 H 425.885 3.55092 1.54881 0
M  V30 4553 H 426.299 5.24358 0.122173 0
M  V30 4554 H 427.773 5.20714 1.83198 0
M  V30 4555 H 428.25 3.63404 2.46646 0
M  V30 4556 H 428.856 4.16107 0.879488 0
M  V30 4557 N 427.171 -0.0066808 1.57599 0
M  V30 4558 C 428.448 -0.729586 1.81484 0
M  V30 4559 C 428.828 -1.92359 0.869558 0
M  V30 4560 O 428.176 -2.28348 -0.0832533 0
M  V30 4561 C 428.386 -1.1416 3.29801 0
M  V30 4562 C 429.734 -1.54823 3.95367 0
M  V30 4563 O 430.758 -1.23558 3.34084 0
M  V30 4564 O 429.617 -2.12937 5.03309 0
M  V30 4565 H 426.711 -0.354674 0.747085 0
M  V30 4566 H 429.257 0.0182609 1.6969 0
M  V30 4567 H 428.029 -0.290231 3.90222 0
M  V30 4568 H 427.652 -1.94876 3.46568 0
M  V30 4569 N 428.649 -1.55105 -0.279332 0
M  V30 4570 C 429.579 -1.90557 -1.34945 0
M  V30 4571 C 430.56 -0.766738 -1.51839 0
M  V30 4572 O 431.745 -1.02434 -1.64988 0
M  V30 4573 C 428.875 -2.17193 -2.71006 0
M  V30 4574 C 427.829 -3.33021 -2.68851 0
M  V30 4575 C 427.155 -3.45123 -4.08405 0
M  V30 4576 C 428.455 -4.69578 -2.28678 0
M  V30 4577 H 430.149 -2.80188 -1.05522 0
M  V30 4578 H 427.695 -1.34811 -0.506173 0
M  V30 4579 H 429.648 -2.40581 -3.45975 0
M  V30 4580 H 428.372 -1.24355 -3.01999 0
M  V30 4581 H 427.031 -3.0959 -1.9634 0
M  V30 4582 H 426.679 -2.49762 -4.3661 0
M  V30 4583 H 426.379 -4.22995 -4.07859 0
M  V30 4584 H 427.903 -3.70796 -4.85121 0
M  V30 4585 H 429.317 -4.92553 -2.93368 0
M  V30 4586 H 427.714 -5.5032 -2.39306 0
M  V30 4587 H 428.784 -4.68828 -1.23807 0
M  V30 4588 N 430.127 0.543554 -1.4793 0
M  V30 4589 C 431.357 1.32324 -1.58663 0
M  V30 4590 C 431.765 1.8766 -0.240896 0
M  V30 4591 O 431.108 1.66411 0.778011 0
M  V30 4592 C 431.17 2.52094 -2.56299 0
M  V30 4593 C 430.834 2.17944 -4.01683 0
M  V30 4594 C 431.831 1.74422 -4.89768 0
M  V30 4595 C 429.516 2.28884 -4.47121 0
M  V30 4596 C 431.51 1.42287 -6.21316 0
M  V30 4597 C 429.197 1.96361 -5.78693 0
M  V30 4598 C 430.195 1.53132 -6.65612 0
M  V30 4599 O 429.883 1.21029 -7.94737 0
M  V30 4600 H 429.615 0.409174 -0.538101 0
M  V30 4601 H 432.169 0.663887 -1.94375 0
M  V30 4602 H 430.399 3.20965 -2.15681 0
M  V30 4603 H 432.088 3.14165 -2.57012 0
M  V30 4604 H 432.854 1.65452 -4.55907 0
M  V30 4605 H 428.733 2.61488 -3.79664 0
M  V30 4606 H 432.277 1.08472 -6.89115 0
M  V30 4607 H 428.174 2.04967 -6.12094 0
M  V30 4608 H 428.942 1.34543 -8.07366 0
M  V30 4609 N 431.605 1.3629 0.791371 0
M  V30 4610 C 432.882 1.20962 1.53712 0
M  V30 4611 C 433.262 -0.205021 2.10102 0
M  V30 4612 O 432.61 -1.21042 1.93807 0
M  V30 4613 C 432.82 2.29002 2.63361 0
M  V30 4614 C 434.168 2.65572 3.31295 0
M  V30 4615 O 435.192 2.2803 2.73643 0
M  V30 4616 O 434.051 3.3018 4.35481 0
M  V30 4617 H 431.145 0.47086 0.679867 0
M  V30 4618 H 433.691 1.48016 0.830021 0
M  V30 4619 H 432.463 3.2382 2.19674 0
M  V30 4620 H 432.086 2.03303 3.41692 0
M  V30 4621 N 433.083 -1.0153 1.20538 0
M  V30 4622 C 434.313 -1.78487 1.04048 0
M  V30 4623 C 434.721 -1.84631 -0.413292 0
M  V30 4624 O 434.064 -1.29919 -1.29872 0
M  V30 4625 C 434.126 -3.24367 1.55003 0
M  V30 4626 C 433.79 -3.41827 3.0332 0
M  V30 4627 C 434.787 -3.30941 4.00966 0
M  V30 4628 C 432.472 -3.67602 3.42307 0
M  V30 4629 C 434.466 -3.45577 5.35589 0
M  V30 4630 C 432.153 -3.81881 4.77085 0
M  V30 4631 C 433.151 -3.70874 5.73534 0
M  V30 4632 O 432.839 -3.84714 7.05868 0
M  V30 4633 H 432.571 -0.568108 0.366373 0
M  V30 4634 H 435.125 -1.28677 1.60098 0
M  V30 4635 H 433.355 -3.75266 0.933397 0
M  V30 4636 H 435.044 -3.82963 1.34514 0
M  V30 4637 H 435.81 -3.10964 3.72191 0
M  V30 4638 H 431.689 -3.75256 2.67776 0
M  V30 4639 H 435.233 -3.36902 6.10854 0
M  V30 4640 H 431.13 -4.01359 5.0555 0
M  V30 4641 H 431.898 -4.01724 7.13134 0
M  V30 4642 N 434.561 -1.01147 -1.20859 0
M  V30 4643 C 435.791 -0.715872 -1.93801 0
M  V30 4644 C 436.199 0.726592 -1.74692 0
M  V30 4645 O 435.542 1.50397 -1.05482 0
M  V30 4646 C 435.604 -0.965269 -3.46299 0
M  V30 4647 C 435.268 -2.39584 -3.89164 0
M  V30 4648 C 436.265 -3.3764 -3.95342 0
M  V30 4649 C 433.95 -2.73522 -4.21297 0
M  V30 4650 C 435.944 -4.67698 -4.33056 0
M  V30 4651 C 433.631 -4.03794 -4.58687 0
M  V30 4652 C 434.629 -5.00693 -4.64538 0
M  V30 4653 O 434.317 -6.28635 -5.01072 0
M  V30 4654 H 434.049 -0.262524 -0.622942 0
M  V30 4655 H 436.603 -1.35413 -1.54443 0
M  V30 4656 H 434.833 -0.269847 -3.85757 0
M  V30 4657 H 436.522 -0.662051 -4.00464 0
M  V30 4658 H 437.288 -3.12757 -3.70686 0
M  V30 4659 H 433.167 -1.9879 -4.15937 0
M  V30 4660 H 436.711 -5.4333 -4.37537 0
M  V30 4661 H 432.608 -4.28459 -4.82797 0
M  V30 4662 H 433.376 -6.32847 -5.19083 0
M  V30 4663 N 436.039 1.36541 -0.78704 0
M  V30 4664 C 437.45 1.81873 -0.421807 0
M  V30 4665 C 437.801 1.65487 1.05397 0
M  V30 4666 O 436.926 1.17448 1.81755 0
M  V30 4667 C 437.521 3.30192 -0.758841 0
M  V30 4668 C 436.08 3.73743 -0.446468 0
M  V30 4669 C 435.227 2.58844 -0.994728 0
M  V30 4670 H 438.178 1.24796 -0.98039 0
M  V30 4671 H 438.199 3.80468 -0.0490648 0
M  V30 4672 H 437.711 3.42087 -1.83299 0
M  V30 4673 H 435.812 3.6741 0.619739 0
M  V30 4674 H 435.925 4.69272 -0.965415 0
M  V30 4675 H 434.289 2.51245 -0.418087 0
M  V30 4676 H 435.072 2.73525 -2.07458 0
M  V30 4677 N 437.518 0.538854 1.48102 0
M  V30 4678 C 438.428 -0.222648 2.33541 0
M  V30 4679 C 439.444 -0.930225 1.47047 0
M  V30 4680 O 440.62 -0.903211 1.80011 0
M  V30 4681 C 437.685 -1.25064 3.23357 0
M  V30 4682 C 436.746 -0.552469 4.2573 0
M  V30 4683 C 435.979 -1.53149 5.11254 0
M  V30 4684 O 436.202 -2.76487 4.9891 0
M  V30 4685 O 435.136 -1.06602 5.92385 0
M  V30 4686 H 438.962 0.477707 2.99919 0
M  V30 4687 H 436.547 0.299669 1.46364 0
M  V30 4688 H 438.429 -1.8445 3.78888 0
M  V30 4689 H 437.104 -1.93325 2.59629 0
M  V30 4690 H 436.011 0.082114 3.7401 0
M  V30 4691 H 437.344 0.0883526 4.92121 0
M  V30 4692 N 438.996 -1.55193 0.274407 0
M  V30 4693 C 439.906 -2.26164 -0.623473 0
M  V30 4694 C 440.922 -1.28729 -1.17068 0
M  V30 4695 O 442.098 -1.61663 -1.20112 0
M  V30 4696 C 439.163 -2.96833 -1.7914 0
M  V30 4697 C 438.224 -4.09745 -1.28093 0
M  V30 4698 C 437.457 -4.77034 -2.3932 0
M  V30 4699 O 437.68 -4.4353 -3.5866 0
M  V30 4700 O 436.614 -5.64996 -2.07516 0
M  V30 4701 H 440.44 -3.03661 -0.0485661 0
M  V30 4702 H 438.025 -1.49341 0.0418382 0
M  V30 4703 H 439.907 -3.41248 -2.4724 0
M  V30 4704 H 438.582 -2.22253 -2.35341 0
M  V30 4705 H 437.489 -3.69787 -0.566416 0
M  V30 4706 H 438.822 -4.86224 -0.764683 0
M  V30 4707 N 440.474 -0.00167713 -1.576 0
M  V30 4708 C 441.751 0.719951 -1.81868 0
M  V30 4709 C 442.131 1.91895 -0.879747 0
M  V30 4710 O 441.479 2.28389 0.0711423 0
M  V30 4711 C 441.689 1.12409 -3.30402 0
M  V30 4712 C 443.037 1.52724 -3.96182 0
M  V30 4713 O 444.061 1.21784 -3.34734 0
M  V30 4714 O 442.92 2.10265 -5.04431 0
M  V30 4715 H 440.014 0.350707 -0.748955 0
M  V30 4716 H 442.56 -0.0272597 -1.69678 0
M  V30 4717 H 441.332 0.269532 -3.90371 0
M  V30 4718 H 440.955 1.93035 -3.47596 0
M  V30 4719 N 441.952 1.55251 0.271103 0
M  V30 4720 C 443.18 1.79974 1.02064 0
M  V30 4721 C 443.595 0.574003 1.79863 0
M  V30 4722 O 442.952 -0.456962 1.76686 0
M  V30 4723 C 443.003 3.02603 1.97772 0
M  V30 4724 O 442.724 4.20443 1.23124 0
M  V30 4725 C 444.225 3.39944 2.84522 0
M  V30 4726 H 441.445 0.599489 0.301419 0
M  V30 4727 H 443.989 2.02268 0.301313 0
M  V30 4728 H 442.144 2.8243 2.65165 0
M  V30 4729 H 442.558 4.89783 1.87651 0
M  V30 4730 H 444.032 4.28915 3.47471 0
M  V30 4731 H 444.509 2.59432 3.54389 0
M  V30 4732 H 445.115 3.62383 2.22618 0
M  V30 4733 N 443.43 -0.535701 1.48216 0
M  V30 4734 C 444.34 -1.66785 1.64985 0
M  V30 4735 C 445.356 -1.65654 0.532414 0
M  V30 4736 O 446.532 -1.8471 0.80275 0
M  V30 4737 C 443.597 -3.0326 1.68031 0
M  V30 4738 C 442.658 -3.1529 2.9136 0
M  V30 4739 C 441.891 -4.45255 2.94252 0
M  V30 4740 O 442.114 -5.32011 2.05719 0
M  V30 4741 O 441.048 -4.6153 3.86359 0
M  V30 4742 H 444.874 -1.55576 2.60825 0
M  V30 4743 H 442.459 -0.70815 1.31551 0
M  V30 4744 H 444.341 -3.84436 1.72589 0
M  V30 4745 H 443.016 -3.14805 0.753628 0
M  V30 4746 H 441.923 -2.3343 2.92337 0
M  V30 4747 H 443.256 -3.08658 3.83394 0
M  V30 4748 N 444.908 -1.36708 -0.784132 0
M  V30 4749 C 446.156 -1.30972 -1.53918 0
M  V30 4750 C 446.477 0.109086 -1.94695 0
M  V30 4751 O 445.747 1.05048 -1.65353 0
M  V30 4752 H 444.327 -0.481819 -0.570841 0
M  V30 4753 H 446.989 -1.71063 -0.934002 0
M  V30 4754 H 446.085 -1.94061 -2.44431 0
M  V30 4755 N 446.386 1.0089 -1.21074 0
M  V30 4756 C 447.663 1.71834 -0.934469 0
M  V30 4757 C 448.043 2.0368 0.554753 0
M  V30 4758 O 447.391 1.70742 1.51854 0
M  V30 4759 C 447.601 2.98061 -1.8155 0
M  V30 4760 C 448.949 3.7117 -2.06199 0
M  V30 4761 O 449.973 3.08034 -1.78867 0
M  V30 4762 O 448.832 4.84721 -2.52404 0
M  V30 4763 H 445.926 0.749253 -0.35007 0
M  V30 4764 H 448.472 1.06668 -1.31985 0
M  V30 4765 H 447.244 2.70908 -2.82355 0
M  V30 4766 H 446.867 3.70968 -1.43068 0
M  V30 4767 N 447.864 1.01787 1.20321 0
M  V30 4768 C 448.811 0.589197 2.23153 0
M  V30 4769 C 449.781 -0.391367 1.61423 0
M  V30 4770 O 450.966 -0.290518 1.88575 0
M  V30 4771 C 448.106 -0.0650747 3.45039 0
M  V30 4772 C 447.219 0.960207 4.21194 0
M  V30 4773 C 446.354 0.276854 5.30478 0
M  V30 4774 C 445.393 1.2888 5.98378 0
M  V30 4775 N 444.53 0.632031 6.99249 0
M  V30 4776 H 449.37 1.47071 2.59179 0
M  V30 4777 H 446.907 0.736192 1.27352 0
M  V30 4778 H 448.865 -0.461552 4.14639 0
M  V30 4779 H 447.495 -0.910233 3.09701 0
M  V30 4780 H 446.547 1.47484 3.50646 0
M  V30 4781 H 447.859 1.72977 4.67847 0
M  V30 4782 H 447.013 -0.175056 6.06447 0
M  V30 4783 H 445.752 -0.525004 4.84866 0
M  V30 4784 H 444.757 1.75109 5.21169 0
M  V30 4785 H 445.982 2.09196 6.46076 0
M  V30 4786 H 443.928 -0.149935 6.55829 0
M  V30 4787 H 443.845 1.33964 7.44036 0
M  V30 4788 H 445.113 0.203755 7.79234 0
M  V30 4789 N 449.342 -1.36122 0.79427 0
M  V30 4790 C 450.588 -1.99406 0.369452 0
M  V30 4791 C 450.921 -1.62886 -1.05743 0
M  V30 4792 O 450.196 -0.886053 -1.73145 0
M  V30 4793 C 450.479 -3.56046 0.538833 0
M  V30 4794 C 450.332 -4.02404 2.00976 0
M  V30 4795 C 451.651 -4.40079 -0.0431359 0
M  V30 4796 H 448.77 -0.724397 0.135712 0
M  V30 4797 H 451.412 -1.61461 1.00151 0
M  V30 4798 H 449.562 -3.885 0.000771004 0
M  V30 4799 H 451.234 -3.80415 2.60926 0
M  V30 4800 H 449.477 -3.53765 2.51063 0
M  V30 4801 H 450.148 -5.11344 2.07922 0
M  V30 4802 H 452.624 -4.14013 0.416228 0
M  V30 4803 H 451.5 -5.48799 0.105374 0
M  V30 4804 H 451.761 -4.27264 -1.13571 0
M  V30 4805 N 450.82 -0.546701 -1.47814 0
M  V30 4806 C 452.236 -0.205717 -1.58269 0
M  V30 4807 C 452.436 1.29153 -1.54667 0
M  V30 4808 O 451.492 2.07098 -1.44453 0
M  V30 4809 C 452.805 -0.823065 -2.89216 0
M  V30 4810 C 454.353 -0.793328 -3.02779 0
M  V30 4811 C 454.828 -1.38955 -4.36412 0
M  V30 4812 N 456.319 -1.35227 -4.43021 0
M  V30 4813 C 457.054 -1.78333 -5.44963 0
M  V30 4814 N 456.55 -2.29246 -6.53772 0
M  V30 4815 N 458.343 -1.69467 -5.35945 0
M  V30 4816 H 450.494 -1.5196 -1.48398 0
M  V30 4817 H 452.757 -0.633078 -0.705632 0
M  V30 4818 H 452.463 -1.8749 -2.97558 0
M  V30 4819 H 452.337 -0.309915 -3.75925 0
M  V30 4820 H 454.724 0.249784 -2.94041 0
M  V30 4821 H 454.805 -1.34412 -2.17639 0
M  V30 4822 H 454.449 -2.43168 -4.45906 0
M  V30 4823 H 454.379 -0.814291 -5.20266 0
M  V30 4824 H 456.87 -0.979739 -3.64979 0
M  V30 4825 H 457.183 -2.60089 -7.27718 0
M  V30 4826 H 455.528 -2.3325 -6.5469 0
M  V30 4827 H 458.719 -1.29477 -4.49837 0
M  V30 4828 H 458.892 -2.03381 -6.15256 0
M  V30 4829 N 452.299 1.55045 -0.282633 0
M  V30 4830 C 453.262 2.21515 0.588539 0
M  V30 4831 C 454.262 1.19535 1.07554 0
M  V30 4832 O 455.452 1.44391 0.974514 0
M  V30 4833 C 452.584 2.88704 1.8128 0
M  V30 4834 H 453.777 2.99899 0.00806397 0
M  V30 4835 H 451.33 1.56265 -0.0333067 0
M  V30 4836 H 452.065 2.14352 2.43359 0
M  V30 4837 H 451.85 3.63443 1.47144 0
M  V30 4838 H 453.34 3.39465 2.43214 0
M  V30 4839 N 453.777 0.010035 1.57597 0
M  V30 4840 C 455.005 -0.683413 1.95287 0
M  V30 4841 C 455.42 -1.66747 0.885481 0
M  V30 4842 O 454.777 -1.82003 -0.134629 0
M  V30 4843 C 454.828 -1.40652 3.33015 0
M  V30 4844 O 454.549 -0.461916 4.35658 0
M  V30 4845 C 456.05 -2.19356 3.85225 0
M  V30 4846 H 453.27 -0.189708 0.643624 0
M  V30 4847 H 455.814 0.0641359 2.04399 0
M  V30 4848 H 453.969 -2.10562 3.2518 0
M  V30 4849 H 454.383 -0.973215 5.15392 0
M  V30 4850 H 455.857 -2.65433 4.83993 0
M  V30 4851 H 456.334 -3.02457 3.18459 0
M  V30 4852 H 456.94 -1.54442 3.96267 0
M  V30 4853 N 455.255 -1.55392 -0.262866 0
M  V30 4854 C 456.671 -1.47459 -0.610582 0
M  V30 4855 C 456.871 -0.697031 -1.8906 0
M  V30 4856 O 455.927 -0.219952 -2.5154 0
M  V30 4857 C 457.24 -2.91751 -0.728131 0
M  V30 4858 C 458.788 -3.02027 -0.821517 0
M  V30 4859 C 459.263 -4.47594 -0.97076 0
M  V30 4860 N 460.754 -4.51465 -1.03603 0
M  V30 4861 C 461.489 -5.61326 -1.17049 0
M  V30 4862 N 460.985 -6.81032 -1.2715 0
M  V30 4863 N 462.778 -5.49089 -1.20239 0
M  V30 4864 H 454.929 -2.04395 0.577632 0
M  V30 4865 H 457.192 -0.927287 0.197086 0
M  V30 4866 H 456.898 -3.51413 0.142132 0
M  V30 4867 H 456.772 -3.4134 -1.6052 0
M  V30 4868 H 459.159 -2.42456 -1.68224 0
M  V30 4869 H 459.24 -2.55674 0.0803688 0
M  V30 4870 H 458.884 -5.07771 -0.114655 0
M  V30 4871 H 458.814 -4.91613 -1.88745 0
M  V30 4872 H 461.305 -3.6524 -0.96996 0
M  V30 4873 H 461.618 -7.60511 -1.37271 0
M  V30 4874 H 459.963 -6.83824 -1.24136 0
M  V30 4875 H 463.154 -4.54507 -1.11985 0
M  V30 4876 H 463.327 -6.34749 -1.30373 0
M  V30 4877 N 456.733 0.527833 -1.48498 0
M  V30 4878 C 457.961 1.30823 -1.6029 0
M  V30 4879 C 458.376 1.86945 -0.263974 0
M  V30 4880 O 457.733 1.6651 0.747034 0
M  V30 4881 C 457.784 2.45756 -2.65116 0
M  V30 4882 O 457.505 1.91946 -3.93813 0
M  V30 4883 C 459.006 3.37543 -2.87367 0
M  V30 4884 H 456.226 0.397763 -0.540394 0
M  V30 4885 H 458.77 0.636529 -1.94341 0
M  V30 4886 H 456.925 3.08806 -2.33917 0
M  V30 4887 H 457.339 2.67195 -4.51339 0
M  V30 4888 H 458.813 4.14532 -3.6451 0
M  V30 4889 H 459.29 3.92905 -1.9627 0
M  V30 4890 H 459.896 2.80283 -3.19878 0
M  V30 4891 N 458.211 1.37122 0.776871 0
M  V30 4892 C 459.457 1.32243 1.53752 0
M  V30 4893 C 459.79 -0.0944745 1.9397 0
M  V30 4894 O 459.065 -1.05068 1.6368 0
M  V30 4895 C 459.348 2.25681 2.80607 0
M  V30 4896 C 459.201 3.76127 2.46676 0
M  V30 4897 C 460.52 2.17657 3.82509 0
M  V30 4898 H 457.639 0.481704 0.557791 0
M  V30 4899 H 460.281 1.6778 0.891612 0
M  V30 4900 H 458.431 1.95505 3.35723 0
M  V30 4901 H 460.103 4.16877 1.97513 0
M  V30 4902 H 458.346 3.94946 1.79443 0
M  V30 4903 H 459.017 4.36933 3.37333 0
M  V30 4904 H 461.493 2.44245 3.36873 0
M  V30 4905 H 460.369 2.85185 4.69 0
M  V30 4906 H 460.63 1.16785 4.26396 0
M  V30 4907 N 459.689 -1.00246 1.21608 0
M  V30 4908 C 460.935 -1.74319 1.03638 0
M  V30 4909 C 461.268 -1.89408 -0.428749 0
M  V30 4910 O 460.543 -1.43026 -1.3181 0
M  V30 4911 C 460.826 -3.15431 1.73711 0
M  V30 4912 C 460.679 -3.08049 3.27759 0
M  V30 4913 C 461.998 -4.14407 1.48173 0
M  V30 4914 H 459.117 -0.632741 0.377899 0
M  V30 4915 H 461.759 -1.16853 1.49818 0
M  V30 4916 H 459.909 -3.64493 1.34452 0
M  V30 4917 H 461.581 -2.66681 3.76403 0
M  V30 4918 H 459.824 -2.45088 3.57931 0
M  V30 4919 H 460.495 -4.07862 3.71958 0
M  V30 4920 H 462.971 -3.74061 1.82258 0
M  V30 4921 H 461.847 -5.11279 1.99713 0
M  V30 4922 H 462.108 -4.40174 0.412273 0
M  V30 4923 N 461.167 -1.02423 -1.1978 0
M  V30 4924 C 462.114 -0.601023 -2.22837 0
M  V30 4925 C 463.084 0.382801 -1.61629 0
M  V30 4926 O 464.269 0.280514 -1.88727 0
M  V30 4927 C 461.409 0.0467755 -3.45068 0
M  V30 4928 C 460.522 -0.98253 -4.20678 0
M  V30 4929 C 459.657 -0.304982 -5.30324 0
M  V30 4930 C 458.696 -1.32052 -5.97686 0
M  V30 4931 N 457.833 -0.669105 -6.98904 0
M  V30 4932 H 462.673 -1.48444 -2.58396 0
M  V30 4933 H 460.21 -0.742936 -1.2696 0
M  V30 4934 H 462.168 0.439556 -4.14878 0
M  V30 4935 H 460.798 0.893796 -3.10179 0
M  V30 4936 H 459.85 -1.49341 -3.49859 0
M  V30 4937 H 461.162 -1.75455 -4.66923 0
M  V30 4938 H 460.316 0.142893 -6.06532 0
M  V30 4939 H 459.055 0.499283 -4.85138 0
M  V30 4940 H 458.06 -1.7787 -5.20233 0
M  V30 4941 H 459.285 -2.1262 -6.44957 0
M  V30 4942 H 457.231 0.115152 -6.55899 0
M  V30 4943 H 457.148 -1.37908 -7.43315 0
M  V30 4944 H 458.416 -0.245076 -7.79115 0
M  V30 4945 N 462.645 1.35699 -0.801477 0
M  V30 4946 C 463.892 1.98913 -0.379459 0
M  V30 4947 C 464.22 1.63592 1.05204 0
M  V30 4948 O 463.475 0.888563 1.74365 0
M  V30 4949 C 463.774 3.53828 -0.504041 0
M  V30 4950 C 463.44 4.09002 -1.8981 0
M  V30 4951 C 462.102 4.23783 -2.27951 0
M  V30 4952 C 464.454 4.38939 -2.81038 0
M  V30 4953 C 461.782 4.65816 -3.56696 0
M  V30 4954 C 464.134 4.82409 -4.09224 0
M  V30 4955 C 462.798 4.95395 -4.4737 0
M  V30 4956 H 462.068 0.727874 -0.138854 0
M  V30 4957 H 464.715 1.61994 -1.02128 0
M  V30 4958 H 463.02 3.91175 0.221242 0
M  V30 4959 H 464.717 4.00687 -0.158361 0
M  V30 4960 H 461.307 3.97946 -1.59176 0
M  V30 4961 H 465.491 4.27077 -2.52821 0
M  V30 4962 H 460.747 4.74059 -3.86106 0
M  V30 4963 H 464.921 5.04535 -4.80018 0
M  V30 4964 H 462.548 5.27724 -5.47185 0
M  V30 4965 N 464.123 0.554532 1.47522 0
M  V30 4966 C 465.534 0.120446 1.86311 0
M  V30 4967 C 465.885 -1.30904 1.46145 0
M  V30 4968 O 465.01 -1.98434 0.863294 0
M  V30 4969 C 465.605 0.211808 3.38137 0
M  V30 4970 C 464.164 -0.167224 3.76028 0
M  V30 4971 C 463.311 0.560576 2.71575 0
M  V30 4972 H 466.262 0.764408 1.39077 0
M  V30 4973 H 466.283 -0.570275 3.76202 0
M  V30 4974 H 465.795 1.25232 3.6734 0
M  V30 4975 H 463.896 -1.20894 3.52442 0
M  V30 4976 H 464.009 0.189473 4.78725 0
M  V30 4977 H 462.373 0.00396836 2.547 0
M  V30 4978 H 463.156 1.60219 3.0362 0
M  V30 4979 N 465.601 -1.54893 0.290851 0
M  V30 4980 C 466.829 -2.04343 -0.324288 0
M  V30 4981 C 467.244 -1.16859 -1.48289 0
M  V30 4982 O 466.601 -0.192018 -1.81487 0
M  V30 4983 C 466.652 -3.52756 -0.79026 0
M  V30 4984 O 466.373 -4.36913 0.322213 0
M  V30 4985 C 467.874 -4.18161 -1.4716 0
M  V30 4986 H 465.094 -0.667135 -0.0719173 0
M  V30 4987 H 467.638 -1.99981 0.427529 0
M  V30 4988 H 465.793 -3.57511 -1.49213 0
M  V30 4989 H 466.207 -5.24486 -0.0387372 0
M  V30 4990 H 467.681 -5.23562 -1.7489 0
M  V30 4991 H 468.158 -3.67282 -2.40834 0
M  V30 4992 H 468.764 -4.17454 -0.813178 0
M  V30 4993 N 467.08 -0.0183926 -1.57589 0
M  V30 4994 C 468.027 0.967022 -2.09565 0
M  V30 4995 C 468.997 1.32983 -0.995225 0
M  V30 4996 O 470.182 1.42501 -1.26878 0
M  V30 4997 C 467.322 2.24772 -2.61861 0
M  V30 4998 C 466.435 1.94232 -3.85873 0
M  V30 4999 C 465.57 3.16518 -4.26603 0
M  V30 5000 C 464.609 2.81748 -5.43401 0
M  V30 5001 N 463.746 3.96626 -5.79338 0
M  V30 5002 H 468.586 0.516874 -2.93483 0
M  V30 5003 H 466.123 0.243544 -1.4507 0
M  V30 5004 H 468.081 2.99667 -2.90268 0
M  V30 5005 H 466.711 2.67423 -1.8079 0
M  V30 5006 H 465.763 1.09625 -3.64262 0
M  V30 5007 H 467.075 1.64616 -4.70853 0
M  V30 5008 H 466.229 3.99743 -4.56389 0
M  V30 5009 H 464.968 3.49286 -3.40368 0
M  V30 5010 H 463.973 1.96933 -5.1332 0
M  V30 5011 H 465.198 2.50207 -6.31327 0
M  V30 5012 H 463.144 4.29257 -4.96059 0
M  V30 5013 H 463.061 3.70598 -6.58933 0
M  V30 5014 H 464.329 4.80586 -6.13724 0
M  V30 5015 N 468.558 1.5553 0.254621 0
M  V30 5016 C 469.521 1.88872 1.29846 0
M  V30 5017 C 470.521 0.764591 1.41459 0
M  V30 5018 O 471.711 1.03265 1.40293 0
M  V30 5019 C 468.843 2.11032 2.67728 0
M  V30 5020 H 470.036 2.82201 1.01502 0
M  V30 5021 H 467.589 1.48303 0.493556 0
M  V30 5022 H 468.324 1.20146 3.01223 0
M  V30 5023 H 468.109 2.92895 2.60682 0
M  V30 5024 H 469.599 2.38038 3.43115 0
M  V30 5025 N 470.036 -0.519951 1.48776 0
M  V30 5026 C 470.986 -1.61995 1.60442 0
M  V30 5027 C 471.97 -1.54155 0.460991 0
M  V30 5028 O 473.162 -1.62006 0.712965 0
M  V30 5029 C 470.291 -3.00683 1.65664 0
M  V30 5030 C 469.377 -3.1359 2.8552 0
M  V30 5031 N 469.768 -2.96441 4.09825 0
M  V30 5032 C 468.066 -3.44662 2.83062 0
M  V30 5033 C 468.767 -3.1303 4.90293 0
M  V30 5034 N 467.743 -3.41058 4.23297 0
M  V30 5035 H 471.545 -1.47362 2.54287 0
M  V30 5036 H 469.059 -0.725649 1.45286 0
M  V30 5037 H 471.056 -3.79712 1.72117 0
M  V30 5038 H 469.716 -3.16401 0.729425 0
M  V30 5039 H 470.727 -2.72999 4.40104 0
M  V30 5040 H 467.404 -3.66675 1.9964 0
M  V30 5041 H 468.794 -3.04424 5.98979 0
M  V30 5042 N 471.514 -1.37532 -0.769588 0
M  V30 5043 C 472.742 -1.36059 -1.55871 0
M  V30 5044 C 473.157 0.053544 -1.88724 0
M  V30 5045 O 472.514 1.01591 -1.5161 0
M  V30 5046 C 472.565 -2.20107 -2.86767 0
M  V30 5047 O 472.286 -3.56009 -2.55321 0
M  V30 5048 C 473.787 -2.26636 -3.80987 0
M  V30 5049 H 471.007 -0.465967 -0.482821 0
M  V30 5050 H 473.551 -1.80901 -0.953686 0
M  V30 5051 H 471.706 -1.78768 -3.43687 0
M  V30 5052 H 472.12 -4.0009 -3.39158 0
M  V30 5053 H 473.594 -2.89763 -4.69831 0
M  V30 5054 H 474.071 -1.2754 -4.20274 0
M  V30 5055 H 474.677 -2.68296 -3.29996 0
M  V30 5056 N 472.992 0.995999 -1.22138 0
M  V30 5057 C 474.22 1.77066 -1.07029 0
M  V30 5058 C 474.635 1.8495 0.379357 0
M  V30 5059 O 473.992 1.3174 1.26297 0
M  V30 5060 C 474.043 3.20533 -1.67155 0
M  V30 5061 O 473.764 3.13082 -3.06449 0
M  V30 5062 C 475.265 4.14461 -1.5728 0
M  V30 5063 H 472.485 0.556179 -0.375374 0
M  V30 5064 H 475.029 1.25238 -1.61666 0
M  V30 5065 H 473.184 3.6944 -1.16589 0
M  V30 5066 H 473.598 4.03283 -3.35355 0
M  V30 5067 H 475.072 5.1289 -2.04078 0
M  V30 5068 H 475.549 4.36005 -0.528795 0
M  V30 5069 H 476.155 3.71449 -2.07136 0
M  V30 5070 N 474.47 1.03057 1.19235 0
M  V30 5071 C 475.881 0.757449 1.70645 0
M  V30 5072 C 476.232 -0.722735 1.82403 0
M  V30 5073 O 475.357 -1.56325 1.49638 0
M  V30 5074 C 475.952 1.36833 3.09939 0
M  V30 5075 C 474.511 1.14375 3.58602 0
M  V30 5076 C 473.658 1.46533 2.35422 0
M  V30 5077 H 476.609 1.19828 1.04052 0
M  V30 5078 H 476.63 0.766184 3.72706 0
M  V30 5079 H 476.142 2.44562 3.01349 0
M  V30 5080 H 474.243 0.0847542 3.72504 0
M  V30 5081 H 474.356 1.83366 4.42622 0
M  V30 5082 H 472.72 0.884712 2.38841 0
M  V30 5083 H 473.503 2.55349 2.2946 0
M  V30 5084 N 475.948 -1.35272 0.808662 0
M  V30 5085 C 477.194 -1.99434 0.399717 0
M  V30 5086 C 477.549 -1.62992 -1.02232 0
M  V30 5087 O 476.842 -0.884091 -1.69983 0
M  V30 5088 C 477.036 -3.53556 0.522798 0
M  V30 5089 C 476.865 -4.04969 1.95525 0
M  V30 5090 C 475.635 -4.34228 2.58407 0
M  V30 5091 C 477.833 -4.23362 2.92009 0
M  V30 5092 N 475.815 -4.71585 3.93041 0
M  V30 5093 C 477.186 -4.63739 4.11517 0
M  V30 5094 C 479.241 -4.05576 2.88813 0
M  V30 5095 C 477.944 -4.88189 5.28265 0
M  V30 5096 C 479.97 -4.31184 4.04765 0
M  V30 5097 C 479.332 -4.71834 5.23022 0
M  V30 5098 H 475.431 -0.757534 0.19408 0
M  V30 5099 H 478.015 -1.63939 1.05034 0
M  V30 5100 H 476.186 -3.88277 -0.0978471 0
M  V30 5101 H 477.918 -4.04604 0.0882378 0
M  V30 5102 H 474.673 -4.24621 2.09747 0
M  V30 5103 H 475.097 -4.9452 4.62363 0
M  V30 5104 H 479.739 -3.73288 1.98535 0
M  V30 5105 H 477.457 -5.1935 6.19113 0
M  V30 5106 H 481.043 -4.18972 4.03675 0
M  V30 5107 H 479.923 -4.91263 6.11253 0
M  V30 5108 N 477.426 -0.562348 -1.47226 0
M  V30 5109 C 478.674 -0.0401371 -2.0206 0
M  V30 5110 C 478.995 1.3165 -1.43852 0
M  V30 5111 O 478.265 1.85976 -0.615599 0
M  V30 5112 H 476.845 -0.0118479 -0.746906 0
M  V30 5113 H 479.507 -0.73352 -1.8057 0
M  V30 5114 H 478.603 0.0441254 -3.12069 0
M  V30 5115 N 478.904 1.54736 -0.299062 0
M  V30 5116 C 479.834 2.26409 0.571085 0
M  V30 5117 C 480.815 1.2629 1.13951 0
M  V30 5118 O 482 1.55059 1.16921 0
M  V30 5119 C 479.13 3.00338 1.74396 0
M  V30 5120 C 478.084 4.07588 1.30599 0
M  V30 5121 C 477.41 4.69222 2.56387 0
M  V30 5122 C 478.71 5.20455 0.438645 0
M  V30 5123 H 480.404 2.99388 -0.0266991 0
M  V30 5124 H 477.95 1.43993 -0.0142812 0
M  V30 5125 H 479.903 3.49198 2.35878 0
M  V30 5126 H 478.627 2.24934 2.36796 0
M  V30 5127 H 477.286 3.59575 0.71424 0
M  V30 5128 H 476.934 3.9046 3.17097 0
M  V30 5129 H 476.634 5.41653 2.27784 0
M  V30 5130 H 478.158 5.20844 3.18675 0
M  V30 5131 H 479.572 5.65221 0.959085 0
M  V30 5132 H 477.969 5.99594 0.246466 0
M  V30 5133 H 479.039 4.8192 -0.536738 0
M  V30 5134 N 480.382 0.0267497 1.57577 0
M  V30 5135 C 481.629 -0.652404 1.91703 0
M  V30 5136 C 481.957 -1.72271 0.902936 0
M  V30 5137 O 481.212 -1.955 -0.0884843 0
M  V30 5138 C 481.511 -1.30914 3.3256 0
M  V30 5139 C 481.177 -0.369441 4.49384 0
M  V30 5140 C 479.839 -0.110791 4.81072 0
M  V30 5141 C 482.191 0.275971 5.20469 0
M  V30 5142 C 479.519 0.801116 5.81205 0
M  V30 5143 C 481.871 1.17592 6.21575 0
M  V30 5144 C 480.535 1.44348 6.51705 0
M  V30 5145 H 479.805 -0.238732 0.70149 0
M  V30 5146 H 482.452 0.0880091 1.91298 0
M  V30 5147 H 480.757 -2.12425 3.29216 0
M  V30 5148 H 482.454 -1.84115 3.56234 0
M  V30 5149 H 479.044 -0.581211 4.24641 0
M  V30 5150 H 483.228 0.0892 4.9622 0
M  V30 5151 H 478.484 1.01614 6.02897 0
M  V30 5152 H 482.658 1.68223 6.75777 0
M  V30 5153 H 480.285 2.15176 7.29111 0
M  V30 5154 N 481.861 -1.55662 -0.24637 0
M  V30 5155 C 483.091 -1.81312 -0.990438 0
M  V30 5156 C 483.499 -0.600234 -1.79426 0
M  V30 5157 O 482.842 0.440537 -1.78339 0
M  V30 5158 C 482.904 -3.0032 -1.97607 0
M  V30 5159 C 482.568 -4.36322 -1.35912 0
M  V30 5160 C 483.565 -5.14295 -0.761348 0
M  V30 5161 C 481.25 -4.83019 -1.37833 0
M  V30 5162 C 483.244 -6.37114 -0.190998 0
M  V30 5163 C 480.931 -6.05786 -0.804128 0
M  V30 5164 C 481.929 -6.82672 -0.211489 0
M  V30 5165 O 481.617 -8.03121 0.353845 0
M  V30 5166 H 481.349 -0.607233 -0.297058 0
M  V30 5167 H 483.903 -2.0356 -0.274351 0
M  V30 5168 H 482.133 -2.73829 -2.73047 0
M  V30 5169 H 483.822 -3.13057 -2.58361 0
M  V30 5170 H 484.588 -4.79337 -0.739013 0
M  V30 5171 H 480.467 -4.23165 -1.829 0
M  V30 5172 H 484.011 -6.97069 0.272206 0
M  V30 5173 H 479.908 -6.40222 -0.823792 0
M  V30 5174 H 480.676 -8.18131 0.245761 0
M  V30 5175 N 483.339 0.512053 -1.4905 0
M  V30 5176 C 484.564 1.2959 -1.6193 0
M  V30 5177 C 484.989 1.85906 -0.286454 0
M  V30 5178 O 484.347 1.65312 0.744426 0
M  V30 5179 C 484.395 2.40987 -2.68249 0
M  V30 5180 O 483.499 3.44531 -2.26654 0
M  V30 5181 H 482.84 0.383053 -0.542371 0
M  V30 5182 H 485.37 0.614231 -1.95162 0
M  V30 5183 H 485.38 2.86913 -2.90078 0
M  V30 5184 H 484.055 1.99361 -3.65004 0
M  V30 5185 H 482.632 3.046 -2.15112 0
M  V30 5186 N 484.817 1.37938 0.762283 0
M  V30 5187 C 486.063 1.34873 1.52253 0
M  V30 5188 C 486.418 -0.0635972 1.92295 0
M  V30 5189 O 485.711 -1.02434 1.61919 0
M  V30 5190 C 485.905 2.23042 2.79261 0
M  V30 5191 C 485.734 3.72706 2.51635 0
M  V30 5192 C 484.504 4.41771 2.45289 0
M  V30 5193 C 486.702 4.65345 2.18994 0
M  V30 5194 N 484.684 5.76921 2.09846 0
M  V30 5195 C 486.055 5.88943 1.9377 0
M  V30 5196 C 488.11 4.53636 2.0523 0
M  V30 5197 C 486.813 7.02142 1.5617 0
M  V30 5198 C 488.839 5.6673 1.69031 0
M  V30 5199 C 488.201 6.89383 1.44673 0
M  V30 5200 H 484.3 0.548818 0.557067 0
M  V30 5201 H 486.884 1.73247 0.888458 0
M  V30 5202 H 485.055 1.8687 3.40491 0
M  V30 5203 H 486.787 2.11165 3.45241 0
M  V30 5204 H 483.542 3.94883 2.61465 0
M  V30 5205 H 483.966 6.4837 1.94794 0
M  V30 5206 H 488.608 3.5937 2.2274 0
M  V30 5207 H 486.326 7.96334 1.37399 0
M  V30 5208 H 489.912 5.59645 1.59026 0
M  V30 5209 H 488.792 7.75411 1.17079 0
M  V30 5210 N 486.295 -0.989507 1.22664 0
M  V30 5211 C 487.52 -1.77031 1.08051 0
M  V30 5212 C 487.945 -1.84535 -0.364483 0
M  V30 5213 O 487.303 -1.3003 -1.2634 0
M  V30 5214 C 487.351 -3.18 1.70024 0
M  V30 5215 O 486.455 -4.01161 0.956216 0
M  V30 5216 H 485.796 -0.545008 0.379292 0
M  V30 5217 H 488.326 -1.24277 1.62531 0
M  V30 5218 H 488.336 -3.68616 1.74888 0
M  V30 5219 H 487.011 -3.11853 2.75174 0
M  V30 5220 H 485.588 -3.59687 0.98384 0
M  V30 5221 N 487.773 -1.03688 -1.18687 0
M  V30 5222 C 489.001 -0.757918 -1.92518 0
M  V30 5223 C 489.416 0.684398 -1.75959 0
M  V30 5224 O 488.773 1.46617 -1.08673 0
M  V30 5225 C 488.824 -1.10985 -3.44042 0
M  V30 5226 O 488.545 -2.49554 -3.60076 0
M  V30 5227 C 490.046 -0.854844 -4.3498 0
M  V30 5228 H 487.266 -0.276699 -0.611293 0
M  V30 5229 H 489.81 -1.38352 -1.50595 0
M  V30 5230 H 487.965 -0.529279 -3.83767 0
M  V30 5231 H 488.379 -2.6291 -4.53849 0
M  V30 5232 H 489.853 -1.15098 -5.39867 0
M  V30 5233 H 490.33 0.210507 -4.38695 0
M  V30 5234 H 490.936 -1.41853 -4.00946 0
M  V30 5235 N 489.251 1.34841 -0.815825 0
M  V30 5236 C 490.214 2.27959 -0.238185 0
M  V30 5237 C 491.214 1.49983 0.579816 0
M  V30 5238 O 492.404 1.69617 0.396953 0
M  V30 5239 C 489.536 3.34314 0.666876 0
M  V30 5240 H 490.729 2.80558 -1.05958 0
M  V30 5241 H 488.282 1.44852 -0.587156 0
M  V30 5242 H 489.017 2.86916 1.5116 0
M  V30 5243 H 488.802 3.92014 0.0819106 0
M  V30 5244 H 490.292 4.0379 1.06506 0
M  V30 5245 N 490.729 0.570148 1.46925 0
M  V30 5246 C 491.954 0.0542592 2.07329 0
M  V30 5247 C 492.379 -1.23582 1.41806 0
M  V30 5248 O 491.737 -1.74341 0.497479 0
M  V30 5249 C 491.785 -0.111175 3.60429 0
M  V30 5250 O 490.889 -1.17071 3.95434 0
M  V30 5251 H 490.23 0.0571425 0.661537 0
M  V30 5252 H 492.76 0.789516 1.88753 0
M  V30 5253 H 492.77 -0.321315 4.06733 0
M  V30 5254 H 491.445 0.831012 4.07513 0
M  V30 5255 H 490.022 -0.940029 3.60857 0
M  V30 5256 N 492.207 -1.54576 0.307264 0
M  V30 5257 C 493.137 -2.26708 -0.55907 0
M  V30 5258 C 494.118 -1.26893 -1.1328 0
M  V30 5259 O 495.303 -1.55677 -1.16097 0
M  V30 5260 C 492.433 -3.01259 -1.72801 0
M  V30 5261 C 491.387 -4.08275 -1.28435 0
M  V30 5262 C 490.713 -4.70575 -2.53895 0
M  V30 5263 C 492.013 -5.2068 -0.411038 0
M  V30 5264 H 493.707 -2.9937 0.042576 0
M  V30 5265 H 491.253 -1.43983 0.0219173 0
M  V30 5266 H 493.206 -3.50444 -2.34023 0
M  V30 5267 H 491.93 -2.26187 -2.356 0
M  V30 5268 H 490.589 -3.59949 -0.695161 0
M  V30 5269 H 490.237 -3.92136 -3.15021 0
M  V30 5270 H 489.937 -5.42854 -2.24908 0
M  V30 5271 H 491.461 -5.22527 -3.15908 0
M  V30 5272 H 492.875 -5.65721 -0.929097 0
M  V30 5273 H 491.272 -5.99716 -0.214664 0
M  V30 5274 H 492.342 -4.81629 0.562287 0
M  V30 5275 N 493.685 -0.035106 -1.57561 0
M  V30 5276 C 494.962 0.681212 -1.83354 0
M  V30 5277 C 495.342 1.89986 -0.920252 0
M  V30 5278 O 494.69 2.28489 0.0226815 0
M  V30 5279 C 494.9 1.05376 -3.32712 0
M  V30 5280 C 496.248 1.44286 -3.99333 0
M  V30 5281 O 497.272 1.14656 -3.37242 0
M  V30 5282 O 496.131 1.99518 -5.08778 0
M  V30 5283 H 493.225 0.334741 -0.756226 0
M  V30 5284 H 495.771 -0.0632448 -1.69582 0
M  V30 5285 H 494.543 0.186668 -3.90854 0
M  V30 5286 H 494.166 1.85619 -3.51613 0
M  V30 5287 N 495.163 1.55791 0.238111 0
M  V30 5288 C 496.388 1.8244 0.986432 0
M  V30 5289 C 496.813 0.613314 1.7782 0
M  V30 5290 O 496.171 -0.437767 1.75935 0
M  V30 5291 C 496.219 3.06917 1.893 0
M  V30 5292 O 495.323 2.84449 2.98601 0
M  V30 5293 H 494.664 0.601975 0.280218 0
M  V30 5294 H 497.194 2.02987 0.256437 0
M  V30 5295 H 497.204 3.36583 2.30598 0
M  V30 5296 H 495.879 3.947 1.31091 0
M  V30 5297 H 494.456 2.65972 2.61368 0
M  V30 5298 N 496.642 -0.504142 1.49319 0
M  V30 5299 C 497.574 -1.62265 1.61872 0
M  V30 5300 C 498.587 -1.54881 0.501573 0
M  V30 5301 O 499.776 -1.6087 0.773497 0
M  V30 5302 C 496.876 -3.01042 1.55651 0
M  V30 5303 C 496.049 -3.33642 2.82845 0
M  V30 5304 C 495.108 -4.51816 2.69719 0
M  V30 5305 O 494.134 -4.53755 3.4365 0
M  V30 5306 N 495.336 -5.51543 1.81055 0
M  V30 5307 H 498.101 -1.51924 2.58339 0
M  V30 5308 H 495.662 -0.691954 1.46368 0
M  V30 5309 H 497.654 -3.78013 1.44528 0
M  V30 5310 H 496.224 -3.05323 0.670546 0
M  V30 5311 H 495.444 -2.45598 3.08343 0
M  V30 5312 H 496.732 -3.5222 3.67177 0
M  V30 5313 H 496.13 -5.52774 1.20241 0
M  V30 5314 H 494.687 -6.27629 1.75856 0
M  V30 5315 N 498.12 -1.38341 -0.754957 0
M  V30 5316 C 499.053 -1.29837 -1.87663 0
M  V30 5317 C 500.031 -0.175659 -1.61648 0
M  V30 5318 O 501.215 -0.352745 -1.8517 0
M  V30 5319 C 498.342 -1.01141 -3.23246 0
M  V30 5320 C 497.388 -2.15331 -3.6815 0
M  V30 5321 S 498.221 -3.77459 -3.79849 0
M  V30 5322 C 499.377 -3.50948 -5.18253 0
M  V30 5323 H 499.61 -2.24771 -1.9459 0
M  V30 5324 H 497.143 -1.24161 -0.917796 0
M  V30 5325 H 499.101 -0.852687 -4.01546 0
M  V30 5326 H 497.762 -0.0792784 -3.14 0
M  V30 5327 H 496.955 -1.90795 -4.6649 0
M  V30 5328 H 496.557 -2.27304 -2.97 0
M  V30 5329 H 498.849 -3.06977 -6.03963 0
M  V30 5330 H 499.792 -4.48677 -5.47809 0
M  V30 5331 H 500.2 -2.85492 -4.86985 0
M  V30 5332 N 499.598 0.982988 -1.23187 0
M  V30 5333 C 501.009 1.53847 -1.05773 0
M  V30 5334 C 501.36 1.92568 0.375744 0
M  V30 5335 O 500.485 1.75783 1.26211 0
M  V30 5336 C 501.08 2.79567 -1.91384 0
M  V30 5337 C 499.639 3.31524 -1.78238 0
M  V30 5338 C 498.786 2.04534 -1.87246 0
M  V30 5339 H 501.737 0.802962 -1.36888 0
M  V30 5340 H 501.758 3.52317 -1.43711 0
M  V30 5341 H 501.27 2.51353 -2.95708 0
M  V30 5342 H 499.371 3.64623 -0.766875 0
M  V30 5343 H 499.484 4.01457 -2.61475 0
M  V30 5344 H 497.848 2.1855 -1.30797 0
M  V30 5345 H 498.631 1.78706 -2.9312 0
M  V30 5346 N 501.076 1.04316 1.18135 0
M  V30 5347 C 502.301 0.768047 1.92655 0
M  V30 5348 C 502.726 -0.66904 1.758 0
M  V30 5349 O 502.084 -1.46372 1.06981 0
M  V30 5350 C 502.132 1.14239 3.42026 0
M  V30 5351 O 501.236 0.269333 4.1152 0
M  V30 5352 H 500.577 0.282436 0.600937 0
M  V30 5353 H 503.107 1.39367 1.49793 0
M  V30 5354 H 503.117 1.10538 3.92741 0
M  V30 5355 H 501.792 2.18928 3.53615 0
M  V30 5356 H 500.369 0.366175 3.71098 0
M  V30 5357 N 502.554 -1.34406 0.822964 0
M  V30 5358 C 503.779 -2.0304 0.423034 0
M  V30 5359 C 504.204 -1.61568 -0.963196 0
M  V30 5360 O 503.562 -0.800339 -1.62678 0
M  V30 5361 C 503.61 -3.56636 0.53321 0
M  V30 5362 O 502.714 -4.09971 -0.446939 0
M  V30 5363 H 502.055 -0.64075 0.174171 0
M  V30 5364 H 504.585 -1.71653 1.11339 0
M  V30 5365 H 504.595 -4.05945 0.408991 0
M  V30 5366 H 503.27 -3.86168 1.54425 0
M  V30 5367 H 501.847 -3.71835 -0.281601 0
M  V30 5368 N 504.032 -0.577932 -1.46621 0
M  V30 5369 C 504.962 0.145917 -2.33044 0
M  V30 5370 C 505.943 0.888412 -1.45056 0
M  V30 5371 O 507.128 0.864812 -1.73881 0
M  V30 5372 C 504.258 1.16322 -3.27241 0
M  V30 5373 C 503.212 0.535868 -4.24632 0
M  V30 5374 C 502.538 1.65929 -5.08303 0
M  V30 5375 C 503.838 -0.523861 -5.19666 0
M  V30 5376 H 505.532 -0.575636 -2.93814 0
M  V30 5377 H 503.078 -0.278272 -1.41286 0
M  V30 5378 H 505.031 1.67793 -3.86553 0
M  V30 5379 H 503.755 1.91498 -2.64567 0
M  V30 5380 H 502.414 0.0422759 -3.66576 0
M  V30 5381 H 502.062 2.40061 -4.42018 0
M  V30 5382 H 501.762 1.2452 -5.74255 0
M  V30 5383 H 503.286 2.17686 -5.70478 0
M  V30 5384 H 504.7 -0.0944059 -5.73222 0
M  V30 5385 H 503.097 -0.858 -5.93935 0
M  V30 5386 H 504.167 -1.41197 -4.63887 0
M  V30 5387 N 505.51 1.54411 -0.315457 0
M  V30 5388 C 506.46 2.20772 0.569549 0
M  V30 5389 C 507.444 1.18551 1.08787 0
M  V30 5390 O 508.636 1.44213 1.02624 0
M  V30 5391 C 505.765 2.96293 1.73394 0
M  V30 5392 C 504.851 4.05844 1.2309 0
M  V30 5393 N 505.242 5.03822 0.446927 0
M  V30 5394 C 503.54 4.19648 1.51035 0
M  V30 5395 C 504.241 5.8143 0.17725 0
M  V30 5396 N 503.217 5.38245 0.761118 0
M  V30 5397 H 507.019 2.93877 -0.0368076 0
M  V30 5398 H 504.533 1.61949 -0.120915 0
M  V30 5399 H 506.53 3.42313 2.37965 0
M  V30 5400 H 505.19 2.24708 2.34386 0
M  V30 5401 H 506.201 5.17821 0.0905027 0
M  V30 5402 H 502.878 3.59274 2.1267 0
M  V30 5403 H 504.268 6.70369 -0.45335 0
M  V30 5404 N 506.988 0.0434614 1.5754 0
M  V30 5405 C 508.399 -0.493343 1.80064 0
M  V30 5406 C 508.75 -1.71388 0.955023 0
M  V30 5407 O 507.875 -2.15736 0.169434 0
M  V30 5408 C 508.47 -0.90179 3.26578 0
M  V30 5409 C 507.029 -1.38362 3.50047 0
M  V30 5410 C 506.176 -0.355129 2.75017 0
M  V30 5411 H 509.127 0.2694 1.56397 0
M  V30 5412 H 509.148 -1.76523 3.37075 0
M  V30 5413 H 508.66 -0.013271 3.88098 0
M  V30 5414 H 506.761 -2.29159 2.93798 0
M  V30 5415 H 506.874 -1.3811 4.58762 0
M  V30 5416 H 505.238 -0.826348 2.40922 0
M  V30 5417 H 506.021 0.525172 3.39259 0
M  V30 5418 N 508.466 -1.55915 -0.229846 0
M  V30 5419 C 509.694 -1.82617 -0.972562 0
M  V30 5420 C 510.109 -0.621488 -1.78278 0
M  V30 5421 O 509.466 0.409956 -1.77836 0
M  V30 5422 C 509.517 -3.0774 -1.89679 0
M  V30 5423 O 509.238 -4.23559 -1.11934 0
M  V30 5424 C 510.739 -3.47368 -2.75409 0
M  V30 5425 H 507.959 -0.60727 -0.285419 0
M  V30 5426 H 510.503 -2.02996 -0.247579 0
M  V30 5427 H 508.658 -2.89361 -2.57583 0
M  V30 5428 H 509.072 -4.94586 -1.74599 0
M  V30 5429 H 510.546 -4.37977 -3.35977 0
M  V30 5430 H 511.023 -2.68737 -3.47386 0
M  V30 5431 H 511.629 -3.68158 -2.12931 0
M  V30 5432 N 509.944 0.496216 -1.49584 0
M  V30 5433 C 510.876 1.61404 -1.62731 0
M  V30 5434 C 511.889 1.54613 -0.50978 0
M  V30 5435 O 513.078 1.60458 -0.782017 0
M  V30 5436 C 510.178 3.00212 -1.57245 0
M  V30 5437 C 509.351 3.32138 -2.84611 0
M  V30 5438 C 508.41 4.5038 -2.72112 0
M  V30 5439 O 507.436 4.51926 -3.46051 0
M  V30 5440 N 508.638 5.50575 -1.83977 0
M  V30 5441 H 511.403 1.50552 -2.59141 0
M  V30 5442 H 508.964 0.684182 -1.46733 0
M  V30 5443 H 510.956 3.77241 -1.4653 0
M  V30 5444 H 509.526 3.04964 -0.686729 0
M  V30 5445 H 508.746 2.4396 -3.09641 0
M  V30 5446 H 510.034 3.50268 -3.69039 0
M  V30 5447 H 509.432 5.52128 -1.23171 0
M  V30 5448 H 507.989 6.26687 -1.79182 0
M  V30 5449 N 511.423 1.38739 0.74761 0
M  V30 5450 C 512.333 1.38696 1.89211 0
M  V30 5451 C 513.349 0.283303 1.71678 0
M  V30 5452 O 514.525 0.522713 1.94498 0
M  V30 5453 C 511.59 1.21662 3.24653 0
M  V30 5454 C 510.651 2.41886 3.54669 0
M  V30 5455 C 509.884 2.25655 4.83648 0
M  V30 5456 O 510.107 1.25339 5.56459 0
M  V30 5457 O 509.041 3.14372 5.13277 0
M  V30 5458 H 512.867 2.35143 1.92202 0
M  V30 5459 H 510.452 1.19721 0.893708 0
M  V30 5460 H 512.334 1.14246 4.05618 0
M  V30 5461 H 511.009 0.283024 3.2246 0
M  V30 5462 H 509.916 2.54877 2.73841 0
M  V30 5463 H 511.249 3.33895 3.61628 0
M  V30 5464 N 512.901 -0.976442 1.23707 0
M  V30 5465 C 514.126 -1.75875 1.09922 0
M  V30 5466 C 514.551 -1.84911 -0.34489 0
M  V30 5467 O 513.909 -1.31363 -1.24954 0
M  V30 5468 C 513.957 -3.16179 1.73388 0
M  V30 5469 O 513.061 -4.00124 0.99871 0
M  V30 5470 H 512.402 -0.540954 0.385052 0
M  V30 5471 H 514.932 -1.22546 1.6384 0
M  V30 5472 H 514.942 -3.66741 1.78788 0
M  V30 5473 H 513.617 -3.08917 2.78466 0
M  V30 5474 H 512.194 -3.58624 1.02193 0
M  V30 5475 N 514.379 -1.04941 -1.1758 0
M  V30 5476 C 515.607 -0.778294 -1.91703 0
M  V30 5477 C 516.022 0.665697 -1.76675 0
M  V30 5478 O 515.379 1.45456 -1.10222 0
M  V30 5479 C 515.43 -1.14628 -3.42845 0
M  V30 5480 O 515.151 -2.53359 -3.57409 0
M  V30 5481 C 516.652 -0.900931 -4.34049 0
M  V30 5482 H 513.872 -0.283167 -0.608323 0
M  V30 5483 H 516.416 -1.39942 -1.49119 0
M  V30 5484 H 514.571 -0.569953 -3.83184 0
M  V30 5485 H 514.985 -2.67709 -4.51035 0
M  V30 5486 H 516.459 -1.20817 -5.38616 0
M  V30 5487 H 516.936 0.163966 -4.38894 0
M  V30 5488 H 517.542 -1.46097 -3.99419 0
M  V30 5489 N 515.857 1.33968 -0.830081 0
M  V30 5490 C 516.804 2.29387 -0.255008 0
M  V30 5491 C 517.774 1.53923 0.624243 0
M  V30 5492 O 518.959 1.82262 0.564372 0
M  V30 5493 C 516.099 3.4034 0.571209 0
M  V30 5494 C 515.212 4.30729 -0.331083 0
M  V30 5495 C 514.347 5.2879 0.505389 0
M  V30 5496 C 513.386 6.10819 -0.395843 0
M  V30 5497 N 512.523 7.00948 0.401979 0
M  V30 5498 H 517.363 2.77972 -1.07404 0
M  V30 5499 H 514.9 1.36785 -0.541133 0
M  V30 5500 H 516.858 4.03361 1.06562 0
M  V30 5501 H 515.488 2.9297 1.35529 0
M  V30 5502 H 514.54 3.68507 -0.943759 0
M  V30 5503 H 515.852 4.88181 -1.02377 0
M  V30 5504 H 515.006 5.97297 1.06399 0
M  V30 5505 H 513.745 4.71894 1.23155 0
M  V30 5506 H 512.75 5.41238 -0.966529 0
M  V30 5507 H 513.975 6.69797 -1.12023 0
M  V30 5508 H 511.921 6.46512 1.11168 0
M  V30 5509 H 511.838 7.55643 -0.232167 0
M  V30 5510 H 513.106 7.73774 0.943102 0
M  V30 5511 N 517.335 0.585699 1.46312 0
M  V30 5512 C 518.245 -0.148236 2.34131 0
M  V30 5513 C 519.261 -0.882972 1.49932 0
M  V30 5514 O 520.437 -0.845484 1.82794 0
M  V30 5515 C 517.502 -1.14714 3.27172 0
M  V30 5516 C 516.563 -0.416746 4.27272 0
M  V30 5517 C 515.796 -1.36806 5.15868 0
M  V30 5518 O 516.019 -2.60475 5.07454 0
M  V30 5519 O 514.953 -0.877018 5.95476 0
M  V30 5520 H 518.779 0.572882 2.98248 0
M  V30 5521 H 516.364 0.346082 1.45336 0
M  V30 5522 H 518.246 -1.72303 3.84564 0
M  V30 5523 H 516.921 -1.84967 2.65648 0
M  V30 5524 H 515.828 0.201061 3.73559 0
M  V30 5525 H 517.161 0.244872 4.9159 0
M  V30 5526 N 518.813 -1.54241 0.323641 0
M  V30 5527 C 519.745 -2.21836 -0.576311 0
M  V30 5528 C 520.758 -1.21837 -1.07979 0
M  V30 5529 O 521.947 -1.48306 -0.99336 0
M  V30 5530 C 519.047 -2.86923 -1.80356 0
M  V30 5531 C 518.22 -4.1306 -1.43875 0
M  V30 5532 C 517.279 -4.6174 -2.52353 0
M  V30 5533 O 516.305 -5.26421 -2.16494 0
M  V30 5534 N 517.507 -4.35974 -3.83284 0
M  V30 5535 H 520.272 -2.997 0.00247987 0
M  V30 5536 H 517.833 -1.61233 0.146848 0
M  V30 5537 H 519.825 -3.16414 -2.52318 0
M  V30 5538 H 518.395 -2.12765 -2.29019 0
M  V30 5539 H 517.615 -3.90334 -0.550752 0
M  V30 5540 H 518.903 -4.95148 -1.17071 0
M  V30 5541 H 518.301 -3.84203 -4.15216 0
M  V30 5542 H 516.858 -4.70119 -4.51477 0
M  V30 5543 N 520.291 -0.0518155 -1.57515 0
M  V30 5544 C 521.519 0.631395 -1.9703 0
M  V30 5545 C 521.934 1.64341 -0.92938 0
M  V30 5546 O 521.291 1.82296 0.0863266 0
M  V30 5547 C 521.342 1.31774 -3.36627 0
M  V30 5548 O 521.063 0.346247 -4.3673 0
M  V30 5549 C 522.564 2.09065 -3.90905 0
M  V30 5550 H 519.784 0.172576 -0.648428 0
M  V30 5551 H 522.328 -0.118306 -2.04158 0
M  V30 5552 H 520.483 2.01867 -3.30649 0
M  V30 5553 H 520.897 0.836226 -5.17791 0
M  V30 5554 H 522.371 2.52508 -4.9086 0
M  V30 5555 H 522.848 2.93908 -3.26366 0
M  V30 5556 H 523.454 1.43882 -4.00223 0
M  V30 5557 N 521.769 1.56035 0.221574 0
M  V30 5558 C 522.997 1.8313 0.962864 0
M  V30 5559 C 523.412 0.630934 1.77946 0
M  V30 5560 O 522.769 -0.400519 1.78051 0
M  V30 5561 C 522.82 3.08742 1.88045 0
M  V30 5562 O 522.541 4.24147 1.09686 0
M  V30 5563 C 524.042 3.48824 2.73563 0
M  V30 5564 H 521.262 0.608775 0.282194 0
M  V30 5565 H 523.806 2.03124 0.23681 0
M  V30 5566 H 521.961 2.90723 2.56045 0
M  V30 5567 H 522.375 4.95505 1.71974 0
M  V30 5568 H 523.849 4.39752 3.3365 0
M  V30 5569 H 524.326 2.70575 3.45956 0
M  V30 5570 H 524.932 3.69282 2.10976 0
M  V30 5571 N 523.247 -0.488276 1.49845 0
M  V30 5572 C 524.494 -1.24157 1.59973 0
M  V30 5573 C 524.822 -1.92293 0.292182 0
M  V30 5574 O 524.077 -1.81942 -0.720813 0
M  V30 5575 C 524.376 -2.32152 2.71735 0
M  V30 5576 C 524.042 -1.81387 4.12807 0
M  V30 5577 C 522.704 -1.67262 4.51195 0
M  V30 5578 C 525.056 -1.43537 5.01045 0
M  V30 5579 C 522.384 -1.13685 5.7558 0
M  V30 5580 C 524.736 -0.914081 6.25961 0
M  V30 5581 C 523.4 -0.759327 6.63167 0
M  V30 5582 H 522.67 -0.454322 0.585383 0
M  V30 5583 H 525.317 -0.540261 1.83721 0
M  V30 5584 H 523.622 -3.08122 2.42008 0
M  V30 5585 H 525.319 -2.90164 2.76778 0
M  V30 5586 H 521.909 -1.93344 3.82513 0
M  V30 5587 H 526.093 -1.53292 4.72033 0
M  V30 5588 H 521.349 -1.00426 6.03096 0
M  V30 5589 H 525.523 -0.612066 6.93705 0
M  V30 5590 H 523.15 -0.342002 7.5943 0
M  V30 5591 N 524.725 -1.39134 -0.740242 0
M  V30 5592 C 526.136 -1.32208 -1.31825 0
M  V30 5593 C 526.487 0.0159919 -1.96193 0
M  V30 5594 O 525.612 0.918111 -1.95958 0
M  V30 5595 C 526.207 -2.39436 -2.39699 0
M  V30 5596 C 524.766 -2.36048 -2.93187 0
M  V30 5597 C 523.913 -2.21599 -1.66701 0
M  V30 5598 H 526.864 -1.49298 -0.538133 0
M  V30 5599 H 526.885 -2.05922 -3.19963 0
M  V30 5600 H 526.397 -3.36811 -1.92821 0
M  V30 5601 H 524.498 -1.42295 -3.44359 0
M  V30 5602 H 524.611 -3.30704 -3.46658 0
M  V30 5603 H 522.975 -1.68681 -1.90837 0
M  V30 5604 H 523.758 -3.20936 -1.21882 0
M  V30 5605 N 526.204 0.969867 -1.24223 0
M  V30 5606 C 527.615 1.52717 -1.07399 0
M  V30 5607 C 527.966 1.92956 0.355298 0
M  V30 5608 O 527.091 1.77112 1.2434 0
M  V30 5609 C 527.686 2.77521 -1.94339 0
M  V30 5610 C 526.245 3.29615 -1.81744 0
M  V30 5611 C 525.392 2.02537 -1.89405 0
M  V30 5612 H 528.343 0.788399 -1.37732 0
M  V30 5613 H 528.364 3.50773 -1.47439 0
M  V30 5614 H 527.876 2.48203 -2.98357 0
M  V30 5615 H 525.977 3.63789 -0.805505 0
M  V30 5616 H 526.09 3.98661 -2.65718 0
M  V30 5617 H 524.454 2.17151 -1.33108 0
M  V30 5618 H 525.237 1.75587 -2.94999 0
M  V30 5619 N 527.682 1.05563 1.17022 0
M  V30 5620 C 529.098 0.777684 1.39371 0
M  V30 5621 C 529.298 -0.626269 1.91521 0
M  V30 5622 O 528.354 -1.38806 2.10924 0
M  V30 5623 C 529.667 1.83642 2.3811 0
M  V30 5624 C 531.215 1.85907 2.51809 0
M  V30 5625 C 531.69 2.90813 3.53824 0
M  V30 5626 N 533.181 2.898 3.61345 0
M  V30 5627 C 533.916 3.6762 4.40049 0
M  V30 5628 N 533.412 4.55237 5.22237 0
M  V30 5629 N 535.205 3.56044 4.34959 0
M  V30 5630 H 527.356 1.9614 0.815047 0
M  V30 5631 H 529.619 0.849527 0.420722 0
M  V30 5632 H 529.325 2.84425 2.06871 0
M  V30 5633 H 529.199 1.6812 3.37662 0
M  V30 5634 H 531.586 0.857865 2.82356 0
M  V30 5635 H 531.667 2.05506 1.52318 0
M  V30 5636 H 531.311 3.91122 3.24015 0
M  V30 5637 H 531.241 2.68465 4.53028 0
M  V30 5638 H 533.732 2.26274 3.02669 0
M  V30 5639 H 534.045 5.11291 5.79484 0
M  V30 5640 H 532.39 4.59296 5.21605 0
M  V30 5641 H 535.581 2.86986 3.69806 0
M  V30 5642 H 535.754 4.16938 4.96051 0
M  V30 5643 N 529.16 -1.33526 0.837174 0
M  V30 5644 C 530.406 -1.98541 0.44193 0
M  V30 5645 C 530.761 -1.65124 -0.987517 0
M  V30 5646 O 530.054 -0.919948 -1.6807 0
M  V30 5647 C 530.248 -3.52367 0.597675 0
M  V30 5648 C 530.077 -4.00731 2.04071 0
M  V30 5649 C 528.847 -4.28649 2.67559 0
M  V30 5650 C 531.045 -4.17073 3.00923 0
M  V30 5651 N 529.027 -4.63142 4.02955 0
M  V30 5652 C 530.398 -4.54905 4.21261 0
M  V30 5653 C 532.453 -3.99358 2.97351 0
M  V30 5654 C 531.156 -4.76874 5.38501 0
M  V30 5655 C 533.182 -4.22501 4.1382 0
M  V30 5656 C 532.544 -4.60634 5.32912 0
M  V30 5657 H 528.643 -0.753246 0.210105 0
M  V30 5658 H 531.227 -1.61674 1.08488 0
M  V30 5659 H 529.398 -3.88397 -0.0154658 0
M  V30 5660 H 531.13 -4.04326 0.17404 0
M  V30 5661 H 527.885 -4.20077 2.18706 0
M  V30 5662 H 528.309 -4.84601 4.72748 0
M  V30 5663 H 532.951 -3.68993 2.06408 0
M  V30 5664 H 530.669 -5.06101 6.2999 0
M  V30 5665 H 534.255 -4.10316 4.12471 0
M  V30 5666 H 533.135 -4.78187 6.21536 0
M  V30 5667 N 530.638 -0.59345 -1.46 0
M  V30 5668 C 531.866 -0.0890934 -2.06708 0
M  V30 5669 C 532.281 1.2205 -1.44046 0
M  V30 5670 O 531.638 1.74029 -0.549551 0
M  V30 5671 C 531.689 0.0720263 -3.61428 0
M  V30 5672 O 531.41 -1.18574 -4.21748 0
M  V30 5673 C 532.911 0.609487 -4.3909 0
M  V30 5674 H 530.131 -0.0623628 -0.668096 0
M  V30 5675 H 532.675 -0.817171 -1.87464 0
M  V30 5676 H 530.83 0.750369 -3.80063 0
M  V30 5677 H 531.244 -1.0064 -5.14754 0
M  V30 5678 H 532.718 0.671363 -5.47902 0
M  V30 5679 H 533.195 1.62878 -4.07882 0
M  V30 5680 H 533.801 -0.03434 -4.25286 0
M  V30 5681 N 532.116 1.54067 -0.331816 0
M  V30 5682 C 533.527 1.86059 0.15454 0
M  V30 5683 C 533.878 1.25331 1.50952 0
M  V30 5684 O 533.003 0.562441 2.08963 0
M  V30 5685 C 533.598 3.37581 0.287192 0
M  V30 5686 C 532.157 3.69493 0.717773 0
M  V30 5687 C 531.304 2.76863 -0.155569 0
M  V30 5688 H 534.255 1.48797 -0.55182 0
M  V30 5689 H 534.276 3.63744 1.11671 0
M  V30 5690 H 533.788 3.81751 -0.699131 0
M  V30 5691 H 531.889 3.3086 1.71354 0
M  V30 5692 H 532.002 4.76315 0.5158 0
M  V30 5693 H 530.366 2.51995 0.370213 0
M  V30 5694 H 531.149 3.23861 -1.13881 0
M  V30 5695 N 533.594 0.0601682 1.57485 0
M  V30 5696 C 534.542 -0.928899 2.13247 0
M  V30 5697 C 535.536 -1.31616 1.06647 0
M  V30 5698 O 536.742 -1.29476 1.25043 0
M  V30 5699 H 533.117 -0.317455 0.681708 0
M  V30 5700 H 535.088 -0.433566 2.95233 0
M  V30 5701 C 533.837 -2.19121 2.69965 0
M  V30 5702 H 533.16 -1.90204 3.51657 0
M  V30 5703 H 534.6 -2.86465 3.12592 0
M  V30 5704 C 533.059 -2.94195 1.64168 0
M  V30 5705 O 533.589 -3.87468 1.05978 0
M  V30 5706 N 531.795 -2.57089 1.35476 0
M  V30 5707 H 531.342 -1.81314 1.82984 0
M  V30 5708 H 531.3 -3.07624 0.649196 0
M  V30 5709 N 535.072 -1.5615 -0.213296 0
M  V30 5710 C 536.319 -1.79546 -0.936462 0
M  V30 5711 C 536.647 -0.630337 -1.84003 0
M  V30 5712 O 535.902 0.384883 -1.91878 0
M  V30 5713 C 536.201 -3.08772 -1.79985 0
M  V30 5714 C 535.867 -4.38532 -1.04882 0
M  V30 5715 C 534.529 -4.73787 -0.841393 0
M  V30 5716 C 536.881 -5.18609 -0.51907 0
M  V30 5717 C 534.209 -5.86627 -0.0924403 0
M  V30 5718 C 536.561 -6.32229 0.216581 0
M  V30 5719 C 535.225 -6.6608 0.435191 0
M  V30 5720 H 534.495 -0.657004 -0.342676 0
M  V30 5721 H 537.142 -1.9041 -0.204051 0
M  V30 5722 H 535.447 -2.93065 -2.60038 0
M  V30 5723 H 537.144 -3.24077 -2.36168 0
M  V30 5724 H 533.734 -4.10855 -1.22048 0
M  V30 5725 H 537.918 -4.91801 -0.666775 0
M  V30 5726 H 533.174 -6.11338 0.087081 0
M  V30 5727 H 537.348 -6.93503 0.634538 0
M  V30 5728 H 534.975 -7.5336 1.01746 0
M  V30 5729 N 536.55 0.480323 -1.50102 0
M  V30 5730 C 537.778 1.25657 -1.64371 0
M  V30 5731 C 538.193 1.86011 -0.323316 0
M  V30 5732 O 537.55 1.68803 0.693682 0
M  V30 5733 C 537.601 2.37197 -2.728 0
M  V30 5734 O 537.322 1.7932 -3.9972 0
M  V30 5735 C 538.823 3.2823 -2.9796 0
M  V30 5736 H 536.043 0.380369 -0.552775 0
M  V30 5737 H 538.587 0.574379 -1.96268 0
M  V30 5738 H 536.742 3.01208 -2.43623 0
M  V30 5739 H 537.156 2.52701 -4.59611 0
M  V30 5740 H 538.63 4.02725 -3.77513 0
M  V30 5741 H 539.107 3.86462 -2.08671 0
M  V30 5742 H 539.713 2.69964 -3.28633 0
M  V30 5743 N 538.028 1.39524 0.732853 0
M  V30 5744 C 538.958 1.41153 1.86005 0
M  V30 5745 C 539.939 0.274614 1.67869 0
M  V30 5746 O 541.124 0.480745 1.88155 0
M  V30 5747 C 538.254 1.25638 3.23778 0
M  V30 5748 C 537.208 2.36752 3.56556 0
M  V30 5749 C 536.534 2.06326 4.93289 0
M  V30 5750 C 537.834 3.79069 3.5931 0
M  V30 5751 H 539.528 2.35484 1.84899 0
M  V30 5752 H 537.074 1.13348 0.888162 0
M  V30 5753 H 539.027 1.25398 4.0231 0
M  V30 5754 H 537.751 0.277772 3.25417 0
M  V30 5755 H 536.41 2.36213 2.80355 0
M  V30 5756 H 536.058 1.06897 4.9151 0
M  V30 5757 H 535.758 2.80757 5.16187 0
M  V30 5758 H 537.282 2.07739 5.74175 0
M  V30 5759 H 538.696 3.81526 4.27914 0
M  V30 5760 H 537.093 4.52878 3.93728 0
M  V30 5761 H 538.163 4.09893 2.59068 0
M  V30 5762 N 539.506 -0.963266 1.24736 0
M  V30 5763 C 540.456 -2.0438 1.01058 0
M  V30 5764 C 541.44 -1.60824 -0.0495354 0
M  V30 5765 O 542.632 -1.76232 0.164741 0
M  V30 5766 C 539.761 -3.37617 0.622067 0
M  V30 5767 C 538.847 -3.87722 1.7185 0
M  V30 5768 N 539.238 -4.10715 2.95207 0
M  V30 5769 C 537.536 -4.16426 1.59703 0
M  V30 5770 C 538.237 -4.51872 3.66315 0
M  V30 5771 N 537.213 -4.57302 2.93897 0
M  V30 5772 H 541.015 -2.20138 1.94721 0
M  V30 5773 H 538.529 -1.14741 1.14927 0
M  V30 5774 H 540.526 -4.14638 0.43366 0
M  V30 5775 H 539.186 -3.23242 -0.307327 0
M  V30 5776 H 540.197 -3.98037 3.31341 0
M  V30 5777 H 536.874 -4.10962 0.73598 0
M  V30 5778 H 538.264 -4.78037 4.72155 0
M  V30 5779 N 540.985 -1.06182 -1.16461 0
M  V30 5780 C 541.918 -0.615859 -2.19733 0
M  V30 5781 C 542.896 0.360766 -1.58547 0
M  V30 5782 O 544.08 0.270009 -1.86556 0
M  V30 5783 C 541.207 0.097312 -3.3856 0
M  V30 5784 C 540.253 -0.835889 -4.18229 0
M  V30 5785 S 541.086 -2.33052 -4.82128 0
M  V30 5786 C 542.242 -1.62881 -6.04335 0
M  V30 5787 H 542.475 -1.49079 -2.57221 0
M  V30 5788 H 540.008 -0.874692 -1.27234 0
M  V30 5789 H 541.966 0.502563 -4.07412 0
M  V30 5790 H 540.627 0.948418 -2.99439 0
M  V30 5791 H 539.82 -0.283426 -5.03202 0
M  V30 5792 H 539.422 -1.18097 -3.54865 0
M  V30 5793 H 541.714 -0.933764 -6.71034 0
M  V30 5794 H 542.657 -2.45641 -6.64128 0
M  V30 5795 H 543.065 -1.11189 -5.53441 0
M  V30 5796 N 542.463 1.3308 -0.844243 0
M  V30 5797 C 543.373 2.32876 -0.283922 0
M  V30 5798 C 544.389 1.63589 0.592846 0
M  V30 5799 O 545.565 1.95205 0.495693 0
M  V30 5800 C 542.63 3.42667 0.527283 0
M  V30 5801 C 541.691 4.27664 -0.374394 0
M  V30 5802 C 540.924 5.32212 0.39819 0
M  V30 5803 O 541.147 5.46635 1.62932 0
M  V30 5804 O 540.081 6.01458 -0.2306 0
M  V30 5805 H 543.907 2.82671 -1.11045 0
M  V30 5806 H 541.492 1.36518 -0.606903 0
M  V30 5807 H 543.374 4.09652 0.988078 0
M  V30 5808 H 542.049 2.95079 1.33078 0
M  V30 5809 H 540.956 3.63526 -0.883144 0
M  V30 5810 H 542.289 4.78749 -1.1428 0
M  V30 5811 N 543.941 0.601185 1.45683 0
M  V30 5812 C 545.166 0.0982245 2.07167 0
M  V30 5813 C 545.591 -1.20546 1.44396 0
M  V30 5814 O 544.949 -1.73247 0.534347 0
M  V30 5815 C 544.997 -0.0346976 3.60583 0
M  V30 5816 O 544.101 -1.08657 3.97828 0
M  V30 5817 H 543.442 0.0711618 0.660176 0
M  V30 5818 H 545.972 0.829376 1.87036 0
M  V30 5819 H 545.982 -0.234969 4.07323 0
M  V30 5820 H 544.657 0.917265 4.05659 0
M  V30 5821 H 543.234 -0.863275 3.6277 0
M  V30 5822 N 545.419 -1.53889 0.339982 0
M  V30 5823 C 546.668 -2.00035 -0.258604 0
M  V30 5824 C 546.981 -1.23179 -1.51942 0
M  V30 5825 O 548.187 -1.59784 -2.19503 0
M  V30 5826 C 546.643 -3.56249 -0.511359 0
M  V30 5827 C 546.251 -4.41957 0.733349 0
M  V30 5828 C 547.995 -4.1082 -1.069 0
M  V30 5829 C 545.902 -5.89673 0.451591 0
M  V30 5830 H 544.832 -0.747284 -0.10041 0
M  V30 5831 H 547.483 -1.77776 0.454758 0
M  V30 5832 H 545.865 -3.7456 -1.28533 0
M  V30 5833 H 547.039 -4.35421 1.50815 0
M  V30 5834 H 545.354 -3.9836 1.21237 0
M  V30 5835 H 547.951 -5.18789 -1.2947 0
M  V30 5836 H 548.294 -3.63817 -2.02343 0
M  V30 5837 H 548.827 -3.96205 -0.355817 0
M  V30 5838 H 545.566 -6.40903 1.37565 0
M  V30 5839 H 545.086 -5.99122 -0.285193 0
M  V30 5840 H 546.765 -6.46965 0.0675067 0
M  V30 5841 N 546.897 -0.0685191 -1.57451 0
M  V30 5842 C 548.125 0.610462 -1.97689 0
M  V30 5843 C 548.54 1.63346 -0.946758 0
M  V30 5844 O 547.897 1.82377 0.0669868 0
M  V30 5845 C 547.948 1.28196 -3.38006 0
M  V30 5846 O 547.669 0.299906 -4.37072 0
M  V30 5847 C 549.17 2.04907 -3.931 0
M  V30 5848 H 546.39 0.165689 -0.650222 0
M  V30 5849 H 548.934 -0.139953 -2.04021 0
M  V30 5850 H 547.089 1.98348 -3.32771 0
M  V30 5851 H 547.503 0.78126 -5.18649 0
M  V30 5852 H 548.977 2.47287 -4.93511 0
M  V30 5853 H 549.454 2.9043 -3.29465 0
M  V30 5854 H 550.06 1.39629 -4.01726 0
M  V30 5855 N 548.375 1.56261 0.205012 0
M  V30 5856 C 549.622 1.8004 0.926927 0
M  V30 5857 C 549.95 0.640086 1.83666 0
M  V30 5858 O 549.205 -0.374702 1.92079 0
M  V30 5859 C 549.504 3.09722 1.78345 0
M  V30 5860 C 549.17 4.39082 1.02555 0
M  V30 5861 C 547.832 4.74226 0.816256 0
M  V30 5862 C 550.184 5.18877 0.491559 0
M  V30 5863 C 547.512 5.86668 0.0613287 0
M  V30 5864 C 549.864 6.32105 -0.250107 0
M  V30 5865 C 548.528 6.6584 -0.470508 0
M  V30 5866 H 547.798 0.658812 0.339187 0
M  V30 5867 H 550.445 1.90515 0.19395 0
M  V30 5868 H 548.75 2.9444 2.5848 0
M  V30 5869 H 550.447 3.25324 2.34446 0
M  V30 5870 H 547.037 4.11497 1.19868 0
M  V30 5871 H 551.221 4.92147 0.640684 0
M  V30 5872 H 546.477 6.11283 -0.119501 0
M  V30 5873 H 550.651 6.93157 -0.671307 0
M  V30 5874 H 548.278 7.5281 -1.05739 0
M  V30 5875 N 549.853 -0.472356 1.50355 0
M  V30 5876 C 551.078 -1.25251 1.65309 0
M  V30 5877 C 551.503 -1.85081 0.335643 0
M  V30 5878 O 550.861 -1.67227 -0.700335 0
M  V30 5879 C 550.909 -2.3379 2.74544 0
M  V30 5880 O 550.013 -3.38401 2.35709 0
M  V30 5881 H 549.354 -0.368539 0.552336 0
M  V30 5882 H 551.884 -0.562271 1.96722 0
M  V30 5883 H 551.894 -2.79121 2.97583 0
M  V30 5884 H 550.569 -1.89614 3.70161 0
M  V30 5885 H 549.146 -2.9879 2.23112 0
M  V30 5886 N 551.331 -1.39911 -0.725443 0
M  V30 5887 C 552.278 -1.39393 -1.83952 0
M  V30 5888 C 553.248 -0.252249 -1.64173 0
M  V30 5889 O 554.433 -0.44882 -1.85446 0
M  V30 5890 C 551.573 -1.25262 -3.21564 0
M  V30 5891 C 550.686 -2.49054 -3.52982 0
M  V30 5892 C 549.821 -2.27439 -4.80047 0
M  V30 5893 C 548.86 -3.46857 -5.04338 0
M  V30 5894 N 547.997 -3.24499 -6.22611 0
M  V30 5895 H 552.837 -2.34622 -1.83729 0
M  V30 5896 H 550.374 -1.16537 -0.897636 0
M  V30 5897 H 552.332 -1.15077 -4.01015 0
M  V30 5898 H 550.962 -0.33657 -3.21041 0
M  V30 5899 H 550.014 -2.69805 -2.6816 0
M  V30 5900 H 551.326 -3.37973 -3.66846 0
M  V30 5901 H 550.48 -2.14551 -5.67497 0
M  V30 5902 H 549.219 -1.35929 -4.68374 0
M  V30 5903 H 548.224 -3.60232 -4.15346 0
M  V30 5904 H 549.449 -4.3928 -5.17889 0
M  V30 5905 H 547.395 -2.35663 -6.12208 0
M  V30 5906 H 547.312 -4.06978 -6.37106 0
M  V30 5907 H 548.58 -3.15325 -7.12875 0
M  V30 5908 N 552.809 0.956637 -1.25245 0
M  V30 5909 C 554.037 1.73571 -1.12608 0
M  V30 5910 C 554.452 1.86063 0.320324 0
M  V30 5911 O 553.809 1.35691 1.22042 0
M  V30 5912 C 553.86 3.15053 -1.77268 0
M  V30 5913 O 553.581 3.03174 -3.16255 0
M  V30 5914 C 555.082 4.09248 -1.70386 0
M  V30 5915 H 552.302 0.543955 -0.392879 0
M  V30 5916 H 554.846 1.20031 -1.65568 0
M  V30 5917 H 553.001 3.65543 -1.28284 0
M  V30 5918 H 553.415 3.9241 -3.48015 0
M  V30 5919 H 554.889 5.06138 -2.20291 0
M  V30 5920 H 555.366 4.34102 -0.667239 0
M  V30 5921 H 555.972 3.64672 -2.18849 0
M  V30 5922 N 554.287 1.06798 1.15896 0
M  V30 5923 C 555.698 0.811355 1.68149 0
M  V30 5924 C 556.049 -0.664339 1.8461 0
M  V30 5925 O 555.174 -1.51485 1.54535 0
M  V30 5926 C 555.769 1.46624 3.05429 0
M  V30 5927 C 554.328 1.25726 3.54781 0
M  V30 5928 C 553.475 1.53949 2.3064 0
M  V30 5929 H 556.426 1.23078 1.00187 0
M  V30 5930 H 556.447 0.88437 3.7008 0
M  V30 5931 H 555.959 2.54025 2.93416 0
M  V30 5932 H 554.06 0.20322 3.72045 0
M  V30 5933 H 554.173 1.97354 4.36564 0
M  V30 5934 H 552.537 0.96025 2.35905 0
M  V30 5935 H 553.32 2.6252 2.2122 0
M  V30 5936 N 555.766 -1.3263 0.851289 0
M  V30 5937 C 556.713 -2.28952 0.291469 0
M  V30 5938 C 557.683 -1.54897 -0.599676 0
M  V30 5939 O 558.868 -1.83137 -0.535305 0
M  V30 5940 C 556.008 -3.41206 -0.516992 0
M  V30 5941 C 555.121 -4.30148 0.399566 0
M  V30 5942 C 554.256 -5.29527 -0.4212 0
M  V30 5943 C 553.295 -6.10112 0.492969 0
M  V30 5944 N 552.432 -7.01499 -0.290414 0
M  V30 5945 H 557.272 -2.76228 1.11813 0
M  V30 5946 H 554.809 -1.35907 0.562826 0
M  V30 5947 H 556.767 -4.05005 -1.00132 0
M  V30 5948 H 555.397 -2.9509 -1.30851 0
M  V30 5949 H 554.449 -3.66959 1.00227 0
M  V30 5950 H 555.761 -4.8649 1.1013 0
M  V30 5951 H 554.915 -5.98914 -0.968832 0
M  V30 5952 H 553.654 -4.73794 -1.15632 0
M  V30 5953 H 552.659 -5.39632 1.05251 0
M  V30 5954 H 553.884 -6.6793 1.22664 0
M  V30 5955 H 551.83 -6.48199 -1.00868 0
M  V30 5956 H 551.747 -7.55178 0.352354 0
M  V30 5957 H 553.015 -7.75176 -0.819882 0
M  V30 5958 N 557.244 -0.608902 -1.45362 0
M  V30 5959 C 558.469 -0.10921 -2.07112 0
M  V30 5960 C 558.894 1.19779 -1.45033 0
M  V30 5961 O 558.252 1.72961 -0.543527 0
M  V30 5962 C 558.3 0.0155745 -3.60597 0
M  V30 5963 O 557.404 1.06546 -3.98399 0
M  V30 5964 H 556.745 -0.0746619 -0.659789 0
M  V30 5965 H 559.275 -0.839283 -1.86594 0
M  V30 5966 H 559.285 0.213364 -4.07442 0
M  V30 5967 H 557.96 -0.938765 -4.05167 0
M  V30 5968 H 556.537 0.844024 -3.63223 0
M  V30 5969 N 558.722 1.53707 -0.348139 0
M  V30 5970 C 559.95 2.05406 0.248224 0
M  V30 5971 C 560.365 1.22282 1.43849 0
M  V30 5972 O 559.722 0.259244 1.80649 0
M  V30 5973 C 559.773 3.55446 0.658793 0
M  V30 5974 O 559.494 4.35417 -0.484149 0
M  V30 5975 C 560.995 4.23335 1.31539 0
M  V30 5976 H 558.215 0.669344 0.0471075 0
M  V30 5977 H 560.759 1.98257 -0.501456 0
M  V30 5978 H 558.914 3.62803 1.35841 0
M  V30 5979 H 559.328 5.24268 -0.155949 0
M  V30 5980 H 560.802 5.29692 1.55338 0
M  V30 5981 H 561.279 3.75967 2.27036 0
M  V30 5982 H 561.885 4.20184 0.657683 0
M  V30 5983 N 560.2 0.0768682 1.57412 0
M  V30 5984 C 561.428 -0.59997 1.9801 0
M  V30 5985 C 561.843 -1.62842 0.955408 0
M  V30 5986 O 561.2 -1.8241 -0.057314 0
M  V30 5987 C 561.251 -1.26401 3.38681 0
M  V30 5988 O 560.972 -0.276723 4.37225 0
M  V30 5989 C 562.473 -2.0282 3.94182 0
M  V30 5990 H 559.693 -0.162239 0.651091 0
M  V30 5991 H 562.237 0.150771 2.03943 0
M  V30 5992 H 560.392 -1.96581 3.33819 0
M  V30 5993 H 560.806 -0.753744 5.19056 0
M  V30 5994 H 562.28 -2.44667 4.94815 0
M  V30 5995 H 562.757 -2.88678 3.31001 0
M  V30 5996 H 563.363 -1.37496 4.02461 0
M  V30 5997 N 561.678 -1.56367 -0.196722 0
M  V30 5998 C 562.588 -1.97617 -1.2643 0
M  V30 5999 C 563.604 -0.883598 -1.49895 0
M  V30 6000 O 564.78 -1.18921 -1.62541 0
M  V30 6001 C 561.845 -2.30595 -2.58895 0
M  V30 6002 C 560.906 -3.53551 -2.43516 0
M  V30 6003 C 560.139 -3.84946 -3.69665 0
M  V30 6004 O 560.362 -3.17655 -4.73763 0
M  V30 6005 O 559.296 -4.78379 -3.65291 0
M  V30 6006 H 563.122 -2.88648 -0.944233 0
M  V30 6007 H 560.707 -1.43901 -0.401592 0
M  V30 6008 H 562.589 -2.52889 -3.37083 0
M  V30 6009 H 561.264 -1.42732 -2.90533 0
M  V30 6010 H 560.171 -3.36507 -1.63445 0
M  V30 6011 H 561.504 -4.41875 -2.16812 0
M  V30 6012 N 563.156 0.464375 -1.50603 0
M  V30 6013 C 564.567 1.04507 -1.5471 0
M  V30 6014 C 564.918 1.9297 -0.354542 0
M  V30 6015 O 564.043 2.09763 0.531812 0
M  V30 6016 C 564.638 1.90207 -2.80369 0
M  V30 6017 C 563.197 2.43373 -2.87135 0
M  V30 6018 C 562.344 1.21886 -2.49076 0
M  V30 6019 H 565.295 0.246716 -1.56771 0
M  V30 6020 H 565.316 2.75353 -2.62604 0
M  V30 6021 H 564.828 1.25796 -3.67147 0
M  V30 6022 H 562.929 3.11318 -2.04724 0
M  V30 6023 H 563.042 2.7802 -3.90181 0
M  V30 6024 H 561.406 1.55575 -2.01664 0
M  V30 6025 H 562.189 0.591268 -3.3817 0
M  V30 6026 N 564.634 1.40294 0.718013 0
M  V30 6027 C 565.862 1.4175 1.50714 0
M  V30 6028 C 566.277 0.0165366 1.88793 0
M  V30 6029 O 565.634 -0.958942 1.55276 0
M  V30 6030 C 565.685 2.30598 2.784 0
M  V30 6031 O 565.406 3.6524 2.41932 0
M  V30 6032 C 566.907 2.4062 3.72313 0
M  V30 6033 H 564.127 0.483565 0.465194 0
M  V30 6034 H 566.671 1.84316 0.885889 0
M  V30 6035 H 564.826 1.91401 3.36815 0
M  V30 6036 H 565.24 4.12402 3.24076 0
M  V30 6037 H 566.714 3.07001 4.58753 0
M  V30 6038 H 567.191 1.4305 4.15251 0
M  V30 6039 H 567.797 2.80359 3.19811 0
M  V30 6040 N 566.112 -0.949982 1.2575 0
M  V30 6041 C 567.523 -1.50989 1.09815 0
M  V30 6042 C 567.874 -1.93497 -0.324556 0
M  V30 6043 O 566.999 -1.79068 -1.21506 0
M  V30 6044 C 567.594 -2.74394 1.98729 0
M  V30 6045 C 566.153 -3.26682 1.86965 0
M  V30 6046 C 565.3 -1.99498 1.92603 0
M  V30 6047 H 568.251 -0.766387 1.38968 0
M  V30 6048 H 568.272 -3.48383 1.53001 0
M  V30 6049 H 567.784 -2.43425 3.02268 0
M  V30 6050 H 565.885 -3.62461 0.863279 0
M  V30 6051 H 565.998 -3.94383 2.72027 0
M  V30 6052 H 564.362 -2.15005 1.36546 0
M  V30 6053 H 565.145 -1.70871 2.97755 0
M  V30 6054 N 567.59 -1.07411 -1.15328 0
M  V30 6055 C 568.815 -0.818856 -1.90551 0
M  V30 6056 C 569.24 0.622194 -1.77512 0
M  V30 6057 O 568.598 1.43484 -1.10824 0
M  V30 6058 C 568.646 -1.23267 -3.38877 0
M  V30 6059 O 567.75 -0.378345 -4.10661 0
M  V30 6060 H 567.091 -0.29827 -0.593238 0
M  V30 6061 H 569.621 -1.43289 -1.46046 0
M  V30 6062 H 569.631 -1.20912 -3.89672 0
M  V30 6063 H 568.306 -2.28226 -3.47686 0
M  V30 6064 H 566.883 -0.464437 -3.69996 0
M  V30 6065 N 569.068 1.32177 -0.85831 0
M  V30 6066 C 570.479 1.79381 -0.517621 0
M  V30 6067 C 570.83 1.70841 0.964769 0
M  V30 6068 O 569.955 1.26917 1.75274 0
M  V30 6069 C 570.55 3.25706 -0.932801 0
M  V30 6070 C 569.109 3.70851 -0.643953 0
M  V30 6071 C 568.256 2.53208 -1.13054 0
M  V30 6072 H 571.207 1.19424 -1.04516 0
M  V30 6073 H 571.228 3.79673 -0.250674 0
M  V30 6074 H 570.74 3.31889 -2.01174 0
M  V30 6075 H 568.841 3.70178 0.424112 0
M  V30 6076 H 568.954 4.63495 -1.21281 0
M  V30 6077 H 567.318 2.48676 -0.550679 0
M  V30 6078 H 568.101 2.62143 -2.21666 0
M  V30 6079 N 570.547 0.616602 1.45037 0
M  V30 6080 C 571.775 0.121968 2.0654 0
M  V30 6081 C 572.19 -1.19743 1.45969 0
M  V30 6082 O 571.547 -1.73133 0.577168 0
M  V30 6083 C 571.598 -0.0145171 3.61497 0
M  V30 6084 O 571.319 1.25269 4.19809 0
M  V30 6085 C 572.82 -0.539555 4.40004 0
M  V30 6086 H 570.04 0.0729837 0.667019 0
M  V30 6087 H 572.584 0.846891 1.8614 0
M  V30 6088 H 570.739 -0.689809 3.81209 0
M  V30 6089 H 571.153 1.08816 5.13088 0
M  V30 6090 H 572.627 -0.584112 5.48901 0
M  V30 6091 H 573.104 -1.56368 4.10421 0
M  V30 6092 H 573.71 0.101995 4.25178 0
M  V30 6093 N 572.025 -1.5352 0.356285 0
M  V30 6094 C 573.253 -2.05534 -0.237328 0
M  V30 6095 C 573.668 -1.23043 -1.43199 0
M  V30 6096 O 573.025 -0.268821 -1.80509 0
M  V30 6097 C 573.076 -3.55791 -0.639933 0
M  V30 6098 O 572.797 -4.35154 0.507233 0
M  V30 6099 C 574.298 -4.24027 -1.29292 0
M  V30 6100 H 571.518 -0.669585 -0.0435572 0
M  V30 6101 H 574.062 -1.97988 0.511963 0
M  V30 6102 H 572.217 -3.63518 -1.33915 0
M  V30 6103 H 572.631 -5.24178 0.18375 0
M  V30 6104 H 574.105 -5.30509 -1.52527 0
M  V30 6105 H 574.582 -3.77166 -2.25039 0
M  V30 6106 H 575.188 -4.20527 -0.63539 0
M  V30 6107 N 573.503 -0.0852151 -1.57369 0
M  V30 6108 C 574.728 0.592872 -1.98746 0
M  V30 6109 C 575.153 1.61538 -0.963689 0
M  V30 6110 O 574.511 1.81168 0.069071 0
M  V30 6111 C 574.559 1.22599 -3.39119 0
M  V30 6112 O 573.663 2.34185 -3.39457 0
M  V30 6113 H 573.004 0.151314 -0.646529 0
M  V30 6114 H 575.534 -0.163703 -2.03944 0
M  V30 6115 H 575.544 1.56965 -3.76598 0
M  V30 6116 H 574.219 0.476831 -4.13158 0
M  V30 6117 H 572.796 2.01512 -3.13763 0
M  V30 6118 N 574.981 1.5647 0.188427 0
M  V30 6119 C 575.891 1.98285 1.2538 0
M  V30 6120 C 576.907 0.891535 1.49424 0
M  V30 6121 O 578.083 1.19782 1.61908 0
M  V30 6122 C 575.148 2.31965 2.57669 0
M  V30 6123 C 574.209 3.54838 2.41638 0
M  V30 6124 C 573.442 3.86901 3.67618 0
M  V30 6125 O 573.665 3.20163 4.72072 0
M  V30 6126 O 572.599 4.80309 3.62749 0
M  V30 6127 H 576.425 2.89145 0.928912 0
M  V30 6128 H 574.01 1.44112 0.393955 0
M  V30 6129 H 575.892 2.54673 3.35737 0
M  V30 6130 H 574.567 1.44271 2.89771 0
M  V30 6131 H 573.474 3.37369 1.61658 0
M  V30 6132 H 574.807 4.43019 2.14465 0
M  V30 6133 N 576.459 -0.456382 1.50847 0
M  V30 6134 C 577.87 -1.03685 1.55262 0
M  V30 6135 C 578.221 -1.92779 0.364771 0
M  V30 6136 O 577.346 -2.10043 -0.52068 0
M  V30 6137 C 577.941 -1.88718 2.81374 0
M  V30 6138 C 576.5 -2.41847 2.88422 0
M  V30 6139 C 575.647 -1.20564 2.49719 0
M  V30 6140 H 578.598 -0.238399 1.56899 0
M  V30 6141 H 578.619 -2.73957 2.6406 0
M  V30 6142 H 578.131 -1.23847 3.67809 0
M  V30 6143 H 576.232 -3.10228 2.06372 0
M  V30 6144 H 576.345 -2.75947 3.9165 0
M  V30 6145 H 574.709 -1.54504 2.02486 0
M  V30 6146 H 575.492 -0.573326 3.38479 0
M  V30 6147 N 577.937 -1.40673 -0.710563 0
M  V30 6148 C 579.183 -1.39428 -1.47267 0
M  V30 6149 C 579.516 0.00182129 -1.942 0
M  V30 6150 O 578.791 0.971387 -1.68506 0
M  V30 6151 C 579.074 -2.38812 -2.6952 0
M  V30 6152 C 578.927 -3.87467 -2.28449 0
M  V30 6153 C 580.246 -2.3566 -3.71689 0
M  V30 6154 H 577.365 -0.507768 -0.534173 0
M  V30 6155 H 580.007 -1.71843 -0.810547 0
M  V30 6156 H 578.157 -2.113 -3.26013 0
M  V30 6157 H 579.829 -4.25825 -1.77399 0
M  V30 6158 H 578.072 -4.03058 -1.60395 0
M  V30 6159 H 578.743 -4.5253 -3.16103 0
M  V30 6160 H 581.219 -2.6004 -3.24836 0
M  V30 6161 H 580.095 -3.07237 -4.54859 0
M  V30 6162 H 580.356 -1.36996 -4.20339 0
M  V30 6163 N 579.415 0.9433 -1.26252 0
M  V30 6164 C 580.826 1.50404 -1.10614 0
M  V30 6165 C 581.177 1.93666 0.31429 0
M  V30 6166 O 580.302 1.79709 1.20555 0
M  V30 6167 C 580.897 2.73336 -2.00182 0
M  V30 6168 C 579.456 3.25686 -1.88695 0
M  V30 6169 C 578.603 1.98474 -1.93658 0
M  V30 6170 H 581.554 0.759006 -1.39373 0
M  V30 6171 H 581.575 3.47567 -1.54847 0
M  V30 6172 H 581.087 2.41818 -3.03555 0
M  V30 6173 H 579.188 3.61998 -0.882489 0
M  V30 6174 H 579.301 3.92935 -2.74115 0
M  V30 6175 H 577.665 2.14278 -1.37684 0
M  V30 6176 H 578.448 1.6929 -2.98657 0
M  V30 6177 N 580.893 1.08022 1.14757 0
M  V30 6178 C 581.803 0.718292 2.23333 0
M  V30 6179 C 582.819 -0.273477 1.71837 0
M  V30 6180 O 583.995 -0.118406 2.01052 0
M  V30 6181 C 581.06 0.128855 3.4646 0
M  V30 6182 C 580.121 1.17473 4.12915 0
M  V30 6183 C 579.354 0.61333 5.30164 0
M  V30 6184 O 579.577 -0.568458 5.6756 0
M  V30 6185 O 578.511 1.3615 5.86299 0
M  V30 6186 H 582.337 1.62394 2.56636 0
M  V30 6187 H 579.922 0.853628 1.22611 0
M  V30 6188 H 581.804 -0.197249 4.20938 0
M  V30 6189 H 580.479 -0.750014 3.14891 0
M  V30 6190 H 579.386 1.5533 3.40328 0
M  V30 6191 H 580.719 2.02574 4.48581 0
M  V30 6192 N 582.371 -1.3172 0.865308 0
M  V30 6193 C 583.782 -1.79104 0.527126 0
M  V30 6194 C 584.133 -1.7135 -0.955695 0
M  V30 6195 O 583.258 -1.27845 -1.74598 0
M  V30 6196 C 583.853 -3.25207 0.950061 0
M  V30 6197 C 582.412 -3.70504 0.663611 0
M  V30 6198 C 581.559 -2.52605 1.14395 0
M  V30 6199 H 584.51 -1.18868 1.05148 0
M  V30 6200 H 584.531 -3.79535 0.270805 0
M  V30 6201 H 584.043 -3.30818 2.02931 0
M  V30 6202 H 582.144 -3.70398 -0.404474 0
M  V30 6203 H 582.257 -4.62845 1.23737 0
M  V30 6204 H 580.621 -2.4838 0.563859 0
M  V30 6205 H 581.404 -2.60964 2.23053 0
M  V30 6206 N 583.85 -0.624285 -1.44708 0
M  V30 6207 C 584.812 0.0749638 -2.29077 0
M  V30 6208 C 585.812 0.778965 -1.40673 0
M  V30 6209 O 587.003 0.624591 -1.62618 0
M  V30 6210 C 584.135 1.11663 -3.22094 0
M  V30 6211 H 585.327 -0.667013 -2.92388 0
M  V30 6212 H 582.88 -0.384098 -1.51507 0
M  V30 6213 H 583.615 1.88881 -2.63618 0
M  V30 6214 H 583.401 0.61583 -3.87234 0
M  V30 6215 H 584.891 1.60585 -3.8549 0
M  V30 6216 N 585.328 1.53329 -0.364422 0
M  V30 6217 C 586.739 1.86345 0.115039 0
M  V30 6218 C 587.09 1.28505 1.4826 0
M  V30 6219 O 586.215 0.606639 2.07723 0
M  V30 6220 C 586.81 3.38114 0.215522 0
M  V30 6221 C 585.369 3.70932 0.639237 0
M  V30 6222 C 584.516 2.76471 -0.214261 0
M  V30 6223 H 587.467 1.47593 -0.583258 0
M  V30 6224 H 587.488 3.66031 1.0393 0
M  V30 6225 H 587 3.80182 -0.779948 0
M  V30 6226 H 585.101 3.3442 1.64298 0
M  V30 6227 H 585.214 4.77302 0.41465 0
M  V30 6228 H 583.578 2.52724 0.316678 0
M  V30 6229 H 584.361 3.21373 -1.20725 0
M  V30 6230 N 586.806 0.0935595 1.57322 0
M  V30 6231 C 587.754 -0.883457 2.15169 0
M  V30 6232 C 588.748 -1.29324 1.09415 0
M  V30 6233 O 589.954 -1.26795 1.27762 0
M  V30 6234 H 586.329 -0.302923 0.688289 0
M  V30 6235 H 588.3 -0.370845 2.96087 0
M  V30 6236 C 587.049 -2.13345 2.74552 0
M  V30 6237 H 586.372 -1.82702 3.55612 0
M  V30 6238 H 587.812 -2.7977 3.18598 0
M  V30 6239 C 586.271 -2.90646 1.70371 0
M  V30 6240 O 586.801 -3.85133 1.14173 0
M  V30 6241 N 585.007 -2.54157 1.40899 0
M  V30 6242 H 584.554 -1.77391 1.86789 0
M  V30 6243 H 584.512 -3.06178 0.714301 0
M  V30 6244 N 588.284 -1.56567 -0.180126 0
M  V30 6245 C 589.217 -1.90813 -1.25163 0
M  V30 6246 C 590.195 -0.7699 -1.43218 0
M  V30 6247 O 591.379 -1.02236 -1.58367 0
M  V30 6248 C 588.506 -2.15138 -2.61597 0
M  V30 6249 C 587.552 -3.37834 -2.60328 0
M  V30 6250 S 588.385 -4.92486 -2.1028 0
M  V30 6251 C 589.541 -5.19896 -3.48509 0
M  V30 6252 H 589.774 -2.81398 -0.959283 0
M  V30 6253 H 587.307 -1.49541 -0.3843 0
M  V30 6254 H 589.265 -2.29835 -3.40127 0
M  V30 6255 H 587.926 -1.25276 -2.88036 0
M  V30 6256 H 587.119 -3.52027 -3.60684 0
M  V30 6257 H 586.721 -3.22208 -1.8989 0
M  V30 6258 H 589.013 -5.11334 -4.44459 0
M  V30 6259 H 589.956 -6.21571 -3.39198 0
M  V30 6260 H 590.364 -4.47489 -3.44114 0
M  V30 6261 N 589.762 0.448376 -1.51087 0
M  V30 6262 C 590.99 1.22143 -1.66999 0
M  V30 6263 C 591.405 1.85283 -0.362699 0
M  V30 6264 O 590.762 1.70236 0.65772 0
M  V30 6265 C 590.813 2.31357 -2.7777 0
M  V30 6266 O 590.534 1.70801 -4.03434 0
M  V30 6267 C 592.035 3.21836 -3.04855 0
M  V30 6268 H 589.255 0.368558 -0.560719 0
M  V30 6269 H 591.799 0.532618 -1.97442 0
M  V30 6270 H 589.954 2.95973 -2.49958 0
M  V30 6271 H 590.368 2.42895 -4.64868 0
M  V30 6272 H 591.842 3.94627 -3.85971 0
M  V30 6273 H 592.319 3.81949 -2.16821 0
M  V30 6274 H 592.925 2.62933 -3.34285 0
M  V30 6275 N 591.24 1.41047 0.703093 0
M  V30 6276 C 592.468 1.4334 1.49202 0
M  V30 6277 C 592.883 0.0365596 1.88765 0
M  V30 6278 O 592.24 -0.942419 1.56284 0
M  V30 6279 C 592.291 2.33538 2.75939 0
M  V30 6280 O 592.012 3.67786 2.38045 0
M  V30 6281 C 593.513 2.44555 3.6974 0
M  V30 6282 H 590.733 0.488472 0.460039 0
M  V30 6283 H 593.277 1.85245 0.86629 0
M  V30 6284 H 591.432 1.94962 3.34766 0
M  V30 6285 H 591.846 4.15816 3.19683 0
M  V30 6286 H 593.32 3.11849 4.55471 0
M  V30 6287 H 593.797 1.47447 4.1371 0
M  V30 6288 H 594.403 2.83735 3.16819 0
M  V30 6289 N 592.718 -0.936591 1.26751 0
M  V30 6290 C 593.648 -2.05315 1.11212 0
M  V30 6291 C 594.629 -1.70092 0.0160262 0
M  V30 6292 O 595.814 -1.93279 0.188894 0
M  V30 6293 C 592.944 -3.39123 0.749171 0
M  V30 6294 C 591.898 -3.88425 1.79751 0
M  V30 6295 C 591.224 -5.18936 1.28876 0
M  V30 6296 C 592.524 -4.12798 3.19992 0
M  V30 6297 H 594.218 -2.18573 2.04613 0
M  V30 6298 H 591.764 -1.05027 0.985159 0
M  V30 6299 H 593.717 -4.16704 0.627323 0
M  V30 6300 H 592.441 -3.25855 -0.220543 0
M  V30 6301 H 591.1 -3.13028 1.90811 0
M  V30 6302 H 590.748 -5.02051 0.308757 0
M  V30 6303 H 590.448 -5.52892 1.98958 0
M  V30 6304 H 591.972 -5.99096 1.17967 0
M  V30 6305 H 593.386 -4.80977 3.11983 0
M  V30 6306 H 591.783 -4.58044 3.87705 0
M  V30 6307 H 592.853 -3.18412 3.65707 0
M  V30 6308 N 594.196 -1.08629 -1.14182 0
M  V30 6309 C 595.106 -0.730126 -2.22949 0
M  V30 6310 C 596.122 0.26436 -1.7198 0
M  V30 6311 O 597.298 0.107742 -2.01112 0
M  V30 6312 C 594.363 -0.147227 -3.46387 0
M  V30 6313 C 593.424 -1.19662 -4.12286 0
M  V30 6314 C 592.657 -0.641437 -5.29831 0
M  V30 6315 O 592.88 0.538351 -5.67854 0
M  V30 6316 O 591.814 -1.39257 -5.85569 0
M  V30 6317 H 595.64 -1.63753 -2.55771 0
M  V30 6318 H 593.225 -0.860118 -1.22157 0
M  V30 6319 H 595.107 0.174923 -4.21037 0
M  V30 6320 H 593.782 0.733304 -3.15285 0
M  V30 6321 H 592.689 -1.57133 -3.395 0
M  V30 6322 H 594.022 -2.0495 -4.475 0
M  V30 6323 N 595.674 1.31259 -0.872281 0
M  V30 6324 C 597.085 1.78822 -0.536617 0
M  V30 6325 C 597.436 1.71855 0.946594 0
M  V30 6326 O 596.561 1.28769 1.73918 0
M  V30 6327 C 597.156 3.24698 -0.967294 0
M  V30 6328 C 595.715 3.70147 -0.683251 0
M  V30 6329 C 594.862 2.51994 -1.15733 0
M  V30 6330 H 597.813 1.18308 -1.05777 0
M  V30 6331 H 597.834 3.79386 -0.290929 0
M  V30 6332 H 597.346 3.29737 -2.04683 0
M  V30 6333 H 595.447 3.70607 0.384825 0
M  V30 6334 H 595.56 4.62183 -1.2619 0
M  V30 6335 H 593.924 2.48078 -0.577024 0
M  V30 6336 H 594.707 2.59778 -2.24434 0
M  V30 6337 N 597.152 0.631951 1.44375 0
M  V30 6338 C 598.38 0.143867 2.06399 0
M  V30 6339 C 598.795 -1.18188 1.47231 0
M  V30 6340 O 598.152 -1.72511 0.595498 0
M  V30 6341 C 598.203 0.0238253 3.61492 0
M  V30 6342 O 597.924 1.29715 4.18456 0
M  V30 6343 C 599.425 -0.492856 4.40552 0
M  V30 6344 H 596.645 0.0800542 0.666207 0
M  V30 6345 H 599.189 0.866586 1.85231 0
M  V30 6346 H 597.344 -0.649338 3.81919 0
M  V30 6347 H 597.758 1.14252 5.11905 0
M  V30 6348 H 599.232 -0.525861 5.49489 0
M  V30 6349 H 599.709 -1.52006 4.12057 0
M  V30 6350 H 600.315 0.147085 4.25046 0
M  V30 6351 N 598.631 -1.53133 0.372548 0
M  V30 6352 C 600.042 -1.86404 -0.105155 0
M  V30 6353 C 600.393 -1.29289 -1.47576 0
M  V30 6354 O 599.518 -0.617646 -2.07398 0
M  V30 6355 C 600.113 -3.38223 -0.197588 0
M  V30 6356 C 598.672 -3.71266 -0.619556 0
M  V30 6357 C 597.819 -2.76353 0.228919 0
M  V30 6358 H 600.77 -1.47282 0.591077 0
M  V30 6359 H 600.791 -3.66577 -1.01987 0
M  V30 6360 H 600.303 -3.79763 0.800099 0
M  V30 6361 H 598.404 -3.35287 -1.62522 0
M  V30 6362 H 598.517 -4.77515 -0.389332 0
M  V30 6363 H 596.881 -2.52888 -0.303271 0
M  V30 6364 H 597.664 -3.20728 1.22428 0
M  V30 6365 N 600.109 -0.101901 -1.5727 0
M  V30 6366 C 601.334 0.571759 -1.99363 0
M  V30 6367 C 601.759 1.60507 -0.980768 0
M  V30 6368 O 601.117 1.81231 0.0498517 0
M  V30 6369 C 601.165 1.18996 -3.404 0
M  V30 6370 O 600.269 2.30572 -3.41922 0
M  V30 6371 H 599.61 0.144449 -0.648098 0
M  V30 6372 H 602.14 -0.185325 -2.03759 0
M  V30 6373 H 602.15 1.52962 -3.78241 0
M  V30 6374 H 600.825 0.432984 -4.1364 0
M  V30 6375 H 599.402 1.98173 -3.15883 0
M  V30 6376 N 601.587 1.56661 0.17182 0
M  V30 6377 C 602.998 1.71652 0.734329 0
M  V30 6378 C 603.349 0.712335 1.82812 0
M  V30 6379 O 602.474 -0.126401 2.16031 0
M  V30 6380 C 603.069 3.11226 1.3388 0
M  V30 6381 C 601.628 3.27904 1.84813 0
M  V30 6382 C 600.775 2.67603 0.726917 0
M  V30 6383 H 603.726 1.5861 -0.0535665 0
M  V30 6384 H 603.747 3.09849 2.20849 0
M  V30 6385 H 603.259 3.8429 0.54249 0
M  V30 6386 H 601.36 2.59796 2.6709 0
M  V30 6387 H 601.473 4.35637 1.99392 0
M  V30 6388 H 599.837 2.274 1.14723 0
M  V30 6389 H 600.62 3.43252 -0.0575334 0
M  V30 6390 N 603.065 -0.440357 1.51323 0
M  V30 6391 C 604.293 -1.21255 1.67645 0
M  V30 6392 C 604.708 -1.85088 0.37252 0
M  V30 6393 O 604.065 -1.70582 -0.648683 0
M  V30 6394 C 604.116 -2.29881 2.78993 0
M  V30 6395 O 603.837 -1.68659 4.04334 0
M  V30 6396 C 605.338 -3.20214 3.06558 0
M  V30 6397 H 602.558 -0.36558 0.562666 0
M  V30 6398 H 605.102 -0.52214 1.97722 0
M  V30 6399 H 603.257 -2.94643 2.51524 0
M  V30 6400 H 603.671 -2.40426 4.6615 0
M  V30 6401 H 605.145 -3.92575 3.88058 0
M  V30 6402 H 605.622 -3.80794 2.18844 0
M  V30 6403 H 606.228 -2.61156 3.35675 0
M  V30 6404 N 604.543 -1.41418 -0.695603 0
M  V30 6405 C 605.771 -1.4413 -1.48439 0
M  V30 6406 C 606.186 -0.0465698 -1.88743 0
M  V30 6407 O 605.543 0.934117 -1.56782 0
M  V30 6408 C 605.594 -2.34998 -2.74696 0
M  V30 6409 O 605.315 -3.69043 -2.36091 0
M  V30 6410 C 606.816 -2.46513 -3.68438 0
M  V30 6411 H 604.036 -0.490905 -0.457442 0
M  V30 6412 H 606.58 -1.85702 -0.856454 0
M  V30 6413 H 604.735 -1.96735 -3.33728 0
M  V30 6414 H 605.149 -4.17505 -3.17474 0
M  V30 6415 H 606.623 -3.1426 -4.53811 0
M  V30 6416 H 607.1 -1.49638 -4.12922 0
M  V30 6417 H 607.706 -2.85412 -3.1531 0
M  V30 6418 N 606.021 0.929856 -1.27246 0
M  V30 6419 C 607.432 1.49223 -1.12203 0
M  V30 6420 C 607.783 1.93989 0.293731 0
M  V30 6421 O 606.908 1.80978 1.18642 0
M  V30 6422 C 607.503 2.71198 -2.0307 0
M  V30 6423 C 606.062 3.23666 -1.92139 0
M  V30 6424 C 605.209 1.96409 -1.95752 0
M  V30 6425 H 608.16 0.744181 -1.4017 0
M  V30 6426 H 608.181 3.45905 -1.58524 0
M  V30 6427 H 607.693 2.38585 -3.06102 0
M  V30 6428 H 605.794 3.61042 -0.920834 0
M  V30 6429 H 605.907 3.90006 -2.78267 0
M  V30 6430 H 604.271 2.12806 -1.39949 0
M  V30 6431 H 605.054 1.66113 -3.00436 0
M  V30 6432 N 607.499 1.09233 1.13605 0
M  V30 6433 C 608.409 0.741939 2.22559 0
M  V30 6434 C 609.425 -0.255236 1.72118 0
M  V30 6435 O 610.601 -0.0970747 2.01166 0
M  V30 6436 C 607.666 0.165595 3.46304 0
M  V30 6437 C 606.727 1.21846 4.11645 0
M  V30 6438 C 605.96 0.669526 5.29484 0
M  V30 6439 O 606.183 -0.508228 5.68131 0
M  V30 6440 O 605.117 1.42361 5.84822 0
M  V30 6441 H 608.943 1.65107 2.54899 0
M  V30 6442 H 606.528 0.866584 1.21699 0
M  V30 6443 H 608.41 -0.152592 4.21124 0
M  V30 6444 H 607.085 -0.716573 3.15669 0
M  V30 6445 H 605.992 1.58931 3.38662 0
M  V30 6446 H 607.325 2.07321 4.46407 0
M  V30 6447 N 608.977 -1.30795 0.87923 0
M  V30 6448 C 610.388 -1.78535 0.546093 0
M  V30 6449 C 610.739 -1.72354 -0.937467 0
M  V30 6450 O 609.864 -1.2969 -1.73233 0
M  V30 6451 C 610.459 -3.24181 0.9845 0
M  V30 6452 C 609.018 -3.69779 0.702871 0
M  V30 6453 C 608.165 -2.51377 1.17068 0
M  V30 6454 H 611.116 -1.17746 1.06403 0
M  V30 6455 H 611.137 -3.79227 0.311045 0
M  V30 6456 H 610.649 -3.28647 2.06429 0
M  V30 6457 H 608.75 -3.70806 -0.365166 0
M  V30 6458 H 608.863 -4.61507 1.28639 0
M  V30 6459 H 607.227 -2.47768 0.590172 0
M  V30 6460 H 608.01 -2.58584 2.25808 0
M  V30 6461 N 610.455 -0.639598 -1.44038 0
M  V30 6462 C 611.683 -0.154811 -2.0632 0
M  V30 6463 C 612.098 1.17406 -1.47856 0
M  V30 6464 O 611.455 1.72193 -0.604638 0
M  V30 6465 C 611.506 -0.0429958 -3.61474 0
M  V30 6466 O 611.227 -1.31932 -4.17763 0
M  V30 6467 C 612.728 0.469486 -4.40807 0
M  V30 6468 H 609.948 -0.0835862 -0.665773 0
M  V30 6469 H 612.492 -0.876397 -1.84769 0
M  V30 6470 H 610.647 0.629075 -3.82258 0
M  V30 6471 H 611.061 -1.16965 -5.11292 0
M  V30 6472 H 612.535 0.496712 -5.49761 0
M  V30 6473 H 613.012 1.49819 -4.12857 0
M  V30 6474 H 613.618 -0.169624 -4.24962 0
M  V30 6475 N 611.933 1.52934 -0.380664 0
M  V30 6476 C 613.158 2.06363 0.207157 0
M  V30 6477 C 613.583 1.25122 1.4045 0
M  V30 6478 O 612.941 0.274062 1.79217 0
M  V30 6479 C 612.989 3.56162 0.563996 0
M  V30 6480 O 612.093 3.77552 1.65917 0
M  V30 6481 H 611.434 0.663468 0.0265859 0
M  V30 6482 H 613.964 1.9719 -0.545635 0
M  V30 6483 H 613.974 3.99453 0.830752 0
M  V30 6484 H 612.649 4.14732 -0.311427 0
M  V30 6485 H 611.226 3.46154 1.3868 0
M  V30 6486 N 613.412 0.11024 1.57214 0
M  V30 6487 C 614.322 -0.857077 2.18383 0
M  V30 6488 C 615.338 -1.29915 1.1575 0
M  V30 6489 O 616.514 -1.36394 1.48184 0
M  V30 6490 C 613.579 -2.09264 2.76423 0
M  V30 6491 C 612.64 -1.70333 3.94063 0
M  V30 6492 C 611.873 -2.87999 4.49324 0
M  V30 6493 O 612.096 -4.0317 4.03497 0
M  V30 6494 O 611.03 -2.6559 5.40135 0
M  V30 6495 H 614.856 -0.366561 3.0148 0
M  V30 6496 H 612.441 -0.114914 1.48957 0
M  V30 6497 H 614.323 -2.81644 3.13456 0
M  V30 6498 H 612.998 -2.57339 1.96363 0
M  V30 6499 H 611.905 -0.950864 3.61814 0
M  V30 6500 H 613.238 -1.27007 4.75531 0
M  V30 6501 N 614.89 -1.56749 -0.16351 0
M  V30 6502 C 616.301 -1.72039 -0.725216 0
M  V30 6503 C 616.652 -0.72202 -1.82432 0
M  V30 6504 O 615.777 0.114942 -2.16095 0
M  V30 6505 C 616.372 -3.11932 -1.32227 0
M  V30 6506 C 614.931 -3.28879 -1.83072 0
M  V30 6507 C 614.078 -2.67984 -0.712716 0
M  V30 6508 H 617.029 -1.58579 0.0619772 0
M  V30 6509 H 617.05 -3.11015 -2.19202 0
M  V30 6510 H 616.562 -3.84572 -0.522103 0
M  V30 6511 H 614.663 -2.61209 -2.65708 0
M  V30 6512 H 614.776 -4.36688 -1.97079 0
M  V30 6513 H 613.14 -2.28005 -1.13515 0
M  V30 6514 H 613.923 -3.43216 0.0757361 0
M  V30 6515 N 616.368 0.432326 -1.51554 0
M  V30 6516 C 617.331 1.50765 -1.72634 0
M  V30 6517 C 618.331 1.49334 -0.596314 0
M  V30 6518 O 619.521 1.51268 -0.863925 0
M  V30 6519 C 616.653 2.90284 -1.7874 0
M  V30 6520 H 617.846 1.33377 -2.68609 0
M  V30 6521 H 615.399 0.661329 -1.4162 0
M  V30 6522 H 616.134 3.13071 -0.845977 0
M  V30 6523 H 615.919 2.92727 -2.6087 0
M  V30 6524 H 617.409 3.68282 -1.96871 0
M  V30 6525 N 617.846 1.41785 0.688094 0
M  V30 6526 C 619.257 1.3701 1.26828 0
M  V30 6527 C 619.608 0.056835 1.96118 0
M  V30 6528 O 618.733 -0.84475 1.99231 0
M  V30 6529 C 619.328 2.48168 2.30648 0
M  V30 6530 C 617.887 2.46766 2.84224 0
M  V30 6531 C 617.034 2.27633 1.58361 0
M  V30 6532 H 619.985 1.51192 0.482351 0
M  V30 6533 H 620.006 2.17655 3.121 0
M  V30 6534 H 619.518 3.43735 1.80188 0
M  V30 6535 H 617.619 1.54978 3.3884 0
M  V30 6536 H 617.732 3.43342 3.34145 0
M  V30 6537 H 616.096 1.75648 1.84445 0
M  V30 6538 H 616.879 3.25238 1.09887 0
M  V30 6539 N 619.324 -0.923095 1.27737 0
M  V30 6540 C 620.549 -1.71054 1.17283 0
M  V30 6541 C 620.974 -1.86208 -0.266153 0
M  V30 6542 O 620.332 -1.36545 -1.1927 0
M  V30 6543 C 620.38 -3.0854 1.86642 0
M  V30 6544 O 619.484 -3.95528 1.16752 0
M  V30 6545 H 618.825 -0.524136 0.407649 0
M  V30 6546 H 621.355 -1.15487 1.6889 0
M  V30 6547 H 621.365 -3.58828 1.94182 0
M  V30 6548 H 620.04 -2.96828 2.91317 0
M  V30 6549 H 618.617 -3.53967 1.17312 0
M  V30 6550 N 620.802 -1.09834 -1.13024 0
M  V30 6551 C 622.213 -0.855651 -1.65938 0
M  V30 6552 C 622.564 0.615159 -1.86307 0
M  V30 6553 O 621.689 1.47335 -1.58497 0
M  V30 6554 C 622.284 -1.5467 -3.01434 0
M  V30 6555 C 620.843 -1.35088 -3.51323 0
M  V30 6556 C 619.99 -1.6001 -2.26478 0
M  V30 6557 H 622.941 -1.25691 -0.968889 0
M  V30 6558 H 622.962 -0.982179 -3.67605 0
M  V30 6559 H 622.474 -2.61715 -2.86578 0
M  V30 6560 H 620.575 -0.30179 -3.71376 0
M  V30 6561 H 620.688 -2.0886 -4.31178 0
M  V30 6562 H 619.052 -1.02246 -2.33276 0
M  V30 6563 H 619.835 -2.68293 -2.14182 0
M  V30 6564 N 622.28 1.30327 -0.886154 0
M  V30 6565 C 623.508 2.00254 -0.520176 0
M  V30 6566 C 623.923 1.66419 0.891637 0
M  V30 6567 O 623.28 0.901951 1.58654 0
M  V30 6568 C 623.331 3.54916 -0.686775 0
M  V30 6569 O 623.052 3.87547 -2.04301 0
M  V30 6570 C 624.553 4.42115 -0.323945 0
M  V30 6571 H 621.773 0.640204 -0.200947 0
M  V30 6572 H 624.317 1.66183 -1.19178 0
M  V30 6573 H 622.472 3.8735 -0.0625273 0
M  V30 6574 H 622.886 4.82247 -2.06249 0
M  V30 6575 H 624.36 5.49808 -0.491407 0
M  V30 6576 H 624.837 4.32953 0.73811 0
M  V30 6577 H 625.443 4.15129 -0.924565 0
M  V30 6578 N 623.758 0.647228 1.43697 0
M  V30 6579 C 624.986 0.16575 2.06235 0
M  V30 6580 C 625.401 -1.1662 1.48476 0
M  V30 6581 O 624.758 -1.7187 0.613762 0
M  V30 6582 C 624.809 0.0621651 3.61447 0
M  V30 6583 O 624.53 1.34146 4.17057 0
M  V30 6584 C 626.031 -0.446102 4.4105 0
M  V30 6585 H 623.251 0.0871158 0.665321 0
M  V30 6586 H 625.795 0.886183 1.84301 0
M  V30 6587 H 623.95 -0.608794 3.82587 0
M  V30 6588 H 624.364 1.19675 5.10664 0
M  V30 6589 H 625.838 -0.46755 5.50016 0
M  V30 6590 H 626.315 -1.47627 4.13646 0
M  V30 6591 H 626.921 0.192159 4.24866 0
M  V30 6592 N 625.236 -1.5273 0.388769 0
M  V30 6593 C 626.647 -1.86505 -0.0853788 0
M  V30 6594 C 626.998 -1.30847 -1.46197 0
M  V30 6595 O 626.123 -0.639609 -2.06732 0
M  V30 6596 C 626.718 -3.38414 -0.161703 0
M  V30 6597 C 625.277 -3.71902 -0.580144 0
M  V30 6598 C 624.424 -2.76095 0.258218 0
M  V30 6599 H 627.375 -1.46647 0.606665 0
M  V30 6600 H 627.396 -3.67638 -0.980936 0
M  V30 6601 H 626.908 -3.78893 0.840333 0
M  V30 6602 H 625.009 -3.36992 -1.58957 0
M  V30 6603 H 625.122 -4.77902 -0.338663 0
M  V30 6604 H 623.486 -2.53195 -0.276432 0
M  V30 6605 H 624.269 -3.19411 1.25822 0
M  V30 6606 N 626.714 -0.118576 -1.57153 0
M  V30 6607 C 627.624 0.845484 -2.18835 0
M  V30 6608 C 628.64 1.29299 -1.16438 0
M  V30 6609 O 629.816 1.35607 -1.48905 0
M  V30 6610 C 626.881 2.07795 -2.77529 0
M  V30 6611 C 625.942 1.6824 -3.9496 0
M  V30 6612 C 625.175 2.85612 -4.50845 0
M  V30 6613 O 625.398 4.01025 -4.05629 0
M  V30 6614 O 624.332 2.62721 -5.41536 0
M  V30 6615 H 628.158 0.350568 -3.0167 0
M  V30 6616 H 625.743 0.107013 -1.49016 0
M  V30 6617 H 627.625 2.79978 -3.14945 0
M  V30 6618 H 626.3 2.56294 -1.97725 0
M  V30 6619 H 625.207 0.931663 -3.62313 0
M  V30 6620 H 626.54 1.24484 -4.76198 0
M  V30 6621 N 628.193 1.56834 0.155195 0
M  V30 6622 C 629.604 1.72421 0.716082 0
M  V30 6623 C 629.955 0.731685 1.82046 0
M  V30 6624 O 629.08 -0.103481 2.16152 0
M  V30 6625 C 629.675 3.12629 1.30571 0
M  V30 6626 C 628.234 3.29846 1.81325 0
M  V30 6627 C 627.381 2.68359 0.698494 0
M  V30 6628 H 630.332 1.58544 -0.0703861 0
M  V30 6629 H 630.353 3.12174 2.1755 0
M  V30 6630 H 629.865 3.84844 0.501701 0
M  V30 6631 H 627.966 2.62614 2.64319 0
M  V30 6632 H 628.079 4.37727 1.9476 0
M  V30 6633 H 626.443 2.28604 1.12305 0
M  V30 6634 H 627.226 3.43171 -0.0939366 0
M  V30 6635 N 629.671 -0.424282 1.51781 0
M  V30 6636 C 630.899 -1.1947 1.68921 0
M  V30 6637 C 631.314 -1.84683 0.39213 0
M  V30 6638 O 630.671 -1.71261 -0.630554 0
M  V30 6639 C 630.722 -2.26909 2.81416 0
M  V30 6640 O 630.443 -1.64361 4.061 0
M  V30 6641 C 631.944 -3.16945 3.09937 0
M  V30 6642 H 629.164 -0.359591 0.566511 0
M  V30 6643 H 631.708 -0.501139 1.98265 0
M  V30 6644 H 629.863 -2.91959 2.54635 0
M  V30 6645 H 630.277 -2.35468 4.68674 0
M  V30 6646 H 631.751 -3.88437 3.922 0
M  V30 6647 H 632.228 -3.78451 2.22871 0
M  V30 6648 H 632.834 -2.57581 3.38426 0
M  V30 6649 N 631.149 -1.42148 -0.680565 0
M  V30 6650 C 632.374 -1.45901 -1.47403 0
M  V30 6651 C 632.799 -0.0700985 -1.87969 0
M  V30 6652 O 632.157 0.930145 -1.55621 0
M  V30 6653 C 632.205 -2.38661 -2.70321 0
M  V30 6654 O 631.309 -1.85399 -3.68376 0
M  V30 6655 H 630.65 -0.494565 -0.443059 0
M  V30 6656 H 633.18 -1.86774 -0.835251 0
M  V30 6657 H 633.19 -2.55046 -3.18458 0
M  V30 6658 H 631.865 -3.39571 -2.40134 0
M  V30 6659 H 630.442 -1.78541 -3.2738 0
M  V30 6660 N 632.627 0.916307 -1.28225 0
M  V30 6661 C 633.537 2.05165 -1.13775 0
M  V30 6662 C 634.553 1.73879 -0.0649418 0
M  V30 6663 O 635.729 1.99531 -0.273722 0
M  V30 6664 C 632.794 3.37385 -0.798267 0
M  V30 6665 C 631.855 3.82296 -1.95316 0
M  V30 6666 C 631.088 5.08206 -1.62978 0
M  V30 6667 O 631.311 5.6781 -0.542948 0
M  V30 6668 O 630.245 5.48768 -2.47261 0
M  V30 6669 H 634.071 2.20273 -2.09078 0
M  V30 6670 H 631.656 1.0373 -1.07519 0
M  V30 6671 H 633.538 4.16773 -0.62278 0
M  V30 6672 H 632.213 3.23458 0.125139 0
M  V30 6673 H 631.12 3.03746 -2.18378 0
M  V30 6674 H 632.453 4.00782 -2.85718 0
M  V30 6675 N 634.105 1.10431 1.1244 0
M  V30 6676 C 635.516 0.864439 1.65482 0
M  V30 6677 C 635.867 -0.60527 1.8663 0
M  V30 6678 O 634.992 -1.46492 1.59276 0
M  V30 6679 C 635.587 1.56267 3.0061 0
M  V30 6680 C 634.146 1.3695 3.50602 0
M  V30 6681 C 633.293 1.61209 2.25626 0
M  V30 6682 H 636.244 1.26203 0.962209 0
M  V30 6683 H 636.265 1.00166 3.67079 0
M  V30 6684 H 635.777 2.63231 2.85186 0
M  V30 6685 H 633.878 0.321481 3.71211 0
M  V30 6686 H 633.991 2.11143 4.30064 0
M  V30 6687 H 632.355 1.03482 2.32731 0
M  V30 6688 H 633.138 2.69425 2.12756 0
M  V30 6689 N 635.583 -1.29855 0.893053 0
M  V30 6690 C 636.546 -2.26183 0.370687 0
M  V30 6691 C 637.546 -1.53108 -0.491385 0
M  V30 6692 O 638.736 -1.71643 -0.297386 0
M  V30 6693 C 635.868 -3.37633 -0.470827 0
M  V30 6694 H 637.061 -2.73903 1.22135 0
M  V30 6695 H 634.614 -1.41183 0.67061 0
M  V30 6696 H 635.349 -2.95241 -1.34175 0
M  V30 6697 H 635.134 -3.91825 0.146784 0
M  V30 6698 H 636.624 -4.09313 -0.827825 0
M  V30 6699 N 637.061 -0.65484 -1.43351 0
M  V30 6700 C 638.472 -0.248506 -1.85039 0
M  V30 6701 C 638.823 1.20526 -1.54816 0
M  V30 6702 O 637.948 1.92016 -0.99794 0
M  V30 6703 C 638.543 -0.444241 -3.35875 0
M  V30 6704 C 637.102 -0.0922108 -3.76287 0
M  V30 6705 C 636.249 -0.746327 -2.67068 0
M  V30 6706 H 639.2 -0.8584 -1.33481 0
M  V30 6707 H 639.221 0.309762 -3.79237 0
M  V30 6708 H 638.733 -1.50239 -3.5784 0
M  V30 6709 H 636.834 0.96328 -3.59933 0
M  V30 6710 H 636.947 -0.518807 -4.76283 0
M  V30 6711 H 635.311 -0.179416 -2.54067 0
M  V30 6712 H 636.094 -1.80754 -2.91861 0
M  V30 6713 N 638.539 1.52521 -0.396863 0
M  V30 6714 C 639.764 2.06571 0.185258 0
M  V30 6715 C 640.189 1.26605 1.39115 0
M  V30 6716 O 639.547 0.293055 1.78916 0
M  V30 6717 C 639.595 3.5674 0.526189 0
M  V30 6718 O 638.699 3.7929 1.61903 0
M  V30 6719 H 638.04 0.663712 0.0195474 0
M  V30 6720 H 640.57 1.966 -0.566519 0
M  V30 6721 H 640.58 4.00311 0.788338 0
M  V30 6722 H 639.255 4.14379 -0.355397 0
M  V30 6723 H 637.832 3.47605 1.35 0
M  V30 6724 N 640.017 0.126909 1.57088 0
M  V30 6725 C 641.428 -0.397201 1.82426 0
M  V30 6726 C 641.779 -1.66084 1.04453 0
M  V30 6727 O 640.904 -2.14534 0.283552 0
M  V30 6728 C 641.499 -0.727411 3.30899 0
M  V30 6729 C 640.058 -1.19612 3.56889 0
M  V30 6730 C 639.205 -0.20885 2.76512 0
M  V30 6731 H 642.156 0.351924 1.54749 0
M  V30 6732 H 642.177 -1.58407 3.45959 0
M  V30 6733 H 641.689 0.19247 3.87622 0
M  V30 6734 H 639.79 -2.13263 3.05532 0
M  V30 6735 H 639.903 -1.13598 4.65438 0
M  V30 6736 H 638.267 -0.697479 2.44964 0
M  V30 6737 H 639.05 0.704267 3.35998 0
M  V30 6738 N 641.495 -1.56914 -0.146875 0
M  V30 6739 C 642.723 -1.87515 -0.874394 0
M  V30 6740 C 643.138 -0.715116 -1.74733 0
M  V30 6741 O 642.495 0.315113 -1.79759 0
M  V30 6742 C 642.546 -3.17362 -1.731 0
M  V30 6743 O 642.267 -4.28897 -0.893245 0
M  V30 6744 C 643.768 -3.61479 -2.56609 0
M  V30 6745 H 640.988 -0.621546 -0.252827 0
M  V30 6746 H 643.532 -2.04023 -0.139627 0
M  V30 6747 H 641.687 -3.02608 -2.41883 0
M  V30 6748 H 642.101 -5.03146 -1.48137 0
M  V30 6749 H 643.575 -4.5517 -3.12289 0
M  V30 6750 H 644.052 -2.86773 -3.32653 0
M  V30 6751 H 644.658 -3.78927 -1.93117 0
M  V30 6752 N 642.974 0.416227 -1.52004 0
M  V30 6753 C 644.202 1.18573 -1.69553 0
M  V30 6754 C 644.617 1.84472 -0.401919 0
M  V30 6755 O 643.974 1.71593 0.621463 0
M  V30 6756 C 644.025 2.25413 -2.82615 0
M  V30 6757 O 643.746 1.62205 -4.06966 0
M  V30 6758 C 645.247 3.15297 -3.11613 0
M  V30 6759 H 642.467 0.356582 -0.56841 0
M  V30 6760 H 645.011 0.490618 -1.98528 0
M  V30 6761 H 643.166 2.90604 -2.56179 0
M  V30 6762 H 643.58 2.3298 -4.69916 0
M  V30 6763 H 645.054 3.86351 -3.94255 0
M  V30 6764 H 645.531 3.77264 -2.24874 0
M  V30 6765 H 646.137 2.55783 -3.39787 0
M  V30 6766 N 644.452 1.42507 0.673017 0
M  V30 6767 C 645.863 1.38347 1.25367 0
M  V30 6768 C 646.214 0.0776327 1.96046 0
M  V30 6769 O 645.339 -0.823571 2.00116 0
M  V30 6770 C 645.934 2.506 2.28002 0
M  V30 6771 C 644.493 2.49767 2.81591 0
M  V30 6772 C 643.64 2.293 1.55938 0
M  V30 6773 H 646.591 1.51695 0.466288 0
M  V30 6774 H 646.612 2.20953 3.09774 0
M  V30 6775 H 646.124 3.45627 1.76532 0
M  V30 6776 H 644.225 1.58563 3.37177 0
M  V30 6777 H 644.338 3.46867 3.30485 0
M  V30 6778 H 642.702 1.77594 1.82572 0
M  V30 6779 H 643.485 3.26385 1.06431 0
M  V30 6780 N 645.93 -0.909495 1.28709 0
M  V30 6781 C 646.84 -2.04558 1.14861 0
M  V30 6782 C 647.856 -1.73842 0.0741621 0
M  V30 6783 O 649.032 -1.99383 0.2843 0
M  V30 6784 C 646.097 -3.36957 0.816148 0
M  V30 6785 C 645.158 -3.81255 1.97341 0
M  V30 6786 C 644.391 -5.07335 1.65671 0
M  V30 6787 O 644.614 -5.67514 0.573053 0
M  V30 6788 O 643.548 -5.47449 2.50167 0
M  V30 6789 H 647.374 -2.19161 2.10243 0
M  V30 6790 H 644.959 -1.03159 1.08068 0
M  V30 6791 H 646.841 -4.16436 0.644873 0
M  V30 6792 H 645.516 -3.2352 -0.107983 0
M  V30 6793 H 644.423 -3.02584 2.19986 0
M  V30 6794 H 645.756 -3.99261 2.87839 0
M  V30 6795 N 647.408 -1.11026 -1.11852 0
M  V30 6796 C 648.819 -0.873203 -1.65021 0
M  V30 6797 C 649.17 0.595364 -1.86949 0
M  V30 6798 O 648.295 1.45645 -1.60051 0
M  V30 6799 C 648.89 -1.57859 -2.99777 0
M  V30 6800 C 647.449 -1.38807 -3.49871 0
M  V30 6801 C 646.596 -1.62403 -2.24768 0
M  V30 6802 H 649.547 -1.26712 -0.955503 0
M  V30 6803 H 649.568 -1.02111 -3.66543 0
M  V30 6804 H 649.08 -2.6474 -2.83786 0
M  V30 6805 H 647.181 -0.341163 -3.71035 0
M  V30 6806 H 647.294 -2.13421 -4.28938 0
M  V30 6807 H 645.658 -1.04714 -2.32179 0
M  V30 6808 H 646.441 -2.70549 -2.11324 0
M  V30 6809 N 648.886 1.2938 -0.899927 0
M  V30 6810 C 650.114 1.99691 -0.541386 0
M  V30 6811 C 650.529 1.67355 0.873936 0
M  V30 6812 O 649.886 0.918728 1.57688 0
M  V30 6813 C 649.937 3.54168 -0.72438 0
M  V30 6814 O 649.658 3.85359 -2.08399 0
M  V30 6815 C 651.159 4.41746 -0.370819 0
M  V30 6816 H 648.379 0.638037 -0.207726 0
M  V30 6817 H 650.923 1.6491 -1.20934 0
M  V30 6818 H 649.078 3.87261 -0.103607 0
M  V30 6819 H 649.492 4.80032 -2.11352 0
M  V30 6820 H 650.966 5.49256 -0.549693 0
M  V30 6821 H 651.443 4.33712 0.692148 0
M  V30 6822 H 652.049 4.14125 -0.968543 0
M  V30 6823 N 650.364 0.662433 1.43002 0
M  V30 6824 C 651.589 0.186003 2.06564 0
M  V30 6825 C 652.014 -1.14314 1.49379 0
M  V30 6826 O 651.372 -1.70824 0.607346 0
M  V30 6827 C 651.42 0.118269 3.60406 0
M  V30 6828 O 650.524 -0.916859 4.02079 0
M  V30 6829 H 649.865 0.0990981 0.656563 0
M  V30 6830 H 652.395 0.907958 1.8335 0
M  V30 6831 H 652.405 -0.0619981 4.07953 0
M  V30 6832 H 651.08 1.08849 4.01403 0
M  V30 6833 H 649.657 -0.708635 3.66105 0
M  V30 6834 N 651.842 -1.52309 0.404946 0
M  V30 6835 C 652.752 -2.30634 -0.429555 0
M  V30 6836 C 653.768 -1.38187 -1.05737 0
M  V30 6837 O 654.944 -1.71261 -1.05979 0
M  V30 6838 C 652.009 -3.10947 -1.53339 0
M  V30 6839 C 651.07 -4.19126 -0.929065 0
M  V30 6840 C 650.303 -4.95601 -1.9803 0
M  V30 6841 O 650.526 -4.72331 -3.1978 0
M  V30 6842 O 649.46 -5.80551 -1.58886 0
M  V30 6843 H 653.286 -3.0298 0.208963 0
M  V30 6844 H 650.871 -1.4845 0.168255 0
M  V30 6845 H 652.753 -3.60974 -2.1743 0
M  V30 6846 H 651.428 -2.41399 -2.15658 0
M  V30 6847 H 650.335 -3.73257 -0.250982 0
M  V30 6848 H 651.668 -4.90955 -0.349855 0
M  V30 6849 N 653.32 -0.135238 -1.57019 0
M  V30 6850 C 654.731 0.387521 -1.82634 0
M  V30 6851 C 655.082 1.65528 -1.05332 0
M  V30 6852 O 654.207 2.14381 -0.294926 0
M  V30 6853 C 654.802 0.709852 -3.3128 0
M  V30 6854 C 653.361 1.17718 -3.57518 0
M  V30 6855 C 652.508 0.194183 -2.76619 0
M  V30 6856 H 655.459 -0.360126 -1.5456 0
M  V30 6857 H 655.48 1.5657 -3.46794 0
M  V30 6858 H 654.992 -0.213024 -3.87515 0
M  V30 6859 H 653.093 2.1164 -3.06658 0
M  V30 6860 H 653.206 1.11128 -4.66034 0
M  V30 6861 H 651.57 0.684478 -2.4533 0
M  V30 6862 H 652.353 -0.722076 -3.3562 0
M  V30 6863 N 654.798 1.5699 0.138552 0
M  V30 6864 C 655.761 1.97984 1.15478 0
M  V30 6865 C 656.761 0.867416 1.35398 0
M  V30 6866 O 657.951 1.13387 1.32246 0
M  V30 6867 C 655.083 2.3031 2.51337 0
M  V30 6868 H 656.276 2.88953 0.802896 0
M  V30 6869 H 653.829 1.51555 0.382189 0
M  V30 6870 H 654.564 1.42159 2.91481 0
M  V30 6871 H 654.349 3.11425 2.38237 0
M  V30 6872 H 655.839 2.62834 3.24512 0
M  V30 6873 N 656.276 -0.40816 1.52223 0
M  V30 6874 C 657.687 -0.986929 1.58482 0
M  V30 6875 C 658.038 -1.91521 0.425917 0
M  V30 6876 O 657.163 -2.11593 -0.453593 0
M  V30 6877 C 657.758 -1.7967 2.87235 0
M  V30 6878 C 656.317 -2.32549 2.9597 0
M  V30 6879 C 655.464 -1.12558 2.53428 0
M  V30 6880 H 658.415 -0.188362 1.57578 0
M  V30 6881 H 658.436 -2.65417 2.72642 0
M  V30 6882 H 657.948 -1.12082 3.71563 0
M  V30 6883 H 656.049 -3.03505 2.16137 0
M  V30 6884 H 656.162 -2.63348 4.00231 0
M  V30 6885 H 654.526 -1.47984 2.07299 0
M  V30 6886 H 655.309 -0.465351 3.40131 0
M  V30 6887 N 657.755 -1.42862 -0.66545 0
M  V30 6888 C 658.98 -1.47456 -1.45848 0
M  V30 6889 C 659.405 -0.0900312 -1.87884 0
M  V30 6890 O 658.763 0.913587 -1.56599 0
M  V30 6891 C 658.811 -2.41514 -2.67774 0
M  V30 6892 O 657.915 -1.89296 -3.66389 0
M  V30 6893 H 657.256 -0.499236 -0.437789 0
M  V30 6894 H 659.786 -1.8765 -0.815394 0
M  V30 6895 H 659.796 -2.58409 -3.15735 0
M  V30 6896 H 658.471 -3.42099 -2.36519 0
M  V30 6897 H 657.048 -1.82003 -3.25468 0
M  V30 6898 N 659.233 0.902656 -1.29189 0
M  V30 6899 C 660.644 1.46809 -1.15343 0
M  V30 6900 C 660.995 1.94568 0.252517 0
M  V30 6901 O 660.12 1.83454 1.14777 0
M  V30 6902 C 660.715 2.66829 -2.08776 0
M  V30 6903 C 659.274 3.19518 -1.98961 0
M  V30 6904 C 658.421 1.92212 -1.99874 0
M  V30 6905 H 661.372 0.714282 -1.41717 0
M  V30 6906 H 661.393 3.42465 -1.65826 0
M  V30 6907 H 660.905 2.32039 -3.11094 0
M  V30 6908 H 659.006 3.59008 -0.99721 0
M  V30 6909 H 659.119 3.84016 -2.86477 0
M  V30 6910 H 657.483 2.0979 -1.44431 0
M  V30 6911 H 658.266 1.59702 -3.03891 0
M  V30 6912 N 660.711 1.11618 1.11262 0
M  V30 6913 C 661.939 0.888739 1.8684 0
M  V30 6914 C 662.354 -0.561558 1.80255 0
M  V30 6915 O 661.711 -1.38782 1.18515 0
M  V30 6916 C 661.762 1.34422 3.35579 0
M  V30 6917 O 661.483 2.73766 3.42029 0
M  V30 6918 C 662.984 1.15246 4.28058 0
M  V30 6919 H 660.204 0.318152 0.590779 0
M  V30 6920 H 662.748 1.48398 1.40707 0
M  V30 6921 H 660.903 0.79239 3.7921 0
M  V30 6922 H 661.317 2.9355 4.34659 0
M  V30 6923 H 662.791 1.52015 5.30656 0
M  V30 6924 H 663.268 0.0922007 4.39103 0
M  V30 6925 H 663.874 1.69136 3.90222 0
M  V30 6926 N 662.189 -1.289 0.906776 0
M  V30 6927 C 663.417 -1.99401 0.551969 0
M  V30 6928 C 663.832 -1.67816 -0.865048 0
M  V30 6929 O 663.189 -0.927078 -1.57199 0
M  V30 6930 C 663.24 -3.53779 0.743152 0
M  V30 6931 O 662.961 -3.84248 2.1044 0
M  V30 6932 C 664.462 -4.41543 0.39424 0
M  V30 6933 H 661.682 -0.636926 0.211106 0
M  V30 6934 H 664.226 -1.64266 1.21807 0
M  V30 6935 H 662.381 -3.87201 0.124143 0
M  V30 6936 H 662.795 -4.78904 2.13895 0
M  V30 6937 H 664.269 -5.48957 0.578814 0
M  V30 6938 H 664.746 -4.34073 -0.669137 0
M  V30 6939 H 665.352 -4.13605 0.990491 0
M  V30 6940 N 663.667 -0.670007 -1.42649 0
M  V30 6941 C 665.078 -0.268118 -1.84765 0
M  V30 6942 C 665.429 1.18877 -1.56086 0
M  V30 6943 O 664.554 1.90947 -1.01825 0
M  V30 6944 C 665.149 -0.47984 -3.35385 0
M  V30 6945 C 663.708 -0.132116 -3.76168 0
M  V30 6946 C 662.855 -0.774611 -2.66261 0
M  V30 6947 H 665.806 -0.872509 -1.32563 0
M  V30 6948 H 665.827 0.269522 -3.79544 0
M  V30 6949 H 665.339 -1.54026 -3.56227 0
M  V30 6950 H 663.44 0.92505 -3.60934 0
M  V30 6951 H 663.553 -0.569294 -4.75706 0
M  V30 6952 H 661.917 -0.206353 -2.53863 0
M  V30 6953 H 662.7 -1.83839 -2.89928 0
M  V30 6954 N 665.145 1.52092 -0.413018 0
M  V30 6955 C 666.055 2.30858 0.417318 0
M  V30 6956 C 667.071 1.38746 1.05003 0
M  V30 6957 O 668.247 1.71821 1.05069 0
M  V30 6958 C 665.312 3.11756 1.51687 0
M  V30 6959 C 664.373 4.19613 0.906825 0
M  V30 6960 C 663.606 4.96644 1.95399 0
M  V30 6961 O 663.829 4.7402 3.17271 0
M  V30 6962 O 662.763 5.81385 1.55805 0
M  V30 6963 H 666.589 3.02865 -0.225028 0
M  V30 6964 H 664.174 1.48358 -0.176126 0
M  V30 6965 H 666.056 3.62122 2.15512 0
M  V30 6966 H 664.731 2.42539 2.14375 0
M  V30 6967 H 663.638 3.73385 0.231183 0
M  V30 6968 H 664.971 4.91134 0.323814 0
M  V30 6969 N 666.623 0.143563 1.56945 0
M  V30 6970 C 668.034 -0.37783 1.82837 0
M  V30 6971 C 668.385 -1.64967 1.06209 0
M  V30 6972 O 667.51 -2.14221 0.306291 0
M  V30 6973 C 668.105 -0.692274 3.31652 0
M  V30 6974 C 666.664 -1.1582 3.58138 0
M  V30 6975 C 665.811 -0.17951 2.76718 0
M  V30 6976 H 668.762 0.368317 1.54367 0
M  V30 6977 H 668.783 -1.54729 3.47619 0
M  V30 6978 H 668.295 0.233572 3.87397 0
M  V30 6979 H 666.396 -2.10011 3.07776 0
M  V30 6980 H 666.509 -1.08655 4.66616 0
M  V30 6981 H 664.873 -0.671458 2.4569 0
M  V30 6982 H 665.656 0.739865 3.35233 0
M  V30 6983 N 668.101 -1.57061 -0.130224 0
M  V30 6984 C 669.329 -1.88432 -0.854456 0
M  V30 6985 C 669.744 -0.733608 -1.73964 0
M  V30 6986 O 669.101 0.296029 -1.80083 0
M  V30 6987 C 669.152 -3.1918 -1.69724 0
M  V30 6988 O 668.873 -4.2982 -0.847705 0
M  V30 6989 C 670.374 -3.6418 -2.5276 0
M  V30 6990 H 667.594 -0.624193 -0.246221 0
M  V30 6991 H 670.138 -2.04159 -0.11798 0
M  V30 6992 H 668.293 -3.05156 -2.3866 0
M  V30 6993 H 668.707 -5.04689 -1.42792 0
M  V30 6994 H 670.181 -4.58457 -3.07443 0
M  V30 6995 H 670.658 -2.90285 -3.29592 0
M  V30 6996 H 671.264 -3.80954 -1.89087 0
M  V30 6997 N 669.579 0.400081 -1.52437 0
M  V30 6998 C 670.99 0.97851 -1.59003 0
M  V30 6999 C 671.341 1.91293 -0.436068 0
M  V30 7000 O 670.466 2.1183 0.442365 0
M  V30 7001 C 671.061 1.78145 -2.88184 0
M  V30 7002 C 669.62 2.30976 -2.97199 0
M  V30 7003 C 668.767 1.11212 -2.54022 0
M  V30 7004 H 671.718 0.180002 -1.57676 0
M  V30 7005 H 671.739 2.63968 -2.74046 0
M  V30 7006 H 671.251 1.1011 -3.72152 0
M  V30 7007 H 669.352 3.02355 -2.17744 0
M  V30 7008 H 669.465 2.61221 -4.01622 0
M  V30 7009 H 667.829 1.46882 -2.08081 0
M  V30 7010 H 668.612 0.447307 -3.40373 0
M  V30 7011 N 671.057 1.43213 0.657864 0
M  V30 7012 C 672.306 1.43871 1.41365 0
M  V30 7013 C 672.619 0.064898 1.95492 0
M  V30 7014 O 673.825 -0.0510796 2.71452 0
M  V30 7015 C 672.281 2.53158 2.55811 0
M  V30 7016 C 671.889 3.96624 2.08311 0
M  V30 7017 C 673.633 2.63004 3.3321 0
M  V30 7018 C 671.54 4.97385 3.1994 0
M  V30 7019 H 670.47 0.535174 0.531136 0
M  V30 7020 H 673.121 1.69185 0.710543 0
M  V30 7021 H 671.503 2.21037 3.2857 0
M  V30 7022 H 672.677 4.38182 1.42593 0
M  V30 7023 H 670.992 3.90781 1.43804 0
M  V30 7024 H 673.589 3.3546 4.16378 0
M  V30 7025 H 673.932 1.67918 3.80932 0
M  V30 7026 H 674.465 2.94403 2.67529 0
M  V30 7027 H 671.204 5.94007 2.77192 0
M  V30 7028 H 670.724 4.60444 3.84385 0
M  V30 7029 H 672.403 5.19877 3.85145 0
M  V30 7030 N 672.536 -0.895792 1.29666 0
M  V30 7031 C 673.947 -1.46195 1.1612 0
M  V30 7032 C 674.298 -1.94699 -0.242195 0
M  V30 7033 O 673.423 -1.8406 -1.13802 0
M  V30 7034 C 674.018 -2.65718 2.10189 0
M  V30 7035 C 672.577 -3.18458 2.00653 0
M  V30 7036 C 671.724 -1.91149 2.00891 0
M  V30 7037 H 674.675 -0.706756 1.42094 0
M  V30 7038 H 674.696 -3.4158 1.6764 0
M  V30 7039 H 674.208 -2.30386 3.12321 0
M  V30 7040 H 672.309 -3.58474 1.01623 0
M  V30 7041 H 672.422 -3.82491 2.88509 0
M  V30 7042 H 670.786 -2.09021 1.45542 0
M  V30 7043 H 671.569 -1.58089 3.04734 0
M  V30 7044 N 674.014 -1.12206 -1.10668 0
M  V30 7045 C 675.242 -0.898635 -1.86366 0
M  V30 7046 C 675.657 0.551991 -1.80551 0
M  V30 7047 O 675.014 1.38152 -1.19249 0
M  V30 7048 C 675.065 -1.36199 -3.34861 0
M  V30 7049 O 674.786 -2.75576 -3.40573 0
M  V30 7050 C 676.287 -1.17515 -4.2744 0
M  V30 7051 H 673.507 -0.321281 -0.589084 0
M  V30 7052 H 676.051 -1.49142 -1.39918 0
M  V30 7053 H 674.206 -0.81249 -3.78784 0
M  V30 7054 H 674.62 -2.95851 -4.33096 0
M  V30 7055 H 676.094 -1.54827 -5.29842 0
M  V30 7056 H 676.571 -0.115486 -4.39048 0
M  V30 7057 H 677.177 -1.71203 -3.89319 0
M  V30 7058 N 675.492 1.28418 -0.913599 0
M  V30 7059 C 676.741 1.94265 -0.542572 0
M  V30 7060 C 677.054 1.72709 0.918207 0
M  V30 7061 O 678.26 2.32778 1.39738 0
M  V30 7062 C 676.716 3.47956 -0.919507 0
M  V30 7063 C 676.324 3.78291 -2.4 0
M  V30 7064 C 678.068 4.19962 -0.619057 0
M  V30 7065 C 675.975 5.2529 -2.71707 0
M  V30 7066 H 674.905 0.727213 -0.199192 0
M  V30 7067 H 677.556 1.45931 -1.11249 0
M  V30 7068 H 675.938 3.9502 -0.278372 0
M  V30 7069 H 677.112 3.42035 -3.08786 0
M  V30 7070 H 675.427 3.19456 -2.67089 0
M  V30 7071 H 678.024 5.28178 -0.832623 0
M  V30 7072 H 678.367 4.13935 0.443126 0
M  V30 7073 H 678.9 3.78674 -1.21865 0
M  V30 7074 H 675.639 5.36394 -3.76778 0
M  V30 7075 H 675.159 5.62743 -2.07559 0
M  V30 7076 H 676.838 5.93027 -2.58703 0
M  V30 7077 N 676.97 0.677563 1.42291 0
M  V30 7078 C 677.933 0.0101085 2.29198 0
M  V30 7079 C 678.933 -0.726219 1.43467 0
M  V30 7080 O 680.123 -0.563807 1.64824 0
M  V30 7081 C 677.255 -0.996316 3.26016 0
M  V30 7082 H 678.448 0.775071 2.89711 0
M  V30 7083 H 676.001 0.440065 1.49977 0
M  V30 7084 H 676.736 -1.78967 2.70446 0
M  V30 7085 H 676.521 -0.471687 3.89253 0
M  V30 7086 H 678.011 -1.46167 3.91184 0
M  V30 7087 N 678.448 -1.51871 0.421078 0
M  V30 7088 C 679.676 -2.06356 -0.14994 0
M  V30 7089 C 680.091 -1.29006 -1.37851 0
M  V30 7090 O 679.448 -0.345139 -1.79207 0
M  V30 7091 C 679.499 -3.58185 -0.488454 0
M  V30 7092 O 679.22 -4.32611 0.691341 0
M  V30 7093 C 680.721 -4.29129 -1.11191 0
M  V30 7094 H 677.941 -0.67083 -0.0151186 0
M  V30 7095 H 680.485 -1.95638 0.595476 0
M  V30 7096 H 678.64 -3.68871 -1.18376 0
M  V30 7097 H 679.054 -5.22927 0.405906 0
M  V30 7098 H 680.528 -5.36501 -1.29889 0
M  V30 7099 H 681.005 -3.86371 -2.0884 0
M  V30 7100 H 681.611 -4.22843 -0.456458 0
M  V30 7101 N 679.926 -0.151884 -1.56866 0
M  V30 7102 C 681.151 0.508044 -2.01081 0
M  V30 7103 C 681.576 1.57306 -1.03134 0
M  V30 7104 O 680.934 1.81298 -0.0078309 0
M  V30 7105 C 680.982 1.08106 -3.44014 0
M  V30 7106 O 680.086 2.19577 -3.49084 0
M  V30 7107 H 679.427 0.123757 -0.652365 0
M  V30 7108 H 681.957 -0.250055 -2.03066 0
M  V30 7109 H 681.967 1.40851 -3.82916 0
M  V30 7110 H 680.642 0.301168 -4.14808 0
M  V30 7111 H 679.219 1.88023 -3.22027 0
M  V30 7112 N 681.404 1.57128 0.121893 0
M  V30 7113 C 682.815 1.73902 0.679348 0
M  V30 7114 C 683.166 0.770135 1.80453 0
M  V30 7115 O 682.291 -0.0576083 2.16323 0
M  V30 7116 C 682.886 3.15328 1.2391 0
M  V30 7117 C 681.445 3.33618 1.74288 0
M  V30 7118 C 680.592 2.6978 0.641414 0
M  V30 7119 H 683.543 1.58359 -0.104 0
M  V30 7120 H 683.564 3.16718 2.10879 0
M  V30 7121 H 683.076 3.85821 0.419957 0
M  V30 7122 H 681.177 2.68162 2.58689 0
M  V30 7123 H 681.29 4.4176 1.85432 0
M  V30 7124 H 679.654 2.30935 1.0743 0
M  V30 7125 H 680.437 3.42895 -0.166707 0
M  V30 7126 N 682.882 -0.391992 1.52647 0
M  V30 7127 C 684.11 -1.1586 1.71418 0
M  V30 7128 C 684.525 -1.8381 0.431216 0
M  V30 7129 O 683.882 -1.7256 -0.594085 0
M  V30 7130 C 683.933 -2.20888 2.86165 0
M  V30 7131 O 683.654 -1.5571 4.09495 0
M  V30 7132 C 685.155 -3.103 3.1659 0
M  V30 7133 H 682.375 -0.347494 0.574011 0
M  V30 7134 H 684.919 -0.458972 1.99283 0
M  V30 7135 H 683.074 -2.86492 2.6077 0
M  V30 7136 H 683.488 -2.25474 4.73563 0
M  V30 7137 H 684.962 -3.8003 4.00351 0
M  V30 7138 H 685.439 -3.73639 2.30848 0
M  V30 7139 H 686.045 -2.50345 3.43813 0
M  V30 7140 N 684.36 -1.4356 -0.65026 0
M  V30 7141 C 685.609 -1.44619 -1.406 0
M  V30 7142 C 685.922 -0.0752645 -1.95455 0
M  V30 7143 O 687.128 0.0366832 -2.71475 0
M  V30 7144 C 685.584 -2.54511 -2.54465 0
M  V30 7145 C 685.192 -3.97723 -2.06204 0
M  V30 7146 C 686.936 -2.64768 -3.31811 0
M  V30 7147 C 684.843 -4.99075 -3.17298 0
M  V30 7148 H 683.773 -0.537983 -0.52829 0
M  V30 7149 H 686.424 -1.69559 -0.701561 0
M  V30 7150 H 684.806 -2.22777 -3.27393 0
M  V30 7151 H 685.98 -4.38932 -1.40267 0
M  V30 7152 H 684.295 -3.91538 -1.41729 0
M  V30 7153 H 686.892 -3.37664 -4.14593 0
M  V30 7154 H 687.235 -1.69936 -3.80036 0
M  V30 7155 H 687.768 -2.95817 -2.65964 0
M  V30 7156 H 684.507 -5.95469 -2.74038 0
M  V30 7157 H 684.027 -4.62476 -3.81937 0
M  V30 7158 H 685.706 -5.21913 -3.82382 0
M  V30 7159 N 685.838 0.888903 -1.30139 0
M  V30 7160 C 686.768 2.01046 -1.18755 0
M  V30 7161 C 687.749 1.69916 -0.0791438 0
M  V30 7162 O 688.934 1.92445 -0.260498 0
M  V30 7163 C 686.064 3.36109 -0.874518 0
M  V30 7164 C 685.018 3.81486 -1.94043 0
M  V30 7165 C 684.344 5.13796 -1.48047 0
M  V30 7166 C 685.644 4.00637 -3.35093 0
M  V30 7167 H 687.338 2.10828 -2.12584 0
M  V30 7168 H 684.884 1.01298 -1.02346 0
M  V30 7169 H 686.837 4.14089 -0.781548 0
M  V30 7170 H 685.561 3.26449 0.0994519 0
M  V30 7171 H 684.22 3.05731 -2.02297 0
M  V30 7172 H 683.868 5.0056 -0.494878 0
M  V30 7173 H 683.568 5.45127 -2.19341 0
M  V30 7174 H 685.092 5.94305 -1.40121 0
M  V30 7175 H 686.506 4.69067 -3.2962 0
M  V30 7176 H 684.903 4.43339 -4.04438 0
M  V30 7177 H 685.973 3.0462 -3.77273 0
M  V30 7178 N 687.317 1.12792 1.10072 0
M  V30 7179 C 688.563 0.886857 1.82381 0
M  V30 7180 C 688.896 -0.58576 1.85155 0
M  V30 7181 O 688.171 -1.43317 1.31493 0
M  V30 7182 C 688.454 1.46703 3.28862 0
M  V30 7183 C 688.307 3.00829 3.34398 0
M  V30 7184 C 689.626 1.12971 4.25353 0
M  V30 7185 H 686.745 0.32362 0.662148 0
M  V30 7186 H 689.387 1.39513 1.28982 0
M  V30 7187 H 687.537 1.03476 3.74466 0
M  V30 7188 H 689.209 3.52764 2.97247 0
M  V30 7189 H 687.452 3.36164 2.74183 0
M  V30 7190 H 688.123 3.36519 4.3756 0
M  V30 7191 H 690.599 1.50313 3.88001 0
M  V30 7192 H 689.475 1.56223 5.26199 0
M  V30 7193 H 689.736 0.0424452 4.4208 0
M  V30 7194 N 688.795 -1.27931 0.920396 0
M  V30 7195 C 690.02 -1.99343 0.572478 0
M  V30 7196 C 690.445 -1.68267 -0.840696 0
M  V30 7197 O 689.803 -0.918805 -1.56294 0
M  V30 7198 C 689.851 -3.51698 0.796284 0
M  V30 7199 O 688.955 -4.12157 -0.141602 0
M  V30 7200 H 688.296 -0.626065 0.221221 0
M  V30 7201 H 690.826 -1.62921 1.23765 0
M  V30 7202 H 690.836 -4.01793 0.708984 0
M  V30 7203 H 689.511 -3.73649 1.82644 0
M  V30 7204 H 688.088 -3.729 -0.005007 0
M  V30 7205 N 690.273 -0.685099 -1.4193 0
M  V30 7206 C 691.236 -0.0222632 -2.29189 0
M  V30 7207 C 692.236 0.7186 -1.4385 0
M  V30 7208 O 693.426 0.555058 -1.6512 0
M  V30 7209 C 690.558 0.979013 -3.2654 0
M  V30 7210 H 691.751 -0.790424 -2.89296 0
M  V30 7211 H 689.304 -0.448012 -1.49742 0
M  V30 7212 H 690.039 1.77531 -2.71392 0
M  V30 7213 H 689.824 0.451037 -3.89497 0
M  V30 7214 H 691.314 1.44091 -3.91954 0
M  V30 7215 N 691.751 1.51645 -0.429126 0
M  V30 7216 C 692.979 2.06433 0.138994 0
M  V30 7217 C 693.394 1.29735 1.37165 0
M  V30 7218 O 692.751 0.354638 1.79021 0
M  V30 7219 C 692.802 3.58439 0.469452 0
M  V30 7220 O 692.523 4.32238 -0.714273 0
M  V30 7221 C 694.024 4.29712 1.08914 0
M  V30 7222 H 691.244 0.6709 0.0115608 0
M  V30 7223 H 693.788 1.9532 -0.605843 0
M  V30 7224 H 691.943 3.69494 1.16419 0
M  V30 7225 H 692.357 5.22704 -0.433633 0
M  V30 7226 H 693.831 5.37182 1.27042 0
M  V30 7227 H 694.308 3.87473 2.06788 0
M  V30 7228 H 694.914 4.2308 0.434028 0
M  V30 7229 N 693.229 0.160201 1.56784 0
M  V30 7230 C 694.454 -0.497373 2.01348 0
M  V30 7231 C 694.879 -1.56757 1.03966 0
M  V30 7232 O 694.237 -1.81292 0.0174455 0
M  V30 7233 C 694.285 -1.0628 3.44582 0
M  V30 7234 O 693.389 -2.17723 3.50244 0
M  V30 7235 H 692.73 -0.120295 0.653012 0
M  V30 7236 H 695.26 0.260821 2.02931 0
M  V30 7237 H 695.27 -1.38819 3.83658 0
M  V30 7238 H 693.945 -0.279166 4.14962 0
M  V30 7239 H 692.522 -1.86313 3.2302 0
M  V30 7240 N 694.707 -1.5719 -0.113559 0
M  V30 7241 C 695.637 -2.03772 -1.14013 0
M  V30 7242 C 696.618 -0.923176 -1.42869 0
M  V30 7243 O 697.803 -1.19325 -1.53216 0
M  V30 7244 C 694.933 -2.44663 -2.4649 0
M  V30 7245 C 693.887 -3.59612 -2.32085 0
M  V30 7246 C 693.213 -3.8642 -3.69573 0
M  V30 7247 C 694.513 -4.91149 -1.7768 0
M  V30 7248 H 696.207 -2.89785 -0.752665 0
M  V30 7249 H 693.753 -1.39412 -0.360609 0
M  V30 7250 H 695.706 -2.75857 -3.18561 0
M  V30 7251 H 694.43 -1.55628 -2.87137 0
M  V30 7252 H 693.089 -3.28636 -1.62461 0
M  V30 7253 H 692.737 -2.94581 -4.07715 0
M  V30 7254 H 692.437 -4.63797 -3.60786 0
M  V30 7255 H 693.961 -4.2007 -4.4314 0
M  V30 7256 H 695.375 -5.20843 -2.39574 0
M  V30 7257 H 693.772 -5.72562 -1.79701 0
M  V30 7258 H 694.842 -4.79301 -0.734776 0
M  V30 7259 N 696.185 0.383891 -1.52853 0
M  V30 7260 C 697.434 1.12563 -1.67369 0
M  V30 7261 C 697.747 1.90982 -0.422533 0
M  V30 7262 O 698.953 2.6778 -0.447914 0
M  V30 7263 C 697.409 2.05011 -2.95801 0
M  V30 7264 C 697.017 1.31991 -4.28115 0
M  V30 7265 C 698.761 2.79289 -3.19684 0
M  V30 7266 C 696.668 2.23235 -5.4765 0
M  V30 7267 H 695.598 0.42391 -0.623552 0
M  V30 7268 H 698.249 0.388016 -1.79351 0
M  V30 7269 H 696.631 2.82429 -2.77578 0
M  V30 7270 H 697.805 0.597633 -4.56908 0
M  V30 7271 H 696.12 0.696517 -4.10533 0
M  V30 7272 H 698.717 3.47749 -4.06171 0
M  V30 7273 H 699.06 3.43649 -2.3497 0
M  V30 7274 H 699.593 2.08962 -3.38496 0
M  V30 7275 H 696.332 1.63482 -6.34786 0
M  V30 7276 H 695.852 2.93364 -5.23161 0
M  V30 7277 H 697.531 2.83205 -5.81725 0
M  V30 7278 N 697.663 1.43903 0.642637 0
M  V30 7279 C 698.891 1.4954 1.42988 0
M  V30 7280 C 699.306 0.116588 1.8844 0
M  V30 7281 O 698.663 -0.875285 1.60141 0
M  V30 7282 C 698.714 2.45031 2.65785 0
M  V30 7283 O 698.435 3.77551 2.22232 0
M  V30 7284 C 699.936 2.60017 3.59035 0
M  V30 7285 H 697.156 0.507544 0.438907 0
M  V30 7286 H 699.7 1.88752 0.786942 0
M  V30 7287 H 697.855 2.08985 3.26196 0
M  V30 7288 H 698.269 4.29001 3.01759 0
M  V30 7289 H 699.743 3.30887 4.41835 0
M  V30 7290 H 700.22 1.64861 4.07084 0
M  V30 7291 H 700.826 2.96918 3.045 0
M  V30 7292 N 699.141 -0.881989 1.30609 0
M  V30 7293 C 700.552 -1.44956 1.17664 0
M  V30 7294 C 700.903 -1.94945 -0.221531 0
M  V30 7295 O 700.028 -1.85257 -1.11844 0
M  V30 7296 C 700.623 -2.63474 2.12995 0
M  V30 7297 C 699.182 -3.16312 2.04019 0
M  V30 7298 C 698.329 -1.89008 2.02907 0
M  V30 7299 H 701.28 -0.691645 1.42835 0
M  V30 7300 H 701.301 -3.39783 1.71253 0
M  V30 7301 H 700.813 -2.2706 3.14746 0
M  V30 7302 H 698.914 -3.57376 1.0542 0
M  V30 7303 H 699.027 -3.79409 2.9255 0
M  V30 7304 H 697.391 -2.07465 1.47751 0
M  V30 7305 H 698.174 -1.54848 3.06394 0
M  V30 7306 N 700.619 -1.13374 -1.09472 0
M  V30 7307 C 701.566 -0.810682 -2.16094 0
M  V30 7308 C 702.536 0.227003 -1.64541 0
M  V30 7309 O 703.721 0.0993538 -1.90541 0
M  V30 7310 C 700.861 -0.282336 -3.43943 0
M  V30 7311 C 699.974 -1.37902 -4.09398 0
M  V30 7312 C 699.109 -0.809066 -5.25002 0
M  V30 7313 C 698.148 -1.88419 -5.82379 0
M  V30 7314 N 697.285 -1.33221 -6.89345 0
M  V30 7315 H 702.125 -1.72397 -2.43071 0
M  V30 7316 H 699.662 -0.860564 -1.19301 0
M  V30 7317 H 701.62 0.0421189 -4.17179 0
M  V30 7318 H 700.25 0.594083 -3.17286 0
M  V30 7319 H 699.302 -1.82008 -3.34032 0
M  V30 7320 H 700.614 -2.19161 -4.48074 0
M  V30 7321 H 699.768 -0.435867 -6.05132 0
M  V30 7322 H 698.507 0.0346058 -4.87688 0
M  V30 7323 H 697.512 -2.26646 -5.00911 0
M  V30 7324 H 698.737 -2.73125 -6.21755 0
M  V30 7325 H 696.683 -0.510535 -6.5401 0
M  V30 7326 H 696.6 -2.08129 -7.26786 0
M  V30 7327 H 697.868 -0.986565 -7.73232 0
M  V30 7328 N 702.098 1.27442 -0.927168 0
M  V30 7329 C 703.323 1.99036 -0.583042 0
M  V30 7330 C 703.748 1.68711 0.83176 0
M  V30 7331 O 703.106 0.927081 1.55804 0
M  V30 7332 C 703.154 3.51271 -0.814925 0
M  V30 7333 O 702.258 4.12226 0.119742 0
M  V30 7334 H 701.599 0.624883 -0.224538 0
M  V30 7335 H 704.129 1.62263 -1.24628 0
M  V30 7336 H 704.139 4.01411 -0.730282 0
M  V30 7337 H 702.814 3.72676 -1.84623 0
M  V30 7338 H 701.391 3.72897 -0.0147688 0
M  V30 7339 N 703.576 0.692616 1.41565 0
M  V30 7340 C 704.804 0.231279 2.05603 0
M  V30 7341 C 705.219 -1.11837 1.52111 0
M  V30 7342 O 704.576 -1.6983 0.66813 0
M  V30 7343 C 704.627 0.177125 3.61066 0
M  V30 7344 O 704.348 1.47346 4.12578 0
M  V30 7345 C 705.849 -0.30556 4.42246 0
M  V30 7346 H 703.069 0.108238 0.662213 0
M  V30 7347 H 705.613 0.944369 1.81389 0
M  V30 7348 H 703.768 -0.486769 3.8433 0
M  V30 7349 H 704.182 1.35861 5.06599 0
M  V30 7350 H 705.656 -0.29233 5.51225 0
M  V30 7351 H 706.133 -1.34393 4.18133 0
M  V30 7352 H 706.739 0.327229 4.24039 0
M  V30 7353 N 705.054 -1.51416 0.437162 0
M  V30 7354 C 706.301 -2.02086 -0.129364 0
M  V30 7355 C 706.629 -1.32133 -1.42728 0
M  V30 7356 O 705.884 -0.424916 -1.91031 0
M  V30 7357 C 706.183 -3.55203 -0.39564 0
M  V30 7358 C 705.849 -4.43447 0.81644 0
M  V30 7359 C 704.511 -4.67285 1.14884 0
M  V30 7360 C 706.863 -4.95219 1.62503 0
M  V30 7361 C 704.191 -5.40141 2.29052 0
M  V30 7362 C 706.543 -5.69327 2.7577 0
M  V30 7363 C 705.207 -5.91429 3.09464 0
M  V30 7364 H 704.477 -0.739486 -0.0473375 0
M  V30 7365 H 707.124 -1.82368 0.584321 0
M  V30 7366 H 705.429 -3.73252 -1.19121 0
M  V30 7367 H 707.126 -3.91944 -0.847399 0
M  V30 7368 H 703.716 -4.2509 0.547422 0
M  V30 7369 H 707.9 -4.76686 1.38144 0
M  V30 7370 H 703.156 -5.55468 2.55471 0
M  V30 7371 H 707.33 -6.08433 3.38795 0
M  V30 7372 H 704.957 -6.47662 3.98042 0
M  V30 7373 N 706.532 -0.168513 -1.56696 0
M  V30 7374 C 707.462 0.758563 -2.20835 0
M  V30 7375 C 708.443 1.24121 -1.1631 0
M  V30 7376 O 709.628 1.29487 -1.4473 0
M  V30 7377 C 706.758 1.9892 -2.8469 0
M  V30 7378 C 705.712 1.64252 -3.95228 0
M  V30 7379 C 705.038 2.94757 -4.46119 0
M  V30 7380 C 706.338 0.872675 -5.14958 0
M  V30 7381 H 708.032 0.223953 -2.98561 0
M  V30 7382 H 705.578 0.106277 -1.43607 0
M  V30 7383 H 707.531 2.64275 -3.28233 0
M  V30 7384 H 706.255 2.5479 -2.04327 0
M  V30 7385 H 704.914 1.01266 -3.52336 0
M  V30 7386 H 704.562 3.48662 -3.62552 0
M  V30 7387 H 704.262 2.72316 -5.2069 0
M  V30 7388 H 705.786 3.61147 -4.92347 0
M  V30 7389 H 707.2 1.42875 -5.55211 0
M  V30 7390 H 705.597 0.747402 -5.95428 0
M  V30 7391 H 706.667 -0.131535 -4.84722 0
M  V30 7392 N 708.01 1.57248 0.105221 0
M  V30 7393 C 709.238 1.89768 0.82437 0
M  V30 7394 C 709.653 0.761192 1.72775 0
M  V30 7395 O 709.01 -0.267342 1.80531 0
M  V30 7396 C 709.061 3.2184 1.64625 0
M  V30 7397 O 708.782 4.31115 0.779217 0
M  V30 7398 C 710.283 3.68155 2.46935 0
M  V30 7399 H 707.503 0.628031 0.236259 0
M  V30 7400 H 710.047 2.04321 0.085485 0
M  V30 7401 H 708.202 3.08915 2.33775 0
M  V30 7402 H 708.616 5.06897 1.34745 0
M  V30 7403 H 710.09 4.6329 3.00111 0
M  V30 7404 H 710.567 2.95492 3.24932 0
M  V30 7405 H 711.173 3.83914 1.83002 0
M  V30 7406 N 709.488 -0.375779 1.53054 0
M  V30 7407 C 710.716 -1.14036 1.72637 0
M  V30 7408 C 711.131 -1.83342 0.450687 0
M  V30 7409 O 710.488 -1.7318 -0.575749 0
M  V30 7410 C 710.539 -2.17841 2.88492 0
M  V30 7411 O 710.26 -1.51358 4.11123 0
M  V30 7412 C 711.761 -3.06924 3.19863 0
M  V30 7413 H 708.981 -0.341386 0.577665 0
M  V30 7414 H 711.525 -0.437809 1.99759 0
M  V30 7415 H 709.68 -2.8371 2.63794 0
M  V30 7416 H 710.094 -2.20439 4.75928 0
M  V30 7417 H 711.568 -3.75763 4.04359 0
M  V30 7418 H 712.045 -3.71169 2.34798 0
M  V30 7419 H 712.651 -2.46684 3.46449 0
M  V30 7420 N 710.966 -1.44241 -0.634997 0
M  V30 7421 C 712.194 -1.50296 -1.42193 0
M  V30 7422 C 712.609 -0.12658 -1.88375 0
M  V30 7423 O 711.966 0.86678 -1.60603 0
M  V30 7424 C 712.017 -2.46437 -2.64482 0
M  V30 7425 O 711.738 -3.78724 -2.20226 0
M  V30 7426 C 713.239 -2.61918 -3.57651 0
M  V30 7427 H 710.459 -0.509865 -0.43621 0
M  V30 7428 H 713.003 -1.89167 -0.776921 0
M  V30 7429 H 711.158 -2.10712 -3.25083 0
M  V30 7430 H 711.572 -4.30595 -2.9948 0
M  V30 7431 H 713.046 -3.33225 -4.40074 0
M  V30 7432 H 713.523 -1.67017 -4.06204 0
M  V30 7433 H 714.129 -2.98528 -3.02921 0
M  V30 7434 N 712.444 0.87505 -1.31075 0
M  V30 7435 C 713.391 1.98178 -1.18296 0
M  V30 7436 C 714.361 1.65952 -0.0699923 0
M  V30 7437 O 715.546 1.8926 -0.241951 0
M  V30 7438 C 712.686 3.33399 -0.891024 0
M  V30 7439 C 711.799 3.78253 -2.08684 0
M  V30 7440 C 710.934 5.02166 -1.73212 0
M  V30 7441 C 709.973 5.39455 -2.89231 0
M  V30 7442 N 709.11 6.54549 -2.53989 0
M  V30 7443 H 713.95 2.0844 -2.12971 0
M  V30 7444 H 711.487 1.02047 -1.05948 0
M  V30 7445 H 713.445 4.11246 -0.702338 0
M  V30 7446 H 712.075 3.22794 0.0188799 0
M  V30 7447 H 711.127 2.9623 -2.38646 0
M  V30 7448 H 712.439 4.01821 -2.95536 0
M  V30 7449 H 711.593 5.87666 -1.50777 0
M  V30 7450 H 710.332 4.80491 -0.83544 0
M  V30 7451 H 709.337 4.52477 -3.12321 0
M  V30 7452 H 710.562 5.63098 -3.79601 0
M  V30 7453 H 708.508 6.3443 -1.66838 0
M  V30 7454 H 708.425 6.78035 -3.34372 0
M  V30 7455 H 709.693 7.43254 -2.34934 0
M  V30 7456 N 713.922 1.13953 1.08869 0
M  V30 7457 C 715.333 0.916649 1.62648 0
M  V30 7458 C 715.684 -0.545589 1.88462 0
M  V30 7459 O 714.809 -1.41351 1.63856 0
M  V30 7460 C 715.404 1.65751 2.95486 0
M  V30 7461 C 713.963 1.48034 3.46068 0
M  V30 7462 C 713.11 1.68305 2.20383 0
M  V30 7463 H 716.061 1.292 0.921572 0
M  V30 7464 H 716.082 1.11794 3.63707 0
M  V30 7465 H 715.594 2.72171 2.76667 0
M  V30 7466 H 713.695 0.439416 3.7 0
M  V30 7467 H 713.808 2.24719 4.23129 0
M  V30 7468 H 712.172 1.10833 2.29321 0
M  V30 7469 H 712.955 2.76057 2.04077 0
M  V30 7470 N 715.4 -1.26948 0.933913 0
M  V30 7471 C 716.646 -1.94374 0.57848 0
M  V30 7472 C 716.979 -1.73166 -0.879048 0
M  V30 7473 O 716.254 -1.06438 -1.62792 0
M  V30 7474 C 716.537 -3.4834 0.912739 0
M  V30 7475 C 716.39 -3.78866 2.42448 0
M  V30 7476 C 717.709 -4.38062 0.423003 0
M  V30 7477 H 714.828 -0.705959 0.211639 0
M  V30 7478 H 717.47 -1.49951 1.16682 0
M  V30 7479 H 715.62 -3.86309 0.412058 0
M  V30 7480 H 717.292 -3.50654 2.99733 0
M  V30 7481 H 715.535 -3.25198 2.87104 0
M  V30 7482 H 716.206 -4.86458 2.60887 0
M  V30 7483 H 718.682 -4.0728 0.852191 0
M  V30 7484 H 717.558 -5.44599 0.685776 0
M  V30 7485 H 717.819 -4.36886 -0.676994 0
M  V30 7486 N 716.879 -0.700114 -1.41195 0
M  V30 7487 C 718.104 -0.240704 -2.05998 0
M  V30 7488 C 718.529 1.10313 -1.52357 0
M  V30 7489 O 717.887 1.69154 -0.652424 0
M  V30 7490 C 717.935 -0.213783 -3.59966 0
M  V30 7491 O 717.039 0.809933 -4.04368 0
M  V30 7492 H 716.38 -0.116471 -0.653705 0
M  V30 7493 H 718.91 -0.956251 -1.80878 0
M  V30 7494 H 718.92 -0.0461852 -4.07974 0
M  V30 7495 H 717.595 -1.19454 -3.98376 0
M  V30 7496 H 716.172 0.611319 -3.67855 0
M  V30 7497 N 718.357 1.51182 -0.445186 0
M  V30 7498 C 719.287 2.30821 0.352686 0
M  V30 7499 C 720.268 1.36576 1.01395 0
M  V30 7500 O 721.453 1.65497 1.01609 0
M  V30 7501 C 718.583 3.15593 1.44976 0
M  V30 7502 C 717.537 4.1818 0.911553 0
M  V30 7503 C 716.863 4.91523 2.10497 0
M  V30 7504 C 718.163 5.22266 -0.059418 0
M  V30 7505 H 719.857 2.97771 -0.311936 0
M  V30 7506 H 717.403 1.43201 -0.151461 0
M  V30 7507 H 719.356 3.70091 2.01521 0
M  V30 7508 H 718.08 2.4648 2.14278 0
M  V30 7509 H 716.739 3.64746 0.368264 0
M  V30 7510 H 716.387 4.18906 2.78437 0
M  V30 7511 H 716.087 5.60898 1.7512 0
M  V30 7512 H 717.611 5.48847 2.6758 0
M  V30 7513 H 719.025 5.71789 0.415985 0
M  V30 7514 H 717.422 5.99213 -0.326152 0
M  V30 7515 H 718.492 4.7461 -0.993631 0
M  V30 7516 N 719.835 0.176821 1.56605 0
M  V30 7517 C 720.765 -0.746841 2.21234 0
M  V30 7518 C 721.746 -1.23502 1.16967 0
M  V30 7519 O 722.931 -1.28718 1.45414 0
M  V30 7520 C 720.061 -1.97407 2.8574 0
M  V30 7521 C 719.015 -1.62153 3.96094 0
M  V30 7522 C 718.341 -2.92387 4.47676 0
M  V30 7523 C 719.641 -0.845353 5.15413 0
M  V30 7524 H 721.335 -0.208116 2.98676 0
M  V30 7525 H 718.881 -0.0986594 1.43662 0
M  V30 7526 H 720.834 -2.62531 3.2963 0
M  V30 7527 H 719.558 -2.53703 2.05676 0
M  V30 7528 H 718.217 -0.993964 3.52868 0
M  V30 7529 H 717.865 -3.46734 3.64396 0
M  V30 7530 H 717.565 -2.69551 5.22127 0
M  V30 7531 H 719.089 -3.5853 4.94255 0
M  V30 7532 H 720.503 -1.39929 5.55961 0
M  V30 7533 H 718.9 -0.715814 5.95815 0
M  V30 7534 H 719.97 0.157239 4.84645 0
M  V30 7535 N 721.313 -1.57302 -0.09688 0
M  V30 7536 C 722.223 -2.05258 -1.13606 0
M  V30 7537 C 723.239 -0.977137 -1.43972 0
M  V30 7538 O 724.415 -1.29018 -1.54649 0
M  V30 7539 C 721.48 -2.46593 -2.43706 0
M  V30 7540 C 720.541 -3.68322 -2.20538 0
M  V30 7541 C 719.774 -4.07676 -3.44435 0
M  V30 7542 O 719.997 -3.47141 -4.52603 0
M  V30 7543 O 718.931 -5.00641 -3.34129 0
M  V30 7544 H 722.757 -2.94069 -0.758752 0
M  V30 7545 H 720.342 -1.46164 -0.309263 0
M  V30 7546 H 722.224 -2.73814 -3.20318 0
M  V30 7547 H 720.899 -1.6092 -2.80867 0
M  V30 7548 H 719.806 -3.4622 -1.41713 0
M  V30 7549 H 721.139 -4.54769 -1.88271 0
M  V30 7550 N 722.791 0.367657 -1.53252 0
M  V30 7551 C 724.016 1.13566 -1.73544 0
M  V30 7552 C 724.441 1.82329 -0.462344 0
M  V30 7553 O 723.799 1.71655 0.583472 0
M  V30 7554 C 723.847 2.14322 -2.89997 0
M  V30 7555 O 722.951 3.21359 -2.58461 0
M  V30 7556 H 722.292 0.329614 -0.576412 0
M  V30 7557 H 724.822 0.425417 -2.00128 0
M  V30 7558 H 724.832 2.57958 -3.16104 0
M  V30 7559 H 723.507 1.63664 -3.82344 0
M  V30 7560 H 722.084 2.8271 -2.43165 0
M  V30 7561 N 724.269 1.44576 0.627338 0
M  V30 7562 C 725.497 1.51048 1.41394 0
M  V30 7563 C 725.912 0.136568 1.88305 0
M  V30 7564 O 725.269 -0.858251 1.6106 0
M  V30 7565 C 725.32 2.47837 2.63172 0
M  V30 7566 O 725.041 3.79887 2.18215 0
M  V30 7567 C 726.542 2.63811 3.56257 0
M  V30 7568 H 723.762 0.512171 0.4335 0
M  V30 7569 H 726.306 1.89576 0.766878 0
M  V30 7570 H 724.461 2.12433 3.23961 0
M  V30 7571 H 724.875 4.32177 2.97192 0
M  V30 7572 H 726.349 3.35554 4.38301 0
M  V30 7573 H 726.826 1.69169 4.05313 0
M  V30 7574 H 727.432 3.0013 3.01333 0
M  V30 7575 N 725.747 -0.868086 1.31537 0
M  V30 7576 C 726.694 -1.97548 1.19346 0
M  V30 7577 C 727.664 -1.65913 0.0787922 0
M  V30 7578 O 728.849 -1.89129 0.251985 0
M  V30 7579 C 725.989 -3.32922 0.908692 0
M  V30 7580 C 725.102 -3.77141 2.10687 0
M  V30 7581 C 724.237 -5.01241 1.75873 0
M  V30 7582 C 723.276 -5.37914 2.92088 0
M  V30 7583 N 722.413 -6.53192 2.57457 0
M  V30 7584 H 727.253 -2.07307 2.14074 0
M  V30 7585 H 724.79 -1.01483 1.06487 0
M  V30 7586 H 726.748 -4.10867 0.724138 0
M  V30 7587 H 725.378 -3.228 -0.0017611 0
M  V30 7588 H 724.43 -2.94961 2.40213 0
M  V30 7589 H 725.742 -4.00248 2.97663 0
M  V30 7590 H 724.896 -5.86858 1.53891 0
M  V30 7591 H 723.635 -4.80041 0.86091 0
M  V30 7592 H 722.64 -4.50814 3.14717 0
M  V30 7593 H 723.865 -5.61077 3.82582 0
M  V30 7594 H 721.811 -6.33536 1.702 0
M  V30 7595 H 721.728 -6.76252 3.37963 0
M  V30 7596 H 722.996 -7.41997 2.38873 0
M  V30 7597 N 727.225 -1.14528 -1.08264 0
M  V30 7598 C 728.172 -0.833556 -2.15222 0
M  V30 7599 C 729.142 0.209539 -1.64773 0
M  V30 7600 O 730.327 0.0791388 -1.90636 0
M  V30 7601 C 727.467 -0.318799 -3.43624 0
M  V30 7602 C 726.58 -1.42237 -4.07913 0
M  V30 7603 C 725.715 -0.864704 -5.24115 0
M  V30 7604 C 724.754 -1.94585 -5.80347 0
M  V30 7605 N 723.891 -1.40525 -6.87893 0
M  V30 7606 H 728.731 -1.74965 -2.41228 0
M  V30 7607 H 726.268 -0.873169 -1.18381 0
M  V30 7608 H 728.226 -0.00213088 -4.172 0
M  V30 7609 H 726.856 0.560397 -3.17898 0
M  V30 7610 H 725.908 -1.8554 -3.32083 0
M  V30 7611 H 727.22 -2.23901 -4.45724 0
M  V30 7612 H 726.374 -0.500025 -6.04636 0
M  V30 7613 H 725.113 -0.0171219 -4.87697 0
M  V30 7614 H 724.118 -2.31946 -4.98479 0
M  V30 7615 H 725.343 -2.79704 -6.18823 0
M  V30 7616 H 723.289 -0.579873 -6.53432 0
M  V30 7617 H 723.206 -2.15825 -7.24538 0
M  V30 7618 H 724.474 -1.06852 -7.72142 0
M  V30 7619 N 728.703 1.26451 -0.940633 0
M  V30 7620 C 729.931 1.97868 -0.604642 0
M  V30 7621 C 730.346 1.70051 0.820251 0
M  V30 7622 O 729.703 0.96843 1.54686 0
M  V30 7623 C 729.754 3.51684 -0.836689 0
M  V30 7624 O 729.475 3.78533 -2.20554 0
M  V30 7625 C 730.976 4.40343 -0.511169 0
M  V30 7626 H 728.196 0.631105 -0.227919 0
M  V30 7627 H 730.74 1.60979 -1.26119 0
M  V30 7628 H 728.895 3.86736 -0.226759 0
M  V30 7629 H 729.309 4.73065 -2.26517 0
M  V30 7630 H 730.783 5.47229 -0.724157 0
M  V30 7631 H 731.26 4.35694 0.553815 0
M  V30 7632 H 731.866 4.10834 -1.0998 0
M  V30 7633 N 730.181 0.707592 1.40822 0
M  V30 7634 C 731.43 0.240705 2.00259 0
M  V30 7635 C 731.743 -1.17027 1.56729 0
M  V30 7636 O 732.949 -1.73526 2.08809 0
M  V30 7637 C 731.405 0.379432 3.57894 0
M  V30 7638 C 731.013 1.79654 4.104 0
M  V30 7639 C 732.757 -0.0270684 4.24491 0
M  V30 7640 C 730.664 1.88628 5.60512 0
M  V30 7641 H 729.594 0.0862369 0.749052 0
M  V30 7642 H 732.245 0.877528 1.61157 0
M  V30 7643 H 730.627 -0.325842 3.94657 0
M  V30 7644 H 731.801 2.53155 3.85032 0
M  V30 7645 H 730.116 2.15379 3.56372 0
M  V30 7646 H 732.713 0.0193743 5.34696 0
M  V30 7647 H 733.056 -1.06772 4.02375 0
M  V30 7648 H 733.589 0.628361 3.92806 0
M  V30 7649 H 730.328 2.90787 5.87472 0
M  V30 7650 H 729.848 1.19528 5.8777 0
M  V30 7651 H 731.527 1.6547 6.25483 0
M  V30 7652 N 731.66 -1.50943 0.453197 0
M  V30 7653 C 733.071 -1.86699 -0.00619892 0
M  V30 7654 C 733.422 -1.3693 -1.40515 0
M  V30 7655 O 732.547 -0.726715 -2.03833 0
M  V30 7656 C 733.142 -3.38795 -0.018025 0
M  V30 7657 C 731.701 -3.74028 -0.421885 0
M  V30 7658 C 730.848 -2.74752 0.375087 0
M  V30 7659 H 733.799 -1.43942 0.668317 0
M  V30 7660 H 733.82 -3.71468 -0.824125 0
M  V30 7661 H 733.332 -3.74988 1.00028 0
M  V30 7662 H 731.433 -3.43431 -1.44521 0
M  V30 7663 H 731.546 -4.78908 -0.135664 0
M  V30 7664 H 729.91 -2.5414 -0.168794 0
M  V30 7665 H 730.693 -3.13787 1.39256 0
M  V30 7666 N 733.138 -0.185124 -1.56509 0
M  V30 7667 C 734.048 0.751908 -2.22224 0
M  V30 7668 C 735.064 1.24244 -1.21817 0
M  V30 7669 O 736.24 1.29169 -1.54523 0
M  V30 7670 C 733.305 1.95837 -2.86092 0
M  V30 7671 C 732.366 1.51337 -4.01741 0
M  V30 7672 C 731.599 2.66233 -4.62554 0
M  V30 7673 O 731.822 3.8346 -4.22273 0
M  V30 7674 O 730.756 2.39517 -5.52191 0
M  V30 7675 H 734.582 0.222304 -3.02885 0
M  V30 7676 H 732.167 0.0437141 -1.49336 0
M  V30 7677 H 734.049 2.66368 -3.26536 0
M  V30 7678 H 732.724 2.47677 -2.08417 0
M  V30 7679 H 731.631 0.777155 -3.65939 0
M  V30 7680 H 732.964 1.04175 -4.81049 0
M  V30 7681 N 734.616 1.57351 0.0885366 0
M  V30 7682 C 735.546 2.05561 1.10757 0
M  V30 7683 C 736.527 0.945789 1.41382 0
M  V30 7684 O 737.712 1.21747 1.51299 0
M  V30 7685 C 734.842 2.48554 2.42566 0
M  V30 7686 C 733.796 3.63259 2.26334 0
M  V30 7687 C 733.122 3.9225 3.63378 0
M  V30 7688 C 734.422 4.93913 1.69844 0
M  V30 7689 H 736.116 2.90946 0.706468 0
M  V30 7690 H 733.662 1.39968 0.338385 0
M  V30 7691 H 735.615 2.8089 3.14132 0
M  V30 7692 H 734.339 1.60176 2.84625 0
M  V30 7693 H 732.998 3.31179 1.57213 0
M  V30 7694 H 732.646 3.0103 4.02976 0
M  V30 7695 H 732.346 4.69478 3.53362 0
M  V30 7696 H 733.87 4.27067 4.36401 0
M  V30 7697 H 735.284 5.24588 2.31258 0
M  V30 7698 H 733.681 5.75349 1.70569 0
M  V30 7699 H 734.751 4.80409 0.65843 0
M  V30 7700 N 736.094 -0.359525 1.53444 0
M  V30 7701 C 737.371 -1.11756 1.6053 0
M  V30 7702 C 737.751 -2.06949 0.416587 0
M  V30 7703 O 737.099 -2.20681 -0.592628 0
M  V30 7704 C 737.309 -1.85133 2.95849 0
M  V30 7705 C 738.657 -2.3945 3.50641 0
M  V30 7706 O 739.681 -1.95251 2.97918 0
M  V30 7707 O 738.54 -3.20266 4.42823 0
M  V30 7708 H 735.634 -0.513005 0.648656 0
M  V30 7709 H 738.18 -0.362301 1.65787 0
M  V30 7710 H 736.952 -1.15694 3.73806 0
M  V30 7711 H 736.575 -2.67554 2.9411 0
M  V30 7712 N 737.572 -1.44907 -0.619662 0
M  V30 7713 C 738.504 -1.48652 -1.74457 0
M  V30 7714 C 739.517 -0.378596 -1.58337 0
M  V30 7715 O 740.706 -0.644987 -1.6644 0
M  V30 7716 C 737.806 -1.31568 -3.12319 0
M  V30 7717 C 736.979 -2.55816 -3.54792 0
M  V30 7718 C 736.038 -2.33465 -4.71573 0
M  V30 7719 O 735.064 -3.07015 -4.79302 0
M  V30 7720 N 736.266 -1.37254 -5.6404 0
M  V30 7721 H 739.031 -2.45632 -1.71712 0
M  V30 7722 H 736.592 -1.40492 -0.804582 0
M  V30 7723 H 738.584 -1.14445 -3.88181 0
M  V30 7724 H 737.154 -0.429095 -3.09641 0
M  V30 7725 H 736.374 -2.88137 -2.69018 0
M  V30 7726 H 737.662 -3.38431 -3.79924 0
M  V30 7727 H 737.06 -0.765309 -5.60499 0
M  V30 7728 H 735.617 -1.26106 -6.39485 0
M  V30 7729 N 739.05 0.861098 -1.31996 0
M  V30 7730 C 740.461 1.43065 -1.19955 0
M  V30 7731 C 740.812 1.95273 0.190489 0
M  V30 7732 O 739.937 1.87012 1.08882 0
M  V30 7733 C 740.532 2.60052 -2.1716 0
M  V30 7734 C 739.091 3.13026 -2.09026 0
M  V30 7735 C 738.238 1.85756 -2.05888 0
M  V30 7736 H 741.189 0.668834 -1.43918 0
M  V30 7737 H 741.21 3.37016 -1.76637 0
M  V30 7738 H 740.722 2.22024 -3.18319 0
M  V30 7739 H 738.823 3.55653 -1.11092 0
M  V30 7740 H 738.936 3.74707 -2.98549 0
M  V30 7741 H 737.3 2.05088 -1.51033 0
M  V30 7742 H 738.083 1.49954 -3.08818 0
M  V30 7743 N 740.528 1.15101 1.07655 0
M  V30 7744 C 741.939 0.933848 1.61667 0
M  V30 7745 C 742.29 -0.525569 1.8903 0
M  V30 7746 O 741.415 -1.39605 1.65346 0
M  V30 7747 C 742.01 1.68876 2.93711 0
M  V30 7748 C 740.569 1.51697 3.44478 0
M  V30 7749 C 739.716 1.70633 2.18586 0
M  V30 7750 H 742.667 1.30171 0.907816 0
M  V30 7751 H 742.688 1.15645 3.625 0
M  V30 7752 H 742.2 2.7509 2.73764 0
M  V30 7753 H 740.301 0.478635 3.69513 0
M  V30 7754 H 740.414 2.29194 4.20722 0
M  V30 7755 H 738.778 1.13259 2.28132 0
M  V30 7756 H 739.561 2.78206 2.01137 0
M  V30 7757 N 742.006 -1.2595 0.947325 0
M  V30 7758 C 742.953 -2.26159 0.460497 0
M  V30 7759 C 743.923 -1.58919 -0.483125 0
M  V30 7760 O 745.108 -1.86603 -0.397983 0
M  V30 7761 C 742.248 -3.441 -0.26247 0
M  V30 7762 C 741.361 -4.25999 0.717539 0
M  V30 7763 C 740.496 -5.31193 -0.0272486 0
M  V30 7764 C 739.535 -6.04774 0.944177 0
M  V30 7765 N 738.672 -7.01721 0.230741 0
M  V30 7766 H 743.512 -2.67173 1.31995 0
M  V30 7767 H 741.049 -1.31358 0.662088 0
M  V30 7768 H 743.007 -4.11317 -0.698137 0
M  V30 7769 H 741.637 -3.03983 -1.08602 0
M  V30 7770 H 740.689 -3.58513 1.27171 0
M  V30 7771 H 742.001 -4.76981 1.45913 0
M  V30 7772 H 741.155 -6.04451 -0.521903 0
M  V30 7773 H 739.894 -4.81066 -0.801682 0
M  V30 7774 H 738.899 -5.30338 1.4499 0
M  V30 7775 H 740.124 -6.56991 1.71872 0
M  V30 7776 H 738.07 -6.53895 -0.525088 0
M  V30 7777 H 737.987 -7.50484 0.911556 0
M  V30 7778 H 739.255 -7.79122 -0.242616 0
M  V30 7779 N 743.484 -0.715051 -1.40445 0
M  V30 7780 C 744.414 -0.0768699 -2.33373 0
M  V30 7781 C 745.395 0.746109 -1.52863 0
M  V30 7782 O 746.58 0.695142 -1.81332 0
M  V30 7783 C 743.71 0.846014 -3.36838 0
M  V30 7784 C 742.664 0.128694 -4.27806 0
M  V30 7785 C 741.99 1.16726 -5.21804 0
M  V30 7786 C 743.29 -1.01679 -5.12307 0
M  V30 7787 H 744.984 -0.853061 -2.8699 0
M  V30 7788 H 742.53 -0.41167 -1.3799 0
M  V30 7789 H 744.483 1.30185 -4.00786 0
M  V30 7790 H 743.207 1.6541 -2.81615 0
M  V30 7791 H 741.866 -0.307314 -3.6531 0
M  V30 7792 H 741.514 1.96838 -4.62887 0
M  V30 7793 H 741.214 0.692188 -5.83509 0
M  V30 7794 H 742.738 1.62321 -5.88629 0
M  V30 7795 H 744.152 -0.640337 -5.69713 0
M  V30 7796 H 742.549 -1.4202 -5.83053 0
M  V30 7797 H 743.619 -1.84769 -4.48317 0
M  V30 7798 N 744.962 1.50701 -0.461195 0
M  V30 7799 C 746.378 1.59187 -0.114786 0
M  V30 7800 C 746.578 1.4702 1.37794 0
M  V30 7801 O 745.634 1.32361 2.15027 0
M  V30 7802 C 746.947 2.93453 -0.656167 0
M  V30 7803 C 748.495 3.06824 -0.618715 0
M  V30 7804 C 748.97 4.4365 -1.13747 0
M  V30 7805 N 750.461 4.50035 -1.09646 0
M  V30 7806 C 751.196 5.54278 -1.46846 0
M  V30 7807 N 750.692 6.65822 -1.91448 0
M  V30 7808 N 752.485 5.44767 -1.38512 0
M  V30 7809 H 744.636 1.56853 -1.43216 0
M  V30 7810 H 746.899 0.740712 -0.59165 0
M  V30 7811 H 746.605 3.07802 -1.7015 0
M  V30 7812 H 746.479 3.77082 -0.0942261 0
M  V30 7813 H 748.866 2.92129 0.417685 0
M  V30 7814 H 748.947 2.24976 -1.21734 0
M  V30 7815 H 748.591 4.59093 -2.17245 0
M  V30 7816 H 748.521 5.24074 -0.515153 0
M  V30 7817 H 751.012 3.69988 -0.769217 0
M  V30 7818 H 751.325 7.41413 -2.18007 0
M  V30 7819 H 749.67 6.66968 -1.95393 0
M  V30 7820 H 752.861 4.56511 -1.03516 0
M  V30 7821 H 753.034 6.25889 -1.6783 0
M  V30 7822 N 746.441 0.193421 1.56409 0
M  V30 7823 C 747.689 -0.444908 1.97142 0
M  V30 7824 C 748.01 -1.62268 1.08139 0
M  V30 7825 O 747.28 -1.95307 0.152326 0
M  V30 7826 H 745.86 -0.16736 0.728011 0
M  V30 7827 H 748.522 0.279763 1.92882 0
M  V30 7828 H 747.618 -0.790159 3.01932 0
M  V30 7829 N 747.919 -1.57396 -0.0801906 0
M  V30 7830 C 749.165 -1.87113 -0.782083 0
M  V30 7831 C 749.498 -0.78458 -1.77646 0
M  V30 7832 O 748.773 0.205993 -1.93406 0
M  V30 7833 C 749.056 -3.27483 -1.49756 0
M  V30 7834 C 748.909 -4.46782 -0.520171 0
M  V30 7835 C 750.228 -3.65965 -2.44454 0
M  V30 7836 H 747.347 -0.680559 -0.282858 0
M  V30 7837 H 749.989 -1.89946 -0.0454139 0
M  V30 7838 H 748.139 -3.25199 -2.12551 0
M  V30 7839 H 749.811 -4.61187 0.101919 0
M  V30 7840 H 748.054 -4.33485 0.165219 0
M  V30 7841 H 748.725 -5.41761 -1.05824 0
M  V30 7842 H 751.201 -3.69289 -1.91742 0
M  V30 7843 H 750.077 -4.65086 -2.91524 0
M  V30 7844 H 750.338 -2.95446 -3.28883 0
M  V30 7845 N 749.397 0.351382 -1.53633 0
M  V30 7846 C 750.327 1.43688 -1.84055 0
M  V30 7847 C 751.308 1.55251 -0.695073 0
M  V30 7848 O 752.493 1.69587 -0.946257 0
M  V30 7849 C 749.623 2.80843 -2.04315 0
M  V30 7850 C 748.577 2.84094 -3.20117 0
M  V30 7851 C 747.903 4.2406 -3.25696 0
M  V30 7852 C 749.203 2.50334 -4.58399 0
M  V30 7853 H 750.897 1.18478 -2.74961 0
M  V30 7854 H 748.443 0.568509 -1.32303 0
M  V30 7855 H 750.396 3.56821 -2.2418 0
M  V30 7856 H 749.12 3.07471 -1.10132 0
M  V30 7857 H 747.779 2.10568 -3.00094 0
M  V30 7858 H 747.427 4.47785 -2.29123 0
M  V30 7859 H 747.127 4.27147 -4.03509 0
M  V30 7860 H 748.651 5.0189 -3.47762 0
M  V30 7861 H 750.065 3.16025 -4.78332 0
M  V30 7862 H 748.462 2.64717 -5.38558 0
M  V30 7863 H 749.532 1.45542 -4.62543 0
M  V30 7864 N 750.875 1.45233 0.611969 0
M  V30 7865 C 751.807 1.49575 1.73666 0
M  V30 7866 C 752.82 0.386987 1.58134 0
M  V30 7867 O 754.009 0.653804 1.66095 0
M  V30 7868 C 751.109 1.33223 3.11617 0
M  V30 7869 C 750.282 2.57694 3.5343 0
M  V30 7870 C 749.341 2.35962 4.70328 0
M  V30 7871 O 748.367 3.09553 4.77667 0
M  V30 7872 N 749.569 1.40243 5.63305 0
M  V30 7873 H 752.334 2.46539 1.70407 0
M  V30 7874 H 749.895 1.40917 0.79712 0
M  V30 7875 H 751.887 1.16502 3.87569 0
M  V30 7876 H 750.457 0.44551 3.09409 0
M  V30 7877 H 749.677 2.8956 2.67486 0
M  V30 7878 H 750.965 3.40441 3.78124 0
M  V30 7879 H 750.363 0.795023 5.60086 0
M  V30 7880 H 748.92 1.29496 6.38807 0
M  V30 7881 N 752.353 -0.854086 1.3245 0
M  V30 7882 C 753.601 -1.60513 1.228 0
M  V30 7883 C 753.922 -1.93865 -0.210073 0
M  V30 7884 O 753.192 -1.59673 -1.13496 0
M  V30 7885 H 751.772 -0.595099 0.451516 0
M  V30 7886 H 754.434 -1.0216 1.6598 0
M  V30 7887 H 753.53 -2.54182 1.81102 0
M  V30 7888 N 753.831 -1.1567 -1.07043 0
M  V30 7889 C 754.781 -0.824733 -2.12561 0
M  V30 7890 C 755.765 0.19243 -1.59745 0
M  V30 7891 O 756.957 -0.00728759 -1.76998 0
M  V30 7892 C 754.086 -0.31921 -3.41813 0
M  V30 7893 C 753.172 -1.36671 -4.01475 0
M  V30 7894 N 753.563 -2.57493 -4.35351 0
M  V30 7895 C 751.861 -1.22018 -4.28984 0
M  V30 7896 C 752.562 -3.24658 -4.82672 0
M  V30 7897 N 751.538 -2.52043 -4.81638 0
M  V30 7898 H 755.34 -1.74363 -2.3659 0
M  V30 7899 H 752.854 -1.04262 -1.24511 0
M  V30 7900 H 754.851 -0.0630216 -4.16852 0
M  V30 7901 H 753.511 0.593708 -3.19226 0
M  V30 7902 H 754.522 -2.94612 -4.25939 0
M  V30 7903 H 751.199 -0.367414 -4.1588 0
M  V30 7904 H 752.589 -4.2775 -5.1815 0
M  V30 7905 N 755.309 1.25446 -0.953992 0
M  V30 7906 C 756.239 2.28264 -0.491717 0
M  V30 7907 C 757.22 1.63717 0.461617 0
M  V30 7908 O 758.405 1.90821 0.36071 0
M  V30 7909 C 755.535 3.46525 0.231915 0
M  V30 7910 C 754.489 4.23247 -0.636098 0
M  V30 7911 C 753.815 5.34254 0.218238 0
M  V30 7912 C 755.115 4.85971 -1.91389 0
M  V30 7913 H 756.809 2.67183 -1.35106 0
M  V30 7914 H 754.355 1.2844 -0.651095 0
M  V30 7915 H 756.308 4.17576 0.566439 0
M  V30 7916 H 755.032 3.06594 1.12551 0
M  V30 7917 H 753.691 3.53978 -0.953696 0
M  V30 7918 H 753.339 4.90564 1.11156 0
M  V30 7919 H 753.039 5.86501 -0.359232 0
M  V30 7920 H 754.563 6.08138 0.547743 0
M  V30 7921 H 755.977 5.49168 -1.64581 0
M  V30 7922 H 754.374 5.48391 -2.43696 0
M  V30 7923 H 755.444 4.08192 -2.61738 0
M  V30 7924 N 756.787 0.722489 1.40064 0
M  V30 7925 C 757.697 0.0755984 2.34478 0
M  V30 7926 C 758.713 -0.736046 1.57665 0
M  V30 7927 O 759.889 -0.667407 1.9002 0
M  V30 7928 C 756.954 -0.830075 3.36616 0
M  V30 7929 C 756.015 -0.00759884 4.29299 0
M  V30 7930 C 755.248 -0.870139 5.26559 0
M  V30 7931 O 755.471 -2.10921 5.2997 0
M  V30 7932 O 754.405 -0.305454 6.01124 0
M  V30 7933 H 758.231 0.854545 2.9143 0
M  V30 7934 H 755.816 0.483032 1.41376 0
M  V30 7935 H 757.698 -1.34864 3.99236 0
M  V30 7936 H 756.373 -1.58805 2.82069 0
M  V30 7937 H 755.28 0.556199 3.69942 0
M  V30 7938 H 756.613 0.712312 4.87018 0
M  V30 7939 N 758.265 -1.50454 0.469181 0
M  V30 7940 C 759.49 -2.0722 -0.0864892 0
M  V30 7941 C 759.915 -1.33098 -1.32916 0
M  V30 7942 O 759.273 -0.378084 -1.77314 0
M  V30 7943 C 759.321 -3.58845 -0.355384 0
M  V30 7944 O 758.425 -3.86583 -1.43622 0
M  V30 7945 H 757.766 -0.663889 0.0121414 0
M  V30 7946 H 760.296 -1.93674 0.659674 0
M  V30 7947 H 760.306 -4.03617 -0.596447 0
M  V30 7948 H 758.981 -4.12211 0.552698 0
M  V30 7949 H 757.558 -3.5365 -1.18262 0
M  V30 7950 N 759.743 -0.201713 -1.56304 0
M  V30 7951 C 760.968 0.443815 -2.02596 0
M  V30 7952 C 761.393 1.53945 -1.08086 0
M  V30 7953 O 760.751 1.81182 -0.0655056 0
M  V30 7954 C 760.799 0.971066 -3.47279 0
M  V30 7955 O 759.903 2.0836 -3.55893 0
M  V30 7956 H 759.244 0.10294 -0.655972 0
M  V30 7957 H 761.774 -0.314533 -2.02168 0
M  V30 7958 H 761.784 1.28598 -3.87204 0
M  V30 7959 H 760.459 0.169048 -4.15556 0
M  V30 7960 H 759.036 1.77683 -3.27846 0
M  V30 7961 N 761.222 1.57436 0.0718424 0
M  V30 7962 C 762.638 1.53792 0.426628 0
M  V30 7963 C 762.838 0.921887 1.79174 0
M  V30 7964 O 761.894 0.524374 2.46995 0
M  V30 7965 C 763.207 2.98443 0.367739 0
M  V30 7966 C 764.755 3.09778 0.447928 0
M  V30 7967 C 765.23 4.5608 0.418946 0
M  V30 7968 N 766.721 4.60716 0.479022 0
M  V30 7969 C 767.456 5.71397 0.47881 0
M  V30 7970 N 766.952 6.91443 0.433417 0
M  V30 7971 N 768.745 5.59639 0.525364 0
M  V30 7972 H 760.896 1.95848 -0.822033 0
M  V30 7973 H 763.159 0.896418 -0.308447 0
M  V30 7974 H 762.865 3.47072 -0.56865 0
M  V30 7975 H 762.739 3.58335 1.17795 0
M  V30 7976 H 765.126 2.61122 1.37474 0
M  V30 7977 H 765.207 2.52796 -0.390857 0
M  V30 7978 H 764.851 5.05393 -0.504016 0
M  V30 7979 H 764.781 5.10925 1.27526 0
M  V30 7980 H 767.272 3.74328 0.518355 0
M  V30 7981 H 767.585 7.71562 0.43718 0
M  V30 7982 H 765.93 6.93847 0.400106 0
M  V30 7983 H 769.121 4.64756 0.558519 0
M  V30 7984 H 769.294 6.45896 0.52173 0
M  V30 7985 N 762.7 -0.34323 1.53817 0
M  V30 7986 C 763.648 -1.44176 1.82527 0
M  V30 7987 C 764.642 -1.54452 0.695772 0
M  V30 7988 O 765.848 -1.57072 0.879114 0
M  V30 7989 H 762.223 -0.480729 0.578277 0
M  V30 7990 H 764.194 -1.17176 2.74431 0
M  V30 7991 C 762.943 -2.80695 2.05197 0
M  V30 7992 H 762.266 -2.73554 2.91561 0
M  V30 7993 H 763.706 -3.56679 2.29251 0
M  V30 7994 C 762.165 -3.26322 0.837589 0
M  V30 7995 O 762.695 -4.01683 0.0371631 0
M  V30 7996 N 760.901 -2.83128 0.654724 0
M  V30 7997 H 760.448 -2.21965 1.30725 0
M  V30 7998 H 760.406 -3.14011 -0.156345 0
M  V30 7999 N 764.178 -1.45556 -0.604258 0
M  V30 8000 C 765.455 -1.40221 -1.36373 0
M  V30 8001 C 765.835 -0.0745195 -2.10968 0
M  V30 8002 O 765.183 0.943594 -2.08107 0
M  V30 8003 C 765.393 -2.61807 -2.30777 0
M  V30 8004 C 766.741 -3.07037 -2.93281 0
M  V30 8005 O 767.765 -2.62203 -2.41097 0
M  V30 8006 O 766.624 -3.8485 -3.88011 0
M  V30 8007 H 763.718 -0.556602 -0.611656 0
M  V30 8008 H 766.264 -1.57689 -0.627069 0
M  V30 8009 H 765.036 -3.50017 -1.74939 0
M  V30 8010 H 764.659 -2.46688 -3.11818 0
M  V30 8011 N 765.656 0.84705 -1.32902 0
M  V30 8012 C 767.067 1.41785 -1.21466 0
M  V30 8013 C 767.418 1.95464 0.169767 0
M  V30 8014 O 766.543 1.88157 1.06892 0
M  V30 8015 C 767.138 2.57734 -2.19906 0
M  V30 8016 C 765.697 3.10791 -2.12334 0
M  V30 8017 C 764.844 1.83562 -2.07847 0
M  V30 8018 H 767.795 0.653532 -1.44619 0
M  V30 8019 H 767.816 3.35123 -1.80202 0
M  V30 8020 H 767.328 2.18635 -3.20656 0
M  V30 8021 H 765.429 3.54455 -1.14858 0
M  V30 8022 H 765.542 3.71519 -3.02506 0
M  V30 8023 H 763.906 2.03475 -1.53199 0
M  V30 8024 H 764.689 1.4667 -3.10392 0
M  V30 8025 N 767.134 1.16236 1.06428 0
M  V30 8026 C 768.381 0.943034 1.79201 0
M  V30 8027 C 768.709 -0.529243 1.87161 0
M  V30 8028 O 767.964 -1.40874 1.35842 0
M  V30 8029 C 768.263 1.51396 3.2375 0
M  V30 8030 C 767.929 3.00833 3.35873 0
M  V30 8031 C 766.591 3.41626 3.38888 0
M  V30 8032 C 768.943 3.96825 3.37904 0
M  V30 8033 C 766.271 4.77033 3.4155 0
M  V30 8034 C 768.623 5.32116 3.42104 0
M  V30 8035 C 767.287 5.72392 3.43401 0
M  V30 8036 H 766.557 0.34508 0.655744 0
M  V30 8037 H 769.204 1.44929 1.25171 0
M  V30 8038 H 767.509 0.929114 3.80624 0
M  V30 8039 H 769.206 1.31996 3.78653 0
M  V30 8040 H 765.796 2.68306 3.3423 0
M  V30 8041 H 769.98 3.66376 3.34787 0
M  V30 8042 H 765.236 5.07569 3.40858 0
M  V30 8043 H 769.41 6.06286 3.42623 0
M  V30 8044 H 767.037 6.77296 3.45216 0
M  V30 8045 N 768.612 -1.24939 0.960631 0
M  V30 8046 C 769.542 -2.28 0.503815 0
M  V30 8047 C 770.523 -1.63959 -0.452928 0
M  V30 8048 O 771.708 -1.91009 -0.350585 0
M  V30 8049 C 768.838 -3.46643 -0.213535 0
M  V30 8050 C 767.792 -4.22903 0.658535 0
M  V30 8051 C 767.118 -5.34363 -0.189902 0
M  V30 8052 C 768.418 -4.84949 1.93963 0
M  V30 8053 H 770.112 -2.66462 1.36521 0
M  V30 8054 H 767.658 -1.28093 0.657897 0
M  V30 8055 H 769.611 -4.1787 -0.544286 0
M  V30 8056 H 768.335 -3.07187 -1.10923 0
M  V30 8057 H 766.994 -3.53467 0.972455 0
M  V30 8058 H 766.642 -4.91147 -1.08553 0
M  V30 8059 H 766.342 -5.86302 0.390331 0
M  V30 8060 H 767.866 -6.0842 -0.515484 0
M  V30 8061 H 769.28 -5.48288 1.67491 0
M  V30 8062 H 767.677 -5.47091 2.46601 0
M  V30 8063 H 768.747 -4.06799 2.639 0
M  V30 8064 N 770.09 -0.729906 -1.39679 0
M  V30 8065 C 771.04 -0.0627678 -2.27914 0
M  V30 8066 C 772.024 0.717867 -1.43998 0
M  V30 8067 O 773.216 0.587713 -1.66958 0
M  V30 8068 C 770.345 0.847564 -3.32673 0
M  V30 8069 C 769.431 0.0613515 -4.24056 0
M  V30 8070 N 769.822 -0.962863 -4.96551 0
M  V30 8071 C 768.12 0.291773 -4.45045 0
M  V30 8072 C 768.821 -1.43652 -5.63683 0
M  V30 8073 N 767.797 -0.756044 -5.38317 0
M  V30 8074 H 771.599 -0.847545 -2.81414 0
M  V30 8075 H 769.113 -0.563776 -1.523 0
M  V30 8076 H 771.11 1.34094 -3.94746 0
M  V30 8077 H 769.77 1.63156 -2.80732 0
M  V30 8078 H 770.781 -1.34409 -5.00154 0
M  V30 8079 H 767.458 1.05097 -4.04056 0
M  V30 8080 H 768.848 -2.28835 -6.31731 0
M  V30 8081 N 771.568 1.50203 -0.477153 0
M  V30 8082 C 772.979 1.86685 -0.0235041 0
M  V30 8083 C 773.33 1.39148 1.38319 0
M  V30 8084 O 772.455 0.759051 2.02651 0
M  V30 8085 C 773.05 3.38781 -0.0358767 0
M  V30 8086 C 771.609 3.74652 0.362327 0
M  V30 8087 C 770.756 2.7412 -0.41875 0
M  V30 8088 H 773.707 1.4286 -0.691133 0
M  V30 8089 H 773.728 3.72732 0.764924 0
M  V30 8090 H 773.24 3.73349 -1.05981 0
M  V30 8091 H 771.341 3.45686 1.39039 0
M  V30 8092 H 771.454 4.79063 0.059457 0
M  V30 8093 H 769.818 2.54376 0.128341 0
M  V30 8094 H 770.601 3.11532 -1.44231 0
M  V30 8095 N 773.046 0.209999 1.56195 0
M  V30 8096 C 774.323 -0.473214 1.89789 0
M  V30 8097 C 774.703 -1.78581 1.1257 0
M  V30 8098 O 774.051 -2.27325 0.231398 0
M  V30 8099 C 774.261 -0.677458 3.42362 0
M  V30 8100 C 775.609 -0.990114 4.12895 0
M  V30 8101 O 776.633 -0.764655 3.47896 0
M  V30 8102 O 775.492 -1.41737 5.278 0
M  V30 8103 H 772.586 -0.248622 0.788743 0
M  V30 8104 H 775.132 0.251324 1.67829 0
M  V30 8105 H 773.904 0.248878 3.90508 0
M  V30 8106 H 773.527 -1.45391 3.70064 0
M  V30 8107 N 774.524 -1.57472 -0.0634922 0
M  V30 8108 C 775.771 -1.87654 -0.761066 0
M  V30 8109 C 776.099 -0.802847 -1.77157 0
M  V30 8110 O 775.354 0.200244 -1.94673 0
M  V30 8111 C 775.653 -3.24521 -1.49736 0
M  V30 8112 C 775.319 -4.46532 -0.626065 0
M  V30 8113 C 773.981 -4.7965 -0.385978 0
M  V30 8114 C 776.333 -5.21195 -0.0224001 0
M  V30 8115 C 773.661 -5.84837 0.467118 0
M  V30 8116 C 776.013 -6.27286 0.818198 0
M  V30 8117 C 774.677 -6.58899 1.06808 0
M  V30 8118 H 773.947 -0.686675 -0.278494 0
M  V30 8119 H 776.594 -1.91488 -0.0216348 0
M  V30 8120 H 774.899 -3.16516 -2.30921 0
M  V30 8121 H 776.596 -3.45111 -2.04204 0
M  V30 8122 H 773.186 -4.20618 -0.823325 0
M  V30 8123 H 777.37 -4.95917 -0.194985 0
M  V30 8124 H 772.626 -6.07725 0.669375 0
M  V30 8125 H 776.8 -6.84298 1.29265 0
M  V30 8126 H 774.427 -7.40233 1.73088 0
M  V30 8127 N 776.003 0.335068 -1.53997 0
M  V30 8128 C 777.243 1.0827 -1.7337 0
M  V30 8129 C 777.607 1.85618 -0.490913 0
M  V30 8130 O 778.808 2.62864 -0.561799 0
M  V30 8131 C 777.079 1.99212 -2.96731 0
M  V30 8132 S 778.638 2.81083 -3.36954 0
M  V30 8133 H 775.456 0.365698 -0.609743 0
M  V30 8134 H 778.058 0.360079 -1.92155 0
M  V30 8135 H 776.762 1.41204 -3.85344 0
M  V30 8136 H 776.293 2.75898 -2.80436 0
M  V30 8137 H 778.308 4.01657 -2.91352 0
M  V30 8138 N 777.481 1.45874 0.596531 0
M  V30 8139 C 778.721 1.52015 1.36641 0
M  V30 8140 C 779.085 0.16226 1.91313 0
M  V30 8141 O 780.286 0.0983889 2.6862 0
M  V30 8142 C 778.557 2.57776 2.4756 0
M  V30 8143 S 780.116 2.83223 3.35157 0
M  V30 8144 H 776.934 0.537251 0.465706 0
M  V30 8145 H 779.536 1.83024 0.687205 0
M  V30 8146 H 778.24 3.55091 2.05764 0
M  V30 8147 H 777.771 2.28455 3.20269 0
M  V30 8148 H 779.786 2.17442 4.4602 0
M  V30 8149 N 778.959 -0.83999 1.33349 0
M  V30 8150 C 779.889 -1.965 1.26135 0
M  V30 8151 C 780.87 -1.69505 0.142152 0
M  V30 8152 O 782.055 -1.91346 0.331743 0
M  V30 8153 C 779.185 -3.32632 0.99866 0
M  V30 8154 C 778.139 -3.74021 2.08068 0
M  V30 8155 C 777.465 -5.07947 1.67014 0
M  V30 8156 C 778.765 -3.87925 3.49731 0
M  V30 8157 H 780.459 -2.02793 2.20262 0
M  V30 8158 H 778.005 -0.974297 1.06035 0
M  V30 8159 H 779.958 -4.10903 0.934696 0
M  V30 8160 H 778.682 -3.26593 0.0217759 0
M  V30 8161 H 777.341 -2.98012 2.13505 0
M  V30 8162 H 776.989 -4.98378 0.680316 0
M  V30 8163 H 776.689 -5.36611 2.39422 0
M  V30 8164 H 778.213 -5.88695 1.62082 0
M  V30 8165 H 779.627 -4.5651 3.46802 0
M  V30 8166 H 778.024 -4.28023 4.20614 0
M  V30 8167 H 779.094 -2.90407 3.88319 0
M  V30 8168 N 780.437 -1.16799 -1.0581 0
M  V30 8169 C 781.367 -0.902241 -2.15364 0
M  V30 8170 C 782.348 0.153351 -1.69407 0
M  V30 8171 O 783.533 0.00442032 -1.94199 0
M  V30 8172 C 780.663 -0.407911 -3.44896 0
M  V30 8173 C 779.617 -1.40197 -4.04387 0
M  V30 8174 C 778.943 -0.765848 -5.29187 0
M  V30 8175 C 780.243 -2.77316 -4.42598 0
M  V30 8176 H 781.937 -1.81841 -2.37853 0
M  V30 8177 H 779.483 -0.875731 -1.14311 0
M  V30 8178 H 781.436 -0.20945 -4.20879 0
M  V30 8179 H 780.16 0.54378 -3.22041 0
M  V30 8180 H 778.819 -1.58707 -3.30466 0
M  V30 8181 H 778.467 0.192482 -5.02632 0
M  V30 8182 H 778.167 -1.42939 -5.69949 0
M  V30 8183 H 779.691 -0.577519 -6.07863 0
M  V30 8184 H 781.105 -2.62561 -5.09642 0
M  V30 8185 H 779.502 -3.4019 -4.94359 0
M  V30 8186 H 780.572 -3.32199 -3.53231 0
M  V30 8187 N 781.915 1.24427 -0.967243 0
M  V30 8188 C 783.326 1.74349 -0.667785 0
M  V30 8189 C 783.677 1.78403 0.816509 0
M  V30 8190 O 782.802 1.41315 1.63887 0
M  V30 8191 C 783.397 3.16628 -1.20548 0
M  V30 8192 C 781.956 3.64059 -0.955934 0
M  V30 8193 C 781.103 2.42715 -1.34106 0
M  V30 8194 H 784.054 1.10136 -1.14262 0
M  V30 8195 H 784.075 3.76183 -0.571547 0
M  V30 8196 H 783.587 3.13646 -2.28578 0
M  V30 8197 H 781.688 3.72441 0.108858 0
M  V30 8198 H 781.801 4.51549 -1.60126 0
M  V30 8199 H 780.165 2.43114 -0.759452 0
M  V30 8200 H 780.948 2.42414 -2.43085 0
M  V30 8201 N 783.393 0.737304 1.3929 0
M  V30 8202 C 784.323 0.113988 2.33222 0
M  V30 8203 C 785.304 -0.721695 1.54031 0
M  V30 8204 O 786.489 -0.666206 1.82415 0
M  V30 8205 C 783.619 -0.792319 3.38141 0
M  V30 8206 C 782.573 -0.0606178 4.27957 0
M  V30 8207 C 781.899 -1.08409 5.23595 0
M  V30 8208 C 783.199 1.09817 5.10625 0
M  V30 8209 H 784.893 0.898611 2.85596 0
M  V30 8210 H 782.439 0.433571 1.37318 0
M  V30 8211 H 784.392 -1.23793 4.02807 0
M  V30 8212 H 783.116 -1.60908 2.84211 0
M  V30 8213 H 781.775 0.365393 3.64775 0
M  V30 8214 H 781.423 -1.89449 4.6596 0
M  V30 8215 H 781.123 -0.599269 5.84536 0
M  V30 8216 H 782.647 -1.52936 5.91137 0
M  V30 8217 H 784.061 0.730892 5.68622 0
M  V30 8218 H 782.458 1.51278 5.80719 0
M  V30 8219 H 783.528 1.91878 4.45321 0
M  V30 8220 N 784.871 -1.49948 0.485112 0
M  V30 8221 C 786.119 -2.01996 -0.0648775 0
M  V30 8222 C 786.44 -1.36819 -1.38945 0
M  V30 8223 O 785.71 -0.518163 -1.88923 0
M  V30 8224 H 784.29 -0.746513 -0.0269662 0
M  V30 8225 H 786.952 -1.84136 0.638733 0
M  V30 8226 H 786.048 -3.11418 -0.20617 0
M  V30 8227 N 786.349 -0.21828 -1.56081 0
M  V30 8228 C 787.596 0.414307 -1.98216 0
M  V30 8229 C 787.924 1.60005 -1.10584 0
M  V30 8230 O 787.179 1.95124 -0.150043 0
M  V30 8231 C 787.478 0.894782 -3.46018 0
M  V30 8232 C 787.144 -0.180083 -4.5054 0
M  V30 8233 C 785.806 -0.475367 -4.78846 0
M  V30 8234 C 788.158 -0.907191 -5.13244 0
M  V30 8235 C 785.486 -1.50233 -5.67139 0
M  V30 8236 C 787.838 -1.92347 -6.02649 0
M  V30 8237 C 786.502 -2.22571 -6.293 0
M  V30 8238 H 785.772 0.151606 -0.725325 0
M  V30 8239 H 788.419 -0.320113 -1.88806 0
M  V30 8240 H 786.724 1.7079 -3.52616 0
M  V30 8241 H 788.421 1.39403 -3.75989 0
M  V30 8242 H 785.011 0.06022 -4.28558 0
M  V30 8243 H 789.195 -0.692303 -4.91448 0
M  V30 8244 H 784.451 -1.74215 -5.86054 0
M  V30 8245 H 788.625 -2.49197 -6.50288 0
M  V30 8246 H 786.252 -3.0229 -6.97513 0
M  V30 8247 N 787.827 1.57504 0.0551401 0
M  V30 8248 C 789.057 1.92015 0.762472 0
M  V30 8249 C 789.465 0.814088 1.7079 0
M  V30 8250 O 788.808 -0.220273 1.82375 0
M  V30 8251 C 788.87 3.22132 1.59598 0
M  V30 8252 C 788.534 4.49617 0.818141 0
M  V30 8253 C 789.531 5.19738 0.129933 0
M  V30 8254 C 787.216 4.96201 0.780387 0
M  V30 8255 C 789.21 6.34704 -0.585616 0
M  V30 8256 C 786.897 6.11069 0.0610756 0
M  V30 8257 C 787.895 6.80174 -0.62071 0
M  V30 8258 O 787.583 7.92849 -1.3284 0
M  V30 8259 H 787.315 0.638866 0.220967 0
M  V30 8260 H 789.869 2.05385 0.0246362 0
M  V30 8261 H 788.099 3.05016 2.37701 0
M  V30 8262 H 789.788 3.42166 2.18351 0
M  V30 8263 H 790.554 4.84767 0.150299 0
M  V30 8264 H 786.433 4.42275 1.30054 0
M  V30 8265 H 789.977 6.88578 -1.11833 0
M  V30 8266 H 785.874 6.45488 0.0386945 0
M  V30 8267 H 786.642 8.09062 -1.23938 0
M  V30 8268 N 789.305 -0.326896 1.54172 0
M  V30 8269 C 790.551 -1.06681 1.72473 0
M  V30 8270 C 790.884 -1.87779 0.49523 0
M  V30 8271 O 790.159 -1.87754 -0.507803 0
M  V30 8272 C 790.442 -1.99429 2.99834 0
M  V30 8273 C 790.295 -1.21682 4.33028 0
M  V30 8274 C 791.614 -2.99002 3.22933 0
M  V30 8275 H 788.733 -0.386438 0.627563 0
M  V30 8276 H 791.375 -0.343779 1.86864 0
M  V30 8277 H 789.525 -2.61081 2.87696 0
M  V30 8278 H 791.197 -0.625153 4.57044 0
M  V30 8279 H 789.44 -0.519045 4.30684 0
M  V30 8280 H 790.111 -1.89766 5.18356 0
M  V30 8281 H 792.587 -2.4747 3.34511 0
M  V30 8282 H 791.463 -3.61085 4.13412 0
M  V30 8283 H 791.724 -3.71281 2.40006 0
M  V30 8284 N 790.784 -1.46188 -0.588786 0
M  V30 8285 C 791.714 -1.59148 -1.70863 0
M  V30 8286 C 792.695 -0.442083 -1.64255 0
M  V30 8287 O 793.88 -0.667575 -1.82365 0
M  V30 8288 C 791.01 -1.5757 -3.09498 0
M  V30 8289 C 789.964 -2.71418 -3.30932 0
M  V30 8290 C 789.29 -2.549 -4.70032 0
M  V30 8291 C 790.59 -4.1329 -3.19356 0
M  V30 8292 H 792.284 -2.52889 -1.60274 0
M  V30 8293 H 789.83 -1.21707 -0.769638 0
M  V30 8294 H 791.783 -1.65231 -3.87655 0
M  V30 8295 H 790.507 -0.603705 -3.20972 0
M  V30 8296 H 789.166 -2.63216 -2.55172 0
M  V30 8297 H 788.814 -1.55797 -4.78264 0
M  V30 8298 H 788.514 -3.31257 -4.85327 0
M  V30 8299 H 790.038 -2.64443 -5.50366 0
M  V30 8300 H 791.452 -4.22636 -3.87365 0
M  V30 8301 H 789.849 -4.90187 -3.46175 0
M  V30 8302 H 790.919 -4.33874 -2.16522 0
M  V30 8303 N 792.262 0.832906 -1.33792 0
M  V30 8304 C 793.51 1.58539 -1.25338 0
M  V30 8305 C 793.831 1.94175 0.179204 0
M  V30 8306 O 793.101 1.61458 1.10941 0
M  V30 8307 H 791.681 0.58784 -0.460926 0
M  V30 8308 H 794.343 0.995064 -1.67584 0
M  V30 8309 H 793.439 2.51268 -1.85123 0
M  V30 8310 N 793.74 1.17359 1.05189 0
M  V30 8311 C 794.67 0.91365 2.14883 0
M  V30 8312 C 795.651 -0.144365 1.69486 0
M  V30 8313 O 796.836 0.00587861 1.94199 0
M  V30 8314 C 793.966 0.426196 3.44675 0
M  V30 8315 C 792.92 1.4234 4.03638 0
M  V30 8316 C 792.246 0.793902 5.28773 0
M  V30 8317 C 793.546 2.7966 4.41121 0
M  V30 8318 H 795.24 1.831 2.36885 0
M  V30 8319 H 792.786 0.881781 1.13845 0
M  V30 8320 H 794.739 0.231767 4.20762 0
M  V30 8321 H 793.463 -0.526693 3.22325 0
M  V30 8322 H 792.122 1.60457 3.2962 0
M  V30 8323 H 791.77 -0.165824 5.02727 0
M  V30 8324 H 791.47 1.45959 5.69183 0
M  V30 8325 H 792.994 0.609747 6.07548 0
M  V30 8326 H 794.408 2.6526 5.08242 0
M  V30 8327 H 792.805 3.42807 4.92548 0
M  V30 8328 H 793.875 3.34068 3.51464 0
M  V30 8329 N 795.218 -1.23913 0.973828 0
M  V30 8330 C 796.465 -1.92151 0.639079 0
M  V30 8331 C 796.793 -1.76064 -0.826545 0
M  V30 8332 O 796.048 -1.11126 -1.61088 0
M  V30 8333 C 796.347 -3.4406 0.967356 0
M  V30 8334 C 796.013 -3.80321 2.42212 0
M  V30 8335 C 794.675 -3.8993 2.81971 0
M  V30 8336 C 797.027 -3.97935 3.36596 0
M  V30 8337 C 794.355 -4.14575 4.15144 0
M  V30 8338 C 796.707 -4.24079 4.69404 0
M  V30 8339 C 795.371 -4.31908 5.08932 0
M  V30 8340 H 794.641 -0.70313 0.233856 0
M  V30 8341 H 797.288 -1.47072 1.22646 0
M  V30 8342 H 795.593 -3.90667 0.297807 0
M  V30 8343 H 797.29 -3.95077 0.686654 0
M  V30 8344 H 793.88 -3.73411 2.10385 0
M  V30 8345 H 798.064 -3.89908 3.07059 0
M  V30 8346 H 793.32 -4.18858 4.45385 0
M  V30 8347 H 797.494 -4.36652 5.42502 0
M  V30 8348 H 795.121 -4.50758 6.12145 0
M  V30 8349 N 796.696 -0.74468 -1.38897 0
M  V30 8350 C 797.942 -0.306249 -2.01081 0
M  V30 8351 C 798.297 1.09724 -1.58046 0
M  V30 8352 O 797.59 1.73923 -0.803834 0
M  V30 8353 C 797.784 -0.357302 -3.55609 0
M  V30 8354 C 797.613 -1.76421 -4.13649 0
M  V30 8355 C 796.383 -2.3787 -4.4581 0
M  V30 8356 C 798.581 -2.71942 -4.36523 0
M  V30 8357 N 796.563 -3.70614 -4.89406 0
M  V30 8358 C 797.934 -3.89437 -4.8243 0
M  V30 8359 C 799.989 -2.69579 -4.18607 0
M  V30 8360 C 798.692 -5.04917 -5.123 0
M  V30 8361 C 800.718 -3.8421 -4.49596 0
M  V30 8362 C 800.08 -5.00442 -4.95719 0
M  V30 8363 H 796.179 -0.158531 -0.765762 0
M  V30 8364 H 798.763 -0.972726 -1.6866 0
M  V30 8365 H 796.934 0.278865 -3.87398 0
M  V30 8366 H 798.666 0.100599 -4.04575 0
M  V30 8367 H 795.421 -1.8971 -4.33943 0
M  V30 8368 H 795.845 -4.38791 -5.1555 0
M  V30 8369 H 800.487 -1.80905 -3.82143 0
M  V30 8370 H 798.205 -5.94213 -5.47665 0
M  V30 8371 H 801.791 -3.83691 -4.37347 0
M  V30 8372 H 800.671 -5.87671 -5.19242 0
M  V30 8373 N 798.174 1.49689 -0.493057 0
M  V30 8374 C 799.104 2.31826 0.279073 0
M  V30 8375 C 800.085 1.39733 0.969987 0
M  V30 8376 O 801.27 1.68646 0.962925 0
M  V30 8377 C 798.4 3.20046 1.34862 0
M  V30 8378 C 797.354 4.20869 0.77805 0
M  V30 8379 C 796.68 4.97971 1.94753 0
M  V30 8380 C 797.98 5.21813 -0.225543 0
M  V30 8381 H 799.674 2.96627 -0.406512 0
M  V30 8382 H 797.22 1.42647 -0.196943 0
M  V30 8383 H 799.173 3.76315 1.89645 0
M  V30 8384 H 797.897 2.53172 2.06328 0
M  V30 8385 H 796.556 3.65733 0.252036 0
M  V30 8386 H 796.204 4.27552 2.64969 0
M  V30 8387 H 795.904 5.66186 1.57187 0
M  V30 8388 H 797.428 5.57082 2.49984 0
M  V30 8389 H 798.842 5.72823 0.233864 0
M  V30 8390 H 797.239 5.97872 -0.516622 0
M  V30 8391 H 798.309 4.71209 -1.14412 0
M  V30 8392 N 799.652 0.226554 1.55963 0
M  V30 8393 C 800.582 -0.676079 2.23498 0
M  V30 8394 C 801.563 -1.19718 1.20837 0
M  V30 8395 O 802.748 -1.24027 1.49436 0
M  V30 8396 C 799.878 -1.88217 2.91876 0
M  V30 8397 C 798.832 -1.4947 4.01052 0
M  V30 8398 C 798.158 -2.77997 4.56751 0
M  V30 8399 C 799.458 -0.680951 5.17842 0
M  V30 8400 H 801.152 -0.112989 2.99187 0
M  V30 8401 H 798.698 -0.0529046 1.43903 0
M  V30 8402 H 800.651 -2.51911 3.37815 0
M  V30 8403 H 799.375 -2.47031 2.13643 0
M  V30 8404 H 798.034 -0.881199 3.55852 0
M  V30 8405 H 797.682 -3.34966 3.75243 0
M  V30 8406 H 797.382 -2.52803 5.30438 0
M  V30 8407 H 798.906 -3.42625 5.05411 0
M  V30 8408 H 800.32 -1.22171 5.60131 0
M  V30 8409 H 798.717 -0.525898 5.97791 0
M  V30 8410 H 799.787 0.311346 4.83899 0
M  V30 8411 N 801.13 -1.57531 -0.0467866 0
M  V30 8412 C 802.377 -1.88451 -0.74112 0
M  V30 8413 C 802.705 -0.821592 -1.76296 0
M  V30 8414 O 801.96 0.179585 -1.94874 0
M  V30 8415 C 802.259 -3.26091 -1.46285 0
M  V30 8416 C 801.925 -4.47171 -0.578669 0
M  V30 8417 C 800.587 -4.80032 -0.335083 0
M  V30 8418 C 802.939 -5.2119 0.0328809 0
M  V30 8419 C 800.267 -5.84309 0.529121 0
M  V30 8420 C 802.619 -6.26383 0.884684 0
M  V30 8421 C 801.283 -6.57729 1.1379 0
M  V30 8422 H 800.553 -0.68959 -0.271195 0
M  V30 8423 H 803.2 -1.915 -0.00132378 0
M  V30 8424 H 801.505 -3.18948 -2.27551 0
M  V30 8425 H 803.202 -3.47258 -2.00532 0
M  V30 8426 H 799.792 -4.21467 -0.778666 0
M  V30 8427 H 803.976 -4.96096 -0.142375 0
M  V30 8428 H 799.232 -6.06981 0.733794 0
M  V30 8429 H 803.406 -6.82888 1.36516 0
M  V30 8430 H 801.033 -7.38355 1.80929 0
M  V30 8431 N 802.608 0.318715 -1.54344 0
M  V30 8432 C 803.571 1.37545 -1.83342 0
M  V30 8433 C 804.571 1.445 -0.705444 0
M  V30 8434 O 805.761 1.44443 -0.973752 0
M  V30 8435 C 802.893 2.76225 -1.99781 0
M  V30 8436 H 804.086 1.13084 -2.77762 0
M  V30 8437 H 801.639 0.554457 -1.46135 0
M  V30 8438 H 802.374 3.05934 -1.07588 0
M  V30 8439 H 802.159 2.7257 -2.81865 0
M  V30 8440 H 803.649 3.52664 -2.23647 0
M  V30 8441 N 804.086 1.46499 0.581025 0
M  V30 8442 C 805.311 1.55708 1.37002 0
M  V30 8443 C 805.736 0.19942 1.8704 0
M  V30 8444 O 805.094 -0.820731 1.61659 0
M  V30 8445 C 805.142 2.56716 2.53238 0
M  V30 8446 O 804.246 2.10336 3.54729 0
M  V30 8447 H 803.587 0.523912 0.407937 0
M  V30 8448 H 806.117 1.92085 0.704602 0
M  V30 8449 H 806.127 2.76378 3.00132 0
M  V30 8450 H 804.802 3.55307 2.16171 0
M  V30 8451 H 803.379 2.00669 3.14303 0
M  V30 8452 N 805.565 -0.825799 1.34232 0
M  V30 8453 C 806.811 -1.58419 1.26614 0
M  V30 8454 C 807.144 -1.93503 -0.164341 0
M  V30 8455 O 806.419 -1.59785 -1.109 0
M  V30 8456 C 806.702 -2.8856 2.15418 0
M  V30 8457 C 806.555 -2.60075 3.66989 0
M  V30 8458 C 807.874 -3.90107 2.03726 0
M  V30 8459 H 804.993 -0.574794 0.461282 0
M  V30 8460 H 807.635 -0.951519 1.64457 0
M  V30 8461 H 805.785 -3.42553 1.83275 0
M  V30 8462 H 807.457 -2.12414 4.09485 0
M  V30 8463 H 805.7 -1.93565 3.88221 0
M  V30 8464 H 806.371 -3.52866 4.24488 0
M  V30 8465 H 808.847 -3.45459 2.31942 0
M  V30 8466 H 807.723 -4.78976 2.68092 0
M  V30 8467 H 807.984 -4.30329 1.01337 0
M  V30 8468 N 807.043 -1.17915 -1.04565 0
M  V30 8469 C 808.289 -0.972863 -1.77942 0
M  V30 8470 C 808.622 0.496753 -1.87739 0
M  V30 8471 O 807.897 1.3688 -1.38181 0
M  V30 8472 C 808.18 -1.62227 -3.21488 0
M  V30 8473 C 808.033 -3.16441 -3.19664 0
M  V30 8474 C 809.352 -1.33137 -4.19479 0
M  V30 8475 H 806.471 -0.354843 -0.645953 0
M  V30 8476 H 809.113 -1.45508 -1.22178 0
M  V30 8477 H 807.263 -1.21224 -3.69103 0
M  V30 8478 H 808.935 -3.66544 -2.80077 0
M  V30 8479 H 807.178 -3.48863 -2.57832 0
M  V30 8480 H 807.849 -3.57012 -4.21006 0
M  V30 8481 H 810.325 -1.68654 -3.80388 0
M  V30 8482 H 809.201 -1.81151 -5.18146 0
M  V30 8483 H 809.462 -0.253319 -4.41374 0
M  V30 8484 N 808.521 1.23394 -0.980386 0
M  V30 8485 C 809.451 2.2717 -0.540024 0
M  V30 8486 C 810.432 1.64659 0.426787 0
M  V30 8487 O 811.617 1.91543 0.320153 0
M  V30 8488 C 808.747 3.46939 0.15836 0
M  V30 8489 C 807.701 4.21802 -0.725732 0
M  V30 8490 C 807.027 5.34597 0.104866 0
M  V30 8491 C 808.327 4.81802 -2.01654 0
M  V30 8492 H 810.021 2.64257 -1.40743 0
M  V30 8493 H 807.567 1.2703 -0.678193 0
M  V30 8494 H 809.52 4.18683 0.477737 0
M  V30 8495 H 808.244 3.08912 1.06022 0
M  V30 8496 H 806.903 3.51875 -1.02857 0
M  V30 8497 H 806.551 4.92812 1.00726 0
M  V30 8498 H 806.251 5.85607 -0.483557 0
M  V30 8499 H 807.775 6.09163 0.418624 0
M  V30 8500 H 809.189 5.45554 -1.76193 0
M  V30 8501 H 807.586 5.43098 -2.55273 0
M  V30 8502 H 808.656 4.02549 -2.70338 0
M  V30 8503 N 809.999 0.752036 1.385 0
M  V30 8504 C 811.248 0.304294 1.99391 0
M  V30 8505 C 811.561 -1.11982 1.60373 0
M  V30 8506 O 812.767 -1.66795 2.14223 0
M  V30 8507 C 811.223 0.493101 3.56506 0
M  V30 8508 C 810.831 1.9262 4.04477 0
M  V30 8509 C 812.575 0.107994 4.24363 0
M  V30 8510 C 810.482 2.06365 5.54227 0
M  V30 8511 H 809.412 0.110024 0.745929 0
M  V30 8512 H 812.063 0.928355 1.58284 0
M  V30 8513 H 810.445 -0.20012 3.95494 0
M  V30 8514 H 811.619 2.65276 3.76783 0
M  V30 8515 H 809.934 2.26608 3.49339 0
M  V30 8516 H 812.531 0.189474 5.34364 0
M  V30 8517 H 812.874 -0.939165 4.05568 0
M  V30 8518 H 813.407 0.753011 3.90608 0
M  V30 8519 H 810.146 3.0933 5.77923 0
M  V30 8520 H 809.666 1.38167 5.83669 0
M  V30 8521 H 811.345 1.85286 6.19902 0
M  V30 8522 N 811.477 -1.49425 0.500989 0
M  V30 8523 C 812.407 -2.31971 -0.266775 0
M  V30 8524 C 813.388 -1.40245 -0.962563 0
M  V30 8525 O 814.573 -1.69154 -0.953968 0
M  V30 8526 C 811.703 -3.20757 -1.33163 0
M  V30 8527 C 810.657 -4.21275 -0.75572 0
M  V30 8528 C 809.983 -4.98997 -1.92109 0
M  V30 8529 C 811.283 -5.21686 0.253213 0
M  V30 8530 H 812.977 -2.96408 0.422237 0
M  V30 8531 H 810.523 -1.4254 0.204505 0
M  V30 8532 H 812.476 -3.77315 -1.87646 0
M  V30 8533 H 811.2 -2.54263 -2.04983 0
M  V30 8534 H 809.859 -3.65861 -0.232637 0
M  V30 8535 H 809.507 -4.28951 -2.62698 0
M  V30 8536 H 809.207 -5.67011 -1.54182 0
M  V30 8537 H 810.731 -5.584 -2.47026 0
M  V30 8538 H 812.145 -5.72939 -0.203483 0
M  V30 8539 H 810.542 -5.9759 0.548322 0
M  V30 8540 H 811.612 -4.70596 1.16909 0
M  V30 8541 N 812.955 -0.234822 -1.55841 0
M  V30 8542 C 813.885 0.664217 -2.23854 0
M  V30 8543 C 814.866 1.19076 -1.2147 0
M  V30 8544 O 816.051 1.23232 -1.50091 0
M  V30 8545 C 813.181 1.86666 -2.9287 0
M  V30 8546 C 812.135 1.47341 -4.01839 0
M  V30 8547 C 811.461 2.75571 -4.58219 0
M  V30 8548 C 812.761 0.653479 -5.18196 0
M  V30 8549 H 814.455 0.0971213 -2.99242 0
M  V30 8550 H 812.001 0.0452724 -1.43929 0
M  V30 8551 H 813.954 2.50116 -3.39146 0
M  V30 8552 H 812.678 2.45894 -2.1495 0
M  V30 8553 H 811.337 0.862314 -3.56314 0
M  V30 8554 H 810.985 3.32971 -3.77014 0
M  V30 8555 H 810.685 2.49987 -5.31771 0
M  V30 8556 H 812.209 3.39939 -5.07221 0
M  V30 8557 H 813.623 1.19198 -5.60771 0
M  V30 8558 H 812.02 0.494188 -5.98062 0
M  V30 8559 H 813.09 -0.337004 -4.83728 0
M  V30 8560 N 814.433 1.57553 0.0384317 0
M  V30 8561 C 815.363 2.0898 1.04161 0
M  V30 8562 C 816.344 0.99029 1.38301 0
M  V30 8563 O 817.529 1.26499 1.47349 0
M  V30 8564 C 814.659 2.56145 2.34536 0
M  V30 8565 C 813.613 3.70275 2.14663 0
M  V30 8566 C 812.939 4.03612 3.50715 0
M  V30 8567 C 814.239 4.99067 1.54045 0
M  V30 8568 H 815.933 2.93046 0.613548 0
M  V30 8569 H 813.479 1.40973 0.293684 0
M  V30 8570 H 815.432 2.90741 3.05037 0
M  V30 8571 H 814.156 1.6915 2.79385 0
M  V30 8572 H 812.815 3.36013 1.46597 0
M  V30 8573 H 812.463 3.13698 3.93195 0
M  V30 8574 H 812.163 4.80482 3.38247 0
M  V30 8575 H 813.687 4.40735 4.22593 0
M  V30 8576 H 815.101 5.3168 2.14451 0
M  V30 8577 H 813.498 5.80484 1.52178 0
M  V30 8578 H 814.568 4.8226 0.505259 0
M  V30 8579 N 815.911 -0.310526 1.54511 0
M  V30 8580 C 817.136 -1.07046 1.7764 0
M  V30 8581 C 817.561 -1.80488 0.529696 0
M  V30 8582 O 816.919 -1.73702 -0.519361 0
M  V30 8583 C 816.967 -2.03411 2.97752 0
M  V30 8584 O 816.071 -3.11545 2.7021 0
M  V30 8585 H 815.412 -0.307994 0.588248 0
M  V30 8586 H 817.942 -0.350848 2.01569 0
M  V30 8587 H 817.952 -2.46048 3.2546 0
M  V30 8588 H 816.627 -1.49361 3.88155 0
M  V30 8589 H 815.204 -2.7349 2.53491 0
M  V30 8590 N 817.389 -1.46805 -0.573248 0
M  V30 8591 C 818.635 -1.53816 -1.33088 0
M  V30 8592 C 818.99 -0.191162 -1.91448 0
M  V30 8593 O 818.283 0.801299 -1.7404 0
M  V30 8594 C 818.477 -2.58001 -2.47326 0
M  V30 8595 C 818.306 -4.027 -2.00157 0
M  V30 8596 C 817.076 -4.70319 -1.84737 0
M  V30 8597 C 819.274 -4.90211 -1.55557 0
M  V30 8598 N 817.256 -5.99598 -1.31739 0
M  V30 8599 C 818.627 -6.09389 -1.14215 0
M  V30 8600 C 820.682 -4.76784 -1.43461 0
M  V30 8601 C 819.385 -7.16625 -0.619809 0
M  V30 8602 C 821.411 -5.84101 -0.926297 0
M  V30 8603 C 820.773 -7.02458 -0.522715 0
M  V30 8604 H 816.872 -0.617642 -0.479627 0
M  V30 8605 H 819.456 -1.83471 -0.65164 0
M  V30 8606 H 817.627 -2.3024 -3.128 0
M  V30 8607 H 819.359 -2.54951 -3.14296 0
M  V30 8608 H 816.114 -4.25982 -2.06969 0
M  V30 8609 H 816.538 -6.68431 -1.07374 0
M  V30 8610 H 821.18 -3.85661 -1.73279 0
M  V30 8611 H 818.898 -8.07508 -0.309228 0
M  V30 8612 H 822.484 -5.75755 -0.836485 0
M  V30 8613 H 821.364 -7.84083 -0.135467 0
M  V30 8614 N 818.867 0.818669 -1.34668 0
M  V30 8615 C 820.113 1.57746 -1.27453 0
M  V30 8616 C 820.446 1.93588 0.154077 0
M  V30 8617 O 819.721 1.60371 1.10051 0
M  V30 8618 C 820.004 2.87414 -2.16945 0
M  V30 8619 C 819.857 2.58125 -3.68363 0
M  V30 8620 C 821.176 3.89021 -2.05792 0
M  V30 8621 H 818.295 0.572339 -0.464324 0
M  V30 8622 H 820.937 0.942784 -1.64959 0
M  V30 8623 H 819.087 3.41576 -1.85089 0
M  V30 8624 H 820.759 2.10239 -4.10606 0
M  V30 8625 H 819.002 1.91503 -3.89242 0
M  V30 8626 H 819.673 3.5061 -4.26353 0
M  V30 8627 H 822.149 3.44224 -2.33771 0
M  V30 8628 H 821.025 4.77548 -2.70628 0
M  V30 8629 H 821.286 4.29786 -1.03618 0
M  V30 8630 N 820.346 1.18468 1.03938 0
M  V30 8631 C 821.594 0.978895 1.76811 0
M  V30 8632 C 821.915 -0.49257 1.88676 0
M  V30 8633 O 821.185 -1.3572 1.41269 0
M  V30 8634 H 819.765 0.359201 0.654968 0
M  V30 8635 H 822.427 1.49173 1.25433 0
M  V30 8636 H 821.523 1.418 2.78027 0
M  V30 8637 N 821.824 -1.22873 0.986916 0
M  V30 8638 C 822.774 -2.2237 0.503547 0
M  V30 8639 C 823.758 -1.55186 -0.424998 0
M  V30 8640 O 824.95 -1.75186 -0.252791 0
M  V30 8641 C 822.079 -3.42794 -0.186355 0
M  V30 8642 C 821.165 -4.17196 0.762143 0
M  V30 8643 N 821.556 -4.68453 1.9075 0
M  V30 8644 C 819.854 -4.42255 0.576797 0
M  V30 8645 C 820.555 -5.25126 2.50235 0
M  V30 8646 N 819.531 -5.13437 1.7856 0
M  V30 8647 H 823.333 -2.59636 1.37718 0
M  V30 8648 H 820.847 -1.38476 0.848415 0
M  V30 8649 H 822.844 -4.13256 -0.549993 0
M  V30 8650 H 821.504 -3.07042 -1.05619 0
M  V30 8651 H 822.515 -4.64595 2.28848 0
M  V30 8652 H 819.192 -4.16766 -0.247474 0
M  V30 8653 H 820.582 -5.75363 3.46997 0
M  V30 8654 N 823.302 -0.75937 -1.38099 0
M  V30 8655 C 824.548 -0.318584 -2.00282 0
M  V30 8656 C 824.881 1.09854 -1.60143 0
M  V30 8657 O 824.156 1.75344 -0.841702 0
M  V30 8658 C 824.439 -0.448047 -3.57302 0
M  V30 8659 C 824.292 -1.9067 -4.07388 0
M  V30 8660 C 825.611 0.155119 -4.39827 0
M  V30 8661 H 822.73 -0.117233 -0.727616 0
M  V30 8662 H 825.372 -0.960097 -1.63958 0
M  V30 8663 H 823.522 0.0981003 -3.88376 0
M  V30 8664 H 825.194 -2.5116 -3.86932 0
M  V30 8665 H 823.437 -2.41979 -3.6004 0
M  V30 8666 H 824.108 -1.94841 -5.1647 0
M  V30 8667 H 826.584 -0.31073 -4.14938 0
M  V30 8668 H 825.46 0.0343264 -5.48889 0
M  V30 8669 H 825.721 1.24407 -4.24235 0
M  V30 8670 N 824.78 1.49157 -0.508906 0
M  V30 8671 C 825.727 2.2927 0.265288 0
M  V30 8672 C 826.697 1.3603 0.953162 0
M  V30 8673 O 827.882 1.64989 0.958291 0
M  V30 8674 C 825.022 3.18897 1.31904 0
M  V30 8675 C 824.135 4.27201 0.642144 0
M  V30 8676 C 823.27 5.04033 1.67701 0
M  V30 8677 C 822.309 6.04165 0.982422 0
M  V30 8678 N 821.446 6.74133 1.96186 0
M  V30 8679 H 826.286 2.94967 -0.424107 0
M  V30 8680 H 823.823 1.45431 -0.220991 0
M  V30 8681 H 825.781 3.69242 1.94206 0
M  V30 8682 H 824.411 2.55168 1.97709 0
M  V30 8683 H 823.463 3.80283 -0.0943395 0
M  V30 8684 H 824.775 4.98708 0.0957507 0
M  V30 8685 H 823.929 5.58287 2.37487 0
M  V30 8686 H 822.668 4.32317 2.25728 0
M  V30 8687 H 821.673 5.49135 0.270378 0
M  V30 8688 H 822.898 6.7787 0.408554 0
M  V30 8689 H 820.844 6.05183 2.53159 0
M  V30 8690 H 820.761 7.41643 1.46634 0
M  V30 8691 H 822.029 7.32987 2.65236 0
M  V30 8692 N 826.258 0.243083 1.55714 0
M  V30 8693 C 827.669 -0.260788 1.8487 0
M  V30 8694 C 828.02 -1.57879 1.16485 0
M  V30 8695 O 827.145 -2.1184 0.441908 0
M  V30 8696 C 827.74 -0.479954 3.35383 0
M  V30 8697 C 826.299 -0.928096 3.64778 0
M  V30 8698 C 825.446 -0.00316416 2.773 0
M  V30 8699 H 828.397 0.465743 1.51712 0
M  V30 8700 H 828.418 -1.32308 3.56756 0
M  V30 8701 H 827.93 0.479468 3.85127 0
M  V30 8702 H 826.031 -1.90012 3.20509 0
M  V30 8703 H 826.144 -0.7876 4.72582 0
M  V30 8704 H 824.508 -0.513849 2.49463 0
M  V30 8705 H 825.291 0.951562 3.29849 0
M  V30 8706 N 827.736 -1.57571 -0.0300757 0
M  V30 8707 C 828.668 -2.0329 -1.05857 0
M  V30 8708 C 829.681 -0.945543 -1.32527 0
M  V30 8709 O 830.87 -1.22287 -1.30032 0
M  V30 8710 C 827.97 -2.39234 -2.40042 0
M  V30 8711 C 827.143 -3.70337 -2.32743 0
M  V30 8712 C 826.202 -3.93482 -3.49369 0
M  V30 8713 O 825.228 -4.64551 -3.28909 0
M  V30 8714 N 826.43 -3.39042 -4.71201 0
M  V30 8715 H 829.195 -2.9214 -0.668897 0
M  V30 8716 H 826.756 -1.60425 -0.218038 0
M  V30 8717 H 828.748 -2.51856 -3.16782 0
M  V30 8718 H 827.318 -1.5606 -2.70858 0
M  V30 8719 H 826.538 -3.68079 -1.41109 0
M  V30 8720 H 827.826 -4.56343 -2.25007 0
M  V30 8721 H 827.224 -2.81434 -4.90725 0
M  V30 8722 H 825.781 -3.57045 -5.45309 0
M  V30 8723 N 829.214 0.302327 -1.54673 0
M  V30 8724 C 830.177 1.35592 -1.8479 0
M  V30 8725 C 831.177 1.43743 -0.72073 0
M  V30 8726 O 832.367 1.43402 -0.989017 0
M  V30 8727 C 829.499 2.74091 -2.02699 0
M  V30 8728 H 830.692 1.10132 -2.78946 0
M  V30 8729 H 828.245 0.538926 -1.46715 0
M  V30 8730 H 828.98 3.04775 -1.10826 0
M  V30 8731 H 828.765 2.69565 -2.8474 0
M  V30 8732 H 830.255 3.50272 -2.27374 0
M  V30 8733 N 830.692 1.47107 0.565454 0
M  V30 8734 C 831.622 1.61846 1.68309 0
M  V30 8735 C 832.603 0.468159 1.63531 0
M  V30 8736 O 833.788 0.696504 1.8128 0
M  V30 8737 C 830.918 1.62474 3.06952 0
M  V30 8738 C 829.872 2.76649 3.26572 0
M  V30 8739 C 829.198 2.62345 4.65917 0
M  V30 8740 C 830.498 4.18319 3.12741 0
M  V30 8741 H 832.192 2.55407 1.5623 0
M  V30 8742 H 829.738 1.22916 0.750179 0
M  V30 8743 H 831.691 1.71378 3.84977 0
M  V30 8744 H 830.415 0.654692 3.19971 0
M  V30 8745 H 829.074 2.67242 2.50952 0
M  V30 8746 H 828.722 1.63386 4.75725 0
M  V30 8747 H 828.422 3.38936 4.79996 0
M  V30 8748 H 829.946 2.73165 5.46089 0
M  V30 8749 H 831.36 4.28745 3.80593 0
M  V30 8750 H 829.757 4.95632 3.38333 0
M  V30 8751 H 830.827 4.37263 2.09592 0
M  V30 8752 N 832.17 -0.811516 1.35101 0
M  V30 8753 C 833.447 -1.55491 1.18667 0
M  V30 8754 C 833.827 -2.09775 -0.236189 0
M  V30 8755 O 833.175 -1.91989 -1.23905 0
M  V30 8756 C 833.385 -2.66732 2.25067 0
M  V30 8757 C 834.733 -3.35201 2.60625 0
M  V30 8758 O 835.757 -2.76998 2.23943 0
M  V30 8759 O 834.616 -4.40334 3.23679 0
M  V30 8760 H 831.71 -0.686783 0.460716 0
M  V30 8761 H 834.256 -0.851903 1.46768 0
M  V30 8762 H 833.028 -2.24457 3.20523 0
M  V30 8763 H 832.651 -3.44673 1.98208 0
M  V30 8764 N 833.648 -1.19017 -1.03309 0
M  V30 8765 C 834.873 -1.01598 -1.80811 0
M  V30 8766 C 835.298 0.430773 -1.83101 0
M  V30 8767 O 834.656 1.30946 -1.25391 0
M  V30 8768 C 834.704 -1.5845 -3.23923 0
M  V30 8769 O 833.808 -0.810972 -4.04348 0
M  V30 8770 H 833.149 -0.359398 -0.558327 0
M  V30 8771 H 835.679 -1.57945 -1.30055 0
M  V30 8772 H 835.689 -1.61486 -3.74682 0
M  V30 8773 H 834.364 -2.63752 -3.21571 0
M  V30 8774 H 832.941 -0.85353 -3.63 0
M  V30 8775 N 835.127 1.22348 -0.993418 0
M  V30 8776 C 836.375 1.90733 -0.668246 0
M  V30 8777 C 836.696 1.77732 0.802261 0
M  V30 8778 O 835.966 1.16486 1.57505 0
M  V30 8779 H 834.546 0.705966 -0.244174 0
M  V30 8780 H 837.208 1.48691 -1.26004 0
M  V30 8781 H 836.304 2.97883 -0.931239 0
M  V30 8782 N 836.605 0.766683 1.37694 0
M  V30 8783 C 837.537 0.107798 2.28946 0
M  V30 8784 C 838.55 -0.669701 1.48387 0
M  V30 8785 O 839.739 -0.508629 1.711 0
M  V30 8786 C 836.839 -0.871084 3.27514 0
M  V30 8787 C 836.012 -0.148471 4.37148 0
M  V30 8788 C 835.071 -1.03998 5.1582 0
M  V30 8789 O 834.097 -0.505639 5.6695 0
M  V30 8790 N 835.299 -2.36679 5.3006 0
M  V30 8791 H 838.064 0.89154 2.86132 0
M  V30 8792 H 835.625 0.618593 1.49616 0
M  V30 8793 H 837.617 -1.47081 3.77027 0
M  V30 8794 H 836.187 -1.55582 2.71133 0
M  V30 8795 H 835.407 0.632117 3.89099 0
M  V30 8796 H 836.695 0.351045 5.07588 0
M  V30 8797 H 836.093 -2.82532 4.90094 0
M  V30 8798 H 834.65 -2.9167 5.82899 0
M  V30 8799 N 838.083 -1.48885 0.516809 0
M  V30 8800 C 839.331 -2.02088 -0.0220166 0
M  V30 8801 C 839.652 -1.39735 -1.36011 0
M  V30 8802 O 838.922 -0.558119 -1.87781 0
M  V30 8803 H 837.502 -0.746917 -0.0111255 0
M  V30 8804 H 840.164 -1.8274 0.677647 0
M  V30 8805 H 839.26 -3.11786 -0.140067 0
M  V30 8806 N 839.561 -0.251338 -1.55583 0
M  V30 8807 C 840.524 0.63305 -2.20284 0
M  V30 8808 C 841.524 1.09941 -1.17344 0
M  V30 8809 O 842.714 1.00341 -1.42399 0
M  V30 8810 C 839.846 1.8706 -2.84993 0
M  V30 8811 H 841.039 0.0684846 -2.99822 0
M  V30 8812 H 838.592 -0.00181653 -1.563 0
M  V30 8813 H 839.327 2.47629 -2.09405 0
M  V30 8814 H 839.112 1.54436 -3.60405 0
M  V30 8815 H 840.602 2.50004 -3.34496 0
M  V30 8816 N 841.039 1.57585 0.0217189 0
M  V30 8817 C 842.002 2.06004 1.00474 0
M  V30 8818 C 843.002 0.965461 1.2859 0
M  V30 8819 O 844.192 1.22884 1.23471 0
M  V30 8820 C 841.324 2.48319 2.33561 0
M  V30 8821 H 842.517 2.94112 0.586346 0
M  V30 8822 H 840.07 1.53973 0.268716 0
M  V30 8823 H 840.805 1.63389 2.80133 0
M  V30 8824 H 840.59 3.28239 2.1448 0
M  V30 8825 H 842.08 2.86181 3.04122 0
M  V30 8826 N 842.517 -0.29412 1.54831 0
M  V30 8827 C 843.447 -1.36757 1.89261 0
M  V30 8828 C 844.428 -1.52564 0.752214 0
M  V30 8829 O 845.613 -1.65958 1.00855 0
M  V30 8830 C 842.743 -2.73066 2.14597 0
M  V30 8831 C 841.697 -2.72017 3.3044 0
M  V30 8832 C 841.023 -4.11679 3.4121 0
M  V30 8833 C 842.323 -2.33149 4.67375 0
M  V30 8834 H 844.017 -1.08191 2.79169 0
M  V30 8835 H 841.563 -0.519014 1.34321 0
M  V30 8836 H 843.516 -3.48255 2.37269 0
M  V30 8837 H 842.24 -3.03172 1.21467 0
M  V30 8838 H 840.899 -1.99285 3.07703 0
M  V30 8839 H 840.547 -4.38973 2.45584 0
M  V30 8840 H 840.247 -4.11877 4.19084 0
M  V30 8841 H 841.771 -4.88637 3.6615 0
M  V30 8842 H 843.185 -2.98054 4.89731 0
M  V30 8843 H 841.582 -2.44546 5.48012 0
M  V30 8844 H 842.652 -1.28275 4.67626 0
M  V30 8845 N 843.995 -1.47404 -0.557645 0
M  V30 8846 C 845.223 -1.57622 -1.34026 0
M  V30 8847 C 845.638 -0.226256 -1.87439 0
M  V30 8848 O 844.995 0.78043 -1.64971 0
M  V30 8849 C 845.046 -2.60111 -2.51047 0
M  V30 8850 O 844.767 -3.89866 -1.99841 0
M  V30 8851 C 846.268 -2.80508 -3.43264 0
M  V30 8852 H 843.488 -0.532271 -0.40857 0
M  V30 8853 H 846.032 -1.93019 -0.675555 0
M  V30 8854 H 844.187 -2.27648 -3.13457 0
M  V30 8855 H 844.601 -4.45864 -2.76234 0
M  V30 8856 H 846.075 -3.56084 -4.21792 0
M  V30 8857 H 846.552 -1.88314 -3.9678 0
M  V30 8858 H 847.158 -3.14166 -2.86671 0
M  V30 8859 N 845.473 0.80434 -1.35529 0
M  V30 8860 C 846.701 1.59283 -1.32048 0
M  V30 8861 C 847.116 1.88527 0.101556 0
M  V30 8862 O 846.473 1.48975 1.05417 0
M  V30 8863 C 846.524 2.92276 -2.12737 0
M  V30 8864 O 846.245 2.64299 -3.49396 0
M  V30 8865 C 847.746 3.86631 -2.16867 0
M  V30 8866 H 844.966 0.494523 -0.453528 0
M  V30 8867 H 847.51 0.999415 -1.78415 0
M  V30 8868 H 845.665 3.48125 -1.69964 0
M  V30 8869 H 846.079 3.4923 -3.91329 0
M  V30 8870 H 847.553 4.77053 -2.77712 0
M  V30 8871 H 848.03 4.23384 -1.16803 0
M  V30 8872 H 848.636 3.36717 -2.59811 0
M  V30 8873 N 846.951 1.19563 1.02676 0
M  V30 8874 C 847.914 0.937182 2.09164 0
M  V30 8875 C 848.914 -0.0831927 1.60585 0
M  V30 8876 O 850.104 0.15178 1.73538 0
M  V30 8877 C 847.236 0.408912 3.38439 0
M  V30 8878 H 848.429 1.88164 2.33526 0
M  V30 8879 H 845.982 1.00959 1.19319 0
M  V30 8880 H 846.717 -0.541497 3.19747 0
M  V30 8881 H 846.502 1.14464 3.7502 0
M  V30 8882 H 847.992 0.247242 4.16867 0
M  V30 8883 N 848.429 -1.21819 0.999893 0
M  V30 8884 C 849.657 -1.94758 0.698359 0
M  V30 8885 C 850.072 -1.73771 -0.738183 0
M  V30 8886 O 849.429 -1.04113 -1.49889 0
M  V30 8887 C 849.48 -3.47292 1.00353 0
M  V30 8888 O 849.201 -3.67579 2.38363 0
M  V30 8889 C 850.702 -4.37403 0.72068 0
M  V30 8890 H 847.922 -0.619512 0.257771 0
M  V30 8891 H 850.466 -1.54778 1.33656 0
M  V30 8892 H 848.621 -3.85213 0.411018 0
M  V30 8893 H 849.035 -4.61719 2.48829 0
M  V30 8894 H 850.509 -5.43151 0.984422 0
M  V30 8895 H 850.986 -4.3784 -0.345309 0
M  V30 8896 H 851.592 -4.05119 1.29456 0
M  V30 8897 N 849.908 -0.773975 -1.37286 0
M  V30 8898 C 850.84 -0.119938 -2.28886 0
M  V30 8899 C 851.853 0.661822 -1.48741 0
M  V30 8900 O 853.042 0.499548 -1.71367 0
M  V30 8901 C 850.142 0.853703 -3.27971 0
M  V30 8902 C 849.315 0.125286 -4.37221 0
M  V30 8903 C 848.374 1.01261 -5.16365 0
M  V30 8904 O 847.4 0.475565 -5.6721 0
M  V30 8905 N 848.602 2.33864 -5.31308 0
M  V30 8906 H 851.367 -0.906702 -2.85655 0
M  V30 8907 H 848.928 -0.626519 -1.49286 0
M  V30 8908 H 850.92 1.4508 -3.77801 0
M  V30 8909 H 849.49 1.54142 -2.71954 0
M  V30 8910 H 848.71 -0.652742 -3.88758 0
M  V30 8911 H 849.998 -0.377959 -5.07394 0
M  V30 8912 H 849.396 2.79929 -4.91585 0
M  V30 8913 H 847.953 2.88575 -5.84438 0
M  V30 8914 N 851.386 1.48609 -0.524698 0
M  V30 8915 C 852.614 2.06899 0.00742946 0
M  V30 8916 C 853.029 1.38196 1.28637 0
M  V30 8917 O 852.386 0.467771 1.76403 0
M  V30 8918 C 852.437 3.60699 0.240548 0
M  V30 8919 O 852.158 4.26821 -0.987715 0
M  V30 8920 C 853.659 4.35769 0.813652 0
M  V30 8921 H 850.879 0.670278 -0.0311294 0
M  V30 8922 H 853.423 1.91071 -0.728832 0
M  V30 8923 H 851.578 3.76149 0.926845 0
M  V30 8924 H 851.992 5.18889 -0.765175 0
M  V30 8925 H 853.466 5.44174 0.926219 0
M  V30 8926 H 853.943 3.9984 1.81728 0
M  V30 8927 H 854.549 4.24983 0.164086 0
M  V30 8928 N 852.864 0.259585 1.55447 0
M  V30 8929 C 854.092 -0.365392 2.03648 0
M  V30 8930 C 854.507 -1.50613 1.13847 0
M  V30 8931 O 853.864 -1.81837 0.155414 0
M  V30 8932 C 853.915 -0.861172 3.51093 0
M  V30 8933 O 853.636 0.234121 4.37474 0
M  V30 8934 C 855.137 -1.55555 4.15111 0
M  V30 8935 H 852.357 -0.0853439 0.66555 0
M  V30 8936 H 854.901 0.387151 2.00802 0
M  V30 8937 H 853.056 -1.56385 3.54433 0
M  V30 8938 H 853.47 -0.1444 5.24301 0
M  V30 8939 H 854.944 -1.85403 5.19932 0
M  V30 8940 H 855.421 -2.48185 3.62355 0
M  V30 8941 H 856.027 -0.89712 4.15731 0
M  V30 8942 N 854.342 -1.57594 -0.0133615 0
M  V30 8943 C 855.292 -2.04048 -1.01726 0
M  V30 8944 C 856.276 -0.932682 -1.3111 0
M  V30 8945 O 857.468 -1.19652 -1.30432 0
M  V30 8946 C 854.597 -2.53637 -2.31351 0
M  V30 8947 C 853.683 -3.71269 -2.04989 0
M  V30 8948 N 854.074 -4.83436 -1.48739 0
M  V30 8949 C 852.372 -3.78943 -2.35198 0
M  V30 8950 C 853.073 -5.64961 -1.38542 0
M  V30 8951 N 852.049 -5.10554 -1.86643 0
M  V30 8952 H 855.851 -2.88188 -0.576623 0
M  V30 8953 H 853.365 -1.60912 -0.219344 0
M  V30 8954 H 855.362 -2.85186 -3.04096 0
M  V30 8955 H 854.022 -1.7091 -2.76079 0
M  V30 8956 H 855.033 -5.04558 -1.16798 0
M  V30 8957 H 851.71 -3.07047 -2.82893 0
M  V30 8958 H 853.1 -6.65092 -0.954075 0
M  V30 8959 N 855.82 0.285905 -1.54985 0
M  V30 8960 C 856.75 1.35752 -1.89983 0
M  V30 8961 C 857.731 1.52163 -0.760295 0
M  V30 8962 O 858.916 1.65421 -1.01733 0
M  V30 8963 C 856.046 2.71925 -2.16042 0
M  V30 8964 C 855 2.70261 -3.31878 0
M  V30 8965 C 854.326 4.09864 -3.43388 0
M  V30 8966 C 855.626 2.30667 -4.68604 0
M  V30 8967 H 857.32 1.06709 -2.79738 0
M  V30 8968 H 854.866 0.511884 -1.34595 0
M  V30 8969 H 856.819 3.46992 -2.39113 0
M  V30 8970 H 855.543 3.02523 -1.23074 0
M  V30 8971 H 854.202 1.97651 -3.08755 0
M  V30 8972 H 853.85 4.37664 -2.47909 0
M  V30 8973 H 853.55 4.09648 -4.21262 0
M  V30 8974 H 855.074 4.86689 -3.68736 0
M  V30 8975 H 856.488 2.95453 -4.91305 0
M  V30 8976 H 854.885 2.41637 -5.49301 0
M  V30 8977 H 855.955 1.25793 -4.68299 0
M  V30 8978 N 857.298 1.47698 0.54982 0
M  V30 8979 C 858.208 1.63386 1.68351 0
M  V30 8980 C 859.224 0.516583 1.66155 0
M  V30 8981 O 860.4 0.785088 1.85468 0
M  V30 8982 C 857.465 1.6513 3.04849 0
M  V30 8983 C 856.526 2.88338 3.18056 0
M  V30 8984 C 855.759 2.8999 4.48042 0
M  V30 8985 O 855.982 2.00633 5.3395 0
M  V30 8986 O 854.916 3.81938 4.65196 0
M  V30 8987 H 858.742 2.59329 1.58057 0
M  V30 8988 H 856.327 1.30869 0.72067 0
M  V30 8989 H 858.209 1.68913 3.86065 0
M  V30 8990 H 856.884 0.723555 3.1551 0
M  V30 8991 H 855.791 2.90097 2.36209 0
M  V30 8992 H 857.124 3.80431 3.12302 0
M  V30 8993 N 858.776 -0.797141 1.35954 0
M  V30 8994 C 859.706 -1.92387 1.32323 0
M  V30 8995 C 860.687 -1.68967 0.196007 0
M  V30 8996 O 861.872 -1.90193 0.39245 0
M  V30 8997 C 859.002 -3.29286 1.10398 0
M  V30 8998 C 857.956 -3.67212 2.19862 0
M  V30 8999 C 857.282 -5.02377 1.8309 0
M  V30 9000 C 858.582 -3.76602 3.61896 0
M  V30 9001 H 860.276 -1.95683 2.26602 0
M  V30 9002 H 857.822 -0.94007 1.09081 0
M  V30 9003 H 859.775 -4.07721 1.06495 0
M  V30 9004 H 858.499 -3.26358 0.125668 0
M  V30 9005 H 857.158 -2.91069 2.22878 0
M  V30 9006 H 856.806 -4.95961 0.838527 0
M  V30 9007 H 856.506 -5.28722 2.56372 0
M  V30 9008 H 858.03 -5.8324 1.80729 0
M  V30 9009 H 859.444 -4.45246 3.6115 0
M  V30 9010 H 857.841 -4.14425 4.34018 0
M  V30 9011 H 858.911 -2.77906 3.97361 0
M  V30 9012 N 860.254 -1.20106 -1.0204 0
M  V30 9013 C 861.186 -0.904236 -2.10609 0
M  V30 9014 C 862.199 0.106487 -1.62451 0
M  V30 9015 O 863.388 -0.124035 -1.78069 0
M  V30 9016 C 860.488 -0.333423 -3.37256 0
M  V30 9017 C 859.661 -1.39476 -4.14566 0
M  V30 9018 C 858.72 -0.835961 -5.19517 0
M  V30 9019 O 857.746 -1.51573 -5.48648 0
M  V30 9020 N 858.948 0.356531 -5.79404 0
M  V30 9021 H 861.713 -1.8388 -2.36661 0
M  V30 9022 H 859.274 -1.10422 -1.184 0
M  V30 9023 H 861.266 0.0544571 -4.04663 0
M  V30 9024 H 859.836 0.505608 -3.08484 0
M  V30 9025 H 859.056 -1.95714 -3.42184 0
M  V30 9026 H 860.344 -2.10967 -4.63001 0
M  V30 9027 H 859.742 0.926143 -5.58067 0
M  V30 9028 H 858.299 0.686093 -6.48179 0
M  V30 9029 N 861.732 1.21287 -1.00634 0
M  V30 9030 C 863.148 1.42467 -0.719389 0
M  V30 9031 C 863.348 1.88767 0.704927 0
M  V30 9032 O 862.404 2.05004 1.47409 0
M  V30 9033 C 863.717 2.455 -1.73639 0
M  V30 9034 C 865.265 2.59281 -1.75335 0
M  V30 9035 C 865.74 3.65547 -2.75934 0
M  V30 9036 N 867.231 3.73019 -2.74611 0
M  V30 9037 C 867.966 4.54873 -3.4911 0
M  V30 9038 N 867.462 5.40614 -4.33253 0
M  V30 9039 N 869.255 4.49309 -3.37754 0
M  V30 9040 H 861.406 0.895454 -1.92602 0
M  V30 9041 H 863.669 0.455491 -0.831404 0
M  V30 9042 H 863.375 2.18455 -2.75627 0
M  V30 9043 H 863.249 3.44325 -1.54014 0
M  V30 9044 H 865.636 2.85661 -0.740377 0
M  V30 9045 H 865.717 1.60685 -1.99032 0
M  V30 9046 H 865.361 3.39911 -3.77389 0
M  V30 9047 H 865.291 4.63741 -2.49503 0
M  V30 9048 H 867.782 3.11766 -2.13565 0
M  V30 9049 H 868.095 6.0013 -4.86892 0
M  V30 9050 H 866.44 5.40151 -4.37335 0
M  V30 9051 H 869.631 3.81357 -2.71449 0
M  V30 9052 H 869.804 5.12867 -3.9607 0
M  V30 9053 N 863.21 0.781244 1.36873 0
M  V30 9054 C 864.458 0.349198 1.9906 0
M  V30 9055 C 864.779 -1.0806 1.62321 0
M  V30 9056 O 864.049 -1.74351 0.893229 0
M  V30 9057 H 862.629 0.126126 0.736275 0
M  V30 9058 H 865.291 1.00148 1.67202 0
M  V30 9059 H 864.387 0.434451 3.09061 0
M  V30 9060 N 864.689 -1.48329 0.532571 0
M  V30 9061 C 866.105 -1.58458 0.190605 0
M  V30 9062 C 866.305 -1.53427 -1.30623 0
M  V30 9063 O 865.361 -1.4247 -2.08467 0
M  V30 9064 C 866.674 -2.89989 0.79543 0
M  V30 9065 C 868.222 -3.03523 0.7644 0
M  V30 9066 C 868.697 -4.37718 1.34785 0
M  V30 9067 N 870.188 -4.44292 1.30993 0
M  V30 9068 C 870.923 -5.4664 1.73124 0
M  V30 9069 N 870.419 -6.5593 2.22997 0
M  V30 9070 N 872.212 -5.37538 1.64346 0
M  V30 9071 H 864.363 -1.49842 1.50537 0
M  V30 9072 H 866.626 -0.71164 0.626316 0
M  V30 9073 H 866.332 -2.99333 1.84642 0
M  V30 9074 H 866.206 -3.76203 0.27403 0
M  V30 9075 H 868.593 -2.93789 -0.277831 0
M  V30 9076 H 868.674 -2.18912 1.3233 0
M  V30 9077 H 868.318 -4.48206 2.38902 0
M  V30 9078 H 868.248 -5.21019 0.764609 0
M  V30 9079 H 870.739 -3.65897 0.944868 0
M  V30 9080 H 871.052 -7.30167 2.53133 0
M  V30 9081 H 869.397 -6.56886 2.26992 0
M  V30 9082 H 872.588 -4.51052 1.25178 0
M  V30 9083 H 872.761 -6.17169 1.97501 0
M  V30 9084 N 866.167 -0.267825 -1.55308 0
M  V30 9085 C 867.099 0.65591 -2.19614 0
M  V30 9086 C 868.112 1.12302 -1.17865 0
M  V30 9087 O 869.301 1.04618 -1.44628 0
M  V30 9088 C 866.401 1.90582 -2.80235 0
M  V30 9089 C 865.574 1.58673 -4.07605 0
M  V30 9090 C 864.633 2.68836 -4.52343 0
M  V30 9091 O 863.659 2.35331 -5.18274 0
M  V30 9092 N 864.861 3.98752 -4.21873 0
M  V30 9093 H 867.626 0.105566 -2.99514 0
M  V30 9094 H 865.187 -0.0886263 -1.61657 0
M  V30 9095 H 867.179 2.63561 -3.07112 0
M  V30 9096 H 865.749 2.3654 -2.04371 0
M  V30 9097 H 864.969 0.691113 -3.88094 0
M  V30 9098 H 866.257 1.34845 -4.90606 0
M  V30 9099 H 865.655 4.28797 -3.68985 0
M  V30 9100 H 864.212 4.68131 -4.53537 0
M  V30 9101 N 867.645 1.57599 0.00500368 0
M  V30 9102 C 868.891 1.90631 0.691919 0
M  V30 9103 C 869.224 0.868443 1.737 0
M  V30 9104 O 868.499 -0.113482 1.94169 0
M  V30 9105 C 868.782 3.34255 1.33961 0
M  V30 9106 C 868.635 4.48755 0.306413 0
M  V30 9107 C 869.954 3.77211 2.26715 0
M  V30 9108 H 867.073 0.693279 0.250066 0
M  V30 9109 H 869.715 1.89946 -0.0452634 0
M  V30 9110 H 867.865 3.3497 1.96793 0
M  V30 9111 H 869.537 4.60176 -0.321841 0
M  V30 9112 H 867.78 4.32203 -0.371852 0
M  V30 9113 H 868.451 5.46193 0.798554 0
M  V30 9114 H 870.927 3.78017 1.73904 0
M  V30 9115 H 869.803 4.78466 2.69002 0
M  V30 9116 H 870.064 3.10801 3.14413 0
M  V30 9117 N 869.123 -0.277682 1.55134 0
M  V30 9118 C 870.351 -1.02826 1.7954 0
M  V30 9119 C 870.766 -1.80105 0.566373 0
M  V30 9120 O 870.123 -1.76491 -0.464448 0
M  V30 9121 C 870.174 -1.99053 3.01762 0
M  V30 9122 O 869.895 -1.24906 4.19917 0
M  V30 9123 C 871.396 -2.85961 3.38735 0
M  V30 9124 H 868.616 -0.303958 0.598206 0
M  V30 9125 H 871.16 -0.309884 2.02138 0
M  V30 9126 H 869.315 -2.66359 2.81303 0
M  V30 9127 H 869.729 -1.89725 4.88983 0
M  V30 9128 H 871.203 -3.49286 4.27438 0
M  V30 9129 H 871.68 -3.55486 2.57928 0
M  V30 9130 H 872.286 -2.24152 3.61436 0
M  V30 9131 N 870.601 -1.47988 -0.541979 0
M  V30 9132 C 871.847 -1.55623 -1.30036 0
M  V30 9133 C 872.18 -0.224254 -1.92901 0
M  V30 9134 O 871.455 0.768629 -1.78668 0
M  V30 9135 C 871.738 -2.68562 -2.39888 0
M  V30 9136 C 871.591 -4.11426 -1.81792 0
M  V30 9137 C 872.91 -2.77325 -3.41729 0
M  V30 9138 H 870.029 -0.566498 -0.471433 0
M  V30 9139 H 872.671 -1.8011 -0.604998 0
M  V30 9140 H 870.821 -2.47814 -2.992 0
M  V30 9141 H 872.493 -4.43581 -1.26624 0
M  V30 9142 H 870.736 -4.18989 -1.12386 0
M  V30 9143 H 871.407 -4.8625 -2.61276 0
M  V30 9144 H 873.883 -2.96085 -2.92357 0
M  V30 9145 H 872.759 -3.58097 -4.16002 0
M  V30 9146 H 873.02 -1.84995 -4.01534 0
M  V30 9147 N 872.079 0.78992 -1.36375 0
M  V30 9148 C 873.49 1.36506 -1.2737 0
M  V30 9149 C 873.841 1.96008 0.086711 0
M  V30 9150 O 872.966 1.92521 0.988159 0
M  V30 9151 C 873.561 2.48175 -2.30639 0
M  V30 9152 C 872.12 3.01506 -2.25325 0
M  V30 9153 C 871.267 1.74581 -2.15445 0
M  V30 9154 H 874.218 0.591606 -1.47261 0
M  V30 9155 H 874.239 3.27179 -1.94253 0
M  V30 9156 H 873.751 2.04838 -3.2964 0
M  V30 9157 H 871.852 3.49265 -1.29788 0
M  V30 9158 H 871.965 3.58355 -3.17992 0
M  V30 9159 H 870.329 1.96794 -1.61692 0
M  V30 9160 H 871.112 1.33373 -3.16333 0
M  V30 9161 N 873.557 1.20646 1.01402 0
M  V30 9162 C 874.973 0.961866 1.27359 0
M  V30 9163 C 875.173 -0.357083 1.98311 0
M  V30 9164 O 874.229 -1.08498 2.28001 0
M  V30 9165 C 875.542 2.14627 2.10609 0
M  V30 9166 C 877.09 2.18753 2.23866 0
M  V30 9167 C 877.565 3.36686 3.10494 0
M  V30 9168 N 879.056 3.36716 3.18083 0
M  V30 9169 C 879.791 4.24615 3.85343 0
M  V30 9170 N 879.287 5.22697 4.54708 0
M  V30 9171 N 881.08 4.12449 3.81893 0
M  V30 9172 H 873.231 2.05481 0.537721 0
M  V30 9173 H 875.494 0.899292 0.299963 0
M  V30 9174 H 875.2 3.10159 1.65814 0
M  V30 9175 H 875.074 2.12935 3.11349 0
M  V30 9176 H 877.461 1.23782 2.67885 0
M  V30 9177 H 877.542 2.24492 1.22626 0
M  V30 9178 H 877.186 4.31945 2.67181 0
M  V30 9179 H 877.116 3.28185 4.11828 0
M  V30 9180 H 879.607 2.65728 2.68695 0
M  V30 9181 H 879.92 5.86087 5.03708 0
M  V30 9182 H 878.265 5.26631 4.53525 0
M  V30 9183 H 881.456 3.35091 3.26851 0
M  V30 9184 H 881.629 4.81162 4.34035 0
M  V30 9185 N 875.035 -1.20752 1.01276 0
M  V30 9186 C 875.998 -2.2162 0.584583 0
M  V30 9187 C 876.998 -1.57094 -0.343215 0
M  V30 9188 O 878.188 -1.73696 -0.132433 0
M  V30 9189 C 875.32 -3.40583 -0.146872 0
M  V30 9190 H 876.513 -2.61015 1.47686 0
M  V30 9191 H 874.066 -1.34148 0.802123 0
M  V30 9192 H 874.801 -3.06686 -1.05424 0
M  V30 9193 H 874.586 -3.88642 0.51958 0
M  V30 9194 H 876.076 -4.15339 -0.433924 0
M  V30 9195 N 876.513 -0.788492 -1.36457 0
M  V30 9196 C 877.759 -0.370067 -2.00005 0
M  V30 9197 C 878.114 1.0464 -1.61456 0
M  V30 9198 O 877.407 1.71277 -0.85876 0
M  V30 9199 C 877.601 -0.470255 -3.54293 0
M  V30 9200 C 877.43 -1.89492 -4.07827 0
M  V30 9201 C 876.2 -2.51932 -4.38016 0
M  V30 9202 C 878.398 -2.85692 -4.2765 0
M  V30 9203 N 876.38 -3.85997 -4.77368 0
M  V30 9204 C 877.751 -4.04588 -4.69796 0
M  V30 9205 C 879.806 -2.8276 -4.09818 0
M  V30 9206 C 878.509 -5.2096 -4.95977 0
M  V30 9207 C 880.535 -3.98319 -4.37145 0
M  V30 9208 C 879.897 -5.1596 -4.79547 0
M  V30 9209 H 875.996 -0.182813 -0.760331 0
M  V30 9210 H 878.58 -1.02589 -1.6548 0
M  V30 9211 H 876.751 0.155476 -3.88089 0
M  V30 9212 H 878.483 -0.0281643 -4.0469 0
M  V30 9213 H 875.238 -2.0342 -4.27688 0
M  V30 9214 H 875.662 -4.54971 -5.01329 0
M  V30 9215 H 880.304 -1.92971 -3.76194 0
M  V30 9216 H 878.022 -6.11335 -5.28483 0
M  V30 9217 H 881.608 -3.97411 -4.24919 0
M  V30 9218 H 880.488 -6.03893 -5.00283 0
M  V30 9219 N 877.991 1.48044 -0.54043 0
M  V30 9220 C 878.921 2.32597 0.205178 0
M  V30 9221 C 879.902 1.42748 0.925041 0
M  V30 9222 O 881.087 1.71624 0.908784 0
M  V30 9223 C 878.217 3.24175 1.24612 0
M  V30 9224 C 877.171 4.23131 0.64376 0
M  V30 9225 C 876.497 5.03915 1.78812 0
M  V30 9226 C 877.797 5.20831 -0.39144 0
M  V30 9227 H 879.491 2.95184 -0.500676 0
M  V30 9228 H 877.037 1.41948 -0.242225 0
M  V30 9229 H 878.99 3.82158 1.77576 0
M  V30 9230 H 877.714 2.59608 1.98169 0
M  V30 9231 H 876.373 3.66349 0.135554 0
M  V30 9232 H 876.021 4.35765 2.51232 0
M  V30 9233 H 875.721 5.709 1.39094 0
M  V30 9234 H 877.245 5.64753 2.32134 0
M  V30 9235 H 878.659 5.73277 0.0515064 0
M  V30 9236 H 877.056 5.95926 -0.706569 0
M  V30 9237 H 878.126 4.6733 -1.29345 0
M  V30 9238 N 879.47 0.276058 1.55163 0
M  V30 9239 C 880.4 -0.604633 2.25536 0
M  V30 9240 C 881.381 -1.15813 1.24585 0
M  V30 9241 O 882.566 -1.1921 1.53306 0
M  V30 9242 C 879.696 -1.78836 2.97716 0
M  V30 9243 C 878.65 -1.36635 4.05604 0
M  V30 9244 C 877.976 -2.63325 4.65364 0
M  V30 9245 C 879.276 -0.515858 5.19746 0
M  V30 9246 H 880.97 -0.0177483 2.99395 0
M  V30 9247 H 878.516 -0.00709627 1.43998 0
M  V30 9248 H 880.469 -2.41036 3.45658 0
M  V30 9249 H 879.193 -2.40109 2.21394 0
M  V30 9250 H 877.852 -0.767541 3.58475 0
M  V30 9251 H 877.5 -3.22858 3.85709 0
M  V30 9252 H 877.2 -2.358 5.38212 0
M  V30 9253 H 878.724 -3.26372 5.16056 0
M  V30 9254 H 880.138 -1.04289 5.63735 0
M  V30 9255 H 878.535 -0.335449 5.99162 0
M  V30 9256 H 879.605 0.465137 4.82664 0
M  V30 9257 N 880.948 -1.576 0.00335426 0
M  V30 9258 C 882.195 -1.90713 -0.680791 0
M  V30 9259 C 882.523 -0.877263 -1.73592 0
M  V30 9260 O 881.778 0.117497 -1.95347 0
M  V30 9261 C 882.077 -3.3058 -1.35837 0
M  V30 9262 C 881.743 -4.48786 -0.436111 0
M  V30 9263 C 880.405 -4.80855 -0.182195 0
M  V30 9264 C 882.757 -5.20821 0.198677 0
M  V30 9265 C 880.085 -5.8233 0.714747 0
M  V30 9266 C 882.437 -6.23252 1.08351 0
M  V30 9267 C 881.101 -6.53776 1.34658 0
M  V30 9268 H 880.371 -0.697869 -0.249119 0
M  V30 9269 H 883.018 -1.91407 0.0596011 0
M  V30 9270 H 881.323 -3.26026 -2.17289 0
M  V30 9271 H 883.02 -3.53462 -1.89383 0
M  V30 9272 H 879.61 -4.23731 -0.644186 0
M  V30 9273 H 883.794 -4.96298 0.0155259 0
M  V30 9274 H 879.05 -6.04339 0.926529 0
M  V30 9275 H 883.224 -6.78199 1.58172 0
M  V30 9276 H 880.851 -7.32225 2.04328 0
M  V30 9277 N 882.426 0.269451 -1.5528 0
M  V30 9278 C 883.356 1.33729 -1.91413 0
M  V30 9279 C 884.337 1.51348 -0.776391 0
M  V30 9280 O 885.522 1.64332 -1.03482 0
M  V30 9281 C 882.652 2.69618 -2.18914 0
M  V30 9282 C 881.606 2.66725 -3.34726 0
M  V30 9283 C 880.932 4.06199 -3.47716 0
M  V30 9284 C 882.232 2.25684 -4.71025 0
M  V30 9285 H 883.926 1.03736 -2.80854 0
M  V30 9286 H 881.472 0.497579 -1.3513 0
M  V30 9287 H 883.425 3.44436 -2.42779 0
M  V30 9288 H 882.149 3.01201 -1.26275 0
M  V30 9289 H 880.808 1.94365 -3.10834 0
M  V30 9290 H 880.456 4.3501 -2.52537 0
M  V30 9291 H 880.156 4.05157 -4.25583 0
M  V30 9292 H 881.68 4.8275 -3.73877 0
M  V30 9293 H 883.094 2.90225 -4.94411 0
M  V30 9294 H 881.491 2.35797 -5.51833 0
M  V30 9295 H 882.561 1.20819 -4.69607 0
M  V30 9296 N 883.904 1.48273 0.534124 0
M  V30 9297 C 885.32 1.34302 0.862272 0
M  V30 9298 C 885.52 0.350902 1.98421 0
M  V30 9299 O 884.576 -0.229364 2.51456 0
M  V30 9300 C 885.889 2.74227 1.23371 0
M  V30 9301 C 887.437 2.82684 1.34383 0
M  V30 9302 C 887.912 4.23301 1.74871 0
M  V30 9303 N 889.403 4.25954 1.81981 0
M  V30 9304 C 890.138 5.31693 2.14686 0
M  V30 9305 N 889.634 6.47714 2.45844 0
M  V30 9306 N 891.427 5.19084 2.15657 0
M  V30 9307 H 883.578 2.11397 -0.206215 0
M  V30 9308 H 885.841 0.947537 -0.0296116 0
M  V30 9309 H 885.547 3.48368 0.482967 0
M  V30 9310 H 885.421 3.07485 2.18478 0
M  V30 9311 H 887.808 2.08801 2.08534 0
M  V30 9312 H 887.889 2.5305 0.374063 0
M  V30 9313 H 887.533 4.97699 1.01282 0
M  V30 9314 H 887.463 4.50376 2.7289 0
M  V30 9315 H 889.954 3.42266 1.60196 0
M  V30 9316 H 890.267 7.2414 2.69892 0
M  V30 9317 H 888.612 6.50995 2.43372 0
M  V30 9318 H 891.803 4.27463 1.9077 0
M  V30 9319 H 891.976 6.01592 2.40813 0
M  V30 9320 N 885.382 -0.782676 1.36792 0
M  V30 9321 C 886.63 -1.53778 1.31136 0
M  V30 9322 C 886.951 -1.94706 -0.107014 0
M  V30 9323 O 886.221 -1.65465 -1.04872 0
M  V30 9324 H 884.801 -0.570328 0.482426 0
M  V30 9325 H 887.463 -0.932181 1.71162 0
M  V30 9326 H 886.559 -2.44224 1.94321 0
M  V30 9327 N 886.86 -1.21182 -1.00761 0
M  V30 9328 C 888.085 -1.05411 -1.78615 0
M  V30 9329 C 888.51 0.391837 -1.83973 0
M  V30 9330 O 887.868 1.28256 -1.28141 0
M  V30 9331 C 887.916 -1.65285 -3.20489 0
M  V30 9332 O 887.02 -0.896558 -4.02536 0
M  V30 9333 H 886.361 -0.37116 -0.550578 0
M  V30 9334 H 888.891 -1.60669 -1.26676 0
M  V30 9335 H 888.901 -1.69397 -3.71172 0
M  V30 9336 H 887.576 -2.70514 -3.15904 0
M  V30 9337 H 886.153 -0.930335 -3.61108 0
M  V30 9338 N 888.338 1.20213 -1.01915 0
M  V30 9339 C 889.268 2.25336 -0.612023 0
M  V30 9340 C 890.249 1.65933 0.374186 0
M  V30 9341 O 891.434 1.92464 0.259053 0
M  V30 9342 C 888.564 3.47267 0.047904 0
M  V30 9343 C 887.518 4.1928 -0.859557 0
M  V30 9344 C 886.844 5.3466 -0.0652655 0
M  V30 9345 C 888.144 4.75143 -2.1688 0
M  V30 9346 H 889.838 2.59645 -1.49079 0
M  V30 9347 H 887.384 1.24808 -0.718263 0
M  V30 9348 H 889.337 4.19991 0.344294 0
M  V30 9349 H 888.061 3.12129 0.961404 0
M  V30 9350 H 886.72 3.48425 -1.13999 0
M  V30 9351 H 886.368 4.95767 0.849964 0
M  V30 9352 H 886.068 5.83772 -0.669618 0
M  V30 9353 H 887.592 6.10187 0.224612 0
M  V30 9354 H 889.006 5.39672 -1.9346 0
M  V30 9355 H 887.403 5.34702 -2.72422 0
M  V30 9356 H 888.473 3.93744 -2.83008 0
M  V30 9357 N 889.816 0.795718 1.36037 0
M  V30 9358 C 891.227 0.433379 1.816 0
M  V30 9359 C 891.578 -1.04341 1.66155 0
M  V30 9360 O 890.703 -1.81004 1.18603 0
M  V30 9361 C 891.298 0.77985 3.29703 0
M  V30 9362 C 889.857 0.470256 3.73451 0
M  V30 9363 C 889.004 1.01119 2.58206 0
M  V30 9364 H 891.955 0.988317 1.24169 0
M  V30 9365 H 891.976 0.0732898 3.80429 0
M  V30 9366 H 891.488 1.85473 3.40913 0
M  V30 9367 H 889.589 -0.596332 3.67797 0
M  V30 9368 H 889.702 0.995276 4.68648 0
M  V30 9369 H 888.066 0.434077 2.50974 0
M  V30 9370 H 888.849 2.09196 2.72198 0
M  V30 9371 N 891.294 -1.47756 0.548274 0
M  V30 9372 C 892.522 -2.06884 0.0254873 0
M  V30 9373 C 892.937 -1.40225 -1.26422 0
M  V30 9374 O 892.294 -0.495776 -1.75637 0
M  V30 9375 C 892.345 -3.61036 -0.183134 0
M  V30 9376 O 892.066 -4.25195 1.05549 0
M  V30 9377 C 893.567 -4.37008 -0.744222 0
M  V30 9378 H 890.787 -0.669697 0.041789 0
M  V30 9379 H 893.331 -1.89888 0.759138 0
M  V30 9380 H 891.486 -3.77576 -0.866886 0
M  V30 9381 H 891.9 -5.17606 0.847629 0
M  V30 9382 H 893.374 -5.45579 -0.839529 0
M  V30 9383 H 893.851 -4.0268 -1.75344 0
M  V30 9384 H 894.457 -4.25191 -0.0964542 0
M  V30 9385 N 892.772 -0.284283 -1.55015 0
M  V30 9386 C 894.019 0.329864 -1.99795 0
M  V30 9387 C 894.347 1.55171 -1.1727 0
M  V30 9388 O 893.602 1.94312 -0.232667 0
M  V30 9389 C 893.901 0.747219 -3.49502 0
M  V30 9390 C 893.567 -0.37101 -4.49371 0
M  V30 9391 C 892.229 -0.678034 -4.76399 0
M  V30 9392 C 894.581 -1.12406 -5.08935 0
M  V30 9393 C 891.909 -1.74152 -5.60257 0
M  V30 9394 C 894.261 -2.17734 -5.93948 0
M  V30 9395 C 892.925 -2.49061 -6.19294 0
M  V30 9396 H 892.195 0.120706 -0.731103 0
M  V30 9397 H 894.842 -0.399904 -1.87278 0
M  V30 9398 H 893.147 1.55681 -3.59542 0
M  V30 9399 H 894.844 1.2333 -3.81563 0
M  V30 9400 H 891.434 -0.1216 -4.28427 0
M  V30 9401 H 895.618 -0.900119 -4.88069 0
M  V30 9402 H 890.874 -1.98915 -5.78137 0
M  V30 9403 H 895.048 -2.76553 -6.39133 0
M  V30 9404 H 892.675 -3.31602 -6.84064 0
M  V30 9405 N 894.251 1.57596 -0.0117121 0
M  V30 9406 C 895.667 1.55837 0.344506 0
M  V30 9407 C 895.867 1.01557 1.74036 0
M  V30 9408 O 894.923 0.654563 2.43868 0
M  V30 9409 C 896.236 2.99973 0.209023 0
M  V30 9410 C 897.784 3.11717 0.283092 0
M  V30 9411 C 898.259 4.57659 0.176599 0
M  V30 9412 N 899.75 4.62608 0.234133 0
M  V30 9413 C 900.485 5.73132 0.175252 0
M  V30 9414 N 899.981 6.92768 0.0662888 0
M  V30 9415 N 901.774 5.61638 0.227972 0
M  V30 9416 H 893.925 1.91215 -0.924692 0
M  V30 9417 H 896.188 0.878807 -0.355531 0
M  V30 9418 H 895.894 3.4357 -0.751826 0
M  V30 9419 H 895.768 3.64075 0.98635 0
M  V30 9420 H 898.155 2.68043 1.23439 0
M  V30 9421 H 898.236 2.50369 -0.52431 0
M  V30 9422 H 897.88 5.02011 -0.771205 0
M  V30 9423 H 897.81 5.16967 1.00264 0
M  V30 9424 H 900.301 3.76549 0.319203 0
M  V30 9425 H 900.614 7.72795 0.0275765 0
M  V30 9426 H 898.959 6.94993 0.0317502 0
M  V30 9427 H 902.15 4.67063 0.311377 0
M  V30 9428 H 902.323 6.47754 0.178621 0
M  V30 9429 N 895.729 -0.261212 1.5542 0
M  V30 9430 C 896.954 -1.01341 1.80955 0
M  V30 9431 C 897.379 -1.78711 0.586849 0
M  V30 9432 O 896.737 -1.75266 -0.463837 0
M  V30 9433 C 896.785 -1.93835 3.04073 0
M  V30 9434 O 895.889 -3.02791 2.79985 0
M  V30 9435 H 895.23 -0.289123 0.597749 0
M  V30 9436 H 897.76 -0.286543 2.02584 0
M  V30 9437 H 897.77 -2.3557 3.33123 0
M  V30 9438 H 896.445 -1.36936 3.9271 0
M  V30 9439 H 895.022 -2.65287 2.62063 0
M  V30 9440 N 897.207 -1.48554 -0.526253 0
M  V30 9441 C 898.432 -1.60686 -1.31129 0
M  V30 9442 C 898.857 -0.268701 -1.86171 0
M  V30 9443 O 898.215 0.760167 -1.64594 0
M  V30 9444 C 898.263 -2.65938 -2.43536 0
M  V30 9445 O 897.367 -2.23356 -3.46678 0
M  V30 9446 H 896.708 -0.538691 -0.388211 0
M  V30 9447 H 899.238 -1.94567 -0.632826 0
M  V30 9448 H 899.248 -2.87327 -2.89668 0
M  V30 9449 H 897.923 -3.63085 -2.02835 0
M  V30 9450 H 896.5 -2.12196 -3.06639 0
M  V30 9451 N 898.685 0.775411 -1.37205 0
M  V30 9452 C 899.615 1.90258 -1.35367 0
M  V30 9453 C 900.596 1.68634 -0.222864 0
M  V30 9454 O 901.781 1.89545 -0.422659 0
M  V30 9455 C 898.911 3.27488 -1.15623 0
M  V30 9456 C 897.865 3.63668 -2.25676 0
M  V30 9457 C 897.191 4.994 -1.91059 0
M  V30 9458 C 898.491 3.70797 -3.67841 0
M  V30 9459 H 900.185 1.92053 -2.29687 0
M  V30 9460 H 897.731 0.922597 -1.10563 0
M  V30 9461 H 899.684 4.05976 -1.12968 0
M  V30 9462 H 898.408 3.26117 -0.177573 0
M  V30 9463 H 897.067 2.87486 -2.2748 0
M  V30 9464 H 896.715 4.94565 -0.917324 0
M  V30 9465 H 896.415 5.24576 -2.64751 0
M  V30 9466 H 897.939 5.80291 -1.89985 0
M  V30 9467 H 899.353 4.39444 -3.68187 0
M  V30 9468 H 897.75 4.07468 -4.40556 0
M  V30 9469 H 898.82 2.71549 -4.01732 0
M  V30 9470 N 900.163 1.21714 1.00117 0
M  V30 9471 C 901.41 1.0367 1.73951 0
M  V30 9472 C 901.738 -0.429289 1.89703 0
M  V30 9473 O 900.993 -1.33475 1.43119 0
M  V30 9474 C 901.292 1.68345 3.15269 0
M  V30 9475 C 900.958 3.18214 3.19454 0
M  V30 9476 C 899.62 3.59109 3.20303 0
M  V30 9477 C 901.972 4.14179 3.16394 0
M  V30 9478 C 899.3 4.94467 3.15783 0
M  V30 9479 C 901.652 5.49502 3.13416 0
M  V30 9480 C 900.316 5.8979 3.12577 0
M  V30 9481 H 899.586 0.379355 0.63653 0
M  V30 9482 H 902.233 1.51361 1.17312 0
M  V30 9483 H 900.538 1.12957 3.75164 0
M  V30 9484 H 902.235 1.51882 3.71124 0
M  V30 9485 H 898.825 2.85646 3.19538 0
M  V30 9486 H 903.009 3.83607 3.14895 0
M  V30 9487 H 898.265 5.24923 3.13473 0
M  V30 9488 H 902.439 6.23595 3.10003 0
M  V30 9489 H 900.066 6.94643 3.08829 0
M  V30 9490 N 901.641 -1.19671 1.02551 0
M  V30 9491 C 902.571 -2.25009 0.623965 0
M  V30 9492 C 903.552 -1.66129 -0.36538 0
M  V30 9493 O 904.737 -1.92599 -0.248842 0
M  V30 9494 C 901.867 -3.47287 -0.0294869 0
M  V30 9495 C 900.821 -4.18818 0.881781 0
M  V30 9496 C 900.147 -5.34618 0.0936189 0
M  V30 9497 C 901.447 -4.73986 2.19396 0
M  V30 9498 H 903.141 -2.58851 1.50454 0
M  V30 9499 H 900.687 -1.24425 0.724872 0
M  V30 9500 H 902.64 -4.20168 -0.322016 0
M  V30 9501 H 901.364 -3.12635 -0.944838 0
M  V30 9502 H 900.023 -3.47815 1.15845 0
M  V30 9503 H 899.671 -4.9621 -0.823661 0
M  V30 9504 H 899.371 -5.83409 0.700568 0
M  V30 9505 H 900.895 -6.10297 -0.192249 0
M  V30 9506 H 902.309 -5.38639 1.96319 0
M  V30 9507 H 900.706 -5.3325 2.75254 0
M  V30 9508 H 901.776 -3.92238 2.85092 0
M  V30 9509 N 903.119 -0.802921 -1.35613 0
M  V30 9510 C 904.365 -0.391259 -1.99601 0
M  V30 9511 C 904.72 1.02922 -1.62557 0
M  V30 9512 O 904.013 1.70357 -0.876878 0
M  V30 9513 C 904.207 -0.507806 -3.53774 0
M  V30 9514 C 904.036 -1.93807 -4.05794 0
M  V30 9515 C 902.806 -2.56564 -4.3532 0
M  V30 9516 C 905.004 -2.90211 -4.24596 0
M  V30 9517 N 902.986 -3.91038 -4.73247 0
M  V30 9518 C 904.357 -4.09548 -4.65479 0
M  V30 9519 C 906.412 -2.87091 -4.06796 0
M  V30 9520 C 905.115 -5.26191 -4.90424 0
M  V30 9521 C 907.141 -4.02933 -4.32896 0
M  V30 9522 C 906.503 -5.21017 -4.74047 0
M  V30 9523 H 902.602 -0.190867 -0.758349 0
M  V30 9524 H 905.186 -1.04338 -1.64382 0
M  V30 9525 H 903.357 0.114306 -3.88232 0
M  V30 9526 H 905.089 -0.0710855 -4.04638 0
M  V30 9527 H 901.844 -2.07945 -4.25507 0
M  V30 9528 H 902.268 -4.60262 -4.96475 0
M  V30 9529 H 906.91 -1.96951 -3.74126 0
M  V30 9530 H 904.628 -6.16906 -5.2197 0
M  V30 9531 H 908.214 -4.01895 -4.2068 0
M  V30 9532 H 907.094 -6.09165 -4.93849 0
M  V30 9533 N 904.597 1.47463 -0.556102 0
M  V30 9534 C 905.843 2.02775 -0.0316806 0
M  V30 9535 C 906.176 1.42967 1.3143 0
M  V30 9536 O 905.451 0.584847 1.85499 0
M  V30 9537 C 905.734 3.60046 0.0625742 0
M  V30 9538 C 905.587 4.30288 -1.31043 0
M  V30 9539 C 906.906 4.33195 0.776553 0
M  V30 9540 H 904.025 0.736886 -0.0129869 0
M  V30 9541 H 906.667 1.75904 -0.718177 0
M  V30 9542 H 904.817 3.83071 0.647231 0
M  V30 9543 H 906.489 4.18607 -1.9382 0
M  V30 9544 H 904.732 3.90685 -1.8854 0
M  V30 9545 H 905.403 5.38861 -1.1972 0
M  V30 9546 H 907.879 4.15156 0.280147 0
M  V30 9547 H 906.755 5.42869 0.81146 0
M  V30 9548 H 907.016 4.02336 1.83244 0
M  V30 9549 N 906.075 0.2925 1.54862 0
M  V30 9550 C 907.491 -0.0611461 1.59483 0
M  V30 9551 C 907.691 -1.53141 1.30958 0
M  V30 9552 O 906.747 -2.28291 1.07887 0
M  V30 9553 C 908.06 0.329143 2.98893 0
M  V30 9554 C 909.608 0.2772 3.1177 0
M  V30 9555 C 910.083 0.642185 4.53475 0
M  V30 9556 N 911.574 0.594396 4.5937 0
M  V30 9557 C 912.309 0.849385 5.67074 0
M  V30 9558 N 911.805 1.1699 6.82851 0
M  V30 9559 N 913.598 0.777016 5.56704 0
M  V30 9560 H 905.749 1.25079 1.71665 0
M  V30 9561 H 908.012 0.506516 0.80134 0
M  V30 9562 H 907.718 1.35233 3.24661 0
M  V30 9563 H 907.592 -0.321442 3.75828 0
M  V30 9564 H 909.979 -0.736725 2.85756 0
M  V30 9565 H 910.06 0.962289 2.3701 0
M  V30 9566 H 909.704 1.65388 4.80218 0
M  V30 9567 H 909.634 -0.0648831 5.2656 0
M  V30 9568 H 912.125 0.357256 3.76208 0
M  V30 9569 H 912.438 1.35067 7.60905 0
M  V30 9570 H 910.783 1.20785 6.84424 0
M  V30 9571 H 913.974 0.526333 4.65132 0
M  V30 9572 H 914.147 0.979113 6.4056 0
M  V30 9573 N 907.553 -1.57587 0.0200696 0
M  V30 9574 C 908.964 -1.79312 -0.520019 0
M  V30 9575 C 909.315 -0.929475 -1.72787 0
M  V30 9576 O 908.44 -0.137389 -2.15963 0
M  V30 9577 C 909.035 -3.25203 -0.950172 0
M  V30 9578 C 907.594 -3.47954 -1.43543 0
M  V30 9579 C 906.741 -2.74459 -0.395917 0
M  V30 9580 H 909.692 -1.56779 0.246153 0
M  V30 9581 H 909.713 -3.34418 -1.81508 0
M  V30 9582 H 909.225 -3.88035 -0.070883 0
M  V30 9583 H 907.326 -2.90363 -2.33495 0
M  V30 9584 H 907.439 -4.56661 -1.44905 0
M  V30 9585 H 905.803 -2.39669 -0.862022 0
M  V30 9586 H 906.586 -3.40001 0.47475 0
M  V30 9587 N 909.032 0.252966 -1.55557 0
M  V30 9588 C 909.98 1.33289 -1.90622 0
M  V30 9589 C 910.974 1.50133 -0.784638 0
M  V30 9590 O 912.18 1.51679 -0.969196 0
M  V30 9591 H 908.555 0.446196 -0.605321 0
M  V30 9592 H 910.526 1.00977 -2.80796 0
M  V30 9593 C 909.275 2.68254 -2.21213 0
M  V30 9594 H 908.598 2.5609 -3.07014 0
M  V30 9595 H 910.038 3.42707 -2.49656 0
M  V30 9596 C 908.497 3.20884 -1.02642 0
M  V30 9597 O 909.027 4.00783 -0.271292 0
M  V30 9598 N 907.233 2.7883 -0.818682 0
M  V30 9599 H 906.78 2.13966 -1.43444 0
M  V30 9600 H 906.738 3.14388 -0.0269989 0
M  V30 9601 N 910.51 1.48831 0.518367 0
M  V30 9602 C 911.758 1.57128 1.27103 0
M  V30 9603 C 912.079 0.252098 1.93364 0
M  V30 9604 O 911.349 -0.727281 1.819 0
M  V30 9605 H 909.929 0.578891 0.472116 0
M  V30 9606 H 912.591 1.85361 0.602262 0
M  V30 9607 H 911.687 2.35838 2.04418 0
M  V30 9608 N 911.988 -0.768124 1.37614 0
M  V30 9609 C 913.404 -1.06919 1.18493 0
M  V30 9610 C 913.604 -2.01486 0.0235753 0
M  V30 9611 O 912.66 -2.4438 -0.635209 0
M  V30 9612 C 913.973 -1.66321 2.50515 0
M  V30 9613 C 915.521 -1.78562 2.57069 0
M  V30 9614 C 915.996 -2.41377 3.89231 0
M  V30 9615 N 917.487 -2.48824 3.90693 0
M  V30 9616 C 918.222 -2.98288 4.89706 0
M  V30 9617 N 917.718 -3.47897 5.99115 0
M  V30 9618 N 919.511 -2.97196 4.77107 0
M  V30 9619 H 911.662 -0.140286 2.11936 0
M  V30 9620 H 913.925 -0.124863 0.939741 0
M  V30 9621 H 913.631 -1.04303 3.35878 0
M  V30 9622 H 913.505 -2.65571 2.67866 0
M  V30 9623 H 915.892 -2.39712 1.72111 0
M  V30 9624 H 915.973 -0.780574 2.43599 0
M  V30 9625 H 915.617 -1.80866 4.74605 0
M  V30 9626 H 915.547 -3.42495 4.00006 0
M  V30 9627 H 918.038 -2.1372 3.1166 0
M  V30 9628 H 918.351 -3.84053 6.70614 0
M  V30 9629 H 916.696 -3.45993 6.02755 0
M  V30 9630 H 919.887 -2.57741 3.90752 0
M  V30 9631 H 920.06 -3.35434 5.54426 0
M  V30 9632 N 913.466 -1.22244 -0.994698 0
M  V30 9633 C 914.712 -1.04746 -1.73655 0
M  V30 9634 C 915.045 0.41668 -1.89677 0
M  V30 9635 O 914.32 1.30897 -1.43862 0
M  V30 9636 C 914.603 -1.75716 -3.14318 0
M  V30 9637 C 914.456 -3.29714 -3.05955 0
M  V30 9638 C 915.775 -1.50809 -4.13455 0
M  V30 9639 H 912.894 -0.381921 -0.630322 0
M  V30 9640 H 915.536 -1.50559 -1.15897 0
M  V30 9641 H 913.686 -1.3677 -3.63629 0
M  V30 9642 H 915.358 -3.78093 -2.64279 0
M  V30 9643 H 913.601 -3.59484 -2.42804 0
M  V30 9644 H 914.272 -3.74547 -4.05485 0
M  V30 9645 H 916.748 -1.84636 -3.72892 0
M  V30 9646 H 915.624 -2.02964 -5.09997 0
M  V30 9647 H 915.885 -0.440292 -4.39902 0
M  V30 9648 N 914.944 1.19125 -1.03184 0
M  V30 9649 C 916.192 1.8851 -0.728587 0
M  V30 9650 C 916.513 1.80195 0.74531 0
M  V30 9651 O 915.783 1.21437 1.5372 0
M  V30 9652 H 914.363 0.69784 -0.266511 0
M  V30 9653 H 917.025 1.44607 -1.3067 0
M  V30 9654 H 916.121 2.9477 -1.02554 0
M  V30 9655 N 916.422 0.810101 1.35185 0
M  V30 9656 C 917.833 0.452616 1.81131 0
M  V30 9657 C 918.184 -1.02573 1.67252 0
M  V30 9658 O 917.309 -1.79735 1.20516 0
M  V30 9659 C 917.904 0.814775 3.28857 0
M  V30 9660 C 916.463 0.509839 3.72931 0
M  V30 9661 C 915.61 1.03852 2.57119 0
M  V30 9662 H 918.561 1.00143 1.23114 0
M  V30 9663 H 918.582 0.113635 3.8033 0
M  V30 9664 H 918.094 1.89078 3.38926 0
M  V30 9665 H 916.195 -0.557289 3.68409 0
M  V30 9666 H 916.308 1.04493 4.67566 0
M  V30 9667 H 914.672 0.460671 2.50499 0
M  V30 9668 H 915.455 2.12071 2.69964 0
M  V30 9669 N 917.9 -1.47166 0.563914 0
M  V30 9670 C 918.83 -2.32894 -0.168148 0
M  V30 9671 C 919.811 -1.44202 -0.902214 0
M  V30 9672 O 920.996 -1.73048 -0.881365 0
M  V30 9673 C 918.126 -3.26116 -1.19439 0
M  V30 9674 C 917.08 -4.24101 -0.576363 0
M  V30 9675 C 916.406 -5.06696 -1.70772 0
M  V30 9676 C 917.706 -5.20142 0.47425 0
M  V30 9677 H 919.4 -2.9435 0.547573 0
M  V30 9678 H 916.946 -1.41545 0.264778 0
M  V30 9679 H 918.899 -3.84935 -1.71474 0
M  V30 9680 H 917.623 -2.62728 -1.94014 0
M  V30 9681 H 916.282 -3.66519 -0.0772534 0
M  V30 9682 H 915.93 -4.39707 -2.44268 0
M  V30 9683 H 915.63 -5.7304 -1.29994 0
M  V30 9684 H 917.154 -5.68375 -2.2312 0
M  V30 9685 H 918.568 -5.73286 0.0397035 0
M  V30 9686 H 916.965 -5.94726 0.801287 0
M  V30 9687 H 918.035 -4.65214 1.36764 0
M  V30 9688 N 919.378 -0.300708 -1.54705 0
M  V30 9689 C 920.624 0.309111 -2.0043 0
M  V30 9690 C 920.957 1.53562 -1.1888 0
M  V30 9691 O 920.232 1.92683 -0.265205 0
M  V30 9692 C 920.515 0.665995 -3.53888 0
M  V30 9693 C 920.368 -0.56963 -4.46178 0
M  V30 9694 C 921.687 1.49262 -4.14016 0
M  V30 9695 H 918.806 0.110878 -0.728612 0
M  V30 9696 H 921.448 -0.412748 -1.85463 0
M  V30 9697 H 919.598 1.281 -3.66773 0
M  V30 9698 H 921.27 -1.20811 -4.45199 0
M  V30 9699 H 919.513 -1.20292 -4.16788 0
M  V30 9700 H 920.184 -0.275785 -5.51311 0
M  V30 9701 H 922.66 0.972979 -4.04564 0
M  V30 9702 H 921.536 1.71111 -5.21548 0
M  V30 9703 H 921.797 2.48174 -3.65872 0
M  V30 9704 N 920.856 1.57574 -0.0284266 0
M  V30 9705 C 921.819 2.09096 0.938691 0
M  V30 9706 C 922.819 1.00588 1.25454 0
M  V30 9707 O 924.009 1.2675 1.19499 0
M  V30 9708 C 921.141 2.55624 2.25542 0
M  V30 9709 H 922.334 2.95829 0.49248 0
M  V30 9710 H 919.887 1.5475 0.219594 0
M  V30 9711 H 920.622 1.72218 2.74793 0
M  V30 9712 H 920.407 3.34896 2.03929 0
M  V30 9713 H 921.897 2.95712 2.94863 0
M  V30 9714 N 922.334 -0.244713 1.55689 0
M  V30 9715 C 923.582 -0.970525 1.77272 0
M  V30 9716 C 923.903 -1.85771 0.592804 0
M  V30 9717 O 923.173 -1.91952 -0.391323 0
M  V30 9718 H 921.753 -0.361342 0.653789 0
M  V30 9719 H 924.415 -0.262134 1.93129 0
M  V30 9720 H 923.511 -1.59096 2.68505 0
M  V30 9721 N 923.813 -1.49104 -0.510467 0
M  V30 9722 C 925.229 -1.35657 -0.840797 0
M  V30 9723 C 925.429 -0.382425 -1.97838 0
M  V30 9724 O 924.485 0.189331 -2.51789 0
M  V30 9725 C 925.798 -2.76155 -1.18992 0
M  V30 9726 C 927.346 -2.84786 -1.29868 0
M  V30 9727 C 927.821 -4.2603 -1.68115 0
M  V30 9728 N 929.312 -4.28796 -1.75181 0
M  V30 9729 C 930.047 -5.35041 -2.062 0
M  V30 9730 N 929.543 -6.51543 -2.35508 0
M  V30 9731 N 931.336 -5.2245 -2.07371 0
M  V30 9732 H 923.487 -2.11042 0.23982 0
M  V30 9733 H 925.75 -0.946946 0.0446824 0
M  V30 9734 H 925.456 -3.49092 -0.427484 0
M  V30 9735 H 925.33 -3.10922 -2.13558 0
M  V30 9736 H 927.717 -2.12092 -2.05186 0
M  V30 9737 H 927.798 -2.53613 -0.333758 0
M  V30 9738 H 927.442 -4.99247 -0.933512 0
M  V30 9739 H 927.372 -4.5466 -2.65691 0
M  V30 9740 H 929.863 -3.44771 -1.5473 0
M  V30 9741 H 930.176 -7.28342 -2.58337 0
M  V30 9742 H 928.521 -6.54785 -2.32985 0
M  V30 9743 H 931.712 -4.30444 -1.83945 0
M  V30 9744 H 931.885 -6.05347 -2.31212 0
M  V30 9745 N 925.291 0.760815 -1.38019 0
M  V30 9746 C 926.707 1.06289 -1.19058 0
M  V30 9747 C 926.907 2.01471 -0.0342603 0
M  V30 9748 O 925.963 2.44713 0.62224 0
M  V30 9749 C 927.276 1.6499 -2.51394 0
M  V30 9750 C 928.824 1.77196 -2.58013 0
M  V30 9751 C 929.299 2.3931 -3.90506 0
M  V30 9752 N 930.79 2.46749 -3.92007 0
M  V30 9753 C 931.525 2.95687 -4.91281 0
M  V30 9754 N 931.021 3.44715 -6.00952 0
M  V30 9755 N 932.814 2.94661 -4.78677 0
M  V30 9756 H 924.965 0.129045 -2.12008 0
M  V30 9757 H 927.228 0.119878 -0.94039 0
M  V30 9758 H 926.934 1.0252 -3.36426 0
M  V30 9759 H 926.808 2.64146 -2.6927 0
M  V30 9760 H 929.195 2.38796 -1.7338 0
M  V30 9761 H 929.276 0.767645 -2.4401 0
M  V30 9762 H 928.92 1.78346 -4.75558 0
M  V30 9763 H 928.85 3.40369 -4.01817 0
M  V30 9764 H 931.341 2.12064 -3.12789 0
M  V30 9765 H 931.654 3.80492 -6.72641 0
M  V30 9766 H 929.999 3.42791 -6.04582 0
M  V30 9767 H 933.19 2.55665 -3.92113 0
M  V30 9768 H 933.363 3.32489 -5.56197 0
M  V30 9769 N 926.769 1.22769 0.988202 0
M  V30 9770 C 928.18 1.0512 1.54294 0
M  V30 9771 C 928.531 -0.383904 1.92407 0
M  V30 9772 O 927.656 -1.26955 1.75246 0
M  V30 9773 C 928.251 1.90198 2.80375 0
M  V30 9774 C 926.81 1.76831 3.32276 0
M  V30 9775 C 925.957 1.86377 2.05326 0
M  V30 9776 H 928.908 1.36546 0.808758 0
M  V30 9777 H 928.929 1.42216 3.52923 0
M  V30 9778 H 928.441 2.9464 2.52605 0
M  V30 9779 H 926.542 0.751412 3.64945 0
M  V30 9780 H 926.655 2.59771 4.02562 0
M  V30 9781 H 925.019 1.2987 2.19103 0
M  V30 9782 H 925.802 2.9236 1.79946 0
M  V30 9783 N 928.247 -1.18576 1.03814 0
M  V30 9784 C 929.472 -1.92978 0.759873 0
M  V30 9785 C 929.897 -1.75514 -0.676486 0
M  V30 9786 O 929.255 -1.06359 -1.46824 0
M  V30 9787 C 929.303 -3.42507 1.12788 0
M  V30 9788 O 928.407 -4.1163 0.251886 0
M  V30 9789 H 927.748 -0.602129 0.279886 0
M  V30 9790 H 930.278 -1.50383 1.3873 0
M  V30 9791 H 930.288 -3.93206 1.08872 0
M  V30 9792 H 928.963 -3.5454 2.17427 0
M  V30 9793 H 927.54 -3.7125 0.350441 0
M  V30 9794 N 929.725 -0.817259 -1.34754 0
M  V30 9795 C 930.688 -0.240611 -2.27934 0
M  V30 9796 C 931.688 0.578219 -1.50044 0
M  V30 9797 O 932.878 0.395148 -1.69659 0
M  V30 9798 C 930.01 0.663318 -3.34384 0
M  V30 9799 H 931.203 -1.06257 -2.80445 0
M  V30 9800 H 928.756 -0.588697 -1.4479 0
M  V30 9801 H 929.491 1.50855 -2.87077 0
M  V30 9802 H 929.276 0.0777388 -3.92023 0
M  V30 9803 H 930.766 1.06076 -4.03903 0
M  V30 9804 N 931.203 1.46865 -0.571711 0
M  V30 9805 C 932.133 2.3298 0.155795 0
M  V30 9806 C 933.114 1.44678 0.894553 0
M  V30 9807 O 934.299 1.73513 0.872176 0
M  V30 9808 C 931.429 3.26745 1.17708 0
M  V30 9809 C 930.383 4.24401 0.553863 0
M  V30 9810 C 929.709 5.07595 1.68083 0
M  V30 9811 C 931.009 5.19884 -0.501827 0
M  V30 9812 H 932.703 2.94056 -0.563176 0
M  V30 9813 H 930.249 1.41402 -0.27228 0
M  V30 9814 H 932.202 3.85838 1.6943 0
M  V30 9815 H 930.926 2.63753 1.92618 0
M  V30 9816 H 929.585 3.66554 0.057815 0
M  V30 9817 H 929.233 4.40996 2.41933 0
M  V30 9818 H 928.933 5.73722 1.26953 0
M  V30 9819 H 930.457 5.6955 2.20103 0
M  V30 9820 H 931.871 5.73257 -0.0701057 0
M  V30 9821 H 930.268 5.94293 -0.832815 0
M  V30 9822 H 931.338 4.64482 -1.39229 0
M  V30 9823 N 932.681 0.308908 1.54543 0
M  V30 9824 C 933.906 -0.303196 2.05172 0
M  V30 9825 C 934.331 -1.46133 1.18434 0
M  V30 9826 O 933.689 -1.803 0.190162 0
M  V30 9827 C 933.737 -0.729526 3.53143 0
M  V30 9828 O 932.841 -1.83348 3.69401 0
M  V30 9829 H 932.182 -0.0575066 0.661505 0
M  V30 9830 H 934.712 0.453055 1.99521 0
M  V30 9831 H 934.722 -1.01619 3.95143 0
M  V30 9832 H 933.397 0.117622 4.15734 0
M  V30 9833 H 931.974 -1.54676 3.39308 0
M  V30 9834 N 934.159 -1.57557 0.0367827 0
M  V30 9835 C 935.091 -2.07597 -0.971395 0
M  V30 9836 C 936.104 -1.0009 -1.28397 0
M  V30 9837 O 937.293 -1.27692 -1.24728 0
M  V30 9838 C 934.393 -2.492 -2.2968 0
M  V30 9839 C 933.566 -3.79875 -2.16826 0
M  V30 9840 C 932.625 -4.07946 -3.32366 0
M  V30 9841 O 931.651 -4.78083 -3.0891 0
M  V30 9842 N 932.853 -3.58722 -4.56397 0
M  V30 9843 H 935.618 -2.94714 -0.544389 0
M  V30 9844 H 933.179 -1.61205 -0.1498 0
M  V30 9845 H 935.171 -2.65065 -3.05815 0
M  V30 9846 H 933.741 -1.67407 -2.63995 0
M  V30 9847 H 932.961 -3.73732 -1.2537 0
M  V30 9848 H 934.249 -4.65476 -2.0545 0
M  V30 9849 H 933.647 -3.01994 -4.78347 0
M  V30 9850 H 932.204 -3.79852 -5.29675 0
M  V30 9851 N 935.637 0.236453 -1.55816 0
M  V30 9852 C 936.885 0.96111 -1.77784 0
M  V30 9853 C 937.206 1.85454 -0.602648 0
M  V30 9854 O 936.476 1.92157 0.381137 0
M  V30 9855 H 935.056 0.35787 -0.655697 0
M  V30 9856 H 937.718 0.251888 -1.93265 0
M  V30 9857 H 936.814 1.5767 -2.69345 0
M  V30 9858 N 937.115 1.49373 0.502552 0
M  V30 9859 C 938.531 1.36101 0.833591 0
M  V30 9860 C 938.731 0.392911 1.97632 0
M  V30 9861 O 937.787 -0.175975 2.51886 0
M  V30 9862 C 939.1 2.76782 1.17526 0
M  V30 9863 C 940.648 2.85471 1.28356 0
M  V30 9864 C 941.123 4.26915 1.65853 0
M  V30 9865 N 942.614 4.29719 1.72905 0
M  V30 9866 C 943.349 5.36127 2.0336 0
M  V30 9867 N 942.845 6.52782 2.32049 0
M  V30 9868 N 944.638 5.23542 2.04598 0
M  V30 9869 H 936.789 2.10912 -0.251008 0
M  V30 9870 H 939.052 0.946696 -0.0497037 0
M  V30 9871 H 938.758 3.49314 0.408965 0
M  V30 9872 H 938.632 3.1205 2.11907 0
M  V30 9873 H 941.019 2.13177 2.04058 0
M  V30 9874 H 941.1 2.53787 0.320304 0
M  V30 9875 H 940.744 4.99735 0.907022 0
M  V30 9876 H 940.674 4.56063 2.63276 0
M  V30 9877 H 943.165 3.45586 1.529 0
M  V30 9878 H 943.478 7.29701 2.54471 0
M  V30 9879 H 941.823 6.56011 2.29509 0
M  V30 9880 H 945.014 4.31413 1.8166 0
M  V30 9881 H 945.187 6.06565 2.27998 0
M  V30 9882 N 938.594 -0.753485 1.38421 0
M  V30 9883 C 939.842 -1.50962 1.34368 0
M  V30 9884 C 940.163 -1.94889 -0.0656895 0
M  V30 9885 O 939.433 -1.67652 -1.01339 0
M  V30 9886 H 938.013 -0.559967 0.494415 0
M  V30 9887 H 940.675 -0.895665 1.73101 0
M  V30 9888 H 939.771 -2.40048 1.99458 0
M  V30 9889 N 940.072 -1.23292 -0.981677 0
M  V30 9890 C 941.004 -0.970782 -2.07626 0
M  V30 9891 C 942.017 0.0547506 -1.62708 0
M  V30 9892 O 943.206 -0.180623 -1.77584 0
M  V30 9893 C 940.306 -0.44055 -3.36024 0
M  V30 9894 C 939.479 -1.52595 -4.09919 0
M  V30 9895 C 938.538 -1.00082 -5.16595 0
M  V30 9896 O 937.564 -1.68951 -5.43548 0
M  V30 9897 N 938.766 0.172017 -5.80245 0
M  V30 9898 H 941.531 -1.91316 -2.30691 0
M  V30 9899 H 939.092 -1.14133 -1.14828 0
M  V30 9900 H 941.084 -0.0743111 -4.04632 0
M  V30 9901 H 939.654 0.407211 -3.09936 0
M  V30 9902 H 938.874 -2.06501 -3.35784 0
M  V30 9903 H 940.162 -2.2559 -4.56055 0
M  V30 9904 H 939.56 0.748129 -5.60731 0
M  V30 9905 H 938.117 0.479532 -6.50034 0
M  V30 9906 N 941.55 1.18024 -1.04442 0
M  V30 9907 C 942.827 1.8398 -0.664125 0
M  V30 9908 C 943.207 1.92961 0.856116 0
M  V30 9909 O 942.555 1.45839 1.75907 0
M  V30 9910 C 942.765 3.22069 -1.34433 0
M  V30 9911 C 944.113 3.98063 -1.47754 0
M  V30 9912 O 945.137 3.31523 -1.30274 0
M  V30 9913 O 943.996 5.17291 -1.76272 0
M  V30 9914 H 941.09 0.793543 -0.23285 0
M  V30 9915 H 943.636 1.25385 -1.14354 0
M  V30 9916 H 942.408 3.10458 -2.38184 0
M  V30 9917 H 942.031 3.88325 -0.853782 0
M  V30 9918 N 943.028 0.824394 1.34319 0
M  V30 9919 C 943.958 0.262077 2.32025 0
M  V30 9920 C 944.939 -0.622277 1.58309 0
M  V30 9921 O 946.124 -0.548848 1.86283 0
M  V30 9922 C 943.254 -0.57567 3.42496 0
M  V30 9923 C 942.208 0.21167 4.27476 0
M  V30 9924 C 941.534 -0.748913 5.29429 0
M  V30 9925 C 942.834 1.42068 5.02607 0
M  V30 9926 H 944.528 1.07842 2.79304 0
M  V30 9927 H 942.074 0.520022 1.34282 0
M  V30 9928 H 944.027 -0.979251 4.09864 0
M  V30 9929 H 942.751 -1.42508 2.93869 0
M  V30 9930 H 941.41 0.596636 3.61712 0
M  V30 9931 H 941.058 -1.59432 4.77064 0
M  V30 9932 H 940.758 -0.226313 5.87164 0
M  V30 9933 H 942.282 -1.15032 5.99667 0
M  V30 9934 H 943.696 1.09103 5.62823 0
M  V30 9935 H 942.093 1.87903 5.69923 0
M  V30 9936 H 943.163 2.1981 4.32217 0
M  V30 9937 N 944.506 -1.46559 0.579492 0
M  V30 9938 C 945.436 -2.33059 -0.143437 0
M  V30 9939 C 946.417 -1.4515 -0.886868 0
M  V30 9940 O 947.602 -1.73973 -0.862961 0
M  V30 9941 C 944.732 -3.27364 -1.15973 0
M  V30 9942 C 943.686 -4.24689 -0.531348 0
M  V30 9943 C 943.012 -5.08479 -1.65388 0
M  V30 9944 C 944.312 -5.1961 0.529391 0
M  V30 9945 H 946.006 -2.93753 0.578762 0
M  V30 9946 H 943.552 -1.41256 0.279775 0
M  V30 9947 H 945.505 -3.86732 -1.67382 0
M  V30 9948 H 944.229 -2.64771 -1.91217 0
M  V30 9949 H 942.888 -3.6658 -0.0383749 0
M  V30 9950 H 942.536 -4.42273 -2.3959 0
M  V30 9951 H 942.236 -5.74387 -1.23909 0
M  V30 9952 H 943.76 -5.70709 -2.17079 0
M  V30 9953 H 945.174 -5.73212 0.100506 0
M  V30 9954 H 943.571 -5.93843 0.86432 0
M  V30 9955 H 944.641 -4.63737 1.4169 0
M  V30 9956 N 945.984 -0.3171 -1.54377 0
M  V30 9957 C 947.209 0.292311 -2.0533 0
M  V30 9958 C 947.634 1.45503 -1.19207 0
M  V30 9959 O 946.992 1.80197 -0.199721 0
M  V30 9960 C 947.04 0.710787 -3.53525 0
M  V30 9961 O 946.144 1.81387 -3.70368 0
M  V30 9962 H 945.485 0.0539976 -0.661801 0
M  V30 9963 H 948.015 -0.463629 -1.99278 0
M  V30 9964 H 948.025 0.995216 -3.95676 0
M  V30 9965 H 946.7 -0.139668 -4.15665 0
M  V30 9966 H 945.277 1.52875 -3.40123 0
M  V30 9967 N 947.462 1.57535 -0.0451378 0
M  V30 9968 C 948.69 1.96761 0.639742 0
M  V30 9969 C 949.105 0.922405 1.64734 0
M  V30 9970 O 948.462 -0.0940535 1.82257 0
M  V30 9971 C 948.513 3.36066 1.33199 0
M  V30 9972 O 948.234 4.36579 0.364757 0
M  V30 9973 C 949.735 3.90015 2.1072 0
M  V30 9974 H 946.955 0.64769 0.175324 0
M  V30 9975 H 949.499 2.04206 -0.109651 0
M  V30 9976 H 947.654 3.2979 2.03266 0
M  V30 9977 H 948.068 5.17432 0.858168 0
M  V30 9978 H 949.542 4.89785 2.54586 0
M  V30 9979 H 950.019 3.25117 2.95288 0
M  V30 9980 H 950.625 3.99609 1.45577 0
M  V30 9981 N 948.94 -0.228186 1.55939 0
M  V30 9982 C 950.186 -0.954964 1.78909 0
M  V30 9983 C 950.519 -1.8425 0.613648 0
M  V30 9984 O 949.794 -1.90604 -0.38737 0
M  V30 9985 C 950.077 -1.79957 3.1191 0
M  V30 9986 C 949.93 -0.938968 4.3989 0
M  V30 9987 C 951.249 -2.77859 3.41295 0
M  V30 9988 H 948.368 -0.345745 0.650868 0
M  V30 9989 H 951.01 -0.224244 1.88672 0
M  V30 9990 H 949.16 -2.42256 3.03717 0
M  V30 9991 H 950.832 -0.333225 4.60095 0
M  V30 9992 H 949.075 -0.244096 4.33113 0
M  V30 9993 H 949.746 -1.56416 5.29375 0
M  V30 9994 H 952.222 -2.25695 3.49572 0
M  V30 9995 H 951.098 -3.34062 4.35538 0
M  V30 9996 H 951.359 -3.55266 2.63132 0
M  V30 9997 N 950.418 -1.49637 -0.494624 0
M  V30 9998 C 951.643 -1.63431 -1.27691 0
M  V30 9999 C 952.068 -0.30813 -1.85559 0
M  V30 10000 O 951.426 0.725083 -1.66169 0
M  V30 10001 C 951.474 -2.71043 -2.3784 0
M  V30 10002 O 950.578 -2.3066 -3.41862 0
M  V30 10003 H 949.919 -0.546804 -0.376698 0
M  V30 10004 H 952.449 -1.95866 -0.591413 0
M  V30 10005 H 952.459 -2.93406 -2.83508 0
M  V30 10006 H 951.134 -3.67306 -1.95088 0
M  V30 10007 H 949.711 -2.18652 -3.02069 0
M  V30 10008 N 951.896 0.746133 -1.38819 0
M  V30 10009 C 953.145 1.50085 -1.34749 0
M  V30 10010 C 953.458 1.95516 0.0574786 0
M  V30 10011 O 954.664 2.70601 0.22073 0
M  V30 10012 C 953.12 2.71141 -2.36665 0
M  V30 10013 C 952.728 2.32706 -3.82821 0
M  V30 10014 C 954.472 3.49005 -2.41652 0
M  V30 10015 C 952.379 3.50418 -4.76405 0
M  V30 10016 H 951.309 0.563563 -0.500912 0
M  V30 10017 H 953.96 0.814951 -1.6441 0
M  V30 10018 H 952.342 3.4175 -2.00058 0
M  V30 10019 H 953.516 1.69715 -4.28408 0
M  V30 10020 H 951.831 1.67959 -3.81023 0
M  V30 10021 H 954.428 4.36541 -3.08766 0
M  V30 10022 H 954.771 3.90687 -1.43769 0
M  V30 10023 H 955.304 2.85416 -2.77097 0
M  V30 10024 H 952.043 3.13795 -5.75511 0
M  V30 10025 H 951.563 4.12426 -4.35505 0
M  V30 10026 H 953.242 4.16901 -4.94775 0
M  V30 10027 N 953.375 1.23811 0.975125 0
M  V30 10028 C 954.791 1.0019 1.24234 0
M  V30 10029 C 954.991 -0.293811 1.99346 0
M  V30 10030 O 954.047 -1.01189 2.31337 0
M  V30 10031 C 955.36 2.21218 2.03674 0
M  V30 10032 C 956.908 2.25764 2.16793 0
M  V30 10033 C 957.383 3.46394 2.99626 0
M  V30 10034 N 958.874 3.46665 3.07209 0
M  V30 10035 C 959.609 4.3666 3.71639 0
M  V30 10036 N 959.105 5.36899 4.37849 0
M  V30 10037 N 960.898 4.2439 3.68578 0
M  V30 10038 H 953.049 2.07087 0.472076 0
M  V30 10039 H 955.312 0.90838 0.271201 0
M  V30 10040 H 955.018 3.15277 1.55862 0
M  V30 10041 H 954.892 2.22733 3.04417 0
M  V30 10042 H 957.279 1.32242 2.63811 0
M  V30 10043 H 957.36 2.28279 1.15422 0
M  V30 10044 H 957.004 4.40227 2.53304 0
M  V30 10045 H 956.934 3.41121 4.01178 0
M  V30 10046 H 959.425 2.74142 2.60105 0
M  V30 10047 H 959.738 6.01816 4.84807 0
M  V30 10048 H 958.083 5.40793 4.36541 0
M  V30 10049 H 961.274 3.4532 3.16025 0
M  V30 10050 H 961.447 4.94727 4.18508 0
M  V30 10051 N 954.853 -1.17469 1.05066 0
M  V30 10052 C 956.083 -1.91343 0.779202 0
M  V30 10053 C 956.491 -1.76986 -0.668764 0
M  V30 10054 O 955.834 -1.1037 -1.46848 0
M  V30 10055 C 955.896 -3.42938 1.0786 0
M  V30 10056 C 955.56 -3.81076 2.52249 0
M  V30 10057 C 956.557 -3.84027 3.50456 0
M  V30 10058 C 954.242 -4.12076 2.87225 0
M  V30 10059 C 956.236 -4.17445 4.81683 0
M  V30 10060 C 953.923 -4.45163 4.18656 0
M  V30 10061 C 954.921 -4.47825 5.15696 0
M  V30 10062 O 954.609 -4.80133 6.44769 0
M  V30 10063 H 954.341 -0.613974 0.282863 0
M  V30 10064 H 956.895 -1.49907 1.40417 0
M  V30 10065 H 955.125 -3.84662 0.39653 0
M  V30 10066 H 956.814 -3.98071 0.793357 0
M  V30 10067 H 957.58 -3.60203 3.24775 0
M  V30 10068 H 953.459 -4.09176 2.12358 0
M  V30 10069 H 957.003 -4.19437 5.57421 0
M  V30 10070 H 952.9 -4.68449 4.44101 0
M  V30 10071 H 953.668 -4.97995 6.49571 0
M  V30 10072 N 956.331 -0.831506 -1.3388 0
M  V30 10073 C 957.556 -0.435954 -2.02766 0
M  V30 10074 C 957.981 0.952889 -1.62178 0
M  V30 10075 O 957.339 1.62166 -0.810681 0
M  V30 10076 C 957.387 -0.555907 -3.56289 0
M  V30 10077 O 956.491 0.420826 -4.10247 0
M  V30 10078 H 955.832 -0.178248 -0.639628 0
M  V30 10079 H 958.362 -1.1243 -1.70941 0
M  V30 10080 H 958.372 -0.434831 -4.05676 0
M  V30 10081 H 957.047 -1.56881 -3.85177 0
M  V30 10082 H 955.624 0.257919 -3.72007 0
M  V30 10083 N 957.809 1.4625 -0.587256 0
M  V30 10084 C 959.057 2.01963 -0.0744273 0
M  V30 10085 C 959.378 1.46065 1.29189 0
M  V30 10086 O 958.648 0.647077 1.84905 0
M  V30 10087 H 957.228 0.746597 -0.0245236 0
M  V30 10088 H 959.89 1.79299 -0.764063 0
M  V30 10089 H 958.986 3.12099 -0.00884894 0
M  V30 10090 N 959.287 0.325282 1.54207 0
M  V30 10091 C 960.237 -0.55548 2.2113 0
M  V30 10092 C 961.221 -1.0803 1.19241 0
M  V30 10093 O 962.413 -1.01703 1.44864 0
M  V30 10094 C 959.542 -1.71504 2.97391 0
M  V30 10095 C 958.628 -1.20503 4.0662 0
M  V30 10096 N 959.019 -0.414838 5.04096 0
M  V30 10097 C 957.317 -1.4836 4.20601 0
M  V30 10098 C 958.018 -0.140225 5.81531 0
M  V30 10099 N 956.994 -0.72683 5.38719 0
M  V30 10100 H 960.796 0.0555192 2.93848 0
M  V30 10101 H 958.31 0.131225 1.61869 0
M  V30 10102 H 960.307 -2.35781 3.43821 0
M  V30 10103 H 958.967 -2.3295 2.26195 0
M  V30 10104 H 959.978 -0.0575291 5.17868 0
M  V30 10105 H 956.655 -2.10378 3.60621 0
M  V30 10106 H 958.045 0.496026 6.70067 0
M  V30 10107 N 960.765 -1.57509 0.0534917 0
M  V30 10108 C 961.99 -1.97511 -0.632794 0
M  V30 10109 C 962.415 -0.930947 -1.63447 0
M  V30 10110 O 961.773 0.105558 -1.80992 0
M  V30 10111 C 961.821 -3.3658 -1.29407 0
M  V30 10112 O 960.925 -3.3467 -2.40977 0
M  V30 10113 H 960.266 -0.643349 -0.16431 0
M  V30 10114 H 962.796 -2.04232 0.12258 0
M  V30 10115 H 962.806 -3.73359 -1.64521 0
M  V30 10116 H 961.481 -4.12113 -0.559976 0
M  V30 10117 H 960.058 -3.09639 -2.07793 0
M  V30 10118 N 962.243 0.219913 -1.56058 0
M  V30 10119 C 963.173 1.27572 -1.9557 0
M  V30 10120 C 964.154 1.48801 -0.824148 0
M  V30 10121 O 965.339 1.60957 -1.08658 0
M  V30 10122 C 962.469 2.62517 -2.27381 0
M  V30 10123 C 961.423 2.55941 -3.43042 0
M  V30 10124 C 960.749 3.94931 -3.60463 0
M  V30 10125 C 962.049 2.10584 -4.77966 0
M  V30 10126 H 963.743 0.947482 -2.84013 0
M  V30 10127 H 961.289 0.454337 -1.36645 0
M  V30 10128 H 963.242 3.36538 -2.53615 0
M  V30 10129 H 961.966 2.97031 -1.35794 0
M  V30 10130 H 960.625 1.84377 -3.1686 0
M  V30 10131 H 960.273 4.26756 -2.66249 0
M  V30 10132 H 959.973 3.91413 -4.38258 0
M  V30 10133 H 961.497 4.70611 -3.89046 0
M  V30 10134 H 962.911 2.74349 -5.03394 0
M  V30 10135 H 961.308 2.18122 -5.59055 0
M  V30 10136 H 962.378 1.05818 -4.73213 0
M  V30 10137 O 963.76 1.57313 0.365352 0
M  V30 10138 H 964.451 1.64911 1.01607 0
M  V30 END ATOM
M  V30 BEGIN BOND
M  V30 END BOND
M  V30 END CTAB
M  END
$$$$
