drugbank_target|P07358 Complement component C8 beta chain (DB01593; DB09130; DB14487)
 OpenBabel12092121073D

  0  0  0     0  0            999 V3000
M  V30 BEGIN CTAB
M  V30 COUNTS 9250 9360 0 0 0
M  V30 BEGIN ATOM
M  V30 1 H -0.908 1.98254 -0.117106 0
M  V30 2 N 0 1.576 0 0
M  V30 3 C 0.933 2.03868 1.02534 0
M  V30 4 C 1.911 0.928543 1.3348 0
M  V30 5 O 3.095 1.19667 1.45644 0
M  V30 6 C 0.222 2.43627 2.35294 0
M  V30 7 C -0.732 3.65373 2.2001 0
M  V30 8 S 0.101 5.13292 1.52614 0
M  V30 9 C 1.257 5.56322 2.86805 0
M  V30 10 H 1.49 2.90518 0.631377 0
M  V30 11 H -0.977 1.52953 0.210867 0
M  V30 12 H 0.981 2.67203 3.11629 0
M  V30 13 H -0.358 1.57376 2.7183 0
M  V30 14 H -1.165 3.90944 3.18086 0
M  V30 15 H -1.563 3.418 1.51819 0
M  V30 16 H 0.729 5.58782 3.83104 0
M  V30 17 H 1.672 6.56266 2.65933 0
M  V30 18 H 2.08 4.83886 2.90714 0
M  V30 19 N 1.4781 -0.272755 1.55222 0
M  V30 20 C 2.4251 -1.33716 1.88119 0
M  V30 21 C 3.3951 -1.49066 0.73271 0
M  V30 22 O 4.5801 -1.63469 0.984002 0
M  V30 23 C 1.7201 -2.69238 2.15882 0
M  V30 24 C 0.8331 -2.62108 3.43399 0
M  V30 25 C -0.0319 -3.89811 3.60861 0
M  V30 26 C -0.9929 -3.77193 4.8207 0
M  V30 27 N -1.8559 -4.9673 4.96189 0
M  V30 28 H 2.9841 -1.04962 2.78903 0
M  V30 29 H 0.5211 -0.507088 1.38083 0
M  V30 30 H 2.4791 -3.48089 2.29978 0
M  V30 31 H 1.1091 -2.96194 1.28331 0
M  V30 32 H 0.1611 -1.74967 3.37773 0
M  V30 33 H 1.4731 -2.48685 4.32386 0
M  V30 34 H 0.6271 -4.77103 3.74777 0
M  V30 35 H -0.6339 -4.06102 2.7006 0
M  V30 36 H -1.6289 -2.88284 4.68159 0
M  V30 37 H -0.4039 -3.62421 5.74307 0
M  V30 38 H -2.4579 -5.13431 4.08319 0
M  V30 39 H -2.5409 -4.85839 5.79221 0
M  V30 40 H -1.2729 -5.85594 5.1449 0
M  V30 41 N 2.9562 -1.48159 -0.537278 0
M  V30 42 C 3.9042 -1.62573 -1.66352 0
M  V30 43 C 4.8982 -0.492366 -1.62087 0
M  V30 44 O 6.1042 -0.670847 -1.67032 0
M  V30 45 H 2.4792 -0.511992 -0.550789 0
M  V30 46 H 4.4502 -2.57176 -1.51337 0
M  V30 47 C 3.1992 -1.67583 -3.04649 0
M  V30 48 H 2.5222 -2.54151 -3.08622 0
M  V30 49 H 3.9622 -1.81713 -3.83088 0
M  V30 50 C 2.4212 -0.413039 -3.34358 0
M  V30 51 O 2.9512 0.477259 -3.98855 0
M  V30 52 N 1.1572 -0.286961 -2.8918 0
M  V30 53 H 0.7042 -1.01241 -2.36871 0
M  V30 54 H 0.6622 0.556963 -3.09427 0
M  V30 55 N 4.4343 0.785586 -1.36625 0
M  V30 56 C 5.6593 1.57963 -1.34397 0
M  V30 57 C 6.0843 1.87964 0.071526 0
M  V30 58 O 5.4423 1.48182 1.0446 0
M  V30 59 C 5.4903 2.87511 -2.17646 0
M  V30 60 O 4.5943 3.81281 -1.57158 0
M  V30 61 H 3.9353 0.479014 -0.459828 0
M  V30 62 H 6.4653 0.973411 -1.79961 0
M  V30 63 H 6.4753 3.36745 -2.30362 0
M  V30 64 H 5.1503 2.65002 -3.20541 0
M  V30 65 H 3.7273 3.39885 -1.53403 0
M  V30 66 N 5.9124 1.20967 1.01018 0
M  V30 67 C 7.3284 0.965905 1.27053 0
M  V30 68 C 7.5284 -0.350785 1.98423 0
M  V30 69 O 6.5844 -1.07773 2.28344 0
M  V30 70 C 7.8974 2.15294 2.09926 0
M  V30 71 C 9.4454 2.19463 2.23171 0
M  V30 72 C 9.9204 3.3767 3.09424 0
M  V30 73 N 11.4114 3.37724 3.17012 0
M  V30 74 C 12.1464 4.25837 3.83993 0
M  V30 75 N 11.6424 5.24138 4.53047 0
M  V30 76 N 13.4354 4.1366 3.80581 0
M  V30 77 H 5.5864 2.0565 0.531194 0
M  V30 78 H 7.8494 0.90024 0.297106 0
M  V30 79 H 7.5554 3.10684 1.64828 0
M  V30 80 H 7.4294 2.13923 3.10672 0
M  V30 81 H 9.8164 1.24632 2.6749 0
M  V30 82 H 9.8974 2.2488 1.21912 0
M  V30 83 H 9.5414 4.32791 2.65808 0
M  V30 84 H 9.4714 3.29491 4.10784 0
M  V30 85 H 11.9624 2.6658 2.6785 0
M  V30 86 H 12.2754 5.87684 5.01844 0
M  V30 87 H 10.6204 5.28068 4.5185 0
M  V30 88 H 13.8114 3.36127 3.25785 0
M  V30 89 H 13.9844 4.82538 4.32505 0
M  V30 90 N 7.3905 -1.2043 1.01659 0
M  V30 91 C 8.6185 -1.93777 0.725132 0
M  V30 92 C 9.0335 -1.74772 -0.714166 0
M  V30 93 O 8.3905 -1.06169 -1.4844 0
M  V30 94 C 8.4415 -3.45876 1.05129 0
M  V30 95 O 8.1625 -3.6426 2.43406 0
M  V30 96 C 9.6635 -4.36368 0.780891 0
M  V30 97 H 6.8835 -0.615901 0.266284 0
M  V30 98 H 9.4275 -1.52922 1.35776 0
M  V30 99 H 7.5825 -3.8461 0.464065 0
M  V30 100 H 7.9965 -4.58246 2.55169 0
M  V30 101 H 9.4705 -5.41743 1.05918 0
M  V30 102 H 9.9475 -4.38275 -0.284937 0
M  V30 103 H 10.5535 -4.03296 1.35027 0
M  V30 104 N 8.8686 -0.792821 -1.36206 0
M  V30 105 C 10.1146 -0.376415 -1.99887 0
M  V30 106 C 10.4696 1.04127 -1.61788 0
M  V30 107 O 9.7626 1.71004 -0.864193 0
M  V30 108 C 9.9566 -0.481501 -3.54142 0
M  V30 109 C 9.7856 -1.90786 -4.07223 0
M  V30 110 C 8.5556 -2.53322 -4.37214 0
M  V30 111 C 10.7536 -2.87048 -4.26741 0
M  V30 112 N 8.7356 -3.8751 -4.7614 0
M  V30 113 C 10.1066 -4.06077 -4.6851 0
M  V30 114 C 12.1616 -2.8406 -4.08918 0
M  V30 115 C 10.8646 -5.22532 -4.94321 0
M  V30 116 C 12.8906 -3.99705 -4.35878 0
M  V30 117 C 12.2526 -5.1748 -4.77906 0
M  V30 118 H 8.3516 -0.185226 -0.759747 0
M  V30 119 H 10.9356 -1.03114 -1.65153 0
M  V30 120 H 9.1066 0.143154 -3.88136 0
M  V30 121 H 10.8386 -0.0410128 -4.04679 0
M  V30 122 H 7.5936 -2.04777 -4.2704 0
M  V30 123 H 8.0176 -4.5656 -4.99882 0
M  V30 124 H 12.6596 -1.94165 -3.75579 0
M  V30 125 H 10.3776 -6.1301 -5.2654 0
M  V30 126 H 13.9636 -3.98758 -4.23655 0
M  V30 127 H 12.8436 -6.05478 -4.98363 0
M  V30 128 N 10.3467 1.47872 -0.545128 0
M  V30 129 C 11.3097 2.28337 0.198717 0
M  V30 130 C 12.3097 1.36255 0.853888 0
M  V30 131 O 13.4997 1.59003 0.711606 0
M  V30 132 C 10.6317 3.15585 1.28915 0
M  V30 133 H 11.8247 2.95567 -0.507941 0
M  V30 134 H 9.3777 1.53362 -0.301616 0
M  V30 135 H 10.1127 2.53019 2.02859 0
M  V30 136 H 9.8977 3.83337 0.824309 0
M  V30 137 H 11.3877 3.76243 1.81194 0
M  V30 138 N 11.8248 0.280983 1.55075 0
M  V30 139 C 13.0708 -0.327573 2.00745 0
M  V30 140 C 13.4258 -1.53045 1.16598 0
M  V30 141 O 12.7188 -1.90221 0.229451 0
M  V30 142 C 12.9128 -0.754656 3.49342 0
M  V30 143 C 12.7418 0.40529 4.4787 0
M  V30 144 C 11.5118 0.890947 4.97383 0
M  V30 145 C 13.7098 1.24371 4.99035 0
M  V30 146 N 11.6918 2.01975 5.79724 0
M  V30 147 C 13.0628 2.22031 5.7888 0
M  V30 148 C 15.1178 1.27638 4.81262 0
M  V30 149 C 13.8208 3.22709 6.42846 0
M  V30 150 C 15.8468 2.27164 5.46031 0
M  V30 151 C 15.2088 3.23556 6.25692 0
M  V30 152 H 11.3078 -0.0848774 0.77738 0
M  V30 153 H 13.8918 0.406342 1.90413 0
M  V30 154 H 12.0628 -1.45778 3.60005 0
M  V30 155 H 13.7948 -1.34105 3.81835 0
M  V30 156 H 10.5498 0.469262 4.71269 0
M  V30 157 H 10.9738 2.58794 6.25584 0
M  V30 158 H 15.6158 0.544936 4.19274 0
M  V30 159 H 13.3338 3.96784 7.0398 0
M  V30 160 H 16.9198 2.30441 5.34217 0
M  V30 161 H 15.7998 3.99309 6.74924 0
M  V30 162 N 13.3029 -1.57598 0.00835791 0
M  V30 163 C 14.7189 -1.55764 -0.347822 0
M  V30 164 C 14.9189 -1.01186 -1.74252 0
M  V30 165 O 13.9749 -0.649371 -2.44007 0
M  V30 166 C 15.2879 -2.99927 -0.215407 0
M  V30 167 C 16.8359 -3.11656 -0.289725 0
M  V30 168 C 17.3109 -4.57621 -0.18634 0
M  V30 169 N 18.8019 -4.62557 -0.243978 0
M  V30 170 C 19.5369 -5.73094 -0.18745 0
M  V30 171 N 19.0329 -6.92753 -0.0810331 0
M  V30 172 N 20.8259 -5.61588 -0.239925 0
M  V30 173 H 12.9769 -1.91411 0.92062 0
M  V30 174 H 15.2399 -0.879562 0.353659 0
M  V30 175 H 14.9459 -3.43729 0.744512 0
M  V30 176 H 14.8199 -3.63865 -0.994097 0
M  V30 177 H 17.2069 -2.67779 -1.24009 0
M  V30 178 H 17.2879 -2.5048 0.51898 0
M  V30 179 H 16.9319 -5.02174 0.760519 0
M  V30 180 H 16.8619 -5.16752 -1.01364 0
M  V30 181 H 19.3529 -3.76481 -0.327217 0
M  V30 182 H 19.6659 -7.72787 -0.0440241 0
M  V30 183 H 18.0109 -6.94984 -0.0465419 0
M  V30 184 H 21.2019 -4.66996 -0.321317 0
M  V30 185 H 21.3749 -6.47714 -0.192407 0
M  V30 186 N 14.781 0.264519 -1.55364 0
M  V30 187 C 15.744 1.31046 -1.88042 0
M  V30 188 C 16.744 1.41943 -0.755569 0
M  V30 189 O 17.934 1.40947 -1.02369 0
M  V30 190 C 15.066 2.69067 -2.09323 0
M  V30 191 H 16.259 1.03297 -2.81549 0
M  V30 192 H 13.812 0.502989 -1.47986 0
M  V30 193 H 14.547 3.01982 -1.18226 0
M  V30 194 H 14.332 2.62542 -2.91229 0
M  V30 195 H 15.822 3.44623 -2.35848 0
M  V30 196 N 16.2591 1.48442 0.529413 0
M  V30 197 C 17.6701 1.5002 1.11134 0
M  V30 198 C 18.0211 0.27031 1.94329 0
M  V30 199 O 17.1461 -0.622507 2.07253 0
M  V30 200 C 17.7411 2.71834 2.02217 0
M  V30 201 C 16.3001 2.76283 2.55627 0
M  V30 202 C 15.4471 2.43542 1.326 0
M  V30 203 H 18.3981 1.5555 0.314641 0
M  V30 204 H 18.4191 2.50384 2.8651 0
M  V30 205 H 17.9311 3.61331 1.41639 0
M  V30 206 H 16.0321 1.90995 3.19924 0
M  V30 207 H 16.1451 3.77725 2.94721 0
M  V30 208 H 14.5091 1.94709 1.64196 0
M  V30 209 H 15.2921 3.3528 0.737734 0
M  V30 210 N 17.7372 -0.778329 1.37039 0
M  V30 211 C 18.9832 -1.53892 1.32079 0
M  V30 212 C 19.3162 -1.9396 -0.0965386 0
M  V30 213 O 18.5912 -1.63568 -1.05242 0
M  V30 214 C 18.8742 -2.80847 2.25382 0
M  V30 215 C 18.7272 -2.47076 3.75864 0
M  V30 216 C 20.0462 -3.82741 2.1725 0
M  V30 217 H 17.1652 -0.558303 0.48111 0
M  V30 218 H 19.8072 -0.893397 1.67685 0
M  V30 219 H 17.9572 -3.35931 1.95148 0
M  V30 220 H 19.6292 -1.97957 4.16666 0
M  V30 221 H 17.8722 -1.79863 3.94755 0
M  V30 222 H 18.5432 -3.37798 4.36574 0
M  V30 223 H 21.0192 -3.37133 2.43887 0
M  V30 224 H 19.8952 -4.69303 2.84686 0
M  V30 225 H 20.1562 -4.2652 1.16331 0
M  V30 226 N 19.2153 -1.21501 -1.00376 0
M  V30 227 C 20.1253 -0.991447 -2.12621 0
M  V30 228 C 21.1413 0.0568446 -1.73907 0
M  V30 229 O 22.3173 -0.13348 -2.00957 0
M  V30 230 C 19.3823 -0.560312 -3.42142 0
M  V30 231 C 18.4433 -1.68096 -3.95022 0
M  V30 232 C 17.6763 -1.2703 -5.18362 0
M  V30 233 O 17.8993 -0.144438 -5.70217 0
M  V30 234 O 16.8333 -2.08269 -5.64719 0
M  V30 235 H 20.6593 -1.93158 -2.34358 0
M  V30 236 H 18.2443 -0.999999 -1.10997 0
M  V30 237 H 20.1263 -0.329724 -4.20108 0
M  V30 238 H 18.8013 0.351089 -3.2179 0
M  V30 239 H 17.7083 -1.96597 -3.18278 0
M  V30 240 H 19.0413 -2.56983 -4.19786 0
M  V30 241 N 20.6934 1.19889 -1.02296 0
M  V30 242 C 21.6234 2.25141 -0.619174 0
M  V30 243 C 22.6044 1.66051 0.368915 0
M  V30 244 O 23.7894 1.92546 0.252941 0
M  V30 245 C 20.9194 3.4728 0.0368783 0
M  V30 246 C 19.8734 4.19005 -0.872865 0
M  V30 247 C 19.1994 5.34637 -0.0822402 0
M  V30 248 C 20.4994 4.74452 -2.18387 0
M  V30 249 H 22.1934 2.59171 -1.49903 0
M  V30 250 H 19.7394 1.24579 -0.722222 0
M  V30 251 H 21.6924 4.20098 0.330958 0
M  V30 252 H 20.4164 3.12433 0.95149 0
M  V30 253 H 19.0754 3.48061 -1.15105 0
M  V30 254 H 18.7234 4.96034 0.83422 0
M  V30 255 H 18.4234 5.83557 -0.688149 0
M  V30 256 H 19.9474 6.10255 0.205238 0
M  V30 257 H 21.3614 5.39055 -1.95172 0
M  V30 258 H 19.7584 5.33834 -2.74119 0
M  V30 259 H 20.8284 3.92844 -2.84257 0
M  V30 260 N 22.1715 0.800033 1.35784 0
M  V30 261 C 23.4185 0.377342 1.98953 0
M  V30 262 C 23.7465 -1.05378 1.6348 0
M  V30 263 O 23.0015 -1.74459 0.886707 0
M  V30 264 C 23.3005 0.500276 3.53881 0
M  V30 265 C 22.9665 1.89375 4.09204 0
M  V30 266 C 21.6285 2.27499 4.24025 0
M  V30 267 C 23.9805 2.8057 4.39238 0
M  V30 268 C 21.3085 3.562 4.66195 0
M  V30 269 C 23.6605 4.0871 4.82844 0
M  V30 270 C 22.3245 4.46843 4.95871 0
M  V30 271 H 21.5945 0.138079 0.728021 0
M  V30 272 H 24.2415 1.01955 1.62103 0
M  V30 273 H 22.5465 -0.225405 3.91151 0
M  V30 274 H 24.2435 0.154097 4.00704 0
M  V30 275 H 20.8335 1.58753 3.98115 0
M  V30 276 H 25.0175 2.52367 4.27346 0
M  V30 277 H 20.2735 3.85602 4.74469 0
M  V30 278 H 24.4475 4.79481 5.05046 0
M  V30 279 H 22.0745 5.46623 5.28306 0
M  V30 280 N 23.6496 -1.47581 0.552962 0
M  V30 281 C 24.5796 -2.32762 -0.185451 0
M  V30 282 C 25.5606 -1.43527 -0.912905 0
M  V30 283 O 26.7456 -1.72388 -0.894201 0
M  V30 284 C 23.8756 -3.25219 -1.21859 0
M  V30 285 C 22.8296 -4.23661 -0.607864 0
M  V30 286 C 22.1556 -5.05413 -1.74533 0
M  V30 287 C 23.4556 -5.20481 0.435582 0
M  V30 288 H 25.1496 -2.94749 0.525684 0
M  V30 289 H 22.6956 -1.41738 0.254251 0
M  V30 290 H 24.6486 -3.8365 -1.7433 0
M  V30 291 H 23.3726 -2.61279 -1.95961 0
M  V30 292 H 22.0316 -3.66451 -0.104489 0
M  V30 293 H 21.6796 -4.3788 -2.47529 0
M  V30 294 H 21.3796 -5.72059 -1.34249 0
M  V30 295 H 22.9036 -5.66701 -2.27338 0
M  V30 296 H 24.3176 -5.733 -0.00290157 0
M  V30 297 H 22.7146 -5.95305 0.757067 0
M  V30 298 H 23.7846 -4.66217 1.33303 0
M  V30 299 N 25.1277 -0.289203 -1.54924 0
M  V30 300 C 26.0577 0.58549 -2.2604 0
M  V30 301 C 27.0387 1.14753 -1.25562 0
M  V30 302 O 28.2237 1.17906 -1.54311 0
M  V30 303 C 25.3537 1.76305 -2.99222 0
M  V30 304 C 24.3077 1.33191 -4.06748 0
M  V30 305 C 23.6337 2.5937 -4.6758 0
M  V30 306 C 24.9337 0.471775 -5.20165 0
M  V30 307 H 26.6277 -0.00763532 -2.99399 0
M  V30 308 H 24.1737 -0.00511229 -1.43999 0
M  V30 309 H 26.1267 2.38097 -3.47689 0
M  V30 310 H 24.8507 2.38223 -2.23422 0
M  V30 311 H 23.5097 0.737121 -3.59113 0
M  V30 312 H 23.1577 3.19576 -3.88433 0
M  V30 313 H 22.8577 2.31228 -5.40192 0
M  V30 314 H 24.3817 3.21985 -5.18804 0
M  V30 315 H 25.7957 0.995056 -5.64599 0
M  V30 316 H 24.1927 0.284639 -5.99425 0
M  V30 317 H 25.2627 -0.506041 -4.82252 0
M  V30 318 N 26.6058 1.57591 -0.0167156 0
M  V30 319 C 27.8458 1.93145 0.668902 0
M  V30 320 C 28.2098 0.892406 1.7 0
M  V30 321 O 29.4108 1.13373 2.43721 0
M  V30 322 C 27.6818 3.33678 1.28039 0
M  V30 323 S 29.2408 3.91142 1.9888 0
M  V30 324 H 26.0588 0.67593 0.220545 0
M  V30 325 H 28.6608 1.95347 -0.0774105 0
M  V30 326 H 27.3648 4.07126 0.517339 0
M  V30 327 H 26.8958 3.3489 2.06427 0
M  V30 328 H 28.9108 3.73571 3.26587 0
M  V30 329 N 28.0839 -0.256276 1.55502 0
M  V30 330 C 29.0469 -1.30047 1.88734 0
M  V30 331 C 30.0469 -1.4154 0.763086 0
M  V30 332 O 31.2369 -1.40403 1.03115 0
M  V30 333 C 28.3689 -2.67953 2.10747 0
M  V30 334 H 29.5619 -1.01802 2.82093 0
M  V30 335 H 27.1149 -0.495134 1.4825 0
M  V30 336 H 27.8499 -3.01351 1.19825 0
M  V30 337 H 27.6349 -2.60993 2.92617 0
M  V30 338 H 29.1249 -3.43368 2.37673 0
M  V30 339 N 29.562 -1.4872 -0.521534 0
M  V30 340 C 30.525 -1.63379 -1.60748 0
M  V30 341 C 31.525 -0.50661 -1.52611 0
M  V30 342 O 32.715 -0.772601 -1.5613 0
M  V30 343 C 29.847 -1.61192 -3.00383 0
M  V30 344 H 31.04 -2.60217 -1.49087 0
M  V30 345 H 28.593 -1.37444 -0.744235 0
M  V30 346 H 29.328 -0.65863 -3.17541 0
M  V30 347 H 29.113 -2.43032 -3.07698 0
M  V30 348 H 30.603 -1.7466 -3.7932 0
M  V30 349 N 31.0401 0.771051 -1.3745 0
M  V30 350 C 31.9701 1.89827 -1.3597 0
M  V30 351 C 32.9511 1.68562 -0.228216 0
M  V30 352 O 34.1361 1.8941 -0.428675 0
M  V30 353 C 31.2661 3.2712 -1.16662 0
M  V30 354 C 30.2201 3.6295 -2.2683 0
M  V30 355 C 29.5461 4.98791 -1.92644 0
M  V30 356 C 30.8461 3.69627 -3.69017 0
M  V30 357 H 32.5401 1.91323 -2.30295 0
M  V30 358 H 30.0861 0.919082 -1.10855 0
M  V30 359 H 32.0391 4.05615 -1.14256 0
M  V30 360 H 30.7631 3.26059 -0.187926 0
M  V30 361 H 29.4221 2.86763 -2.28392 0
M  V30 362 H 29.0701 4.94271 -0.933021 0
M  V30 363 H 28.7701 5.23733 -2.66416 0
M  V30 364 H 30.2941 5.79685 -1.91826 0
M  V30 365 H 31.7081 4.38273 -3.69581 0
M  V30 366 H 30.1051 4.06067 -4.41848 0
M  V30 367 H 31.1751 2.70273 -4.02592 0
M  V30 368 N 32.5182 1.22032 0.997298 0
M  V30 369 C 33.7662 1.04016 1.73278 0
M  V30 370 C 34.0872 -0.426255 1.90284 0
M  V30 371 O 33.3572 -1.30694 1.45931 0
M  V30 372 H 31.9372 0.381897 0.642 0
M  V30 373 H 34.5992 1.5347 1.20137 0
M  V30 374 H 33.6952 1.51441 2.72896 0
M  V30 375 N 33.9963 -1.19345 1.0293 0
M  V30 376 C 35.2363 -1.90738 0.734727 0
M  V30 377 C 35.6003 -1.7785 -0.723414 0
M  V30 378 O 36.8013 -2.43844 -1.13108 0
M  V30 379 C 35.0723 -3.37569 1.17396 0
M  V30 380 S 36.6313 -4.27176 1.00329 0
M  V30 381 H 33.4493 -0.658771 0.267474 0
M  V30 382 H 36.0513 -1.4428 1.31922 0
M  V30 383 H 34.7553 -3.44475 2.23081 0
M  V30 384 H 34.2863 -3.8906 0.582772 0
M  V30 385 H 36.3013 -4.96126 -0.0859152 0
M  V30 386 N 35.4744 -0.807222 -1.35358 0
M  V30 387 C 36.4044 -0.232509 -2.3234 0
M  V30 388 C 37.3854 0.642386 -1.57504 0
M  V30 389 O 38.5704 0.572526 -1.85569 0
M  V30 390 C 35.7004 0.619238 -3.41735 0
M  V30 391 C 34.6544 -0.157215 -4.27711 0
M  V30 392 C 33.9804 0.816273 -5.28433 0
M  V30 393 C 35.2804 -1.35656 -5.04376 0
M  V30 394 H 36.9744 -1.04276 -2.80654 0
M  V30 395 H 34.5204 -0.50288 -1.34934 0
M  V30 396 H 36.4734 1.03137 -4.08584 0
M  V30 397 H 35.1974 1.46239 -2.92031 0
M  V30 398 H 33.8564 -0.550525 -3.62443 0
M  V30 399 H 33.5044 1.65494 -4.74996 0
M  V30 400 H 33.2044 0.301067 -5.86828 0
M  V30 401 H 34.7284 1.22659 -5.98153 0
M  V30 402 H 36.1424 -1.01927 -5.64166 0
M  V30 403 H 34.5394 -1.8063 -5.7227 0
M  V30 404 H 35.6094 -2.14288 -4.34981 0
M  V30 405 N 36.9525 1.47285 -0.560781 0
M  V30 406 C 38.1775 2.07359 -0.0410566 0
M  V30 407 C 38.6025 1.41017 1.24483 0
M  V30 408 O 37.9605 0.486368 1.74654 0
M  V30 409 C 38.0085 3.6035 0.134123 0
M  V30 410 O 37.1125 3.94681 1.19587 0
M  V30 411 H 36.4535 0.661887 -0.0529291 0
M  V30 412 H 38.9835 1.89252 -0.777482 0
M  V30 413 H 38.9935 4.0652 0.347207 0
M  V30 414 H 37.6685 4.08034 -0.805047 0
M  V30 415 H 36.2455 3.60251 0.962987 0
M  V30 416 N 38.4306 0.297415 1.54768 0
M  V30 417 C 39.3606 -0.573494 2.26348 0
M  V30 418 C 40.3416 -1.14085 1.26169 0
M  V30 419 O 41.5266 -1.17086 1.54934 0
M  V30 420 C 38.6566 -1.74716 3.00153 0
M  V30 421 C 37.6106 -1.31032 4.07449 0
M  V30 422 C 36.9366 -2.56887 4.68949 0
M  V30 423 C 38.2366 -0.444183 5.20408 0
M  V30 424 H 39.9306 0.0235131 2.99391 0
M  V30 425 H 37.4766 0.0127488 1.43994 0
M  V30 426 H 39.4296 -2.3625 3.48947 0
M  V30 427 H 38.1536 -2.37035 2.24682 0
M  V30 428 H 36.8126 -0.718066 3.59499 0
M  V30 429 H 36.4606 -3.17512 3.90122 0
M  V30 430 H 36.1606 -2.2836 5.41411 0
M  V30 431 H 37.6846 -3.19229 5.20505 0
M  V30 432 H 39.0986 -0.9651 5.65118 0
M  V30 433 H 37.4956 -0.252846 5.99567 0
M  V30 434 H 38.5656 0.531609 4.81977 0
M  V30 435 N 39.9087 -1.5758 0.0250728 0
M  V30 436 C 41.3197 -1.79476 -0.514323 0
M  V30 437 C 41.6707 -0.934956 -1.72491 0
M  V30 438 O 40.7957 -0.144245 -2.15919 0
M  V30 439 C 41.3907 -3.25503 -0.939842 0
M  V30 440 C 39.9497 -3.48408 -1.42438 0
M  V30 441 C 39.0967 -2.74583 -0.387201 0
M  V30 442 H 42.0477 -1.567 0.25113 0
M  V30 443 H 42.0687 -3.34992 -1.80445 0
M  V30 444 H 41.5807 -3.88056 -0.0585628 0
M  V30 445 H 39.6817 -2.91103 -2.32572 0
M  V30 446 H 39.7947 -4.57119 -1.43455 0
M  V30 447 H 38.1587 -2.39942 -0.854409 0
M  V30 448 H 38.9417 -3.39849 0.485543 0
M  V30 449 N 41.3868 0.248026 -1.55636 0
M  V30 450 C 42.6348 0.974295 -1.77065 0
M  V30 451 C 42.9558 1.85897 -0.588849 0
M  V30 452 O 42.2258 1.91868 0.395407 0
M  V30 453 H 40.8058 0.362733 -0.653019 0
M  V30 454 H 43.4678 0.266244 -1.93073 0
M  V30 455 H 42.5638 1.59667 -2.68166 0
M  V30 456 N 42.8649 1.48995 0.513639 0
M  V30 457 C 44.0899 1.61792 1.29762 0
M  V30 458 C 44.5149 0.284475 1.85936 0
M  V30 459 O 43.8729 -0.746185 1.65232 0
M  V30 460 C 43.9209 2.67993 2.41272 0
M  V30 461 O 43.0249 2.26287 3.44772 0
M  V30 462 H 42.3659 0.541963 0.38363 0
M  V30 463 H 44.8959 1.95097 0.616307 0
M  V30 464 H 44.9059 2.89772 2.87221 0
M  V30 465 H 43.5809 3.64791 1.9975 0
M  V30 466 H 42.1579 2.14788 3.04829 0
M  V30 467 N 44.343 -0.763751 1.37857 0
M  V30 468 C 45.759 -1.06542 1.18832 0
M  V30 469 C 45.959 -2.01478 0.0299722 0
M  V30 470 O 45.015 -2.4458 -0.627447 0
M  V30 471 C 46.328 -1.65525 2.51042 0
M  V30 472 C 47.876 -1.77745 2.57635 0
M  V30 473 C 48.351 -2.4014 3.89996 0
M  V30 474 N 49.842 -2.47582 3.91481 0
M  V30 475 C 50.577 -2.96732 4.9065 0
M  V30 476 N 50.073 -3.45993 6.00217 0
M  V30 477 N 51.866 -2.95679 4.78048 0
M  V30 478 H 44.017 -0.133556 2.1198 0
M  V30 479 H 46.28 -0.121879 0.940133 0
M  V30 480 H 45.986 -1.03236 3.36207 0
M  V30 481 H 45.86 -2.64719 2.68707 0
M  V30 482 H 48.247 -2.39164 1.72872 0
M  V30 483 H 48.328 -0.772836 2.43846 0
M  V30 484 H 47.972 -1.79358 4.75177 0
M  V30 485 H 47.902 -3.41223 4.01092 0
M  V30 486 H 50.393 -2.1273 3.12337 0
M  V30 487 H 50.706 -3.81922 6.7183 0
M  V30 488 H 49.051 -3.44077 6.03851 0
M  V30 489 H 52.242 -2.56499 3.91568 0
M  V30 490 H 52.415 -3.33672 5.55488 0
M  V30 491 N 45.8211 -1.22559 -0.990812 0
M  V30 492 C 47.0691 -1.04933 -1.72724 0
M  V30 493 C 47.3901 0.416158 -1.90508 0
M  V30 494 O 46.6601 1.29918 -1.46622 0
M  V30 495 H 45.2401 -0.385296 -0.639965 0
M  V30 496 H 47.9021 -1.54105 -1.19322 0
M  V30 497 H 46.9981 -1.52886 -2.72089 0
M  V30 498 N 47.2992 1.18797 -1.03562 0
M  V30 499 C 48.2092 2.25913 -0.632505 0
M  V30 500 C 49.2252 1.70668 0.338882 0
M  V30 501 O 50.4012 2.00453 0.195076 0
M  V30 502 C 47.4662 3.467 0.00350942 0
M  V30 503 C 46.5272 4.17098 -1.01624 0
M  V30 504 C 45.7602 5.32119 -0.410478 0
M  V30 505 O 45.9832 5.64976 0.784725 0
M  V30 506 O 44.9172 5.9107 -1.13667 0
M  V30 507 H 48.7432 2.62648 -1.52478 0
M  V30 508 H 46.3282 1.25781 -0.806195 0
M  V30 509 H 48.2102 4.19878 0.35781 0
M  V30 510 H 46.8852 3.11798 0.869686 0
M  V30 511 H 45.7922 3.4601 -1.42224 0
M  V30 512 H 47.1252 4.55987 -1.85301 0
M  V30 513 N 48.7773 0.814389 1.34928 0
M  V30 514 C 50.1933 0.499084 1.51596 0
M  V30 515 C 50.3933 -0.978319 1.76157 0
M  V30 516 O 49.4493 -1.76309 1.80752 0
M  V30 517 C 50.7623 1.35121 2.68631 0
M  V30 518 C 52.3103 1.34746 2.82511 0
M  V30 519 C 52.7853 2.18388 4.0258 0
M  V30 520 N 54.2763 2.15966 4.09772 0
M  V30 521 C 55.0113 2.77437 5.01813 0
M  V30 522 N 54.5073 3.47866 5.99134 0
M  V30 523 N 56.3003 2.67037 4.94619 0
M  V30 524 H 48.4513 1.7711 1.17243 0
M  V30 525 H 50.7143 0.754256 0.574284 0
M  V30 526 H 50.4203 2.40001 2.57085 0
M  V30 527 H 50.2943 1.00991 3.63429 0
M  V30 528 H 52.6813 0.30648 2.93504 0
M  V30 529 H 52.7623 1.72869 1.88547 0
M  V30 530 H 52.4063 3.2253 3.92347 0
M  V30 531 H 52.3363 1.77621 4.9574 0
M  V30 532 H 54.8273 1.64729 3.40107 0
M  V30 533 H 55.1403 3.92038 6.65977 0
M  V30 534 H 53.4853 3.51972 5.99284 0
M  V30 535 H 56.6763 2.11597 4.17546 0
M  V30 536 H 56.8493 3.15232 5.66156 0
M  V30 537 N 50.2554 -1.46986 0.568584 0
M  V30 538 C 51.6664 -1.86188 0.138219 0
M  V30 539 C 52.0174 -1.47388 -1.29504 0
M  V30 540 O 51.1424 -0.88219 -1.97602 0
M  V30 541 C 51.7374 -3.3792 0.244065 0
M  V30 542 C 50.2964 -3.76171 -0.131335 0
M  V30 543 C 49.4434 -2.71027 0.586465 0
M  V30 544 H 52.3944 -1.38342 0.777645 0
M  V30 545 H 52.4154 -3.76729 -0.534351 0
M  V30 546 H 51.9274 -3.66128 1.28731 0
M  V30 547 H 50.0284 -3.5358 -1.17526 0
M  V30 548 H 50.1414 -4.78523 0.235146 0
M  V30 549 H 48.5054 -2.54684 0.0282722 0
M  V30 550 H 49.2884 -3.02077 1.63109 0
M  V30 551 N 51.7335 -0.305618 -1.54608 0
M  V30 552 C 52.6835 0.583595 -2.20405 0
M  V30 553 C 53.6675 1.09539 -1.17856 0
M  V30 554 O 54.8595 1.0354 -1.43557 0
M  V30 555 C 51.9885 1.75277 -2.95183 0
M  V30 556 C 51.0745 1.25672 -4.05052 0
M  V30 557 N 51.4655 0.478998 -5.03527 0
M  V30 558 C 49.7635 1.53704 -4.18678 0
M  V30 559 C 50.4645 0.214269 -5.81305 0
M  V30 560 N 49.4405 0.795374 -5.3775 0
M  V30 561 H 53.2425 -0.0180946 -2.93894 0
M  V30 562 H 50.7565 -0.110601 -1.62023 0
M  V30 563 H 52.7535 2.4014 -3.40791 0
M  V30 564 H 51.4135 2.35812 -2.23211 0
M  V30 565 H 52.4245 0.123473 -5.17753 0
M  V30 566 H 49.1015 2.14954 -3.57912 0
M  V30 567 H 50.4915 -0.410656 -6.70644 0
M  V30 568 N 53.2116 1.57565 -0.0334293 0
M  V30 569 C 54.4366 1.96689 0.657895 0
M  V30 570 C 54.8616 0.910057 1.64619 0
M  V30 571 O 54.2196 -0.128598 1.80843 0
M  V30 572 C 54.2676 3.34905 1.33683 0
M  V30 573 O 53.3716 3.31574 2.45219 0
M  V30 574 H 52.7126 0.641205 0.172489 0
M  V30 575 H 55.2426 2.04372 -0.0965621 0
M  V30 576 H 55.2526 3.71234 1.69262 0
M  V30 577 H 53.9276 4.11366 0.612411 0
M  V30 578 H 52.5046 3.06968 2.11719 0
M  V30 579 N 54.6897 -0.239769 1.55765 0
M  V30 580 C 55.9367 -0.966801 1.7793 0
M  V30 581 C 56.2647 -1.85046 0.599015 0
M  V30 582 O 55.5197 -1.91197 -0.417395 0
M  V30 583 C 55.8187 -1.852 3.05672 0
M  V30 584 C 55.4847 -1.1231 4.36689 0
M  V30 585 C 54.1467 -0.921689 4.72291 0
M  V30 586 C 56.4987 -0.607019 5.17653 0
M  V30 587 C 53.8267 -0.191996 5.86386 0
M  V30 588 C 56.1787 0.109241 6.32506 0
M  V30 589 C 54.8427 0.322073 6.66723 0
M  V30 590 H 54.1127 -0.353778 0.651093 0
M  V30 591 H 56.7597 -0.23634 1.90036 0
M  V30 592 H 55.0647 -2.64975 2.8861 0
M  V30 593 H 56.7617 -2.41635 3.20021 0
M  V30 594 H 53.3517 -1.29004 4.08725 0
M  V30 595 H 57.5357 -0.750153 4.90598 0
M  V30 596 H 52.7917 -0.0166949 6.11398 0
M  V30 597 H 56.9657 0.516737 6.9448 0
M  V30 598 H 54.5927 0.88944 7.54979 0
M  V30 599 N 56.1678 -1.49265 -0.50573 0
M  V30 600 C 57.4158 -1.582 -1.25766 0
M  V30 601 C 57.7368 -0.268482 -1.93143 0
M  V30 602 O 57.0068 0.711833 -1.8251 0
M  V30 603 H 55.5868 -0.582873 -0.467191 0
M  V30 604 H 58.2488 -1.85865 -0.586525 0
M  V30 605 H 57.3448 -2.37563 -2.02412 0
M  V30 606 N 57.6459 0.756429 -1.3826 0
M  V30 607 C 58.8709 1.55077 -1.37717 0
M  V30 608 C 59.2959 1.88073 0.03164 0
M  V30 609 O 58.6539 1.50364 1.01293 0
M  V30 610 C 58.7019 2.8283 -2.23695 0
M  V30 611 O 57.8059 3.77862 -1.6521 0
M  V30 612 H 57.1469 0.469152 -0.469885 0
M  V30 613 H 59.6769 0.935019 -1.81985 0
M  V30 614 H 59.6869 3.31783 -2.37453 0
M  V30 615 H 58.3619 2.58144 -3.2609 0
M  V30 616 H 56.9389 3.36555 -1.60578 0
M  V30 617 N 59.124 1.23083 0.984299 0
M  V30 618 C 60.072 1.00593 2.09723 0
M  V30 619 C 61.066 -0.0538014 1.69315 0
M  V30 620 O 62.272 0.0993719 1.79725 0
M  V30 621 H 58.647 0.30817 0.685956 0
M  V30 622 H 60.618 1.95012 2.2586 0
M  V30 623 C 59.367 0.609601 3.42314 0
M  V30 624 H 58.69 1.41675 3.73856 0
M  V30 625 H 60.13 0.491726 4.21139 0
M  V30 626 C 58.589 -0.681745 3.2993 0
M  V30 627 O 59.119 -1.73192 3.62446 0
M  V30 628 N 57.325 -0.656178 2.83095 0
M  V30 629 H 56.872 0.198759 2.56832 0
M  V30 630 H 56.83 -1.52044 2.75191 0
M  V30 631 N 60.6021 -1.18246 1.0419 0
M  V30 632 C 61.5651 -2.20128 0.638452 0
M  V30 633 C 62.5651 -1.57885 -0.304805 0
M  V30 634 O 63.7551 -1.73967 -0.0900369 0
M  V30 635 C 60.8871 -3.4084 -0.0637751 0
M  V30 636 H 62.0801 -2.57336 1.54007 0
M  V30 637 H 59.6331 -1.32152 0.834598 0
M  V30 638 H 60.3681 -3.09166 -0.979136 0
M  V30 639 H 60.1531 -3.8726 0.614198 0
M  V30 640 H 61.6431 -4.16274 -0.332512 0
M  V30 641 N 62.0802 -0.821533 -1.34494 0
M  V30 642 C 63.3262 -0.409552 -1.98622 0
M  V30 643 C 63.6592 1.0244 -1.64984 0
M  V30 644 O 62.9342 1.71325 -0.920758 0
M  V30 645 C 63.2172 -0.610458 -3.54888 0
M  V30 646 C 63.0702 -2.09043 -3.98273 0
M  V30 647 C 64.3892 -0.0455379 -4.40076 0
M  V30 648 H 61.5082 -0.15028 -0.721516 0
M  V30 649 H 64.1502 -1.03384 -1.59411 0
M  V30 650 H 62.3002 -0.079044 -3.8842 0
M  V30 651 H 63.9722 -2.68537 -3.75081 0
M  V30 652 H 62.2152 -2.58139 -3.48635 0
M  V30 653 H 62.8862 -2.18182 -5.07051 0
M  V30 654 H 65.3622 -0.499557 -4.1309 0
M  V30 655 H 64.2382 -0.215922 -5.48475 0
M  V30 656 H 64.4992 1.04939 -4.29465 0
M  V30 657 N 63.5583 1.46682 -0.576371 0
M  V30 658 C 64.5063 2.31953 0.17335 0
M  V30 659 C 65.5003 1.44098 0.89062 0
M  V30 660 O 66.7063 1.60759 0.809728 0
M  V30 661 H 63.0813 0.748273 0.0747727 0
M  V30 662 H 65.0523 2.93007 -0.564738 0
M  V30 663 C 63.8013 3.27142 1.17786 0
M  V30 664 H 63.1243 3.94719 0.635361 0
M  V30 665 H 64.5643 3.896 1.67296 0
M  V30 666 C 63.0233 2.52036 2.23561 0
M  V30 667 O 63.5533 2.27877 3.3081 0
M  V30 668 N 61.7593 2.12709 1.97998 0
M  V30 669 H 61.3063 2.32557 1.10792 0
M  V30 670 H 61.2643 1.62776 2.68982 0
M  V30 671 N 65.0364 0.313813 1.54444 0
M  V30 672 C 65.9834 -0.55655 2.23989 0
M  V30 673 C 66.9534 -1.11943 1.22711 0
M  V30 674 O 68.1384 -1.16158 1.51367 0
M  V30 675 C 65.2784 -1.71635 2.99392 0
M  V30 676 C 64.3914 -1.18364 4.15468 0
M  V30 677 C 63.5264 -2.30834 4.78424 0
M  V30 678 C 62.5654 -1.74762 5.86622 0
M  V30 679 N 61.7024 -2.80855 6.43479 0
M  V30 680 H 66.5424 0.0430893 2.97969 0
M  V30 681 H 64.0794 0.0330359 1.47063 0
M  V30 682 H 66.0374 -2.39868 3.41349 0
M  V30 683 H 64.6674 -2.28742 2.27765 0
M  V30 684 H 63.7194 -0.393163 3.78363 0
M  V30 685 H 65.0314 -0.733262 4.93381 0
M  V30 686 H 64.1854 -3.0699 5.23299 0
M  V30 687 H 62.9244 -2.79204 3.99871 0
M  V30 688 H 61.9294 -0.970995 5.41158 0
M  V30 689 H 63.1544 -1.2728 6.67066 0
M  V30 690 H 61.1004 -3.28535 5.67804 0
M  V30 691 H 61.0174 -2.40351 7.16776 0
M  V30 692 H 62.2854 -3.5687 6.93011 0
M  V30 693 N 66.5145 -1.57545 0.0417849 0
M  V30 694 C 67.7395 -1.97035 -0.647455 0
M  V30 695 C 68.1645 -0.918775 -1.64135 0
M  V30 696 O 67.5225 0.119006 -1.80909 0
M  V30 697 C 67.5705 -3.35609 -1.31905 0
M  V30 698 O 66.6745 -3.3287 -2.43457 0
M  V30 699 H 66.0155 -0.64211 -0.169086 0
M  V30 700 H 68.5455 -2.04318 0.107399 0
M  V30 701 H 68.5555 -3.72126 -1.67291 0
M  V30 702 H 67.2305 -4.11685 -0.590586 0
M  V30 703 H 65.8075 -3.08087 -2.10088 0
M  V30 704 N 67.9926 0.231505 -1.5589 0
M  V30 705 C 69.2396 0.957352 -1.78441 0
M  V30 706 C 69.5676 1.84726 -0.60882 0
M  V30 707 O 68.8226 1.91416 0.40725 0
M  V30 708 C 69.1216 1.83577 -3.0665 0
M  V30 709 C 68.7876 1.09993 -4.37278 0
M  V30 710 C 67.4496 0.896629 -4.72773 0
M  V30 711 C 69.8016 0.579558 -5.17968 0
M  V30 712 C 67.1296 0.160896 -5.86479 0
M  V30 713 C 69.4816 -0.142783 -6.32439 0
M  V30 714 C 68.1456 -0.357427 -6.66542 0
M  V30 715 H 67.4156 0.35032 -0.65296 0
M  V30 716 H 70.0626 0.226259 -1.90159 0
M  V30 717 H 68.3676 2.63441 -2.90011 0
M  V30 718 H 70.0646 2.39934 -3.21298 0
M  V30 719 H 66.6546 1.26835 -4.09403 0
M  V30 720 H 70.8386 0.724125 -4.90989 0
M  V30 721 H 66.0946 -0.0157293 -6.11398 0
M  V30 722 H 70.2686 -0.553559 -6.94196 0
M  V30 723 H 67.8956 -0.929466 -7.54497 0
M  V30 724 N 69.4707 1.49531 0.497807 0
M  V30 725 C 70.4337 1.65916 1.58128 0
M  V30 726 C 71.4337 0.530825 1.51786 0
M  V30 727 O 72.6237 0.797342 1.54881 0
M  V30 728 C 69.7557 1.65951 2.9778 0
M  V30 729 H 70.9487 2.62556 1.44929 0
M  V30 730 H 68.5017 1.38611 0.722275 0
M  V30 731 H 69.2367 0.709065 3.16453 0
M  V30 732 H 69.0217 2.47897 3.03792 0
M  V30 733 H 70.5117 1.80673 3.76493 0
M  V30 734 N 70.9488 -0.749086 1.3866 0
M  V30 735 C 71.8958 -1.86291 1.36251 0
M  V30 736 C 72.8658 -1.64578 0.224347 0
M  V30 737 O 74.0508 -1.86181 0.417279 0
M  V30 738 C 71.1908 -3.23644 1.19786 0
M  V30 739 C 70.3038 -3.57158 2.43027 0
M  V30 740 C 69.4388 -4.83838 2.19258 0
M  V30 741 C 68.4778 -5.10152 3.38247 0
M  V30 742 N 67.6148 -6.28029 3.13884 0
M  V30 743 H 72.4548 -1.87685 2.3147 0
M  V30 744 H 69.9918 -0.917287 1.14997 0
M  V30 745 H 71.9498 -4.0291 1.08254 0
M  V30 746 H 70.5798 -3.21566 0.282031 0
M  V30 747 H 69.6318 -2.72701 2.65214 0
M  V30 748 H 70.9438 -3.7253 3.31697 0
M  V30 749 H 70.0978 -5.71057 2.04888 0
M  V30 750 H 68.8368 -4.70614 1.2796 0
M  V30 751 H 67.8418 -4.21401 3.53131 0
M  V30 752 H 69.0668 -5.25271 4.30427 0
M  V30 753 H 67.0128 -6.1612 2.25238 0
M  V30 754 H 66.9298 -6.43922 3.96106 0
M  V30 755 H 68.1978 -7.18124 3.03179 0
M  V30 756 N 72.4269 -1.23603 -0.977757 0
M  V30 757 C 73.6519 -1.09735 -1.75991 0
M  V30 758 C 74.0769 0.346858 -1.84874 0
M  V30 759 O 73.4349 1.25093 -1.3123 0
M  V30 760 C 73.4829 -1.73051 -3.16363 0
M  V30 761 O 72.5869 -0.994452 -4.0023 0
M  V30 762 H 71.9279 -0.384476 -0.541364 0
M  V30 763 H 74.4579 -1.6371 -1.2272 0
M  V30 764 H 74.4679 -1.78398 -3.66931 0
M  V30 765 H 73.1429 -2.78137 -3.09213 0
M  V30 766 H 71.7199 -1.01812 -3.58732 0
M  V30 767 N 73.905 1.17692 -1.04816 0
M  V30 768 C 75.321 1.39863 -0.768794 0
M  V30 769 C 75.521 1.91118 0.638451 0
M  V30 770 O 74.577 2.10036 1.40146 0
M  V30 771 C 75.89 2.39274 -1.82122 0
M  V30 772 C 77.438 2.52987 -1.843 0
M  V30 773 C 77.913 3.55669 -2.88555 0
M  V30 774 N 79.404 3.63183 -2.87493 0
M  V30 775 C 80.139 4.42381 -3.64811 0
M  V30 776 N 79.635 5.25125 -4.51903 0
M  V30 777 N 81.428 4.37217 -3.53267 0
M  V30 778 H 73.579 0.82752 -1.95617 0
M  V30 779 H 75.842 0.426123 -0.846831 0
M  V30 780 H 75.548 2.08678 -2.83102 0
M  V30 781 H 75.422 3.38725 -1.65967 0
M  V30 782 H 77.809 2.82896 -0.839869 0
M  V30 783 H 77.89 1.53623 -2.04532 0
M  V30 784 H 77.534 3.26499 -3.89051 0
M  V30 785 H 77.464 4.54728 -2.65575 0
M  V30 786 H 79.955 3.04103 -2.24343 0
M  V30 787 H 80.268 5.82728 -5.07591 0
M  V30 788 H 78.613 5.24519 -4.55966 0
M  V30 789 H 81.804 3.71626 -2.84625 0
M  V30 790 H 81.977 4.98696 -4.13771 0
M  V30 791 N 75.3831 0.828654 1.34056 0
M  V30 792 C 76.3151 0.212052 2.28217 0
M  V30 793 C 77.3281 -0.601362 1.51286 0
M  V30 794 O 78.5171 -0.430104 1.73241 0
M  V30 795 C 75.6171 -0.72088 3.31144 0
M  V30 796 C 74.7901 0.0509587 4.3737 0
M  V30 797 C 73.8491 -0.803766 5.20025 0
M  V30 798 O 72.8751 -0.246667 5.68665 0
M  V30 799 N 74.0771 -2.1227 5.40298 0
M  V30 800 H 76.8421 1.02105 2.81771 0
M  V30 801 H 74.4031 0.686153 1.46641 0
M  V30 802 H 76.3951 -1.29742 3.8334 0
M  V30 803 H 74.9651 -1.43061 2.77943 0
M  V30 804 H 74.1851 0.808831 3.85813 0
M  V30 805 H 75.4731 0.582065 5.0546 0
M  V30 806 H 74.8711 -2.59898 5.02464 0
M  V30 807 H 73.4281 -2.64796 5.95589 0
M  V30 808 N 76.8612 -1.46375 0.584142 0
M  V30 809 C 77.7942 -2.27351 -0.196676 0
M  V30 810 C 78.7722 -1.35715 -0.895561 0
M  V30 811 O 79.9562 -1.65126 -0.90916 0
M  V30 812 C 77.0832 -3.13486 -1.28235 0
M  V30 813 C 76.1292 -4.20896 -0.689145 0
M  V30 814 S 76.9622 -5.33299 0.48507 0
M  V30 815 C 78.1182 -6.23 -0.601767 0
M  V30 816 H 78.3512 -2.93228 0.490395 0
M  V30 817 H 75.8842 -1.49875 0.371071 0
M  V30 818 H 77.8422 -3.63676 -1.90395 0
M  V30 819 H 76.5032 -2.4692 -1.94138 0
M  V30 820 H 75.6962 -4.80997 -1.50527 0
M  V30 821 H 75.2982 -3.73726 -0.143181 0
M  V30 822 H 77.5902 -6.60979 -1.48705 0
M  V30 823 H 78.5332 -7.0809 -0.0374799 0
M  V30 824 H 78.9412 -5.57173 -0.906557 0
M  V30 825 N 78.3393 -0.321999 -1.54275 0
M  V30 826 C 79.7553 0.0306999 -1.5957 0
M  V30 827 C 79.9553 1.50614 -1.33857 0
M  V30 828 O 79.0113 2.2619 -1.12223 0
M  V30 829 C 80.3243 -0.386122 -2.98211 0
M  V30 830 C 81.8723 -0.336647 -3.11184 0
M  V30 831 C 82.3473 -0.728607 -4.52167 0
M  V30 832 N 83.8383 -0.681952 -4.58152 0
M  V30 833 C 84.5733 -0.957449 -5.6535 0
M  V30 834 N 84.0693 -1.3 -6.80494 0
M  V30 835 N 85.8623 -0.883113 -5.55119 0
M  V30 836 H 78.0133 -1.28332 -1.69247 0
M  V30 837 H 80.2763 -0.521716 -0.791528 0
M  V30 838 H 79.9823 -1.41404 -3.22022 0
M  V30 839 H 79.8563 0.249662 -3.76373 0
M  V30 840 H 82.2433 0.682058 -2.8711 0
M  V30 841 H 82.3243 -1.00734 -2.3513 0
M  V30 842 H 81.9683 -1.74522 -4.76974 0
M  V30 843 H 81.8983 -0.0356152 -5.26588 0
M  V30 844 H 84.3893 -0.428985 -3.75457 0
M  V30 845 H 84.7023 -1.49563 -7.58189 0
M  V30 846 H 83.0473 -1.33824 -6.81994 0
M  V30 847 H 86.2383 -0.615001 -4.64042 0
M  V30 848 H 86.4113 -1.10118 -6.38575 0
M  V30 849 N 79.8174 1.5752 -0.0501392 0
M  V30 850 C 81.0424 1.97376 0.636997 0
M  V30 851 C 81.4674 0.927466 1.63645 0
M  V30 852 O 80.8254 -0.10941 1.8097 0
M  V30 853 C 80.8734 3.36304 1.30123 0
M  V30 854 O 79.9774 3.34156 2.41689 0
M  V30 855 H 79.3184 0.642998 0.165679 0
M  V30 856 H 81.8484 2.04258 -0.118233 0
M  V30 857 H 81.8584 3.73008 1.65315 0
M  V30 858 H 80.5334 4.11993 0.568746 0
M  V30 859 H 79.1104 3.09196 2.08451 0
M  V30 860 N 81.2955 -0.223234 1.56011 0
M  V30 861 C 82.5415 -0.949279 1.79211 0
M  V30 862 C 82.8745 -1.84054 0.619494 0
M  V30 863 O 82.1495 -1.90726 -0.381317 0
M  V30 864 C 82.4325 -1.78965 3.12479 0
M  V30 865 C 82.2855 -0.924997 4.40186 0
M  V30 866 C 83.6045 -2.76774 3.42175 0
M  V30 867 H 80.7235 -0.343676 0.651963 0
M  V30 868 H 83.3655 -0.218253 1.88742 0
M  V30 869 H 81.5155 -2.41291 3.04485 0
M  V30 870 H 83.1875 -0.318615 4.60198 0
M  V30 871 H 81.4305 -0.230344 4.33188 0
M  V30 872 H 82.1015 -1.54735 5.29869 0
M  V30 873 H 84.5775 -2.24584 3.50287 0
M  V30 874 H 83.4535 -3.32678 4.36597 0
M  V30 875 H 83.7145 -3.54429 2.64258 0
M  V30 876 N 82.7736 -1.49793 -0.48987 0
M  V30 877 C 84.0506 -1.50348 -1.25119 0
M  V30 878 C 84.4306 -0.237466 -2.0976 0
M  V30 879 O 83.7786 0.77981 -2.14782 0
M  V30 880 C 83.9886 -2.78872 -2.09837 0
M  V30 881 C 85.3366 -3.288 -2.68655 0
M  V30 882 O 86.3606 -2.80065 -2.20096 0
M  V30 883 O 85.2196 -4.13707 -3.57083 0
M  V30 884 H 82.3136 -0.602242 -0.566775 0
M  V30 885 H 84.8596 -1.62067 -0.503229 0
M  V30 886 H 83.6316 -3.62499 -1.47343 0
M  V30 887 H 83.2546 -2.70066 -2.91805 0
M  V30 888 N 84.2517 0.741722 -1.39055 0
M  V30 889 C 85.4977 1.50336 -1.36113 0
M  V30 890 C 85.8307 1.94148 0.0450796 0
M  V30 891 O 85.1057 1.66301 1.00868 0
M  V30 892 C 85.3887 2.74773 -2.32749 0
M  V30 893 C 85.2417 2.37023 -3.82283 0
M  V30 894 C 86.5607 3.76846 -2.27322 0
M  V30 895 H 83.6797 0.545351 -0.495743 0
M  V30 896 H 86.3217 0.848624 -1.69995 0
M  V30 897 H 84.4717 3.30639 -2.03986 0
M  V30 898 H 86.1437 1.8684 -4.21768 0
M  V30 899 H 84.3867 1.69334 -3.99385 0
M  V30 900 H 85.0577 3.26104 -4.45376 0
M  V30 901 H 87.5337 3.30548 -2.5274 0
M  V30 902 H 86.4097 4.6159 -2.97028 0
M  V30 903 H 86.6707 4.23286 -1.27599 0
M  V30 904 N 85.7298 1.2412 0.971189 0
M  V30 905 C 86.9578 1.10575 1.74874 0
M  V30 906 C 87.3728 -0.342017 1.85676 0
M  V30 907 O 86.7298 -1.23617 1.34258 0
M  V30 908 C 86.7808 1.73579 3.171 0
M  V30 909 O 86.5018 3.12695 3.06844 0
M  V30 910 C 88.0028 1.65598 4.11208 0
M  V30 911 H 85.2228 0.386504 0.548503 0
M  V30 912 H 87.7668 1.64156 1.21955 0
M  V30 913 H 85.9218 1.24009 3.67016 0
M  V30 914 H 86.3358 3.43412 3.96445 0
M  V30 915 H 87.8098 2.1437 5.08674 0
M  V30 916 H 88.2868 0.616532 4.34851 0
M  V30 917 H 88.8928 2.14578 3.67201 0
M  V30 918 N 87.2079 -1.17134 1.05439 0
M  V30 919 C 88.1379 -2.2342 0.678649 0
M  V30 920 C 89.1189 -1.66971 -0.32476 0
M  V30 921 O 90.3039 -1.93149 -0.201802 0
M  V30 922 C 87.4339 -3.47256 0.0552099 0
M  V30 923 C 86.3879 -4.16543 0.98365 0
M  V30 924 C 85.7139 -5.34231 0.223961 0
M  V30 925 C 87.0139 -4.68495 2.3089 0
M  V30 926 H 88.7079 -2.55105 1.56722 0
M  V30 927 H 86.2539 -1.2262 0.754998 0
M  V30 928 H 88.2069 -4.20828 -0.21946 0
M  V30 929 H 86.9309 -3.14846 -0.868319 0
M  V30 930 H 85.5899 -3.44887 1.24293 0
M  V30 931 H 85.2379 -4.98071 -0.702412 0
M  V30 932 H 84.9379 -5.81527 0.842627 0
M  V30 933 H 86.4619 -6.10585 -0.0433671 0
M  V30 934 H 87.8759 -5.33691 2.09396 0
M  V30 935 H 86.2729 -5.26379 2.88176 0
M  V30 936 H 87.3429 -3.85169 2.94572 0
M  V30 937 N 88.686 -0.835752 -1.33615 0
M  V30 938 C 89.619 -0.211815 -2.27215 0
M  V30 939 C 90.597 0.639249 -1.49507 0
M  V30 940 O 91.781 0.600193 -1.78689 0
M  V30 941 C 88.908 0.702893 -3.31326 0
M  V30 942 C 87.954 -0.0723049 -4.26439 0
M  V30 943 S 88.787 -1.42811 -5.16106 0
M  V30 944 C 89.943 -0.518613 -6.23748 0
M  V30 945 H 90.176 -1.00533 -2.79786 0
M  V30 946 H 87.709 -0.632336 -1.40858 0
M  V30 947 H 89.667 1.22505 -3.91794 0
M  V30 948 H 88.328 1.47004 -2.77576 0
M  V30 949 H 87.521 0.62359 -5.00127 0
M  V30 950 H 87.123 -0.525424 -3.70291 0
M  V30 951 H 89.415 0.284778 -6.76901 0
M  V30 952 H 90.358 -1.22556 -6.97413 0
M  V30 953 H 90.766 -0.101344 -5.64409 0
M  V30 954 N 90.1641 1.46063 -0.591896 0
M  V30 955 C 91.5751 1.85944 -0.167822 0
M  V30 956 C 91.9261 1.49429 1.27143 0
M  V30 957 O 91.0511 0.913515 1.96173 0
M  V30 958 C 91.6461 3.37489 -0.297794 0
M  V30 959 C 90.2051 3.76332 0.0714732 0
M  V30 960 C 89.3521 2.7006 -0.629509 0
M  V30 961 H 92.3031 1.37087 -0.799555 0
M  V30 962 H 92.3241 3.77532 0.474349 0
M  V30 963 H 91.8361 3.64034 -1.3454 0
M  V30 964 H 89.9371 3.55405 1.11886 0
M  V30 965 H 90.0501 4.78088 -0.311245 0
M  V30 966 H 88.4141 2.54607 -0.0687867 0
M  V30 967 H 89.1971 2.99444 -1.67894 0
M  V30 968 N 91.6422 0.330177 1.54103 0
M  V30 969 C 92.8912 -0.271336 1.99867 0
M  V30 970 C 93.2042 -1.52723 1.22209 0
M  V30 971 O 94.4102 -2.20515 1.58383 0
M  V30 972 C 92.8662 -0.534032 3.55916 0
M  V30 973 C 92.4742 0.705193 4.42415 0
M  V30 974 C 94.2182 -1.09514 4.1013 0
M  V30 975 C 92.1252 0.414035 5.89949 0
M  V30 976 H 91.0552 -0.105166 0.74663 0
M  V30 977 H 93.7062 0.443429 1.78062 0
M  V30 978 H 92.0882 -1.30915 3.73734 0
M  V30 979 H 93.2622 1.4804 4.36372 0
M  V30 980 H 91.5772 1.18698 3.99124 0
M  V30 981 H 94.1742 -1.3277 5.17954 0
M  V30 982 H 94.5172 -2.04656 3.62521 0
M  V30 983 H 95.0502 -0.381038 3.95971 0
M  V30 984 H 91.7892 1.33481 6.41766 0
M  V30 985 H 91.3092 -0.323336 5.98928 0
M  V30 986 H 92.9882 0.0263105 6.46995 0
M  V30 987 N 93.1203 -1.57491 0.0584922 0
M  V30 988 C 94.3973 -1.84346 -0.653918 0
M  V30 989 C 94.7773 -0.948355 -1.88599 0
M  V30 990 O 94.1253 -0.0112403 -2.28497 0
M  V30 991 C 94.3353 -3.34239 -1.00425 0
M  V30 992 C 95.6833 -4.01431 -1.38342 0
M  V30 993 O 96.7073 -3.38907 -1.09637 0
M  V30 994 O 95.5663 -5.11683 -1.91943 0
M  V30 995 H 92.6603 -0.761112 -0.323478 0
M  V30 996 H 95.2063 -1.6947 0.0884125 0
M  V30 997 H 93.9783 -3.91089 -0.128625 0
M  V30 998 H 93.6013 -3.54329 -1.80378 0
M  V30 999 N 94.5984 0.214957 -1.56127 0
M  V30 1000 C 95.8384 0.945364 -1.81224 0
M  V30 1001 C 96.2024 1.81265 -0.633005 0
M  V30 1002 O 97.4034 2.57731 -0.763423 0
M  V30 1003 C 95.6744 1.75665 -3.1125 0
M  V30 1004 S 97.2334 2.54179 -3.57685 0
M  V30 1005 H 94.0514 0.317443 -0.6362 0
M  V30 1006 H 96.6534 0.210381 -1.94365 0
M  V30 1007 H 95.3574 1.10977 -3.9511 0
M  V30 1008 H 94.8884 2.53381 -3.00934 0
M  V30 1009 H 96.9034 3.7792 -3.21545 0
M  V30 1010 N 96.0765 1.50051 0.48192 0
M  V30 1011 C 96.9865 1.7089 1.60728 0
M  V30 1012 C 98.0025 0.591788 1.63627 0
M  V30 1013 O 99.1785 0.868817 1.81696 0
M  V30 1014 C 96.2435 1.78855 2.97005 0
M  V30 1015 C 95.3045 3.02537 3.04581 0
M  V30 1016 C 94.5375 3.10112 4.34357 0
M  V30 1017 O 94.7605 2.24765 5.24249 0
M  V30 1018 O 93.6945 4.02747 4.47301 0
M  V30 1019 H 97.5205 2.66264 1.46072 0
M  V30 1020 H 95.1055 1.34018 0.660264 0
M  V30 1021 H 96.9875 1.86336 3.77964 0
M  V30 1022 H 95.6625 0.866628 3.11883 0
M  V30 1023 H 94.5695 3.00563 2.22739 0
M  V30 1024 H 95.9025 3.94272 2.94636 0
M  V30 1025 N 97.5546 -0.734337 1.39446 0
M  V30 1026 C 98.4846 -1.86155 1.40955 0
M  V30 1027 C 99.4656 -1.67898 0.272827 0
M  V30 1028 O 100.651 -1.88207 0.478743 0
M  V30 1029 C 97.7806 -3.23912 1.25294 0
M  V30 1030 C 96.7346 -3.56808 2.36373 0
M  V30 1031 C 96.0606 -4.93508 2.058 0
M  V30 1032 C 97.3606 -3.59713 3.78687 0
M  V30 1033 H 99.0546 -1.8515 2.35287 0
M  V30 1034 H 96.6006 -0.889367 1.13253 0
M  V30 1035 H 98.5536 -4.02443 1.2497 0
M  V30 1036 H 97.2776 -3.25446 0.274308 0
M  V30 1037 H 95.9366 -2.80606 2.35914 0
M  V30 1038 H 95.5846 -4.91623 1.06374 0
M  V30 1039 H 95.2846 -5.16486 2.80208 0
M  V30 1040 H 96.8086 -5.74396 2.07128 0
M  V30 1041 H 98.2226 -4.2832 3.81071 0
M  V30 1042 H 96.6196 -3.94209 4.52459 0
M  V30 1043 H 97.6896 -2.59504 4.09617 0
M  V30 1044 N 99.0327 -1.24633 -0.964593 0
M  V30 1045 C 100.258 -1.11596 -1.74818 0
M  V30 1046 C 100.683 0.32723 -1.85232 0
M  V30 1047 O 100.041 1.23695 -1.32549 0
M  V30 1048 C 100.089 -1.76397 -3.1451 0
M  V30 1049 O 99.1927 -1.03685 -3.99153 0
M  V30 1050 H 98.5337 -0.390196 -0.537255 0
M  V30 1051 H 101.064 -1.65002 -1.20977 0
M  V30 1052 H 101.074 -1.8228 -3.65018 0
M  V30 1053 H 99.7487 -2.81401 -3.06246 0
M  V30 1054 H 98.3257 -1.05611 -3.57632 0
M  V30 1055 N 100.511 1.16574 -1.06058 0
M  V30 1056 C 101.736 1.91493 -0.796562 0
M  V30 1057 C 102.161 1.76773 0.642868 0
M  V30 1058 O 101.519 1.09142 1.44768 0
M  V30 1059 C 101.567 3.40293 -1.19303 0
M  V30 1060 O 100.671 4.11074 -0.330394 0
M  V30 1061 H 100.012 0.596678 -0.291326 0
M  V30 1062 H 102.542 1.47708 -1.41575 0
M  V30 1063 H 102.552 3.91057 -1.16356 0
M  V30 1064 H 101.227 3.50326 -2.24153 0
M  V30 1065 H 99.8038 3.70513 -0.421225 0
M  V30 1066 N 101.989 0.842826 1.3317 0
M  V30 1067 C 103.235 0.450342 1.98352 0
M  V30 1068 C 103.59 -0.980508 1.65541 0
M  V30 1069 O 102.883 -1.67678 0.927065 0
M  V30 1070 C 103.077 0.612607 3.52111 0
M  V30 1071 C 102.906 2.05768 3.99862 0
M  V30 1072 C 101.676 2.69374 4.27511 0
M  V30 1073 C 103.874 3.02688 4.15794 0
M  V30 1074 N 101.856 4.04915 4.61429 0
M  V30 1075 C 103.227 4.23186 4.53115 0
M  V30 1076 C 105.282 2.99041 3.98094 0
M  V30 1077 C 103.985 5.40518 4.74587 0
M  V30 1078 C 106.011 4.15607 4.20743 0
M  V30 1079 C 105.373 5.3486 4.58371 0
M  V30 1080 H 101.472 0.213296 0.752349 0
M  V30 1081 H 104.056 1.09173 1.61212 0
M  V30 1082 H 102.227 0.000998822 3.884 0
M  V30 1083 H 103.959 0.191179 4.04248 0
M  V30 1084 H 100.714 2.20485 4.19146 0
M  V30 1085 H 101.138 4.74798 4.82593 0
M  V30 1086 H 105.78 2.0797 3.68114 0
M  V30 1087 H 103.498 6.3213 5.03425 0
M  V30 1088 H 107.084 4.14207 4.08563 0
M  V30 1089 H 105.964 6.23558 4.75547 0
M  V30 1090 N 103.467 -1.45747 0.599634 0
M  V30 1091 C 104.692 -2.07178 0.0960198 0
M  V30 1092 C 105.117 -1.44268 -1.207 0
M  V30 1093 O 104.475 -0.532503 -1.73303 0
M  V30 1094 C 104.523 -3.60579 -0.0385348 0
M  V30 1095 O 103.627 -3.97713 -1.0908 0
M  V30 1096 H 102.968 -0.660251 0.0704593 0
M  V30 1097 H 105.498 -1.87124 0.827385 0
M  V30 1098 H 105.508 -4.07298 -0.239304 0
M  V30 1099 H 104.183 -4.05756 0.912947 0
M  V30 1100 H 102.76 -3.62678 -0.867135 0
M  V30 1101 N 104.945 -0.338344 -1.53925 0
M  V30 1102 C 106.17 0.263987 -2.05713 0
M  V30 1103 C 106.595 1.43847 -1.21201 0
M  V30 1104 O 105.953 1.79904 -0.224535 0
M  V30 1105 C 106.001 0.662 -3.54471 0
M  V30 1106 O 105.105 1.76265 -3.72833 0
M  V30 1107 H 104.446 0.0448722 -0.662482 0
M  V30 1108 H 106.976 -0.491048 -1.9862 0
M  V30 1109 H 106.986 0.940594 -3.9701 0
M  V30 1110 H 105.661 -0.196937 -4.15433 0
M  V30 1111 H 104.238 1.48173 -3.42198 0
M  V30 1112 N 106.423 1.57458 -0.0668435 0
M  V30 1113 C 107.669 1.94401 0.598316 0
M  V30 1114 C 108.024 0.946335 1.67518 0
M  V30 1115 O 107.317 -0.0321442 1.91573 0
M  V30 1116 C 107.511 3.35784 1.22409 0
M  V30 1117 C 107.34 4.49212 0.209367 0
M  V30 1118 C 106.11 5.04887 -0.204218 0
M  V30 1119 C 108.308 5.11335 -0.551431 0
M  V30 1120 N 106.29 6.01854 -1.21016 0
M  V30 1121 C 107.661 6.03754 -1.41 0
M  V30 1122 C 109.716 4.94173 -0.608038 0
M  V30 1123 C 108.419 6.80854 -2.32013 0
M  V30 1124 C 110.445 5.71912 -1.50566 0
M  V30 1125 C 109.807 6.63976 -2.35191 0
M  V30 1126 H 105.906 0.758538 0.190114 0
M  V30 1127 H 108.49 1.94175 -0.142832 0
M  V30 1128 H 106.661 3.36757 1.93518 0
M  V30 1129 H 108.393 3.59976 1.84931 0
M  V30 1130 H 105.148 4.73266 0.177908 0
M  V30 1131 H 105.572 6.55035 -1.71049 0
M  V30 1132 H 110.214 4.22788 0.032022 0
M  V30 1133 H 107.932 7.5152 -2.97057 0
M  V30 1134 H 111.518 5.60656 -1.55423 0
M  V30 1135 H 110.398 7.2308 -3.03522 0
M  V30 1136 N 107.901 -0.206675 1.56239 0
M  V30 1137 C 109.129 -0.945345 1.8404 0
M  V30 1138 C 109.544 -1.77336 0.647885 0
M  V30 1139 O 108.901 -1.78425 -0.383511 0
M  V30 1140 C 108.952 -1.8509 3.10522 0
M  V30 1141 O 108.673 -1.05634 4.25174 0
M  V30 1142 C 110.174 -2.70222 3.51418 0
M  V30 1143 H 107.394 -0.276372 0.61144 0
M  V30 1144 H 109.938 -0.217417 2.03341 0
M  V30 1145 H 108.093 -2.53259 2.93153 0
M  V30 1146 H 108.507 -1.67238 4.97124 0
M  V30 1147 H 109.981 -3.29438 4.42916 0
M  V30 1148 H 110.458 -3.43358 2.73864 0
M  V30 1149 H 111.064 -2.07443 3.71278 0
M  V30 1150 N 109.379 -1.50304 -0.473955 0
M  V30 1151 C 110.607 -1.64902 -1.24959 0
M  V30 1152 C 111.022 -0.331198 -1.85872 0
M  V30 1153 O 110.379 0.68652 -1.69095 0
M  V30 1154 C 110.43 -2.73803 -2.36038 0
M  V30 1155 O 110.151 -4.00477 -1.77624 0
M  V30 1156 C 111.652 -2.99349 -3.26964 0
M  V30 1157 H 108.872 -0.554383 -0.378022 0
M  V30 1158 H 111.416 -1.9651 -0.566054 0
M  V30 1159 H 109.571 -2.44898 -3.00173 0
M  V30 1160 H 109.985 -4.60678 -2.5075 0
M  V30 1161 H 111.459 -3.79217 -4.01121 0
M  V30 1162 H 111.936 -2.10307 -3.85574 0
M  V30 1163 H 112.542 -3.29774 -2.68569 0
M  V30 1164 N 110.857 0.726932 -1.39834 0
M  V30 1165 C 112.097 1.4992 -1.38936 0
M  V30 1166 C 112.461 1.91996 0.0126883 0
M  V30 1167 O 113.662 2.68399 0.146715 0
M  V30 1168 C 111.933 2.70013 -2.34153 0
M  V30 1169 S 113.492 3.59563 -2.51515 0
M  V30 1170 H 110.31 0.51271 -0.492595 0
M  V30 1171 H 112.912 0.85107 -1.76003 0
M  V30 1172 H 111.616 2.37254 -3.34871 0
M  V30 1173 H 111.147 3.39748 -1.98331 0
M  V30 1174 H 113.162 4.63973 -1.75909 0
M  V30 1175 N 112.336 1.25143 0.95797 0
M  V30 1176 C 113.613 1.00472 1.67823 0
M  V30 1177 C 113.993 -0.470056 2.058 0
M  V30 1178 O 113.341 -1.44663 1.76875 0
M  V30 1179 C 113.551 1.9372 2.90299 0
M  V30 1180 C 114.899 2.21371 3.62326 0
M  V30 1181 O 115.923 1.91451 3.00375 0
M  V30 1182 O 114.782 2.72231 4.7387 0
M  V30 1183 H 111.876 0.380752 0.734137 0
M  V30 1184 H 114.422 1.36283 1.01119 0
M  V30 1185 H 113.194 2.93316 2.59001 0
M  V30 1186 H 112.817 1.58286 3.64735 0
M  V30 1187 N 113.814 -1.1601 1.06675 0
M  V30 1188 C 115.225 -1.68235 0.809565 0
M  V30 1189 C 115.576 -1.8454 -0.666303 0
M  V30 1190 O 114.701 -1.54374 -1.5165 0
M  V30 1191 C 115.296 -3.05585 1.46299 0
M  V30 1192 C 113.855 -3.54915 1.25349 0
M  V30 1193 C 113.002 -2.30804 1.53703 0
M  V30 1194 H 115.953 -1.00318 1.22971 0
M  V30 1195 H 115.974 -3.70174 0.880431 0
M  V30 1196 H 115.486 -2.93686 2.53713 0
M  V30 1197 H 113.587 -3.72067 0.199261 0
M  V30 1198 H 113.7 -4.36774 1.9689 0
M  V30 1199 H 112.064 -2.36007 0.957739 0
M  V30 1200 H 112.847 -2.21499 2.62284 0
M  V30 1201 N 115.292 -0.849877 -1.32721 0
M  V30 1202 C 116.532 -0.457146 -1.99222 0
M  V30 1203 C 116.896 0.968038 -1.6581 0
M  V30 1204 O 118.097 1.46507 -2.25364 0
M  V30 1205 C 116.368 -0.683966 -3.50794 0
M  V30 1206 S 117.927 -0.388095 -4.3708 0
M  V30 1207 H 114.745 -0.171464 -0.690015 0
M  V30 1208 H 117.347 -1.10155 -1.61512 0
M  V30 1209 H 116.051 -1.72038 -3.726 0
M  V30 1210 H 115.582 -0.0258086 -3.93392 0
M  V30 1211 H 117.597 0.787791 -4.89906 0
M  V30 1212 N 116.77 1.45427 -0.607355 0
M  V30 1213 C 117.702 2.2871 0.149752 0
M  V30 1214 C 118.715 1.39937 0.831958 0
M  V30 1215 O 119.904 1.64313 0.697385 0
M  V30 1216 C 117.004 3.15673 1.23304 0
M  V30 1217 C 116.177 4.32722 0.637996 0
M  V30 1218 C 115.236 5.00895 1.61215 0
M  V30 1219 O 114.262 5.57697 1.13854 0
M  V30 1220 N 115.464 5.00159 2.94655 0
M  V30 1221 H 118.229 2.94328 -0.564882 0
M  V30 1222 H 115.79 1.55612 -0.446823 0
M  V30 1223 H 117.782 3.58144 1.88454 0
M  V30 1224 H 116.352 2.51965 1.8502 0
M  V30 1225 H 115.572 3.93734 -0.191572 0
M  V30 1226 H 116.86 5.08321 0.220665 0
M  V30 1227 H 116.258 4.553 3.35735 0
M  V30 1228 H 114.815 5.46495 3.55228 0
M  V30 1229 N 118.248 0.346503 1.53744 0
M  V30 1230 C 119.195 -0.508914 2.25119 0
M  V30 1231 C 120.165 -1.09315 1.25058 0
M  V30 1232 O 121.35 -1.12921 1.53797 0
M  V30 1233 C 118.49 -1.65246 3.02965 0
M  V30 1234 C 117.603 -1.09525 4.17886 0
M  V30 1235 C 116.738 -2.20634 4.83212 0
M  V30 1236 C 115.777 -1.62279 5.90196 0
M  V30 1237 N 114.914 -2.67143 6.49291 0
M  V30 1238 H 119.754 0.106283 2.9781 0
M  V30 1239 H 117.291 0.0642227 1.4696 0
M  V30 1240 H 119.249 -2.32574 3.4636 0
M  V30 1241 H 117.879 -2.2386 2.32565 0
M  V30 1242 H 116.931 -0.312818 3.79112 0
M  V30 1243 H 118.243 -0.628444 4.94825 0
M  V30 1244 H 117.397 -2.95821 5.29693 0
M  V30 1245 H 116.136 -2.70659 4.05703 0
M  V30 1246 H 115.141 -0.855989 5.43096 0
M  V30 1247 H 116.366 -1.13102 6.69615 0
M  V30 1248 H 114.312 -3.16417 5.74645 0
M  V30 1249 H 114.229 -2.25093 7.21713 0
M  V30 1250 H 115.497 -3.4209 7.00425 0
M  V30 1251 N 119.726 -1.57421 0.075193 0
M  V30 1252 C 120.673 -2.12915 -0.890843 0
M  V30 1253 C 121.643 -1.04252 -1.29309 0
M  V30 1254 O 122.828 -1.31933 -1.37834 0
M  V30 1255 C 119.968 -2.69795 -2.15186 0
M  V30 1256 C 119.081 -3.92624 -1.80194 0
M  V30 1257 C 118.216 -4.37736 -3.00933 0
M  V30 1258 C 117.255 -5.53205 -2.61974 0
M  V30 1259 N 116.392 -5.9326 -3.75483 0
M  V30 1260 H 121.232 -2.95156 -0.410735 0
M  V30 1261 H 118.769 -1.45854 -0.191086 0
M  V30 1262 H 120.727 -3.00883 -2.89008 0
M  V30 1263 H 119.357 -1.90313 -2.60731 0
M  V30 1264 H 118.409 -3.67977 -0.964218 0
M  V30 1265 H 119.721 -4.76482 -1.47534 0
M  V30 1266 H 118.875 -4.70503 -3.8303 0
M  V30 1267 H 117.614 -3.52739 -3.36789 0
M  V30 1268 H 116.619 -5.20086 -1.783 0
M  V30 1269 H 117.844 -6.39936 -2.27284 0
M  V30 1270 H 115.79 -5.11212 -4.11094 0
M  V30 1271 H 115.707 -6.71865 -3.46602 0
M  V30 1272 H 116.975 -6.30651 -4.58148 0
M  V30 1273 N 121.204 0.198386 -1.56346 0
M  V30 1274 C 122.62 0.549085 -1.49857 0
M  V30 1275 C 122.82 1.86016 -0.774611 0
M  V30 1276 O 121.876 2.50416 -0.323776 0
M  V30 1277 C 123.189 0.606868 -2.94512 0
M  V30 1278 C 124.737 0.695925 -3.05165 0
M  V30 1279 C 125.212 0.784848 -4.51225 0
M  V30 1280 N 126.703 0.848463 -4.55363 0
M  V30 1281 C 127.438 0.937378 -5.65686 0
M  V30 1282 N 126.934 0.9888 -6.85707 0
M  V30 1283 N 128.727 0.974312 -5.53592 0
M  V30 1284 H 120.878 -0.661655 -2.01831 0
M  V30 1285 H 123.141 -0.235261 -0.918344 0
M  V30 1286 H 122.847 -0.28732 -3.50524 0
M  V30 1287 H 122.721 1.46268 -3.47686 0
M  V30 1288 H 125.108 1.58055 -2.49204 0
M  V30 1289 H 125.189 -0.186022 -2.55123 0
M  V30 1290 H 124.833 -0.0954072 -5.0781 0
M  V30 1291 H 124.763 1.68255 -4.98997 0
M  V30 1292 H 127.254 0.818103 -3.68938 0
M  V30 1293 H 127.567 1.05707 -7.65536 0
M  V30 1294 H 125.912 0.957534 -6.88372 0
M  V30 1295 H 129.103 0.930954 -4.58749 0
M  V30 1296 H 129.276 1.04015 -6.39597 0
M  V30 1297 N 122.682 1.50554 0.465978 0
M  V30 1298 C 123.912 1.65323 1.23903 0
M  V30 1299 C 124.32 0.338051 1.86155 0
M  V30 1300 O 123.663 -0.690518 1.70228 0
M  V30 1301 C 123.725 2.69048 2.3844 0
M  V30 1302 C 123.389 4.12462 1.96784 0
M  V30 1303 C 124.386 4.98168 1.48745 0
M  V30 1304 C 122.071 4.58407 2.05349 0
M  V30 1305 C 124.065 6.27868 1.0982 0
M  V30 1306 C 121.752 5.88112 1.66035 0
M  V30 1307 C 122.75 6.72668 1.18349 0
M  V30 1308 O 122.438 7.99951 0.795825 0
M  V30 1309 H 122.17 0.558629 0.38067 0
M  V30 1310 H 124.724 1.97561 0.562022 0
M  V30 1311 H 122.954 2.32062 3.09328 0
M  V30 1312 H 124.643 2.72985 3.0039 0
M  V30 1313 H 125.409 4.63885 1.41546 0
M  V30 1314 H 121.288 3.92735 2.41414 0
M  V30 1315 H 124.832 6.93819 0.725293 0
M  V30 1316 H 120.729 6.21914 1.72895 0
M  V30 1317 H 121.497 8.13265 0.924222 0
M  V30 1318 N 124.16 -0.719506 1.40217 0
M  V30 1319 C 125.576 -1.02707 1.22161 0
M  V30 1320 C 125.776 -2.0128 0.0940557 0
M  V30 1321 O 124.832 -2.46452 -0.549318 0
M  V30 1322 C 126.145 -1.57454 2.56181 0
M  V30 1323 C 127.693 -1.69458 2.63159 0
M  V30 1324 C 128.168 -2.27611 3.97438 0
M  V30 1325 N 129.659 -2.35002 3.99159 0
M  V30 1326 C 130.394 -2.80972 4.99842 0
M  V30 1327 N 129.89 -3.26723 6.10921 0
M  V30 1328 N 131.683 -2.80321 4.87213 0
M  V30 1329 H 123.834 -0.0660492 2.12297 0
M  V30 1330 H 126.097 -0.0919077 0.943534 0
M  V30 1331 H 125.803 -0.924873 3.39321 0
M  V30 1332 H 125.677 -2.56036 2.76993 0
M  V30 1333 H 128.064 -2.33543 1.80393 0
M  V30 1334 H 128.145 -0.694867 2.46181 0
M  V30 1335 H 127.789 -1.6415 4.80643 0
M  V30 1336 H 127.719 -3.2829 4.11744 0
M  V30 1337 H 130.21 -2.02685 3.18947 0
M  V30 1338 H 130.523 -3.60355 6.8364 0
M  V30 1339 H 128.868 -3.24692 6.14492 0
M  V30 1340 H 132.059 -2.43912 3.9953 0
M  V30 1341 H 132.232 -3.15831 5.65822 0
M  V30 1342 N 125.638 -1.25649 -0.95132 0
M  V30 1343 C 126.868 -1.13179 -1.72841 0
M  V30 1344 C 127.276 0.316827 -1.86528 0
M  V30 1345 O 126.619 1.22948 -1.3649 0
M  V30 1346 C 126.681 -1.71644 -3.15878 0
M  V30 1347 C 126.345 -3.20667 -3.25609 0
M  V30 1348 C 127.342 -4.17616 -3.09666 0
M  V30 1349 C 125.027 -3.6094 -3.49324 0
M  V30 1350 C 127.021 -5.52817 -3.17289 0
M  V30 1351 C 124.708 -4.96278 -3.56584 0
M  V30 1352 C 125.706 -5.92025 -3.40581 0
M  V30 1353 O 125.394 -7.24899 -3.47528 0
M  V30 1354 H 125.126 -0.395389 -0.54831 0
M  V30 1355 H 127.68 -1.66566 -1.20187 0
M  V30 1356 H 125.91 -1.12707 -3.69911 0
M  V30 1357 H 127.599 -1.54225 -3.75459 0
M  V30 1358 H 128.365 -3.87842 -2.91211 0
M  V30 1359 H 124.244 -2.86907 -3.6084 0
M  V30 1360 H 127.788 -6.2753 -3.04716 0
M  V30 1361 H 123.685 -5.25716 -3.74556 0
M  V30 1362 H 124.453 -7.33039 -3.64138 0
M  V30 1363 N 127.117 1.15442 -1.07289 0
M  V30 1364 C 128.08 2.18358 -0.696591 0
M  V30 1365 C 129.08 1.58637 0.262837 0
M  V30 1366 O 130.27 1.74145 0.0438809 0
M  V30 1367 C 127.402 3.4089 -0.0266151 0
M  V30 1368 H 128.595 2.53162 -1.60776 0
M  V30 1369 H 126.148 1.29893 -0.869342 0
M  V30 1370 H 126.883 3.11653 0.896822 0
M  V30 1371 H 126.668 3.85495 -0.716657 0
M  V30 1372 H 128.158 4.17009 0.222028 0
M  V30 1373 N 128.595 0.856903 1.32268 0
M  V30 1374 C 129.825 0.47475 2.01071 0
M  V30 1375 C 130.233 -0.933746 1.64553 0
M  V30 1376 O 129.576 -1.62114 0.863989 0
M  V30 1377 C 129.638 0.536746 3.55471 0
M  V30 1378 C 129.302 1.90453 4.15423 0
M  V30 1379 C 130.299 2.87029 4.33486 0
M  V30 1380 C 127.984 2.20229 4.51447 0
M  V30 1381 C 129.978 4.11532 4.86744 0
M  V30 1382 C 127.665 3.44984 5.0441 0
M  V30 1383 C 128.663 4.40452 5.22007 0
M  V30 1384 O 128.351 5.62998 5.73837 0
M  V30 1385 H 128.083 0.184778 0.650256 0
M  V30 1386 H 130.637 1.15615 1.69771 0
M  V30 1387 H 128.867 -0.20152 3.86175 0
M  V30 1388 H 130.556 0.169875 4.05544 0
M  V30 1389 H 131.322 2.6533 4.05986 0
M  V30 1390 H 127.201 1.46705 4.37034 0
M  V30 1391 H 130.745 4.86056 5.00395 0
M  V30 1392 H 126.642 3.66532 5.31342 0
M  V30 1393 H 127.41 5.64987 5.92226 0
M  V30 1394 N 130.073 -1.45103 0.615059 0
M  V30 1395 C 131.003 -2.33339 -0.0865619 0
M  V30 1396 C 131.984 -1.4727 -0.851209 0
M  V30 1397 O 133.169 -1.76026 -0.820281 0
M  V30 1398 C 130.299 -3.30095 -1.07956 0
M  V30 1399 C 129.253 -4.25858 -0.427628 0
M  V30 1400 C 128.579 -5.12361 -1.5294 0
M  V30 1401 C 129.879 -5.18165 0.655944 0
M  V30 1402 H 131.573 -2.92254 0.650224 0
M  V30 1403 H 129.119 -1.40532 0.314138 0
M  V30 1404 H 131.072 -3.90698 -1.57901 0
M  V30 1405 H 129.796 -2.69355 -1.84703 0
M  V30 1406 H 128.455 -3.66564 0.0510292 0
M  V30 1407 H 128.103 -4.47984 -2.28734 0
M  V30 1408 H 127.803 -5.77238 -1.09865 0
M  V30 1409 H 129.327 -5.75833 -2.03098 0
M  V30 1410 H 130.741 -5.72796 0.240257 0
M  V30 1411 H 129.138 -5.91559 1.00888 0
M  V30 1412 H 130.208 -4.60144 1.52957 0
M  V30 1413 N 131.551 -0.354651 -1.53558 0
M  V30 1414 C 132.481 0.489091 -2.2832 0
M  V30 1415 C 133.462 1.09324 -1.30316 0
M  V30 1416 O 134.647 1.11255 -1.59173 0
M  V30 1417 C 131.777 1.63456 -3.0643 0
M  V30 1418 C 130.731 1.1582 -4.12031 0
M  V30 1419 C 130.057 2.39305 -4.7816 0
M  V30 1420 C 131.357 0.250731 -5.21698 0
M  V30 1421 H 133.051 -0.134614 -2.99097 0
M  V30 1422 H 130.597 -0.0661826 -1.43848 0
M  V30 1423 H 132.55 2.23136 -3.57475 0
M  V30 1424 H 131.274 2.28533 -2.33325 0
M  V30 1425 H 129.933 0.584146 -3.61916 0
M  V30 1426 H 129.581 3.02814 -4.01637 0
M  V30 1427 H 129.281 2.08109 -5.49513 0
M  V30 1428 H 130.805 2.99691 -5.31994 0
M  V30 1429 H 132.219 0.754695 -5.68311 0
M  V30 1430 H 130.616 0.0301468 -6.00092 0
M  V30 1431 H 131.686 -0.710125 -4.79672 0
M  V30 1432 N 133.029 1.57378 -0.0835403 0
M  V30 1433 C 133.961 2.10389 0.909338 0
M  V30 1434 C 134.974 1.03858 1.25369 0
M  V30 1435 O 136.163 1.31338 1.20882 0
M  V30 1436 C 133.263 2.55908 2.2218 0
M  V30 1437 C 132.436 3.86145 2.05453 0
M  V30 1438 C 131.495 4.17633 3.20108 0
M  V30 1439 O 130.521 4.87043 2.94581 0
M  V30 1440 N 131.723 3.72113 4.45547 0
M  V30 1441 H 134.488 2.962 0.456657 0
M  V30 1442 H 132.049 1.61579 0.101877 0
M  V30 1443 H 134.041 2.74027 2.97811 0
M  V30 1444 H 132.611 1.75171 2.58909 0
M  V30 1445 H 131.831 3.7729 1.1422 0
M  V30 1446 H 133.119 4.7137 1.91541 0
M  V30 1447 H 132.517 3.16062 4.69171 0
M  V30 1448 H 131.074 3.95409 5.18165 0
M  V30 1449 N 134.507 -0.190092 1.56449 0
M  V30 1450 C 135.918 -0.754312 1.70784 0
M  V30 1451 C 136.269 -1.83631 0.690951 0
M  V30 1452 O 135.394 -2.15868 -0.151604 0
M  V30 1453 C 135.989 -1.37503 3.09642 0
M  V30 1454 C 134.548 -1.88628 3.25725 0
M  V30 1455 C 133.695 -0.758098 2.66736 0
M  V30 1456 H 136.646 0.0350524 1.58661 0
M  V30 1457 H 136.667 -2.2445 3.0725 0
M  V30 1458 H 136.179 -0.587302 3.83631 0
M  V30 1459 H 134.28 -2.70103 2.56661 0
M  V30 1460 H 134.393 -2.04462 4.3328 0
M  V30 1461 H 132.757 -1.17369 2.26046 0
M  V30 1462 H 133.54 0.0174705 3.43296 0
M  V30 1463 N 135.985 -1.50799 -0.457987 0
M  V30 1464 C 137.21 -1.66496 -1.23668 0
M  V30 1465 C 137.635 -0.353288 -1.84752 0
M  V30 1466 O 136.993 0.684346 -1.67888 0
M  V30 1467 C 137.041 -2.76763 -2.3116 0
M  V30 1468 O 136.145 -2.38928 -3.36136 0
M  V30 1469 H 135.486 -0.555828 -0.363252 0
M  V30 1470 H 138.016 -1.9725 -0.543474 0
M  V30 1471 H 138.026 -3.00232 -2.76269 0
M  V30 1472 H 136.701 -3.71954 -1.86073 0
M  V30 1473 H 135.278 -2.25953 -2.96647 0
M  V30 1474 N 137.463 0.71206 -1.40597 0
M  V30 1475 C 138.395 1.83704 -1.37061 0
M  V30 1476 C 139.408 1.60453 -0.275426 0
M  V30 1477 O 140.597 1.70262 -0.53602 0
M  V30 1478 C 137.697 3.20172 -1.11099 0
M  V30 1479 C 136.87 3.7059 -2.3234 0
M  V30 1480 C 135.929 4.85681 -2.02485 0
M  V30 1481 O 134.955 4.9815 -2.75382 0
M  V30 1482 N 136.157 5.71735 -1.00497 0
M  V30 1483 H 138.922 1.87235 -2.34016 0
M  V30 1484 H 136.483 0.893739 -1.34996 0
M  V30 1485 H 138.475 3.94768 -0.891064 0
M  V30 1486 H 137.045 3.11767 -0.227989 0
M  V30 1487 H 136.265 2.87085 -2.7014 0
M  V30 1488 H 137.553 4.01011 -3.13157 0
M  V30 1489 H 136.951 5.64275 -0.401298 0
M  V30 1490 H 135.508 6.463 -0.844942 0
M  V30 1491 N 138.941 1.26152 0.944643 0
M  V30 1492 C 140.188 1.11492 1.69044 0
M  V30 1493 C 140.516 -0.342366 1.91463 0
M  V30 1494 O 139.771 -1.26812 1.49054 0
M  V30 1495 C 140.07 1.82541 3.07268 0
M  V30 1496 C 139.736 3.32445 3.04616 0
M  V30 1497 C 138.398 3.73337 3.036 0
M  V30 1498 C 140.75 4.28171 2.97185 0
M  V30 1499 C 138.078 5.08348 2.92915 0
M  V30 1500 C 140.43 5.63218 2.88041 0
M  V30 1501 C 139.094 6.03426 2.85366 0
M  V30 1502 H 138.364 0.407977 0.618576 0
M  V30 1503 H 141.011 1.56551 1.10291 0
M  V30 1504 H 139.316 1.29941 3.69625 0
M  V30 1505 H 141.013 1.68642 3.63815 0
M  V30 1506 H 137.603 2.99915 3.06185 0
M  V30 1507 H 141.787 3.97563 2.97081 0
M  V30 1508 H 137.043 5.38667 2.89219 0
M  V30 1509 H 141.217 6.37078 2.81254 0
M  V30 1510 H 138.844 7.07999 2.76842 0
M  V30 1511 N 140.419 -1.14872 1.07899 0
M  V30 1512 C 141.369 -2.17809 0.674027 0
M  V30 1513 C 142.353 -1.58008 -0.303699 0
M  V30 1514 O 143.545 -1.76616 -0.11654 0
M  V30 1515 C 140.674 -3.43208 0.0793318 0
M  V30 1516 C 139.76 -4.10051 1.08253 0
M  V30 1517 N 140.151 -4.52296 2.2641 0
M  V30 1518 C 138.449 -4.36469 0.917124 0
M  V30 1519 C 139.15 -5.04199 2.901 0
M  V30 1520 N 138.126 -4.98088 2.17736 0
M  V30 1521 H 141.928 -2.48207 1.57386 0
M  V30 1522 H 139.442 -1.315 0.952976 0
M  V30 1523 H 141.439 -4.16272 -0.228719 0
M  V30 1524 H 140.099 -3.14291 -0.815551 0
M  V30 1525 H 141.11 -4.45504 2.64096 0
M  V30 1526 H 137.787 -4.17432 0.0756078 0
M  V30 1527 H 139.177 -5.46802 3.90458 0
M  V30 1528 N 141.898 -0.863906 -1.31812 0
M  V30 1529 C 143.146 -0.470904 -1.96537 0
M  V30 1530 C 143.467 0.978771 -1.68657 0
M  V30 1531 O 142.737 1.6853 -0.998717 0
M  V30 1532 H 141.317 -0.171148 -0.72713 0
M  V30 1533 H 143.979 -1.10236 -1.60729 0
M  V30 1534 H 143.075 -0.623616 -3.05806 0
M  V30 1535 N 143.376 1.44774 -0.622745 0
M  V30 1536 C 144.286 2.34433 0.0886031 0
M  V30 1537 C 145.302 1.52131 0.844529 0
M  V30 1538 O 146.478 1.84886 0.798691 0
M  V30 1539 C 143.543 3.29986 1.0635 0
M  V30 1540 C 142.604 4.28195 0.307873 0
M  V30 1541 C 141.837 5.19183 1.23633 0
M  V30 1542 O 142.06 5.13918 2.47476 0
M  V30 1543 O 140.994 5.97515 0.725189 0
M  V30 1544 H 144.82 2.96693 -0.648599 0
M  V30 1545 H 142.405 1.44408 -0.382957 0
M  V30 1546 H 144.287 3.88825 1.6246 0
M  V30 1547 H 142.962 2.70269 1.78146 0
M  V30 1548 H 141.869 3.72927 -0.296064 0
M  V30 1549 H 143.202 4.90808 -0.3699 0
M  V30 1550 N 144.854 0.36279 1.53368 0
M  V30 1551 C 146.265 -0.117022 1.86333 0
M  V30 1552 C 146.616 -1.48397 1.28347 0
M  V30 1553 O 145.741 -2.07787 0.604428 0
M  V30 1554 C 146.336 -0.21912 3.38091 0
M  V30 1555 C 144.895 -0.643184 3.70864 0
M  V30 1556 C 144.042 0.211318 2.76494 0
M  V30 1557 H 146.993 0.581687 1.47655 0
M  V30 1558 H 147.014 -1.04319 3.6592 0
M  V30 1559 H 146.526 0.775902 3.80265 0
M  V30 1560 H 144.627 -1.64654 3.34245 0
M  V30 1561 H 144.74 -0.41973 4.77258 0
M  V30 1562 H 143.104 -0.319367 2.5269 0
M  V30 1563 H 143.887 1.20383 3.21501 0
M  V30 1564 N 146.332 -1.57332 0.0918853 0
M  V30 1565 C 147.572 -1.96117 -0.575988 0
M  V30 1566 C 147.936 -0.972499 -1.65549 0
M  V30 1567 O 149.137 -1.24872 -2.38034 0
M  V30 1568 C 147.408 -3.39407 -1.11973 0
M  V30 1569 S 148.967 -4.00185 -1.79992 0
M  V30 1570 H 145.785 -0.685682 -0.188045 0
M  V30 1571 H 148.387 -1.94755 0.170525 0
M  V30 1572 H 147.091 -4.09131 -0.322504 0
M  V30 1573 H 146.622 -3.44358 -1.90214 0
M  V30 1574 H 148.637 -3.88728 -3.08391 0
M  V30 1575 N 147.81 0.181792 -1.56548 0
M  V30 1576 C 148.758 1.24461 -1.965 0
M  V30 1577 C 149.752 1.464 -0.852261 0
M  V30 1578 O 150.958 1.47103 -1.03733 0
M  V30 1579 H 147.333 0.418138 -0.625031 0
M  V30 1580 H 149.304 0.880714 -2.85107 0
M  V30 1581 C 148.053 2.57891 -2.33212 0
M  V30 1582 H 147.376 2.41829 -3.18369 0
M  V30 1583 H 148.816 3.3097 -2.65019 0
M  V30 1584 C 147.275 3.15871 -1.17163 0
M  V30 1585 O 147.805 3.9913 -0.453708 0
M  V30 1586 N 146.011 2.74808 -0.944936 0
M  V30 1587 H 145.558 2.07205 -1.53049 0
M  V30 1588 H 145.516 3.13939 -0.170286 0
M  V30 1589 N 149.288 1.51039 0.449983 0
M  V30 1590 C 150.535 1.63081 1.20045 0
M  V30 1591 C 150.863 0.341024 1.91487 0
M  V30 1592 O 150.118 -0.674276 1.83717 0
M  V30 1593 C 150.417 2.77556 2.25161 0
M  V30 1594 C 150.083 4.17289 1.70823 0
M  V30 1595 C 148.745 4.55305 1.55725 0
M  V30 1596 C 151.097 5.04536 1.3074 0
M  V30 1597 C 148.425 5.78287 0.989999 0
M  V30 1598 C 150.777 6.28085 0.754482 0
M  V30 1599 C 149.441 6.64885 0.590308 0
M  V30 1600 H 148.711 0.596755 0.439277 0
M  V30 1601 H 151.358 1.85037 0.49333 0
M  V30 1602 H 149.663 2.49771 3.01863 0
M  V30 1603 H 151.36 2.84073 2.83026 0
M  V30 1604 H 147.95 3.8731 1.83546 0
M  V30 1605 H 152.134 4.75782 1.41229 0
M  V30 1606 H 147.39 6.05456 0.850451 0
M  V30 1607 H 151.564 6.95038 0.435324 0
M  V30 1608 H 149.191 7.60055 0.14862 0
M  V30 1609 N 150.766 -0.704594 1.40972 0
M  V30 1610 C 151.991 -1.49858 1.43378 0
M  V30 1611 C 152.416 -1.88061 0.038184 0
M  V30 1612 O 151.774 -1.5402 -0.956425 0
M  V30 1613 C 151.822 -2.74333 2.34038 0
M  V30 1614 O 150.926 -3.7147 1.7912 0
M  V30 1615 H 150.267 -0.45139 0.486974 0
M  V30 1616 H 152.797 -0.866832 1.8533 0
M  V30 1617 H 152.807 -3.22741 2.49604 0
M  V30 1618 H 151.482 -2.45863 3.35446 0
M  V30 1619 H 150.059 -3.30363 1.72958 0
M  V30 1620 N 152.244 -1.26651 -0.937939 0
M  V30 1621 C 153.521 -1.0313 -1.66204 0
M  V30 1622 C 153.901 0.437256 -2.06522 0
M  V30 1623 O 153.249 1.41831 -1.79154 0
M  V30 1624 C 153.459 -1.98314 -2.87181 0
M  V30 1625 C 154.807 -2.27107 -3.58758 0
M  V30 1626 O 155.831 -1.96205 -2.97291 0
M  V30 1627 O 154.69 -2.79736 -4.69479 0
M  V30 1628 H 151.784 -0.392384 -0.727986 0
M  V30 1629 H 154.33 -1.37874 -0.989382 0
M  V30 1630 H 153.102 -2.97399 -2.54302 0
M  V30 1631 H 152.725 -1.64068 -3.6217 0
M  V30 1632 N 153.722 1.14298 -1.08507 0
M  V30 1633 C 154.669 2.19414 -0.715965 0
M  V30 1634 C 155.639 1.63399 0.298326 0
M  V30 1635 O 156.824 1.89929 0.182101 0
M  V30 1636 C 153.964 3.44845 -0.132534 0
M  V30 1637 C 153.077 4.15007 -1.19973 0
M  V30 1638 C 152.212 5.28024 -0.580048 0
M  V30 1639 C 151.251 5.9002 -1.62921 0
M  V30 1640 N 150.388 6.94485 -1.03125 0
M  V30 1641 H 155.228 2.50336 -1.61666 0
M  V30 1642 H 152.765 1.2293 -0.807882 0
M  V30 1643 H 154.723 4.16601 0.223454 0
M  V30 1644 H 153.353 3.14403 0.731467 0
M  V30 1645 H 152.405 3.41629 -1.67313 0
M  V30 1646 H 153.717 4.57178 -1.99473 0
M  V30 1647 H 152.871 6.06455 -0.172364 0
M  V30 1648 H 151.61 4.87076 0.246603 0
M  V30 1649 H 150.615 5.10291 -2.04654 0
M  V30 1650 H 151.84 6.33042 -2.45835 0
M  V30 1651 H 149.786 6.55612 -0.225711 0
M  V30 1652 H 149.703 7.35148 -1.76334 0
M  V30 1653 H 150.971 7.7679 -0.649458 0
M  V30 1654 N 155.201 0.870884 1.31352 0
M  V30 1655 C 156.111 0.330783 2.32256 0
M  V30 1656 C 157.127 -0.559767 1.6475 0
M  V30 1657 O 158.303 -0.456263 1.96164 0
M  V30 1658 C 155.368 -0.458137 3.4366 0
M  V30 1659 C 154.429 0.460482 4.26823 0
M  V30 1660 C 153.662 -0.290881 5.32907 0
M  V30 1661 O 153.885 -1.51885 5.49806 0
M  V30 1662 O 152.819 0.351732 6.00871 0
M  V30 1663 H 156.645 1.16718 2.80376 0
M  V30 1664 H 154.23 0.634285 1.35267 0
M  V30 1665 H 156.112 -0.905343 4.1156 0
M  V30 1666 H 154.787 -1.27106 2.97701 0
M  V30 1667 H 153.694 0.956207 3.61673 0
M  V30 1668 H 155.027 1.23903 4.7635 0
M  V30 1669 N 156.679 -1.44442 0.630414 0
M  V30 1670 C 157.925 -2.02351 0.134816 0
M  V30 1671 C 158.258 -1.4947 -1.23986 0
M  V30 1672 O 157.533 -0.678475 -1.82283 0
M  V30 1673 C 157.816 -3.59898 0.120707 0
M  V30 1674 C 157.669 -4.23063 1.52767 0
M  V30 1675 C 158.988 -4.36585 -0.555127 0
M  V30 1676 H 156.107 -0.73527 0.0504646 0
M  V30 1677 H 158.749 -1.72022 0.806751 0
M  V30 1678 H 156.899 -3.85868 -0.451477 0
M  V30 1679 H 158.571 -4.08202 2.14869 0
M  V30 1680 H 156.814 -3.80586 2.08175 0
M  V30 1681 H 157.485 -5.32071 1.46984 0
M  V30 1682 H 159.961 -4.16044 -0.0685429 0
M  V30 1683 H 158.837 -5.46294 -0.534185 0
M  V30 1684 H 159.098 -4.11138 -1.62535 0
M  V30 1685 N 158.157 -0.370918 -1.53173 0
M  V30 1686 C 159.067 0.480823 -2.2962 0
M  V30 1687 C 160.083 1.08789 -1.35798 0
M  V30 1688 O 161.259 1.09768 -1.68858 0
M  V30 1689 C 158.324 1.60227 -3.07454 0
M  V30 1690 C 157.385 1.0222 -4.16953 0
M  V30 1691 C 156.618 2.0902 -4.91066 0
M  V30 1692 O 156.841 3.30222 -4.65091 0
M  V30 1693 O 155.775 1.71778 -5.76867 0
M  V30 1694 H 159.601 -0.141421 -3.03371 0
M  V30 1695 H 157.186 -0.135146 -1.48787 0
M  V30 1696 H 159.068 2.25417 -3.56041 0
M  V30 1697 H 157.743 2.20982 -2.36535 0
M  V30 1698 H 156.65 0.334064 -3.72605 0
M  V30 1699 H 157.983 0.459131 -4.90054 0
M  V30 1700 N 159.635 1.57281 -0.100228 0
M  V30 1701 C 160.912 1.86014 0.604812 0
M  V30 1702 C 161.292 0.998025 1.86018 0
M  V30 1703 O 160.64 0.0718184 2.28387 0
M  V30 1704 C 160.85 3.36784 0.915278 0
M  V30 1705 C 162.198 4.04957 1.27651 0
M  V30 1706 O 163.222 3.41695 1.00613 0
M  V30 1707 O 162.081 5.16593 1.7831 0
M  V30 1708 H 159.175 0.76942 0.303185 0
M  V30 1709 H 161.721 1.69176 -0.133313 0
M  V30 1710 H 160.493 3.91292 0.0248896 0
M  V30 1711 H 160.116 3.58987 1.70921 0
M  V30 1712 N 161.113 -0.173488 1.56642 0
M  V30 1713 C 162.353 -0.896984 1.83667 0
M  V30 1714 C 162.717 -1.79523 0.680842 0
M  V30 1715 O 163.918 -2.55616 0.831488 0
M  V30 1716 C 162.189 -1.67351 3.15798 0
M  V30 1717 S 163.748 -2.44607 3.64298 0
M  V30 1718 H 160.566 -0.300464 0.644393 0
M  V30 1719 H 163.168 -0.158775 1.94854 0
M  V30 1720 H 161.872 -1.00462 3.97914 0
M  V30 1721 H 161.403 -2.45313 3.07546 0
M  V30 1722 H 163.418 -3.69261 3.31452 0
M  V30 1723 N 162.591 -1.51276 -0.441967 0
M  V30 1724 C 163.837 -1.63958 -1.19355 0
M  V30 1725 C 164.17 -0.352543 -1.90973 0
M  V30 1726 O 163.445 0.647627 -1.83401 0
M  V30 1727 C 163.728 -2.83979 -2.21422 0
M  V30 1728 C 163.581 -4.22646 -1.53918 0
M  V30 1729 C 164.9 -2.99521 -3.22451 0
M  V30 1730 H 162.019 -0.596709 -0.432559 0
M  V30 1731 H 164.661 -1.83748 -0.483398 0
M  V30 1732 H 162.811 -2.67237 -2.81987 0
M  V30 1733 H 164.483 -4.51045 -0.967256 0
M  V30 1734 H 162.726 -4.25558 -0.841615 0
M  V30 1735 H 163.397 -5.02609 -2.28229 0
M  V30 1736 H 165.873 -3.14944 -2.71937 0
M  V30 1737 H 164.749 -3.85072 -3.91166 0
M  V30 1738 H 165.01 -2.11391 -3.88287 0
M  V30 1739 N 164.069 0.697108 -1.41344 0
M  V30 1740 C 165.297 1.48593 -1.43972 0
M  V30 1741 C 165.712 1.88747 -0.0445612 0
M  V30 1742 O 165.069 1.56682 0.935785 0
M  V30 1743 C 165.12 2.74946 -2.34706 0
M  V30 1744 O 164.841 2.36484 -3.68791 0
M  V30 1745 C 166.342 3.687 -2.46121 0
M  V30 1746 H 163.562 0.457964 -0.490418 0
M  V30 1747 H 166.106 0.858429 -1.8561 0
M  V30 1748 H 164.261 3.33937 -1.9638 0
M  V30 1749 H 164.675 3.17918 -4.17167 0
M  V30 1750 H 166.149 4.54145 -3.13777 0
M  V30 1751 H 166.626 4.13081 -1.49199 0
M  V30 1752 H 167.232 3.15613 -2.85076 0
M  V30 1753 N 165.547 1.27147 0.931209 0
M  V30 1754 C 166.495 1.09398 2.05268 0
M  V30 1755 C 167.489 0.0180591 1.6939 0
M  V30 1756 O 168.695 0.17551 1.79142 0
M  V30 1757 H 165.07 0.336986 0.672268 0
M  V30 1758 H 167.041 2.04416 2.17386 0
M  V30 1759 C 165.79 0.75424 3.39421 0
M  V30 1760 H 165.113 1.57404 3.67511 0
M  V30 1761 H 166.553 0.669903 4.18674 0
M  V30 1762 C 165.012 -0.541197 3.32525 0
M  V30 1763 O 165.542 -1.57664 3.69466 0
M  V30 1764 N 163.748 -0.535517 2.85623 0
M  V30 1765 H 163.295 0.307511 2.55758 0
M  V30 1766 H 163.253 -1.40236 2.81392 0
M  V30 1767 N 167.025 -1.13721 1.09112 0
M  V30 1768 C 168.441 -1.36914 0.820174 0
M  V30 1769 C 168.641 -1.93356 -0.567079 0
M  V30 1770 O 167.697 -2.15093 -1.32255 0
M  V30 1771 C 169.01 -2.3235 1.90877 0
M  V30 1772 C 170.558 -2.45973 1.93562 0
M  V30 1773 C 171.033 -3.44714 3.01556 0
M  V30 1774 N 172.524 -3.52263 3.00775 0
M  V30 1775 C 173.259 -4.28536 3.80978 0
M  V30 1776 N 172.755 -5.07991 4.71081 0
M  V30 1777 N 174.548 -4.23804 3.69251 0
M  V30 1778 H 166.699 -0.754348 1.98553 0
M  V30 1779 H 168.962 -0.3944 0.862063 0
M  V30 1780 H 168.668 -1.98027 2.90651 0
M  V30 1781 H 168.542 -3.32332 1.78424 0
M  V30 1782 H 170.929 -2.79584 0.944286 0
M  V30 1783 H 171.01 -1.45926 2.10093 0
M  V30 1784 H 170.654 -3.11835 4.00901 0
M  V30 1785 H 170.584 -4.44558 2.82269 0
M  V30 1786 H 173.075 -2.95567 2.35475 0
M  V30 1787 H 173.388 -5.63487 5.28869 0
M  V30 1788 H 171.733 -5.07235 4.75119 0
M  V30 1789 H 174.924 -3.60806 2.98222 0
M  V30 1790 H 175.097 -4.82995 4.31995 0
M  V30 1791 N 168.503 -0.877838 -1.30888 0
M  V30 1792 C 169.914 -0.544193 -1.78593 0
M  V30 1793 C 170.265 0.939301 -1.72254 0
M  V30 1794 O 169.39 1.7337 -1.29505 0
M  V30 1795 C 169.985 -0.98105 -3.24285 0
M  V30 1796 C 168.544 -0.698935 -3.69854 0
M  V30 1797 C 167.691 -1.168 -2.51502 0
M  V30 1798 H 170.642 -1.06278 -1.17859 0
M  V30 1799 H 170.663 -0.307009 -3.79259 0
M  V30 1800 H 170.175 -2.06079 -3.28866 0
M  V30 1801 H 168.276 0.369112 -3.70767 0
M  V30 1802 H 168.389 -1.28148 -4.61644 0
M  V30 1803 H 166.753 -0.587535 -2.47831 0
M  V30 1804 H 167.536 -2.25533 -2.58824 0
M  V30 1805 N 169.982 1.44106 -0.638065 0
M  V30 1806 C 171.222 2.03858 -0.148733 0
M  V30 1807 C 171.586 1.49153 1.20903 0
M  V30 1808 O 172.787 2.00452 1.79088 0
M  V30 1809 C 171.058 3.57117 -0.142314 0
M  V30 1810 S 172.617 4.37897 0.281385 0
M  V30 1811 H 169.435 0.708069 -0.0644912 0
M  V30 1812 H 172.037 1.7639 -0.843009 0
M  V30 1813 H 170.741 3.94436 -1.13349 0
M  V30 1814 H 170.272 3.89205 0.572988 0
M  V30 1815 H 172.287 4.72218 1.52395 0
M  V30 1816 N 171.46 0.379036 1.52974 0
M  V30 1817 C 172.876 0.0285448 1.59574 0
M  V30 1818 C 173.076 -1.45542 1.39355 0
M  V30 1819 O 172.132 -2.2187 1.20541 0
M  V30 1820 C 173.445 0.496535 2.96572 0
M  V30 1821 C 174.993 0.451909 3.0972 0
M  V30 1822 C 175.468 0.895924 4.49152 0
M  V30 1823 N 176.959 0.851522 4.55306 0
M  V30 1824 C 177.694 1.16661 5.61407 0
M  V30 1825 N 177.19 1.55166 6.752 0
M  V30 1826 N 178.983 1.08853 5.51459 0
M  V30 1827 H 171.134 1.34525 1.64367 0
M  V30 1828 H 173.397 0.550733 0.771619 0
M  V30 1829 H 173.103 1.53258 3.16552 0
M  V30 1830 H 172.977 -0.109802 3.7704 0
M  V30 1831 H 175.364 -0.575029 2.89443 0
M  V30 1832 H 175.445 1.09392 2.3123 0
M  V30 1833 H 175.089 1.92104 4.70168 0
M  V30 1834 H 175.019 0.23103 5.26093 0
M  V30 1835 H 177.51 0.568038 3.73606 0
M  V30 1836 H 177.823 1.776 7.52116 0
M  V30 1837 H 176.168 1.59044 6.76557 0
M  V30 1838 H 179.359 0.786803 4.6144 0
M  V30 1839 H 179.532 1.33742 6.34048 0
M  V30 1840 N 172.938 -1.57226 0.108567 0
M  V30 1841 C 174.163 -1.99604 -0.563303 0
M  V30 1842 C 174.588 -0.987563 -1.6009 0
M  V30 1843 O 173.946 0.0421687 -1.81251 0
M  V30 1844 C 173.994 -3.40902 -1.17552 0
M  V30 1845 O 173.098 -3.42896 -2.2912 0
M  V30 1846 H 172.439 -0.648704 -0.1417 0
M  V30 1847 H 174.969 -2.03679 0.193961 0
M  V30 1848 H 174.979 -3.78886 -1.51357 0
M  V30 1849 H 173.654 -4.1382 -0.415445 0
M  V30 1850 H 172.231 -3.1672 -1.96832 0
M  V30 1851 N 174.416 0.165178 -1.56732 0
M  V30 1852 C 175.348 1.22911 -1.93457 0
M  V30 1853 C 176.361 1.40152 -0.828333 0
M  V30 1854 O 177.55 1.40046 -1.10677 0
M  V30 1855 C 174.65 2.59686 -2.17753 0
M  V30 1856 C 173.823 2.63663 -3.48999 0
M  V30 1857 C 172.882 3.81845 -3.62051 0
M  V30 1858 O 171.908 3.67559 -4.34613 0
M  V30 1859 N 173.11 4.98557 -2.97357 0
M  V30 1860 H 175.875 0.917118 -2.85323 0
M  V30 1861 H 173.436 0.354895 -1.57962 0
M  V30 1862 H 175.428 3.37225 -2.23743 0
M  V30 1863 H 173.998 2.83251 -1.32242 0
M  V30 1864 H 173.218 1.72173 -3.54612 0
M  V30 1865 H 174.506 2.63336 -4.35352 0
M  V30 1866 H 173.904 5.13065 -2.38287 0
M  V30 1867 H 172.461 5.73936 -3.08934 0
M  V30 1868 N 175.894 1.51508 0.433938 0
M  V30 1869 C 177.14 1.64588 1.18484 0
M  V30 1870 C 177.473 0.362666 1.90784 0
M  V30 1871 O 176.748 -0.637892 1.83742 0
M  V30 1872 C 177.031 2.85149 2.19913 0
M  V30 1873 C 176.884 4.23456 1.51674 0
M  V30 1874 C 178.203 3.01227 3.20858 0
M  V30 1875 H 175.322 0.598994 0.429389 0
M  V30 1876 H 177.964 1.84002 0.473647 0
M  V30 1877 H 176.114 2.68729 2.80566 0
M  V30 1878 H 177.786 4.51552 0.943322 0
M  V30 1879 H 176.029 4.25998 0.819035 0
M  V30 1880 H 176.7 5.03812 2.2556 0
M  V30 1881 H 179.176 3.16382 2.70263 0
M  V30 1882 H 178.052 3.87141 3.89118 0
M  V30 1883 H 178.313 2.13447 3.8716 0
M  V30 1884 N 177.372 -0.689602 1.41712 0
M  V30 1885 C 178.788 -1.00093 1.24312 0
M  V30 1886 C 178.988 -2.01036 0.136729 0
M  V30 1887 O 178.044 -2.47562 -0.496918 0
M  V30 1888 C 179.357 -1.51985 2.59463 0
M  V30 1889 C 180.905 -1.63838 2.66695 0
M  V30 1890 C 181.38 -2.1913 4.02177 0
M  V30 1891 N 182.871 -2.26483 4.04054 0
M  V30 1892 C 183.606 -2.70306 5.0569 0
M  V30 1893 N 183.102 -3.13691 6.17713 0
M  V30 1894 N 184.895 -2.69923 4.9305 0
M  V30 1895 H 177.046 -0.0210029 2.1239 0
M  V30 1896 H 179.309 -0.0718733 0.945272 0
M  V30 1897 H 179.015 -0.85269 3.41207 0
M  V30 1898 H 178.889 -2.50103 2.82362 0
M  V30 1899 H 181.276 -2.29664 1.85306 0
M  V30 1900 H 181.357 -0.642492 2.476 0
M  V30 1901 H 181.001 -1.53918 4.84016 0
M  V30 1902 H 180.931 -3.19482 4.18615 0
M  V30 1903 H 183.422 -1.95874 3.23174 0
M  V30 1904 H 183.735 -3.45773 6.9113 0
M  V30 1905 H 182.08 -3.11585 6.21241 0
M  V30 1906 H 185.271 -2.35382 4.04614 0
M  V30 1907 H 185.444 -3.03758 5.72394 0
M  V30 1908 N 178.85 -1.27639 -0.924453 0
M  V30 1909 C 180.09 -1.15407 -1.68703 0
M  V30 1910 C 180.454 0.294581 -1.89727 0
M  V30 1911 O 181.655 0.539385 -2.63333 0
M  V30 1912 C 179.926 -1.9195 -3.0148 0
M  V30 1913 S 181.485 -1.95969 -3.92609 0
M  V30 1914 H 178.303 -0.411937 -0.579507 0
M  V30 1915 H 180.905 -1.61592 -1.10038 0
M  V30 1916 H 179.609 -2.96387 -2.83871 0
M  V30 1917 H 179.14 -1.46272 -3.65196 0
M  V30 1918 H 181.155 -1.05846 -4.84779 0
M  V30 1919 N 180.328 1.1314 -1.09713 0
M  V30 1920 C 181.238 2.22242 -0.751367 0
M  V30 1921 C 182.254 1.72224 0.247938 0
M  V30 1922 O 183.43 2.01205 0.0885463 0
M  V30 1923 C 180.495 3.46231 -0.180274 0
M  V30 1924 C 179.556 4.11125 -1.2359 0
M  V30 1925 C 178.789 5.29195 -0.691966 0
M  V30 1926 O 179.012 5.68342 0.48414 0
M  V30 1927 O 177.946 5.84214 -1.44838 0
M  V30 1928 H 181.772 2.54197 -1.66186 0
M  V30 1929 H 179.357 1.21331 -0.871735 0
M  V30 1930 H 181.239 4.21185 0.134739 0
M  V30 1931 H 179.914 3.1597 0.703185 0
M  V30 1932 H 178.821 3.37985 -1.60366 0
M  V30 1933 H 180.154 4.45524 -2.09211 0
M  V30 1934 N 181.806 0.884767 1.30421 0
M  V30 1935 C 183.054 0.502112 1.95763 0
M  V30 1936 C 183.375 -0.951815 1.70192 0
M  V30 1937 O 182.645 -1.6692 1.0254 0
M  V30 1938 H 181.225 0.182694 0.724315 0
M  V30 1939 H 183.887 1.1278 1.58955 0
M  V30 1940 H 182.983 0.672188 3.04775 0
M  V30 1941 N 183.284 -1.43765 0.645699 0
M  V30 1942 C 184.531 -2.01898 0.15604 0
M  V30 1943 C 184.859 -1.50887 -1.22733 0
M  V30 1944 O 184.114 -0.689271 -1.8316 0
M  V30 1945 C 184.413 -3.57238 0.107679 0
M  V30 1946 C 184.079 -4.27564 1.43178 0
M  V30 1947 C 182.741 -4.46492 1.7944 0
M  V30 1948 C 185.093 -4.67454 2.30513 0
M  V30 1949 C 182.421 -5.02573 3.02716 0
M  V30 1950 C 184.773 -5.24901 3.53074 0
M  V30 1951 C 183.437 -5.42046 3.89541 0
M  V30 1952 H 182.707 -0.738797 0.057099 0
M  V30 1953 H 185.354 -1.72341 0.834912 0
M  V30 1954 H 183.659 -3.86293 -0.654618 0
M  V30 1955 H 185.356 -3.99965 -0.287938 0
M  V30 1956 H 181.946 -4.13171 1.13963 0
M  V30 1957 H 186.13 -4.5253 2.0379 0
M  V30 1958 H 181.386 -5.14033 3.31028 0
M  V30 1959 H 185.56 -5.54758 4.20971 0
M  V30 1960 H 183.187 -5.85268 4.85145 0
M  V30 1961 N 184.763 -0.387143 -1.52771 0
M  V30 1962 C 186.009 0.196025 -2.0185 0
M  V30 1963 C 186.342 1.46641 -1.27319 0
M  V30 1964 O 185.617 1.90889 -0.373032 0
M  V30 1965 C 185.9 0.466136 -3.5707 0
M  V30 1966 C 185.753 -0.819385 -4.42274 0
M  V30 1967 C 187.072 1.25768 -4.21747 0
M  V30 1968 H 184.191 0.0697708 -0.73369 0
M  V30 1969 H 186.833 -0.516286 -1.82851 0
M  V30 1970 H 184.983 1.07293 -3.7339 0
M  V30 1971 H 186.655 -1.4563 -4.37709 0
M  V30 1972 H 184.898 -1.43517 -4.09372 0
M  V30 1973 H 185.569 -0.585065 -5.48891 0
M  V30 1974 H 188.045 0.744167 -4.09391 0
M  V30 1975 H 186.921 1.41541 -5.30337 0
M  V30 1976 H 187.182 2.27228 -3.79236 0
M  V30 1977 N 186.241 1.57166 -0.116904 0
M  V30 1978 C 187.481 1.97008 0.544715 0
M  V30 1979 C 187.845 0.998713 1.63981 0
M  V30 1980 O 189.046 1.28644 2.36018 0
M  V30 1981 C 187.317 3.41145 1.06559 0
M  V30 1982 S 188.876 4.02998 1.73603 0
M  V30 1983 H 185.694 0.688587 0.177112 0
M  V30 1984 H 188.296 1.94459 -0.201487 0
M  V30 1985 H 187 4.09592 0.257374 0
M  V30 1986 H 186.531 3.4734 1.84712 0
M  V30 1987 H 188.546 3.93585 3.02168 0
M  V30 1988 N 187.719 -0.156864 1.56817 0
M  V30 1989 C 188.682 -1.17781 1.96622 0
M  V30 1990 C 189.682 -1.36401 0.851555 0
M  V30 1991 O 190.872 -1.33561 1.11836 0
M  V30 1992 C 188.004 -2.54008 2.27361 0
M  V30 1993 H 189.197 -0.836564 2.87996 0
M  V30 1994 H 186.75 -0.39985 1.51099 0
M  V30 1995 H 187.485 -2.9312 1.38748 0
M  V30 1996 H 187.27 -2.41856 3.08623 0
M  V30 1997 H 188.76 -3.27558 2.59029 0
M  V30 1998 N 189.197 -1.51736 -0.425897 0
M  V30 1999 C 190.129 -1.70083 -1.53638 0
M  V30 2000 C 191.142 -0.581349 -1.52066 0
M  V30 2001 O 192.331 -0.856017 -1.56635 0
M  V30 2002 C 189.431 -1.71078 -2.9255 0
M  V30 2003 C 188.604 -2.99795 -3.185 0
M  V30 2004 C 187.663 -2.92825 -4.37196 0
M  V30 2005 O 186.689 -3.66756 -4.35291 0
M  V30 2006 N 187.891 -2.0946 -5.41393 0
M  V30 2007 H 190.656 -2.65882 -1.383 0
M  V30 2008 H 188.217 -1.49765 -0.614988 0
M  V30 2009 H 190.209 -1.63969 -3.69995 0
M  V30 2010 H 188.779 -0.828242 -3.01428 0
M  V30 2011 H 187.999 -3.20684 -2.2925 0
M  V30 2012 H 189.287 -3.84977 -3.32671 0
M  V30 2013 H 188.685 -1.48792 -5.45781 0
M  V30 2014 H 187.242 -2.08221 -6.17647 0
M  V30 2015 N 190.675 0.682077 -1.42076 0
M  V30 2016 C 191.903 1.47057 -1.4554 0
M  V30 2017 C 192.318 1.8869 -0.0645779 0
M  V30 2018 O 191.675 1.57666 0.919115 0
M  V30 2019 C 191.726 2.72442 -2.37609 0
M  V30 2020 O 191.447 2.32559 -3.71279 0
M  V30 2021 C 192.948 3.66069 -2.50017 0
M  V30 2022 H 190.168 0.452737 -0.495248 0
M  V30 2023 H 192.712 0.838695 -1.8651 0
M  V30 2024 H 190.867 3.31835 -1.9991 0
M  V30 2025 H 191.281 3.13475 -4.20516 0
M  V30 2026 H 192.755 4.50792 -3.18576 0
M  V30 2027 H 193.232 4.11476 -1.53572 0
M  V30 2028 H 193.838 3.12572 -2.88407 0
M  V30 2029 N 192.153 1.28127 0.917671 0
M  V30 2030 C 193.401 1.14825 1.66312 0
M  V30 2031 C 193.722 -0.304379 1.9261 0
M  V30 2032 O 192.992 -1.21149 1.53947 0
M  V30 2033 H 191.572 0.421953 0.616413 0
M  V30 2034 H 194.234 1.608 1.10134 0
M  V30 2035 H 193.33 1.68489 2.62712 0
M  V30 2036 N 193.631 -1.12557 1.10312 0
M  V30 2037 C 195.047 -1.36036 0.834649 0
M  V30 2038 C 195.247 -1.93946 -0.546539 0
M  V30 2039 O 194.303 -2.16484 -1.29966 0
M  V30 2040 C 195.616 -2.30312 1.9333 0
M  V30 2041 C 197.164 -2.43906 1.9616 0
M  V30 2042 C 197.639 -3.41496 3.05195 0
M  V30 2043 N 199.13 -3.49053 3.04494 0
M  V30 2044 C 199.865 -4.24471 3.85502 0
M  V30 2045 N 199.361 -5.02966 4.76442 0
M  V30 2046 N 201.154 -4.19864 3.73725 0
M  V30 2047 H 193.305 -0.733246 1.99342 0
M  V30 2048 H 195.568 -0.385234 0.866198 0
M  V30 2049 H 195.274 -1.94933 2.92735 0
M  V30 2050 H 195.148 -3.30421 1.81939 0
M  V30 2051 H 197.535 -2.78567 0.973886 0
M  V30 2052 H 197.616 -1.4369 2.11629 0
M  V30 2053 H 197.26 -3.07565 4.04186 0
M  V30 2054 H 197.19 -4.41539 2.86968 0
M  V30 2055 H 199.681 -2.93053 2.38596 0
M  V30 2056 H 199.994 -5.57846 5.34815 0
M  V30 2057 H 198.339 -5.02167 4.80472 0
M  V30 2058 H 201.53 -3.57623 3.02032 0
M  V30 2059 H 201.703 -4.78386 4.37093 0
M  V30 2060 N 195.109 -0.891671 -1.2995 0
M  V30 2061 C 196.349 -0.520296 -1.97667 0
M  V30 2062 C 196.713 0.914797 -1.68806 0
M  V30 2063 O 197.914 1.39263 -2.29911 0
M  V30 2064 C 196.185 -0.795222 -3.48441 0
M  V30 2065 S 197.744 -0.526953 -4.35624 0
M  V30 2066 H 194.562 -0.19333 -0.684211 0
M  V30 2067 H 197.164 -1.15238 -1.57926 0
M  V30 2068 H 195.868 -1.83805 -3.66938 0
M  V30 2069 H 195.399 -0.15095 -3.9311 0
M  V30 2070 H 197.414 0.631533 -4.92165 0
M  V30 2071 N 196.587 1.43421 -0.653314 0
M  V30 2072 C 197.833 2.02111 -0.166992 0
M  V30 2073 C 198.166 1.51423 1.21592 0
M  V30 2074 O 197.441 0.707389 1.8118 0
M  V30 2075 C 197.724 3.5966 -0.177948 0
M  V30 2076 C 197.577 4.20579 -1.59478 0
M  V30 2077 C 198.896 4.37413 0.4856 0
M  V30 2078 H 196.015 0.734374 -0.0621557 0
M  V30 2079 H 198.657 1.70717 -0.834016 0
M  V30 2080 H 196.807 3.86537 0.390032 0
M  V30 2081 H 198.479 4.04732 -2.21336 0
M  V30 2082 H 196.722 3.77226 -2.14204 0
M  V30 2083 H 197.393 5.29665 -1.5543 0
M  V30 2084 H 199.869 4.161 0.00234528 0
M  V30 2085 H 198.745 5.47075 0.447207 0
M  V30 2086 H 199.006 4.13672 1.55974 0
M  V30 2087 N 198.065 0.39524 1.52563 0
M  V30 2088 C 199.013 -0.451859 2.28169 0
M  V30 2089 C 200.007 -1.05792 1.32304 0
M  V30 2090 O 201.213 -0.997718 1.49818 0
M  V30 2091 H 197.588 -0.164481 0.733792 0
M  V30 2092 H 199.559 0.207199 2.9768 0
M  V30 2093 C 198.308 -1.56385 3.10546 0
M  V30 2094 H 197.631 -1.10682 3.84174 0
M  V30 2095 H 199.071 -2.13067 3.66577 0
M  V30 2096 C 197.53 -2.52328 2.23231 0
M  V30 2097 O 198.06 -3.5588 1.86312 0
M  V30 2098 N 196.266 -2.22209 1.87274 0
M  V30 2099 H 195.813 -1.38033 2.17496 0
M  V30 2100 H 195.771 -2.86652 1.29143 0
M  V30 2101 N 199.544 -1.57102 0.125237 0
M  V30 2102 C 200.96 -1.57915 -0.231322 0
M  V30 2103 C 201.16 -1.13833 -1.66266 0
M  V30 2104 O 200.216 -0.828581 -2.38518 0
M  V30 2105 C 201.529 -3.00699 0.00766489 0
M  V30 2106 C 203.077 -3.12947 -0.0577483 0
M  V30 2107 C 203.552 -4.57742 0.153626 0
M  V30 2108 N 205.043 -4.63092 0.0998073 0
M  V30 2109 C 205.778 -5.72905 0.238174 0
M  V30 2110 N 205.274 -6.91445 0.433057 0
M  V30 2111 N 207.067 -5.6182 0.177308 0
M  V30 2112 H 199.218 -1.84055 1.06007 0
M  V30 2113 H 201.481 -0.850905 0.417929 0
M  V30 2114 H 201.187 -3.3726 0.997431 0
M  V30 2115 H 201.061 -3.70236 -0.721452 0
M  V30 2116 H 203.448 -2.7624 -1.03804 0
M  V30 2117 H 203.529 -2.4594 0.70335 0
M  V30 2118 H 203.173 -4.95149 1.13092 0
M  V30 2119 H 203.103 -5.22848 -0.627534 0
M  V30 2120 H 205.594 -3.77871 -0.047051 0
M  V30 2121 H 205.907 -7.70985 0.529332 0
M  V30 2122 H 204.252 -6.93415 0.469109 0
M  V30 2123 H 207.443 -4.68093 0.0259748 0
M  V30 2124 H 207.616 -6.47357 0.288582 0
M  V30 2125 N 201.022 0.148545 -1.56898 0
M  V30 2126 C 202.438 0.501131 -1.51528 0
M  V30 2127 C 202.638 1.83458 -0.833399 0
M  V30 2128 O 201.694 2.49259 -0.40328 0
M  V30 2129 C 203.007 0.512864 -2.96294 0
M  V30 2130 C 204.555 0.598487 -3.07225 0
M  V30 2131 C 205.03 0.640897 -4.53494 0
M  V30 2132 N 206.521 0.703163 -4.57832 0
M  V30 2133 C 207.256 0.756935 -5.68382 0
M  V30 2134 N 206.752 0.770147 -6.88506 0
M  V30 2135 N 208.545 0.797698 -5.56411 0
M  V30 2136 H 200.696 -0.725532 -1.99624 0
M  V30 2137 H 202.959 -0.264358 -0.910395 0
M  V30 2138 H 202.665 -0.398691 -3.49433 0
M  V30 2139 H 202.539 1.35133 -3.52163 0
M  V30 2140 H 204.926 1.50046 -2.54106 0
M  V30 2141 H 205.007 -0.267093 -2.54402 0
M  V30 2142 H 204.651 -0.256915 -5.0725 0
M  V30 2143 H 204.581 1.52295 -5.04097 0
M  V30 2144 H 207.072 0.700314 -3.71354 0
M  V30 2145 H 207.385 0.812983 -7.68512 0
M  V30 2146 H 205.73 0.738049 -6.9107 0
M  V30 2147 H 208.921 0.784535 -4.61479 0
M  V30 2148 H 209.094 0.83614 -6.42583 0
M  V30 2149 N 202.5 1.5196 0.417844 0
M  V30 2150 C 203.43 1.77634 1.51554 0
M  V30 2151 C 204.411 0.626918 1.58126 0
M  V30 2152 O 205.596 0.871632 1.7354 0
M  V30 2153 C 202.726 1.91911 2.8946 0
M  V30 2154 C 201.68 3.07463 2.97743 0
M  V30 2155 C 201.006 3.06951 4.37819 0
M  V30 2156 C 202.306 4.47082 2.70027 0
M  V30 2157 H 204 2.6955 1.3032 0
M  V30 2158 H 201.546 1.29706 0.625492 0
M  V30 2159 H 203.499 2.08455 3.6623 0
M  V30 2160 H 202.223 0.966598 3.11969 0
M  V30 2161 H 200.882 2.90656 2.23416 0
M  V30 2162 H 200.53 2.09438 4.57323 0
M  V30 2163 H 200.23 3.84556 4.44286 0
M  V30 2164 H 201.754 3.25613 5.16535 0
M  V30 2165 H 203.168 4.6414 3.36522 0
M  V30 2166 H 201.565 5.2654 2.87881 0
M  V30 2167 H 202.635 4.55777 1.65514 0
M  V30 2168 N 203.978 -0.674533 1.42435 0
M  V30 2169 C 204.908 -1.80009 1.48724 0
M  V30 2170 C 205.889 -1.6659 0.343793 0
M  V30 2171 O 207.074 -1.86007 0.558137 0
M  V30 2172 C 204.204 -3.18306 1.38919 0
M  V30 2173 C 203.158 -3.46461 2.51294 0
M  V30 2174 C 202.484 -4.84335 2.26547 0
M  V30 2175 C 203.784 -3.43328 3.93603 0
M  V30 2176 H 205.478 -1.75004 2.42928 0
M  V30 2177 H 203.024 -0.840533 1.16923 0
M  V30 2178 H 204.977 -3.9678 1.41927 0
M  V30 2179 H 203.701 -3.2399 0.412094 0
M  V30 2180 H 202.36 -2.70348 2.47604 0
M  V30 2181 H 202.008 -4.86669 1.2713 0
M  V30 2182 H 201.708 -5.04136 3.01861 0
M  V30 2183 H 203.232 -5.65094 2.31304 0
M  V30 2184 H 204.646 -4.11772 3.98894 0
M  V30 2185 H 203.043 -3.74664 4.68771 0
M  V30 2186 H 204.113 -2.41897 4.20255 0
M  V30 2187 N 205.456 -1.28612 -0.910864 0
M  V30 2188 C 206.696 -1.1719 -1.67469 0
M  V30 2189 C 207.06 0.274441 -1.90028 0
M  V30 2190 O 208.261 0.511425 -2.6389 0
M  V30 2191 C 206.532 -1.95137 -2.99427 0
M  V30 2192 S 208.091 -2.00122 -3.90508 0
M  V30 2193 H 204.909 -0.41806 -0.575106 0
M  V30 2194 H 207.511 -1.6275 -1.08317 0
M  V30 2195 H 206.215 -2.99381 -2.80712 0
M  V30 2196 H 205.746 -1.50137 -3.63624 0
M  V30 2197 H 207.761 -1.10981 -4.8363 0
M  V30 2198 N 206.934 1.1197 -1.10907 0
M  V30 2199 C 207.882 2.19927 -0.757303 0
M  V30 2200 C 208.876 1.67564 0.248747 0
M  V30 2201 O 210.082 1.79672 0.108605 0
M  V30 2202 H 206.457 0.716925 -0.226987 0
M  V30 2203 H 208.428 2.46847 -1.67658 0
M  V30 2204 C 207.177 3.47061 -0.210671 0
M  V30 2205 H 206.5 3.87703 -0.976049 0
M  V30 2206 H 207.94 4.24 -0.0026584 0
M  V30 2207 C 206.399 3.19864 1.05777 0
M  V30 2208 O 206.929 3.40049 2.13845 0
M  V30 2209 N 205.135 2.73636 0.978349 0
M  V30 2210 H 204.682 2.5741 0.0988246 0
M  V30 2211 H 204.64 2.55815 1.82773 0
M  V30 2212 N 208.412 0.89855 1.29475 0
M  V30 2213 C 209.66 0.522847 1.9522 0
M  V30 2214 C 209.981 -0.93371 1.71192 0
M  V30 2215 O 209.251 -1.65823 1.04305 0
M  V30 2216 H 207.831 0.190366 0.722336 0
M  V30 2217 H 210.493 1.14459 1.5775 0
M  V30 2218 H 209.589 0.704476 3.04045 0
M  V30 2219 N 209.89 -1.43072 0.660911 0
M  V30 2220 C 211.167 -1.95307 0.107017 0
M  V30 2221 C 211.547 -1.60192 -1.37484 0
M  V30 2222 O 210.895 -0.890949 -2.10415 0
M  V30 2223 C 211.105 -3.47124 0.361402 0
M  V30 2224 C 212.453 -4.23738 0.270455 0
M  V30 2225 O 213.477 -3.54981 0.294382 0
M  V30 2226 O 212.336 -5.46131 0.200737 0
M  V30 2227 H 209.43 -0.826984 -0.00517729 0
M  V30 2228 H 211.976 -1.52972 0.734681 0
M  V30 2229 H 210.748 -3.65837 1.38848 0
M  V30 2230 H 210.371 -3.96475 -0.298953 0
M  V30 2231 N 211.368 -0.403325 -1.52352 0
M  V30 2232 C 212.316 0.439752 -2.28405 0
M  V30 2233 C 213.31 1.05089 -1.32863 0
M  V30 2234 O 214.516 0.989759 -1.50345 0
M  V30 2235 H 210.891 0.160587 -0.734653 0
M  V30 2236 H 212.862 -0.222983 -2.97566 0
M  V30 2237 C 211.611 1.54736 -3.11371 0
M  V30 2238 H 210.934 1.08643 -3.84755 0
M  V30 2239 H 212.374 2.1112 -3.67701 0
M  V30 2240 C 210.833 2.51141 -2.24566 0
M  V30 2241 O 211.363 3.54887 -1.88196 0
M  V30 2242 N 209.569 2.21213 -1.8845 0
M  V30 2243 H 209.116 1.36878 -2.18225 0
M  V30 2244 H 209.074 2.85963 -1.30662 0
M  V30 2245 N 212.846 1.57033 -0.133567 0
M  V30 2246 C 214.123 1.87256 0.56522 0
M  V30 2247 C 214.503 1.03726 1.83859 0
M  V30 2248 O 213.851 0.120247 2.28183 0
M  V30 2249 C 214.061 3.3865 0.843636 0
M  V30 2250 C 215.409 4.07574 1.19032 0
M  V30 2251 O 216.433 3.43752 0.933429 0
M  V30 2252 O 215.292 5.20259 1.67312 0
M  V30 2253 H 212.386 0.775678 0.286796 0
M  V30 2254 H 214.932 1.68855 -0.169168 0
M  V30 2255 H 213.704 3.91257 -0.0581149 0
M  V30 2256 H 213.327 3.62532 1.63268 0
M  V30 2257 N 214.325 -0.140222 1.56975 0
M  V30 2258 C 215.565 -0.857823 1.85528 0
M  V30 2259 C 215.929 -1.78039 0.718768 0
M  V30 2260 O 217.13 -2.53795 0.885521 0
M  V30 2261 C 215.401 -1.60615 3.19277 0
M  V30 2262 S 216.96 -2.36824 3.69405 0
M  V30 2263 H 213.778 -0.286727 0.650622 0
M  V30 2264 H 216.38 -0.117408 1.95147 0
M  V30 2265 H 215.084 -0.919994 3.99955 0
M  V30 2266 H 214.615 -2.38735 3.12681 0
M  V30 2267 H 216.63 -3.62148 3.3921 0
M  V30 2268 N 215.803 -1.52179 -0.40978 0
M  V30 2269 C 217.051 -1.65878 -1.15451 0
M  V30 2270 C 217.372 -0.390771 -1.91044 0
M  V30 2271 O 216.642 0.594323 -1.86667 0
M  V30 2272 H 215.222 -0.611405 -0.429177 0
M  V30 2273 H 217.884 -1.89219 -0.467134 0
M  V30 2274 H 216.98 -2.49954 -1.86894 0
M  V30 2275 N 217.281 0.66697 -1.42791 0
M  V30 2276 C 218.558 1.4234 -1.34159 0
M  V30 2277 C 218.938 2.11093 0.0172729 0
M  V30 2278 O 218.286 2.03808 1.03318 0
M  V30 2279 C 218.496 2.41942 -2.51526 0
M  V30 2280 C 219.844 3.06353 -2.93995 0
M  V30 2281 O 220.868 2.52269 -2.51473 0
M  V30 2282 O 219.727 4.04376 -3.67617 0
M  V30 2283 H 216.821 0.635277 -0.529483 0
M  V30 2284 H 219.367 0.695034 -1.54814 0
M  V30 2285 H 218.139 1.89991 -3.42081 0
M  V30 2286 H 217.762 3.22249 -2.32898 0
M  V30 2287 N 218.759 1.29093 0.90403 0
M  V30 2288 C 219.691 1.09658 2.01266 0
M  V30 2289 C 220.704 0.0453729 1.62737 0
M  V30 2290 O 221.893 0.289446 1.76138 0
M  V30 2291 C 218.993 0.646278 3.32681 0
M  V30 2292 C 218.166 1.77505 3.99763 0
M  V30 2293 C 217.225 1.31649 5.09465 0
M  V30 2294 O 216.251 2.02045 5.32134 0
M  V30 2295 N 217.453 0.184997 5.80205 0
M  V30 2296 H 220.218 2.05135 2.18494 0
M  V30 2297 H 217.779 1.20975 1.07594 0
M  V30 2298 H 219.771 0.322906 4.0341 0
M  V30 2299 H 218.341 -0.215916 3.11853 0
M  V30 2300 H 217.561 2.26752 3.22455 0
M  V30 2301 H 218.849 2.53198 4.41325 0
M  V30 2302 H 218.247 -0.402021 5.6427 0
M  V30 2303 H 216.804 -0.0790358 6.51752 0
M  V30 2304 N 220.237 -1.11381 1.11499 0
M  V30 2305 C 221.462 -1.87475 0.887019 0
M  V30 2306 C 221.887 -1.79639 -0.557796 0
M  V30 2307 O 221.245 -1.15924 -1.39396 0
M  V30 2308 C 221.293 -3.34213 1.35403 0
M  V30 2309 O 220.397 -4.0903 0.526146 0
M  V30 2310 H 219.738 -0.582099 0.319463 0
M  V30 2311 H 222.268 -1.40785 1.48461 0
M  V30 2312 H 222.278 -3.8506 1.34881 0
M  V30 2313 H 220.953 -3.39232 2.40612 0
M  V30 2314 H 219.53 -3.68082 0.597522 0
M  V30 2315 N 221.715 -0.905404 -1.28997 0
M  V30 2316 C 222.992 -0.453513 -1.9027 0
M  V30 2317 C 223.372 1.06721 -1.82137 0
M  V30 2318 O 222.72 1.91159 -1.25182 0
M  V30 2319 C 222.93 -0.974494 -3.35119 0
M  V30 2320 C 224.278 -1.0216 -4.12127 0
M  V30 2321 O 225.302 -0.922557 -3.44046 0
M  V30 2322 O 224.161 -1.17121 -5.33802 0
M  V30 2323 H 221.255 -0.142347 -0.814657 0
M  V30 2324 H 223.801 -0.995642 -1.37423 0
M  V30 2325 H 222.573 -2.01848 -3.35221 0
M  V30 2326 H 222.196 -0.412706 -3.95452 0
M  V30 2327 N 223.193 1.4272 -0.668489 0
M  V30 2328 C 224.103 2.34596 0.0139753 0
M  V30 2329 C 225.119 1.5474 0.795703 0
M  V30 2330 O 226.295 1.87334 0.739466 0
M  V30 2331 C 223.36 3.33202 0.957982 0
M  V30 2332 C 222.421 4.28957 0.17149 0
M  V30 2333 C 221.654 5.22853 1.07053 0
M  V30 2334 O 221.877 5.21531 2.31001 0
M  V30 2335 O 220.811 5.9952 0.534727 0
M  V30 2336 H 224.637 2.9448 -0.742661 0
M  V30 2337 H 222.222 1.43117 -0.428705 0
M  V30 2338 H 224.104 3.93796 1.50008 0
M  V30 2339 H 222.779 2.758 1.69458 0
M  V30 2340 H 221.686 3.71796 -0.414558 0
M  V30 2341 H 223.019 4.89383 -0.52586 0
M  V30 2342 N 224.671 0.411399 1.52136 0
M  V30 2343 C 225.634 -0.401089 2.25663 0
M  V30 2344 C 226.634 -0.971732 1.28117 0
M  V30 2345 O 227.824 -0.850254 1.52041 0
M  V30 2346 C 224.956 -1.56483 3.02863 0
M  V30 2347 H 226.149 0.24295 2.98914 0
M  V30 2348 H 223.702 0.163968 1.55438 0
M  V30 2349 H 224.437 -2.24567 2.33967 0
M  V30 2350 H 224.222 -1.16211 3.74483 0
M  V30 2351 H 225.712 -2.13951 3.58629 0
M  V30 2352 N 226.149 -1.5696 0.141893 0
M  V30 2353 C 227.097 -2.17784 -0.816874 0
M  V30 2354 C 228.091 -1.1334 -1.25899 0
M  V30 2355 O 229.297 -1.316 -1.22806 0
M  V30 2356 H 225.672 -0.697278 -0.281615 0
M  V30 2357 H 227.643 -2.97087 -0.279621 0
M  V30 2358 C 226.392 -2.80983 -2.04802 0
M  V30 2359 H 225.715 -3.61062 -1.7168 0
M  V30 2360 H 227.155 -3.2705 -2.69841 0
M  V30 2361 C 225.614 -1.79228 -2.8527 0
M  V30 2362 O 226.144 -1.25962 -3.8144 0
M  V30 2363 N 224.35 -1.48647 -2.49704 0
M  V30 2364 H 223.897 -1.92155 -1.71564 0
M  V30 2365 H 223.855 -0.808115 -3.03837 0
M  V30 2366 N 227.627 0.131896 -1.57047 0
M  V30 2367 C 228.867 0.847972 -1.85981 0
M  V30 2368 C 229.231 1.77655 -0.7282 0
M  V30 2369 O 230.432 2.53322 -0.898968 0
M  V30 2370 C 228.703 1.58919 -3.20124 0
M  V30 2371 S 230.262 2.34862 -3.70655 0
M  V30 2372 H 227.08 0.283273 -0.652133 0
M  V30 2373 H 229.682 0.107057 -1.95207 0
M  V30 2374 H 228.386 0.898771 -4.00438 0
M  V30 2375 H 227.917 2.37073 -3.13942 0
M  V30 2376 H 229.932 3.60344 -3.41126 0
M  V30 2377 N 229.106 1.52395 0.401703 0
M  V30 2378 C 230.522 1.41363 0.740864 0
M  V30 2379 C 230.722 0.523982 1.94568 0
M  V30 2380 O 229.778 -0.00741204 2.52499 0
M  V30 2381 C 231.091 2.84011 0.987847 0
M  V30 2382 C 232.639 2.93404 1.09011 0
M  V30 2383 C 233.114 4.37036 1.3698 0
M  V30 2384 N 234.605 4.40304 1.43829 0
M  V30 2385 C 235.34 5.48508 1.67112 0
M  V30 2386 N 234.836 6.66819 1.87949 0
M  V30 2387 N 236.629 5.36034 1.69187 0
M  V30 2388 H 228.78 2.08765 -0.391262 0
M  V30 2389 H 231.043 0.941265 -0.112798 0
M  V30 2390 H 230.749 3.51265 0.174835 0
M  V30 2391 H 230.623 3.25502 1.906 0
M  V30 2392 H 233.01 2.26325 1.8937 0
M  V30 2393 H 233.091 2.55359 0.15015 0
M  V30 2394 H 232.735 5.04676 0.571353 0
M  V30 2395 H 232.665 4.72623 2.3224 0
M  V30 2396 H 235.156 3.55024 1.29486 0
M  V30 2397 H 235.469 7.45063 2.05185 0
M  V30 2398 H 233.814 6.6987 1.85199 0
M  V30 2399 H 237.005 4.42579 1.52451 0
M  V30 2400 H 237.178 6.20434 1.86993 0
M  V30 2401 N 230.584 -0.659388 1.43143 0
M  V30 2402 C 232 -0.974337 1.26407 0
M  V30 2403 C 232.2 -2.007 0.179341 0
M  V30 2404 O 231.256 -2.4856 -0.444295 0
M  V30 2405 C 232.569 -1.46447 2.62628 0
M  V30 2406 C 234.117 -1.58144 2.7011 0
M  V30 2407 C 234.592 -2.1055 4.06734 0
M  V30 2408 N 236.083 -2.17861 4.08767 0
M  V30 2409 C 236.818 -2.59519 5.1131 0
M  V30 2410 N 236.314 -3.00518 6.24228 0
M  V30 2411 N 238.107 -2.59404 4.98664 0
M  V30 2412 H 230.258 0.0240528 2.12386 0
M  V30 2413 H 232.521 -0.0518065 0.946583 0
M  V30 2414 H 232.227 -0.780123 3.42939 0
M  V30 2415 H 232.101 -2.44058 2.87603 0
M  V30 2416 H 234.488 -2.25682 1.90136 0
M  V30 2417 H 234.569 -0.589828 2.48907 0
M  V30 2418 H 234.213 -1.43616 4.87172 0
M  V30 2419 H 234.143 -3.10531 4.25298 0
M  V30 2420 H 236.634 -1.88975 3.27257 0
M  V30 2421 H 236.947 -3.31036 6.98309 0
M  V30 2422 H 235.292 -2.98337 6.2771 0
M  V30 2423 H 238.483 -2.26747 4.09516 0
M  V30 2424 H 238.656 -2.91548 5.78709 0
M  V30 2425 N 232.062 -1.29571 -0.897171 0
M  V30 2426 C 233.311 -1.1706 -1.64256 0
M  V30 2427 C 233.624 0.276476 -1.93636 0
M  V30 2428 O 234.83 0.52294 -2.66416 0
M  V30 2429 C 233.286 -2.0475 -2.95982 0
M  V30 2430 C 232.894 -3.54295 -2.74187 0
M  V30 2431 C 234.638 -2.0097 -3.73914 0
M  V30 2432 C 232.545 -4.34081 -4.01656 0
M  V30 2433 H 231.475 -0.43452 -0.616205 0
M  V30 2434 H 234.126 -1.54229 -0.994268 0
M  V30 2435 H 232.508 -1.60452 -3.62038 0
M  V30 2436 H 233.682 -4.06662 -2.1671 0
M  V30 2437 H 231.997 -3.59773 -2.09648 0
M  V30 2438 H 234.594 -2.57838 -4.68427 0
M  V30 2439 H 234.937 -0.990273 -4.0435 0
M  V30 2440 H 235.47 -2.43325 -3.14703 0
M  V30 2441 H 232.209 -5.36671 -3.76384 0
M  V30 2442 H 231.729 -3.86483 -4.58684 0
M  V30 2443 H 233.408 -4.44877 -4.69781 0
M  V30 2444 N 233.54 1.10788 -1.12088 0
M  V30 2445 C 234.77 1.86191 -0.895351 0
M  V30 2446 C 235.178 1.80763 0.558702 0
M  V30 2447 O 234.521 1.19188 1.39785 0
M  V30 2448 C 234.583 3.35659 -1.28737 0
M  V30 2449 C 234.247 3.64849 -2.75198 0
M  V30 2450 C 235.244 3.61757 -3.734 0
M  V30 2451 C 232.929 3.93641 -3.12013 0
M  V30 2452 C 234.923 3.87045 -5.06434 0
M  V30 2453 C 232.61 4.18585 -4.4523 0
M  V30 2454 C 233.608 4.15277 -5.42249 0
M  V30 2455 O 233.296 4.3959 -6.73065 0
M  V30 2456 H 233.028 0.595425 -0.32007 0
M  V30 2457 H 235.582 1.40992 -1.49367 0
M  V30 2458 H 233.812 3.81497 -0.63224 0
M  V30 2459 H 235.501 3.92441 -1.03656 0
M  V30 2460 H 236.267 3.39557 -3.46303 0
M  V30 2461 H 232.146 3.95348 -2.37109 0
M  V30 2462 H 235.69 3.84378 -5.82151 0
M  V30 2463 H 231.587 4.40264 -4.72057 0
M  V30 2464 H 232.355 4.57123 -6.78956 0
M  V30 2465 N 235.018 0.912232 1.28515 0
M  V30 2466 C 235.965 0.397954 2.27343 0
M  V30 2467 C 236.935 -0.526766 1.57526 0
M  V30 2468 O 238.12 -0.449292 1.85435 0
M  V30 2469 C 235.26 -0.357263 3.43246 0
M  V30 2470 C 234.373 0.599788 4.27816 0
M  V30 2471 C 233.508 -0.173725 5.30916 0
M  V30 2472 C 232.547 0.777039 6.07148 0
M  V30 2473 N 231.684 0.0371398 7.0209 0
M  V30 2474 H 236.524 1.24577 2.70711 0
M  V30 2475 H 234.061 0.625612 1.33133 0
M  V30 2476 H 236.019 -0.8113 4.09236 0
M  V30 2477 H 234.649 -1.16943 3.00872 0
M  V30 2478 H 233.701 1.17235 3.61884 0
M  V30 2479 H 235.013 1.32704 4.80823 0
M  V30 2480 H 234.167 -0.688394 6.02782 0
M  V30 2481 H 232.906 -0.934041 4.78672 0
M  V30 2482 H 231.911 1.3031 5.34134 0
M  V30 2483 H 233.136 1.53689 6.61481 0
M  V30 2484 H 231.082 -0.705213 6.52198 0
M  V30 2485 H 230.999 0.704249 7.52713 0
M  V30 2486 H 232.267 -0.457383 7.78157 0
M  V30 2487 N 236.496 -1.42363 0.676048 0
M  V30 2488 C 237.443 -2.308 -0.00150904 0
M  V30 2489 C 238.413 -1.46032 -0.791444 0
M  V30 2490 O 239.598 -1.74861 -0.76344 0
M  V30 2491 C 236.738 -3.31883 -0.945919 0
M  V30 2492 C 235.851 -4.31741 -0.149675 0
M  V30 2493 C 234.986 -5.19898 -1.08995 0
M  V30 2494 C 234.025 -6.11434 -0.285465 0
M  V30 2495 N 233.162 -6.92138 -1.17851 0
M  V30 2496 H 238.002 -2.88187 0.758455 0
M  V30 2497 H 235.539 -1.41952 0.38576 0
M  V30 2498 H 237.497 -3.89019 -1.50731 0
M  V30 2499 H 236.127 -2.76093 -1.6725 0
M  V30 2500 H 235.179 -3.76713 0.528359 0
M  V30 2501 H 236.491 -4.96534 0.474866 0
M  V30 2502 H 235.645 -5.81772 -1.72123 0
M  V30 2503 H 234.384 -4.55284 -1.74837 0
M  V30 2504 H 233.389 -5.48627 0.359018 0
M  V30 2505 H 234.614 -6.78097 0.368883 0
M  V30 2506 H 232.56 -6.30152 -1.82332 0
M  V30 2507 H 232.477 -7.53542 -0.609082 0
M  V30 2508 H 233.745 -7.58499 -1.79722 0
M  V30 2509 N 237.974 -0.419461 -1.51915 0
M  V30 2510 C 239.214 0.152336 -2.03832 0
M  V30 2511 C 239.578 1.41501 -1.29775 0
M  V30 2512 O 240.779 2.06591 -1.7197 0
M  V30 2513 C 239.05 0.383812 -3.55333 0
M  V30 2514 S 240.609 0.921577 -4.29013 0
M  V30 2515 H 237.427 0.0402193 -0.709862 0
M  V30 2516 H 240.029 -0.574758 -1.8686 0
M  V30 2517 H 238.733 -0.541794 -4.06808 0
M  V30 2518 H 238.264 1.13849 -3.76566 0
M  V30 2519 H 240.279 2.20108 -4.4471 0
M  V30 2520 N 239.452 1.56882 -0.150215 0
M  V30 2521 C 240.384 2.14057 0.819286 0
M  V30 2522 C 241.397 1.09082 1.20851 0
M  V30 2523 O 242.586 1.36347 1.15203 0
M  V30 2524 C 239.686 2.65102 2.11127 0
M  V30 2525 C 238.859 3.94511 1.88891 0
M  V30 2526 C 237.918 4.30834 3.02107 0
M  V30 2527 O 236.944 4.99099 2.73659 0
M  V30 2528 N 238.146 3.90676 4.29363 0
M  V30 2529 H 240.911 2.97871 0.330618 0
M  V30 2530 H 238.472 1.61866 0.0332538 0
M  V30 2531 H 240.464 2.86411 2.85921 0
M  V30 2532 H 239.034 1.85994 2.51247 0
M  V30 2533 H 238.254 3.81795 0.981152 0
M  V30 2534 H 239.542 4.7907 1.71376 0
M  V30 2535 H 238.94 3.35677 4.55343 0
M  V30 2536 H 237.497 4.1703 5.00928 0
M  V30 2537 N 240.93 -0.123565 1.57115 0
M  V30 2538 C 241.88 -1.1575 1.96433 0
M  V30 2539 C 242.864 -1.37313 0.838686 0
M  V30 2540 O 244.056 -1.38482 1.10235 0
M  V30 2541 C 241.185 -2.48526 2.36833 0
M  V30 2542 C 240.271 -2.30457 3.5602 0
M  V30 2543 N 240.662 -1.8219 4.71848 0
M  V30 2544 C 238.96 -2.61129 3.61563 0
M  V30 2545 C 239.661 -1.77721 5.53886 0
M  V30 2546 N 238.637 -2.21899 4.96248 0
M  V30 2547 H 242.439 -0.776797 2.83449 0
M  V30 2548 H 239.953 -0.331364 1.58983 0
M  V30 2549 H 241.95 -3.233 2.63216 0
M  V30 2550 H 240.61 -2.87358 1.5118 0
M  V30 2551 H 241.621 -1.51805 4.95152 0
M  V30 2552 H 238.298 -3.03678 2.86507 0
M  V30 2553 H 239.688 -1.41697 6.56789 0
M  V30 2554 N 242.408 -1.52605 -0.393616 0
M  V30 2555 C 243.318 -1.79971 -1.50492 0
M  V30 2556 C 244.334 -0.686181 -1.59899 0
M  V30 2557 O 245.51 -0.973274 -1.76322 0
M  V30 2558 C 242.575 -1.95867 -2.86072 0
M  V30 2559 C 241.636 -3.19781 -2.86424 0
M  V30 2560 C 240.869 -3.34909 -4.15538 0
M  V30 2561 O 241.092 -2.54948 -5.10253 0
M  V30 2562 O 240.026 -4.28141 -4.23059 0
M  V30 2563 H 243.852 -2.74328 -1.30299 0
M  V30 2564 H 241.437 -1.3764 -0.581005 0
M  V30 2565 H 243.319 -2.08056 -3.66457 0
M  V30 2566 H 241.994 -1.04699 -3.063 0
M  V30 2567 H 240.901 -3.13038 -2.04837 0
M  V30 2568 H 242.234 -4.1078 -2.71147 0
M  V30 2569 N 243.887 0.651787 -1.4349 0
M  V30 2570 C 244.82 1.77668 -1.43211 0
M  V30 2571 C 245.798 1.59931 -0.29338 0
M  V30 2572 O 246.982 1.82095 -0.487191 0
M  V30 2573 C 244.109 3.14986 -1.24505 0
M  V30 2574 C 243.155 3.51421 -2.41673 0
M  V30 2575 S 243.988 3.51234 -4.04222 0
M  V30 2576 C 245.144 4.91206 -3.87902 0
M  V30 2577 H 245.377 1.77635 -2.38397 0
M  V30 2578 H 242.91 0.824558 -1.30539 0
M  V30 2579 H 244.868 3.94237 -1.144 0
M  V30 2580 H 243.529 3.1258 -0.308651 0
M  V30 2581 H 242.722 4.51291 -2.24393 0
M  V30 2582 H 242.324 2.79585 -2.48411 0
M  V30 2583 H 244.616 5.79902 -3.50315 0
M  V30 2584 H 245.559 5.13537 -4.8753 0
M  V30 2585 H 245.967 4.64808 -3.20334 0
M  V30 2586 N 245.365 1.30045 0.890287 0
M  V30 2587 C 246.642 1.09227 1.62262 0
M  V30 2588 C 247.022 -0.360305 2.08002 0
M  V30 2589 O 246.37 -1.35084 1.84295 0
M  V30 2590 C 246.58 2.08835 2.79623 0
M  V30 2591 C 247.928 2.40266 3.50082 0
M  V30 2592 O 248.952 2.07104 2.89804 0
M  V30 2593 O 247.811 2.96967 4.58773 0
M  V30 2594 H 244.905 0.419132 0.712922 0
M  V30 2595 H 247.451 1.41451 0.937529 0
M  V30 2596 H 246.223 3.06633 2.43089 0
M  V30 2597 H 245.846 1.77397 3.55832 0
M  V30 2598 N 246.843 -1.10192 1.12674 0
M  V30 2599 C 247.775 -2.16418 0.754701 0
M  V30 2600 C 248.788 -1.61309 -0.21986 0
M  V30 2601 O 249.977 -1.785 -0.000826841 0
M  V30 2602 C 247.077 -3.38762 0.096698 0
M  V30 2603 C 246.25 -4.23307 1.10136 0
M  V30 2604 C 245.309 -5.24092 0.470513 0
M  V30 2605 O 244.335 -5.57906 1.12824 0
M  V30 2606 N 245.537 -5.75491 -0.760948 0
M  V30 2607 H 248.302 -2.48943 1.66875 0
M  V30 2608 H 245.863 -1.25834 1.01869 0
M  V30 2609 H 247.855 -4.03291 -0.337384 0
M  V30 2610 H 246.425 -3.04192 -0.720153 0
M  V30 2611 H 245.645 -3.55036 1.71299 0
M  V30 2612 H 246.933 -4.76624 1.78064 0
M  V30 2613 H 246.331 -5.50222 -1.31424 0
M  V30 2614 H 244.888 -6.41792 -1.13781 0
M  V30 2615 N 248.321 -0.919034 -1.28029 0
M  V30 2616 C 249.551 -0.570143 -1.98577 0
M  V30 2617 C 249.959 0.854172 -1.68821 0
M  V30 2618 O 249.302 1.57807 -0.940351 0
M  V30 2619 C 249.364 -0.705734 -3.52505 0
M  V30 2620 C 249.028 -2.10057 -4.05863 0
M  V30 2621 C 250.025 -3.07385 -4.19298 0
M  V30 2622 C 247.71 -2.41517 -4.40426 0
M  V30 2623 C 249.704 -4.34287 -4.66555 0
M  V30 2624 C 247.391 -3.68657 -4.87376 0
M  V30 2625 C 248.389 -4.64856 -5.00398 0
M  V30 2626 O 248.077 -5.89735 -5.46322 0
M  V30 2627 H 247.809 -0.215592 -0.6407 0
M  V30 2628 H 250.363 -1.23583 -1.64062 0
M  V30 2629 H 248.593 0.0170414 -3.86696 0
M  V30 2630 H 250.282 -0.363172 -4.04272 0
M  V30 2631 H 251.048 -2.84398 -3.92865 0
M  V30 2632 H 246.927 -1.67389 -4.29537 0
M  V30 2633 H 250.471 -5.09377 -4.76635 0
M  V30 2634 H 246.368 -3.91466 -5.13249 0
M  V30 2635 H 247.136 -5.92599 -5.64596 0
M  V30 2636 N 249.799 1.42003 -0.683588 0
M  V30 2637 C 251.045 2.02223 -0.218536 0
M  V30 2638 C 251.4 1.53126 1.16492 0
M  V30 2639 O 250.693 0.727459 1.77253 0
M  V30 2640 C 250.887 3.56827 -0.202357 0
M  V30 2641 C 250.716 4.20928 -1.5827 0
M  V30 2642 C 249.486 4.5573 -2.18262 0
M  V30 2643 C 251.684 4.47933 -2.52706 0
M  V30 2644 N 249.666 5.05056 -3.48986 0
M  V30 2645 C 251.037 4.98906 -3.68094 0
M  V30 2646 C 253.092 4.29931 -2.51125 0
M  V30 2647 C 251.795 5.33768 -4.82166 0
M  V30 2648 C 253.821 4.65875 -3.643 0
M  V30 2649 C 253.183 5.17008 -4.78417 0
M  V30 2650 H 249.282 0.771931 -0.125088 0
M  V30 2651 H 251.866 1.72729 -0.898479 0
M  V30 2652 H 250.037 3.85819 0.447029 0
M  V30 2653 H 251.769 4.03755 0.276399 0
M  V30 2654 H 248.524 4.41781 -1.70665 0
M  V30 2655 H 248.948 5.34139 -4.15962 0
M  V30 2656 H 253.59 3.89647 -1.6412 0
M  V30 2657 H 251.308 5.72981 -5.6984 0
M  V30 2658 H 254.894 4.53615 -3.64314 0
M  V30 2659 H 253.774 5.44301 -5.64541 0
M  V30 2660 N 251.277 0.427512 1.51691 0
M  V30 2661 C 252.525 -0.141948 2.01601 0
M  V30 2662 C 252.846 -1.44067 1.31414 0
M  V30 2663 O 252.116 -1.90763 0.445658 0
M  V30 2664 H 250.696 -0.0554468 0.744939 0
M  V30 2665 H 253.358 0.567968 1.86441 0
M  V30 2666 H 252.454 -0.324913 3.10404 0
M  V30 2667 N 252.755 -1.56801 0.158532 0
M  V30 2668 C 254.004 -1.95665 -0.489702 0
M  V30 2669 C 254.317 -1.04654 -1.65248 0
M  V30 2670 O 255.523 -1.33146 -2.3661 0
M  V30 2671 C 253.979 -3.47874 -0.922582 0
M  V30 2672 C 253.587 -4.47489 0.213893 0
M  V30 2673 C 255.331 -3.95583 -1.53996 0
M  V30 2674 C 253.238 -5.90921 -0.237903 0
M  V30 2675 H 252.168 -0.730516 -0.186716 0
M  V30 2676 H 254.819 -1.81861 0.244722 0
M  V30 2677 H 253.201 -3.57051 -1.71261 0
M  V30 2678 H 254.375 -4.50017 0.991036 0
M  V30 2679 H 252.69 -4.09764 0.740407 0
M  V30 2680 H 255.287 -5.0019 -1.8898 0
M  V30 2681 H 255.63 -3.37789 -2.43319 0
M  V30 2682 H 256.163 -3.8937 -0.814611 0
M  V30 2683 H 252.902 -6.52559 0.620236 0
M  V30 2684 H 252.422 -5.91729 -0.980676 0
M  V30 2685 H 254.101 -6.43352 -0.686067 0
M  V30 2686 N 254.233 0.115231 -1.57178 0
M  V30 2687 C 255.481 0.820727 -1.84685 0
M  V30 2688 C 255.802 1.80237 -0.744279 0
M  V30 2689 O 255.072 1.94529 0.231375 0
M  V30 2690 H 253.652 0.306084 -0.681411 0
M  V30 2691 H 256.314 0.101656 -1.94635 0
M  V30 2692 H 255.41 1.36366 -2.80733 0
M  V30 2693 N 255.711 1.52812 0.385517 0
M  V30 2694 C 256.936 1.72207 1.15583 0
M  V30 2695 C 257.361 0.441034 1.82857 0
M  V30 2696 O 256.719 -0.603465 1.70962 0
M  V30 2697 C 256.767 2.87476 2.17692 0
M  V30 2698 O 255.871 2.54693 3.24354 0
M  V30 2699 H 255.212 0.572526 0.336319 0
M  V30 2700 H 257.742 1.99618 0.448744 0
M  V30 2701 H 257.752 3.13072 2.6163 0
M  V30 2702 H 256.427 3.80408 1.68115 0
M  V30 2703 H 255.004 2.3985 2.85529 0
M  V30 2704 N 257.189 -0.644168 1.43834 0
M  V30 2705 C 258.119 -1.76814 1.52509 0
M  V30 2706 C 259.1 -1.65823 0.379052 0
M  V30 2707 O 260.285 -1.84781 0.597466 0
M  V30 2708 C 257.415 -3.15288 1.4564 0
M  V30 2709 C 256.369 -3.41053 2.58586 0
M  V30 2710 C 255.695 -4.79421 2.36769 0
M  V30 2711 C 256.995 -3.34902 4.00797 0
M  V30 2712 H 258.689 -1.69812 2.46586 0
M  V30 2713 H 256.235 -0.815542 1.1868 0
M  V30 2714 H 258.188 -3.93681 1.50311 0
M  V30 2715 H 256.912 -3.23043 0.480725 0
M  V30 2716 H 255.571 -2.65035 2.53282 0
M  V30 2717 H 255.219 -4.83863 1.37424 0
M  V30 2718 H 254.919 -4.9762 3.12487 0
M  V30 2719 H 256.443 -5.6006 2.43238 0
M  V30 2720 H 257.857 -4.03218 4.07539 0
M  V30 2721 H 256.254 -3.64637 4.76613 0
M  V30 2722 H 257.324 -2.32928 4.25291 0
M  V30 2723 N 258.668 -1.30515 -0.883378 0
M  V30 2724 C 259.631 -1.1701 -1.97082 0
M  V30 2725 C 260.631 -0.10089 -1.60483 0
M  V30 2726 O 261.821 -0.349127 -1.70666 0
M  V30 2727 C 258.953 -0.793045 -3.31547 0
M  V30 2728 H 260.146 -2.13622 -2.10489 0
M  V30 2729 H 257.699 -1.13935 -1.06998 0
M  V30 2730 H 258.434 0.172499 -3.23841 0
M  V30 2731 H 258.219 -1.56576 -3.5948 0
M  V30 2732 H 259.709 -0.722073 -4.1131 0
M  V30 2733 N 260.146 1.09593 -1.13257 0
M  V30 2734 C 261.371 1.8604 -0.916732 0
M  V30 2735 C 261.796 1.80504 0.529146 0
M  V30 2736 O 261.154 1.18127 1.37534 0
M  V30 2737 C 261.202 3.32017 -1.40703 0
M  V30 2738 O 260.306 4.08141 -0.591153 0
M  V30 2739 H 259.647 0.576943 -0.328683 0
M  V30 2740 H 262.177 1.38405 -1.50682 0
M  V30 2741 H 262.187 3.82865 -1.4099 0
M  V30 2742 H 260.862 3.35361 -2.45979 0
M  V30 2743 H 259.439 3.67084 -0.656005 0
M  V30 2744 N 261.624 0.925811 1.2754 0
M  V30 2745 C 262.872 0.564138 1.94067 0
M  V30 2746 C 263.193 -0.897188 1.73134 0
M  V30 2747 O 262.463 -1.63573 1.07799 0
M  V30 2748 H 261.043 0.205645 0.718136 0
M  V30 2749 H 263.705 1.1778 1.55287 0
M  V30 2750 H 262.801 0.76881 3.02483 0
M  V30 2751 N 263.102 -1.41638 0.69111 0
M  V30 2752 C 264.351 -2.00526 0.217318 0
M  V30 2753 C 264.664 -1.55353 -1.18848 0
M  V30 2754 O 265.87 -2.06769 -1.75951 0
M  V30 2755 C 264.326 -3.58313 0.337639 0
M  V30 2756 C 263.934 -4.12469 1.74852 0
M  V30 2757 C 265.678 -4.24431 -0.0766066 0
M  V30 2758 C 263.585 -5.62675 1.82074 0
M  V30 2759 H 262.515 -0.750008 0.0774893 0
M  V30 2760 H 265.166 -1.6217 0.858661 0
M  V30 2761 H 263.548 -3.9425 -0.371879 0
M  V30 2762 H 264.722 -3.8796 2.48644 0
M  V30 2763 H 263.037 -3.58861 2.11205 0
M  V30 2764 H 265.634 -5.34683 -0.0430284 0
M  V30 2765 H 265.977 -4.01101 -1.1146 0
M  V30 2766 H 266.51 -3.93512 0.582476 0
M  V30 2767 H 263.249 -5.90826 2.83911 0
M  V30 2768 H 262.769 -5.89124 1.12661 0
M  V30 2769 H 264.448 -6.27371 1.58159 0
M  V30 2770 N 264.58 -0.43555 -1.51462 0
M  V30 2771 C 265.528 0.391205 -2.29287 0
M  V30 2772 C 266.522 1.02247 -1.35062 0
M  V30 2773 O 267.728 0.957646 -1.52411 0
M  V30 2774 H 264.103 0.144968 -0.737895 0
M  V30 2775 H 266.074 -0.286051 -2.97026 0
M  V30 2776 C 264.823 1.48096 -3.14583 0
M  V30 2777 H 264.146 1.00457 -3.86973 0
M  V30 2778 H 265.586 2.03273 -3.72097 0
M  V30 2779 C 264.045 2.46321 -2.29843 0
M  V30 2780 O 264.575 3.50815 -1.95682 0
M  V30 2781 N 262.781 2.17166 -1.931 0
M  V30 2782 H 262.328 1.32218 -2.21079 0
M  V30 2783 H 262.286 2.83127 -1.36698 0
M  V30 2784 N 266.058 1.56714 -0.166846 0
M  V30 2785 C 266.988 2.20754 0.760913 0
M  V30 2786 C 267.969 1.16178 1.24244 0
M  V30 2787 O 269.154 1.44592 1.29641 0
M  V30 2788 C 266.284 2.84478 1.99223 0
M  V30 2789 C 265.238 3.95053 1.64672 0
M  V30 2790 C 264.564 4.45805 2.95232 0
M  V30 2791 C 265.864 5.14865 0.878155 0
M  V30 2792 H 267.558 2.98537 0.22713 0
M  V30 2793 H 265.104 1.43596 0.107805 0
M  V30 2794 H 267.057 3.27951 2.64624 0
M  V30 2795 H 265.781 2.04056 2.55007 0
M  V30 2796 H 264.44 3.52228 1.01641 0
M  V30 2797 H 264.088 3.62181 3.49047 0
M  V30 2798 H 263.788 5.204 2.7287 0
M  V30 2799 H 265.312 4.91962 3.6167 0
M  V30 2800 H 266.726 5.55059 1.43466 0
M  V30 2801 H 265.123 5.95348 0.753738 0
M  V30 2802 H 266.193 4.84735 -0.126377 0
M  V30 2803 N 267.536 -0.106894 1.57237 0
M  V30 2804 C 268.783 -0.812526 1.85484 0
M  V30 2805 C 269.111 -1.79304 0.753687 0
M  V30 2806 O 268.366 -1.94047 -0.253853 0
M  V30 2807 C 268.665 -1.58628 3.20268 0
M  V30 2808 C 268.331 -0.748967 4.44636 0
M  V30 2809 C 266.993 -0.518104 4.78403 0
M  V30 2810 C 269.345 -0.166122 5.20935 0
M  V30 2811 C 266.673 0.305659 5.85903 0
M  V30 2812 C 269.025 0.644899 6.29304 0
M  V30 2813 C 267.689 0.885965 6.61594 0
M  V30 2814 H 266.959 -0.297324 0.678734 0
M  V30 2815 H 269.606 -0.0744332 1.91355 0
M  V30 2816 H 267.911 -2.39562 3.10028 0
M  V30 2817 H 269.608 -2.13643 3.39349 0
M  V30 2818 H 266.198 -0.939006 4.18187 0
M  V30 2819 H 270.382 -0.33167 4.95191 0
M  V30 2820 H 265.638 0.501528 6.0934 0
M  V30 2821 H 269.812 1.10345 6.87602 0
M  V30 2822 H 267.439 1.52609 7.44725 0
M  V30 2823 N 269.014 -1.53014 -0.377408 0
M  V30 2824 C 270.242 -1.72515 -1.14219 0
M  V30 2825 C 270.657 -0.448735 -1.8339 0
M  V30 2826 O 270.014 0.577592 -1.73119 0
M  V30 2827 C 270.065 -2.8826 -2.18148 0
M  V30 2828 O 269.786 -4.10962 -1.51795 0
M  V30 2829 C 271.287 -3.19536 -3.07264 0
M  V30 2830 H 268.507 -0.577301 -0.342001 0
M  V30 2831 H 271.051 -1.99712 -0.439935 0
M  V30 2832 H 269.206 -2.63492 -2.83991 0
M  V30 2833 H 269.62 -4.75693 -2.20945 0
M  V30 2834 H 271.094 -4.03959 -3.76193 0
M  V30 2835 H 271.571 -2.34403 -3.71419 0
M  V30 2836 H 272.177 -3.46186 -2.47053 0
M  V30 2837 N 270.492 0.636531 -1.44174 0
M  V30 2838 C 271.44 1.76995 -1.50915 0
M  V30 2839 C 272.434 1.65053 -0.381295 0
M  V30 2840 O 273.64 1.71197 -0.55601 0
M  V30 2841 H 270.015 0.584247 -0.473455 0
M  V30 2842 H 271.986 1.68432 -2.4632 0
M  V30 2843 C 270.735 3.15314 -1.46534 0
M  V30 2844 H 270.058 3.25149 -2.32633 0
M  V30 2845 H 271.498 3.9453 -1.55312 0
M  V30 2846 C 269.957 3.3639 -0.185305 0
M  V30 2847 O 270.487 3.94699 0.746688 0
M  V30 2848 N 268.693 2.9046 -0.0901606 0
M  V30 2849 H 268.24 2.43193 -0.849416 0
M  V30 2850 H 268.198 3.04937 0.765553 0
M  V30 2851 N 271.97 1.30982 0.876444 0
M  V30 2852 C 273.195 1.23373 1.66715 0
M  V30 2853 C 273.62 -0.19885 1.87046 0
M  V30 2854 O 272.978 -1.1427 1.40756 0
M  V30 2855 C 273.026 1.97644 3.01611 0
M  V30 2856 O 272.13 1.30935 3.91062 0
M  V30 2857 H 271.471 0.426279 0.509099 0
M  V30 2858 H 274.001 1.72944 1.09323 0
M  V30 2859 H 274.011 2.06992 3.51594 0
M  V30 2860 H 272.686 3.01829 2.86133 0
M  V30 2861 H 271.263 1.29996 3.49507 0
M  V30 2862 N 273.449 -1.08991 1.13837 0
M  V30 2863 C 274.696 -1.81258 0.902882 0
M  V30 2864 C 275.024 -1.85936 -0.570803 0
M  V30 2865 O 274.279 -1.3267 -1.43865 0
M  V30 2866 C 274.578 -3.27042 1.44147 0
M  V30 2867 C 274.244 -3.4249 2.93276 0
M  V30 2868 C 272.906 -3.46414 3.33992 0
M  V30 2869 C 275.258 -3.4666 3.892 0
M  V30 2870 C 272.586 -3.52091 4.69307 0
M  V30 2871 C 274.938 -3.53872 5.24364 0
M  V30 2872 C 273.602 -3.56066 5.646 0
M  V30 2873 H 272.872 -0.663268 0.330388 0
M  V30 2874 H 275.519 -1.28368 1.42105 0
M  V30 2875 H 273.824 -3.82599 0.844097 0
M  V30 2876 H 275.521 -3.81499 1.23528 0
M  V30 2877 H 272.111 -3.40124 2.60794 0
M  V30 2878 H 276.295 -3.42865 3.58828 0
M  V30 2879 H 271.551 -3.52079 4.9985 0
M  V30 2880 H 275.725 -3.56043 5.98503 0
M  V30 2881 H 273.352 -3.60218 6.69438 0
M  V30 2882 N 274.927 -0.932562 -1.27047 0
M  V30 2883 C 275.837 -0.441219 -2.30414 0
M  V30 2884 C 276.853 0.480525 -1.67233 0
M  V30 2885 O 278.029 0.362151 -1.98117 0
M  V30 2886 C 275.094 0.293651 -3.45454 0
M  V30 2887 C 274.155 -0.663601 -4.2414 0
M  V30 2888 C 273.388 0.0362932 -5.33688 0
M  V30 2889 O 273.611 1.2548 -5.56427 0
M  V30 2890 O 272.545 -0.638015 -5.98509 0
M  V30 2891 H 276.371 -1.29962 -2.74488 0
M  V30 2892 H 273.956 -0.6981 -1.32087 0
M  V30 2893 H 275.838 0.707951 -4.15411 0
M  V30 2894 H 274.513 1.12758 -3.03426 0
M  V30 2895 H 273.42 -1.12768 -3.56699 0
M  V30 2896 H 274.753 -1.46489 -4.69896 0
M  V30 2897 N 276.405 1.4127 -0.698611 0
M  V30 2898 C 277.653 2.00782 -0.230409 0
M  V30 2899 C 277.974 1.5562 1.17505 0
M  V30 2900 O 277.244 0.78815 1.79346 0
M  V30 2901 H 275.824 0.742464 -0.0821944 0
M  V30 2902 H 278.486 1.72852 -0.90045 0
M  V30 2903 H 277.582 3.11095 -0.25021 0
M  V30 2904 N 277.883 0.443576 1.51229 0
M  V30 2905 C 279.294 -0.0180867 1.86691 0
M  V30 2906 C 279.645 -1.41384 1.36033 0
M  V30 2907 O 278.77 -2.04291 0.713722 0
M  V30 2908 C 279.365 -0.039597 3.38777 0
M  V30 2909 C 277.924 -0.445692 3.73752 0
M  V30 2910 C 277.071 0.357584 2.74985 0
M  V30 2911 H 280.022 0.659138 1.44364 0
M  V30 2912 H 280.043 -0.847761 3.70936 0
M  V30 2913 H 279.555 0.976382 3.75617 0
M  V30 2914 H 277.656 -1.46704 3.42503 0
M  V30 2915 H 277.769 -0.166155 4.78812 0
M  V30 2916 H 276.133 -0.184973 2.54027 0
M  V30 2917 H 276.916 1.37256 3.14668 0
M  V30 2918 N 279.361 -1.56624 0.175154 0
M  V30 2919 C 280.607 -1.9729 -0.469506 0
M  V30 2920 C 280.94 -1.06128 -1.62636 0
M  V30 2921 O 280.215 -0.109183 -1.94193 0
M  V30 2922 C 280.498 -3.47375 -0.948804 0
M  V30 2923 C 280.351 -4.49317 0.208491 0
M  V30 2924 C 281.67 -4.00652 -1.82116 0
M  V30 2925 H 278.789 -0.717317 -0.16919 0
M  V30 2926 H 281.431 -1.88184 0.262062 0
M  V30 2927 H 279.581 -3.55267 -1.57219 0
M  V30 2928 H 281.253 -4.53482 0.845682 0
M  V30 2929 H 279.496 -4.25121 0.863395 0
M  V30 2930 H 280.167 -5.51741 -0.169059 0
M  V30 2931 H 282.643 -3.95416 -1.2956 0
M  V30 2932 H 281.519 -5.06075 -2.12554 0
M  V30 2933 H 281.78 -3.44699 -2.7683 0
M  V30 2934 N 280.839 0.0985539 -1.57292 0
M  V30 2935 C 281.769 1.12064 -2.04851 0
M  V30 2936 C 282.75 1.41981 -0.936767 0
M  V30 2937 O 283.935 1.52071 -1.20781 0
M  V30 2938 C 281.065 2.44144 -2.47004 0
M  V30 2939 C 280.019 2.28643 -3.6181 0
M  V30 2940 C 279.345 3.65869 -3.89929 0
M  V30 2941 C 280.645 1.72986 -4.92822 0
M  V30 2942 H 282.339 0.724979 -2.9049 0
M  V30 2943 H 279.885 0.34729 -1.39749 0
M  V30 2944 H 281.838 3.15914 -2.78884 0
M  V30 2945 H 280.562 2.85639 -1.5836 0
M  V30 2946 H 279.221 1.59318 -3.30172 0
M  V30 2947 H 278.869 4.04885 -2.98458 0
M  V30 2948 H 278.569 3.56344 -4.67218 0
M  V30 2949 H 280.093 4.39112 -4.2428 0
M  V30 2950 H 281.507 2.34593 -5.23105 0
M  V30 2951 H 279.904 1.74229 -5.74251 0
M  V30 2952 H 280.974 0.689007 -4.7998 0
M  V30 2953 N 282.317 1.53212 0.369288 0
M  V30 2954 C 283.594 1.59815 1.12776 0
M  V30 2955 C 283.974 0.403402 2.0721 0
M  V30 2956 O 283.322 -0.606667 2.20299 0
M  V30 2957 C 283.532 2.94664 1.87013 0
M  V30 2958 C 284.88 3.49109 2.41677 0
M  V30 2959 O 285.904 2.96669 1.97144 0
M  V30 2960 O 284.763 4.40775 3.23079 0
M  V30 2961 H 281.857 0.645376 0.517125 0
M  V30 2962 H 284.403 1.65553 0.37285 0
M  V30 2963 H 283.175 3.73061 1.18071 0
M  V30 2964 H 282.798 2.92401 2.69421 0
M  V30 2965 N 283.795 -0.628877 1.44509 0
M  V30 2966 C 284.745 -1.7345 1.47983 0
M  V30 2967 C 285.729 -1.5715 0.345373 0
M  V30 2968 O 286.921 -1.66848 0.590829 0
M  V30 2969 C 284.05 -3.12143 1.42904 0
M  V30 2970 C 283.136 -3.33906 2.61472 0
M  V30 2971 N 283.527 -3.26024 3.86706 0
M  V30 2972 C 281.825 -3.64709 2.56716 0
M  V30 2973 C 282.526 -3.48536 4.65722 0
M  V30 2974 N 281.502 -3.71517 3.96832 0
M  V30 2975 H 285.304 -1.65818 2.42655 0
M  V30 2976 H 282.818 -0.831419 1.39503 0
M  V30 2977 H 284.815 -3.91433 1.43476 0
M  V30 2978 H 283.475 -3.2094 0.492717 0
M  V30 2979 H 284.486 -3.04893 4.18641 0
M  V30 2980 H 281.163 -3.80473 1.71891 0
M  V30 2981 H 282.553 -3.48016 5.74747 0
M  V30 2982 N 285.273 -1.31445 -0.869486 0
M  V30 2983 C 286.689 -1.10113 -1.15531 0
M  V30 2984 C 286.889 0.128087 -2.01092 0
M  V30 2985 O 285.945 0.817276 -2.38908 0
M  V30 2986 C 287.258 -2.37291 -1.84698 0
M  V30 2987 C 288.806 -2.42906 -1.97397 0
M  V30 2988 C 289.281 -3.69967 -2.69979 0
M  V30 2989 N 290.772 -3.70864 -2.77514 0
M  V30 2990 C 291.507 -4.65875 -3.34287 0
M  V30 2991 N 291.003 -5.71242 -3.91988 0
M  V30 2992 N 292.796 -4.53394 -3.3225 0
M  V30 2993 H 284.947 -2.1028 -0.299347 0
M  V30 2994 H 287.21 -0.927683 -0.195214 0
M  V30 2995 H 286.916 -3.27078 -1.29278 0
M  V30 2996 H 286.79 -2.47125 -2.84972 0
M  V30 2997 H 289.177 -1.53588 -2.51982 0
M  V30 2998 H 289.258 -2.37036 -0.961643 0
M  V30 2999 H 288.902 -4.59652 -2.16062 0
M  V30 3000 H 288.832 -3.73103 -3.7162 0
M  V30 3001 H 291.323 -2.94697 -2.36563 0
M  V30 3002 H 291.636 -6.39817 -4.33421 0
M  V30 3003 H 289.981 -5.75015 -3.90362 0
M  V30 3004 H 293.172 -3.70252 -2.8641 0
M  V30 3005 H 293.345 -5.27617 -3.76197 0
M  V30 3006 N 286.751 1.08385 -1.14413 0
M  V30 3007 C 287.981 1.8425 -0.934644 0
M  V30 3008 C 288.389 1.81907 0.520234 0
M  V30 3009 O 287.732 1.22126 1.37226 0
M  V30 3010 C 287.794 3.32853 -1.35828 0
M  V30 3011 C 287.458 3.5893 -2.82875 0
M  V30 3012 C 288.455 3.53756 -3.80989 0
M  V30 3013 C 286.14 3.86934 -3.20293 0
M  V30 3014 C 288.134 3.76216 -5.14529 0
M  V30 3015 C 285.821 4.09047 -4.54008 0
M  V30 3016 C 286.819 4.03682 -5.50936 0
M  V30 3017 O 286.507 4.25214 -6.82238 0
M  V30 3018 H 286.239 0.588502 -0.332628 0
M  V30 3019 H 288.793 1.37792 -1.52324 0
M  V30 3020 H 287.023 3.8007 -0.713019 0
M  V30 3021 H 288.712 3.90154 -1.11957 0
M  V30 3022 H 289.478 3.32135 -3.53428 0
M  V30 3023 H 285.357 3.9023 -2.45442 0
M  V30 3024 H 288.901 3.71943 -5.90173 0
M  V30 3025 H 284.798 4.30151 -4.8129 0
M  V30 3026 H 285.566 4.42619 -6.88499 0
M  V30 3027 N 288.23 0.939286 1.26551 0
M  V30 3028 C 289.46 0.601663 1.97645 0
M  V30 3029 C 289.868 -0.827206 1.70159 0
M  V30 3030 O 289.211 -1.56291 0.965338 0
M  V30 3031 C 289.273 0.761725 3.51337 0
M  V30 3032 C 288.937 2.16487 4.0247 0
M  V30 3033 C 289.934 3.14016 4.14355 0
M  V30 3034 C 287.619 2.48494 4.36527 0
M  V30 3035 C 289.613 4.41654 4.59587 0
M  V30 3036 C 287.3 3.76364 4.81449 0
M  V30 3037 C 288.298 4.72758 4.92939 0
M  V30 3038 O 287.986 5.98352 5.36871 0
M  V30 3039 H 287.718 0.225758 0.637189 0
M  V30 3040 H 290.272 1.26178 1.62075 0
M  V30 3041 H 288.502 0.0444808 3.86674 0
M  V30 3042 H 290.191 0.427442 4.03643 0
M  V30 3043 H 290.957 2.90613 3.8829 0
M  V30 3044 H 286.836 1.74202 4.26819 0
M  V30 3045 H 290.38 5.16896 4.68471 0
M  V30 3046 H 286.277 3.99582 5.06956 0
M  V30 3047 H 287.045 6.01507 5.55096 0
M  V30 3048 N 289.708 -1.40897 0.706093 0
M  V30 3049 C 290.671 -2.29131 0.0562841 0
M  V30 3050 C 291.671 -1.44901 -0.697166 0
M  V30 3051 O 292.861 -1.65926 -0.530484 0
M  V30 3052 C 289.993 -3.27957 -0.93043 0
M  V30 3053 H 291.186 -2.88091 0.833284 0
M  V30 3054 H 288.739 -1.4906 0.470192 0
M  V30 3055 H 289.474 -2.73997 -1.73482 0
M  V30 3056 H 289.259 -3.90124 -0.393166 0
M  V30 3057 H 290.749 -3.94049 -1.38256 0
M  V30 3058 N 291.186 -0.45159 -1.50991 0
M  V30 3059 C 292.434 0.109857 -2.01801 0
M  V30 3060 C 292.755 1.41958 -1.3369 0
M  V30 3061 O 292.025 1.9003 -0.475951 0
M  V30 3062 H 290.605 0.0435884 -0.745727 0
M  V30 3063 H 293.267 -0.597557 -1.85514 0
M  V30 3064 H 292.363 0.275489 -3.10882 0
M  V30 3065 N 292.664 1.56529 -0.183458 0
M  V30 3066 C 293.912 1.96855 0.457452 0
M  V30 3067 C 294.233 1.07104 1.62953 0
M  V30 3068 O 293.503 0.139887 1.954 0
M  V30 3069 H 292.083 0.72693 0.171992 0
M  V30 3070 H 294.745 1.93056 -0.267476 0
M  V30 3071 H 293.841 3.01423 0.809368 0
M  V30 3072 N 294.142 -0.090211 1.57342 0
M  V30 3073 C 295.382 -0.798365 1.88163 0
M  V30 3074 C 295.746 -1.75662 0.775046 0
M  V30 3075 O 296.947 -2.50849 0.965816 0
M  V30 3076 C 295.218 -1.50376 3.24225 0
M  V30 3077 S 296.777 -2.24952 3.76752 0
M  V30 3078 H 293.595 -0.265883 0.659414 0
M  V30 3079 H 296.197 -0.055264 1.95422 0
M  V30 3080 H 294.901 -0.792286 4.0268 0
M  V30 3081 H 294.432 -2.28666 3.20118 0
M  V30 3082 H 296.447 -3.51173 3.5056 0
M  V30 3083 N 295.62 -1.53406 -0.361157 0
M  V30 3084 C 296.845 -1.74024 -1.12829 0
M  V30 3085 C 297.27 -0.470069 -1.82132 0
M  V30 3086 O 296.628 0.57619 -1.719 0
M  V30 3087 C 296.676 -2.90903 -2.13091 0
M  V30 3088 O 295.78 -2.59821 -3.20261 0
M  V30 3089 H 295.121 -0.577804 -0.327168 0
M  V30 3090 H 297.651 -2.00307 -0.41693 0
M  V30 3091 H 297.661 -3.17194 -2.56616 0
M  V30 3092 H 296.336 -3.83034 -1.62042 0
M  V30 3093 H 294.913 -2.44362 -2.81677 0
M  V30 3094 N 297.098 0.621204 -1.44841 0
M  V30 3095 C 298.509 1.20298 -1.42777 0
M  V30 3096 C 298.86 1.95639 -0.148259 0
M  V30 3097 O 297.985 2.02955 0.750892 0
M  V30 3098 C 298.58 2.1882 -2.58657 0
M  V30 3099 C 297.139 2.72403 -2.59756 0
M  V30 3100 C 296.286 1.4757 -2.34773 0
M  V30 3101 H 299.237 0.411297 -1.53278 0
M  V30 3102 H 299.258 3.01607 -2.31977 0
M  V30 3103 H 298.77 1.63957 -3.51766 0
M  V30 3104 H 296.871 3.31242 -1.70615 0
M  V30 3105 H 296.984 3.17765 -3.58556 0
M  V30 3106 H 295.348 1.76051 -1.8406 0
M  V30 3107 H 296.131 0.945954 -3.3001 0
M  V30 3108 N 298.576 1.31904 0.862503 0
M  V30 3109 C 299.526 1.16772 1.95827 0
M  V30 3110 C 300.51 0.0767098 1.60717 0
M  V30 3111 O 301.702 0.302407 1.74398 0
M  V30 3112 C 298.831 0.884858 3.317 0
M  V30 3113 C 297.917 2.0172 3.73055 0
M  V30 3114 N 298.308 3.265 3.86305 0
M  V30 3115 C 296.606 1.91861 4.02623 0
M  V30 3116 C 297.307 4.00616 4.2176 0
M  V30 3117 N 296.283 3.28847 4.32852 0
M  V30 3118 H 300.085 2.11382 2.04193 0
M  V30 3119 H 297.599 1.2357 1.05377 0
M  V30 3120 H 299.596 0.757419 4.09962 0
M  V30 3121 H 298.256 -0.0529448 3.24657 0
M  V30 3122 H 299.267 3.61529 3.70833 0
M  V30 3123 H 295.944 1.05593 4.03926 0
M  V30 3124 H 297.334 5.08182 4.39546 0
M  V30 3125 N 300.054 -1.07777 1.14986 0
M  V30 3126 C 301.284 -1.83752 0.944402 0
M  V30 3127 C 301.692 -1.8218 -0.51058 0
M  V30 3128 O 301.035 -1.22852 -1.36576 0
M  V30 3129 C 301.097 -3.32128 1.37592 0
M  V30 3130 C 300.761 -3.57425 2.84775 0
M  V30 3131 C 301.758 -3.5173 3.8286 0
M  V30 3132 C 299.443 -3.8523 3.2234 0
M  V30 3133 C 301.437 -3.73482 5.16517 0
M  V30 3134 C 299.124 -4.06634 4.56171 0
M  V30 3135 C 300.122 -4.00754 5.53069 0
M  V30 3136 O 299.81 -4.2159 6.84483 0
M  V30 3137 H 299.542 -0.58673 0.335744 0
M  V30 3138 H 302.096 -1.36982 1.53052 0
M  V30 3139 H 300.326 -3.79686 0.733165 0
M  V30 3140 H 302.015 -3.89555 1.14024 0
M  V30 3141 H 302.781 -3.30256 3.55184 0
M  V30 3142 H 298.66 -3.88923 2.47508 0
M  V30 3143 H 302.204 -3.68808 5.92137 0
M  V30 3144 H 298.101 -4.27593 4.83564 0
M  V30 3145 H 298.869 -4.38961 6.90837 0
M  V30 3146 N 301.532 -0.945985 -1.26051 0
M  V30 3147 C 302.781 -0.591836 -1.92822 0
M  V30 3148 C 303.094 0.873956 -1.7499 0
M  V30 3149 O 304.3 1.33769 -2.36259 0
M  V30 3150 C 302.756 -1.00776 -3.45503 0
M  V30 3151 C 302.364 -2.4955 -3.7206 0
M  V30 3152 C 304.108 -0.725735 -4.1825 0
M  V30 3153 C 302.015 -2.84988 -5.18205 0
M  V30 3154 H 300.945 -0.217635 -0.721908 0
M  V30 3155 H 303.596 -1.14927 -1.43052 0
M  V30 3156 H 301.978 -0.378812 -3.94184 0
M  V30 3157 H 303.152 -3.1739 -3.34066 0
M  V30 3158 H 301.467 -2.75133 -3.12555 0
M  V30 3159 H 304.064 -0.966771 -5.25887 0
M  V30 3160 H 304.407 0.337639 -4.14929 0
M  V30 3161 H 304.94 -1.31463 -3.7545 0
M  V30 3162 H 301.679 -3.90307 -5.26631 0
M  V30 3163 H 301.199 -2.21813 -5.57278 0
M  V30 3164 H 302.878 -2.73712 -5.86252 0
M  V30 3165 N 303.011 1.40521 -0.713556 0
M  V30 3166 C 303.941 2.33381 -0.0743864 0
M  V30 3167 C 304.922 1.52784 0.747735 0
M  V30 3168 O 306.107 1.81258 0.697071 0
M  V30 3169 C 303.237 3.36748 0.849598 0
M  V30 3170 C 302.191 4.27793 0.133247 0
M  V30 3171 C 301.517 5.21679 1.17281 0
M  V30 3172 C 302.817 5.12415 -1.01134 0
M  V30 3173 H 304.511 2.87081 -0.850007 0
M  V30 3174 H 302.057 1.38034 -0.410201 0
M  V30 3175 H 304.01 4.00648 1.30612 0
M  V30 3176 H 302.734 2.81439 1.65709 0
M  V30 3177 H 301.393 3.65342 -0.303426 0
M  V30 3178 H 301.041 4.62677 1.9733 0
M  V30 3179 H 300.741 5.83435 0.698397 0
M  V30 3180 H 302.265 5.88456 1.62947 0
M  V30 3181 H 303.679 5.69781 -0.634274 0
M  V30 3182 H 302.076 5.83203 -1.41399 0
M  V30 3183 H 303.146 4.48514 -1.84292 0
M  V30 3184 N 304.489 0.459591 1.5075 0
M  V30 3185 C 305.437 -0.354678 2.2988 0
M  V30 3186 C 306.431 -1.00086 1.36672 0
M  V30 3187 O 307.637 -0.933277 1.53915 0
M  V30 3188 H 304.012 -0.13321 0.740107 0
M  V30 3189 H 305.983 0.333269 2.96533 0
M  V30 3190 C 304.732 -1.43073 3.169 0
M  V30 3191 H 304.055 -0.942882 3.88523 0
M  V30 3192 H 305.495 -1.97328 3.75284 0
M  V30 3193 C 303.954 -2.42633 2.33732 0
M  V30 3194 O 304.484 -3.47658 2.01238 0
M  V30 3195 N 302.69 -2.14066 1.9653 0
M  V30 3196 H 302.237 -1.28685 2.23155 0
M  V30 3197 H 302.195 -2.80917 1.41185 0
M  V30 3198 N 305.967 -1.56429 0.191757 0
M  V30 3199 C 307.195 -2.01867 -0.453586 0
M  V30 3200 C 307.61 -1.07191 -1.5542 0
M  V30 3201 O 306.967 -0.0762108 -1.82341 0
M  V30 3202 C 307.018 -3.47017 -1.013 0
M  V30 3203 O 306.739 -4.38078 0.0437005 0
M  V30 3204 C 308.24 -4.07956 -1.73456 0
M  V30 3205 H 305.46 -0.661211 -0.114199 0
M  V30 3206 H 308.004 -2.02295 0.299483 0
M  V30 3207 H 306.159 -3.47298 -1.71647 0
M  V30 3208 H 306.573 -5.23178 -0.372212 0
M  V30 3209 H 308.047 -5.1138 -2.07833 0
M  V30 3210 H 308.524 -3.51222 -2.63704 0
M  V30 3211 H 309.13 -4.11437 -1.07702 0
M  V30 3212 N 307.445 0.0818655 -1.57387 0
M  V30 3213 C 308.861 0.436412 -1.53517 0
M  V30 3214 C 309.061 1.79758 -0.910459 0
M  V30 3215 O 308.117 2.47324 -0.508636 0
M  V30 3216 C 309.43 0.386734 -2.98203 0
M  V30 3217 C 310.978 0.467644 -3.09487 0
M  V30 3218 C 311.453 0.447978 -4.55804 0
M  V30 3219 N 312.944 0.508348 -4.60402 0
M  V30 3220 C 313.679 0.515184 -5.71081 0
M  V30 3221 N 313.175 0.477435 -6.91153 0
M  V30 3222 N 314.968 0.560988 -5.59294 0
M  V30 3223 H 307.119 -0.809546 -1.96367 0
M  V30 3224 H 309.382 -0.302733 -0.898363 0
M  V30 3225 H 309.088 -0.546539 -3.47427 0
M  V30 3226 H 308.962 1.20075 -3.57578 0
M  V30 3227 H 311.349 1.39134 -2.60242 0
M  V30 3228 H 311.43 -0.374753 -2.5304 0
M  V30 3229 H 311.074 -0.471826 -5.05704 0
M  V30 3230 H 311.004 1.30777 -5.10103 0
M  V30 3231 H 313.495 0.54218 -3.7399 0
M  V30 3232 H 313.808 0.486299 -7.71268 0
M  V30 3233 H 312.153 0.444278 -6.93579 0
M  V30 3234 H 315.344 0.5881 -4.64391 0
M  V30 3235 H 315.517 0.562846 -6.45551 0
M  V30 3236 N 308.923 1.53595 0.353017 0
M  V30 3237 C 310.17 1.70385 1.09431 0
M  V30 3238 C 310.498 0.462113 1.88931 0
M  V30 3239 O 309.753 -0.556074 1.87633 0
M  V30 3240 C 310.052 2.91313 2.07054 0
M  V30 3241 C 309.718 4.27308 1.43939 0
M  V30 3242 C 308.38 4.64287 1.26454 0
M  V30 3243 C 310.732 5.11829 0.983883 0
M  V30 3244 C 308.06 5.83412 0.620226 0
M  V30 3245 C 310.412 6.31611 0.353516 0
M  V30 3246 C 309.076 6.67293 0.166272 0
M  V30 3247 H 308.346 0.623484 0.400436 0
M  V30 3248 H 310.993 1.87799 0.374655 0
M  V30 3249 H 309.298 2.68463 2.85368 0
M  V30 3250 H 310.995 3.01497 2.64387 0
M  V30 3251 H 307.585 3.98198 1.58543 0
M  V30 3252 H 311.769 4.838 1.10685 0
M  V30 3253 H 307.025 6.09639 0.463681 0
M  V30 3254 H 311.199 6.964 -0.00757555 0
M  V30 3255 H 308.826 7.59461 -0.335047 0
M  V30 3256 N 310.401 -0.613514 1.45168 0
M  V30 3257 C 311.817 -0.933629 1.29443 0
M  V30 3258 C 312.017 -2.00028 0.243101 0
M  V30 3259 O 311.073 -2.49848 -0.364992 0
M  V30 3260 C 312.386 -1.38018 2.67155 0
M  V30 3261 C 313.934 -1.49471 2.75004 0
M  V30 3262 C 314.409 -1.97503 4.13227 0
M  V30 3263 N 315.9 -2.04746 4.15491 0
M  V30 3264 C 316.635 -2.43121 5.19307 0
M  V30 3265 N 316.131 -2.80506 6.33473 0
M  V30 3266 N 317.924 -2.43408 5.06664 0
M  V30 3267 H 310.075 0.0916097 2.12202 0
M  V30 3268 H 312.338 -0.0216655 0.947752 0
M  V30 3269 H 312.044 -0.670625 3.45247 0
M  V30 3270 H 311.918 -2.34784 2.95222 0
M  V30 3271 H 314.305 -2.19519 1.9722 0
M  V30 3272 H 314.386 -0.510342 2.50657 0
M  V30 3273 H 314.03 -1.28045 4.91495 0
M  V30 3274 H 313.96 -2.96843 4.34962 0
M  V30 3275 H 316.451 -1.78468 3.33103 0
M  V30 3276 H 316.764 -3.08652 7.08487 0
M  V30 3277 H 315.109 -2.78216 6.36884 0
M  V30 3278 H 318.3 -2.13604 4.16523 0
M  V30 3279 H 318.473 -2.72989 5.87691 0
M  V30 3280 N 311.879 -1.3236 -0.855495 0
M  V30 3281 C 312.826 -1.21225 -1.964 0
M  V30 3282 C 313.796 -0.0946204 -1.6583 0
M  V30 3283 O 314.981 -0.27002 -1.8888 0
M  V30 3284 C 312.121 -0.940419 -3.32039 0
M  V30 3285 C 311.234 -2.14276 -3.75113 0
M  V30 3286 C 310.369 -1.80648 -4.9954 0
M  V30 3287 C 309.408 -2.97208 -5.35102 0
M  V30 3288 N 308.545 -2.63678 -6.50706 0
M  V30 3289 H 313.385 -2.16042 -2.05255 0
M  V30 3290 H 310.922 -1.07451 -1.00463 0
M  V30 3291 H 312.88 -0.763311 -4.10158 0
M  V30 3292 H 311.51 -0.0290413 -3.22787 0
M  V30 3293 H 310.562 -2.43017 -2.92655 0
M  V30 3294 H 311.874 -3.01468 -3.97389 0
M  V30 3295 H 311.028 -1.59484 -5.85363 0
M  V30 3296 H 309.767 -0.906678 -4.79198 0
M  V30 3297 H 308.772 -3.19004 -4.47791 0
M  V30 3298 H 309.997 -3.87918 -5.57401 0
M  V30 3299 H 307.943 -1.76238 -6.31883 0
M  V30 3300 H 307.86 -3.444 -6.72997 0
M  V30 3301 H 309.128 -2.45942 -7.39684 0
M  V30 3302 N 313.357 1.07166 -1.15556 0
M  V30 3303 C 314.768 1.6127 -0.940693 0
M  V30 3304 C 315.119 1.89251 0.517551 0
M  V30 3305 O 314.244 1.65937 1.38903 0
M  V30 3306 C 314.839 2.92993 -1.7012 0
M  V30 3307 C 313.398 3.43832 -1.53156 0
M  V30 3308 C 312.545 2.1786 -1.71558 0
M  V30 3309 H 315.496 0.90229 -1.30554 0
M  V30 3310 H 315.517 3.62007 -1.17181 0
M  V30 3311 H 315.029 2.72596 -2.76248 0
M  V30 3312 H 313.13 3.69307 -0.494294 0
M  V30 3313 H 313.243 4.19747 -2.30975 0
M  V30 3314 H 311.607 2.2765 -1.14225 0
M  V30 3315 H 312.39 1.99956 -2.79056 0
M  V30 3316 N 314.835 0.952656 1.25548 0
M  V30 3317 C 316.065 0.622592 1.96996 0
M  V30 3318 C 316.473 -0.809112 1.71026 0
M  V30 3319 O 315.816 -1.55258 0.981861 0
M  V30 3320 C 315.878 0.798946 3.5051 0
M  V30 3321 C 315.542 2.20744 4.00151 0
M  V30 3322 C 316.539 3.18394 4.11001 0
M  V30 3323 C 314.224 2.5311 4.33867 0
M  V30 3324 C 316.218 4.46504 4.54877 0
M  V30 3325 C 313.905 3.8145 4.7743 0
M  V30 3326 C 314.903 4.77959 4.87897 0
M  V30 3327 O 314.591 6.04012 5.30494 0
M  V30 3328 H 314.323 0.232503 0.634758 0
M  V30 3329 H 316.877 1.2789 1.60728 0
M  V30 3330 H 315.107 0.0854903 3.86605 0
M  V30 3331 H 316.796 0.47023 4.03167 0
M  V30 3332 H 317.562 2.94715 3.85186 0
M  V30 3333 H 313.441 1.78719 4.24948 0
M  V30 3334 H 316.985 5.21835 4.62962 0
M  V30 3335 H 312.882 4.04936 5.0269 0
M  V30 3336 H 313.65 6.0736 5.48685 0
M  V30 3337 N 316.313 -1.40141 0.720998 0
M  V30 3338 C 317.261 -2.3252 0.0608547 0
M  V30 3339 C 318.255 -1.52326 -0.741152 0
M  V30 3340 O 319.461 -1.68089 -0.643911 0
M  V30 3341 H 315.836 -0.751999 0.000876664 0
M  V30 3342 H 317.807 -2.8584 0.856614 0
M  V30 3343 C 316.556 -3.37331 -0.842809 0
M  V30 3344 H 315.879 -3.99108 -0.235084 0
M  V30 3345 H 317.319 -4.04452 -1.27257 0
M  V30 3346 C 315.778 -2.73246 -1.97074 0
M  V30 3347 O 316.308 -2.59998 -3.06209 0
M  V30 3348 N 314.514 -2.31547 -1.75597 0
M  V30 3349 H 314.061 -2.42522 -0.868368 0
M  V30 3350 H 314.019 -1.89007 -2.51244 0
M  V30 3351 N 317.792 -0.46758 -1.50504 0
M  V30 3352 C 319.038 0.0887532 -2.02606 0
M  V30 3353 C 319.371 1.39686 -1.34913 0
M  V30 3354 O 318.646 1.88644 -0.473694 0
M  V30 3355 C 318.929 0.276206 -3.59039 0
M  V30 3356 C 318.782 -1.05267 -4.37309 0
M  V30 3357 C 320.101 1.03235 -4.27821 0
M  V30 3358 H 317.22 0.0307814 -0.736357 0
M  V30 3359 H 319.862 -0.612485 -1.79857 0
M  V30 3360 H 318.012 0.8735 -3.78553 0
M  V30 3361 H 319.684 -1.68628 -4.29374 0
M  V30 3362 H 317.927 -1.65015 -4.01189 0
M  V30 3363 H 318.598 -0.875197 -5.45018 0
M  V30 3364 H 321.074 0.526111 -4.12761 0
M  V30 3365 H 319.95 1.1323 -5.37094 0
M  V30 3366 H 320.211 2.06806 -3.90748 0
M  V30 3367 N 319.27 1.56325 -0.20005 0
M  V30 3368 C 320.18 2.22931 0.730668 0
M  V30 3369 C 321.196 1.22997 1.23076 0
M  V30 3370 O 322.372 1.55748 1.27689 0
M  V30 3371 C 319.437 2.87948 1.93098 0
M  V30 3372 C 318.498 4.03166 1.47497 0
M  V30 3373 C 317.731 4.65073 2.61807 0
M  V30 3374 O 317.954 4.25913 3.79413 0
M  V30 3375 O 316.888 5.54452 2.34237 0
M  V30 3376 H 320.714 3.03084 0.193391 0
M  V30 3377 H 318.299 1.49371 0.0294621 0
M  V30 3378 H 320.181 3.29063 2.6324 0
M  V30 3379 H 318.856 2.10771 2.45677 0
M  V30 3380 H 317.763 3.66664 0.742201 0
M  V30 3381 H 319.096 4.82022 0.995796 0
M  V30 3382 N 320.748 -0.0735177 1.57428 0
M  V30 3383 C 321.973 -0.789787 1.91774 0
M  V30 3384 C 322.398 -1.70413 0.796306 0
M  V30 3385 O 321.756 -1.79555 -0.250961 0
M  V30 3386 C 321.804 -1.5609 3.25067 0
M  V30 3387 O 320.908 -2.67144 3.14178 0
M  V30 3388 H 320.249 -0.215582 0.628029 0
M  V30 3389 H 322.779 -0.0422781 2.04556 0
M  V30 3390 H 322.789 -1.94052 3.58898 0
M  V30 3391 H 321.464 -0.890015 4.06265 0
M  V30 3392 H 320.041 -2.32052 2.91901 0
M  V30 3393 N 322.226 -1.5378 -0.344866 0
M  V30 3394 C 323.456 -1.74646 -1.10374 0
M  V30 3395 C 323.864 -0.48491 -1.8288 0
M  V30 3396 O 323.207 0.553062 -1.75177 0
M  V30 3397 C 323.269 -2.87145 -2.16306 0
M  V30 3398 C 322.933 -4.26795 -1.63386 0
M  V30 3399 C 323.93 -5.08412 -1.08688 0
M  V30 3400 C 321.615 -4.73276 -1.68272 0
M  V30 3401 C 323.609 -6.34609 -0.595792 0
M  V30 3402 C 321.296 -5.99446 -1.18776 0
M  V30 3403 C 322.294 -6.79946 -0.645215 0
M  V30 3404 O 321.982 -8.03745 -0.157626 0
M  V30 3405 H 321.714 -0.587112 -0.335075 0
M  V30 3406 H 324.268 -2.01403 -0.403252 0
M  V30 3407 H 322.498 -2.55909 -2.89909 0
M  V30 3408 H 324.187 -2.95992 -2.77747 0
M  V30 3409 H 324.953 -4.73666 -1.04236 0
M  V30 3410 H 320.832 -4.10677 -2.09442 0
M  V30 3411 H 324.376 -6.97389 -0.171654 0
M  V30 3412 H 320.273 -6.33687 -1.22928 0
M  V30 3413 H 321.041 -8.18038 -0.275037 0
M  V30 3414 N 323.704 0.605807 -1.45491 0
M  V30 3415 C 324.932 1.39136 -1.5313 0
M  V30 3416 C 325.347 1.88082 -0.164507 0
M  V30 3417 O 324.704 1.62316 0.834247 0
M  V30 3418 C 324.755 2.59463 -2.51716 0
M  V30 3419 O 324.476 2.12551 -3.83084 0
M  V30 3420 C 325.977 3.52301 -2.6907 0
M  V30 3421 H 323.197 0.425849 -0.51855 0
M  V30 3422 H 325.741 0.73865 -1.90694 0
M  V30 3423 H 323.896 3.20772 -2.17219 0
M  V30 3424 H 324.31 2.90744 -4.36541 0
M  V30 3425 H 325.784 4.33271 -3.42024 0
M  V30 3426 H 326.261 4.02757 -1.75167 0
M  V30 3427 H 326.867 2.96845 -3.04571 0
M  V30 3428 N 325.182 1.32811 0.848464 0
M  V30 3429 C 326.593 1.21315 1.41914 0
M  V30 3430 C 326.944 -0.171847 1.95446 0
M  V30 3431 O 326.069 -1.07093 1.88043 0
M  V30 3432 C 326.664 2.19631 2.57968 0
M  V30 3433 C 325.223 2.12003 3.11017 0
M  V30 3434 C 324.37 2.07651 1.83783 0
M  V30 3435 H 327.321 1.44549 0.655071 0
M  V30 3436 H 327.342 1.79845 3.35315 0
M  V30 3437 H 326.854 3.20423 2.18976 0
M  V30 3438 H 324.955 1.14481 3.54577 0
M  V30 3439 H 325.068 3.02111 3.71841 0
M  V30 3440 H 323.432 1.52983 2.03638 0
M  V30 3441 H 324.215 3.10235 1.47 0
M  V30 3442 N 326.66 -1.06551 1.16123 0
M  V30 3443 C 327.592 -2.13908 0.823171 0
M  V30 3444 C 328.605 -1.61926 -0.16843 0
M  V30 3445 O 329.794 -1.78412 0.055962 0
M  V30 3446 C 326.894 -3.38283 0.204424 0
M  V30 3447 C 326.067 -4.19589 1.23548 0
M  V30 3448 C 325.126 -5.2233 0.637011 0
M  V30 3449 O 324.152 -5.54034 1.30516 0
M  V30 3450 N 325.354 -5.77621 -0.577474 0
M  V30 3451 H 328.119 -2.43508 1.74711 0
M  V30 3452 H 325.68 -1.2253 1.05821 0
M  V30 3453 H 327.672 -4.0416 -0.208909 0
M  V30 3454 H 326.242 -3.06329 -0.623012 0
M  V30 3455 H 325.462 -3.49406 1.82507 0
M  V30 3456 H 326.75 -4.70718 1.93137 0
M  V30 3457 H 326.148 -5.54125 -1.13853 0
M  V30 3458 H 324.705 -6.45087 -0.933053 0
M  V30 3459 N 328.138 -0.959301 -1.25041 0
M  V30 3460 C 329.366 -0.633949 -1.96948 0
M  V30 3461 C 329.781 0.794916 -1.7125 0
M  V30 3462 O 329.138 1.53231 -0.991287 0
M  V30 3463 C 329.189 -0.888805 -3.50403 0
M  V30 3464 O 328.91 -2.26149 -3.75218 0
M  V30 3465 C 330.411 -0.576482 -4.39536 0
M  V30 3466 H 327.631 -0.237263 -0.627652 0
M  V30 3467 H 330.175 -1.28495 -1.59089 0
M  V30 3468 H 328.33 -0.284145 -3.86357 0
M  V30 3469 H 328.744 -2.33514 -4.6965 0
M  V30 3470 H 330.218 -0.805314 -5.46094 0
M  V30 3471 H 330.695 0.489075 -4.36468 0
M  V30 3472 H 331.301 -1.16067 -4.09156 0
M  V30 3473 N 329.616 1.39756 -0.72842 0
M  V30 3474 C 330.548 2.29157 -0.0446202 0
M  V30 3475 C 331.561 1.46484 0.710367 0
M  V30 3476 O 332.75 1.69632 0.55562 0
M  V30 3477 C 329.85 3.24987 0.961071 0
M  V30 3478 C 329.023 4.36572 0.268967 0
M  V30 3479 C 328.082 5.12756 1.18184 0
M  V30 3480 O 327.108 5.6534 0.661794 0
M  V30 3481 N 328.31 5.23331 2.51206 0
M  V30 3482 H 331.075 2.88482 -0.812295 0
M  V30 3483 H 328.636 1.51265 -0.577098 0
M  V30 3484 H 330.628 3.72827 1.57423 0
M  V30 3485 H 329.198 2.66739 1.63 0
M  V30 3486 H 328.418 3.90694 -0.524574 0
M  V30 3487 H 329.706 5.08363 -0.210934 0
M  V30 3488 H 329.104 4.82116 2.9594 0
M  V30 3489 H 327.661 5.74634 3.07634 0
M  V30 3490 N 331.094 0.475555 1.50254 0
M  V30 3491 C 332.342 -0.077738 2.0195 0
M  V30 3492 C 332.663 -1.39813 1.35931 0
M  V30 3493 O 331.933 -1.89249 0.506123 0
M  V30 3494 H 330.513 -0.031719 0.746326 0
M  V30 3495 H 333.175 0.626995 1.84539 0
M  V30 3496 H 332.271 -0.225995 3.11281 0
M  V30 3497 N 332.573 -1.56217 0.208337 0
M  V30 3498 C 333.52 -2.19699 -0.707192 0
M  V30 3499 C 334.49 -1.14836 -1.20008 0
M  V30 3500 O 335.675 -1.4314 -1.26157 0
M  V30 3501 C 332.815 -2.87061 -1.91546 0
M  V30 3502 C 331.928 -4.06483 -1.46271 0
M  V30 3503 C 331.063 -4.61665 -2.62752 0
M  V30 3504 C 330.102 -5.73417 -2.14147 0
M  V30 3505 N 329.239 -6.22948 -3.23853 0
M  V30 3506 H 334.079 -2.97575 -0.159111 0
M  V30 3507 H 331.616 -1.46948 -0.0667874 0
M  V30 3508 H 333.574 -3.24294 -2.62468 0
M  V30 3509 H 332.204 -2.11725 -2.43664 0
M  V30 3510 H 331.256 -3.74825 -0.648886 0
M  V30 3511 H 332.568 -4.87271 -1.06622 0
M  V30 3512 H 331.722 -5.01272 -3.41776 0
M  V30 3513 H 330.461 -3.80013 -3.05682 0
M  V30 3514 H 329.466 -5.33326 -1.33581 0
M  V30 3515 H 330.691 -6.56897 -1.72232 0
M  V30 3516 H 328.637 -5.44213 -3.6629 0
M  V30 3517 H 328.554 -6.98823 -2.88414 0
M  V30 3518 H 329.822 -6.6721 -4.03052 0
M  V30 3519 N 334.051 0.0651679 -1.57465 0
M  V30 3520 C 335.281 0.774683 -1.91526 0
M  V30 3521 C 335.689 1.71305 -0.803196 0
M  V30 3522 O 335.032 1.82231 0.231881 0
M  V30 3523 C 335.094 1.61645 -3.21109 0
M  V30 3524 C 334.758 0.846753 -4.49087 0
M  V30 3525 C 335.755 0.163024 -5.19644 0
M  V30 3526 C 333.44 0.811966 -4.95694 0
M  V30 3527 C 335.434 -0.54519 -6.35064 0
M  V30 3528 C 333.121 0.0999836 -6.11018 0
M  V30 3529 C 334.119 -0.577388 -6.80555 0
M  V30 3530 O 333.807 -1.27789 -7.93678 0
M  V30 3531 H 333.539 0.225031 -0.637446 0
M  V30 3532 H 336.093 0.0377134 -2.05365 0
M  V30 3533 H 334.323 2.39638 -3.03497 0
M  V30 3534 H 336.012 2.20525 -3.40769 0
M  V30 3535 H 336.778 0.181163 -4.84662 0
M  V30 3536 H 332.657 1.32867 -4.41438 0
M  V30 3537 H 336.201 -1.07446 -6.89276 0
M  V30 3538 H 332.098 0.0797945 -6.45451 0
M  V30 3539 H 332.866 -1.18784 -8.09835 0
M  V30 3540 N 335.529 1.53961 0.336706 0
M  V30 3541 C 336.439 1.85432 1.43708 0
M  V30 3542 C 337.455 0.745053 1.57242 0
M  V30 3543 O 338.631 1.03804 1.72588 0
M  V30 3544 C 335.696 2.06349 2.78605 0
M  V30 3545 C 334.757 3.30191 2.74358 0
M  V30 3546 C 333.99 3.50101 4.02822 0
M  V30 3547 O 334.213 2.7371 5.00439 0
M  V30 3548 O 333.147 4.43547 4.06878 0
M  V30 3549 H 336.973 2.78975 1.20028 0
M  V30 3550 H 334.558 1.39701 0.52952 0
M  V30 3551 H 336.44 2.21513 3.58483 0
M  V30 3552 H 335.115 1.15995 3.02203 0
M  V30 3553 H 334.022 3.20425 1.93078 0
M  V30 3554 H 335.355 4.2056 2.55715 0
M  V30 3555 N 337.007 -0.598083 1.45811 0
M  V30 3556 C 338.254 -1.35681 1.50323 0
M  V30 3557 C 338.582 -1.9393 0.148739 0
M  V30 3558 O 337.837 -1.76094 -0.853787 0
M  V30 3559 C 338.136 -2.51669 2.53766 0
M  V30 3560 C 337.802 -2.11508 3.98215 0
M  V30 3561 C 336.464 -2.0027 4.37545 0
M  V30 3562 C 338.816 -1.80308 4.89018 0
M  V30 3563 C 336.144 -1.56067 5.65562 0
M  V30 3564 C 338.496 -1.37589 6.17456 0
M  V30 3565 C 337.16 -1.24916 6.55708 0
M  V30 3566 H 336.43 -0.496492 0.550069 0
M  V30 3567 H 339.077 -0.675052 1.79207 0
M  V30 3568 H 337.382 -3.25225 2.18486 0
M  V30 3569 H 339.079 -3.09895 2.54492 0
M  V30 3570 H 335.669 -2.21185 3.67117 0
M  V30 3571 H 339.853 -1.87884 4.59362 0
M  V30 3572 H 335.109 -1.44886 5.93985 0
M  V30 3573 H 339.283 -1.12495 6.87254 0
M  V30 3574 H 336.91 -0.904386 7.54801 0
M  V30 3575 N 338.485 -1.33259 -0.841409 0
M  V30 3576 C 339.734 -1.23921 -1.59143 0
M  V30 3577 C 340.047 0.1941 -1.94635 0
M  V30 3578 O 341.253 0.409474 -2.68394 0
M  V30 3579 C 339.709 -2.17119 -2.87032 0
M  V30 3580 C 339.317 -3.65606 -2.58914 0
M  V30 3581 C 341.061 -2.16648 -3.65053 0
M  V30 3582 C 338.968 -4.50726 -3.82884 0
M  V30 3583 H 337.898 -0.460264 -0.597221 0
M  V30 3584 H 340.549 -1.58307 -0.927959 0
M  V30 3585 H 338.931 -1.75663 -3.54906 0
M  V30 3586 H 340.105 -4.15487 -1.99267 0
M  V30 3587 H 338.42 -3.68341 -1.942 0
M  V30 3588 H 341.017 -2.77474 -4.57069 0
M  V30 3589 H 341.36 -1.16088 -3.99787 0
M  V30 3590 H 341.893 -2.56453 -3.041 0
M  V30 3591 H 338.632 -5.52151 -3.53283 0
M  V30 3592 H 338.152 -4.0559 -4.41879 0
M  V30 3593 H 339.831 -4.64401 -4.50489 0
M  V30 3594 N 339.963 1.05934 -1.16686 0
M  V30 3595 C 340.893 2.1546 -0.899949 0
M  V30 3596 C 341.874 1.69391 0.155154 0
M  V30 3597 O 343.059 1.94199 0.00648693 0
M  V30 3598 C 340.189 3.44939 -0.404241 0
M  V30 3599 C 339.143 4.04536 -1.39767 0
M  V30 3600 C 338.469 5.29268 -0.760216 0
M  V30 3601 C 339.769 4.42893 -2.76845 0
M  V30 3602 H 341.463 2.38046 -1.81588 0
M  V30 3603 H 339.009 1.14404 -0.874514 0
M  V30 3604 H 340.962 4.20901 -0.204971 0
M  V30 3605 H 339.686 3.21983 0.547206 0
M  V30 3606 H 338.345 3.30635 -1.58355 0
M  V30 3607 H 337.993 5.02611 0.197831 0
M  V30 3608 H 337.693 5.70101 -1.42332 0
M  V30 3609 H 339.217 6.07924 -0.57105 0
M  V30 3610 H 340.631 5.09921 -2.62019 0
M  V30 3611 H 339.028 4.94721 -3.39663 0
M  V30 3612 H 340.098 3.53584 -3.31823 0
M  V30 3613 N 341.441 0.965919 1.2453 0
M  V30 3614 C 342.388 0.49402 2.25451 0
M  V30 3615 C 343.358 -0.45948 1.59618 0
M  V30 3616 O 344.543 -0.370238 1.87173 0
M  V30 3617 C 341.683 -0.211359 3.44452 0
M  V30 3618 C 340.796 0.7807 4.24887 0
M  V30 3619 C 339.931 0.0516105 5.31175 0
M  V30 3620 C 338.97 1.03385 6.03306 0
M  V30 3621 N 338.107 0.334887 7.01301 0
M  V30 3622 H 342.947 1.35946 2.65184 0
M  V30 3623 H 340.484 0.681515 1.3036 0
M  V30 3624 H 342.442 -0.637 4.12308 0
M  V30 3625 H 341.072 -1.04077 3.05562 0
M  V30 3626 H 340.124 1.32479 3.56586 0
M  V30 3627 H 341.436 1.52978 4.74762 0
M  V30 3628 H 340.59 -0.432114 6.05159 0
M  V30 3629 H 339.329 -0.730179 4.82203 0
M  V30 3630 H 338.334 1.52847 5.28127 0
M  V30 3631 H 339.559 1.81606 6.54367 0
M  V30 3632 H 337.505 -0.427959 6.54603 0
M  V30 3633 H 337.422 1.02287 7.49048 0
M  V30 3634 H 338.69 -0.126928 7.79397 0
M  V30 3635 N 342.919 -1.39368 0.735821 0
M  V30 3636 C 343.829 -2.34395 0.0979693 0
M  V30 3637 C 344.845 -1.58361 -0.720968 0
M  V30 3638 O 346.021 -1.90648 -0.649245 0
M  V30 3639 C 343.086 -3.37393 -0.797916 0
M  V30 3640 C 342.147 -4.29287 0.0333662 0
M  V30 3641 C 341.38 -5.27365 -0.819854 0
M  V30 3642 O 341.603 -5.31959 -2.05855 0
M  V30 3643 O 340.537 -6.01389 -0.248079 0
M  V30 3644 H 344.363 -2.90601 0.882315 0
M  V30 3645 H 341.948 -1.40909 0.4965 0
M  V30 3646 H 343.83 -4.00505 -1.31048 0
M  V30 3647 H 342.505 -2.83571 -1.56106 0
M  V30 3648 H 341.412 -3.69395 0.591475 0
M  V30 3649 H 342.745 -4.86317 0.758752 0
M  V30 3650 N 344.397 -0.483516 -1.5 0
M  V30 3651 C 345.627 0.0643896 -2.065 0
M  V30 3652 C 346.035 1.32949 -1.34615 0
M  V30 3653 O 345.378 1.79003 -0.412756 0
M  V30 3654 C 345.44 0.405983 -3.572 0
M  V30 3655 C 345.104 -0.758875 -4.50655 0
M  V30 3656 C 346.101 -1.64445 -4.93208 0
M  V30 3657 C 343.786 -0.952725 -4.93182 0
M  V30 3658 C 345.78 -2.70818 -5.77006 0
M  V30 3659 C 343.467 -2.01966 -5.76761 0
M  V30 3660 C 344.465 -2.89574 -6.18576 0
M  V30 3661 O 344.153 -3.94429 -7.00486 0
M  V30 3662 H 343.885 -0.00934786 -0.675935 0
M  V30 3663 H 346.439 -0.674959 -1.93993 0
M  V30 3664 H 344.669 1.19869 -3.67652 0
M  V30 3665 H 346.358 0.890433 -3.96013 0
M  V30 3666 H 347.124 -1.50643 -4.61012 0
M  V30 3667 H 343.003 -0.280247 -4.60147 0
M  V30 3668 H 346.547 -3.3923 -6.09565 0
M  V30 3669 H 342.444 -2.1577 -6.0837 0
M  V30 3670 H 343.212 -3.91568 -7.1876 0
M  V30 3671 N 345.875 1.56104 -0.216619 0
M  V30 3672 C 346.785 2.23694 0.706982 0
M  V30 3673 C 347.801 1.24295 1.21765 0
M  V30 3674 O 348.977 1.57094 1.2603 0
M  V30 3675 C 346.042 2.8998 1.90033 0
M  V30 3676 C 345.103 4.04708 1.43213 0
M  V30 3677 C 344.336 4.67824 2.56859 0
M  V30 3678 O 344.559 4.29913 3.74874 0
M  V30 3679 O 343.493 5.56905 2.28343 0
M  V30 3680 H 347.319 3.03272 0.161235 0
M  V30 3681 H 344.904 1.49394 0.0136177 0
M  V30 3682 H 346.786 3.31837 2.59735 0
M  V30 3683 H 345.461 2.13365 2.43428 0
M  V30 3684 H 344.368 3.6743 0.70327 0
M  V30 3685 H 345.701 4.83051 0.944615 0
M  V30 3686 N 347.353 -0.0568162 1.57498 0
M  V30 3687 C 348.578 -0.769402 1.92601 0
M  V30 3688 C 349.003 -1.69559 0.814336 0
M  V30 3689 O 348.361 -1.79811 -0.231903 0
M  V30 3690 C 348.409 -1.52634 3.26704 0
M  V30 3691 O 347.513 -2.63797 3.16994 0
M  V30 3692 H 346.854 -0.208909 0.63028 0
M  V30 3693 H 349.384 -0.0205798 2.0459 0
M  V30 3694 H 349.394 -1.90234 3.60936 0
M  V30 3695 H 348.069 -0.846875 4.07186 0
M  V30 3696 H 346.646 -2.28943 2.94346 0
M  V30 3697 N 348.832 -1.54138 -0.328536 0
M  V30 3698 C 350.062 -1.75807 -1.08516 0
M  V30 3699 C 350.47 -0.50428 -1.82356 0
M  V30 3700 O 349.813 0.534451 -1.75754 0
M  V30 3701 C 349.875 -2.89423 -2.13248 0
M  V30 3702 C 349.539 -4.28504 -1.5885 0
M  V30 3703 C 350.536 -5.09536 -1.03289 0
M  V30 3704 C 348.221 -4.75034 -1.63243 0
M  V30 3705 C 350.215 -6.35206 -0.52845 0
M  V30 3706 C 347.902 -6.00672 -1.12411 0
M  V30 3707 C 348.9 -6.80592 -0.573062 0
M  V30 3708 O 348.588 -8.03867 -0.0723692 0
M  V30 3709 H 348.32 -0.590633 -0.328829 0
M  V30 3710 H 350.874 -2.01819 -0.381868 0
M  V30 3711 H 349.104 -2.5897 -2.87178 0
M  V30 3712 H 350.793 -2.98921 -2.74592 0
M  V30 3713 H 351.559 -4.74745 -0.99206 0
M  V30 3714 H 347.438 -4.12875 -2.05074 0
M  V30 3715 H 350.982 -6.97532 -0.0976774 0
M  V30 3716 H 346.879 -6.34955 -1.162 0
M  V30 3717 H 347.647 -8.18283 -0.188258 0
M  V30 3718 N 350.31 0.590341 -1.46126 0
M  V30 3719 C 351.535 1.37991 -1.54833 0
M  V30 3720 C 351.96 1.87163 -0.187506 0
M  V30 3721 O 351.318 1.61133 0.831008 0
M  V30 3722 C 351.366 2.54867 -2.55098 0
M  V30 3723 O 350.47 3.56061 -2.08073 0
M  V30 3724 H 349.811 0.411265 -0.521303 0
M  V30 3725 H 352.341 0.716819 -1.91632 0
M  V30 3726 H 352.351 3.01886 -2.74461 0
M  V30 3727 H 351.026 2.18429 -3.53923 0
M  V30 3728 H 349.603 3.15574 -1.98664 0
M  V30 3729 N 351.788 1.33704 0.83433 0
M  V30 3730 C 353.065 1.16011 1.57483 0
M  V30 3731 C 353.445 -0.27176 2.09343 0
M  V30 3732 O 352.793 -1.27146 1.89858 0
M  V30 3733 C 353.003 2.20507 2.70514 0
M  V30 3734 C 354.351 2.54898 3.39577 0
M  V30 3735 O 355.375 2.19209 2.80759 0
M  V30 3736 O 354.234 3.16158 4.45765 0
M  V30 3737 H 351.328 0.448992 0.694503 0
M  V30 3738 H 353.874 1.453 0.876691 0
M  V30 3739 H 352.646 3.16667 2.29865 0
M  V30 3740 H 352.269 1.92329 3.47987 0
M  V30 3741 N 353.266 -1.05314 1.17247 0
M  V30 3742 C 354.513 -1.78293 0.960091 0
M  V30 3743 C 354.841 -1.87658 -0.51136 0
M  V30 3744 O 354.096 -1.3718 -1.39571 0
M  V30 3745 C 354.395 -3.2229 1.54479 0
M  V30 3746 C 354.061 -3.32987 3.04024 0
M  V30 3747 C 352.723 -3.35613 3.44844 0
M  V30 3748 C 355.075 -3.34102 4.00031 0
M  V30 3749 C 352.403 -3.36982 4.8027 0
M  V30 3750 C 354.755 -3.3701 5.35357 0
M  V30 3751 C 353.419 -3.37923 5.75642 0
M  V30 3752 H 352.689 -0.652422 0.351322 0
M  V30 3753 H 355.336 -1.23782 1.46117 0
M  V30 3754 H 353.641 -3.7972 0.965391 0
M  V30 3755 H 355.338 -3.77376 1.35603 0
M  V30 3756 H 351.928 -3.31655 2.71483 0
M  V30 3757 H 356.112 -3.31276 3.69554 0
M  V30 3758 H 351.368 -3.35999 5.10798 0
M  V30 3759 H 355.542 -3.36822 6.09528 0
M  V30 3760 H 353.169 -3.38738 6.80559 0
M  V30 3761 N 354.744 -0.972509 -1.24016 0
M  V30 3762 C 355.654 -0.5143 -2.28893 0
M  V30 3763 C 356.67 0.427078 -1.68677 0
M  V30 3764 O 357.846 0.298939 -1.99169 0
M  V30 3765 C 354.911 0.183598 -3.46214 0
M  V30 3766 C 353.972 -0.798202 -4.21814 0
M  V30 3767 C 353.205 -0.133514 -5.33533 0
M  V30 3768 O 353.428 1.07714 -5.60137 0
M  V30 3769 O 352.362 -0.828103 -5.96176 0
M  V30 3770 H 356.188 -1.38629 -2.70214 0
M  V30 3771 H 353.773 -0.739769 -1.29799 0
M  V30 3772 H 355.655 0.575433 -4.17453 0
M  V30 3773 H 354.33 1.03048 -3.0686 0
M  V30 3774 H 353.237 -1.24059 -3.52931 0
M  V30 3775 H 354.57 -1.61364 -4.64997 0
M  V30 3776 N 356.222 1.38976 -0.743202 0
M  V30 3777 C 357.638 1.53984 -0.419664 0
M  V30 3778 C 357.838 1.70837 1.0685 0
M  V30 3779 O 356.894 1.7135 1.8546 0
M  V30 3780 C 358.207 2.75287 -1.20985 0
M  V30 3781 C 359.755 2.89129 -1.19889 0
M  V30 3782 C 360.23 4.13381 -1.97181 0
M  V30 3783 N 361.721 4.20437 -1.94389 0
M  V30 3784 C 362.456 5.15547 -2.50996 0
M  V30 3785 N 361.952 6.16395 -3.16274 0
M  V30 3786 N 363.745 5.07822 -2.40984 0
M  V30 3787 H 355.896 1.26285 -1.7078 0
M  V30 3788 H 358.159 0.612689 -0.723406 0
M  V30 3789 H 357.865 2.69204 -2.26323 0
M  V30 3790 H 357.739 3.68184 -0.819759 0
M  V30 3791 H 360.126 2.947 -0.153606 0
M  V30 3792 H 360.207 1.97272 -1.62841 0
M  V30 3793 H 359.851 4.08572 -3.01714 0
M  V30 3794 H 359.781 5.04298 -1.51629 0
M  V30 3795 H 362.272 3.48205 -1.46839 0
M  V30 3796 H 362.585 6.85443 -3.56915 0
M  V30 3797 H 360.93 6.16758 -3.20367 0
M  V30 3798 H 364.121 4.27973 -1.89622 0
M  V30 3799 H 364.294 5.81767 -2.85397 0
M  V30 3800 N 357.7 0.491464 1.49741 0
M  V30 3801 C 358.648 -0.305837 2.30581 0
M  V30 3802 C 359.642 -0.971642 1.38764 0
M  V30 3803 O 360.848 -0.90042 1.5586 0
M  V30 3804 H 357.223 -0.117482 0.742767 0
M  V30 3805 H 359.194 0.396093 2.95759 0
M  V30 3806 C 357.943 -1.36319 3.19863 0
M  V30 3807 H 357.266 -0.860258 3.90435 0
M  V30 3808 H 358.706 -1.89323 3.79385 0
M  V30 3809 C 357.165 -2.37621 2.38826 0
M  V30 3810 O 357.695 -3.43311 2.08567 0
M  V30 3811 N 355.901 -2.09849 2.01026 0
M  V30 3812 H 355.448 -1.23922 2.25834 0
M  V30 3813 H 355.406 -2.77859 1.47112 0
M  V30 3814 N 359.178 -1.55987 0.224894 0
M  V30 3815 C 360.424 -1.98684 -0.406502 0
M  V30 3816 C 360.757 -1.11248 -1.59177 0
M  V30 3817 O 360.032 -0.170909 -1.93748 0
M  V30 3818 C 360.315 -3.50218 -0.837808 0
M  V30 3819 C 360.168 -4.48426 0.351332 0
M  V30 3820 C 361.487 -4.06243 -1.69278 0
M  V30 3821 H 358.606 -0.722337 -0.146283 0
M  V30 3822 H 361.248 -1.87255 0.321799 0
M  V30 3823 H 359.398 -3.60089 -1.45837 0
M  V30 3824 H 361.07 -4.50562 0.989526 0
M  V30 3825 H 359.313 -4.22159 0.998207 0
M  V30 3826 H 359.984 -5.52 0.00655905 0
M  V30 3827 H 362.46 -3.99337 -1.16914 0
M  V30 3828 H 361.336 -5.12581 -1.96346 0
M  V30 3829 H 361.597 -3.53332 -2.65723 0
M  V30 3830 N 360.656 0.0484629 -1.57525 0
M  V30 3831 C 361.884 0.755421 -1.92616 0
M  V30 3832 C 362.299 1.69919 -0.822984 0
M  V30 3833 O 361.656 1.81378 0.202085 0
M  V30 3834 C 361.707 1.52915 -3.27566 0
M  V30 3835 O 361.428 0.62329 -4.33644 0
M  V30 3836 C 362.929 2.33502 -3.76818 0
M  V30 3837 H 360.149 0.213465 -0.63614 0
M  V30 3838 H 362.693 0.0117698 -2.04497 0
M  V30 3839 H 360.848 2.22486 -3.17142 0
M  V30 3840 H 361.262 1.16383 -5.11425 0
M  V30 3841 H 362.736 2.83214 -4.73808 0
M  V30 3842 H 363.213 3.14068 -3.07014 0
M  V30 3843 H 363.819 1.69043 -3.90262 0
M  V30 3844 N 362.134 1.5431 0.320358 0
M  V30 3845 C 363.044 1.86946 1.41734 0
M  V30 3846 C 364.06 0.761689 1.56443 0
M  V30 3847 O 365.236 1.05629 1.71477 0
M  V30 3848 C 362.301 2.09293 2.76401 0
M  V30 3849 C 361.362 3.33082 2.70841 0
M  V30 3850 C 360.595 3.54353 3.99086 0
M  V30 3851 O 360.818 2.79002 4.97508 0
M  V30 3852 O 359.752 4.47838 4.0215 0
M  V30 3853 H 363.578 2.80232 1.17062 0
M  V30 3854 H 361.163 1.40255 0.514673 0
M  V30 3855 H 363.045 2.25303 3.56113 0
M  V30 3856 H 361.72 1.19194 3.00956 0
M  V30 3857 H 360.627 3.22454 1.89668 0
M  V30 3858 H 361.96 4.23249 2.5124 0
M  V30 3859 N 363.613 -0.582584 1.46437 0
M  V30 3860 C 364.56 -1.69164 1.5701 0
M  V30 3861 C 365.53 -1.60847 0.414403 0
M  V30 3862 O 366.715 -1.80058 0.631171 0
M  V30 3863 C 363.855 -3.075 1.56646 0
M  V30 3864 C 362.968 -3.2644 2.82951 0
M  V30 3865 C 362.103 -4.55026 2.7409 0
M  V30 3866 C 361.142 -4.6731 3.95333 0
M  V30 3867 N 360.279 -5.87221 3.84858 0
M  V30 3868 H 365.119 -1.59464 2.51744 0
M  V30 3869 H 362.656 -0.777186 1.24893 0
M  V30 3870 H 364.614 -3.8757 1.5442 0
M  V30 3871 H 363.244 -3.16096 0.654439 0
M  V30 3872 H 362.296 -2.39974 2.95155 0
M  V30 3873 H 363.608 -3.31385 3.72808 0
M  V30 3874 H 362.762 -5.43324 2.6997 0
M  V30 3875 H 361.501 -4.52519 1.81873 0
M  V30 3876 H 360.506 -3.77429 3.99784 0
M  V30 3877 H 361.731 -4.71595 4.88646 0
M  V30 3878 H 359.677 -5.85712 2.95427 0
M  V30 3879 H 359.594 -5.93435 4.6837 0
M  V30 3880 H 360.862 -6.7795 3.84713 0
M  V30 3881 N 365.091 -1.34144 -0.827227 0
M  V30 3882 C 366.024 -1.19707 -1.94282 0
M  V30 3883 C 367.002 -0.0897256 -1.62352 0
M  V30 3884 O 368.186 -0.254095 -1.8678 0
M  V30 3885 C 365.313 -0.838646 -3.28153 0
M  V30 3886 C 364.359 -1.95514 -3.79047 0
M  V30 3887 S 365.192 -3.56793 -3.99323 0
M  V30 3888 C 366.348 -3.22983 -5.36127 0
M  V30 3889 H 366.581 -2.1414 -2.06231 0
M  V30 3890 H 364.114 -1.19121 -0.982321 0
M  V30 3891 H 366.072 -0.638637 -4.05502 0
M  V30 3892 H 364.733 0.0872776 -3.13979 0
M  V30 3893 H 363.926 -1.658 -4.75948 0
M  V30 3894 H 363.528 -2.11241 -3.08631 0
M  V30 3895 H 365.82 -2.74531 -6.19386 0
M  V30 3896 H 366.763 -4.19008 -5.70822 0
M  V30 3897 H 367.171 -2.59276 -5.01434 0
M  V30 3898 N 366.569 1.04691 -1.17803 0
M  V30 3899 C 367.532 2.10724 -0.901545 0
M  V30 3900 C 368.532 1.6042 0.110437 0
M  V30 3901 O 369.722 1.7377 -0.122303 0
M  V30 3902 C 366.854 3.39084 -0.351409 0
M  V30 3903 H 368.047 2.36686 -1.84174 0
M  V30 3904 H 365.6 1.21015 -0.98919 0
M  V30 3905 H 366.335 3.18782 0.59569 0
M  V30 3906 H 366.12 3.76909 -1.08083 0
M  V30 3907 H 367.61 4.17227 -0.176451 0
M  V30 3908 N 368.047 0.979072 1.23499 0
M  V30 3909 C 369.272 0.664845 1.96455 0
M  V30 3910 C 369.697 -0.761287 1.72006 0
M  V30 3911 O 369.055 -1.51837 0.990713 0
M  V30 3912 C 369.103 0.959479 3.47601 0
M  V30 3913 O 368.207 0.0508168 4.12369 0
M  V30 3914 H 367.548 0.250185 0.615064 0
M  V30 3915 H 370.078 1.31231 1.5697 0
M  V30 3916 H 370.088 0.895642 3.98048 0
M  V30 3917 H 368.763 1.99876 3.64723 0
M  V30 3918 H 367.34 0.16895 3.72517 0
M  V30 3919 N 369.525 -1.3858 0.750561 0
M  V30 3920 C 370.472 -2.30483 0.120835 0
M  V30 3921 C 371.442 -1.50022 -0.712923 0
M  V30 3922 O 372.627 -1.78662 -0.669676 0
M  V30 3923 C 369.767 -3.36431 -0.768666 0
M  V30 3924 C 368.88 -4.31927 0.0793922 0
M  V30 3925 C 368.015 -5.24944 -0.81283 0
M  V30 3926 C 367.054 -6.12088 0.0390447 0
M  V30 3927 N 366.191 -6.97412 -0.809969 0
M  V30 3928 H 371.031 -2.83761 0.91015 0
M  V30 3929 H 368.568 -1.39707 0.460463 0
M  V30 3930 H 370.526 -3.96462 -1.29898 0
M  V30 3931 H 369.156 -2.8457 -1.5238 0
M  V30 3932 H 368.208 -3.73382 0.727303 0
M  V30 3933 H 369.52 -4.93319 0.737401 0
M  V30 3934 H 368.674 -5.90078 -1.41042 0
M  V30 3935 H 367.413 -4.63911 -1.50458 0
M  V30 3936 H 366.418 -5.45952 0.649328 0
M  V30 3937 H 367.643 -6.75189 0.727809 0
M  V30 3938 H 365.589 -6.38931 -1.48672 0
M  V30 3939 H 365.506 -7.55712 -0.208789 0
M  V30 3940 H 366.774 -7.66959 -1.39263 0
M  V30 3941 N 371.003 -0.499398 -1.49478 0
M  V30 3942 C 372.228 0.044722 -2.07352 0
M  V30 3943 C 372.653 1.30207 -1.35749 0
M  V30 3944 O 372.011 1.76516 -0.413732 0
M  V30 3945 C 372.059 0.283013 -3.59488 0
M  V30 3946 O 371.163 1.35804 -3.89398 0
M  V30 3947 H 370.504 -0.0255147 -0.66351 0
M  V30 3948 H 373.034 -0.698561 -1.92305 0
M  V30 3949 H 373.044 0.515007 -4.04737 0
M  V30 3950 H 371.719 -0.635636 -4.11014 0
M  V30 3951 H 370.296 1.11113 -3.55961 0
M  V30 3952 N 372.481 1.55866 -0.233164 0
M  V30 3953 C 373.729 1.9821 0.394593 0
M  V30 3954 C 374.05 1.12234 1.59463 0
M  V30 3955 O 373.32 0.201981 1.94856 0
M  V30 3956 H 371.9 0.732034 0.148778 0
M  V30 3957 H 374.562 1.92107 -0.32876 0
M  V30 3958 H 373.658 3.03845 0.713063 0
M  V30 3959 N 373.959 -0.0401083 1.57549 0
M  V30 3960 C 375.206 -0.733125 1.88763 0
M  V30 3961 C 375.534 -1.75946 0.829058 0
M  V30 3962 O 374.789 -1.94949 -0.171323 0
M  V30 3963 C 375.088 -1.44902 3.26708 0
M  V30 3964 C 374.754 -0.559707 4.47413 0
M  V30 3965 C 373.416 -0.314731 4.8017 0
M  V30 3966 C 375.768 0.0549743 5.21171 0
M  V30 3967 C 373.096 0.553886 5.8408 0
M  V30 3968 C 375.448 0.911229 6.26003 0
M  V30 3969 C 374.112 1.16577 6.57241 0
M  V30 3970 H 373.382 -0.268269 0.690733 0
M  V30 3971 H 376.029 0.00679408 1.91499 0
M  V30 3972 H 374.334 -2.26197 3.1991 0
M  V30 3973 H 376.031 -1.99058 3.48105 0
M  V30 3974 H 372.621 -0.760793 4.21794 0
M  V30 3975 H 376.805 -0.121344 4.96152 0
M  V30 3976 H 372.061 0.759518 6.06664 0
M  V30 3977 H 376.235 1.3941 6.82303 0
M  V30 3978 H 373.862 1.84058 7.37582 0
M  V30 3979 N 375.437 -1.54477 -0.31217 0
M  V30 3980 C 376.662 -1.77526 -1.07235 0
M  V30 3981 C 377.087 -0.527775 -1.80544 0
M  V30 3982 O 376.445 0.52121 -1.73646 0
M  V30 3983 C 376.493 -2.97535 -2.03728 0
M  V30 3984 O 375.597 -2.69878 -3.11833 0
M  V30 3985 H 374.938 -0.58792 -0.30862 0
M  V30 3986 H 377.468 -2.01532 -0.352993 0
M  V30 3987 H 377.478 -3.25198 -2.46395 0
M  V30 3988 H 376.153 -3.87996 -1.49774 0
M  V30 3989 H 374.73 -2.53199 -2.7376 0
M  V30 3990 N 376.915 0.57481 -1.46744 0
M  V30 3991 C 378.162 1.33272 -1.52462 0
M  V30 3992 C 378.49 1.93669 -0.179572 0
M  V30 3993 O 377.745 1.7743 0.825664 0
M  V30 3994 C 378.044 2.476 -2.57738 0
M  V30 3995 C 377.71 2.05146 -4.01529 0
M  V30 3996 C 376.372 1.93284 -4.40676 0
M  V30 3997 C 378.724 1.72506 -4.91824 0
M  V30 3998 C 376.052 1.47049 -5.67973 0
M  V30 3999 C 378.404 1.27748 -6.19567 0
M  V30 4000 C 377.068 1.14468 -6.57612 0
M  V30 4001 H 376.338 0.487678 -0.557899 0
M  V30 4002 H 378.985 0.646456 -1.80259 0
M  V30 4003 H 377.29 3.21708 -2.23632 0
M  V30 4004 H 378.987 3.05807 -2.5939 0
M  V30 4005 H 375.577 2.15316 -3.7059 0
M  V30 4006 H 379.761 1.80552 -4.62293 0
M  V30 4007 H 375.017 1.35417 -5.96215 0
M  V30 4008 H 379.191 1.01547 -6.88957 0
M  V30 4009 H 376.818 0.78419 -7.56145 0
M  V30 4010 N 378.394 1.34581 0.820102 0
M  V30 4011 C 379.642 1.26845 1.57336 0
M  V30 4012 C 379.963 -0.160667 1.94337 0
M  V30 4013 O 379.233 -1.09396 1.6251 0
M  V30 4014 H 377.813 0.466514 0.583415 0
M  V30 4015 H 380.475 1.68526 0.979027 0
M  V30 4016 H 379.571 1.87513 2.4949 0
M  V30 4017 N 379.872 -1.04064 1.18357 0
M  V30 4018 C 381.119 -1.77265 0.978947 0
M  V30 4019 C 381.447 -1.88189 -0.491428 0
M  V30 4020 O 380.702 -1.38653 -1.38108 0
M  V30 4021 C 381.001 -3.20634 1.57888 0
M  V30 4022 C 380.667 -3.29743 3.07539 0
M  V30 4023 C 379.329 -3.31937 3.48384 0
M  V30 4024 C 381.681 -3.29841 4.03552 0
M  V30 4025 C 379.009 -3.3187 4.83818 0
M  V30 4026 C 381.361 -3.31313 5.38901 0
M  V30 4027 C 380.025 -3.31799 5.79194 0
M  V30 4028 H 379.295 -0.648659 0.358222 0
M  V30 4029 H 381.942 -1.22225 1.47422 0
M  V30 4030 H 380.247 -3.78675 1.00561 0
M  V30 4031 H 381.944 -3.75917 1.39598 0
M  V30 4032 H 378.534 -3.28757 2.74986 0
M  V30 4033 H 382.718 -3.27337 3.73047 0
M  V30 4034 H 377.974 -3.30562 5.14333 0
M  V30 4035 H 382.148 -3.30338 6.13066 0
M  V30 4036 H 379.775 -3.315 6.84114 0
M  V30 4037 N 381.35 -0.985608 -1.22978 0
M  V30 4038 C 382.297 -0.529825 -2.24636 0
M  V30 4039 C 383.267 0.434028 -1.60329 0
M  V30 4040 O 384.452 0.340414 -1.87739 0
M  V30 4041 C 381.592 0.156533 -3.44745 0
M  V30 4042 C 380.705 -0.848197 -4.23591 0
M  V30 4043 C 379.84 -0.136109 -5.31026 0
M  V30 4044 C 378.879 -1.1297 -6.01585 0
M  V30 4045 N 378.016 -0.446415 -7.00679 0
M  V30 4046 H 382.856 -1.40148 -2.62988 0
M  V30 4047 H 380.393 -0.702168 -1.29259 0
M  V30 4048 H 382.351 0.571324 -4.1327 0
M  V30 4049 H 380.981 0.992025 -3.07179 0
M  V30 4050 H 380.033 -1.38135 -3.54433 0
M  V30 4051 H 381.345 -1.60512 -4.72268 0
M  V30 4052 H 380.499 0.335784 -6.0577 0
M  V30 4053 H 379.238 0.653373 -4.83304 0
M  V30 4054 H 378.243 -1.6123 -5.25628 0
M  V30 4055 H 379.468 -1.91993 -6.51395 0
M  V30 4056 H 377.414 0.323763 -6.55201 0
M  V30 4057 H 377.331 -1.1419 -7.47326 0
M  V30 4058 H 378.599 0.00291697 -7.795 0
M  V30 4059 N 382.828 1.3818 -0.7579 0
M  V30 4060 C 384.077 1.99261 -0.312744 0
M  V30 4061 C 384.39 1.60846 1.11301 0
M  V30 4062 O 385.596 2.14929 1.65885 0
M  V30 4063 C 384.052 3.56294 -0.50821 0
M  V30 4064 C 383.66 4.03657 -1.94333 0
M  V30 4065 C 385.404 4.24313 -0.125982 0
M  V30 4066 C 383.311 5.53347 -2.08712 0
M  V30 4067 H 382.241 0.745456 -0.113185 0
M  V30 4068 H 384.892 1.57889 -0.935056 0
M  V30 4069 H 383.274 3.95575 0.183353 0
M  V30 4070 H 384.448 3.75655 -2.66871 0
M  V30 4071 H 382.763 3.48376 -2.28086 0
M  V30 4072 H 385.36 5.34279 -0.212125 0
M  V30 4073 H 385.703 4.05962 0.921964 0
M  V30 4074 H 386.236 3.90285 -0.769563 0
M  V30 4075 H 382.975 5.76607 -3.11777 0
M  V30 4076 H 382.495 5.83078 -1.4064 0
M  V30 4077 H 384.174 6.19111 -1.87912 0
M  V30 4078 N 384.306 0.507319 1.49211 0
M  V30 4079 C 385.717 0.0611118 1.866 0
M  V30 4080 C 386.068 -1.35488 1.41907 0
M  V30 4081 O 385.193 -2.0108 0.799726 0
M  V30 4082 C 385.788 0.104125 3.3864 0
M  V30 4083 C 384.347 -0.28677 3.75306 0
M  V30 4084 C 383.494 0.473893 2.73221 0
M  V30 4085 H 386.445 0.719775 1.41439 0
M  V30 4086 H 386.466 -0.689672 3.74198 0
M  V30 4087 H 385.978 1.13482 3.71138 0
M  V30 4088 H 384.079 -1.32046 3.48417 0
M  V30 4089 H 384.192 0.0370745 4.79086 0
M  V30 4090 H 382.556 -0.0770644 2.54583 0
M  V30 4091 H 383.339 1.50478 3.08563 0
M  V30 4092 N 385.784 -1.5574 0.241426 0
M  V30 4093 C 387.032 -1.98417 -0.384075 0
M  V30 4094 C 387.353 -1.13078 -1.58866 0
M  V30 4095 O 386.623 -0.212312 -1.94746 0
M  V30 4096 H 385.203 -0.732813 -0.144894 0
M  V30 4097 H 387.865 -1.9193 0.338943 0
M  V30 4098 H 386.961 -3.04219 -0.696939 0
M  V30 4099 N 387.262 0.0317525 -1.57568 0
M  V30 4100 C 388.511 0.722131 -1.8833 0
M  V30 4101 C 388.824 1.76664 -0.839587 0
M  V30 4102 O 390.03 2.50942 -1.03635 0
M  V30 4103 C 388.486 1.33544 -3.34207 0
M  V30 4104 C 388.094 0.327415 -4.46802 0
M  V30 4105 C 389.838 2.00585 -3.7412 0
M  V30 4106 C 387.745 0.948915 -5.83738 0
M  V30 4107 H 386.675 0.273466 -0.702661 0
M  V30 4108 H 389.326 -0.0235811 -1.83485 0
M  V30 4109 H 387.708 2.13077 -3.33788 0
M  V30 4110 H 388.882 -0.441006 -4.58685 0
M  V30 4111 H 387.197 -0.240758 -4.15703 0
M  V30 4112 H 389.794 2.47932 -4.73744 0
M  V30 4113 H 390.137 2.82285 -3.05975 0
M  V30 4114 H 390.67 1.27831 -3.76702 0
M  V30 4115 H 387.409 0.171387 -6.55276 0
M  V30 4116 H 386.929 1.68724 -5.7558 0
M  V30 4117 H 388.608 1.45705 -6.3038 0
M  V30 4118 N 388.74 1.54641 0.303973 0
M  V30 4119 C 389.987 1.7378 1.03955 0
M  V30 4120 C 390.315 0.521986 1.87365 0
M  V30 4121 O 389.57 -0.496099 1.89308 0
M  V30 4122 C 389.869 2.97753 1.97681 0
M  V30 4123 C 389.535 4.31671 1.30271 0
M  V30 4124 C 388.197 4.68075 1.11619 0
M  V30 4125 C 390.549 5.147 0.82055 0
M  V30 4126 C 387.877 5.8509 0.434304 0
M  V30 4127 C 390.229 6.32416 0.152395 0
M  V30 4128 C 388.893 6.67484 -0.0461067 0
M  V30 4129 H 388.163 0.635908 0.380398 0
M  V30 4130 H 390.81 1.88896 0.314718 0
M  V30 4131 H 389.115 2.77406 2.76682 0
M  V30 4132 H 390.812 3.09756 2.54661 0
M  V30 4133 H 387.402 4.03041 1.45795 0
M  V30 4134 H 391.586 4.87077 0.952374 0
M  V30 4135 H 386.842 6.10806 0.269495 0
M  V30 4136 H 391.016 6.96023 -0.229126 0
M  V30 4137 H 388.643 7.58011 -0.576494 0
M  V30 4138 N 390.218 -0.567019 1.47046 0
M  V30 4139 C 391.128 -1.70247 1.6141 0
M  V30 4140 C 392.144 -1.66746 0.497157 0
M  V30 4141 O 393.32 -1.86371 0.763389 0
M  V30 4142 C 390.385 -3.06756 1.61561 0
M  V30 4143 C 389.446 -3.21399 2.84607 0
M  V30 4144 C 388.679 -4.51396 2.84741 0
M  V30 4145 O 388.902 -5.36255 1.94388 0
M  V30 4146 O 387.836 -4.69621 3.76483 0
M  V30 4147 H 391.662 -1.61073 2.57467 0
M  V30 4148 H 389.247 -0.735894 1.30019 0
M  V30 4149 H 391.129 -3.8801 1.64396 0
M  V30 4150 H 389.804 -3.16333 0.686684 0
M  V30 4151 H 388.711 -2.39579 2.8732 0
M  V30 4152 H 390.044 -3.16721 3.76761 0
M  V30 4153 N 391.696 -1.35014 -0.812953 0
M  V30 4154 C 392.626 -1.30069 -1.93919 0
M  V30 4155 C 393.607 -0.176275 -1.69184 0
M  V30 4156 O 394.792 -0.370227 -1.90638 0
M  V30 4157 C 391.922 -1.06547 -3.30552 0
M  V30 4158 C 390.876 -2.15561 -3.69753 0
M  V30 4159 C 390.202 -1.77214 -5.04479 0
M  V30 4160 C 391.502 -3.57476 -3.808 0
M  V30 4161 H 393.196 -2.24303 -1.98314 0
M  V30 4162 H 390.742 -1.07977 -0.952736 0
M  V30 4163 H 392.695 -1.01729 -4.08937 0
M  V30 4164 H 391.419 -0.0875719 -3.26483 0
M  V30 4165 H 390.078 -2.19466 -2.9365 0
M  V30 4166 H 389.726 -0.780589 -4.96906 0
M  V30 4167 H 389.426 -2.50184 -5.31678 0
M  V30 4168 H 390.95 -1.7391 -5.8531 0
M  V30 4169 H 392.364 -3.55929 -4.4943 0
M  V30 4170 H 390.761 -4.29152 -4.19462 0
M  V30 4171 H 391.831 -3.94091 -2.82525 0
M  V30 4172 N 393.175 1.03435 -1.18907 0
M  V30 4173 C 394.423 1.76394 -0.986382 0
M  V30 4174 C 394.744 1.88883 0.484567 0
M  V30 4175 O 394.014 1.41843 1.3512 0
M  V30 4176 H 392.594 0.65344 -0.361975 0
M  V30 4177 H 395.256 1.248 -1.49703 0
M  V30 4178 H 394.352 2.77424 -1.42978 0
M  V30 4179 N 394.653 0.992116 1.22453 0
M  V30 4180 C 395.902 0.662992 1.90492 0
M  V30 4181 C 396.215 -0.808407 1.78113 0
M  V30 4182 O 397.421 -1.24908 2.41061 0
M  V30 4183 C 395.877 1.1353 3.41524 0
M  V30 4184 C 395.485 2.63187 3.62542 0
M  V30 4185 C 397.229 0.880465 4.15269 0
M  V30 4186 C 395.136 3.04024 5.0727 0
M  V30 4187 H 394.066 0.244278 0.713333 0
M  V30 4188 H 396.717 1.20157 1.38688 0
M  V30 4189 H 395.099 0.52485 3.92506 0
M  V30 4190 H 396.273 3.2957 3.22056 0
M  V30 4191 H 394.588 2.86543 3.02129 0
M  V30 4192 H 397.185 1.16128 5.21937 0
M  V30 4193 H 397.528 -0.183408 4.15896 0
M  V30 4194 H 398.061 1.45307 3.70312 0
M  V30 4195 H 394.8 4.09584 5.11782 0
M  V30 4196 H 394.32 2.42343 5.48662 0
M  V30 4197 H 395.999 2.95282 5.75689 0
M  V30 4198 N 396.131 -1.37776 0.765217 0
M  V30 4199 C 397.356 -2.04651 0.336537 0
M  V30 4200 C 397.781 -1.57337 -1.03086 0
M  V30 4201 O 397.139 -0.730621 -1.65927 0
M  V30 4202 C 397.187 -3.58577 0.381468 0
M  V30 4203 O 396.291 -4.07706 -0.62042 0
M  V30 4204 H 395.632 -0.64756 0.146838 0
M  V30 4205 H 398.162 -1.76221 1.03959 0
M  V30 4206 H 398.172 -4.07314 0.236448 0
M  V30 4207 H 396.847 -3.9237 1.37907 0
M  V30 4208 H 395.424 -3.70306 -0.439056 0
M  V30 4209 N 397.609 -0.515225 -1.4894 0
M  V30 4210 C 398.834 0.022727 -2.07388 0
M  V30 4211 C 399.259 1.2876 -1.37122 0
M  V30 4212 O 398.617 1.76067 -0.432431 0
M  V30 4213 C 398.665 0.244869 -3.59768 0
M  V30 4214 O 397.769 1.31667 -3.90817 0
M  V30 4215 H 397.11 -0.0325506 -0.663202 0
M  V30 4216 H 399.64 -0.718918 -1.91553 0
M  V30 4217 H 399.65 0.47205 -4.0526 0
M  V30 4218 H 398.325 -0.679194 -4.10317 0
M  V30 4219 H 396.902 1.07331 -3.5712 0
M  V30 4220 N 399.087 1.5561 -0.249682 0
M  V30 4221 C 400.019 2.18834 0.681496 0
M  V30 4222 C 401.032 1.16546 1.1367 0
M  V30 4223 O 402.221 1.43397 1.06299 0
M  V30 4224 C 399.321 2.77992 1.9384 0
M  V30 4225 C 398.494 4.05725 1.63419 0
M  V30 4226 C 397.553 4.49174 2.74096 0
M  V30 4227 O 396.579 5.15492 2.41364 0
M  V30 4228 N 397.781 4.17191 4.03649 0
M  V30 4229 H 400.546 2.9937 0.140514 0
M  V30 4230 H 398.107 1.6175 -0.0697541 0
M  V30 4231 H 400.099 3.04015 2.67127 0
M  V30 4232 H 398.669 2.01596 2.38909 0
M  V30 4233 H 397.889 3.87261 0.736358 0
M  V30 4234 H 399.177 4.88999 1.40562 0
M  V30 4235 H 398.575 3.63955 4.33074 0
M  V30 4236 H 397.132 4.48043 4.73393 0
M  V30 4237 N 400.565 -0.0233959 1.57583 0
M  V30 4238 C 401.79 -0.728376 1.94189 0
M  V30 4239 C 402.215 -1.67793 0.850119 0
M  V30 4240 O 401.573 -1.80262 -0.19371 0
M  V30 4241 C 401.621 -1.45669 3.29868 0
M  V30 4242 O 400.725 -2.57013 3.22518 0
M  V30 4243 H 400.066 -0.195493 0.63457 0
M  V30 4244 H 402.596 0.0228214 2.04587 0
M  V30 4245 H 402.606 -1.82535 3.6489 0
M  V30 4246 H 401.281 -0.760314 4.08891 0
M  V30 4247 H 399.858 -2.22648 2.99136 0
M  V30 4248 N 402.043 -1.548 -0.295768 0
M  V30 4249 C 403.32 -1.65014 -1.05023 0
M  V30 4250 C 403.7 -0.501805 -2.05049 0
M  V30 4251 O 403.048 0.500869 -2.22943 0
M  V30 4252 C 403.258 -3.03252 -1.72741 0
M  V30 4253 C 404.606 -3.60242 -2.24746 0
M  V30 4254 O 405.63 -3.05737 -1.82765 0
M  V30 4255 O 404.489 -4.55687 -3.01681 0
M  V30 4256 H 401.583 -0.669314 -0.485744 0
M  V30 4257 H 404.129 -1.67144 -0.293438 0
M  V30 4258 H 402.901 -3.7827 -1.00138 0
M  V30 4259 H 402.524 -3.04922 -2.55163 0
M  V30 4260 N 403.521 0.559213 -1.47345 0
M  V30 4261 C 404.937 0.884943 -1.32819 0
M  V30 4262 C 405.137 1.98988 -0.317173 0
M  V30 4263 O 404.193 2.51031 0.272011 0
M  V30 4264 C 405.506 1.28007 -2.72093 0
M  V30 4265 C 407.054 1.39161 -2.80363 0
M  V30 4266 C 407.529 1.82031 -4.20272 0
M  V30 4267 N 409.02 1.89185 -4.22804 0
M  V30 4268 C 409.755 2.2368 -5.27973 0
M  V30 4269 N 409.251 2.56802 -6.43447 0
M  V30 4270 N 411.044 2.24436 -5.15349 0
M  V30 4271 H 403.195 -0.170304 -2.11716 0
M  V30 4272 H 405.458 -0.0135247 -0.947904 0
M  V30 4273 H 405.164 0.542027 -3.47498 0
M  V30 4274 H 405.038 2.23665 -3.03733 0
M  V30 4275 H 407.425 2.12048 -2.05231 0
M  V30 4276 H 407.506 0.41696 -2.52379 0
M  V30 4277 H 407.15 1.09715 -4.95908 0
M  V30 4278 H 407.08 2.80495 -4.45679 0
M  V30 4279 H 409.571 1.65982 -3.39497 0
M  V30 4280 H 409.884 2.82144 -7.19454 0
M  V30 4281 H 408.229 2.54387 -6.46771 0
M  V30 4282 H 411.42 1.97998 -4.24163 0
M  V30 4283 H 411.593 2.50989 -5.97418 0
M  V30 4284 N 404.999 1.35443 0.805782 0
M  V30 4285 C 406.247 1.28507 1.55982 0
M  V30 4286 C 406.568 -0.140046 1.94496 0
M  V30 4287 O 405.838 -1.07666 1.63661 0
M  V30 4288 H 404.418 0.472676 0.578434 0
M  V30 4289 H 407.08 1.69555 0.961098 0
M  V30 4290 H 406.176 1.90148 2.47488 0
M  V30 4291 N 406.477 -1.02803 1.19454 0
M  V30 4292 C 407.424 -2.11099 0.933046 0
M  V30 4293 C 408.394 -1.65571 -0.132447 0
M  V30 4294 O 409.579 -1.90797 0.00987576 0
M  V30 4295 C 406.719 -3.41763 0.478747 0
M  V30 4296 C 405.832 -4.00833 1.6111 0
M  V30 4297 C 404.967 -5.19511 1.10825 0
M  V30 4298 C 404.006 -5.70639 2.21445 0
M  V30 4299 N 403.143 -6.80589 1.72461 0
M  V30 4300 H 407.983 -2.32804 1.86028 0
M  V30 4301 H 405.52 -1.14179 0.927441 0
M  V30 4302 H 407.478 -4.16736 0.196745 0
M  V30 4303 H 406.108 -3.20166 -0.411493 0
M  V30 4304 H 405.16 -3.23066 2.00829 0
M  V30 4305 H 406.472 -4.34794 2.4445 0
M  V30 4306 H 405.626 -6.01645 0.781533 0
M  V30 4307 H 404.365 -4.87086 0.244606 0
M  V30 4308 H 403.37 -4.87116 2.54947 0
M  V30 4309 H 404.595 -6.05102 3.08267 0
M  V30 4310 H 402.541 -6.50016 0.884056 0
M  V30 4311 H 402.458 -7.13681 2.49389 0
M  V30 4312 H 403.726 -7.66317 1.42755 0
M  V30 4313 N 407.956 -0.998596 -1.21925 0
M  V30 4314 C 408.906 -0.524743 -2.21879 0
M  V30 4315 C 409.89 0.41017 -1.55584 0
M  V30 4316 O 411.082 0.236063 -1.75419 0
M  V30 4317 C 408.211 0.153636 -3.42956 0
M  V30 4318 C 407.297 -0.801918 -4.16449 0
M  V30 4319 N 407.688 -1.95211 -4.66611 0
M  V30 4320 C 405.986 -0.618972 -4.41684 0
M  V30 4321 C 406.687 -2.55234 -5.22715 0
M  V30 4322 N 405.663 -1.83451 -5.1171 0
M  V30 4323 H 409.465 -1.40189 -2.58311 0
M  V30 4324 H 406.979 -0.86159 -1.3766 0
M  V30 4325 H 408.976 0.510534 -4.13762 0
M  V30 4326 H 407.636 1.02684 -3.08036 0
M  V30 4327 H 408.647 -2.33271 -4.62391 0
M  V30 4328 H 405.324 0.207694 -4.16983 0
M  V30 4329 H 406.714 -3.52471 -5.72026 0
M  V30 4330 N 409.434 1.37368 -0.772513 0
M  V30 4331 C 410.664 2.03647 -0.348082 0
M  V30 4332 C 411.072 1.58392 1.03482 0
M  V30 4333 O 410.415 0.760921 1.672 0
M  V30 4334 C 410.477 3.58131 -0.313404 0
M  V30 4335 C 410.141 4.2652 -1.64102 0
M  V30 4336 C 411.138 4.50587 -2.5936 0
M  V30 4337 C 408.823 4.64335 -1.91567 0
M  V30 4338 C 410.817 5.11526 -3.80289 0
M  V30 4339 C 408.504 5.24996 -3.12766 0
M  V30 4340 C 409.502 5.48529 -4.06946 0
M  V30 4341 O 409.19 6.07921 -5.26011 0
M  V30 4342 H 408.922 0.660538 -0.143753 0
M  V30 4343 H 411.476 1.76669 -1.04772 0
M  V30 4344 H 409.706 3.84159 0.442617 0
M  V30 4345 H 411.395 4.05813 0.0840613 0
M  V30 4346 H 412.161 4.21784 -2.39423 0
M  V30 4347 H 408.04 4.45353 -1.19088 0
M  V30 4348 H 411.584 5.29811 -4.53813 0
M  V30 4349 H 407.481 5.53223 -3.32588 0
M  V30 4350 H 408.249 6.26398 -5.26847 0
M  V30 4351 N 410.912 0.523116 1.48665 0
M  V30 4352 C 412.161 -0.01544 2.01694 0
M  V30 4353 C 412.474 -1.35975 1.40606 0
M  V30 4354 O 413.68 -1.98627 1.85093 0
M  V30 4355 C 412.136 -0.0779303 3.59816 0
M  V30 4356 C 411.744 1.26107 4.29885 0
M  V30 4357 C 413.488 -0.565678 4.20714 0
M  V30 4358 C 411.395 1.15954 5.79921 0
M  V30 4359 H 410.325 -0.00954163 0.75394 0
M  V30 4360 H 412.976 0.665865 1.70993 0
M  V30 4361 H 411.358 -0.824165 3.87329 0
M  V30 4362 H 412.532 2.02233 4.14051 0
M  V30 4363 H 410.847 1.68401 3.80828 0
M  V30 4364 H 413.444 -0.6595 5.30617 0
M  V30 4365 H 413.787 -1.56984 3.85567 0
M  V30 4366 H 414.32 0.12467 3.97605 0
M  V30 4367 H 411.059 2.13864 6.19631 0
M  V30 4368 H 410.579 0.439529 5.98187 0
M  V30 4369 H 412.258 0.847361 6.41427 0
M  V30 4370 N 412.39 -1.55475 0.257931 0
M  V30 4371 C 413.806 -1.59307 -0.0966563 0
M  V30 4372 C 414.006 -1.27514 -1.5602 0
M  V30 4373 O 413.062 -1.02774 -2.30637 0
M  V30 4374 C 414.375 -2.99552 0.262481 0
M  V30 4375 C 415.923 -3.1231 0.207683 0
M  V30 4376 C 416.398 -4.54793 0.541012 0
M  V30 4377 N 417.889 -4.6058 0.491921 0
M  V30 4378 C 418.624 -5.68825 0.722857 0
M  V30 4379 N 418.12 -6.85287 1.0175 0
M  V30 4380 N 419.913 -5.58296 0.652815 0
M  V30 4381 H 412.064 -1.74409 1.21224 0
M  V30 4382 H 414.327 -0.812424 0.48854 0
M  V30 4383 H 414.033 -3.27593 1.27967 0
M  V30 4384 H 413.907 -3.75019 -0.40508 0
M  V30 4385 H 416.294 -2.84044 -0.800195 0
M  V30 4386 H 416.375 -2.39095 0.909255 0
M  V30 4387 H 416.019 -4.83783 1.5465 0
M  V30 4388 H 415.949 -5.26285 -0.18216 0
M  V30 4389 H 418.44 -3.7691 0.273366 0
M  V30 4390 H 418.753 -7.63725 1.18084 0
M  V30 4391 H 417.098 -6.86945 1.05509 0
M  V30 4392 H 420.289 -4.66189 0.422592 0
M  V30 4393 H 420.462 -6.42582 0.836182 0
M  V30 4394 N 413.868 0.0150385 -1.57593 0
M  V30 4395 C 415.284 0.370907 -1.5523 0
M  V30 4396 C 415.484 1.75735 -0.985882 0
M  V30 4397 O 414.54 2.44944 -0.613077 0
M  V30 4398 C 415.853 0.259908 -2.99575 0
M  V30 4399 C 417.401 0.335959 -3.11192 0
M  V30 4400 C 417.876 0.254253 -4.57294 0
M  V30 4401 N 419.367 0.312618 -4.62144 0
M  V30 4402 C 420.102 0.272505 -5.72752 0
M  V30 4403 N 419.598 0.183864 -6.92556 0
M  V30 4404 N 421.391 0.323267 -5.6117 0
M  V30 4405 H 413.542 -0.892104 -1.92757 0
M  V30 4406 H 415.805 -0.340563 -0.884715 0
M  V30 4407 H 415.511 -0.693403 -3.44797 0
M  V30 4408 H 415.385 1.048 -3.62349 0
M  V30 4409 H 417.772 1.27971 -2.65909 0
M  V30 4410 H 417.853 -0.481739 -2.51223 0
M  V30 4411 H 417.497 -0.685887 -5.03247 0
M  V30 4412 H 417.427 1.09024 -5.15191 0
M  V30 4413 H 419.918 0.38307 -3.75953 0
M  V30 4414 H 420.231 0.15874 -7.72637 0
M  V30 4415 H 418.576 0.149708 -6.94839 0
M  V30 4416 H 421.767 0.390607 -4.66467 0
M  V30 4417 H 421.94 0.288539 -6.47357 0
M  V30 4418 N 415.346 1.54954 0.287554 0
M  V30 4419 C 416.574 1.78881 1.03967 0
M  V30 4420 C 416.989 0.554894 1.80462 0
M  V30 4421 O 416.346 -0.475676 1.76192 0
M  V30 4422 C 416.397 3.00488 2.0097 0
M  V30 4423 O 416.118 4.19113 1.27577 0
M  V30 4424 C 417.619 3.36907 2.88112 0
M  V30 4425 H 414.839 0.596259 0.307761 0
M  V30 4426 H 417.383 2.01937 0.322749 0
M  V30 4427 H 415.538 2.79601 2.68145 0
M  V30 4428 H 415.952 4.87765 1.92835 0
M  V30 4429 H 417.426 4.25205 3.52001 0
M  V30 4430 H 417.903 2.55659 3.57121 0
M  V30 4431 H 418.509 3.60001 2.26449 0
M  V30 4432 N 416.824 -0.551391 1.4764 0
M  V30 4433 C 417.771 -1.65796 1.60563 0
M  V30 4434 C 418.741 -1.59932 0.448428 0
M  V30 4435 O 419.926 -1.78679 0.669222 0
M  V30 4436 C 417.066 -3.04108 1.63133 0
M  V30 4437 C 416.179 -3.20365 2.89811 0
M  V30 4438 C 415.314 -4.49109 2.8368 0
M  V30 4439 C 414.353 -4.58819 4.05156 0
M  V30 4440 N 413.49 -5.78926 3.97227 0
M  V30 4441 H 418.33 -1.54088 2.5507 0
M  V30 4442 H 415.867 -0.75052 1.26513 0
M  V30 4443 H 417.825 -3.84207 1.62606 0
M  V30 4444 H 416.455 -3.14637 0.721341 0
M  V30 4445 H 415.507 -2.33659 3.00179 0
M  V30 4446 H 416.819 -3.23402 3.79753 0
M  V30 4447 H 415.973 -5.37475 2.81434 0
M  V30 4448 H 414.712 -4.4856 1.91431 0
M  V30 4449 H 413.717 -3.68864 4.077 0
M  V30 4450 H 414.942 -4.61124 4.98539 0
M  V30 4451 H 412.888 -5.79314 3.07785 0
M  V30 4452 H 412.805 -5.83367 4.80853 0
M  V30 4453 H 414.073 -6.69637 3.99007 0
M  V30 4454 N 418.302 -1.35869 -0.798587 0
M  V30 4455 C 419.718 -1.16082 -1.09532 0
M  V30 4456 C 419.918 0.0213124 -2.01489 0
M  V30 4457 O 418.974 0.689488 -2.42904 0
M  V30 4458 C 420.287 -2.46748 -1.7186 0
M  V30 4459 C 421.835 -2.53028 -1.84244 0
M  V30 4460 C 422.31 -3.83758 -2.49988 0
M  V30 4461 N 423.801 -3.85053 -2.57465 0
M  V30 4462 C 424.536 -4.8294 -3.09122 0
M  V30 4463 N 424.032 -5.91217 -3.61157 0
M  V30 4464 N 425.825 -4.70369 -3.0775 0
M  V30 4465 H 417.976 -2.11571 -0.187461 0
M  V30 4466 H 420.239 -0.936726 -0.145765 0
M  V30 4467 H 419.945 -3.33471 -1.11759 0
M  V30 4468 H 419.819 -2.61883 -2.71472 0
M  V30 4469 H 422.206 -1.66729 -2.43486 0
M  V30 4470 H 422.287 -2.418 -0.834643 0
M  V30 4471 H 421.931 -4.70459 -1.91393 0
M  V30 4472 H 421.861 -3.92278 -3.5132 0
M  V30 4473 H 424.352 -3.06822 -2.20609 0
M  V30 4474 H 424.665 -6.61892 -3.98896 0
M  V30 4475 H 423.01 -5.94899 -3.59333 0
M  V30 4476 H 426.201 -3.84914 -2.66381 0
M  V30 4477 H 426.374 -5.46816 -3.47701 0
M  V30 4478 N 419.78 1.02168 -1.19998 0
M  V30 4479 C 421.027 1.75685 -1.00702 0
M  V30 4480 C 421.355 1.88947 0.461426 0
M  V30 4481 O 420.61 1.40832 1.35885 0
M  V30 4482 C 420.909 3.18081 -1.62969 0
M  V30 4483 C 420.575 3.24809 -3.12746 0
M  V30 4484 C 419.237 3.26352 -3.53621 0
M  V30 4485 C 421.589 3.23379 -4.08749 0
M  V30 4486 C 418.917 3.2413 -4.89036 0
M  V30 4487 C 421.269 3.22698 -5.44104 0
M  V30 4488 C 419.933 3.22542 -5.84399 0
M  V30 4489 H 419.203 0.642877 -0.368496 0
M  V30 4490 H 421.85 1.19865 -1.49348 0
M  V30 4491 H 420.155 3.77027 -1.06573 0
M  V30 4492 H 421.852 3.73648 -1.45561 0
M  V30 4493 H 418.442 3.2434 -2.80181 0
M  V30 4494 H 422.626 3.21361 -3.78207 0
M  V30 4495 H 417.882 3.22338 -5.19527 0
M  V30 4496 H 422.056 3.20543 -6.18244 0
M  V30 4497 H 419.683 3.20575 -6.89301 0
M  V30 4498 N 421.258 1.00505 1.21394 0
M  V30 4499 C 422.483 0.706367 1.95001 0
M  V30 4500 C 422.908 -0.72463 1.73582 0
M  V30 4501 O 422.266 -1.49702 1.0227 0
M  V30 4502 C 422.314 1.03299 3.45487 0
M  V30 4503 O 421.418 0.138275 4.12168 0
M  V30 4504 H 420.759 0.263175 0.609619 0
M  V30 4505 H 423.289 1.34531 1.54151 0
M  V30 4506 H 423.299 0.979872 3.96059 0
M  V30 4507 H 421.974 2.07567 3.60401 0
M  V30 4508 H 420.551 0.247928 3.72075 0
M  V30 4509 N 422.737 -1.36956 0.779787 0
M  V30 4510 C 423.687 -2.27539 0.144892 0
M  V30 4511 C 424.671 -1.46493 -0.665488 0
M  V30 4512 O 425.863 -1.68968 -0.527141 0
M  V30 4513 C 422.992 -3.35512 -0.727082 0
M  V30 4514 C 422.078 -4.24001 0.0915642 0
M  V30 4515 N 422.469 -4.92757 1.14125 0
M  V30 4516 C 420.767 -4.45807 -0.131141 0
M  V30 4517 C 421.468 -5.58138 1.6388 0
M  V30 4518 N 420.444 -5.35241 0.94962 0
M  V30 4519 H 424.246 -2.78176 0.948446 0
M  V30 4520 H 421.76 -1.50169 0.618315 0
M  V30 4521 H 423.757 -3.99324 -1.19776 0
M  V30 4522 H 422.417 -2.86431 -1.52929 0
M  V30 4523 H 423.428 -4.94984 1.52353 0
M  V30 4524 H 420.105 -4.07582 -0.904621 0
M  V30 4525 H 421.495 -6.23071 2.51461 0
M  V30 4526 N 424.215 -0.530993 -1.48385 0
M  V30 4527 C 425.443 -0.00134122 -2.069 0
M  V30 4528 C 425.858 1.2805 -1.3874 0
M  V30 4529 O 425.215 1.76204 -0.475244 0
M  V30 4530 C 425.266 0.225256 -3.60798 0
M  V30 4531 O 424.987 -1.0058 -4.26398 0
M  V30 4532 C 426.488 0.795172 -4.3611 0
M  V30 4533 H 423.708 -0.0339704 -0.67014 0
M  V30 4534 H 426.252 -0.736926 -1.90761 0
M  V30 4535 H 424.407 0.910891 -3.76539 0
M  V30 4536 H 424.821 -0.787165 -5.1856 0
M  V30 4537 H 426.295 0.903143 -5.44562 0
M  V30 4538 H 426.772 1.80031 -4.00606 0
M  V30 4539 H 427.378 0.146069 -4.25049 0
M  V30 4540 N 425.693 1.55336 -0.266172 0
M  V30 4541 C 426.64 2.22172 0.625165 0
M  V30 4542 C 427.61 1.19211 1.15663 0
M  V30 4543 O 428.795 1.47723 1.20758 0
M  V30 4544 C 425.935 2.93972 1.8076 0
M  V30 4545 C 425.048 4.11632 1.31084 0
M  V30 4546 C 424.183 4.71099 2.45436 0
M  V30 4547 C 423.222 5.8097 1.92718 0
M  V30 4548 N 422.359 6.34538 3.00509 0
M  V30 4549 H 427.199 2.9796 0.0485582 0
M  V30 4550 H 424.736 1.47095 0.0122024 0
M  V30 4551 H 426.694 3.33811 2.50251 0
M  V30 4552 H 425.324 2.20623 2.35638 0
M  V30 4553 H 424.376 3.76975 0.509326 0
M  V30 4554 H 425.688 4.90893 0.884633 0
M  V30 4555 H 424.842 5.13612 3.22936 0
M  V30 4556 H 423.581 3.91096 2.91368 0
M  V30 4557 H 422.586 5.37916 1.13695 0
M  V30 4558 H 423.811 6.62836 1.47733 0
M  V30 4559 H 421.757 5.57433 3.45839 0
M  V30 4560 H 421.674 7.09046 2.62279 0
M  V30 4561 H 422.942 6.81709 3.78011 0
M  V30 4562 N 427.171 -0.0066808 1.57599 0
M  V30 4563 C 428.396 -0.707738 1.94951 0
M  V30 4564 C 428.821 -1.66882 0.867868 0
M  V30 4565 O 428.179 -1.80457 -0.17458 0
M  V30 4566 C 428.227 -1.42162 3.31394 0
M  V30 4567 O 427.331 -2.53578 3.25226 0
M  V30 4568 H 426.672 -0.188752 0.636607 0
M  V30 4569 H 429.202 0.0445193 2.04552 0
M  V30 4570 H 429.212 -1.78655 3.66806 0
M  V30 4571 H 427.887 -0.716903 4.09675 0
M  V30 4572 H 426.464 -2.19463 3.01481 0
M  V30 4573 N 428.649 -1.55105 -0.279332 0
M  V30 4574 C 429.895 -1.75672 -1.01327 0
M  V30 4575 C 430.228 -0.552739 -1.86168 0
M  V30 4576 O 429.503 0.449827 -1.89227 0
M  V30 4577 C 429.786 -3.05825 -1.90114 0
M  V30 4578 C 429.639 -4.36565 -1.08309 0
M  V30 4579 C 430.958 -3.31975 -2.8893 0
M  V30 4580 H 428.077 -0.639149 -0.366957 0
M  V30 4581 H 430.719 -1.87833 -0.286154 0
M  V30 4582 H 428.869 -2.95588 -2.52111 0
M  V30 4583 H 430.541 -4.58751 -0.484314 0
M  V30 4584 H 428.784 -4.32076 -0.386362 0
M  V30 4585 H 429.455 -5.23946 -1.73737 0
M  V30 4586 H 431.931 -3.41963 -2.37067 0
M  V30 4587 H 430.807 -4.2432 -3.48201 0
M  V30 4588 H 431.068 -2.51309 -3.63725 0
M  V30 4589 N 430.127 0.543554 -1.4793 0
M  V30 4590 C 431.374 1.30008 -1.55255 0
M  V30 4591 C 431.702 1.93245 -0.220612 0
M  V30 4592 O 430.957 1.79141 0.787843 0
M  V30 4593 C 431.256 2.42078 -2.62932 0
M  V30 4594 C 430.922 1.96583 -4.0579 0
M  V30 4595 C 429.584 1.83893 -4.44676 0
M  V30 4596 C 431.936 1.62034 -4.95373 0
M  V30 4597 C 429.264 1.34969 -5.70964 0
M  V30 4598 C 431.616 1.14577 -6.22137 0
M  V30 4599 C 430.28 1.00493 -6.59892 0
M  V30 4600 H 429.55 0.475735 -0.568117 0
M  V30 4601 H 432.197 0.608075 -1.81589 0
M  V30 4602 H 430.502 3.16892 -2.30406 0
M  V30 4603 H 432.199 3.00236 -2.65818 0
M  V30 4604 H 428.789 2.07407 -3.75074 0
M  V30 4605 H 432.973 1.70705 -4.66019 0
M  V30 4606 H 428.229 1.2274 -5.98953 0
M  V30 4607 H 432.403 0.869109 -6.90955 0
M  V30 4608 H 430.03 0.623624 -7.57638 0
M  V30 4609 N 431.605 1.3629 0.791371 0
M  V30 4610 C 432.535 1.33137 1.91825 0
M  V30 4611 C 433.516 0.203168 1.68882 0
M  V30 4612 O 434.701 0.400509 1.90025 0
M  V30 4613 C 431.831 1.11793 3.28816 0
M  V30 4614 C 430.785 2.21417 3.66277 0
M  V30 4615 C 430.111 1.85218 5.01596 0
M  V30 4616 C 431.411 3.63489 3.75064 0
M  V30 4617 H 433.105 2.2743 1.9472 0
M  V30 4618 H 430.651 1.09479 0.935437 0
M  V30 4619 H 432.604 1.08222 4.07266 0
M  V30 4620 H 431.328 0.139501 3.26302 0
M  V30 4621 H 429.987 2.2411 2.90121 0
M  V30 4622 H 429.635 0.859544 4.95602 0
M  V30 4623 H 429.335 2.58611 5.27631 0
M  V30 4624 H 430.859 1.832 5.82469 0
M  V30 4625 H 432.273 3.63034 4.43711 0
M  V30 4626 H 430.67 4.35771 4.12582 0
M  V30 4627 H 431.74 3.98536 2.76219 0
M  V30 4628 N 433.083 -1.0153 1.20538 0
M  V30 4629 C 434.033 -2.08482 0.922991 0
M  V30 4630 C 435.017 -1.60469 -0.117702 0
M  V30 4631 O 436.209 -1.76772 0.0898465 0
M  V30 4632 C 433.338 -3.39952 0.478312 0
M  V30 4633 C 432.424 -3.94662 1.5525 0
M  V30 4634 N 432.815 -4.22866 2.77521 0
M  V30 4635 C 431.113 -4.22825 1.41897 0
M  V30 4636 C 431.814 -4.67002 3.4682 0
M  V30 4637 N 430.79 -4.69356 2.74237 0
M  V30 4638 H 434.592 -2.28199 1.85209 0
M  V30 4639 H 432.106 -1.19512 1.09957 0
M  V30 4640 H 434.103 -4.16105 0.257408 0
M  V30 4641 H 432.763 -3.21648 -0.444148 0
M  V30 4642 H 433.774 -4.11732 3.1416 0
M  V30 4643 H 430.451 -4.13714 0.561015 0
M  V30 4644 H 431.841 -4.97632 4.51455 0
M  V30 4645 N 434.561 -1.01147 -1.20859 0
M  V30 4646 C 435.524 -0.582224 -2.21682 0
M  V30 4647 C 436.524 0.344887 -1.57058 0
M  V30 4648 O 437.714 0.134281 -1.73682 0
M  V30 4649 C 434.846 0.150496 -3.40568 0
M  V30 4650 H 436.039 -1.47408 -2.61172 0
M  V30 4651 H 433.592 -0.800695 -1.34233 0
M  V30 4652 H 434.327 1.0575 -3.06574 0
M  V30 4653 H 434.112 -0.515444 -3.88697 0
M  V30 4654 H 435.602 0.438344 -4.15293 0
M  V30 4655 N 436.039 1.36541 -0.78704 0
M  V30 4656 C 437.455 1.52571 -0.46844 0
M  V30 4657 C 437.655 1.7415 1.01361 0
M  V30 4658 O 436.711 1.77163 1.79915 0
M  V30 4659 C 438.024 2.71299 -1.29682 0
M  V30 4660 C 439.572 2.85169 -1.29027 0
M  V30 4661 C 440.047 4.06898 -2.10233 0
M  V30 4662 N 441.538 4.1404 -2.07666 0
M  V30 4663 C 442.273 5.07301 -2.67271 0
M  V30 4664 N 441.769 6.06021 -3.35724 0
M  V30 4665 N 443.562 4.99898 -2.57018 0
M  V30 4666 H 435.713 1.20788 -1.74711 0
M  V30 4667 H 437.976 0.589364 -0.742532 0
M  V30 4668 H 437.682 2.61868 -2.34773 0
M  V30 4669 H 437.556 3.6539 -0.936479 0
M  V30 4670 H 439.943 2.94062 -0.247284 0
M  V30 4671 H 440.024 1.91992 -1.69035 0
M  V30 4672 H 439.668 3.98766 -3.1456 0
M  V30 4673 H 439.598 4.99218 -1.67597 0
M  V30 4674 H 442.089 3.43357 -1.57843 0
M  V30 4675 H 442.402 6.73741 -3.78541 0
M  V30 4676 H 440.747 6.06253 -3.39826 0
M  V30 4677 H 443.938 4.21724 -2.03142 0
M  V30 4678 H 444.111 5.72392 -3.03761 0
M  V30 4679 N 437.518 0.538854 1.48102 0
M  V30 4680 C 438.743 0.0102694 2.07397 0
M  V30 4681 C 439.168 -1.26562 1.39153 0
M  V30 4682 O 438.526 -1.75357 0.460387 0
M  V30 4683 C 438.574 -0.187602 3.60112 0
M  V30 4684 O 437.678 -1.25432 3.92862 0
M  V30 4685 H 437.019 0.0430975 0.6626 0
M  V30 4686 H 439.549 0.749301 1.90385 0
M  V30 4687 H 439.559 -0.407517 4.0596 0
M  V30 4688 H 438.234 0.744386 4.09184 0
M  V30 4689 H 436.811 -1.01636 3.58782 0
M  V30 4690 N 438.996 -1.55193 0.274407 0
M  V30 4691 C 440.273 -1.91584 -0.394331 0
M  V30 4692 C 440.653 -1.19858 -1.73774 0
M  V30 4693 O 440.001 -0.3252 -2.26174 0
M  V30 4694 C 440.211 -3.4487 -0.535311 0
M  V30 4695 C 441.559 -4.16636 -0.818534 0
M  V30 4696 O 442.583 -3.5076 -0.620146 0
M  V30 4697 O 441.442 -5.33209 -1.19792 0
M  V30 4698 H 438.536 -0.798349 -0.215794 0
M  V30 4699 H 441.082 -1.66646 0.320507 0
M  V30 4700 H 439.854 -3.89145 0.410141 0
M  V30 4701 H 439.477 -3.75759 -1.29964 0
M  V30 4702 N 440.474 -0.00167713 -1.576 0
M  V30 4703 C 441.404 0.988091 -2.11563 0
M  V30 4704 C 442.385 1.35736 -1.02517 0
M  V30 4705 O 443.57 1.44082 -1.30208 0
M  V30 4706 C 440.7 2.27941 -2.62031 0
M  V30 4707 C 439.654 2.0517 -3.75619 0
M  V30 4708 C 438.98 3.4033 -4.12407 0
M  V30 4709 C 440.28 1.41294 -5.02825 0
M  V30 4710 H 441.974 0.538771 -2.94513 0
M  V30 4711 H 439.52 0.257712 -1.41675 0
M  V30 4712 H 441.473 2.97539 -2.9841 0
M  V30 4713 H 440.197 2.74989 -1.76205 0
M  V30 4714 H 438.856 1.37998 -3.39635 0
M  V30 4715 H 438.504 3.85085 -3.23603 0
M  V30 4716 H 438.204 3.25909 -4.88935 0
M  V30 4717 H 439.728 4.1124 -4.51347 0
M  V30 4718 H 441.142 2.00851 -5.36965 0
M  V30 4719 H 439.539 1.37356 -5.84169 0
M  V30 4720 H 440.609 0.382362 -4.8339 0
M  V30 4721 N 441.952 1.55251 0.271103 0
M  V30 4722 C 442.862 1.9136 1.35714 0
M  V30 4723 C 443.878 0.811075 1.5394 0
M  V30 4724 O 445.054 1.11031 1.6803 0
M  V30 4725 C 442.119 2.1798 2.69603 0
M  V30 4726 C 441.18 3.4153 2.60107 0
M  V30 4727 C 440.413 3.66871 3.8761 0
M  V30 4728 O 440.636 2.94689 4.8838 0
M  V30 4729 O 439.57 4.60405 3.87699 0
M  V30 4730 H 443.396 2.83815 1.08088 0
M  V30 4731 H 440.981 1.41821 0.469792 0
M  V30 4732 H 442.863 2.36518 3.48765 0
M  V30 4733 H 441.538 1.28708 2.97012 0
M  V30 4734 H 440.445 3.28325 1.79314 0
M  V30 4735 H 441.778 4.31027 2.37647 0
M  V30 4736 N 443.43 -0.535701 1.48216 0
M  V30 4737 C 444.676 -1.29375 1.56173 0
M  V30 4738 C 445.009 -1.92804 0.232429 0
M  V30 4739 O 444.284 -1.78992 -0.761048 0
M  V30 4740 C 444.567 -2.38747 2.69577 0
M  V30 4741 C 444.42 -1.80046 4.12193 0
M  V30 4742 C 445.739 -3.40551 2.78771 0
M  V30 4743 H 442.858 -0.469027 0.568491 0
M  V30 4744 H 445.5 -0.597358 1.80365 0
M  V30 4745 H 443.65 -2.98147 2.4908 0
M  V30 4746 H 445.322 -1.24742 4.44114 0
M  V30 4747 H 443.565 -1.10609 4.19462 0
M  V30 4748 H 444.236 -2.59212 4.87353 0
M  V30 4749 H 446.712 -2.91099 2.97322 0
M  V30 4750 H 445.588 -4.1448 3.59857 0
M  V30 4751 H 445.849 -4.00746 1.86696 0
M  V30 4752 N 444.908 -1.36708 -0.784132 0
M  V30 4753 C 445.871 -1.31307 -1.87859 0
M  V30 4754 C 446.871 -0.219654 -1.59293 0
M  V30 4755 O 448.061 -0.47476 -1.67606 0
M  V30 4756 C 445.193 -1.03679 -3.24751 0
M  V30 4757 H 446.386 -2.28647 -1.94064 0
M  V30 4758 H 443.939 -1.21558 -0.98252 0
M  V30 4759 H 444.674 -0.0681936 -3.24228 0
M  V30 4760 H 444.459 -1.82811 -3.46876 0
M  V30 4761 H 445.949 -1.02518 -4.04821 0
M  V30 4762 N 446.386 1.0089 -1.21074 0
M  V30 4763 C 447.336 2.0799 -0.934034 0
M  V30 4764 C 448.32 1.60529 0.10919 0
M  V30 4765 O 449.512 1.76722 -0.0992198 0
M  V30 4766 C 446.641 3.39693 -0.496334 0
M  V30 4767 C 445.727 3.93833 -1.57341 0
M  V30 4768 N 446.118 4.21388 -2.7976 0
M  V30 4769 C 444.416 4.22067 -1.44137 0
M  V30 4770 C 445.117 4.65156 -3.49292 0
M  V30 4771 N 444.093 4.67895 -2.76722 0
M  V30 4772 H 447.895 2.27213 -1.86417 0
M  V30 4773 H 445.409 1.18927 -1.10589 0
M  V30 4774 H 447.406 4.15962 -0.279471 0
M  V30 4775 H 446.066 3.21879 0.427084 0
M  V30 4776 H 447.077 4.10061 -3.1634 0
M  V30 4777 H 443.754 4.1341 -0.582947 0
M  V30 4778 H 445.144 4.95231 -4.54088 0
M  V30 4779 N 447.864 1.01787 1.20321 0
M  V30 4780 C 449.094 0.72614 1.93419 0
M  V30 4781 C 449.502 -0.717317 1.75075 0
M  V30 4782 O 448.845 -1.49836 1.06278 0
M  V30 4783 C 448.907 0.983621 3.45782 0
M  V30 4784 C 448.571 2.41645 3.87888 0
M  V30 4785 C 449.568 3.39732 3.93545 0
M  V30 4786 C 447.253 2.75752 4.19841 0
M  V30 4787 C 449.247 4.69988 4.30569 0
M  V30 4788 C 446.934 4.06221 4.56539 0
M  V30 4789 C 447.932 5.0315 4.61876 0
M  V30 4790 O 447.62 6.31284 4.97731 0
M  V30 4791 H 447.352 0.265824 0.621541 0
M  V30 4792 H 449.906 1.3623 1.53722 0
M  V30 4793 H 448.136 0.290301 3.85609 0
M  V30 4794 H 449.825 0.683279 4.00108 0
M  V30 4795 H 450.591 3.14718 3.69022 0
M  V30 4796 H 446.47 2.00993 4.14877 0
M  V30 4797 H 450.014 5.45642 4.3465 0
M  V30 4798 H 445.911 4.31013 4.80518 0
M  V30 4799 H 446.679 6.35591 5.15719 0
M  V30 4800 N 449.342 -1.36122 0.79427 0
M  V30 4801 C 450.289 -2.29982 0.194101 0
M  V30 4802 C 451.259 -1.52214 -0.664833 0
M  V30 4803 O 452.444 -1.80702 -0.612498 0
M  V30 4804 C 449.584 -3.38706 -0.661244 0
M  V30 4805 C 448.697 -4.31456 0.216766 0
M  V30 4806 C 447.832 -5.27265 -0.645411 0
M  V30 4807 C 446.871 -6.11653 0.233756 0
M  V30 4808 N 446.008 -6.99636 -0.587682 0
M  V30 4809 H 450.848 -2.80722 0.999965 0
M  V30 4810 H 448.385 -1.38172 0.504677 0
M  V30 4811 H 450.343 -4.00394 -1.17219 0
M  V30 4812 H 448.973 -2.89274 -1.43249 0
M  V30 4813 H 448.025 -3.7088 0.845724 0
M  V30 4814 H 449.337 -4.90724 0.893973 0
M  V30 4815 H 448.491 -5.94266 -1.22198 0
M  V30 4816 H 447.23 -4.68463 -1.35623 0
M  V30 4817 H 446.235 -5.4361 0.82269 0
M  V30 4818 H 447.46 -6.72531 0.942247 0
M  V30 4819 H 445.406 -6.43337 -1.2827 0
M  V30 4820 H 445.323 -7.55993 0.0317402 0
M  V30 4821 H 446.591 -7.71001 -1.14792 0
M  V30 4822 N 450.82 -0.546701 -1.47814 0
M  V30 4823 C 451.75 0.195317 -2.32682 0
M  V30 4824 C 452.731 0.918981 -1.43139 0
M  V30 4825 O 453.916 0.901501 -1.72008 0
M  V30 4826 C 451.046 1.23237 -3.247 0
M  V30 4827 C 450 0.625818 -4.234 0
M  V30 4828 C 449.326 1.76674 -5.04669 0
M  V30 4829 C 450.626 -0.413515 -5.2066 0
M  V30 4830 H 452.32 -0.513184 -2.94969 0
M  V30 4831 H 449.866 -0.248241 -1.41844 0
M  V30 4832 H 451.819 1.75955 -3.82907 0
M  V30 4833 H 450.543 1.97067 -2.60446 0
M  V30 4834 H 449.202 0.120023 -3.66403 0
M  V30 4835 H 448.85 2.49383 -4.36826 0
M  V30 4836 H 448.55 1.36673 -5.71484 0
M  V30 4837 H 450.074 2.29738 -5.65732 0
M  V30 4838 H 451.488 0.0272042 -5.73294 0
M  V30 4839 H 449.885 -0.731825 -5.95621 0
M  V30 4840 H 450.955 -1.31325 -4.66778 0
M  V30 4841 N 452.299 1.55045 -0.282633 0
M  V30 4842 C 453.246 2.22822 0.601566 0
M  V30 4843 C 454.216 1.20431 1.14392 0
M  V30 4844 O 455.401 1.48996 1.19184 0
M  V30 4845 C 452.541 2.95873 1.77632 0
M  V30 4846 C 451.654 4.12999 1.26711 0
M  V30 4847 C 450.789 4.73676 2.40426 0
M  V30 4848 C 449.828 5.82981 1.86545 0
M  V30 4849 N 448.965 6.3769 2.93762 0
M  V30 4850 H 453.805 2.97995 0.0169528 0
M  V30 4851 H 451.342 1.471 -0.00339964 0
M  V30 4852 H 453.3 3.36447 2.46697 0
M  V30 4853 H 451.93 2.2311 2.33285 0
M  V30 4854 H 450.982 3.77494 0.469314 0
M  V30 4855 H 452.294 4.91803 0.832518 0
M  V30 4856 H 451.448 5.17008 3.17471 0
M  V30 4857 H 450.187 3.94164 2.87203 0
M  V30 4858 H 449.192 5.39092 1.07983 0
M  V30 4859 H 450.417 6.64366 1.40694 0
M  V30 4860 H 448.363 5.61069 3.39908 0
M  V30 4861 H 448.28 7.11788 2.54744 0
M  V30 4862 H 449.548 6.8568 3.7076 0
M  V30 4863 N 453.777 0.010035 1.57597 0
M  V30 4864 C 455.188 -0.531426 1.78977 0
M  V30 4865 C 455.539 -1.73375 0.918454 0
M  V30 4866 O 454.664 -2.16047 0.123635 0
M  V30 4867 C 455.259 -0.97086 3.24592 0
M  V30 4868 C 453.818 -1.45756 3.47033 0
M  V30 4869 C 452.965 -0.413384 2.74201 0
M  V30 4870 H 455.916 0.236166 1.56933 0
M  V30 4871 H 455.937 -1.83633 3.33255 0
M  V30 4872 H 455.449 -0.0955893 3.87982 0
M  V30 4873 H 453.55 -2.35339 2.88871 0
M  V30 4874 H 453.663 -1.4781 4.55729 0
M  V30 4875 H 452.027 -0.877266 2.39115 0
M  V30 4876 H 452.81 0.453092 3.40297 0
M  V30 4877 N 455.255 -1.55392 -0.262866 0
M  V30 4878 C 456.671 -1.47459 -0.610582 0
M  V30 4879 C 456.871 -0.697031 -1.8906 0
M  V30 4880 O 455.927 -0.219952 -2.5154 0
M  V30 4881 C 457.24 -2.91751 -0.728131 0
M  V30 4882 C 458.788 -3.02027 -0.821517 0
M  V30 4883 C 459.263 -4.47594 -0.97076 0
M  V30 4884 N 460.754 -4.51465 -1.03603 0
M  V30 4885 C 461.489 -5.61326 -1.17049 0
M  V30 4886 N 460.985 -6.81032 -1.2715 0
M  V30 4887 N 462.778 -5.49089 -1.20239 0
M  V30 4888 H 454.929 -2.04395 0.577632 0
M  V30 4889 H 457.192 -0.927287 0.197086 0
M  V30 4890 H 456.898 -3.51413 0.142132 0
M  V30 4891 H 456.772 -3.4134 -1.6052 0
M  V30 4892 H 459.159 -2.42456 -1.68224 0
M  V30 4893 H 459.24 -2.55674 0.0803688 0
M  V30 4894 H 458.884 -5.07771 -0.114655 0
M  V30 4895 H 458.814 -4.91613 -1.88745 0
M  V30 4896 H 461.305 -3.6524 -0.96996 0
M  V30 4897 H 461.618 -7.60511 -1.37271 0
M  V30 4898 H 459.963 -6.83824 -1.24136 0
M  V30 4899 H 463.154 -4.54507 -1.11985 0
M  V30 4900 H 463.327 -6.34749 -1.30373 0
M  V30 4901 N 456.733 0.527833 -1.48498 0
M  V30 4902 C 457.958 1.313 -1.60546 0
M  V30 4903 C 458.383 1.86199 -0.26672 0
M  V30 4904 O 457.741 1.64513 0.761918 0
M  V30 4905 C 457.789 2.43818 -2.65678 0
M  V30 4906 O 456.893 3.46916 -2.22987 0
M  V30 4907 H 456.234 0.388784 -0.538277 0
M  V30 4908 H 458.764 0.634896 -1.945 0
M  V30 4909 H 458.774 2.89973 -2.87018 0
M  V30 4910 H 457.449 2.03222 -3.62869 0
M  V30 4911 H 456.026 3.06864 -2.11869 0
M  V30 4912 N 458.211 1.37122 0.776871 0
M  V30 4913 C 459.141 1.35164 1.90402 0
M  V30 4914 C 460.122 0.221069 1.68657 0
M  V30 4915 O 461.307 0.420642 1.8959 0
M  V30 4916 C 458.437 1.15274 3.27611 0
M  V30 4917 C 457.391 2.25289 3.63908 0
M  V30 4918 C 456.717 1.90527 4.99603 0
M  V30 4919 C 458.017 3.67446 3.71188 0
M  V30 4920 H 459.711 2.29482 1.92297 0
M  V30 4921 H 457.257 1.10465 0.923773 0
M  V30 4922 H 459.21 1.12536 4.06096 0
M  V30 4923 H 457.934 0.174102 3.26136 0
M  V30 4924 H 456.593 2.27174 2.87728 0
M  V30 4925 H 456.241 0.91206 4.94662 0
M  V30 4926 H 455.941 2.64193 5.24858 0
M  V30 4927 H 457.465 1.89367 5.80493 0
M  V30 4928 H 458.879 3.67719 4.39836 0
M  V30 4929 H 457.276 4.40123 4.07936 0
M  V30 4930 H 458.346 4.01443 2.71977 0
M  V30 4931 N 459.689 -1.00246 1.21608 0
M  V30 4932 C 460.622 -2.08794 0.920892 0
M  V30 4933 C 461.6 -1.62059 -0.132552 0
M  V30 4934 O 462.784 -1.885 -0.0030366 0
M  V30 4935 C 459.911 -3.36525 0.383226 0
M  V30 4936 C 458.957 -4.02172 1.41987 0
M  V30 4937 S 459.79 -4.44256 2.98994 0
M  V30 4938 C 460.946 -5.7517 2.4684 0
M  V30 4939 H 461.179 -2.33511 1.8401 0
M  V30 4940 H 458.712 -1.13562 1.04609 0
M  V30 4941 H 460.67 -4.10423 0.0795871 0
M  V30 4942 H 459.331 -3.09854 -0.514711 0
M  V30 4943 H 458.524 -4.94114 0.993335 0
M  V30 4944 H 458.126 -3.34559 1.67171 0
M  V30 4945 H 460.418 -6.51042 1.87484 0
M  V30 4946 H 461.361 -6.22638 3.37235 0
M  V30 4947 H 461.769 -5.32112 1.88461 0
M  V30 4948 N 461.167 -1.02423 -1.1978 0
M  V30 4949 C 462.097 -0.62157 -2.25075 0
M  V30 4950 C 463.078 0.367148 -1.6609 0
M  V30 4951 O 464.263 0.250892 -1.92573 0
M  V30 4952 C 461.393 0.0331826 -3.47284 0
M  V30 4953 C 460.347 -0.877323 -4.18912 0
M  V30 4954 C 459.673 -0.0879296 -5.34628 0
M  V30 4955 C 460.973 -2.18892 -4.74219 0
M  V30 4956 H 462.667 -1.50179 -2.59011 0
M  V30 4957 H 460.213 -0.723547 -1.24502 0
M  V30 4958 H 462.166 0.326488 -4.20133 0
M  V30 4959 H 460.89 0.948164 -3.12534 0
M  V30 4960 H 459.549 -1.15475 -3.47938 0
M  V30 4961 H 459.197 0.828941 -4.96123 0
M  V30 4962 H 458.897 -0.694359 -5.83483 0
M  V30 4963 H 460.421 0.198743 -6.10276 0
M  V30 4964 H 461.835 -1.95746 -5.38847 0
M  V30 4965 H 460.232 -2.74686 -5.33542 0
M  V30 4966 H 461.302 -2.84674 -3.92541 0
M  V30 4967 N 462.645 1.35699 -0.801477 0
M  V30 4968 C 463.595 2.2728 -0.181073 0
M  V30 4969 C 464.579 1.47533 0.642098 0
M  V30 4970 O 465.771 1.69785 0.500193 0
M  V30 4971 C 462.9 3.36626 0.673612 0
M  V30 4972 C 461.986 4.23802 -0.159008 0
M  V30 4973 N 462.377 4.90879 -1.2195 0
M  V30 4974 C 460.675 4.45959 0.0602005 0
M  V30 4975 C 461.376 5.5546 -1.72738 0
M  V30 4976 N 460.352 5.33663 -1.03465 0
M  V30 4977 H 464.154 2.76632 -0.992582 0
M  V30 4978 H 461.668 1.49166 -0.642127 0
M  V30 4979 H 463.665 4.01179 1.13408 0
M  V30 4980 H 462.325 2.88828 1.48353 0
M  V30 4981 H 463.336 4.92497 -1.60209 0
M  V30 4982 H 460.013 4.08969 0.839664 0
M  V30 4983 H 461.403 6.18991 -2.61342 0
M  V30 4984 N 464.123 0.554532 1.47522 0
M  V30 4985 C 465.353 0.0342074 2.06572 0
M  V30 4986 C 465.761 -1.26375 1.40805 0
M  V30 4987 O 465.104 -1.7683 0.49769 0
M  V30 4988 C 465.166 -0.235096 3.5873 0
M  V30 4989 C 464.83 0.973024 4.46521 0
M  V30 4990 C 465.827 1.8779 4.848 0
M  V30 4991 C 463.512 1.18694 4.88075 0
M  V30 4992 C 465.506 2.98039 5.63428 0
M  V30 4993 C 463.193 2.29254 5.66468 0
M  V30 4994 C 464.191 3.18757 6.04055 0
M  V30 4995 O 463.879 4.27401 6.8087 0
M  V30 4996 H 463.611 0.041587 0.67472 0
M  V30 4997 H 466.165 0.766748 1.90552 0
M  V30 4998 H 464.395 -1.02191 3.72953 0
M  V30 4999 H 466.084 -0.700477 3.9981 0
M  V30 5000 H 466.85 1.72467 4.53299 0
M  V30 5001 H 462.729 0.49947 4.58286 0
M  V30 5002 H 466.273 3.67926 5.92685 0
M  V30 5003 H 462.17 2.4455 5.97382 0
M  V30 5004 H 462.938 4.25415 6.9926 0
M  V30 5005 N 465.601 -1.54893 0.290851 0
M  V30 5006 C 466.511 -2.26812 -0.59945 0
M  V30 5007 C 467.527 -1.29963 -1.15696 0
M  V30 5008 O 468.703 -1.62928 -1.18391 0
M  V30 5009 C 465.768 -2.98716 -1.75982 0
M  V30 5010 C 464.829 -4.1108 -1.2374 0
M  V30 5011 C 464.062 -4.79546 -2.34246 0
M  V30 5012 O 464.285 -4.47309 -3.53936 0
M  V30 5013 O 463.219 -5.67165 -2.01512 0
M  V30 5014 H 467.045 -3.03696 -0.0163561 0
M  V30 5015 H 464.63 -1.49289 0.0576755 0
M  V30 5016 H 466.512 -3.43851 -2.43607 0
M  V30 5017 H 465.187 -2.24737 -2.3297 0
M  V30 5018 H 464.094 -3.70367 -0.527163 0
M  V30 5019 H 465.427 -4.87007 -0.71307 0
M  V30 5020 N 467.08 -0.0183926 -1.57589 0
M  V30 5021 C 468.327 0.662562 -1.91354 0
M  V30 5022 C 468.655 1.72747 -0.893788 0
M  V30 5023 O 467.91 1.9545 0.0988509 0
M  V30 5024 C 468.209 1.32676 -3.31861 0
M  V30 5025 C 467.875 0.393267 -4.49182 0
M  V30 5026 C 466.537 0.136302 -4.81007 0
M  V30 5027 C 468.889 -0.248366 -5.20608 0
M  V30 5028 C 466.217 -0.770282 -5.81621 0
M  V30 5029 C 468.569 -1.14294 -6.22189 0
M  V30 5030 C 467.233 -1.4089 -6.52462 0
M  V30 5031 H 466.503 0.242448 -0.700214 0
M  V30 5032 H 469.15 -0.0778629 -1.91342 0
M  V30 5033 H 467.455 2.14168 -3.28084 0
M  V30 5034 H 469.152 1.86001 -3.55253 0
M  V30 5035 H 465.742 0.603723 -4.24327 0
M  V30 5036 H 469.926 -0.062883 -4.9626 0
M  V30 5037 H 465.182 -0.984154 -6.03427 0
M  V30 5038 H 469.356 -1.64637 -6.76659 0
M  V30 5039 H 466.983 -2.11306 -7.30242 0
M  V30 5040 N 468.558 1.5553 0.254621 0
M  V30 5041 C 469.488 1.9268 1.31897 0
M  V30 5042 C 470.469 0.790797 1.506 0
M  V30 5043 O 471.654 1.05045 1.63337 0
M  V30 5044 C 468.784 2.21477 2.67517 0
M  V30 5045 C 467.738 3.37256 2.63519 0
M  V30 5046 C 467.064 3.51576 4.02862 0
M  V30 5047 C 468.364 4.73157 2.21179 0
M  V30 5048 H 470.058 2.81832 1.01051 0
M  V30 5049 H 467.604 1.35599 0.484662 0
M  V30 5050 H 469.557 2.46055 3.42104 0
M  V30 5051 H 468.281 1.29144 2.99982 0
M  V30 5052 H 466.94 3.12675 1.9139 0
M  V30 5053 H 466.588 2.56676 4.32581 0
M  V30 5054 H 466.288 4.2943 4.01078 0
M  V30 5055 H 467.812 3.78467 4.79161 0
M  V30 5056 H 469.226 4.97158 2.85494 0
M  V30 5057 H 467.623 5.54058 2.30521 0
M  V30 5058 H 468.693 4.70739 1.16332 0
M  V30 5059 N 470.036 -0.519951 1.48776 0
M  V30 5060 C 470.968 -1.63973 1.60142 0
M  V30 5061 C 471.981 -1.55404 0.485117 0
M  V30 5062 O 473.17 -1.61682 0.756391 0
M  V30 5063 C 470.27 -3.02676 1.52449 0
M  V30 5064 C 469.443 -3.36624 2.79291 0
M  V30 5065 C 468.502 -4.54652 2.64912 0
M  V30 5066 O 467.528 -4.57374 3.38818 0
M  V30 5067 N 468.73 -5.53432 1.75195 0
M  V30 5068 H 471.495 -1.54656 2.56713 0
M  V30 5069 H 469.056 -0.707439 1.45626 0
M  V30 5070 H 471.048 -3.79525 1.4051 0
M  V30 5071 H 469.618 -3.06018 0.638125 0
M  V30 5072 H 468.838 -2.48855 3.0572 0
M  V30 5073 H 470.126 -3.56094 3.6342 0
M  V30 5074 H 469.524 -5.54018 1.14371 0
M  V30 5075 H 468.081 -6.29459 1.69189 0
M  V30 5076 N 471.514 -1.37532 -0.769588 0
M  V30 5077 C 472.93 -1.18379 -1.07045 0
M  V30 5078 C 473.13 -0.0214312 -2.01489 0
M  V30 5079 O 472.186 0.637809 -2.44312 0
M  V30 5080 C 473.499 -2.50338 -1.66588 0
M  V30 5081 C 475.047 -2.56879 -1.78835 0
M  V30 5082 C 475.522 -3.88974 -2.41792 0
M  V30 5083 N 477.013 -3.90428 -2.4924 0
M  V30 5084 C 477.748 -4.89388 -2.98809 0
M  V30 5085 N 477.244 -5.98745 -3.48535 0
M  V30 5086 N 479.037 -4.76791 -2.97703 0
M  V30 5087 H 471.188 -2.11921 -0.142541 0
M  V30 5088 H 473.451 -0.939608 -0.125863 0
M  V30 5089 H 473.157 -3.35767 -1.0466 0
M  V30 5090 H 473.031 -2.67583 -2.65856 0
M  V30 5091 H 475.418 -1.71856 -2.39895 0
M  V30 5092 H 475.499 -2.43516 -0.783166 0
M  V30 5093 H 475.143 -4.74412 -1.81371 0
M  V30 5094 H 475.073 -3.99641 -3.4292 0
M  V30 5095 H 477.564 -3.11433 -2.14052 0
M  V30 5096 H 477.877 -6.70205 -3.84767 0
M  V30 5097 H 476.222 -6.02387 -3.46634 0
M  V30 5098 H 479.413 -3.90478 -2.58157 0
M  V30 5099 H 479.586 -5.54069 -3.36024 0
M  V30 5100 N 472.992 0.995999 -1.22138 0
M  V30 5101 C 474.238 1.73767 -1.04561 0
M  V30 5102 C 474.571 1.89633 0.418698 0
M  V30 5103 O 473.846 1.43723 1.3105 0
M  V30 5104 C 474.129 3.14505 -1.75382 0
M  V30 5105 C 473.982 3.06306 -3.29388 0
M  V30 5106 C 475.301 4.13615 -1.50369 0
M  V30 5107 H 472.42 0.630728 -0.38125 0
M  V30 5108 H 475.062 1.16057 -1.50435 0
M  V30 5109 H 473.212 3.63775 -1.36383 0
M  V30 5110 H 474.884 2.64681 -3.77812 0
M  V30 5111 H 473.127 2.43186 -3.59226 0
M  V30 5112 H 473.798 4.05884 -3.74116 0
M  V30 5113 H 476.274 3.73089 -1.84239 0
M  V30 5114 H 475.15 5.10212 -2.02421 0
M  V30 5115 H 475.411 4.39949 -0.435611 0
M  V30 5116 N 474.47 1.03057 1.19235 0
M  V30 5117 C 475.417 0.612832 2.22515 0
M  V30 5118 C 476.387 -0.374224 1.61829 0
M  V30 5119 O 477.572 -0.270501 1.88873 0
M  V30 5120 C 474.712 -0.028475 3.45088 0
M  V30 5121 C 473.825 1.00483 4.20151 0
M  V30 5122 C 472.96 0.333102 5.30155 0
M  V30 5123 C 471.999 1.3522 5.96977 0
M  V30 5124 N 471.136 0.70616 6.9854 0
M  V30 5125 H 475.976 1.49812 2.57605 0
M  V30 5126 H 473.513 0.749658 1.26564 0
M  V30 5127 H 475.471 -0.417548 4.15105 0
M  V30 5128 H 474.101 -0.877334 3.10649 0
M  V30 5129 H 473.153 1.51194 3.49062 0
M  V30 5130 H 474.465 1.77929 4.65986 0
M  V30 5131 H 473.619 -0.110725 6.06599 0
M  V30 5132 H 472.358 -0.473547 4.85396 0
M  V30 5133 H 471.363 1.80627 5.19282 0
M  V30 5134 H 472.588 2.16037 6.4382 0
M  V30 5135 H 470.534 -0.0803667 6.55951 0
M  V30 5136 H 470.451 1.41848 7.42573 0
M  V30 5137 H 471.719 0.286391 7.78974 0
M  V30 5138 N 475.948 -1.35272 0.808662 0
M  V30 5139 C 477.364 -1.51806 0.492653 0
M  V30 5140 C 477.564 -1.7574 -0.985778 0
M  V30 5141 O 476.62 -1.80003 -1.77074 0
M  V30 5142 C 477.933 -2.69202 1.33981 0
M  V30 5143 C 479.481 -2.8308 1.33547 0
M  V30 5144 C 479.956 -4.03502 2.16679 0
M  V30 5145 N 481.447 -4.10684 2.14227 0
M  V30 5146 C 482.182 -5.02984 2.75308 0
M  V30 5147 N 481.678 -6.00603 3.45323 0
M  V30 5148 N 483.471 -4.95746 2.64938 0
M  V30 5149 H 475.622 -1.17993 1.76611 0
M  V30 5150 H 477.885 -0.577476 0.751814 0
M  V30 5151 H 477.591 -2.581 2.38909 0
M  V30 5152 H 477.465 -3.63854 0.994491 0
M  V30 5153 H 479.852 -2.93631 0.294036 0
M  V30 5154 H 479.933 -1.89278 1.72068 0
M  V30 5155 H 479.577 -3.93711 3.20864 0
M  V30 5156 H 479.507 -4.96489 1.75517 0
M  V30 5157 H 481.998 -3.40802 1.63285 0
M  V30 5158 H 482.311 -6.67633 3.89212 0
M  V30 5159 H 480.656 -6.0077 3.49428 0
M  V30 5160 H 483.847 -4.18439 2.09825 0
M  V30 5161 H 484.02 -5.67487 3.12829 0
M  V30 5162 N 477.426 -0.562348 -1.47226 0
M  V30 5163 C 478.356 0.170627 -2.32876 0
M  V30 5164 C 479.337 0.903748 -1.44106 0
M  V30 5165 O 480.522 0.883206 -1.72954 0
M  V30 5166 C 477.652 1.19786 -3.25989 0
M  V30 5167 C 476.606 0.580875 -4.2404 0
M  V30 5168 C 475.932 1.71311 -5.06514 0
M  V30 5169 C 477.232 -0.468714 -5.20193 0
M  V30 5170 H 478.926 -0.544441 -2.94408 0
M  V30 5171 H 476.472 -0.263271 -1.41573 0
M  V30 5172 H 478.425 1.71884 -3.84752 0
M  V30 5173 H 477.149 1.94294 -2.62521 0
M  V30 5174 H 475.808 0.0811538 -3.6651 0
M  V30 5175 H 475.456 2.44736 -4.39447 0
M  V30 5176 H 475.156 1.30604 -5.72902 0
M  V30 5177 H 476.68 2.23725 -5.68137 0
M  V30 5178 H 478.094 -0.0336028 -5.7329 0
M  V30 5179 H 476.491 -0.794957 -5.94811 0
M  V30 5180 H 477.561 -1.36269 -4.65359 0
M  V30 5181 N 478.904 1.54736 -0.299062 0
M  V30 5182 C 480.315 1.8569 0.193971 0
M  V30 5183 C 480.666 1.22101 1.53577 0
M  V30 5184 O 479.791 0.51799 2.10109 0
M  V30 5185 C 480.386 3.36895 0.358733 0
M  V30 5186 C 478.945 3.67887 0.795986 0
M  V30 5187 C 478.092 2.77131 -0.096807 0
M  V30 5188 H 481.043 1.49934 -0.520134 0
M  V30 5189 H 481.064 3.61294 1.19361 0
M  V30 5190 H 480.576 3.83148 -0.617998 0
M  V30 5191 H 478.677 3.27151 1.78334 0
M  V30 5192 H 478.79 4.75114 0.616718 0
M  V30 5193 H 477.154 2.51153 0.423581 0
M  V30 5194 H 477.937 3.26204 -1.06986 0
M  V30 5195 N 480.382 0.0267497 1.57577 0
M  V30 5196 C 481.312 -0.954308 2.13108 0
M  V30 5197 C 482.293 -1.34088 1.04663 0
M  V30 5198 O 483.478 -1.41992 1.32484 0
M  V30 5199 C 480.608 -2.23744 2.65624 0
M  V30 5200 C 479.562 -1.99168 3.78835 0
M  V30 5201 C 478.888 -3.33726 4.17769 0
M  V30 5202 C 480.188 -1.33277 5.0501 0
M  V30 5203 H 481.882 -0.491848 2.95332 0
M  V30 5204 H 479.428 -0.23514 1.42067 0
M  V30 5205 H 481.381 -2.92754 3.03106 0
M  V30 5206 H 480.105 -2.72151 1.80558 0
M  V30 5207 H 478.764 -1.32577 3.41788 0
M  V30 5208 H 478.412 -3.79888 3.29688 0
M  V30 5209 H 478.112 -3.18089 4.94058 0
M  V30 5210 H 479.636 -4.04008 4.57832 0
M  V30 5211 H 481.05 -1.92283 5.40093 0
M  V30 5212 H 479.447 -1.28045 5.8628 0
M  V30 5213 H 480.517 -0.305411 4.83937 0
M  V30 5214 N 481.861 -1.55662 -0.24637 0
M  V30 5215 C 482.771 -1.93495 -1.32653 0
M  V30 5216 C 483.787 -0.835462 -1.5263 0
M  V30 5217 O 484.963 -1.1369 -1.66242 0
M  V30 5218 C 482.028 -2.22242 -2.66101 0
M  V30 5219 C 481.089 -3.45625 -2.54641 0
M  V30 5220 C 480.322 -3.72991 -3.81724 0
M  V30 5221 O 480.545 -3.02421 -4.8363 0
M  V30 5222 O 479.479 -4.66515 -3.80325 0
M  V30 5223 H 483.305 -2.85498 -1.03559 0
M  V30 5224 H 480.89 -1.42551 -0.44717 0
M  V30 5225 H 482.772 -2.42037 -3.44958 0
M  V30 5226 H 481.447 -1.33417 -2.94926 0
M  V30 5227 H 480.354 -3.31136 -1.74067 0
M  V30 5228 H 481.687 -4.34754 -2.3076 0
M  V30 5229 N 483.339 0.512053 -1.4905 0
M  V30 5230 C 484.569 1.28928 -1.61434 0
M  V30 5231 C 484.977 1.87107 -0.280647 0
M  V30 5232 O 484.32 1.68024 0.742537 0
M  V30 5233 C 484.382 2.466 -2.61588 0
M  V30 5234 C 484.046 2.09375 -4.06216 0
M  V30 5235 C 485.043 1.63994 -4.93358 0
M  V30 5236 C 482.728 2.19348 -4.51876 0
M  V30 5237 C 484.722 1.29076 -6.24194 0
M  V30 5238 C 482.409 1.84041 -5.82728 0
M  V30 5239 C 483.407 1.38978 -6.68711 0
M  V30 5240 O 483.095 1.04144 -7.97126 0
M  V30 5241 H 482.827 0.397668 -0.546659 0
M  V30 5242 H 485.381 0.622507 -1.9574 0
M  V30 5243 H 483.611 3.16318 -2.22441 0
M  V30 5244 H 485.3 3.08642 -2.63619 0
M  V30 5245 H 486.066 1.55744 -4.59313 0
M  V30 5246 H 481.945 2.53376 -3.85125 0
M  V30 5247 H 485.489 0.938303 -6.91261 0
M  V30 5248 H 481.386 1.91938 -6.16304 0
M  V30 5249 H 482.154 1.17387 -8.10039 0
M  V30 5250 N 484.817 1.37938 0.762283 0
M  V30 5251 C 486.042 1.37059 1.55659 0
M  V30 5252 C 486.467 -0.0396123 1.88058 0
M  V30 5253 O 485.825 -1.01929 1.49934 0
M  V30 5254 C 485.873 2.22494 2.83776 0
M  V30 5255 O 484.977 1.63607 3.78559 0
M  V30 5256 H 484.318 0.467892 0.47114 0
M  V30 5257 H 486.848 1.81587 0.942725 0
M  V30 5258 H 486.858 2.36045 3.32786 0
M  V30 5259 H 485.533 3.24993 2.59524 0
M  V30 5260 H 484.11 1.5915 3.37233 0
M  V30 5261 N 486.295 -0.989507 1.22664 0
M  V30 5262 C 487.525 -1.7624 1.0781 0
M  V30 5263 C 487.933 -1.85466 -0.374036 0
M  V30 5264 O 487.276 -1.32645 -1.27087 0
M  V30 5265 C 487.338 -3.21007 1.61849 0
M  V30 5266 C 487.002 -3.35316 3.10503 0
M  V30 5267 C 487.999 -3.22362 4.07896 0
M  V30 5268 C 485.684 -3.60258 3.50028 0
M  V30 5269 C 487.678 -3.34139 5.42798 0
M  V30 5270 C 485.365 -3.71676 4.85078 0
M  V30 5271 C 486.363 -3.58625 5.81272 0
M  V30 5272 O 486.051 -3.69655 7.1387 0
M  V30 5273 H 485.783 -0.560209 0.378341 0
M  V30 5274 H 488.337 -1.25252 1.62792 0
M  V30 5275 H 486.567 -3.73202 1.01279 0
M  V30 5276 H 488.256 -3.80024 1.42606 0
M  V30 5277 H 489.022 -3.03 3.78703 0
M  V30 5278 H 484.901 -3.69492 2.75675 0
M  V30 5279 H 488.445 -3.23869 6.17863 0
M  V30 5280 H 484.342 -3.90545 5.1395 0
M  V30 5281 H 485.11 -3.86507 7.21495 0
M  V30 5282 N 487.773 -1.03688 -1.18687 0
M  V30 5283 C 489.021 -0.736572 -1.88199 0
M  V30 5284 C 489.342 0.737665 -1.80509 0
M  V30 5285 O 488.612 1.53204 -1.22088 0
M  V30 5286 H 487.192 -0.269466 -0.696704 0
M  V30 5287 H 489.854 -1.31282 -1.44052 0
M  V30 5288 H 488.95 -1.03802 -2.94332 0
M  V30 5289 N 489.251 1.34841 -0.815825 0
M  V30 5290 C 490.161 2.33425 -0.234462 0
M  V30 5291 C 491.177 1.62295 0.627413 0
M  V30 5292 O 492.353 1.94109 0.536987 0
M  V30 5293 C 489.418 3.41471 0.599849 0
M  V30 5294 C 488.479 4.28362 -0.283596 0
M  V30 5295 C 487.712 5.31248 0.51099 0
M  V30 5296 O 487.935 5.43056 1.7449 0
M  V30 5297 O 486.869 6.01812 -0.10297 0
M  V30 5298 H 490.695 2.84962 -1.05024 0
M  V30 5299 H 488.28 1.37774 -0.577809 0
M  V30 5300 H 490.162 4.07464 1.07475 0
M  V30 5301 H 488.837 2.9219 1.39308 0
M  V30 5302 H 487.744 3.65318 -0.805836 0
M  V30 5303 H 489.077 4.81066 -1.041 0
M  V30 5304 N 490.729 0.570148 1.46925 0
M  V30 5305 C 491.959 0.0561151 2.06524 0
M  V30 5306 C 492.367 -1.24874 1.42137 0
M  V30 5307 O 491.71 -1.76292 0.516417 0
M  V30 5308 C 491.772 -0.197035 3.5896 0
M  V30 5309 C 491.436 1.02033 4.45464 0
M  V30 5310 C 492.433 1.92921 4.82781 0
M  V30 5311 C 490.118 1.23864 4.86788 0
M  V30 5312 C 492.112 3.03999 5.60235 0
M  V30 5313 C 489.799 2.35249 5.64004 0
M  V30 5314 C 490.797 3.25146 6.0064 0
M  V30 5315 O 490.485 4.34598 6.76299 0
M  V30 5316 H 490.217 0.0487409 0.674241 0
M  V30 5317 H 492.771 0.786915 1.89728 0
M  V30 5318 H 491.001 -0.982299 3.74016 0
M  V30 5319 H 492.69 -0.658032 4.00531 0
M  V30 5320 H 493.456 1.77265 4.51444 0
M  V30 5321 H 489.335 0.54805 4.57731 0
M  V30 5322 H 492.879 3.74192 5.8875 0
M  V30 5323 H 488.776 2.50873 5.94755 0
M  V30 5324 H 489.544 4.32808 6.94708 0
M  V30 5325 N 492.207 -1.54576 0.307264 0
M  V30 5326 C 493.623 -1.59534 -0.0459251 0
M  V30 5327 C 493.823 -1.32414 -1.51884 0
M  V30 5328 O 492.879 -1.1006 -2.27251 0
M  V30 5329 C 494.192 -2.98566 0.357649 0
M  V30 5330 C 495.74 -3.11491 0.306937 0
M  V30 5331 C 496.215 -4.52842 0.685427 0
M  V30 5332 N 497.706 -4.58782 0.638203 0
M  V30 5333 C 498.441 -5.66238 0.903458 0
M  V30 5334 N 497.937 -6.81703 1.23501 0
M  V30 5335 N 499.73 -5.55937 0.830102 0
M  V30 5336 H 491.881 -1.70464 1.26712 0
M  V30 5337 H 494.144 -0.79647 0.514139 0
M  V30 5338 H 493.85 -3.23356 1.38325 0
M  V30 5339 H 493.724 -3.76117 -0.285565 0
M  V30 5340 H 496.111 -2.86446 -0.709424 0
M  V30 5341 H 496.192 -2.36081 0.984861 0
M  V30 5342 H 495.836 -4.78618 1.69963 0
M  V30 5343 H 495.766 -5.26598 -0.0146346 0
M  V30 5344 H 498.257 -3.75849 0.393138 0
M  V30 5345 H 498.57 -7.59582 1.42322 0
M  V30 5346 H 496.915 -6.8324 1.27311 0
M  V30 5347 H 500.106 -4.64608 0.570693 0
M  V30 5348 H 500.279 -6.39597 1.04019 0
M  V30 5349 N 493.685 -0.035106 -1.57561 0
M  V30 5350 C 494.962 0.681212 -1.83354 0
M  V30 5351 C 495.342 1.89986 -0.920252 0
M  V30 5352 O 494.69 2.28489 0.0226815 0
M  V30 5353 C 494.9 1.05376 -3.32712 0
M  V30 5354 C 496.248 1.44286 -3.99333 0
M  V30 5355 O 497.272 1.14656 -3.37242 0
M  V30 5356 O 496.131 1.99518 -5.08778 0
M  V30 5357 H 493.225 0.334741 -0.756226 0
M  V30 5358 H 495.771 -0.0632448 -1.69582 0
M  V30 5359 H 494.543 0.186668 -3.90854 0
M  V30 5360 H 494.166 1.85619 -3.51613 0
M  V30 5361 N 495.163 1.55791 0.238111 0
M  V30 5362 C 496.093 1.94068 1.29846 0
M  V30 5363 C 497.074 0.806726 1.49753 0
M  V30 5364 O 498.259 1.06772 1.62214 0
M  V30 5365 C 495.389 2.24302 2.65153 0
M  V30 5366 C 494.343 3.40032 2.59927 0
M  V30 5367 C 493.669 3.55829 3.99111 0
M  V30 5368 C 494.969 4.75476 2.16148 0
M  V30 5369 H 496.663 2.82887 0.980563 0
M  V30 5370 H 494.209 1.36105 0.470253 0
M  V30 5371 H 496.162 2.4967 3.39475 0
M  V30 5372 H 494.886 1.32318 2.98596 0
M  V30 5373 H 493.545 3.14687 1.88063 0
M  V30 5374 H 493.193 2.6125 4.29834 0
M  V30 5375 H 492.893 4.3366 3.96501 0
M  V30 5376 H 494.417 3.83528 4.7512 0
M  V30 5377 H 495.831 5.00158 2.80205 0
M  V30 5378 H 494.228 5.56472 2.24631 0
M  V30 5379 H 495.298 4.71946 1.11333 0
M  V30 5380 N 496.642 -0.504142 1.49319 0
M  V30 5381 C 497.889 -1.25846 1.58647 0
M  V30 5382 C 498.217 -1.92592 0.27177 0
M  V30 5383 O 497.472 -1.81167 -0.74007 0
M  V30 5384 C 497.771 -2.35021 2.69258 0
M  V30 5385 C 497.437 -1.85755 4.1086 0
M  V30 5386 C 496.099 -1.72038 4.49395 0
M  V30 5387 C 498.451 -1.48844 4.99495 0
M  V30 5388 C 495.779 -1.19783 5.74342 0
M  V30 5389 C 498.131 -0.980422 6.24956 0
M  V30 5390 C 496.795 -0.829622 6.62324 0
M  V30 5391 H 496.065 -0.460505 0.580531 0
M  V30 5392 H 498.712 -0.559716 1.83138 0
M  V30 5393 H 497.017 -3.10672 2.38726 0
M  V30 5394 H 498.714 -2.93083 2.73685 0
M  V30 5395 H 495.304 -1.9739 3.80441 0
M  V30 5396 H 499.488 -1.5829 4.70381 0
M  V30 5397 H 494.744 -1.06817 6.01997 0
M  V30 5398 H 498.918 -0.685608 6.93017 0
M  V30 5399 H 496.545 -0.42253 7.59025 0
M  V30 5400 N 498.12 -1.38341 -0.754957 0
M  V30 5401 C 499.536 -1.19508 -1.05783 0
M  V30 5402 C 499.736 -0.0428005 -2.01455 0
M  V30 5403 O 498.792 0.611861 -2.44975 0
M  V30 5404 C 500.105 -2.52091 -1.63923 0
M  V30 5405 C 501.653 -2.58762 -1.76101 0
M  V30 5406 C 502.128 -3.91517 -2.37652 0
M  V30 5407 N 503.619 -3.93049 -2.45085 0
M  V30 5408 C 504.354 -4.9253 -2.93602 0
M  V30 5409 N 503.85 -6.02408 -3.42165 0
M  V30 5410 N 505.643 -4.79921 -2.92629 0
M  V30 5411 H 497.794 -2.1206 -0.120056 0
M  V30 5412 H 500.057 -0.94089 -0.11589 0
M  V30 5413 H 499.763 -3.36858 -1.01093 0
M  V30 5414 H 499.637 -2.70388 -2.63003 0
M  V30 5415 H 502.024 -1.74391 -2.38058 0
M  V30 5416 H 502.105 -2.44333 -0.757294 0
M  V30 5417 H 501.749 -4.76309 -1.76329 0
M  V30 5418 H 501.679 -4.03256 -3.38662 0
M  V30 5419 H 504.17 -3.13685 -2.10736 0
M  V30 5420 H 504.483 -6.74248 -3.77637 0
M  V30 5421 H 502.828 -6.0603 -3.40225 0
M  V30 5422 H 506.019 -3.93194 -2.54001 0
M  V30 5423 H 506.192 -5.57601 -3.30128 0
M  V30 5424 N 499.598 0.982988 -1.23187 0
M  V30 5425 C 500.875 1.69814 -0.970707 0
M  V30 5426 C 501.255 2.04811 0.511424 0
M  V30 5427 O 500.603 1.73924 1.48198 0
M  V30 5428 C 500.813 2.94143 -1.87831 0
M  V30 5429 C 502.161 3.66712 -2.14026 0
M  V30 5430 O 503.185 3.04171 -1.8536 0
M  V30 5431 O 502.044 4.79258 -2.62629 0
M  V30 5432 H 499.138 0.741659 -0.365884 0
M  V30 5433 H 501.684 1.03844 -1.34218 0
M  V30 5434 H 500.456 2.64858 -2.88038 0
M  V30 5435 H 500.079 3.6785 -1.50905 0
M  V30 5436 N 501.076 1.04316 1.18135 0
M  V30 5437 C 502.323 0.74802 1.88178 0
M  V30 5438 C 502.651 -0.72441 1.80506 0
M  V30 5439 O 501.906 -1.54463 1.20165 0
M  V30 5440 C 502.205 1.16271 3.37958 0
M  V30 5441 C 501.871 2.63585 3.65833 0
M  V30 5442 C 500.533 3.03829 3.73151 0
M  V30 5443 C 502.885 3.58822 3.78016 0
M  V30 5444 C 500.213 4.38194 3.90132 0
M  V30 5445 C 502.565 4.92909 3.96514 0
M  V30 5446 C 501.229 5.3282 4.02068 0
M  V30 5447 H 500.499 0.27372 0.688592 0
M  V30 5448 H 503.146 1.30863 1.39811 0
M  V30 5449 H 501.451 0.520938 3.88321 0
M  V30 5450 H 503.148 0.911672 3.90499 0
M  V30 5451 H 499.738 2.31414 3.60757 0
M  V30 5452 H 503.922 3.28875 3.71692 0
M  V30 5453 H 499.178 4.68631 3.92677 0
M  V30 5454 H 503.352 5.66606 4.04883 0
M  V30 5455 H 500.979 6.36943 4.14979 0
M  V30 5456 N 502.554 -1.34406 0.822964 0
M  V30 5457 C 503.802 -1.97892 0.410245 0
M  V30 5458 C 504.123 -1.65567 -1.03017 0
M  V30 5459 O 503.393 -0.94642 -1.71522 0
M  V30 5460 H 501.973 -0.732049 0.148707 0
M  V30 5461 H 504.635 -1.64043 1.05242 0
M  V30 5462 H 503.731 -3.07579 0.529284 0
M  V30 5463 N 504.032 -0.577932 -1.46621 0
M  V30 5464 C 505.26 -0.0671642 -2.06791 0
M  V30 5465 C 505.675 1.23571 -1.42743 0
M  V30 5466 O 505.032 1.74602 -0.531062 0
M  V30 5467 C 505.083 0.110357 -3.61332 0
M  V30 5468 O 504.804 -1.14095 -4.22982 0
M  V30 5469 C 506.305 0.656025 -4.38419 0
M  V30 5470 H 503.525 -0.0552732 -0.66872 0
M  V30 5471 H 506.069 -0.797242 -1.8832 0
M  V30 5472 H 504.224 0.790637 -3.79246 0
M  V30 5473 H 504.638 -0.951742 -5.15793 0
M  V30 5474 H 506.112 0.729438 -5.47159 0
M  V30 5475 H 506.589 1.67195 -4.06131 0
M  V30 5476 H 507.195 0.0107692 -4.25299 0
M  V30 5477 N 505.51 1.54411 -0.315457 0
M  V30 5478 C 506.46 2.20772 0.569549 0
M  V30 5479 C 507.444 1.18551 1.08787 0
M  V30 5480 O 508.636 1.44213 1.02624 0
M  V30 5481 C 505.765 2.96293 1.73394 0
M  V30 5482 C 504.851 4.05844 1.2309 0
M  V30 5483 N 505.242 5.03822 0.446927 0
M  V30 5484 C 503.54 4.19648 1.51035 0
M  V30 5485 C 504.241 5.8143 0.17725 0
M  V30 5486 N 503.217 5.38245 0.761118 0
M  V30 5487 H 507.019 2.93877 -0.0368076 0
M  V30 5488 H 504.533 1.61949 -0.120915 0
M  V30 5489 H 506.53 3.42313 2.37965 0
M  V30 5490 H 505.19 2.24708 2.34386 0
M  V30 5491 H 506.201 5.17821 0.0905027 0
M  V30 5492 H 502.878 3.59274 2.1267 0
M  V30 5493 H 504.268 6.70369 -0.45335 0
M  V30 5494 N 506.988 0.0434614 1.5754 0
M  V30 5495 C 508.218 -0.640905 1.96408 0
M  V30 5496 C 508.626 -1.65365 0.919297 0
M  V30 5497 O 507.969 -1.83395 -0.105795 0
M  V30 5498 C 508.031 -1.39141 3.31482 0
M  V30 5499 C 507.695 -0.535375 4.53853 0
M  V30 5500 C 508.692 0.195335 5.19533 0
M  V30 5501 C 506.377 -0.468564 5.0011 0
M  V30 5502 C 508.371 0.981377 6.298 0
M  V30 5503 C 506.058 0.321171 6.10255 0
M  V30 5504 C 507.056 1.04484 6.74961 0
M  V30 5505 O 506.744 1.8216 7.8299 0
M  V30 5506 H 506.476 -0.180584 0.651433 0
M  V30 5507 H 509.03 0.103848 2.05137 0
M  V30 5508 H 507.26 -2.18162 3.19284 0
M  V30 5509 H 508.949 -1.96526 3.55151 0
M  V30 5510 H 509.715 0.15314 4.84758 0
M  V30 5511 H 505.594 -1.02142 4.49542 0
M  V30 5512 H 509.138 1.54674 6.80237 0
M  V30 5513 H 505.035 0.365032 6.44467 0
M  V30 5514 H 505.803 1.74289 7.99728 0
M  V30 5515 N 508.466 -1.55915 -0.229846 0
M  V30 5516 C 509.715 -1.77742 -0.953455 0
M  V30 5517 C 510.028 -0.610524 -1.85828 0
M  V30 5518 O 511.234 -0.712219 -2.61992 0
M  V30 5519 C 509.69 -3.14738 -1.74551 0
M  V30 5520 C 509.298 -4.39126 -0.887242 0
M  V30 5521 C 511.042 -3.45895 -2.46084 0
M  V30 5522 C 508.949 -5.67149 -1.67617 0
M  V30 5523 H 507.879 -0.662648 -0.359741 0
M  V30 5524 H 510.53 -1.82322 -0.207576 0
M  V30 5525 H 508.912 -3.04311 -2.53399 0
M  V30 5526 H 510.086 -4.60588 -0.139892 0
M  V30 5527 H 508.401 -4.15427 -0.284443 0
M  V30 5528 H 510.998 -4.38767 -3.05594 0
M  V30 5529 H 511.341 -2.68007 -3.18556 0
M  V30 5530 H 511.874 -3.57614 -1.74233 0
M  V30 5531 H 508.613 -6.47906 -0.994881 0
M  V30 5532 H 508.133 -5.49763 -2.39836 0
M  V30 5533 H 509.812 -6.07025 -2.23898 0
M  V30 5534 N 509.944 0.496216 -1.49584 0
M  V30 5535 C 511.172 1.27394 -1.63029 0
M  V30 5536 C 511.587 1.86344 -0.303569 0
M  V30 5537 O 510.944 1.68057 0.711547 0
M  V30 5538 C 510.995 2.40077 -2.70269 0
M  V30 5539 O 510.716 1.83549 -3.97796 0
M  V30 5540 C 512.217 3.31372 -2.94462 0
M  V30 5541 H 509.437 0.386211 -0.54871 0
M  V30 5542 H 511.981 0.595163 -1.95648 0
M  V30 5543 H 510.136 3.03775 -2.40415 0
M  V30 5544 H 510.55 2.57561 -4.56905 0
M  V30 5545 H 512.024 4.06707 -3.73221 0
M  V30 5546 H 512.501 3.88654 -2.0456 0
M  V30 5547 H 513.107 2.73435 -3.25751 0
M  V30 5548 N 511.423 1.38739 0.74761 0
M  V30 5549 C 512.333 1.38696 1.89211 0
M  V30 5550 C 513.349 0.283303 1.71678 0
M  V30 5551 O 514.525 0.522713 1.94498 0
M  V30 5552 C 511.59 1.21662 3.24653 0
M  V30 5553 C 510.651 2.41886 3.54669 0
M  V30 5554 C 509.884 2.25655 4.83648 0
M  V30 5555 O 510.107 1.25339 5.56459 0
M  V30 5556 O 509.041 3.14372 5.13277 0
M  V30 5557 H 512.867 2.35143 1.92202 0
M  V30 5558 H 510.452 1.19721 0.893708 0
M  V30 5559 H 512.334 1.14246 4.05618 0
M  V30 5560 H 511.009 0.283024 3.2246 0
M  V30 5561 H 509.916 2.54877 2.73841 0
M  V30 5562 H 511.249 3.33895 3.61628 0
M  V30 5563 N 512.901 -0.976442 1.23707 0
M  V30 5564 C 513.864 -2.0511 1.02287 0
M  V30 5565 C 514.864 -1.60791 -0.0167195 0
M  V30 5566 O 516.054 -1.72761 0.223408 0
M  V30 5567 C 513.186 -3.36458 0.548507 0
M  V30 5568 H 514.379 -2.25545 1.9766 0
M  V30 5569 H 511.932 -1.15042 1.05806 0
M  V30 5570 H 512.667 -3.21713 -0.408818 0
M  V30 5571 H 512.452 -3.69967 1.29874 0
M  V30 5572 H 513.942 -4.15489 0.419406 0
M  V30 5573 N 514.379 -1.04941 -1.1758 0
M  V30 5574 C 515.625 -0.759112 -1.88057 0
M  V30 5575 C 515.958 0.711918 -1.8068 0
M  V30 5576 O 515.233 1.52035 -1.21308 0
M  V30 5577 C 515.516 -1.237 -3.38187 0
M  V30 5578 C 515.369 -2.77078 -3.54327 0
M  V30 5579 C 516.688 -0.834014 -4.32125 0
M  V30 5580 H 513.807 -0.277237 -0.682868 0
M  V30 5581 H 516.449 -1.30296 -1.38286 0
M  V30 5582 H 514.599 -0.774337 -3.80705 0
M  V30 5583 H 516.271 -3.31449 -3.20842 0
M  V30 5584 H 514.514 -3.16477 -2.96689 0
M  V30 5585 H 515.185 -3.05577 -4.59703 0
M  V30 5586 H 517.661 -1.23228 -3.97434 0
M  V30 5587 H 516.537 -1.19603 -5.35711 0
M  V30 5588 H 516.798 0.262195 -4.41322 0
M  V30 5589 N 515.857 1.33968 -0.830081 0
M  V30 5590 C 516.787 2.31911 -0.271911 0
M  V30 5591 C 517.768 1.58571 0.61556 0
M  V30 5592 O 518.953 1.86514 0.540946 0
M  V30 5593 C 516.083 3.42737 0.561146 0
M  V30 5594 C 515.037 4.27383 -0.229789 0
M  V30 5595 C 514.363 5.29742 0.726463 0
M  V30 5596 C 515.663 5.02 -1.44197 0
M  V30 5597 H 517.357 2.78844 -1.09025 0
M  V30 5598 H 514.903 1.34061 -0.52571 0
M  V30 5599 H 516.856 4.10276 0.961867 0
M  V30 5600 H 515.58 2.94471 1.41261 0
M  V30 5601 H 514.239 3.61456 -0.611964 0
M  V30 5602 H 513.887 4.77736 1.57408 0
M  V30 5603 H 513.587 5.87255 0.20142 0
M  V30 5604 H 515.111 6.00149 1.12489 0
M  V30 5605 H 516.525 5.62355 -1.11488 0
M  V30 5606 H 514.922 5.69122 -1.90317 0
M  V30 5607 H 515.992 4.31281 -2.2164 0
M  V30 5608 N 517.335 0.585699 1.46312 0
M  V30 5609 C 518.583 0.072278 2.01971 0
M  V30 5610 C 518.904 -1.29345 1.45928 0
M  V30 5611 O 518.174 -1.84973 0.645109 0
M  V30 5612 H 516.754 0.023729 0.746623 0
M  V30 5613 H 519.416 0.762155 1.7938 0
M  V30 5614 H 518.512 0.00552767 3.121 0
M  V30 5615 N 518.813 -1.54241 0.323641 0
M  V30 5616 C 520.061 -2.00174 -0.278359 0
M  V30 5617 C 520.382 -1.2134 -1.52648 0
M  V30 5618 O 519.652 -0.315244 -1.93347 0
M  V30 5619 H 518.232 -0.739463 -0.105845 0
M  V30 5620 H 520.894 -1.89864 0.440204 0
M  V30 5621 H 519.99 -3.07486 -0.5347 0
M  V30 5622 N 520.291 -0.0518155 -1.57515 0
M  V30 5623 C 521.54 0.621286 -1.91893 0
M  V30 5624 C 521.853 1.71966 -0.932052 0
M  V30 5625 O 523.059 2.45096 -1.16791 0
M  V30 5626 C 521.515 1.15641 -3.40816 0
M  V30 5627 C 521.123 0.0901146 -4.47909 0
M  V30 5628 C 522.867 1.80472 -3.84227 0
M  V30 5629 C 520.774 0.638154 -5.87947 0
M  V30 5630 H 519.704 0.235835 -0.716169 0
M  V30 5631 H 522.355 -0.120809 -1.83102 0
M  V30 5632 H 520.737 1.95084 -3.44613 0
M  V30 5633 H 521.911 -0.683525 -4.55702 0
M  V30 5634 H 520.226 -0.460774 -4.13843 0
M  V30 5635 H 522.823 2.22471 -4.86221 0
M  V30 5636 H 523.166 2.65669 -3.20508 0
M  V30 5637 H 523.699 1.07683 -3.82948 0
M  V30 5638 H 520.438 -0.176202 -6.55263 0
M  V30 5639 H 519.958 1.37976 -5.83714 0
M  V30 5640 H 521.637 1.12085 -6.37217 0
M  V30 5641 N 521.769 1.56035 0.221574 0
M  V30 5642 C 522.999 1.82864 0.961468 0
M  V30 5643 C 523.407 0.628703 1.78449 0
M  V30 5644 O 522.75 -0.412109 1.79018 0
M  V30 5645 C 522.812 3.03425 1.92804 0
M  V30 5646 C 522.476 4.38429 1.28954 0
M  V30 5647 C 523.473 5.15441 0.679431 0
M  V30 5648 C 521.158 4.85151 1.30131 0
M  V30 5649 C 523.152 6.37337 0.0896148 0
M  V30 5650 C 520.839 6.06989 0.707651 0
M  V30 5651 C 521.837 6.82923 0.102855 0
M  V30 5652 O 521.525 8.02456 -0.48157 0
M  V30 5653 H 521.257 0.611883 0.28736 0
M  V30 5654 H 523.811 2.0397 0.241932 0
M  V30 5655 H 522.041 2.78138 2.68656 0
M  V30 5656 H 523.73 3.17127 2.53348 0
M  V30 5657 H 524.496 4.80452 0.662661 0
M  V30 5658 H 520.375 4.26021 1.76145 0
M  V30 5659 H 523.919 6.96547 -0.383069 0
M  V30 5660 H 519.816 6.41451 0.721834 0
M  V30 5661 H 520.584 8.17636 -0.375887 0
M  V30 5662 N 523.247 -0.488276 1.49845 0
M  V30 5663 C 524.157 -1.61451 1.70207 0
M  V30 5664 C 525.173 -1.63877 0.584846 0
M  V30 5665 O 526.349 -1.82063 0.861107 0
M  V30 5666 C 523.414 -2.9776 1.77594 0
M  V30 5667 C 522.475 -3.05861 3.01243 0
M  V30 5668 C 521.708 -4.35668 3.08268 0
M  V30 5669 O 521.931 -5.25197 2.22541 0
M  V30 5670 O 520.865 -4.49005 4.00847 0
M  V30 5671 H 524.691 -1.47199 2.65643 0
M  V30 5672 H 522.276 -0.665939 1.33737 0
M  V30 5673 H 524.158 -3.7875 1.84732 0
M  V30 5674 H 522.833 -3.12248 0.8534 0
M  V30 5675 H 521.74 -2.24012 2.99616 0
M  V30 5676 H 523.073 -2.96304 3.9302 0
M  V30 5677 N 524.725 -1.39134 -0.740242 0
M  V30 5678 C 525.955 -1.39132 -1.52728 0
M  V30 5679 C 526.363 0.0173133 -1.89192 0
M  V30 5680 O 525.706 0.997715 -1.54244 0
M  V30 5681 C 525.768 -2.1952 -2.84695 0
M  V30 5682 C 525.432 -3.68203 -2.70695 0
M  V30 5683 C 526.429 -4.61401 -2.39593 0
M  V30 5684 C 524.114 -4.11724 -2.8773 0
M  V30 5685 C 526.108 -5.96102 -2.25701 0
M  V30 5686 C 523.795 -5.46503 -2.73456 0
M  V30 5687 C 524.793 -6.38506 -2.42486 0
M  V30 5688 O 524.481 -7.70803 -2.28295 0
M  V30 5689 H 524.213 -0.477263 -0.478744 0
M  V30 5690 H 526.767 -1.83504 -0.922799 0
M  V30 5691 H 524.997 -1.69888 -3.47383 0
M  V30 5692 H 526.686 -2.1176 -3.46284 0
M  V30 5693 H 527.452 -4.29079 -2.26088 0
M  V30 5694 H 523.331 -3.4045 -3.10829 0
M  V30 5695 H 526.875 -6.6788 -2.0145 0
M  V30 5696 H 522.772 -5.78417 -2.86538 0
M  V30 5697 H 523.54 -7.8147 -2.43405 0
M  V30 5698 N 526.204 0.969867 -1.24223 0
M  V30 5699 C 527.432 1.74756 -1.10761 0
M  V30 5700 C 527.847 1.85713 0.340041 0
M  V30 5701 O 527.204 1.34389 1.23474 0
M  V30 5702 C 527.255 3.16915 -1.73917 0
M  V30 5703 O 526.976 3.06511 -3.13021 0
M  V30 5704 C 528.477 4.11032 -1.66036 0
M  V30 5705 H 525.697 0.548092 -0.387087 0
M  V30 5706 H 528.241 1.2178 -1.64286 0
M  V30 5707 H 526.396 3.66884 -1.244 0
M  V30 5708 H 526.81 3.96079 -3.43834 0
M  V30 5709 H 528.284 5.08446 -2.14911 0
M  V30 5710 H 528.761 4.34785 -0.621159 0
M  V30 5711 H 529.367 3.66972 -2.14969 0
M  V30 5712 N 527.682 1.05563 1.17022 0
M  V30 5713 C 528.612 0.681026 2.23348 0
M  V30 5714 C 529.593 -0.322983 1.67005 0
M  V30 5715 O 530.778 -0.199746 1.9317 0
M  V30 5716 C 527.908 0.0589053 3.4725 0
M  V30 5717 C 526.862 0.988082 4.16438 0
M  V30 5718 C 526.188 0.229646 5.34207 0
M  V30 5719 C 527.488 2.31388 4.68249 0
M  V30 5720 H 529.182 1.56993 2.54938 0
M  V30 5721 H 526.728 0.756302 1.2254 0
M  V30 5722 H 528.681 -0.214982 4.20851 0
M  V30 5723 H 527.405 -0.864968 3.14938 0
M  V30 5724 H 526.064 1.24659 3.44754 0
M  V30 5725 H 525.712 -0.697111 4.98146 0
M  V30 5726 H 525.412 0.848815 5.81437 0
M  V30 5727 H 526.936 -0.0368694 6.10589 0
M  V30 5728 H 528.35 2.09964 5.33468 0
M  V30 5729 H 526.747 2.88736 5.26072 0
M  V30 5730 H 527.817 2.94982 3.84855 0
M  V30 5731 N 529.16 -1.33526 0.837174 0
M  V30 5732 C 530.406 -1.9813 0.432704 0
M  V30 5733 C 530.739 -1.66168 -1.00508 0
M  V30 5734 O 530.014 -0.94069 -1.70239 0
M  V30 5735 C 530.297 -3.54151 0.651834 0
M  V30 5736 C 530.15 -3.95806 2.13676 0
M  V30 5737 C 531.469 -4.39993 0.0968937 0
M  V30 5738 H 528.588 -0.719713 0.15869 0
M  V30 5739 H 531.23 -1.58193 1.05237 0
M  V30 5740 H 529.38 -3.88301 0.124369 0
M  V30 5741 H 531.052 -3.71921 2.72896 0
M  V30 5742 H 529.295 -3.45599 2.62191 0
M  V30 5743 H 529.966 -5.0447 2.24084 0
M  V30 5744 H 532.442 -4.12479 0.547733 0
M  V30 5745 H 531.318 -5.48186 0.279917 0
M  V30 5746 H 531.579 -4.3066 -0.9992 0
M  V30 5747 N 530.638 -0.59345 -1.46 0
M  V30 5748 C 531.571 0.182196 -2.27472 0
M  V30 5749 C 532.549 0.886901 -1.36282 0
M  V30 5750 O 533.733 0.898627 -1.65701 0
M  V30 5751 C 530.86 1.26236 -3.14296 0
M  V30 5752 C 529.906 0.662331 -4.21326 0
M  V30 5753 S 530.739 -0.519017 -5.32979 0
M  V30 5754 C 531.895 0.562086 -6.23371 0
M  V30 5755 H 532.128 -0.509056 -2.92909 0
M  V30 5756 H 529.661 -0.380607 -1.49635 0
M  V30 5757 H 531.619 1.88075 -3.64881 0
M  V30 5758 H 530.28 1.92562 -2.48151 0
M  V30 5759 H 529.473 1.47461 -4.81945 0
M  V30 5760 H 529.075 0.119381 -3.73809 0
M  V30 5761 H 531.367 1.44494 -6.61912 0
M  V30 5762 H 532.31 -0.00760776 -7.081 0
M  V30 5763 H 532.718 0.871061 -5.57739 0
M  V30 5764 N 532.116 1.54067 -0.331816 0
M  V30 5765 C 533.064 2.26105 0.54582 0
M  V30 5766 C 534.058 1.27816 1.11173 0
M  V30 5767 O 535.264 1.45565 1.05882 0
M  V30 5768 H 531.639 0.726363 0.194683 0
M  V30 5769 H 533.61 2.98282 -0.083931 0
M  V30 5770 C 532.359 3.03814 1.69092 0
M  V30 5771 H 531.682 3.79269 1.26473 0
M  V30 5772 H 533.122 3.57453 2.28043 0
M  V30 5773 C 531.581 2.12606 2.61343 0
M  V30 5774 O 532.111 1.71437 3.6328 0
M  V30 5775 N 530.317 1.77925 2.29763 0
M  V30 5776 H 529.864 2.11602 1.46909 0
M  V30 5777 H 529.822 1.1718 2.91747 0
M  V30 5778 N 533.594 0.0601682 1.57485 0
M  V30 5779 C 534.541 -0.91112 2.12055 0
M  V30 5780 C 535.511 -1.30298 1.03013 0
M  V30 5781 O 536.696 -1.39087 1.30612 0
M  V30 5782 C 533.836 -2.1775 2.67729 0
M  V30 5783 C 532.949 -1.83933 3.90887 0
M  V30 5784 C 532.084 -3.05096 4.34845 0
M  V30 5785 C 531.123 -2.67241 5.5068 0
M  V30 5786 N 530.26 -3.81127 5.8965 0
M  V30 5787 H 535.1 -0.43888 2.9475 0
M  V30 5788 H 532.637 -0.204995 1.45665 0
M  V30 5789 H 534.595 -2.91866 2.98111 0
M  V30 5790 H 533.225 -2.62535 1.87816 0
M  V30 5791 H 532.277 -0.999287 3.6704 0
M  V30 5792 H 533.589 -1.52074 4.75052 0
M  V30 5793 H 532.743 -3.87502 4.66827 0
M  V30 5794 H 531.482 -3.40139 3.49509 0
M  V30 5795 H 530.487 -1.83254 5.18361 0
M  V30 5796 H 531.712 -2.3338 6.37738 0
M  V30 5797 H 529.658 -4.15954 5.07266 0
M  V30 5798 H 529.575 -3.52997 6.68528 0
M  V30 5799 H 530.843 -4.64145 6.2625 0
M  V30 5800 N 535.072 -1.5615 -0.213296 0
M  V30 5801 C 535.982 -1.96265 -1.28519 0
M  V30 5802 C 536.998 -0.86765 -1.50824 0
M  V30 5803 O 538.174 -1.17191 -1.63793 0
M  V30 5804 C 535.239 -2.27836 -2.61327 0
M  V30 5805 C 534.3 -3.50949 -2.47252 0
M  V30 5806 C 533.533 -3.81004 -3.73727 0
M  V30 5807 O 533.756 -3.12612 -4.77106 0
M  V30 5808 O 532.69 -4.74477 -3.70344 0
M  V30 5809 H 536.516 -2.87631 -0.974795 0
M  V30 5810 H 534.101 -1.43467 -0.416832 0
M  V30 5811 H 535.983 -2.49299 -3.39747 0
M  V30 5812 H 534.658 -1.39643 -2.9203 0
M  V30 5813 H 533.565 -3.34754 -1.67004 0
M  V30 5814 H 534.898 -4.39551 -2.21486 0
M  V30 5815 N 536.55 0.480323 -1.50102 0
M  V30 5816 C 537.513 1.56181 -1.6775 0
M  V30 5817 C 538.513 1.51156 -0.548503 0
M  V30 5818 O 539.703 1.5394 -0.815363 0
M  V30 5819 C 536.835 2.95823 -1.69415 0
M  V30 5820 H 538.028 1.41855 -2.6423 0
M  V30 5821 H 535.581 0.70605 -1.39444 0
M  V30 5822 H 536.316 3.15604 -0.745948 0
M  V30 5823 H 536.101 3.00878 -2.51425 0
M  V30 5824 H 537.591 3.74359 -1.85054 0
M  V30 5825 N 538.028 1.39524 0.732853 0
M  V30 5826 C 538.961 1.32806 1.85574 0
M  V30 5827 C 539.939 0.201354 1.61348 0
M  V30 5828 O 541.123 0.38216 1.84585 0
M  V30 5829 C 538.25 1.06271 3.21596 0
M  V30 5830 C 537.296 2.21161 3.64678 0
M  V30 5831 S 538.129 3.83454 3.73796 0
M  V30 5832 C 539.285 3.59149 5.12604 0
M  V30 5833 H 539.518 2.27838 1.9099 0
M  V30 5834 H 537.051 1.25605 0.897927 0
M  V30 5835 H 539.009 0.916461 4.00139 0
M  V30 5836 H 537.67 0.129223 3.13834 0
M  V30 5837 H 536.863 1.98193 4.63396 0
M  V30 5838 H 536.465 2.32 2.93346 0
M  V30 5839 H 538.757 3.16547 5.99003 0
M  V30 5840 H 539.7 4.57335 5.40602 0
M  V30 5841 H 540.108 2.93203 4.82382 0
M  V30 5842 N 539.506 -0.963266 1.24736 0
M  V30 5843 C 540.416 -2.09246 1.06082 0
M  V30 5844 C 541.432 -1.74 0.000363101 0
M  V30 5845 O 542.608 -2.0041 0.199479 0
M  V30 5846 C 539.673 -3.40115 0.672498 0
M  V30 5847 C 538.734 -3.89282 1.80993 0
M  V30 5848 C 537.967 -5.13905 1.44004 0
M  V30 5849 O 538.19 -5.69434 0.331835 0
M  V30 5850 O 537.124 -5.57566 2.26723 0
M  V30 5851 H 540.95 -2.27881 2.00759 0
M  V30 5852 H 538.535 -1.07649 1.03595 0
M  V30 5853 H 540.417 -4.18797 0.467668 0
M  V30 5854 H 539.092 -3.22771 -0.245102 0
M  V30 5855 H 537.999 -3.11642 2.06955 0
M  V30 5856 H 539.332 -4.1111 2.70646 0
M  V30 5857 N 540.985 -1.06182 -1.16461 0
M  V30 5858 C 542.401 -0.785065 -1.38956 0
M  V30 5859 C 542.601 0.616103 -1.9185 0
M  V30 5860 O 541.657 1.37686 -2.11657 0
M  V30 5861 C 542.97 -1.84902 -2.37132 0
M  V30 5862 C 544.518 -1.8724 -2.50819 0
M  V30 5863 C 544.993 -2.92686 -3.52277 0
M  V30 5864 N 546.484 -2.91712 -3.59803 0
M  V30 5865 C 547.219 -3.69949 -4.38093 0
M  V30 5866 N 546.715 -4.58 -5.19815 0
M  V30 5867 N 548.508 -3.58346 -4.33064 0
M  V30 5868 H 540.659 -1.96569 -0.804634 0
M  V30 5869 H 542.922 -0.851747 -0.416211 0
M  V30 5870 H 542.628 -2.85518 -2.0536 0
M  V30 5871 H 542.502 -1.69908 -3.36766 0
M  V30 5872 H 544.889 -0.872827 -2.81897 0
M  V30 5873 H 544.97 -2.06311 -1.51226 0
M  V30 5874 H 544.614 -3.92835 -3.21937 0
M  V30 5875 H 544.544 -2.70864 -4.51598 0
M  V30 5876 H 547.035 -2.27876 -3.01464 0
M  V30 5877 H 547.348 -5.14357 -5.76764 0
M  V30 5878 H 545.693 -4.62056 -5.19162 0
M  V30 5879 H 548.884 -2.88943 -3.68279 0
M  V30 5880 H 549.057 -4.19563 -4.93833 0
M  V30 5881 N 542.463 1.3308 -0.844243 0
M  V30 5882 C 543.711 1.97215 -0.441676 0
M  V30 5883 C 544.032 1.67185 1.0037 0
M  V30 5884 O 543.302 0.973588 1.69994 0
M  V30 5885 H 541.882 0.72959 -0.160335 0
M  V30 5886 H 544.544 1.62348 -1.07838 0
M  V30 5887 H 543.64 3.06698 -0.57815 0
M  V30 5888 N 543.941 0.601185 1.45683 0
M  V30 5889 C 545.218 0.0261659 1.95582 0
M  V30 5890 C 545.598 -1.4399 1.5437 0
M  V30 5891 O 544.946 -2.13919 0.80318 0
M  V30 5892 C 545.156 0.217557 3.48321 0
M  V30 5893 C 546.504 0.0950076 4.24494 0
M  V30 5894 O 547.528 0.147345 3.55895 0
M  V30 5895 O 546.387 -0.025261 5.46494 0
M  V30 5896 H 543.481 -0.0393688 0.826062 0
M  V30 5897 H 546.027 0.670798 1.55879 0
M  V30 5898 H 544.799 1.23601 3.71266 0
M  V30 5899 H 544.422 -0.46264 3.94899 0
M  V30 5900 N 545.419 -1.53889 0.339982 0
M  V30 5901 C 546.649 -2.04973 -0.258738 0
M  V30 5902 C 547.057 -1.21485 -1.45045 0
M  V30 5903 O 546.4 -0.2422 -1.82096 0
M  V30 5904 C 546.462 -3.51783 -0.740853 0
M  V30 5905 C 546.126 -4.55802 0.330734 0
M  V30 5906 C 547.123 -5.06512 1.17226 0
M  V30 5907 C 544.808 -4.99966 0.483637 0
M  V30 5908 C 546.802 -5.99963 2.15227 0
M  V30 5909 C 544.489 -5.93229 1.46704 0
M  V30 5910 C 545.487 -6.43115 2.29981 0
M  V30 5911 O 545.175 -7.34545 3.26649 0
M  V30 5912 H 544.907 -0.673807 -0.0544037 0
M  V30 5913 H 547.461 -1.99492 0.489107 0
M  V30 5914 H 545.691 -3.54717 -1.53988 0
M  V30 5915 H 547.38 -3.85857 -1.25973 0
M  V30 5916 H 548.146 -4.73158 1.0652 0
M  V30 5917 H 544.025 -4.6074 -0.15471 0
M  V30 5918 H 547.569 -6.38825 2.80265 0
M  V30 5919 H 543.466 -6.25998 1.57468 0
M  V30 5920 H 544.234 -7.52468 3.22078 0
M  V30 5921 N 546.897 -0.0685191 -1.57451 0
M  V30 5922 C 548.125 0.610462 -1.97689 0
M  V30 5923 C 548.54 1.63346 -0.946758 0
M  V30 5924 O 547.897 1.82377 0.0669868 0
M  V30 5925 C 547.948 1.28196 -3.38006 0
M  V30 5926 O 547.669 0.299906 -4.37072 0
M  V30 5927 C 549.17 2.04907 -3.931 0
M  V30 5928 H 546.39 0.165689 -0.650222 0
M  V30 5929 H 548.934 -0.139953 -2.04021 0
M  V30 5930 H 547.089 1.98348 -3.32771 0
M  V30 5931 H 547.503 0.78126 -5.18649 0
M  V30 5932 H 548.977 2.47287 -4.93511 0
M  V30 5933 H 549.454 2.9043 -3.29465 0
M  V30 5934 H 550.06 1.39629 -4.01726 0
M  V30 5935 N 548.375 1.56261 0.205012 0
M  V30 5936 C 549.305 1.96779 1.257 0
M  V30 5937 C 550.286 0.838309 1.48008 0
M  V30 5938 O 551.471 1.10189 1.59913 0
M  V30 5939 C 548.601 2.29876 2.60335 0
M  V30 5940 C 547.555 3.45469 2.52656 0
M  V30 5941 C 546.881 3.64215 3.91473 0
M  V30 5942 C 548.181 4.79954 2.06014 0
M  V30 5943 H 549.875 2.84904 0.920338 0
M  V30 5944 H 547.421 1.37072 0.441277 0
M  V30 5945 H 549.374 2.56814 3.34102 0
M  V30 5946 H 548.098 1.38622 2.95722 0
M  V30 5947 H 546.757 3.18605 1.81345 0
M  V30 5948 H 546.405 2.70309 4.24196 0
M  V30 5949 H 546.105 4.41973 3.87213 0
M  V30 5950 H 547.629 3.93519 4.66878 0
M  V30 5951 H 549.043 5.05989 2.69533 0
M  V30 5952 H 547.44 5.61111 2.12777 0
M  V30 5953 H 548.51 4.74201 1.01297 0
M  V30 5954 N 549.853 -0.472356 1.50355 0
M  V30 5955 C 550.801 -1.59126 1.69651 0
M  V30 5956 C 551.795 -1.59793 0.56237 0
M  V30 5957 O 553.001 -1.63957 0.742832 0
M  V30 5958 H 549.376 -0.528008 0.535454 0
M  V30 5959 H 551.347 -1.40013 2.63513 0
M  V30 5960 C 550.096 -2.97075 1.8067 0
M  V30 5961 H 549.419 -2.9728 2.67329 0
M  V30 5962 H 550.859 -3.74825 1.98197 0
M  V30 5963 C 549.318 -3.32247 0.558016 0
M  V30 5964 O 549.848 -4.00553 -0.303399 0
M  V30 5965 N 548.054 -2.87659 0.412415 0
M  V30 5966 H 547.601 -2.32246 1.11443 0
M  V30 5967 H 547.559 -3.11556 -0.421908 0
M  V30 5968 N 551.331 -1.39911 -0.725443 0
M  V30 5969 C 552.279 -1.39552 -1.86086 0
M  V30 5970 C 553.273 -0.277334 -1.67114 0
M  V30 5971 O 554.479 -0.447865 -1.74339 0
M  V30 5972 H 550.854 -0.435993 -0.612711 0
M  V30 5973 H 552.825 -2.35305 -1.83505 0
M  V30 5974 C 551.574 -1.26529 -3.2386 0
M  V30 5975 H 550.897 -2.11845 -3.3906 0
M  V30 5976 H 552.337 -1.30336 -4.03471 0
M  V30 5977 C 550.796 0.0254168 -3.3689 0
M  V30 5978 O 551.326 0.992048 -3.89257 0
M  V30 5979 N 549.532 0.0916528 -2.90455 0
M  V30 5980 H 549.079 -0.695675 -2.48028 0
M  V30 5981 H 549.037 0.954745 -2.99553 0
M  V30 5982 N 552.809 0.956637 -1.25245 0
M  V30 5983 C 554.055 1.70352 -1.10036 0
M  V30 5984 C 554.388 1.90869 0.358156 0
M  V30 5985 O 553.663 1.47819 1.26411 0
M  V30 5986 C 553.946 3.08766 -1.85298 0
M  V30 5987 C 553.799 2.95672 -3.38966 0
M  V30 5988 C 555.118 4.08622 -1.63451 0
M  V30 5989 H 552.237 0.618279 -0.401123 0
M  V30 5990 H 554.879 1.11212 -1.54051 0
M  V30 5991 H 553.029 3.59252 -1.47887 0
M  V30 5992 H 554.701 2.52527 -3.86041 0
M  V30 5993 H 552.944 2.31634 -3.6678 0
M  V30 5994 H 553.615 3.93776 -3.86839 0
M  V30 5995 H 556.091 3.67038 -1.96015 0
M  V30 5996 H 554.967 5.03514 -2.18551 0
M  V30 5997 H 555.228 4.3834 -0.575357 0
M  V30 5998 N 554.287 1.06798 1.15896 0
M  V30 5999 C 555.237 0.653213 2.18443 0
M  V30 6000 C 556.221 -0.318763 1.57711 0
M  V30 6001 O 557.413 -0.133388 1.76497 0
M  V30 6002 C 554.542 0.0465785 3.43268 0
M  V30 6003 C 553.628 1.04336 4.11066 0
M  V30 6004 N 554.019 2.22084 4.54436 0
M  V30 6005 C 552.317 0.875433 4.37324 0
M  V30 6006 C 553.018 2.85276 5.06944 0
M  V30 6007 N 551.994 2.12973 5.00143 0
M  V30 6008 H 555.796 1.55011 2.49698 0
M  V30 6009 H 553.31 0.940384 1.32403 0
M  V30 6010 H 555.307 -0.26843 4.16035 0
M  V30 6011 H 553.967 -0.845504 3.13499 0
M  V30 6012 H 554.978 2.59833 4.48004 0
M  V30 6013 H 551.655 0.0357721 4.17485 0
M  V30 6014 H 553.045 3.85223 5.50503 0
M  V30 6015 N 555.766 -1.3263 0.851289 0
M  V30 6016 C 556.729 -2.27247 0.298541 0
M  V30 6017 C 557.729 -1.51467 -0.539847 0
M  V30 6018 O 558.919 -1.7061 -0.351843 0
M  V30 6019 C 556.051 -3.35964 -0.578004 0
M  V30 6020 H 557.244 -2.7765 1.13359 0
M  V30 6021 H 554.797 -1.43245 0.625354 0
M  V30 6022 H 555.532 -2.90823 -1.435 0
M  V30 6023 H 555.317 -3.92094 0.0220539 0
M  V30 6024 H 556.807 -4.06472 -0.957626 0
M  V30 6025 N 557.244 -0.608902 -1.45362 0
M  V30 6026 C 558.484 -0.10763 -2.04116 0
M  V30 6027 C 558.848 1.23883 -1.46686 0
M  V30 6028 O 560.049 1.83091 -1.96803 0
M  V30 6029 C 558.32 -0.0703351 -3.57331 0
M  V30 6030 S 559.879 0.369554 -4.37241 0
M  V30 6031 H 556.697 -0.0502123 -0.709225 0
M  V30 6032 H 559.299 -0.8073 -1.78053 0
M  V30 6033 H 558.003 -1.05379 -3.9664 0
M  V30 6034 H 557.534 0.651287 -3.87971 0
M  V30 6035 H 559.549 1.61878 -4.69052 0
M  V30 6036 N 558.722 1.53707 -0.348139 0
M  V30 6037 C 559.685 2.23812 0.494058 0
M  V30 6038 C 560.685 1.23989 1.02388 0
M  V30 6039 O 561.875 1.48395 0.912396 0
M  V30 6040 C 559.007 2.96133 1.68872 0
M  V30 6041 H 560.2 2.99663 -0.119141 0
M  V30 6042 H 557.753 1.55983 -0.0995539 0
M  V30 6043 H 558.488 2.24481 2.34049 0
M  V30 6044 H 558.273 3.69357 1.31596 0
M  V30 6045 H 559.763 3.49475 2.28597 0
M  V30 6046 N 560.2 0.0768682 1.57412 0
M  V30 6047 C 561.147 -0.888577 2.13009 0
M  V30 6048 C 562.117 -1.29198 1.0439 0
M  V30 6049 O 563.302 -1.37694 1.3208 0
M  V30 6050 C 560.442 -2.14899 2.70023 0
M  V30 6051 C 559.555 -1.79777 3.92816 0
M  V30 6052 C 558.69 -3.00467 4.38056 0
M  V30 6053 C 557.729 -2.61385 5.53484 0
M  V30 6054 N 556.866 -3.74851 5.93659 0
M  V30 6055 H 561.706 -0.407593 2.95199 0
M  V30 6056 H 559.243 -0.189534 1.45874 0
M  V30 6057 H 561.201 -2.88688 3.0119 0
M  V30 6058 H 559.831 -2.60529 1.9059 0
M  V30 6059 H 558.883 -0.960301 3.68079 0
M  V30 6060 H 560.195 -1.47027 4.76639 0
M  V30 6061 H 559.349 -3.82529 4.7091 0
M  V30 6062 H 558.088 -3.36413 3.53097 0
M  V30 6063 H 557.093 -1.77746 5.20275 0
M  V30 6064 H 558.318 -2.26603 6.40178 0
M  V30 6065 H 556.264 -4.1055 5.11649 0
M  V30 6066 H 556.181 -3.45887 6.72234 0
M  V30 6067 H 557.449 -4.57477 6.31138 0
M  V30 6068 N 561.678 -1.56367 -0.196722 0
M  V30 6069 C 562.626 -1.95304 -1.2633 0
M  V30 6070 C 563.62 -0.838252 -1.47206 0
M  V30 6071 O 564.826 -1.02325 -1.48087 0
M  V30 6072 H 561.201 -0.621013 -0.424083 0
M  V30 6073 H 563.172 -2.84254 -0.907879 0
M  V30 6074 C 561.921 -2.3074 -2.60104 0
M  V30 6075 H 561.244 -3.16047 -2.44856 0
M  V30 6076 H 562.684 -2.61849 -3.33484 0
M  V30 6077 C 561.143 -1.14143 -3.16975 0
M  V30 6078 O 561.673 -0.415602 -3.99544 0
M  V30 6079 N 559.879 -0.91867 -2.75697 0
M  V30 6080 H 559.426 -1.51065 -2.08656 0
M  V30 6081 H 559.384 -0.140321 -3.14087 0
M  V30 6082 N 563.156 0.464375 -1.50603 0
M  V30 6083 C 564.433 1.22549 -1.5245 0
M  V30 6084 C 564.813 2.09327 -0.273035 0
M  V30 6085 O 564.161 2.16074 0.743242 0
M  V30 6086 C 564.371 2.05074 -2.82393 0
M  V30 6087 C 565.719 2.63036 -3.33313 0
M  V30 6088 O 566.743 2.1531 -2.8376 0
M  V30 6089 O 565.602 3.5001 -4.19709 0
M  V30 6090 H 562.696 0.556471 -0.611775 0
M  V30 6091 H 565.242 0.475648 -1.62898 0
M  V30 6092 H 564.014 1.41169 -3.64948 0
M  V30 6093 H 563.637 2.87179 -2.7498 0
M  V30 6094 N 564.634 1.40294 0.718013 0
M  V30 6095 C 565.881 1.3844 1.47786 0
M  V30 6096 C 566.209 -0.0140838 1.94495 0
M  V30 6097 O 565.464 -0.998165 1.68331 0
M  V30 6098 C 565.763 2.31814 2.72024 0
M  V30 6099 C 565.429 3.79117 2.44093 0
M  V30 6100 C 564.091 4.19249 2.36185 0
M  V30 6101 C 566.443 4.72212 2.20602 0
M  V30 6102 C 563.771 5.50516 2.02851 0
M  V30 6103 C 566.123 6.03775 1.88781 0
M  V30 6104 C 564.787 6.42953 1.79354 0
M  V30 6105 H 564.057 0.506588 0.540786 0
M  V30 6106 H 566.704 1.72929 0.822663 0
M  V30 6107 H 565.009 1.90501 3.42369 0
M  V30 6108 H 566.706 2.27664 3.30106 0
M  V30 6109 H 563.296 3.47318 2.51133 0
M  V30 6110 H 567.48 4.42026 2.25669 0
M  V30 6111 H 562.736 5.79776 1.94088 0
M  V30 6112 H 566.91 6.75428 1.69617 0
M  V30 6113 H 564.537 7.44584 1.53291 0
M  V30 6114 N 566.112 -0.949982 1.2575 0
M  V30 6115 C 567.059 -2.04738 1.06541 0
M  V30 6116 C 568.029 -1.66078 -0.0268818 0
M  V30 6117 O 569.214 -1.90348 0.131196 0
M  V30 6118 C 566.354 -3.38027 0.695127 0
M  V30 6119 C 565.467 -3.89776 1.86276 0
M  V30 6120 C 564.602 -5.11411 1.4364 0
M  V30 6121 C 563.641 -5.554 2.57287 0
M  V30 6122 N 562.778 -6.68244 2.15395 0
M  V30 6123 H 567.618 -2.20502 2.00457 0
M  V30 6124 H 565.155 -1.0805 0.998178 0
M  V30 6125 H 567.113 -4.14641 0.461375 0
M  V30 6126 H 565.743 -3.22135 -0.207046 0
M  V30 6127 H 564.795 -3.0964 2.20969 0
M  V30 6128 H 566.107 -4.18368 2.71606 0
M  V30 6129 H 565.261 -5.95457 1.16257 0
M  V30 6130 H 564 -4.84545 0.553879 0
M  V30 6131 H 563.005 -4.69916 2.85409 0
M  V30 6132 H 564.23 -5.84272 3.46125 0
M  V30 6133 H 562.176 -6.43078 1.29565 0
M  V30 6134 H 562.093 -6.96377 2.94272 0
M  V30 6135 H 563.361 -7.55687 1.91201 0
M  V30 6136 N 567.59 -1.07411 -1.15328 0
M  V30 6137 C 568.839 -0.792643 -1.85473 0
M  V30 6138 C 569.152 0.683789 -1.83259 0
M  V30 6139 O 570.358 1.08005 -2.49093 0
M  V30 6140 C 568.814 -1.36787 -3.32892 0
M  V30 6141 C 568.422 -2.87536 -3.43551 0
M  V30 6142 C 570.166 -1.16444 -4.08217 0
M  V30 6143 C 568.073 -3.38247 -4.85122 0
M  V30 6144 H 567.003 -0.292838 -0.694811 0
M  V30 6145 H 569.654 -1.29426 -1.30082 0
M  V30 6146 H 568.036 -0.793993 -3.87958 0
M  V30 6147 H 569.21 -3.50973 -2.98588 0
M  V30 6148 H 567.525 -3.06676 -2.81672 0
M  V30 6149 H 570.122 -1.51808 -5.12697 0
M  V30 6150 H 570.465 -0.10353 -4.16171 0
M  V30 6151 H 570.998 -1.70472 -3.59422 0
M  V30 6152 H 567.737 -4.43866 -4.82351 0
M  V30 6153 H 567.257 -2.79564 -5.30664 0
M  V30 6154 H 568.936 -3.34238 -5.5398 0
M  V30 6155 N 569.068 1.32177 -0.85831 0
M  V30 6156 C 570.316 1.96735 -0.462568 0
M  V30 6157 C 570.637 1.6824 0.985911 0
M  V30 6158 O 569.907 0.991564 1.68952 0
M  V30 6159 H 568.487 0.727849 -0.168064 0
M  V30 6160 H 571.149 1.61195 -1.09554 0
M  V30 6161 H 570.245 3.06068 -0.610647 0
M  V30 6162 N 570.547 0.616602 1.45037 0
M  V30 6163 C 571.795 0.115103 2.01772 0
M  V30 6164 C 572.116 -1.2622 1.48639 0
M  V30 6165 O 571.386 -1.83563 0.684199 0
M  V30 6166 H 569.966 0.0395607 0.745952 0
M  V30 6167 H 572.628 0.800032 1.77723 0
M  V30 6168 H 571.724 0.0717274 3.12018 0
M  V30 6169 N 572.025 -1.5352 0.356285 0
M  V30 6170 C 572.988 -2.24071 -0.482182 0
M  V30 6171 C 573.988 -1.24531 -1.01729 0
M  V30 6172 O 575.178 -1.48876 -0.904513 0
M  V30 6173 C 572.31 -2.97025 -1.67299 0
M  V30 6174 H 573.503 -2.99596 0.135031 0
M  V30 6175 H 571.056 -1.55928 0.107825 0
M  V30 6176 H 571.791 -2.25719 -2.32855 0
M  V30 6177 H 571.576 -3.7005 -1.29636 0
M  V30 6178 H 573.066 -3.50683 -2.26741 0
M  V30 6179 N 573.503 -0.0852151 -1.57369 0
M  V30 6180 C 574.752 0.580443 -1.93168 0
M  V30 6181 C 575.065 1.6995 -0.968319 0
M  V30 6182 O 576.271 2.42564 -1.21963 0
M  V30 6183 C 574.727 1.08386 -3.43192 0
M  V30 6184 C 574.335 -0.00491388 -4.48 0
M  V30 6185 C 576.079 1.72281 -3.87968 0
M  V30 6186 C 573.986 0.513299 -5.89168 0
M  V30 6187 H 572.916 0.22059 -0.72101 0
M  V30 6188 H 575.567 -0.159621 -1.82804 0
M  V30 6189 H 573.949 1.8773 -3.48674 0
M  V30 6190 H 575.123 -0.780032 -4.5415 0
M  V30 6191 H 573.438 -0.548453 -4.12772 0
M  V30 6192 H 576.035 2.12108 -4.9083 0
M  V30 6193 H 576.378 2.58811 -3.26071 0
M  V30 6194 H 576.911 0.995359 -3.85146 0
M  V30 6195 H 573.65 -0.315153 -6.54742 0
M  V30 6196 H 573.17 1.25564 -5.8651 0
M  V30 6197 H 574.849 0.985433 -6.39451 0
M  V30 6198 N 574.981 1.5647 0.188427 0
M  V30 6199 C 575.891 1.98285 1.2538 0
M  V30 6200 C 576.907 0.891535 1.49424 0
M  V30 6201 O 578.083 1.19782 1.61908 0
M  V30 6202 C 575.148 2.31965 2.57669 0
M  V30 6203 C 574.209 3.54838 2.41638 0
M  V30 6204 C 573.442 3.86901 3.67618 0
M  V30 6205 O 573.665 3.20163 4.72072 0
M  V30 6206 O 572.599 4.80309 3.62749 0
M  V30 6207 H 576.425 2.89145 0.928912 0
M  V30 6208 H 574.01 1.44112 0.393955 0
M  V30 6209 H 575.892 2.54673 3.35737 0
M  V30 6210 H 574.567 1.44271 2.89771 0
M  V30 6211 H 573.474 3.37369 1.61658 0
M  V30 6212 H 574.807 4.43019 2.14465 0
M  V30 6213 N 576.459 -0.456382 1.50847 0
M  V30 6214 C 577.369 -1.57805 1.73594 0
M  V30 6215 C 578.385 -1.62599 0.619476 0
M  V30 6216 O 579.561 -1.80195 0.899532 0
M  V30 6217 C 576.626 -2.93926 1.8387 0
M  V30 6218 C 575.687 -2.99402 3.07663 0
M  V30 6219 C 574.92 -4.29031 3.1744 0
M  V30 6220 O 575.143 -5.20358 2.33631 0
M  V30 6221 O 574.077 -4.40401 4.10281 0
M  V30 6222 H 577.903 -1.41531 2.68705 0
M  V30 6223 H 575.488 -0.637422 1.3512 0
M  V30 6224 H 577.37 -3.74747 1.92725 0
M  V30 6225 H 576.045 -3.10368 0.91944 0
M  V30 6226 H 574.952 -2.17606 3.043 0
M  V30 6227 H 576.285 -2.87901 3.99216 0
M  V30 6228 N 577.937 -1.40673 -0.710563 0
M  V30 6229 C 579.183 -1.39428 -1.47267 0
M  V30 6230 C 579.516 0.00182129 -1.942 0
M  V30 6231 O 578.791 0.971387 -1.68506 0
M  V30 6232 C 579.074 -2.38812 -2.6952 0
M  V30 6233 C 578.927 -3.87467 -2.28449 0
M  V30 6234 C 580.246 -2.3566 -3.71689 0
M  V30 6235 H 577.365 -0.507768 -0.534173 0
M  V30 6236 H 580.007 -1.71843 -0.810547 0
M  V30 6237 H 578.157 -2.113 -3.26013 0
M  V30 6238 H 579.829 -4.25825 -1.77399 0
M  V30 6239 H 578.072 -4.03058 -1.60395 0
M  V30 6240 H 578.743 -4.5253 -3.16103 0
M  V30 6241 H 581.219 -2.6004 -3.24836 0
M  V30 6242 H 580.095 -3.07237 -4.54859 0
M  V30 6243 H 580.356 -1.36996 -4.20339 0
M  V30 6244 N 579.415 0.9433 -1.26252 0
M  V30 6245 C 580.645 1.72117 -1.14277 0
M  V30 6246 C 581.053 1.86726 0.304944 0
M  V30 6247 O 580.396 1.3727 1.22076 0
M  V30 6248 C 580.458 3.14778 -1.73651 0
M  V30 6249 C 580.122 3.23561 -3.22734 0
M  V30 6250 C 581.119 3.07001 -4.19579 0
M  V30 6251 C 578.804 3.47019 -3.63157 0
M  V30 6252 C 580.798 3.13763 -5.54826 0
M  V30 6253 C 578.485 3.53416 -4.98538 0
M  V30 6254 C 579.483 3.36804 -5.94182 0
M  V30 6255 O 579.171 3.42906 -7.27098 0
M  V30 6256 H 578.903 0.545781 -0.398873 0
M  V30 6257 H 581.457 1.19123 -1.67328 0
M  V30 6258 H 579.687 3.69186 -1.1506 0
M  V30 6259 H 581.376 3.74469 -1.56613 0
M  V30 6260 H 582.142 2.88736 -3.89688 0
M  V30 6261 H 578.021 3.59006 -2.89199 0
M  V30 6262 H 581.565 3.00714 -6.29458 0
M  V30 6263 H 577.462 3.71201 -5.28091 0
M  V30 6264 H 578.23 3.59463 -7.35342 0
M  V30 6265 N 580.893 1.08022 1.14757 0
M  V30 6266 C 582.139 0.808705 1.85978 0
M  V30 6267 C 582.472 -0.663764 1.82504 0
M  V30 6268 O 581.747 -1.48765 1.25296 0
M  V30 6269 C 582.03 1.32623 3.34788 0
M  V30 6270 C 581.883 2.86375 3.46856 0
M  V30 6271 C 583.202 0.948291 4.29762 0
M  V30 6272 H 580.321 0.295244 0.675278 0
M  V30 6273 H 582.963 1.33917 1.34783 0
M  V30 6274 H 581.113 0.875002 3.78518 0
M  V30 6275 H 582.785 3.39839 3.11941 0
M  V30 6276 H 581.028 3.24232 2.88194 0
M  V30 6277 H 581.699 3.17658 4.51439 0
M  V30 6278 H 584.175 1.33722 3.94028 0
M  V30 6279 H 583.051 1.33765 5.32352 0
M  V30 6280 H 583.312 -0.145094 4.41862 0
M  V30 6281 N 582.371 -1.3172 0.865308 0
M  V30 6282 C 583.596 -2.01591 0.487415 0
M  V30 6283 C 584.021 -1.6455 -0.911307 0
M  V30 6284 O 583.379 -0.851689 -1.6005 0
M  V30 6285 C 583.427 -3.54759 0.646401 0
M  V30 6286 O 582.531 -4.11185 -0.316284 0
M  V30 6287 H 581.872 -0.634884 0.194468 0
M  V30 6288 H 584.402 -1.68024 1.16744 0
M  V30 6289 H 584.412 -4.04438 0.537932 0
M  V30 6290 H 583.087 -3.8106 1.66632 0
M  V30 6291 H 581.664 -3.72543 -0.163162 0
M  V30 6292 N 583.85 -0.624285 -1.44708 0
M  V30 6293 C 584.779 0.0717025 -2.3339 0
M  V30 6294 C 585.76 0.841814 -1.47809 0
M  V30 6295 O 586.946 0.809056 -1.76544 0
M  V30 6296 C 584.076 1.05852 -3.30776 0
M  V30 6297 C 583.029 0.400503 -4.26122 0
M  V30 6298 C 582.356 1.49674 -5.13324 0
M  V30 6299 C 583.656 -0.688924 -5.17737 0
M  V30 6300 H 585.35 -0.668819 -2.91834 0
M  V30 6301 H 582.896 -0.32308 -1.40329 0
M  V30 6302 H 584.849 1.5541 -3.91696 0
M  V30 6303 H 583.572 1.82984 -2.70526 0
M  V30 6304 H 582.231 -0.0743687 -3.66525 0
M  V30 6305 H 581.88 2.25877 -4.49431 0
M  V30 6306 H 581.58 1.06188 -5.77926 0
M  V30 6307 H 583.104 1.99427 -5.77115 0
M  V30 6308 H 584.518 -0.276724 -5.72632 0
M  V30 6309 H 582.915 -1.04652 -5.90904 0
M  V30 6310 H 583.985 -1.55884 -4.5916 0
M  V30 6311 N 585.328 1.53329 -0.364422 0
M  V30 6312 C 586.576 2.00842 0.225189 0
M  V30 6313 C 586.897 1.25345 1.49378 0
M  V30 6314 O 586.167 0.366396 1.92443 0
M  V30 6315 H 584.747 0.742009 0.0862027 0
M  V30 6316 H 587.409 1.8863 -0.490389 0
M  V30 6317 H 586.505 3.08795 0.452987 0
M  V30 6318 N 586.806 0.0935595 1.57322 0
M  V30 6319 C 588.052 -0.571355 1.94585 0
M  V30 6320 C 588.385 -1.67929 0.975366 0
M  V30 6321 O 587.66 -1.94498 0.00816206 0
M  V30 6322 C 587.943 -1.12797 3.41978 0
M  V30 6323 C 587.796 -0.0251881 4.49793 0
M  V30 6324 C 589.115 -2.02682 3.90651 0
M  V30 6325 H 586.234 -0.206223 0.70756 0
M  V30 6326 H 588.876 0.163956 1.89291 0
M  V30 6327 H 587.026 -1.75461 3.4662 0
M  V30 6328 H 588.698 0.608979 4.57263 0
M  V30 6329 H 586.941 0.641399 4.29032 0
M  V30 6330 H 587.612 -0.455433 5.50118 0
M  V30 6331 H 590.088 -1.49925 3.88152 0
M  V30 6332 H 588.964 -2.38555 4.94351 0
M  V30 6333 H 589.225 -2.94362 3.29854 0
M  V30 6334 N 588.284 -1.56567 -0.180126 0
M  V30 6335 C 589.509 -1.85975 -0.918041 0
M  V30 6336 C 589.934 -0.678888 -1.75422 0
M  V30 6337 O 589.292 0.372168 -1.77439 0
M  V30 6338 C 589.34 -3.13731 -1.77779 0
M  V30 6339 O 588.444 -2.95335 -2.87838 0
M  V30 6340 H 587.785 -0.61196 -0.257683 0
M  V30 6341 H 590.315 -2.03798 -0.180923 0
M  V30 6342 H 590.325 -3.4491 -2.17948 0
M  V30 6343 H 589 -3.99293 -1.16352 0
M  V30 6344 H 587.577 -2.7549 -2.51316 0
M  V30 6345 N 589.762 0.448376 -1.51087 0
M  V30 6346 C 591.008 1.20049 -1.6345 0
M  V30 6347 C 591.341 1.91121 -0.344444 0
M  V30 6348 O 590.616 1.83125 0.655396 0
M  V30 6349 C 590.899 2.22624 -2.83038 0
M  V30 6350 C 590.752 1.55708 -4.21989 0
M  V30 6351 C 592.071 3.23718 -2.98152 0
M  V30 6352 H 589.19 0.435085 -0.59487 0
M  V30 6353 H 591.832 0.491183 -1.83541 0
M  V30 6354 H 589.982 2.83117 -2.66039 0
M  V30 6355 H 591.654 0.986367 -4.50631 0
M  V30 6356 H 589.897 0.859647 -4.25197 0
M  V30 6357 H 590.568 2.30357 -5.01637 0
M  V30 6358 H 593.044 2.73269 -3.13788 0
M  V30 6359 H 591.92 3.92795 -3.83411 0
M  V30 6360 H 592.181 3.89179 -2.09743 0
M  V30 6361 N 591.24 1.41047 0.703093 0
M  V30 6362 C 592.488 1.39723 1.4602 0
M  V30 6363 C 592.809 0.00461257 1.94999 0
M  V30 6364 O 592.079 -0.952292 1.71196 0
M  V30 6365 H 590.659 0.514281 0.541779 0
M  V30 6366 H 593.321 1.76217 0.832678 0
M  V30 6367 H 592.417 2.07982 2.32701 0
M  V30 6368 N 592.718 -0.936591 1.26751 0
M  V30 6369 C 593.665 -2.03597 1.08706 0
M  V30 6370 C 594.635 -1.66097 -0.00926542 0
M  V30 6371 O 595.82 -1.90199 0.151377 0
M  V30 6372 C 592.96 -3.3727 0.73094 0
M  V30 6373 C 592.073 -3.87778 1.90399 0
M  V30 6374 C 591.208 -5.09859 1.49056 0
M  V30 6375 C 590.247 -5.5264 2.63164 0
M  V30 6376 N 589.384 -6.65921 2.22471 0
M  V30 6377 H 594.224 -2.18364 2.02784 0
M  V30 6378 H 591.761 -1.06985 1.00958 0
M  V30 6379 H 593.719 -4.14128 0.505328 0
M  V30 6380 H 592.349 -3.22337 -0.172868 0
M  V30 6381 H 591.401 -3.07279 2.2424 0
M  V30 6382 H 592.713 -4.15464 2.76028 0
M  V30 6383 H 591.867 -5.9419 1.22567 0
M  V30 6384 H 590.606 -4.8393 0.60524 0
M  V30 6385 H 589.611 -4.66863 2.90377 0
M  V30 6386 H 590.836 -5.80568 3.52303 0
M  V30 6387 H 588.782 -6.41667 1.36379 0
M  V30 6388 H 588.699 -6.93216 3.01641 0
M  V30 6389 H 589.967 -7.53616 1.99205 0
M  V30 6390 N 594.196 -1.08629 -1.14182 0
M  V30 6391 C 595.436 -0.826884 -1.86928 0
M  V30 6392 C 595.8 0.635808 -1.81167 0
M  V30 6393 O 597.001 1.0108 -2.49071 0
M  V30 6394 C 595.272 -1.33721 -3.31442 0
M  V30 6395 S 596.831 -1.21045 -4.21774 0
M  V30 6396 H 593.649 -0.299286 -0.644941 0
M  V30 6397 H 596.251 -1.38802 -1.37674 0
M  V30 6398 H 594.955 -2.39617 -3.33184 0
M  V30 6399 H 594.486 -0.771839 -3.85754 0
M  V30 6400 H 596.501 -0.156168 -4.95954 0
M  V30 6401 N 595.674 1.31259 -0.872281 0
M  V30 6402 C 597.09 1.49283 -0.564521 0
M  V30 6403 C 597.29 1.80243 0.900807 0
M  V30 6404 O 596.346 1.88246 1.68284 0
M  V30 6405 C 597.659 2.62503 -1.46673 0
M  V30 6406 C 599.207 2.76386 -1.46901 0
M  V30 6407 C 599.682 3.92705 -2.35684 0
M  V30 6408 N 601.173 3.99995 -2.33577 0
M  V30 6409 C 601.908 4.89276 -2.98992 0
M  V30 6410 N 601.404 5.83443 -3.73585 0
M  V30 6411 N 603.197 4.82541 -2.88289 0
M  V30 6412 H 595.348 1.09432 -1.82039 0
M  V30 6413 H 597.611 0.540949 -0.77851 0
M  V30 6414 H 597.317 2.46407 -2.50951 0
M  V30 6415 H 597.191 3.58695 -1.16696 0
M  V30 6416 H 599.578 2.91894 -0.433796 0
M  V30 6417 H 599.659 1.80853 -1.80903 0
M  V30 6418 H 599.303 3.77954 -3.39283 0
M  V30 6419 H 599.233 4.87549 -1.99006 0
M  V30 6420 H 601.724 3.32624 -1.7936 0
M  V30 6421 H 602.037 6.48303 -4.20622 0
M  V30 6422 H 600.382 5.83415 -3.77694 0
M  V30 6423 H 603.573 4.07951 -2.2955 0
M  V30 6424 H 603.746 5.51916 -3.39549 0
M  V30 6425 N 597.152 0.631951 1.44375 0
M  V30 6426 C 598.4 0.136497 2.01639 0
M  V30 6427 C 598.721 -1.24637 1.49969 0
M  V30 6428 O 597.991 -1.82827 0.70363 0
M  V30 6429 H 596.571 0.0474703 0.74549 0
M  V30 6430 H 599.233 0.818837 1.76865 0
M  V30 6431 H 598.329 0.104817 3.11924 0
M  V30 6432 N 598.631 -1.53133 0.372548 0
M  V30 6433 C 599.88 -2.00539 -0.216115 0
M  V30 6434 C 600.193 -1.26374 -1.49295 0
M  V30 6435 O 601.399 -1.64404 -2.16064 0
M  V30 6436 C 599.855 -3.57253 -0.435678 0
M  V30 6437 C 599.463 -4.40302 0.82693 0
M  V30 6438 C 601.207 -4.12995 -0.981618 0
M  V30 6439 C 599.114 -5.88583 0.576567 0
M  V30 6440 H 598.044 -0.749246 -0.084536 0
M  V30 6441 H 600.695 -1.76771 0.492364 0
M  V30 6442 H 599.077 -3.77202 -1.20559 0
M  V30 6443 H 600.251 -4.32124 1.60017 0
M  V30 6444 H 598.566 -3.95699 1.29659 0
M  V30 6445 H 601.163 -5.21418 -1.18436 0
M  V30 6446 H 601.506 -3.68027 -1.94581 0
M  V30 6447 H 602.039 -3.96871 -0.271696 0
M  V30 6448 H 598.778 -6.37841 1.51128 0
M  V30 6449 H 598.298 -5.99592 -0.158047 0
M  V30 6450 H 599.977 -6.46676 0.204722 0
M  V30 6451 N 600.109 -0.101901 -1.5727 0
M  V30 6452 C 601.039 0.851544 -2.17419 0
M  V30 6453 C 602.02 1.28942 -1.10941 0
M  V30 6454 O 603.205 1.35509 -1.39107 0
M  V30 6455 C 600.335 2.10816 -2.75996 0
M  V30 6456 C 599.289 1.80867 -3.87906 0
M  V30 6457 C 598.615 3.13413 -4.33216 0
M  V30 6458 C 599.915 1.0903 -5.10793 0
M  V30 6459 H 601.609 0.350381 -2.97343 0
M  V30 6460 H 599.155 0.16709 -1.43027 0
M  V30 6461 H 601.108 2.77959 -3.16729 0
M  V30 6462 H 599.832 2.63227 -1.93337 0
M  V30 6463 H 598.491 1.16119 -3.47724 0
M  V30 6464 H 598.139 3.63725 -3.47438 0
M  V30 6465 H 597.839 2.94155 -5.08671 0
M  V30 6466 H 599.363 3.81704 -4.76586 0
M  V30 6467 H 600.777 1.66295 -5.48652 0
M  V30 6468 H 599.174 0.99927 -5.91722 0
M  V30 6469 H 600.244 0.0741704 -4.84843 0
M  V30 6470 N 601.587 1.56661 0.17182 0
M  V30 6471 C 602.535 1.97289 1.23207 0
M  V30 6472 C 603.529 0.861566 1.45854 0
M  V30 6473 O 604.735 1.04668 1.4644 0
M  V30 6474 H 601.11 0.627681 0.41415 0
M  V30 6475 H 603.081 2.85662 0.862542 0
M  V30 6476 C 601.83 2.34849 2.564 0
M  V30 6477 H 601.153 3.19903 2.39797 0
M  V30 6478 H 602.593 2.67121 3.29276 0
M  V30 6479 C 601.052 1.19172 3.15119 0
M  V30 6480 O 601.582 0.479113 3.98833 0
M  V30 6481 N 599.788 0.962415 2.74201 0
M  V30 6482 H 599.335 1.54365 2.06226 0
M  V30 6483 H 599.293 0.190272 3.13824 0
M  V30 6484 N 603.065 -0.440357 1.51323 0
M  V30 6485 C 603.975 -1.55955 1.75258 0
M  V30 6486 C 604.991 -1.61933 0.636687 0
M  V30 6487 O 606.167 -1.79231 0.918593 0
M  V30 6488 C 603.232 -2.9196 1.86977 0
M  V30 6489 C 602.293 -2.96122 3.10822 0
M  V30 6490 C 601.526 -4.2564 3.21973 0
M  V30 6491 O 601.749 -5.17851 2.39137 0
M  V30 6492 O 600.683 -4.36025 4.14929 0
M  V30 6493 H 604.509 -1.38673 2.70191 0
M  V30 6494 H 602.094 -0.623055 1.35788 0
M  V30 6495 H 603.976 -3.72682 1.96688 0
M  V30 6496 H 602.651 -3.09375 0.952307 0
M  V30 6497 H 601.558 -2.14366 3.06591 0
M  V30 6498 H 602.891 -2.83651 4.02247 0
M  V30 6499 N 604.543 -1.41418 -0.695603 0
M  V30 6500 C 605.792 -1.40073 -1.4513 0
M  V30 6501 C 606.105 -0.0130439 -1.95596 0
M  V30 6502 O 607.311 0.123032 -2.71221 0
M  V30 6503 C 605.767 -2.46286 -2.62433 0
M  V30 6504 C 605.375 -3.90962 -2.18753 0
M  V30 6505 C 607.119 -2.54077 -3.40066 0
M  V30 6506 C 605.026 -4.88728 -3.33015 0
M  V30 6507 H 603.956 -0.520903 -0.545138 0
M  V30 6508 H 606.607 -1.67242 -0.75515 0
M  V30 6509 H 604.989 -2.12248 -3.34315 0
M  V30 6510 H 606.163 -4.34248 -1.54161 0
M  V30 6511 H 604.478 -3.86831 -1.54114 0
M  V30 6512 H 607.075 -3.24303 -4.25125 0
M  V30 6513 H 607.418 -1.5776 -3.8525 0
M  V30 6514 H 607.951 -2.87206 -2.75241 0
M  V30 6515 H 604.69 -5.86449 -2.92844 0
M  V30 6516 H 604.21 -4.50091 -3.96457 0
M  V30 6517 H 605.889 -5.09483 -3.98793 0
M  V30 6518 N 606.021 0.929856 -1.27246 0
M  V30 6519 C 606.968 2.03017 -1.09785 0
M  V30 6520 C 607.938 1.661 0.000456744 0
M  V30 6521 O 609.123 1.90116 -0.161462 0
M  V30 6522 C 606.263 3.36878 -0.748816 0
M  V30 6523 C 605.376 3.86763 -1.92453 0
M  V30 6524 C 604.511 5.09061 -1.51758 0
M  V30 6525 C 603.55 5.51237 -2.66091 0
M  V30 6526 N 602.687 6.64732 -2.25999 0
M  V30 6527 H 607.527 2.17285 -2.03939 0
M  V30 6528 H 605.064 1.06448 -1.01524 0
M  V30 6529 H 607.022 4.13855 -0.527283 0
M  V30 6530 H 605.652 3.22424 0.155771 0
M  V30 6531 H 604.704 3.06086 -2.25867 0
M  V30 6532 H 606.016 4.13994 -2.78227 0
M  V30 6533 H 605.17 5.93532 -1.25716 0
M  V30 6534 H 603.909 4.83602 -0.630896 0
M  V30 6535 H 602.914 4.65316 -2.92849 0
M  V30 6536 H 604.139 5.78692 -3.55377 0
M  V30 6537 H 602.085 6.40935 -1.3978 0
M  V30 6538 H 602.002 6.91607 -3.05313 0
M  V30 6539 H 603.27 7.52549 -2.03199 0
M  V30 6540 N 607.499 1.09233 1.13605 0
M  V30 6541 C 608.776 0.739633 1.81077 0
M  V30 6542 C 609.156 -0.775595 1.96336 0
M  V30 6543 O 608.504 -1.69726 1.52988 0
M  V30 6544 C 608.714 1.47636 3.16235 0
M  V30 6545 C 610.062 1.64087 3.91613 0
M  V30 6546 O 611.086 1.43871 3.25852 0
M  V30 6547 O 609.945 1.97511 5.0956 0
M  V30 6548 H 607.039 0.265464 0.783236 0
M  V30 6549 H 609.585 1.19441 1.20549 0
M  V30 6550 H 608.357 2.50818 3.00344 0
M  V30 6551 H 607.98 1.01362 3.84462 0
M  V30 6552 N 608.977 -1.30795 0.87923 0
M  V30 6553 C 610.393 -1.48981 0.57243 0
M  V30 6554 C 610.593 -1.80719 -0.891236 0
M  V30 6555 O 609.649 -1.89136 -1.67283 0
M  V30 6556 C 610.962 -2.61721 1.48063 0
M  V30 6557 C 612.51 -2.75603 1.48365 0
M  V30 6558 C 612.985 -3.91449 2.37763 0
M  V30 6559 N 614.476 -3.98751 2.35695 0
M  V30 6560 C 615.211 -4.87684 3.01583 0
M  V30 6561 N 614.707 -5.81454 3.76674 0
M  V30 6562 N 616.5 -4.81005 2.90844 0
M  V30 6563 H 608.651 -1.08465 1.82617 0
M  V30 6564 H 610.914 -0.536813 0.781368 0
M  V30 6565 H 610.62 -2.45073 2.52254 0
M  V30 6566 H 610.494 -3.58071 1.18596 0
M  V30 6567 H 612.881 -2.9166 0.44927 0
M  V30 6568 H 612.962 -1.79891 1.81859 0
M  V30 6569 H 612.606 -3.76149 3.41283 0
M  V30 6570 H 612.536 -4.86487 2.01589 0
M  V30 6571 H 615.027 -3.31668 1.81121 0
M  V30 6572 H 615.34 -6.46063 4.24054 0
M  V30 6573 H 613.685 -5.81403 3.80782 0
M  V30 6574 H 616.876 -4.06728 2.31711 0
M  V30 6575 H 617.049 -5.50107 3.42471 0
M  V30 6576 N 610.455 -0.639598 -1.44038 0
M  V30 6577 C 611.403 0.0723409 -2.32487 0
M  V30 6578 C 612.397 0.827129 -1.47834 0
M  V30 6579 O 613.603 0.73907 -1.64127 0
M  V30 6580 H 609.978 0.0421696 -0.750817 0
M  V30 6581 H 611.949 -0.691593 -2.90275 0
M  V30 6582 C 610.698 1.03452 -3.31953 0
M  V30 6583 H 610.021 0.46315 -3.97108 0
M  V30 6584 H 611.461 1.502 -3.96505 0
M  V30 6585 C 609.92 2.12392 -2.61518 0
M  V30 6586 O 610.45 3.2059 -2.42044 0
M  V30 6587 N 608.656 1.88563 -2.21116 0
M  V30 6588 H 608.203 1.00577 -2.37154 0
M  V30 6589 H 608.161 2.61651 -1.74316 0
M  V30 6590 N 611.933 1.52934 -0.380664 0
M  V30 6591 C 612.88 2.26197 0.458641 0
M  V30 6592 C 613.85 1.27462 1.06502 0
M  V30 6593 O 615.035 1.56274 1.09467 0
M  V30 6594 C 612.175 3.06571 1.58456 0
M  V30 6595 C 611.288 4.20222 1.00189 0
M  V30 6596 C 610.423 4.88007 2.09815 0
M  V30 6597 C 609.462 5.93665 1.49092 0
M  V30 6598 N 608.599 6.55081 2.52613 0
M  V30 6599 H 613.439 2.975 -0.172595 0
M  V30 6600 H 610.976 1.4678 -0.0969426 0
M  V30 6601 H 612.934 3.51455 2.24801 0
M  V30 6602 H 611.564 2.37494 2.18624 0
M  V30 6603 H 610.616 3.79714 0.228292 0
M  V30 6604 H 611.928 4.96102 0.518064 0
M  V30 6605 H 611.082 5.36151 2.83948 0
M  V30 6606 H 609.821 4.11632 2.61555 0
M  V30 6607 H 608.826 5.44868 0.7348 0
M  V30 6608 H 610.051 6.71969 0.981582 0
M  V30 6609 H 607.997 5.8155 3.03538 0
M  V30 6610 H 607.914 7.26548 2.08961 0
M  V30 6611 H 609.182 7.07871 3.26402 0
M  V30 6612 N 613.412 0.11024 1.57214 0
M  V30 6613 C 614.828 -0.24638 1.57687 0
M  V30 6614 C 615.028 -1.67344 1.12241 0
M  V30 6615 O 614.084 -2.39298 0.805783 0
M  V30 6616 C 615.397 -0.0210288 3.00693 0
M  V30 6617 C 616.945 -0.0876077 3.12877 0
M  V30 6618 C 617.42 0.10994 4.57868 0
M  V30 6619 N 618.911 0.0556135 4.63167 0
M  V30 6620 C 619.646 0.183495 5.73106 0
M  V30 6621 N 619.142 0.367058 6.91827 0
M  V30 6622 N 620.935 0.123689 5.61964 0
M  V30 6623 H 613.086 1.04246 1.85058 0
M  V30 6624 H 615.349 0.40979 0.854854 0
M  V30 6625 H 615.055 0.965203 3.38196 0
M  V30 6626 H 614.929 -0.756748 3.69531 0
M  V30 6627 H 617.316 -1.06436 2.75237 0
M  V30 6628 H 617.397 0.67985 2.466 0
M  V30 6629 H 617.041 1.08362 4.96206 0
M  V30 6630 H 616.971 -0.677397 5.22225 0
M  V30 6631 H 619.462 -0.0831062 3.77809 0
M  V30 6632 H 619.775 0.455739 7.71455 0
M  V30 6633 H 618.12 0.40292 6.93831 0
M  V30 6634 H 621.311 -0.0186928 4.68096 0
M  V30 6635 H 621.484 0.226797 6.47603 0
M  V30 6636 N 614.89 -1.56749 -0.16351 0
M  V30 6637 C 616.167 -1.73321 -0.906599 0
M  V30 6638 C 616.547 -0.673779 -2.00059 0
M  V30 6639 O 615.895 0.310121 -2.26386 0
M  V30 6640 C 616.105 -3.168 -1.46419 0
M  V30 6641 C 617.453 -3.77993 -1.93407 0
M  V30 6642 O 618.477 -3.20127 -1.56196 0
M  V30 6643 O 617.336 -4.79615 -2.61976 0
M  V30 6644 H 614.43 -0.708073 -0.427272 0
M  V30 6645 H 616.976 -1.69029 -0.150727 0
M  V30 6646 H 615.748 -3.85396 -0.677189 0
M  V30 6647 H 615.371 -3.2545 -2.28403 0
M  V30 6648 N 616.368 0.432326 -1.51554 0
M  V30 6649 C 617.596 1.20364 -1.68286 0
M  V30 6650 C 618.011 1.84888 -0.38233 0
M  V30 6651 O 617.368 1.70924 0.639627 0
M  V30 6652 C 617.419 2.28398 -2.80208 0
M  V30 6653 O 617.14 1.66512 -4.05223 0
M  V30 6654 C 618.641 3.18584 -3.08251 0
M  V30 6655 H 615.861 0.36259 -0.564596 0
M  V30 6656 H 618.405 0.511647 -1.97996 0
M  V30 6657 H 616.56 2.93305 -2.53083 0
M  V30 6658 H 616.974 2.37951 -4.67418 0
M  V30 6659 H 618.448 3.90511 -3.90135 0
M  V30 6660 H 618.925 3.79628 -2.2086 0
M  V30 6661 H 619.531 2.59372 -3.37055 0
M  V30 6662 N 617.846 1.41785 0.688094 0
M  V30 6663 C 618.779 1.38643 1.81255 0
M  V30 6664 C 619.757 0.252583 1.60626 0
M  V30 6665 O 620.941 0.440691 1.83276 0
M  V30 6666 C 618.068 1.16449 3.18053 0
M  V30 6667 C 617.114 2.32651 3.57457 0
M  V30 6668 S 617.947 3.95152 3.61407 0
M  V30 6669 C 619.103 3.75275 5.00919 0
M  V30 6670 H 619.336 2.33799 1.83644 0
M  V30 6671 H 616.869 1.28398 0.857513 0
M  V30 6672 H 618.827 1.0433 3.97021 0
M  V30 6673 H 617.488 0.229002 3.13264 0
M  V30 6674 H 616.681 2.12835 4.56856 0
M  V30 6675 H 616.283 2.41215 2.85817 0
M  V30 6676 H 618.575 3.35443 5.88629 0
M  V30 6677 H 619.518 4.74302 5.25778 0
M  V30 6678 H 619.926 3.08401 4.7281 0
M  V30 6679 N 619.324 -0.923095 1.27737 0
M  V30 6680 C 620.57 -1.67375 1.14514 0
M  V30 6681 C 620.903 -1.91751 -0.307424 0
M  V30 6682 O 620.178 -1.51119 -1.22447 0
M  V30 6683 C 620.461 -3.03745 1.9342 0
M  V30 6684 C 620.314 -2.86581 3.46686 0
M  V30 6685 C 621.633 -4.04144 1.74228 0
M  V30 6686 H 618.752 -0.607427 0.417374 0
M  V30 6687 H 621.394 -1.07089 1.56946 0
M  V30 6688 H 619.544 -3.55204 1.5736 0
M  V30 6689 H 621.216 -2.42203 3.92601 0
M  V30 6690 H 619.459 -2.21829 3.72793 0
M  V30 6691 H 620.13 -3.83381 3.97143 0
M  V30 6692 H 622.606 -3.61712 2.05678 0
M  V30 6693 H 621.482 -4.97543 2.31824 0
M  V30 6694 H 621.743 -4.36661 0.691373 0
M  V30 6695 N 620.802 -1.09834 -1.13024 0
M  V30 6696 C 621.712 -0.753731 -2.22162 0
M  V30 6697 C 622.728 0.246105 -1.72251 0
M  V30 6698 O 623.904 0.0864051 -2.01215 0
M  V30 6699 C 620.969 -0.183958 -3.46212 0
M  V30 6700 C 620.03 -1.24028 -4.10993 0
M  V30 6701 C 619.263 -0.697597 -5.29121 0
M  V30 6702 O 619.486 0.478092 -5.68393 0
M  V30 6703 O 618.42 -1.4546 -5.84059 0
M  V30 6704 H 622.246 -1.66456 -2.5402 0
M  V30 6705 H 619.831 -0.873026 -1.21238 0
M  V30 6706 H 621.713 0.130257 -4.21199 0
M  V30 6707 H 620.388 0.699823 -3.16045 0
M  V30 6708 H 619.295 -1.60725 -3.37814 0
M  V30 6709 H 620.628 -2.09685 -4.45301 0
M  V30 6710 N 622.28 1.30327 -0.886154 0
M  V30 6711 C 623.557 1.90922 -0.425217 0
M  V30 6712 C 623.937 1.80533 1.09413 0
M  V30 6713 O 623.285 1.2233 1.92996 0
M  V30 6714 C 623.495 3.36529 -0.924638 0
M  V30 6715 C 624.843 4.13598 -0.960305 0
M  V30 6716 O 625.867 3.45377 -0.871382 0
M  V30 6717 O 624.726 5.35482 -1.09184 0
M  V30 6718 H 621.82 0.81668 -0.130238 0
M  V30 6719 H 624.366 1.38886 -0.975132 0
M  V30 6720 H 623.138 3.38181 -1.96849 0
M  V30 6721 H 622.761 3.96021 -0.353955 0
M  V30 6722 N 623.758 0.647228 1.43697 0
M  V30 6723 C 624.688 -0.0345631 2.33474 0
M  V30 6724 C 625.669 -0.818193 1.4913 0
M  V30 6725 O 626.854 -0.780867 1.77809 0
M  V30 6726 C 623.984 -1.00576 3.32418 0
M  V30 6727 C 622.938 -0.33266 4.26705 0
M  V30 6728 C 622.264 -1.41489 5.1564 0
M  V30 6729 C 623.564 0.771204 5.16575 0
M  V30 6730 H 625.258 0.715163 2.90733 0
M  V30 6731 H 622.804 0.345364 1.39797 0
M  V30 6732 H 624.757 -1.49159 3.94119 0
M  V30 6733 H 623.481 -1.78657 2.73403 0
M  V30 6734 H 622.14 0.13267 3.6636 0
M  V30 6735 H 621.788 -2.18698 4.52968 0
M  V30 6736 H 621.488 -0.969799 5.79542 0
M  V30 6737 H 623.012 -1.9022 5.80214 0
M  V30 6738 H 624.426 0.36779 5.72119 0
M  V30 6739 H 622.823 1.1404 5.89165 0
M  V30 6740 H 623.893 1.63169 4.56622 0
M  V30 6741 N 625.236 -1.5273 0.388769 0
M  V30 6742 C 626.482 -2.01871 -0.193877 0
M  V30 6743 C 626.815 -1.27475 -1.46505 0
M  V30 6744 O 626.09 -0.375063 -1.90849 0
M  V30 6745 C 626.373 -3.5712 -0.462336 0
M  V30 6746 C 626.226 -4.42186 0.824091 0
M  V30 6747 C 627.545 -4.21881 -1.25319 0
M  V30 6748 H 624.664 -0.733764 -0.0689899 0
M  V30 6749 H 627.306 -1.82796 0.518231 0
M  V30 6750 H 625.456 -3.73504 -1.06896 0
M  V30 6751 H 627.128 -4.37554 1.46096 0
M  V30 6752 H 625.371 -4.09219 1.43952 0
M  V30 6753 H 626.042 -5.48828 0.590905 0
M  V30 6754 H 628.518 -4.0947 -0.73981 0
M  V30 6755 H 627.394 -5.30487 -1.40977 0
M  V30 6756 H 627.655 -3.79478 -2.26824 0
M  V30 6757 N 626.714 -0.118576 -1.57153 0
M  V30 6758 C 627.96 0.540326 -1.95469 0
M  V30 6759 C 628.293 1.66356 -1.00196 0
M  V30 6760 O 627.568 1.94461 -0.039104 0
M  V30 6761 C 627.851 1.07342 -3.43729 0
M  V30 6762 C 627.704 -0.0463732 -4.49776 0
M  V30 6763 C 629.023 1.96442 -3.93826 0
M  V30 6764 H 626.142 0.19494 -0.710751 0
M  V30 6765 H 628.784 -0.19405 -1.89006 0
M  V30 6766 H 626.934 1.69925 -3.49368 0
M  V30 6767 H 628.606 -0.681648 -4.56236 0
M  V30 6768 H 626.849 -0.709574 -4.27957 0
M  V30 6769 H 627.52 0.367856 -5.50773 0
M  V30 6770 H 629.996 1.43731 -3.90488 0
M  V30 6771 H 628.872 2.3066 -4.98084 0
M  V30 6772 H 629.133 2.89077 -3.34495 0
M  V30 6773 N 628.193 1.56834 0.155195 0
M  V30 6774 C 629.123 2.00678 1.19376 0
M  V30 6775 C 630.104 0.884973 1.45266 0
M  V30 6776 O 631.289 1.1522 1.56326 0
M  V30 6777 C 628.419 2.38042 2.5289 0
M  V30 6778 C 627.373 3.53332 2.41538 0
M  V30 6779 C 626.699 3.76485 3.79688 0
M  V30 6780 C 627.999 4.86265 1.9064 0
M  V30 6781 H 629.693 2.87688 0.829232 0
M  V30 6782 H 627.239 1.38407 0.397445 0
M  V30 6783 H 629.192 2.67314 3.25763 0
M  V30 6784 H 627.916 1.4796 2.91162 0
M  V30 6785 H 626.575 3.24213 1.71117 0
M  V30 6786 H 626.223 2.83667 4.15382 0
M  V30 6787 H 625.923 4.54068 3.72956 0
M  V30 6788 H 627.447 4.08174 4.54122 0
M  V30 6789 H 628.861 5.14308 2.53299 0
M  V30 6790 H 627.258 5.67597 1.94818 0
M  V30 6791 H 628.328 4.77184 0.861596 0
M  V30 6792 N 629.671 -0.424282 1.51781 0
M  V30 6793 C 630.917 -1.17434 1.6534 0
M  V30 6794 C 631.25 -1.90549 0.374806 0
M  V30 6795 O 630.525 -1.84145 -0.626179 0
M  V30 6796 C 630.808 -2.18093 2.86544 0
M  V30 6797 C 630.661 -1.48975 4.24413 0
M  V30 6798 C 631.98 -3.18934 3.03264 0
M  V30 6799 H 629.099 -0.425566 0.601716 0
M  V30 6800 H 631.741 -0.461921 1.84299 0
M  V30 6801 H 629.891 -2.78849 2.7051 0
M  V30 6802 H 631.563 -0.914551 4.52143 0
M  V30 6803 H 629.806 -0.791893 4.26511 0
M  V30 6804 H 630.477 -2.22347 5.05238 0
M  V30 6805 H 632.953 -2.68243 3.18096 0
M  V30 6806 H 631.829 -3.86645 3.89611 0
M  V30 6807 H 632.09 -3.85793 2.15908 0
M  V30 6808 N 631.149 -1.42148 -0.680565 0
M  V30 6809 C 632.565 -1.24947 -0.992995 0
M  V30 6810 C 632.765 -0.149527 -2.00944 0
M  V30 6811 O 631.821 0.481145 -2.47873 0
M  V30 6812 C 633.134 -2.60426 -1.5033 0
M  V30 6813 C 634.682 -2.67733 -1.62137 0
M  V30 6814 C 635.157 -4.03564 -2.16565 0
M  V30 6815 N 636.648 -4.05488 -2.23905 0
M  V30 6816 C 637.383 -5.07401 -2.67081 0
M  V30 6817 N 636.879 -6.19698 -3.09751 0
M  V30 6818 N 638.672 -4.94758 -2.66778 0
M  V30 6819 H 630.823 -2.12399 -0.0074788 0
M  V30 6820 H 633.086 -0.94571 -0.0658529 0
M  V30 6821 H 632.792 -3.41743 -0.830947 0
M  V30 6822 H 632.666 -2.83949 -2.483 0
M  V30 6823 H 635.053 -1.86765 -2.2848 0
M  V30 6824 H 635.134 -2.48004 -0.626713 0
M  V30 6825 H 634.778 -4.84987 -1.50833 0
M  V30 6826 H 634.708 -4.20641 -3.1681 0
M  V30 6827 H 637.199 -3.24415 -1.93812 0
M  V30 6828 H 637.512 -6.93318 -3.41365 0
M  V30 6829 H 635.857 -6.23212 -3.07623 0
M  V30 6830 H 639.048 -4.06105 -2.32801 0
M  V30 6831 H 639.221 -5.74317 -3.00107 0
M  V30 6832 N 632.627 0.916307 -1.28225 0
M  V30 6833 C 633.875 1.6619 -1.15002 0
M  V30 6834 C 634.196 1.92642 0.302329 0
M  V30 6835 O 633.466 1.54076 1.20985 0
M  V30 6836 H 632.046 0.615964 -0.422608 0
M  V30 6837 H 634.708 1.09963 -1.60917 0
M  V30 6838 H 633.804 2.62533 -1.68769 0
M  V30 6839 N 634.105 1.10431 1.1244 0
M  V30 6840 C 635.353 0.845045 1.83585 0
M  V30 6841 C 635.674 -0.631168 1.84503 0
M  V30 6842 O 634.944 -1.45825 1.30813 0
M  V30 6843 H 633.524 0.309628 0.679809 0
M  V30 6844 H 636.186 1.39458 1.36153 0
M  V30 6845 H 635.282 1.20786 2.8778 0
M  V30 6846 N 635.583 -1.29855 0.893053 0
M  V30 6847 C 636.546 -2.26183 0.370687 0
M  V30 6848 C 637.546 -1.53108 -0.491385 0
M  V30 6849 O 638.736 -1.71643 -0.297386 0
M  V30 6850 C 635.868 -3.37633 -0.470827 0
M  V30 6851 H 637.061 -2.73903 1.22135 0
M  V30 6852 H 634.614 -1.41183 0.67061 0
M  V30 6853 H 635.349 -2.95241 -1.34175 0
M  V30 6854 H 635.134 -3.91825 0.146784 0
M  V30 6855 H 636.624 -4.09313 -0.827825 0
M  V30 6856 N 637.061 -0.65484 -1.43351 0
M  V30 6857 C 638.286 -0.175046 -2.0666 0
M  V30 6858 C 638.711 1.15104 -1.4877 0
M  V30 6859 O 638.069 1.71144 -0.598279 0
M  V30 6860 C 638.117 -0.0991544 -3.60464 0
M  V30 6861 O 637.221 0.938169 -4.01587 0
M  V30 6862 H 636.562 -0.0956148 -0.65708 0
M  V30 6863 H 639.092 -0.898222 -1.83829 0
M  V30 6864 H 639.102 0.083632 -4.07914 0
M  V30 6865 H 637.777 -1.06719 -4.01975 0
M  V30 6866 H 636.354 0.72804 -3.65724 0
M  V30 6867 N 638.539 1.52521 -0.396863 0
M  V30 6868 C 639.449 2.30403 0.44178 0
M  V30 6869 C 640.465 1.37625 1.06468 0
M  V30 6870 O 641.641 1.70697 1.06886 0
M  V30 6871 C 638.706 3.1013 1.54986 0
M  V30 6872 C 637.767 4.18628 0.951279 0
M  V30 6873 C 637 4.94543 2.00655 0
M  V30 6874 O 637.223 4.70629 3.22281 0
M  V30 6875 O 636.157 5.797 1.61962 0
M  V30 6876 H 639.983 3.03087 -0.192892 0
M  V30 6877 H 637.568 1.48537 -0.16038 0
M  V30 6878 H 639.45 3.59816 2.19341 0
M  V30 6879 H 638.125 2.40251 2.16935 0
M  V30 6880 H 637.032 3.73119 0.270773 0
M  V30 6881 H 638.365 4.90763 0.375887 0
M  V30 6882 N 640.017 0.126909 1.57088 0
M  V30 6883 C 640.967 -0.831678 2.1229 0
M  V30 6884 C 641.951 -1.22292 1.04564 0
M  V30 6885 O 643.143 -1.19269 1.30782 0
M  V30 6886 C 640.272 -2.07866 2.73215 0
M  V30 6887 C 639.358 -1.71143 3.88035 0
M  V30 6888 N 639.749 -1.05136 4.94753 0
M  V30 6889 C 638.047 -2.00549 3.98367 0
M  V30 6890 C 638.748 -0.877257 5.75047 0
M  V30 6891 N 637.724 -1.40477 5.25135 0
M  V30 6892 H 641.526 -0.317926 2.92175 0
M  V30 6893 H 639.04 -0.0753052 1.62225 0
M  V30 6894 H 641.037 -2.77516 3.11111 0
M  V30 6895 H 639.697 -2.59778 1.94796 0
M  V30 6896 H 640.708 -0.71442 5.12949 0
M  V30 6897 H 637.385 -2.54452 3.30999 0
M  V30 6898 H 638.775 -0.358536 6.70943 0
M  V30 6899 N 641.495 -1.56914 -0.146875 0
M  V30 6900 C 642.744 -1.82546 -0.857898 0
M  V30 6901 C 643.057 -0.708169 -1.8233 0
M  V30 6902 O 644.263 -0.850093 -2.57848 0
M  V30 6903 C 642.719 -3.23548 -1.57623 0
M  V30 6904 C 642.327 -4.43212 -0.653224 0
M  V30 6905 C 644.071 -3.58453 -2.27402 0
M  V30 6906 C 641.978 -5.75237 -1.37318 0
M  V30 6907 H 640.908 -0.680786 -0.32411 0
M  V30 6908 H 643.559 -1.83166 -0.110639 0
M  V30 6909 H 641.941 -3.17315 -2.36912 0
M  V30 6910 H 643.115 -4.60682 0.104452 0
M  V30 6911 H 641.43 -4.16351 -0.0638336 0
M  V30 6912 H 644.027 -4.54349 -2.81907 0
M  V30 6913 H 644.37 -2.84516 -3.03901 0
M  V30 6914 H 644.903 -3.66347 -1.55032 0
M  V30 6915 H 641.642 -6.52269 -0.650041 0
M  V30 6916 H 641.162 -5.61703 -2.10357 0
M  V30 6917 H 642.841 -6.18039 -1.91406 0
M  V30 6918 N 642.974 0.416227 -1.52004 0
M  V30 6919 C 644.202 1.18573 -1.69553 0
M  V30 6920 C 644.617 1.84472 -0.401919 0
M  V30 6921 O 643.974 1.71593 0.621463 0
M  V30 6922 C 644.025 2.25413 -2.82615 0
M  V30 6923 O 643.746 1.62205 -4.06966 0
M  V30 6924 C 645.247 3.15297 -3.11613 0
M  V30 6925 H 642.467 0.356582 -0.56841 0
M  V30 6926 H 645.011 0.490618 -1.98528 0
M  V30 6927 H 643.166 2.90604 -2.56179 0
M  V30 6928 H 643.58 2.3298 -4.69916 0
M  V30 6929 H 645.054 3.86351 -3.94255 0
M  V30 6930 H 645.531 3.77264 -2.24874 0
M  V30 6931 H 646.137 2.55783 -3.39787 0
M  V30 6932 N 644.452 1.42507 0.673017 0
M  V30 6933 C 645.68 1.46473 1.46128 0
M  V30 6934 C 646.095 0.0765912 1.88645 0
M  V30 6935 O 645.452 -0.909057 1.58248 0
M  V30 6936 C 645.503 2.39339 2.70923 0
M  V30 6937 O 645.224 3.72752 2.3019 0
M  V30 6938 C 646.725 2.52343 3.64469 0
M  V30 6939 H 643.945 0.49812 0.449575 0
M  V30 6940 H 646.489 1.87041 0.826802 0
M  V30 6941 H 644.644 2.02019 3.30556 0
M  V30 6942 H 645.058 4.22503 3.10791 0
M  V30 6943 H 646.532 3.2144 4.48754 0
M  V30 6944 H 647.009 1.56189 4.1049 0
M  V30 6945 H 647.615 2.90392 3.10729 0
M  V30 6946 N 645.93 -0.909495 1.28709 0
M  V30 6947 C 646.86 -2.0291 1.15542 0
M  V30 6948 C 647.841 -1.7002 0.0521017 0
M  V30 6949 O 649.026 -1.92835 0.229849 0
M  V30 6950 C 646.156 -3.37458 0.820935 0
M  V30 6951 C 645.11 -3.84524 1.87949 0
M  V30 6952 C 644.436 -5.16086 1.39854 0
M  V30 6953 C 645.736 -4.05918 3.28676 0
M  V30 6954 H 647.43 -2.14183 2.09203 0
M  V30 6955 H 644.976 -1.02913 1.00722 0
M  V30 6956 H 646.929 -4.1528 0.715571 0
M  V30 6957 H 645.653 -3.26249 -0.151374 0
M  V30 6958 H 644.312 -3.08911 1.97408 0
M  V30 6959 H 643.96 -5.01284 0.41518 0
M  V30 6960 H 643.66 -5.48547 2.1064 0
M  V30 6961 H 645.184 -5.96459 1.30649 0
M  V30 6962 H 646.598 -4.74252 3.22115 0
M  V30 6963 H 644.995 -4.49717 3.97334 0
M  V30 6964 H 646.065 -3.10583 3.72379 0
M  V30 6965 N 647.408 -1.11026 -1.11852 0
M  V30 6966 C 648.371 -0.768006 -2.1595 0
M  V30 6967 C 649.371 0.210538 -1.59416 0
M  V30 6968 O 650.561 -0.0133978 -1.74195 0
M  V30 6969 C 647.693 -0.138678 -3.40618 0
M  V30 6970 H 648.886 -1.69012 -2.4774 0
M  V30 6971 H 646.439 -0.911578 -1.26964 0
M  V30 6972 H 647.174 0.793872 -3.14433 0
M  V30 6973 H 646.959 -0.843012 -3.8293 0
M  V30 6974 H 648.449 0.0848039 -4.17514 0
M  V30 6975 N 648.886 1.2938 -0.899927 0
M  V30 6976 C 650.116 1.99402 -0.540601 0
M  V30 6977 C 650.524 1.67534 0.87914 0
M  V30 6978 O 649.867 0.916821 1.59186 0
M  V30 6979 C 649.929 3.53514 -0.653326 0
M  V30 6980 C 649.593 4.08937 -2.04009 0
M  V30 6981 C 650.59 4.23815 -3.01126 0
M  V30 6982 C 648.275 4.43962 -2.34953 0
M  V30 6983 C 650.269 4.72951 -4.27313 0
M  V30 6984 C 647.956 4.92795 -3.61382 0
M  V30 6985 C 648.954 5.07244 -4.57376 0
M  V30 6986 O 648.642 5.55017 -5.8156 0
M  V30 6987 H 648.374 0.64383 -0.206057 0
M  V30 6988 H 650.928 1.65878 -1.21134 0
M  V30 6989 H 649.158 3.86628 0.0744449 0
M  V30 6990 H 650.847 4.04767 -0.303118 0
M  V30 6991 H 651.613 3.97043 -2.78535 0
M  V30 6992 H 647.492 4.31974 -1.60994 0
M  V30 6993 H 651.036 4.84144 -5.02245 0
M  V30 6994 H 646.933 5.19004 -3.83804 0
M  V30 6995 H 647.701 5.73331 -5.84153 0
M  V30 6996 N 650.364 0.662433 1.43002 0
M  V30 6997 C 651.296 -0.062326 2.29115 0
M  V30 6998 C 652.309 -0.777926 1.43011 0
M  V30 6999 O 653.498 -0.634146 1.66856 0
M  V30 7000 C 650.598 -1.11163 3.2015 0
M  V30 7001 C 649.771 -0.472327 4.34842 0
M  V30 7002 C 648.83 -1.41974 5.06685 0
M  V30 7003 O 647.856 -0.924795 5.61637 0
M  V30 7004 N 649.058 -2.75345 5.11043 0
M  V30 7005 H 651.823 0.676838 2.91957 0
M  V30 7006 H 649.384 0.505907 1.53793 0
M  V30 7007 H 651.376 -1.74643 3.65078 0
M  V30 7008 H 649.946 -1.75266 2.58845 0
M  V30 7009 H 649.166 0.341751 3.92716 0
M  V30 7010 H 650.454 -0.0264381 5.08793 0
M  V30 7011 H 649.852 -3.18108 4.67786 0
M  V30 7012 H 648.409 -3.34105 5.59658 0
M  V30 7013 N 651.842 -1.52309 0.404946 0
M  V30 7014 C 652.752 -2.30634 -0.429555 0
M  V30 7015 C 653.768 -1.38187 -1.05737 0
M  V30 7016 O 654.944 -1.71261 -1.05979 0
M  V30 7017 C 652.009 -3.10947 -1.53339 0
M  V30 7018 C 651.07 -4.19126 -0.929065 0
M  V30 7019 C 650.303 -4.95601 -1.9803 0
M  V30 7020 O 650.526 -4.72331 -3.1978 0
M  V30 7021 O 649.46 -5.80551 -1.58886 0
M  V30 7022 H 653.286 -3.0298 0.208963 0
M  V30 7023 H 650.871 -1.4845 0.168255 0
M  V30 7024 H 652.753 -3.60974 -2.1743 0
M  V30 7025 H 651.428 -2.41399 -2.15658 0
M  V30 7026 H 650.335 -3.73257 -0.250982 0
M  V30 7027 H 651.668 -4.90955 -0.349855 0
M  V30 7028 N 653.32 -0.135238 -1.57019 0
M  V30 7029 C 654.25 0.805235 -2.19176 0
M  V30 7030 C 655.231 1.2656 -1.13651 0
M  V30 7031 O 656.416 1.32528 -1.4195 0
M  V30 7032 C 653.546 2.04914 -2.80406 0
M  V30 7033 C 652.5 1.72598 -3.91655 0
M  V30 7034 C 651.826 3.04154 -4.39766 0
M  V30 7035 C 653.126 0.981709 -5.12991 0
M  V30 7036 H 654.82 0.287232 -2.98019 0
M  V30 7037 H 652.366 0.136714 -1.4335 0
M  V30 7038 H 654.319 2.71178 -3.22553 0
M  V30 7039 H 653.043 2.59067 -1.98877 0
M  V30 7040 H 651.702 1.08717 -3.50109 0
M  V30 7041 H 651.35 3.56274 -3.55075 0
M  V30 7042 H 651.05 2.83299 -5.14796 0
M  V30 7043 H 652.574 3.71509 -4.84576 0
M  V30 7044 H 653.988 1.5462 -5.52056 0
M  V30 7045 H 652.385 0.873533 -5.93708 0
M  V30 7046 H 653.455 -0.0286887 -4.84892 0
M  V30 7047 N 654.798 1.5699 0.138552 0
M  V30 7048 C 656.209 1.73171 0.697754 0
M  V30 7049 C 656.56 0.750952 1.8126 0
M  V30 7050 O 655.685 -0.080549 2.1625 0
M  V30 7051 C 656.28 3.13996 1.27248 0
M  V30 7052 C 654.839 3.3175 1.77816 0
M  V30 7053 C 653.986 2.69084 0.669991 0
M  V30 7054 H 656.937 1.5846 -0.0871979 0
M  V30 7055 H 656.958 3.14463 2.14227 0
M  V30 7056 H 656.47 3.85354 0.460855 0
M  V30 7057 H 654.571 2.65403 2.61519 0
M  V30 7058 H 654.684 4.39768 1.90107 0
M  V30 7059 H 653.048 2.29782 1.09874 0
M  V30 7060 H 653.831 3.43053 -0.130329 0
M  V30 7061 N 656.276 -0.40816 1.52223 0
M  V30 7062 C 657.504 -1.17672 1.70179 0
M  V30 7063 C 657.919 -1.84257 0.411696 0
M  V30 7064 O 657.276 -1.7192 -0.612354 0
M  V30 7065 C 657.327 -2.23911 2.83806 0
M  V30 7066 O 657.048 -1.60044 4.0782 0
M  V30 7067 C 658.549 -3.1364 3.13281 0
M  V30 7068 H 655.769 -0.353562 0.570293 0
M  V30 7069 H 658.313 -0.480083 1.98785 0
M  V30 7070 H 656.468 -2.89242 2.57717 0
M  V30 7071 H 656.882 -2.30484 4.71145 0
M  V30 7072 H 658.356 -3.84255 3.96298 0
M  V30 7073 H 658.833 -3.76066 2.26872 0
M  V30 7074 H 659.439 -2.53977 3.41139 0
M  V30 7075 N 657.755 -1.42862 -0.66545 0
M  V30 7076 C 658.718 -1.46756 -1.76055 0
M  V30 7077 C 659.718 -0.353866 -1.56858 0
M  V30 7078 O 660.908 -0.615099 -1.62979 0
M  V30 7079 C 658.04 -1.30829 -3.14796 0
M  V30 7080 H 659.233 -2.44271 -1.73987 0
M  V30 7081 H 656.786 -1.29447 -0.875965 0
M  V30 7082 H 657.521 -0.342733 -3.22484 0
M  V30 7083 H 657.306 -2.11551 -3.30134 0
M  V30 7084 H 658.796 -1.36458 -3.94676 0
M  V30 7085 N 659.233 0.902656 -1.29189 0
M  V30 7086 C 660.51 1.63296 -1.07674 0
M  V30 7087 C 660.89 2.07649 0.380137 0
M  V30 7088 O 660.238 1.82997 1.36837 0
M  V30 7089 C 660.448 2.81603 -2.06158 0
M  V30 7090 C 661.796 3.52359 -2.36914 0
M  V30 7091 O 662.82 2.91767 -2.04329 0
M  V30 7092 O 661.679 4.61586 -2.92576 0
M  V30 7093 H 658.773 0.716889 -0.41231 0
M  V30 7094 H 661.319 0.950984 -1.4055 0
M  V30 7095 H 660.091 2.46004 -3.04299 0
M  V30 7096 H 659.714 3.57508 -1.73993 0
M  V30 7097 N 660.711 1.11618 1.11262 0
M  V30 7098 C 661.641 0.79846 2.19424 0
M  V30 7099 C 662.622 -0.234003 1.68483 0
M  V30 7100 O 663.807 -0.0970704 1.93957 0
M  V30 7101 C 660.937 0.242892 3.4645 0
M  V30 7102 C 659.891 1.20744 4.10615 0
M  V30 7103 C 659.217 0.512494 5.32238 0
M  V30 7104 C 660.517 2.55884 4.55325 0
M  V30 7105 H 662.211 1.70286 2.46258 0
M  V30 7106 H 659.757 0.820195 1.18359 0
M  V30 7107 H 661.71 0.00840447 4.21399 0
M  V30 7108 H 660.434 -0.696811 3.1908 0
M  V30 7109 H 659.093 1.42759 3.37662 0
M  V30 7110 H 658.741 -0.432075 5.01141 0
M  V30 7111 H 658.441 1.15583 5.7612 0
M  V30 7112 H 659.965 0.286842 6.09926 0
M  V30 7113 H 661.379 2.37946 5.21588 0
M  V30 7114 H 659.776 3.16216 5.10027 0
M  V30 7115 H 660.846 3.14968 3.68678 0
M  V30 7116 N 662.189 -1.289 0.906776 0
M  V30 7117 C 663.122 -2.25737 0.334362 0
M  V30 7118 C 664.1 -1.52745 -0.557474 0
M  V30 7119 O 665.284 -1.81673 -0.502697 0
M  V30 7120 C 662.411 -3.34642 -0.522716 0
M  V30 7121 C 661.457 -4.25424 0.302777 0
M  V30 7122 S 662.29 -5.07629 1.70508 0
M  V30 7123 C 663.446 -6.20031 0.855118 0
M  V30 7124 H 663.679 -2.73941 1.15514 0
M  V30 7125 H 661.212 -1.37233 0.707573 0
M  V30 7126 H 663.17 -3.97845 -1.01141 0
M  V30 7127 H 661.831 -2.85119 -1.31781 0
M  V30 7128 H 661.024 -5.02767 -0.352257 0
M  V30 7129 H 660.626 -3.66908 0.724873 0
M  V30 7130 H 662.918 -6.77451 0.0816418 0
M  V30 7131 H 663.861 -6.89767 1.60087 0
M  V30 7132 H 664.269 -5.63035 0.406375 0
M  V30 7133 N 663.667 -0.670007 -1.42649 0
M  V30 7134 C 664.599 0.0501746 -2.29145 0
M  V30 7135 C 665.612 0.770331 -1.43422 0
M  V30 7136 O 666.801 0.625288 -1.6719 0
M  V30 7137 C 663.901 1.09463 -3.20735 0
M  V30 7138 C 663.074 0.44926 -4.35087 0
M  V30 7139 C 662.133 1.39285 -5.07431 0
M  V30 7140 O 661.159 0.894997 -5.6212 0
M  V30 7141 N 662.361 2.72631 -5.12496 0
M  V30 7142 H 665.126 -0.692312 -2.91594 0
M  V30 7143 H 662.687 -0.514056 -1.53522 0
M  V30 7144 H 664.679 1.72705 -3.65999 0
M  V30 7145 H 663.249 1.73891 -2.59771 0
M  V30 7146 H 662.469 -0.362573 -3.92529 0
M  V30 7147 H 663.757 -0.000544776 -5.088 0
M  V30 7148 H 663.155 3.15623 -4.69467 0
M  V30 7149 H 661.712 3.31132 -5.61422 0
M  V30 7150 N 665.145 1.52092 -0.413018 0
M  V30 7151 C 666.055 2.30858 0.417318 0
M  V30 7152 C 667.071 1.38746 1.05003 0
M  V30 7153 O 668.247 1.71821 1.05069 0
M  V30 7154 C 665.312 3.11756 1.51687 0
M  V30 7155 C 664.373 4.19613 0.906825 0
M  V30 7156 C 663.606 4.96644 1.95399 0
M  V30 7157 O 663.829 4.7402 3.17271 0
M  V30 7158 O 662.763 5.81385 1.55805 0
M  V30 7159 H 666.589 3.02865 -0.225028 0
M  V30 7160 H 664.174 1.48358 -0.176126 0
M  V30 7161 H 666.056 3.62122 2.15512 0
M  V30 7162 H 664.731 2.42539 2.14375 0
M  V30 7163 H 663.638 3.73385 0.231183 0
M  V30 7164 H 664.971 4.91134 0.323814 0
M  V30 7165 N 666.623 0.143563 1.56945 0
M  V30 7166 C 667.869 -0.502787 1.97088 0
M  V30 7167 C 668.224 -1.62703 1.02691 0
M  V30 7168 O 667.517 -1.91502 0.0613323 0
M  V30 7169 C 667.711 -1.05885 3.41355 0
M  V30 7170 C 667.54 0.00998209 4.49699 0
M  V30 7171 C 666.31 0.450229 5.0329 0
M  V30 7172 C 668.508 0.800174 5.08037 0
M  V30 7173 N 666.49 1.50227 5.95235 0
M  V30 7174 C 667.861 1.70279 5.96158 0
M  V30 7175 C 669.916 0.848344 4.9062 0
M  V30 7176 C 668.619 2.64945 6.68728 0
M  V30 7177 C 670.645 1.78281 5.63888 0
M  V30 7178 C 670.007 2.67296 6.51715 0
M  V30 7179 H 666.106 -0.152891 0.766908 0
M  V30 7180 H 668.69 0.23737 1.93248 0
M  V30 7181 H 666.861 -1.76863 3.45795 0
M  V30 7182 H 668.593 -1.67154 3.68567 0
M  V30 7183 H 665.348 0.0531355 4.7357 0
M  V30 7184 H 665.772 2.02795 6.45913 0
M  V30 7185 H 670.414 0.174228 4.22441 0
M  V30 7186 H 668.132 3.33358 7.36137 0
M  V30 7187 H 671.718 1.82584 5.52408 0
M  V30 7188 H 670.598 3.38428 7.07415 0
M  V30 7189 N 668.101 -1.57061 -0.130224 0
M  V30 7190 C 669.349 -1.83893 -0.838313 0
M  V30 7191 C 669.67 -0.727046 -1.80939 0
M  V30 7192 O 668.94 0.249927 -1.94299 0
M  V30 7193 H 667.52 -0.67846 -0.312573 0
M  V30 7194 H 670.182 -1.94529 -0.120224 0
M  V30 7195 H 669.278 -2.79419 -1.39038 0
M  V30 7196 N 669.579 0.400081 -1.52437 0
M  V30 7197 C 670.856 1.15973 -1.57511 0
M  V30 7198 C 671.236 2.0798 -0.361572 0
M  V30 7199 O 670.584 2.19032 0.650929 0
M  V30 7200 C 670.794 1.92912 -2.90837 0
M  V30 7201 C 672.142 2.48662 -3.44169 0
M  V30 7202 O 673.166 2.03081 -2.92637 0
M  V30 7203 O 672.025 3.31894 -4.34176 0
M  V30 7204 H 669.119 0.530023 -0.634827 0
M  V30 7205 H 671.665 0.40613 -1.64769 0
M  V30 7206 H 670.437 1.25564 -3.70607 0
M  V30 7207 H 670.06 2.75257 -2.86913 0
M  V30 7208 N 671.057 1.43213 0.657864 0
M  V30 7209 C 672.02 1.47687 1.75275 0
M  V30 7210 C 673.02 0.362179 1.56668 0
M  V30 7211 O 674.21 0.623734 1.62651 0
M  V30 7212 C 671.342 1.32497 3.14098 0
M  V30 7213 H 672.535 2.4519 1.7269 0
M  V30 7214 H 670.088 1.2991 0.869087 0
M  V30 7215 H 670.823 0.359831 3.22298 0
M  V30 7216 H 670.608 2.13299 3.29008 0
M  V30 7217 H 672.098 1.38549 3.93946 0
M  V30 7218 N 672.536 -0.895792 1.29666 0
M  V30 7219 C 673.782 -1.64908 1.18039 0
M  V30 7220 C 674.115 -1.9236 -0.266682 0
M  V30 7221 O 673.39 -1.53682 -1.19214 0
M  V30 7222 C 673.673 -2.99574 1.99819 0
M  V30 7223 C 673.526 -2.79163 3.52687 0
M  V30 7224 C 674.845 -4.00358 1.82761 0
M  V30 7225 H 671.964 -0.598437 0.430165 0
M  V30 7226 H 674.606 -1.03736 1.59182 0
M  V30 7227 H 672.756 -3.51786 1.64859 0
M  V30 7228 H 674.428 -2.33821 3.9765 0
M  V30 7229 H 672.671 -2.13871 3.77414 0
M  V30 7230 H 673.342 -3.74871 4.05186 0
M  V30 7231 H 675.818 -3.57268 2.13304 0
M  V30 7232 H 674.694 -4.92514 2.42325 0
M  V30 7233 H 674.955 -4.35096 0.783839 0
M  V30 7234 N 674.014 -1.12206 -1.10668 0
M  V30 7235 C 674.946 -0.74552 -2.16736 0
M  V30 7236 C 675.959 0.226696 -1.61214 0
M  V30 7237 O 677.148 0.0083936 -1.78498 0
M  V30 7238 C 674.248 -0.0823368 -3.388 0
M  V30 7239 C 673.421 -1.08341 -4.2377 0
M  V30 7240 C 672.48 -0.448292 -5.24287 0
M  V30 7241 O 671.506 -1.10458 -5.58379 0
M  V30 7242 N 672.708 0.785336 -5.75163 0
M  V30 7243 H 675.473 -1.65818 -2.49649 0
M  V30 7244 H 673.034 -1.01335 -1.26265 0
M  V30 7245 H 675.026 0.354476 -4.03145 0
M  V30 7246 H 673.596 0.733041 -3.03884 0
M  V30 7247 H 672.816 -1.69792 -3.55759 0
M  V30 7248 H 674.104 -1.76042 -4.77375 0
M  V30 7249 H 673.502 1.33755 -5.4966 0
M  V30 7250 H 672.059 1.16501 -6.41304 0
M  V30 7251 N 675.492 1.28418 -0.913599 0
M  V30 7252 C 676.722 1.98817 -0.56172 0
M  V30 7253 C 677.13 1.68457 0.861321 0
M  V30 7254 O 676.473 0.933653 1.58204 0
M  V30 7255 C 676.535 3.52801 -0.690785 0
M  V30 7256 C 676.199 4.0675 -2.08334 0
M  V30 7257 C 677.196 4.20597 -3.05604 0
M  V30 7258 C 674.881 4.41445 -2.39648 0
M  V30 7259 C 676.875 4.68392 -4.32305 0
M  V30 7260 C 674.562 4.88934 -3.66588 0
M  V30 7261 C 675.56 5.02364 -4.6273 0
M  V30 7262 O 675.248 5.48817 -5.87414 0
M  V30 7263 H 674.98 0.641608 -0.212874 0
M  V30 7264 H 677.534 1.64584 -1.22887 0
M  V30 7265 H 675.764 3.86686 0.0334336 0
M  V30 7266 H 677.453 4.04422 -0.346031 0
M  V30 7267 H 678.219 3.94067 -2.8273 0
M  V30 7268 H 674.098 4.30242 -1.65567 0
M  V30 7269 H 677.642 4.7879 -5.07352 0
M  V30 7270 H 673.539 5.14904 -3.89287 0
M  V30 7271 H 674.307 5.67103 -5.90201 0
M  V30 7272 N 676.97 0.677563 1.42291 0
M  V30 7273 C 677.918 -0.0106755 2.32598 0
M  V30 7274 C 678.912 -0.787643 1.49975 0
M  V30 7275 O 680.118 -0.695295 1.66029 0
M  V30 7276 H 676.493 -0.0222482 0.751671 0
M  V30 7277 H 678.464 0.768312 2.88339 0
M  V30 7278 C 677.213 -0.946142 3.3458 0
M  V30 7279 H 676.536 -0.357701 3.98197 0
M  V30 7280 H 677.976 -1.39634 4.00348 0
M  V30 7281 C 676.435 -2.05383 2.67057 0
M  V30 7282 O 676.965 -3.1406 2.50458 0
M  V30 7283 N 675.171 -1.82635 2.26038 0
M  V30 7284 H 674.718 -0.942534 2.39737 0
M  V30 7285 H 674.676 -2.56937 1.81192 0
M  V30 7286 N 678.448 -1.51871 0.421078 0
M  V30 7287 C 679.859 -1.86644 -0.0457991 0
M  V30 7288 C 680.21 -1.33919 -1.43388 0
M  V30 7289 O 679.335 -0.683316 -2.05328 0
M  V30 7290 C 679.93 -3.38681 -0.0898844 0
M  V30 7291 C 678.489 -3.73049 -0.501127 0
M  V30 7292 C 677.636 -2.75485 0.316723 0
M  V30 7293 H 680.587 -1.45327 0.637635 0
M  V30 7294 H 680.608 -3.69636 -0.902734 0
M  V30 7295 H 680.12 -3.77025 0.920513 0
M  V30 7296 H 678.221 -3.40288 -1.51773 0
M  V30 7297 H 678.334 -4.78512 -0.237217 0
M  V30 7298 H 676.698 -2.53725 -0.222663 0
M  V30 7299 H 677.481 -3.16671 1.32569 0
M  V30 7300 N 679.926 -0.151884 -1.56866 0
M  V30 7301 C 680.889 0.771861 -2.15812 0
M  V30 7302 C 681.889 1.17181 -1.10115 0
M  V30 7303 O 683.079 1.09194 -1.35729 0
M  V30 7304 C 680.211 2.04806 -2.7252 0
M  V30 7305 H 681.404 0.259021 -2.98779 0
M  V30 7306 H 678.957 0.097588 -1.55995 0
M  V30 7307 H 679.692 2.60445 -1.93233 0
M  V30 7308 H 679.477 1.77044 -3.49854 0
M  V30 7309 H 680.967 2.70771 -3.1792 0
M  V30 7310 N 681.404 1.57128 0.121893 0
M  V30 7311 C 682.653 1.83888 0.828748 0
M  V30 7312 C 682.966 0.737087 1.81181 0
M  V30 7313 O 684.172 0.891007 2.56463 0
M  V30 7314 C 682.628 3.26014 1.52455 0
M  V30 7315 C 682.236 4.44195 0.58263 0
M  V30 7316 C 683.98 3.62025 2.21671 0
M  V30 7317 C 681.887 5.77349 1.28149 0
M  V30 7318 H 680.817 0.685856 0.313238 0
M  V30 7319 H 683.468 1.83319 0.0814851 0
M  V30 7320 H 681.85 3.21044 2.31834 0
M  V30 7321 H 683.024 4.60457 -0.177729 0
M  V30 7322 H 681.339 4.164 -0.00241228 0
M  V30 7323 H 683.936 4.58776 2.74643 0
M  V30 7324 H 684.279 2.89315 2.99337 0
M  V30 7325 H 684.812 3.68767 1.49184 0
M  V30 7326 H 681.551 6.53221 0.546189 0
M  V30 7327 H 681.071 5.64978 2.01394 0
M  V30 7328 H 682.75 6.21006 1.81549 0
M  V30 7329 N 682.882 -0.391992 1.52647 0
M  V30 7330 C 684.131 -1.13449 1.6677 0
M  V30 7331 C 684.444 -1.91203 0.412399 0
M  V30 7332 O 685.65 -2.68013 0.433707 0
M  V30 7333 C 684.106 -2.06577 2.9471 0
M  V30 7334 C 683.714 -1.3426 4.27409 0
M  V30 7335 C 685.458 -2.80981 3.18198 0
M  V30 7336 C 683.365 -2.26136 5.46458 0
M  V30 7337 H 682.295 -0.427211 0.621295 0
M  V30 7338 H 684.946 -0.397522 1.79142 0
M  V30 7339 H 683.328 -2.83898 2.76076 0
M  V30 7340 H 684.502 -0.621856 4.56585 0
M  V30 7341 H 682.817 -0.718279 4.10158 0
M  V30 7342 H 685.414 -3.49898 4.04321 0
M  V30 7343 H 685.757 -3.44891 2.33144 0
M  V30 7344 H 686.29 -2.10754 3.37383 0
M  V30 7345 H 683.029 -1.66846 6.33911 0
M  V30 7346 H 682.549 -2.96134 5.21598 0
M  V30 7347 H 684.228 -2.86286 5.80215 0
M  V30 7348 N 684.36 -1.4356 -0.65026 0
M  V30 7349 C 685.307 -1.48948 -1.76304 0
M  V30 7350 C 686.277 -0.338919 -1.62605 0
M  V30 7351 O 687.462 -0.54649 -1.82806 0
M  V30 7352 C 684.602 -1.42131 -3.14472 0
M  V30 7353 C 683.715 -2.67415 -3.39284 0
M  V30 7354 C 682.85 -2.52565 -4.67316 0
M  V30 7355 C 681.889 -3.73103 -4.85243 0
M  V30 7356 N 681.026 -3.57046 -6.04535 0
M  V30 7357 H 685.866 -2.44032 -1.71034 0
M  V30 7358 H 683.403 -1.21131 -0.834601 0
M  V30 7359 H 685.361 -1.36172 -3.94351 0
M  V30 7360 H 683.991 -0.506273 -3.18805 0
M  V30 7361 H 683.043 -2.8364 -2.53481 0
M  V30 7362 H 684.355 -3.56943 -3.48415 0
M  V30 7363 H 683.509 -2.44331 -5.55326 0
M  V30 7364 H 682.248 -1.60566 -4.60511 0
M  V30 7365 H 681.253 -3.81743 -3.95667 0
M  V30 7366 H 682.478 -4.66115 -4.93876 0
M  V30 7367 H 680.424 -2.67783 -5.98856 0
M  V30 7368 H 680.341 -4.40178 -6.14638 0
M  V30 7369 H 681.609 -3.52669 -6.95158 0
M  V30 7370 N 685.838 0.888903 -1.30139 0
M  V30 7371 C 687.084 1.6428 -1.18912 0
M  V30 7372 C 687.417 1.92499 0.256477 0
M  V30 7373 O 686.692 1.54312 1.18397 0
M  V30 7374 C 686.975 2.9851 -2.01405 0
M  V30 7375 C 686.828 2.77288 -3.54163 0
M  V30 7376 C 688.147 3.99383 -1.84882 0
M  V30 7377 H 685.266 0.596148 -0.433333 0
M  V30 7378 H 687.908 1.0289 -1.5973 0
M  V30 7379 H 686.058 3.50907 -1.66722 0
M  V30 7380 H 687.73 2.31709 -3.98884 0
M  V30 7381 H 685.973 2.11867 -3.78543 0
M  V30 7382 H 686.644 3.72717 -4.07168 0
M  V30 7383 H 689.12 3.56132 -2.15196 0
M  V30 7384 H 687.996 4.91222 -2.44934 0
M  V30 7385 H 688.257 4.34674 -0.806902 0
M  V30 7386 N 687.317 1.12792 1.10072 0
M  V30 7387 C 688.264 0.79921 2.16521 0
M  V30 7388 C 689.234 -0.235726 1.64419 0
M  V30 7389 O 690.419 -0.109457 1.90486 0
M  V30 7390 C 687.559 0.264091 3.44088 0
M  V30 7391 C 686.672 1.35729 4.10124 0
M  V30 7392 C 685.807 0.781212 5.25424 0
M  V30 7393 C 684.846 1.85327 5.8337 0
M  V30 7394 N 683.983 1.29564 6.90042 0
M  V30 7395 H 688.823 1.71105 2.43981 0
M  V30 7396 H 686.36 0.854225 1.19756 0
M  V30 7397 H 688.318 -0.0642423 4.17151 0
M  V30 7398 H 686.948 -0.610901 3.16967 0
M  V30 7399 H 686 1.80234 3.34993 0
M  V30 7400 H 687.312 2.16782 4.4923 0
M  V30 7401 H 686.466 0.403769 6.05355 0
M  V30 7402 H 685.205 -0.0604686 4.87663 0
M  V30 7403 H 684.21 2.23986 5.02106 0
M  V30 7404 H 685.435 2.69824 6.23195 0
M  V30 7405 H 683.381 0.475844 6.54272 0
M  V30 7406 H 683.298 2.04271 7.2788 0
M  V30 7407 H 684.566 0.945545 7.73744 0
M  V30 7408 N 688.795 -1.27931 0.920396 0
M  V30 7409 C 690.041 -1.94977 0.557832 0
M  V30 7410 C 690.374 -1.72224 -0.897365 0
M  V30 7411 O 689.649 -1.04705 -1.63912 0
M  V30 7412 C 689.932 -3.49289 0.875741 0
M  V30 7413 C 689.785 -3.81416 2.38416 0
M  V30 7414 C 691.104 -4.38486 0.376517 0
M  V30 7415 H 688.223 -0.708164 0.20414 0
M  V30 7416 H 690.865 -1.5118 1.15085 0
M  V30 7417 H 689.015 -3.86724 0.371062 0
M  V30 7418 H 690.687 -3.53813 2.95997 0
M  V30 7419 H 688.93 -3.28225 2.83639 0
M  V30 7420 H 689.601 -4.89198 2.55713 0
M  V30 7421 H 692.077 -4.08161 0.808945 0
M  V30 7422 H 690.953 -5.45296 0.627976 0
M  V30 7423 H 691.214 -4.36143 -0.723293 0
M  V30 7424 N 690.273 -0.685099 -1.4193 0
M  V30 7425 C 691.183 -0.013404 -2.34596 0
M  V30 7426 C 692.199 0.777589 -1.55658 0
M  V30 7427 O 693.375 0.717553 -1.88184 0
M  V30 7428 C 690.44 0.919031 -3.34297 0
M  V30 7429 C 689.501 0.121417 -4.29128 0
M  V30 7430 C 688.734 1.00944 -5.24067 0
M  V30 7431 O 688.957 2.24898 -5.24192 0
M  V30 7432 O 687.891 0.464724 -6.00103 0
M  V30 7433 H 691.717 -0.776978 -2.93593 0
M  V30 7434 H 689.302 -0.445379 -1.42607 0
M  V30 7435 H 691.184 1.45402 -3.9552 0
M  V30 7436 H 689.859 1.66228 -2.77759 0
M  V30 7437 H 688.766 -0.45792 -3.71287 0
M  V30 7438 H 690.099 -0.582937 -4.88736 0
M  V30 7439 N 691.751 1.51645 -0.429126 0
M  V30 7440 C 693.162 1.86665 0.0359003 0
M  V30 7441 C 693.513 1.34677 1.42676 0
M  V30 7442 O 692.638 0.694195 2.04963 0
M  V30 7443 C 693.233 3.38724 0.0719221 0
M  V30 7444 C 691.792 3.7331 0.481336 0
M  V30 7445 C 690.939 2.75313 -0.331329 0
M  V30 7446 H 693.89 1.44987 -0.645333 0
M  V30 7447 H 693.911 3.7011 0.883118 0
M  V30 7448 H 693.423 3.76532 -0.940495 0
M  V30 7449 H 691.524 3.41088 1.49966 0
M  V30 7450 H 691.637 4.78631 0.211837 0
M  V30 7451 H 690.001 2.53839 0.209204 0
M  V30 7452 H 690.784 3.15963 -1.34247 0
M  V30 7453 N 693.229 0.160201 1.56784 0
M  V30 7454 C 694.159 -0.770264 2.2043 0
M  V30 7455 C 695.14 -1.24736 1.15651 0
M  V30 7456 O 696.325 -1.30253 1.44041 0
M  V30 7457 C 693.455 -2.00427 2.83631 0
M  V30 7458 C 692.409 -1.66345 3.94352 0
M  V30 7459 C 691.735 -2.97119 4.4455 0
M  V30 7460 C 693.035 -0.899972 5.14488 0
M  V30 7461 H 694.729 -0.239783 2.98438 0
M  V30 7462 H 692.275 -0.113891 1.43549 0
M  V30 7463 H 694.228 -2.66012 3.26827 0
M  V30 7464 H 692.952 -2.5587 2.02973 0
M  V30 7465 H 691.611 -1.03133 3.51794 0
M  V30 7466 H 691.259 -3.5058 3.60698 0
M  V30 7467 H 690.959 -2.75073 5.19238 0
M  V30 7468 H 692.483 -3.63753 4.90425 0
M  V30 7469 H 693.897 -1.45818 5.54446 0
M  V30 7470 H 692.294 -0.778968 5.95023 0
M  V30 7471 H 693.364 0.105827 4.84785 0
M  V30 7472 N 694.707 -1.5719 -0.113559 0
M  V30 7473 C 695.937 -1.89053 -0.833212 0
M  V30 7474 C 696.345 -0.750139 -1.73694 0
M  V30 7475 O 695.688 0.287808 -1.81431 0
M  V30 7476 C 695.75 -3.15986 -1.71443 0
M  V30 7477 C 695.414 -4.46271 -0.984449 0
M  V30 7478 C 696.411 -5.18897 -0.322741 0
M  V30 7479 C 694.096 -4.92963 -0.964011 0
M  V30 7480 C 696.09 -6.3644 0.349646 0
M  V30 7481 C 693.777 -6.10422 -0.287828 0
M  V30 7482 C 694.775 -6.82009 0.36784 0
M  V30 7483 O 694.463 -7.97233 1.03322 0
M  V30 7484 H 694.195 -0.630225 -0.244526 0
M  V30 7485 H 696.749 -2.05152 -0.100847 0
M  V30 7486 H 694.979 -2.95984 -2.48858 0
M  V30 7487 H 696.668 -3.33826 -2.309 0
M  V30 7488 H 697.434 -4.83875 -0.330114 0
M  V30 7489 H 693.313 -4.37143 -1.46379 0
M  V30 7490 H 696.857 -6.92254 0.861996 0
M  V30 7491 H 692.754 -6.449 -0.278237 0
M  V30 7492 H 693.522 -8.13105 0.938247 0
M  V30 7493 N 696.185 0.383891 -1.52853 0
M  V30 7494 C 697.095 1.49343 -1.80925 0
M  V30 7495 C 698.111 1.59458 -0.696348 0
M  V30 7496 O 699.287 1.75698 -0.984481 0
M  V30 7497 C 696.352 2.84819 -1.97684 0
M  V30 7498 C 695.413 2.84382 -3.21598 0
M  V30 7499 C 694.646 4.13397 -3.37548 0
M  V30 7500 O 694.869 5.08619 -2.58192 0
M  V30 7501 O 693.803 4.20325 -4.30826 0
M  V30 7502 H 697.629 1.2855 -2.75152 0
M  V30 7503 H 695.214 0.572229 -1.38007 0
M  V30 7504 H 697.096 3.65125 -2.10385 0
M  V30 7505 H 695.771 3.05627 -1.06647 0
M  V30 7506 H 694.678 2.0284 -3.14336 0
M  V30 7507 H 696.011 2.68526 -4.12498 0
M  V30 7508 N 697.663 1.43903 0.642637 0
M  V30 7509 C 698.593 1.52697 1.76652 0
M  V30 7510 C 699.574 0.380816 1.65782 0
M  V30 7511 O 700.759 0.599432 1.84717 0
M  V30 7512 C 697.889 1.45975 3.15133 0
M  V30 7513 C 696.843 2.58949 3.40778 0
M  V30 7514 C 696.169 2.37279 4.79169 0
M  V30 7515 C 697.469 4.01153 3.34475 0
M  V30 7516 H 699.163 2.46766 1.69549 0
M  V30 7517 H 696.709 1.18767 0.814279 0
M  V30 7518 H 698.662 1.5073 3.93521 0
M  V30 7519 H 697.386 0.484162 3.22991 0
M  V30 7520 H 696.045 2.53564 2.64765 0
M  V30 7521 H 695.693 1.37939 4.83717 0
M  V30 7522 H 695.393 3.13016 4.97287 0
M  V30 7523 H 696.917 2.43834 5.59801 0
M  V30 7524 H 698.331 4.07968 4.02784 0
M  V30 7525 H 696.728 4.77001 3.64129 0
M  V30 7526 H 697.798 4.25539 2.32475 0
M  V30 7527 N 699.141 -0.881989 1.30609 0
M  V30 7528 C 700.387 -1.63647 1.19781 0
M  V30 7529 C 700.72 -1.92632 -0.246265 0
M  V30 7530 O 699.995 -1.54938 -1.17577 0
M  V30 7531 C 700.278 -2.97437 2.02985 0
M  V30 7532 C 700.131 -2.75406 3.55628 0
M  V30 7533 C 701.45 -3.98397 1.86997 0
M  V30 7534 H 698.569 -0.593841 0.436488 0
M  V30 7535 H 701.211 -1.02041 1.60273 0
M  V30 7536 H 699.361 -3.50018 1.68581 0
M  V30 7537 H 701.033 -2.2959 4.00107 0
M  V30 7538 H 699.276 -2.09856 3.79662 0
M  V30 7539 H 699.947 -3.70552 4.09139 0
M  V30 7540 H 702.423 -3.54986 2.17081 0
M  V30 7541 H 701.299 -4.89916 2.47536 0
M  V30 7542 H 701.56 -4.3424 0.829943 0
M  V30 7543 N 700.619 -1.13374 -1.09472 0
M  V30 7544 C 701.847 -0.918351 -1.85402 0
M  V30 7545 C 702.262 0.53281 -1.81126 0
M  V30 7546 O 701.619 1.36879 -1.20708 0
M  V30 7547 C 701.67 -1.39743 -3.33398 0
M  V30 7548 O 701.391 -2.79172 -3.37631 0
M  V30 7549 C 702.892 -1.22042 -4.2617 0
M  V30 7550 H 700.112 -0.327511 -0.585643 0
M  V30 7551 H 702.656 -1.50617 -1.38328 0
M  V30 7552 H 700.811 -0.852619 -3.77901 0
M  V30 7553 H 701.225 -3.00428 -4.29934 0
M  V30 7554 H 702.699 -1.60438 -5.2817 0
M  V30 7555 H 703.176 -0.162047 -4.38901 0
M  V30 7556 H 703.782 -1.75323 -3.87482 0
M  V30 7557 N 702.098 1.27442 -0.927168 0
M  V30 7558 C 703.061 2.2512 -0.430525 0
M  V30 7559 C 704.061 1.54357 0.450619 0
M  V30 7560 O 705.251 1.72371 0.251774 0
M  V30 7561 C 702.383 3.38763 0.381144 0
M  V30 7562 H 703.576 2.70569 -1.29354 0
M  V30 7563 H 701.129 1.39355 -0.707806 0
M  V30 7564 H 701.864 2.98695 1.263 0
M  V30 7565 H 701.649 3.91298 -0.250618 0
M  V30 7566 H 703.139 4.11364 0.719012 0
M  V30 7567 N 703.576 0.692616 1.41565 0
M  V30 7568 C 704.804 0.231279 2.05603 0
M  V30 7569 C 705.219 -1.11837 1.52111 0
M  V30 7570 O 704.576 -1.6983 0.66813 0
M  V30 7571 C 704.627 0.177125 3.61066 0
M  V30 7572 O 704.348 1.47346 4.12578 0
M  V30 7573 C 705.849 -0.30556 4.42246 0
M  V30 7574 H 703.069 0.108238 0.662213 0
M  V30 7575 H 705.613 0.944369 1.81389 0
M  V30 7576 H 703.768 -0.486769 3.8433 0
M  V30 7577 H 704.182 1.35861 5.06599 0
M  V30 7578 H 705.656 -0.29233 5.51225 0
M  V30 7579 H 706.133 -1.34393 4.18133 0
M  V30 7580 H 706.739 0.327229 4.24039 0
M  V30 7581 N 705.054 -1.51416 0.437162 0
M  V30 7582 C 706.331 -1.94682 -0.189292 0
M  V30 7583 C 706.711 -1.37581 -1.60108 0
M  V30 7584 O 706.059 -0.562815 -2.2146 0
M  V30 7585 C 706.269 -3.48599 -0.167201 0
M  V30 7586 C 707.617 -4.2296 -0.372856 0
M  V30 7587 O 708.641 -3.55354 -0.245323 0
M  V30 7588 O 707.5 -5.42895 -0.626693 0
M  V30 7589 H 704.594 -0.816708 -0.130063 0
M  V30 7590 H 707.14 -1.62316 0.495128 0
M  V30 7591 H 705.912 -3.82616 0.81981 0
M  V30 7592 H 705.535 -3.87406 -0.894537 0
M  V30 7593 N 706.532 -0.168513 -1.56696 0
M  V30 7594 C 707.779 0.477158 -1.96798 0
M  V30 7595 C 708.107 1.63442 -1.05437 0
M  V30 7596 O 707.362 1.95503 -0.0878903 0
M  V30 7597 C 707.661 1.00441 -3.42996 0
M  V30 7598 C 707.327 -0.0366556 -4.50885 0
M  V30 7599 C 705.989 -0.322785 -4.80116 0
M  V30 7600 C 708.341 -0.743447 -5.1587 0
M  V30 7601 C 705.669 -1.32114 -5.71632 0
M  V30 7602 C 708.021 -1.73077 -6.08463 0
M  V30 7603 C 706.685 -2.02437 -6.36062 0
M  V30 7604 H 705.955 0.174604 -0.720135 0
M  V30 7605 H 708.602 -0.259884 -1.89728 0
M  V30 7606 H 706.907 1.81922 -3.47004 0
M  V30 7607 H 708.604 1.51294 -3.71364 0
M  V30 7608 H 705.194 0.196532 -4.28149 0
M  V30 7609 H 709.378 -0.535602 -4.93401 0
M  V30 7610 H 704.634 -1.55482 -5.913 0
M  V30 7611 H 708.808 -2.28382 -6.57886 0
M  V30 7612 H 706.435 -2.79946 -7.06777 0
M  V30 7613 N 708.01 1.57248 0.105221 0
M  V30 7614 C 708.973 2.00388 1.11252 0
M  V30 7615 C 709.973 0.89594 1.33527 0
M  V30 7616 O 711.163 1.16166 1.29811 0
M  V30 7617 C 708.295 2.35589 2.46395 0
M  V30 7618 H 709.488 2.90591 0.741424 0
M  V30 7619 H 707.041 1.52332 0.349956 0
M  V30 7620 H 707.776 1.4831 2.884 0
M  V30 7621 H 707.561 3.16408 2.31578 0
M  V30 7622 H 709.051 2.69658 3.18864 0
M  V30 7623 N 709.488 -0.375779 1.53054 0
M  V30 7624 C 710.718 -1.1387 1.72386 0
M  V30 7625 C 711.126 -1.8382 0.447966 0
M  V30 7626 O 710.469 -1.74027 -0.588244 0
M  V30 7627 C 710.531 -2.22047 2.82728 0
M  V30 7628 C 710.195 -1.71951 4.23417 0
M  V30 7629 C 711.192 -1.18909 5.06119 0
M  V30 7630 C 708.877 -1.77773 4.69789 0
M  V30 7631 C 710.871 -0.723529 6.3328 0
M  V30 7632 C 708.558 -1.30829 5.96931 0
M  V30 7633 C 709.556 -0.782077 6.78508 0
M  V30 7634 O 709.244 -0.319529 8.03265 0
M  V30 7635 H 708.976 -0.346835 0.580242 0
M  V30 7636 H 711.53 -0.443748 2.00549 0
M  V30 7637 H 709.76 -2.95006 2.50017 0
M  V30 7638 H 711.449 -2.83654 2.90336 0
M  V30 7639 H 712.215 -1.13758 4.7147 0
M  V30 7640 H 708.094 -2.17673 4.06373 0
M  V30 7641 H 711.638 -0.312126 6.96901 0
M  V30 7642 H 707.535 -1.3567 6.31081 0
M  V30 7643 H 708.303 -0.439796 8.17318 0
M  V30 7644 N 710.966 -1.44241 -0.634997 0
M  V30 7645 C 712.191 -1.50516 -1.42687 0
M  V30 7646 C 712.616 -0.129864 -1.87651 0
M  V30 7647 O 711.974 0.880164 -1.58502 0
M  V30 7648 C 712.022 -2.4714 -2.62591 0
M  V30 7649 O 711.126 -1.97025 -3.62291 0
M  V30 7650 H 710.467 -0.50841 -0.427101 0
M  V30 7651 H 712.997 -1.89337 -0.775408 0
M  V30 7652 H 713.007 -2.65048 -3.10183 0
M  V30 7653 H 711.682 -3.47039 -2.29209 0
M  V30 7654 H 710.259 -1.88866 -3.21534 0
M  V30 7655 N 712.444 0.87505 -1.31075 0
M  V30 7656 C 713.669 1.66583 -1.23551 0
M  V30 7657 C 714.094 1.87067 0.19686 0
M  V30 7658 O 713.452 1.40877 1.1412 0
M  V30 7659 C 713.5 3.01401 -1.97965 0
M  V30 7660 O 712.604 3.90923 -1.31351 0
M  V30 7661 H 711.945 0.508645 -0.426821 0
M  V30 7662 H 714.475 1.09139 -1.7306 0
M  V30 7663 H 714.485 3.51374 -2.07366 0
M  V30 7664 H 713.16 2.85812 -3.02133 0
M  V30 7665 H 711.737 3.49369 -1.30368 0
M  V30 7666 N 713.922 1.13953 1.08869 0
M  V30 7667 C 715.15 0.92817 1.84912 0
M  V30 7668 C 715.565 -0.523197 1.81406 0
M  V30 7669 O 714.922 -1.36237 1.21432 0
M  V30 7670 C 714.973 1.41509 3.32652 0
M  V30 7671 O 714.694 2.80959 3.36145 0
M  V30 7672 C 716.195 1.243 4.25517 0
M  V30 7673 H 713.415 0.330612 0.583898 0
M  V30 7674 H 715.959 1.51349 1.37527 0
M  V30 7675 H 714.114 0.872648 3.77444 0
M  V30 7676 H 714.528 3.02704 4.28335 0
M  V30 7677 H 716.002 1.63237 5.27312 0
M  V30 7678 H 716.479 0.18532 4.38809 0
M  V30 7679 H 717.085 1.77375 3.86546 0
M  V30 7680 N 715.4 -1.26948 0.933913 0
M  V30 7681 C 716.646 -1.94374 0.57848 0
M  V30 7682 C 716.979 -1.73166 -0.879048 0
M  V30 7683 O 716.254 -1.06438 -1.62792 0
M  V30 7684 C 716.537 -3.4834 0.912739 0
M  V30 7685 C 716.39 -3.78866 2.42448 0
M  V30 7686 C 717.709 -4.38062 0.423003 0
M  V30 7687 H 714.828 -0.705959 0.211639 0
M  V30 7688 H 717.47 -1.49951 1.16682 0
M  V30 7689 H 715.62 -3.86309 0.412058 0
M  V30 7690 H 717.292 -3.50654 2.99733 0
M  V30 7691 H 715.535 -3.25198 2.87104 0
M  V30 7692 H 716.206 -4.86458 2.60887 0
M  V30 7693 H 718.682 -4.0728 0.852191 0
M  V30 7694 H 717.558 -5.44599 0.685776 0
M  V30 7695 H 717.819 -4.36886 -0.676994 0
M  V30 7696 N 716.879 -0.700114 -1.41195 0
M  V30 7697 C 718.295 -0.372114 -1.55201 0
M  V30 7698 C 718.495 1.12053 -1.6747 0
M  V30 7699 O 717.551 1.90642 -1.65566 0
M  V30 7700 C 718.864 -1.12462 -2.78878 0
M  V30 7701 C 720.412 -1.10941 -2.92679 0
M  V30 7702 C 720.887 -1.84376 -4.19249 0
M  V30 7703 N 722.378 -1.81368 -4.26216 0
M  V30 7704 C 723.113 -2.35024 -5.23021 0
M  V30 7705 N 722.609 -2.9717 -6.25829 0
M  V30 7706 N 724.402 -2.25254 -5.14992 0
M  V30 7707 H 716.553 -1.66816 -1.31477 0
M  V30 7708 H 718.816 -0.704223 -0.634644 0
M  V30 7709 H 718.522 -2.17937 -2.76037 0
M  V30 7710 H 718.396 -0.706152 -3.70531 0
M  V30 7711 H 720.783 -0.062911 -2.95033 0
M  V30 7712 H 720.864 -1.56698 -2.02187 0
M  V30 7713 H 720.508 -2.89008 -4.17656 0
M  V30 7714 H 720.438 -1.3605 -5.08722 0
M  V30 7715 H 722.929 -1.36062 -3.52556 0
M  V30 7716 H 723.242 -3.35668 -6.96094 0
M  V30 7717 H 721.587 -3.01249 -6.26318 0
M  V30 7718 H 724.778 -1.76372 -4.33602 0
M  V30 7719 H 724.951 -2.67373 -5.90268 0
M  V30 7720 N 718.357 1.51182 -0.445186 0
M  V30 7721 C 719.289 2.25714 0.398206 0
M  V30 7722 C 720.302 1.30032 0.979562 0
M  V30 7723 O 721.491 1.55731 0.872368 0
M  V30 7724 C 718.591 3.00348 1.56985 0
M  V30 7725 C 717.764 4.23187 1.10596 0
M  V30 7726 C 716.823 4.80334 2.14863 0
M  V30 7727 O 715.849 5.4196 1.73977 0
M  V30 7728 N 717.051 4.65053 3.47427 0
M  V30 7729 H 719.816 2.98732 -0.240629 0
M  V30 7730 H 717.377 1.59556 -0.274507 0
M  V30 7731 H 719.369 3.35464 2.26376 0
M  V30 7732 H 717.939 2.30291 2.11387 0
M  V30 7733 H 717.159 3.93476 0.238832 0
M  V30 7734 H 718.447 5.02886 0.773537 0
M  V30 7735 H 717.845 4.15984 3.83372 0
M  V30 7736 H 716.402 5.04509 4.12691 0
M  V30 7737 N 719.835 0.176821 1.56605 0
M  V30 7738 C 720.783 -0.768159 2.1955 0
M  V30 7739 C 721.777 -1.23343 1.16116 0
M  V30 7740 O 722.983 -1.19844 1.34303 0
M  V30 7741 H 719.358 -0.266013 0.703378 0
M  V30 7742 H 721.329 -0.213374 2.97636 0
M  V30 7743 C 720.078 -1.98492 2.85475 0
M  V30 7744 H 719.401 -1.63595 3.64797 0
M  V30 7745 H 720.841 -2.62489 3.3298 0
M  V30 7746 C 719.3 -2.81207 1.85538 0
M  V30 7747 O 719.83 -3.7854 1.34427 0
M  V30 7748 N 718.036 -2.46331 1.54173 0
M  V30 7749 H 717.583 -1.67241 1.95929 0
M  V30 7750 H 717.541 -3.01961 0.875595 0
M  V30 7751 N 721.313 -1.57302 -0.09688 0
M  V30 7752 C 722.246 -1.97179 -1.14872 0
M  V30 7753 C 723.224 -0.844734 -1.38935 0
M  V30 7754 O 724.408 -1.10487 -1.52725 0
M  V30 7755 C 721.535 -2.28703 -2.49826 0
M  V30 7756 C 720.581 -3.51158 -2.42054 0
M  V30 7757 S 721.414 -5.0294 -1.83879 0
M  V30 7758 C 722.57 -5.37639 -3.2046 0
M  V30 7759 H 722.803 -2.86088 -0.808771 0
M  V30 7760 H 720.336 -1.51368 -0.304492 0
M  V30 7761 H 722.294 -2.47541 -3.27466 0
M  V30 7762 H 720.955 -1.40368 -2.8099 0
M  V30 7763 H 720.148 -3.70651 -3.41517 0
M  V30 7764 H 719.75 -3.31821 -1.72543 0
M  V30 7765 H 722.042 -5.34175 -4.16729 0
M  V30 7766 H 722.985 -6.38677 -3.05773 0
M  V30 7767 H 723.393 -4.651 -3.19909 0
M  V30 7768 N 722.791 0.367657 -1.53252 0
M  V30 7769 C 723.738 1.45028 -1.79543 0
M  V30 7770 C 724.708 1.53288 -0.63969 0
M  V30 7771 O 725.893 1.69209 -0.881653 0
M  V30 7772 C 723.033 2.82 -1.98923 0
M  V30 7773 C 722.146 2.82722 -3.26638 0
M  V30 7774 C 721.281 4.11257 -3.36216 0
M  V30 7775 C 720.32 4.06113 -4.57972 0
M  V30 7776 N 719.457 5.26293 -4.64715 0
M  V30 7777 H 724.297 1.21908 -2.71923 0
M  V30 7778 H 721.834 0.591011 -1.34705 0
M  V30 7779 H 723.792 3.61568 -2.08146 0
M  V30 7780 H 722.422 3.03523 -1.09881 0
M  V30 7781 H 721.474 1.95399 -3.26379 0
M  V30 7782 H 722.786 2.74794 -4.16281 0
M  V30 7783 H 721.94 4.99239 -3.44739 0
M  V30 7784 H 720.679 4.21935 -2.44586 0
M  V30 7785 H 719.684 3.16517 -4.49552 0
M  V30 7786 H 720.909 3.97039 -5.50942 0
M  V30 7787 H 718.855 5.37561 -3.75985 0
M  V30 7788 H 718.772 5.20526 -5.4826 0
M  V30 7789 H 720.04 6.16113 -4.77519 0
M  V30 7790 N 724.269 1.44576 0.627338 0
M  V30 7791 C 725.201 1.47724 1.75243 0
M  V30 7792 C 726.214 0.370193 1.58535 0
M  V30 7793 O 727.403 0.636151 1.66779 0
M  V30 7794 C 724.503 1.2991 3.13012 0
M  V30 7795 C 723.676 2.5393 3.56143 0
M  V30 7796 C 722.735 2.30961 4.72804 0
M  V30 7797 O 721.761 3.04469 4.80923 0
M  V30 7798 N 722.963 1.34261 5.6476 0
M  V30 7799 H 725.728 2.44718 1.73012 0
M  V30 7800 H 723.289 1.40064 0.812022 0
M  V30 7801 H 725.281 1.12385 3.88782 0
M  V30 7802 H 723.851 0.412668 3.09864 0
M  V30 7803 H 723.071 2.86707 2.70542 0
M  V30 7804 H 724.359 3.36411 3.81713 0
M  V30 7805 H 723.757 0.735573 5.60897 0
M  V30 7806 H 722.314 1.22713 6.40144 0
M  V30 7807 N 725.747 -0.868086 1.31537 0
M  V30 7808 C 726.71 -1.95703 1.19302 0
M  V30 7809 C 727.71 -1.60355 0.119612 0
M  V30 7810 O 728.9 -1.70247 0.36902 0
M  V30 7811 C 726.032 -3.30599 0.831684 0
M  V30 7812 H 727.225 -2.07982 2.16064 0
M  V30 7813 H 724.778 -1.05661 1.15176 0
M  V30 7814 H 725.513 -3.2402 -0.134694 0
M  V30 7815 H 725.298 -3.57629 1.60761 0
M  V30 7816 H 726.788 -4.10439 0.770026 0
M  V30 7817 N 727.225 -1.14528 -1.08264 0
M  V30 7818 C 728.155 -0.856356 -2.1723 0
M  V30 7819 C 729.136 0.189251 -1.69044 0
M  V30 7820 O 730.321 0.0456119 -1.94146 0
M  V30 7821 C 727.451 -0.334662 -3.45684 0
M  V30 7822 C 726.405 -1.31588 -4.0727 0
M  V30 7823 C 725.731 -0.653428 -5.30692 0
M  V30 7824 C 727.031 -2.67866 -4.48381 0
M  V30 7825 H 728.725 -1.76755 -2.41657 0
M  V30 7826 H 726.271 -0.851287 -1.16143 0
M  V30 7827 H 728.224 -0.120128 -4.21229 0
M  V30 7828 H 726.948 0.611967 -3.20815 0
M  V30 7829 H 725.607 -1.51661 -3.33758 0
M  V30 7830 H 725.255 0.299054 -5.0211 0
M  V30 7831 H 724.955 -1.30817 -5.72853 0
M  V30 7832 H 726.479 -0.448453 -6.08951 0
M  V30 7833 H 727.893 -2.51692 -5.15096 0
M  V30 7834 H 726.29 -3.29627 -5.01464 0
M  V30 7835 H 727.36 -3.24632 -3.60198 0
M  V30 7836 N 728.703 1.26451 -0.940633 0
M  V30 7837 C 729.613 2.30128 -0.455881 0
M  V30 7838 C 730.629 1.67536 0.469867 0
M  V30 7839 O 731.805 1.98344 0.349529 0
M  V30 7840 C 728.87 3.45634 0.271648 0
M  V30 7841 C 727.931 4.23709 -0.690594 0
M  V30 7842 C 727.164 5.337 0.00231047 0
M  V30 7843 O 727.387 5.57215 1.21935 0
M  V30 7844 O 726.321 5.98091 -0.676111 0
M  V30 7845 H 730.147 2.73655 -1.31707 0
M  V30 7846 H 727.732 1.3164 -0.706497 0
M  V30 7847 H 729.614 4.15853 0.681486 0
M  V30 7848 H 728.289 3.04138 1.10824 0
M  V30 7849 H 727.196 3.55974 -1.15037 0
M  V30 7850 H 728.529 4.68953 -1.49478 0
M  V30 7851 N 730.181 0.707592 1.40822 0
M  V30 7852 C 731.091 0.0507246 2.34545 0
M  V30 7853 C 732.107 -0.752727 1.56876 0
M  V30 7854 O 733.283 -0.687524 1.89302 0
M  V30 7855 C 730.348 -0.865731 3.35717 0
M  V30 7856 C 729.409 -0.0531313 4.29267 0
M  V30 7857 C 728.642 -0.925939 5.25606 0
M  V30 7858 O 728.865 -2.16531 5.27703 0
M  V30 7859 O 727.799 -0.369194 6.00767 0
M  V30 7860 H 731.625 0.823587 2.9232 0
M  V30 7861 H 729.21 0.46801 1.4188 0
M  V30 7862 H 731.092 -1.39091 3.97783 0
M  V30 7863 H 729.767 -1.61788 2.80368 0
M  V30 7864 H 728.674 0.516931 3.70511 0
M  V30 7865 H 730.007 0.660617 4.87747 0
M  V30 7866 N 731.66 -1.50943 0.453197 0
M  V30 7867 C 732.907 -2.02212 -0.107922 0
M  V30 7868 C 733.235 -1.33639 -1.41318 0
M  V30 7869 O 732.49 -0.445154 -1.9057 0
M  V30 7870 C 732.789 -3.55603 -0.357944 0
M  V30 7871 C 732.455 -4.42556 0.863427 0
M  V30 7872 C 731.117 -4.6604 1.19834 0
M  V30 7873 C 733.469 -4.93468 1.67747 0
M  V30 7874 C 730.797 -5.37681 2.34768 0
M  V30 7875 C 733.149 -5.6637 2.81793 0
M  V30 7876 C 731.813 -5.88113 3.1572 0
M  V30 7877 H 731.083 -0.739947 -0.0394916 0
M  V30 7878 H 733.73 -1.81738 0.60363 0
M  V30 7879 H 732.035 -3.74495 -1.15156 0
M  V30 7880 H 733.732 -3.92821 -0.805781 0
M  V30 7881 H 730.322 -4.24485 0.592478 0
M  V30 7882 H 734.506 -4.75194 1.43192 0
M  V30 7883 H 729.762 -5.52727 2.61348 0
M  V30 7884 H 733.936 -6.04806 3.45229 0
M  V30 7885 H 731.563 -6.43404 4.04889 0
M  V30 7886 N 733.138 -0.185124 -1.56509 0
M  V30 7887 C 734.07 0.771401 -2.15829 0
M  V30 7888 C 735.083 1.18392 -1.11747 0
M  V30 7889 O 736.272 1.12137 -1.38879 0
M  V30 7890 C 733.372 2.05169 -2.69739 0
M  V30 7891 C 732.545 1.80056 -3.98621 0
M  V30 7892 C 731.604 2.92435 -4.37456 0
M  V30 7893 O 730.63 2.62473 -5.05071 0
M  V30 7894 N 731.832 4.20554 -4.00143 0
M  V30 7895 H 734.597 0.264184 -2.98533 0
M  V30 7896 H 732.158 -0.00281069 -1.619 0
M  V30 7897 H 734.15 2.7947 -2.92709 0
M  V30 7898 H 732.72 2.47041 -1.91545 0
M  V30 7899 H 731.94 0.895862 -3.83885 0
M  V30 7900 H 733.228 1.60662 -4.82768 0
M  V30 7901 H 732.626 4.47753 -3.45736 0
M  V30 7902 H 731.183 4.91514 -4.28085 0
M  V30 7903 N 734.616 1.57351 0.0885366 0
M  V30 7904 C 735.563 2.02523 1.10693 0
M  V30 7905 C 736.533 0.902736 1.39427 0
M  V30 7906 O 737.718 1.16921 1.50779 0
M  V30 7907 C 734.858 2.46013 2.42016 0
M  V30 7908 C 733.971 3.7181 2.19957 0
M  V30 7909 C 733.106 4.04152 3.44724 0
M  V30 7910 C 732.145 5.2304 3.17956 0
M  V30 7911 N 731.282 5.51102 4.35007 0
M  V30 7912 H 736.122 2.89302 0.714742 0
M  V30 7913 H 733.659 1.43084 0.341378 0
M  V30 7914 H 735.617 2.69274 3.18665 0
M  V30 7915 H 734.247 1.62235 2.79069 0
M  V30 7916 H 733.299 3.55987 1.34079 0
M  V30 7917 H 734.611 4.58604 1.96173 0
M  V30 7918 H 733.765 4.28225 4.29777 0
M  V30 7919 H 732.504 3.15893 3.71568 0
M  V30 7920 H 731.509 4.98781 2.31296 0
M  V30 7921 H 732.734 6.12902 2.92451 0
M  V30 7922 H 730.68 4.65802 4.61914 0
M  V30 7923 H 730.597 6.3228 4.14437 0
M  V30 7924 H 731.865 5.79714 5.21106 0
M  V30 7925 N 736.094 -0.359525 1.53444 0
M  V30 7926 C 737.004 -1.46445 1.83278 0
M  V30 7927 C 738.02 -1.5833 0.721629 0
M  V30 7928 O 739.196 -1.7411 1.01231 0
M  V30 7929 C 736.261 -2.81638 2.02191 0
M  V30 7930 C 735.322 -2.7923 3.26082 0
M  V30 7931 C 734.555 -4.07974 3.44082 0
M  V30 7932 O 734.778 -5.04447 2.66251 0
M  V30 7933 O 733.712 -4.13417 4.37458 0
M  V30 7934 H 737.538 -1.24156 2.77162 0
M  V30 7935 H 735.123 -0.550201 1.389 0
M  V30 7936 H 737.005 -3.61732 2.16167 0
M  V30 7937 H 735.68 -3.03892 1.11496 0
M  V30 7938 H 734.587 -1.97813 3.17523 0
M  V30 7939 H 735.92 -2.6193 4.16718 0
M  V30 7940 N 737.572 -1.44907 -0.619662 0
M  V30 7941 C 738.818 -1.48512 -1.38102 0
M  V30 7942 C 739.151 -0.121686 -1.93818 0
M  V30 7943 O 738.426 0.862256 -1.74343 0
M  V30 7944 C 738.709 -2.55469 -2.53787 0
M  V30 7945 C 738.562 -4.01212 -2.03345 0
M  V30 7946 C 739.881 -2.58821 -3.55949 0
M  V30 7947 H 737 -0.540712 -0.500799 0
M  V30 7948 H 739.642 -1.7665 -0.69962 0
M  V30 7949 H 737.792 -2.31606 -3.11915 0
M  V30 7950 H 739.464 -4.36245 -1.49959 0
M  V30 7951 H 737.707 -4.12443 -1.34438 0
M  V30 7952 H 738.378 -4.71717 -2.86683 0
M  V30 7953 H 740.854 -2.80172 -3.07641 0
M  V30 7954 H 739.73 -3.35542 -4.34399 0
M  V30 7955 H 739.991 -1.63451 -4.10775 0
M  V30 7956 N 739.05 0.861098 -1.31996 0
M  V30 7957 C 740.275 1.65264 -1.2531 0
M  V30 7958 C 740.7 1.87265 0.177007 0
M  V30 7959 O 740.058 1.4208 1.12619 0
M  V30 7960 C 740.106 2.99284 -2.0115 0
M  V30 7961 O 739.21 3.89508 -1.3549 0
M  V30 7962 H 738.551 0.50409 -0.432192 0
M  V30 7963 H 741.081 1.07297 -1.74208 0
M  V30 7964 H 741.091 3.49154 -2.11081 0
M  V30 7965 H 739.766 2.82591 -3.05148 0
M  V30 7966 H 738.343 3.47966 -1.34066 0
M  V30 7967 N 740.528 1.15101 1.07655 0
M  V30 7968 C 741.753 0.948177 1.84457 0
M  V30 7969 C 742.178 -0.498432 1.81376 0
M  V30 7970 O 741.536 -1.35509 1.20445 0
M  V30 7971 C 741.584 1.46318 3.29581 0
M  V30 7972 O 740.688 0.660342 4.07079 0
M  V30 7973 H 740.029 0.338428 0.571281 0
M  V30 7974 H 742.559 1.5301 1.35828 0
M  V30 7975 H 742.569 1.47468 3.80417 0
M  V30 7976 H 741.244 2.51635 3.31138 0
M  V30 7977 H 739.821 0.718216 3.65918 0
M  V30 7978 N 742.006 -1.2595 0.947325 0
M  V30 7979 C 743.246 -1.95218 0.605743 0
M  V30 7980 C 743.61 -1.72624 -0.84054 0
M  V30 7981 O 744.811 -2.35748 -1.29136 0
M  V30 7982 C 743.082 -3.44654 0.94596 0
M  V30 7983 S 744.641 -4.32922 0.715849 0
M  V30 7984 H 741.459 -0.675159 0.222894 0
M  V30 7985 H 744.061 -1.52766 1.21995 0
M  V30 7986 H 742.765 -3.586 1.99585 0
M  V30 7987 H 742.296 -3.92082 0.321718 0
M  V30 7988 H 744.311 -4.94445 -0.416959 0
M  V30 7989 N 743.484 -0.715051 -1.40445 0
M  V30 7990 C 744.434 -0.038591 -2.27967 0
M  V30 7991 C 745.418 0.733099 -1.43229 0
M  V30 7992 O 746.61 0.605388 -1.66325 0
M  V30 7993 C 743.739 0.882801 -3.31755 0
M  V30 7994 C 742.825 0.106325 -4.23967 0
M  V30 7995 N 743.216 -0.910143 -4.97544 0
M  V30 7996 C 741.514 0.33896 -4.4471 0
M  V30 7997 C 742.215 -1.37665 -5.65175 0
M  V30 7998 N 741.191 -0.698905 -5.39088 0
M  V30 7999 H 744.993 -0.81765 -2.82297 0
M  V30 8000 H 742.507 -0.547591 -1.5289 0
M  V30 8001 H 744.504 1.38273 -3.93302 0
M  V30 8002 H 743.164 1.66124 -2.78985 0
M  V30 8003 H 744.175 -1.29097 -5.01552 0
M  V30 8004 H 740.852 1.09377 -4.02918 0
M  V30 8005 H 742.242 -2.22122 -6.34123 0
M  V30 8006 N 744.962 1.50701 -0.461195 0
M  V30 8007 C 746.202 2.04174 0.0960673 0
M  V30 8008 C 746.566 1.33628 1.37868 0
M  V30 8009 O 747.767 1.77602 2.0177 0
M  V30 8010 C 746.038 3.56256 0.285676 0
M  V30 8011 S 747.597 4.31392 0.802917 0
M  V30 8012 H 744.415 0.710701 0.0206282 0
M  V30 8013 H 747.017 1.85204 -0.62607 0
M  V30 8014 H 745.721 4.05159 -0.653773 0
M  V30 8015 H 745.252 3.79562 1.03421 0
M  V30 8016 H 747.267 4.50611 2.07761 0
M  V30 8017 N 746.441 0.193421 1.56409 0
M  V30 8018 C 747.404 -0.714371 2.17783 0
M  V30 8019 C 748.404 -1.1422 1.13183 0
M  V30 8020 O 749.594 -1.05557 1.38576 0
M  V30 8021 C 746.726 -1.97509 2.77855 0
M  V30 8022 H 747.919 -0.179714 2.99361 0
M  V30 8023 H 745.472 -0.0561944 1.56199 0
M  V30 8024 H 746.207 -2.5523 2.0007 0
M  V30 8025 H 745.992 -1.67706 3.54425 0
M  V30 8026 H 747.482 -2.62246 3.24987 0
M  V30 8027 N 747.919 -1.57396 -0.0801906 0
M  V30 8028 C 749.33 -1.75642 -0.633002 0
M  V30 8029 C 749.681 -0.817708 -1.78348 0
M  V30 8030 O 748.806 0.000233743 -2.164 0
M  V30 8031 C 749.401 -3.18502 -1.15507 0
M  V30 8032 C 747.96 -3.38121 -1.65381 0
M  V30 8033 C 747.107 -2.71386 -0.569661 0
M  V30 8034 H 750.058 -1.58027 0.145949 0
M  V30 8035 H 750.079 -3.22198 -2.02408 0
M  V30 8036 H 749.591 -3.86799 -0.317515 0
M  V30 8037 H 747.692 -2.74926 -2.51488 0
M  V30 8038 H 747.805 -4.46521 -1.73654 0
M  V30 8039 H 746.169 -2.33702 -1.0127 0
M  V30 8040 H 746.952 -3.42332 0.257561 0
M  V30 8041 N 749.397 0.351382 -1.53633 0
M  V30 8042 C 750.637 1.10102 -1.72212 0
M  V30 8043 C 751.001 1.86128 -0.471198 0
M  V30 8044 O 752.202 2.63445 -0.533887 0
M  V30 8045 C 750.473 2.02348 -2.94602 0
M  V30 8046 S 752.032 2.84641 -3.33954 0
M  V30 8047 H 748.85 0.372145 -0.60583 0
M  V30 8048 H 751.452 0.38044 -1.91763 0
M  V30 8049 H 750.156 1.45283 -3.83824 0
M  V30 8050 H 749.687 2.78856 -2.77493 0
M  V30 8051 H 751.702 4.04724 -2.87076 0
M  V30 8052 N 750.875 1.45233 0.611969 0
M  V30 8053 C 751.807 1.49575 1.73666 0
M  V30 8054 C 752.82 0.386987 1.58134 0
M  V30 8055 O 754.009 0.653804 1.66095 0
M  V30 8056 C 751.109 1.33223 3.11617 0
M  V30 8057 C 750.282 2.57694 3.5343 0
M  V30 8058 C 749.341 2.35962 4.70328 0
M  V30 8059 O 748.367 3.09553 4.77667 0
M  V30 8060 N 749.569 1.40243 5.63305 0
M  V30 8061 H 752.334 2.46539 1.70407 0
M  V30 8062 H 749.895 1.40917 0.79712 0
M  V30 8063 H 751.887 1.16502 3.87569 0
M  V30 8064 H 750.457 0.44551 3.09409 0
M  V30 8065 H 749.677 2.8956 2.67486 0
M  V30 8066 H 750.965 3.40441 3.78124 0
M  V30 8067 H 750.363 0.795023 5.60086 0
M  V30 8068 H 748.92 1.29496 6.38807 0
M  V30 8069 N 752.353 -0.854086 1.3245 0
M  V30 8070 C 753.601 -1.60513 1.228 0
M  V30 8071 C 753.922 -1.93865 -0.210073 0
M  V30 8072 O 753.192 -1.59673 -1.13496 0
M  V30 8073 H 751.772 -0.595099 0.451516 0
M  V30 8074 H 754.434 -1.0216 1.6598 0
M  V30 8075 H 753.53 -2.54182 1.81102 0
M  V30 8076 N 753.831 -1.1567 -1.07043 0
M  V30 8077 C 754.779 -0.852204 -2.16426 0
M  V30 8078 C 755.773 0.175661 -1.68487 0
M  V30 8079 O 756.979 0.0303874 -1.79974 0
M  V30 8080 H 753.354 -0.257942 -0.706378 0
M  V30 8081 H 755.325 -1.78231 -2.39324 0
M  V30 8082 C 754.074 -0.361362 -3.45817 0
M  V30 8083 H 753.397 -1.14369 -3.83092 0
M  V30 8084 H 754.837 -0.186997 -4.23587 0
M  V30 8085 C 753.296 0.917703 -3.2416 0
M  V30 8086 O 753.826 1.98858 -3.49025 0
M  V30 8087 N 752.032 0.858456 -2.77631 0
M  V30 8088 H 751.579 -0.0131821 -2.57597 0
M  V30 8089 H 751.537 1.71478 -2.6352 0
M  V30 8090 N 755.309 1.25446 -0.953992 0
M  V30 8091 C 756.557 1.92762 -0.607227 0
M  V30 8092 C 756.878 1.7509 0.858399 0
M  V30 8093 O 756.148 1.11416 1.61132 0
M  V30 8094 H 754.728 0.713377 -0.221591 0
M  V30 8095 H 757.39 1.52625 -1.21209 0
M  V30 8096 H 756.486 3.00695 -0.835998 0
M  V30 8097 N 756.787 0.722489 1.40064 0
M  V30 8098 C 758.033 0.265371 2.01056 0
M  V30 8099 C 758.366 -1.14062 1.57174 0
M  V30 8100 O 757.641 -1.77514 0.794916 0
M  V30 8101 C 757.924 0.353157 3.58364 0
M  V30 8102 C 757.777 1.79802 4.123 0
M  V30 8103 C 759.096 -0.271677 4.39261 0
M  V30 8104 H 756.215 0.0979002 0.730469 0
M  V30 8105 H 758.857 0.916289 1.66446 0
M  V30 8106 H 757.007 -0.201037 3.87979 0
M  V30 8107 H 758.679 2.40813 3.93455 0
M  V30 8108 H 756.922 2.32348 3.66329 0
M  V30 8109 H 757.593 1.81079 5.21454 0
M  V30 8110 H 760.069 0.200607 4.15616 0
M  V30 8111 H 758.945 -0.179843 5.48605 0
M  V30 8112 H 759.206 -1.35611 4.20787 0
M  V30 8113 N 758.265 -1.50454 0.469181 0
M  V30 8114 C 759.676 -1.86695 0.0136034 0
M  V30 8115 C 760.027 -1.38413 -1.39055 0
M  V30 8116 O 759.152 -0.748294 -2.03051 0
M  V30 8117 C 759.747 -3.38795 0.0179098 0
M  V30 8118 C 758.306 -3.74455 -0.382191 0
M  V30 8119 C 757.453 -2.74338 0.404207 0
M  V30 8120 H 760.404 -1.43225 0.683547 0
M  V30 8121 H 760.425 -3.72321 -0.78468 0
M  V30 8122 H 759.937 -3.73906 1.04 0
M  V30 8123 H 758.038 -3.44944 -1.4087 0
M  V30 8124 H 758.151 -4.79025 -0.084862 0
M  V30 8125 H 756.515 -2.54305 -0.141829 0
M  V30 8126 H 757.298 -3.12293 1.42577 0
M  V30 8127 N 759.743 -0.201713 -1.56304 0
M  V30 8128 C 760.989 0.435952 -1.98059 0
M  V30 8129 C 761.322 1.60811 -1.08873 0
M  V30 8130 O 760.597 1.9398 -0.142128 0
M  V30 8131 C 760.88 0.889706 -3.48936 0
M  V30 8132 C 760.733 -0.284725 -4.48898 0
M  V30 8133 C 762.052 1.7529 -4.03685 0
M  V30 8134 H 759.171 0.15699 -0.720085 0
M  V30 8135 H 761.813 -0.293965 -1.87712 0
M  V30 8136 H 759.963 1.51166 -3.57884 0
M  V30 8137 H 761.635 -0.922531 -4.51981 0
M  V30 8138 H 759.878 -0.935427 -4.23594 0
M  V30 8139 H 760.549 0.0753865 -5.51949 0
M  V30 8140 H 763.025 1.2283 -3.97558 0
M  V30 8141 H 761.901 2.03933 -5.0961 0
M  V30 8142 H 762.162 2.70939 -3.49348 0
M  V30 8143 N 761.222 1.57436 0.0718424 0
M  V30 8144 C 762.152 2.06724 1.08571 0
M  V30 8145 C 763.133 0.960731 1.40371 0
M  V30 8146 O 764.318 1.23345 1.49999 0
M  V30 8147 C 761.448 2.51112 2.39916 0
M  V30 8148 C 760.402 3.65639 2.22469 0
M  V30 8149 C 759.728 3.96082 3.59198 0
M  V30 8150 C 761.028 4.95687 1.64596 0
M  V30 8151 H 762.722 2.91679 0.675569 0
M  V30 8152 H 760.268 1.40319 0.32352 0
M  V30 8153 H 762.221 2.84206 3.11135 0
M  V30 8154 H 760.945 1.63186 2.8291 0
M  V30 8155 H 759.604 3.32828 1.53691 0
M  V30 8156 H 759.252 3.05287 3.99761 0
M  V30 8157 H 758.952 4.73199 3.48362 0
M  V30 8158 H 760.476 4.31672 4.31847 0
M  V30 8159 H 761.89 5.27011 2.25681 0
M  V30 8160 H 760.287 5.77126 1.64457 0
M  V30 8161 H 761.357 4.8108 0.60744 0
M  V30 8162 N 762.7 -0.34323 1.53817 0
M  V30 8163 C 763.647 -1.42153 1.81827 0
M  V30 8164 C 764.617 -1.52251 0.663996 0
M  V30 8165 O 765.802 -1.67784 0.908461 0
M  V30 8166 C 762.942 -2.78799 2.03384 0
M  V30 8167 C 762.055 -2.7749 3.31094 0
M  V30 8168 C 761.19 -4.05856 3.42717 0
M  V30 8169 C 760.229 -3.98776 4.64375 0
M  V30 8170 N 759.366 -5.18833 4.73029 0
M  V30 8171 H 764.206 -1.17567 2.73829 0
M  V30 8172 H 761.743 -0.569506 1.35628 0
M  V30 8173 H 763.701 -3.58211 2.13872 0
M  V30 8174 H 762.331 -3.01736 1.14696 0
M  V30 8175 H 761.383 -1.90182 3.29446 0
M  V30 8176 H 762.695 -2.68137 4.206 0
M  V30 8177 H 761.849 -4.93691 3.52638 0
M  V30 8178 H 760.588 -4.1799 2.51267 0
M  V30 8179 H 759.593 -3.09325 4.5453 0
M  V30 8180 H 760.818 -3.88224 5.57189 0
M  V30 8181 H 758.764 -5.31511 3.84489 0
M  V30 8182 H 758.681 -5.11737 5.56472 0
M  V30 8183 H 759.949 -6.08439 4.87261 0
M  V30 8184 N 764.178 -1.45556 -0.604258 0
M  V30 8185 C 765.426 -1.4945 -1.36048 0
M  V30 8186 C 765.747 -0.138933 -1.94504 0
M  V30 8187 O 765.017 0.832097 -1.7735 0
M  V30 8188 H 763.597 -0.550381 -0.505064 0
M  V30 8189 H 766.259 -1.81535 -0.709308 0
M  V30 8190 H 765.355 -2.23519 -2.17821 0
M  V30 8191 N 765.656 0.84705 -1.32902 0
M  V30 8192 C 766.881 1.63925 -1.27056 0
M  V30 8193 C 767.306 1.87443 0.157136 0
M  V30 8194 O 766.664 1.43266 1.11106 0
M  V30 8195 C 766.712 2.97134 -2.04313 0
M  V30 8196 O 765.816 3.88049 -1.39614 0
M  V30 8197 H 765.157 0.499477 -0.437514 0
M  V30 8198 H 767.687 1.05443 -1.75336 0
M  V30 8199 H 767.697 3.46896 -2.14772 0
M  V30 8200 H 766.372 2.79339 -3.08128 0
M  V30 8201 H 764.949 3.46525 -1.3775 0
M  V30 8202 N 767.134 1.16236 1.06428 0
M  V30 8203 C 768.55 0.906983 1.31324 0
M  V30 8204 C 768.75 -0.440872 1.96618 0
M  V30 8205 O 767.806 -1.1807 2.23194 0
M  V30 8206 C 769.119 2.05501 2.19522 0
M  V30 8207 C 770.667 2.09061 2.32943 0
M  V30 8208 C 771.142 3.23214 3.24495 0
M  V30 8209 N 772.633 3.22922 3.32078 0
M  V30 8210 C 773.368 4.07889 4.03006 0
M  V30 8211 N 772.864 5.02941 4.76469 0
M  V30 8212 N 774.657 3.95881 3.99043 0
M  V30 8213 H 766.808 2.03015 0.624388 0
M  V30 8214 H 769.071 0.88576 0.337835 0
M  V30 8215 H 768.777 3.02847 1.78819 0
M  V30 8216 H 768.651 1.99538 3.201 0
M  V30 8217 H 771.038 1.12308 2.72893 0
M  V30 8218 H 771.119 2.19089 1.32037 0
M  V30 8219 H 770.763 4.20225 2.85261 0
M  V30 8220 H 770.693 3.10423 4.25377 0
M  V30 8221 H 773.184 2.54093 2.79724 0
M  V30 8222 H 773.497 5.64196 5.28112 0
M  V30 8223 H 771.842 5.06922 4.75453 0
M  V30 8224 H 775.033 3.20927 3.40769 0
M  V30 8225 H 775.206 4.62321 4.54052 0
M  V30 8226 N 768.612 -1.24939 0.960631 0
M  V30 8227 C 769.852 -1.94565 0.626414 0
M  V30 8228 C 770.216 -1.73505 -0.822184 0
M  V30 8229 O 771.417 -2.37105 -1.26628 0
M  V30 8230 C 769.688 -3.43631 0.982462 0
M  V30 8231 S 771.247 -4.32138 0.761726 0
M  V30 8232 H 768.065 -0.672757 0.230043 0
M  V30 8233 H 770.667 -1.51464 1.23608 0
M  V30 8234 H 769.371 -3.56463 2.03377 0
M  V30 8235 H 768.902 -3.91719 0.363286 0
M  V30 8236 H 770.917 -4.94859 -0.364493 0
M  V30 8237 N 770.09 -0.729906 -1.39679 0
M  V30 8238 C 771.367 -0.202149 -1.94553 0
M  V30 8239 C 771.747 1.29507 -1.66707 0
M  V30 8240 O 771.095 2.05819 -0.992517 0
M  V30 8241 C 771.305 -0.530279 -3.44948 0
M  V30 8242 C 772.653 -0.476808 -4.21914 0
M  V30 8243 O 773.677 -0.467171 -3.53123 0
M  V30 8244 O 772.536 -0.466869 -5.44502 0
M  V30 8245 H 769.63 -0.0351644 -0.826252 0
M  V30 8246 H 772.176 -0.808417 -1.49207 0
M  V30 8247 H 770.948 -1.56526 -3.5863 0
M  V30 8248 H 770.571 0.10522 -3.97461 0
M  V30 8249 N 771.568 1.50203 -0.477153 0
M  V30 8250 C 772.808 2.04265 0.0744065 0
M  V30 8251 C 773.172 1.35082 1.36443 0
M  V30 8252 O 774.373 1.79732 1.99875 0
M  V30 8253 C 772.644 3.56539 0.247874 0
M  V30 8254 S 774.203 4.32219 0.757117 0
M  V30 8255 H 771.021 0.71088 0.0130891 0
M  V30 8256 H 773.623 1.8453 -0.645678 0
M  V30 8257 H 772.327 4.04443 -0.696709 0
M  V30 8258 H 771.858 3.80638 0.993896 0
M  V30 8259 H 773.873 4.52789 2.0297 0
M  V30 8260 N 773.046 0.209999 1.56195 0
M  V30 8261 C 774.295 -0.425106 1.97169 0
M  V30 8262 C 774.608 -1.61718 1.10031 0
M  V30 8263 O 775.814 -2.32105 1.40853 0
M  V30 8264 C 774.27 -0.80771 3.50719 0
M  V30 8265 C 773.878 0.360902 4.46544 0
M  V30 8266 C 775.622 -1.40906 4.00432 0
M  V30 8267 C 773.529 -0.0434919 5.91384 0
M  V30 8268 H 772.459 -0.162598 0.736259 0
M  V30 8269 H 775.11 0.304382 1.80958 0
M  V30 8270 H 773.492 -1.59429 3.62489 0
M  V30 8271 H 774.666 1.13846 4.46515 0
M  V30 8272 H 772.981 0.874729 4.07109 0
M  V30 8273 H 775.578 -1.72433 5.06133 0
M  V30 8274 H 775.921 -2.32081 3.45607 0
M  V30 8275 H 776.454 -0.686154 3.91838 0
M  V30 8276 H 773.193 0.834448 6.50167 0
M  V30 8277 H 772.713 -0.785598 5.94633 0
M  V30 8278 H 774.392 -0.474176 6.4526 0
M  V30 8279 N 774.524 -1.57472 -0.0634922 0
M  V30 8280 C 775.764 -1.89491 -0.766312 0
M  V30 8281 C 776.128 -0.80475 -1.74321 0
M  V30 8282 O 777.329 -1.00825 -2.49174 0
M  V30 8283 C 775.6 -3.26731 -1.44851 0
M  V30 8284 S 777.159 -3.80516 -2.18525 0
M  V30 8285 H 773.977 -0.663832 -0.254653 0
M  V30 8286 H 776.579 -1.95488 -0.0220867 0
M  V30 8287 H 775.283 -4.03967 -0.723824 0
M  V30 8288 H 774.814 -3.23953 -2.232 0
M  V30 8289 H 776.829 -3.5647 -3.45172 0
M  V30 8290 N 776.003 0.335068 -1.53997 0
M  V30 8291 C 777.414 0.910191 -1.6301 0
M  V30 8292 C 777.765 1.89271 -0.516809 0
M  V30 8293 O 776.89 2.13516 0.352123 0
M  V30 8294 C 777.485 1.65761 -2.9548 0
M  V30 8295 C 776.044 2.18163 -3.06728 0
M  V30 8296 C 775.191 1.00338 -2.5851 0
M  V30 8297 H 778.142 0.112965 -1.58297 0
M  V30 8298 H 778.163 2.52107 -2.84995 0
M  V30 8299 H 777.675 0.94227 -3.76488 0
M  V30 8300 H 775.776 2.92847 -2.30372 0
M  V30 8301 H 775.889 2.43952 -4.1234 0
M  V30 8302 H 774.253 1.37925 -2.14124 0
M  V30 8303 H 775.036 0.30254 -3.41964 0
M  V30 8304 N 777.481 1.45874 0.596531 0
M  V30 8305 C 778.727 1.5069 1.35722 0
M  V30 8306 C 779.06 0.152506 1.936 0
M  V30 8307 O 778.335 -0.834411 1.75692 0
M  V30 8308 C 778.618 2.59474 2.4969 0
M  V30 8309 C 778.471 4.04396 1.96937 0
M  V30 8310 C 779.79 2.64451 3.51787 0
M  V30 8311 H 776.909 0.548611 0.492133 0
M  V30 8312 H 779.551 1.77741 0.671428 0
M  V30 8313 H 777.701 2.36539 3.08191 0
M  V30 8314 H 779.373 4.38576 1.43 0
M  V30 8315 H 777.616 4.14529 1.27859 0
M  V30 8316 H 778.287 4.76218 2.79143 0
M  V30 8317 H 780.763 2.85031 3.03145 0
M  V30 8318 H 779.639 3.42411 4.29006 0
M  V30 8319 H 779.9 1.69965 4.08123 0
M  V30 8320 N 778.959 -0.83999 1.33349 0
M  V30 8321 C 780.207 -1.59202 1.24496 0
M  V30 8322 C 780.528 -1.94077 -0.189499 0
M  V30 8323 O 779.798 -1.60868 -1.11796 0
M  V30 8324 H 778.378 -0.590276 0.457802 0
M  V30 8325 H 781.04 -1.00394 1.67054 0
M  V30 8326 H 780.136 -2.52247 1.83788 0
M  V30 8327 N 780.437 -1.16799 -1.0581 0
M  V30 8328 C 781.662 -0.977402 -1.82925 0
M  V30 8329 C 782.087 0.469514 -1.82146 0
M  V30 8330 O 781.445 1.33576 -1.22585 0
M  V30 8331 C 781.493 -1.51543 -3.27211 0
M  V30 8332 O 780.597 -0.725021 -4.05977 0
M  V30 8333 H 779.938 -0.347474 -0.565825 0
M  V30 8334 H 782.468 -1.55151 -1.33376 0
M  V30 8335 H 782.478 -1.53502 -3.78023 0
M  V30 8336 H 781.153 -2.56872 -3.27093 0
M  V30 8337 H 779.73 -0.77634 -3.64729 0
M  V30 8338 N 781.915 1.24427 -0.967243 0
M  V30 8339 C 782.847 2.24641 -0.454856 0
M  V30 8340 C 783.86 1.56849 0.436152 0
M  V30 8341 O 785.049 1.76846 0.242401 0
M  V30 8342 C 782.149 3.36954 0.362672 0
M  V30 8343 C 781.322 4.34318 -0.518324 0
M  V30 8344 C 780.381 5.25638 0.243122 0
M  V30 8345 O 779.407 5.68043 -0.362791 0
M  V30 8346 N 780.609 5.59897 1.53282 0
M  V30 8347 H 783.374 2.69238 -1.31648 0
M  V30 8348 H 780.935 1.38464 -0.839015 0
M  V30 8349 H 782.927 3.95014 0.880094 0
M  V30 8350 H 781.497 2.91646 1.12522 0
M  V30 8351 H 780.717 3.74953 -1.21672 0
M  V30 8352 H 782.005 4.96338 -1.11919 0
M  V30 8353 H 781.403 5.27373 2.04682 0
M  V30 8354 H 779.96 6.20488 1.99594 0
M  V30 8355 N 783.393 0.737304 1.3929 0
M  V30 8356 C 784.641 0.285691 2.00071 0
M  V30 8357 C 784.962 -1.13169 1.58801 0
M  V30 8358 O 784.232 -1.77104 0.837308 0
M  V30 8359 H 782.812 0.102638 0.739915 0
M  V30 8360 H 785.474 0.947775 1.70303 0
M  V30 8361 H 784.57 0.335906 3.10287 0
M  V30 8362 N 784.871 -1.49948 0.485112 0
M  V30 8363 C 785.801 -2.31675 -0.291364 0
M  V30 8364 C 786.782 -1.39216 -0.977383 0
M  V30 8365 O 787.967 -1.68133 -0.971855 0
M  V30 8366 C 785.097 -3.19326 -1.36558 0
M  V30 8367 C 784.051 -4.2045 -0.800359 0
M  V30 8368 C 783.377 -4.96931 -1.97391 0
M  V30 8369 C 784.677 -5.21925 0.197867 0
M  V30 8370 H 786.371 -2.96839 0.390775 0
M  V30 8371 H 783.917 -1.42749 0.189375 0
M  V30 8372 H 785.87 -3.75304 -1.91638 0
M  V30 8373 H 784.594 -2.52074 -2.07668 0
M  V30 8374 H 783.253 -3.65594 -0.271428 0
M  V30 8375 H 782.901 -4.26141 -2.67232 0
M  V30 8376 H 782.601 -5.65344 -1.60187 0
M  V30 8377 H 784.125 -5.55749 -2.52935 0
M  V30 8378 H 785.539 -5.72691 -0.264239 0
M  V30 8379 H 783.936 -5.98138 0.484908 0
M  V30 8380 H 785.006 -4.71809 1.11912 0
M  V30 8381 N 786.349 -0.21828 -1.56081 0
M  V30 8382 C 787.312 0.679633 -2.18892 0
M  V30 8383 C 788.312 1.12405 -1.14986 0
M  V30 8384 O 789.502 1.03339 -1.40238 0
M  V30 8385 C 786.634 1.93063 -2.80962 0
M  V30 8386 H 787.827 0.132066 -2.99609 0
M  V30 8387 H 785.38 0.0313374 -1.56269 0
M  V30 8388 H 786.115 2.52015 -2.04106 0
M  V30 8389 H 785.9 1.62046 -3.57048 0
M  V30 8390 H 787.39 2.57043 -3.29118 0
M  V30 8391 N 787.827 1.57504 0.0551401 0
M  V30 8392 C 789.067 1.89895 0.756252 0
M  V30 8393 C 789.431 0.813983 1.73892 0
M  V30 8394 O 790.632 1.02145 2.48636 0
M  V30 8395 C 788.903 3.27494 1.43116 0
M  V30 8396 S 790.462 3.81669 2.16504 0
M  V30 8397 H 787.28 0.665173 0.251129 0
M  V30 8398 H 789.882 1.95496 0.0117193 0
M  V30 8399 H 788.586 4.04345 0.702391 0
M  V30 8400 H 788.117 3.25132 2.21479 0
M  V30 8401 H 790.132 3.58295 3.43277 0
M  V30 8402 N 789.305 -0.326896 1.54172 0
M  V30 8403 C 790.215 -1.42525 1.86343 0
M  V30 8404 C 791.231 -1.56764 0.75505 0
M  V30 8405 O 792.407 -1.71924 1.04901 0
M  V30 8406 C 789.472 -2.77286 2.08119 0
M  V30 8407 C 788.533 -2.7225 3.31931 0
M  V30 8408 C 787.766 -4.00584 3.52659 0
M  V30 8409 O 787.989 -4.98686 2.76891 0
M  V30 8410 O 786.923 -4.04045 4.46129 0
M  V30 8411 H 790.749 -1.18249 2.79734 0
M  V30 8412 H 788.334 -0.520614 1.40036 0
M  V30 8413 H 790.216 -3.57065 2.23791 0
M  V30 8414 H 788.891 -3.01459 1.17917 0
M  V30 8415 H 787.798 -1.91033 3.21647 0
M  V30 8416 H 789.131 -2.53032 4.2218 0
M  V30 8417 N 790.784 -1.46188 -0.588786 0
M  V30 8418 C 792.03 -1.51407 -1.34921 0
M  V30 8419 C 792.363 -0.162771 -1.93517 0
M  V30 8420 O 791.638 0.825082 -1.76132 0
M  V30 8421 C 791.921 -2.60795 -2.48311 0
M  V30 8422 C 791.774 -4.05435 -1.94789 0
M  V30 8423 C 793.093 -2.66313 -3.50379 0
M  V30 8424 H 790.212 -0.551213 -0.489217 0
M  V30 8425 H 792.854 -1.78095 -0.661993 0
M  V30 8426 H 791.004 -2.3817 -3.06932 0
M  V30 8427 H 792.676 -4.39328 -1.40672 0
M  V30 8428 H 790.919 -4.15202 -1.25659 0
M  V30 8429 H 791.59 -4.77691 -2.76613 0
M  V30 8430 H 794.066 -2.86634 -3.01629 0
M  V30 8431 H 792.942 -3.44681 -4.27184 0
M  V30 8432 H 793.203 -1.72127 -4.07216 0
M  V30 8433 N 792.262 0.832906 -1.33792 0
M  V30 8434 C 793.487 1.62568 -1.28788 0
M  V30 8435 C 793.912 1.87599 0.137246 0
M  V30 8436 O 793.27 1.44436 1.0958 0
M  V30 8437 C 793.318 2.9495 -2.07453 0
M  V30 8438 O 792.422 3.86546 -1.43722 0
M  V30 8439 H 791.763 0.494809 -0.442787 0
M  V30 8440 H 794.293 1.03578 -1.76445 0
M  V30 8441 H 794.303 3.44599 -2.1844 0
M  V30 8442 H 792.978 2.76055 -3.11073 0
M  V30 8443 H 791.555 3.45044 -1.41417 0
M  V30 8444 N 793.74 1.17359 1.05189 0
M  V30 8445 C 794.97 0.985099 1.81602 0
M  V30 8446 C 795.378 -0.469872 1.83273 0
M  V30 8447 O 794.721 -1.33806 1.25864 0
M  V30 8448 C 794.783 1.44956 3.2898 0
M  V30 8449 C 794.447 2.92666 3.50993 0
M  V30 8450 C 795.444 3.906 3.43115 0
M  V30 8451 C 793.129 3.30841 3.77954 0
M  V30 8452 C 795.123 5.24709 3.61883 0
M  V30 8453 C 792.81 4.65116 3.96371 0
M  V30 8454 C 793.808 5.61859 3.88335 0
M  V30 8455 O 793.496 6.93704 4.06238 0
M  V30 8456 H 793.228 0.348731 0.579105 0
M  V30 8457 H 795.782 1.56066 1.33539 0
M  V30 8458 H 794.012 0.817559 3.77959 0
M  V30 8459 H 795.701 1.22674 3.86919 0
M  V30 8460 H 796.467 3.62453 3.22262 0
M  V30 8461 H 792.346 2.5611 3.83313 0
M  V30 8462 H 795.89 6.00205 3.55527 0
M  V30 8463 H 791.787 4.92969 4.16715 0
M  V30 8464 H 792.555 7.00443 4.23463 0
M  V30 8465 N 795.218 -1.23913 0.973828 0
M  V30 8466 C 796.634 -1.44325 0.681363 0
M  V30 8467 C 796.834 -1.86832 -0.754728 0
M  V30 8468 O 795.89 -2.01024 -1.52793 0
M  V30 8469 C 797.203 -2.50017 1.67069 0
M  V30 8470 C 798.751 -2.63838 1.68399 0
M  V30 8471 C 799.226 -3.72734 2.66145 0
M  V30 8472 N 800.717 -3.80169 2.64624 0
M  V30 8473 C 801.452 -4.6397 3.36927 0
M  V30 8474 N 800.948 -5.51911 4.18767 0
M  V30 8475 N 802.741 -4.58106 3.25722 0
M  V30 8476 H 794.892 -0.946204 1.9016 0
M  V30 8477 H 797.155 -0.477374 0.819035 0
M  V30 8478 H 796.861 -2.25686 2.69738 0
M  V30 8479 H 796.735 -3.48287 1.4483 0
M  V30 8480 H 799.122 -2.87524 0.664379 0
M  V30 8481 H 799.203 -1.65906 1.94702 0
M  V30 8482 H 798.847 -3.49797 3.68245 0
M  V30 8483 H 798.777 -4.70193 2.3712 0
M  V30 8484 H 801.268 -3.17319 2.05224 0
M  V30 8485 H 801.581 -6.12828 4.70809 0
M  V30 8486 H 799.926 -5.51556 4.2286 0
M  V30 8487 H 803.117 -3.8842 2.61242 0
M  V30 8488 H 803.29 -5.23188 3.82333 0
M  V30 8489 N 796.696 -0.74468 -1.38897 0
M  V30 8490 C 797.643 -0.111064 -2.30533 0
M  V30 8491 C 798.613 0.719276 -1.49719 0
M  V30 8492 O 799.798 0.677244 -1.78376 0
M  V30 8493 C 796.938 0.78292 -3.36102 0
M  V30 8494 C 796.051 -0.0610817 -4.31957 0
M  V30 8495 C 795.186 0.835075 -5.24595 0
M  V30 8496 C 794.225 -0.0130974 -6.12099 0
M  V30 8497 N 793.362 0.839525 -6.97063 0
M  V30 8498 H 798.202 -0.898113 -2.84144 0
M  V30 8499 H 795.739 -0.454537 -1.39901 0
M  V30 8500 H 797.697 1.31578 -3.95908 0
M  V30 8501 H 796.327 1.53585 -2.83922 0
M  V30 8502 H 795.379 -0.711469 -3.73687 0
M  V30 8503 H 796.691 -0.716482 -4.93627 0
M  V30 8504 H 795.845 1.43542 -5.89475 0
M  V30 8505 H 794.584 1.52423 -4.63269 0
M  V30 8506 H 793.589 -0.626179 -5.46223 0
M  V30 8507 H 794.814 -0.699181 -6.75491 0
M  V30 8508 H 792.76 1.5138 -6.38295 0
M  V30 8509 H 792.677 0.240823 -7.55616 0
M  V30 8510 H 793.945 1.42513 -7.66362 0
M  V30 8511 N 798.174 1.49689 -0.493057 0
M  V30 8512 C 799.122 2.30613 0.303383 0
M  V30 8513 C 800.116 1.38867 0.970165 0
M  V30 8514 O 801.322 1.55956 0.898761 0
M  V30 8515 H 797.697 0.742891 0.116691 0
M  V30 8516 H 799.668 2.95717 -0.39924 0
M  V30 8517 C 798.417 3.20008 1.35978 0
M  V30 8518 H 797.74 3.90526 0.856103 0
M  V30 8519 H 799.18 3.79586 1.88919 0
M  V30 8520 C 797.639 2.39079 2.37367 0
M  V30 8521 O 798.169 2.08933 3.43089 0
M  V30 8522 N 796.375 2.0125 2.09635 0
M  V30 8523 H 795.922 2.25966 1.23682 0
M  V30 8524 H 795.88 1.47408 2.77702 0
M  V30 8525 N 799.652 0.226554 1.55963 0
M  V30 8526 C 800.88 -0.408507 2.02827 0
M  V30 8527 C 801.295 -1.52994 1.10627 0
M  V30 8528 O 800.652 -1.82126 0.116809 0
M  V30 8529 C 800.703 -0.93545 3.49187 0
M  V30 8530 O 800.424 0.141273 4.37872 0
M  V30 8531 C 801.925 -1.64325 4.11719 0
M  V30 8532 H 799.145 -0.099442 0.66359 0
M  V30 8533 H 801.689 0.344471 2.01578 0
M  V30 8534 H 799.844 -1.63868 3.51036 0
M  V30 8535 H 800.258 -0.25558 5.23877 0
M  V30 8536 H 801.732 -1.9639 5.15883 0
M  V30 8537 H 802.209 -2.55815 3.57009 0
M  V30 8538 H 802.815 -0.9851 4.13734 0
M  V30 8539 N 801.13 -1.57531 -0.0467866 0
M  V30 8540 C 802.541 -1.76945 -0.595603 0
M  V30 8541 C 802.892 -0.855354 -1.76573 0
M  V30 8542 O 802.017 -0.045668 -2.16352 0
M  V30 8543 C 802.612 -3.20881 -1.08725 0
M  V30 8544 C 801.171 -3.41553 -1.58172 0
M  V30 8545 C 800.318 -2.72533 -0.511968 0
M  V30 8546 H 803.269 -1.57682 0.179436 0
M  V30 8547 H 803.29 -3.26419 -1.95528 0
M  V30 8548 H 802.802 -3.87385 -0.235398 0
M  V30 8549 H 800.903 -2.80199 -2.456 0
M  V30 8550 H 801.016 -4.50104 -1.64143 0
M  V30 8551 H 799.38 -2.35797 -0.962899 0
M  V30 8552 H 800.163 -3.41709 0.330117 0
M  V30 8553 N 802.608 0.318715 -1.54344 0
M  V30 8554 C 803.857 1.05363 -1.71993 0
M  V30 8555 C 804.17 1.89018 -0.503155 0
M  V30 8556 O 805.376 2.65639 -0.561085 0
M  V30 8557 C 803.832 1.92281 -3.0423 0
M  V30 8558 C 803.44 1.13715 -4.33328 0
M  V30 8559 C 805.184 2.65479 -3.31242 0
M  V30 8560 C 803.091 1.99806 -5.56625 0
M  V30 8561 H 802.021 0.397081 -0.64097 0
M  V30 8562 H 804.672 0.311598 -1.80835 0
M  V30 8563 H 803.054 2.70402 -2.89307 0
M  V30 8564 H 804.228 0.403305 -4.59032 0
M  V30 8565 H 802.543 0.521769 -4.13118 0
M  V30 8566 H 805.14 3.30209 -4.20555 0
M  V30 8567 H 805.483 3.33374 -2.49334 0
M  V30 8568 H 806.016 1.94417 -3.47054 0
M  V30 8569 H 802.755 1.36411 -6.41149 0
M  V30 8570 H 802.275 2.70911 -5.35133 0
M  V30 8571 H 803.954 2.58277 -5.93213 0
M  V30 8572 N 804.086 1.46499 0.581025 0
M  V30 8573 C 805.363 1.42372 1.34125 0
M  V30 8574 C 805.743 0.108073 2.10823 0
M  V30 8575 O 805.091 -0.910366 2.09582 0
M  V30 8576 C 805.301 2.65445 2.26583 0
M  V30 8577 C 806.649 3.11664 2.88359 0
M  V30 8578 O 807.673 2.66006 2.36896 0
M  V30 8579 O 806.532 3.90974 3.81839 0
M  V30 8580 H 803.626 0.566262 0.602724 0
M  V30 8581 H 806.172 1.58667 0.601903 0
M  V30 8582 H 804.944 3.52756 1.69348 0
M  V30 8583 H 804.567 2.51618 3.07854 0
M  V30 8584 N 805.565 -0.825799 1.34232 0
M  V30 8585 C 806.813 -1.57873 1.26177 0
M  V30 8586 C 807.134 -1.94267 -0.168904 0
M  V30 8587 O 806.404 -1.62045 -1.10084 0
M  V30 8588 H 804.984 -0.585388 0.464037 0
M  V30 8589 H 807.646 -0.986163 1.6811 0
M  V30 8590 H 806.742 -2.50283 1.86453 0
M  V30 8591 N 807.043 -1.17915 -1.04565 0
M  V30 8592 C 807.99 -0.901605 -2.12461 0
M  V30 8593 C 808.96 0.157011 -1.65356 0
M  V30 8594 O 810.145 0.0184494 -1.90791 0
M  V30 8595 C 807.285 -0.42796 -3.42436 0
M  V30 8596 C 806.398 -1.55142 -4.03181 0
M  V30 8597 C 805.533 -1.03101 -5.21098 0
M  V30 8598 C 804.572 -2.1295 -5.73863 0
M  V30 8599 N 803.709 -1.62339 -6.83074 0
M  V30 8600 H 808.549 -1.82551 -2.3554 0
M  V30 8601 H 806.086 -0.910389 -1.15544 0
M  V30 8602 H 808.044 -0.134859 -4.16982 0
M  V30 8603 H 806.674 0.458977 -3.1952 0
M  V30 8604 H 805.726 -1.96011 -3.26012 0
M  V30 8605 H 807.038 -2.37968 -4.38375 0
M  V30 8606 H 806.192 -0.692132 -6.02739 0
M  V30 8607 H 804.931 -0.17227 -4.87396 0
M  V30 8608 H 803.936 -2.47687 -4.90847 0
M  V30 8609 H 805.161 -2.9925 -6.09611 0
M  V30 8610 H 803.107 -0.787464 -6.51256 0
M  V30 8611 H 803.024 -2.38767 -7.17305 0
M  V30 8612 H 804.292 -1.31363 -7.68351 0
M  V30 8613 N 808.521 1.23394 -0.980386 0
M  V30 8614 C 809.767 1.924 -0.659848 0
M  V30 8615 C 810.122 1.75076 0.797883 0
M  V30 8616 O 809.415 1.10104 1.56805 0
M  V30 8617 C 809.609 3.43542 -0.985588 0
M  V30 8618 C 809.438 3.75568 -2.47343 0
M  V30 8619 C 808.208 3.96257 -3.13541 0
M  V30 8620 C 810.406 3.81045 -3.45412 0
M  V30 8621 N 808.388 4.15489 -4.51932 0
M  V30 8622 C 809.759 4.05269 -4.69209 0
M  V30 8623 C 811.814 3.63837 -3.39893 0
M  V30 8624 C 810.517 4.14071 -5.88164 0
M  V30 8625 C 812.543 3.73892 -4.58212 0
M  V30 8626 C 811.905 3.98553 -5.80805 0
M  V30 8627 H 808.004 0.725229 -0.292518 0
M  V30 8628 H 810.588 1.48615 -1.25784 0
M  V30 8629 H 808.759 3.86163 -0.416289 0
M  V30 8630 H 810.491 3.99887 -0.622324 0
M  V30 8631 H 807.246 3.93168 -2.64038 0
M  V30 8632 H 807.67 4.29058 -5.23677 0
M  V30 8633 H 812.312 3.43767 -2.46139 0
M  V30 8634 H 810.03 4.32949 -6.82335 0
M  V30 8635 H 813.616 3.61932 -4.55518 0
M  V30 8636 H 812.496 4.06148 -6.70831 0
M  V30 8637 N 809.999 0.752036 1.385 0
M  V30 8638 C 810.947 0.112634 2.32327 0
M  V30 8639 C 811.941 -0.707037 1.53939 0
M  V30 8640 O 813.147 -0.606309 1.69481 0
M  V30 8641 H 809.522 0.0176275 0.751793 0
M  V30 8642 H 811.493 0.920074 2.83861 0
M  V30 8643 C 810.242 -0.767458 3.39124 0
M  V30 8644 H 809.565 -0.146122 3.99533 0
M  V30 8645 H 811.005 -1.18216 4.07187 0
M  V30 8646 C 809.464 -1.90938 2.77568 0
M  V30 8647 O 809.994 -3.00342 2.66754 0
M  V30 8648 N 808.2 -1.70396 2.35401 0
M  V30 8649 H 807.747 -0.81413 2.44397 0
M  V30 8650 H 807.705 -2.46972 1.94557 0
M  V30 8651 N 811.477 -1.49425 0.500989 0
M  V30 8652 C 812.717 -2.04357 -0.0419004 0
M  V30 8653 C 813.081 -1.37236 -1.34277 0
M  V30 8654 O 814.282 -1.82889 -1.9699 0
M  V30 8655 C 812.553 -3.56889 -0.19112 0
M  V30 8656 S 814.112 -4.33369 -0.688259 0
M  V30 8657 H 810.93 -0.710998 -0.00177796 0
M  V30 8658 H 813.532 -1.83479 0.674953 0
M  V30 8659 H 812.236 -4.03283 0.760964 0
M  V30 8660 H 811.767 -3.82171 -0.933214 0
M  V30 8661 H 813.782 -4.55961 -1.9574 0
M  V30 8662 N 812.955 -0.234822 -1.55841 0
M  V30 8663 C 814.201 0.387023 -1.99684 0
M  V30 8664 C 814.556 1.56439 -1.12003 0
M  V30 8665 O 813.849 1.90818 -0.172879 0
M  V30 8666 C 814.043 0.858032 -3.46947 0
M  V30 8667 C 813.872 -0.272152 -4.48876 0
M  V30 8668 C 812.642 -0.742896 -4.99809 0
M  V30 8669 C 814.84 -1.09501 -5.02508 0
M  V30 8670 N 812.822 -1.84675 -5.85464 0
M  V30 8671 C 814.193 -2.04748 -5.85217 0
M  V30 8672 C 816.248 -1.13295 -4.84839 0
M  V30 8673 C 814.951 -3.03483 -6.52143 0
M  V30 8674 C 816.977 -2.10854 -5.52535 0
M  V30 8675 C 816.339 -3.04838 -6.35022 0
M  V30 8676 H 812.438 0.107918 -0.774518 0
M  V30 8677 H 815.022 -0.349635 -1.91535 0
M  V30 8678 H 813.193 1.56401 -3.55518 0
M  V30 8679 H 814.925 1.45381 -3.77686 0
M  V30 8680 H 811.68 -0.32915 -4.72455 0
M  V30 8681 H 812.104 -2.40108 -6.32991 0
M  V30 8682 H 816.746 -0.420226 -4.20706 0
M  V30 8683 H 814.464 -3.7571 -7.15449 0
M  V30 8684 H 818.05 -2.1448 -5.40823 0
M  V30 8685 H 816.93 -3.79097 -6.8648 0
M  V30 8686 N 814.433 1.57553 0.0384317 0
M  V30 8687 C 815.658 1.93485 0.746872 0
M  V30 8688 C 816.083 0.834069 1.68597 0
M  V30 8689 O 815.441 -0.210902 1.80069 0
M  V30 8690 C 815.489 3.28463 1.4881 0
M  V30 8691 O 814.593 3.20051 2.60079 0
M  V30 8692 H 813.934 0.632675 0.201539 0
M  V30 8693 H 816.464 2.046 -0.00329815 0
M  V30 8694 H 816.474 3.63132 1.86009 0
M  V30 8695 H 815.149 4.08147 0.799297 0
M  V30 8696 H 813.726 2.96998 2.25492 0
M  V30 8697 N 815.911 -0.310526 1.54511 0
M  V30 8698 C 816.859 -1.40272 1.85544 0
M  V30 8699 C 817.853 -1.52941 0.728377 0
M  V30 8700 O 819.059 -1.55172 0.912234 0
M  V30 8701 H 815.434 -0.468355 0.588343 0
M  V30 8702 H 817.405 -1.11329 2.76855 0
M  V30 8703 C 816.154 -2.76279 2.11105 0
M  V30 8704 H 815.477 -2.67308 2.97298 0
M  V30 8705 H 816.917 -3.51736 2.36765 0
M  V30 8706 C 815.376 -3.24472 0.906618 0
M  V30 8707 O 815.906 -4.01514 0.122358 0
M  V30 8708 N 814.112 -2.81676 0.714632 0
M  V30 8709 H 813.659 -2.19143 1.35404 0
M  V30 8710 H 813.617 -3.14272 -0.089703 0
M  V30 8711 N 817.389 -1.46805 -0.573248 0
M  V30 8712 C 818.635 -1.53816 -1.33088 0
M  V30 8713 C 818.99 -0.191162 -1.91448 0
M  V30 8714 O 818.283 0.801299 -1.7404 0
M  V30 8715 C 818.477 -2.58001 -2.47326 0
M  V30 8716 C 818.306 -4.027 -2.00157 0
M  V30 8717 C 817.076 -4.70319 -1.84737 0
M  V30 8718 C 819.274 -4.90211 -1.55557 0
M  V30 8719 N 817.256 -5.99598 -1.31739 0
M  V30 8720 C 818.627 -6.09389 -1.14215 0
M  V30 8721 C 820.682 -4.76784 -1.43461 0
M  V30 8722 C 819.385 -7.16625 -0.619809 0
M  V30 8723 C 821.411 -5.84101 -0.926297 0
M  V30 8724 C 820.773 -7.02458 -0.522715 0
M  V30 8725 H 816.872 -0.617642 -0.479627 0
M  V30 8726 H 819.456 -1.83471 -0.65164 0
M  V30 8727 H 817.627 -2.3024 -3.128 0
M  V30 8728 H 819.359 -2.54951 -3.14296 0
M  V30 8729 H 816.114 -4.25982 -2.06969 0
M  V30 8730 H 816.538 -6.68431 -1.07374 0
M  V30 8731 H 821.18 -3.85661 -1.73279 0
M  V30 8732 H 818.898 -8.07508 -0.309228 0
M  V30 8733 H 822.484 -5.75755 -0.836485 0
M  V30 8734 H 821.364 -7.84083 -0.135467 0
M  V30 8735 N 818.867 0.818669 -1.34668 0
M  V30 8736 C 820.092 1.61193 -1.30505 0
M  V30 8737 C 820.517 1.87734 0.117341 0
M  V30 8738 O 819.875 1.45591 1.08042 0
M  V30 8739 C 819.923 2.92733 -2.1057 0
M  V30 8740 O 819.027 3.85 -1.47813 0
M  V30 8741 H 818.368 0.490085 -0.44801 0
M  V30 8742 H 820.898 1.01701 -1.77534 0
M  V30 8743 H 820.908 3.42262 -2.22082 0
M  V30 8744 H 819.583 2.7274 -3.13984 0
M  V30 8745 H 818.16 3.43525 -1.45069 0
M  V30 8746 N 820.346 1.18468 1.03938 0
M  V30 8747 C 821.571 1.00638 1.81347 0
M  V30 8748 C 821.996 -0.440477 1.8287 0
M  V30 8749 O 821.354 -1.31609 1.24695 0
M  V30 8750 C 821.402 1.5673 3.24759 0
M  V30 8751 O 820.506 0.789517 4.04772 0
M  V30 8752 H 819.847 0.356432 0.560225 0
M  V30 8753 H 822.377 1.57253 1.30891 0
M  V30 8754 H 822.387 1.59496 3.75533 0
M  V30 8755 H 821.062 2.62043 3.22965 0
M  V30 8756 H 819.639 0.834267 3.63448 0
M  V30 8757 N 821.824 -1.22873 0.986916 0
M  V30 8758 C 823.064 -1.93192 0.667543 0
M  V30 8759 C 823.428 -1.7521 -0.785196 0
M  V30 8760 O 824.629 -2.39737 -1.2157 0
M  V30 8761 C 822.9 -3.4147 1.05513 0
M  V30 8762 S 824.459 -4.30425 0.853218 0
M  V30 8763 H 821.277 -0.667726 0.244261 0
M  V30 8764 H 823.879 -1.48808 1.26793 0
M  V30 8765 H 822.583 -3.52069 2.10892 0
M  V30 8766 H 822.114 -3.9086 0.446293 0
M  V30 8767 H 824.129 -4.95521 -0.259444 0
M  V30 8768 N 823.302 -0.75937 -1.38099 0
M  V30 8769 C 824.527 -0.327859 -2.04792 0
M  V30 8770 C 824.952 1.03752 -1.56899 0
M  V30 8771 O 824.31 1.66235 -0.723581 0
M  V30 8772 C 824.358 -0.366264 -3.58735 0
M  V30 8773 O 823.462 0.637697 -4.0744 0
M  V30 8774 H 822.803 -0.144092 -0.648177 0
M  V30 8775 H 825.333 -1.03211 -1.7666 0
M  V30 8776 H 825.343 -0.219179 -4.07411 0
M  V30 8777 H 824.018 -1.36243 -3.92951 0
M  V30 8778 H 822.595 0.454749 -3.70117 0
M  V30 8779 N 824.78 1.49157 -0.508906 0
M  V30 8780 C 826.028 2.02073 0.0327335 0
M  V30 8781 C 826.349 1.39012 1.3675 0
M  V30 8782 O 825.619 0.548153 1.88075 0
M  V30 8783 H 824.199 0.746848 0.0150864 0
M  V30 8784 H 826.861 1.83097 -0.667946 0
M  V30 8785 H 825.957 3.11707 0.1566 0
M  V30 8786 N 826.258 0.243083 1.55714 0
M  V30 8787 C 827.674 -0.111853 1.59208 0
M  V30 8788 C 827.874 -1.5723 1.2602 0
M  V30 8789 O 826.93 -2.31608 1.00569 0
M  V30 8790 C 828.243 0.233885 2.99789 0
M  V30 8791 C 829.791 0.177873 3.12494 0
M  V30 8792 C 830.266 0.49759 4.55289 0
M  V30 8793 N 831.757 0.447949 4.61029 0
M  V30 8794 C 832.492 0.668545 5.69489 0
M  V30 8795 N 831.988 0.952064 6.86227 0
M  V30 8796 N 833.781 0.599512 5.58894 0
M  V30 8797 H 825.932 1.19554 1.75558 0
M  V30 8798 H 828.195 0.480765 0.817049 0
M  V30 8799 H 827.901 1.24835 3.28799 0
M  V30 8800 H 827.775 -0.440846 3.74615 0
M  V30 8801 H 830.162 -0.827263 2.83267 0
M  V30 8802 H 830.243 0.886399 2.39951 0
M  V30 8803 H 829.887 1.50026 4.85237 0
M  V30 8804 H 829.817 -0.232371 5.26087 0
M  V30 8805 H 832.308 0.237388 3.77154 0
M  V30 8806 H 832.621 1.10791 7.64817 0
M  V30 8807 H 830.966 0.989496 6.8792 0
M  V30 8808 H 834.157 0.378088 4.66571 0
M  V30 8809 H 834.33 0.774828 6.43351 0
M  V30 8810 N 827.736 -1.57571 -0.0300757 0
M  V30 8811 C 829.152 -1.54869 -0.385703 0
M  V30 8812 C 829.352 -0.969068 -1.76667 0
M  V30 8813 O 828.408 -0.589676 -2.45518 0
M  V30 8814 C 829.721 -2.99313 -0.288482 0
M  V30 8815 C 831.269 -3.10857 -0.365638 0
M  V30 8816 C 831.744 -4.5703 -0.297878 0
M  V30 8817 N 833.235 -4.61825 -0.356703 0
M  V30 8818 C 833.97 -5.72466 -0.327146 0
M  V30 8819 N 833.466 -6.92349 -0.249941 0
M  V30 8820 N 835.259 -5.60836 -0.376801 0
M  V30 8821 H 827.41 -1.936 0.87367 0
M  V30 8822 H 829.673 -0.887924 0.332106 0
M  V30 8823 H 829.379 -3.45443 0.66047 0
M  V30 8824 H 829.253 -3.61332 -1.08253 0
M  V30 8825 H 831.64 -2.64676 -1.30502 0
M  V30 8826 H 831.721 -2.51671 0.457744 0
M  V30 8827 H 831.365 -5.03879 0.637835 0
M  V30 8828 H 831.295 -5.14127 -1.13935 0
M  V30 8829 H 833.786 -3.75571 -0.418926 0
M  V30 8830 H 834.099 -7.7245 -0.23246 0
M  V30 8831 H 832.444 -6.94664 -0.216004 0
M  V30 8832 H 835.635 -4.66073 -0.435101 0
M  V30 8833 H 835.808 -6.47052 -0.350298 0
M  V30 8834 N 829.214 0.302327 -1.54673 0
M  V30 8835 C 830.161 1.37282 -1.85532 0
M  V30 8836 C 831.131 1.50437 -0.704129 0
M  V30 8837 O 832.316 1.65317 -0.952627 0
M  V30 8838 C 829.456 2.73309 -2.10704 0
M  V30 8839 C 828.569 2.68614 -3.38335 0
M  V30 8840 C 827.704 3.96626 -3.53357 0
M  V30 8841 C 826.743 3.86324 -4.74784 0
M  V30 8842 N 825.88 5.06109 -4.86619 0
M  V30 8843 H 830.72 1.10265 -2.76849 0
M  V30 8844 H 828.257 0.533346 -1.37091 0
M  V30 8845 H 830.215 3.52414 -2.23294 0
M  V30 8846 H 828.845 2.98589 -1.22656 0
M  V30 8847 H 827.897 1.81381 -3.34373 0
M  V30 8848 H 829.209 2.56891 -4.27561 0
M  V30 8849 H 828.363 4.84168 -3.65604 0
M  V30 8850 H 827.102 4.11182 -2.62261 0
M  V30 8851 H 826.107 2.97166 -4.62572 0
M  V30 8852 H 827.332 3.73315 -5.67286 0
M  V30 8853 H 825.278 5.2113 -3.98446 0
M  V30 8854 H 825.195 4.96804 -5.69844 0
M  V30 8855 H 826.463 5.95306 -5.03221 0
M  V30 8856 N 830.692 1.47107 0.565454 0
M  V30 8857 C 831.92 1.56909 1.3486 0
M  V30 8858 C 832.335 0.216312 1.87557 0
M  V30 8859 O 831.692 -0.789168 1.64555 0
M  V30 8860 C 831.743 2.58776 2.52423 0
M  V30 8861 O 831.464 3.888 2.01906 0
M  V30 8862 C 832.965 2.78683 3.44747 0
M  V30 8863 H 830.185 0.530096 0.411387 0
M  V30 8864 H 832.729 1.92658 0.685782 0
M  V30 8865 H 830.884 2.25983 3.1466 0
M  V30 8866 H 831.298 4.44393 2.78595 0
M  V30 8867 H 832.772 3.53842 4.23674 0
M  V30 8868 H 833.249 1.86208 3.97773 0
M  V30 8869 H 833.855 3.12641 2.88333 0
M  V30 8870 N 832.17 -0.811516 1.35101 0
M  V30 8871 C 833.586 -1.10634 1.15031 0
M  V30 8872 C 833.786 -2.01459 -0.0405379 0
M  V30 8873 O 832.842 -2.42235 -0.712635 0
M  V30 8874 C 834.155 -1.74207 2.45097 0
M  V30 8875 C 835.703 -1.8665 2.51258 0
M  V30 8876 C 836.178 -2.53638 3.81355 0
M  V30 8877 N 837.669 -2.61128 3.82579 0
M  V30 8878 C 838.404 -3.13717 4.79968 0
M  V30 8879 N 837.9 -3.66782 5.87744 0
M  V30 8880 N 839.693 -3.12224 4.67411 0
M  V30 8881 H 831.844 -0.207641 2.11383 0
M  V30 8882 H 834.107 -0.154697 0.935293 0
M  V30 8883 H 833.813 -1.14936 3.32389 0
M  V30 8884 H 833.687 -2.73958 2.59281 0
M  V30 8885 H 836.074 -2.45066 1.64398 0
M  V30 8886 H 836.155 -0.857678 2.40993 0
M  V30 8887 H 835.799 -1.95873 4.68611 0
M  V30 8888 H 835.729 -3.55047 3.88907 0
M  V30 8889 H 838.22 -2.23527 3.04703 0
M  V30 8890 H 838.533 -4.05194 6.58056 0
M  V30 8891 H 836.878 -3.64994 5.91443 0
M  V30 8892 H 840.069 -2.70042 3.82354 0
M  V30 8893 H 840.242 -3.52903 5.43474 0
M  V30 8894 N 833.648 -1.19017 -1.03309 0
M  V30 8895 C 834.58 -0.881847 -2.11556 0
M  V30 8896 C 835.593 0.123711 -1.62329 0
M  V30 8897 O 836.782 -0.105141 -1.7819 0
M  V30 8898 C 833.882 -0.297634 -3.37591 0
M  V30 8899 C 833.055 -1.35072 -4.16022 0
M  V30 8900 C 832.114 -0.780812 -5.20375 0
M  V30 8901 O 831.14 -1.45745 -5.50224 0
M  V30 8902 N 832.342 0.417964 -5.78993 0
M  V30 8903 H 835.107 -1.81359 -2.38598 0
M  V30 8904 H 832.668 -1.0916 -1.19565 0
M  V30 8905 H 834.66 0.097374 -4.04583 0
M  V30 8906 H 833.23 0.538299 -3.0793 0
M  V30 8907 H 832.45 -1.92074 -3.4424 0
M  V30 8908 H 833.738 -2.06044 -4.65213 0
M  V30 8909 H 833.136 0.985281 -5.57054 0
M  V30 8910 H 831.693 0.754802 -6.47415 0
M  V30 8911 N 835.127 1.22348 -0.993418 0
M  V30 8912 C 836.543 1.43222 -0.704238 0
M  V30 8913 C 836.743 1.88009 0.724909 0
M  V30 8914 O 835.799 2.03429 1.49575 0
M  V30 8915 C 837.112 2.47328 -1.71025 0
M  V30 8916 C 838.66 2.61126 -1.72576 0
M  V30 8917 C 839.135 3.68453 -2.72041 0
M  V30 8918 N 840.626 3.75911 -2.70639 0
M  V30 8919 C 841.361 4.58551 -3.44266 0
M  V30 8920 N 840.857 5.45179 -4.27495 0
M  V30 8921 N 842.65 4.52866 -3.32969 0
M  V30 8922 H 834.801 0.915832 -1.91641 0
M  V30 8923 H 837.064 0.464283 -0.826526 0
M  V30 8924 H 836.77 2.21366 -2.73295 0
M  V30 8925 H 836.644 3.45939 -1.50353 0
M  V30 8926 H 839.031 2.86431 -0.710037 0
M  V30 8927 H 839.112 1.62787 -1.97317 0
M  V30 8928 H 838.756 3.43895 -3.73763 0
M  V30 8929 H 838.686 4.66362 -2.4457 0
M  V30 8930 H 841.177 3.14014 -2.10247 0
M  V30 8931 H 841.49 6.0526 -4.80499 0
M  V30 8932 H 839.835 5.44759 -4.31582 0
M  V30 8933 H 843.026 3.84215 -2.67389 0
M  V30 8934 H 843.199 5.17039 -3.90608 0
M  V30 8935 N 836.605 0.766683 1.37694 0
M  V30 8936 C 837.537 0.107798 2.28946 0
M  V30 8937 C 838.55 -0.669701 1.48387 0
M  V30 8938 O 839.739 -0.508629 1.711 0
M  V30 8939 C 836.839 -0.871084 3.27514 0
M  V30 8940 C 836.012 -0.148471 4.37148 0
M  V30 8941 C 835.071 -1.03998 5.1582 0
M  V30 8942 O 834.097 -0.505639 5.6695 0
M  V30 8943 N 835.299 -2.36679 5.3006 0
M  V30 8944 H 838.064 0.89154 2.86132 0
M  V30 8945 H 835.625 0.618593 1.49616 0
M  V30 8946 H 837.617 -1.47081 3.77027 0
M  V30 8947 H 836.187 -1.55582 2.71133 0
M  V30 8948 H 835.407 0.632117 3.89099 0
M  V30 8949 H 836.695 0.351045 5.07588 0
M  V30 8950 H 836.093 -2.82532 4.90094 0
M  V30 8951 H 834.65 -2.9167 5.82899 0
M  V30 8952 N 838.083 -1.48885 0.516809 0
M  V30 8953 C 839.323 -2.0439 -0.0202232 0
M  V30 8954 C 839.687 -1.38652 -1.32814 0
M  V30 8955 O 840.888 -1.84968 -1.95039 0
M  V30 8956 C 839.159 -3.57071 -0.153257 0
M  V30 8957 S 840.718 -4.34074 -0.642256 0
M  V30 8958 H 837.536 -0.710977 0.00576322 0
M  V30 8959 H 840.138 -1.82753 0.694376 0
M  V30 8960 H 838.842 -4.02454 0.803695 0
M  V30 8961 H 838.373 -3.83139 -0.892627 0
M  V30 8962 H 840.388 -4.58011 -1.90893 0
M  V30 8963 N 839.561 -0.251338 -1.55583 0
M  V30 8964 C 840.509 0.662534 -2.22965 0
M  V30 8965 C 841.503 1.17662 -1.21869 0
M  V30 8966 O 842.709 1.133 -1.39868 0
M  V30 8967 H 839.084 0.232151 -0.715269 0
M  V30 8968 H 841.055 0.0711252 -2.98315 0
M  V30 8969 C 839.804 1.84646 -2.94621 0
M  V30 8970 H 839.127 1.46003 -3.72187 0
M  V30 8971 H 840.567 2.46303 -3.45124 0
M  V30 8972 C 839.026 2.72034 -1.98744 0
M  V30 8973 O 839.556 3.71695 -1.52335 0
M  V30 8974 N 837.762 2.38695 -1.6575 0
M  V30 8975 H 837.309 1.57702 -2.03685 0
M  V30 8976 H 837.267 2.9744 -1.01867 0
M  V30 8977 N 841.039 1.57585 0.0217189 0
M  V30 8978 C 841.987 2.08134 1.03842 0
M  V30 8979 C 842.981 0.996662 1.36978 0
M  V30 8980 O 844.187 1.18149 1.35797 0
M  V30 8981 H 840.562 0.664298 0.352438 0
M  V30 8982 H 842.533 2.92583 0.58634 0
M  V30 8983 C 841.282 2.58218 2.32849 0
M  V30 8984 H 840.605 3.41302 2.08214 0
M  V30 8985 H 842.045 2.97289 3.02316 0
M  V30 8986 C 840.504 1.48664 3.02325 0
M  V30 8987 O 841.034 0.857075 3.9245 0
M  V30 8988 N 839.24 1.21938 2.63779 0
M  V30 8989 H 838.787 1.73319 1.90574 0
M  V30 8990 H 838.745 0.488523 3.10581 0
M  V30 8991 N 842.517 -0.29412 1.54831 0
M  V30 8992 C 843.928 -0.866651 1.65366 0
M  V30 8993 C 844.279 -1.87834 0.56681 0
M  V30 8994 O 843.404 -2.14374 -0.295389 0
M  V30 8995 C 843.999 -1.57869 2.99771 0
M  V30 8996 C 842.558 -2.09954 3.12404 0
M  V30 8997 C 841.705 -0.934492 2.6108 0
M  V30 8998 H 844.656 -0.0709551 1.58541 0
M  V30 8999 H 844.677 -2.44462 2.91579 0
M  V30 9000 H 844.189 -0.84212 3.78853 0
M  V30 9001 H 842.29 -2.86637 2.38055 0
M  V30 9002 H 842.403 -2.32934 4.18663 0
M  V30 9003 H 840.767 -1.32199 2.17705 0
M  V30 9004 H 841.55 -0.211768 3.42646 0
M  V30 9005 N 843.995 -1.47404 -0.557645 0
M  V30 9006 C 845.406 -1.47872 -1.13977 0
M  V30 9007 C 845.757 -0.233176 -1.94809 0
M  V30 9008 O 844.882 0.661945 -2.06027 0
M  V30 9009 C 845.477 -2.67926 -2.07368 0
M  V30 9010 C 844.036 -2.71354 -2.60852 0
M  V30 9011 C 843.183 -2.40967 -1.37223 0
M  V30 9012 H 846.134 -1.54921 -0.344268 0
M  V30 9013 H 846.155 -2.44871 -2.91236 0
M  V30 9014 H 845.667 -3.58562 -1.48509 0
M  V30 9015 H 843.768 -1.84855 -3.23511 0
M  V30 9016 H 843.881 -3.72032 -3.01876 0
M  V30 9017 H 842.245 -1.91541 -1.67882 0
M  V30 9018 H 843.028 -3.33811 -0.801583 0
M  V30 9019 N 845.473 0.80434 -1.35529 0
M  V30 9020 C 846.884 1.37849 -1.25915 0
M  V30 9021 C 847.235 1.95905 0.107495 0
M  V30 9022 O 846.36 1.91462 1.00852 0
M  V30 9023 C 846.955 2.50608 -2.27994 0
M  V30 9024 C 845.514 3.03879 -2.22114 0
M  V30 9025 C 844.661 1.76856 -2.13582 0
M  V30 9026 H 847.612 0.607192 -1.46625 0
M  V30 9027 H 847.633 3.29221 -1.90772 0
M  V30 9028 H 847.145 2.08323 -3.27449 0
M  V30 9029 H 845.246 3.50622 -1.26077 0
M  V30 9030 H 845.359 3.61707 -3.14173 0
M  V30 9031 H 843.723 1.98498 -1.59595 0
M  V30 9032 H 844.506 1.36721 -3.14901 0
M  V30 9033 N 846.951 1.19563 1.02676 0
M  V30 9034 C 847.883 0.893054 2.11086 0
M  V30 9035 C 848.896 -0.115101 1.62393 0
M  V30 9036 O 850.085 0.11459 1.78132 0
M  V30 9037 C 847.185 0.315533 3.37428 0
M  V30 9038 C 846.358 1.37276 4.153 0
M  V30 9039 C 845.417 0.808398 5.19953 0
M  V30 9040 O 844.443 1.48661 5.49444 0
M  V30 9041 N 845.645 -0.387253 5.79207 0
M  V30 9042 H 848.41 1.82622 2.37633 0
M  V30 9043 H 845.971 1.09792 1.18984 0
M  V30 9044 H 847.963 -0.0759166 4.04629 0
M  V30 9045 H 846.533 -0.521961 3.08211 0
M  V30 9046 H 845.753 1.93897 3.43217 0
M  V30 9047 H 847.041 2.08509 4.64114 0
M  V30 9048 H 846.439 -0.955725 5.57568 0
M  V30 9049 H 844.996 -0.720457 6.47806 0
M  V30 9050 N 848.429 -1.21819 0.999893 0
M  V30 9051 C 849.377 -2.26027 0.549047 0
M  V30 9052 C 850.371 -1.64516 -0.403826 0
M  V30 9053 O 851.577 -1.77878 -0.275578 0
M  V30 9054 H 847.952 -0.734958 0.159185 0
M  V30 9055 H 849.923 -2.61398 1.43923 0
M  V30 9056 C 848.672 -3.47514 -0.11369 0
M  V30 9057 H 847.995 -3.95112 0.610482 0
M  V30 9058 H 849.435 -4.22179 -0.3925 0
M  V30 9059 C 847.894 -3.08614 -1.35126 0
M  V30 9060 O 848.424 -3.1864 -2.44605 0
M  V30 9061 N 846.63 -2.63327 -1.22911 0
M  V30 9062 H 846.177 -2.55369 -0.338288 0
M  V30 9063 H 846.135 -2.37668 -2.05818 0
M  V30 9064 N 849.908 -0.773975 -1.37286 0
M  V30 9065 C 851.156 -0.338636 -1.99243 0
M  V30 9066 C 851.477 1.08919 -1.61746 0
M  V30 9067 O 850.747 1.74822 -0.88397 0
M  V30 9068 H 849.327 -0.12222 -0.736934 0
M  V30 9069 H 851.989 -0.992595 -1.67731 0
M  V30 9070 H 851.085 -0.418055 -3.09287 0
M  V30 9071 N 851.386 1.48609 -0.524698 0
M  V30 9072 C 852.634 2.02097 0.0112991 0
M  V30 9073 C 852.955 1.40455 1.35268 0
M  V30 9074 O 852.225 0.56807 1.87483 0
M  V30 9075 H 850.805 0.746966 0.00716426 0
M  V30 9076 H 853.467 1.82378 -0.687329 0
M  V30 9077 H 852.563 3.11855 0.123531 0
M  V30 9078 N 852.864 0.259585 1.55447 0
M  V30 9079 C 854.089 -0.368317 2.04103 0
M  V30 9080 C 854.514 -1.49827 1.13725 0
M  V30 9081 O 853.872 -1.80814 0.132705 0
M  V30 9082 C 853.92 -0.841506 3.50644 0
M  V30 9083 O 853.024 -1.95008 3.63381 0
M  V30 9084 H 852.365 -0.0785227 0.659341 0
M  V30 9085 H 854.895 0.389349 2.00861 0
M  V30 9086 H 854.905 -1.14138 3.9171 0
M  V30 9087 H 853.58 -0.0147001 4.15897 0
M  V30 9088 H 852.157 -1.65393 3.34215 0
M  V30 9089 N 854.342 -1.57594 -0.0133615 0
M  V30 9090 C 855.753 -1.78168 -0.557937 0
M  V30 9091 C 856.104 -0.892616 -1.74719 0
M  V30 9092 O 855.229 -0.0915491 -2.16206 0
M  V30 9093 C 855.824 -3.23115 -1.01894 0
M  V30 9094 C 854.383 -3.44831 -1.50892 0
M  V30 9095 C 853.53 -2.73558 -0.454044 0
M  V30 9096 H 856.481 -1.57266 0.212843 0
M  V30 9097 H 856.502 -3.30493 -1.8856 0
M  V30 9098 H 856.014 -3.87798 -0.153175 0
M  V30 9099 H 854.115 -2.85345 -2.39602 0
M  V30 9100 H 854.228 -4.53485 -1.54559 0
M  V30 9101 H 852.592 -2.37787 -0.912666 0
M  V30 9102 H 853.375 -3.40932 0.402524 0
M  V30 9103 N 855.82 0.285905 -1.54985 0
M  V30 9104 C 857.06 1.02699 -1.76726 0
M  V30 9105 C 857.424 1.83962 -0.549717 0
M  V30 9106 O 858.625 2.60943 -0.645142 0
M  V30 9107 C 856.896 1.89671 -3.02919 0
M  V30 9108 S 858.455 2.7022 -3.45726 0
M  V30 9109 H 855.273 0.346114 -0.621068 0
M  V30 9110 H 857.875 0.298764 -1.93204 0
M  V30 9111 H 856.579 1.28873 -3.89641 0
M  V30 9112 H 856.11 2.66836 -2.89071 0
M  V30 9113 H 858.125 3.92184 -3.03983 0
M  V30 9114 N 857.298 1.47698 0.54982 0
M  V30 9115 C 858.523 1.58579 1.33669 0
M  V30 9116 C 858.948 0.239049 1.86575 0
M  V30 9117 O 858.306 -0.786256 1.63364 0
M  V30 9118 C 858.354 2.62029 2.47736 0
M  V30 9119 O 857.458 2.17813 3.50188 0
M  V30 9120 H 856.799 0.532447 0.396732 0
M  V30 9121 H 859.329 1.93536 0.6637 0
M  V30 9122 H 859.339 2.82682 2.94202 0
M  V30 9123 H 858.014 3.59812 2.08586 0
M  V30 9124 H 856.591 2.07291 3.09976 0
M  V30 9125 N 858.776 -0.797141 1.35954 0
M  V30 9126 C 860.024 -1.55161 1.29497 0
M  V30 9127 C 860.345 -1.94582 -0.127659 0
M  V30 9128 O 859.615 -1.64343 -1.06622 0
M  V30 9129 H 858.195 -0.575413 0.47635 0
M  V30 9130 H 860.857 -0.950282 1.70164 0
M  V30 9131 H 859.953 -2.46272 1.9172 0
M  V30 9132 N 860.254 -1.20106 -1.0204 0
M  V30 9133 C 861.665 -1.00992 -1.57027 0
M  V30 9134 C 862.016 0.434782 -1.91322 0
M  V30 9135 O 861.141 1.31557 -1.71819 0
M  V30 9136 C 861.736 -1.82697 -2.85319 0
M  V30 9137 C 860.295 -1.67959 -3.36848 0
M  V30 9138 C 859.442 -1.80868 -2.10195 0
M  V30 9139 H 862.393 -1.34354 -0.844676 0
M  V30 9140 H 862.414 -1.32809 -3.5657 0
M  V30 9141 H 861.926 -2.87839 -2.60328 0
M  V30 9142 H 860.027 -0.654389 -3.66809 0
M  V30 9143 H 860.14 -2.49006 -4.09308 0
M  V30 9144 H 858.504 -1.24015 -2.22469 0
M  V30 9145 H 859.287 -2.87486 -1.87635 0
M  V30 9146 N 861.732 1.21287 -1.00634 0
M  V30 9147 C 862.695 2.21927 -0.572821 0
M  V30 9148 C 863.695 1.5691 0.351541 0
M  V30 9149 O 864.885 1.73623 0.141643 0
M  V30 9150 C 862.017 3.40501 0.164932 0
M  V30 9151 H 863.21 2.61795 -1.463 0
M  V30 9152 H 860.763 1.34571 -0.794998 0
M  V30 9153 H 861.498 3.06123 1.07049 0
M  V30 9154 H 861.283 3.88912 -0.498962 0
M  V30 9155 H 862.773 4.15103 0.455945 0
M  V30 9156 N 863.21 0.781244 1.36873 0
M  V30 9157 C 864.435 0.360398 2.04245 0
M  V30 9158 C 864.86 -1.01242 1.58529 0
M  V30 9159 O 864.218 -1.65063 0.749936 0
M  V30 9160 C 864.266 0.42329 3.58107 0
M  V30 9161 O 863.37 -0.572796 4.08403 0
M  V30 9162 H 862.711 0.154386 0.645803 0
M  V30 9163 H 865.241 1.06008 1.74996 0
M  V30 9164 H 865.251 0.283967 4.07011 0
M  V30 9165 H 863.926 1.42477 3.90734 0
M  V30 9166 H 862.503 -0.395809 3.70793 0
M  V30 9167 N 864.689 -1.48329 0.532571 0
M  V30 9168 C 865.599 -2.33445 -0.232546 0
M  V30 9169 C 866.615 -1.46651 -0.93645 0
M  V30 9170 O 867.791 -1.79627 -0.910834 0
M  V30 9171 C 864.856 -3.22824 -1.26434 0
M  V30 9172 C 863.917 -4.25492 -0.570511 0
M  V30 9173 C 863.15 -5.10601 -1.55315 0
M  V30 9174 O 863.373 -4.97733 -2.78599 0
M  V30 9175 O 862.307 -5.91927 -1.09112 0
M  V30 9176 H 866.133 -3.00119 0.464988 0
M  V30 9177 H 863.718 -1.46489 0.293462 0
M  V30 9178 H 865.6 -3.78103 -1.86055 0
M  V30 9179 H 864.275 -2.58807 -1.94424 0
M  V30 9180 H 863.182 -3.74041 0.0662587 0
M  V30 9181 H 864.515 -4.92154 0.0674904 0
M  V30 9182 N 866.167 -0.267825 -1.55308 0
M  V30 9183 C 867.395 0.354587 -2.03839 0
M  V30 9184 C 867.81 1.50007 -1.14644 0
M  V30 9185 O 867.167 1.81752 -0.165055 0
M  V30 9186 C 867.218 0.84254 -3.51544 0
M  V30 9187 O 866.939 -0.257318 -4.37344 0
M  V30 9188 C 868.44 1.53351 -4.15931 0
M  V30 9189 H 865.66 0.0818131 -0.665994 0
M  V30 9190 H 868.204 -0.397795 -2.00594 0
M  V30 9191 H 866.359 1.54503 -3.55257 0
M  V30 9192 H 866.773 0.116593 -5.2437 0
M  V30 9193 H 868.247 1.82643 -5.20908 0
M  V30 9194 H 868.724 2.4626 -3.63666 0
M  V30 9195 H 869.33 0.87506 -4.162 0
M  V30 9196 N 867.645 1.57599 0.00500368 0
M  V30 9197 C 868.575 2.11143 0.99705 0
M  V30 9198 C 869.556 1.0194 1.3617 0
M  V30 9199 O 870.741 1.29596 1.44632 0
M  V30 9200 C 867.871 2.61062 2.2905 0
M  V30 9201 C 866.825 3.74745 2.0676 0
M  V30 9202 C 866.151 4.10961 3.42075 0
M  V30 9203 C 867.451 5.02222 1.43424 0
M  V30 9204 H 869.145 2.94281 0.551251 0
M  V30 9205 H 866.691 1.41565 0.263715 0
M  V30 9206 H 868.644 2.97146 2.98801 0
M  V30 9207 H 867.368 1.75038 2.75734 0
M  V30 9208 H 866.027 3.39047 1.39436 0
M  V30 9209 H 865.675 3.21968 3.86453 0
M  V30 9210 H 865.375 4.87549 3.27979 0
M  V30 9211 H 866.899 4.49599 4.1315 0
M  V30 9212 H 868.313 5.36109 2.03125 0
M  V30 9213 H 866.71 5.83581 1.39831 0
M  V30 9214 H 867.78 4.83224 0.40285 0
M  V30 9215 N 869.123 -0.277682 1.55134 0
M  V30 9216 C 870.4 -1.0309 1.66228 0
M  V30 9217 C 870.78 -2.0445 0.525701 0
M  V30 9218 O 870.128 -2.23512 -0.474816 0
M  V30 9219 C 870.338 -1.6919 3.05247 0
M  V30 9220 C 871.686 -2.20526 3.62841 0
M  V30 9221 O 872.71 -1.79185 3.07849 0
M  V30 9222 O 871.569 -2.96342 4.59177 0
M  V30 9223 H 868.663 -0.4779 0.674937 0
M  V30 9224 H 871.209 -0.273912 1.67475 0
M  V30 9225 H 869.981 -0.957163 3.79413 0
M  V30 9226 H 869.604 -2.51587 3.07879 0
M  V30 9227 N 870.601 -1.47988 -0.541979 0
M  V30 9228 C 871.841 -1.56982 -1.30905 0
M  V30 9229 C 872.205 -0.233153 -1.90579 0
M  V30 9230 O 873.406 -0.198018 -2.6807 0
M  V30 9231 C 871.677 -2.66787 -2.37823 0
M  V30 9232 S 873.236 -2.95467 -3.24414 0
M  V30 9233 H 870.054 -0.554165 -0.445446 0
M  V30 9234 H 872.656 -1.85448 -0.618803 0
M  V30 9235 H 871.36 -3.62483 -1.92443 0
M  V30 9236 H 870.891 -2.40184 -3.11569 0
M  V30 9237 H 872.906 -2.33846 -4.37642 0
M  V30 9238 N 872.079 0.78992 -1.36375 0
M  V30 9239 C 873.304 1.58389 -1.33895 0
M  V30 9240 C 873.729 1.8794 0.0774934 0
M  V30 9241 O 873.087 1.4785 1.0493 0
M  V30 9242 C 873.135 2.88201 -2.16732 0
M  V30 9243 O 872.239 3.81778 -1.55946 0
M  V30 9244 H 871.58 0.480471 -0.458305 0
M  V30 9245 H 874.11 0.979119 -1.79651 0
M  V30 9246 H 874.12 3.37475 -2.29292 0
M  V30 9247 H 872.795 2.66019 -3.19698 0
M  V30 9248 H 871.372 3.40371 -1.52323 0
M  V30 9249 O 873.596 1.32076 0.929425 0
M  V30 9250 H 874.287 1.14678 1.56105 0
M  V30 END ATOM
M  V30 BEGIN BOND
M  V30 END BOND
M  V30 END CTAB
M  END
$$$$
