drugbank_target|P07339 Cathepsin D (DB00071; DB02216; DB03028; DB03096; DB07542; DB08740)
 OpenBabel12092119433D

  0  0  0     0  0            999 V3000
M  V30 BEGIN CTAB
M  V30 COUNTS 6271 6343 0 0 0
M  V30 BEGIN ATOM
M  V30 1 H -0.908 1.98254 -0.117106 0
M  V30 2 N 0 1.576 0 0
M  V30 3 C 0.933 2.03868 1.02534 0
M  V30 4 C 1.911 0.928543 1.3348 0
M  V30 5 O 3.095 1.19667 1.45644 0
M  V30 6 C 0.222 2.43627 2.35294 0
M  V30 7 C -0.732 3.65373 2.2001 0
M  V30 8 S 0.101 5.13292 1.52614 0
M  V30 9 C 1.257 5.56322 2.86805 0
M  V30 10 H 1.49 2.90518 0.631377 0
M  V30 11 H -0.977 1.52953 0.210867 0
M  V30 12 H 0.981 2.67203 3.11629 0
M  V30 13 H -0.358 1.57376 2.7183 0
M  V30 14 H -1.165 3.90944 3.18086 0
M  V30 15 H -1.563 3.418 1.51819 0
M  V30 16 H 0.729 5.58782 3.83104 0
M  V30 17 H 1.672 6.56266 2.65933 0
M  V30 18 H 2.08 4.83886 2.90714 0
M  V30 19 N 1.4781 -0.272755 1.55222 0
M  V30 20 C 2.4101 -1.35946 1.8453 0
M  V30 21 C 3.4231 -1.45525 0.729818 0
M  V30 22 O 4.6121 -1.47337 1.00767 0
M  V30 23 C 1.7121 -2.74069 1.99347 0
M  V30 24 C 0.8851 -2.87079 3.30007 0
M  V30 25 C -0.0559 -4.05879 3.34886 0
M  V30 26 O -1.0299 -3.96626 4.08261 0
M  V30 27 N 0.1721 -5.17857 2.62307 0
M  V30 28 H 2.9371 -1.11149 2.78327 0
M  V30 29 H 0.4981 -0.462869 1.55142 0
M  V30 30 H 2.4901 -3.51838 1.99981 0
M  V30 31 H 1.0601 -2.91688 1.12415 0
M  V30 32 H 0.2801 -1.96193 3.41909 0
M  V30 33 H 1.5681 -2.92701 4.16177 0
M  V30 34 H 0.9661 -5.28261 2.02377 0
M  V30 35 H -0.4769 -5.93855 2.68663 0
M  V30 36 N 2.9562 -1.48159 -0.537278 0
M  V30 37 C 4.3672 -1.49429 -1.11928 0
M  V30 38 C 4.7182 -0.26 -1.9447 0
M  V30 39 O 3.8432 0.633489 -2.0692 0
M  V30 40 C 4.4382 -2.70758 -2.03656 0
M  V30 41 C 2.9972 -2.74923 -2.57088 0
M  V30 42 C 2.1442 -2.42835 -1.3389 0
M  V30 43 H 5.0952 -1.55381 -0.322886 0
M  V30 44 H 5.1162 -2.48861 -2.87834 0
M  V30 45 H 4.6282 -3.60575 -1.43553 0
M  V30 46 H 2.7292 -1.89296 -3.20933 0
M  V30 47 H 2.8422 -3.76157 -2.9672 0
M  V30 48 H 1.2062 -1.93836 -1.65226 0
M  V30 49 H 1.9892 -3.34884 -0.755504 0
M  V30 50 N 4.4343 0.785586 -1.36625 0
M  V30 51 C 5.6593 1.57963 -1.34397 0
M  V30 52 C 6.0843 1.87964 0.071526 0
M  V30 53 O 5.4423 1.48182 1.0446 0
M  V30 54 C 5.4903 2.87511 -2.17646 0
M  V30 55 O 4.5943 3.81281 -1.57158 0
M  V30 56 H 3.9353 0.479014 -0.459828 0
M  V30 57 H 6.4653 0.973411 -1.79961 0
M  V30 58 H 6.4753 3.36745 -2.30362 0
M  V30 59 H 5.1503 2.65002 -3.20541 0
M  V30 60 H 3.7273 3.39885 -1.53403 0
M  V30 61 N 5.9124 1.20967 1.01018 0
M  V30 62 C 7.1374 1.0503 1.78839 0
M  V30 63 C 7.5624 -0.395752 1.8389 0
M  V30 64 O 6.9204 -1.28529 1.27867 0
M  V30 65 C 6.9684 1.64602 3.2084 0
M  V30 66 O 6.0724 0.887988 4.02726 0
M  V30 67 H 5.4134 0.369987 0.551367 0
M  V30 68 H 7.9434 1.60399 1.27018 0
M  V30 69 H 7.9534 1.68607 3.71532 0
M  V30 70 H 6.6284 2.69841 3.16479 0
M  V30 71 H 5.2054 0.922648 3.61305 0
M  V30 72 N 7.3905 -1.2043 1.01659 0
M  V30 73 C 8.3205 -2.25466 0.607226 0
M  V30 74 C 9.3015 -1.65853 -0.377716 0
M  V30 75 O 10.4865 -1.92409 -0.263149 0
M  V30 76 C 7.6165 -3.47256 -0.0552949 0
M  V30 77 C 6.5705 -4.19462 0.850632 0
M  V30 78 C 5.8965 -5.34673 0.0538859 0
M  V30 79 C 7.1965 -4.75603 2.15868 0
M  V30 80 H 8.8905 -2.59962 1.48526 0
M  V30 81 H 6.4365 -1.2496 0.715605 0
M  V30 82 H 8.3895 -4.19917 -0.353233 0
M  V30 83 H 7.1135 -3.11924 -0.968045 0
M  V30 84 H 5.7725 -3.48667 1.13257 0
M  V30 85 H 5.4205 -4.95585 -0.860514 0
M  V30 86 H 5.1205 -5.83913 0.657192 0
M  V30 87 H 6.6445 -6.10138 -0.237598 0
M  V30 88 H 8.0585 -5.40083 1.92311 0
M  V30 89 H 6.4555 -5.3528 2.71284 0
M  V30 90 H 7.5255 -3.94346 2.82169 0
M  V30 91 N 8.8686 -0.792821 -1.36206 0
M  V30 92 C 9.7986 -0.207853 -2.32573 0
M  V30 93 C 10.7796 0.659055 -1.56813 0
M  V30 94 O 11.9646 0.592176 -1.84951 0
M  V30 95 C 9.0946 0.655449 -3.41059 0
M  V30 96 C 8.0486 -0.111842 -4.27854 0
M  V30 97 C 7.3746 0.872274 -5.27537 0
M  V30 98 C 8.6746 -1.30299 -5.05786 0
M  V30 99 H 10.3686 -1.01294 -2.81744 0
M  V30 100 H 7.9146 -0.48854 -1.3546 0
M  V30 101 H 9.8676 1.07464 -4.07467 0
M  V30 102 H 8.5916 1.49328 -2.90463 0
M  V30 103 H 7.2506 -0.512053 -3.63006 0
M  V30 104 H 6.8986 1.70523 -4.73214 0
M  V30 105 H 6.5986 0.363291 -5.86476 0
M  V30 106 H 8.1226 1.28996 -5.96818 0
M  V30 107 H 9.5366 -0.959379 -5.65216 0
M  V30 108 H 7.9336 -1.7455 -5.74154 0
M  V30 109 H 9.0036 -2.09663 -4.37229 0
M  V30 110 N 10.3467 1.47872 -0.545128 0
M  V30 111 C 11.7577 1.86384 -0.108581 0
M  V30 112 C 12.1087 1.45309 1.31832 0
M  V30 113 O 11.2337 0.850641 1.9898 0
M  V30 114 C 11.8287 3.38265 -0.190274 0
M  V30 115 C 10.3877 3.75914 0.191164 0
M  V30 116 C 9.5347 2.71926 -0.543273 0
M  V30 117 H 12.4857 1.39561 -0.755537 0
M  V30 118 H 12.5067 3.75831 0.594217 0
M  V30 119 H 12.0187 3.6813 -1.2289 0
M  V30 120 H 10.1197 3.51665 1.23136 0
M  V30 121 H 10.2327 4.78836 -0.158987 0
M  V30 122 H 8.5967 2.54697 0.0122495 0
M  V30 123 H 9.3797 3.04634 -1.58282 0
M  V30 124 N 11.8248 0.280983 1.55075 0
M  V30 125 C 12.7548 -0.597469 2.25727 0
M  V30 126 C 13.7358 -1.15417 1.24952 0
M  V30 127 O 14.9208 -1.18722 1.53684 0
M  V30 128 C 12.0508 -1.7789 2.98283 0
M  V30 129 C 11.0048 -1.35347 4.06036 0
M  V30 130 C 10.3308 -2.61846 4.66198 0
M  V30 131 C 11.6308 -0.499354 5.19907 0
M  V30 132 H 13.3248 -0.00824265 2.99399 0
M  V30 133 H 10.8708 -0.0025244 1.44 0
M  V30 134 H 12.8238 -2.39937 3.46422 0
M  V30 135 H 11.5478 -2.39405 2.22155 0
M  V30 136 H 10.2068 -0.756156 3.58717 0
M  V30 137 H 9.8548 -3.21632 3.86732 0
M  V30 138 H 9.5548 -2.3409 5.38958 0
M  V30 139 H 11.0788 -3.24732 5.1709 0
M  V30 140 H 12.4928 -1.02498 5.64063 0
M  V30 141 H 10.8898 -0.316424 5.99265 0
M  V30 142 H 11.9598 0.480459 4.82514 0
M  V30 143 N 13.3029 -1.57598 0.00835791 0
M  V30 144 C 14.2659 -2.07884 -0.965242 0
M  V30 145 C 15.2659 -0.989825 -1.26725 0
M  V30 146 O 16.4559 -1.25218 -1.21104 0
M  V30 147 C 13.5879 -2.52731 -2.28779 0
M  V30 148 H 14.7809 -2.95178 -0.530112 0
M  V30 149 H 12.3339 -1.54458 -0.239283 0
M  V30 150 H 13.0689 -1.68705 -2.76964 0
M  V30 151 H 12.8539 -3.32272 -2.08177 0
M  V30 152 H 14.3439 -2.91933 -2.98605 0
M  V30 153 N 14.781 0.264519 -1.55364 0
M  V30 154 C 15.711 1.33121 -1.91836 0
M  V30 155 C 16.692 1.51101 -0.781192 0
M  V30 156 O 17.877 1.64003 -1.04003 0
M  V30 157 C 15.007 2.68921 -2.19769 0
M  V30 158 C 13.961 2.65661 -3.35571 0
M  V30 159 C 13.287 4.05093 -3.49004 0
M  V30 160 C 14.587 2.24187 -4.71739 0
M  V30 161 H 16.281 1.02844 -2.81182 0
M  V30 162 H 13.827 0.493286 -1.35287 0
M  V30 163 H 15.78 3.43663 -2.43872 0
M  V30 164 H 14.504 3.00799 -1.27231 0
M  V30 165 H 13.163 1.93377 -3.1145 0
M  V30 166 H 12.811 4.34206 -2.53917 0
M  V30 167 H 12.511 4.03804 -4.26868 0
M  V30 168 H 14.035 4.81561 -3.75408 0
M  V30 169 H 15.449 2.88654 -4.9533 0
M  V30 170 H 13.846 2.34044 -5.52579 0
M  V30 171 H 14.916 1.19327 -4.69988 0
M  V30 172 N 16.2591 1.48442 0.529413 0
M  V30 173 C 17.4991 1.58086 1.29569 0
M  V30 174 C 17.8631 0.249302 1.90375 0
M  V30 175 O 19.0641 0.220738 2.67892 0
M  V30 176 C 17.3351 2.68793 2.35552 0
M  V30 177 S 18.8941 2.98207 3.21898 0
M  V30 178 H 15.7121 0.557922 0.440732 0
M  V30 179 H 18.3141 1.85966 0.603059 0
M  V30 180 H 17.0181 3.64102 1.89363 0
M  V30 181 H 16.5491 2.42817 3.09522 0
M  V30 182 H 18.5641 2.37548 4.35644 0
M  V30 183 N 17.7372 -0.778329 1.37039 0
M  V30 184 C 18.6672 -1.90546 1.34962 0
M  V30 185 C 19.6482 -1.68681 0.219274 0
M  V30 186 O 20.8332 -1.89634 0.418624 0
M  V30 187 C 17.9632 -3.27734 1.14925 0
M  V30 188 C 16.9172 -3.64147 2.24902 0
M  V30 189 C 16.2432 -4.99806 1.89996 0
M  V30 190 C 17.5432 -3.71579 3.67051 0
M  V30 191 H 19.2372 -1.92541 2.29277 0
M  V30 192 H 16.7832 -0.924948 1.10366 0
M  V30 193 H 18.7362 -4.06215 1.12104 0
M  V30 194 H 17.4602 -3.26154 0.170631 0
M  V30 195 H 16.1192 -2.8797 2.26868 0
M  V30 196 H 15.7672 -4.94759 0.906796 0
M  V30 197 H 15.4672 -5.25139 2.63634 0
M  V30 198 H 16.9912 -5.80694 1.88749 0
M  V30 199 H 18.4052 -4.40227 3.67251 0
M  V30 200 H 16.8022 -4.08405 4.39688 0
M  V30 201 H 17.8722 -2.72404 4.01154 0
M  V30 202 N 19.2153 -1.21501 -1.00376 0
M  V30 203 C 20.1453 -0.999478 -2.11028 0
M  V30 204 C 21.1263 0.0759671 -1.6993 0
M  V30 205 O 22.3113 -0.0841106 -1.94018 0
M  V30 206 C 19.4413 -0.564709 -3.42678 0
M  V30 207 C 18.3953 -1.58486 -3.97576 0
M  V30 208 C 17.7213 -1.00628 -5.25146 0
M  V30 209 C 19.0213 -2.97204 -4.29496 0
M  V30 210 H 20.7153 -1.92495 -2.29317 0
M  V30 211 H 18.2613 -0.92693 -1.102 0
M  V30 212 H 20.2143 -0.401091 -4.19487 0
M  V30 213 H 18.9383 0.396411 -3.24185 0
M  V30 214 H 17.5973 -1.73606 -3.22888 0
M  V30 215 H 17.2453 -0.0368439 -5.02987 0
M  V30 216 H 16.9453 -1.68771 -5.62841 0
M  V30 217 H 18.4693 -0.854015 -6.04598 0
M  V30 218 H 19.8833 -2.8552 -4.97143 0
M  V30 219 H 18.2803 -3.62372 -4.78338 0
M  V30 220 H 19.3503 -3.47956 -3.3772 0
M  V30 221 N 20.6934 1.19889 -1.02296 0
M  V30 222 C 21.6564 2.21116 -0.603351 0
M  V30 223 C 22.6564 1.5738 0.329884 0
M  V30 224 O 23.8464 1.73802 0.117702 0
M  V30 225 C 20.9784 3.40696 0.117992 0
M  V30 226 H 22.1714 2.59754 -1.49893 0
M  V30 227 H 19.7244 1.33463 -0.813468 0
M  V30 228 H 20.4594 3.07569 1.0282 0
M  V30 229 H 20.2444 3.88188 -0.552511 0
M  V30 230 H 21.7344 4.15692 0.398696 0
M  V30 231 N 22.1715 0.800033 1.35784 0
M  V30 232 C 23.1345 0.211565 2.28221 0
M  V30 233 C 24.1345 -0.59728 1.49296 0
M  V30 234 O 25.3245 -0.416721 1.69142 0
M  V30 235 C 22.4565 -0.705846 3.33513 0
M  V30 236 H 23.6495 1.02677 2.81776 0
M  V30 237 H 21.2025 0.570211 1.45528 0
M  V30 238 H 21.9375 -1.54498 2.85133 0
M  V30 239 H 21.7225 -0.127655 3.91892 0
M  V30 240 H 23.2125 -1.11211 4.02519 0
M  V30 241 N 23.6496 -1.47581 0.552962 0
M  V30 242 C 25.0606 -1.86324 0.118463 0
M  V30 243 C 25.4116 -1.46006 -1.3106 0
M  V30 244 O 24.5366 -0.861182 -1.98526 0
M  V30 245 C 25.1316 -3.3816 0.20821 0
M  V30 246 C 23.6906 -3.7601 -0.171226 0
M  V30 247 C 22.8376 -2.71634 0.557686 0
M  V30 248 H 25.7886 -1.39159 0.762928 0
M  V30 249 H 25.8096 -3.76141 -0.574278 0
M  V30 250 H 25.3216 -3.67473 1.24841 0
M  V30 251 H 23.4226 -3.52313 -1.21269 0
M  V30 252 H 23.5356 -4.78745 0.184379 0
M  V30 253 H 21.8996 -2.547 0.00125792 0
M  V30 254 H 22.6826 -3.0379 1.59896 0
M  V30 255 N 25.1277 -0.289203 -1.54924 0
M  V30 256 C 26.0907 0.579144 -2.21762 0
M  V30 257 C 27.0907 1.07047 -1.1999 0
M  V30 258 O 28.2807 0.968384 -1.44803 0
M  V30 259 C 25.4127 1.80055 -2.8947 0
M  V30 260 H 26.6057 -0.00464908 -2.999 0
M  V30 261 H 24.1587 -0.0399306 -1.56249 0
M  V30 262 H 24.8937 2.42449 -2.15381 0
M  V30 263 H 24.6787 1.45602 -3.64064 0
M  V30 264 H 26.1687 2.41773 -3.40493 0
M  V30 265 N 26.6058 1.57591 -0.0167156 0
M  V30 266 C 27.8308 1.9598 0.67872 0
M  V30 267 C 28.2558 0.892546 1.65575 0
M  V30 268 O 27.6138 -0.147772 1.80697 0
M  V30 269 C 27.6618 3.33468 1.37227 0
M  V30 270 O 26.7658 3.28954 2.48722 0
M  V30 271 H 26.1068 0.639339 0.17928 0
M  V30 272 H 28.6368 2.04463 -0.0748802 0
M  V30 273 H 28.6468 3.69417 1.7319 0
M  V30 274 H 27.3218 4.10694 0.656007 0
M  V30 275 H 25.8988 3.04705 2.14963 0
M  V30 276 N 28.0839 -0.256276 1.55502 0
M  V30 277 C 29.0469 -1.30047 1.88734 0
M  V30 278 C 30.0469 -1.4154 0.763086 0
M  V30 279 O 31.2369 -1.40403 1.03115 0
M  V30 280 C 28.3689 -2.67953 2.10747 0
M  V30 281 H 29.5619 -1.01802 2.82093 0
M  V30 282 H 27.1149 -0.495134 1.4825 0
M  V30 283 H 27.8499 -3.01351 1.19825 0
M  V30 284 H 27.6349 -2.60993 2.92617 0
M  V30 285 H 29.1249 -3.43368 2.37673 0
M  V30 286 N 29.562 -1.4872 -0.521534 0
M  V30 287 C 30.492 -1.66771 -1.63431 0
M  V30 288 C 31.473 -0.516499 -1.62069 0
M  V30 289 O 32.658 -0.750013 -1.79132 0
M  V30 290 C 29.788 -1.71515 -3.01993 0
M  V30 291 C 28.742 -2.86222 -3.18216 0
M  V30 292 C 28.068 -2.76061 -4.57924 0
M  V30 293 C 29.368 -4.27419 -3.00184 0
M  V30 294 H 31.062 -2.59932 -1.48579 0
M  V30 295 H 28.608 -1.25089 -0.713358 0
M  V30 296 H 30.561 -1.82731 -3.7972 0
M  V30 297 H 29.285 -0.749393 -3.17886 0
M  V30 298 H 27.944 -2.74575 -2.42908 0
M  V30 299 H 27.592 -1.77437 -4.70665 0
M  V30 300 H 27.292 -3.53037 -4.69722 0
M  V30 301 H 28.816 -2.89256 -5.37739 0
M  V30 302 H 30.23 -4.39855 -3.67697 0
M  V30 303 H 28.627 -5.05458 -3.2347 0
M  V30 304 H 29.697 -4.43293 -1.96518 0
M  V30 305 N 31.0401 0.771051 -1.3745 0
M  V30 306 C 32.2861 1.5319 -1.32894 0
M  V30 307 C 32.6191 1.94008 0.0862511 0
M  V30 308 O 31.8941 1.64124 1.04373 0
M  V30 309 C 32.1771 2.79648 -2.26868 0
M  V30 310 C 32.0301 2.45079 -3.77169 0
M  V30 311 C 33.3491 3.81583 -2.19277 0
M  V30 312 H 30.4681 0.555744 -0.484064 0
M  V30 313 H 33.1101 0.884492 -1.68157 0
M  V30 314 H 31.2601 3.34891 -1.96926 0
M  V30 315 H 32.9321 1.95745 -4.1771 0
M  V30 316 H 31.1751 1.77767 -3.95704 0
M  V30 317 H 31.8461 3.35478 -4.38359 0
M  V30 318 H 34.3221 3.35835 -2.45671 0
M  V30 319 H 33.1981 4.67787 -2.87171 0
M  V30 320 H 33.4591 4.25897 -1.18592 0
M  V30 321 N 32.5182 1.22032 0.997298 0
M  V30 322 C 33.9342 0.979326 1.26021 0
M  V30 323 C 34.1342 -0.32972 1.98784 0
M  V30 324 O 33.1902 -1.05345 2.29475 0
M  V30 325 C 34.5032 2.17509 2.07631 0
M  V30 326 C 36.0512 2.21817 2.2083 0
M  V30 327 C 36.5262 3.40933 3.05825 0
M  V30 328 N 38.0172 3.41067 3.13412 0
M  V30 329 C 38.7522 4.29885 3.79455 0
M  V30 330 N 38.2482 5.28914 4.47462 0
M  V30 331 N 40.0412 4.17673 3.76173 0
M  V30 332 H 32.1922 2.06202 0.509352 0
M  V30 333 H 34.4552 0.90334 0.287541 0
M  V30 334 H 34.1612 3.12415 1.61524 0
M  V30 335 H 34.0352 2.17206 3.08385 0
M  V30 336 H 36.4222 1.27462 2.66153 0
M  V30 337 H 36.5032 2.2616 1.1952 0
M  V30 338 H 36.1472 4.35586 2.61203 0
M  V30 339 H 36.0772 3.33829 4.07266 0
M  V30 340 H 38.5682 2.69406 2.65007 0
M  V30 341 H 38.8812 5.92973 4.95583 0
M  V30 342 H 37.2262 5.32831 4.46224 0
M  V30 343 H 40.4172 3.39564 3.22202 0
M  V30 344 H 40.5902 4.87098 4.27363 0
M  V30 345 N 33.9963 -1.19345 1.0293 0
M  V30 346 C 35.2453 -1.88363 0.721256 0
M  V30 347 C 35.5583 -1.80514 -0.753254 0
M  V30 348 O 36.7643 -2.44788 -1.17436 0
M  V30 349 C 35.2203 -3.37872 1.23978 0
M  V30 350 C 34.8283 -3.54278 2.74211 0
M  V30 351 C 36.5723 -4.12365 1.00775 0
M  V30 352 C 34.4793 -4.97682 3.19479 0
M  V30 353 H 33.4093 -0.705484 0.266098 0
M  V30 354 H 36.0603 -1.34928 1.24365 0
M  V30 355 H 34.4423 -3.90707 0.6453 0
M  V30 356 H 35.6163 -3.11769 3.39318 0
M  V30 357 H 33.9313 -2.93174 2.95699 0
M  V30 358 H 36.5283 -5.18119 1.32123 0
M  V30 359 H 36.8713 -4.16263 -0.0554308 0
M  V30 360 H 37.4043 -3.65668 1.56625 0
M  V30 361 H 34.1433 -4.98945 4.25128 0
M  V30 362 H 33.6633 -5.4095 2.591 0
M  V30 363 H 35.3423 -5.66337 3.12845 0
M  V30 364 N 35.4744 -0.807222 -1.35358 0
M  V30 365 C 36.8854 -0.44876 -1.81226 0
M  V30 366 C 37.2364 1.02929 -1.67033 0
M  V30 367 O 36.3614 1.79991 -1.20133 0
M  V30 368 C 36.9564 -0.807774 -3.2903 0
M  V30 369 C 35.5154 -0.501901 -3.73039 0
M  V30 370 C 34.6624 -1.03304 -2.57339 0
M  V30 371 H 37.6134 -0.998808 -1.23327 0
M  V30 372 H 37.6344 -0.10554 -3.80354 0
M  V30 373 H 37.1464 -1.88357 -3.39328 0
M  V30 374 H 35.2474 0.565128 -3.68289 0
M  V30 375 H 35.3604 -1.03497 -4.67787 0
M  V30 376 H 33.7244 -0.455339 -2.50597 0
M  V30 377 H 34.5074 -2.11496 -2.70415 0
M  V30 378 N 36.9525 1.47285 -0.560781 0
M  V30 379 C 37.8825 2.32857 0.173105 0
M  V30 380 C 38.8635 1.44009 0.905281 0
M  V30 381 O 40.0485 1.7286 0.885046 0
M  V30 382 C 37.1785 3.25861 1.20133 0
M  V30 383 C 36.1325 4.23978 0.585388 0
M  V30 384 C 35.4585 5.06332 1.7185 0
M  V30 385 C 36.7585 5.20242 -0.463178 0
M  V30 386 H 38.4525 2.94466 -0.541307 0
M  V30 387 H 35.9985 1.41601 -0.261764 0
M  V30 388 H 37.9515 3.84569 1.72293 0
M  V30 389 H 36.6755 2.62315 1.94573 0
M  V30 390 H 35.3345 3.66501 0.085054 0
M  V30 391 H 34.9825 4.39186 2.45203 0
M  V30 392 H 34.6825 5.72762 1.31213 0
M  V30 393 H 36.2065 5.67899 2.24329 0
M  V30 394 H 37.6205 5.73293 -0.027502 0
M  V30 395 H 36.0175 5.94896 -0.788627 0
M  V30 396 H 37.0875 4.65504 -1.35773 0
M  V30 397 N 38.4306 0.297415 1.54768 0
M  V30 398 C 39.3806 -0.595275 2.20092 0
M  V30 399 C 40.3646 -1.10163 1.17273 0
M  V30 400 O 41.5566 -1.043 1.43006 0
M  V30 401 C 38.6856 -1.7684 2.94249 0
M  V30 402 C 37.7716 -1.27818 4.0438 0
M  V30 403 N 38.1626 -0.505695 5.03266 0
M  V30 404 C 36.4606 -1.55923 4.17857 0
M  V30 405 C 37.1616 -0.245094 5.81183 0
M  V30 406 N 36.1376 -0.823881 5.3732 0
M  V30 407 H 39.9396 0.00250837 2.939 0
M  V30 408 H 37.4536 0.102007 1.62079 0
M  V30 409 H 39.4506 -2.41944 3.39513 0
M  V30 410 H 38.1106 -2.36992 2.21957 0
M  V30 411 H 39.1216 -0.150928 5.1768 0
M  V30 412 H 35.7986 -2.16849 3.56767 0
M  V30 413 H 37.1886 0.375084 6.70852 0
M  V30 414 N 39.9087 -1.5758 0.0250728 0
M  V30 415 C 40.8557 -2.09973 -0.958129 0
M  V30 416 C 41.8257 -1.00085 -1.3256 0
M  V30 417 O 43.0107 -1.27481 -1.41962 0
M  V30 418 C 40.1507 -2.62812 -2.2366 0
M  V30 419 C 39.2637 -3.86693 -1.92594 0
M  V30 420 C 38.3987 -4.27941 -3.14707 0
M  V30 421 C 37.4377 -5.44591 -2.79442 0
M  V30 422 N 36.5747 -5.81014 -3.94167 0
M  V30 423 H 41.4147 -2.937 -0.504428 0
M  V30 424 H 38.9517 -1.45172 -0.237392 0
M  V30 425 H 40.9097 -2.91536 -2.98434 0
M  V30 426 H 39.5397 -1.81922 -2.66654 0
M  V30 427 H 38.5917 -3.64723 -1.0808 0
M  V30 428 H 39.9037 -4.71547 -1.62619 0
M  V30 429 H 39.0577 -4.58079 -3.97804 0
M  V30 430 H 37.7967 -3.41845 -3.4784 0
M  V30 431 H 36.8017 -5.1415 -1.94755 0
M  V30 432 H 38.0267 -6.32382 -2.47528 0
M  V30 433 H 35.9727 -4.97874 -4.2715 0
M  V30 434 H 35.8897 -6.60498 -3.67801 0
M  V30 435 H 37.1577 -6.15756 -4.7798 0
M  V30 436 N 41.3868 0.248026 -1.55636 0
M  V30 437 C 42.6338 0.976224 -1.77415 0
M  V30 438 C 42.9618 1.85361 -0.589193 0
M  V30 439 O 42.2168 1.90973 0.427529 0
M  V30 440 C 42.5158 1.86819 -3.04686 0
M  V30 441 C 42.1818 1.14625 -4.36087 0
M  V30 442 C 40.8438 0.946723 -4.71795 0
M  V30 443 C 43.1958 0.634463 -5.17324 0
M  V30 444 C 40.5238 0.223091 -5.86276 0
M  V30 445 C 42.8758 -0.0756959 -6.32555 0
M  V30 446 C 41.5398 -0.286711 -6.66884 0
M  V30 447 H 40.8098 0.357226 -0.649208 0
M  V30 448 H 43.4568 0.246415 -1.89908 0
M  V30 449 H 41.7618 2.66502 -2.872 0
M  V30 450 H 43.4588 2.43329 -3.18735 0
M  V30 451 H 40.0488 1.3117 -4.08035 0
M  V30 452 H 44.2328 0.77616 -4.90193 0
M  V30 453 H 39.4888 0.0491185 -6.1138 0
M  V30 454 H 43.6628 -0.479899 -6.94745 0
M  V30 455 H 41.2898 -0.849389 -7.5544 0
M  V30 456 N 42.8649 1.48995 0.513639 0
M  V30 457 C 44.0929 1.61531 1.29288 0
M  V30 458 C 44.5079 0.281801 1.86685 0
M  V30 459 O 43.8649 -0.731111 1.67215 0
M  V30 460 C 43.9159 2.67449 2.43215 0
M  V30 461 O 43.6369 3.95626 1.88179 0
M  V30 462 C 45.1379 2.90575 3.34785 0
M  V30 463 H 42.3579 0.544165 0.392588 0
M  V30 464 H 44.9019 1.9494 0.617956 0
M  V30 465 H 43.0569 2.36853 3.0656 0
M  V30 466 H 43.4709 4.53868 2.62876 0
M  V30 467 H 44.9449 3.68449 4.11035 0
M  V30 468 H 45.4219 2.00011 3.91015 0
M  V30 469 H 46.0279 3.22538 2.77218 0
M  V30 470 N 44.343 -0.763751 1.37857 0
M  V30 471 C 45.568 -1.55805 1.36893 0
M  V30 472 C 45.993 -1.88054 -0.0416135 0
M  V30 473 O 45.351 -1.49825 -1.02089 0
M  V30 474 C 45.399 -2.84012 2.22192 0
M  V30 475 O 44.503 -3.78732 1.63204 0
M  V30 476 H 43.844 -0.471638 0.46739 0
M  V30 477 H 46.374 -0.944657 1.81487 0
M  V30 478 H 46.384 -3.33037 2.35691 0
M  V30 479 H 45.059 -2.59869 3.24716 0
M  V30 480 H 43.636 -3.37402 1.58791 0
M  V30 481 N 45.8211 -1.22559 -0.990812 0
M  V30 482 C 47.0701 -1.04553 -1.72486 0
M  V30 483 C 47.3831 0.419349 -1.91052 0
M  V30 484 O 48.5891 0.719121 -2.61803 0
M  V30 485 C 47.0451 -1.82231 -3.10355 0
M  V30 486 C 46.6531 -3.32981 -2.99713 0
M  V30 487 C 48.3971 -1.7268 -3.87791 0
M  V30 488 C 46.3041 -4.03091 -4.32748 0
M  V30 489 H 45.2341 -0.387614 -0.646739 0
M  V30 490 H 47.8851 -1.46429 -1.10593 0
M  V30 491 H 46.2671 -1.33155 -3.72942 0
M  V30 492 H 47.4411 -3.89466 -2.46278 0
M  V30 493 H 45.7561 -3.43231 -2.35758 0
M  V30 494 H 48.3531 -2.22381 -4.86262 0
M  V30 495 H 48.6961 -0.687607 -4.10582 0
M  V30 496 H 49.2291 -2.1931 -3.31885 0
M  V30 497 H 45.9681 -5.07273 -4.15156 0
M  V30 498 H 45.4881 -3.51394 -4.86089 0
M  V30 499 H 47.1671 -4.08804 -5.01486 0
M  V30 500 N 47.2992 1.18797 -1.03562 0
M  V30 501 C 48.7152 1.40671 -0.753917 0
M  V30 502 C 48.9152 1.9043 0.658686 0
M  V30 503 O 47.9712 2.08538 1.42366 0
M  V30 504 C 49.2842 2.41192 -1.79574 0
M  V30 505 C 50.8322 2.54928 -1.81606 0
M  V30 506 C 51.3072 3.58709 -2.84766 0
M  V30 507 N 52.7982 3.66212 -2.83625 0
M  V30 508 C 53.5332 4.46225 -3.60098 0
M  V30 509 N 53.0292 5.29888 -4.46308 0
M  V30 510 N 54.8222 4.40939 -3.4861 0
M  V30 511 H 46.9732 0.848221 -1.94728 0
M  V30 512 H 49.2362 0.435081 -0.842264 0
M  V30 513 H 48.9422 2.11669 -2.80872 0
M  V30 514 H 48.8162 3.40467 -1.62365 0
M  V30 515 H 51.2032 2.83771 -0.809817 0
M  V30 516 H 51.2842 1.55784 -2.02891 0
M  V30 517 H 50.9282 3.30607 -3.85566 0
M  V30 518 H 50.8582 4.57519 -2.60737 0
M  V30 519 H 53.3492 3.06466 -2.21105 0
M  V30 520 H 53.6622 5.88078 -5.01382 0
M  V30 521 H 52.0072 5.29326 -4.50377 0
M  V30 522 H 55.1982 3.74624 -2.80668 0
M  V30 523 H 55.3712 5.03056 -4.08459 0
M  V30 524 N 48.7773 0.814389 1.34928 0
M  V30 525 C 50.1933 0.499084 1.51596 0
M  V30 526 C 50.3933 -0.978319 1.76157 0
M  V30 527 O 49.4493 -1.76309 1.80752 0
M  V30 528 C 50.7623 1.35121 2.68631 0
M  V30 529 C 52.3103 1.34746 2.82511 0
M  V30 530 C 52.7853 2.18388 4.0258 0
M  V30 531 N 54.2763 2.15966 4.09772 0
M  V30 532 C 55.0113 2.77437 5.01813 0
M  V30 533 N 54.5073 3.47866 5.99134 0
M  V30 534 N 56.3003 2.67037 4.94619 0
M  V30 535 H 48.4513 1.7711 1.17243 0
M  V30 536 H 50.7143 0.754256 0.574284 0
M  V30 537 H 50.4203 2.40001 2.57085 0
M  V30 538 H 50.2943 1.00991 3.63429 0
M  V30 539 H 52.6813 0.30648 2.93504 0
M  V30 540 H 52.7623 1.72869 1.88547 0
M  V30 541 H 52.4063 3.2253 3.92347 0
M  V30 542 H 52.3363 1.77621 4.9574 0
M  V30 543 H 54.8273 1.64729 3.40107 0
M  V30 544 H 55.1403 3.92038 6.65977 0
M  V30 545 H 53.4853 3.51972 5.99284 0
M  V30 546 H 56.6763 2.11597 4.17546 0
M  V30 547 H 56.8493 3.15232 5.66156 0
M  V30 548 N 50.2554 -1.46986 0.568584 0
M  V30 549 C 51.4834 -2.0683 0.0539956 0
M  V30 550 C 51.8984 -1.41953 -1.24478 0
M  V30 551 O 51.2554 -0.519933 -1.74937 0
M  V30 552 C 51.3064 -3.61254 -0.133362 0
M  V30 553 O 51.0274 -4.237 1.11399 0
M  V30 554 C 52.5284 -4.37992 -0.683927 0
M  V30 555 H 49.7484 -0.669058 0.0510141 0
M  V30 556 H 52.2924 -1.88824 0.785234 0
M  V30 557 H 50.4474 -3.78735 -0.81477 0
M  V30 558 H 50.8614 -5.16388 0.91888 0
M  V30 559 H 52.3354 -5.46684 -0.764263 0
M  V30 560 H 52.8124 -4.05058 -1.69778 0
M  V30 561 H 53.4184 -4.25283 -0.0378494 0
M  V30 562 N 51.7335 -0.305618 -1.54608 0
M  V30 563 C 52.6665 0.610536 -2.19881 0
M  V30 564 C 53.6445 1.1294 -1.16976 0
M  V30 565 O 54.8285 1.19673 -1.45638 0
M  V30 566 C 51.9555 1.83583 -2.84631 0
M  V30 567 C 51.0015 1.4498 -4.01102 0
M  V30 568 S 51.8345 0.501793 -5.33144 0
M  V30 569 C 52.9905 1.73478 -6.01379 0
M  V30 570 H 53.2235 0.0560177 -2.97247 0
M  V30 571 H 50.7565 -0.0897434 -1.54139 0
M  V30 572 H 52.7145 2.53898 -3.22562 0
M  V30 573 H 51.3755 2.36152 -2.07102 0
M  V30 574 H 50.5685 2.36236 -4.45206 0
M  V30 575 H 50.1705 0.826553 -3.64752 0
M  V30 576 H 52.4625 2.67473 -6.22467 0
M  V30 577 H 53.4055 1.33622 -6.95378 0
M  V30 578 H 53.8135 1.9136 -5.31076 0
M  V30 579 N 53.2116 1.57565 -0.0334293 0
M  V30 580 C 54.4366 1.96689 0.657895 0
M  V30 581 C 54.8616 0.910057 1.64619 0
M  V30 582 O 54.2196 -0.128598 1.80843 0
M  V30 583 C 54.2676 3.34905 1.33683 0
M  V30 584 O 53.3716 3.31574 2.45219 0
M  V30 585 H 52.7126 0.641205 0.172489 0
M  V30 586 H 55.2426 2.04372 -0.0965621 0
M  V30 587 H 55.2526 3.71234 1.69262 0
M  V30 588 H 53.9276 4.11366 0.612411 0
M  V30 589 H 52.5046 3.06968 2.11719 0
M  V30 590 N 54.6897 -0.239769 1.55765 0
M  V30 591 C 55.5997 -1.31831 1.94056 0
M  V30 592 C 56.6157 -1.52275 0.841925 0
M  V30 593 O 57.7917 -1.65759 1.14394 0
M  V30 594 C 54.8567 -2.65156 2.23368 0
M  V30 595 C 53.9177 -2.53173 3.46701 0
M  V30 596 C 53.1507 -3.8014 3.74606 0
M  V30 597 O 53.3737 -4.82343 3.04469 0
M  V30 598 O 52.3077 -3.78344 4.68123 0
M  V30 599 H 56.1337 -1.02347 2.85935 0
M  V30 600 H 53.7187 -0.441123 1.42739 0
M  V30 601 H 55.6007 -3.43929 2.43497 0
M  V30 602 H 54.2757 -2.94358 1.34666 0
M  V30 603 H 53.1827 -1.72662 3.31871 0
M  V30 604 H 54.5157 -2.28915 4.35728 0
M  V30 605 N 56.1678 -1.49265 -0.50573 0
M  V30 606 C 57.4138 -1.58748 -1.26202 0
M  V30 607 C 57.7468 -0.271227 -1.92297 0
M  V30 608 O 57.0218 0.724831 -1.80489 0
M  V30 609 C 57.3048 -2.74332 -2.33268 0
M  V30 610 C 57.1578 -4.15737 -1.71705 0
M  V30 611 C 58.4768 -2.85576 -3.34865 0
M  V30 612 H 55.5958 -0.577826 -0.457478 0
M  V30 613 H 58.2378 -1.81532 -0.560897 0
M  V30 614 H 56.3878 -2.55036 -2.93068 0
M  V30 615 H 58.0598 -4.46537 -1.15769 0
M  V30 616 H 56.3028 -4.21605 -1.02135 0
M  V30 617 H 56.9738 -4.92477 -2.49341 0
M  V30 618 H 59.4498 -3.03127 -2.8505 0
M  V30 619 H 58.3258 -3.68135 -4.07146 0
M  V30 620 H 58.5868 -1.94732 -3.96903 0
M  V30 621 N 57.6459 0.756429 -1.3826 0
M  V30 622 C 58.8939 1.51248 -1.34047 0
M  V30 623 C 59.2149 1.94875 0.0698372 0
M  V30 624 O 58.4849 1.67436 1.01696 0
M  V30 625 H 57.0649 0.561018 -0.493222 0
M  V30 626 H 59.7269 0.899347 -1.7291 0
M  V30 627 H 58.8229 2.40472 -1.98947 0
M  V30 628 N 59.124 1.23083 0.984299 0
M  V30 629 C 60.372 1.05848 1.72165 0
M  V30 630 C 60.693 -0.406049 1.90726 0
M  V30 631 O 59.963 -1.29139 1.47309 0
M  V30 632 H 58.543 0.388685 0.637913 0
M  V30 633 H 61.205 1.54736 1.18503 0
M  V30 634 H 60.301 1.54327 2.71274 0
M  V30 635 N 60.6021 -1.18246 1.0419 0
M  V30 636 C 61.8271 -1.92736 0.765996 0
M  V30 637 C 62.2521 -1.75728 -0.67091 0
M  V30 638 O 61.6101 -1.06825 -1.46486 0
M  V30 639 C 61.6581 -3.42148 1.13875 0
M  V30 640 O 60.7621 -4.11548 0.264954 0
M  V30 641 H 60.1031 -0.601238 0.281797 0
M  V30 642 H 62.6331 -1.49942 1.39207 0
M  V30 643 H 62.6431 -3.92858 1.1012 0
M  V30 644 H 61.3181 -3.53848 2.18551 0
M  V30 645 H 59.8951 -3.71137 0.362226 0
M  V30 646 N 62.0802 -0.821533 -1.34494 0
M  V30 647 C 63.3262 -0.409552 -1.98622 0
M  V30 648 C 63.6592 1.0244 -1.64984 0
M  V30 649 O 62.9342 1.71325 -0.920758 0
M  V30 650 C 63.2172 -0.610458 -3.54888 0
M  V30 651 C 63.0702 -2.09043 -3.98273 0
M  V30 652 C 64.3892 -0.0455379 -4.40076 0
M  V30 653 H 61.5082 -0.15028 -0.721516 0
M  V30 654 H 64.1502 -1.03384 -1.59411 0
M  V30 655 H 62.3002 -0.079044 -3.8842 0
M  V30 656 H 63.9722 -2.68537 -3.75081 0
M  V30 657 H 62.2152 -2.58139 -3.48635 0
M  V30 658 H 62.8862 -2.18182 -5.07051 0
M  V30 659 H 65.3622 -0.499557 -4.1309 0
M  V30 660 H 64.2382 -0.215922 -5.48475 0
M  V30 661 H 64.4992 1.04939 -4.29465 0
M  V30 662 N 63.5583 1.46682 -0.576371 0
M  V30 663 C 64.4683 2.34032 0.163141 0
M  V30 664 C 65.4843 1.49367 0.892501 0
M  V30 665 O 66.6603 1.82252 0.857106 0
M  V30 666 C 63.7253 3.26435 1.16795 0
M  V30 667 C 62.7863 4.26998 0.443944 0
M  V30 668 C 62.0193 5.14986 1.40088 0
M  V30 669 O 62.2423 5.05785 2.637 0
M  V30 670 O 61.1763 5.94906 0.914917 0
M  V30 671 H 65.0023 2.98607 -0.55388 0
M  V30 672 H 62.5873 1.45554 -0.336821 0
M  V30 673 H 64.4693 3.83459 1.74748 0
M  V30 674 H 63.1443 2.64465 1.86655 0
M  V30 675 H 62.0513 3.7368 -0.177271 0
M  V30 676 H 63.3843 4.91736 -0.213566 0
M  V30 677 N 65.0364 0.313813 1.54444 0
M  V30 678 C 66.3134 -0.345447 1.92525 0
M  V30 679 C 66.6934 -1.70667 1.24242 0
M  V30 680 O 66.0414 -2.25273 0.382654 0
M  V30 681 C 66.2514 -0.44737 3.46121 0
M  V30 682 C 67.5994 -0.712238 4.18584 0
M  V30 683 O 68.6234 -0.530678 3.52225 0
M  V30 684 O 67.4824 -1.06183 5.36085 0
M  V30 685 H 64.5764 -0.195407 0.803583 0
M  V30 686 H 67.1224 0.362813 1.65776 0
M  V30 687 H 65.8944 0.509043 3.87975 0
M  V30 688 H 65.5174 -1.20359 3.78945 0
M  V30 689 N 66.5145 -1.57545 0.0417849 0
M  V30 690 C 67.4445 -2.14009 -0.933929 0
M  V30 691 C 68.4255 -1.05938 -1.33083 0
M  V30 692 O 69.6105 -1.33833 -1.40721 0
M  V30 693 C 66.7405 -2.67747 -2.21199 0
M  V30 694 C 65.6945 -3.80718 -1.95544 0
M  V30 695 C 65.0205 -4.20935 -3.29724 0
M  V30 696 C 66.3205 -5.06258 -1.28452 0
M  V30 697 H 68.0145 -2.95788 -0.463645 0
M  V30 698 H 65.5605 -1.42285 -0.221573 0
M  V30 699 H 67.5135 -3.05886 -2.89848 0
M  V30 700 H 66.2375 -1.83147 -2.70416 0
M  V30 701 H 64.8965 -3.43037 -1.2931 0
M  V30 702 H 64.5445 -3.33298 -3.76724 0
M  V30 703 H 64.2445 -4.9707 -3.13361 0
M  V30 704 H 65.7685 -4.61666 -3.9962 0
M  V30 705 H 67.1825 -5.41903 -1.8712 0
M  V30 706 H 65.5795 -5.87475 -1.22445 0
M  V30 707 H 66.6495 -4.84207 -0.259219 0
M  V30 708 N 67.9926 0.231505 -1.5589 0
M  V30 709 C 69.2416 0.955346 -1.7764 0
M  V30 710 C 69.5546 1.85893 -0.608546 0
M  V30 711 O 70.7606 2.62067 -0.70943 0
M  V30 712 C 69.2166 1.74886 -3.14552 0
M  V30 713 C 68.8246 0.891915 -4.39032 0
M  V30 714 C 70.5686 2.46452 -3.45633 0
M  V30 715 C 68.4756 1.68221 -5.66971 0
M  V30 716 H 67.4056 0.360446 -0.662265 0
M  V30 717 H 70.0566 0.209516 -1.823 0
M  V30 718 H 68.4386 2.53723 -3.04041 0
M  V30 719 H 69.6126 0.144793 -4.60572 0
M  V30 720 H 67.9276 0.288863 -4.15397 0
M  V30 721 H 70.5246 3.06061 -4.38441 0
M  V30 722 H 70.8676 3.18841 -2.67668 0
M  V30 723 H 71.4006 1.74613 -3.57428 0
M  V30 724 H 68.1396 1.00178 -6.478 0
M  V30 725 H 67.6596 2.4042 -5.49507 0
M  V30 726 H 69.3386 2.24544 -6.06786 0
M  V30 727 N 69.4707 1.49531 0.497807 0
M  V30 728 C 70.4337 1.65916 1.58128 0
M  V30 729 C 71.4337 0.530825 1.51786 0
M  V30 730 O 72.6237 0.797342 1.54881 0
M  V30 731 C 69.7557 1.65951 2.9778 0
M  V30 732 H 70.9487 2.62556 1.44929 0
M  V30 733 H 68.5017 1.38611 0.722275 0
M  V30 734 H 69.2367 0.709065 3.16453 0
M  V30 735 H 69.0217 2.47897 3.03792 0
M  V30 736 H 70.5117 1.80673 3.76493 0
M  V30 737 N 70.9488 -0.749086 1.3866 0
M  V30 738 C 71.8958 -1.86291 1.36251 0
M  V30 739 C 72.8658 -1.64578 0.224347 0
M  V30 740 O 74.0508 -1.86181 0.417279 0
M  V30 741 C 71.1908 -3.23644 1.19786 0
M  V30 742 C 70.3038 -3.57158 2.43027 0
M  V30 743 C 69.4388 -4.83838 2.19258 0
M  V30 744 C 68.4778 -5.10152 3.38247 0
M  V30 745 N 67.6148 -6.28029 3.13884 0
M  V30 746 H 72.4548 -1.87685 2.3147 0
M  V30 747 H 69.9918 -0.917287 1.14997 0
M  V30 748 H 71.9498 -4.0291 1.08254 0
M  V30 749 H 70.5798 -3.21566 0.282031 0
M  V30 750 H 69.6318 -2.72701 2.65214 0
M  V30 751 H 70.9438 -3.7253 3.31697 0
M  V30 752 H 70.0978 -5.71057 2.04888 0
M  V30 753 H 68.8368 -4.70614 1.2796 0
M  V30 754 H 67.8418 -4.21401 3.53131 0
M  V30 755 H 69.0668 -5.25271 4.30427 0
M  V30 756 H 67.0128 -6.1612 2.25238 0
M  V30 757 H 66.9298 -6.43922 3.96106 0
M  V30 758 H 68.1978 -7.18124 3.03179 0
M  V30 759 N 72.4269 -1.23603 -0.977757 0
M  V30 760 C 73.6749 -1.06759 -1.71601 0
M  V30 761 C 73.9959 0.395929 -1.90938 0
M  V30 762 O 73.2659 1.28356 -1.47992 0
M  V30 763 H 71.8459 -0.392062 -0.635843 0
M  V30 764 H 74.5079 -1.55362 -1.1768 0
M  V30 765 H 73.6039 -1.55763 -2.70452 0
M  V30 766 N 73.905 1.17692 -1.04816 0
M  V30 767 C 75.316 1.69501 -0.782698 0
M  V30 768 C 75.667 1.83456 0.695577 0
M  V30 769 O 74.792 1.51942 1.54086 0
M  V30 770 C 75.387 3.07874 -1.41419 0
M  V30 771 C 73.946 3.56864 -1.19686 0
M  V30 772 C 73.093 2.3322 -1.50012 0
M  V30 773 H 76.044 1.02262 -1.2136 0
M  V30 774 H 76.065 3.71528 -0.821428 0
M  V30 775 H 75.577 2.97685 -2.49009 0
M  V30 776 H 73.678 3.72337 -0.140043 0
M  V30 777 H 73.791 4.39851 -1.89916 0
M  V30 778 H 72.155 2.37501 -0.920071 0
M  V30 779 H 72.938 2.25644 -2.58727 0
M  V30 780 N 75.3831 0.828654 1.34056 0
M  V30 781 C 76.6291 0.42008 1.98402 0
M  V30 782 C 76.9621 -1.01564 1.65525 0
M  V30 783 O 76.2371 -1.70834 0.929831 0
M  V30 784 C 76.5201 0.62927 3.54559 0
M  V30 785 C 76.3731 2.11152 3.97159 0
M  V30 786 C 77.6921 0.0688756 4.40046 0
M  V30 787 H 74.8111 0.154104 0.720709 0
M  V30 788 H 77.4531 1.04228 1.5886 0
M  V30 789 H 75.6031 0.0996418 3.88372 0
M  V30 790 H 77.2751 2.70522 3.73651 0
M  V30 791 H 75.5181 2.59985 3.47261 0
M  V30 792 H 76.1891 2.20868 5.05887 0
M  V30 793 H 78.6651 0.521458 4.1282 0
M  V30 794 H 77.5411 0.245006 5.48353 0
M  V30 795 H 77.8021 -1.0266 4.30015 0
M  V30 796 N 76.8612 -1.46375 0.584142 0
M  V30 797 C 78.0862 -2.07268 0.0740405 0
M  V30 798 C 78.5112 -1.42979 -1.22223 0
M  V30 799 O 77.8692 -0.514092 -1.73859 0
M  V30 800 C 77.9172 -3.60518 -0.0767769 0
M  V30 801 O 77.0212 -3.96533 -1.13292 0
M  V30 802 H 76.3622 -0.660961 0.0634524 0
M  V30 803 H 78.8922 -1.87991 0.807492 0
M  V30 804 H 78.9022 -4.07021 -0.282489 0
M  V30 805 H 77.5772 -4.06702 0.86986 0
M  V30 806 H 76.1542 -3.61738 -0.905553 0
M  V30 807 N 78.3393 -0.321999 -1.54275 0
M  V30 808 C 79.2863 0.544664 -2.24281 0
M  V30 809 C 80.2563 1.1129 -1.23303 0
M  V30 810 O 81.4413 1.15354 -1.51981 0
M  V30 811 C 78.5813 1.70045 -3.00298 0
M  V30 812 C 77.6943 1.16159 -4.1609 0
M  V30 813 C 76.8293 2.28293 -4.79641 0
M  V30 814 C 75.8683 1.71648 -5.8754 0
M  V30 815 N 75.0053 2.77438 -6.44959 0
M  V30 816 H 79.8453 -0.0588907 -2.97942 0
M  V30 817 H 77.3823 -0.0408345 -1.47043 0
M  V30 818 H 79.3403 2.38054 -3.42616 0
M  V30 819 H 77.9703 2.27531 -2.28975 0
M  V30 820 H 77.0223 0.373092 -3.78566 0
M  V30 821 H 78.3343 0.707087 -4.93763 0
M  V30 822 H 77.4883 3.0421 -5.2492 0
M  V30 823 H 76.2273 2.77079 -4.01346 0
M  V30 824 H 75.2323 0.942282 -5.41665 0
M  V30 825 H 76.4573 1.23741 -6.67731 0
M  V30 826 H 74.4033 3.25519 -5.69538 0
M  V30 827 H 74.3203 2.36547 -7.1804 0
M  V30 828 H 75.5883 3.53189 -6.94894 0
M  V30 829 N 79.8174 1.5752 -0.0501392 0
M  V30 830 C 81.0474 1.96678 0.632573 0
M  V30 831 C 81.4554 0.926298 1.64974 0
M  V30 832 O 80.7984 -0.09802 1.83438 0
M  V30 833 C 80.8604 3.32068 1.37735 0
M  V30 834 C 80.5244 4.54076 0.516131 0
M  V30 835 C 81.5214 5.19445 -0.217357 0
M  V30 836 C 79.2064 5.00304 0.44736 0
M  V30 837 C 81.2004 6.29378 -1.00807 0
M  V30 838 C 78.8874 6.10114 -0.347038 0
M  V30 839 C 79.8854 6.74512 -1.07344 0
M  V30 840 O 79.5734 7.82211 -1.85477 0
M  V30 841 H 79.3054 0.652193 0.177821 0
M  V30 842 H 81.8594 2.05091 -0.112543 0
M  V30 843 H 80.0894 3.20206 2.16807 0
M  V30 844 H 81.7784 3.55981 1.95019 0
M  V30 845 H 82.5444 4.84689 -0.173688 0
M  V30 846 H 78.4234 4.49971 1.00235 0
M  V30 847 H 81.9674 6.79575 -1.57556 0
M  V30 848 H 77.8644 6.44307 -0.392349 0
M  V30 849 H 78.6324 7.98982 -1.77678 0
M  V30 850 N 81.2955 -0.223234 1.56011 0
M  V30 851 C 82.5205 -0.968978 1.83373 0
M  V30 852 C 82.9455 -1.77227 0.630254 0
M  V30 853 O 82.3035 -1.76345 -0.420959 0
M  V30 854 C 82.3515 -1.86363 3.08709 0
M  V30 855 O 81.4555 -2.95873 2.87285 0
M  V30 856 H 80.7965 -0.274461 0.604622 0
M  V30 857 H 83.3265 -0.237056 2.03222 0
M  V30 858 H 83.3365 -2.27376 3.38768 0
M  V30 859 H 82.0115 -1.27319 3.95933 0
M  V30 860 H 80.5885 -2.58818 2.68454 0
M  V30 861 N 82.7736 -1.49793 -0.48987 0
M  V30 862 C 83.7056 -1.63413 -1.60713 0
M  V30 863 C 84.7186 -0.516329 -1.54395 0
M  V30 864 O 85.9076 -0.788812 -1.60125 0
M  V30 865 C 83.0076 -1.58516 -2.99543 0
M  V30 866 C 82.1806 -2.86016 -3.30928 0
M  V30 867 C 81.2396 -2.74018 -4.49222 0
M  V30 868 O 80.2656 -3.47964 -4.50455 0
M  V30 869 N 81.4676 -1.86309 -5.4979 0
M  V30 870 H 84.2326 -2.59777 -1.49452 0
M  V30 871 H 81.7936 -1.47022 -0.677955 0
M  V30 872 H 83.7856 -1.48128 -3.76617 0
M  V30 873 H 82.3556 -0.69965 -3.0467 0
M  V30 874 H 81.5756 -3.10672 -2.42645 0
M  V30 875 H 82.8636 -3.70521 -3.487 0
M  V30 876 H 82.2616 -1.2551 -5.51601 0
M  V30 877 H 80.8186 -1.81837 -6.25922 0
M  V30 878 N 84.2517 0.741722 -1.39055 0
M  V30 879 C 85.2147 1.83733 -1.37021 0
M  V30 880 C 86.2147 1.58542 -0.268534 0
M  V30 881 O 87.4047 1.66067 -0.526076 0
M  V30 882 C 84.5367 3.2141 -1.13617 0
M  V30 883 H 85.7297 1.86941 -2.34506 0
M  V30 884 H 83.2827 0.944676 -1.24521 0
M  V30 885 H 84.0177 3.23865 -0.167863 0
M  V30 886 H 83.8027 3.4109 -1.93391 0
M  V30 887 H 85.2927 4.01477 -1.14918 0
M  V30 888 N 85.7298 1.2412 0.971189 0
M  V30 889 C 86.9758 1.08041 1.71625 0
M  V30 890 C 87.3088 -0.380407 1.90438 0
M  V30 891 O 86.5838 -1.28127 1.46334 0
M  V30 892 C 86.8668 1.81682 3.10908 0
M  V30 893 C 86.7198 3.35493 2.99608 0
M  V30 894 C 88.0388 1.58671 4.10501 0
M  V30 895 H 85.1578 0.39388 0.622919 0
M  V30 896 H 87.7998 1.52743 1.13003 0
M  V30 897 H 85.9498 1.43684 3.60953 0
M  V30 898 H 87.6218 3.83068 2.57015 0
M  V30 899 H 85.8648 3.64052 2.35899 0
M  V30 900 H 86.5358 3.82217 3.98264 0
M  V30 901 H 89.0118 1.91719 3.69301 0
M  V30 902 H 87.8878 2.1266 5.06031 0
M  V30 903 H 88.1488 0.524161 4.38982 0
M  V30 904 N 87.2079 -1.17134 1.05439 0
M  V30 905 C 88.6189 -1.69084 0.791676 0
M  V30 906 C 88.9699 -1.83822 -0.685839 0
M  V30 907 O 88.0949 -1.52757 -1.53278 0
M  V30 908 C 88.6899 -3.07119 1.4305 0
M  V30 909 C 87.2489 -3.56225 1.21577 0
M  V30 910 C 86.3959 -2.32421 1.51247 0
M  V30 911 H 89.3469 -1.01617 1.219 0
M  V30 912 H 89.3679 -3.71087 0.84112 0
M  V30 913 H 88.8799 -2.9636 2.50584 0
M  V30 914 H 86.9809 -3.72257 0.159787 0
M  V30 915 H 87.0939 -4.38837 1.92246 0
M  V30 916 H 85.4579 -2.3701 0.932653 0
M  V30 917 H 86.2409 -2.24268 2.5992 0
M  V30 918 N 88.686 -0.835752 -1.33615 0
M  V30 919 C 89.649 -0.272 -2.2758 0
M  V30 920 C 90.649 0.557487 -1.50827 0
M  V30 921 O 91.839 0.37173 -1.70188 0
M  V30 922 C 88.971 0.617173 -3.35267 0
M  V30 923 H 90.164 -1.10111 -2.78954 0
M  V30 924 H 87.717 -0.608594 -1.43965 0
M  V30 925 H 88.452 1.46884 -2.89129 0
M  V30 926 H 88.237 0.0237066 -3.92093 0
M  V30 927 H 89.727 1.005 -4.05326 0
M  V30 928 N 90.1641 1.46063 -0.591896 0
M  V30 929 C 91.4101 2.02638 -0.0811191 0
M  V30 930 C 91.7431 1.4613 1.27905 0
M  V30 931 O 91.0181 0.629908 1.84017 0
M  V30 932 C 91.3011 3.60091 -0.0252436 0
M  V30 933 C 91.1541 4.26965 -1.41496 0
M  V30 934 C 92.4731 4.3496 0.670685 0
M  V30 935 H 89.5921 0.73635 -0.0309524 0
M  V30 936 H 92.2341 1.741 -0.760859 0
M  V30 937 H 90.3841 3.84535 0.553624 0
M  V30 938 H 92.0561 4.13756 -2.0397 0
M  V30 939 H 90.2991 3.85971 -1.98011 0
M  V30 940 H 90.9701 5.35781 -1.32825 0
M  V30 941 H 93.4461 4.15716 0.178825 0
M  V30 942 H 92.3221 5.44686 0.678837 0
M  V30 943 H 92.5831 4.06685 1.73379 0
M  V30 944 N 91.6422 0.330177 1.54103 0
M  V30 945 C 92.8702 -0.272179 2.05102 0
M  V30 946 C 93.2852 -1.45267 1.20595 0
M  V30 947 O 92.6422 -1.8094 0.238144 0
M  V30 948 C 92.6932 -0.70023 3.54653 0
M  V30 949 O 92.4142 0.433301 4.35952 0
M  V30 950 C 93.9152 -1.3647 4.21771 0
M  V30 951 H 91.1352 -0.0549159 0.668749 0
M  V30 952 H 93.6792 0.478285 1.98828 0
M  V30 953 H 91.8342 -1.40066 3.61193 0
M  V30 954 H 92.2482 0.0947539 5.24414 0
M  V30 955 H 93.7222 -1.61509 5.27843 0
M  V30 956 H 94.1992 -2.31409 3.73292 0
M  V30 957 H 94.8052 -0.706675 4.19388 0
M  V30 958 N 93.1203 -1.57491 0.0584922 0
M  V30 959 C 94.0303 -2.15448 -0.928414 0
M  V30 960 C 95.0463 -1.11416 -1.3365 0
M  V30 961 O 96.2223 -1.4362 -1.41193 0
M  V30 962 C 93.2873 -2.69393 -2.18239 0
M  V30 963 C 92.3483 -3.88249 -1.83196 0
M  V30 964 C 91.5813 -4.39613 -3.02616 0
M  V30 965 O 91.8043 -3.90023 -4.16219 0
M  V30 966 O 90.7383 -5.31111 -2.83204 0
M  V30 967 H 94.5643 -3.00112 -0.465483 0
M  V30 968 H 92.1493 -1.48499 -0.163826 0
M  V30 969 H 94.0313 -3.04026 -2.91798 0
M  V30 970 H 92.7063 -1.87796 -2.63656 0
M  V30 971 H 91.6133 -3.58492 -1.06931 0
M  V30 972 H 92.9463 -4.71098 -1.42573 0
M  V30 973 N 94.5984 0.214957 -1.56127 0
M  V30 974 C 95.8464 0.936518 -1.79091 0
M  V30 975 C 96.1674 1.84606 -0.628148 0
M  V30 976 O 95.4374 1.92664 0.35462 0
M  V30 977 H 94.0174 0.3488 -0.660566 0
M  V30 978 H 96.6794 0.22523 -1.93594 0
M  V30 979 H 95.7754 1.53943 -2.71492 0
M  V30 980 N 96.0765 1.50051 0.48192 0
M  V30 981 C 97.4875 1.5348 1.06305 0
M  V30 982 C 97.8385 0.331997 1.93371 0
M  V30 983 O 96.9635 -0.556256 2.09129 0
M  V30 984 C 97.5585 2.7813 1.93466 0
M  V30 985 C 96.1175 2.84275 2.46707 0
M  V30 986 C 95.2645 2.47637 1.24785 0
M  V30 987 H 98.2155 1.56472 0.264995 0
M  V30 988 H 98.2365 2.59372 2.78399 0
M  V30 989 H 97.7485 3.65654 1.30072 0
M  V30 990 H 95.8495 2.01077 3.13686 0
M  V30 991 H 95.9625 3.8691 2.82555 0
M  V30 992 H 94.3265 1.99835 1.57918 0
M  V30 993 H 95.1095 3.37457 0.630694 0
M  V30 994 N 97.5546 -0.734337 1.39446 0
M  V30 995 C 98.8036 -1.48937 1.36017 0
M  V30 996 C 99.1166 -1.95557 -0.0409005 0
M  V30 997 O 100.323 -2.70779 -0.19778 0
M  V30 998 C 98.7786 -2.69125 2.38955 0
M  V30 999 C 98.3866 -2.29452 3.8478 0
M  V30 1000 C 100.131 -3.46944 2.44603 0
M  V30 1001 C 98.0376 -3.46366 4.79358 0
M  V30 1002 H 96.9676 -0.559296 0.505672 0
M  V30 1003 H 99.6186 -0.800983 1.65095 0
M  V30 1004 H 98.0006 -3.40041 2.02948 0
M  V30 1005 H 99.1746 -1.66077 4.29831 0
M  V30 1006 H 97.4896 -1.64723 3.82433 0
M  V30 1007 H 100.087 -4.33907 3.12456 0
M  V30 1008 H 100.43 -3.89454 1.47076 0
M  V30 1009 H 100.963 -2.83056 2.79507 0
M  V30 1010 H 97.7016 -3.08905 5.78151 0
M  V30 1011 H 97.2216 -4.08719 4.38986 0
M  V30 1012 H 98.9006 -4.12691 4.98292 0
M  V30 1013 N 99.0327 -1.24633 -0.964593 0
M  V30 1014 C 100.444 -1.08045 -1.5226 0
M  V30 1015 C 100.795 0.347116 -1.93105 0
M  V30 1016 O 99.9197 1.23588 -1.77637 0
M  V30 1017 C 100.515 -1.95514 -2.76695 0
M  V30 1018 C 99.0737 -1.8314 -3.28841 0
M  V30 1019 C 98.2207 -1.90262 -2.01732 0
M  V30 1020 H 101.172 -1.38064 -0.782553 0
M  V30 1021 H 101.193 -1.48925 -3.50145 0
M  V30 1022 H 100.705 -2.99407 -2.46936 0
M  V30 1023 H 98.8057 -0.82092 -3.63444 0
M  V30 1024 H 98.9187 -2.67406 -3.97531 0
M  V30 1025 H 97.2827 -1.34027 -2.16584 0
M  V30 1026 H 98.0657 -2.9574 -1.74334 0
M  V30 1027 N 100.511 1.16574 -1.06058 0
M  V30 1028 C 101.421 2.2452 -0.680282 0
M  V30 1029 C 102.437 1.71348 0.302604 0
M  V30 1030 O 103.613 2.00822 0.152513 0
M  V30 1031 C 100.678 3.46629 -0.0700315 0
M  V30 1032 C 99.7388 4.14849 -1.10448 0
M  V30 1033 C 98.9718 5.31129 -0.523256 0
M  V30 1034 O 99.1948 5.66514 0.664709 0
M  V30 1035 O 98.1288 5.88526 -1.26179 0
M  V30 1036 H 101.955 2.59355 -1.58015 0
M  V30 1037 H 99.5398 1.24043 -0.832694 0
M  V30 1038 H 101.422 4.20543 0.268667 0
M  V30 1039 H 100.097 3.13573 0.803353 0
M  V30 1040 H 99.0038 3.42916 -1.49532 0
M  V30 1041 H 100.337 4.51954 -1.94931 0
M  V30 1042 N 101.989 0.842826 1.3317 0
M  V30 1043 C 103.235 0.441099 1.97945 0
M  V30 1044 C 103.568 -0.998024 1.66593 0
M  V30 1045 O 102.843 -1.69839 0.947898 0
M  V30 1046 C 103.126 0.666841 3.53872 0
M  V30 1047 C 102.979 2.15352 3.94897 0
M  V30 1048 C 104.298 0.115544 4.39948 0
M  V30 1049 H 101.417 0.161739 0.719034 0
M  V30 1050 H 104.059 1.05907 1.57746 0
M  V30 1051 H 102.209 0.140828 3.88245 0
M  V30 1052 H 103.881 2.7447 3.70761 0
M  V30 1053 H 102.124 2.63653 3.44484 0
M  V30 1054 H 102.795 2.26221 5.03516 0
M  V30 1055 H 105.271 0.565213 4.12243 0
M  V30 1056 H 104.147 0.303152 5.48062 0
M  V30 1057 H 104.408 -0.980935 4.3108 0
M  V30 1058 N 103.467 -1.45747 0.599634 0
M  V30 1059 C 104.397 -2.33235 -0.111306 0
M  V30 1060 C 105.378 -1.46359 -0.866781 0
M  V30 1061 O 106.563 -1.75146 -0.838904 0
M  V30 1062 C 103.693 -3.28932 -1.11451 0
M  V30 1063 C 102.647 -4.25381 -0.472772 0
M  V30 1064 C 101.973 -5.1071 -1.58365 0
M  V30 1065 C 103.273 -5.18831 0.600948 0
M  V30 1066 H 104.967 -2.92927 0.61919 0
M  V30 1067 H 102.513 -1.40857 0.299215 0
M  V30 1068 H 104.466 -3.89002 -1.62036 0
M  V30 1069 H 103.19 -2.67381 -1.8755 0
M  V30 1070 H 101.849 -3.66598 0.0121472 0
M  V30 1071 H 101.497 -4.45533 -2.33473 0
M  V30 1072 H 101.197 -5.7604 -1.15982 0
M  V30 1073 H 102.721 -5.73647 -2.09194 0
M  V30 1074 H 104.135 -5.73019 0.179491 0
M  V30 1075 H 102.532 -5.92595 0.946076 0
M  V30 1076 H 103.602 -4.6174 1.48068 0
M  V30 1077 N 104.945 -0.338344 -1.53925 0
M  V30 1078 C 105.892 0.520845 -2.24846 0
M  V30 1079 C 106.862 1.09976 -1.24477 0
M  V30 1080 O 108.047 1.13735 -1.53196 0
M  V30 1081 C 105.187 1.6685 -3.02084 0
M  V30 1082 C 104.3 1.11739 -4.17299 0
M  V30 1083 C 103.435 2.23193 -4.82036 0
M  V30 1084 C 102.474 1.65407 -5.89328 0
M  V30 1085 N 101.611 2.70582 -6.47866 0
M  V30 1086 H 106.451 -0.0904881 -2.97863 0
M  V30 1087 H 103.988 -0.0564282 -1.46992 0
M  V30 1088 H 105.946 2.34407 -3.45122 0
M  V30 1089 H 104.576 2.2509 -2.31375 0
M  V30 1090 H 103.628 0.332919 -3.7894 0
M  V30 1091 H 104.94 0.654677 -4.94485 0
M  V30 1092 H 104.094 2.98626 -5.28117 0
M  V30 1093 H 102.833 2.72807 -4.04262 0
M  V30 1094 H 101.838 0.884779 -5.42634 0
M  V30 1095 H 103.063 1.16652 -6.69006 0
M  V30 1096 H 101.009 3.1946 -5.72959 0
M  V30 1097 H 100.926 2.28917 -7.20509 0
M  V30 1098 H 102.194 3.45799 -6.98601 0
M  V30 1099 N 106.423 1.57458 -0.0668435 0
M  V30 1100 C 107.371 2.13639 0.919851 0
M  V30 1101 C 108.365 1.07204 1.31163 0
M  V30 1102 O 109.571 1.25591 1.28945 0
M  V30 1103 H 105.946 0.683048 0.314562 0
M  V30 1104 H 107.917 2.95415 0.421047 0
M  V30 1105 C 106.666 2.70892 2.17975 0
M  V30 1106 H 105.989 3.5246 1.88711 0
M  V30 1107 H 107.429 3.13803 2.85138 0
M  V30 1108 C 105.888 1.65414 2.93496 0
M  V30 1109 O 106.418 1.07619 3.87015 0
M  V30 1110 N 104.624 1.36564 2.56512 0
M  V30 1111 H 104.171 1.83751 1.80536 0
M  V30 1112 H 104.129 0.66223 3.07347 0
M  V30 1113 N 107.901 -0.206675 1.56239 0
M  V30 1114 C 109.131 -0.943975 1.83773 0
M  V30 1115 C 109.539 -1.77841 0.645703 0
M  V30 1116 O 108.882 -1.79403 -0.395008 0
M  V30 1117 C 108.944 -1.899 3.05251 0
M  V30 1118 C 108.608 -1.24764 4.39639 0
M  V30 1119 C 109.605 -0.630216 5.16066 0
M  V30 1120 C 107.29 -1.25496 4.8637 0
M  V30 1121 C 109.284 -0.0287946 6.37393 0
M  V30 1122 C 106.971 -0.649698 6.07637 0
M  V30 1123 C 107.969 -0.0376845 6.8299 0
M  V30 1124 O 107.657 0.55812 8.0196 0
M  V30 1125 H 107.389 -0.281508 0.614597 0
M  V30 1126 H 109.943 -0.222458 2.04192 0
M  V30 1127 H 108.173 -2.6599 2.80689 0
M  V30 1128 H 109.862 -2.5031 3.1953 0
M  V30 1129 H 110.628 -0.616785 4.81062 0
M  V30 1130 H 106.507 -1.72072 4.27683 0
M  V30 1131 H 110.051 0.449518 6.9615 0
M  V30 1132 H 105.948 -0.660592 6.42111 0
M  V30 1133 H 106.716 0.453891 8.17241 0
M  V30 1134 N 109.379 -1.50304 -0.473955 0
M  V30 1135 C 110.312 -1.63595 -1.59097 0
M  V30 1136 C 111.29 -0.484142 -1.55225 0
M  V30 1137 O 112.474 -0.703271 -1.7489 0
M  V30 1138 C 109.601 -1.61589 -2.97669 0
M  V30 1139 C 108.647 -2.82295 -3.19705 0
M  V30 1140 S 109.48 -4.43635 -2.99913 0
M  V30 1141 C 110.636 -4.44317 -4.40832 0
M  V30 1142 H 110.869 -2.58082 -1.47583 0
M  V30 1143 H 108.402 -1.39531 -0.661087 0
M  V30 1144 H 110.36 -1.61116 -3.7756 0
M  V30 1145 H 109.021 -0.683421 -3.06575 0
M  V30 1146 H 108.214 -2.77188 -4.20931 0
M  V30 1147 H 107.816 -2.8032 -2.47582 0
M  V30 1148 H 110.108 -4.17703 -5.33414 0
M  V30 1149 H 111.051 -5.45911 -4.50984 0
M  V30 1150 H 111.459 -3.74059 -4.22777 0
M  V30 1151 N 110.857 0.726932 -1.39834 0
M  V30 1152 C 112.134 1.47902 -1.28001 0
M  V30 1153 C 112.514 2.1083 0.106789 0
M  V30 1154 O 111.862 1.99242 1.11869 0
M  V30 1155 C 112.072 2.52392 -2.41038 0
M  V30 1156 C 113.42 3.18546 -2.80737 0
M  V30 1157 O 114.444 2.62708 -2.40547 0
M  V30 1158 O 113.303 4.19604 -3.50135 0
M  V30 1159 H 110.397 0.657163 -0.502062 0
M  V30 1160 H 112.943 0.760071 -1.51727 0
M  V30 1161 H 111.715 2.04329 -3.33715 0
M  V30 1162 H 111.338 3.31837 -2.19021 0
M  V30 1163 N 112.336 1.25143 0.95797 0
M  V30 1164 C 113.299 1.05321 2.03569 0
M  V30 1165 C 114.299 0.007152 1.60798 0
M  V30 1166 O 115.489 0.24903 1.72411 0
M  V30 1167 C 112.621 0.598394 3.35607 0
M  V30 1168 H 113.814 2.00986 2.22586 0
M  V30 1169 H 111.367 1.07502 1.13459 0
M  V30 1170 H 112.102 -0.361014 3.22284 0
M  V30 1171 H 111.887 1.35351 3.67998 0
M  V30 1172 H 113.377 0.48104 4.1482 0
M  V30 1173 N 113.814 -1.1601 1.06675 0
M  V30 1174 C 114.746 -2.20115 0.638921 0
M  V30 1175 C 115.759 -1.59916 -0.305057 0
M  V30 1176 O 116.948 -1.78245 -0.0954446 0
M  V30 1177 C 114.048 -3.38798 -0.0830083 0
M  V30 1178 C 113.221 -4.2855 0.875426 0
M  V30 1179 C 112.28 -5.25849 0.192042 0
M  V30 1180 O 111.306 -5.63102 0.830921 0
M  V30 1181 N 112.508 -5.70648 -1.06493 0
M  V30 1182 H 115.273 -2.57439 1.53444 0
M  V30 1183 H 112.834 -1.31057 0.950557 0
M  V30 1184 H 114.826 -4.00936 -0.550685 0
M  V30 1185 H 113.396 -2.99947 -0.880386 0
M  V30 1186 H 112.616 -3.63617 1.52238 0
M  V30 1187 H 113.904 -4.85393 1.52548 0
M  V30 1188 H 113.302 -5.42482 -1.60405 0
M  V30 1189 H 111.859 -6.34859 -1.47641 0
M  V30 1190 N 115.292 -0.849877 -1.32721 0
M  V30 1191 C 116.522 -0.46408 -2.0132 0
M  V30 1192 C 116.93 0.94246 -1.64056 0
M  V30 1193 O 116.273 1.6257 -0.855379 0
M  V30 1194 C 116.335 -0.517887 -3.5575 0
M  V30 1195 C 115.999 -1.88248 -4.16427 0
M  V30 1196 C 116.996 -2.84726 -4.35002 0
M  V30 1197 C 114.681 -2.17832 -4.52609 0
M  V30 1198 C 116.675 -4.08945 -4.8892 0
M  V30 1199 C 114.362 -3.42304 -5.06232 0
M  V30 1200 C 115.36 -4.37677 -5.24335 0
M  V30 1201 O 115.048 -5.59946 -5.76815 0
M  V30 1202 H 114.78 -0.181327 -0.651227 0
M  V30 1203 H 117.334 -1.14713 -1.70382 0
M  V30 1204 H 115.564 0.221997 -3.86062 0
M  V30 1205 H 117.253 -0.148366 -4.05629 0
M  V30 1206 H 118.019 -2.63174 -4.07388 0
M  V30 1207 H 113.898 -1.44385 -4.37806 0
M  V30 1208 H 117.442 -4.83396 -5.02966 0
M  V30 1209 H 113.339 -3.63709 -5.33278 0
M  V30 1210 H 114.107 -5.61838 -5.95214 0
M  V30 1211 N 116.77 1.45427 -0.607355 0
M  V30 1212 C 118 2.06314 -0.108656 0
M  V30 1213 C 118.408 1.45269 1.21217 0
M  V30 1214 O 117.751 0.561115 1.74921 0
M  V30 1215 C 117.813 3.59345 0.105618 0
M  V30 1216 C 117.477 4.42723 -1.13337 0
M  V30 1217 C 118.474 4.77715 -2.05145 0
M  V30 1218 C 116.159 4.83478 -1.36213 0
M  V30 1219 C 118.153 5.52317 -3.18158 0
M  V30 1220 C 115.84 5.57835 -2.49527 0
M  V30 1221 C 116.838 5.92171 -3.40327 0
M  V30 1222 O 116.526 6.65019 -4.51669 0
M  V30 1223 H 116.258 0.672782 -0.0658842 0
M  V30 1224 H 118.812 1.87664 -0.834945 0
M  V30 1225 H 117.042 3.76394 0.886796 0
M  V30 1226 H 118.731 4.02076 0.555886 0
M  V30 1227 H 119.497 4.46787 -1.88697 0
M  V30 1228 H 115.376 4.56188 -0.664362 0
M  V30 1229 H 118.92 5.79036 -3.89054 0
M  V30 1230 H 114.817 5.88177 -2.65928 0
M  V30 1231 H 115.585 6.83469 -4.50348 0
M  V30 1232 N 118.248 0.346503 1.53744 0
M  V30 1233 C 119.496 -0.248612 2.00565 0
M  V30 1234 C 119.817 -1.5083 1.23593 0
M  V30 1235 O 119.087 -1.92858 0.343912 0
M  V30 1236 H 117.667 -0.0948564 0.740953 0
M  V30 1237 H 120.329 0.468341 1.89189 0
M  V30 1238 H 119.425 -0.488994 3.08245 0
M  V30 1239 N 119.726 -1.57421 0.075193 0
M  V30 1240 C 120.636 -2.1642 -0.905511 0
M  V30 1241 C 121.652 -1.12828 -1.32461 0
M  V30 1242 O 122.828 -1.45109 -1.39661 0
M  V30 1243 C 119.893 -2.71693 -2.15369 0
M  V30 1244 C 118.954 -3.90171 -1.79068 0
M  V30 1245 C 118.187 -4.42798 -2.97936 0
M  V30 1246 O 118.41 -3.94416 -4.12058 0
M  V30 1247 O 117.344 -5.34085 -2.77555 0
M  V30 1248 H 121.17 -3.00588 -0.433626 0
M  V30 1249 H 118.755 -1.48664 -0.148067 0
M  V30 1250 H 120.637 -3.07104 -2.88557 0
M  V30 1251 H 119.312 -1.90582 -2.61649 0
M  V30 1252 H 118.219 -3.59606 -1.03122 0
M  V30 1253 H 119.552 -4.72584 -1.37569 0
M  V30 1254 N 121.204 0.198386 -1.56346 0
M  V30 1255 C 122.453 0.917451 -1.79627 0
M  V30 1256 C 122.766 1.8456 -0.64784 0
M  V30 1257 O 123.972 2.60504 -0.764859 0
M  V30 1258 C 122.428 1.68175 -3.18191 0
M  V30 1259 C 122.036 0.798589 -4.40825 0
M  V30 1260 C 123.78 2.39065 -3.50782 0
M  V30 1261 C 121.687 1.56157 -5.70411 0
M  V30 1262 H 120.617 0.346317 -0.669762 0
M  V30 1263 H 123.268 0.170801 -1.82703 0
M  V30 1264 H 121.65 2.47216 -3.09354 0
M  V30 1265 H 122.824 0.0470665 -4.60776 0
M  V30 1266 H 121.139 0.200686 -4.15916 0
M  V30 1267 H 123.736 2.96692 -4.44835 0
M  V30 1268 H 124.079 3.13091 -2.74371 0
M  V30 1269 H 124.612 1.66993 -3.61052 0
M  V30 1270 H 121.351 0.864142 -6.49779 0
M  V30 1271 H 120.871 2.2871 -5.54483 0
M  V30 1272 H 122.55 2.11622 -6.11412 0
M  V30 1273 N 122.682 1.50554 0.465978 0
M  V30 1274 C 123.93 1.61479 1.21528 0
M  V30 1275 C 124.251 0.319596 1.92363 0
M  V30 1276 O 123.521 -0.663194 1.84333 0
M  V30 1277 H 122.101 0.595055 0.451573 0
M  V30 1278 H 124.763 1.87355 0.53704 0
M  V30 1279 H 123.859 2.42846 1.96042 0
M  V30 1280 N 124.16 -0.719506 1.40217 0
M  V30 1281 C 125.409 -1.47486 1.37589 0
M  V30 1282 C 125.722 -1.9559 -0.0201568 0
M  V30 1283 O 126.928 -2.70973 -0.169049 0
M  V30 1284 C 125.384 -2.66575 2.41796 0
M  V30 1285 C 124.992 -2.25358 3.87192 0
M  V30 1286 C 126.736 -3.4433 2.48269 0
M  V30 1287 C 124.643 -3.41262 4.83005 0
M  V30 1288 H 123.573 -0.553901 0.511576 0
M  V30 1289 H 126.224 -0.783427 1.65936 0
M  V30 1290 H 124.606 -3.3787 2.06543 0
M  V30 1291 H 125.78 -1.61509 4.31569 0
M  V30 1292 H 124.095 -1.60657 3.84159 0
M  V30 1293 H 126.692 -4.30569 3.17041 0
M  V30 1294 H 127.035 -3.87872 1.51198 0
M  V30 1295 H 127.568 -2.80076 2.82493 0
M  V30 1296 H 124.307 -3.02755 5.81394 0
M  V30 1297 H 123.827 -4.0404 4.43297 0
M  V30 1298 H 125.506 -4.07383 5.02641 0
M  V30 1299 N 125.638 -1.25649 -0.95132 0
M  V30 1300 C 126.886 -1.10375 -1.69298 0
M  V30 1301 C 127.207 0.355339 -1.91735 0
M  V30 1302 O 126.477 1.25188 -1.50681 0
M  V30 1303 H 125.057 -0.405461 -0.627384 0
M  V30 1304 H 127.719 -1.57823 -1.14358 0
M  V30 1305 H 126.815 -1.61465 -2.67087 0
M  V30 1306 N 127.117 1.15442 -1.07289 0
M  V30 1307 C 128.345 1.90096 -0.81676 0
M  V30 1308 C 128.76 1.7798 0.629966 0
M  V30 1309 O 128.117 1.1313 1.43206 0
M  V30 1310 C 128.168 3.40466 -1.21512 0
M  V30 1311 O 127.889 3.52232 -2.60508 0
M  V30 1312 C 129.39 4.32145 -0.988198 0
M  V30 1313 H 126.61 0.602495 -0.295366 0
M  V30 1314 H 129.154 1.4627 -1.42918 0
M  V30 1315 H 127.309 3.81958 -0.647039 0
M  V30 1316 H 127.723 4.45549 -2.76742 0
M  V30 1317 H 129.197 5.36072 -1.31645 0
M  V30 1318 H 129.674 4.39135 0.0755063 0
M  V30 1319 H 130.28 3.96395 -1.54115 0
M  V30 1320 N 128.595 0.856903 1.32268 0
M  V30 1321 C 130.006 0.515711 1.79436 0
M  V30 1322 C 130.357 -0.966586 1.70738 0
M  V30 1323 O 129.482 -1.75409 1.26731 0
M  V30 1324 C 130.077 0.929335 3.25805 0
M  V30 1325 C 128.636 0.640006 3.70919 0
M  V30 1326 C 127.783 1.12784 2.53328 0
M  V30 1327 H 130.734 1.04389 1.19535 0
M  V30 1328 H 130.755 0.246633 3.797 0
M  V30 1329 H 130.267 2.00821 3.32103 0
M  V30 1330 H 128.368 -0.428051 3.70133 0
M  V30 1331 H 128.481 1.20788 4.63624 0
M  V30 1332 H 126.845 0.548033 2.48734 0
M  V30 1333 H 127.628 2.21387 2.62379 0
M  V30 1334 N 130.073 -1.45103 0.615059 0
M  V30 1335 C 131.484 -1.85654 0.197383 0
M  V30 1336 C 131.835 -1.51433 -1.24749 0
M  V30 1337 O 130.96 -0.944608 -1.94695 0
M  V30 1338 C 131.555 -3.36972 0.351448 0
M  V30 1339 C 130.114 -3.76398 -0.011593 0
M  V30 1340 C 129.261 -2.69024 0.672394 0
M  V30 1341 H 132.212 -1.35797 0.821263 0
M  V30 1342 H 132.233 -3.78239 -0.414227 0
M  V30 1343 H 131.745 -3.61847 1.40314 0
M  V30 1344 H 129.846 -3.5714 -1.06217 0
M  V30 1345 H 129.959 -4.77532 0.387265 0
M  V30 1346 H 128.323 -2.54465 0.109284 0
M  V30 1347 H 129.106 -2.96735 1.72636 0
M  V30 1348 N 131.551 -0.354651 -1.53558 0
M  V30 1349 C 132.483 0.5315 -2.22952 0
M  V30 1350 C 133.496 1.05503 -1.23988 0
M  V30 1351 O 134.685 0.963279 -1.50277 0
M  V30 1352 C 131.785 1.74538 -2.90499 0
M  V30 1353 C 130.958 1.35524 -4.15875 0
M  V30 1354 C 130.017 2.42999 -4.66731 0
M  V30 1355 O 129.043 2.05844 -5.30676 0
M  V30 1356 N 130.245 3.74423 -4.43608 0
M  V30 1357 H 133.01 -0.0628615 -2.99634 0
M  V30 1358 H 130.571 -0.179302 -1.60904 0
M  V30 1359 H 132.563 2.45892 -3.21433 0
M  V30 1360 H 131.133 2.24686 -2.17336 0
M  V30 1361 H 130.353 0.471998 -3.91364 0
M  V30 1362 H 131.641 1.07071 -4.97406 0
M  V30 1363 H 131.039 4.07391 -3.92491 0
M  V30 1364 H 129.596 4.41913 -4.7912 0
M  V30 1365 N 133.029 1.57378 -0.0835403 0
M  V30 1366 C 134.269 1.95808 0.586381 0
M  V30 1367 C 134.633 0.963706 1.66062 0
M  V30 1368 O 135.834 1.23608 2.38693 0
M  V30 1369 C 134.105 3.38808 1.13771 0
M  V30 1370 S 135.664 3.99225 1.82112 0
M  V30 1371 H 132.482 0.684675 0.191679 0
M  V30 1372 H 135.084 1.94843 -0.160194 0
M  V30 1373 H 133.788 4.08954 0.344197 0
M  V30 1374 H 133.319 3.43344 1.92038 0
M  V30 1375 H 135.334 3.87087 3.10449 0
M  V30 1376 N 134.507 -0.190092 1.56449 0
M  V30 1377 C 135.754 -0.909705 1.80916 0
M  V30 1378 C 136.082 -1.83047 0.657583 0
M  V30 1379 O 135.337 -1.92428 -0.356356 0
M  V30 1380 C 135.636 -1.75382 3.1141 0
M  V30 1381 C 135.302 -0.983606 4.40041 0
M  V30 1382 C 133.964 -0.770967 4.74984 0
M  V30 1383 C 136.316 -0.442024 5.19322 0
M  V30 1384 C 133.644 -0.0053448 5.867 0
M  V30 1385 C 135.996 0.310412 6.31838 0
M  V30 1386 C 134.66 0.534023 6.6536 0
M  V30 1387 H 133.93 -0.332885 0.662019 0
M  V30 1388 H 136.577 -0.175762 1.90692 0
M  V30 1389 H 134.882 -2.55659 2.96893 0
M  V30 1390 H 136.579 -2.31331 3.27547 0
M  V30 1391 H 133.169 -1.15936 4.12622 0
M  V30 1392 H 137.353 -0.593693 4.92736 0
M  V30 1393 H 132.609 0.177825 6.11141 0
M  V30 1394 H 136.783 0.737419 6.92485 0
M  V30 1395 H 134.41 1.12918 7.51767 0
M  V30 1396 N 135.985 -1.50799 -0.457987 0
M  V30 1397 C 137.213 -1.66218 -1.23203 0
M  V30 1398 C 137.628 -0.350894 -1.85511 0
M  V30 1399 O 136.985 0.668546 -1.69814 0
M  V30 1400 C 137.036 -2.76291 -2.33121 0
M  V30 1401 O 136.757 -4.02338 -1.73366 0
M  V30 1402 C 138.258 -3.028 -3.2377 0
M  V30 1403 H 135.478 -0.558361 -0.372121 0
M  V30 1404 H 138.022 -1.97099 -0.545179 0
M  V30 1405 H 136.177 -2.48068 -2.97558 0
M  V30 1406 H 136.591 -4.63312 -2.4585 0
M  V30 1407 H 138.065 -3.8345 -3.97077 0
M  V30 1408 H 138.542 -2.14385 -3.83322 0
M  V30 1409 H 139.148 -3.32604 -2.65056 0
M  V30 1410 N 137.463 0.71206 -1.40597 0
M  V30 1411 C 138.709 1.47416 -1.39271 0
M  V30 1412 C 139.042 1.942 0.00388791 0
M  V30 1413 O 138.317 1.68403 0.973179 0
M  V30 1414 C 138.6 2.69774 -2.38525 0
M  V30 1415 C 138.453 2.28861 -3.87224 0
M  V30 1416 C 139.772 3.71939 -2.35264 0
M  V30 1417 H 136.891 0.534713 -0.5072 0
M  V30 1418 H 139.533 0.812375 -1.71757 0
M  V30 1419 H 137.683 3.26238 -2.10953 0
M  V30 1420 H 139.355 1.77852 -4.25636 0
M  V30 1421 H 137.598 1.60824 -4.02887 0
M  V30 1422 H 138.269 3.16584 -4.52193 0
M  V30 1423 H 140.745 3.25113 -2.59694 0
M  V30 1424 H 139.621 4.55186 -3.06753 0
M  V30 1425 H 139.882 4.20484 -1.36549 0
M  V30 1426 N 138.941 1.26152 0.944643 0
M  V30 1427 C 140.187 1.11657 1.69294 0
M  V30 1428 C 140.52 -0.339926 1.91202 0
M  V30 1429 O 139.795 -1.24994 1.49019 0
M  V30 1430 C 140.078 1.88236 3.06984 0
M  V30 1431 C 139.931 3.41772 2.92424 0
M  V30 1432 C 141.25 1.67343 4.07043 0
M  V30 1433 H 138.369 0.407004 0.614424 0
M  V30 1434 H 141.011 1.55106 1.09737 0
M  V30 1435 H 139.161 1.51308 3.57824 0
M  V30 1436 H 140.833 3.88433 2.48832 0
M  V30 1437 H 139.076 3.68974 2.28124 0
M  V30 1438 H 139.747 3.90579 3.90067 0
M  V30 1439 H 142.223 1.99509 3.65151 0
M  V30 1440 H 141.099 2.23346 5.01406 0
M  V30 1441 H 141.36 0.617158 4.37771 0
M  V30 1442 N 140.419 -1.14872 1.07899 0
M  V30 1443 C 141.666 -1.85789 0.805532 0
M  V30 1444 C 141.994 -1.82649 -0.668561 0
M  V30 1445 O 141.249 -1.24858 -1.50695 0
M  V30 1446 C 141.548 -3.34223 1.26609 0
M  V30 1447 C 141.214 -3.57555 2.74709 0
M  V30 1448 C 139.876 -3.63631 3.1516 0
M  V30 1449 C 142.228 -3.66803 3.70277 0
M  V30 1450 C 139.556 -3.76473 4.49983 0
M  V30 1451 C 141.908 -3.8117 5.04869 0
M  V30 1452 C 140.572 -3.85494 5.44932 0
M  V30 1453 H 139.842 -0.679849 0.294765 0
M  V30 1454 H 142.489 -1.3572 1.35101 0
M  V30 1455 H 140.794 -3.86536 0.640103 0
M  V30 1456 H 142.491 -3.87511 1.03132 0
M  V30 1457 H 139.081 -3.5347 2.42398 0
M  V30 1458 H 143.265 -3.61404 3.40149 0
M  V30 1459 H 138.521 -3.7808 4.80484 0
M  V30 1460 H 142.695 -3.87268 5.78789 0
M  V30 1461 H 140.322 -3.95197 6.49403 0
M  V30 1462 N 141.898 -0.863906 -1.31812 0
M  V30 1463 C 143.175 -0.39275 -1.91616 0
M  V30 1464 C 143.555 1.12461 -1.7865 0
M  V30 1465 O 142.903 1.95045 -1.19037 0
M  V30 1466 C 143.113 -0.867385 -3.38049 0
M  V30 1467 C 144.461 -0.889966 -4.15168 0
M  V30 1468 O 145.485 -0.812635 -3.46806 0
M  V30 1469 O 144.344 -1.00079 -5.37258 0
M  V30 1470 H 141.438 -0.116358 -0.818773 0
M  V30 1471 H 143.984 -0.951418 -1.40521 0
M  V30 1472 H 142.756 -1.91081 -3.41473 0
M  V30 1473 H 142.379 -0.286687 -3.96565 0
M  V30 1474 N 143.376 1.44774 -0.622745 0
M  V30 1475 C 144.604 2.06487 -0.130722 0
M  V30 1476 C 145.019 1.46476 1.19123 0
M  V30 1477 O 144.376 0.584502 1.72887 0
M  V30 1478 C 144.427 3.615 -0.000807207 0
M  V30 1479 O 144.148 4.19274 -1.27048 0
M  V30 1480 C 145.649 4.40229 0.520898 0
M  V30 1481 H 142.869 0.666704 -0.0758106 0
M  V30 1482 H 145.413 1.85779 -0.854774 0
M  V30 1483 H 143.568 3.81498 0.673643 0
M  V30 1484 H 143.982 5.12622 -1.1099 0
M  V30 1485 H 145.456 5.49144 0.560838 0
M  V30 1486 H 145.933 4.1108 1.54627 0
M  V30 1487 H 146.539 4.25131 -0.120018 0
M  V30 1488 N 144.854 0.36279 1.53368 0
M  V30 1489 C 146.102 -0.227326 2.00817 0
M  V30 1490 C 146.423 -1.49511 1.25186 0
M  V30 1491 O 145.693 -1.92482 0.364348 0
M  V30 1492 H 144.273 -0.0869923 0.741917 0
M  V30 1493 H 146.935 0.488381 1.88682 0
M  V30 1494 H 146.031 -0.456273 3.08747 0
M  V30 1495 N 146.332 -1.57332 0.0918853 0
M  V30 1496 C 147.557 -1.98995 -0.584442 0
M  V30 1497 C 147.982 -0.970528 -1.61128 0
M  V30 1498 O 147.34 0.0613904 -1.81196 0
M  V30 1499 C 147.388 -3.39636 -1.21161 0
M  V30 1500 O 146.492 -3.40447 -2.32744 0
M  V30 1501 H 145.833 -0.647165 -0.148572 0
M  V30 1502 H 148.363 -2.03873 0.172347 0
M  V30 1503 H 148.373 -3.7726 -1.55367 0
M  V30 1504 H 147.048 -4.13356 -0.459313 0
M  V30 1505 H 145.625 -3.14614 -2.0018 0
M  V30 1506 N 147.81 0.181792 -1.56548 0
M  V30 1507 C 149.035 0.920019 -1.85877 0
M  V30 1508 C 149.46 1.75494 -0.677021 0
M  V30 1509 O 148.818 1.77399 0.374056 0
M  V30 1510 C 148.866 1.78112 -3.13542 0
M  V30 1511 O 147.97 2.88152 -2.95029 0
M  V30 1512 H 147.311 0.258334 -0.611686 0
M  V30 1513 H 149.841 0.183092 -2.03779 0
M  V30 1514 H 149.851 2.18314 -3.44678 0
M  V30 1515 H 148.526 1.16777 -3.99169 0
M  V30 1516 H 147.103 2.51609 -2.75222 0
M  V30 1517 N 149.288 1.51039 0.449983 0
M  V30 1518 C 150.236 1.71995 1.5659 0
M  V30 1519 C 151.23 0.586029 1.5894 0
M  V30 1520 O 152.436 0.76709 1.62837 0
M  V30 1521 H 148.811 0.543233 0.520001 0
M  V30 1522 H 150.782 2.65562 1.36085 0
M  V30 1523 C 149.531 1.8506 2.9436 0
M  V30 1524 H 148.854 2.71712 2.93279 0
M  V30 1525 H 150.294 2.0374 3.71842 0
M  V30 1526 C 148.753 0.607277 3.31382 0
M  V30 1527 O 149.283 -0.243903 4.00959 0
M  V30 1528 N 147.489 0.455073 2.87015 0
M  V30 1529 H 147.036 1.14879 2.30566 0
M  V30 1530 H 146.994 -0.375611 3.12148 0
M  V30 1531 N 150.766 -0.704594 1.40972 0
M  V30 1532 C 151.696 -1.83124 1.44872 0
M  V30 1533 C 152.677 -1.67281 0.30838 0
M  V30 1534 O 153.862 -1.87149 0.518556 0
M  V30 1535 C 150.992 -3.21181 1.32136 0
M  V30 1536 C 149.946 -3.51714 2.43888 0
M  V30 1537 C 149.272 -4.89032 2.16222 0
M  V30 1538 C 150.572 -3.516 3.86232 0
M  V30 1539 H 152.266 -1.80117 2.39161 0
M  V30 1540 H 149.812 -0.865145 1.15114 0
M  V30 1541 H 151.765 -3.99702 1.33479 0
M  V30 1542 H 150.489 -3.24791 0.343279 0
M  V30 1543 H 149.148 -2.75539 2.41813 0
M  V30 1544 H 148.796 -4.89256 1.16778 0
M  V30 1545 H 148.496 -5.10426 2.911 0
M  V30 1546 H 150.02 -5.69873 2.19265 0
M  V30 1547 H 151.434 -4.2014 3.9007 0
M  V30 1548 H 149.831 -3.84523 4.60719 0
M  V30 1549 H 150.901 -2.50757 4.15029 0
M  V30 1550 N 152.244 -1.26651 -0.937939 0
M  V30 1551 C 153.49 -1.13562 -1.68746 0
M  V30 1552 C 153.845 0.317241 -1.89767 0
M  V30 1553 O 153.138 1.22939 -1.46957 0
M  V30 1554 C 153.332 -1.84168 -3.06295 0
M  V30 1555 C 153.161 -3.36171 -2.98696 0
M  V30 1556 C 151.931 -4.05468 -3.01535 0
M  V30 1557 C 154.129 -4.32312 -2.78588 0
M  V30 1558 N 152.111 -5.44118 -2.84269 0
M  V30 1559 C 153.482 -5.58159 -2.69924 0
M  V30 1560 C 155.537 -4.22524 -2.63396 0
M  V30 1561 C 154.24 -6.75335 -2.47618 0
M  V30 1562 C 156.266 -5.39411 -2.42466 0
M  V30 1563 C 155.628 -6.64208 -2.34536 0
M  V30 1564 H 151.727 -0.470361 -0.624728 0
M  V30 1565 H 154.311 -1.59982 -1.10968 0
M  V30 1566 H 152.482 -1.40219 -3.62206 0
M  V30 1567 H 154.214 -1.63674 -3.70126 0
M  V30 1568 H 150.969 -3.56854 -3.11372 0
M  V30 1569 H 151.393 -6.1693 -2.78795 0
M  V30 1570 H 156.035 -3.26771 -2.68292 0
M  V30 1571 H 153.753 -7.71182 -2.41463 0
M  V30 1572 H 157.339 -5.33711 -2.31611 0
M  V30 1573 H 156.219 -7.53129 -2.18555 0
M  V30 1574 N 153.722 1.14298 -1.08507 0
M  V30 1575 C 154.968 1.85633 -0.816581 0
M  V30 1576 C 155.301 1.82784 0.656021 0
M  V30 1577 O 154.576 1.25926 1.48233 0
M  V30 1578 C 154.859 3.34223 -1.34041 0
M  V30 1579 C 154.712 3.45639 -2.87843 0
M  V30 1580 C 156.031 4.29356 -0.9665 0
M  V30 1581 H 153.15 0.67402 -0.298104 0
M  V30 1582 H 155.792 1.34214 -1.34487 0
M  V30 1583 H 153.942 3.78144 -0.89104 0
M  V30 1584 H 155.614 3.10498 -3.41158 0
M  V30 1585 H 153.857 2.86817 -3.25451 0
M  V30 1586 H 154.528 4.50089 -3.19569 0
M  V30 1587 H 157.004 3.93457 -1.35391 0
M  V30 1588 H 155.88 5.3178 -1.3602 0
M  V30 1589 H 156.141 4.41919 0.126362 0
M  V30 1590 N 155.201 0.870884 1.31352 0
M  V30 1591 C 156.612 0.534714 1.78879 0
M  V30 1592 C 156.963 -0.948423 1.71754 0
M  V30 1593 O 156.088 -1.74055 1.28584 0
M  V30 1594 C 156.683 0.963839 3.24801 0
M  V30 1595 C 155.242 0.679311 3.70219 0
M  V30 1596 C 154.389 1.15465 2.52117 0
M  V30 1597 H 157.34 1.05651 1.18421 0
M  V30 1598 H 157.361 0.286892 3.79417 0
M  V30 1599 H 156.873 2.04332 3.29955 0
M  V30 1600 H 154.974 -0.388769 3.70566 0
M  V30 1601 H 155.087 1.25698 4.62317 0
M  V30 1602 H 153.451 0.574383 2.48139 0
M  V30 1603 H 154.234 2.24157 2.60016 0
M  V30 1604 N 156.679 -1.44442 0.630414 0
M  V30 1605 C 157.904 -2.06927 0.139944 0
M  V30 1606 C 158.329 -1.46795 -1.17613 0
M  V30 1607 O 157.687 -0.569144 -1.72135 0
M  V30 1608 C 157.735 -3.6058 0.0379581 0
M  V30 1609 O 156.839 -3.99937 -1.0062 0
M  V30 1610 H 156.18 -0.658608 0.0844483 0
M  V30 1611 H 158.71 -1.85327 0.866891 0
M  V30 1612 H 158.72 -4.07714 -0.152856 0
M  V30 1613 H 157.395 -4.03728 0.998809 0
M  V30 1614 H 155.972 -3.64436 -0.79001 0
M  V30 1615 N 158.157 -0.370918 -1.53173 0
M  V30 1616 C 159.406 0.218249 -2.00516 0
M  V30 1617 C 159.719 1.49429 -1.26215 0
M  V30 1618 O 160.925 2.16239 -1.64174 0
M  V30 1619 C 159.381 0.43948 -3.57207 0
M  V30 1620 C 158.989 -0.822244 -4.4039 0
M  V30 1621 C 160.733 0.986012 -4.1289 0
M  V30 1622 C 158.64 -0.570304 -5.88644 0
M  V30 1623 H 157.57 0.0853333 -0.749156 0
M  V30 1624 H 160.221 -0.490483 -1.76823 0
M  V30 1625 H 158.603 1.20961 -3.77074 0
M  V30 1626 H 159.777 -1.59557 -4.32294 0
M  V30 1627 H 158.092 -1.29238 -3.95836 0
M  V30 1628 H 160.689 1.18991 -5.21292 0
M  V30 1629 H 161.032 1.94972 -3.6782 0
M  V30 1630 H 161.565 0.27592 -3.96842 0
M  V30 1631 H 158.304 -1.50449 -6.38001 0
M  V30 1632 H 157.824 0.164427 -5.99575 0
M  V30 1633 H 159.503 -0.19784 -6.46697 0
M  V30 1634 N 159.635 1.57281 -0.100228 0
M  V30 1635 C 160.585 2.10848 0.86759 0
M  V30 1636 C 161.569 1.02473 1.24049 0
M  V30 1637 O 162.761 1.28739 1.21471 0
M  V30 1638 C 159.89 2.69648 2.12474 0
M  V30 1639 C 158.976 3.85074 1.77704 0
M  V30 1640 N 159.367 4.92897 1.13518 0
M  V30 1641 C 157.665 3.94905 2.07282 0
M  V30 1642 C 158.366 5.73475 0.974735 0
M  V30 1643 N 157.342 5.22675 1.4937 0
M  V30 1644 H 161.144 2.91594 0.367471 0
M  V30 1645 H 158.658 1.62074 0.102829 0
M  V30 1646 H 160.655 3.06356 2.82757 0
M  V30 1647 H 159.315 1.90359 2.63047 0
M  V30 1648 H 160.326 5.11662 0.801381 0
M  V30 1649 H 157.003 3.26633 2.60033 0
M  V30 1650 H 158.393 6.70238 0.472364 0
M  V30 1651 N 161.113 -0.173488 1.56642 0
M  V30 1652 C 162.353 -0.896984 1.83667 0
M  V30 1653 C 162.717 -1.79523 0.680842 0
M  V30 1654 O 163.918 -2.55616 0.831488 0
M  V30 1655 C 162.189 -1.67351 3.15798 0
M  V30 1656 S 163.748 -2.44607 3.64298 0
M  V30 1657 H 160.566 -0.300464 0.644393 0
M  V30 1658 H 163.168 -0.158775 1.94854 0
M  V30 1659 H 161.872 -1.00462 3.97914 0
M  V30 1660 H 161.403 -2.45313 3.07546 0
M  V30 1661 H 163.418 -3.69261 3.31452 0
M  V30 1662 N 162.591 -1.51276 -0.441967 0
M  V30 1663 C 163.538 -1.72256 -1.53612 0
M  V30 1664 C 164.508 -0.564164 -1.56225 0
M  V30 1665 O 165.693 -0.798074 -1.73307 0
M  V30 1666 C 162.833 -1.84932 -2.91366 0
M  V30 1667 C 161.946 -3.12459 -2.98317 0
M  V30 1668 C 161.081 -3.15758 -4.27166 0
M  V30 1669 C 160.12 -4.37619 -4.27967 0
M  V30 1670 N 159.257 -4.38493 -5.48333 0
M  V30 1671 H 164.097 -2.65654 -1.35026 0
M  V30 1672 H 161.634 -1.31662 -0.656009 0
M  V30 1673 H 163.592 -1.90263 -3.7129 0
M  V30 1674 H 162.222 -0.949461 -3.08521 0
M  V30 1675 H 161.274 -3.1646 -2.11086 0
M  V30 1676 H 162.586 -4.02382 -2.94771 0
M  V30 1677 H 161.74 -3.19979 -5.15459 0
M  V30 1678 H 160.479 -2.23715 -4.33362 0
M  V30 1679 H 159.484 -4.33579 -3.38067 0
M  V30 1680 H 160.709 -5.30921 -4.23438 0
M  V30 1681 H 158.655 -3.49318 -5.55259 0
M  V30 1682 H 158.572 -5.22219 -5.46647 0
M  V30 1683 H 159.84 -4.469 -6.38671 0
M  V30 1684 N 164.069 0.697108 -1.41344 0
M  V30 1685 C 164.999 1.82353 -1.45841 0
M  V30 1686 C 165.98 1.67115 -0.317247 0
M  V30 1687 O 167.165 1.86871 -0.528474 0
M  V30 1688 C 164.295 3.20476 -1.33838 0
M  V30 1689 C 163.249 3.50415 -2.4575 0
M  V30 1690 C 162.575 4.87878 -2.18813 0
M  V30 1691 C 163.875 3.49546 -3.88091 0
M  V30 1692 H 165.569 1.78846 -2.40113 0
M  V30 1693 H 163.115 0.859028 -1.15571 0
M  V30 1694 H 165.068 3.98988 -1.35596 0
M  V30 1695 H 163.792 3.24604 -0.360498 0
M  V30 1696 H 162.451 2.74253 -2.43271 0
M  V30 1697 H 162.099 4.8863 -1.19371 0
M  V30 1698 H 161.799 5.08875 -2.93803 0
M  V30 1699 H 163.323 5.68702 -2.22284 0
M  V30 1700 H 164.737 4.18066 -3.92293 0
M  V30 1701 H 163.134 3.82075 -4.62751 0
M  V30 1702 H 164.204 2.48552 -4.16353 0
M  V30 1703 N 165.547 1.27147 0.931209 0
M  V30 1704 C 166.477 1.12081 2.04842 0
M  V30 1705 C 167.458 0.0232364 1.70084 0
M  V30 1706 O 168.643 0.197085 1.93197 0
M  V30 1707 C 165.773 0.76354 3.38803 0
M  V30 1708 C 164.727 1.81396 3.87659 0
M  V30 1709 C 164.053 1.31075 5.18385 0
M  V30 1710 C 165.353 3.21739 4.11438 0
M  V30 1711 H 167.047 2.05537 2.17703 0
M  V30 1712 H 164.593 0.989603 1.04608 0
M  V30 1713 H 166.546 0.644982 4.16435 0
M  V30 1714 H 165.27 -0.206727 3.25945 0
M  V30 1715 H 163.929 1.92136 3.12217 0
M  V30 1716 H 163.577 0.330037 5.01916 0
M  V30 1717 H 163.277 2.013 5.52044 0
M  V30 1718 H 164.801 1.20506 5.98591 0
M  V30 1719 H 166.215 3.14019 4.79651 0
M  V30 1720 H 164.612 3.89644 4.56397 0
M  V30 1721 H 165.682 3.67054 3.16859 0
M  V30 1722 N 167.025 -1.13721 1.09112 0
M  V30 1723 C 168.302 -1.81155 0.737706 0
M  V30 1724 C 168.682 -1.96253 -0.777683 0
M  V30 1725 O 168.03 -1.52807 -1.69889 0
M  V30 1726 C 168.24 -3.16392 1.47299 0
M  V30 1727 C 169.588 -3.91787 1.63671 0
M  V30 1728 O 170.612 -3.26005 1.43524 0
M  V30 1729 O 169.471 -5.0977 1.96969 0
M  V30 1730 H 166.565 -0.783518 0.26463 0
M  V30 1731 H 169.111 -1.20676 1.19312 0
M  V30 1732 H 167.883 -3.0061 2.50498 0
M  V30 1733 H 167.506 -3.8457 1.00953 0
M  V30 1734 N 168.503 -0.877838 -1.30888 0
M  V30 1735 C 169.752 -0.488793 -1.95688 0
M  V30 1736 C 170.065 0.965485 -1.70111 0
M  V30 1737 O 171.271 1.46104 -2.28836 0
M  V30 1738 C 169.727 -0.823201 -3.50359 0
M  V30 1739 C 169.335 -2.29477 -3.84765 0
M  V30 1740 C 171.079 -0.503009 -4.21509 0
M  V30 1741 C 168.986 -2.57118 -5.32583 0
M  V30 1742 H 167.916 -0.179062 -0.732429 0
M  V30 1743 H 170.567 -1.07183 -1.48943 0
M  V30 1744 H 168.949 -0.169331 -3.95638 0
M  V30 1745 H 170.123 -2.99236 -3.5042 0
M  V30 1746 H 168.438 -2.58178 -3.267 0
M  V30 1747 H 171.035 -0.68665 -5.30273 0
M  V30 1748 H 171.378 0.557109 -4.12555 0
M  V30 1749 H 171.911 -1.11376 -3.8189 0
M  V30 1750 H 168.65 -3.61843 -5.4658 0
M  V30 1751 H 168.17 -1.91961 -5.68253 0
M  V30 1752 H 169.849 -2.42251 -5.99936 0
M  V30 1753 N 169.982 1.44106 -0.638065 0
M  V30 1754 C 170.945 2.29138 0.0531013 0
M  V30 1755 C 171.945 1.41409 0.765506 0
M  V30 1756 O 173.135 1.63206 0.609046 0
M  V30 1757 C 170.267 3.23144 1.08584 0
M  V30 1758 H 171.46 2.91739 -0.694883 0
M  V30 1759 H 169.013 1.51134 -0.398538 0
M  V30 1760 H 169.748 2.65408 1.86357 0
M  V30 1761 H 169.533 3.87804 0.578852 0
M  V30 1762 H 171.023 3.87004 1.56899 0
M  V30 1763 N 171.46 0.379036 1.52974 0
M  V30 1764 C 172.7 -0.206325 2.03356 0
M  V30 1765 C 173.064 -1.44892 1.25977 0
M  V30 1766 O 174.265 -2.11078 1.66432 0
M  V30 1767 C 172.536 -0.477887 3.54191 0
M  V30 1768 S 174.095 -1.035 4.26419 0
M  V30 1769 H 170.913 -0.0590259 0.708546 0
M  V30 1770 H 173.515 0.525013 1.88319 0
M  V30 1771 H 172.219 0.433745 4.08101 0
M  V30 1772 H 171.75 -1.23793 3.73415 0
M  V30 1773 H 173.765 -2.31821 4.38718 0
M  V30 1774 N 172.938 -1.57226 0.108567 0
M  V30 1775 C 174.184 -1.95919 -0.546564 0
M  V30 1776 C 174.539 -0.990417 -1.6495 0
M  V30 1777 O 173.832 -0.0186593 -1.91591 0
M  V30 1778 C 174.026 -3.38911 -1.13463 0
M  V30 1779 C 173.855 -4.4961 -0.0901926 0
M  V30 1780 C 172.625 -5.04168 0.338008 0
M  V30 1781 C 174.823 -5.09693 0.686808 0
M  V30 1782 N 172.805 -5.98434 1.36931 0
M  V30 1783 C 174.176 -5.99804 1.56958 0
M  V30 1784 C 176.231 -4.92388 0.738846 0
M  V30 1785 C 174.934 -6.74463 2.49983 0
M  V30 1786 C 176.96 -5.67719 1.65676 0
M  V30 1787 C 176.322 -6.57507 2.52713 0
M  V30 1788 H 172.421 -0.763312 -0.169936 0
M  V30 1789 H 175.005 -1.93728 0.194264 0
M  V30 1790 H 173.176 -3.41769 -1.84522 0
M  V30 1791 H 174.908 -3.64752 -1.75322 0
M  V30 1792 H 171.663 -4.73571 -0.0523673 0
M  V30 1793 H 172.087 -6.5027 1.88356 0
M  V30 1794 H 176.729 -4.22724 0.080084 0
M  V30 1795 H 174.447 -7.4338 3.16878 0
M  V30 1796 H 178.033 -5.56338 1.70233 0
M  V30 1797 H 176.913 -7.14778 3.22586 0
M  V30 1798 N 174.416 0.165178 -1.56732 0
M  V30 1799 C 175.665 0.879143 -1.81532 0
M  V30 1800 C 175.978 1.83144 -0.686842 0
M  V30 1801 O 177.184 2.58823 -0.819944 0
M  V30 1802 C 175.64 1.61388 -3.21686 0
M  V30 1803 C 175.248 0.704904 -4.4242 0
M  V30 1804 C 176.992 2.3157 -3.55774 0
M  V30 1805 C 174.899 1.44022 -5.73595 0
M  V30 1806 H 173.829 0.332033 -0.676957 0
M  V30 1807 H 176.48 0.132008 -1.83025 0
M  V30 1808 H 174.862 2.40599 -3.14529 0
M  V30 1809 H 176.036 -0.0506815 -4.60772 0
M  V30 1810 H 174.351 0.112419 -4.16248 0
M  V30 1811 H 176.948 2.8719 -4.51028 0
M  V30 1812 H 177.291 3.07201 -2.8095 0
M  V30 1813 H 177.824 1.59297 -3.64513 0
M  V30 1814 H 174.563 0.72612 -6.51466 0
M  V30 1815 H 174.083 2.16898 -5.5921 0
M  V30 1816 H 175.762 1.98606 -6.15764 0
M  V30 1817 N 175.894 1.51508 0.433938 0
M  V30 1818 C 176.844 1.69451 1.52546 0
M  V30 1819 C 177.828 0.548474 1.51263 0
M  V30 1820 O 179.02 0.804529 1.57659 0
M  V30 1821 C 176.149 1.82604 2.90707 0
M  V30 1822 C 175.235 3.03002 2.96733 0
M  V30 1823 N 175.626 4.26121 2.72496 0
M  V30 1824 C 173.924 3.02327 3.27894 0
M  V30 1825 C 174.625 5.07407 2.84452 0
M  V30 1826 N 173.601 4.42126 3.16269 0
M  V30 1827 H 177.403 2.62305 1.32564 0
M  V30 1828 H 174.917 1.49202 0.641297 0
M  V30 1829 H 176.914 1.93569 3.69238 0
M  V30 1830 H 175.574 0.909339 3.11707 0
M  V30 1831 H 176.585 4.55009 2.4736 0
M  V30 1832 H 173.262 2.20301 3.54646 0
M  V30 1833 H 174.652 6.15422 2.69639 0
M  V30 1834 N 177.372 -0.689602 1.41712 0
M  V30 1835 C 178.322 -1.79571 1.40493 0
M  V30 1836 C 179.306 -1.58473 0.278409 0
M  V30 1837 O 180.498 -1.69204 0.519532 0
M  V30 1838 C 177.627 -3.17923 1.29536 0
M  V30 1839 C 176.713 -3.44695 2.47075 0
M  V30 1840 N 177.104 -3.42132 3.72531 0
M  V30 1841 C 175.402 -3.75269 2.41017 0
M  V30 1842 C 176.103 -3.67976 4.50521 0
M  V30 1843 N 175.079 -3.88014 3.80718 0
M  V30 1844 H 178.881 -1.75961 2.35404 0
M  V30 1845 H 176.395 -0.889839 1.35851 0
M  V30 1846 H 178.392 -3.97167 1.26745 0
M  V30 1847 H 177.052 -3.22741 0.356153 0
M  V30 1848 H 178.063 -3.22375 4.05333 0
M  V30 1849 H 174.74 -3.87421 1.55599 0
M  V30 1850 H 176.13 -3.7208 5.59469 0
M  V30 1851 N 178.85 -1.27639 -0.924453 0
M  V30 1852 C 179.797 -1.10644 -2.0255 0
M  V30 1853 C 180.767 -0.00658438 -1.66099 0
M  V30 1854 O 181.952 -0.16952 -1.90045 0
M  V30 1855 C 179.092 -0.76309 -3.36557 0
M  V30 1856 C 178.205 -1.94091 -3.85944 0
M  V30 1857 C 177.34 -1.53914 -5.08413 0
M  V30 1858 C 176.379 -2.68425 -5.50104 0
M  V30 1859 N 175.516 -2.28815 -6.63768 0
M  V30 1860 H 180.356 -2.04858 -2.16419 0
M  V30 1861 H 177.893 -1.01974 -1.06017 0
M  V30 1862 H 179.851 -0.544822 -4.13627 0
M  V30 1863 H 178.481 0.142102 -3.22487 0
M  V30 1864 H 177.533 -2.27162 -3.05125 0
M  V30 1865 H 178.845 -2.7998 -4.12811 0
M  V30 1866 H 177.999 -1.28231 -5.92994 0
M  V30 1867 H 176.738 -0.651391 -4.8333 0
M  V30 1868 H 175.743 -2.94819 -4.64071 0
M  V30 1869 H 176.968 -3.57826 -5.7718 0
M  V30 1870 H 174.914 -1.42495 -6.40337 0
M  V30 1871 H 174.831 -3.08242 -6.90306 0
M  V30 1872 H 176.099 -2.06387 -7.51681 0
M  V30 1873 N 180.328 1.1314 -1.09713 0
M  V30 1874 C 181.558 1.88048 -0.855656 0
M  V30 1875 C 181.966 1.79537 0.596919 0
M  V30 1876 O 181.309 1.16196 1.42282 0
M  V30 1877 C 181.371 3.38314 -1.21589 0
M  V30 1878 C 181.035 3.70605 -2.67397 0
M  V30 1879 C 182.032 3.69596 -3.65643 0
M  V30 1880 C 179.717 4.0017 -3.03593 0
M  V30 1881 C 181.711 3.977 -4.9811 0
M  V30 1882 C 179.398 4.27935 -4.36251 0
M  V30 1883 C 180.396 4.26685 -5.33318 0
M  V30 1884 O 180.084 4.53767 -6.63589 0
M  V30 1885 H 179.816 0.60208 -0.307368 0
M  V30 1886 H 182.37 1.44128 -1.46343 0
M  V30 1887 H 180.6 3.82752 -0.551177 0
M  V30 1888 H 182.289 3.94552 -0.953083 0
M  V30 1889 H 183.055 3.46826 -3.39023 0
M  V30 1890 H 178.934 4.00289 -2.2867 0
M  V30 1891 H 182.478 3.9664 -5.73866 0
M  V30 1892 H 178.375 4.50178 -4.62613 0
M  V30 1893 H 179.143 4.71422 -6.69107 0
M  V30 1894 N 181.806 0.884767 1.30421 0
M  V30 1895 C 182.754 0.340869 2.30089 0
M  V30 1896 C 183.748 -0.55201 1.60154 0
M  V30 1897 O 184.954 -0.436467 1.74628 0
M  V30 1898 H 181.329 0.0915739 0.746404 0
M  V30 1899 H 183.3 1.19513 2.73421 0
M  V30 1900 C 182.049 -0.429779 3.45034 0
M  V30 1901 H 181.372 0.248024 3.9903 0
M  V30 1902 H 182.812 -0.775445 4.16849 0
M  V30 1903 C 181.271 -1.62677 2.95022 0
M  V30 1904 O 181.801 -2.72614 2.95033 0
M  V30 1905 N 180.007 -1.46387 2.51036 0
M  V30 1906 H 179.554 -0.569506 2.51226 0
M  V30 1907 H 179.512 -2.26612 2.17932 0
M  V30 1908 N 183.284 -1.43765 0.645699 0
M  V30 1909 C 184.509 -2.06767 0.161883 0
M  V30 1910 C 184.934 -1.48034 -1.16049 0
M  V30 1911 O 184.292 -0.587369 -1.71522 0
M  V30 1912 C 184.34 -3.60519 0.0762003 0
M  V30 1913 O 183.444 -4.00982 -0.963721 0
M  V30 1914 H 182.785 -0.657675 0.091429 0
M  V30 1915 H 185.315 -1.84397 0.886499 0
M  V30 1916 H 185.325 -4.07853 -0.109604 0
M  V30 1917 H 184 -4.02646 1.04157 0
M  V30 1918 H 182.577 -3.65253 -0.751312 0
M  V30 1919 N 184.763 -0.387143 -1.52771 0
M  V30 1920 C 186.04 0.253197 -1.93954 0
M  V30 1921 C 186.42 1.64545 -1.32243 0
M  V30 1922 O 185.768 2.23191 -0.489699 0
M  V30 1923 C 185.978 0.281722 -3.47861 0
M  V30 1924 C 187.326 0.511715 -4.21505 0
M  V30 1925 O 188.35 0.362023 -3.54356 0
M  V30 1926 O 187.209 0.804847 -5.40541 0
M  V30 1927 H 184.303 0.156845 -0.811991 0
M  V30 1928 H 186.849 -0.441494 -1.63856 0
M  V30 1929 H 185.621 -0.693571 -3.85104 0
M  V30 1930 H 185.244 1.02142 -3.84256 0
M  V30 1931 N 186.241 1.57166 -0.116904 0
M  V30 1932 C 187.188 2.15202 0.83408 0
M  V30 1933 C 188.158 1.07644 1.26499 0
M  V30 1934 O 189.343 1.35541 1.34288 0
M  V30 1935 C 186.483 2.75405 2.07957 0
M  V30 1936 C 185.596 3.97264 1.69721 0
M  V30 1937 C 184.731 4.45561 2.89221 0
M  V30 1938 C 183.77 5.59956 2.47215 0
M  V30 1939 N 182.907 6.03006 3.59622 0
M  V30 1940 H 187.747 2.96141 0.332335 0
M  V30 1941 H 185.284 1.46309 0.152349 0
M  V30 1942 H 187.242 3.08439 2.80929 0
M  V30 1943 H 185.872 1.97159 2.55594 0
M  V30 1944 H 184.924 3.70404 0.866316 0
M  V30 1945 H 186.236 4.80226 1.34849 0
M  V30 1946 H 185.39 4.80493 3.7042 0
M  V30 1947 H 184.129 3.61544 3.27318 0
M  V30 1948 H 183.134 5.2463 1.64448 0
M  V30 1949 H 184.359 6.45738 2.10238 0
M  V30 1950 H 182.305 5.21931 3.97396 0
M  V30 1951 H 182.222 6.80819 3.28667 0
M  V30 1952 H 183.49 6.42576 4.41267 0
M  V30 1953 N 187.719 -0.156864 1.56817 0
M  V30 1954 C 188.944 -0.890331 1.87318 0
M  V30 1955 C 189.369 -1.74394 0.704855 0
M  V30 1956 O 188.727 -1.77972 -0.345786 0
M  V30 1957 C 188.775 -1.73102 3.16336 0
M  V30 1958 O 187.879 -2.83422 2.99576 0
M  V30 1959 H 187.22 -0.24857 0.615718 0
M  V30 1960 H 189.75 -0.150649 2.04045 0
M  V30 1961 H 189.76 -2.12803 3.48107 0
M  V30 1962 H 188.435 -1.10412 4.00976 0
M  V30 1963 H 187.012 -2.47199 2.7919 0
M  V30 1964 N 189.197 -1.51736 -0.425897 0
M  V30 1965 C 190.422 -1.69082 -1.20108 0
M  V30 1966 C 190.847 -0.392398 -1.83962 0
M  V30 1967 O 190.205 0.64858 -1.69302 0
M  V30 1968 C 190.253 -2.81604 -2.25237 0
M  V30 1969 O 189.357 -2.46004 -3.30992 0
M  V30 1970 H 188.698 -0.563408 -0.35138 0
M  V30 1971 H 191.228 -1.98358 -0.501512 0
M  V30 1972 H 191.238 -3.06025 -2.69838 0
M  V30 1973 H 189.913 -3.75817 -1.78142 0
M  V30 1974 H 188.49 -2.32195 -2.91787 0
M  V30 1975 N 190.675 0.682077 -1.42076 0
M  V30 1976 C 191.903 1.47057 -1.4554 0
M  V30 1977 C 192.318 1.8869 -0.0645779 0
M  V30 1978 O 191.675 1.57666 0.919115 0
M  V30 1979 C 191.726 2.72442 -2.37609 0
M  V30 1980 O 191.447 2.32559 -3.71279 0
M  V30 1981 C 192.948 3.66069 -2.50017 0
M  V30 1982 H 190.168 0.452737 -0.495248 0
M  V30 1983 H 192.712 0.838695 -1.8651 0
M  V30 1984 H 190.867 3.31835 -1.9991 0
M  V30 1985 H 191.281 3.13475 -4.20516 0
M  V30 1986 H 192.755 4.50792 -3.18576 0
M  V30 1987 H 193.232 4.11476 -1.53572 0
M  V30 1988 H 193.838 3.12572 -2.88407 0
M  V30 1989 N 192.153 1.28127 0.917671 0
M  V30 1990 C 193.383 1.17722 1.6978 0
M  V30 1991 C 193.791 -0.267261 1.87303 0
M  V30 1992 O 193.134 -1.19286 1.39702 0
M  V30 1993 C 193.196 1.79958 3.11216 0
M  V30 1994 C 192.86 3.29187 3.16993 0
M  V30 1995 C 193.857 4.25679 2.98485 0
M  V30 1996 C 191.542 3.70075 3.39632 0
M  V30 1997 C 193.536 5.61035 3.02521 0
M  V30 1998 C 191.223 5.05557 3.433 0
M  V30 1999 C 192.221 6.00847 3.24764 0
M  V30 2000 O 191.909 7.33859 3.28187 0
M  V30 2001 H 191.641 0.409788 0.537634 0
M  V30 2002 H 194.195 1.69694 1.15728 0
M  V30 2003 H 192.425 1.22475 3.66793 0
M  V30 2004 H 194.114 1.64125 3.71238 0
M  V30 2005 H 194.88 3.95426 2.80826 0
M  V30 2006 H 190.759 2.96373 3.53106 0
M  V30 2007 H 194.303 6.35388 2.87971 0
M  V30 2008 H 190.2 5.35462 3.60486 0
M  V30 2009 H 190.968 7.42436 3.44575 0
M  V30 2010 N 193.631 -1.12557 1.10312 0
M  V30 2011 C 194.877 -1.84311 0.846011 0
M  V30 2012 C 195.21 -1.83805 -0.626859 0
M  V30 2013 O 194.485 -1.28268 -1.46211 0
M  V30 2014 C 194.768 -3.32048 1.39341 0
M  V30 2015 C 194.621 -3.41016 2.93305 0
M  V30 2016 C 195.94 -4.27764 1.03468 0
M  V30 2017 H 193.059 -0.669192 0.30879 0
M  V30 2018 H 195.701 -1.32057 1.36605 0
M  V30 2019 H 193.851 -3.76678 0.951087 0
M  V30 2020 H 195.523 -3.05031 3.46055 0
M  V30 2021 H 193.766 -2.81603 3.29973 0
M  V30 2022 H 194.437 -4.44948 3.26689 0
M  V30 2023 H 196.913 -3.91253 1.41633 0
M  V30 2024 H 195.789 -5.29549 1.44463 0
M  V30 2025 H 196.05 -4.42064 -0.0560404 0
M  V30 2026 N 195.109 -0.891671 -1.2995 0
M  V30 2027 C 196.056 -0.361736 -2.27948 0
M  V30 2028 C 197.026 0.551761 -1.56668 0
M  V30 2029 O 198.211 0.478736 -1.84696 0
M  V30 2030 C 195.351 0.411825 -3.42634 0
M  V30 2031 C 194.464 -0.531651 -4.28716 0
M  V30 2032 C 193.599 0.258167 -5.30572 0
M  V30 2033 C 192.638 -0.680349 -6.08307 0
M  V30 2034 N 191.775 0.0745613 -7.0206 0
M  V30 2035 H 196.615 -1.20254 -2.72659 0
M  V30 2036 H 194.152 -0.604352 -1.34112 0
M  V30 2037 H 196.11 0.876304 -4.07893 0
M  V30 2038 H 194.74 1.21715 -2.98974 0
M  V30 2039 H 193.792 -1.11463 -3.63703 0
M  V30 2040 H 195.104 -1.25038 -4.82874 0
M  V30 2041 H 194.258 0.784204 -6.0161 0
M  V30 2042 H 192.997 1.01008 -4.77126 0
M  V30 2043 H 192.002 -1.21796 -5.3614 0
M  V30 2044 H 193.227 -1.43145 -6.63842 0
M  V30 2045 H 191.173 0.808883 -6.50994 0
M  V30 2046 H 191.09 -0.584409 -7.53738 0
M  V30 2047 H 192.358 0.581123 -7.77331 0
M  V30 2048 N 196.587 1.43421 -0.653314 0
M  V30 2049 C 197.535 2.32546 0.0501531 0
M  V30 2050 C 198.529 1.48617 0.812985 0
M  V30 2051 O 199.735 1.64825 0.723375 0
M  V30 2052 H 196.11 0.751185 0.0350032 0
M  V30 2053 H 198.081 2.89602 -0.719261 0
M  V30 2054 C 196.83 3.32925 1.00279 0
M  V30 2055 H 196.153 3.97532 0.425236 0
M  V30 2056 H 197.593 3.9792 1.46409 0
M  V30 2057 C 196.052 2.63532 2.09886 0
M  V30 2058 O 196.582 2.45092 3.18265 0
M  V30 2059 N 194.788 2.22905 1.86445 0
M  V30 2060 H 194.335 2.38103 0.98309 0
M  V30 2061 H 194.293 1.76805 2.59976 0
M  V30 2062 N 198.065 0.39524 1.52563 0
M  V30 2063 C 199.313 -0.184678 2.01254 0
M  V30 2064 C 199.634 -1.46822 1.28329 0
M  V30 2065 O 198.904 -1.91666 0.405094 0
M  V30 2066 H 197.484 -0.0712355 0.743596 0
M  V30 2067 H 200.146 0.528293 1.87603 0
M  V30 2068 H 199.242 -0.390681 3.09645 0
M  V30 2069 N 199.544 -1.57102 0.125237 0
M  V30 2070 C 200.772 -1.99761 -0.538797 0
M  V30 2071 C 201.187 -1.00503 -1.59827 0
M  V30 2072 O 200.544 0.00119474 -1.825 0
M  V30 2073 C 200.595 -3.42408 -1.15927 0
M  V30 2074 O 200.316 -4.37869 -0.142143 0
M  V30 2075 C 201.817 -4.00232 -1.90602 0
M  V30 2076 H 199.037 -0.655772 -0.14214 0
M  V30 2077 H 201.581 -2.03383 0.213413 0
M  V30 2078 H 199.736 -3.39706 -1.86223 0
M  V30 2079 H 200.15 -5.21128 -0.593775 0
M  V30 2080 H 201.624 -5.02105 -2.29335 0
M  V30 2081 H 202.101 -3.39721 -2.78363 0
M  V30 2082 H 202.707 -4.06499 -1.25055 0
M  V30 2083 N 201.022 0.148545 -1.56898 0
M  V30 2084 C 202.247 0.880385 -1.87787 0
M  V30 2085 C 202.672 1.74018 -0.714093 0
M  V30 2086 O 202.03 1.78153 0.336343 0
M  V30 2087 C 202.078 1.71422 -3.17249 0
M  V30 2088 O 201.182 2.8183 -3.01074 0
M  V30 2089 H 200.523 0.245301 -0.617028 0
M  V30 2090 H 203.053 0.139826 -2.04122 0
M  V30 2091 H 203.063 2.10954 -3.49231 0
M  V30 2092 H 201.738 1.08284 -4.01556 0
M  V30 2093 H 200.315 2.45715 -2.80497 0
M  V30 2094 N 202.5 1.5196 0.417844 0
M  V30 2095 C 203.747 1.65591 1.16559 0
M  V30 2096 C 204.075 0.381565 1.90721 0
M  V30 2097 O 203.33 -0.635156 1.85106 0
M  V30 2098 C 203.629 2.82269 2.19223 0
M  V30 2099 C 203.295 4.20819 1.61933 0
M  V30 2100 C 201.957 4.58506 1.46033 0
M  V30 2101 C 204.309 5.07196 1.20008 0
M  V30 2102 C 201.637 5.80257 0.867113 0
M  V30 2103 C 203.989 6.29544 0.621086 0
M  V30 2104 C 202.653 6.65987 0.449144 0
M  V30 2105 H 201.923 0.605939 0.42652 0
M  V30 2106 H 204.57 1.86041 0.45397 0
M  V30 2107 H 202.875 2.56118 2.96498 0
M  V30 2108 H 204.572 2.90012 2.76936 0
M  V30 2109 H 201.162 3.91116 1.7529 0
M  V30 2110 H 205.346 4.7867 1.31105 0
M  V30 2111 H 200.602 6.07124 0.721833 0
M  V30 2112 H 204.776 6.95805 0.287798 0
M  V30 2113 H 202.403 7.60199 -0.012632 0
M  V30 2114 N 203.978 -0.674533 1.42435 0
M  V30 2115 C 205.255 -1.4305 1.33402 0
M  V30 2116 C 205.635 -2.11081 -0.0284674 0
M  V30 2117 O 204.983 -2.03257 -1.04397 0
M  V30 2118 C 205.193 -2.43272 2.50239 0
M  V30 2119 C 206.541 -3.07907 2.92367 0
M  V30 2120 O 207.565 -2.53599 2.50132 0
M  V30 2121 O 206.424 -4.0632 3.65467 0
M  V30 2122 H 203.518 -0.638076 0.526106 0
M  V30 2123 H 206.064 -0.703235 1.54443 0
M  V30 2124 H 204.836 -1.91803 3.41068 0
M  V30 2125 H 204.459 -3.23479 2.31186 0
M  V30 2126 N 205.456 -1.28612 -0.910864 0
M  V30 2127 C 206.705 -1.15311 -1.65488 0
M  V30 2128 C 207.018 0.296999 -1.93332 0
M  V30 2129 O 208.224 0.551168 -2.65847 0
M  V30 2130 C 206.68 -2.01599 -2.98137 0
M  V30 2131 C 206.288 -3.51367 -2.7793 0
M  V30 2132 C 208.032 -1.96993 -3.76024 0
M  V30 2133 C 205.939 -4.29797 -4.06237 0
M  V30 2134 H 204.869 -0.42796 -0.620779 0
M  V30 2135 H 207.52 -1.53166 -1.01057 0
M  V30 2136 H 205.902 -1.56603 -3.63719 0
M  V30 2137 H 207.076 -4.0434 -2.21011 0
M  V30 2138 H 205.391 -3.57529 -2.13452 0
M  V30 2139 H 207.988 -2.52856 -4.71135 0
M  V30 2140 H 208.331 -0.94733 -4.05378 0
M  V30 2141 H 208.864 -2.39973 -3.17266 0
M  V30 2142 H 205.603 -5.32648 -3.82055 0
M  V30 2143 H 205.123 -3.81596 -4.62757 0
M  V30 2144 H 206.802 -4.39869 -4.74473 0
M  V30 2145 N 206.934 1.1197 -1.10907 0
M  V30 2146 C 207.884 2.15946 -0.731538 0
M  V30 2147 C 208.868 1.58758 0.261699 0
M  V30 2148 O 210.06 1.76863 0.0696722 0
M  V30 2149 C 207.189 3.42877 -0.170299 0
M  V30 2150 C 206.275 4.07037 -1.19087 0
M  V30 2151 N 206.666 4.46135 -2.38322 0
M  V30 2152 C 204.964 4.33884 -1.03252 0
M  V30 2153 C 205.665 4.96331 -3.03366 0
M  V30 2154 N 204.641 4.9214 -2.30865 0
M  V30 2155 H 208.443 2.43947 -1.63912 0
M  V30 2156 H 205.957 1.28927 -0.987505 0
M  V30 2157 H 207.954 4.16732 0.118271 0
M  V30 2158 H 206.614 3.16343 0.731935 0
M  V30 2159 H 207.625 4.38345 -2.75815 0
M  V30 2160 H 204.302 4.17084 -0.186256 0
M  V30 2161 H 205.692 5.36257 -4.04818 0
M  V30 2162 N 208.412 0.89855 1.29475 0
M  V30 2163 C 209.642 0.538479 1.99459 0
M  V30 2164 C 210.05 -0.880922 1.67441 0
M  V30 2165 O 209.393 -1.59283 0.915127 0
M  V30 2166 C 209.455 0.649564 3.53583 0
M  V30 2167 C 209.119 2.03573 4.09154 0
M  V30 2168 C 210.116 3.00675 4.24135 0
M  V30 2169 C 207.801 2.3448 4.44212 0
M  V30 2170 C 209.795 4.26809 4.73405 0
M  V30 2171 C 207.482 3.60857 4.93179 0
M  V30 2172 C 208.48 4.56836 5.0773 0
M  V30 2173 O 208.168 5.80969 5.55635 0
M  V30 2174 H 207.9 0.205372 0.644048 0
M  V30 2175 H 210.454 1.20958 1.66007 0
M  V30 2176 H 208.684 -0.0785592 3.8662 0
M  V30 2177 H 210.373 0.29881 4.04799 0
M  V30 2178 H 211.139 2.78112 3.97339 0
M  V30 2179 H 207.018 1.60534 4.32145 0
M  V30 2180 H 210.562 5.0173 4.84678 0
M  V30 2181 H 206.459 3.83251 5.19412 0
M  V30 2182 H 207.227 5.83542 5.73952 0
M  V30 2183 N 209.89 -1.43072 0.660911 0
M  V30 2184 C 211.138 -2.01323 0.177094 0
M  V30 2185 C 211.459 -1.5245 -1.2159 0
M  V30 2186 O 210.729 -0.740322 -1.81373 0
M  V30 2187 H 209.309 -0.744382 0.0624804 0
M  V30 2188 H 211.971 -1.75179 0.854305 0
M  V30 2189 H 211.067 -3.11649 0.167641 0
M  V30 2190 N 211.368 -0.403325 -1.52352 0
M  V30 2191 C 212.593 0.176499 -2.06648 0
M  V30 2192 C 213.018 1.38577 -1.27193 0
M  V30 2193 O 212.376 1.7879 -0.300637 0
M  V30 2194 C 212.424 0.511061 -3.5696 0
M  V30 2195 O 211.528 1.60294 -3.79973 0
M  V30 2196 H 210.869 0.0167337 -0.663789 0
M  V30 2197 H 213.399 -0.574848 -1.96359 0
M  V30 2198 H 213.409 0.771362 -4.00642 0
M  V30 2199 H 212.084 -0.37296 -4.14224 0
M  V30 2200 H 210.661 1.33526 -3.48174 0
M  V30 2201 N 212.846 1.57033 -0.133567 0
M  V30 2202 C 214.094 1.953 0.519848 0
M  V30 2203 C 214.415 1.01866 1.66278 0
M  V30 2204 O 213.685 0.0776513 1.95746 0
M  V30 2205 H 212.265 0.721091 0.195032 0
M  V30 2206 H 214.927 1.93809 -0.205921 0
M  V30 2207 H 214.023 2.98695 0.904854 0
M  V30 2208 N 214.325 -0.140222 1.56975 0
M  V30 2209 C 215.55 -0.870414 1.88251 0
M  V30 2210 C 215.975 -1.73637 0.723312 0
M  V30 2211 O 215.333 -1.78329 -0.32689 0
M  V30 2212 C 215.381 -1.69737 3.18154 0
M  V30 2213 O 214.485 -2.80229 3.02565 0
M  V30 2214 H 213.826 -0.242025 0.61832 0
M  V30 2215 H 216.356 -0.128999 2.04193 0
M  V30 2216 H 216.366 -2.09099 3.50345 0
M  V30 2217 H 215.041 -1.06152 4.02125 0
M  V30 2218 H 213.618 -2.44224 2.81796 0
M  V30 2219 N 215.803 -1.52179 -0.40978 0
M  V30 2220 C 216.733 -1.78435 -1.5061 0
M  V30 2221 C 217.714 -0.635295 -1.57791 0
M  V30 2222 O 218.899 -0.880823 -1.73076 0
M  V30 2223 C 216.029 -1.93444 -2.88439 0
M  V30 2224 C 214.983 -3.09038 -2.96108 0
M  V30 2225 C 214.309 -3.09268 -4.36185 0
M  V30 2226 C 215.609 -4.48508 -2.67652 0
M  V30 2227 H 217.303 -2.70237 -1.28889 0
M  V30 2228 H 214.849 -1.30036 -0.618605 0
M  V30 2229 H 216.802 -2.10394 -3.65119 0
M  V30 2230 H 215.526 -0.983129 -3.11452 0
M  V30 2231 H 214.185 -2.91837 -2.21872 0
M  V30 2232 H 213.833 -2.11861 -4.56206 0
M  V30 2233 H 213.533 -3.86907 -4.42241 0
M  V30 2234 H 215.057 -3.28348 -5.14801 0
M  V30 2235 H 216.471 -4.65918 -3.34056 0
M  V30 2236 H 214.868 -5.28059 -2.85085 0
M  V30 2237 H 215.938 -4.56649 -1.63095 0
M  V30 2238 N 217.281 0.66697 -1.42791 0
M  V30 2239 C 218.506 1.46004 -1.47301 0
M  V30 2240 C 218.931 1.87894 -0.0880317 0
M  V30 2241 O 218.289 1.56502 0.915253 0
M  V30 2242 C 218.337 2.68031 -2.41229 0
M  V30 2243 O 217.441 3.6659 -1.88906 0
M  V30 2244 H 216.782 0.43832 -0.49877 0
M  V30 2245 H 219.312 0.817391 -1.87563 0
M  V30 2246 H 219.322 3.1601 -2.58073 0
M  V30 2247 H 217.997 2.36883 -3.41847 0
M  V30 2248 H 216.574 3.25661 -1.81656 0
M  V30 2249 N 218.759 1.29093 0.90403 0
M  V30 2250 C 220.007 1.16583 1.65085 0
M  V30 2251 C 220.328 -0.283933 1.92922 0
M  V30 2252 O 219.598 -1.19509 1.55224 0
M  V30 2253 H 218.178 0.428467 0.611903 0
M  V30 2254 H 220.84 1.61959 1.08422 0
M  V30 2255 H 219.936 1.71266 2.6091 0
M  V30 2256 N 220.237 -1.11381 1.11499 0
M  V30 2257 C 221.467 -1.86663 0.885464 0
M  V30 2258 C 221.875 -1.80464 -0.568281 0
M  V30 2259 O 221.218 -1.18445 -1.40415 0
M  V30 2260 C 221.28 -3.36337 1.26956 0
M  V30 2261 C 220.944 -3.66304 2.73259 0
M  V30 2262 C 221.941 -3.63733 3.71476 0
M  V30 2263 C 219.626 -3.9529 3.09921 0
M  V30 2264 C 221.62 -3.89725 5.04374 0
M  V30 2265 C 219.307 -4.20941 4.43004 0
M  V30 2266 C 220.305 -4.18147 5.40039 0
M  V30 2267 O 219.993 -4.43153 6.70724 0
M  V30 2268 H 219.725 -0.597114 0.316908 0
M  V30 2269 H 222.279 -1.41782 1.48617 0
M  V30 2270 H 220.509 -3.81826 0.611999 0
M  V30 2271 H 222.198 -3.92986 1.01573 0
M  V30 2272 H 222.964 -3.41389 3.44498 0
M  V30 2273 H 218.843 -3.966 2.35009 0
M  V30 2274 H 222.387 -3.8746 5.80104 0
M  V30 2275 H 218.284 -4.42761 4.69716 0
M  V30 2276 H 219.052 -4.60717 6.76522 0
M  V30 2277 N 221.715 -0.905404 -1.28997 0
M  V30 2278 C 222.645 -0.404212 -2.29975 0
M  V30 2279 C 223.626 0.523784 -1.61835 0
M  V30 2280 O 224.811 0.433298 -1.89304 0
M  V30 2281 C 221.941 0.364042 -3.45387 0
M  V30 2282 C 220.895 -0.474048 -4.25367 0
M  V30 2283 C 220.221 0.422045 -5.33032 0
M  V30 2284 C 221.521 -1.72696 -4.92923 0
M  V30 2285 H 223.215 -1.24807 -2.72146 0
M  V30 2286 H 220.761 -0.601585 -1.30832 0
M  V30 2287 H 222.714 0.725447 -4.15109 0
M  V30 2288 H 221.438 1.24174 -3.02074 0
M  V30 2289 H 220.097 -0.81786 -3.57361 0
M  V30 2290 H 219.745 1.29804 -4.85963 0
M  V30 2291 H 219.445 -0.135057 -5.87445 0
M  V30 2292 H 220.969 0.779517 -6.05604 0
M  V30 2293 H 222.383 -1.43495 -5.55051 0
M  V30 2294 H 220.78 -2.22582 -5.57295 0
M  V30 2295 H 221.85 -2.45964 -4.17887 0
M  V30 2296 N 223.193 1.4272 -0.668489 0
M  V30 2297 C 224.418 2.06484 -0.194758 0
M  V30 2298 C 224.843 1.49862 1.13679 0
M  V30 2299 O 224.201 0.614582 1.70565 0
M  V30 2300 C 224.249 3.60353 -0.133546 0
M  V30 2301 O 223.353 4.02464 0.899806 0
M  V30 2302 H 222.694 0.656137 -0.10188 0
M  V30 2303 H 225.224 1.82964 -0.915722 0
M  V30 2304 H 225.234 4.07976 0.0447041 0
M  V30 2305 H 223.909 4.00938 -1.1055 0
M  V30 2306 H 222.486 3.66402 0.693109 0
M  V30 2307 N 224.671 0.411399 1.52136 0
M  V30 2308 C 225.603 -0.448386 2.24771 0
M  V30 2309 C 226.616 -1.00828 1.27818 0
M  V30 2310 O 227.805 -0.906841 1.53749 0
M  V30 2311 C 224.905 -1.63636 2.96777 0
M  V30 2312 C 224.078 -1.19995 4.20618 0
M  V30 2313 C 223.137 -2.25509 4.75428 0
M  V30 2314 O 222.163 -1.86007 5.3795 0
M  V30 2315 N 223.365 -3.577 4.57199 0
M  V30 2316 H 226.13 0.174025 2.99194 0
M  V30 2317 H 223.691 0.238897 1.60128 0
M  V30 2318 H 225.683 -2.33793 3.30338 0
M  V30 2319 H 224.253 -2.16465 2.25526 0
M  V30 2320 H 223.473 -0.326421 3.92846 0
M  V30 2321 H 224.761 -0.885365 5.01038 0
M  V30 2322 H 224.159 -3.92543 4.07341 0
M  V30 2323 H 222.716 -4.23827 4.95191 0
M  V30 2324 N 226.149 -1.5696 0.141893 0
M  V30 2325 C 227.426 -1.87553 -0.555281 0
M  V30 2326 C 227.806 -1.04699 -1.83306 0
M  V30 2327 O 227.154 -0.132346 -2.28116 0
M  V30 2328 C 227.364 -3.39093 -0.825664 0
M  V30 2329 C 228.712 -4.08199 -1.16869 0
M  V30 2330 O 229.736 -3.44242 -0.915185 0
M  V30 2331 O 228.595 -5.21139 -1.6455 0
M  V30 2332 H 225.689 -0.777188 -0.282679 0
M  V30 2333 H 228.235 -1.68763 0.17812 0
M  V30 2334 H 227.007 -3.91221 0.0788633 0
M  V30 2335 H 226.63 -3.63393 -1.61343 0
M  V30 2336 N 227.627 0.131896 -1.57047 0
M  V30 2337 C 228.855 0.856461 -1.88341 0
M  V30 2338 C 229.27 1.74042 -0.731757 0
M  V30 2339 O 228.627 1.80051 0.297945 0
M  V30 2340 C 228.678 1.70064 -3.18999 0
M  V30 2341 O 228.399 0.852278 -4.2973 0
M  V30 2342 C 229.9 2.53148 -3.63911 0
M  V30 2343 H 227.12 0.246885 -0.62393 0
M  V30 2344 H 229.664 0.120152 -2.04147 0
M  V30 2345 H 227.819 2.38984 -3.04902 0
M  V30 2346 H 228.233 1.43329 -5.04537 0
M  V30 2347 H 229.707 3.07931 -4.58129 0
M  V30 2348 H 230.184 3.29901 -2.89935 0
M  V30 2349 H 230.79 1.89492 -3.80753 0
M  V30 2350 N 229.106 1.52395 0.401703 0
M  V30 2351 C 230.352 1.67065 1.14966 0
M  V30 2352 C 230.685 0.403052 1.89971 0
M  V30 2353 O 229.96 -0.598774 1.85054 0
M  V30 2354 C 230.243 2.8975 2.13815 0
M  V30 2355 C 230.096 4.26578 1.42658 0
M  V30 2356 C 231.415 3.07965 3.14397 0
M  V30 2357 H 228.534 0.607968 0.416587 0
M  V30 2358 H 231.176 1.84965 0.434511 0
M  V30 2359 H 229.326 2.74619 2.74803 0
M  V30 2360 H 230.998 4.53451 0.847329 0
M  V30 2361 H 229.241 4.27639 0.72849 0
M  V30 2362 H 229.912 5.08483 2.14823 0
M  V30 2363 H 232.388 3.22043 2.63491 0
M  V30 2364 H 231.264 3.95308 3.80819 0
M  V30 2365 H 231.525 2.21611 3.82545 0
M  V30 2366 N 230.584 -0.659388 1.43143 0
M  V30 2367 C 231.809 -1.45221 1.48073 0
M  V30 2368 C 232.234 -1.87845 0.097995 0
M  V30 2369 O 231.592 -1.56985 -0.90694 0
M  V30 2370 C 231.64 -2.66748 2.42647 0
M  V30 2371 O 230.744 -3.65583 1.90848 0
M  V30 2372 H 230.085 -0.435669 0.501088 0
M  V30 2373 H 232.615 -0.807432 1.87994 0
M  V30 2374 H 232.625 -3.14637 2.59745 0
M  V30 2375 H 231.3 -2.35067 3.43098 0
M  V30 2376 H 229.877 -3.24693 1.83381 0
M  V30 2377 N 232.062 -1.29571 -0.897171 0
M  V30 2378 C 233.308 -1.17863 -1.65034 0
M  V30 2379 C 233.641 0.268729 -1.92332 0
M  V30 2380 O 232.916 1.19378 -1.53555 0
M  V30 2381 C 233.199 -1.995 -2.99786 0
M  V30 2382 C 233.052 -3.5239 -2.79538 0
M  V30 2383 C 234.371 -1.82335 -4.00552 0
M  V30 2384 H 231.49 -0.429528 -0.598895 0
M  V30 2385 H 234.132 -1.59072 -1.03905 0
M  V30 2386 H 232.282 -1.64485 -3.51962 0
M  V30 2387 H 233.954 -3.97401 -2.34244 0
M  V30 2388 H 232.197 -3.77187 -2.14273 0
M  V30 2389 H 232.868 -4.04787 -3.75302 0
M  V30 2390 H 235.344 -2.12924 -3.57495 0
M  V30 2391 H 234.22 -2.41801 -4.92771 0
M  V30 2392 H 234.481 -0.779209 -4.35179 0
M  V30 2393 N 233.54 1.10788 -1.12088 0
M  V30 2394 C 234.951 1.64181 -0.88891 0
M  V30 2395 C 235.302 1.87508 0.577498 0
M  V30 2396 O 234.427 1.61434 1.44112 0
M  V30 2397 C 235.022 2.98257 -1.60712 0
M  V30 2398 C 233.581 3.4853 -1.42139 0
M  V30 2399 C 232.728 2.23208 -1.6454 0
M  V30 2400 H 235.679 0.943368 -1.27618 0
M  V30 2401 H 235.7 3.65552 -1.05604 0
M  V30 2402 H 235.212 2.81246 -2.67436 0
M  V30 2403 H 233.313 3.70692 -0.376552 0
M  V30 2404 H 233.426 4.26882 -2.17505 0
M  V30 2405 H 231.79 2.31169 -1.06925 0
M  V30 2406 H 232.573 2.08733 -2.72554 0
M  V30 2407 N 235.018 0.912232 1.28515 0
M  V30 2408 C 236.258 0.551677 1.96814 0
M  V30 2409 C 236.622 -0.887825 1.7024 0
M  V30 2410 O 237.823 -1.35588 2.32098 0
M  V30 2411 C 236.094 0.850555 3.47132 0
M  V30 2412 S 237.653 0.59619 4.34731 0
M  V30 2413 H 234.471 0.204191 0.681049 0
M  V30 2414 H 237.073 1.17736 1.56072 0
M  V30 2415 H 235.777 1.8962 3.63968 0
M  V30 2416 H 235.308 0.213471 3.9282 0
M  V30 2417 H 237.323 -0.553154 4.93107 0
M  V30 2418 N 236.496 -1.42363 0.676048 0
M  V30 2419 C 237.428 -2.29164 -0.0404605 0
M  V30 2420 C 238.441 -1.43747 -0.764245 0
M  V30 2421 O 239.63 -1.67453 -0.618195 0
M  V30 2422 C 236.73 -3.21196 -1.08103 0
M  V30 2423 C 235.903 -4.35273 -0.430812 0
M  V30 2424 C 234.962 -5.08017 -1.37133 0
M  V30 2425 O 233.988 -5.62494 -0.87116 0
M  V30 2426 N 235.19 -5.13647 -2.70456 0
M  V30 2427 H 237.955 -2.91298 0.704667 0
M  V30 2428 H 235.516 -1.53303 0.520559 0
M  V30 2429 H 237.508 -3.66728 -1.71152 0
M  V30 2430 H 236.078 -2.60505 -1.72788 0
M  V30 2431 H 235.298 -3.92372 0.379209 0
M  V30 2432 H 236.586 -5.08795 0.0221132 0
M  V30 2433 H 235.984 -4.708 -3.1363 0
M  V30 2434 H 234.541 -5.62821 -3.28749 0
M  V30 2435 N 237.974 -0.419461 -1.51915 0
M  V30 2436 C 239.199 0.154572 -2.06823 0
M  V30 2437 C 239.624 1.3722 -1.28656 0
M  V30 2438 O 238.982 1.78461 -0.319583 0
M  V30 2439 C 239.03 0.473172 -3.57482 0
M  V30 2440 O 238.134 1.56255 -3.81652 0
M  V30 2441 H 237.475 0.0096924 -0.663929 0
M  V30 2442 H 240.005 -0.595642 -1.95738 0
M  V30 2443 H 240.015 0.728825 -4.01438 0
M  V30 2444 H 238.69 -0.416873 -4.13805 0
M  V30 2445 H 237.267 1.29825 -3.49571 0
M  V30 2446 N 239.452 1.56882 -0.150215 0
M  V30 2447 C 240.415 2.1573 0.774157 0
M  V30 2448 C 241.415 1.0999 1.17298 0
M  V30 2449 O 242.605 1.35613 1.09338 0
M  V30 2450 C 239.737 2.72302 2.05096 0
M  V30 2451 H 240.93 2.98752 0.262201 0
M  V30 2452 H 238.483 1.55985 0.099248 0
M  V30 2453 H 239.218 1.92956 2.6065 0
M  V30 2454 H 239.003 3.49665 1.77416 0
M  V30 2455 H 240.493 3.17632 2.71109 0
M  V30 2456 N 240.93 -0.123565 1.57115 0
M  V30 2457 C 242.155 -0.850398 1.89164 0
M  V30 2458 C 242.58 -1.7286 0.741688 0
M  V30 2459 O 241.938 -1.78665 -0.307958 0
M  V30 2460 C 241.986 -1.66353 3.19936 0
M  V30 2461 O 241.09 -2.77004 3.0552 0
M  V30 2462 H 240.431 -0.235454 0.620852 0
M  V30 2463 H 242.961 -0.107335 2.04318 0
M  V30 2464 H 242.971 -2.05372 3.52543 0
M  V30 2465 H 241.646 -1.01881 4.03228 0
M  V30 2466 H 240.223 -2.41221 2.84371 0
M  V30 2467 N 242.408 -1.52605 -0.393616 0
M  V30 2468 C 243.633 -1.71592 -1.16495 0
M  V30 2469 C 244.058 -0.43133 -1.83088 0
M  V30 2470 O 243.416 0.612523 -1.7064 0
M  V30 2471 C 243.464 -2.86318 -2.19213 0
M  V30 2472 O 242.568 -2.52969 -3.257 0
M  V30 2473 H 241.909 -0.570734 -0.33935 0
M  V30 2474 H 244.439 -1.99377 -0.459324 0
M  V30 2475 H 244.449 -3.1168 -2.63286 0
M  V30 2476 H 243.124 -3.79511 -1.7013 0
M  V30 2477 H 241.701 -2.38332 -2.86797 0
M  V30 2478 N 243.887 0.651787 -1.4349 0
M  V30 2479 C 244.85 1.74647 -1.48429 0
M  V30 2480 C 245.85 1.56513 -0.368817 0
M  V30 2481 O 247.04 1.62385 -0.630623 0
M  V30 2482 C 244.172 3.13533 -1.33827 0
M  V30 2483 H 245.365 1.71649 -2.4592 0
M  V30 2484 H 242.918 0.863573 -1.30277 0
M  V30 2485 H 243.653 3.22142 -0.37349 0
M  V30 2486 H 243.438 3.28101 -2.14691 0
M  V30 2487 H 244.928 3.93356 -1.40218 0
M  V30 2488 N 245.365 1.30045 0.890287 0
M  V30 2489 C 246.59 1.21598 1.68014 0
M  V30 2490 C 247.015 -0.218678 1.86825 0
M  V30 2491 O 246.373 -1.15756 1.39536 0
M  V30 2492 C 246.421 1.94434 3.03691 0
M  V30 2493 O 245.525 1.2678 3.92429 0
M  V30 2494 H 244.866 0.420856 0.513592 0
M  V30 2495 H 247.396 1.71775 1.11151 0
M  V30 2496 H 247.406 2.03251 3.5377 0
M  V30 2497 H 246.081 2.98777 2.89318 0
M  V30 2498 H 244.658 1.26282 3.50866 0
M  V30 2499 N 246.843 -1.10192 1.12674 0
M  V30 2500 C 247.806 -2.14786 0.799979 0
M  V30 2501 C 248.806 -1.59711 -0.18685 0
M  V30 2502 O 249.996 -1.74156 0.0392558 0
M  V30 2503 C 247.128 -3.40374 0.189228 0
M  V30 2504 H 248.321 -2.45203 1.72671 0
M  V30 2505 H 245.874 -1.25597 0.930326 0
M  V30 2506 H 246.609 -3.15577 -0.747107 0
M  V30 2507 H 246.394 -3.81637 0.899766 0
M  V30 2508 H 247.884 -4.17594 -0.0228143 0
M  V30 2509 N 248.321 -0.919034 -1.28029 0
M  V30 2510 C 249.251 -0.428581 -2.29533 0
M  V30 2511 C 250.232 0.50659 -1.62381 0
M  V30 2512 O 251.417 0.413195 -1.89753 0
M  V30 2513 C 248.547 0.327388 -3.45753 0
M  V30 2514 C 247.501 -0.519137 -4.2484 0
M  V30 2515 C 246.827 0.365486 -5.33449 0
M  V30 2516 C 248.127 -1.77914 -4.91064 0
M  V30 2517 H 249.821 -1.27687 -2.70807 0
M  V30 2518 H 247.367 -0.615428 -1.30186 0
M  V30 2519 H 249.32 0.681378 -4.15855 0
M  V30 2520 H 248.044 1.20963 -3.03374 0
M  V30 2521 H 246.703 -0.855717 -3.56473 0
M  V30 2522 H 246.351 1.24642 -4.87312 0
M  V30 2523 H 246.051 -0.197356 -5.87268 0
M  V30 2524 H 247.575 0.715241 -6.06396 0
M  V30 2525 H 248.989 -1.49374 -5.53498 0
M  V30 2526 H 247.386 -2.2848 -5.54903 0
M  V30 2527 H 248.456 -2.50382 -4.15255 0
M  V30 2528 N 249.799 1.42003 -0.683588 0
M  V30 2529 C 251.047 2.01015 -0.209101 0
M  V30 2530 C 251.368 1.54365 1.19149 0
M  V30 2531 O 250.638 0.769083 1.80172 0
M  V30 2532 H 249.218 0.743294 -0.074315 0
M  V30 2533 H 251.88 1.73798 -0.882066 0
M  V30 2534 H 250.976 3.11343 -0.2172 0
M  V30 2535 N 251.277 0.427512 1.51691 0
M  V30 2536 C 252.525 -0.141948 2.01601 0
M  V30 2537 C 252.846 -1.44067 1.31414 0
M  V30 2538 O 252.116 -1.90763 0.445658 0
M  V30 2539 H 250.696 -0.0554468 0.744939 0
M  V30 2540 H 253.358 0.567968 1.86441 0
M  V30 2541 H 252.454 -0.324913 3.10404 0
M  V30 2542 N 252.755 -1.56801 0.158532 0
M  V30 2543 C 254.001 -1.96781 -0.490405 0
M  V30 2544 C 254.334 -1.04397 -1.63753 0
M  V30 2545 O 253.609 -0.0885805 -1.94298 0
M  V30 2546 C 253.892 -3.4635 -0.985594 0
M  V30 2547 C 253.745 -4.49512 0.160824 0
M  V30 2548 C 255.064 -3.98697 -1.86355 0
M  V30 2549 H 252.183 -0.715482 -0.176788 0
M  V30 2550 H 254.825 -1.88451 0.242088 0
M  V30 2551 H 252.975 -3.53579 -1.60978 0
M  V30 2552 H 254.647 -4.54353 0.797537 0
M  V30 2553 H 252.89 -4.26013 0.818256 0
M  V30 2554 H 253.561 -5.51531 -0.227569 0
M  V30 2555 H 256.037 -3.94019 -1.33746 0
M  V30 2556 H 254.913 -5.03792 -2.17909 0
M  V30 2557 H 255.174 -3.41744 -2.8047 0
M  V30 2558 N 254.233 0.115231 -1.57178 0
M  V30 2559 C 255.18 1.14115 -2.00615 0
M  V30 2560 C 256.15 1.40939 -0.878941 0
M  V30 2561 O 257.335 1.52741 -1.14345 0
M  V30 2562 C 254.475 2.46156 -2.4187 0
M  V30 2563 C 253.588 2.26236 -3.68024 0
M  V30 2564 C 252.723 3.51534 -3.98243 0
M  V30 2565 C 251.762 3.26787 -5.17568 0
M  V30 2566 N 250.899 4.44298 -5.43639 0
M  V30 2567 H 255.739 0.763743 -2.88047 0
M  V30 2568 H 253.276 0.365615 -1.42484 0
M  V30 2569 H 255.234 3.23189 -2.63827 0
M  V30 2570 H 253.864 2.81783 -1.57475 0
M  V30 2571 H 252.916 1.40102 -3.5366 0
M  V30 2572 H 254.228 2.03929 -4.55208 0
M  V30 2573 H 253.382 4.36984 -4.20868 0
M  V30 2574 H 252.121 3.76876 -3.09541 0
M  V30 2575 H 251.126 2.39729 -4.94783 0
M  V30 2576 H 252.351 3.02812 -6.0785 0
M  V30 2577 H 250.297 4.69754 -4.57895 0
M  V30 2578 H 250.214 4.25109 -6.25154 0
M  V30 2579 H 251.482 5.3087 -5.70786 0
M  V30 2580 N 255.711 1.52812 0.385517 0
M  V30 2581 C 256.957 1.68275 1.13188 0
M  V30 2582 C 257.29 0.423179 1.89533 0
M  V30 2583 O 256.565 -0.579113 1.85679 0
M  V30 2584 C 256.848 2.92001 2.1073 0
M  V30 2585 C 256.701 4.28067 1.38125 0
M  V30 2586 C 258.02 3.11283 3.11113 0
M  V30 2587 H 255.139 0.612352 0.410115 0
M  V30 2588 H 257.781 1.85415 0.414869 0
M  V30 2589 H 255.931 2.77519 2.71874 0
M  V30 2590 H 257.603 4.54324 0.799187 0
M  V30 2591 H 255.846 4.28388 0.683092 0
M  V30 2592 H 256.517 5.10733 2.09417 0
M  V30 2593 H 258.993 3.2482 2.6006 0
M  V30 2594 H 257.869 3.99325 3.76605 0
M  V30 2595 H 258.13 2.25656 3.80173 0
M  V30 2596 N 257.189 -0.644168 1.43834 0
M  V30 2597 C 258.099 -1.78563 1.52159 0
M  V30 2598 C 259.115 -1.69147 0.408069 0
M  V30 2599 O 260.291 -1.90156 0.663524 0
M  V30 2600 C 257.356 -3.14888 1.45073 0
M  V30 2601 C 256.417 -3.36034 2.6717 0
M  V30 2602 C 255.65 -4.65855 2.60413 0
M  V30 2603 O 255.873 -5.45805 1.65689 0
M  V30 2604 O 254.807 -4.88918 3.5106 0
M  V30 2605 H 258.633 -1.74494 2.48567 0
M  V30 2606 H 256.218 -0.80378 1.25935 0
M  V30 2607 H 258.1 -3.96179 1.43597 0
M  V30 2608 H 256.775 -3.19528 0.518037 0
M  V30 2609 H 255.682 -2.54472 2.74217 0
M  V30 2610 H 257.015 -3.36247 3.59442 0
M  V30 2611 N 258.668 -1.30515 -0.883378 0
M  V30 2612 C 260.084 -1.08881 -1.16692 0
M  V30 2613 C 260.284 0.149409 -2.00945 0
M  V30 2614 O 259.34 0.84257 -2.38027 0
M  V30 2615 C 260.653 -2.35319 -1.87204 0
M  V30 2616 C 262.201 -2.40799 -1.99962 0
M  V30 2617 C 262.676 -3.67083 -2.73887 0
M  V30 2618 N 264.167 -3.679 -2.81432 0
M  V30 2619 C 264.902 -4.62303 -3.3921 0
M  V30 2620 N 264.398 -5.67052 -3.98025 0
M  V30 2621 N 266.191 -4.49845 -3.3704 0
M  V30 2622 H 258.342 -2.09951 -0.321633 0
M  V30 2623 H 260.605 -0.92556 -0.205043 0
M  V30 2624 H 260.311 -3.25689 -1.3274 0
M  V30 2625 H 260.185 -2.44089 -2.87577 0
M  V30 2626 H 262.572 -1.50907 -2.53597 0
M  V30 2627 H 262.653 -2.36003 -0.98673 0
M  V30 2628 H 262.297 -4.57334 -2.20925 0
M  V30 2629 H 262.227 -3.69141 -3.75556 0
M  V30 2630 H 264.718 -2.92171 -2.39676 0
M  V30 2631 H 265.031 -6.35184 -4.40183 0
M  V30 2632 H 263.376 -5.70842 -3.96439 0
M  V30 2633 H 266.567 -3.67194 -2.90321 0
M  V30 2634 H 266.74 -5.23597 -3.81772 0
M  V30 2635 N 260.146 1.09593 -1.13257 0
M  V30 2636 C 261.078 2.16015 -0.766167 0
M  V30 2637 C 262.091 1.61423 0.211303 0
M  V30 2638 O 263.28 1.78498 -0.00863946 0
M  V30 2639 C 260.38 3.38706 -0.114662 0
M  V30 2640 C 259.553 4.22717 -1.12379 0
M  V30 2641 C 258.612 5.23835 -0.498301 0
M  V30 2642 O 257.638 5.573 -1.15781 0
M  V30 2643 N 258.84 5.75886 0.730417 0
M  V30 2644 H 261.605 2.48055 -1.68193 0
M  V30 2645 H 259.166 1.25292 -1.02535 0
M  V30 2646 H 261.158 4.03464 0.315991 0
M  V30 2647 H 259.728 3.04569 0.704011 0
M  V30 2648 H 258.948 3.54122 -1.73179 0
M  V30 2649 H 260.236 4.75673 -1.80589 0
M  V30 2650 H 259.634 5.50911 1.28504 0
M  V30 2651 H 258.191 6.42387 1.10376 0
M  V30 2652 N 261.624 0.925811 1.2754 0
M  V30 2653 C 262.87 0.566092 1.94739 0
M  V30 2654 C 263.203 -0.890057 1.72603 0
M  V30 2655 O 262.478 -1.63467 1.05399 0
M  V30 2656 C 262.761 0.89054 3.48915 0
M  V30 2657 C 262.614 2.4003 3.80402 0
M  V30 2658 C 263.933 0.395101 4.38323 0
M  V30 2659 H 261.052 0.20714 0.707292 0
M  V30 2660 H 263.694 1.15725 1.50691 0
M  V30 2661 H 261.844 0.387452 3.86563 0
M  V30 2662 H 263.516 2.97494 3.52555 0
M  V30 2663 H 261.759 2.85028 3.2702 0
M  V30 2664 H 262.43 2.57785 4.8811 0
M  V30 2665 H 264.906 0.826241 4.07814 0
M  V30 2666 H 263.782 0.651086 5.45025 0
M  V30 2667 H 264.043 -0.704798 4.36446 0
M  V30 2668 N 263.102 -1.41638 0.69111 0
M  V30 2669 C 264.349 -2.01299 0.220193 0
M  V30 2670 C 264.677 -1.54715 -1.17871 0
M  V30 2671 O 263.932 -0.747193 -1.80874 0
M  V30 2672 C 264.231 -3.56714 0.221277 0
M  V30 2673 C 263.897 -4.22792 1.56709 0
M  V30 2674 C 262.559 -4.40557 1.93554 0
M  V30 2675 C 264.911 -4.59883 2.45268 0
M  V30 2676 C 262.239 -4.92688 3.18552 0
M  V30 2677 C 264.591 -5.13403 3.69595 0
M  V30 2678 C 263.255 -5.29379 4.06589 0
M  V30 2679 H 262.525 -0.736606 0.0805743 0
M  V30 2680 H 265.172 -1.69598 0.889319 0
M  V30 2681 H 263.477 -3.8818 -0.531391 0
M  V30 2682 H 265.174 -4.00678 -0.160547 0
M  V30 2683 H 261.764 -4.09336 1.2705 0
M  V30 2684 H 265.948 -4.45817 2.18084 0
M  V30 2685 H 261.204 -5.03242 3.47214 0
M  V30 2686 H 265.378 -5.41084 4.38407 0
M  V30 2687 H 263.005 -5.69537 5.03519 0
M  V30 2688 N 264.58 -0.43555 -1.51462 0
M  V30 2689 C 265.828 0.131254 -2.01673 0
M  V30 2690 C 266.149 1.43368 -1.32177 0
M  V30 2691 O 265.419 1.90524 -0.455769 0
M  V30 2692 H 263.999 0.0514954 -0.745223 0
M  V30 2693 H 266.661 -0.577847 -1.86137 0
M  V30 2694 H 265.757 0.308446 -3.10572 0
M  V30 2695 N 266.058 1.56714 -0.166846 0
M  V30 2696 C 266.968 2.21331 0.777791 0
M  V30 2697 C 267.984 1.20358 1.25658 0
M  V30 2698 O 269.16 1.53005 1.30964 0
M  V30 2699 C 266.225 2.83787 1.99163 0
M  V30 2700 C 265.286 3.99947 1.56016 0
M  V30 2701 C 264.519 4.59415 2.71613 0
M  V30 2702 O 264.742 4.17769 3.88362 0
M  V30 2703 O 263.676 5.49359 2.45945 0
M  V30 2704 H 267.502 3.02605 0.257636 0
M  V30 2705 H 265.087 1.49275 0.0611393 0
M  V30 2706 H 266.969 3.23405 2.70161 0
M  V30 2707 H 265.644 2.05513 2.50092 0
M  V30 2708 H 264.551 3.65007 0.819809 0
M  V30 2709 H 265.884 4.79801 1.09782 0
M  V30 2710 N 267.536 -0.106894 1.57237 0
M  V30 2711 C 268.499 -1.11466 2.0027 0
M  V30 2712 C 269.499 -1.33623 0.894519 0
M  V30 2713 O 270.689 -1.29935 1.16028 0
M  V30 2714 C 267.821 -2.46646 2.35327 0
M  V30 2715 H 269.014 -0.744516 2.90512 0
M  V30 2716 H 266.567 -0.351576 1.52295 0
M  V30 2717 H 267.302 -2.88558 1.48003 0
M  V30 2718 H 267.087 -2.31915 3.16161 0
M  V30 2719 H 268.577 -3.19151 2.69318 0
M  V30 2720 N 269.014 -1.53014 -0.377408 0
M  V30 2721 C 270.242 -1.72515 -1.14219 0
M  V30 2722 C 270.657 -0.448735 -1.8339 0
M  V30 2723 O 270.014 0.577592 -1.73119 0
M  V30 2724 C 270.065 -2.8826 -2.18148 0
M  V30 2725 O 269.786 -4.10962 -1.51795 0
M  V30 2726 C 271.287 -3.19536 -3.07264 0
M  V30 2727 H 268.507 -0.577301 -0.342001 0
M  V30 2728 H 271.051 -1.99712 -0.439935 0
M  V30 2729 H 269.206 -2.63492 -2.83991 0
M  V30 2730 H 269.62 -4.75693 -2.20945 0
M  V30 2731 H 271.094 -4.03959 -3.76193 0
M  V30 2732 H 271.571 -2.34403 -3.71419 0
M  V30 2733 H 272.177 -3.46186 -2.47053 0
M  V30 2734 N 270.492 0.636531 -1.44174 0
M  V30 2735 C 271.439 1.74875 -1.50624 0
M  V30 2736 C 272.409 1.62275 -0.35442 0
M  V30 2737 O 273.594 1.82276 -0.563908 0
M  V30 2738 C 270.734 3.13102 -1.45125 0
M  V30 2739 C 269.847 3.36717 -2.7064 0
M  V30 2740 C 268.982 4.64885 -2.57013 0
M  V30 2741 C 268.021 4.8166 -3.77717 0
M  V30 2742 N 267.158 6.01101 -3.62798 0
M  V30 2743 H 271.998 1.68697 -2.45653 0
M  V30 2744 H 269.535 0.823004 -1.21922 0
M  V30 2745 H 271.493 3.93034 -1.39929 0
M  V30 2746 H 270.123 3.18308 -0.536671 0
M  V30 2747 H 269.175 2.50763 -2.86046 0
M  V30 2748 H 270.487 3.44993 -3.60252 0
M  V30 2749 H 269.641 5.52969 -2.49619 0
M  V30 2750 H 268.38 4.58957 -1.64953 0
M  V30 2751 H 267.385 3.92007 -3.85501 0
M  V30 2752 H 268.61 4.89406 -4.70807 0
M  V30 2753 H 266.556 5.96273 -2.73486 0
M  V30 2754 H 266.473 6.10409 -4.46023 0
M  V30 2755 H 267.741 6.91761 -3.59286 0
M  V30 2756 N 271.97 1.30982 0.876444 0
M  V30 2757 C 272.902 1.13902 1.98894 0
M  V30 2758 C 273.915 0.0798815 1.62604 0
M  V30 2759 O 275.104 0.326743 1.75484 0
M  V30 2760 C 272.204 0.716699 3.31235 0
M  V30 2761 C 271.377 1.85945 3.95908 0
M  V30 2762 C 270.436 1.42426 5.06558 0
M  V30 2763 O 269.462 2.13287 5.27729 0
M  V30 2764 N 270.664 0.308025 5.79682 0
M  V30 2765 H 273.429 2.09724 2.14094 0
M  V30 2766 H 270.99 1.2323 1.05004 0
M  V30 2767 H 272.982 0.408403 4.02634 0
M  V30 2768 H 271.552 -0.149719 3.12241 0
M  V30 2769 H 270.772 2.33541 3.17573 0
M  V30 2770 H 272.06 2.62503 4.35855 0
M  V30 2771 H 271.458 -0.282241 5.64995 0
M  V30 2772 H 270.015 0.0592282 6.51773 0
M  V30 2773 N 273.449 -1.08991 1.13837 0
M  V30 2774 C 274.86 -1.62746 0.914917 0
M  V30 2775 C 275.211 -1.88403 -0.547594 0
M  V30 2776 O 274.336 -1.63706 -1.41525 0
M  V30 2777 C 274.931 -2.95662 1.65437 0
M  V30 2778 C 273.49 -3.46225 1.47666 0
M  V30 2779 C 272.637 -2.20562 1.6807 0
M  V30 2780 H 275.588 -0.922946 1.29102 0
M  V30 2781 H 275.609 -3.63825 1.11407 0
M  V30 2782 H 275.121 -2.76956 2.71877 0
M  V30 2783 H 273.222 -3.70046 0.435478 0
M  V30 2784 H 273.335 -4.23368 2.24268 0
M  V30 2785 H 271.699 -2.29439 1.10589 0
M  V30 2786 H 272.482 -2.0437 2.7584 0
M  V30 2787 N 274.927 -0.932562 -1.27047 0
M  V30 2788 C 276.175 -0.574422 -1.93765 0
M  V30 2789 C 276.496 0.887993 -1.73608 0
M  V30 2790 O 275.766 1.62999 -1.08665 0
M  V30 2791 H 274.346 -0.209451 -0.717035 0
M  V30 2792 H 277.008 -1.18601 -1.5466 0
M  V30 2793 H 276.104 -0.784841 -3.02071 0
M  V30 2794 N 276.405 1.4127 -0.698611 0
M  V30 2795 C 277.654 2.00408 -0.227949 0
M  V30 2796 C 277.967 1.55981 1.18023 0
M  V30 2797 O 279.173 2.07699 1.74852 0
M  V30 2798 C 277.629 3.58129 -0.356636 0
M  V30 2799 C 277.237 4.11536 -1.77037 0
M  V30 2800 C 278.981 4.24466 0.0540969 0
M  V30 2801 C 276.888 5.61701 -1.85055 0
M  V30 2802 H 275.818 0.749586 -0.0814657 0
M  V30 2803 H 278.469 1.61713 -0.867249 0
M  V30 2804 H 276.851 3.94442 0.350965 0
M  V30 2805 H 278.025 3.86636 -2.50698 0
M  V30 2806 H 276.34 3.57736 -2.13105 0
M  V30 2807 H 278.937 5.34698 0.0146723 0
M  V30 2808 H 279.28 4.01687 1.09332 0
M  V30 2809 H 279.813 3.93198 -0.603337 0
M  V30 2810 H 276.552 5.89312 -2.8704 0
M  V30 2811 H 276.072 5.88519 -1.15783 0
M  V30 2812 H 277.751 6.26524 -1.61484 0
M  V30 2813 N 277.883 0.443576 1.51229 0
M  V30 2814 C 279.111 -0.11929 2.06556 0
M  V30 2815 C 279.526 -1.35921 1.31038 0
M  V30 2816 O 278.883 -1.78675 0.371704 0
M  V30 2817 C 278.934 -0.435228 3.5887 0
M  V30 2818 O 278.655 0.755486 4.31537 0
M  V30 2819 C 280.156 -1.04808 4.30732 0
M  V30 2820 H 277.376 -0.0051584 0.67098 0
M  V30 2821 H 279.92 0.624453 1.94733 0
M  V30 2822 H 278.075 -1.12887 3.70588 0
M  V30 2823 H 278.489 0.483491 5.22267 0
M  V30 2824 H 279.963 -1.2191 5.3837 0
M  V30 2825 H 280.44 -2.03081 3.89429 0
M  V30 2826 H 281.046 -0.393637 4.23474 0
M  V30 2827 N 279.361 -1.56624 0.175154 0
M  V30 2828 C 280.608 -1.96999 -0.468811 0
M  V30 2829 C 280.936 -1.06129 -1.62994 0
M  V30 2830 O 280.191 -0.0961771 -1.95464 0
M  V30 2831 C 280.49 -3.43419 -0.989864 0
M  V30 2832 C 280.156 -4.50866 0.0557687 0
M  V30 2833 C 278.818 -4.79975 0.343134 0
M  V30 2834 C 281.17 -5.15551 0.765308 0
M  V30 2835 C 278.498 -5.71066 1.34536 0
M  V30 2836 C 280.85 -6.07724 1.75654 0
M  V30 2837 C 279.514 -6.35199 2.05132 0
M  V30 2838 H 278.784 -0.720869 -0.17155 0
M  V30 2839 H 281.431 -1.89616 0.267924 0
M  V30 2840 H 279.736 -3.47772 -1.80449 0
M  V30 2841 H 281.433 -3.72002 -1.49719 0
M  V30 2842 H 278.023 -4.28229 -0.178381 0
M  V30 2843 H 282.207 -4.9317 0.556513 0
M  V30 2844 H 277.463 -5.90635 1.57988 0
M  V30 2845 H 281.637 -6.56912 2.31169 0
M  V30 2846 H 279.264 -7.05584 2.8294 0
M  V30 2847 N 280.839 0.0985539 -1.57292 0
M  V30 2848 C 282.088 0.801358 -1.85098 0
M  V30 2849 C 282.401 1.80066 -0.763902 0
M  V30 2850 O 283.607 2.55112 -0.928981 0
M  V30 2851 C 282.063 1.47599 -3.28242 0
M  V30 2852 C 281.671 0.516624 -4.45011 0
M  V30 2853 C 283.415 2.16272 -3.65276 0
M  V30 2854 C 281.322 1.19564 -5.79188 0
M  V30 2855 H 280.252 0.303022 -0.69043 0
M  V30 2856 H 282.903 0.0542623 -1.8342 0
M  V30 2857 H 281.285 2.27042 -3.2445 0
M  V30 2858 H 282.459 -0.246065 -4.60143 0
M  V30 2859 H 280.774 -0.064227 -4.1635 0
M  V30 2860 H 283.371 2.67802 -4.62803 0
M  V30 2861 H 283.714 2.95009 -2.93727 0
M  V30 2862 H 284.247 1.43693 -3.70941 0
M  V30 2863 H 280.986 0.449157 -6.53959 0
M  V30 2864 H 280.506 1.92984 -5.67906 0
M  V30 2865 H 282.185 1.7231 -6.23633 0
M  V30 2866 N 282.317 1.53212 0.369288 0
M  V30 2867 C 283.28 1.7872 1.43498 0
M  V30 2868 C 284.28 0.657554 1.46741 0
M  V30 2869 O 285.47 0.925736 1.47566 0
M  V30 2870 C 282.602 1.90591 2.82645 0
M  V30 2871 H 283.795 2.73894 1.22156 0
M  V30 2872 H 281.348 1.44233 0.602203 0
M  V30 2873 H 282.083 0.974709 3.09306 0
M  V30 2874 H 281.868 2.72751 2.8169 0
M  V30 2875 H 283.358 2.11931 3.59826 0
M  V30 2876 N 283.795 -0.628877 1.44509 0
M  V30 2877 C 284.758 -1.72263 1.51188 0
M  V30 2878 C 285.758 -1.55907 0.39367 0
M  V30 2879 O 286.948 -1.61361 0.656377 0
M  V30 2880 C 284.08 -3.11365 1.38798 0
M  V30 2881 H 285.273 -1.67714 2.4862 0
M  V30 2882 H 282.826 -0.842737 1.31634 0
M  V30 2883 H 283.561 -3.21507 0.424693 0
M  V30 2884 H 283.346 -3.24644 2.19884 0
M  V30 2885 H 284.836 -3.91075 1.46458 0
M  V30 2886 N 285.273 -1.31445 -0.869486 0
M  V30 2887 C 286.22 -1.19135 -1.97675 0
M  V30 2888 C 287.19 -0.0770266 -1.65921 0
M  V30 2889 O 288.375 -0.249972 -1.89155 0
M  V30 2890 C 285.515 -0.905149 -3.33018 0
M  V30 2891 C 284.628 -2.10285 -3.77365 0
M  V30 2892 C 283.763 -1.75339 -5.01427 0
M  V30 2893 C 282.802 -2.91515 -5.38224 0
M  V30 2894 N 281.939 -2.56762 -6.53466 0
M  V30 2895 H 286.779 -2.13853 -2.07535 0
M  V30 2896 H 284.316 -1.06379 -1.01597 0
M  V30 2897 H 286.274 -0.719765 -4.10944 0
M  V30 2898 H 284.904 0.00519624 -3.228 0
M  V30 2899 H 283.956 -2.39899 -2.95216 0
M  V30 2900 H 285.268 -2.97237 -4.00564 0
M  V30 2901 H 284.422 -1.53266 -5.87022 0
M  V30 2902 H 283.161 -0.855801 -4.80133 0
M  V30 2903 H 282.166 -3.14237 -4.51149 0
M  V30 2904 H 283.391 -3.81985 -5.61484 0
M  V30 2905 H 281.337 -1.69526 -6.33717 0
M  V30 2906 H 281.254 -3.37243 -6.76612 0
M  V30 2907 H 282.522 -2.38083 -7.42251 0
M  V30 2908 N 286.751 1.08385 -1.14413 0
M  V30 2909 C 287.998 1.80776 -0.912482 0
M  V30 2910 C 288.326 1.86236 0.560934 0
M  V30 2911 O 287.581 1.33431 1.43159 0
M  V30 2912 C 287.88 3.26273 -1.45879 0
M  V30 2913 C 287.546 3.4093 -2.95089 0
M  V30 2914 C 286.208 3.44638 -3.35824 0
M  V30 2915 C 288.56 3.44591 -3.91033 0
M  V30 2916 C 285.888 3.49597 -4.71167 0
M  V30 2917 C 288.24 3.51086 -5.26233 0
M  V30 2918 C 286.904 3.53067 -5.6648 0
M  V30 2919 H 286.174 0.661507 -0.333901 0
M  V30 2920 H 288.821 1.27613 -1.42784 0
M  V30 2921 H 287.126 3.82146 -0.864376 0
M  V30 2922 H 288.823 3.80839 -1.2555 0
M  V30 2923 H 285.413 3.38736 -2.62594 0
M  V30 2924 H 289.597 3.40957 -3.60641 0
M  V30 2925 H 284.853 3.49424 -5.0171 0
M  V30 2926 H 289.027 3.52864 -6.00383 0
M  V30 2927 H 286.654 3.56662 -6.71339 0
M  V30 2928 N 288.23 0.939286 1.26551 0
M  V30 2929 C 289.507 0.5038 1.89001 0
M  V30 2930 C 289.887 -1.01854 1.84903 0
M  V30 2931 O 289.235 -1.87773 1.30206 0
M  V30 2932 C 289.445 1.063 3.32417 0
M  V30 2933 C 290.793 1.13051 4.09273 0
M  V30 2934 O 291.817 1.01345 3.41479 0
M  V30 2935 O 290.676 1.31233 5.30509 0
M  V30 2936 H 287.77 0.163897 0.810597 0
M  V30 2937 H 290.316 1.03173 1.34735 0
M  V30 2938 H 289.088 2.10665 3.29752 0
M  V30 2939 H 288.711 0.517408 3.94219 0
M  V30 2940 N 289.708 -1.40897 0.706093 0
M  V30 2941 C 290.956 -2.00657 0.241054 0
M  V30 2942 C 291.277 -1.56241 -1.16678 0
M  V30 2943 O 290.547 -0.79765 -1.78926 0
M  V30 2944 H 289.127 -0.742018 0.0861308 0
M  V30 2945 H 291.789 -1.72372 0.909604 0
M  V30 2946 H 290.885 -3.10958 0.266705 0
M  V30 2947 N 291.186 -0.45159 -1.50991 0
M  V30 2948 C 292.435 0.111653 -2.01391 0
M  V30 2949 C 292.748 1.42529 -1.33959 0
M  V30 2950 O 293.954 2.07232 -1.75405 0
M  V30 2951 C 292.41 0.249514 -3.59034 0
M  V30 2952 C 292.018 -1.05453 -4.35412 0
M  V30 2953 C 293.762 0.765762 -4.17536 0
M  V30 2954 C 291.669 -0.881529 -5.84793 0
M  V30 2955 H 290.599 0.0455022 -0.752626 0
M  V30 2956 H 293.25 -0.583524 -1.73975 0
M  V30 2957 H 291.632 1.00803 -3.82955 0
M  V30 2958 H 292.806 -1.82248 -4.23229 0
M  V30 2959 H 291.121 -1.50039 -3.88429 0
M  V30 2960 H 293.718 0.911913 -5.26866 0
M  V30 2961 H 294.061 1.75201 -3.77638 0
M  V30 2962 H 294.594 0.0651744 -3.97747 0
M  V30 2963 H 291.333 -1.84057 -6.29129 0
M  V30 2964 H 290.853 -0.153625 -5.99603 0
M  V30 2965 H 292.532 -0.540363 -6.4474 0
M  V30 2966 N 292.664 1.56529 -0.183458 0
M  V30 2967 C 293.594 2.21549 0.737456 0
M  V30 2968 C 294.575 1.17489 1.23005 0
M  V30 2969 O 295.76 1.45959 1.281 0
M  V30 2970 C 292.89 2.86575 1.96194 0
M  V30 2971 C 291.844 3.96778 1.60473 0
M  V30 2972 C 291.17 4.48911 2.90487 0
M  V30 2973 C 292.47 5.15767 0.823497 0
M  V30 2974 H 294.164 2.98761 0.195453 0
M  V30 2975 H 291.71 1.43702 0.0925686 0
M  V30 2976 H 293.663 3.30739 2.61131 0
M  V30 2977 H 292.387 2.06749 2.52828 0
M  V30 2978 H 291.046 3.53286 0.978997 0
M  V30 2979 H 290.694 3.65862 3.45186 0
M  V30 2980 H 290.394 5.23265 2.67335 0
M  V30 2981 H 291.918 4.95771 3.56432 0
M  V30 2982 H 293.332 5.56549 1.37571 0
M  V30 2983 H 291.729 5.96114 0.690551 0
M  V30 2984 H 292.799 4.84574 -0.177782 0
M  V30 2985 N 294.142 -0.090211 1.57342 0
M  V30 2986 C 295.39 -0.791241 1.85967 0
M  V30 2987 C 295.711 -1.7903 0.772859 0
M  V30 2988 O 294.981 -1.94872 -0.200398 0
M  V30 2989 H 293.561 -0.295205 0.686195 0
M  V30 2990 H 296.223 -0.0706782 1.94772 0
M  V30 2991 H 295.319 -1.31882 2.82867 0
M  V30 2992 N 295.62 -1.53406 -0.361157 0
M  V30 2993 C 296.553 -1.74946 -1.46524 0
M  V30 2994 C 297.531 -0.59795 -1.51206 0
M  V30 2995 O 298.715 -0.831062 -1.69191 0
M  V30 2996 C 295.842 -1.83224 -2.84863 0
M  V30 2997 C 294.888 -3.05233 -2.97885 0
M  V30 2998 S 295.721 -4.6466 -2.66179 0
M  V30 2999 C 296.877 -4.75793 -4.06659 0
M  V30 3000 H 297.11 -2.68319 -1.28033 0
M  V30 3001 H 294.643 -1.44051 -0.555764 0
M  V30 3002 H 296.601 -1.88679 -3.64569 0
M  V30 3003 H 295.262 -0.908948 -3.00661 0
M  V30 3004 H 294.455 -3.07648 -3.9921 0
M  V30 3005 H 294.057 -2.97913 -2.26106 0
M  V30 3006 H 296.349 -4.5612 -5.0096 0
M  V30 3007 H 297.292 -5.7786 -4.09247 0
M  V30 3008 H 297.7 -4.04389 -3.93865 0
M  V30 3009 N 297.098 0.621204 -1.44841 0
M  V30 3010 C 298.061 1.71459 -1.521 0
M  V30 3011 C 299.061 1.55696 -0.401933 0
M  V30 3012 O 300.251 1.61011 -0.664925 0
M  V30 3013 C 297.383 3.10624 -1.40447 0
M  V30 3014 H 298.576 1.66394 -2.49506 0
M  V30 3015 H 296.129 0.835745 -1.3208 0
M  V30 3016 H 296.864 3.21277 -0.441737 0
M  V30 3017 H 296.649 3.23473 -2.21602 0
M  V30 3018 H 298.139 3.90293 -1.4853 0
M  V30 3019 N 298.576 1.31904 0.862503 0
M  V30 3020 C 299.806 1.24817 1.64634 0
M  V30 3021 C 300.214 -0.187579 1.88268 0
M  V30 3022 O 299.557 -1.13253 1.44635 0
M  V30 3023 C 299.619 1.92996 3.03303 0
M  V30 3024 C 299.283 3.42336 3.02746 0
M  V30 3025 C 300.28 4.37956 2.80162 0
M  V30 3026 C 297.965 3.84147 3.2363 0
M  V30 3027 C 299.959 5.73361 2.78453 0
M  V30 3028 C 297.646 5.19663 3.21549 0
M  V30 3029 C 298.644 6.14081 2.98988 0
M  V30 3030 O 298.332 7.47118 2.96766 0
M  V30 3031 H 298.064 0.432222 0.519769 0
M  V30 3032 H 300.618 1.7445 1.08427 0
M  V30 3033 H 298.848 1.37922 3.61268 0
M  V30 3034 H 300.537 1.79723 3.63943 0
M  V30 3035 H 301.303 4.06981 2.63802 0
M  V30 3036 H 297.182 3.11083 3.40218 0
M  V30 3037 H 300.726 6.4703 2.60763 0
M  V30 3038 H 296.623 5.5027 3.37451 0
M  V30 3039 H 297.391 7.56382 3.12775 0
M  V30 3040 N 300.054 -1.07777 1.14986 0
M  V30 3041 C 301.465 -1.61766 0.932127 0
M  V30 3042 C 301.816 -1.88974 -0.527581 0
M  V30 3043 O 300.941 -1.65198 -1.39781 0
M  V30 3044 C 301.536 -2.93891 1.68563 0
M  V30 3045 C 300.095 -3.44639 1.5133 0
M  V30 3046 C 299.242 -2.18767 1.704 0
M  V30 3047 H 302.193 -0.909201 1.30074 0
M  V30 3048 H 302.214 -3.62623 1.15259 0
M  V30 3049 H 301.726 -2.74057 2.74799 0
M  V30 3050 H 299.827 -3.69564 0.474702 0
M  V30 3051 H 299.94 -4.20966 2.28746 0
M  V30 3052 H 298.304 -2.28253 1.13016 0
M  V30 3053 H 299.087 -2.01433 2.77992 0
M  V30 3054 N 301.532 -0.945985 -1.26051 0
M  V30 3055 C 302.948 -0.649045 -1.45807 0
M  V30 3056 C 303.148 0.796158 -1.85104 0
M  V30 3057 O 302.204 1.57233 -1.97571 0
M  V30 3058 C 303.517 -1.61458 -2.53677 0
M  V30 3059 C 305.065 -1.62481 -2.67524 0
M  V30 3060 C 305.54 -2.57776 -3.7857 0
M  V30 3061 N 307.031 -2.5609 -3.85969 0
M  V30 3062 C 307.766 -3.26508 -4.7136 0
M  V30 3063 N 307.262 -4.0637 -5.61102 0
M  V30 3064 N 309.055 -3.15437 -4.65248 0
M  V30 3065 H 301.206 -1.88005 -0.988328 0
M  V30 3066 H 303.469 -0.808198 -0.4955 0
M  V30 3067 H 303.175 -2.64644 -2.31638 0
M  V30 3068 H 303.049 -1.37036 -3.51427 0
M  V30 3069 H 305.436 -0.600167 -2.88933 0
M  V30 3070 H 305.517 -1.90958 -1.70202 0
M  V30 3071 H 305.161 -3.60361 -3.57913 0
M  V30 3072 H 305.091 -2.26587 -4.75359 0
M  V30 3073 H 307.582 -1.98105 -3.21812 0
M  V30 3074 H 307.895 -4.57042 -6.23164 0
M  V30 3075 H 306.24 -4.10469 -5.60839 0
M  V30 3076 H 309.431 -2.52525 -3.94143 0
M  V30 3077 H 309.604 -3.70584 -5.31575 0
M  V30 3078 N 303.011 1.40521 -0.713556 0
M  V30 3079 C 304.26 2.00155 -0.249192 0
M  V30 3080 C 304.573 1.57224 1.16362 0
M  V30 3081 O 305.779 2.09542 1.72639 0
M  V30 3082 C 304.235 3.5773 -0.3946 0
M  V30 3083 C 303.843 4.09635 -1.81392 0
M  V30 3084 C 305.587 4.24499 0.00907364 0
M  V30 3085 C 303.494 5.59707 -1.91003 0
M  V30 3086 H 302.424 0.74868 -0.0894114 0
M  V30 3087 H 305.075 1.60784 -0.884352 0
M  V30 3088 H 303.457 3.94792 0.30911 0
M  V30 3089 H 304.631 3.83955 -2.54785 0
M  V30 3090 H 302.946 3.55456 -2.16888 0
M  V30 3091 H 305.543 5.34683 -0.0420404 0
M  V30 3092 H 305.886 4.02824 1.05065 0
M  V30 3093 H 306.419 3.92536 -0.645007 0
M  V30 3094 H 303.158 5.86234 -2.93275 0
M  V30 3095 H 302.678 5.87258 -1.22019 0
M  V30 3096 H 304.357 6.24776 -1.6812 0
M  V30 3097 N 304.489 0.459591 1.5075 0
M  V30 3098 C 305.714 -0.0996819 2.0716 0
M  V30 3099 C 306.139 -1.33761 1.32249 0
M  V30 3100 O 305.497 -1.77551 0.366786 0
M  V30 3101 C 305.545 -0.378226 3.58611 0
M  V30 3102 O 304.649 -1.46081 3.85661 0
M  V30 3103 H 303.99 0.00791392 0.663953 0
M  V30 3104 H 306.52 0.647329 1.9409 0
M  V30 3105 H 306.53 -0.622135 4.03229 0
M  V30 3106 H 305.205 0.526439 4.12555 0
M  V30 3107 H 303.782 -1.20511 3.5289 0
M  V30 3108 N 305.967 -1.56429 0.191757 0
M  V30 3109 C 307.213 -1.97777 -0.448554 0
M  V30 3110 C 307.546 -1.07847 -1.61501 0
M  V30 3111 O 306.821 -0.129774 -1.94067 0
M  V30 3112 C 307.104 -3.48362 -0.911906 0
M  V30 3113 C 306.957 -4.4907 0.256136 0
M  V30 3114 C 308.276 -4.02561 -1.77857 0
M  V30 3115 H 305.395 -0.719071 -0.161572 0
M  V30 3116 H 308.037 -1.87896 0.282007 0
M  V30 3117 H 306.187 -3.56914 -1.53442 0
M  V30 3118 H 307.859 -4.5256 0.893733 0
M  V30 3119 H 306.102 -4.24181 0.908436 0
M  V30 3120 H 306.773 -5.51889 -0.11053 0
M  V30 3121 H 309.249 -3.96767 -1.25359 0
M  V30 3122 H 308.125 -5.08301 -2.07174 0
M  V30 3123 H 308.386 -3.47616 -2.73158 0
M  V30 3124 N 307.445 0.0818655 -1.57387 0
M  V30 3125 C 308.393 1.11712 -2.04018 0
M  V30 3126 C 309.387 1.40683 -0.94364 0
M  V30 3127 O 310.593 1.40209 -1.12878 0
M  V30 3128 H 306.968 0.377542 -0.650358 0
M  V30 3129 H 308.939 0.697614 -2.90131 0
M  V30 3130 C 307.688 2.42537 -2.49141 0
M  V30 3131 H 307.011 2.21092 -3.33104 0
M  V30 3132 H 308.451 3.13446 -2.85531 0
M  V30 3133 C 306.91 3.0778 -1.37014 0
M  V30 3134 O 307.44 3.95436 -0.706621 0
M  V30 3135 N 305.646 2.68242 -1.11779 0
M  V30 3136 H 305.193 1.97052 -1.65917 0
M  V30 3137 H 305.151 3.1222 -0.369594 0
M  V30 3138 N 308.923 1.53595 0.353017 0
M  V30 3139 C 309.871 1.81605 1.45335 0
M  V30 3140 C 310.865 0.685923 1.54892 0
M  V30 3141 O 312.071 0.869095 1.57628 0
M  V30 3142 H 308.446 0.575204 0.484401 0
M  V30 3143 H 310.417 2.73679 1.18921 0
M  V30 3144 C 309.166 2.03406 2.81995 0
M  V30 3145 H 308.489 2.89814 2.75405 0
M  V30 3146 H 309.929 2.26975 3.58132 0
M  V30 3147 C 308.388 0.816794 3.26849 0
M  V30 3148 O 308.918 0.0115856 4.01698 0
M  V30 3149 N 307.124 0.636682 2.8354 0
M  V30 3150 H 306.671 1.2931 2.22793 0
M  V30 3151 H 306.629 -0.176336 3.13905 0
M  V30 3152 N 310.401 -0.613514 1.45168 0
M  V30 3153 C 311.647 -1.37471 1.49096 0
M  V30 3154 C 311.98 -1.93765 0.129901 0
M  V30 3155 O 311.255 -1.74707 -0.854858 0
M  V30 3156 C 311.538 -2.52701 2.56542 0
M  V30 3157 C 311.391 -2.01643 4.0207 0
M  V30 3158 C 312.71 -3.54849 2.60327 0
M  V30 3159 H 309.829 -0.498502 0.54283 0
M  V30 3160 H 312.471 -0.692125 1.76945 0
M  V30 3161 H 310.621 -3.10931 2.32926 0
M  V30 3162 H 312.293 -1.48108 4.36877 0
M  V30 3163 H 310.536 -1.32688 4.13009 0
M  V30 3164 H 311.207 -2.84681 4.72928 0
M  V30 3165 H 313.683 -3.0645 2.81474 0
M  V30 3166 H 312.559 -4.32973 3.37381 0
M  V30 3167 H 312.82 -4.10079 1.6519 0
M  V30 3168 N 311.879 -1.3236 -0.855495 0
M  V30 3169 C 312.809 -1.23833 -1.97958 0
M  V30 3170 C 313.79 -0.122361 -1.69659 0
M  V30 3171 O 314.975 -0.30939 -1.9172 0
M  V30 3172 C 312.105 -0.959772 -3.33775 0
M  V30 3173 C 311.059 -2.03689 -3.76424 0
M  V30 3174 C 310.385 -1.61075 -5.09862 0
M  V30 3175 C 311.685 -3.4518 -3.9198 0
M  V30 3176 H 313.379 -2.1788 -2.0535 0
M  V30 3177 H 310.925 -1.04891 -0.986605 0
M  V30 3178 H 312.878 -0.886678 -4.11966 0
M  V30 3179 H 311.602 0.0163404 -3.26596 0
M  V30 3180 H 310.261 -2.10012 -3.00484 0
M  V30 3181 H 309.909 -0.622107 -4.99138 0
M  V30 3182 H 309.609 -2.33143 -5.39368 0
M  V30 3183 H 311.133 -1.55201 -5.90546 0
M  V30 3184 H 312.547 -3.4145 -4.60526 0
M  V30 3185 H 310.944 -4.1559 -4.32903 0
M  V30 3186 H 312.014 -3.84903 -2.94919 0
M  V30 3187 N 313.357 1.07166 -1.15556 0
M  V30 3188 C 314.768 1.6127 -0.940693 0
M  V30 3189 C 315.119 1.89251 0.517551 0
M  V30 3190 O 314.244 1.65937 1.38903 0
M  V30 3191 C 314.839 2.92993 -1.7012 0
M  V30 3192 C 313.398 3.43832 -1.53156 0
M  V30 3193 C 312.545 2.1786 -1.71558 0
M  V30 3194 H 315.496 0.90229 -1.30554 0
M  V30 3195 H 315.517 3.62007 -1.17181 0
M  V30 3196 H 315.029 2.72596 -2.76248 0
M  V30 3197 H 313.13 3.69307 -0.494294 0
M  V30 3198 H 313.243 4.19747 -2.30975 0
M  V30 3199 H 311.607 2.2765 -1.14225 0
M  V30 3200 H 312.39 1.99956 -2.79056 0
M  V30 3201 N 314.835 0.952656 1.25548 0
M  V30 3202 C 316.081 0.607272 1.93494 0
M  V30 3203 C 316.414 -0.853245 1.74452 0
M  V30 3204 O 315.689 -1.61194 1.08843 0
M  V30 3205 C 315.972 0.96435 3.46947 0
M  V30 3206 C 315.825 2.48045 3.75225 0
M  V30 3207 C 317.144 0.487987 4.37386 0
M  V30 3208 H 314.263 0.222096 0.702739 0
M  V30 3209 H 316.905 1.18895 1.48203 0
M  V30 3210 H 315.055 0.469361 3.85654 0
M  V30 3211 H 316.727 3.04905 3.46166 0
M  V30 3212 H 314.97 2.919 3.209 0
M  V30 3213 H 315.641 2.6808 4.82532 0
M  V30 3214 H 318.117 0.912558 4.0597 0
M  V30 3215 H 316.993 0.766547 5.43521 0
M  V30 3216 H 317.254 -0.612063 4.37843 0
M  V30 3217 N 316.313 -1.40141 0.720998 0
M  V30 3218 C 317.56 -2.00787 0.262842 0
M  V30 3219 C 317.888 -1.5718 -1.14563 0
M  V30 3220 O 317.143 -0.785391 -1.79249 0
M  V30 3221 C 317.442 -3.56165 0.296892 0
M  V30 3222 C 317.108 -4.19373 1.65641 0
M  V30 3223 C 315.77 -4.36352 2.02855 0
M  V30 3224 C 318.122 -4.54578 2.54968 0
M  V30 3225 C 315.45 -4.8582 3.28931 0
M  V30 3226 C 317.802 -5.05447 3.80402 0
M  V30 3227 C 316.466 -5.20635 4.17726 0
M  V30 3228 H 315.736 -0.734731 0.0961807 0
M  V30 3229 H 318.383 -1.67673 0.925093 0
M  V30 3230 H 316.688 -3.8922 -0.448932 0
M  V30 3231 H 318.385 -4.00929 -0.0755208 0
M  V30 3232 H 314.975 -4.06549 1.35704 0
M  V30 3233 H 319.159 -4.41091 2.27491 0
M  V30 3234 H 314.415 -4.95764 3.57811 0
M  V30 3235 H 318.589 -5.31663 4.49786 0
M  V30 3236 H 316.216 -5.58728 5.15487 0
M  V30 3237 N 317.792 -0.46758 -1.50504 0
M  V30 3238 C 319.069 0.15003 -1.95024 0
M  V30 3239 C 319.449 1.57304 -1.40779 0
M  V30 3240 O 318.797 2.20281 -0.607319 0
M  V30 3241 C 319.007 0.0969324 -3.48865 0
M  V30 3242 C 320.355 0.287565 -4.23625 0
M  V30 3243 O 321.379 0.173678 -3.55776 0
M  V30 3244 O 320.238 0.517186 -5.44047 0
M  V30 3245 H 317.332 0.113582 -0.819163 0
M  V30 3246 H 319.878 -0.52773 -1.61286 0
M  V30 3247 H 318.65 -0.896732 -3.80886 0
M  V30 3248 H 318.273 0.816303 -3.8913 0
M  V30 3249 N 319.27 1.56325 -0.20005 0
M  V30 3250 C 320.218 2.20666 0.735482 0
M  V30 3251 C 321.212 1.17934 1.21605 0
M  V30 3252 O 322.418 1.36068 1.17837 0
M  V30 3253 H 318.793 0.70725 0.255542 0
M  V30 3254 H 320.764 2.9792 0.169166 0
M  V30 3255 C 319.513 2.88391 1.94232 0
M  V30 3256 H 318.836 3.67185 1.58161 0
M  V30 3257 H 320.276 3.3684 2.57517 0
M  V30 3258 C 318.735 1.89692 2.78421 0
M  V30 3259 O 319.265 1.40032 3.76502 0
M  V30 3260 N 317.471 1.57813 2.44015 0
M  V30 3261 H 317.018 1.9839 1.64314 0
M  V30 3262 H 316.976 0.920325 3.00628 0
M  V30 3263 N 320.748 -0.0735177 1.57428 0
M  V30 3264 C 321.678 -1.0879 2.06608 0
M  V30 3265 C 322.659 -1.40473 0.959237 0
M  V30 3266 O 323.844 -1.5013 1.23185 0
M  V30 3267 C 320.974 -2.40183 2.50857 0
M  V30 3268 C 319.928 -2.22858 3.65402 0
M  V30 3269 C 319.254 -3.59619 3.957 0
M  V30 3270 C 320.554 -1.65123 4.95511 0
M  V30 3271 H 322.248 -0.678673 2.91607 0
M  V30 3272 H 319.794 -0.325013 1.40284 0
M  V30 3273 H 321.747 -3.11437 2.83874 0
M  V30 3274 H 320.471 -2.83083 1.62885 0
M  V30 3275 H 319.13 -1.54045 3.32664 0
M  V30 3276 H 318.778 -4.00086 3.04861 0
M  V30 3277 H 318.478 -3.48866 4.72828 0
M  V30 3278 H 320.002 -4.32306 4.31212 0
M  V30 3279 H 321.416 -2.26241 5.26771 0
M  V30 3280 H 319.813 -1.65071 5.7695 0
M  V30 3281 H 320.883 -0.612559 4.81015 0
M  V30 3282 N 322.226 -1.5378 -0.344866 0
M  V30 3283 C 323.159 -1.7649 -1.4466 0
M  V30 3284 C 324.137 -0.613954 -1.50563 0
M  V30 3285 O 325.321 -0.84896 -1.683 0
M  V30 3286 C 322.448 -1.86235 -2.82903 0
M  V30 3287 C 321.494 -3.08375 -2.94631 0
M  V30 3288 S 322.327 -4.67457 -2.61236 0
M  V30 3289 C 323.483 -4.80079 -4.0159 0
M  V30 3290 H 323.716 -2.69661 -1.2518 0
M  V30 3291 H 321.249 -1.44632 -0.540455 0
M  V30 3292 H 323.207 -1.92535 -3.62547 0
M  V30 3293 H 321.868 -0.940786 -2.9968 0
M  V30 3294 H 321.061 -3.11865 -3.95925 0
M  V30 3295 H 320.663 -3.00294 -2.22934 0
M  V30 3296 H 322.955 -4.61407 -4.96094 0
M  V30 3297 H 323.898 -5.82168 -4.03095 0
M  V30 3298 H 324.306 -4.08544 -3.89554 0
M  V30 3299 N 323.704 0.605807 -1.45491 0
M  V30 3300 C 324.636 1.73031 -1.5031 0
M  V30 3301 C 325.649 1.57968 -0.393687 0
M  V30 3302 O 326.838 1.65817 -0.660839 0
M  V30 3303 C 323.938 3.11049 -1.34543 0
M  V30 3304 C 323.111 3.52334 -2.59189 0
M  V30 3305 C 322.17 4.69323 -2.37954 0
M  V30 3306 O 321.196 4.7635 -3.11575 0
M  V30 3307 N 322.398 5.62705 -1.4263 0
M  V30 3308 H 325.163 1.6936 -2.4726 0
M  V30 3309 H 322.724 0.79114 -1.41254 0
M  V30 3310 H 324.716 3.87071 -1.18144 0
M  V30 3311 H 323.286 3.09217 -0.458623 0
M  V30 3312 H 322.506 2.66256 -2.90691 0
M  V30 3313 H 323.794 3.76677 -3.42041 0
M  V30 3314 H 323.192 5.59744 -0.818758 0
M  V30 3315 H 321.749 6.38252 -1.32202 0
M  V30 3316 N 325.182 1.32811 0.848464 0
M  V30 3317 C 326.114 1.18095 1.96433 0
M  V30 3318 C 327.127 0.114354 1.62398 0
M  V30 3319 O 328.316 0.363892 1.74751 0
M  V30 3320 C 325.416 0.786798 3.2964 0
M  V30 3321 C 324.589 1.943 3.91875 0
M  V30 3322 C 323.648 1.53138 5.03423 0
M  V30 3323 O 322.674 2.24432 5.23086 0
M  V30 3324 N 323.876 0.430915 5.78898 0
M  V30 3325 H 326.641 2.14218 2.09597 0
M  V30 3326 H 324.202 1.2543 1.02367 0
M  V30 3327 H 326.194 0.493715 4.01677 0
M  V30 3328 H 324.764 -0.0834541 3.12489 0
M  V30 3329 H 323.984 2.40224 3.12547 0
M  V30 3330 H 325.272 2.71689 4.30189 0
M  V30 3331 H 324.67 -0.162333 5.65467 0
M  V30 3332 H 323.227 0.197466 6.51501 0
M  V30 3333 N 326.66 -1.06551 1.16123 0
M  V30 3334 C 327.607 -2.13961 0.865414 0
M  V30 3335 C 328.577 -1.65066 -0.185055 0
M  V30 3336 O 329.762 -1.90732 -0.05083 0
M  V30 3337 C 326.902 -3.43113 0.369776 0
M  V30 3338 C 326.015 -4.05756 1.48276 0
M  V30 3339 C 325.15 -5.22773 0.942414 0
M  V30 3340 C 324.189 -5.77395 2.03179 0
M  V30 3341 N 323.326 -6.85731 1.50721 0
M  V30 3342 H 328.166 -2.38605 1.78527 0
M  V30 3343 H 325.703 -1.17072 0.890646 0
M  V30 3344 H 327.661 -4.17151 0.0640643 0
M  V30 3345 H 326.291 -3.18695 -0.513143 0
M  V30 3346 H 325.343 -3.29292 1.9045 0
M  V30 3347 H 326.655 -4.42351 2.30493 0
M  V30 3348 H 325.809 -6.03827 0.589729 0
M  V30 3349 H 324.548 -4.87618 0.0895191 0
M  V30 3350 H 323.553 -4.94981 2.3932 0
M  V30 3351 H 324.778 -6.14603 2.8886 0
M  V30 3352 H 322.724 -6.52499 0.676811 0
M  V30 3353 H 322.641 -7.21254 2.26557 0
M  V30 3354 H 323.909 -7.7047 1.18303 0
M  V30 3355 N 328.138 -0.959301 -1.25041 0
M  V30 3356 C 329.068 -0.501388 -2.28053 0
M  V30 3357 C 330.049 0.454673 -1.63911 0
M  V30 3358 O 331.234 0.352618 -1.90972 0
M  V30 3359 C 328.364 0.217224 -3.4662 0
M  V30 3360 C 327.318 -0.654034 -4.22973 0
M  V30 3361 C 326.644 0.195589 -5.34342 0
M  V30 3362 C 327.944 -1.93447 -4.85155 0
M  V30 3363 H 329.638 -1.36238 -2.66608 0
M  V30 3364 H 327.184 -0.656534 -1.28163 0
M  V30 3365 H 329.137 0.548732 -4.17812 0
M  V30 3366 H 327.861 1.1125 -3.07068 0
M  V30 3367 H 326.52 -0.968693 -3.5357 0
M  V30 3368 H 326.168 1.09076 -4.91031 0
M  V30 3369 H 325.868 -0.384091 -5.86343 0
M  V30 3370 H 327.392 0.521958 -6.08365 0
M  V30 3371 H 328.806 -1.66908 -5.48466 0
M  V30 3372 H 327.203 -2.46018 -5.47353 0
M  V30 3373 H 328.273 -2.63466 -4.07079 0
M  V30 3374 N 329.616 1.39756 -0.72842 0
M  V30 3375 C 330.862 2.00942 -0.273892 0
M  V30 3376 C 331.195 1.57656 1.13394 0
M  V30 3377 O 330.47 0.802434 1.77176 0
M  V30 3378 C 330.753 3.58211 -0.368346 0
M  V30 3379 C 330.606 4.11534 -1.81548 0
M  V30 3380 C 331.925 4.39372 0.253054 0
M  V30 3381 H 329.044 0.730047 -0.100996 0
M  V30 3382 H 331.686 1.66056 -0.923337 0
M  V30 3383 H 329.836 3.88061 0.184588 0
M  V30 3384 H 331.508 3.92431 -2.42478 0
M  V30 3385 H 329.751 3.65341 -2.33898 0
M  V30 3386 H 330.422 5.20682 -1.83288 0
M  V30 3387 H 332.898 4.15527 -0.218224 0
M  V30 3388 H 331.774 5.48677 0.156585 0
M  V30 3389 H 332.035 4.21358 1.33826 0
M  V30 3390 N 331.094 0.475555 1.50254 0
M  V30 3391 C 332.371 -0.139685 1.95101 0
M  V30 3392 C 332.751 -1.56555 1.41611 0
M  V30 3393 O 332.099 -2.19956 0.618993 0
M  V30 3394 C 332.309 -0.0784298 3.48912 0
M  V30 3395 C 333.657 -0.265095 4.23772 0
M  V30 3396 O 334.681 -0.154808 3.55863 0
M  V30 3397 O 333.54 -0.488327 5.44314 0
M  V30 3398 H 330.634 -0.109236 0.819754 0
M  V30 3399 H 333.18 0.536276 1.61004 0
M  V30 3400 H 331.952 0.916918 3.80405 0
M  V30 3401 H 331.575 -0.795655 3.89558 0
M  V30 3402 N 332.573 -1.56217 0.208337 0
M  V30 3403 C 333.505 -2.1695 -0.739276 0
M  V30 3404 C 334.518 -1.13492 -1.1672 0
M  V30 3405 O 335.707 -1.40529 -1.10063 0
M  V30 3406 C 332.807 -2.72755 -2.01142 0
M  V30 3407 C 331.98 -4.0125 -1.74118 0
M  V30 3408 C 331.039 -4.41749 -2.85909 0
M  V30 3409 O 330.065 -5.08912 -2.54946 0
M  V30 3410 N 331.267 -4.06342 -4.14568 0
M  V30 3411 H 334.032 -2.98893 -0.219837 0
M  V30 3412 H 331.593 -1.61878 0.0268445 0
M  V30 3413 H 333.585 -2.96826 -2.75094 0
M  V30 3414 H 332.155 -1.95191 -2.4417 0
M  V30 3415 H 331.375 -3.85173 -0.838775 0
M  V30 3416 H 332.663 -4.851 -1.53477 0
M  V30 3417 H 332.061 -3.52345 -4.42571 0
M  V30 3418 H 330.618 -4.35335 -4.85105 0
M  V30 3419 N 334.051 0.0651679 -1.57465 0
M  V30 3420 C 334.999 1.09542 -2.05191 0
M  V30 3421 C 335.993 1.39675 -0.958509 0
M  V30 3422 O 337.199 1.39003 -1.14359 0
M  V30 3423 H 333.574 0.370623 -0.654326 0
M  V30 3424 H 335.545 0.666802 -2.90854 0
M  V30 3425 C 334.294 2.39881 -2.51699 0
M  V30 3426 H 333.617 2.17547 -3.3543 0
M  V30 3427 H 335.057 3.104 -2.88839 0
M  V30 3428 C 333.516 3.0631 -1.40271 0
M  V30 3429 O 334.046 3.94664 -0.748523 0
M  V30 3430 N 332.252 2.67041 -1.14618 0
M  V30 3431 H 331.799 1.95281 -1.67997 0
M  V30 3432 H 331.757 3.1181 -0.402688 0
M  V30 3433 N 335.529 1.53961 0.336706 0
M  V30 3434 C 336.778 1.70751 1.07363 0
M  V30 3435 C 337.091 0.481061 1.89592 0
M  V30 3436 O 338.297 0.530046 2.66276 0
M  V30 3437 C 336.753 3.01965 1.95818 0
M  V30 3438 C 336.361 4.31971 1.18764 0
M  V30 3439 C 338.105 3.28121 2.69327 0
M  V30 3440 C 336.012 5.54255 2.06289 0
M  V30 3441 H 334.942 0.636292 0.404535 0
M  V30 3442 H 337.593 1.80459 0.332681 0
M  V30 3443 H 335.975 2.86132 2.7376 0
M  V30 3444 H 337.149 4.5853 0.456849 0
M  V30 3445 H 335.464 4.12481 0.569946 0
M  V30 3446 H 338.061 4.16673 3.35094 0
M  V30 3447 H 338.404 2.45426 3.36261 0
M  V30 3448 H 338.937 3.44762 1.98454 0
M  V30 3449 H 335.676 6.39513 1.43885 0
M  V30 3450 H 335.196 5.31935 2.77138 0
M  V30 3451 H 336.875 5.90159 2.65182 0
M  V30 3452 N 337.007 -0.598083 1.45811 0
M  V30 3453 C 338.254 -1.35681 1.50323 0
M  V30 3454 C 338.582 -1.9393 0.148739 0
M  V30 3455 O 337.837 -1.76094 -0.853787 0
M  V30 3456 C 338.136 -2.51669 2.53766 0
M  V30 3457 C 337.802 -2.11508 3.98215 0
M  V30 3458 C 336.464 -2.0027 4.37545 0
M  V30 3459 C 338.816 -1.80308 4.89018 0
M  V30 3460 C 336.144 -1.56067 5.65562 0
M  V30 3461 C 338.496 -1.37589 6.17456 0
M  V30 3462 C 337.16 -1.24916 6.55708 0
M  V30 3463 H 336.43 -0.496492 0.550069 0
M  V30 3464 H 339.077 -0.675052 1.79207 0
M  V30 3465 H 337.382 -3.25225 2.18486 0
M  V30 3466 H 339.079 -3.09895 2.54492 0
M  V30 3467 H 335.669 -2.21185 3.67117 0
M  V30 3468 H 339.853 -1.87884 4.59362 0
M  V30 3469 H 335.109 -1.44886 5.93985 0
M  V30 3470 H 339.283 -1.12495 6.87254 0
M  V30 3471 H 336.91 -0.904386 7.54801 0
M  V30 3472 N 338.485 -1.33259 -0.841409 0
M  V30 3473 C 339.71 -1.2775 -1.63385 0
M  V30 3474 C 340.135 0.149188 -1.87507 0
M  V30 3475 O 339.493 1.10498 -1.43736 0
M  V30 3476 C 339.541 -2.05571 -2.96265 0
M  V30 3477 O 338.645 -1.41257 -3.87453 0
M  V30 3478 H 337.986 -0.439627 -0.497618 0
M  V30 3479 H 340.516 -1.75782 -1.04699 0
M  V30 3480 H 340.526 -2.16241 -3.45982 0
M  V30 3481 H 339.201 -3.09309 -2.7803 0
M  V30 3482 H 337.778 -1.39217 -3.45938 0
M  V30 3483 N 339.963 1.05934 -1.16686 0
M  V30 3484 C 341.21 1.788 -0.950622 0
M  V30 3485 C 341.538 1.87384 0.521305 0
M  V30 3486 O 340.793 1.36438 1.40297 0
M  V30 3487 C 341.092 3.23105 -1.52767 0
M  V30 3488 C 340.758 3.34594 -3.02254 0
M  V30 3489 C 339.42 3.37437 -3.43059 0
M  V30 3490 C 341.772 3.36219 -3.98254 0
M  V30 3491 C 339.1 3.39525 -4.78477 0
M  V30 3492 C 341.452 3.39845 -5.33562 0
M  V30 3493 C 340.116 3.40971 -5.73842 0
M  V30 3494 H 339.386 0.654275 -0.347857 0
M  V30 3495 H 342.033 1.24555 -1.45459 0
M  V30 3496 H 340.338 3.80227 -0.94524 0
M  V30 3497 H 342.035 3.7809 -1.336 0
M  V30 3498 H 338.625 3.3309 -2.6972 0
M  V30 3499 H 342.809 3.33231 -3.67792 0
M  V30 3500 H 338.065 3.38703 -5.09009 0
M  V30 3501 H 342.239 3.4005 -6.07733 0
M  V30 3502 H 339.866 3.42342 -6.78753 0
M  V30 3503 N 341.441 0.965919 1.2453 0
M  V30 3504 C 342.671 0.643451 1.96324 0
M  V30 3505 C 343.079 -0.790927 1.71875 0
M  V30 3506 O 342.422 -1.54208 0.998273 0
M  V30 3507 C 342.484 0.836078 3.49643 0
M  V30 3508 C 342.148 2.24975 3.97788 0
M  V30 3509 C 343.145 3.22735 4.07601 0
M  V30 3510 C 340.83 2.57697 4.31158 0
M  V30 3511 C 342.824 4.51303 4.50116 0
M  V30 3512 C 340.511 3.86492 4.73357 0
M  V30 3513 C 341.509 4.83107 4.828 0
M  V30 3514 O 341.197 6.09605 5.24058 0
M  V30 3515 H 340.929 0.239223 0.632257 0
M  V30 3516 H 343.483 1.29587 1.59362 0
M  V30 3517 H 341.713 0.12649 3.86493 0
M  V30 3518 H 343.402 0.512965 4.02646 0
M  V30 3519 H 344.168 2.98783 3.82039 0
M  V30 3520 H 340.047 1.83216 4.23028 0
M  V30 3521 H 343.591 5.26716 4.57401 0
M  V30 3522 H 339.488 4.10245 4.98366 0
M  V30 3523 H 340.256 6.13146 5.42213 0
M  V30 3524 N 342.919 -1.39368 0.735821 0
M  V30 3525 C 343.849 -2.33234 0.111506 0
M  V30 3526 C 344.83 -1.53954 -0.723334 0
M  V30 3527 O 346.015 -1.82344 -0.668147 0
M  V30 3528 C 343.145 -3.38057 -0.795917 0
M  V30 3529 C 342.099 -4.2795 -0.065172 0
M  V30 3530 C 341.425 -5.23479 -1.08967 0
M  V30 3531 C 342.725 -5.10741 1.09273 0
M  V30 3532 H 344.419 -2.85692 0.895571 0
M  V30 3533 H 341.965 -1.37364 0.432109 0
M  V30 3534 H 343.918 -4.02675 -1.24221 0
M  V30 3535 H 342.642 -2.8404 -1.61211 0
M  V30 3536 H 341.301 -3.64813 0.361511 0
M  V30 3537 H 340.949 -4.65758 -1.89944 0
M  V30 3538 H 340.649 -5.84472 -0.605489 0
M  V30 3539 H 342.173 -5.90974 -1.53565 0
M  V30 3540 H 343.587 -5.68699 0.724841 0
M  V30 3541 H 341.984 -5.8088 1.50659 0
M  V30 3542 H 343.054 -4.45525 1.91404 0
M  V30 3543 N 344.397 -0.483516 -1.5 0
M  V30 3544 C 345.622 0.0667119 -2.07293 0
M  V30 3545 C 346.047 1.3164 -1.3436 0
M  V30 3546 O 345.405 1.76945 -0.394987 0
M  V30 3547 C 345.453 0.321126 -3.59167 0
M  V30 3548 O 344.557 1.39927 -3.87936 0
M  V30 3549 H 343.898 -0.0184758 -0.663743 0
M  V30 3550 H 346.428 -0.678125 -1.93035 0
M  V30 3551 H 346.438 0.557906 -4.04168 0
M  V30 3552 H 345.113 -0.592007 -4.11665 0
M  V30 3553 H 343.69 1.14882 -3.54763 0
M  V30 3554 N 345.875 1.56104 -0.216619 0
M  V30 3555 C 347.291 1.58995 0.13886 0
M  V30 3556 C 347.491 1.23333 1.59346 0
M  V30 3557 O 346.547 0.966234 2.33281 0
M  V30 3558 C 347.86 3.00143 -0.182968 0
M  V30 3559 C 349.408 3.12751 -0.124807 0
M  V30 3560 C 349.883 4.56068 -0.420241 0
M  V30 3561 N 351.374 4.61723 -0.369634 0
M  V30 3562 C 352.109 5.70542 -0.571789 0
M  V30 3563 N 351.605 6.87744 -0.835453 0
M  V30 3564 N 353.398 5.59831 -0.504563 0
M  V30 3565 H 345.549 1.77562 -1.16557 0
M  V30 3566 H 347.812 0.825091 -0.466828 0
M  V30 3567 H 347.518 3.30871 -1.19237 0
M  V30 3568 H 347.392 3.73813 0.504367 0
M  V30 3569 H 349.779 2.81822 0.875223 0
M  V30 3570 H 349.86 2.41421 -0.845544 0
M  V30 3571 H 349.504 4.87713 -1.41769 0
M  V30 3572 H 349.434 5.25617 0.321631 0
M  V30 3573 H 351.925 3.77502 -0.173338 0
M  V30 3574 H 352.238 7.66587 -0.977938 0
M  V30 3575 H 350.583 6.895 -0.872592 0
M  V30 3576 H 353.774 4.67145 -0.298842 0
M  V30 3577 H 353.947 6.44573 -0.665519 0
M  V30 3578 N 347.353 -0.0568162 1.57498 0
M  V30 3579 C 348.63 -0.786954 1.79071 0
M  V30 3580 C 349.01 -1.95028 0.80792 0
M  V30 3581 O 348.358 -2.27968 -0.155858 0
M  V30 3582 C 348.568 -1.24594 3.26002 0
M  V30 3583 C 349.916 -1.67323 3.90241 0
M  V30 3584 O 350.94 -1.34124 3.29984 0
M  V30 3585 O 349.799 -2.28842 4.9628 0
M  V30 3586 H 346.893 -0.378262 0.735423 0
M  V30 3587 H 349.439 -0.035734 1.69662 0
M  V30 3588 H 348.211 -0.41423 3.89101 0
M  V30 3589 H 347.834 -2.05803 3.40192 0
M  V30 3590 N 348.832 -1.54138 -0.328536 0
M  V30 3591 C 350.243 -1.63395 -0.903272 0
M  V30 3592 C 350.594 -0.524828 -1.8905 0
M  V30 3593 O 349.719 0.343068 -2.13663 0
M  V30 3594 C 350.314 -2.9618 -1.64507 0
M  V30 3595 C 348.873 -3.0765 -2.1686 0
M  V30 3596 C 348.02 -2.58933 -0.992416 0
M  V30 3597 H 350.971 -1.58344 -0.106253 0
M  V30 3598 H 350.992 -2.86061 -2.50897 0
M  V30 3599 H 350.504 -3.76884 -0.926302 0
M  V30 3600 H 348.605 -2.31611 -2.91868 0
M  V30 3601 H 348.718 -4.1337 -2.42202 0
M  V30 3602 H 347.082 -2.14706 -1.37016 0
M  V30 3603 H 347.865 -3.42089 -0.288041 0
M  V30 3604 N 350.31 0.590341 -1.46126 0
M  V30 3605 C 351.587 1.35029 -1.41515 0
M  V30 3606 C 351.967 2.10888 -0.0946472 0
M  V30 3607 O 351.315 2.08998 0.923693 0
M  V30 3608 C 351.525 2.28269 -2.63997 0
M  V30 3609 C 352.873 2.90338 -3.09821 0
M  V30 3610 O 353.897 2.38585 -2.64492 0
M  V30 3611 O 352.756 3.84321 -3.88535 0
M  V30 3612 H 349.85 0.606317 -0.562413 0
M  V30 3613 H 352.396 0.611994 -1.58281 0
M  V30 3614 H 351.168 1.71591 -3.51671 0
M  V30 3615 H 350.791 3.0945 -2.49652 0
M  V30 3616 N 351.788 1.33704 0.83433 0
M  V30 3617 C 352.751 1.24244 1.92603 0
M  V30 3618 C 353.751 0.160383 1.59998 0
M  V30 3619 O 354.941 0.412228 1.69252 0
M  V30 3620 C 352.073 0.91555 3.28376 0
M  V30 3621 H 353.266 2.21287 2.02416 0
M  V30 3622 H 350.819 1.17827 1.02696 0
M  V30 3623 H 351.554 -0.0521886 3.24258 0
M  V30 3624 H 351.339 1.69811 3.53422 0
M  V30 3625 H 352.829 0.874231 4.08347 0
M  V30 3626 N 353.266 -1.05314 1.17247 0
M  V30 3627 C 354.198 -2.13023 0.845812 0
M  V30 3628 C 355.211 -1.62096 -0.151246 0
M  V30 3629 O 356.4 -1.78343 0.0748818 0
M  V30 3630 C 353.5 -3.38047 0.240292 0
M  V30 3631 C 352.673 -4.18255 1.27991 0
M  V30 3632 C 351.732 -5.21625 0.692375 0
M  V30 3633 O 350.758 -5.52619 1.36385 0
M  V30 3634 N 351.96 -5.78201 -0.516178 0
M  V30 3635 H 354.725 -2.41642 1.77283 0
M  V30 3636 H 352.286 -1.21401 1.07115 0
M  V30 3637 H 354.278 -4.04359 -0.16603 0
M  V30 3638 H 352.848 -3.06972 -0.590487 0
M  V30 3639 H 352.068 -3.47451 1.86203 0
M  V30 3640 H 353.356 -4.68643 1.98119 0
M  V30 3641 H 352.754 -5.55301 -1.07969 0
M  V30 3642 H 351.311 -6.4604 -0.86458 0
M  V30 3643 N 354.744 -0.972509 -1.24016 0
M  V30 3644 C 356.155 -0.67517 -1.74064 0
M  V30 3645 C 356.506 0.808939 -1.78747 0
M  V30 3646 O 355.631 1.63286 -1.42009 0
M  V30 3647 C 356.226 -1.21889 -3.16115 0
M  V30 3648 C 354.785 -0.971358 -3.6365 0
M  V30 3649 C 353.932 -1.35134 -2.42145 0
M  V30 3650 H 356.883 -1.14727 -1.09651 0
M  V30 3651 H 356.904 -0.587489 -3.75937 0
M  V30 3652 H 356.416 -2.29906 -3.12674 0
M  V30 3653 H 354.517 0.0930686 -3.72484 0
M  V30 3654 H 354.63 -1.62039 -4.50866 0
M  V30 3655 H 352.994 -0.769751 -2.4279 0
M  V30 3656 H 353.777 -2.4411 -2.41381 0
M  V30 3657 N 356.222 1.38976 -0.743202 0
M  V30 3658 C 357.47 1.99948 -0.29417 0
M  V30 3659 C 357.791 1.59279 1.12495 0
M  V30 3660 O 357.061 0.844808 1.76748 0
M  V30 3661 H 355.641 0.739473 -0.105774 0
M  V30 3662 H 358.303 1.699 -0.954986 0
M  V30 3663 H 357.399 3.10142 -0.349056 0
M  V30 3664 N 357.7 0.491464 1.49741 0
M  V30 3665 C 358.948 -0.0563141 2.02022 0
M  V30 3666 C 359.269 -1.38363 1.37407 0
M  V30 3667 O 358.539 -1.88702 0.526166 0
M  V30 3668 H 357.119 -0.0238014 0.746621 0
M  V30 3669 H 359.781 0.646533 1.83864 0
M  V30 3670 H 358.877 -0.192967 3.11503 0
M  V30 3671 N 359.178 -1.55987 0.224894 0
M  V30 3672 C 360.088 -2.24066 -0.69511 0
M  V30 3673 C 361.104 -1.24939 -1.21104 0
M  V30 3674 O 362.28 -1.5776 -1.25195 0
M  V30 3675 C 359.345 -2.90983 -1.88493 0
M  V30 3676 C 358.406 -4.05462 -1.41064 0
M  V30 3677 C 357.639 -4.69179 -2.54375 0
M  V30 3678 O 357.862 -4.31895 -3.72589 0
M  V30 3679 O 356.796 -5.58108 -2.25386 0
M  V30 3680 H 360.622 -3.03353 -0.145149 0
M  V30 3681 H 358.207 -1.49399 -0.00569476 0
M  V30 3682 H 360.089 -3.33209 -2.57972 0
M  V30 3683 H 358.764 -2.14653 -2.42293 0
M  V30 3684 H 357.671 -3.67798 -0.683774 0
M  V30 3685 H 359.004 -4.83545 -0.918985 0
M  V30 3686 N 360.656 0.0484629 -1.57525 0
M  V30 3687 C 361.586 1.0549 -2.08313 0
M  V30 3688 C 362.567 1.38929 -0.981463 0
M  V30 3689 O 363.752 1.48151 -1.25558 0
M  V30 3690 C 360.882 2.36162 -2.54646 0
M  V30 3691 C 359.836 2.17016 -3.68901 0
M  V30 3692 C 359.162 3.53278 -4.01371 0
M  V30 3693 C 360.462 1.57219 -4.98076 0
M  V30 3694 H 362.156 0.632195 -2.92649 0
M  V30 3695 H 359.702 0.302654 -1.40784 0
M  V30 3696 H 361.655 3.06882 -2.88793 0
M  V30 3697 H 360.379 2.80456 -1.67368 0
M  V30 3698 H 359.038 1.48733 -3.35073 0
M  V30 3699 H 358.686 3.95185 -3.11188 0
M  V30 3700 H 358.386 3.41299 -4.78318 0
M  V30 3701 H 359.91 4.25391 -4.38035 0
M  V30 3702 H 361.324 2.17832 -5.30304 0
M  V30 3703 H 359.721 1.55871 -5.79503 0
M  V30 3704 H 360.791 0.535956 -4.81929 0
M  V30 3705 N 362.134 1.5431 0.320358 0
M  V30 3706 C 363.067 1.78769 1.41834 0
M  V30 3707 C 364.045 0.63783 1.49568 0
M  V30 3708 O 365.229 0.875628 1.66928 0
M  V30 3709 C 362.356 1.90712 2.79905 0
M  V30 3710 C 361.402 3.13023 2.89687 0
M  V30 3711 S 362.235 4.71554 2.53766 0
M  V30 3712 C 363.391 4.86408 3.93902 0
M  V30 3713 H 363.624 2.71619 1.20874 0
M  V30 3714 H 361.157 1.45474 0.517377 0
M  V30 3715 H 363.115 1.98279 3.59438 0
M  V30 3716 H 361.776 0.988343 2.98145 0
M  V30 3717 H 360.969 3.18124 3.90913 0
M  V30 3718 H 360.571 3.03803 2.18128 0
M  V30 3719 H 362.863 4.69241 4.88691 0
M  V30 3720 H 363.806 5.88508 3.93782 0
M  V30 3721 H 364.214 4.14689 3.83005 0
M  V30 3722 N 363.613 -0.582584 1.46437 0
M  V30 3723 C 364.543 -1.70187 1.59871 0
M  V30 3724 C 365.524 -1.64066 0.449042 0
M  V30 3725 O 366.709 -1.82081 0.6753 0
M  V30 3726 C 363.839 -3.08827 1.58881 0
M  V30 3727 C 362.793 -3.29779 2.72819 0
M  V30 3728 C 362.119 -4.68947 2.5689 0
M  V30 3729 C 363.419 -3.17601 4.1464 0
M  V30 3730 H 365.113 -1.592 2.53566 0
M  V30 3731 H 362.659 -0.764472 1.22032 0
M  V30 3732 H 364.612 -3.86951 1.66873 0
M  V30 3733 H 363.336 -3.20713 0.617306 0
M  V30 3734 H 361.995 -2.54054 2.64296 0
M  V30 3735 H 361.643 -4.77599 1.57823 0
M  V30 3736 H 361.343 -4.83919 3.33312 0
M  V30 3737 H 362.867 -5.4924 2.66773 0
M  V30 3738 H 364.281 -3.8557 4.24274 0
M  V30 3739 H 362.678 -3.44094 4.9165 0
M  V30 3740 H 363.748 -2.14681 4.34788 0
M  V30 3741 N 365.091 -1.34144 -0.827227 0
M  V30 3742 C 366.339 -1.26009 -1.58007 0
M  V30 3743 C 366.66 0.170971 -1.94249 0
M  V30 3744 O 365.93 1.10256 -1.61927 0
M  V30 3745 H 364.51 -0.463414 -0.585881 0
M  V30 3746 H 367.172 -1.68005 -0.987951 0
M  V30 3747 H 366.268 -1.86187 -2.50481 0
M  V30 3748 N 366.569 1.04691 -1.17803 0
M  V30 3749 C 367.817 1.7743 -0.967617 0
M  V30 3750 C 368.138 1.88359 0.504574 0
M  V30 3751 O 367.408 1.40402 1.36617 0
M  V30 3752 H 365.988 0.657242 -0.355024 0
M  V30 3753 H 368.65 1.2638 -1.48371 0
M  V30 3754 H 367.746 2.78924 -1.40027 0
M  V30 3755 N 368.047 0.979072 1.23499 0
M  V30 3756 C 369.275 0.665202 1.95915 0
M  V30 3757 C 369.69 -0.767571 1.72493 0
M  V30 3758 O 369.047 -1.51635 1.01554 0
M  V30 3759 C 369.098 0.944438 3.48945 0
M  V30 3760 O 368.819 2.3209 3.71572 0
M  V30 3761 C 370.32 0.646336 4.38563 0
M  V30 3762 H 367.54 0.247218 0.623798 0
M  V30 3763 H 370.084 1.31009 1.57025 0
M  V30 3764 H 368.239 0.345575 3.85856 0
M  V30 3765 H 368.653 2.40957 4.65876 0
M  V30 3766 H 370.127 0.892091 5.44744 0
M  V30 3767 H 370.604 -0.419575 4.37191 0
M  V30 3768 H 371.21 1.22562 4.07258 0
M  V30 3769 N 369.525 -1.3858 0.750561 0
M  V30 3770 C 370.802 -1.94231 0.231009 0
M  V30 3771 C 371.182 -1.68611 -1.27018 0
M  V30 3772 O 370.53 -1.02296 -2.04323 0
M  V30 3773 C 370.74 -3.44123 0.581428 0
M  V30 3774 C 372.088 -4.2116 0.539389 0
M  V30 3775 O 373.112 -3.52391 0.519541 0
M  V30 3776 O 371.971 -5.43749 0.54765 0
M  V30 3777 H 369.065 -0.825639 0.0474263 0
M  V30 3778 H 371.611 -1.4799 0.830478 0
M  V30 3779 H 370.383 -3.56267 1.61833 0
M  V30 3780 H 370.006 -3.97573 -0.0462047 0
M  V30 3781 N 371.003 -0.499398 -1.49478 0
M  V30 3782 C 372.228 0.044722 -2.07352 0
M  V30 3783 C 372.653 1.30207 -1.35749 0
M  V30 3784 O 372.011 1.76516 -0.413732 0
M  V30 3785 C 372.059 0.283013 -3.59488 0
M  V30 3786 O 371.163 1.35804 -3.89398 0
M  V30 3787 H 370.504 -0.0255147 -0.66351 0
M  V30 3788 H 373.034 -0.698561 -1.92305 0
M  V30 3789 H 373.044 0.515007 -4.04737 0
M  V30 3790 H 371.719 -0.635636 -4.11014 0
M  V30 3791 H 370.296 1.11113 -3.55961 0
M  V30 3792 N 372.481 1.55866 -0.233164 0
M  V30 3793 C 373.428 2.20796 0.67215 0
M  V30 3794 C 374.398 1.16731 1.18166 0
M  V30 3795 O 375.583 1.45129 1.23864 0
M  V30 3796 C 372.723 2.90072 1.86955 0
M  V30 3797 C 371.836 4.08759 1.39786 0
M  V30 3798 C 370.971 4.65787 2.55374 0
M  V30 3799 C 370.01 5.76752 2.04998 0
M  V30 3800 N 369.147 6.28021 3.13901 0
M  V30 3801 H 373.987 2.9779 0.111749 0
M  V30 3802 H 371.524 1.47036 0.0434007 0
M  V30 3803 H 373.482 3.28428 2.57276 0
M  V30 3804 H 372.112 2.15575 2.40265 0
M  V30 3805 H 371.164 3.7581 0.589173 0
M  V30 3806 H 372.476 4.88906 0.98856 0
M  V30 3807 H 371.63 5.06646 3.33758 0
M  V30 3808 H 370.369 3.84828 2.99598 0
M  V30 3809 H 369.374 5.35383 1.25079 0
M  V30 3810 H 370.599 6.59553 1.61759 0
M  V30 3811 H 368.545 5.49971 3.57586 0
M  V30 3812 H 368.462 7.03323 2.7726 0
M  V30 3813 H 369.73 6.73538 3.92386 0
M  V30 3814 N 373.959 -0.0401083 1.57549 0
M  V30 3815 C 375.189 -0.744115 1.92734 0
M  V30 3816 C 375.597 -1.70005 0.830348 0
M  V30 3817 O 374.94 -1.82576 -0.20286 0
M  V30 3818 C 375.002 -1.56516 3.2364 0
M  V30 3819 C 374.666 -0.7752 4.50377 0
M  V30 3820 C 375.663 -0.0803326 5.19838 0
M  V30 3821 C 373.348 -0.733002 4.96923 0
M  V30 3822 C 375.342 0.646154 6.34116 0
M  V30 3823 C 373.029 -0.00276321 6.111 0
M  V30 3824 C 374.027 0.685585 6.7955 0
M  V30 3825 O 373.715 1.40399 7.91545 0
M  V30 3826 H 373.447 -0.214861 0.640945 0
M  V30 3827 H 376.001 -0.00503675 2.05399 0
M  V30 3828 H 374.231 -2.3478 3.07271 0
M  V30 3829 H 375.92 -2.15076 3.44234 0
M  V30 3830 H 376.686 -0.104035 4.84888 0
M  V30 3831 H 372.565 -1.25827 4.43496 0
M  V30 3832 H 376.109 1.18398 6.87479 0
M  V30 3833 H 372.006 0.0229012 6.45496 0
M  V30 3834 H 372.774 1.31653 8.07843 0
M  V30 3835 N 375.437 -1.54477 -0.31217 0
M  V30 3836 C 376.667 -1.76948 -1.06645 0
M  V30 3837 C 377.075 -0.523593 -1.81811 0
M  V30 3838 O 376.418 0.51578 -1.76311 0
M  V30 3839 C 376.48 -2.91668 -2.10166 0
M  V30 3840 C 376.144 -4.30165 -1.54296 0
M  V30 3841 C 377.141 -5.10603 -0.978793 0
M  V30 3842 C 374.826 -4.76738 -1.58196 0
M  V30 3843 C 376.82 -6.3573 -0.461048 0
M  V30 3844 C 374.507 -6.01831 -1.06034 0
M  V30 3845 C 375.505 -6.81161 -0.500844 0
M  V30 3846 O 375.193 -8.03899 0.0128958 0
M  V30 3847 H 374.925 -0.594088 -0.322546 0
M  V30 3848 H 377.479 -2.02213 -0.360441 0
M  V30 3849 H 375.709 -2.62001 -2.84416 0
M  V30 3850 H 377.398 -3.01817 -2.71406 0
M  V30 3851 H 378.164 -4.75771 -0.941651 0
M  V30 3852 H 374.043 -4.15027 -2.00683 0
M  V30 3853 H 377.587 -6.97596 -0.0236894 0
M  V30 3854 H 373.484 -6.36152 -1.09459 0
M  V30 3855 H 374.252 -8.18437 -0.101457 0
M  V30 3856 N 376.915 0.57481 -1.46744 0
M  V30 3857 C 377.862 1.68329 -1.57905 0
M  V30 3858 C 378.832 1.60625 -0.422927 0
M  V30 3859 O 380.017 1.79721 -0.640711 0
M  V30 3860 C 377.157 3.06665 -1.58274 0
M  V30 3861 C 376.27 3.24935 -2.84678 0
M  V30 3862 C 375.405 4.53566 -2.76499 0
M  V30 3863 C 374.444 4.65207 -3.97806 0
M  V30 3864 N 373.581 5.85172 -3.87967 0
M  V30 3865 H 378.421 1.58127 -2.52587 0
M  V30 3866 H 375.958 0.770552 -1.25303 0
M  V30 3867 H 377.916 3.86745 -1.56473 0
M  V30 3868 H 376.546 3.15745 -0.671194 0
M  V30 3869 H 375.598 2.38405 -2.96424 0
M  V30 3870 H 376.91 3.29403 -3.7456 0
M  V30 3871 H 376.064 5.41885 -2.72848 0
M  V30 3872 H 374.803 4.51548 -1.8427 0
M  V30 3873 H 373.808 3.75304 -4.0178 0
M  V30 3874 H 375.033 4.68997 -4.9114 0
M  V30 3875 H 372.979 5.84137 -2.98529 0
M  V30 3876 H 372.896 5.90943 -4.71511 0
M  V30 3877 H 374.164 6.759 -3.88303 0
M  V30 3878 N 378.394 1.34581 0.820102 0
M  V30 3879 C 379.642 1.26845 1.57336 0
M  V30 3880 C 379.963 -0.160667 1.94337 0
M  V30 3881 O 379.233 -1.09396 1.6251 0
M  V30 3882 H 377.813 0.466514 0.583415 0
M  V30 3883 H 380.475 1.68526 0.979027 0
M  V30 3884 H 379.571 1.87513 2.4949 0
M  V30 3885 N 379.872 -1.04064 1.18357 0
M  V30 3886 C 381.097 -1.81454 1.00445 0
M  V30 3887 C 381.522 -1.82823 -0.442423 0
M  V30 3888 O 380.88 -1.24555 -1.31741 0
M  V30 3889 C 380.928 -3.24925 1.56384 0
M  V30 3890 O 380.032 -4.04856 0.785209 0
M  V30 3891 H 379.373 -0.560604 0.355835 0
M  V30 3892 H 381.903 -1.31059 1.57114 0
M  V30 3893 H 381.913 -3.75702 1.59097 0
M  V30 3894 H 380.588 -3.23244 2.61699 0
M  V30 3895 H 379.165 -3.63537 0.830399 0
M  V30 3896 N 381.35 -0.985608 -1.22978 0
M  V30 3897 C 382.28 -0.549649 -2.26939 0
M  V30 3898 C 383.261 0.419803 -1.64838 0
M  V30 3899 O 384.446 0.31203 -1.91677 0
M  V30 3900 C 381.576 0.143652 -3.47003 0
M  V30 3901 C 380.53 -0.743606 -4.21491 0
M  V30 3902 C 379.856 0.0822027 -5.34637 0
M  V30 3903 C 381.156 -2.03694 -4.80943 0
M  V30 3904 H 382.85 -1.41862 -2.63658 0
M  V30 3905 H 380.396 -0.683571 -1.26741 0
M  V30 3906 H 382.349 0.459985 -4.18882 0
M  V30 3907 H 381.073 1.04711 -3.09359 0
M  V30 3908 H 379.732 -1.04347 -3.51436 0
M  V30 3909 H 379.38 0.986359 -4.93234 0
M  V30 3910 H 379.08 -0.508377 -5.85397 0
M  V30 3911 H 380.604 0.392797 -6.09335 0
M  V30 3912 H 382.018 -1.78504 -5.44802 0
M  V30 3913 H 380.415 -2.57573 -5.42011 0
M  V30 3914 H 381.485 -2.72042 -4.01399 0
M  V30 3915 N 382.828 1.3818 -0.7579 0
M  V30 3916 C 384.053 2.04827 -0.325679 0
M  V30 3917 C 384.478 1.56788 1.03919 0
M  V30 3918 O 383.836 0.721811 1.66312 0
M  V30 3919 C 383.884 3.58774 -0.362447 0
M  V30 3920 O 382.988 4.07372 0.642033 0
M  V30 3921 H 382.329 0.64833 -0.143402 0
M  V30 3922 H 384.859 1.7677 -1.03023 0
M  V30 3923 H 384.869 4.07434 -0.214844 0
M  V30 3924 H 383.544 3.93096 -1.35824 0
M  V30 3925 H 382.121 3.70068 0.458688 0
M  V30 3926 N 384.306 0.507319 1.49211 0
M  V30 3927 C 385.536 -0.0315292 2.06576 0
M  V30 3928 C 385.944 -1.30791 1.36713 0
M  V30 3929 O 385.287 -1.78324 0.441181 0
M  V30 3930 C 385.349 -0.349104 3.57801 0
M  V30 3931 C 385.013 0.830475 4.49391 0
M  V30 3932 C 386.01 1.72271 4.90529 0
M  V30 3933 C 383.695 1.03107 4.91604 0
M  V30 3934 C 385.689 2.79964 5.72625 0
M  V30 3935 C 383.376 2.11116 5.73475 0
M  V30 3936 C 384.374 2.99379 6.1389 0
M  V30 3937 O 384.062 4.05523 6.94123 0
M  V30 3938 H 383.794 0.0201002 0.675701 0
M  V30 3939 H 386.348 0.705737 1.92895 0
M  V30 3940 H 384.578 -1.14005 3.69513 0
M  V30 3941 H 386.267 -0.827319 3.97379 0
M  V30 3942 H 387.033 1.57958 4.58557 0
M  V30 3943 H 382.912 0.353417 4.59643 0
M  V30 3944 H 386.456 3.48884 6.04091 0
M  V30 3945 H 382.353 2.25421 6.0486 0
M  V30 3946 H 383.121 4.02953 7.1244 0
M  V30 3947 N 385.784 -1.5574 0.241426 0
M  V30 3948 C 386.714 -2.24133 -0.654722 0
M  V30 3949 C 387.695 -1.21974 -1.1856 0
M  V30 3950 O 388.88 -1.50612 -1.22595 0
M  V30 3951 C 386.01 -2.93659 -1.85423 0
M  V30 3952 C 384.964 -4.0246 -1.45636 0
M  V30 3953 C 384.29 -4.59383 -2.73626 0
M  V30 3954 C 385.59 -5.18468 -0.631506 0
M  V30 3955 H 387.284 -2.99281 -0.0844353 0
M  V30 3956 H 384.83 -1.43947 -0.0391707 0
M  V30 3957 H 386.783 -3.40203 -2.48676 0
M  V30 3958 H 385.507 -2.15991 -2.44981 0
M  V30 3959 H 384.166 -3.56676 -0.847202 0
M  V30 3960 H 383.814 -3.78422 -3.3137 0
M  V30 3961 H 383.514 -5.32826 -2.4773 0
M  V30 3962 H 385.038 -5.08658 -3.37786 0
M  V30 3963 H 386.452 -5.61272 -1.1682 0
M  V30 3964 H 384.849 -5.98266 -0.468831 0
M  V30 3965 H 385.919 -4.8358 0.357506 0
M  V30 3966 N 387.262 0.0317525 -1.57568 0
M  V30 3967 C 388.21 1.05165 -2.07468 0
M  V30 3968 C 389.204 1.3761 -0.98792 0
M  V30 3969 O 390.41 1.36546 -1.17282 0
M  V30 3970 H 386.785 0.35666 -0.66204 0
M  V30 3971 H 388.756 0.604958 -2.92203 0
M  V30 3972 C 387.505 2.34488 -2.56731 0
M  V30 3973 H 386.828 2.10383 -3.39969 0
M  V30 3974 H 388.268 3.04203 -2.95358 0
M  V30 3975 C 386.727 3.03266 -1.46736 0
M  V30 3976 O 387.257 3.92988 -0.832069 0
M  V30 3977 N 385.463 2.6455 -1.20256 0
M  V30 3978 H 385.01 1.91674 -1.72102 0
M  V30 3979 H 384.968 3.10886 -0.468737 0
M  V30 3980 N 388.74 1.54641 0.303973 0
M  V30 3981 C 389.986 1.74038 1.04109 0
M  V30 3982 C 390.319 0.523051 1.87024 0
M  V30 3983 O 389.594 -0.479874 1.88487 0
M  V30 3984 C 389.877 3.02761 1.94955 0
M  V30 3985 C 389.73 4.34787 1.1524 0
M  V30 3986 C 391.049 3.27336 2.94175 0
M  V30 3987 H 388.168 0.63323 0.377079 0
M  V30 3988 H 390.81 1.87354 0.316001 0
M  V30 3989 H 388.96 2.9154 2.56782 0
M  V30 3990 H 390.632 4.57922 0.557236 0
M  V30 3991 H 388.875 4.31407 0.455053 0
M  V30 3992 H 389.546 5.21116 1.8205 0
M  V30 3993 H 392.022 3.38148 2.42477 0
M  V30 3994 H 390.898 4.18726 3.54908 0
M  V30 3995 H 391.159 2.45491 3.67677 0
M  V30 3996 N 390.218 -0.567019 1.47046 0
M  V30 3997 C 391.446 -1.35027 1.56765 0
M  V30 3998 C 391.861 -1.8758 0.214316 0
M  V30 3999 O 391.218 -1.64471 -0.790919 0
M  V30 4000 C 391.269 -2.52698 2.58507 0
M  V30 4001 O 390.99 -2.0232 3.88585 0
M  V30 4002 C 392.491 -3.45043 2.78316 0
M  V30 4003 H 389.711 -0.41195 0.529658 0
M  V30 4004 H 392.255 -0.687832 1.92585 0
M  V30 4005 H 390.41 -3.149 2.25648 0
M  V30 4006 H 390.824 -2.79068 4.44096 0
M  V30 4007 H 392.298 -4.2405 3.53391 0
M  V30 4008 H 392.775 -3.97971 1.85784 0
M  V30 4009 H 393.381 -2.88665 3.12334 0
M  V30 4010 N 391.696 -1.35014 -0.812953 0
M  V30 4011 C 393.112 -1.14914 -1.10757 0
M  V30 4012 C 393.312 0.0426818 -2.01455 0
M  V30 4013 O 392.368 0.715212 -2.42159 0
M  V30 4014 C 393.681 -2.44911 -1.74468 0
M  V30 4015 C 395.229 -2.5106 -1.86917 0
M  V30 4016 C 395.704 -3.81085 -2.54044 0
M  V30 4017 N 397.195 -3.82301 -2.61535 0
M  V30 4018 C 397.93 -4.79634 -3.14227 0
M  V30 4019 N 397.426 -5.87353 -3.67407 0
M  V30 4020 N 399.219 -4.67078 -3.12721 0
M  V30 4021 H 391.37 -2.1136 -0.20989 0
M  V30 4022 H 393.633 -0.935128 -0.155692 0
M  V30 4023 H 393.339 -3.32267 -1.15289 0
M  V30 4024 H 393.213 -2.58989 -2.74234 0
M  V30 4025 H 395.6 -1.64137 -2.45241 0
M  V30 4026 H 395.681 -2.40901 -0.860242 0
M  V30 4027 H 395.325 -4.68402 -1.96372 0
M  V30 4028 H 395.255 -3.88529 -3.55461 0
M  V30 4029 H 397.746 -3.04465 -2.23851 0
M  V30 4030 H 398.059 -6.57624 -4.05894 0
M  V30 4031 H 396.404 -5.91054 -3.65623 0
M  V30 4032 H 399.595 -3.82067 -2.70449 0
M  V30 4033 H 399.768 -5.43098 -3.53481 0
M  V30 4034 N 393.175 1.03435 -1.18907 0
M  V30 4035 C 394.122 2.11591 -0.921837 0
M  V30 4036 C 395.092 1.65499 0.141226 0
M  V30 4037 O 396.277 1.908 0.000242829 0
M  V30 4038 C 393.417 3.42012 -0.460616 0
M  V30 4039 C 392.53 4.01682 -1.58982 0
M  V30 4040 C 391.665 5.20091 -1.08069 0
M  V30 4041 C 390.704 5.71805 -2.18416 0
M  V30 4042 N 389.841 6.81494 -1.68849 0
M  V30 4043 H 394.681 2.33787 -1.8479 0
M  V30 4044 H 392.218 1.1467 -0.921373 0
M  V30 4045 H 394.176 4.16834 -0.174642 0
M  V30 4046 H 392.806 3.19944 0.428467 0
M  V30 4047 H 391.858 3.24127 -1.99113 0
M  V30 4048 H 393.17 4.36084 -2.4214 0
M  V30 4049 H 392.324 6.02051 -0.749615 0
M  V30 4050 H 391.063 4.87209 -0.218771 0
M  V30 4051 H 390.068 4.88461 -2.5236 0
M  V30 4052 H 391.293 6.06728 -3.05054 0
M  V30 4053 H 389.239 6.50475 -0.849572 0
M  V30 4054 H 389.156 7.14994 -2.45601 0
M  V30 4055 H 390.424 7.67063 -1.38689 0
M  V30 4056 N 394.653 0.992116 1.22453 0
M  V30 4057 C 395.616 0.546883 2.2258 0
M  V30 4058 C 396.616 -0.369829 1.56489 0
M  V30 4059 O 397.806 -0.161896 1.73446 0
M  V30 4060 C 394.938 -0.204659 3.40285 0
M  V30 4061 H 396.131 1.43234 2.63484 0
M  V30 4062 H 393.684 0.779239 1.3549 0
M  V30 4063 H 394.419 -1.10614 3.04853 0
M  V30 4064 H 394.204 0.45354 3.89468 0
M  V30 4065 H 395.694 -0.504358 4.14543 0
M  V30 4066 N 396.131 -1.37776 0.765217 0
M  V30 4067 C 397.361 -2.03828 0.337277 0
M  V30 4068 C 397.769 -1.57841 -1.04321 0
M  V30 4069 O 397.112 -0.752043 -1.67601 0
M  V30 4070 C 397.174 -3.58292 0.294407 0
M  V30 4071 C 396.838 -4.27384 1.61838 0
M  V30 4072 C 397.835 -4.51956 2.56967 0
M  V30 4073 C 395.52 -4.65345 1.89102 0
M  V30 4074 C 397.514 -5.13536 3.77571 0
M  V30 4075 C 395.201 -5.26647 3.09978 0
M  V30 4076 C 396.199 -5.50679 4.04032 0
M  V30 4077 O 395.887 -6.10702 5.2278 0
M  V30 4078 H 395.619 -0.661292 0.140248 0
M  V30 4079 H 398.173 -1.77222 1.03834 0
M  V30 4080 H 396.403 -3.83918 -0.462983 0
M  V30 4081 H 398.092 -4.05763 -0.105581 0
M  V30 4082 H 398.858 -4.23048 2.37183 0
M  V30 4083 H 394.737 -4.45978 1.16725 0
M  V30 4084 H 398.281 -5.3221 4.50997 0
M  V30 4085 H 394.178 -5.54979 3.29649 0
M  V30 4086 H 394.946 -6.29183 5.23517 0
M  V30 4087 N 397.609 -0.515225 -1.4894 0
M  V30 4088 C 398.855 0.016187 -2.03394 0
M  V30 4089 C 399.21 1.33377 -1.38666 0
M  V30 4090 O 398.503 1.84461 -0.518141 0
M  V30 4091 C 398.697 0.210595 -3.56779 0
M  V30 4092 C 398.526 -1.08659 -4.36375 0
M  V30 4093 C 397.296 -1.64237 -4.77864 0
M  V30 4094 C 399.494 -1.9935 -4.74093 0
M  V30 4095 N 397.476 -2.88398 -5.41941 0
M  V30 4096 C 398.847 -3.08088 -5.38035 0
M  V30 4097 C 400.902 -1.99856 -4.56029 0
M  V30 4098 C 399.605 -4.17377 -5.85823 0
M  V30 4099 C 401.631 -3.08129 -5.04787 0
M  V30 4100 C 400.993 -4.15586 -5.68742 0
M  V30 4101 H 397.092 -0.0352107 -0.781207 0
M  V30 4102 H 399.676 -0.693237 -1.8194 0
M  V30 4103 H 397.847 0.889088 -3.78087 0
M  V30 4104 H 399.579 0.740287 -3.97872 0
M  V30 4105 H 396.334 -1.18566 -4.58518 0
M  V30 4106 H 396.758 -3.51572 -5.78555 0
M  V30 4107 H 401.4 -1.18079 -4.05977 0
M  V30 4108 H 399.118 -4.99943 -6.34888 0
M  V30 4109 H 402.704 -3.09557 -4.92611 0
M  V30 4110 H 401.584 -4.97987 -6.05787 0
M  V30 4111 N 399.087 1.5561 -0.249682 0
M  V30 4112 C 400.019 2.18834 0.681496 0
M  V30 4113 C 401.032 1.16546 1.1367 0
M  V30 4114 O 402.221 1.43397 1.06299 0
M  V30 4115 C 399.321 2.77992 1.9384 0
M  V30 4116 C 398.494 4.05725 1.63419 0
M  V30 4117 C 397.553 4.49174 2.74096 0
M  V30 4118 O 396.579 5.15492 2.41364 0
M  V30 4119 N 397.781 4.17191 4.03649 0
M  V30 4120 H 400.546 2.9937 0.140514 0
M  V30 4121 H 398.107 1.6175 -0.0697541 0
M  V30 4122 H 400.099 3.04015 2.67127 0
M  V30 4123 H 398.669 2.01596 2.38909 0
M  V30 4124 H 397.889 3.87261 0.736358 0
M  V30 4125 H 399.177 4.88999 1.40562 0
M  V30 4126 H 398.575 3.63955 4.33074 0
M  V30 4127 H 397.132 4.48043 4.73393 0
M  V30 4128 N 400.565 -0.0233959 1.57583 0
M  V30 4129 C 401.811 -0.714119 1.89811 0
M  V30 4130 C 402.144 -1.74702 0.848113 0
M  V30 4131 O 401.419 -1.94023 -0.136135 0
M  V30 4132 C 401.702 -1.37853 3.32669 0
M  V30 4133 C 401.555 -0.358764 4.48367 0
M  V30 4134 C 402.874 -2.31101 3.7454 0
M  V30 4135 H 399.993 -0.25814 0.690314 0
M  V30 4136 H 402.635 0.0230927 1.89986 0
M  V30 4137 H 400.785 -2.00689 3.3265 0
M  V30 4138 H 402.457 0.268115 4.6052 0
M  V30 4139 H 400.7 0.321387 4.32608 0
M  V30 4140 H 401.371 -0.862242 5.45224 0
M  V30 4141 H 403.847 -1.78304 3.75961 0
M  V30 4142 H 402.723 -2.74567 4.75294 0
M  V30 4143 H 402.984 -3.18018 3.0711 0
M  V30 4144 N 402.043 -1.548 -0.295768 0
M  V30 4145 C 402.993 -1.82497 -1.3667 0
M  V30 4146 C 403.977 -0.682434 -1.45711 0
M  V30 4147 O 405.169 -0.943207 -1.49775 0
M  V30 4148 C 402.298 -2.08036 -2.73086 0
M  V30 4149 C 401.384 -3.28488 -2.68247 0
M  V30 4150 N 401.775 -4.48924 -2.33025 0
M  V30 4151 C 400.073 -3.3062 -2.99343 0
M  V30 4152 C 400.774 -5.30956 -2.37613 0
M  V30 4153 N 399.75 -4.68805 -2.75178 0
M  V30 4154 H 403.552 -2.73175 -1.0841 0
M  V30 4155 H 401.066 -1.5437 -0.504361 0
M  V30 4156 H 403.063 -2.26027 -3.5031 0
M  V30 4157 H 401.723 -1.18629 -3.02254 0
M  V30 4158 H 402.734 -4.75432 -2.05389 0
M  V30 4159 H 399.411 -2.51336 -3.33371 0
M  V30 4160 H 400.801 -6.37199 -2.13135 0
M  V30 4161 N 403.521 0.559213 -1.47345 0
M  V30 4162 C 404.451 1.67622 -1.62558 0
M  V30 4163 C 405.432 1.63331 -0.475087 0
M  V30 4164 O 406.617 1.80983 -0.704182 0
M  V30 4165 C 403.747 3.0626 -1.63774 0
M  V30 4166 C 402.701 3.25397 -2.7803 0
M  V30 4167 C 402.027 4.64801 -2.64318 0
M  V30 4168 C 403.327 3.10965 -4.19641 0
M  V30 4169 H 405.021 1.55146 -2.56067 0
M  V30 4170 H 402.567 0.744961 -1.23233 0
M  V30 4171 H 404.52 3.84247 -1.73008 0
M  V30 4172 H 403.244 3.1969 -0.66825 0
M  V30 4173 H 401.903 2.49817 -2.68304 0
M  V30 4174 H 401.551 4.75028 -1.65401 0
M  V30 4175 H 401.251 4.78555 -3.40968 0
M  V30 4176 H 402.775 5.44926 -2.75478 0
M  V30 4177 H 404.189 3.78772 -4.30354 0
M  V30 4178 H 402.586 3.36229 -4.97062 0
M  V30 4179 H 403.656 2.07736 -4.38148 0
M  V30 4180 N 404.999 1.35443 0.805782 0
M  V30 4181 C 406.276 1.19325 1.54987 0
M  V30 4182 C 406.656 -0.227294 2.09873 0
M  V30 4183 O 406.004 -1.2309 1.92512 0
M  V30 4184 C 406.214 2.26196 2.65775 0
M  V30 4185 C 407.562 2.62043 3.34094 0
M  V30 4186 O 408.586 2.25115 2.76046 0
M  V30 4187 O 407.445 3.25542 4.38958 0
M  V30 4188 H 404.539 0.463623 0.684823 0
M  V30 4189 H 407.085 1.47127 0.845674 0
M  V30 4190 H 405.857 3.21471 2.23096 0
M  V30 4191 H 405.48 1.99667 3.43829 0
M  V30 4192 N 406.477 -1.02803 1.19454 0
M  V30 4193 C 407.409 -2.11181 0.890807 0
M  V30 4194 C 408.422 -1.6238 -0.116829 0
M  V30 4195 O 409.611 -1.78144 0.112694 0
M  V30 4196 C 406.711 -3.37461 0.311942 0
M  V30 4197 C 405.884 -4.15446 1.36834 0
M  V30 4198 C 404.943 -5.20039 0.802864 0
M  V30 4199 O 403.969 -5.49602 1.48077 0
M  V30 4200 N 405.171 -5.79165 -0.393417 0
M  V30 4201 H 407.936 -2.37827 1.82369 0
M  V30 4202 H 405.497 -1.19101 1.09666 0
M  V30 4203 H 407.489 -4.0462 -0.0802225 0
M  V30 4204 H 406.059 -3.08156 -0.52524 0
M  V30 4205 H 405.279 -3.43423 1.93531 0
M  V30 4206 H 406.567 -4.64335 2.08015 0
M  V30 4207 H 405.965 -5.57466 -0.961658 0
M  V30 4208 H 404.522 -6.47729 -0.727351 0
M  V30 4209 N 407.956 -0.998596 -1.21925 0
M  V30 4210 C 409.202 -0.678667 -1.91107 0
M  V30 4211 C 409.535 0.78791 -1.77498 0
M  V30 4212 O 408.81 1.57043 -1.1475 0
M  V30 4213 C 409.093 -1.09245 -3.43129 0
M  V30 4214 C 408.946 -2.61801 -3.6576 0
M  V30 4215 C 410.265 -0.649984 -4.35274 0
M  V30 4216 H 407.384 -0.248025 -0.694012 0
M  V30 4217 H 410.026 -1.24314 -1.43688 0
M  V30 4218 H 408.176 -0.612171 -3.83647 0
M  V30 4219 H 409.848 -3.17543 -3.34611 0
M  V30 4220 H 408.091 -3.03609 -3.09845 0
M  V30 4221 H 408.762 -2.85804 -4.7225 0
M  V30 4222 H 411.238 -1.0626 -4.02303 0
M  V30 4223 H 410.114 -0.967743 -5.40302 0
M  V30 4224 H 410.375 0.449139 -4.39813 0
M  V30 4225 N 409.434 1.37368 -0.772513 0
M  V30 4226 C 410.344 2.34053 -0.160081 0
M  V30 4227 C 411.36 1.60216 0.678728 0
M  V30 4228 O 412.536 1.92303 0.59847 0
M  V30 4229 C 409.601 3.3939 0.708182 0
M  V30 4230 C 408.662 4.29048 -0.147172 0
M  V30 4231 C 407.895 5.29354 0.679744 0
M  V30 4232 O 408.118 5.3723 1.91678 0
M  V30 4233 O 407.052 6.01835 0.0885444 0
M  V30 4234 H 410.878 2.88159 -0.959053 0
M  V30 4235 H 408.463 1.39543 -0.533685 0
M  V30 4236 H 410.345 4.03839 1.20384 0
M  V30 4237 H 409.02 2.8761 1.48533 0
M  V30 4238 H 407.927 3.67697 -0.689205 0
M  V30 4239 H 409.26 4.84134 -0.887423 0
M  V30 4240 N 410.912 0.523116 1.48665 0
M  V30 4241 C 412.158 -0.0134963 2.02796 0
M  V30 4242 C 412.491 -1.34582 1.40004 0
M  V30 4243 O 411.766 -1.86756 0.543381 0
M  V30 4244 C 412.049 -0.14276 3.59817 0
M  V30 4245 C 411.902 1.21425 4.331 0
M  V30 4246 C 413.221 -0.872856 4.31357 0
M  V30 4247 H 410.34 -0.00343074 0.736992 0
M  V30 4248 H 412.982 0.678816 1.7746 0
M  V30 4249 H 411.132 -0.732401 3.81534 0
M  V30 4250 H 412.804 1.84447 4.2282 0
M  V30 4251 H 411.047 1.79791 3.94788 0
M  V30 4252 H 411.718 1.07687 5.41394 0
M  V30 4253 H 414.194 -0.372555 4.14429 0
M  V30 4254 H 413.07 -0.932185 5.40927 0
M  V30 4255 H 413.331 -1.92161 3.98154 0
M  V30 4256 N 412.39 -1.55475 0.257931 0
M  V30 4257 C 413.353 -2.20551 -0.623706 0
M  V30 4258 C 414.353 -1.17809 -1.09443 0
M  V30 4259 O 415.543 -1.42823 -0.997362 0
M  V30 4260 C 412.675 -2.85784 -1.8585 0
M  V30 4261 H 413.868 -2.99848 -0.0557743 0
M  V30 4262 H 411.421 -1.56298 0.0084422 0
M  V30 4263 H 412.156 -2.10453 -2.46739 0
M  V30 4264 H 411.941 -3.61057 -1.52907 0
M  V30 4265 H 413.431 -3.35553 -2.48584 0
M  V30 4266 N 413.868 0.0150385 -1.57593 0
M  V30 4267 C 415.093 0.718067 -1.94573 0
M  V30 4268 C 415.518 1.6734 -0.859005 0
M  V30 4269 O 414.876 1.80362 0.184147 0
M  V30 4270 C 414.924 1.43918 -3.30636 0
M  V30 4271 O 414.028 2.55299 -3.23876 0
M  V30 4272 H 413.369 0.192125 -0.635597 0
M  V30 4273 H 415.899 -0.0336708 -2.04572 0
M  V30 4274 H 415.909 1.80598 -3.65853 0
M  V30 4275 H 414.584 0.738619 -4.09289 0
M  V30 4276 H 413.161 2.21058 -3.00312 0
M  V30 4277 N 415.346 1.54954 0.287554 0
M  V30 4278 C 416.594 1.74528 1.01904 0
M  V30 4279 C 416.915 0.541349 1.87335 0
M  V30 4280 O 416.185 -0.444108 1.908 0
M  V30 4281 H 414.765 0.643576 0.379235 0
M  V30 4282 H 417.427 1.92333 0.315294 0
M  V30 4283 H 416.523 2.64015 1.6644 0
M  V30 4284 N 416.824 -0.551391 1.4764 0
M  V30 4285 C 417.754 -1.66757 1.63445 0
M  V30 4286 C 418.735 -1.63077 0.483742 0
M  V30 4287 O 419.92 -1.80607 0.71377 0
M  V30 4288 C 417.05 -3.05387 1.65396 0
M  V30 4289 C 416.004 -3.23918 2.79752 0
M  V30 4290 C 415.33 -4.63393 2.66779 0
M  V30 4291 C 416.63 -3.08735 4.21284 0
M  V30 4292 H 418.324 -1.53786 2.56886 0
M  V30 4293 H 415.87 -0.738415 1.23626 0
M  V30 4294 H 417.823 -3.83325 1.75043 0
M  V30 4295 H 416.547 -3.19332 0.685195 0
M  V30 4296 H 415.206 -2.48391 2.69625 0
M  V30 4297 H 414.854 -4.74144 1.67918 0
M  V30 4298 H 414.554 -4.7674 3.43501 0
M  V30 4299 H 416.078 -5.43458 2.78364 0
M  V30 4300 H 417.492 -3.76484 4.32357 0
M  V30 4301 H 415.889 -3.33588 4.98838 0
M  V30 4302 H 416.959 -2.0541 4.39243 0
M  V30 4303 N 418.302 -1.35869 -0.798587 0
M  V30 4304 C 419.53 -1.32722 -1.58722 0
M  V30 4305 C 419.945 0.0935631 -1.88568 0
M  V30 4306 O 419.302 1.04784 -1.49421 0
M  V30 4307 C 419.353 -2.13974 -2.91371 0
M  V30 4308 O 419.074 -3.50514 -2.62815 0
M  V30 4309 C 420.575 -2.18504 -3.85708 0
M  V30 4310 H 417.795 -0.45562 -0.492596 0
M  V30 4311 H 420.339 -1.78837 -0.991843 0
M  V30 4312 H 418.494 -1.71438 -3.47402 0
M  V30 4313 H 418.908 -3.92806 -3.47568 0
M  V30 4314 H 420.382 -2.79732 -4.75872 0
M  V30 4315 H 420.859 -1.18597 -4.22885 0
M  V30 4316 H 421.465 -2.61236 -3.35612 0
M  V30 4317 N 419.78 1.02168 -1.19998 0
M  V30 4318 C 420.71 2.12488 -0.96804 0
M  V30 4319 C 421.691 1.69799 0.101185 0
M  V30 4320 O 422.876 1.94121 -0.0552993 0
M  V30 4321 C 420.006 3.43479 -0.513776 0
M  V30 4322 C 418.96 3.99884 -1.52566 0
M  V30 4323 C 418.286 5.26582 -0.928214 0
M  V30 4324 C 419.586 4.33861 -2.90795 0
M  V30 4325 H 421.28 2.32149 -1.89069 0
M  V30 4326 H 418.826 1.11564 -0.910468 0
M  V30 4327 H 420.779 4.20036 -0.338774 0
M  V30 4328 H 419.503 3.23561 0.444493 0
M  V30 4329 H 418.162 3.25429 -1.68794 0
M  V30 4330 H 417.81 5.02986 0.0378289 0
M  V30 4331 H 417.51 5.65284 -1.60397 0
M  V30 4332 H 419.034 6.05799 -0.764167 0
M  V30 4333 H 420.448 5.01327 -2.78109 0
M  V30 4334 H 418.845 4.83664 -3.55231 0
M  V30 4335 H 419.915 3.42848 -3.42904 0
M  V30 4336 N 421.258 1.00505 1.21394 0
M  V30 4337 C 422.498 0.696149 1.9218 0
M  V30 4338 C 422.862 -0.759099 1.76357 0
M  V30 4339 O 424.063 -1.17998 2.41516 0
M  V30 4340 C 422.334 1.10571 3.39866 0
M  V30 4341 S 423.893 0.91702 4.29111 0
M  V30 4342 H 420.711 0.254147 0.664026 0
M  V30 4343 H 423.313 1.28988 1.46909 0
M  V30 4344 H 422.017 2.16096 3.489 0
M  V30 4345 H 421.548 0.504268 3.90155 0
M  V30 4346 H 423.563 -0.185855 4.95852 0
M  V30 4347 N 422.737 -1.36956 0.779787 0
M  V30 4348 C 423.684 -2.30175 0.169697 0
M  V30 4349 C 424.654 -1.51501 -0.68094 0
M  V30 4350 O 425.839 -1.80042 -0.631629 0
M  V30 4351 C 422.979 -3.37985 -0.697131 0
M  V30 4352 C 422.092 -4.31661 0.170992 0
M  V30 4353 C 421.227 -5.2655 -0.701298 0
M  V30 4354 C 420.266 -6.11867 0.168869 0
M  V30 4355 N 419.403 -6.98973 -0.661855 0
M  V30 4356 H 424.243 -2.81767 0.970135 0
M  V30 4357 H 421.78 -1.38699 0.489994 0
M  V30 4358 H 423.738 -3.99128 -1.2146 0
M  V30 4359 H 422.368 -2.87739 -1.46309 0
M  V30 4360 H 421.42 -3.71756 0.80634 0
M  V30 4361 H 422.732 -4.91644 0.841875 0
M  V30 4362 H 421.886 -5.92937 -1.28494 0
M  V30 4363 H 420.625 -4.66998 -1.40584 0
M  V30 4364 H 419.63 -5.44452 0.764986 0
M  V30 4365 H 420.855 -6.73493 0.870863 0
M  V30 4366 H 418.801 -6.41941 -1.35086 0
M  V30 4367 H 418.718 -7.55984 -0.0484447 0
M  V30 4368 H 419.986 -7.6974 -1.22963 0
M  V30 4369 N 424.215 -0.530993 -1.48385 0
M  V30 4370 C 425.125 0.23503 -2.3342 0
M  V30 4371 C 426.141 0.93801 -1.46552 0
M  V30 4372 O 427.317 0.912745 -1.7953 0
M  V30 4373 C 424.382 1.26778 -3.22689 0
M  V30 4374 C 423.443 0.575038 -4.25431 0
M  V30 4375 C 422.676 1.55858 -5.10435 0
M  V30 4376 O 422.899 2.79129 -4.97437 0
M  V30 4377 O 421.833 1.09742 -5.91811 0
M  V30 4378 H 425.659 -0.461794 -3.00169 0
M  V30 4379 H 423.244 -0.291903 -1.46521 0
M  V30 4380 H 425.126 1.86457 -3.77904 0
M  V30 4381 H 423.801 1.94699 -2.586 0
M  V30 4382 H 422.708 -0.0622782 -3.74048 0
M  V30 4383 H 424.041 -0.062253 -4.92161 0
M  V30 4384 N 425.693 1.55336 -0.266172 0
M  V30 4385 C 426.941 1.99003 0.35246 0
M  V30 4386 C 427.262 1.15591 1.57047 0
M  V30 4387 O 426.532 0.243268 1.94384 0
M  V30 4388 H 425.112 0.735025 0.133217 0
M  V30 4389 H 427.774 1.91367 -0.369434 0
M  V30 4390 H 426.87 3.05289 0.648453 0
M  V30 4391 N 427.171 -0.0066808 1.57599 0
M  V30 4392 C 428.411 -0.697501 1.92131 0
M  V30 4393 C 428.775 -1.71306 0.867071 0
M  V30 4394 O 429.976 -2.45377 1.09743 0
M  V30 4395 C 428.247 -1.32978 3.3174 0
M  V30 4396 S 429.806 -2.04665 3.88146 0
M  V30 4397 H 426.624 -0.230555 0.672581 0
M  V30 4398 H 429.226 0.0484026 1.9544 0
M  V30 4399 H 427.93 -0.57772 4.06313 0
M  V30 4400 H 427.461 -2.11376 3.31789 0
M  V30 4401 H 429.476 -3.32097 3.68682 0
M  V30 4402 N 428.649 -1.55105 -0.279332 0
M  V30 4403 C 429.559 -1.90638 -1.36727 0
M  V30 4404 C 430.575 -0.802899 -1.54368 0
M  V30 4405 O 431.751 -1.10138 -1.68616 0
M  V30 4406 C 428.816 -2.16547 -2.70755 0
M  V30 4407 C 427.877 -3.40146 -2.61915 0
M  V30 4408 C 427.11 -3.6481 -3.8955 0
M  V30 4409 O 427.333 -2.92095 -4.89935 0
M  V30 4410 O 426.267 -4.58343 -3.90135 0
M  V30 4411 H 430.093 -2.83237 -1.09591 0
M  V30 4412 H 427.678 -1.4157 -0.477306 0
M  V30 4413 H 429.56 -2.34665 -3.50014 0
M  V30 4414 H 428.235 -1.27131 -2.9769 0
M  V30 4415 H 427.142 -3.2737 -1.81052 0
M  V30 4416 H 428.475 -4.29761 -2.3993 0
M  V30 4417 N 430.127 0.543554 -1.4793 0
M  V30 4418 C 431.09 1.63156 -1.60975 0
M  V30 4419 C 432.09 1.53346 -0.483899 0
M  V30 4420 O 433.28 1.5726 -0.749339 0
M  V30 4421 C 430.412 3.02743 -1.56716 0
M  V30 4422 H 431.605 1.52934 -2.57975 0
M  V30 4423 H 429.158 0.764557 -1.36324 0
M  V30 4424 H 429.893 3.18484 -0.611418 0
M  V30 4425 H 429.678 3.11272 -2.38438 0
M  V30 4426 H 431.168 3.81871 -1.6901 0
M  V30 4427 N 431.605 1.3629 0.791371 0
M  V30 4428 C 432.854 1.29742 1.54434 0
M  V30 4429 C 433.167 -0.121729 1.95221 0
M  V30 4430 O 434.373 -0.309579 2.69729 0
M  V30 4431 C 432.829 2.27623 2.78776 0
M  V30 4432 C 432.437 3.74963 2.45166 0
M  V30 4433 C 434.181 2.30047 3.56761 0
M  V30 4434 C 432.088 4.64626 3.65891 0
M  V30 4435 H 431.018 0.482113 0.579727 0
M  V30 4436 H 433.669 1.61642 0.868565 0
M  V30 4437 H 432.051 1.88714 3.48142 0
M  V30 4438 H 433.225 4.22596 1.83709 0
M  V30 4439 H 431.54 3.75295 1.80396 0
M  V30 4440 H 434.137 2.94247 4.46456 0
M  V30 4441 H 434.48 1.30846 3.95203 0
M  V30 4442 H 435.013 2.67563 2.94372 0
M  V30 4443 H 431.752 5.64883 3.32547 0
M  V30 4444 H 431.272 4.2171 4.26521 0
M  V30 4445 H 432.951 4.80801 4.32943 0
M  V30 4446 N 433.083 -1.0153 1.20538 0
M  V30 4447 C 434.329 -1.75408 1.01783 0
M  V30 4448 C 434.662 -1.88943 -0.448814 0
M  V30 4449 O 433.937 -1.4162 -1.33319 0
M  V30 4450 C 434.22 -3.17255 1.70356 0
M  V30 4451 C 434.073 -3.11508 3.24473 0
M  V30 4452 C 435.392 -4.15955 1.43769 0
M  V30 4453 H 432.511 -0.636713 0.371167 0
M  V30 4454 H 435.153 -1.18436 1.4857 0
M  V30 4455 H 433.303 -3.65898 1.30578 0
M  V30 4456 H 434.975 -2.70658 3.73553 0
M  V30 4457 H 433.218 -2.4887 3.55311 0
M  V30 4458 H 433.889 -4.11784 3.67611 0
M  V30 4459 H 436.365 -3.75973 1.7828 0
M  V30 4460 H 435.241 -5.13368 1.94279 0
M  V30 4461 H 435.502 -4.40586 0.365564 0
M  V30 4462 N 434.561 -1.01147 -1.20859 0
M  V30 4463 C 435.838 -0.613136 -1.85742 0
M  V30 4464 C 436.218 0.909004 -1.90526 0
M  V30 4465 O 435.566 1.79862 -1.40932 0
M  V30 4466 C 435.776 -1.255 -3.25654 0
M  V30 4467 C 437.124 -1.3672 -4.01986 0
M  V30 4468 O 438.148 -1.21082 -3.34989 0
M  V30 4469 O 437.007 -1.6194 -5.21956 0
M  V30 4470 H 434.101 -0.210878 -0.799662 0
M  V30 4471 H 436.647 -1.10853 -1.2849 0
M  V30 4472 H 435.419 -2.29532 -3.16908 0
M  V30 4473 H 435.042 -0.746369 -3.90532 0
M  V30 4474 N 436.039 1.36541 -0.78704 0
M  V30 4475 C 437.267 2.03561 -0.370199 0
M  V30 4476 C 437.682 1.59347 1.01263 0
M  V30 4477 O 437.039 0.781781 1.64907 0
M  V30 4478 C 437.09 3.59033 -0.421614 0
M  V30 4479 O 436.811 4.01634 -1.7499 0
M  V30 4480 C 438.312 4.433 0.00489763 0
M  V30 4481 H 435.532 0.653346 -0.152904 0
M  V30 4482 H 438.076 1.74566 -1.06522 0
M  V30 4483 H 436.231 3.86746 0.224971 0
M  V30 4484 H 436.645 4.96217 -1.69909 0
M  V30 4485 H 438.119 5.51939 -0.0822184 0
M  V30 4486 H 438.596 4.26285 1.05723 0
M  V30 4487 H 439.202 4.20843 -0.614085 0
M  V30 4488 N 437.518 0.538854 1.48102 0
M  V30 4489 C 438.766 0.00798599 2.02098 0
M  V30 4490 C 439.087 -1.33922 1.41739 0
M  V30 4491 O 438.357 -1.86932 0.585934 0
M  V30 4492 H 436.937 -3.62179e-05 0.747 0
M  V30 4493 H 439.599 0.7047 1.81714 0
M  V30 4494 H 438.695 -0.0937672 3.11959 0
M  V30 4495 N 438.996 -1.55193 0.274407 0
M  V30 4496 C 440.224 -2.03987 -0.345943 0
M  V30 4497 C 440.639 -1.15279 -1.4952 0
M  V30 4498 O 439.996 -0.172759 -1.8168 0
M  V30 4499 C 440.047 -3.51898 -0.827631 0
M  V30 4500 O 439.768 -4.37231 0.275855 0
M  V30 4501 C 441.269 -4.16577 -1.51587 0
M  V30 4502 H 438.489 -0.666335 -0.0789892 0
M  V30 4503 H 441.033 -2.00423 0.406294 0
M  V30 4504 H 439.188 -3.55909 -1.52996 0
M  V30 4505 H 439.602 -5.24415 -0.0943638 0
M  V30 4506 H 441.076 -5.21678 -1.80433 0
M  V30 4507 H 441.553 -3.64707 -2.44716 0
M  V30 4508 H 442.159 -4.16568 -0.857409 0
M  V30 4509 N 440.474 -0.00167713 -1.576 0
M  V30 4510 C 441.699 0.69739 -1.95323 0
M  V30 4511 C 442.124 1.6642 -0.876706 0
M  V30 4512 O 441.482 1.80548 0.165007 0
M  V30 4513 C 441.53 1.40403 -3.32144 0
M  V30 4514 O 440.634 2.5185 -3.26566 0
M  V30 4515 H 439.975 0.185373 -0.637599 0
M  V30 4516 H 442.505 -0.0553665 -2.04525 0
M  V30 4517 H 442.515 1.76707 -3.67748 0
M  V30 4518 H 441.19 0.695167 -4.10049 0
M  V30 4519 H 439.767 2.17861 -3.0264 0
M  V30 4520 N 441.952 1.55251 0.271103 0
M  V30 4521 C 442.882 1.9127 1.33933 0
M  V30 4522 C 443.863 0.77478 1.5143 0
M  V30 4523 O 445.048 1.03307 1.64442 0
M  V30 4524 C 442.178 2.18627 2.69851 0
M  V30 4525 C 441.132 3.34442 2.67081 0
M  V30 4526 C 440.458 3.47284 4.06569 0
M  V30 4527 C 441.758 4.70784 2.26185 0
M  V30 4528 H 443.452 2.80744 1.04035 0
M  V30 4529 H 440.998 1.35077 0.499017 0
M  V30 4530 H 442.951 2.42413 3.44694 0
M  V30 4531 H 441.675 1.25955 3.01335 0
M  V30 4532 H 440.334 3.10627 1.94695 0
M  V30 4533 H 439.982 2.52074 4.35279 0
M  V30 4534 H 439.682 4.25152 4.0561 0
M  V30 4535 H 441.206 3.73363 4.83148 0
M  V30 4536 H 442.62 4.94102 2.90751 0
M  V30 4537 H 441.017 5.51582 2.36384 0
M  V30 4538 H 442.087 4.69478 1.21319 0
M  V30 4539 N 443.43 -0.535701 1.48216 0
M  V30 4540 C 444.363 -1.65726 1.56876 0
M  V30 4541 C 445.341 -1.57094 0.419542 0
M  V30 4542 O 446.525 -1.77648 0.630352 0
M  V30 4543 C 443.652 -3.04096 1.49142 0
M  V30 4544 C 442.698 -3.31105 2.68834 0
M  V30 4545 S 443.531 -3.18001 4.30854 0
M  V30 4546 C 444.687 -4.58828 4.25709 0
M  V30 4547 H 444.92 -1.58129 2.51759 0
M  V30 4548 H 442.453 -0.718218 1.36678 0
M  V30 4549 H 444.411 -3.839 1.45366 0
M  V30 4550 H 443.072 -3.09139 0.556067 0
M  V30 4551 H 442.265 -4.32033 2.59545 0
M  V30 4552 H 441.867 -2.58961 2.69843 0
M  V30 4553 H 444.159 -5.5023 3.95289 0
M  V30 4554 H 445.102 -4.73172 5.26796 0
M  V30 4555 H 445.51 -4.37883 3.56257 0
M  V30 4556 N 444.908 -1.36708 -0.784132 0
M  V30 4557 C 446.154 -1.31426 -1.54451 0
M  V30 4558 C 446.487 0.10476 -1.93917 0
M  V30 4559 O 445.762 1.05934 -1.6312 0
M  V30 4560 C 446.045 -2.24189 -2.818 0
M  V30 4561 C 445.898 -3.74813 -2.48667 0
M  V30 4562 C 447.217 -2.15626 -3.83658 0
M  V30 4563 H 444.336 -0.478739 -0.560337 0
M  V30 4564 H 446.978 -1.67305 -0.900498 0
M  V30 4565 H 445.128 -1.93722 -3.36755 0
M  V30 4566 H 446.8 -4.15823 -1.99722 0
M  V30 4567 H 445.043 -3.93989 -1.81535 0
M  V30 4568 H 445.714 -4.35138 -3.39646 0
M  V30 4569 H 448.19 -2.42456 -3.38163 0
M  V30 4570 H 447.066 -2.82694 -4.70506 0
M  V30 4571 H 447.327 -1.14522 -4.27009 0
M  V30 4572 N 446.386 1.0089 -1.21074 0
M  V30 4573 C 447.634 1.74262 -1.02358 0
M  V30 4574 C 447.955 1.89869 0.444393 0
M  V30 4575 O 447.225 1.44677 1.32081 0
M  V30 4576 H 445.805 0.645615 -0.375754 0
M  V30 4577 H 448.467 1.21596 -1.52317 0
M  V30 4578 H 447.563 2.74328 -1.4883 0
M  V30 4579 N 447.864 1.01787 1.20321 0
M  V30 4580 C 449.275 0.739307 1.71438 0
M  V30 4581 C 449.626 -0.742041 1.81627 0
M  V30 4582 O 448.751 -1.57903 1.47971 0
M  V30 4583 C 449.346 1.33538 3.11373 0
M  V30 4584 C 447.905 1.10566 3.59795 0
M  V30 4585 C 447.052 1.44028 2.36962 0
M  V30 4586 H 450.003 1.18718 1.05317 0
M  V30 4587 H 450.024 0.726611 3.73498 0
M  V30 4588 H 449.536 2.41352 3.03926 0
M  V30 4589 H 447.637 0.0452405 3.72573 0
M  V30 4590 H 447.75 1.78661 4.44542 0
M  V30 4591 H 446.114 0.85933 2.39766 0
M  V30 4592 H 446.897 2.52901 2.32155 0
M  V30 4593 N 449.342 -1.36122 0.79427 0
M  V30 4594 C 450.588 -1.99406 0.369452 0
M  V30 4595 C 450.921 -1.62886 -1.05743 0
M  V30 4596 O 450.196 -0.886053 -1.73145 0
M  V30 4597 C 450.479 -3.56046 0.538833 0
M  V30 4598 C 450.332 -4.02404 2.00976 0
M  V30 4599 C 451.651 -4.40079 -0.0431359 0
M  V30 4600 H 448.77 -0.724397 0.135712 0
M  V30 4601 H 451.412 -1.61461 1.00151 0
M  V30 4602 H 449.562 -3.885 0.000771004 0
M  V30 4603 H 451.234 -3.80415 2.60926 0
M  V30 4604 H 449.477 -3.53765 2.51063 0
M  V30 4605 H 450.148 -5.11344 2.07922 0
M  V30 4606 H 452.624 -4.14013 0.416228 0
M  V30 4607 H 451.5 -5.48799 0.105374 0
M  V30 4608 H 451.761 -4.27264 -1.13571 0
M  V30 4609 N 450.82 -0.546701 -1.47814 0
M  V30 4610 C 452.097 0.0464413 -1.95545 0
M  V30 4611 C 452.477 1.4962 -1.48919 0
M  V30 4612 O 451.825 2.16752 -0.723232 0
M  V30 4613 C 452.035 -0.0881298 -3.48889 0
M  V30 4614 C 453.383 0.0626059 -4.24554 0
M  V30 4615 O 454.407 -0.0151555 -3.56197 0
M  V30 4616 O 453.266 0.228071 -5.46024 0
M  V30 4617 H 450.36 0.0700004 -0.824032 0
M  V30 4618 H 452.906 -0.612482 -1.58262 0
M  V30 4619 H 451.678 -1.09737 -3.75597 0
M  V30 4620 H 451.301 0.608886 -3.9291 0
M  V30 4621 N 452.299 1.55045 -0.282633 0
M  V30 4622 C 453.209 2.26491 0.61147 0
M  V30 4623 C 454.225 1.29348 1.16384 0
M  V30 4624 O 455.401 1.62298 1.19253 0
M  V30 4625 C 452.466 2.97779 1.77563 0
M  V30 4626 C 451.527 4.10418 1.25919 0
M  V30 4627 C 450.76 4.78297 2.36786 0
M  V30 4628 O 450.983 4.45426 3.56303 0
M  V30 4629 O 449.917 5.66089 2.04517 0
M  V30 4630 H 453.743 3.03683 0.0324615 0
M  V30 4631 H 451.328 1.49317 -0.0497576 0
M  V30 4632 H 453.21 3.42554 2.45427 0
M  V30 4633 H 451.885 2.23498 2.34159 0
M  V30 4634 H 450.792 3.70082 0.546797 0
M  V30 4635 H 452.125 4.86622 0.738887 0
M  V30 4636 N 453.777 0.010035 1.57597 0
M  V30 4637 C 455.023 -0.673697 1.91283 0
M  V30 4638 C 455.356 -1.72863 0.884979 0
M  V30 4639 O 454.631 -1.94268 -0.0949487 0
M  V30 4640 C 454.914 -1.30766 3.35518 0
M  V30 4641 C 454.767 -0.263578 4.49027 0
M  V30 4642 C 456.086 -2.23105 3.79358 0
M  V30 4643 H 453.205 -0.243439 0.695634 0
M  V30 4644 H 455.847 0.0633864 1.89894 0
M  V30 4645 H 453.997 -1.93588 3.36832 0
M  V30 4646 H 455.669 0.365738 4.59848 0
M  V30 4647 H 453.912 0.413077 4.31829 0
M  V30 4648 H 454.583 -0.746398 5.4693 0
M  V30 4649 H 457.059 -1.70289 3.79659 0
M  V30 4650 H 455.935 -2.64424 4.81011 0
M  V30 4651 H 456.196 -3.11433 3.13787 0
M  V30 4652 N 455.255 -1.55392 -0.262866 0
M  V30 4653 C 456.671 -1.47459 -0.610582 0
M  V30 4654 C 456.871 -0.697031 -1.8906 0
M  V30 4655 O 455.927 -0.219952 -2.5154 0
M  V30 4656 C 457.24 -2.91751 -0.728131 0
M  V30 4657 C 458.788 -3.02027 -0.821517 0
M  V30 4658 C 459.263 -4.47594 -0.97076 0
M  V30 4659 N 460.754 -4.51465 -1.03603 0
M  V30 4660 C 461.489 -5.61326 -1.17049 0
M  V30 4661 N 460.985 -6.81032 -1.2715 0
M  V30 4662 N 462.778 -5.49089 -1.20239 0
M  V30 4663 H 454.929 -2.04395 0.577632 0
M  V30 4664 H 457.192 -0.927287 0.197086 0
M  V30 4665 H 456.898 -3.51413 0.142132 0
M  V30 4666 H 456.772 -3.4134 -1.6052 0
M  V30 4667 H 459.159 -2.42456 -1.68224 0
M  V30 4668 H 459.24 -2.55674 0.0803688 0
M  V30 4669 H 458.884 -5.07771 -0.114655 0
M  V30 4670 H 458.814 -4.91613 -1.88745 0
M  V30 4671 H 461.305 -3.6524 -0.96996 0
M  V30 4672 H 461.618 -7.60511 -1.37271 0
M  V30 4673 H 459.963 -6.83824 -1.24136 0
M  V30 4674 H 463.154 -4.54507 -1.11985 0
M  V30 4675 H 463.327 -6.34749 -1.30373 0
M  V30 4676 N 456.733 0.527833 -1.48498 0
M  V30 4677 C 457.643 1.65907 -1.65867 0
M  V30 4678 C 458.659 1.6537 -0.541192 0
M  V30 4679 O 459.835 1.84282 -0.812534 0
M  V30 4680 C 456.9 3.02364 -1.69637 0
M  V30 4681 C 455.961 3.1374 -2.93028 0
M  V30 4682 C 455.194 4.43688 -2.96609 0
M  V30 4683 O 455.417 5.30913 -2.08538 0
M  V30 4684 O 454.351 4.59475 -3.88802 0
M  V30 4685 H 458.177 1.5419 -2.61647 0
M  V30 4686 H 455.762 0.701163 -1.31924 0
M  V30 4687 H 457.644 3.83515 -1.74625 0
M  V30 4688 H 456.319 3.14401 -0.770312 0
M  V30 4689 H 455.226 2.31877 -2.93571 0
M  V30 4690 H 456.559 3.06621 -3.85026 0
M  V30 4691 N 458.211 1.37122 0.776871 0
M  V30 4692 C 459.141 1.35164 1.90402 0
M  V30 4693 C 460.122 0.221069 1.68657 0
M  V30 4694 O 461.307 0.420642 1.8959 0
M  V30 4695 C 458.437 1.15274 3.27611 0
M  V30 4696 C 457.391 2.25289 3.63908 0
M  V30 4697 C 456.717 1.90527 4.99603 0
M  V30 4698 C 458.017 3.67446 3.71188 0
M  V30 4699 H 459.711 2.29482 1.92297 0
M  V30 4700 H 457.257 1.10465 0.923773 0
M  V30 4701 H 459.21 1.12536 4.06096 0
M  V30 4702 H 457.934 0.174102 3.26136 0
M  V30 4703 H 456.593 2.27174 2.87728 0
M  V30 4704 H 456.241 0.91206 4.94662 0
M  V30 4705 H 455.941 2.64193 5.24858 0
M  V30 4706 H 457.465 1.89367 5.80493 0
M  V30 4707 H 458.879 3.67719 4.39836 0
M  V30 4708 H 457.276 4.40123 4.07936 0
M  V30 4709 H 458.346 4.01443 2.71977 0
M  V30 4710 N 459.689 -1.00246 1.21608 0
M  V30 4711 C 460.621 -2.09244 0.935401 0
M  V30 4712 C 461.634 -1.62592 -0.0823594 0
M  V30 4713 O 462.823 -1.77865 0.150456 0
M  V30 4714 C 459.923 -3.36724 0.383453 0
M  V30 4715 C 459.096 -4.1245 1.45615 0
M  V30 4716 C 458.155 -5.18219 0.912991 0
M  V30 4717 O 457.181 -5.46337 1.59701 0
M  V30 4718 N 458.383 -5.7987 -0.270478 0
M  V30 4719 H 461.148 -2.33905 1.87373 0
M  V30 4720 H 458.709 -1.16748 1.12167 0
M  V30 4721 H 460.701 -4.047 0.00562157 0
M  V30 4722 H 459.271 -3.09201 -0.459758 0
M  V30 4723 H 458.491 -3.39241 2.00772 0
M  V30 4724 H 459.779 -4.59819 2.17817 0
M  V30 4725 H 459.177 -5.59381 -0.843195 0
M  V30 4726 H 457.734 -6.49126 -0.589794 0
M  V30 4727 N 461.167 -1.02423 -1.1978 0
M  V30 4728 C 462.114 -0.601023 -2.22837 0
M  V30 4729 C 463.084 0.382801 -1.61629 0
M  V30 4730 O 464.269 0.280514 -1.88727 0
M  V30 4731 C 461.409 0.0467755 -3.45068 0
M  V30 4732 C 460.522 -0.98253 -4.20678 0
M  V30 4733 C 459.657 -0.304982 -5.30324 0
M  V30 4734 C 458.696 -1.32052 -5.97686 0
M  V30 4735 N 457.833 -0.669105 -6.98904 0
M  V30 4736 H 462.673 -1.48444 -2.58396 0
M  V30 4737 H 460.21 -0.742936 -1.2696 0
M  V30 4738 H 462.168 0.439556 -4.14878 0
M  V30 4739 H 460.798 0.893796 -3.10179 0
M  V30 4740 H 459.85 -1.49341 -3.49859 0
M  V30 4741 H 461.162 -1.75455 -4.66923 0
M  V30 4742 H 460.316 0.142893 -6.06532 0
M  V30 4743 H 459.055 0.499283 -4.85138 0
M  V30 4744 H 458.06 -1.7787 -5.20233 0
M  V30 4745 H 459.285 -2.1262 -6.44957 0
M  V30 4746 H 457.231 0.115152 -6.55899 0
M  V30 4747 H 457.148 -1.37908 -7.43315 0
M  V30 4748 H 458.416 -0.245076 -7.79115 0
M  V30 4749 N 462.645 1.35699 -0.801477 0
M  V30 4750 C 463.608 2.28199 -0.213994 0
M  V30 4751 C 464.608 1.49359 0.595691 0
M  V30 4752 O 465.798 1.69186 0.414921 0
M  V30 4753 C 462.93 3.33587 0.702297 0
M  V30 4754 H 464.123 2.81666 -1.02976 0
M  V30 4755 H 461.676 1.45467 -0.571759 0
M  V30 4756 H 462.411 2.85297 1.54195 0
M  V30 4757 H 462.196 3.91906 0.123484 0
M  V30 4758 H 463.686 4.02638 1.10783 0
M  V30 4759 N 464.123 0.554532 1.47522 0
M  V30 4760 C 465.372 0.0273458 2.01681 0
M  V30 4761 C 465.685 -1.32962 1.43459 0
M  V30 4762 O 466.891 -1.94657 1.89265 0
M  V30 4763 C 465.347 -0.00159057 3.599 0
M  V30 4764 C 464.955 1.35197 4.27113 0
M  V30 4765 C 466.699 -0.476311 4.21819 0
M  V30 4766 C 464.606 1.28229 5.77331 0
M  V30 4767 H 463.536 0.00645269 0.753972 0
M  V30 4768 H 466.187 0.701985 1.69542 0
M  V30 4769 H 464.569 -0.741821 3.8899 0
M  V30 4770 H 465.743 2.1097 4.09668 0
M  V30 4771 H 464.058 1.76441 3.77171 0
M  V30 4772 H 466.655 -0.5468 5.31897 0
M  V30 4773 H 466.998 -1.4877 3.8881 0
M  V30 4774 H 467.531 0.20898 3.97251 0
M  V30 4775 H 464.27 2.26959 6.14955 0
M  V30 4776 H 463.79 0.566314 5.97121 0
M  V30 4777 H 465.469 0.983226 6.39485 0
M  V30 4778 N 465.601 -1.54893 0.290851 0
M  V30 4779 C 466.849 -1.99538 -0.320756 0
M  V30 4780 C 467.17 -1.18075 -1.55188 0
M  V30 4781 O 466.44 -0.274162 -1.93972 0
M  V30 4782 H 465.02 -0.737052 -0.121507 0
M  V30 4783 H 467.682 -1.90755 0.399832 0
M  V30 4784 H 466.778 -3.06282 -0.599802 0
M  V30 4785 N 467.08 -0.0183926 -1.57589 0
M  V30 4786 C 468.043 0.951986 -2.08494 0
M  V30 4787 C 469.043 1.26092 -0.997874 0
M  V30 4788 O 470.233 1.20304 -1.25987 0
M  V30 4789 C 467.365 2.27165 -2.54182 0
M  V30 4790 H 468.558 0.511307 -2.95509 0
M  V30 4791 H 466.111 0.229444 -1.54607 0
M  V30 4792 H 466.846 2.75884 -1.70465 0
M  V30 4793 H 466.631 2.06057 -3.33591 0
M  V30 4794 H 468.121 2.9674 -2.93828 0
M  V30 4795 N 468.558 1.5553 0.254621 0
M  V30 4796 C 469.804 1.77262 0.985193 0
M  V30 4797 C 470.137 0.582286 1.85265 0
M  V30 4798 O 469.412 -0.419666 1.89919 0
M  V30 4799 C 469.695 3.0881 1.85225 0
M  V30 4800 C 469.548 4.38233 1.0135 0
M  V30 4801 C 470.867 3.3653 2.83612 0
M  V30 4802 H 467.986 0.644906 0.356742 0
M  V30 4803 H 470.628 1.88264 0.256236 0
M  V30 4804 H 468.778 2.99562 2.47376 0
M  V30 4805 H 470.45 4.59463 0.411269 0
M  V30 4806 H 468.693 4.32636 0.317574 0
M  V30 4807 H 469.364 5.26644 1.65379 0
M  V30 4808 H 471.84 3.45691 2.31596 0
M  V30 4809 H 470.716 4.29805 3.41407 0
M  V30 4810 H 470.977 2.57064 3.59681 0
M  V30 4811 N 470.036 -0.519951 1.48776 0
M  V30 4812 C 471.447 -1.10177 1.50725 0
M  V30 4813 C 471.798 -1.94153 0.282678 0
M  V30 4814 O 470.923 -2.07645 -0.609298 0
M  V30 4815 C 471.518 -2.00482 2.73116 0
M  V30 4816 C 470.077 -2.53862 2.77905 0
M  V30 4817 C 469.224 -1.31047 2.44381 0
M  V30 4818 H 472.175 -0.30473 1.55747 0
M  V30 4819 H 472.196 -2.8491 2.52203 0
M  V30 4820 H 471.708 -1.39335 3.62225 0
M  V30 4821 H 469.809 -3.18702 1.93029 0
M  V30 4822 H 469.922 -2.9231 3.79594 0
M  V30 4823 H 468.286 -1.62953 1.95751 0
M  V30 4824 H 469.069 -0.71637 3.35743 0
M  V30 4825 N 471.514 -1.37532 -0.769588 0
M  V30 4826 C 472.444 -1.36172 -1.89682 0
M  V30 4827 C 473.425 -0.23001 -1.68538 0
M  V30 4828 O 474.61 -0.43069 -1.89364 0
M  V30 4829 C 471.74 -1.1701 -3.26995 0
M  V30 4830 C 470.694 -2.27216 -3.62708 0
M  V30 4831 C 470.02 -1.93174 -4.98586 0
M  V30 4832 C 471.32 -3.6941 -3.69234 0
M  V30 4833 H 473.014 -2.30499 -1.91078 0
M  V30 4834 H 470.56 -1.10953 -0.917902 0
M  V30 4835 H 472.513 -1.14688 -4.05493 0
M  V30 4836 H 471.237 -0.191395 -3.26039 0
M  V30 4837 H 469.896 -2.28697 -2.86519 0
M  V30 4838 H 469.544 -0.938281 -4.94171 0
M  V30 4839 H 469.244 -2.66973 -5.23449 0
M  V30 4840 H 470.768 -1.92443 -5.79481 0
M  V30 4841 H 472.182 -3.70047 -4.37879 0
M  V30 4842 H 470.579 -4.4228 -4.05597 0
M  V30 4843 H 471.649 -4.0288 -2.69844 0
M  V30 4844 N 472.992 0.995999 -1.22138 0
M  V30 4845 C 474.241 1.72928 -1.03821 0
M  V30 4846 C 474.554 1.90872 0.427444 0
M  V30 4847 O 475.76 2.61496 0.730212 0
M  V30 4848 C 474.216 3.11124 -1.80913 0
M  V30 4849 C 473.824 3.01122 -3.31707 0
M  V30 4850 C 475.568 3.8852 -1.71035 0
M  V30 4851 C 473.475 4.34453 -4.01253 0
M  V30 4852 H 472.405 0.648376 -0.384869 0
M  V30 4853 H 475.056 1.11213 -1.45959 0
M  V30 4854 H 473.438 3.73503 -1.31573 0
M  V30 4855 H 474.612 2.47926 -3.88419 0
M  V30 4856 H 472.927 2.3721 -3.42228 0
M  V30 4857 H 475.524 4.872 -2.20318 0
M  V30 4858 H 475.867 4.1087 -0.670196 0
M  V30 4859 H 476.4 3.32812 -2.17902 0
M  V30 4860 H 473.139 4.17303 -5.05508 0
M  V30 4861 H 472.659 4.87574 -3.49331 0
M  V30 4862 H 474.338 5.03215 -4.06674 0
M  V30 4863 N 474.47 1.03057 1.19235 0
M  V30 4864 C 475.402 0.570932 2.21975 0
M  V30 4865 C 476.415 -0.354088 1.58903 0
M  V30 4866 O 477.604 -0.150211 1.77867 0
M  V30 4867 C 474.704 -0.187152 3.38383 0
M  V30 4868 C 473.877 0.743231 4.31039 0
M  V30 4869 C 472.936 0.0302493 5.26191 0
M  V30 4870 O 471.962 0.657371 5.65391 0
M  V30 4871 N 473.164 -1.23991 5.67104 0
M  V30 4872 H 475.929 1.45456 2.62036 0
M  V30 4873 H 473.49 0.909807 1.33918 0
M  V30 4874 H 475.482 -0.673715 3.99053 0
M  V30 4875 H 474.052 -0.972205 2.97098 0
M  V30 4876 H 473.272 1.40985 3.68126 0
M  V30 4877 H 474.56 1.3755 4.89854 0
M  V30 4878 H 473.958 -1.77011 5.37293 0
M  V30 4879 H 472.515 -1.67093 6.30018 0
M  V30 4880 N 475.948 -1.35272 0.808662 0
M  V30 4881 C 477.196 -1.98316 0.389233 0
M  V30 4882 C 477.517 -1.64465 -1.04767 0
M  V30 4883 O 476.787 -0.928175 -1.72516 0
M  V30 4884 H 475.367 -0.733585 0.140935 0
M  V30 4885 H 478.029 -1.6515 1.03496 0
M  V30 4886 H 477.125 -3.08123 0.496631 0
M  V30 4887 N 477.426 -0.562348 -1.47226 0
M  V30 4888 C 478.336 0.185466 -2.33866 0
M  V30 4889 C 479.352 0.906713 -1.48508 0
M  V30 4890 O 480.528 0.874458 -1.81425 0
M  V30 4891 C 477.593 1.19904 -3.25306 0
M  V30 4892 C 476.654 0.484669 -4.26555 0
M  V30 4893 C 475.887 1.44996 -5.13626 0
M  V30 4894 O 476.11 2.68515 -5.03245 0
M  V30 4895 O 475.044 0.971642 -5.94006 0
M  V30 4896 H 478.87 -0.525361 -2.99121 0
M  V30 4897 H 476.455 -0.322916 -1.45868 0
M  V30 4898 H 478.337 1.78399 -3.81774 0
M  V30 4899 H 477.012 1.8917 -2.62672 0
M  V30 4900 H 475.919 -0.141605 -3.73832 0
M  V30 4901 H 477.252 -0.166634 -4.91918 0
M  V30 4902 N 478.904 1.54736 -0.299062 0
M  V30 4903 C 480.134 2.04215 0.312992 0
M  V30 4904 C 480.542 1.17596 1.48215 0
M  V30 4905 O 479.885 0.193835 1.82674 0
M  V30 4906 C 479.947 3.49696 0.833862 0
M  V30 4907 C 479.611 4.56518 -0.20977 0
M  V30 4908 C 480.608 5.09442 -1.03756 0
M  V30 4909 C 478.293 5.01073 -0.35091 0
M  V30 4910 C 480.287 6.05459 -1.99244 0
M  V30 4911 C 477.974 5.9691 -1.30924 0
M  V30 4912 C 478.972 6.48987 -2.1285 0
M  V30 4913 O 478.66 7.42947 -3.07059 0
M  V30 4914 H 478.392 0.672128 0.0722494 0
M  V30 4915 H 480.946 2.00718 -0.436043 0
M  V30 4916 H 479.176 3.5051 1.63339 0
M  V30 4917 H 480.865 3.82381 1.36159 0
M  V30 4918 H 481.631 4.75816 -0.939376 0
M  V30 4919 H 477.51 4.60168 0.276813 0
M  V30 4920 H 481.054 6.46031 -2.63229 0
M  V30 4921 H 476.951 6.29953 -1.40815 0
M  V30 4922 H 477.719 7.60743 -3.02015 0
M  V30 4923 N 480.382 0.0267497 1.57577 0
M  V30 4924 C 481.315 -0.99059 2.05579 0
M  V30 4925 C 482.293 -1.31884 0.951065 0
M  V30 4926 O 483.477 -1.43592 1.22121 0
M  V30 4927 C 480.604 -2.31125 2.47586 0
M  V30 4928 C 479.65 -2.13777 3.69055 0
M  V30 4929 S 480.483 -1.4388 5.15809 0
M  V30 4930 C 481.639 -2.77321 5.6111 0
M  V30 4931 H 481.872 -0.581976 2.91548 0
M  V30 4932 H 479.405 -0.184876 1.53289 0
M  V30 4933 H 481.363 -3.07049 2.72454 0
M  V30 4934 H 480.024 -2.6912 1.61967 0
M  V30 4935 H 479.217 -3.11405 3.96287 0
M  V30 4936 H 478.819 -1.45996 3.44327 0
M  V30 4937 H 481.111 -3.73565 5.65204 0
M  V30 4938 H 482.054 -2.54756 6.60685 0
M  V30 4939 H 482.462 -2.82459 4.88751 0
M  V30 4940 N 481.861 -1.55662 -0.24637 0
M  V30 4941 C 483.11 -1.7672 -0.972254 0
M  V30 4942 C 483.423 -0.59078 -1.86465 0
M  V30 4943 O 484.629 -0.684391 -2.62732 0
M  V30 4944 C 483.085 -3.12869 -1.7788 0
M  V30 4945 C 482.693 -4.38161 -0.933768 0
M  V30 4946 C 484.437 -3.43265 -2.49738 0
M  V30 4947 C 482.344 -5.6534 -1.73623 0
M  V30 4948 H 481.274 -0.658795 -0.366749 0
M  V30 4949 H 483.925 -1.82092 -0.226902 0
M  V30 4950 H 482.307 -3.01606 -2.56612 0
M  V30 4951 H 483.481 -4.60413 -0.188736 0
M  V30 4952 H 481.796 -4.15102 -0.328488 0
M  V30 4953 H 484.393 -4.35501 -3.10231 0
M  V30 4954 H 484.736 -2.64614 -3.2138 0
M  V30 4955 H 485.269 -3.55746 -1.78016 0
M  V30 4956 H 482.008 -6.46814 -1.06354 0
M  V30 4957 H 481.528 -5.47188 -2.45653 0
M  V30 4958 H 483.207 -6.04616 -2.30323 0
M  V30 4959 N 483.339 0.512053 -1.4905 0
M  V30 4960 C 484.75 1.09376 -1.51307 0
M  V30 4961 C 485.101 1.94 -0.292971 0
M  V30 4962 O 484.226 2.07965 0.598277 0
M  V30 4963 C 484.821 1.99031 -2.74176 0
M  V30 4964 C 483.38 2.52385 -2.79247 0
M  V30 4965 C 482.527 1.29749 -2.45073 0
M  V30 4966 H 485.478 0.296467 -1.55906 0
M  V30 4967 H 485.499 2.83569 -2.53711 0
M  V30 4968 H 485.011 1.37412 -3.62959 0
M  V30 4969 H 483.112 3.17673 -1.94716 0
M  V30 4970 H 483.225 2.90293 -3.81139 0
M  V30 4971 H 481.589 1.61912 -1.96612 0
M  V30 4972 H 482.372 0.698555 -3.36118 0
M  V30 4973 N 484.817 1.37938 0.762283 0
M  V30 4974 C 486.057 1.35076 1.53407 0
M  V30 4975 C 486.421 -0.061546 1.91901 0
M  V30 4976 O 487.622 -0.214973 2.67939 0
M  V30 4977 C 485.893 2.27206 2.75884 0
M  V30 4978 S 487.452 2.42283 3.65848 0
M  V30 4979 H 484.27 0.479387 0.52508 0
M  V30 4980 H 486.872 1.7378 0.895586 0
M  V30 4981 H 485.576 3.28724 2.457 0
M  V30 4982 H 485.107 1.8962 3.44685 0
M  V30 4983 H 487.122 1.64044 4.68299 0
M  V30 4984 N 486.295 -0.989507 1.22664 0
M  V30 4985 C 487.205 -2.11449 1.01619 0
M  V30 4986 C 488.221 -1.73962 -0.036545 0
M  V30 4987 O 489.397 -2.00788 0.156924 0
M  V30 4988 C 486.462 -3.41465 0.600204 0
M  V30 4989 C 485.523 -3.93033 1.72695 0
M  V30 4990 C 484.756 -5.16844 1.33071 0
M  V30 4991 O 484.979 -5.7001 0.210975 0
M  V30 4992 O 483.913 -5.6225 2.14845 0
M  V30 4993 H 487.739 -2.32088 1.9588 0
M  V30 4994 H 485.324 -1.09823 1.01289 0
M  V30 4995 H 487.206 -4.19695 0.37873 0
M  V30 4996 H 485.881 -3.22178 -0.313511 0
M  V30 4997 H 484.788 -3.15961 2.00298 0
M  V30 4998 H 486.121 -4.16758 2.61865 0
M  V30 4999 N 487.773 -1.03688 -1.18687 0
M  V30 5000 C 488.72 -0.624624 -2.22187 0
M  V30 5001 C 489.69 0.365636 -1.62026 0
M  V30 5002 O 490.875 0.260481 -1.89014 0
M  V30 5003 C 488.015 0.0101738 -3.45099 0
M  V30 5004 C 487.128 -1.02709 -4.19613 0
M  V30 5005 C 486.263 -0.361213 -5.2997 0
M  V30 5006 C 485.302 -1.38384 -5.96252 0
M  V30 5007 N 484.439 -0.743196 -6.98155 0
M  V30 5008 H 489.279 -1.51176 -2.56807 0
M  V30 5009 H 486.816 -0.75636 -1.26165 0
M  V30 5010 H 488.774 0.395528 -4.15321 0
M  V30 5011 H 487.404 0.860848 -3.1111 0
M  V30 5012 H 486.456 -1.53043 -3.48256 0
M  V30 5013 H 487.768 -1.80398 -4.65036 0
M  V30 5014 H 486.922 0.0785537 -6.06649 0
M  V30 5015 H 485.661 0.447799 -4.8564 0
M  V30 5016 H 484.666 -1.83378 -5.18317 0
M  V30 5017 H 485.891 -2.19448 -6.42666 0
M  V30 5018 H 483.837 0.0455789 -6.55984 0
M  V30 5019 H 483.754 -1.45784 -7.41811 0
M  V30 5020 H 485.022 -0.327698 -7.78811 0
M  V30 5021 N 489.251 1.34841 -0.815825 0
M  V30 5022 C 490.497 1.98793 -0.401129 0
M  V30 5023 C 490.83 1.64548 1.03139 0
M  V30 5024 O 490.105 0.913487 1.71714 0
M  V30 5025 C 490.388 3.55143 -0.595409 0
M  V30 5026 C 490.241 3.99155 -2.07352 0
M  V30 5027 C 491.56 4.40092 -0.0268823 0
M  V30 5028 H 488.679 0.722146 -0.14722 0
M  V30 5029 H 491.321 1.59847 -1.02707 0
M  V30 5030 H 489.471 3.8845 -0.0625779 0
M  V30 5031 H 491.143 3.76216 -2.66945 0
M  V30 5032 H 489.386 3.49726 -2.56659 0
M  V30 5033 H 490.057 5.07971 -2.1603 0
M  V30 5034 H 492.533 4.13298 -0.482042 0
M  V30 5035 H 491.409 5.48562 -0.19267 0
M  V30 5036 H 491.67 4.29016 1.06759 0
M  V30 5037 N 490.729 0.570148 1.46925 0
M  V30 5038 C 491.954 0.0542592 2.07329 0
M  V30 5039 C 492.379 -1.23582 1.41806 0
M  V30 5040 O 491.737 -1.74341 0.497479 0
M  V30 5041 C 491.785 -0.111175 3.60429 0
M  V30 5042 O 490.889 -1.17071 3.95434 0
M  V30 5043 H 490.23 0.0571425 0.661537 0
M  V30 5044 H 492.76 0.789516 1.88753 0
M  V30 5045 H 492.77 -0.321315 4.06733 0
M  V30 5046 H 491.445 0.831012 4.07513 0
M  V30 5047 H 490.022 -0.940029 3.60857 0
M  V30 5048 N 492.207 -1.54576 0.307264 0
M  V30 5049 C 493.435 -2.04675 -0.302597 0
M  V30 5050 C 493.85 -1.18425 -1.47041 0
M  V30 5051 O 493.207 -0.211257 -1.81273 0
M  V30 5052 C 493.258 -3.53575 -0.752801 0
M  V30 5053 O 492.979 -4.36547 0.368536 0
M  V30 5054 C 494.48 -4.19699 -1.42717 0
M  V30 5055 H 491.7 -0.66786 -0.0648374 0
M  V30 5056 H 494.244 -1.99516 0.448716 0
M  V30 5057 H 492.399 -3.59074 -1.45412 0
M  V30 5058 H 492.813 -5.24497 0.0168937 0
M  V30 5059 H 494.287 -5.25388 -1.69327 0
M  V30 5060 H 494.764 -3.69815 -2.36925 0
M  V30 5061 H 495.37 -4.18293 -0.768856 0
M  V30 5062 N 493.685 -0.035106 -1.57561 0
M  V30 5063 C 494.615 0.942993 -2.13612 0
M  V30 5064 C 495.596 1.33531 -1.05373 0
M  V30 5065 O 496.781 1.41287 -1.33235 0
M  V30 5066 C 493.911 2.22332 -2.66807 0
M  V30 5067 C 492.865 1.97156 -3.79886 0
M  V30 5068 C 492.191 3.31506 -4.19533 0
M  V30 5069 C 493.491 1.30596 -5.05709 0
M  V30 5070 H 495.185 0.476179 -2.95589 0
M  V30 5071 H 492.731 0.227602 -1.4219 0
M  V30 5072 H 494.684 2.91142 -3.04654 0
M  V30 5073 H 493.408 2.7119 -1.81999 0
M  V30 5074 H 492.067 1.30763 -3.42486 0
M  V30 5075 H 491.715 3.78134 -3.31698 0
M  V30 5076 H 491.415 3.15465 -4.95738 0
M  V30 5077 H 492.939 4.01574 -4.59968 0
M  V30 5078 H 494.353 1.89416 -5.41105 0
M  V30 5079 H 492.75 1.24934 -5.86951 0
M  V30 5080 H 493.82 0.279742 -4.84092 0
M  V30 5081 N 495.163 1.55791 0.238111 0
M  V30 5082 C 496.574 1.68383 0.806472 0
M  V30 5083 C 496.925 0.634157 1.85669 0
M  V30 5084 O 496.05 -0.217913 2.153 0
M  V30 5085 C 496.645 3.05268 1.46959 0
M  V30 5086 C 495.204 3.1977 1.98555 0
M  V30 5087 C 494.351 2.64279 0.839763 0
M  V30 5088 H 497.302 1.58694 0.0137535 0
M  V30 5089 H 497.323 3.00203 2.33792 0
M  V30 5090 H 496.835 3.81643 0.704993 0
M  V30 5091 H 494.936 2.48234 2.77868 0
M  V30 5092 H 495.049 4.26788 2.17689 0
M  V30 5093 H 493.413 2.22329 1.24265 0
M  V30 5094 H 494.196 3.43187 0.0881032 0
M  V30 5095 N 496.642 -0.504142 1.49319 0
M  V30 5096 C 497.605 -1.5883 1.65244 0
M  V30 5097 C 498.605 -1.52009 0.524386 0
M  V30 5098 O 499.795 -1.55218 0.79077 0
M  V30 5099 C 496.927 -2.98481 1.64687 0
M  V30 5100 H 498.12 -1.4604 2.61939 0
M  V30 5101 H 495.673 -0.728144 1.38303 0
M  V30 5102 H 496.408 -3.16751 0.695644 0
M  V30 5103 H 496.193 -3.0484 2.46607 0
M  V30 5104 H 497.683 -3.77256 1.79075 0
M  V30 5105 N 498.12 -1.38341 -0.754957 0
M  V30 5106 C 499.369 -1.33791 -1.5094 0
M  V30 5107 C 499.682 0.0699267 -1.95475 0
M  V30 5108 O 500.888 0.237956 -2.70455 0
M  V30 5109 C 499.344 -2.34934 -2.72643 0
M  V30 5110 C 498.952 -3.81332 -2.35138 0
M  V30 5111 C 500.696 -2.39425 -3.50536 0
M  V30 5112 C 498.603 -4.74164 -3.53444 0
M  V30 5113 H 497.533 -0.497314 -0.566741 0
M  V30 5114 H 500.184 -1.63888 -0.825403 0
M  V30 5115 H 498.566 -1.97878 -3.43017 0
M  V30 5116 H 499.74 -4.27319 -1.7244 0
M  V30 5117 H 498.055 -3.79946 -1.70382 0
M  V30 5118 H 500.652 -3.0598 -4.38498 0
M  V30 5119 H 500.995 -1.41278 -3.91594 0
M  V30 5120 H 501.528 -2.75274 -2.87174 0
M  V30 5121 H 498.267 -5.73501 -3.17453 0
M  V30 5122 H 497.787 -4.3287 -4.15191 0
M  V30 5123 H 499.466 -4.92111 -4.20043 0
M  V30 5124 N 499.598 0.982988 -1.23187 0
M  V30 5125 C 500.826 1.75921 -1.08901 0
M  V30 5126 C 501.241 1.85341 0.359719 0
M  V30 5127 O 500.598 1.33072 1.24892 0
M  V30 5128 C 500.649 3.18742 -1.70545 0
M  V30 5129 O 500.37 3.09814 -3.09753 0
M  V30 5130 C 501.871 4.1277 -1.61667 0
M  V30 5131 H 499.091 0.552166 -0.381252 0
M  V30 5132 H 501.635 1.23516 -1.62985 0
M  V30 5133 H 499.79 3.68182 -1.20501 0
M  V30 5134 H 500.204 3.99703 -3.39614 0
M  V30 5135 H 501.678 5.10697 -2.09506 0
M  V30 5136 H 502.155 4.3542 -0.575009 0
M  V30 5137 H 502.761 3.69232 -2.11064 0
M  V30 5138 N 501.076 1.04316 1.18135 0
M  V30 5139 C 502.006 0.657299 2.24058 0
M  V30 5140 C 502.987 -0.340678 1.66654 0
M  V30 5141 O 504.172 -0.220223 1.92947 0
M  V30 5142 C 501.302 0.0220715 3.47293 0
M  V30 5143 C 500.256 0.943857 4.17463 0
M  V30 5144 C 499.582 0.172973 5.3442 0
M  V30 5145 C 500.882 2.26409 4.70677 0
M  V30 5146 H 502.576 1.5428 2.56589 0
M  V30 5147 H 500.122 0.743263 1.23335 0
M  V30 5148 H 502.075 -0.259607 4.206 0
M  V30 5149 H 500.799 -0.898323 3.14003 0
M  V30 5150 H 499.458 1.20996 3.46057 0
M  V30 5151 H 499.106 -0.749907 4.97379 0
M  V30 5152 H 498.806 0.787098 5.82304 0
M  V30 5153 H 500.33 -0.101628 6.10515 0
M  V30 5154 H 501.744 2.04294 5.35665 0
M  V30 5155 H 500.141 2.8314 5.29105 0
M  V30 5156 H 501.211 2.90883 3.87962 0
M  V30 5157 N 502.554 -1.34406 0.822964 0
M  V30 5158 C 503.501 -2.29519 0.24284 0
M  V30 5159 C 504.471 -1.5359 -0.632397 0
M  V30 5160 O 505.656 -1.8196 -0.57403 0
M  V30 5161 C 502.796 -3.40032 -0.58925 0
M  V30 5162 C 501.909 -4.30899 0.308236 0
M  V30 5163 C 501.044 -5.28515 -0.533425 0
M  V30 5164 C 500.083 -6.1102 0.363444 0
M  V30 5165 N 499.22 -7.00725 -0.439147 0
M  V30 5166 H 504.06 -2.78537 1.05929 0
M  V30 5167 H 501.597 -1.3707 0.533872 0
M  V30 5168 H 503.555 -4.0279 -1.087 0
M  V30 5169 H 502.185 -2.92248 -1.37081 0
M  V30 5170 H 501.237 -3.69002 0.924203 0
M  V30 5171 H 502.549 -4.88717 0.997862 0
M  V30 5172 H 501.703 -5.96725 -1.09565 0
M  V30 5173 H 500.442 -4.71235 -1.25656 0
M  V30 5174 H 499.447 -5.41743 0.937812 0
M  V30 5175 H 500.672 -6.70381 1.08469 0
M  V30 5176 H 498.618 -6.45913 -1.14595 0
M  V30 5177 H 498.535 -7.55756 0.19209 0
M  V30 5178 H 499.803 -7.73263 -0.984124 0
M  V30 5179 N 504.032 -0.577932 -1.46621 0
M  V30 5180 C 504.962 0.145917 -2.33044 0
M  V30 5181 C 505.943 0.888412 -1.45056 0
M  V30 5182 O 507.128 0.864812 -1.73881 0
M  V30 5183 C 504.258 1.16322 -3.27241 0
M  V30 5184 C 503.212 0.535868 -4.24632 0
M  V30 5185 C 502.538 1.65929 -5.08303 0
M  V30 5186 C 503.838 -0.523861 -5.19666 0
M  V30 5187 H 505.532 -0.575636 -2.93814 0
M  V30 5188 H 503.078 -0.278272 -1.41286 0
M  V30 5189 H 505.031 1.67793 -3.86553 0
M  V30 5190 H 503.755 1.91498 -2.64567 0
M  V30 5191 H 502.414 0.0422759 -3.66576 0
M  V30 5192 H 502.062 2.40061 -4.42018 0
M  V30 5193 H 501.762 1.2452 -5.74255 0
M  V30 5194 H 503.286 2.17686 -5.70478 0
M  V30 5195 H 504.7 -0.0944059 -5.73222 0
M  V30 5196 H 503.097 -0.858 -5.93935 0
M  V30 5197 H 504.167 -1.41197 -4.63887 0
M  V30 5198 N 505.51 1.54411 -0.315457 0
M  V30 5199 C 506.758 2.00023 0.288971 0
M  V30 5200 C 507.079 1.20529 1.5329 0
M  V30 5201 O 506.349 0.304986 1.93511 0
M  V30 5202 H 504.929 0.738891 0.109766 0
M  V30 5203 H 507.591 1.90094 -0.430129 0
M  V30 5204 H 506.687 3.07198 0.550999 0
M  V30 5205 N 506.988 0.0434614 1.5754 0
M  V30 5206 C 508.236 -0.630786 1.92004 0
M  V30 5207 C 508.557 -1.71836 0.921807 0
M  V30 5208 O 507.827 -1.9587 -0.034522 0
M  V30 5209 H 506.407 -0.235988 0.708745 0
M  V30 5210 H 509.069 0.0946462 1.9467 0
M  V30 5211 H 508.165 -1.07434 2.93026 0
M  V30 5212 N 508.466 -1.55915 -0.229846 0
M  V30 5213 C 509.413 -1.91734 -1.28478 0
M  V30 5214 C 510.383 -0.773539 -1.46988 0
M  V30 5215 O 511.568 -1.02871 -1.60693 0
M  V30 5216 C 508.708 -2.23224 -2.63182 0
M  V30 5217 C 507.821 -3.50497 -2.52539 0
M  V30 5218 C 506.956 -3.71474 -3.79711 0
M  V30 5219 C 505.995 -4.92289 -3.63755 0
M  V30 5220 N 505.132 -5.09698 -4.82858 0
M  V30 5221 H 509.972 -2.81692 -0.972308 0
M  V30 5222 H 507.509 -1.39429 -0.468815 0
M  V30 5223 H 509.467 -2.3949 -3.41614 0
M  V30 5224 H 508.097 -1.36451 -2.92542 0
M  V30 5225 H 507.149 -3.4247 -1.65585 0
M  V30 5226 H 508.461 -4.39079 -2.36666 0
M  V30 5227 H 507.615 -3.87791 -4.66586 0
M  V30 5228 H 506.354 -2.81157 -3.985 0
M  V30 5229 H 505.359 -4.7593 -2.75264 0
M  V30 5230 H 506.584 -5.84083 -3.46445 0
M  V30 5231 H 504.53 -4.22322 -5.01976 0
M  V30 5232 H 504.447 -5.92399 -4.69681 0
M  V30 5233 H 505.715 -5.30443 -5.71183 0
M  V30 5234 N 509.944 0.496216 -1.49584 0
M  V30 5235 C 511.192 1.24756 -1.58998 0
M  V30 5236 C 511.513 1.92968 -0.280775 0
M  V30 5237 O 510.783 1.82959 0.700198 0
M  V30 5238 H 509.363 0.463471 -0.585836 0
M  V30 5239 H 512.025 0.574678 -1.86235 0
M  V30 5240 H 511.121 2.00895 -2.38847 0
M  V30 5241 N 511.423 1.38739 0.74761 0
M  V30 5242 C 512.653 1.3832 1.53464 0
M  V30 5243 C 513.061 -0.0273464 1.8918 0
M  V30 5244 O 512.404 -1.00588 1.53713 0
M  V30 5245 C 512.466 2.18007 2.85855 0
M  V30 5246 C 512.13 3.66762 2.72644 0
M  V30 5247 C 513.127 4.60124 2.42037 0
M  V30 5248 C 510.812 4.10193 2.89909 0
M  V30 5249 C 512.806 5.94897 2.28859 0
M  V30 5250 C 510.493 5.45045 2.7635 0
M  V30 5251 C 511.491 6.37211 2.45869 0
M  V30 5252 O 511.179 7.69581 2.3238 0
M  V30 5253 H 510.911 0.474718 0.481268 0
M  V30 5254 H 513.465 1.83012 0.932518 0
M  V30 5255 H 511.695 1.68043 3.48279 0
M  V30 5256 H 513.384 2.09921 3.47402 0
M  V30 5257 H 514.15 4.27874 2.28361 0
M  V30 5258 H 510.029 3.38797 3.1263 0
M  V30 5259 H 513.573 6.66802 2.04989 0
M  V30 5260 H 509.47 5.76889 2.89601 0
M  V30 5261 H 510.238 7.80169 2.47546 0
M  V30 5262 N 512.901 -0.976442 1.23707 0
M  V30 5263 C 513.848 -2.06952 1.02174 0
M  V30 5264 C 514.818 -1.65984 -0.0621034 0
M  V30 5265 O 516.003 -1.90584 0.0907906 0
M  V30 5266 C 513.143 -3.39425 0.62327 0
M  V30 5267 C 512.256 -3.9364 1.77966 0
M  V30 5268 C 511.391 -5.14343 1.3276 0
M  V30 5269 C 510.43 -5.60733 2.45449 0
M  V30 5270 N 509.567 -6.72662 2.01172 0
M  V30 5271 H 514.407 -2.24704 1.95734 0
M  V30 5272 H 511.944 -1.10143 0.975034 0
M  V30 5273 H 513.902 -4.15526 0.37332 0
M  V30 5274 H 512.532 -3.21624 -0.275329 0
M  V30 5275 H 511.584 -3.14258 2.14351 0
M  V30 5276 H 512.896 -4.24035 2.62671 0
M  V30 5277 H 512.05 -5.97789 1.03601 0
M  V30 5278 H 510.789 -4.8561 0.450975 0
M  V30 5279 H 509.794 -4.75865 2.75378 0
M  V30 5280 H 511.019 -5.91483 3.33654 0
M  V30 5281 H 508.965 -6.45681 1.15895 0
M  V30 5282 H 508.882 -7.02462 2.79434 0
M  V30 5283 H 510.15 -7.59572 1.75129 0
M  V30 5284 N 514.379 -1.04941 -1.1758 0
M  V30 5285 C 515.309 -0.669172 -2.23706 0
M  V30 5286 C 516.29 0.331835 -1.66832 0
M  V30 5287 O 517.475 0.209988 -1.93061 0
M  V30 5288 C 514.605 -0.0404889 -3.47276 0
M  V30 5289 C 513.559 -0.965983 -4.16957 0
M  V30 5290 C 512.885 -0.201312 -5.34321 0
M  V30 5291 C 514.185 -2.28902 -4.69469 0
M  V30 5292 H 515.879 -1.55639 -2.55767 0
M  V30 5293 H 513.425 -0.749793 -1.22939 0
M  V30 5294 H 515.378 0.237298 -4.20731 0
M  V30 5295 H 514.102 0.881658 -3.14475 0
M  V30 5296 H 512.761 -1.22829 -3.45411 0
M  V30 5297 H 512.409 0.723519 -4.97769 0
M  V30 5298 H 512.109 -0.817968 -5.81879 0
M  V30 5299 H 513.633 0.0692499 -6.10561 0
M  V30 5300 H 515.047 -2.07132 -5.34574 0
M  V30 5301 H 513.444 -2.85942 -5.27596 0
M  V30 5302 H 514.514 -2.92937 -3.86414 0
M  V30 5303 N 515.857 1.33968 -0.830081 0
M  V30 5304 C 517.082 2.02813 -0.433796 0
M  V30 5305 C 517.507 1.62076 0.954614 0
M  V30 5306 O 516.865 0.808955 1.62252 0
M  V30 5307 C 516.913 3.56348 -0.552115 0
M  V30 5308 O 516.017 4.10202 0.425191 0
M  V30 5309 H 515.358 0.639817 -0.177567 0
M  V30 5310 H 517.888 1.7106 -1.12248 0
M  V30 5311 H 517.898 4.05722 -0.430513 0
M  V30 5312 H 516.573 3.85344 -1.56471 0
M  V30 5313 H 515.15 3.71979 0.261878 0
M  V30 5314 N 517.335 0.585699 1.46312 0
M  V30 5315 C 518.746 0.159938 1.86014 0
M  V30 5316 C 519.097 -1.27775 1.48889 0
M  V30 5317 O 518.222 -1.96559 0.90519 0
M  V30 5318 C 518.817 0.283485 3.37612 0
M  V30 5319 C 517.376 -0.0874256 3.76298 0
M  V30 5320 C 516.523 0.618055 2.70325 0
M  V30 5321 H 519.474 0.793737 1.37425 0
M  V30 5322 H 519.495 -0.490348 3.77327 0
M  V30 5323 H 519.007 1.32995 3.64601 0
M  V30 5324 H 517.108 -1.13391 3.54927 0
M  V30 5325 H 517.221 0.290975 4.78216 0
M  V30 5326 H 515.585 0.057993 2.54634 0
M  V30 5327 H 516.368 1.66623 3.00153 0
M  V30 5328 N 518.813 -1.54241 0.323641 0
M  V30 5329 C 519.723 -2.28033 -0.551205 0
M  V30 5330 C 520.739 -1.32388 -1.12913 0
M  V30 5331 O 521.915 -1.65403 -1.14908 0
M  V30 5332 C 518.98 -3.02382 -1.69606 0
M  V30 5333 C 518.041 -4.13612 -1.14993 0
M  V30 5334 C 517.274 -4.84407 -2.24022 0
M  V30 5335 O 517.497 -4.54716 -3.44368 0
M  V30 5336 O 516.431 -5.71312 -1.89436 0
M  V30 5337 H 520.257 -3.03662 0.048066 0
M  V30 5338 H 517.842 -1.49133 0.0893289 0
M  V30 5339 H 519.724 -3.48941 -2.36259 0
M  V30 5340 H 518.399 -2.29628 -2.28151 0
M  V30 5341 H 517.306 -3.71402 -0.448484 0
M  V30 5342 H 518.639 -4.8841 -0.609608 0
M  V30 5343 N 520.291 -0.0518155 -1.57515 0
M  V30 5344 C 521.568 0.661727 -1.84067 0
M  V30 5345 C 521.948 1.88999 -0.940351 0
M  V30 5346 O 521.296 2.285 -0.00155404 0
M  V30 5347 C 521.506 1.01841 -3.3381 0
M  V30 5348 C 522.854 1.40043 -4.00841 0
M  V30 5349 O 523.878 1.11073 -3.38439 0
M  V30 5350 O 522.737 1.94111 -5.10865 0
M  V30 5351 H 519.831 0.326702 -0.759733 0
M  V30 5352 H 522.377 -0.0812277 -1.69505 0
M  V30 5353 H 521.149 0.145202 -3.91031 0
M  V30 5354 H 520.772 1.81879 -3.53562 0
M  V30 5355 N 521.769 1.56035 0.221574 0
M  V30 5356 C 522.999 1.82864 0.961468 0
M  V30 5357 C 523.407 0.628703 1.78449 0
M  V30 5358 O 522.75 -0.412109 1.79018 0
M  V30 5359 C 522.812 3.03425 1.92804 0
M  V30 5360 C 522.476 4.38429 1.28954 0
M  V30 5361 C 523.473 5.15441 0.679431 0
M  V30 5362 C 521.158 4.85151 1.30131 0
M  V30 5363 C 523.152 6.37337 0.0896148 0
M  V30 5364 C 520.839 6.06989 0.707651 0
M  V30 5365 C 521.837 6.82923 0.102855 0
M  V30 5366 O 521.525 8.02456 -0.48157 0
M  V30 5367 H 521.257 0.611883 0.28736 0
M  V30 5368 H 523.811 2.0397 0.241932 0
M  V30 5369 H 522.041 2.78138 2.68656 0
M  V30 5370 H 523.73 3.17127 2.53348 0
M  V30 5371 H 524.496 4.80452 0.662661 0
M  V30 5372 H 520.375 4.26021 1.76145 0
M  V30 5373 H 523.919 6.96547 -0.383069 0
M  V30 5374 H 519.816 6.41451 0.721834 0
M  V30 5375 H 520.584 8.17636 -0.375887 0
M  V30 5376 N 523.247 -0.488276 1.49845 0
M  V30 5377 C 524.475 -1.26527 1.63702 0
M  V30 5378 C 524.89 -1.8618 0.313447 0
M  V30 5379 O 524.247 -1.68432 -0.702624 0
M  V30 5380 C 524.298 -2.3864 2.71538 0
M  V30 5381 O 524.019 -1.81437 3.98763 0
M  V30 5382 C 525.52 -3.29805 2.96215 0
M  V30 5383 H 522.74 -0.383295 0.55075 0
M  V30 5384 H 525.284 -0.584779 1.95961 0
M  V30 5385 H 523.439 -3.02496 2.42023 0
M  V30 5386 H 523.853 -2.55135 4.58265 0
M  V30 5387 H 525.327 -4.04722 3.75372 0
M  V30 5388 H 525.804 -3.87563 2.06619 0
M  V30 5389 H 526.41 -2.71703 3.27196 0
M  V30 5390 N 524.725 -1.39134 -0.740242 0
M  V30 5391 C 525.655 -1.40165 -1.86751 0
M  V30 5392 C 526.636 -0.265708 -1.68012 0
M  V30 5393 O 527.821 -0.47076 -1.88408 0
M  V30 5394 C 524.951 -1.2392 -3.2444 0
M  V30 5395 C 523.905 -2.34858 -3.57807 0
M  V30 5396 C 523.231 -2.03707 -4.94376 0
M  V30 5397 C 524.531 -3.77159 -3.61315 0
M  V30 5398 H 526.225 -2.345 -1.86145 0
M  V30 5399 H 523.771 -1.12875 -0.89416 0
M  V30 5400 H 525.724 -1.23263 -4.02969 0
M  V30 5401 H 524.448 -0.26051 -3.25559 0
M  V30 5402 H 523.107 -2.34723 -2.81604 0
M  V30 5403 H 522.755 -1.04289 -4.9207 0
M  V30 5404 H 522.455 -2.78016 -5.17669 0
M  V30 5405 H 523.979 -2.04691 -5.75268 0
M  V30 5406 H 525.393 -3.79252 -4.29931 0
M  V30 5407 H 523.79 -4.50784 -3.96124 0
M  V30 5408 H 524.86 -4.08513 -2.61238 0
M  V30 5409 N 526.204 0.969867 -1.24223 0
M  V30 5410 C 527.151 2.06407 -1.0327 0
M  V30 5411 C 528.121 1.66014 0.0533 0
M  V30 5412 O 529.306 1.90533 -0.100896 0
M  V30 5413 C 526.446 3.3909 -0.641262 0
M  V30 5414 C 525.559 3.9269 -1.80051 0
M  V30 5415 C 524.694 5.13631 -1.35486 0
M  V30 5416 C 523.733 5.59423 -2.48419 0
M  V30 5417 N 522.87 6.71586 -2.04737 0
M  V30 5418 H 527.71 2.23663 -1.96923 0
M  V30 5419 H 525.247 1.09624 -0.980862 0
M  V30 5420 H 527.205 4.15323 -0.395351 0
M  V30 5421 H 525.835 3.21765 0.258269 0
M  V30 5422 H 524.887 3.13116 -2.16014 0
M  V30 5423 H 526.199 4.22636 -2.64916 0
M  V30 5424 H 525.353 5.97231 -1.0677 0
M  V30 5425 H 524.092 4.85364 -0.476722 0
M  V30 5426 H 523.097 4.74398 -2.77897 0
M  V30 5427 H 524.322 5.89705 -3.36786 0
M  V30 5428 H 522.268 6.45058 -1.19318 0
M  V30 5429 H 522.185 7.0097 -2.83156 0
M  V30 5430 H 523.453 7.58633 -1.79154 0
M  V30 5431 N 527.682 1.05563 1.17022 0
M  V30 5432 C 528.928 0.769074 1.87652 0
M  V30 5433 C 529.261 -0.702326 1.81055 0
M  V30 5434 O 528.536 -1.5139 1.22112 0
M  V30 5435 C 528.819 1.25492 3.37526 0
M  V30 5436 C 528.672 2.78953 3.52853 0
M  V30 5437 C 529.991 0.856919 4.31677 0
M  V30 5438 H 527.11 0.280854 0.681388 0
M  V30 5439 H 529.752 1.31027 1.37593 0
M  V30 5440 H 527.902 0.794516 3.80289 0
M  V30 5441 H 529.574 3.33146 3.19079 0
M  V30 5442 H 527.817 3.18046 2.95007 0
M  V30 5443 H 528.488 3.08011 4.58076 0
M  V30 5444 H 530.964 1.25334 3.96775 0
M  V30 5445 H 529.84 1.22443 5.35069 0
M  V30 5446 H 530.101 -0.238787 4.41455 0
M  V30 5447 N 529.16 -1.33526 0.837174 0
M  V30 5448 C 530.385 -2.0258 0.444545 0
M  V30 5449 C 530.81 -1.6258 -0.946006 0
M  V30 5450 O 530.168 -0.817548 -1.6182 0
M  V30 5451 C 530.216 -3.5605 0.571006 0
M  V30 5452 O 529.32 -4.10422 -0.403431 0
M  V30 5453 H 528.661 -0.638866 0.180958 0
M  V30 5454 H 531.191 -1.70462 1.13154 0
M  V30 5455 H 531.201 -4.05488 0.452024 0
M  V30 5456 H 529.876 -3.84509 1.58512 0
M  V30 5457 H 528.453 -3.72113 -0.242147 0
M  V30 5458 N 530.638 -0.59345 -1.46 0
M  V30 5459 C 531.57 0.171569 -2.28557 0
M  V30 5460 C 532.583 0.845273 -1.39137 0
M  V30 5461 O 533.772 0.713033 -1.6364 0
M  V30 5462 C 530.872 1.26311 -3.14482 0
M  V30 5463 C 530.045 0.679258 -4.32094 0
M  V30 5464 C 529.104 1.65987 -4.99334 0
M  V30 5465 O 528.13 1.19171 -5.56585 0
M  V30 5466 N 529.332 2.99414 -4.97324 0
M  V30 5467 H 532.097 -0.536771 -2.94854 0
M  V30 5468 H 529.658 -0.431954 -1.56031 0
M  V30 5469 H 531.65 1.91863 -3.5633 0
M  V30 5470 H 530.22 1.87416 -2.50188 0
M  V30 5471 H 529.44 -0.153992 -3.93899 0
M  V30 5472 H 530.728 0.26916 -5.08088 0
M  V30 5473 H 530.126 3.40064 -4.52076 0
M  V30 5474 H 528.683 3.60426 -5.4308 0
M  V30 5475 N 532.116 1.54067 -0.331816 0
M  V30 5476 C 533.079 2.23275 0.517768 0
M  V30 5477 C 534.079 1.22897 1.03697 0
M  V30 5478 O 535.269 1.47419 0.928084 0
M  V30 5479 C 532.401 2.94326 1.72004 0
M  V30 5480 H 533.594 2.99773 -0.0873507 0
M  V30 5481 H 531.147 1.56079 -0.0830042 0
M  V30 5482 H 531.882 2.21986 2.36417 0
M  V30 5483 H 531.667 3.67941 1.35507 0
M  V30 5484 H 533.157 3.47031 2.32291 0
M  V30 5485 N 533.594 0.0601682 1.57485 0
M  V30 5486 C 534.842 -0.610386 1.92662 0
M  V30 5487 C 535.163 -1.70849 0.939981 0
M  V30 5488 O 534.433 -1.95895 -0.0137455 0
M  V30 5489 H 533.013 -0.228457 0.711208 0
M  V30 5490 H 535.675 0.115288 1.94559 0
M  V30 5491 H 534.771 -1.0432 2.94149 0
M  V30 5492 N 535.072 -1.5615 -0.213296 0
M  V30 5493 C 536.019 -1.93086 -1.26437 0
M  V30 5494 C 536.989 -0.789086 -1.4616 0
M  V30 5495 O 538.174 -1.04569 -1.59593 0
M  V30 5496 C 535.314 -2.26003 -2.608 0
M  V30 5497 C 534.427 -3.53156 -2.48807 0
M  V30 5498 C 533.562 -3.7548 -3.7575 0
M  V30 5499 C 532.601 -4.96119 -3.58514 0
M  V30 5500 N 531.738 -5.14791 -4.77425 0
M  V30 5501 H 536.578 -2.82707 -0.942376 0
M  V30 5502 H 534.115 -1.39919 -0.454001 0
M  V30 5503 H 536.073 -2.431 -3.39055 0
M  V30 5504 H 534.703 -1.39546 -2.91079 0
M  V30 5505 H 533.755 -3.44207 -1.61944 0
M  V30 5506 H 535.067 -4.41565 -2.31996 0
M  V30 5507 H 534.221 -3.92718 -4.62447 0
M  V30 5508 H 532.96 -2.85368 -3.95495 0
M  V30 5509 H 531.965 -4.78823 -2.70201 0
M  V30 5510 H 533.19 -5.87724 -3.40231 0
M  V30 5511 H 531.136 -4.27623 -4.97468 0
M  V30 5512 H 531.053 -5.97347 -4.63371 0
M  V30 5513 H 532.321 -5.36471 -5.65525 0
M  V30 5514 N 536.55 0.480323 -1.50102 0
M  V30 5515 C 537.778 1.25657 -1.64371 0
M  V30 5516 C 538.193 1.86011 -0.323316 0
M  V30 5517 O 537.55 1.68803 0.693682 0
M  V30 5518 C 537.601 2.37197 -2.728 0
M  V30 5519 O 537.322 1.7932 -3.9972 0
M  V30 5520 C 538.823 3.2823 -2.9796 0
M  V30 5521 H 536.043 0.380369 -0.552775 0
M  V30 5522 H 538.587 0.574379 -1.96268 0
M  V30 5523 H 536.742 3.01208 -2.43623 0
M  V30 5524 H 537.156 2.52701 -4.59611 0
M  V30 5525 H 538.63 4.02725 -3.77513 0
M  V30 5526 H 539.107 3.86462 -2.08671 0
M  V30 5527 H 539.713 2.69964 -3.28633 0
M  V30 5528 N 538.028 1.39524 0.732853 0
M  V30 5529 C 538.958 1.41153 1.86005 0
M  V30 5530 C 539.939 0.274614 1.67869 0
M  V30 5531 O 541.124 0.480745 1.88155 0
M  V30 5532 C 538.254 1.25638 3.23778 0
M  V30 5533 C 537.208 2.36752 3.56556 0
M  V30 5534 C 536.534 2.06326 4.93289 0
M  V30 5535 C 537.834 3.79069 3.5931 0
M  V30 5536 H 539.528 2.35484 1.84899 0
M  V30 5537 H 537.074 1.13348 0.888162 0
M  V30 5538 H 539.027 1.25398 4.0231 0
M  V30 5539 H 537.751 0.277772 3.25417 0
M  V30 5540 H 536.41 2.36213 2.80355 0
M  V30 5541 H 536.058 1.06897 4.9151 0
M  V30 5542 H 535.758 2.80757 5.16187 0
M  V30 5543 H 537.282 2.07739 5.74175 0
M  V30 5544 H 538.696 3.81526 4.27914 0
M  V30 5545 H 537.093 4.52878 3.93728 0
M  V30 5546 H 538.163 4.09893 2.59068 0
M  V30 5547 N 539.506 -0.963266 1.24736 0
M  V30 5548 C 540.746 -1.72172 1.10165 0
M  V30 5549 C 541.11 -1.88731 -0.352784 0
M  V30 5550 O 542.311 -2.61549 -0.620107 0
M  V30 5551 C 540.582 -3.0724 1.82589 0
M  V30 5552 S 542.141 -3.98449 1.83803 0
M  V30 5553 H 538.959 -0.591901 0.393922 0
M  V30 5554 H 541.561 -1.14955 1.58132 0
M  V30 5555 H 540.265 -2.92851 2.87518 0
M  V30 5556 H 539.796 -3.69521 1.34973 0
M  V30 5557 H 541.811 -4.87805 0.908883 0
M  V30 5558 N 540.985 -1.06182 -1.16461 0
M  V30 5559 C 541.915 -0.692861 -2.22984 0
M  V30 5560 C 542.896 0.314122 -1.67174 0
M  V30 5561 O 544.081 0.189499 -1.93273 0
M  V30 5562 C 541.211 -0.07732 -3.47214 0
M  V30 5563 C 540.165 -1.01015 -4.15909 0
M  V30 5564 C 539.491 -0.257973 -5.34077 0
M  V30 5565 C 540.791 -2.33868 -4.67015 0
M  V30 5566 H 542.485 -1.58343 -2.54102 0
M  V30 5567 H 540.031 -0.76279 -1.22137 0
M  V30 5568 H 541.984 0.19266 -4.20959 0
M  V30 5569 H 540.708 0.848254 -3.15392 0
M  V30 5570 H 539.367 -1.26486 -3.44088 0
M  V30 5571 H 539.015 0.670684 -4.98509 0
M  V30 5572 H 538.715 -0.879638 -5.80979 0
M  V30 5573 H 540.239 0.00448788 -6.106 0
M  V30 5574 H 541.653 -2.1279 -5.32347 0
M  V30 5575 H 540.05 -2.91522 -5.24533 0
M  V30 5576 H 541.12 -2.97019 -3.83286 0
M  V30 5577 N 542.463 1.3308 -0.844243 0
M  V30 5578 C 543.688 2.02341 -0.455282 0
M  V30 5579 C 544.113 1.6308 0.93737 0
M  V30 5580 O 543.471 0.826118 1.61385 0
M  V30 5581 C 543.519 3.55743 -0.58988 0
M  V30 5582 O 542.623 4.1063 0.38166 0
M  V30 5583 H 541.964 0.637898 -0.184343 0
M  V30 5584 H 544.494 1.6986 -1.14056 0
M  V30 5585 H 544.504 4.05243 -0.473522 0
M  V30 5586 H 543.179 3.83662 -1.60549 0
M  V30 5587 H 541.756 3.72236 0.22241 0
M  V30 5588 N 543.941 0.601185 1.45683 0
M  V30 5589 C 545.189 0.0936957 2.01883 0
M  V30 5590 C 545.51 -1.2779 1.47291 0
M  V30 5591 O 544.78 -1.84279 0.664691 0
M  V30 5592 H 543.36 0.0316466 0.746329 0
M  V30 5593 H 546.022 0.781137 1.78562 0
M  V30 5594 H 545.118 0.0386297 3.12076 0
M  V30 5595 N 545.419 -1.53889 0.339982 0
M  V30 5596 C 546.666 -2.00855 -0.257621 0
M  V30 5597 C 546.994 -1.22788 -1.50842 0
M  V30 5598 O 546.249 -0.302567 -1.93347 0
M  V30 5599 C 546.548 -3.51968 -0.620735 0
M  V30 5600 C 546.214 -4.47741 0.532771 0
M  V30 5601 C 544.876 -4.73645 0.849339 0
M  V30 5602 C 547.228 -5.04551 1.3068 0
M  V30 5603 C 544.556 -5.53614 1.94237 0
M  V30 5604 C 546.908 -5.85713 2.39005 0
M  V30 5605 C 545.572 -6.09912 2.71225 0
M  V30 5606 H 544.842 -0.734979 -0.0942703 0
M  V30 5607 H 547.489 -1.85714 0.467159 0
M  V30 5608 H 545.794 -3.64921 -1.42618 0
M  V30 5609 H 547.491 -3.85762 -1.09495 0
M  V30 5610 H 544.081 -4.27711 0.275973 0
M  V30 5611 H 548.265 -4.84507 1.07549 0
M  V30 5612 H 543.521 -5.7059 2.19628 0
M  V30 5613 H 547.695 -6.28748 2.99415 0
M  V30 5614 H 545.322 -6.71665 3.56047 0
M  V30 5615 N 546.897 -0.0685191 -1.57451 0
M  V30 5616 C 547.83 0.935736 -2.08133 0
M  V30 5617 C 548.808 1.29317 -0.985698 0
M  V30 5618 O 549.992 1.40304 -1.25886 0
M  V30 5619 C 547.119 2.2448 -2.53627 0
M  V30 5620 C 546.165 2.03917 -3.74593 0
M  V30 5621 S 546.998 1.30154 -5.19442 0
M  V30 5622 C 548.154 2.62346 -5.68265 0
M  V30 5623 H 548.387 0.504473 -2.92989 0
M  V30 5624 H 545.92 0.144169 -1.53725 0
M  V30 5625 H 547.878 2.99718 -2.80499 0
M  V30 5626 H 546.539 2.64731 -1.69045 0
M  V30 5627 H 545.732 3.00788 -4.04404 0
M  V30 5628 H 545.334 1.36815 -3.48077 0
M  V30 5629 H 547.626 3.58448 -5.7491 0
M  V30 5630 H 548.569 2.3715 -6.67207 0
M  V30 5631 H 548.977 2.69401 -4.96068 0
M  V30 5632 N 548.375 1.56261 0.205012 0
M  V30 5633 C 549.623 1.79684 0.925096 0
M  V30 5634 C 549.944 0.63989 1.84202 0
M  V30 5635 O 549.214 -0.342345 1.92885 0
M  V30 5636 H 547.794 0.662774 0.344587 0
M  V30 5637 H 550.456 1.93734 0.212899 0
M  V30 5638 H 549.552 2.72467 1.52211 0
M  V30 5639 N 549.853 -0.472356 1.50355 0
M  V30 5640 C 550.786 -1.58923 1.63764 0
M  V30 5641 C 551.764 -1.55173 0.485793 0
M  V30 5642 O 552.948 -1.74815 0.705132 0
M  V30 5643 C 550.075 -2.97497 1.61905 0
M  V30 5644 C 549.121 -3.19405 2.82635 0
M  V30 5645 S 549.954 -2.99441 4.43954 0
M  V30 5646 C 551.11 -4.40359 4.44786 0
M  V30 5647 H 551.343 -1.47309 2.58239 0
M  V30 5648 H 548.876 -0.659601 1.39602 0
M  V30 5649 H 550.834 -3.77389 1.61518 0
M  V30 5650 H 549.495 -3.06502 0.686683 0
M  V30 5651 H 548.688 -4.20636 2.77636 0
M  V30 5652 H 548.29 -2.47283 2.80583 0
M  V30 5653 H 550.582 -5.32969 4.1827 0
M  V30 5654 H 551.525 -4.50403 5.46391 0
M  V30 5655 H 551.933 -4.22378 3.74509 0
M  V30 5656 N 551.331 -1.39911 -0.725443 0
M  V30 5657 C 552.608 -1.28158 -1.47766 0
M  V30 5658 C 552.988 0.104545 -2.10841 0
M  V30 5659 O 552.336 1.11657 -1.99361 0
M  V30 5660 C 552.546 -2.41306 -2.52135 0
M  V30 5661 C 553.894 -2.81076 -3.18247 0
M  V30 5662 O 554.918 -2.40827 -2.62452 0
M  V30 5663 O 553.777 -3.50581 -4.19231 0
M  V30 5664 H 550.871 -0.502761 -0.656628 0
M  V30 5665 H 553.417 -1.51808 -0.758456 0
M  V30 5666 H 552.189 -3.33932 -2.03974 0
M  V30 5667 H 551.812 -2.19374 -3.31603 0
M  V30 5668 N 552.809 0.956637 -1.25245 0
M  V30 5669 C 554.058 1.69537 -1.0927 0
M  V30 5670 C 554.371 1.92136 0.366503 0
M  V30 5671 O 555.577 2.63687 0.64665 0
M  V30 5672 C 554.033 3.05211 -1.9072 0
M  V30 5673 C 553.641 2.90416 -3.41119 0
M  V30 5674 C 555.385 3.82882 -1.83308 0
M  V30 5675 C 553.292 4.21468 -4.14872 0
M  V30 5676 H 552.222 0.635804 -0.405302 0
M  V30 5677 H 554.873 1.06513 -1.49423 0
M  V30 5678 H 553.255 3.69128 -1.43389 0
M  V30 5679 H 554.429 2.35444 -3.9611 0
M  V30 5680 H 552.744 2.26203 -3.49602 0
M  V30 5681 H 555.341 4.79944 -2.35706 0
M  V30 5682 H 555.684 4.0853 -0.800572 0
M  V30 5683 H 556.217 3.25711 -2.28379 0
M  V30 5684 H 552.956 4.01009 -5.18529 0
M  V30 5685 H 552.476 4.76213 -3.64665 0
M  V30 5686 H 554.155 4.90022 -4.22478 0
M  V30 5687 N 554.287 1.06798 1.15896 0
M  V30 5688 C 555.698 0.811355 1.68149 0
M  V30 5689 C 556.049 -0.664339 1.8461 0
M  V30 5690 O 555.174 -1.51485 1.54535 0
M  V30 5691 C 555.769 1.46624 3.05429 0
M  V30 5692 C 554.328 1.25726 3.54781 0
M  V30 5693 C 553.475 1.53949 2.3064 0
M  V30 5694 H 556.426 1.23078 1.00187 0
M  V30 5695 H 556.447 0.88437 3.7008 0
M  V30 5696 H 555.959 2.54025 2.93416 0
M  V30 5697 H 554.06 0.20322 3.72045 0
M  V30 5698 H 554.173 1.97354 4.36564 0
M  V30 5699 H 552.537 0.96025 2.35905 0
M  V30 5700 H 553.32 2.6252 2.2122 0
M  V30 5701 N 555.766 -1.3263 0.851289 0
M  V30 5702 C 557.177 -1.79653 0.5081 0
M  V30 5703 C 557.528 -1.70327 -0.973815 0
M  V30 5704 O 556.653 -1.25986 -1.75944 0
M  V30 5705 C 557.248 -3.26196 0.915515 0
M  V30 5706 C 555.807 -3.71187 0.624277 0
M  V30 5707 C 554.954 -2.53804 1.11709 0
M  V30 5708 H 557.905 -1.19976 1.03882 0
M  V30 5709 H 557.926 -3.79801 0.230535 0
M  V30 5710 H 557.438 -3.32952 1.99411 0
M  V30 5711 H 555.539 -3.69948 -0.443737 0
M  V30 5712 H 555.652 -4.64132 1.18821 0
M  V30 5713 H 554.016 -2.48964 0.537484 0
M  V30 5714 H 554.799 -2.63315 2.20272 0
M  V30 5715 N 557.244 -0.608902 -1.45362 0
M  V30 5716 C 558.655 -0.189511 -1.85736 0
M  V30 5717 C 559.006 1.2539 -1.50903 0
M  V30 5718 O 558.131 1.95094 -0.936347 0
M  V30 5719 C 558.726 -0.33716 -3.37118 0
M  V30 5720 C 557.285 0.0275487 -3.7639 0
M  V30 5721 C 556.432 -0.660983 -2.69307 0
M  V30 5722 H 559.383 -0.815499 -1.36144 0
M  V30 5723 H 559.404 0.430257 -3.7806 0
M  V30 5724 H 558.916 -1.38779 -3.62439 0
M  V30 5725 H 557.017 1.0773 -3.56686 0
M  V30 5726 H 557.13 -0.367018 -4.77692 0
M  V30 5727 H 555.494 -0.0984958 -2.54509 0
M  V30 5728 H 556.277 -1.71377 -2.97464 0
M  V30 5729 N 558.722 1.53707 -0.348139 0
M  V30 5730 C 559.947 2.05877 0.250883 0
M  V30 5731 C 560.372 1.22115 1.43072 0
M  V30 5732 O 559.73 0.235986 1.79758 0
M  V30 5733 C 559.778 3.54886 0.639416 0
M  V30 5734 O 558.882 3.73948 1.73888 0
M  V30 5735 H 558.223 0.662754 0.040653 0
M  V30 5736 H 560.753 1.98303 -0.503685 0
M  V30 5737 H 560.763 3.97601 0.915295 0
M  V30 5738 H 559.438 4.153 -0.223386 0
M  V30 5739 H 558.015 3.43134 1.45991 0
M  V30 5740 N 560.2 0.0768682 1.57412 0
M  V30 5741 C 561.448 -0.589918 1.93299 0
M  V30 5742 C 561.769 -1.69842 0.958049 0
M  V30 5743 O 561.039 -1.95899 0.00703261 0
M  V30 5744 H 559.619 -0.220901 0.713591 0
M  V30 5745 H 562.281 0.135917 1.94425 0
M  V30 5746 H 561.377 -1.01195 2.95239 0
M  V30 5747 N 561.678 -1.56367 -0.196722 0
M  V30 5748 C 563.089 -1.70462 -0.761545 0
M  V30 5749 C 563.44 -0.683161 -1.83922 0
M  V30 5750 O 562.565 0.160753 -2.15802 0
M  V30 5751 C 563.16 -3.09057 -1.38814 0
M  V30 5752 C 561.719 -3.24922 -1.90007 0
M  V30 5753 C 560.866 -2.66412 -0.769399 0
M  V30 5754 H 563.817 -1.58675 0.0283263 0
M  V30 5755 H 563.838 -3.06296 -2.2575 0
M  V30 5756 H 563.35 -3.83378 -0.603559 0
M  V30 5757 H 561.451 -2.55514 -2.71189 0
M  V30 5758 H 561.564 -4.3241 -2.06297 0
M  V30 5759 H 559.928 -2.25546 -1.18326 0
M  V30 5760 H 560.711 -3.433 0.00291773 0
M  V30 5761 N 563.156 0.464375 -1.50603 0
M  V30 5762 C 564.086 1.56944 -1.72889 0
M  V30 5763 C 565.067 1.59979 -0.577997 0
M  V30 5764 O 566.252 1.76138 -0.817855 0
M  V30 5765 C 563.382 2.95225 -1.8292 0
M  V30 5766 C 562.336 3.07056 -2.98162 0
M  V30 5767 C 561.662 4.47051 -2.93343 0
M  V30 5768 C 562.962 2.83648 -4.38567 0
M  V30 5769 H 564.656 1.38547 -2.65415 0
M  V30 5770 H 562.202 0.665082 -1.27721 0
M  V30 5771 H 564.155 3.72467 -1.97095 0
M  V30 5772 H 562.879 3.14793 -0.870209 0
M  V30 5773 H 561.538 2.32248 -2.83648 0
M  V30 5774 H 561.186 4.63547 -1.95276 0
M  V30 5775 H 560.886 4.55902 -3.70712 0
M  V30 5776 H 562.41 5.26304 -3.09575 0
M  V30 5777 H 563.824 3.50636 -4.53572 0
M  V30 5778 H 562.221 3.03937 -5.17438 0
M  V30 5779 H 563.291 1.79451 -4.50472 0
M  V30 5780 N 564.634 1.40294 0.718013 0
M  V30 5781 C 565.88 1.39648 1.47885 0
M  V30 5782 C 566.235 -0.0023879 1.924 0
M  V30 5783 O 565.528 -0.972304 1.65096 0
M  V30 5784 C 565.722 2.31814 2.72024 0
M  V30 5785 C 565.551 3.80523 2.3965 0
M  V30 5786 C 564.321 4.49351 2.3111 0
M  V30 5787 C 566.519 4.72077 2.04079 0
M  V30 5788 N 564.501 5.83305 1.91385 0
M  V30 5789 C 565.872 5.94809 1.74935 0
M  V30 5790 C 567.927 4.59935 1.90694 0
M  V30 5791 C 566.63 7.06755 1.33753 0
M  V30 5792 C 568.656 5.7182 1.50915 0
M  V30 5793 C 568.018 6.93637 1.22668 0
M  V30 5794 H 564.117 0.566263 0.539324 0
M  V30 5795 H 566.701 1.75986 0.832891 0
M  V30 5796 H 564.872 1.97607 3.34374 0
M  V30 5797 H 566.604 2.22042 3.38348 0
M  V30 5798 H 563.359 4.03002 2.4877 0
M  V30 5799 H 563.783 6.54239 1.74068 0
M  V30 5800 H 568.425 3.66274 2.11194 0
M  V30 5801 H 566.143 8.00302 1.11995 0
M  V30 5802 H 569.729 5.64421 1.4114 0
M  V30 5803 H 568.609 7.78743 0.923502 0
M  V30 5804 N 566.112 -0.949982 1.2575 0
M  V30 5805 C 567.361 -1.68956 1.10168 0
M  V30 5806 C 567.674 -1.92327 -0.356309 0
M  V30 5807 O 568.88 -2.64026 -0.632657 0
M  V30 5808 C 567.336 -3.04196 1.92336 0
M  V30 5809 C 566.944 -2.88603 3.42655 0
M  V30 5810 C 568.688 -3.81904 1.85336 0
M  V30 5811 C 566.595 -4.19262 4.17101 0
M  V30 5812 H 565.525 -0.633645 0.408668 0
M  V30 5813 H 568.176 -1.05719 1.49986 0
M  V30 5814 H 566.558 -3.68363 1.45344 0
M  V30 5815 H 567.732 -2.3334 3.97353 0
M  V30 5816 H 566.047 -2.24345 3.50796 0
M  V30 5817 H 568.644 -4.78688 2.38248 0
M  V30 5818 H 568.987 -4.08099 0.822226 0
M  V30 5819 H 569.52 -3.24495 2.30104 0
M  V30 5820 H 566.259 -3.98254 5.20648 0
M  V30 5821 H 565.779 -4.74273 3.67186 0
M  V30 5822 H 567.458 -4.87775 4.25071 0
M  V30 5823 N 567.59 -1.07411 -1.15328 0
M  V30 5824 C 568.52 -0.716472 -2.22236 0
M  V30 5825 C 569.501 0.296373 -1.67498 0
M  V30 5826 O 570.686 0.168989 -1.93463 0
M  V30 5827 C 567.816 -0.114142 -3.47112 0
M  V30 5828 C 566.77 -1.05421 -4.14814 0
M  V30 5829 C 566.096 -0.314604 -5.33774 0
M  V30 5830 C 567.396 -2.38808 -4.64508 0
M  V30 5831 H 569.09 -1.61029 -2.52408 0
M  V30 5832 H 566.636 -0.775702 -1.21321 0
M  V30 5833 H 568.589 0.148001 -4.2114 0
M  V30 5834 H 567.313 0.814755 -3.16274 0
M  V30 5835 H 565.972 -1.30128 -3.42728 0
M  V30 5836 H 565.62 0.617772 -4.99192 0
M  V30 5837 H 565.32 -0.941209 -5.80013 0
M  V30 5838 H 566.844 -0.0602747 -6.1057 0
M  V30 5839 H 568.258 -2.18424 -5.3006 0
M  V30 5840 H 566.655 -2.97069 -5.21412 0
M  V30 5841 H 567.725 -3.01067 -3.80114 0
M  V30 5842 N 569.068 1.32177 -0.85831 0
M  V30 5843 C 570.316 1.96735 -0.462568 0
M  V30 5844 C 570.637 1.6824 0.985911 0
M  V30 5845 O 569.907 0.991564 1.68952 0
M  V30 5846 H 568.487 0.727849 -0.168064 0
M  V30 5847 H 571.149 1.61195 -1.09554 0
M  V30 5848 H 570.245 3.06068 -0.610647 0
M  V30 5849 N 570.547 0.616602 1.45037 0
M  V30 5850 C 571.824 0.0469086 1.95544 0
M  V30 5851 C 572.204 -1.42345 1.55888 0
M  V30 5852 O 571.552 -2.13055 0.825824 0
M  V30 5853 C 571.762 0.254489 3.48071 0
M  V30 5854 C 573.11 0.140025 4.24369 0
M  V30 5855 O 574.134 0.185084 3.55719 0
M  V30 5856 O 572.993 0.0327034 5.4649 0
M  V30 5857 H 570.087 -0.0306051 0.826433 0
M  V30 5858 H 572.633 0.687293 1.55159 0
M  V30 5859 H 571.405 1.27532 3.69934 0
M  V30 5860 H 571.028 -0.42073 3.95368 0
M  V30 5861 N 572.025 -1.5352 0.356285 0
M  V30 5862 C 573.271 -2.01414 -0.236653 0
M  V30 5863 C 573.604 -1.24339 -1.49176 0
M  V30 5864 O 572.879 -0.334496 -1.91602 0
M  V30 5865 C 573.162 -3.56059 -0.537982 0
M  V30 5866 C 573.015 -4.43835 0.730112 0
M  V30 5867 C 574.334 -4.19127 -1.34239 0
M  V30 5868 H 571.453 -0.732135 -0.0845386 0
M  V30 5869 H 574.095 -1.83854 0.479341 0
M  V30 5870 H 572.245 -3.71153 -1.14795 0
M  V30 5871 H 573.917 -4.40555 1.36782 0
M  V30 5872 H 572.16 -4.1218 1.3524 0
M  V30 5873 H 572.831 -5.49958 0.474358 0
M  V30 5874 H 575.307 -4.07809 -0.826498 0
M  V30 5875 H 574.183 -5.27378 -1.52198 0
M  V30 5876 H 574.444 -3.74581 -2.34822 0
M  V30 5877 N 573.503 -0.0852151 -1.57369 0
M  V30 5878 C 574.75 0.580806 -1.93992 0
M  V30 5879 C 575.078 1.68801 -0.966252 0
M  V30 5880 O 574.333 1.95694 0.0158649 0
M  V30 5881 C 574.632 1.18482 -3.3719 0
M  V30 5882 C 574.298 0.2024 -4.50446 0
M  V30 5883 C 572.96 -0.0678318 -4.81152 0
M  V30 5884 C 575.312 -0.46895 -5.19086 0
M  V30 5885 C 572.64 -1.01627 -5.77831 0
M  V30 5886 C 574.992 -1.4058 -6.16782 0
M  V30 5887 C 573.656 -1.68436 -6.45899 0
M  V30 5888 H 572.926 0.212532 -0.709867 0
M  V30 5889 H 575.573 -0.158947 -1.90839 0
M  V30 5890 H 573.878 2.0006 -3.36873 0
M  V30 5891 H 575.575 1.70767 -3.62822 0
M  V30 5892 H 572.165 0.423208 -4.26505 0
M  V30 5893 H 576.349 -0.273307 -4.95547 0
M  V30 5894 H 571.605 -1.2392 -5.9871 0
M  V30 5895 H 575.779 -1.93188 -6.69068 0
M  V30 5896 H 573.406 -2.42088 -7.20623 0
M  V30 5897 N 574.981 1.5647 0.188427 0
M  V30 5898 C 576.23 1.80207 0.905995 0
M  V30 5899 C 576.543 0.659579 1.84144 0
M  V30 5900 O 577.749 0.781431 2.60011 0
M  V30 5901 C 576.205 3.19255 1.66145 0
M  V30 5902 C 575.813 4.41324 0.770504 0
M  V30 5903 C 577.557 3.52298 2.36826 0
M  V30 5904 C 575.464 5.71394 1.52521 0
M  V30 5905 H 574.394 0.671953 0.342045 0
M  V30 5906 H 577.045 1.82808 0.159164 0
M  V30 5907 H 575.427 3.10922 2.45242 0
M  V30 5908 H 576.601 4.60797 0.0177261 0
M  V30 5909 H 574.916 4.16035 0.174199 0
M  V30 5910 H 577.513 4.46715 2.93854 0
M  V30 5911 H 577.856 2.76359 3.11338 0
M  V30 5912 H 578.389 3.62108 1.6469 0
M  V30 5913 H 575.128 6.50316 0.82275 0
M  V30 5914 H 574.648 5.55928 2.25175 0
M  V30 5915 H 576.327 6.12747 2.07725 0
M  V30 5916 N 576.459 -0.456382 1.50847 0
M  V30 5917 C 577.707 -1.20497 1.62249 0
M  V30 5918 C 578.028 -1.92156 0.331839 0
M  V30 5919 O 577.298 -1.84751 -0.651443 0
M  V30 5920 H 575.878 -0.447775 0.597918 0
M  V30 5921 H 578.54 -0.525099 1.87693 0
M  V30 5922 H 577.636 -1.94492 2.44089 0
M  V30 5923 N 577.937 -1.40673 -0.710563 0
M  V30 5924 C 579.353 -1.22813 -1.01928 0
M  V30 5925 C 579.553 -0.10687 -2.01216 0
M  V30 5926 O 578.609 0.533614 -2.46797 0
M  V30 5927 C 579.922 -2.57178 -1.5582 0
M  V30 5928 C 581.47 -2.64233 -1.67779 0
M  V30 5929 C 581.945 -3.98879 -2.25076 0
M  V30 5930 N 583.436 -4.00647 -2.32456 0
M  V30 5931 C 584.171 -5.01621 -2.77784 0
M  V30 5932 N 583.667 -6.12989 -3.22826 0
M  V30 5933 N 585.46 -4.88988 -2.77213 0
M  V30 5934 H 577.611 -2.12335 -0.05253 0
M  V30 5935 H 579.874 -0.9441 -0.085898 0
M  V30 5936 H 579.58 -3.39903 -0.903249 0
M  V30 5937 H 579.454 -2.78618 -2.54267 0
M  V30 5938 H 581.841 -1.81876 -2.3239 0
M  V30 5939 H 581.922 -2.46619 -0.679178 0
M  V30 5940 H 581.566 -4.81678 -1.61086 0
M  V30 5941 H 581.496 -4.13826 -3.25661 0
M  V30 5942 H 583.987 -3.20231 -2.0065 0
M  V30 5943 H 584.3 -6.85921 -3.55995 0
M  V30 5944 H 582.645 -6.16547 -3.20773 0
M  V30 5945 H 585.836 -4.01075 -2.41363 0
M  V30 5946 H 586.009 -5.67822 -3.12221 0
M  V30 5947 N 579.415 0.9433 -1.26252 0
M  V30 5948 C 580.645 1.72117 -1.14277 0
M  V30 5949 C 581.053 1.86726 0.304944 0
M  V30 5950 O 580.396 1.3727 1.22076 0
M  V30 5951 C 580.458 3.14778 -1.73651 0
M  V30 5952 C 580.122 3.23561 -3.22734 0
M  V30 5953 C 581.119 3.07001 -4.19579 0
M  V30 5954 C 578.804 3.47019 -3.63157 0
M  V30 5955 C 580.798 3.13763 -5.54826 0
M  V30 5956 C 578.485 3.53416 -4.98538 0
M  V30 5957 C 579.483 3.36804 -5.94182 0
M  V30 5958 O 579.171 3.42906 -7.27098 0
M  V30 5959 H 578.903 0.545781 -0.398873 0
M  V30 5960 H 581.457 1.19123 -1.67328 0
M  V30 5961 H 579.687 3.69186 -1.1506 0
M  V30 5962 H 581.376 3.74469 -1.56613 0
M  V30 5963 H 582.142 2.88736 -3.89688 0
M  V30 5964 H 578.021 3.59006 -2.89199 0
M  V30 5965 H 581.565 3.00714 -6.29458 0
M  V30 5966 H 577.462 3.71201 -5.28091 0
M  V30 5967 H 578.23 3.59463 -7.35342 0
M  V30 5968 N 580.893 1.08022 1.14757 0
M  V30 5969 C 582.123 0.827646 1.89298 0
M  V30 5970 C 582.531 -0.623506 1.78631 0
M  V30 5971 O 581.874 -1.43991 1.14071 0
M  V30 5972 C 581.936 1.16553 3.40082 0
M  V30 5973 C 581.6 2.61866 3.74533 0
M  V30 5974 C 582.597 3.60116 3.74984 0
M  V30 5975 C 580.282 2.97619 4.04633 0
M  V30 5976 C 582.276 4.92151 4.05051 0
M  V30 5977 C 579.963 4.2985 4.34364 0
M  V30 5978 C 580.961 5.26926 4.34555 0
M  V30 5979 O 580.649 6.5678 4.63568 0
M  V30 5980 H 580.381 0.298396 0.606577 0
M  V30 5981 H 582.935 1.44187 1.46285 0
M  V30 5982 H 581.165 0.494296 3.83528 0
M  V30 5983 H 582.854 0.894407 3.95923 0
M  V30 5984 H 583.62 3.33837 3.51821 0
M  V30 5985 H 579.499 2.22702 4.03639 0
M  V30 5986 H 583.043 5.67915 4.05115 0
M  V30 5987 H 578.94 4.55879 4.56995 0
M  V30 5988 H 579.708 6.62035 4.81303 0
M  V30 5989 N 582.371 -1.3172 0.865308 0
M  V30 5990 C 583.599 -2.01057 0.488251 0
M  V30 5991 C 584.014 -1.64979 -0.918 0
M  V30 5992 O 583.371 -0.876597 -1.60069 0
M  V30 5993 C 583.422 -3.55964 0.630224 0
M  V30 5994 O 583.143 -3.90749 1.98109 0
M  V30 5995 C 584.644 -4.42574 0.253567 0
M  V30 5996 H 581.864 -0.64332 0.190736 0
M  V30 5997 H 584.408 -1.68058 1.16519 0
M  V30 5998 H 582.563 -3.874 0.000895422 0
M  V30 5999 H 582.977 -4.85467 1.9855 0
M  V30 6000 H 584.451 -5.50521 0.403875 0
M  V30 6001 H 584.928 -4.31724 -0.806895 0
M  V30 6002 H 585.534 -4.16547 0.858404 0
M  V30 6003 N 583.85 -0.624285 -1.44708 0
M  V30 6004 C 585.096 -0.126237 -2.02407 0
M  V30 6005 C 585.428 1.24618 -1.48943 0
M  V30 6006 O 584.704 1.82569 -0.670742 0
M  V30 6007 C 584.986 -0.105449 -3.59946 0
M  V30 6008 C 584.84 -1.50972 -4.23707 0
M  V30 6009 C 586.159 0.573629 -4.36346 0
M  V30 6010 H 583.278 -0.0473472 -0.735478 0
M  V30 6011 H 585.92 -0.799452 -1.72362 0
M  V30 6012 H 584.07 0.46783 -3.85673 0
M  V30 6013 H 585.742 -2.13136 -4.0911 0
M  V30 6014 H 583.985 -2.0656 -3.81465 0
M  V30 6015 H 584.656 -1.44727 -5.32689 0
M  V30 6016 H 587.132 0.0861787 -4.16011 0
M  V30 6017 H 586.008 0.557338 -5.46063 0
M  V30 6018 H 586.269 1.64276 -4.10446 0
M  V30 6019 N 585.328 1.53329 -0.364422 0
M  V30 6020 C 586.575 2.01239 0.225634 0
M  V30 6021 C 586.903 1.25172 1.48869 0
M  V30 6022 O 586.158 0.333289 1.92841 0
M  V30 6023 C 586.457 3.52911 0.564661 0
M  V30 6024 C 586.123 4.46837 -0.603936 0
M  V30 6025 C 584.785 4.72234 -0.924585 0
M  V30 6026 C 587.137 5.02409 -1.38691 0
M  V30 6027 C 584.465 5.50454 -2.0302 0
M  V30 6028 C 586.817 5.81836 -2.48293 0
M  V30 6029 C 585.481 6.0552 -2.80894 0
M  V30 6030 H 584.751 0.736386 0.0825654 0
M  V30 6031 H 587.398 1.84948 -0.496645 0
M  V30 6032 H 585.703 3.67144 1.36794 0
M  V30 6033 H 587.4 3.87455 1.03344 0
M  V30 6034 H 583.99 4.27217 -0.343983 0
M  V30 6035 H 588.174 4.82735 -1.15243 0
M  V30 6036 H 583.43 5.67024 -2.28678 0
M  V30 6037 H 587.604 6.23905 -3.0938 0
M  V30 6038 H 585.231 6.65916 -3.66688 0
M  V30 6039 N 586.806 0.0935595 1.57322 0
M  V30 6040 C 588.083 -0.612692 1.85756 0
M  V30 6041 C 588.463 -1.86439 0.99013 0
M  V30 6042 O 587.811 -2.28416 0.0621362 0
M  V30 6043 C 588.021 -0.929547 3.36393 0
M  V30 6044 C 589.369 -1.29366 4.04413 0
M  V30 6045 O 590.393 -1.02061 3.41265 0
M  V30 6046 O 589.252 -1.80498 5.15832 0
M  V30 6047 H 586.346 -0.306444 0.768128 0
M  V30 6048 H 588.892 0.126141 1.69231 0
M  V30 6049 H 587.664 -0.0414766 3.91278 0
M  V30 6050 H 587.287 -1.72441 3.5826 0
M  V30 6051 N 588.284 -1.56567 -0.180126 0
M  V30 6052 C 589.7 -1.50488 -0.531559 0
M  V30 6053 C 589.9 -0.796267 -1.851 0
M  V30 6054 O 588.956 -0.352978 -2.50021 0
M  V30 6055 C 590.269 -2.95201 -0.572456 0
M  V30 6056 C 591.817 -3.05957 -0.660264 0
M  V30 6057 C 592.292 -4.5211 -0.732135 0
M  V30 6058 N 593.783 -4.56322 -0.795262 0
M  V30 6059 C 594.518 -5.66742 -0.871296 0
M  V30 6060 N 594.014 -6.86815 -0.908708 0
M  V30 6061 N 595.807 -5.54691 -0.909639 0
M  V30 6062 H 587.958 -2.01045 0.685165 0
M  V30 6063 H 590.221 -0.915536 0.245962 0
M  V30 6064 H 589.927 -3.50165 0.328208 0
M  V30 6065 H 589.801 -3.49369 -1.422 0
M  V30 6066 H 592.188 -2.51032 -1.55136 0
M  V30 6067 H 592.269 -2.54888 0.215783 0
M  V30 6068 H 591.913 -5.07664 0.154664 0
M  V30 6069 H 591.843 -5.00926 -1.6242 0
M  V30 6070 H 594.334 -3.69868 -0.77499 0
M  V30 6071 H 594.647 -7.66718 -0.967654 0
M  V30 6072 H 592.992 -6.89443 -0.877132 0
M  V30 6073 H 596.183 -4.59804 -0.877353 0
M  V30 6074 H 596.356 -6.40768 -0.965434 0
M  V30 6075 N 589.762 0.448376 -1.51087 0
M  V30 6076 C 591.039 1.20926 -1.53741 0
M  V30 6077 C 591.419 2.09025 -0.295222 0
M  V30 6078 O 590.767 2.16851 0.720283 0
M  V30 6079 C 590.977 2.02067 -2.84552 0
M  V30 6080 C 592.325 2.59486 -3.36084 0
M  V30 6081 O 593.349 2.12289 -2.86028 0
M  V30 6082 O 592.208 3.45539 -4.23397 0
M  V30 6083 H 589.302 0.549951 -0.617643 0
M  V30 6084 H 591.848 0.458344 -1.63393 0
M  V30 6085 H 590.62 1.37291 -3.66425 0
M  V30 6086 H 590.243 2.84246 -2.78011 0
M  V30 6087 N 591.24 1.41047 0.703093 0
M  V30 6088 C 592.188 1.42494 1.83843 0
M  V30 6089 C 593.182 0.303885 1.66652 0
M  V30 6090 O 594.388 0.475544 1.73605 0
M  V30 6091 H 590.763 0.445685 0.605697 0
M  V30 6092 H 592.734 2.38194 1.79739 0
M  V30 6093 C 591.483 1.31666 3.21807 0
M  V30 6094 H 590.806 2.17212 3.35647 0
M  V30 6095 H 592.246 1.36738 4.01346 0
M  V30 6096 C 590.705 0.0281828 3.36888 0
M  V30 6097 O 591.235 -0.929995 3.90786 0
M  V30 6098 N 589.441 -0.0454322 2.90564 0
M  V30 6099 H 588.988 0.735046 2.4689 0
M  V30 6100 H 588.946 -0.906968 3.01034 0
M  V30 6101 N 592.718 -0.936591 1.26751 0
M  V30 6102 C 593.666 -2.0573 1.08527 0
M  V30 6103 C 594.66 -1.69397 0.0108784 0
M  V30 6104 O 595.866 -1.79215 0.167915 0
M  V30 6105 H 592.241 -0.673691 0.334133 0
M  V30 6106 H 594.212 -2.1825 2.03493 0
M  V30 6107 C 592.961 -3.39738 0.739845 0
M  V30 6108 H 592.284 -3.68174 1.55845 0
M  V30 6109 H 593.724 -4.18955 0.652149 0
M  V30 6110 C 592.183 -3.32292 -0.555288 0
M  V30 6111 O 592.713 -3.68794 -1.59229 0
M  V30 6112 N 590.919 -2.85394 -0.54762 0
M  V30 6113 H 590.466 -2.55886 0.296667 0
M  V30 6114 H 590.424 -2.80795 -1.41427 0
M  V30 6115 N 594.196 -1.08629 -1.14182 0
M  V30 6116 C 595.612 -0.814363 -1.3726 0
M  V30 6117 C 595.812 0.575271 -1.93114 0
M  V30 6118 O 594.868 1.33165 -2.1453 0
M  V30 6119 C 596.181 -1.8989 -2.33157 0
M  V30 6120 C 597.729 -1.92518 -2.46791 0
M  V30 6121 C 598.204 -3.00092 -3.45989 0
M  V30 6122 N 599.695 -2.99279 -3.53534 0
M  V30 6123 C 600.43 -3.79158 -4.30147 0
M  V30 6124 N 599.926 -4.68923 -5.09983 0
M  V30 6125 N 601.719 -3.67451 -4.25366 0
M  V30 6126 H 593.87 -1.98232 -0.762758 0
M  V30 6127 H 596.133 -0.860383 -0.398051 0
M  V30 6128 H 595.839 -2.89809 -1.99257 0
M  V30 6129 H 595.713 -1.77013 -3.33086 0
M  V30 6130 H 598.1 -0.932425 -2.79982 0
M  V30 6131 H 598.181 -2.09473 -1.46816 0
M  V30 6132 H 597.825 -3.99575 -3.13532 0
M  V30 6133 H 597.755 -2.80382 -4.45751 0
M  V30 6134 H 600.246 -2.3422 -2.96563 0
M  V30 6135 H 600.559 -5.26475 -5.65724 0
M  V30 6136 H 598.904 -4.72964 -5.09244 0
M  V30 6137 H 602.095 -2.9669 -3.62067 0
M  V30 6138 H 602.268 -4.29944 -4.84822 0
M  V30 6139 N 595.674 1.31259 -0.872281 0
M  V30 6140 C 596.92 1.96913 -0.485083 0
M  V30 6141 C 597.253 1.68774 0.960667 0
M  V30 6142 O 596.528 0.985495 1.67685 0
M  V30 6143 C 596.811 3.52299 -0.745502 0
M  V30 6144 C 596.664 3.90002 -2.24095 0
M  V30 6145 C 597.983 4.39582 -0.213516 0
M  V30 6146 H 595.102 0.715252 -0.177716 0
M  V30 6147 H 597.744 1.55347 -1.09395 0
M  V30 6148 H 595.894 3.87835 -0.227276 0
M  V30 6149 H 597.566 3.64555 -2.82661 0
M  V30 6150 H 595.809 3.38526 -2.71261 0
M  V30 6151 H 596.48 4.98352 -2.37381 0
M  V30 6152 H 598.956 4.10882 -0.656902 0
M  V30 6153 H 597.832 5.47251 -0.42516 0
M  V30 6154 H 598.093 4.33158 0.884666 0
M  V30 6155 N 597.152 0.631951 1.44375 0
M  V30 6156 C 598.4 0.136497 2.01639 0
M  V30 6157 C 598.721 -1.24637 1.49969 0
M  V30 6158 O 597.991 -1.82827 0.70363 0
M  V30 6159 H 596.571 0.0474703 0.74549 0
M  V30 6160 H 599.233 0.818837 1.76865 0
M  V30 6161 H 598.329 0.104817 3.11924 0
M  V30 6162 N 598.631 -1.53133 0.372548 0
M  V30 6163 C 599.878 -2.01356 -0.214959 0
M  V30 6164 C 600.206 -1.2596 -1.48204 0
M  V30 6165 O 599.461 -0.343511 -1.92662 0
M  V30 6166 C 599.76 -3.53206 -0.545938 0
M  V30 6167 C 599.426 -4.46511 0.627624 0
M  V30 6168 C 598.088 -4.71737 0.949615 0
M  V30 6169 C 600.44 -5.01666 1.41353 0
M  V30 6170 C 597.768 -5.4937 2.05936 0
M  V30 6171 C 600.12 -5.80511 2.51375 0
M  V30 6172 C 598.784 -6.04022 2.84101 0
M  V30 6173 H 598.054 -0.736813 -0.078659 0
M  V30 6174 H 600.701 -1.84682 0.506447 0
M  V30 6175 H 599.006 -3.67864 -1.34845 0
M  V30 6176 H 600.703 -3.87997 -1.01287 0
M  V30 6177 H 597.293 -4.27029 0.366635 0
M  V30 6178 H 601.477 -4.82117 1.17802 0
M  V30 6179 H 596.733 -5.65803 2.31682 0
M  V30 6180 H 600.907 -6.22255 3.12684 0
M  V30 6181 H 598.534 -6.63962 3.70214 0
M  V30 6182 N 600.109 -0.101901 -1.5727 0
M  V30 6183 C 601.072 0.840129 -2.13247 0
M  V30 6184 C 602.072 1.20625 -1.06331 0
M  V30 6185 O 603.262 1.13456 -1.32186 0
M  V30 6186 C 600.394 2.13372 -2.65867 0
M  V30 6187 H 601.587 0.353945 -2.97804 0
M  V30 6188 H 599.14 0.147167 -1.55606 0
M  V30 6189 H 599.875 2.66461 -1.84849 0
M  V30 6190 H 599.66 1.88085 -3.44044 0
M  V30 6191 H 601.15 2.80748 -3.09145 0
M  V30 6192 N 601.587 1.56661 0.17182 0
M  V30 6193 C 602.497 1.99604 1.2327 0
M  V30 6194 C 603.513 0.907333 1.4847 0
M  V30 6195 O 604.689 1.21492 1.60629 0
M  V30 6196 C 601.754 2.34685 2.55194 0
M  V30 6197 C 600.815 3.57381 2.3786 0
M  V30 6198 C 600.048 3.90779 3.63494 0
M  V30 6199 O 600.271 3.25152 4.6865 0
M  V30 6200 O 599.205 4.84129 3.57634 0
M  V30 6201 H 603.031 2.90114 0.898192 0
M  V30 6202 H 600.616 1.44522 0.378647 0
M  V30 6203 H 602.498 2.5822 3.33017 0
M  V30 6204 H 601.173 1.47336 2.88225 0
M  V30 6205 H 600.08 3.39064 1.5807 0
M  V30 6206 H 601.413 4.45268 2.09754 0
M  V30 6207 N 603.065 -0.440357 1.51323 0
M  V30 6208 C 604.028 -1.51679 1.71832 0
M  V30 6209 C 605.028 -1.49648 0.588386 0
M  V30 6210 O 606.218 -1.51724 0.855891 0
M  V30 6211 C 603.35 -2.91228 1.77199 0
M  V30 6212 H 604.543 -1.34799 2.67898 0
M  V30 6213 H 602.096 -0.66883 1.41267 0
M  V30 6214 H 602.831 -3.13516 0.829363 0
M  V30 6215 H 602.616 -2.94107 2.59314 0
M  V30 6216 H 604.106 -3.69321 1.94915 0
M  V30 6217 N 604.543 -1.41418 -0.695603 0
M  V30 6218 C 605.506 -1.42988 -1.79129 0
M  V30 6219 C 606.506 -0.320514 -1.57573 0
M  V30 6220 O 607.696 -0.58039 -1.64247 0
M  V30 6221 C 604.828 -1.24122 -3.175 0
M  V30 6222 H 606.021 -2.40526 -1.7913 0
M  V30 6223 H 603.574 -1.2756 -0.903225 0
M  V30 6224 H 604.309 -0.274253 -3.23138 0
M  V30 6225 H 604.094 -2.045 -3.34547 0
M  V30 6226 H 605.584 -1.28056 -3.97481 0
M  V30 6227 N 606.021 0.929856 -1.27246 0
M  V30 6228 C 607.437 1.20542 -1.04603 0
M  V30 6229 C 607.637 2.00276 0.221754 0
M  V30 6230 O 606.693 2.34835 0.927833 0
M  V30 6231 C 608.006 1.95566 -2.28417 0
M  V30 6232 C 609.554 2.08513 -2.33433 0
M  V30 6233 C 610.029 2.86943 -3.5697 0
M  V30 6234 N 611.52 2.94512 -3.57515 0
M  V30 6235 C 612.255 3.55656 -4.49774 0
M  V30 6236 N 611.751 4.18209 -5.52334 0
M  V30 6237 N 613.544 3.53038 -4.37402 0
M  V30 6238 H 605.695 0.397113 -2.08655 0
M  V30 6239 H 607.958 0.238277 -0.917566 0
M  V30 6240 H 607.664 1.44395 -3.20691 0
M  V30 6241 H 607.538 2.9619 -2.33563 0
M  V30 6242 H 609.925 2.58872 -1.41666 0
M  V30 6243 H 610.006 1.07117 -2.32292 0
M  V30 6244 H 609.65 2.37268 -4.49072 0
M  V30 6245 H 609.58 3.8862 -3.55362 0
M  V30 6246 H 612.071 2.50053 -2.83341 0
M  V30 6247 H 612.384 4.62796 -6.18902 0
M  V30 6248 H 610.729 4.16761 -5.56179 0
M  V30 6249 H 613.92 3.0337 -3.56489 0
M  V30 6250 H 614.093 4.004 -5.09493 0
M  V30 6251 N 607.499 1.09233 1.13605 0
M  V30 6252 C 608.429 0.751738 2.21068 0
M  V30 6253 C 609.41 -0.269688 1.67948 0
M  V30 6254 O 610.595 -0.13819 1.93708 0
M  V30 6255 C 607.725 0.16935 3.46887 0
M  V30 6256 C 606.679 1.12007 4.13084 0
M  V30 6257 C 606.005 0.399483 5.33206 0
M  V30 6258 C 607.305 2.46168 4.6065 0
M  V30 6259 H 608.999 1.65024 2.49815 0
M  V30 6260 H 606.545 0.794905 1.20072 0
M  V30 6261 H 608.498 -0.0809824 4.21322 0
M  V30 6262 H 607.222 -0.764335 3.1753 0
M  V30 6263 H 605.881 1.35564 3.40614 0
M  V30 6264 H 605.529 -0.538277 5.00112 0
M  V30 6265 H 605.229 1.03337 5.78442 0
M  V30 6266 H 606.753 0.157403 6.10397 0
M  V30 6267 H 608.167 2.26829 5.26518 0
M  V30 6268 H 606.564 3.05326 5.1662 0
M  V30 6269 H 607.634 3.07076 3.75276 0
M  V30 6270 O 609.016 -1.25824 1.01246 0
M  V30 6271 H 609.707 -1.81718 0.670699 0
M  V30 END ATOM
M  V30 BEGIN BOND
M  V30 END BOND
M  V30 END CTAB
M  END
$$$$
