drugbank_target|P07357 Complement component C8 alpha chain (DB01593; DB14487)
 OpenBabel12092121073D

  0  0  0     0  0            999 V3000
M  V30 BEGIN CTAB
M  V30 COUNTS 8932 9024 0 0 0
M  V30 BEGIN ATOM
M  V30 1 H -0.908 1.98254 -0.117106 0
M  V30 2 N 0 1.576 0 0
M  V30 3 C 0.933 2.03868 1.02534 0
M  V30 4 C 1.911 0.928543 1.3348 0
M  V30 5 O 3.095 1.19667 1.45644 0
M  V30 6 C 0.222 2.43627 2.35294 0
M  V30 7 C -0.732 3.65373 2.2001 0
M  V30 8 S 0.101 5.13292 1.52614 0
M  V30 9 C 1.257 5.56322 2.86805 0
M  V30 10 H 1.49 2.90518 0.631377 0
M  V30 11 H -0.977 1.52953 0.210867 0
M  V30 12 H 0.981 2.67203 3.11629 0
M  V30 13 H -0.358 1.57376 2.7183 0
M  V30 14 H -1.165 3.90944 3.18086 0
M  V30 15 H -1.563 3.418 1.51819 0
M  V30 16 H 0.729 5.58782 3.83104 0
M  V30 17 H 1.672 6.56266 2.65933 0
M  V30 18 H 2.08 4.83886 2.90714 0
M  V30 19 N 1.4781 -0.272755 1.55222 0
M  V30 20 C 2.7251 -1.00433 1.7584 0
M  V30 21 C 3.0531 -1.86275 0.559629 0
M  V30 22 O 2.3081 -1.90269 -0.457857 0
M  V30 23 C 2.6071 -1.91642 3.01675 0
M  V30 24 C 2.2731 -1.21548 4.34208 0
M  V30 25 C 0.9351 -1.02166 4.70229 0
M  V30 26 C 3.2871 -0.716684 5.16249 0
M  V30 27 C 0.6151 -0.316334 5.85847 0
M  V30 28 C 2.9671 -0.0249476 6.32595 0
M  V30 29 C 1.6311 0.180579 6.67256 0
M  V30 30 H 0.9011 -0.367509 0.643443 0
M  V30 31 H 3.5481 -0.276596 1.89492 0
M  V30 32 H 1.8531 -2.71037 2.82924 0
M  V30 33 H 3.5501 -2.48369 3.14824 0
M  V30 34 H 0.1401 -1.37645 4.05896 0
M  V30 35 H 4.3241 -0.854047 4.88896 0
M  V30 36 H -0.4199 -0.146378 6.11225 0
M  V30 37 H 3.7541 0.369311 6.9542 0
M  V30 38 H 1.3811 0.729098 7.56696 0
M  V30 39 N 2.9562 -1.48159 -0.537278 0
M  V30 40 C 3.9192 -1.61665 -1.62472 0
M  V30 41 C 4.9192 -0.490395 -1.5314 0
M  V30 42 O 6.1092 -0.755998 -1.5694 0
M  V30 43 C 3.2412 -1.57997 -3.02076 0
M  V30 44 H 4.4342 -2.58621 -1.51839 0
M  V30 45 H 1.9872 -1.36647 -0.758771 0
M  V30 46 H 2.7222 -0.624913 -3.18222 0
M  V30 47 H 2.5072 -2.39755 -3.10258 0
M  V30 48 H 3.9972 -1.70627 -3.81151 0
M  V30 49 N 4.4343 0.785586 -1.36625 0
M  V30 50 C 5.6803 1.54591 -1.31261 0
M  V30 51 C 6.0133 1.93906 0.106823 0
M  V30 52 O 5.2883 1.63007 1.06108 0
M  V30 53 C 5.5713 2.82038 -2.23889 0
M  V30 54 C 5.4243 2.49066 -3.74548 0
M  V30 55 C 6.7433 3.83887 -2.15217 0
M  V30 56 H 3.8623 0.560846 -0.478143 0
M  V30 57 H 6.5043 0.902278 -1.67209 0
M  V30 58 H 4.6543 3.36961 -1.93363 0
M  V30 59 H 6.3263 2.00164 -4.15611 0
M  V30 60 H 4.5693 1.81954 -3.93796 0
M  V30 61 H 5.2403 3.40109 -4.34776 0
M  V30 62 H 7.7163 3.38421 -2.42096 0
M  V30 63 H 6.5923 4.70806 -2.82193 0
M  V30 64 H 6.8533 4.27131 -1.14068 0
M  V30 65 N 5.9124 1.20967 1.01018 0
M  V30 66 C 7.1584 1.02526 1.74975 0
M  V30 67 C 7.4914 -0.4408 1.89131 0
M  V30 68 O 6.7664 -1.32718 1.42184 0
M  V30 69 C 7.0494 1.71699 3.1653 0
M  V30 70 C 6.9024 3.25791 3.10129 0
M  V30 71 C 8.2214 1.45531 4.15342 0
M  V30 72 H 5.3404 0.373863 0.635134 0
M  V30 73 H 7.9824 1.49071 1.17805 0
M  V30 74 H 6.1324 1.32128 3.65341 0
M  V30 75 H 7.8044 3.74697 2.69072 0
M  V30 76 H 6.0474 3.56363 2.47362 0
M  V30 77 H 6.7184 3.69353 4.10222 0
M  V30 78 H 9.1944 1.79872 3.75213 0
M  V30 79 H 8.0704 1.96453 5.1254 0
M  V30 80 H 8.3314 0.384237 4.40427 0
M  V30 81 N 7.3905 -1.2043 1.01659 0
M  V30 82 C 8.6375 -1.89797 0.705917 0
M  V30 83 C 8.9655 -1.78848 -0.764439 0
M  V30 84 O 8.2205 -1.16694 -1.57102 0
M  V30 85 C 8.5195 -3.40464 1.08714 0
M  V30 86 C 8.1855 -3.71614 2.5537 0
M  V30 87 C 6.8475 -3.79826 2.95441 0
M  V30 88 C 9.1995 -3.85915 3.50313 0
M  V30 89 C 6.5275 -3.99797 4.29394 0
M  V30 90 C 8.8795 -4.07396 4.83954 0
M  V30 91 C 7.5435 -4.13837 5.23732 0
M  V30 92 H 6.8135 -0.694518 0.258313 0
M  V30 93 H 9.4605 -1.42691 1.27717 0
M  V30 94 H 7.7655 -3.89385 0.434309 0
M  V30 95 H 9.4625 -3.92433 0.824461 0
M  V30 96 H 6.0525 -3.65822 2.23321 0
M  V30 97 H 10.2365 -3.78926 3.20513 0
M  V30 98 H 5.4925 -4.03018 4.59768 0
M  V30 99 H 9.6665 -4.17404 5.57447 0
M  V30 100 H 7.2935 -4.29064 6.27541 0
M  V30 101 N 8.8686 -0.792821 -1.36206 0
M  V30 102 C 10.1156 -0.366786 -1.99151 0
M  V30 103 C 10.4436 1.06243 -1.62919 0
M  V30 104 O 9.6986 1.74927 -0.877442 0
M  V30 105 C 9.9976 -0.481501 -3.54142 0
M  V30 106 C 9.6636 -1.87202 -4.10203 0
M  V30 107 C 8.3256 -2.25248 -4.25226 0
M  V30 108 C 10.6776 -2.78237 -4.40719 0
M  V30 109 C 8.0056 -3.53723 -4.68078 0
M  V30 110 C 10.3576 -4.06144 -4.85005 0
M  V30 111 C 9.0216 -4.44207 -4.98234 0
M  V30 112 H 8.2916 -0.134217 -0.728743 0
M  V30 113 H 10.9386 -1.01094 -1.62641 0
M  V30 114 H 9.2436 0.246146 -3.91026 0
M  V30 115 H 10.9406 -0.132844 -4.0078 0
M  V30 116 H 7.5306 -1.56639 -3.98951 0
M  V30 117 H 11.7146 -2.50097 -4.28679 0
M  V30 118 H 6.9706 -3.8308 -4.76508 0
M  V30 119 H 11.1446 -4.76796 -5.07581 0
M  V30 120 H 8.7716 -5.43814 -5.31197 0
M  V30 121 N 10.3467 1.47872 -0.545128 0
M  V30 122 C 11.5957 2.01695 -0.0145033 0
M  V30 123 C 11.9087 1.42609 1.33873 0
M  V30 124 O 13.1147 1.88021 1.95858 0
M  V30 125 C 11.5707 3.59892 0.0245068 0
M  V30 126 C 11.1787 4.27966 -1.32475 0
M  V30 127 C 12.9227 4.21507 0.50316 0
M  V30 128 C 10.8297 5.78136 -1.2455 0
M  V30 129 H 9.7597 0.753998 -0.00165172 0
M  V30 130 H 12.4107 1.69985 -0.691175 0
M  V30 131 H 10.7927 3.88509 0.766575 0
M  V30 132 H 11.9667 4.11003 -2.08357 0
M  V30 133 H 10.2817 3.78286 -1.74036 0
M  V30 134 H 12.8787 5.31538 0.580656 0
M  V30 135 H 13.2217 3.87855 1.51243 0
M  V30 136 H 13.7547 3.97376 -0.183681 0
M  V30 137 H 10.4937 6.16388 -2.23039 0
M  V30 138 H 10.0137 5.97469 -0.528282 0
M  V30 139 H 11.6927 6.40099 -0.942488 0
M  V30 140 N 11.8248 0.280983 1.55075 0
M  V30 141 C 12.7548 -0.597469 2.25727 0
M  V30 142 C 13.7358 -1.15417 1.24952 0
M  V30 143 O 14.9208 -1.18722 1.53684 0
M  V30 144 C 12.0508 -1.7789 2.98283 0
M  V30 145 C 11.0048 -1.35347 4.06036 0
M  V30 146 C 10.3308 -2.61846 4.66198 0
M  V30 147 C 11.6308 -0.499354 5.19907 0
M  V30 148 H 13.3248 -0.00824265 2.99399 0
M  V30 149 H 10.8708 -0.0025244 1.44 0
M  V30 150 H 12.8238 -2.39937 3.46422 0
M  V30 151 H 11.5478 -2.39405 2.22155 0
M  V30 152 H 10.2068 -0.756156 3.58717 0
M  V30 153 H 9.8548 -3.21632 3.86732 0
M  V30 154 H 9.5548 -2.3409 5.38958 0
M  V30 155 H 11.0788 -3.24732 5.1709 0
M  V30 156 H 12.4928 -1.02498 5.64063 0
M  V30 157 H 10.8898 -0.316424 5.99265 0
M  V30 158 H 11.9598 0.480459 4.82514 0
M  V30 159 N 13.3029 -1.57598 0.00835791 0
M  V30 160 C 14.5279 -1.95617 -0.689103 0
M  V30 161 C 14.9529 -0.883753 -1.66046 0
M  V30 162 O 14.3109 0.157352 -1.80616 0
M  V30 163 C 14.3589 -3.32736 -1.38994 0
M  V30 164 O 13.4629 -3.27631 -2.50463 0
M  V30 165 H 12.8039 -0.638379 -0.182668 0
M  V30 166 H 15.3339 -2.045 0.064036 0
M  V30 167 H 15.3439 -3.68494 -1.75147 0
M  V30 168 H 14.0189 -4.1034 -0.677778 0
M  V30 169 H 12.5959 -3.03561 -2.16576 0
M  V30 170 N 14.781 0.264519 -1.55364 0
M  V30 171 C 15.711 1.33121 -1.91836 0
M  V30 172 C 16.692 1.51101 -0.781192 0
M  V30 173 O 17.877 1.64003 -1.04003 0
M  V30 174 C 15.007 2.68921 -2.19769 0
M  V30 175 C 13.961 2.65661 -3.35571 0
M  V30 176 C 13.287 4.05093 -3.49004 0
M  V30 177 C 14.587 2.24187 -4.71739 0
M  V30 178 H 16.281 1.02844 -2.81182 0
M  V30 179 H 13.827 0.493286 -1.35287 0
M  V30 180 H 15.78 3.43663 -2.43872 0
M  V30 181 H 14.504 3.00799 -1.27231 0
M  V30 182 H 13.163 1.93377 -3.1145 0
M  V30 183 H 12.811 4.34206 -2.53917 0
M  V30 184 H 12.511 4.03804 -4.26868 0
M  V30 185 H 14.035 4.81561 -3.75408 0
M  V30 186 H 15.449 2.88654 -4.9533 0
M  V30 187 H 13.846 2.34044 -5.52579 0
M  V30 188 H 14.916 1.19327 -4.69988 0
M  V30 189 N 16.2591 1.48442 0.529413 0
M  V30 190 C 17.1921 1.57577 1.65059 0
M  V30 191 C 18.1701 0.426198 1.56915 0
M  V30 192 O 19.3541 0.637877 1.77379 0
M  V30 193 C 16.4811 1.5043 3.03461 0
M  V30 194 C 15.5271 2.70235 3.29962 0
M  V30 195 S 16.3601 4.32198 3.16172 0
M  V30 196 C 17.5161 4.2765 4.57019 0
M  V30 197 H 17.7491 2.52427 1.5706 0
M  V30 198 H 15.2821 1.36982 0.712417 0
M  V30 199 H 17.2401 1.46992 3.8328 0
M  V30 200 H 15.9011 0.569167 3.089 0
M  V30 201 H 15.0941 2.61374 4.30929 0
M  V30 202 H 14.6961 2.70938 2.57815 0
M  V30 203 H 16.9881 3.97618 5.48549 0
M  V30 204 H 17.9311 5.28797 4.70934 0
M  V30 205 H 18.3391 3.5811 4.36368 0
M  V30 206 N 17.7372 -0.778329 1.37039 0
M  V30 207 C 18.9652 -1.56734 1.35063 0
M  V30 208 C 19.3802 -1.88686 -0.0655597 0
M  V30 209 O 18.7372 -1.5096 -1.02554 0
M  V30 210 C 18.7882 -2.88163 2.18276 0
M  V30 211 O 18.5092 -2.57583 3.54376 0
M  V30 212 C 20.0102 -3.82422 2.24206 0
M  V30 213 H 17.2302 -0.485778 0.462883 0
M  V30 214 H 19.7742 -0.965185 1.8029 0
M  V30 215 H 17.9292 -3.44818 1.76576 0
M  V30 216 H 18.3432 -3.41699 3.97922 0
M  V30 217 H 19.8172 -4.71667 2.86765 0
M  V30 218 H 20.2942 -4.21078 1.24861 0
M  V30 219 H 20.9002 -3.31697 2.6619 0
M  V30 220 N 19.2153 -1.21501 -1.00376 0
M  V30 221 C 20.4553 -1.04444 -1.75701 0
M  V30 222 C 20.8193 0.414644 -1.87469 0
M  V30 223 O 22.0203 0.705763 -2.59369 0
M  V30 224 C 20.2913 -1.72389 -3.13077 0
M  V30 225 S 21.8503 -1.70604 -4.04277 0
M  V30 226 H 18.6683 -0.374249 -0.604532 0
M  V30 227 H 21.2703 -1.54267 -1.20091 0
M  V30 228 H 19.9743 -2.77734 -3.02146 0
M  V30 229 H 19.5053 -1.22751 -3.73759 0
M  V30 230 H 21.5203 -0.748012 -4.9053 0
M  V30 231 N 20.6934 1.19889 -1.02296 0
M  V30 232 C 21.6254 2.22334 -0.556787 0
M  V30 233 C 22.6384 1.58674 0.364199 0
M  V30 234 O 23.8274 1.77768 0.161533 0
M  V30 235 C 20.9274 3.38257 0.208694 0
M  V30 236 C 20.1004 4.31504 -0.71577 0
M  V30 237 C 19.1594 5.262 0.00325597 0
M  V30 238 O 18.1854 5.65798 -0.621357 0
M  V30 239 N 19.3874 5.66303 1.27599 0
M  V30 240 H 22.1524 2.62957 -1.43784 0
M  V30 241 H 19.7134 1.34495 -0.901261 0
M  V30 242 H 21.7054 3.98616 0.699111 0
M  V30 243 H 20.2754 2.96472 0.991102 0
M  V30 244 H 19.4954 3.69016 -1.38638 0
M  V30 245 H 20.7834 4.9072 -1.34428 0
M  V30 246 H 20.1814 5.36155 1.80429 0
M  V30 247 H 18.7384 6.28942 1.71102 0
M  V30 248 N 22.1715 0.800033 1.35784 0
M  V30 249 C 23.5825 0.439142 1.81462 0
M  V30 250 C 23.9335 -1.03813 1.66485 0
M  V30 251 O 23.0585 -1.80626 1.19177 0
M  V30 252 C 23.6535 0.790314 3.29453 0
M  V30 253 C 22.2125 0.482111 3.733 0
M  V30 254 C 21.3595 1.01938 2.57883 0
M  V30 255 H 24.3105 0.992254 1.23855 0
M  V30 256 H 24.3315 0.0853677 3.80404 0
M  V30 257 H 23.8435 1.86554 3.40322 0
M  V30 258 H 21.9445 -0.584652 3.67984 0
M  V30 259 H 22.0575 1.01015 4.6833 0
M  V30 260 H 20.4215 0.442043 2.50835 0
M  V30 261 H 21.2045 2.10059 2.71533 0
M  V30 262 N 23.6496 -1.47581 0.552962 0
M  V30 263 C 24.8976 -2.02082 0.0272703 0
M  V30 264 C 25.2186 -1.4301 -1.32563 0
M  V30 265 O 24.4886 -0.603745 -1.86365 0
M  V30 266 H 23.0686 -0.746966 0.00709182 0
M  V30 267 H 25.7306 -1.81033 0.722008 0
M  V30 268 H 24.8266 -3.12034 -0.0639951 0
M  V30 269 N 25.1277 -0.289203 -1.54924 0
M  V30 270 C 26.3737 0.323998 -2.00195 0
M  V30 271 C 26.7067 1.54441 -1.17735 0
M  V30 272 O 25.9817 1.92875 -0.250878 0
M  V30 273 C 26.2647 0.692276 -3.53383 0
M  V30 274 C 26.1177 -0.536457 -4.46589 0
M  V30 275 C 27.4367 1.52335 -4.12895 0
M  V30 276 H 24.5557 0.116289 -0.727768 0
M  V30 277 H 27.1977 -0.398954 -1.85764 0
M  V30 278 H 25.3477 1.30822 -3.65811 0
M  V30 279 H 27.0197 -1.17499 -4.46085 0
M  V30 280 H 25.2627 -1.17192 -4.1767 0
M  V30 281 H 25.9337 -0.234806 -5.515 0
M  V30 282 H 28.4097 1.00302 -4.0383 0
M  V30 283 H 27.2857 1.74982 -5.20262 0
M  V30 284 H 27.5467 2.50886 -3.64018 0
M  V30 285 N 26.6058 1.57591 -0.0167156 0
M  V30 286 C 27.8338 1.95575 0.675128 0
M  V30 287 C 28.2488 0.892542 1.6637 0
M  V30 288 O 27.6058 -0.126912 1.82058 0
M  V30 289 C 27.6568 3.33608 1.39239 0
M  V30 290 O 27.3778 4.3585 0.443444 0
M  V30 291 C 28.8788 3.86151 2.17721 0
M  V30 292 H 26.0988 0.644423 0.186978 0
M  V30 293 H 28.6428 2.0437 -0.0728 0
M  V30 294 H 26.7978 3.2607 2.09182 0
M  V30 295 H 27.2118 5.158 0.951358 0
M  V30 296 H 28.6858 4.85114 2.63379 0
M  V30 297 H 29.1628 3.19738 3.01105 0
M  V30 298 H 29.7688 3.96918 1.52761 0
M  V30 299 N 28.0839 -0.256276 1.55502 0
M  V30 300 C 29.0469 -1.30047 1.88734 0
M  V30 301 C 30.0469 -1.4154 0.763086 0
M  V30 302 O 31.2369 -1.40403 1.03115 0
M  V30 303 C 28.3689 -2.67953 2.10747 0
M  V30 304 H 29.5619 -1.01802 2.82093 0
M  V30 305 H 27.1149 -0.495134 1.4825 0
M  V30 306 H 27.8499 -3.01351 1.19825 0
M  V30 307 H 27.6349 -2.60993 2.92617 0
M  V30 308 H 29.1249 -3.43368 2.37673 0
M  V30 309 N 29.562 -1.4872 -0.521534 0
M  V30 310 C 30.494 -1.59968 -1.64143 0
M  V30 311 C 31.507 -0.483463 -1.55456 0
M  V30 312 O 32.696 -0.75467 -1.61762 0
M  V30 313 C 29.796 -1.52127 -3.02838 0
M  V30 314 C 28.969 -2.78932 -3.36921 0
M  V30 315 C 28.028 -2.64428 -4.54933 0
M  V30 316 O 27.054 -3.38331 -4.57735 0
M  V30 317 N 28.256 -1.74606 -5.53618 0
M  V30 318 H 31.021 -2.56548 -1.54929 0
M  V30 319 H 28.582 -1.45551 -0.708988 0
M  V30 320 H 30.574 -1.40106 -3.79674 0
M  V30 321 H 29.144 -0.634868 -3.06085 0
M  V30 322 H 28.364 -3.05455 -2.4918 0
M  V30 323 H 29.652 -3.63041 -3.56481 0
M  V30 324 H 29.05 -1.13782 -5.54139 0
M  V30 325 H 27.607 -1.6852 -6.29638 0
M  V30 326 N 31.0401 0.771051 -1.3745 0
M  V30 327 C 31.9501 1.91538 -1.35464 0
M  V30 328 C 32.9661 1.72134 -0.254123 0
M  V30 329 O 34.1421 1.95358 -0.489626 0
M  V30 330 C 31.2071 3.26671 -1.16134 0
M  V30 331 C 30.2681 3.58723 -2.35831 0
M  V30 332 C 29.5011 4.87409 -2.17413 0
M  V30 333 O 29.7241 5.58506 -1.15876 0
M  V30 334 O 28.6581 5.18539 -3.05615 0
M  V30 335 H 32.4841 1.96165 -2.31847 0
M  V30 336 H 30.0691 0.9139 -1.18187 0
M  V30 337 H 31.9511 4.07499 -1.07345 0
M  V30 338 H 30.6261 3.22894 -0.228251 0
M  V30 339 H 29.5331 2.78127 -2.50192 0
M  V30 340 H 30.8661 3.67243 -3.27709 0
M  V30 341 N 32.5182 1.22032 0.997298 0
M  V30 342 C 33.4652 0.986467 2.08656 0
M  V30 343 C 34.4352 -0.0902671 1.65855 0
M  V30 344 O 35.6202 0.0584294 1.90711 0
M  V30 345 C 32.7602 0.565569 3.40434 0
M  V30 346 C 31.8732 1.71259 3.96604 0
M  V30 347 C 31.0082 1.24011 5.16522 0
M  V30 348 C 30.0472 2.35896 5.64818 0
M  V30 349 N 29.1842 1.89726 6.7598 0
M  V30 350 H 34.0242 1.91892 2.27994 0
M  V30 351 H 31.5612 0.956199 1.11782 0
M  V30 352 H 33.5192 0.302738 4.161 0
M  V30 353 H 32.1492 -0.329879 3.2111 0
M  V30 354 H 31.2012 2.08986 3.17851 0
M  V30 355 H 32.5132 2.55436 4.28432 0
M  V30 356 H 31.6672 0.934395 5.99461 0
M  V30 357 H 30.4062 0.368487 4.86306 0
M  V30 358 H 29.4112 2.67261 4.8047 0
M  V30 359 H 30.6362 3.23567 5.97061 0
M  V30 360 H 28.5822 1.0492 6.47555 0
M  V30 361 H 28.4992 2.67471 7.07103 0
M  V30 362 H 29.7672 1.62211 7.62435 0
M  V30 363 N 33.9963 -1.19345 1.0293 0
M  V30 364 C 35.2423 -1.89318 0.727083 0
M  V30 365 C 35.5753 -1.79446 -0.742483 0
M  V30 366 O 34.8503 -1.1871 -1.54072 0
M  V30 367 C 35.1333 -3.40238 1.17942 0
M  V30 368 C 34.9863 -3.58979 2.71024 0
M  V30 369 C 36.3053 -4.33479 0.760548 0
M  V30 370 H 33.4243 -0.687475 0.265606 0
M  V30 371 H 36.0663 -1.40477 1.2793 0
M  V30 372 H 34.2163 -3.81964 0.709608 0
M  V30 373 H 35.8883 -3.26421 3.25955 0
M  V30 374 H 34.1313 -3.02018 3.11396 0
M  V30 375 H 34.8023 -4.64823 2.9773 0
M  V30 376 H 37.2783 -3.99469 1.16464 0
M  V30 377 H 36.1543 -5.37664 1.10493 0
M  V30 378 H 36.4153 -4.40813 -0.337063 0
M  V30 379 N 35.4744 -0.807222 -1.35358 0
M  V30 380 C 36.4224 -0.20614 -2.31685 0
M  V30 381 C 37.4164 0.644445 -1.56663 0
M  V30 382 O 38.6224 0.537538 -1.71786 0
M  V30 383 H 34.9974 -0.0479006 -0.750473 0
M  V30 384 H 36.9684 -1.03369 -2.79924 0
M  V30 385 C 35.7174 0.630212 -3.41941 0
M  V30 386 H 35.0404 -0.0149558 -3.99797 0
M  V30 387 H 36.4804 1.01716 -4.11619 0
M  V30 388 C 34.9394 1.79601 -2.85035 0
M  V30 389 O 35.4694 2.89351 -2.78637 0
M  V30 390 N 33.6754 1.60774 -2.42074 0
M  V30 391 H 33.2224 0.715009 -2.47478 0
M  V30 392 H 33.1804 2.38933 -2.04349 0
M  V30 393 N 36.9525 1.47285 -0.560781 0
M  V30 394 C 37.8845 2.28118 0.222438 0
M  V30 395 C 38.8975 1.37219 0.876056 0
M  V30 396 O 40.0865 1.62011 0.749307 0
M  V30 397 C 37.1865 3.1159 1.33285 0
M  V30 398 C 36.3595 4.30473 0.77534 0
M  V30 399 C 35.4185 4.95513 1.77069 0
M  V30 400 O 34.4445 5.53792 1.31539 0
M  V30 401 N 35.6465 4.90531 3.10418 0
M  V30 402 H 38.4115 2.95976 -0.470958 0
M  V30 403 H 35.9725 1.56955 -0.39709 0
M  V30 404 H 37.9645 3.51967 1.99752 0
M  V30 405 H 36.5345 2.45951 1.92943 0
M  V30 406 H 35.7545 3.94144 -0.0662113 0
M  V30 407 H 37.0425 5.07362 0.382272 0
M  V30 408 H 36.4405 4.44389 3.5005 0
M  V30 409 H 34.9975 5.34917 3.72434 0
M  V30 410 N 38.4306 0.297415 1.54768 0
M  V30 411 C 39.8466 -0.0560823 1.59501 0
M  V30 412 C 40.0466 -1.52725 1.31444 0
M  V30 413 O 39.1026 -2.27947 1.08611 0
M  V30 414 C 40.4156 0.338631 2.98787 0
M  V30 415 C 41.9636 0.287097 3.11681 0
M  V30 416 C 42.4386 0.656579 4.53269 0
M  V30 417 N 43.9296 0.608977 4.59179 0
M  V30 418 C 44.6646 0.867385 5.66802 0
M  V30 419 N 44.1606 1.19157 6.82476 0
M  V30 420 N 45.9536 0.794687 5.56454 0
M  V30 421 H 38.1046 1.25624 1.71267 0
M  V30 422 H 40.3676 0.509057 0.799728 0
M  V30 423 H 40.0736 1.36263 3.2423 0
M  V30 424 H 39.9476 -0.309508 3.75928 0
M  V30 425 H 42.3346 -0.727649 2.85988 0
M  V30 426 H 42.4156 0.969809 2.36703 0
M  V30 427 H 42.0596 1.66912 4.7969 0
M  V30 428 H 41.9896 -0.0481649 5.26578 0
M  V30 429 H 44.4806 0.369198 3.76092 0
M  V30 430 H 44.7936 1.37482 7.60473 0
M  V30 431 H 43.1386 1.22958 6.84037 0
M  V30 432 H 46.3296 0.541098 4.64962 0
M  V30 433 H 46.5026 0.999445 6.40246 0
M  V30 434 N 39.9087 -1.5758 0.0250728 0
M  V30 435 C 41.1547 -1.91917 -0.655413 0
M  V30 436 C 41.4877 -0.901433 -1.72011 0
M  V30 437 O 40.7627 0.0764069 -1.9435 0
M  V30 438 C 41.0457 -3.36751 -1.27558 0
M  V30 439 C 40.8987 -4.49258 -0.220719 0
M  V30 440 C 42.2177 -3.81469 -2.19475 0
M  V30 441 H 39.3367 -0.697925 -0.23679 0
M  V30 442 H 41.9787 -1.89825 0.0815036 0
M  V30 443 H 40.1287 -3.38664 -1.90365 0
M  V30 444 H 41.8007 -4.59478 0.409601 0
M  V30 445 H 40.0437 -4.31415 0.454264 0
M  V30 446 H 40.7147 -5.47618 -0.694175 0
M  V30 447 H 43.1907 -3.81266 -1.66659 0
M  V30 448 H 42.0667 -4.83512 -2.59822 0
M  V30 449 H 42.3277 -3.16744 -3.08424 0
M  V30 450 N 41.3868 0.248026 -1.55636 0
M  V30 451 C 42.8028 0.596483 -1.48035 0
M  V30 452 C 43.0028 1.88386 -0.715039 0
M  V30 453 O 42.0588 2.51319 -0.243944 0
M  V30 454 C 43.3718 0.700258 -2.92433 0
M  V30 455 C 44.9198 0.792659 -3.02797 0
M  V30 456 C 45.3948 0.928005 -4.485 0
M  V30 457 N 46.8858 0.992903 -4.52433 0
M  V30 458 C 47.6208 1.11687 -5.62418 0
M  V30 459 N 47.1168 1.20645 -6.82214 0
M  V30 460 N 48.9098 1.14994 -5.50212 0
M  V30 461 H 41.0608 -0.597109 -2.03834 0
M  V30 462 H 43.3238 -0.205925 -0.925364 0
M  V30 463 H 43.0298 -0.175658 -3.51261 0
M  V30 464 H 42.9038 1.57255 -3.42857 0
M  V30 465 H 45.2908 1.65903 -2.4405 0
M  V30 466 H 45.3718 -0.104762 -2.55585 0
M  V30 467 H 45.0158 0.0661971 -5.07857 0
M  V30 468 H 44.9458 1.84045 -4.93391 0
M  V30 469 H 47.4368 0.935064 -3.66149 0
M  V30 470 H 47.7498 1.30008 -7.61786 0
M  V30 471 H 46.0948 1.17605 -6.84977 0
M  V30 472 H 49.2858 1.07643 -4.55555 0
M  V30 473 H 49.4588 1.24311 -6.35965 0
M  V30 474 N 42.8649 1.48995 0.513639 0
M  V30 475 C 44.2809 1.35478 0.843682 0
M  V30 476 C 44.4809 0.378213 1.97919 0
M  V30 477 O 43.5369 -0.194689 2.51748 0
M  V30 478 C 44.8499 2.75901 1.1958 0
M  V30 479 C 46.3979 2.84509 1.30474 0
M  V30 480 C 46.8729 4.25671 1.69021 0
M  V30 481 N 48.3639 4.28422 1.76094 0
M  V30 482 C 49.0989 5.34601 2.07338 0
M  V30 483 N 48.5949 6.5104 2.36894 0
M  V30 484 N 50.3879 5.22007 2.08483 0
M  V30 485 H 42.5389 2.11092 -0.235328 0
M  V30 486 H 44.8019 0.947039 -0.0426669 0
M  V30 487 H 44.5079 3.49001 0.434913 0
M  V30 488 H 44.3819 3.10467 2.1422 0
M  V30 489 H 46.7689 2.11655 2.05637 0
M  V30 490 H 46.8499 2.53542 0.339155 0
M  V30 491 H 46.4939 4.99048 0.944135 0
M  V30 492 H 46.4239 4.54094 2.66658 0
M  V30 493 H 48.9149 3.44441 1.55464 0
M  V30 494 H 49.2279 7.2779 2.59887 0
M  V30 495 H 47.5729 6.54287 2.34378 0
M  V30 496 H 50.7639 4.30051 1.84861 0
M  V30 497 H 50.9369 6.04854 2.325 0
M  V30 498 N 44.343 -0.763751 1.37857 0
M  V30 499 C 45.306 -1.85889 1.34081 0
M  V30 500 C 46.306 -1.58949 0.243277 0
M  V30 501 O 47.496 -1.66882 0.499589 0
M  V30 502 C 44.628 -3.23176 1.08489 0
M  V30 503 H 45.821 -1.90648 2.31502 0
M  V30 504 H 43.374 -0.964367 1.23003 0
M  V30 505 H 44.109 -3.24091 0.116318 0
M  V30 506 H 43.894 -3.44124 1.8794 0
M  V30 507 H 45.384 -4.03254 1.08517 0
M  V30 508 N 45.8211 -1.22559 -0.990812 0
M  V30 509 C 46.7841 -0.998863 -2.0629 0
M  V30 510 C 47.7841 0.0354834 -1.60761 0
M  V30 511 O 48.9741 -0.203231 -1.7301 0
M  V30 512 C 46.1061 -0.509203 -3.37076 0
M  V30 513 H 47.2991 -1.95014 -2.27837 0
M  V30 514 H 44.8521 -1.04456 -1.16269 0
M  V30 515 H 45.5871 0.446335 -3.21214 0
M  V30 516 H 45.3721 -1.25547 -3.71457 0
M  V30 517 H 46.8621 -0.370888 -4.1595 0
M  V30 518 N 47.2992 1.18797 -1.03562 0
M  V30 519 C 48.5272 1.92599 -0.755869 0
M  V30 520 C 48.9422 1.75886 0.686271 0
M  V30 521 O 48.2992 1.08517 1.46732 0
M  V30 522 C 48.3502 3.44159 -1.10619 0
M  V30 523 O 48.0712 3.60341 -2.4917 0
M  V30 524 C 49.5722 4.3507 -0.850214 0
M  V30 525 H 46.7922 0.611587 -0.276048 0
M  V30 526 H 49.3362 1.50742 -1.38192 0
M  V30 527 H 47.4912 3.83823 -0.525194 0
M  V30 528 H 47.9052 4.54128 -2.62427 0
M  V30 529 H 49.3792 5.39989 -1.14523 0
M  V30 530 H 49.8562 4.38673 0.215176 0
M  V30 531 H 50.4622 4.01097 -1.41426 0
M  V30 532 N 48.7773 0.814389 1.34928 0
M  V30 533 C 50.1883 0.458364 1.80986 0
M  V30 534 C 50.5393 -1.02042 1.67577 0
M  V30 535 O 49.6643 -1.79352 1.21086 0
M  V30 536 C 50.2593 0.825212 3.28597 0
M  V30 537 C 48.8183 0.521677 3.72767 0
M  V30 538 C 47.9653 1.04668 2.56788 0
M  V30 539 H 50.9163 1.00533 1.22795 0
M  V30 540 H 50.9373 0.12571 3.80292 0
M  V30 541 H 50.4493 1.90154 3.38324 0
M  V30 542 H 48.5503 -0.545589 3.68584 0
M  V30 543 H 48.6633 1.05977 4.67232 0
M  V30 544 H 47.0273 0.468622 2.50352 0
M  V30 545 H 47.8103 2.12927 2.6929 0
M  V30 546 N 50.2554 -1.46986 0.568584 0
M  V30 547 C 51.2184 -2.28624 -0.162366 0
M  V30 548 C 52.2184 -1.37596 -0.832103 0
M  V30 549 O 53.4084 -1.60115 -0.68622 0
M  V30 550 C 50.5404 -3.17596 -1.23878 0
M  V30 551 H 51.7334 -2.94722 0.554899 0
M  V30 552 H 49.2864 -1.52863 0.325976 0
M  V30 553 H 50.0214 -2.56214 -1.98808 0
M  V30 554 H 49.8064 -3.846 -0.763219 0
M  V30 555 H 51.2964 -3.79078 -1.75185 0
M  V30 556 N 51.7335 -0.305618 -1.54608 0
M  V30 557 C 52.6965 0.555591 -2.22364 0
M  V30 558 C 53.6965 1.05768 -1.21119 0
M  V30 559 O 54.8865 0.952972 -1.45822 0
M  V30 560 C 52.0185 1.76974 -2.91364 0
M  V30 561 H 53.2115 -0.0364572 -2.99878 0
M  V30 562 H 50.7645 -0.0565007 -1.56198 0
M  V30 563 H 51.4995 2.40151 -2.17941 0
M  V30 564 H 51.2845 1.41732 -3.65588 0
M  V30 565 H 52.7745 2.38148 -3.43038 0
M  V30 566 N 53.2116 1.57565 -0.0334293 0
M  V30 567 C 54.4576 1.92262 0.645226 0
M  V30 568 C 54.7906 0.910543 1.71531 0
M  V30 569 O 54.0656 -0.066099 1.94388 0
M  V30 570 C 54.3486 3.37422 1.2577 0
M  V30 571 C 54.2016 4.49369 0.196891 0
M  V30 572 C 55.5206 3.82628 2.17449 0
M  V30 573 H 52.6396 0.699171 0.233085 0
M  V30 574 H 55.2816 1.89779 -0.0915694 0
M  V30 575 H 53.4316 3.39669 1.88566 0
M  V30 576 H 55.1036 4.59254 -0.433962 0
M  V30 577 H 53.3466 4.31168 -0.477137 0
M  V30 578 H 54.0176 5.47978 0.665124 0
M  V30 579 H 56.4936 3.82145 1.64634 0
M  V30 580 H 55.3696 4.84883 2.57254 0
M  V30 581 H 55.6306 3.18376 3.0674 0
M  V30 582 N 54.6897 -0.239769 1.55765 0
M  V30 583 C 55.9177 -0.98417 1.81994 0
M  V30 584 C 56.3327 -1.7867 0.610124 0
M  V30 585 O 55.6897 -1.77571 -0.421271 0
M  V30 586 C 55.7407 -1.91635 3.06526 0
M  V30 587 O 55.4617 -1.14629 4.22838 0
M  V30 588 C 56.9627 -2.77616 3.45607 0
M  V30 589 H 54.1827 -0.28928 0.605441 0
M  V30 590 H 56.7267 -0.260499 2.02834 0
M  V30 591 H 54.8817 -2.5942 2.87715 0
M  V30 592 H 55.2957 -1.77745 4.93464 0
M  V30 593 H 56.7697 -3.38759 4.35828 0
M  V30 594 H 57.2467 -3.4909 2.6652 0
M  V30 595 H 57.8527 -2.15271 3.66795 0
M  V30 596 N 56.1678 -1.49265 -0.50573 0
M  V30 597 C 57.4078 -1.60128 -1.27038 0
M  V30 598 C 57.7718 -0.279557 -1.89954 0
M  V30 599 O 58.9728 -0.263329 -2.67507 0
M  V30 600 C 57.2438 -2.72507 -2.31246 0
M  V30 601 S 58.8028 -3.0329 -3.17113 0
M  V30 602 H 55.6208 -0.564863 -0.4318 0
M  V30 603 H 58.2228 -1.86902 -0.573397 0
M  V30 604 H 56.9268 -3.67068 -1.83546 0
M  V30 605 H 56.4578 -2.4771 -3.05619 0
M  V30 606 H 58.4728 -2.44448 -4.31809 0
M  V30 607 N 57.6459 0.756429 -1.3826 0
M  V30 608 C 58.5779 1.87971 -1.31147 0
M  V30 609 C 59.5909 1.61248 -0.224239 0
M  V30 610 O 60.7799 1.71881 -0.481581 0
M  V30 611 C 57.8799 3.23545 -1.00857 0
M  V30 612 C 57.0529 3.77794 -2.20432 0
M  V30 613 C 56.1119 4.91877 -1.86931 0
M  V30 614 O 55.1379 5.06659 -2.59395 0
M  V30 615 N 56.3399 5.74643 -0.822568 0
M  V30 616 H 59.1049 1.94585 -2.2794 0
M  V30 617 H 56.6659 0.936234 -1.32084 0
M  V30 618 H 58.6579 3.97403 -0.765021 0
M  V30 619 H 57.2279 3.12335 -0.128687 0
M  V30 620 H 56.4479 2.95534 -2.6087 0
M  V30 621 H 57.7359 4.10771 -3.00241 0
M  V30 622 H 57.1339 5.65266 -0.221575 0
M  V30 623 H 55.6909 6.48661 -0.638899 0
M  V30 624 N 59.124 1.23083 0.984299 0
M  V30 625 C 60.054 1.03292 2.09411 0
M  V30 626 C 61.035 -0.048923 1.7003 0
M  V30 627 O 62.22 0.114967 1.93859 0
M  V30 628 C 59.35 0.619155 3.41736 0
M  V30 629 C 58.304 1.64791 3.95004 0
M  V30 630 C 57.63 1.0897 5.23478 0
M  V30 631 C 58.93 3.03999 4.24714 0
M  V30 632 H 60.624 1.96119 2.26225 0
M  V30 633 H 58.17 0.944344 1.08711 0
M  V30 634 H 60.123 0.467777 4.18796 0
M  V30 635 H 58.847 -0.344786 3.24775 0
M  V30 636 H 57.506 1.78721 3.20085 0
M  V30 637 H 57.154 0.11686 5.02864 0
M  V30 638 H 56.854 1.77704 5.60085 0
M  V30 639 H 58.378 0.950093 6.03163 0
M  V30 640 H 59.792 2.93393 4.92538 0
M  V30 641 H 58.189 3.69936 4.72512 0
M  V30 642 H 59.259 3.53285 3.32142 0
M  V30 643 N 60.6021 -1.18246 1.0419 0
M  V30 644 C 61.8271 -1.92736 0.765996 0
M  V30 645 C 62.2521 -1.75728 -0.67091 0
M  V30 646 O 61.6101 -1.06825 -1.46486 0
M  V30 647 C 61.6581 -3.42148 1.13875 0
M  V30 648 O 60.7621 -4.11548 0.264954 0
M  V30 649 H 60.1031 -0.601238 0.281797 0
M  V30 650 H 62.6331 -1.49942 1.39207 0
M  V30 651 H 62.6431 -3.92858 1.1012 0
M  V30 652 H 61.3181 -3.53848 2.18551 0
M  V30 653 H 59.8951 -3.71137 0.362226 0
M  V30 654 N 62.0802 -0.821533 -1.34494 0
M  V30 655 C 63.0282 -0.230702 -2.31453 0
M  V30 656 C 64.0222 0.627793 -1.57338 0
M  V30 657 O 65.2282 0.519288 -1.72347 0
M  V30 658 H 61.6032 -0.0558577 -0.749923 0
M  V30 659 H 63.5742 -1.06332 -2.78812 0
M  V30 660 C 62.3232 0.59391 -3.4259 0
M  V30 661 H 61.6462 -0.0573588 -3.99759 0
M  V30 662 H 63.0862 0.973446 -4.12674 0
M  V30 663 C 61.5452 1.76568 -2.86924 0
M  V30 664 O 62.0752 2.8638 -2.81691 0
M  V30 665 N 60.2812 1.58198 -2.43766 0
M  V30 666 H 59.8282 0.68872 -2.48222 0
M  V30 667 H 59.7862 2.36752 -2.06871 0
M  V30 668 N 63.5583 1.46682 -0.576371 0
M  V30 669 C 64.8043 2.03287 -0.0679305 0
M  V30 670 C 65.1593 1.44063 1.27529 0
M  V30 671 O 64.4523 0.593973 1.82161 0
M  V30 672 C 64.6463 3.57345 0.062886 0
M  V30 673 C 64.4753 4.31509 -1.26611 0
M  V30 674 C 63.2453 4.70664 -1.83856 0
M  V30 675 C 65.4433 4.65444 -2.18783 0
M  V30 676 N 63.4253 5.29552 -3.10561 0
M  V30 677 C 64.7963 5.24835 -3.30072 0
M  V30 678 C 66.8513 4.47375 -2.18542 0
M  V30 679 C 65.5543 5.68063 -4.41244 0
M  V30 680 C 67.5803 4.91614 -3.28739 0
M  V30 681 C 66.9423 5.51071 -4.38748 0
M  V30 682 H 63.0413 0.779083 -0.0674836 0
M  V30 683 H 65.6253 1.78918 -0.767877 0
M  V30 684 H 63.7963 3.8144 0.731988 0
M  V30 685 H 65.5283 4.00592 0.575134 0
M  V30 686 H 62.2833 4.53224 -1.37424 0
M  V30 687 H 62.7073 5.63523 -3.75195 0
M  V30 688 H 67.3493 4.00747 -1.34765 0
M  V30 689 H 65.0673 6.13672 -5.25768 0
M  V30 690 H 68.6533 4.79389 -3.29662 0
M  V30 691 H 67.5333 5.84678 -5.22611 0
M  V30 692 N 65.0364 0.313813 1.54444 0
M  V30 693 C 66.2614 -0.296681 2.05267 0
M  V30 694 C 66.6864 -1.45757 1.18897 0
M  V30 695 O 66.0444 -1.80239 0.195886 0
M  V30 696 C 66.0924 -0.71831 3.53373 0
M  V30 697 O 65.1964 -1.82175 3.69981 0
M  V30 698 H 64.5374 -0.0554061 0.661684 0
M  V30 699 H 67.0674 0.459387 1.99376 0
M  V30 700 H 67.0774 -1.00364 3.95463 0
M  V30 701 H 65.7524 0.130821 4.15694 0
M  V30 702 H 64.3294 -1.53598 3.39797 0
M  V30 703 N 66.5145 -1.57545 0.0417849 0
M  V30 704 C 67.4245 -2.14451 -0.951213 0
M  V30 705 C 68.4405 -1.09992 -1.34825 0
M  V30 706 O 69.6165 -1.42114 -1.42708 0
M  V30 707 C 66.6815 -2.67063 -2.21084 0
M  V30 708 C 65.7425 -3.86284 -1.87304 0
M  V30 709 C 64.9755 -4.36378 -3.07261 0
M  V30 710 O 65.1985 -3.85587 -4.20332 0
M  V30 711 O 64.1325 -5.28077 -2.88822 0
M  V30 712 H 67.9585 -2.99601 -0.497287 0
M  V30 713 H 65.5435 -1.48317 -0.179567 0
M  V30 714 H 67.4255 -3.00914 -2.95006 0
M  V30 715 H 66.1005 -1.84989 -2.65633 0
M  V30 716 H 65.0075 -3.57338 -1.10727 0
M  V30 717 H 66.3405 -4.6956 -1.47562 0
M  V30 718 N 67.9926 0.231505 -1.5589 0
M  V30 719 C 69.2386 0.954429 -1.79617 0
M  V30 720 C 69.5936 1.82367 -0.613199 0
M  V30 721 O 68.8866 1.87524 0.393094 0
M  V30 722 C 69.0806 1.83577 -3.0665 0
M  V30 723 C 68.9096 1.05334 -4.3719 0
M  V30 724 C 67.6796 0.75225 -4.99669 0
M  V30 725 C 69.8776 0.423444 -5.12554 0
M  V30 726 N 67.8596 -0.052627 -6.13877 0
M  V30 727 C 69.2306 -0.245287 -6.19515 0
M  V30 728 C 71.2856 0.335466 -4.96769 0
M  V30 729 C 69.9886 -0.993566 -7.12405 0
M  V30 730 C 72.0146 -0.399321 -5.9005 0
M  V30 731 C 71.3766 -1.05663 -6.9643 0
M  V30 732 H 67.4756 0.329846 -0.709031 0
M  V30 733 H 70.0596 0.226172 -1.93382 0
M  V30 734 H 68.2306 2.53592 -2.94186 0
M  V30 735 H 69.9626 2.49541 -3.18608 0
M  V30 736 H 66.7176 1.06783 -4.61405 0
M  V30 737 H 67.1416 -0.443609 -6.75545 0
M  V30 738 H 71.7836 0.829311 -4.14587 0
M  V30 739 H 69.5016 -1.49896 -7.94076 0
M  V30 740 H 73.0876 -0.468265 -5.79913 0
M  V30 741 H 71.9676 -1.61612 -7.67366 0
M  V30 742 N 69.4707 1.49531 0.497807 0
M  V30 743 C 70.6987 1.62893 1.27567 0
M  V30 744 C 71.1137 0.301585 1.86376 0
M  V30 745 O 70.4707 -0.713335 1.67982 0
M  V30 746 C 70.5217 2.70013 2.40364 0
M  V30 747 O 70.2427 3.976 1.83972 0
M  V30 748 C 71.7437 2.94109 3.31685 0
M  V30 749 H 68.9637 0.548298 0.386794 0
M  V30 750 H 71.5077 1.95584 0.597245 0
M  V30 751 H 69.6627 2.40092 3.04031 0
M  V30 752 H 70.0767 4.56631 2.58047 0
M  V30 753 H 71.5507 3.72788 4.07104 0
M  V30 754 H 72.0277 2.04147 3.88871 0
M  V30 755 H 72.6337 3.2546 2.73781 0
M  V30 756 N 70.9488 -0.749086 1.3866 0
M  V30 757 C 72.2258 -1.4992 1.25632 0
M  V30 758 C 72.6058 -2.10633 -0.140317 0
M  V30 759 O 71.9538 -1.97437 -1.15025 0
M  V30 760 C 72.1638 -2.56195 2.36992 0
M  V30 761 C 73.5118 -3.22972 2.75634 0
M  V30 762 O 74.5358 -2.66502 2.36337 0
M  V30 763 O 73.3948 -4.25122 3.43415 0
M  V30 764 H 70.4888 -0.665067 0.491544 0
M  V30 765 H 73.0348 -0.784113 1.50498 0
M  V30 766 H 71.8068 -2.09612 3.30422 0
M  V30 767 H 71.4298 -3.35279 2.13714 0
M  V30 768 N 72.4269 -1.23603 -0.977757 0
M  V30 769 C 73.6669 -1.08148 -1.73446 0
M  V30 770 C 74.0309 0.374785 -1.88307 0
M  V30 771 O 75.2319 0.650588 -2.60808 0
M  V30 772 C 73.5029 -1.78991 -3.0935 0
M  V30 773 S 75.0619 -1.79141 -4.00567 0
M  V30 774 H 71.8799 -0.386987 -0.596458 0
M  V30 775 H 74.4819 -1.5678 -1.16792 0
M  V30 776 H 73.1859 -2.8408 -2.96187 0
M  V30 777 H 72.7169 -1.30651 -3.71071 0
M  V30 778 H 74.7319 -0.851892 -4.88833 0
M  V30 779 N 73.905 1.17692 -1.04816 0
M  V30 780 C 75.152 1.87859 -0.75599 0
M  V30 781 C 75.48 1.80812 0.716752 0
M  V30 782 O 74.735 1.20819 1.53952 0
M  V30 783 C 75.034 3.37462 -1.17703 0
M  V30 784 C 74.7 3.64713 -2.65133 0
M  V30 785 C 73.362 3.71859 -3.05408 0
M  V30 786 C 75.714 3.76492 -3.60421 0
M  V30 787 C 73.042 3.88271 -4.39843 0
M  V30 788 C 75.394 3.94421 -4.94585 0
M  V30 789 C 74.058 3.99806 -5.3452 0
M  V30 790 H 73.328 0.687425 -0.276636 0
M  V30 791 H 75.975 1.39255 -1.31455 0
M  V30 792 H 74.28 3.88097 -0.537395 0
M  V30 793 H 75.977 3.90109 -0.928218 0
M  V30 794 H 72.567 3.59772 -2.32942 0
M  V30 795 H 76.751 3.70295 -3.30447 0
M  V30 796 H 72.007 3.90687 -4.70291 0
M  V30 797 H 76.181 4.02477 -5.68318 0
M  V30 798 H 73.808 4.12276 -6.38696 0
M  V30 799 N 75.3831 0.828654 1.34056 0
M  V30 800 C 76.7941 0.477534 1.8049 0
M  V30 801 C 77.1451 -1.00258 1.6865 0
M  V30 802 O 76.2701 -1.78057 1.22982 0
M  V30 803 C 76.8651 0.860018 3.27703 0
M  V30 804 C 75.4241 0.561185 3.72193 0
M  V30 805 C 74.5711 1.07385 2.55663 0
M  V30 806 H 77.5221 1.0183 1.21722 0
M  V30 807 H 77.5431 0.166038 3.80138 0
M  V30 808 H 77.0551 1.93731 3.36288 0
M  V30 809 H 75.1561 -0.506465 3.69142 0
M  V30 810 H 75.2691 1.10926 4.66082 0
M  V30 811 H 73.6331 0.495149 2.49841 0
M  V30 812 H 74.4161 2.15771 2.67016 0
M  V30 813 N 76.8612 -1.46375 0.584142 0
M  V30 814 C 78.1012 -2.0427 0.0729695 0
M  V30 815 C 78.4652 -1.44563 -1.26355 0
M  V30 816 O 79.6662 -1.93667 -1.86405 0
M  V30 817 C 77.9372 -3.57399 0.00967464 0
M  V30 818 S 79.4962 -4.36551 -0.443714 0
M  V30 819 H 76.3142 -0.709975 0.0381673 0
M  V30 820 H 78.9162 -1.79398 0.776962 0
M  V30 821 H 77.6202 -3.98372 0.986319 0
M  V30 822 H 77.1512 -3.8681 -0.717044 0
M  V30 823 H 79.1662 -4.66237 -1.69816 0
M  V30 824 N 78.3393 -0.321999 -1.54275 0
M  V30 825 C 79.2713 0.578671 -2.21775 0
M  V30 826 C 80.2843 1.08109 -1.21722 0
M  V30 827 O 81.4733 0.994938 -1.482 0
M  V30 828 C 78.5733 1.80661 -2.86731 0
M  V30 829 C 77.7463 1.44314 -4.12907 0
M  V30 830 C 76.8053 2.52845 -4.61472 0
M  V30 831 O 75.8313 2.17054 -5.2619 0
M  V30 832 N 77.0333 3.83748 -4.35566 0
M  V30 833 H 79.7983 0.000709447 -2.997 0
M  V30 834 H 77.3593 -0.145132 -1.61248 0
M  V30 835 H 79.3513 2.52655 -3.16145 0
M  V30 836 H 77.9213 2.29245 -2.12521 0
M  V30 837 H 77.1413 0.554906 -3.90275 0
M  V30 838 H 78.4293 1.17598 -4.95023 0
M  V30 839 H 77.8273 4.15625 -3.83761 0
M  V30 840 H 76.3843 4.51977 -4.69638 0
M  V30 841 N 79.8174 1.5752 -0.0501392 0
M  V30 842 C 81.0944 1.83996 0.663685 0
M  V30 843 C 81.4744 0.938339 1.89099 0
M  V30 844 O 80.8224 -0.00087759 2.285 0
M  V30 845 C 81.0324 3.33702 1.02196 0
M  V30 846 C 82.3804 4.00691 1.40469 0
M  V30 847 O 83.4044 3.38321 1.11433 0
M  V30 848 O 82.2634 5.10658 1.94654 0
M  V30 849 H 79.3574 0.759385 0.32751 0
M  V30 850 H 81.9034 1.69514 -0.0794238 0
M  V30 851 H 80.6754 3.91015 0.149364 0
M  V30 852 H 80.2984 3.53368 1.82255 0
M  V30 853 N 81.2955 -0.223234 1.56011 0
M  V30 854 C 82.2425 -1.27664 1.92277 0
M  V30 855 C 83.2125 -1.46659 0.779763 0
M  V30 856 O 84.3975 -1.60256 1.03551 0
M  V30 857 C 81.5375 -2.62234 2.24338 0
M  V30 858 C 80.6505 -2.51051 3.51564 0
M  V30 859 C 79.7855 -3.78133 3.7308 0
M  V30 860 C 78.8245 -3.61665 4.93827 0
M  V30 861 N 77.9615 -4.80693 5.11741 0
M  V30 862 H 82.8015 -0.960358 2.82101 0
M  V30 863 H 80.3385 -0.462901 1.39627 0
M  V30 864 H 82.2965 -3.40596 2.40936 0
M  V30 865 H 80.9265 -2.91961 1.3769 0
M  V30 866 H 79.9785 -1.64132 3.43169 0
M  V30 867 H 81.2905 -2.34803 4.40079 0
M  V30 868 H 80.4445 -4.64938 3.89766 0
M  V30 869 H 79.1835 -3.97304 2.82844 0
M  V30 870 H 78.1885 -2.73244 4.77093 0
M  V30 871 H 79.4135 -3.43966 5.85546 0
M  V30 872 H 77.3595 -5.00181 4.24446 0
M  V30 873 H 77.2765 -4.67165 5.94384 0
M  V30 874 H 78.5445 -5.6893 5.3286 0
M  V30 875 N 82.7736 -1.49793 -0.48987 0
M  V30 876 C 83.7206 -1.67281 -1.59014 0
M  V30 877 C 84.6906 -0.514177 -1.57941 0
M  V30 878 O 85.8756 -0.742533 -1.75759 0
M  V30 879 C 83.0156 -1.75569 -2.97102 0
M  V30 880 C 82.1286 -3.0281 -3.08107 0
M  V30 881 C 81.2636 -3.02008 -4.36995 0
M  V30 882 C 80.3026 -4.23782 -4.41673 0
M  V30 883 N 79.4396 -4.20826 -5.62005 0
M  V30 884 H 84.2796 -2.61224 -1.43409 0
M  V30 885 H 81.8166 -1.29508 -0.697565 0
M  V30 886 H 83.7746 -1.78354 -3.77155 0
M  V30 887 H 82.4046 -0.850827 -3.11385 0
M  V30 888 H 81.4566 -3.09584 -2.21047 0
M  V30 889 H 82.7686 -3.92801 -3.07423 0
M  V30 890 H 81.9226 -3.03418 -5.25378 0
M  V30 891 H 80.6616 -2.09815 -4.4026 0
M  V30 892 H 79.6666 -4.22604 -3.5169 0
M  V30 893 H 80.8916 -5.17181 -4.40115 0
M  V30 894 H 78.8376 -3.31476 -5.66091 0
M  V30 895 H 78.7546 -5.04564 -5.62984 0
M  V30 896 H 80.0226 -4.26355 -6.52565 0
M  V30 897 N 84.2517 0.741722 -1.39055 0
M  V30 898 C 85.4817 1.52876 -1.3897 0
M  V30 899 C 85.8897 1.8919 0.0193266 0
M  V30 900 O 85.2327 1.54138 0.999356 0
M  V30 901 C 85.2947 2.84929 -2.19216 0
M  V30 902 C 84.9587 2.71086 -3.67915 0
M  V30 903 C 85.9557 2.40084 -4.61146 0
M  V30 904 C 83.6407 2.88168 -4.11418 0
M  V30 905 C 85.6347 2.26335 -5.95862 0
M  V30 906 C 83.3217 2.74037 -5.46211 0
M  V30 907 C 84.3197 2.43166 -6.38247 0
M  V30 908 O 84.0077 2.29115 -7.70559 0
M  V30 909 H 83.7397 0.479252 -0.476753 0
M  V30 910 H 86.2937 0.924751 -1.83405 0
M  V30 911 H 84.5237 3.47564 -1.69518 0
M  V30 912 H 86.2127 3.46509 -2.11392 0
M  V30 913 H 86.9787 2.26545 -4.28838 0
M  V30 914 H 82.8577 3.11191 -3.40119 0
M  V30 915 H 86.4017 2.0216 -6.67665 0
M  V30 916 H 82.2987 2.87153 -5.78112 0
M  V30 917 H 83.0667 2.44237 -7.81211 0
M  V30 918 N 85.7298 1.2412 0.971189 0
M  V30 919 C 87.1458 1.00584 1.23916 0
M  V30 920 C 87.3458 -0.287481 1.99439 0
M  V30 921 O 86.4018 -1.00454 2.31658 0
M  V30 922 C 87.7148 2.21864 2.0297 0
M  V30 923 C 89.2628 2.26452 2.16076 0
M  V30 924 C 89.7378 3.47343 2.98524 0
M  V30 925 N 91.2288 3.47639 3.06107 0
M  V30 926 C 91.9638 4.37837 3.70251 0
M  V30 927 N 91.4598 5.38286 4.36142 0
M  V30 928 N 93.2528 4.25558 3.67228 0
M  V30 929 H 85.4038 2.07236 0.465499 0
M  V30 930 H 87.6668 0.909236 0.268315 0
M  V30 931 H 87.3728 3.15771 1.54861 0
M  V30 932 H 87.2468 2.23698 3.03709 0
M  V30 933 H 89.6338 1.33078 2.6339 0
M  V30 934 H 89.7148 2.28645 1.14696 0
M  V30 935 H 89.3588 4.41029 2.51905 0
M  V30 936 H 89.2888 3.42393 4.00093 0
M  V30 937 H 91.7798 2.74966 2.59233 0
M  V30 938 H 92.0928 6.03352 4.82894 0
M  V30 939 H 90.4378 5.42176 4.34822 0
M  V30 940 H 93.6288 3.46322 3.14927 0
M  V30 941 H 93.8018 4.96054 4.16935 0
M  V30 942 N 87.2079 -1.17134 1.05439 0
M  V30 943 C 88.1579 -2.1919 0.627675 0
M  V30 944 C 89.1419 -1.57328 -0.337147 0
M  V30 945 O 90.3339 -1.76329 -0.153976 0
M  V30 946 C 87.4629 -3.43299 0.00651435 0
M  V30 947 C 86.5489 -4.12255 0.995312 0
M  V30 948 N 86.9399 -4.56997 2.16765 0
M  V30 949 C 85.2379 -4.38316 0.824336 0
M  V30 950 C 85.9389 -5.10239 2.7934 0
M  V30 951 N 84.9149 -5.02595 2.07122 0
M  V30 952 H 88.7169 -2.5149 1.52086 0
M  V30 953 H 86.2309 -1.33491 0.924868 0
M  V30 954 H 88.2279 -4.15693 -0.316965 0
M  V30 955 H 86.8879 -3.1249 -0.882033 0
M  V30 956 H 87.8989 -4.51006 2.54587 0
M  V30 957 H 84.5759 -4.17498 -0.0129526 0
M  V30 958 H 85.9659 -5.54961 3.78772 0
M  V30 959 N 88.686 -0.835752 -1.33615 0
M  V30 960 C 90.102 -0.523139 -1.50783 0
M  V30 961 C 90.302 0.950171 -1.77691 0
M  V30 962 O 89.358 1.73411 -1.83534 0
M  V30 963 C 90.671 -1.39378 -2.66448 0
M  V30 964 C 92.219 -1.39223 -2.80332 0
M  V30 965 C 92.694 -2.24765 -3.99055 0
M  V30 966 N 94.185 -2.22458 -4.06284 0
M  V30 967 C 94.92 -2.85386 -4.97336 0
M  V30 968 N 94.416 -3.57354 -5.93523 0
M  V30 969 N 96.209 -2.74872 -4.90308 0
M  V30 970 H 88.36 -1.78952 -1.14411 0
M  V30 971 H 90.623 -0.763297 -0.562212 0
M  V30 972 H 90.329 -2.44061 -2.53234 0
M  V30 973 H 90.203 -1.0676 -3.61776 0
M  V30 974 H 92.59 -0.353136 -2.92979 0
M  V30 975 H 92.671 -1.75846 -1.85773 0
M  V30 976 H 92.315 -3.28732 -3.87167 0
M  V30 977 H 92.245 -1.85485 -4.92852 0
M  V30 978 H 94.736 -1.70119 -3.37443 0
M  V30 979 H 95.049 -4.02584 -6.59656 0
M  V30 980 H 93.394 -3.61461 -5.93608 0
M  V30 981 H 96.585 -2.18213 -4.14126 0
M  V30 982 H 96.758 -3.24199 -5.61069 0
M  V30 983 N 90.1641 1.46063 -0.591896 0
M  V30 984 C 91.3891 2.07226 -0.0850314 0
M  V30 985 C 91.8141 1.43625 1.21463 0
M  V30 986 O 91.1721 0.523305 1.73583 0
M  V30 987 C 91.2201 3.60554 0.0576567 0
M  V30 988 O 90.3241 3.97128 1.11188 0
M  V30 989 H 89.6651 0.660615 -0.0669568 0
M  V30 990 H 92.1951 1.8756 -0.81745 0
M  V30 991 H 92.2051 4.07165 0.2609 0
M  V30 992 H 90.8801 4.06235 -0.891416 0
M  V30 993 H 89.4571 3.62213 0.886356 0
M  V30 994 N 91.6422 0.330177 1.54103 0
M  V30 995 C 92.5722 -0.525353 2.27513 0
M  V30 996 C 93.5532 -1.11383 1.2856 0
M  V30 997 O 94.7382 -1.13773 1.57383 0
M  V30 998 C 91.8682 -1.6831 3.03791 0
M  V30 999 C 90.8222 -1.2236 4.10137 0
M  V30 1000 C 90.1482 -2.46882 4.74293 0
M  V30 1001 C 91.4482 -0.333697 5.21233 0
M  V30 1002 H 93.1422 0.087013 2.99274 0
M  V30 1003 H 90.6882 0.0432893 1.43935 0
M  V30 1004 H 92.6412 -2.28795 3.5388 0
M  V30 1005 H 91.3652 -2.32216 2.29659 0
M  V30 1006 H 90.0242 -0.64165 3.60941 0
M  V30 1007 H 89.6722 -3.09165 3.96769 0
M  V30 1008 H 89.3722 -2.16825 5.46133 0
M  V30 1009 H 90.8962 -3.08117 5.27159 0
M  V30 1010 H 92.3102 -0.845013 5.67038 0
M  V30 1011 H 90.7072 -0.125612 5.99969 0
M  V30 1012 H 91.7772 0.633724 4.80741 0
M  V30 1013 N 93.1203 -1.57491 0.0584922 0
M  V30 1014 C 94.0503 -2.14988 -0.911178 0
M  V30 1015 C 95.0313 -1.07343 -1.31952 0
M  V30 1016 O 96.2163 -1.35318 -1.39294 0
M  V30 1017 C 93.3463 -2.70078 -2.18347 0
M  V30 1018 C 92.3003 -3.82771 -1.91495 0
M  V30 1019 C 91.6263 -4.24408 -3.25241 0
M  V30 1020 C 92.9263 -5.07592 -1.23075 0
M  V30 1021 H 94.6203 -2.96263 -0.432246 0
M  V30 1022 H 92.1663 -1.42512 -0.206469 0
M  V30 1023 H 94.1193 -3.08943 -2.86587 0
M  V30 1024 H 92.8433 -1.86005 -2.68458 0
M  V30 1025 H 91.5023 -3.44389 -1.25664 0
M  V30 1026 H 91.1503 -3.37275 -3.73168 0
M  V30 1027 H 90.8503 -5.00366 -3.08071 0
M  V30 1028 H 92.3743 -4.65879 -3.94701 0
M  V30 1029 H 93.7883 -5.43857 -1.81362 0
M  V30 1030 H 92.1853 -5.88741 -1.16207 0
M  V30 1031 H 93.2553 -4.84454 -0.207847 0
M  V30 1032 N 94.5984 0.214957 -1.56127 0
M  V30 1033 C 95.5304 1.29004 -1.89448 0
M  V30 1034 C 96.5434 1.42716 -0.783326 0
M  V30 1035 O 97.7324 1.43496 -1.06166 0
M  V30 1036 C 94.8324 2.66482 -2.09381 0
M  V30 1037 C 94.0054 2.74633 -3.40434 0
M  V30 1038 C 93.0644 3.9317 -3.49719 0
M  V30 1039 O 92.0904 3.812 -4.227 0
M  V30 1040 N 93.2924 5.07765 -2.81346 0
M  V30 1041 H 96.0574 1.00743 -2.82261 0
M  V30 1042 H 93.6184 0.40497 -1.56753 0
M  V30 1043 H 95.6104 3.44173 -2.12901 0
M  V30 1044 H 94.1804 2.87314 -1.23163 0
M  V30 1045 H 93.4004 1.83368 -3.48955 0
M  V30 1046 H 94.6884 2.77054 -4.26754 0
M  V30 1047 H 94.0864 5.20386 -2.21843 0
M  V30 1048 H 92.6434 5.83474 -2.90519 0
M  V30 1049 N 96.0765 1.50051 0.48192 0
M  V30 1050 C 97.4875 1.5348 1.06305 0
M  V30 1051 C 97.8385 0.331997 1.93371 0
M  V30 1052 O 96.9635 -0.556256 2.09129 0
M  V30 1053 C 97.5585 2.7813 1.93466 0
M  V30 1054 C 96.1175 2.84275 2.46707 0
M  V30 1055 C 95.2645 2.47637 1.24785 0
M  V30 1056 H 98.2155 1.56472 0.264995 0
M  V30 1057 H 98.2365 2.59372 2.78399 0
M  V30 1058 H 97.7485 3.65654 1.30072 0
M  V30 1059 H 95.8495 2.01077 3.13686 0
M  V30 1060 H 95.9625 3.8691 2.82555 0
M  V30 1061 H 94.3265 1.99835 1.57918 0
M  V30 1062 H 95.1095 3.37457 0.630694 0
M  V30 1063 N 97.5546 -0.734337 1.39446 0
M  V30 1064 C 98.5026 -1.86971 1.38364 0
M  V30 1065 C 99.4966 -1.67288 0.266687 0
M  V30 1066 O 100.703 -1.74621 0.436755 0
M  V30 1067 H 97.0776 -0.615474 0.432082 0
M  V30 1068 H 99.0486 -1.85 2.34132 0
M  V30 1069 C 97.7976 -3.2466 1.24465 0
M  V30 1070 H 97.1206 -3.40402 2.09682 0
M  V30 1071 H 98.5606 -4.04292 1.27764 0
M  V30 1072 C 97.0196 -3.36867 -0.0468674 0
M  V30 1073 O 97.5496 -3.88618 -1.01681 0
M  V30 1074 N 95.7556 -2.90391 -0.110145 0
M  V30 1075 H 95.3026 -2.48466 0.679868 0
M  V30 1076 H 95.2606 -2.98939 -0.973799 0
M  V30 1077 N 99.0327 -1.24633 -0.964593 0
M  V30 1078 C 99.9797 -1.04144 -2.05968 0
M  V30 1079 C 100.95 0.046262 -1.66036 0
M  V30 1080 O 102.135 -0.108972 -1.90489 0
M  V30 1081 C 99.2747 -0.65563 -3.38815 0
M  V30 1082 C 98.3877 -1.81714 -3.91923 0
M  V30 1083 C 97.5227 -1.37662 -5.13052 0
M  V30 1084 C 96.5617 -2.50788 -5.58365 0
M  V30 1085 N 95.6987 -2.07582 -6.70712 0
M  V30 1086 H 100.539 -1.9787 -2.22827 0
M  V30 1087 H 98.0757 -0.9855 -1.09208 0
M  V30 1088 H 100.034 -0.412954 -4.15151 0
M  V30 1089 H 98.6637 0.244627 -3.21872 0
M  V30 1090 H 97.7157 -2.1734 -3.12198 0
M  V30 1091 H 99.0277 -2.66705 -4.21509 0
M  V30 1092 H 98.1817 -1.093 -5.96773 0
M  V30 1093 H 96.9207 -0.497293 -4.85158 0
M  V30 1094 H 95.9257 -2.79906 -4.73215 0
M  V30 1095 H 97.1507 -3.39283 -5.88272 0
M  V30 1096 H 95.0967 -1.22051 -6.44546 0
M  V30 1097 H 95.0137 -2.86125 -6.99763 0
M  V30 1098 H 96.2817 -1.82369 -7.57867 0
M  V30 1099 N 100.511 1.16574 -1.06058 0
M  V30 1100 C 101.758 1.87047 -0.775873 0
M  V30 1101 C 102.086 1.81562 0.697534 0
M  V30 1102 O 101.341 1.22445 1.52662 0
M  V30 1103 C 101.64 3.36195 -1.21275 0
M  V30 1104 C 101.306 3.6188 -2.68986 0
M  V30 1105 C 99.9678 3.68599 -3.09335 0
M  V30 1106 C 102.32 3.72648 -3.64394 0
M  V30 1107 C 99.6478 3.83584 -4.43937 0
M  V30 1108 C 102 3.89154 -4.98741 0
M  V30 1109 C 100.664 3.94114 -5.3873 0
M  V30 1110 H 99.9338 0.684452 -0.283912 0
M  V30 1111 H 102.581 1.37853 -1.32925 0
M  V30 1112 H 100.886 3.87505 -0.578528 0
M  V30 1113 H 102.583 3.89103 -0.969542 0
M  V30 1114 H 99.1728 3.57281 -2.36744 0
M  V30 1115 H 103.357 3.66769 -3.34356 0
M  V30 1116 H 98.6128 3.85677 -4.74409 0
M  V30 1117 H 102.787 3.96427 -5.72554 0
M  V30 1118 H 100.414 4.05478 -6.43033 0
M  V30 1119 N 101.989 0.842826 1.3317 0
M  V30 1120 C 103.237 0.439577 1.97262 0
M  V30 1121 C 103.558 -1.00548 1.67078 0
M  V30 1122 O 102.828 -1.70098 0.971779 0
M  V30 1123 H 101.408 0.159558 0.72976 0
M  V30 1124 H 104.07 1.07665 1.62463 0
M  V30 1125 H 103.166 0.574886 3.0676 0
M  V30 1126 N 103.467 -1.45747 0.599634 0
M  V30 1127 C 104.715 -2.01893 0.0915472 0
M  V30 1128 C 105.036 -1.47155 -1.27946 0
M  V30 1129 O 104.306 -0.66273 -1.84349 0
M  V30 1130 H 102.886 -0.746363 0.0308524 0
M  V30 1131 H 105.548 -1.78645 0.779237 0
M  V30 1132 H 104.644 -3.1208 0.0353086 0
M  V30 1133 N 104.945 -0.338344 -1.53925 0
M  V30 1134 C 106.173 0.261298 -2.05243 0
M  V30 1135 C 106.588 1.44625 -1.21363 0
M  V30 1136 O 105.945 1.80811 -0.247736 0
M  V30 1137 C 105.996 0.681412 -3.5502 0
M  V30 1138 O 105.717 -0.456414 -4.35716 0
M  V30 1139 C 107.218 1.34232 -4.22489 0
M  V30 1140 H 104.438 0.0513685 -0.669031 0
M  V30 1141 H 106.982 -0.488822 -1.98572 0
M  V30 1142 H 105.137 1.38148 -3.61931 0
M  V30 1143 H 105.551 -0.122564 -5.24357 0
M  V30 1144 H 107.025 1.58708 -5.28693 0
M  V30 1145 H 107.502 2.29426 -3.74514 0
M  V30 1146 H 108.108 0.684424 -4.19757 0
M  V30 1147 N 106.423 1.57458 -0.0668435 0
M  V30 1148 C 107.672 1.92477 0.602947 0
M  V30 1149 C 107.985 0.948419 1.71068 0
M  V30 1150 O 109.191 1.19124 2.43971 0
M  V30 1151 C 107.647 3.41903 1.12383 0
M  V30 1152 C 107.255 4.47975 0.04737 0
M  V30 1153 C 108.999 3.85931 1.76797 0
M  V30 1154 C 106.906 5.88529 0.582022 0
M  V30 1155 H 105.836 0.718387 0.22899 0
M  V30 1156 H 108.487 1.82978 -0.138276 0
M  V30 1157 H 106.869 3.46459 1.91787 0
M  V30 1158 H 108.043 4.55029 -0.726978 0
M  V30 1159 H 106.358 4.13384 -0.500243 0
M  V30 1160 H 108.955 4.88322 2.17821 0
M  V30 1161 H 109.298 3.23029 2.62599 0
M  V30 1162 H 109.831 3.83958 1.04024 0
M  V30 1163 H 106.57 6.55065 -0.238721 0
M  V30 1164 H 106.09 5.85004 1.324 0
M  V30 1165 H 107.769 6.38258 1.05999 0
M  V30 1166 N 107.901 -0.206675 1.56239 0
M  V30 1167 C 109.141 -0.93574 1.81723 0
M  V30 1168 C 109.505 -1.80927 0.642609 0
M  V30 1169 O 110.706 -2.57323 0.777081 0
M  V30 1170 C 108.977 -1.74012 3.12177 0
M  V30 1171 S 110.536 -2.52279 3.59028 0
M  V30 1172 H 107.354 -0.314065 0.637875 0
M  V30 1173 H 109.956 -0.200071 1.94474 0
M  V30 1174 H 108.66 -1.0888 3.95693 0
M  V30 1175 H 108.191 -2.51782 3.02274 0
M  V30 1176 H 110.206 -3.76209 3.23545 0
M  V30 1177 N 109.379 -1.50304 -0.473955 0
M  V30 1178 C 110.604 -1.65175 -1.25427 0
M  V30 1179 C 111.029 -0.333673 -1.85117 0
M  V30 1180 O 110.387 0.702114 -1.67153 0
M  V30 1181 C 110.435 -2.74295 -2.34082 0
M  V30 1182 O 109.539 -2.35349 -3.38651 0
M  V30 1183 H 108.88 -0.551944 -0.369126 0
M  V30 1184 H 111.41 -1.96662 -0.564364 0
M  V30 1185 H 111.42 -2.97285 -2.79438 0
M  V30 1186 H 110.095 -3.69959 -1.90008 0
M  V30 1187 H 108.672 -2.22794 -2.99027 0
M  V30 1188 N 110.857 0.726932 -1.39834 0
M  V30 1189 C 112.105 1.4837 -1.37225 0
M  V30 1190 C 112.426 1.94979 0.0284857 0
M  V30 1191 O 111.696 1.69555 0.981213 0
M  V30 1192 H 110.276 0.55043 -0.505011 0
M  V30 1193 H 112.938 0.862468 -1.74778 0
M  V30 1194 H 112.034 2.36198 -2.04003 0
M  V30 1195 N 112.336 1.25143 0.95797 0
M  V30 1196 C 113.613 1.00472 1.67823 0
M  V30 1197 C 113.993 -0.470056 2.058 0
M  V30 1198 O 113.341 -1.44663 1.76875 0
M  V30 1199 C 113.551 1.9372 2.90299 0
M  V30 1200 C 114.899 2.21371 3.62326 0
M  V30 1201 O 115.923 1.91451 3.00375 0
M  V30 1202 O 114.782 2.72231 4.7387 0
M  V30 1203 H 111.876 0.380752 0.734137 0
M  V30 1204 H 114.422 1.36283 1.01119 0
M  V30 1205 H 113.194 2.93316 2.59001 0
M  V30 1206 H 112.817 1.58286 3.64735 0
M  V30 1207 N 113.814 -1.1601 1.06675 0
M  V30 1208 C 115.063 -1.85973 0.780818 0
M  V30 1209 C 115.376 -1.82819 -0.695444 0
M  V30 1210 O 116.582 -2.484 -1.09589 0
M  V30 1211 C 115.038 -3.33757 1.34665 0
M  V30 1212 C 114.646 -3.45374 2.85343 0
M  V30 1213 C 116.39 -4.0895 1.13843 0
M  V30 1214 C 114.297 -4.87266 3.35151 0
M  V30 1215 H 113.227 -0.696661 0.288407 0
M  V30 1216 H 115.878 -1.30903 1.28595 0
M  V30 1217 H 114.26 -3.88456 0.769274 0
M  V30 1218 H 115.434 -3.00816 3.49065 0
M  V30 1219 H 113.749 -2.83619 3.04876 0
M  V30 1220 H 116.346 -5.13654 1.4854 0
M  V30 1221 H 116.689 -4.16229 0.0770282 0
M  V30 1222 H 117.222 -3.605 1.68179 0
M  V30 1223 H 113.961 -4.85168 4.40786 0
M  V30 1224 H 113.481 -5.32433 2.76179 0
M  V30 1225 H 115.16 -5.56097 3.30704 0
M  V30 1226 N 115.292 -0.849877 -1.32721 0
M  V30 1227 C 116.538 -0.460855 -1.9811 0
M  V30 1228 C 116.893 0.971716 -1.66059 0
M  V30 1229 O 116.186 1.67184 -0.935944 0
M  V30 1230 C 116.38 -0.631272 -3.51781 0
M  V30 1231 C 116.209 -2.07886 -3.98765 0
M  V30 1232 C 114.979 -2.71637 -4.26077 0
M  V30 1233 C 117.177 -3.04889 -4.14182 0
M  V30 1234 N 115.159 -4.07356 -4.59276 0
M  V30 1235 C 116.53 -4.25583 -4.50865 0
M  V30 1236 C 118.585 -3.01148 -3.96503 0
M  V30 1237 C 117.288 -5.43027 -4.71714 0
M  V30 1238 C 119.314 -4.17832 -4.18533 0
M  V30 1239 C 118.676 -5.37284 -4.55528 0
M  V30 1240 H 114.775 -0.217283 -0.751207 0
M  V30 1241 H 117.359 -1.10026 -1.60631 0
M  V30 1242 H 115.53 -0.0215966 -3.88394 0
M  V30 1243 H 117.262 -0.212614 -4.04141 0
M  V30 1244 H 114.017 -2.22705 -4.17971 0
M  V30 1245 H 114.441 -4.77351 -4.80068 0
M  V30 1246 H 119.083 -2.0992 -3.67006 0
M  V30 1247 H 116.801 -6.34791 -5.00066 0
M  V30 1248 H 120.387 -4.16368 -4.06361 0
M  V30 1249 H 119.267 -6.26071 -4.72234 0
M  V30 1250 N 116.77 1.45427 -0.607355 0
M  V30 1251 C 118.047 1.9557 -0.0344566 0
M  V30 1252 C 118.427 1.54979 1.43334 0
M  V30 1253 O 117.775 0.812241 2.13576 0
M  V30 1254 C 117.985 3.48226 -0.232321 0
M  V30 1255 C 119.333 4.2445 -0.113001 0
M  V30 1256 O 120.357 3.55829 -0.162431 0
M  V30 1257 O 119.216 5.465 0.00209442 0
M  V30 1258 H 116.31 0.826222 0.0358667 0
M  V30 1259 H 118.856 1.55594 -0.6774 0
M  V30 1260 H 117.628 3.70739 -1.25174 0
M  V30 1261 H 117.251 3.95092 0.445896 0
M  V30 1262 N 118.248 0.346503 1.53744 0
M  V30 1263 C 119.18 -0.543316 2.22667 0
M  V30 1264 C 120.193 -1.06159 1.23427 0
M  V30 1265 O 121.382 -0.971235 1.49764 0
M  V30 1266 C 118.482 -1.76076 2.89569 0
M  V30 1267 C 117.655 -1.37727 4.15151 0
M  V30 1268 C 116.714 -2.45471 4.65436 0
M  V30 1269 O 115.74 -2.08655 5.29577 0
M  V30 1270 N 116.942 -3.7677 4.41616 0
M  V30 1271 H 119.707 0.0469703 2.99663 0
M  V30 1272 H 117.268 0.170766 1.60997 0
M  V30 1273 H 119.26 -2.47593 3.20125 0
M  V30 1274 H 117.83 -2.25835 2.16142 0
M  V30 1275 H 117.05 -0.492746 3.91108 0
M  V30 1276 H 118.338 -1.09708 4.96832 0
M  V30 1277 H 117.736 -4.09467 3.90325 0
M  V30 1278 H 116.293 -4.44448 4.7677 0
M  V30 1279 N 119.726 -1.57421 0.075193 0
M  V30 1280 C 120.689 -2.11791 -0.876203 0
M  V30 1281 C 121.689 -1.04268 -1.22412 0
M  V30 1282 O 122.879 -1.30242 -1.15684 0
M  V30 1283 C 120.011 -2.62207 -2.17854 0
M  V30 1284 H 121.204 -2.9716 -0.40444 0
M  V30 1285 H 118.757 -1.55333 -0.173557 0
M  V30 1286 H 119.492 -1.803 -2.6956 0
M  V30 1287 H 119.277 -3.40802 -1.93897 0
M  V30 1288 H 120.767 -3.04335 -2.85955 0
M  V30 1289 N 121.204 0.198386 -1.56346 0
M  V30 1290 C 122.429 0.939682 -1.84891 0
M  V30 1291 C 122.854 1.76202 -0.658369 0
M  V30 1292 O 122.212 1.76993 0.392851 0
M  V30 1293 C 122.26 1.81428 -3.11635 0
M  V30 1294 O 121.364 2.91265 -2.91956 0
M  V30 1295 H 120.705 0.264807 -0.608912 0
M  V30 1296 H 123.235 0.204695 -2.03573 0
M  V30 1297 H 123.245 2.21958 -3.42343 0
M  V30 1298 H 121.92 1.21004 -3.97908 0
M  V30 1299 H 120.497 2.54514 -2.72538 0
M  V30 1300 N 122.682 1.50554 0.465978 0
M  V30 1301 C 123.922 1.63439 1.22747 0
M  V30 1302 C 124.286 0.329822 1.89146 0
M  V30 1303 O 125.487 0.334161 2.66715 0
M  V30 1304 C 123.758 2.78542 2.2394 0
M  V30 1305 S 125.317 3.11591 3.0896 0
M  V30 1306 H 122.135 0.576113 0.416672 0
M  V30 1307 H 124.737 1.88357 0.523641 0
M  V30 1308 H 123.441 3.71805 1.7375 0
M  V30 1309 H 122.972 2.55726 2.98944 0
M  V30 1310 H 124.987 2.55811 4.25176 0
M  V30 1311 N 124.16 -0.719506 1.40217 0
M  V30 1312 C 125.385 -1.51371 1.4178 0
M  V30 1313 C 125.81 -1.88091 0.0182355 0
M  V30 1314 O 125.168 -1.52997 -0.972707 0
M  V30 1315 C 125.216 -2.768 2.31115 0
M  V30 1316 O 124.32 -3.73349 1.7517 0
M  V30 1317 H 123.661 -0.456529 0.482159 0
M  V30 1318 H 126.191 -0.88644 1.844 0
M  V30 1319 H 126.201 -3.25371 2.46167 0
M  V30 1320 H 124.876 -2.49407 3.3282 0
M  V30 1321 H 123.453 -3.32179 1.69444 0
M  V30 1322 N 125.638 -1.25649 -0.95132 0
M  V30 1323 C 126.863 -1.13443 -1.73624 0
M  V30 1324 C 127.288 0.307565 -1.85568 0
M  V30 1325 O 126.646 1.22282 -1.33854 0
M  V30 1326 C 126.694 -1.79723 -3.12621 0
M  V30 1327 O 125.798 -1.07912 -3.98031 0
M  V30 1328 H 125.139 -0.395872 -0.533086 0
M  V30 1329 H 127.669 -1.66276 -1.1922 0
M  V30 1330 H 127.679 -1.86141 -3.63064 0
M  V30 1331 H 126.354 -2.84633 -3.03244 0
M  V30 1332 H 124.931 -1.09398 -3.56492 0
M  V30 1333 N 127.117 1.15442 -1.07289 0
M  V30 1334 C 128.342 1.90638 -0.816828 0
M  V30 1335 C 128.767 1.77445 0.624083 0
M  V30 1336 O 128.125 1.10671 1.43602 0
M  V30 1337 C 128.173 3.39008 -1.22906 0
M  V30 1338 O 127.277 4.10701 -0.373975 0
M  V30 1339 H 126.618 0.593555 -0.297638 0
M  V30 1340 H 129.148 1.46198 -1.43134 0
M  V30 1341 H 129.158 3.89801 -1.20497 0
M  V30 1342 H 127.833 3.47929 -2.27856 0
M  V30 1343 H 126.41 3.70046 -0.460499 0
M  V30 1344 N 128.595 0.856903 1.32268 0
M  V30 1345 C 129.823 0.475439 2.01363 0
M  V30 1346 C 130.238 -0.928486 1.64392 0
M  V30 1347 O 129.595 -1.60624 0.866387 0
M  V30 1348 C 129.646 0.607545 3.56358 0
M  V30 1349 O 129.367 1.95617 3.92002 0
M  V30 1350 C 130.868 0.225382 4.42727 0
M  V30 1351 H 128.088 0.186636 0.644521 0
M  V30 1352 H 130.632 1.15446 1.68797 0
M  V30 1353 H 128.787 -0.0237719 3.87393 0
M  V30 1354 H 129.201 1.95455 4.86721 0
M  V30 1355 H 130.675 0.368813 5.50767 0
M  V30 1356 H 131.152 -0.834369 4.31202 0
M  V30 1357 H 131.758 0.831864 4.17085 0
M  V30 1358 N 130.073 -1.45103 0.615059 0
M  V30 1359 C 131.301 -2.06553 0.11977 0
M  V30 1360 C 131.716 -1.45842 -1.19898 0
M  V30 1361 O 131.073 -0.575325 -1.73194 0
M  V30 1362 C 131.124 -3.61495 -0.018364 0
M  V30 1363 O 130.845 -4.19942 1.24822 0
M  V30 1364 C 132.346 -4.39947 -0.544237 0
M  V30 1365 H 129.566 -0.667096 0.0722739 0
M  V30 1366 H 132.11 -1.8623 0.84491 0
M  V30 1367 H 130.265 -3.81135 -0.693865 0
M  V30 1368 H 130.679 -5.13204 1.0827 0
M  V30 1369 H 132.153 -5.48838 -0.589953 0
M  V30 1370 H 132.63 -4.10255 -1.56805 0
M  V30 1371 H 133.236 -4.25188 0.0974703 0
M  V30 1372 N 131.551 -0.354651 -1.53558 0
M  V30 1373 C 132.791 0.238651 -2.03002 0
M  V30 1374 C 133.155 1.46878 -1.23656 0
M  V30 1375 O 134.356 2.13699 -1.63053 0
M  V30 1376 C 132.627 0.534175 -3.53386 0
M  V30 1377 S 134.186 1.10271 -4.24719 0
M  V30 1378 H 131.004 0.0702908 -0.707517 0
M  V30 1379 H 133.606 -0.494987 -1.8913 0
M  V30 1380 H 132.31 -0.368765 -4.0874 0
M  V30 1381 H 131.841 1.29718 -3.71398 0
M  V30 1382 H 133.856 2.38772 -4.34974 0
M  V30 1383 N 133.029 1.57378 -0.0835403 0
M  V30 1384 C 134.275 1.94217 0.583733 0
M  V30 1385 C 134.608 0.964653 1.68547 0
M  V30 1386 O 133.883 -0.00422258 1.945 0
M  V30 1387 C 134.166 3.41253 1.14972 0
M  V30 1388 C 134.019 4.49768 0.0538277 0
M  V30 1389 C 135.338 3.89352 2.05166 0
M  V30 1390 H 132.457 0.706233 0.210724 0
M  V30 1391 H 135.099 1.89392 -0.1519 0
M  V30 1392 H 133.249 3.45496 1.77665 0
M  V30 1393 H 134.921 4.57641 -0.579851 0
M  V30 1394 H 133.164 4.29432 -0.614068 0
M  V30 1395 H 133.835 5.49817 0.490452 0
M  V30 1396 H 136.311 3.87189 1.52393 0
M  V30 1397 H 135.187 4.92822 2.41698 0
M  V30 1398 H 135.448 3.27973 2.96456 0
M  V30 1399 N 134.507 -0.190092 1.56449 0
M  V30 1400 C 135.923 -0.54113 1.50146 0
M  V30 1401 C 136.123 -1.85603 0.784465 0
M  V30 1402 O 135.179 -2.5024 0.337051 0
M  V30 1403 C 136.492 -0.591241 2.9483 0
M  V30 1404 C 138.04 -0.679732 3.0553 0
M  V30 1405 C 138.515 -0.760908 4.51635 0
M  V30 1406 N 140.006 -0.824302 4.55806 0
M  V30 1407 C 140.741 -0.907365 5.66175 0
M  V30 1408 N 140.237 -0.952422 6.86222 0
M  V30 1409 N 142.03 -0.94494 5.541 0
M  V30 1410 H 134.181 0.67235 2.01478 0
M  V30 1411 H 136.444 0.240127 0.917084 0
M  V30 1412 H 136.15 0.305905 3.50367 0
M  V30 1413 H 136.024 -1.44422 3.48457 0
M  V30 1414 H 138.411 -1.56731 2.50039 0
M  V30 1415 H 138.492 0.199549 2.5502 0
M  V30 1416 H 138.136 0.122336 5.07753 0
M  V30 1417 H 138.066 -1.65606 4.99882 0
M  V30 1418 H 140.557 -0.798526 3.69367 0
M  V30 1419 H 140.87 -1.01645 7.66086 0
M  V30 1420 H 139.215 -0.921014 6.8887 0
M  V30 1421 H 142.406 -0.906612 4.59236 0
M  V30 1422 H 142.579 -1.00622 6.4014 0
M  V30 1423 N 135.985 -1.50799 -0.457987 0
M  V30 1424 C 136.917 -1.66786 -1.57211 0
M  V30 1425 C 137.93 -0.548962 -1.53265 0
M  V30 1426 O 139.119 -0.8226 -1.58416 0
M  V30 1427 C 136.219 -1.64834 -2.96113 0
M  V30 1428 C 135.392 -2.92971 -3.24787 0
M  V30 1429 C 134.451 -2.83485 -4.43309 0
M  V30 1430 O 133.477 -3.5744 -4.42973 0
M  V30 1431 N 134.679 -1.97929 -5.45714 0
M  V30 1432 H 137.444 -2.62889 -1.43909 0
M  V30 1433 H 135.005 -1.48427 -0.646617 0
M  V30 1434 H 136.997 -1.56084 -3.7339 0
M  V30 1435 H 135.567 -0.764118 -3.03117 0
M  V30 1436 H 134.787 -3.15749 -2.36 0
M  V30 1437 H 136.075 -3.77834 -3.40762 0
M  V30 1438 H 135.473 -1.37182 -5.48815 0
M  V30 1439 H 134.03 -1.95073 -6.21924 0
M  V30 1440 N 137.463 0.71206 -1.40597 0
M  V30 1441 C 138.426 1.80785 -1.40888 0
M  V30 1442 C 139.426 1.57937 -0.302103 0
M  V30 1443 O 140.616 1.64913 -0.561182 0
M  V30 1444 C 137.748 3.18927 -1.20409 0
M  V30 1445 H 138.941 1.81924 -2.38419 0
M  V30 1446 H 136.494 0.91805 -1.26497 0
M  V30 1447 H 137.229 3.23436 -0.236522 0
M  V30 1448 H 137.014 3.36911 -2.00582 0
M  V30 1449 H 138.504 3.98949 -1.23408 0
M  V30 1450 N 138.941 1.26152 0.944643 0
M  V30 1451 C 139.873 1.03199 2.04652 0
M  V30 1452 C 140.886 -0.00642356 1.62799 0
M  V30 1453 O 142.075 0.233263 1.76969 0
M  V30 1454 C 139.175 0.540111 3.34568 0
M  V30 1455 C 138.348 1.64697 4.05208 0
M  V30 1456 C 137.407 1.15374 5.13396 0
M  V30 1457 O 136.433 1.85013 5.38293 0
M  V30 1458 N 137.635 0.00031529 5.805 0
M  V30 1459 H 140.4 1.9808 2.2491 0
M  V30 1460 H 137.961 1.17491 1.11389 0
M  V30 1461 H 139.953 0.194401 4.04233 0
M  V30 1462 H 138.523 -0.315021 3.11009 0
M  V30 1463 H 137.743 2.16379 3.29506 0
M  V30 1464 H 139.031 2.3903 4.49157 0
M  V30 1465 H 138.429 -0.581336 5.62705 0
M  V30 1466 H 136.986 -0.286346 6.51171 0
M  V30 1467 N 140.419 -1.14872 1.07899 0
M  V30 1468 C 141.659 -1.8745 0.814965 0
M  V30 1469 C 142.023 -1.80758 -0.64733 0
M  V30 1470 O 143.224 -2.48422 -1.02664 0
M  V30 1471 C 141.495 -3.32286 1.31607 0
M  V30 1472 S 143.054 -4.22537 1.18357 0
M  V30 1473 H 139.872 -0.646833 0.295174 0
M  V30 1474 H 142.474 -1.38555 1.37923 0
M  V30 1475 H 141.178 -3.34703 2.37491 0
M  V30 1476 H 140.709 -3.86238 0.747261 0
M  V30 1477 H 142.724 -4.96044 0.124586 0
M  V30 1478 N 141.898 -0.863906 -1.31812 0
M  V30 1479 C 143.146 -0.470904 -1.96537 0
M  V30 1480 C 143.467 0.978771 -1.68657 0
M  V30 1481 O 142.737 1.6853 -0.998717 0
M  V30 1482 H 141.317 -0.171148 -0.72713 0
M  V30 1483 H 143.979 -1.10236 -1.60729 0
M  V30 1484 H 143.075 -0.623616 -3.05806 0
M  V30 1485 N 143.376 1.44774 -0.622745 0
M  V30 1486 C 144.308 2.28856 0.125485 0
M  V30 1487 C 145.321 1.40811 0.817069 0
M  V30 1488 O 146.51 1.65044 0.679918 0
M  V30 1489 C 143.61 3.16963 1.19949 0
M  V30 1490 C 142.783 4.33374 0.592064 0
M  V30 1491 C 141.842 5.02577 1.55893 0
M  V30 1492 O 140.868 5.58873 1.07933 0
M  V30 1493 N 142.07 5.03256 2.89334 0
M  V30 1494 H 144.835 2.93713 -0.596068 0
M  V30 1495 H 142.396 1.55129 -0.463303 0
M  V30 1496 H 144.388 3.60123 1.84644 0
M  V30 1497 H 142.958 2.53913 1.82337 0
M  V30 1498 H 142.178 3.93509 -0.233322 0
M  V30 1499 H 143.466 5.08527 0.166738 0
M  V30 1500 H 142.864 4.58836 3.30887 0
M  V30 1501 H 141.421 5.50232 3.49412 0
M  V30 1502 N 144.854 0.36279 1.53368 0
M  V30 1503 C 146.131 -0.284021 1.93527 0
M  V30 1504 C 146.511 -1.66628 1.29608 0
M  V30 1505 O 145.859 -2.23942 0.45413 0
M  V30 1506 C 146.069 -0.337028 3.47369 0
M  V30 1507 C 147.417 -0.578708 4.20638 0
M  V30 1508 O 148.441 -0.418352 3.53735 0
M  V30 1509 O 147.3 -0.89074 5.39192 0
M  V30 1510 H 144.394 -0.169743 0.809393 0
M  V30 1511 H 146.94 0.41537 1.64538 0
M  V30 1512 H 145.712 0.632217 3.86159 0
M  V30 1513 H 145.335 -1.08243 3.82582 0
M  V30 1514 N 146.332 -1.57332 0.0918853 0
M  V30 1515 C 147.579 -1.94236 -0.572577 0
M  V30 1516 C 147.907 -0.973398 -1.6839 0
M  V30 1517 O 147.162 0.00756912 -1.95699 0
M  V30 1518 C 147.461 -3.37689 -1.17051 0
M  V30 1519 C 147.127 -4.50527 -0.183304 0
M  V30 1520 C 145.789 -4.81119 0.0882276 0
M  V30 1521 C 148.141 -5.18883 0.49095 0
M  V30 1522 C 145.469 -5.77395 1.04076 0
M  V30 1523 C 147.821 -6.1618 1.43193 0
M  V30 1524 C 146.485 -6.45179 1.71173 0
M  V30 1525 H 145.755 -0.710762 -0.209521 0
M  V30 1526 H 148.402 -1.9077 0.167036 0
M  V30 1527 H 146.707 -3.37718 -1.9863 0
M  V30 1528 H 148.404 -3.63543 -1.69227 0
M  V30 1529 H 144.994 -4.26681 -0.405124 0
M  V30 1530 H 149.178 -4.95427 0.294312 0
M  V30 1531 H 144.434 -5.98179 1.26457 0
M  V30 1532 H 148.608 -6.68243 1.96023 0
M  V30 1533 H 146.235 -7.1959 2.4514 0
M  V30 1534 N 147.81 0.181792 -1.56548 0
M  V30 1535 C 148.742 1.24956 -1.92142 0
M  V30 1536 C 149.755 1.41022 -0.813422 0
M  V30 1537 O 150.944 1.41212 -1.09186 0
M  V30 1538 C 148.044 2.61981 -2.14987 0
M  V30 1539 C 147.217 2.6735 -3.46183 0
M  V30 1540 C 146.276 3.85664 -3.5798 0
M  V30 1541 O 145.302 3.72148 -4.30691 0
M  V30 1542 N 146.504 5.01683 -2.92053 0
M  V30 1543 H 149.269 0.947329 -2.84334 0
M  V30 1544 H 146.83 0.371629 -1.57577 0
M  V30 1545 H 148.822 3.3958 -2.20154 0
M  V30 1546 H 147.392 2.84637 -1.2923 0
M  V30 1547 H 146.612 1.75925 -3.52766 0
M  V30 1548 H 147.9 2.67939 -4.32534 0
M  V30 1549 H 147.298 5.15564 -2.32832 0
M  V30 1550 H 145.855 5.77181 -3.0283 0
M  V30 1551 N 149.288 1.51039 0.449983 0
M  V30 1552 C 150.528 1.64732 1.21007 0
M  V30 1553 C 150.892 0.349865 1.88785 0
M  V30 1554 O 152.093 0.362431 2.66345 0
M  V30 1555 C 150.364 2.80902 2.20973 0
M  V30 1556 S 151.923 3.14851 3.05638 0
M  V30 1557 H 148.741 0.5805 0.410538 0
M  V30 1558 H 151.343 1.88901 0.503634 0
M  V30 1559 H 150.047 3.73627 1.69796 0
M  V30 1560 H 149.578 2.58882 2.96215 0
M  V30 1561 H 151.593 2.60306 4.22439 0
M  V30 1562 N 150.766 -0.704594 1.40972 0
M  V30 1563 C 151.713 -1.81862 1.42109 0
M  V30 1564 C 152.683 -1.63781 0.276593 0
M  V30 1565 O 153.868 -1.84759 0.4763 0
M  V30 1566 C 151.008 -3.19669 1.30022 0
M  V30 1567 C 150.121 -3.49246 2.54267 0
M  V30 1568 C 149.256 -4.76618 2.3454 0
M  V30 1569 C 148.295 -4.99133 3.54306 0
M  V30 1570 N 147.432 -6.17726 3.33706 0
M  V30 1571 H 152.272 -1.80226 2.37324 0
M  V30 1572 H 149.809 -0.880238 1.17857 0
M  V30 1573 H 151.767 -3.99263 1.21018 0
M  V30 1574 H 150.397 -3.20506 0.384192 0
M  V30 1575 H 149.449 -2.64125 2.73756 0
M  V30 1576 H 150.761 -3.61788 3.43381 0
M  V30 1577 H 149.915 -5.64249 2.22952 0
M  V30 1578 H 148.654 -4.66305 1.42867 0
M  V30 1579 H 147.659 -4.09953 3.66359 0
M  V30 1580 H 148.884 -5.11311 4.4692 0
M  V30 1581 H 146.83 -6.08642 2.44725 0
M  V30 1582 H 146.747 -6.30995 4.16391 0
M  V30 1583 H 148.015 -7.08115 3.25873 0
M  V30 1584 N 152.244 -1.26651 -0.937939 0
M  V30 1585 C 153.154 -1.10276 -2.07066 0
M  V30 1586 C 154.17 -0.0354197 -1.73964 0
M  V30 1587 O 155.346 -0.239816 -1.99967 0
M  V30 1588 C 152.411 -0.740887 -3.38691 0
M  V30 1589 C 151.472 -1.88799 -3.85556 0
M  V30 1590 C 150.705 -1.54329 -5.10899 0
M  V30 1591 O 150.928 -0.446494 -5.6865 0
M  V30 1592 O 149.862 -2.37911 -5.52885 0
M  V30 1593 H 153.688 -2.05309 -2.23789 0
M  V30 1594 H 151.273 -1.05743 -1.0554 0
M  V30 1595 H 153.155 -0.55195 -4.1777 0
M  V30 1596 H 151.83 0.180022 -3.23199 0
M  V30 1597 H 150.737 -2.13191 -3.07409 0
M  V30 1598 H 152.07 -2.78874 -4.05574 0
M  V30 1599 N 153.722 1.14298 -1.08507 0
M  V30 1600 C 154.95 1.89219 -0.836876 0
M  V30 1601 C 155.365 1.78638 0.611054 0
M  V30 1602 O 154.722 1.14643 1.41998 0
M  V30 1603 C 154.773 3.39158 -1.25116 0
M  V30 1604 O 154.494 3.49449 -2.64229 0
M  V30 1605 C 155.995 4.31073 -1.03398 0
M  V30 1606 H 153.215 0.599328 -0.301739 0
M  V30 1607 H 155.759 1.44746 -1.44461 0
M  V30 1608 H 153.914 3.81251 -0.687514 0
M  V30 1609 H 154.328 4.42589 -2.81452 0
M  V30 1610 H 155.802 5.34646 -1.37323 0
M  V30 1611 H 156.279 4.3919 0.0289259 0
M  V30 1612 H 156.885 3.94738 -1.58311 0
M  V30 1613 N 155.201 0.870884 1.31352 0
M  V30 1614 C 156.449 0.48132 1.96285 0
M  V30 1615 C 156.77 -0.969813 1.69173 0
M  V30 1616 O 156.04 -1.67998 1.00764 0
M  V30 1617 H 154.62 0.175002 0.726212 0
M  V30 1618 H 157.282 1.11087 1.60143 0
M  V30 1619 H 156.378 0.639825 3.05471 0
M  V30 1620 N 156.679 -1.44442 0.630414 0
M  V30 1621 C 158.095 -1.56832 0.295973 0
M  V30 1622 C 158.295 -1.61806 -1.20088 0
M  V30 1623 O 157.351 -1.5607 -1.9849 0
M  V30 1624 C 158.664 -2.84031 0.987264 0
M  V30 1625 C 160.212 -2.97742 0.96534 0
M  V30 1626 C 160.687 -4.27743 1.63708 0
M  V30 1627 N 162.178 -4.34555 1.60364 0
M  V30 1628 C 162.913 -5.33862 2.09234 0
M  V30 1629 N 162.409 -6.39578 2.66292 0
M  V30 1630 N 164.202 -5.25366 1.99867 0
M  V30 1631 H 156.353 -1.39457 1.60205 0
M  V30 1632 H 158.616 -0.668237 0.672431 0
M  V30 1633 H 158.322 -2.86338 2.04215 0
M  V30 1634 H 158.196 -3.73534 0.524588 0
M  V30 1635 H 160.583 -2.94989 -0.0810639 0
M  V30 1636 H 160.664 -2.09589 1.4665 0
M  V30 1637 H 160.308 -4.31255 2.68293 0
M  V30 1638 H 160.238 -5.14752 1.11076 0
M  V30 1639 H 162.729 -3.58772 1.18705 0
M  V30 1640 H 163.042 -7.11637 3.01317 0
M  V30 1641 H 161.387 -6.40265 2.70343 0
M  V30 1642 H 164.578 -4.41688 1.55013 0
M  V30 1643 H 164.751 -6.02606 2.38265 0
M  V30 1644 N 158.157 -0.370918 -1.53173 0
M  V30 1645 C 159.397 0.217106 -2.03244 0
M  V30 1646 C 159.761 1.45558 -1.25207 0
M  V30 1647 O 160.962 2.11957 -1.65311 0
M  V30 1648 C 159.233 0.496664 -3.53932 0
M  V30 1649 S 160.792 1.0576 -4.25864 0
M  V30 1650 H 157.61 0.0627827 -0.708223 0
M  V30 1651 H 160.212 -0.515019 -1.88594 0
M  V30 1652 H 158.916 -0.412096 -4.08326 0
M  V30 1653 H 158.447 1.25772 -3.72753 0
M  V30 1654 H 160.462 2.34145 -4.37482 0
M  V30 1655 N 159.635 1.57281 -0.100228 0
M  V30 1656 C 160.565 2.17328 0.853857 0
M  V30 1657 C 161.546 1.10804 1.2906 0
M  V30 1658 O 162.731 1.38963 1.35657 0
M  V30 1659 C 159.861 2.75772 2.11109 0
M  V30 1660 C 158.815 3.87713 1.81279 0
M  V30 1661 C 158.141 4.32882 3.13874 0
M  V30 1662 C 159.441 5.10677 1.09574 0
M  V30 1663 H 161.135 2.97305 0.353545 0
M  V30 1664 H 158.681 1.43009 0.168612 0
M  V30 1665 H 160.634 3.16433 2.78296 0
M  V30 1666 H 159.358 1.93057 2.63432 0
M  V30 1667 H 158.017 3.476 1.16489 0
M  V30 1668 H 157.665 3.47051 3.64095 0
M  V30 1669 H 157.365 5.08358 2.94696 0
M  V30 1670 H 158.889 4.7618 3.82211 0
M  V30 1671 H 160.303 5.48474 1.66879 0
M  V30 1672 H 158.7 5.91615 1.00557 0
M  V30 1673 H 159.77 4.84835 0.0793299 0
M  V30 1674 N 161.113 -0.173488 1.56642 0
M  V30 1675 C 162.06 -1.21482 1.96242 0
M  V30 1676 C 163.03 -1.44104 0.826027 0
M  V30 1677 O 164.215 -1.5688 1.08597 0
M  V30 1678 C 161.355 -2.54964 2.32567 0
M  V30 1679 C 160.468 -2.39739 3.59373 0
M  V30 1680 C 159.603 -3.66072 3.84921 0
M  V30 1681 C 158.642 -3.45771 5.05083 0
M  V30 1682 N 157.779 -4.64169 5.26775 0
M  V30 1683 H 162.619 -0.870123 2.85014 0
M  V30 1684 H 160.156 -0.418245 1.41029 0
M  V30 1685 H 162.114 -3.32758 2.5165 0
M  V30 1686 H 160.744 -2.87433 1.46908 0
M  V30 1687 H 159.796 -1.53131 3.48217 0
M  V30 1688 H 161.108 -2.20683 4.47326 0
M  V30 1689 H 160.262 -4.52303 4.0436 0
M  V30 1690 H 159.001 -3.88105 2.9534 0
M  V30 1691 H 158.006 -2.57927 4.85545 0
M  V30 1692 H 159.231 -3.25163 5.96193 0
M  V30 1693 H 157.177 -4.86425 4.40144 0
M  V30 1694 H 157.094 -4.48019 6.08946 0
M  V30 1695 H 158.362 -5.51689 5.5069 0
M  V30 1696 N 162.591 -1.51276 -0.441967 0
M  V30 1697 C 164.007 -1.39349 -0.778083 0
M  V30 1698 C 164.207 -0.472212 -1.95889 0
M  V30 1699 O 163.263 0.0743551 -2.5239 0
M  V30 1700 C 164.576 -2.81292 -1.0628 0
M  V30 1701 C 166.124 -2.9041 -1.16751 0
M  V30 1702 C 166.599 -4.33251 -1.48519 0
M  V30 1703 N 168.09 -4.36336 -1.55453 0
M  V30 1704 C 168.825 -5.43885 -1.81596 0
M  V30 1705 N 168.321 -6.61601 -2.05562 0
M  V30 1706 N 170.114 -5.3136 -1.8334 0
M  V30 1707 H 162.265 -2.09729 0.335774 0
M  V30 1708 H 164.528 -0.943925 0.0878028 0
M  V30 1709 H 164.234 -3.50678 -0.267905 0
M  V30 1710 H 164.108 -3.20334 -1.99163 0
M  V30 1711 H 166.495 -2.21225 -1.95304 0
M  V30 1712 H 166.576 -2.54871 -0.217801 0
M  V30 1713 H 166.22 -5.02984 -0.704958 0
M  V30 1714 H 166.15 -4.66299 -2.44689 0
M  V30 1715 H 168.641 -3.51466 -1.38853 0
M  V30 1716 H 168.954 -7.39361 -2.24867 0
M  V30 1717 H 167.299 -6.64725 -2.02894 0
M  V30 1718 H 170.49 -4.38382 -1.64132 0
M  V30 1719 H 170.663 -6.15258 -2.03377 0
M  V30 1720 N 164.069 0.697108 -1.41344 0
M  V30 1721 C 165.019 1.80313 -1.39539 0
M  V30 1722 C 166.003 1.58618 -0.270001 0
M  V30 1723 O 167.195 1.69477 -0.510551 0
M  V30 1724 C 164.324 3.18606 -1.27848 0
M  V30 1725 C 163.41 3.46001 -2.45244 0
M  V30 1726 N 163.801 3.44103 -3.70711 0
M  V30 1727 C 162.099 3.76542 -2.39023 0
M  V30 1728 C 162.8 3.7036 -4.48563 0
M  V30 1729 N 161.776 3.90027 -3.78655 0
M  V30 1730 H 165.578 1.77207 -2.34468 0
M  V30 1731 H 163.092 0.897031 -1.35378 0
M  V30 1732 H 165.089 3.97833 -1.24637 0
M  V30 1733 H 163.749 3.22925 -0.339032 0
M  V30 1734 H 164.76 3.2452 -4.03618 0
M  V30 1735 H 161.437 3.88241 -1.53542 0
M  V30 1736 H 162.827 3.75042 -5.57488 0
M  V30 1737 N 165.547 1.27147 0.931209 0
M  V30 1738 C 166.477 1.12081 2.04842 0
M  V30 1739 C 167.458 0.0232364 1.70084 0
M  V30 1740 O 168.643 0.197085 1.93197 0
M  V30 1741 C 165.773 0.76354 3.38803 0
M  V30 1742 C 164.727 1.81396 3.87659 0
M  V30 1743 C 164.053 1.31075 5.18385 0
M  V30 1744 C 165.353 3.21739 4.11438 0
M  V30 1745 H 167.047 2.05537 2.17703 0
M  V30 1746 H 164.593 0.989603 1.04608 0
M  V30 1747 H 166.546 0.644982 4.16435 0
M  V30 1748 H 165.27 -0.206727 3.25945 0
M  V30 1749 H 163.929 1.92136 3.12217 0
M  V30 1750 H 163.577 0.330037 5.01916 0
M  V30 1751 H 163.277 2.013 5.52044 0
M  V30 1752 H 164.801 1.20506 5.98591 0
M  V30 1753 H 166.215 3.14019 4.79651 0
M  V30 1754 H 164.612 3.89644 4.56397 0
M  V30 1755 H 165.682 3.67054 3.16859 0
M  V30 1756 N 167.025 -1.13721 1.09112 0
M  V30 1757 C 168.271 -1.85198 0.826414 0
M  V30 1758 C 168.604 -1.83129 -0.646319 0
M  V30 1759 O 167.879 -1.2671 -1.47563 0
M  V30 1760 C 168.162 -3.33507 1.35812 0
M  V30 1761 C 168.015 -3.44108 2.89672 0
M  V30 1762 C 169.334 -4.28838 0.989256 0
M  V30 1763 H 166.453 -0.67243 0.301675 0
M  V30 1764 H 169.095 -1.33499 1.35197 0
M  V30 1765 H 167.245 -3.77666 0.911082 0
M  V30 1766 H 168.917 -3.08684 3.428 0
M  V30 1767 H 167.16 -2.85087 3.26967 0
M  V30 1768 H 167.831 -4.48388 3.21951 0
M  V30 1769 H 170.307 -3.92734 1.37475 0
M  V30 1770 H 169.183 -5.31051 1.38838 0
M  V30 1771 H 169.444 -4.4198 -0.102924 0
M  V30 1772 N 168.503 -0.877838 -1.30888 0
M  V30 1773 C 169.743 -0.499301 -1.98208 0
M  V30 1774 C 170.107 0.932649 -1.67826 0
M  V30 1775 O 171.308 1.41694 -2.28421 0
M  V30 1776 C 169.579 -0.758221 -3.49265 0
M  V30 1777 S 171.138 -0.480719 -4.36159 0
M  V30 1778 H 167.956 -0.186062 -0.686223 0
M  V30 1779 H 170.558 -1.13556 -1.59139 0
M  V30 1780 H 169.262 -1.79903 -3.68867 0
M  V30 1781 H 168.793 -0.109247 -3.93248 0
M  V30 1782 H 170.808 0.683698 -4.91467 0
M  V30 1783 N 169.982 1.44106 -0.638065 0
M  V30 1784 C 170.93 2.3248 0.0748149 0
M  V30 1785 C 171.924 1.47746 0.828702 0
M  V30 1786 O 173.13 1.64049 0.740816 0
M  V30 1787 H 169.505 0.750771 0.0429686 0
M  V30 1788 H 171.476 2.90348 -0.688504 0
M  V30 1789 C 170.225 3.31843 1.03805 0
M  V30 1790 H 169.548 3.97059 0.467375 0
M  V30 1791 H 170.988 3.96345 1.50622 0
M  V30 1792 C 169.447 2.61291 2.1267 0
M  V30 1793 O 169.977 2.41702 3.20847 0
M  V30 1794 N 168.183 2.20915 1.88798 0
M  V30 1795 H 167.73 2.37047 1.00829 0
M  V30 1796 H 167.688 1.74038 2.61836 0
M  V30 1797 N 171.46 0.379036 1.52974 0
M  V30 1798 C 172.708 -0.206014 2.01047 0
M  V30 1799 C 173.029 -1.48175 1.26765 0
M  V30 1800 O 172.299 -1.92085 0.384743 0
M  V30 1801 H 170.879 -0.0791184 0.742798 0
M  V30 1802 H 173.541 0.508366 1.88153 0
M  V30 1803 H 172.637 -0.423501 3.09213 0
M  V30 1804 N 172.938 -1.57226 0.108567 0
M  V30 1805 C 174.215 -1.86333 -0.594939 0
M  V30 1806 C 174.595 -1.00788 -1.85486 0
M  V30 1807 O 173.943 -0.0839293 -2.28346 0
M  V30 1808 C 174.153 -3.37265 -0.897405 0
M  V30 1809 C 175.501 -4.05629 -1.25501 0
M  V30 1810 O 176.525 -3.42224 -0.987998 0
M  V30 1811 O 175.384 -5.17531 -1.75567 0
M  V30 1812 H 172.478 -0.771018 -0.2991 0
M  V30 1813 H 175.024 -1.69102 0.142283 0
M  V30 1814 H 173.796 -3.913 -0.00413806 0
M  V30 1815 H 173.419 -3.59889 -1.69014 0
M  V30 1816 N 174.416 0.165178 -1.56732 0
M  V30 1817 C 175.348 1.22911 -1.93457 0
M  V30 1818 C 176.361 1.40152 -0.828333 0
M  V30 1819 O 177.55 1.40046 -1.10677 0
M  V30 1820 C 174.65 2.59686 -2.17753 0
M  V30 1821 C 173.823 2.63663 -3.48999 0
M  V30 1822 C 172.882 3.81845 -3.62051 0
M  V30 1823 O 171.908 3.67559 -4.34613 0
M  V30 1824 N 173.11 4.98557 -2.97357 0
M  V30 1825 H 175.875 0.917118 -2.85323 0
M  V30 1826 H 173.436 0.354895 -1.57962 0
M  V30 1827 H 175.428 3.37225 -2.23743 0
M  V30 1828 H 173.998 2.83251 -1.32242 0
M  V30 1829 H 173.218 1.72173 -3.54612 0
M  V30 1830 H 174.506 2.63336 -4.35352 0
M  V30 1831 H 173.904 5.13065 -2.38287 0
M  V30 1832 H 172.461 5.73936 -3.08934 0
M  V30 1833 N 175.894 1.51508 0.433938 0
M  V30 1834 C 177.171 1.54888 1.19453 0
M  V30 1835 C 177.551 0.315154 2.08734 0
M  V30 1836 O 176.899 -0.699558 2.17528 0
M  V30 1837 C 177.109 2.86467 1.99342 0
M  V30 1838 C 178.457 3.38545 2.56267 0
M  V30 1839 O 179.481 2.88041 2.0955 0
M  V30 1840 O 178.34 4.26675 3.41483 0
M  V30 1841 H 175.434 0.622863 0.544032 0
M  V30 1842 H 177.98 1.63823 0.442732 0
M  V30 1843 H 176.752 3.67718 1.33788 0
M  V30 1844 H 176.375 2.8071 2.8158 0
M  V30 1845 N 177.372 -0.689602 1.41712 0
M  V30 1846 C 178.612 -1.46184 1.42862 0
M  V30 1847 C 178.976 -1.91962 0.0382204 0
M  V30 1848 O 180.177 -2.68694 -0.0755019 0
M  V30 1849 C 178.448 -2.6371 2.4123 0
M  V30 1850 S 180.007 -3.52768 2.6096 0
M  V30 1851 H 176.825 -0.49947 0.506015 0
M  V30 1852 H 179.427 -0.804107 1.78198 0
M  V30 1853 H 178.131 -2.28293 3.41044 0
M  V30 1854 H 177.662 -3.3437 2.07269 0
M  V30 1855 H 179.677 -4.59146 1.88148 0
M  V30 1856 N 178.85 -1.27639 -0.924453 0
M  V30 1857 C 179.78 -1.13166 -2.04244 0
M  V30 1858 C 180.761 -0.032256 -1.70069 0
M  V30 1859 O 181.946 -0.207328 -1.9309 0
M  V30 1860 C 179.076 -0.781496 -3.38393 0
M  V30 1861 C 178.03 -1.83449 -3.86692 0
M  V30 1862 C 177.356 -1.33822 -5.17683 0
M  V30 1863 C 178.656 -3.23917 -4.09726 0
M  V30 1864 H 180.35 -2.06689 -2.1661 0
M  V30 1865 H 177.896 -0.995136 -1.04082 0
M  V30 1866 H 179.849 -0.667057 -4.16087 0
M  V30 1867 H 178.573 0.189439 -3.2605 0
M  V30 1868 H 177.232 -1.93789 -3.11193 0
M  V30 1869 H 176.88 -0.35665 -5.01734 0
M  V30 1870 H 176.58 -2.04224 -5.50968 0
M  V30 1871 H 178.104 -1.23679 -5.97943 0
M  V30 1872 H 179.518 -3.16559 -4.77978 0
M  V30 1873 H 177.915 -3.92059 -4.54324 0
M  V30 1874 H 178.985 -3.68729 -3.14908 0
M  V30 1875 N 180.328 1.1314 -1.09713 0
M  V30 1876 C 181.605 1.80762 -0.747302 0
M  V30 1877 C 181.985 1.96663 0.767265 0
M  V30 1878 O 181.333 1.53706 1.69076 0
M  V30 1879 C 181.543 3.15606 -1.48975 0
M  V30 1880 C 182.891 3.90914 -1.65746 0
M  V30 1881 O 183.915 3.25239 -1.45251 0
M  V30 1882 O 182.774 5.08718 -1.9967 0
M  V30 1883 H 179.868 0.782103 -0.268782 0
M  V30 1884 H 182.414 1.20041 -1.19951 0
M  V30 1885 H 181.186 2.99278 -2.52088 0
M  V30 1886 H 180.809 3.84029 -1.02991 0
M  V30 1887 N 181.806 0.884767 1.30421 0
M  V30 1888 C 183.054 0.502112 1.95763 0
M  V30 1889 C 183.375 -0.951815 1.70192 0
M  V30 1890 O 182.645 -1.6692 1.0254 0
M  V30 1891 H 181.225 0.182694 0.724315 0
M  V30 1892 H 183.887 1.1278 1.58955 0
M  V30 1893 H 182.983 0.672188 3.04775 0
M  V30 1894 N 183.284 -1.43765 0.645699 0
M  V30 1895 C 184.509 -2.06767 0.161883 0
M  V30 1896 C 184.934 -1.48034 -1.16049 0
M  V30 1897 O 184.292 -0.587369 -1.71522 0
M  V30 1898 C 184.34 -3.60519 0.0762003 0
M  V30 1899 O 183.444 -4.00982 -0.963721 0
M  V30 1900 H 182.785 -0.657675 0.091429 0
M  V30 1901 H 185.315 -1.84397 0.886499 0
M  V30 1902 H 185.325 -4.07853 -0.109604 0
M  V30 1903 H 184 -4.02646 1.04157 0
M  V30 1904 H 182.577 -3.65253 -0.751312 0
M  V30 1905 N 184.763 -0.387143 -1.52771 0
M  V30 1906 C 186.04 0.253197 -1.93954 0
M  V30 1907 C 186.42 1.64545 -1.32243 0
M  V30 1908 O 185.768 2.23191 -0.489699 0
M  V30 1909 C 185.978 0.281722 -3.47861 0
M  V30 1910 C 187.326 0.511715 -4.21505 0
M  V30 1911 O 188.35 0.362023 -3.54356 0
M  V30 1912 O 187.209 0.804847 -5.40541 0
M  V30 1913 H 184.303 0.156845 -0.811991 0
M  V30 1914 H 186.849 -0.441494 -1.63856 0
M  V30 1915 H 185.621 -0.693571 -3.85104 0
M  V30 1916 H 185.244 1.02142 -3.84256 0
M  V30 1917 N 186.241 1.57166 -0.116904 0
M  V30 1918 C 187.151 2.18745 0.847812 0
M  V30 1919 C 188.167 1.163 1.29423 0
M  V30 1920 O 189.343 1.48761 1.35765 0
M  V30 1921 C 186.408 2.77307 2.0809 0
M  V30 1922 C 185.469 3.94781 1.68661 0
M  V30 1923 C 184.702 4.50541 2.86091 0
M  V30 1924 O 184.925 4.05202 4.01456 0
M  V30 1925 O 183.859 5.41256 2.63298 0
M  V30 1926 H 187.685 3.01632 0.353778 0
M  V30 1927 H 185.27 1.49005 0.108599 0
M  V30 1928 H 187.152 3.14647 2.80313 0
M  V30 1929 H 185.827 1.97452 2.56504 0
M  V30 1930 H 184.734 3.62214 0.935518 0
M  V30 1931 H 186.067 4.76065 1.24991 0
M  V30 1932 N 187.719 -0.156864 1.56817 0
M  V30 1933 C 188.996 -0.899244 1.73704 0
M  V30 1934 C 189.376 -1.99771 0.682254 0
M  V30 1935 O 188.724 -2.26515 -0.300522 0
M  V30 1936 C 188.934 -1.45075 3.17418 0
M  V30 1937 C 190.282 -1.91802 3.7881 0
M  V30 1938 O 191.306 -1.54838 3.20786 0
M  V30 1939 O 190.165 -2.5994 4.80722 0
M  V30 1940 H 187.259 -0.424267 0.709878 0
M  V30 1941 H 189.805 -0.143561 1.69092 0
M  V30 1942 H 188.577 -0.660846 3.85679 0
M  V30 1943 H 188.2 -2.27021 3.26416 0
M  V30 1944 N 189.197 -1.51736 -0.425897 0
M  V30 1945 C 190.474 -1.55519 -1.1863 0
M  V30 1946 C 190.854 -0.326219 -2.08564 0
M  V30 1947 O 190.202 0.688012 -2.17896 0
M  V30 1948 C 190.412 -2.87521 -1.9782 0
M  V30 1949 C 191.76 -3.39899 -2.54468 0
M  V30 1950 O 192.784 -2.89148 -2.08019 0
M  V30 1951 O 191.643 -4.2848 -3.39215 0
M  V30 1952 H 188.737 -0.625739 -0.540721 0
M  V30 1953 H 191.283 -1.64055 -0.434038 0
M  V30 1954 H 190.055 -3.68422 -1.31836 0
M  V30 1955 H 189.678 -2.822 -2.80088 0
M  V30 1956 N 190.675 0.682077 -1.42076 0
M  V30 1957 C 191.915 1.45424 -1.43636 0
M  V30 1958 C 192.279 1.91939 -0.0484001 0
M  V30 1959 O 193.48 2.6873 0.0612514 0
M  V30 1960 C 191.751 2.62427 -2.42625 0
M  V30 1961 S 193.31 3.51379 -2.62827 0
M  V30 1962 H 190.128 0.496779 -0.508657 0
M  V30 1963 H 192.73 0.794645 -1.78621 0
M  V30 1964 H 191.434 2.26481 -3.42249 0
M  V30 1965 H 190.965 3.33266 -2.09039 0
M  V30 1966 H 192.98 4.58141 -1.9058 0
M  V30 1967 N 192.153 1.28127 0.917671 0
M  V30 1968 C 193.063 1.13556 2.05286 0
M  V30 1969 C 194.079 0.0630914 1.73886 0
M  V30 1970 O 195.255 0.271598 1.9956 0
M  V30 1971 C 192.32 0.794676 3.3747 0
M  V30 1972 C 191.381 1.94909 3.82504 0
M  V30 1973 C 190.614 1.62437 5.0838 0
M  V30 1974 O 190.837 0.536905 5.67867 0
M  V30 1975 O 189.771 2.46677 5.4903 0
M  V30 1976 H 193.597 2.08844 2.20495 0
M  V30 1977 H 191.182 1.07409 1.03845 0
M  V30 1978 H 193.064 0.618344 4.16839 0
M  V30 1979 H 191.739 -0.128581 3.23445 0
M  V30 1980 H 190.646 2.18055 3.03978 0
M  V30 1981 H 191.979 2.85291 4.01086 0
M  V30 1982 N 193.631 -1.12557 1.10312 0
M  V30 1983 C 194.908 -1.80363 0.756878 0
M  V30 1984 C 195.288 -1.97067 -0.756824 0
M  V30 1985 O 194.636 -1.54601 -1.68259 0
M  V30 1986 C 194.846 -3.14812 1.50647 0
M  V30 1987 C 196.194 -3.90029 1.67817 0
M  V30 1988 O 197.218 -3.24464 1.46974 0
M  V30 1989 O 196.077 -5.07652 2.02365 0
M  V30 1990 H 193.171 -0.780667 0.272926 0
M  V30 1991 H 195.717 -1.19404 1.20586 0
M  V30 1992 H 194.489 -2.97936 2.53672 0
M  V30 1993 H 194.112 -3.83478 1.05026 0
M  V30 1994 N 195.109 -0.891671 -1.2995 0
M  V30 1995 C 196.355 -0.514261 -1.96171 0
M  V30 1996 C 196.688 0.935506 -1.70182 0
M  V30 1997 O 195.963 1.66204 -1.01028 0
M  V30 1998 C 196.246 -0.797719 -3.51153 0
M  V30 1999 C 196.099 -2.2986 -3.86632 0
M  V30 2000 C 197.418 -0.278749 -4.39216 0
M  V30 2001 H 194.537 -0.188314 -0.712535 0
M  V30 2002 H 197.179 -1.11689 -1.53706 0
M  V30 2003 H 195.329 -0.284826 -3.87455 0
M  V30 2004 H 197.001 -2.88042 -3.60319 0
M  V30 2005 H 195.244 -2.76257 -3.34462 0
M  V30 2006 H 195.915 -2.44753 -4.94773 0
M  V30 2007 H 198.391 -0.717825 -4.09862 0
M  V30 2008 H 197.267 -0.506353 -5.46559 0
M  V30 2009 H 197.528 0.820266 -4.34424 0
M  V30 2010 N 196.587 1.43421 -0.653314 0
M  V30 2011 C 198.003 1.56341 -0.320886 0
M  V30 2012 C 198.203 1.63696 1.17499 0
M  V30 2013 O 197.259 1.59208 1.95982 0
M  V30 2014 C 198.572 2.82424 -1.03233 0
M  V30 2015 C 200.12 2.96168 -1.01259 0
M  V30 2016 C 200.595 4.25084 -1.70492 0
M  V30 2017 N 202.086 4.31948 -1.67257 0
M  V30 2018 C 202.821 5.30466 -2.17701 0
M  V30 2019 N 202.317 6.35261 -2.76434 0
M  V30 2020 N 204.11 5.2212 -2.082 0
M  V30 2021 H 196.261 1.3689 -1.62403 0
M  V30 2022 H 198.524 0.657455 -0.682977 0
M  V30 2023 H 198.23 2.83053 -2.08744 0
M  V30 2024 H 198.104 3.72653 -0.583948 0
M  V30 2025 H 200.491 2.9508 0.0341235 0
M  V30 2026 H 200.572 2.07229 -1.49966 0
M  V30 2027 H 200.216 4.26932 -2.7512 0
M  V30 2028 H 200.146 5.1292 -1.19251 0
M  V30 2029 H 202.637 3.56838 -1.24398 0
M  V30 2030 H 202.95 7.06754 -3.12601 0
M  V30 2031 H 201.295 6.35884 -2.80495 0
M  V30 2032 H 204.486 4.39166 -1.62021 0
M  V30 2033 H 204.659 5.98739 -2.47822 0
M  V30 2034 N 198.065 0.39524 1.52563 0
M  V30 2035 C 199.028 -0.425001 2.25225 0
M  V30 2036 C 200.028 -0.985266 1.27079 0
M  V30 2037 O 201.218 -0.866332 1.5113 0
M  V30 2038 C 198.35 -1.59686 3.01186 0
M  V30 2039 H 199.543 0.211233 2.99155 0
M  V30 2040 H 197.096 0.147472 1.55603 0
M  V30 2041 H 197.831 -2.27035 2.31572 0
M  V30 2042 H 197.616 -1.20176 3.73229 0
M  V30 2043 H 199.106 -2.17743 3.5634 0
M  V30 2044 N 199.544 -1.57102 0.125237 0
M  V30 2045 C 200.793 -1.94582 -0.531095 0
M  V30 2046 C 201.106 -1.01126 -1.6743 0
M  V30 2047 O 202.312 -1.28097 -2.39381 0
M  V30 2048 C 200.768 -3.45839 -0.996164 0
M  V30 2049 C 200.376 -4.47842 0.118926 0
M  V30 2050 C 202.12 -3.92227 -1.62352 0
M  V30 2051 C 200.027 -5.90284 -0.363192 0
M  V30 2052 H 198.957 -0.726391 -0.20217 0
M  V30 2053 H 201.608 -1.82339 0.206092 0
M  V30 2054 H 199.99 -3.53338 -1.78796 0
M  V30 2055 H 201.164 -4.52018 0.895358 0
M  V30 2056 H 199.479 -4.11243 0.653324 0
M  V30 2057 H 202.076 -4.96069 -1.99548 0
M  V30 2058 H 202.419 -3.32552 -2.50429 0
M  V30 2059 H 202.952 -3.87554 -0.897019 0
M  V30 2060 H 199.691 -6.53728 0.481679 0
M  V30 2061 H 199.211 -5.89515 -1.10597 0
M  V30 2062 H 200.89 -6.41752 -0.822377 0
M  V30 2063 N 201.022 0.148545 -1.56898 0
M  V30 2064 C 202.299 0.890019 -1.74178 0
M  V30 2065 C 202.679 1.99407 -0.692839 0
M  V30 2066 O 202.027 2.26671 0.288505 0
M  V30 2067 C 202.237 1.43389 -3.18183 0
M  V30 2068 C 203.585 1.89791 -3.79822 0
M  V30 2069 O 204.609 1.53134 -3.21603 0
M  V30 2070 O 203.468 2.57387 -4.82093 0
M  V30 2071 H 200.562 0.420496 -0.712118 0
M  V30 2072 H 203.108 0.134591 -1.69165 0
M  V30 2073 H 201.88 0.640383 -3.86024 0
M  V30 2074 H 201.503 2.25287 -3.27615 0
M  V30 2075 N 202.5 1.5196 0.417844 0
M  V30 2076 C 203.41 1.77554 1.53336 0
M  V30 2077 C 204.426 0.660655 1.6097 0
M  V30 2078 O 205.602 0.945099 1.77848 0
M  V30 2079 C 202.667 1.91291 2.89152 0
M  V30 2080 C 201.728 3.15183 2.91475 0
M  V30 2081 C 200.961 3.28256 4.20813 0
M  V30 2082 O 201.184 2.46798 5.14244 0
M  V30 2083 O 200.118 4.21356 4.29817 0
M  V30 2084 H 203.944 2.7222 1.34647 0
M  V30 2085 H 201.529 1.36698 0.602828 0
M  V30 2086 H 203.411 2.02199 3.69721 0
M  V30 2087 H 202.086 0.998129 3.07927 0
M  V30 2088 H 200.993 3.09739 2.09791 0
M  V30 2089 H 202.326 4.06414 2.77648 0
M  V30 2090 N 203.978 -0.674533 1.42435 0
M  V30 2091 C 205.255 -1.4305 1.33402 0
M  V30 2092 C 205.635 -2.11081 -0.0284674 0
M  V30 2093 O 204.983 -2.03257 -1.04397 0
M  V30 2094 C 205.193 -2.43272 2.50239 0
M  V30 2095 C 206.541 -3.07907 2.92367 0
M  V30 2096 O 207.565 -2.53599 2.50132 0
M  V30 2097 O 206.424 -4.0632 3.65467 0
M  V30 2098 H 203.518 -0.638076 0.526106 0
M  V30 2099 H 206.064 -0.703235 1.54443 0
M  V30 2100 H 204.836 -1.91803 3.41068 0
M  V30 2101 H 204.459 -3.23479 2.31186 0
M  V30 2102 N 205.456 -1.28612 -0.910864 0
M  V30 2103 C 206.696 -1.1719 -1.67469 0
M  V30 2104 C 207.06 0.274441 -1.90028 0
M  V30 2105 O 208.261 0.511425 -2.6389 0
M  V30 2106 C 206.532 -1.95137 -2.99427 0
M  V30 2107 S 208.091 -2.00122 -3.90508 0
M  V30 2108 H 204.909 -0.41806 -0.575106 0
M  V30 2109 H 207.511 -1.6275 -1.08317 0
M  V30 2110 H 206.215 -2.99381 -2.80712 0
M  V30 2111 H 205.746 -1.50137 -3.63624 0
M  V30 2112 H 207.761 -1.10981 -4.8363 0
M  V30 2113 N 206.934 1.1197 -1.10907 0
M  V30 2114 C 208.159 1.87942 -0.877064 0
M  V30 2115 C 208.584 1.79341 0.567314 0
M  V30 2116 O 207.942 1.15184 1.40009 0
M  V30 2117 C 207.99 3.34926 -1.33629 0
M  V30 2118 O 207.094 4.09303 -0.504447 0
M  V30 2119 H 206.435 0.583785 -0.316371 0
M  V30 2120 H 208.965 1.4157 -1.47712 0
M  V30 2121 H 208.975 3.8577 -1.32837 0
M  V30 2122 H 207.65 3.40504 -2.3881 0
M  V30 2123 H 206.227 3.68393 -0.577993 0
M  V30 2124 N 208.412 0.89855 1.29475 0
M  V30 2125 C 209.344 0.332726 2.26772 0
M  V30 2126 C 210.357 -0.520323 1.54261 0
M  V30 2127 O 211.546 -0.337668 1.75277 0
M  V30 2128 C 208.646 -0.544334 3.345 0
M  V30 2129 C 207.819 0.282728 4.36485 0
M  V30 2130 C 206.878 -0.526982 5.23555 0
M  V30 2131 O 205.904 0.0551165 5.69173 0
M  V30 2132 N 207.106 -1.83331 5.5079 0
M  V30 2133 H 209.871 1.16897 2.75962 0
M  V30 2134 H 207.432 0.762919 1.42798 0
M  V30 2135 H 209.424 -1.09239 3.89678 0
M  V30 2136 H 207.994 -1.28127 2.85136 0
M  V30 2137 H 207.214 1.01221 3.80983 0
M  V30 2138 H 208.502 0.84918 5.01664 0
M  V30 2139 H 207.9 -2.32898 5.15534 0
M  V30 2140 H 206.457 -2.32852 6.08788 0
M  V30 2141 N 209.89 -1.43072 0.660911 0
M  V30 2142 C 211.12 -2.05769 0.185153 0
M  V30 2143 C 211.528 -1.49668 -1.15742 0
M  V30 2144 O 210.871 -0.625649 -1.72717 0
M  V30 2145 C 210.933 -3.59489 0.0278237 0
M  V30 2146 C 210.597 -4.38212 1.2969 0
M  V30 2147 C 211.594 -4.69772 2.22734 0
M  V30 2148 C 209.279 -4.7809 1.54063 0
M  V30 2149 C 211.273 -5.40129 3.38437 0
M  V30 2150 C 208.96 -5.4819 2.70058 0
M  V30 2151 C 209.958 -5.79132 3.62071 0
M  V30 2152 O 209.646 -6.47798 4.76039 0
M  V30 2153 H 209.378 -0.669873 0.0908086 0
M  V30 2154 H 211.932 -1.84436 0.90402 0
M  V30 2155 H 210.162 -3.79426 -0.746489 0
M  V30 2156 H 211.851 -4.03862 -0.406275 0
M  V30 2157 H 212.617 -4.39476 2.05149 0
M  V30 2158 H 208.496 -4.53408 0.833215 0
M  V30 2159 H 212.04 -5.64198 4.10277 0
M  V30 2160 H 207.937 -5.77902 2.87574 0
M  V30 2161 H 208.705 -6.66283 4.75404 0
M  V30 2162 N 211.368 -0.403325 -1.52352 0
M  V30 2163 C 212.278 0.432009 -2.30588 0
M  V30 2164 C 213.294 1.05884 -1.38075 0
M  V30 2165 O 214.47 1.06161 -1.71148 0
M  V30 2166 C 211.535 1.53669 -3.10784 0
M  V30 2167 C 210.596 0.933525 -4.19027 0
M  V30 2168 C 209.829 1.98557 -4.9539 0
M  V30 2169 O 210.052 3.20283 -4.71991 0
M  V30 2170 O 208.986 1.59504 -5.80381 0
M  V30 2171 H 212.812 -0.205739 -3.03002 0
M  V30 2172 H 210.397 -0.166675 -1.48467 0
M  V30 2173 H 212.279 2.17814 -3.60742 0
M  V30 2174 H 210.954 2.15915 -2.41169 0
M  V30 2175 H 209.861 0.254954 -3.7323 0
M  V30 2176 H 211.194 0.35508 -4.90918 0
M  V30 2177 N 212.846 1.57033 -0.133567 0
M  V30 2178 C 214.257 1.82593 0.389464 0
M  V30 2179 C 214.608 1.05156 1.6564 0
M  V30 2180 O 213.733 0.292644 2.14412 0
M  V30 2181 C 214.328 3.31204 0.713377 0
M  V30 2182 C 212.887 3.57393 1.18098 0
M  V30 2183 C 212.034 2.76598 0.197126 0
M  V30 2184 H 214.985 1.54598 -0.358481 0
M  V30 2185 H 215.006 3.46627 1.56939 0
M  V30 2186 H 214.518 3.87537 -0.2089 0
M  V30 2187 H 212.619 3.06433 2.11966 0
M  V30 2188 H 212.732 4.65915 1.11624 0
M  V30 2189 H 211.096 2.45257 0.687088 0
M  V30 2190 H 211.879 3.35697 -0.718504 0
M  V30 2191 N 214.325 -0.140222 1.56975 0
M  V30 2192 C 215.574 -0.850152 1.82908 0
M  V30 2193 C 215.887 -1.82028 0.715892 0
M  V30 2194 O 217.093 -2.57485 0.861016 0
M  V30 2195 C 215.549 -1.5625 3.24213 0
M  V30 2196 C 215.157 -0.63443 4.43485 0
M  V30 2197 C 216.901 -2.25881 3.59413 0
M  V30 2198 C 214.808 -1.34879 5.75814 0
M  V30 2199 H 213.738 -0.321221 0.682153 0
M  V30 2200 H 216.389 -0.102874 1.83211 0
M  V30 2201 H 214.771 -2.35565 3.18316 0
M  V30 2202 H 215.945 0.12398 4.60633 0
M  V30 2203 H 214.26 -0.0461836 4.16374 0
M  V30 2204 H 216.857 -2.79978 4.5554 0
M  V30 2205 H 217.2 -3.02693 2.85802 0
M  V30 2206 H 217.733 -1.53477 3.67001 0
M  V30 2207 H 214.472 -0.622385 6.52539 0
M  V30 2208 H 213.992 -2.07974 5.6259 0
M  V30 2209 H 215.671 -1.88784 6.18845 0
M  V30 2210 N 215.803 -1.52179 -0.40978 0
M  V30 2211 C 217.214 -1.58377 -0.988615 0
M  V30 2212 C 217.565 -0.423879 -1.91566 0
M  V30 2213 O 216.69 0.455844 -2.11544 0
M  V30 2214 C 217.285 -2.87044 -1.79976 0
M  V30 2215 C 215.844 -2.95722 -2.32863 0
M  V30 2216 C 214.991 -2.53309 -1.12828 0
M  V30 2217 H 217.942 -1.57558 -0.190039 0
M  V30 2218 H 217.963 -2.7236 -2.65707 0
M  V30 2219 H 217.475 -3.71444 -1.12478 0
M  V30 2220 H 215.576 -2.15814 -3.03735 0
M  V30 2221 H 215.689 -3.99951 -2.63773 0
M  V30 2222 H 214.053 -2.07142 -1.48204 0
M  V30 2223 H 214.836 -3.40082 -0.46897 0
M  V30 2224 N 217.281 0.66697 -1.42791 0
M  V30 2225 C 218.529 1.42417 -1.43394 0
M  V30 2226 C 218.85 1.94925 -0.0542373 0
M  V30 2227 O 218.12 1.73564 0.908415 0
M  V30 2228 H 216.7 0.528515 -0.527902 0
M  V30 2229 H 219.362 0.787562 -1.78279 0
M  V30 2230 H 218.458 2.27333 -2.13837 0
M  V30 2231 N 218.759 1.29093 0.90403 0
M  V30 2232 C 219.984 1.19809 1.69294 0
M  V30 2233 C 220.409 -0.238481 1.86582 0
M  V30 2234 O 219.767 -1.1723 1.383 0
M  V30 2235 C 219.815 1.91202 3.05736 0
M  V30 2236 O 218.919 1.22611 3.93752 0
M  V30 2237 H 218.26 0.415385 0.518027 0
M  V30 2238 H 220.79 1.70586 1.12967 0
M  V30 2239 H 220.8 1.99487 3.55906 0
M  V30 2240 H 219.475 2.95692 2.92471 0
M  V30 2241 H 218.052 1.22554 3.52186 0
M  V30 2242 N 220.237 -1.11381 1.11499 0
M  V30 2243 C 221.169 -2.17207 0.731704 0
M  V30 2244 C 222.182 -1.61066 -0.236957 0
M  V30 2245 O 223.371 -1.78489 -0.0197591 0
M  V30 2246 C 220.471 -3.38846 0.0607624 0
M  V30 2247 C 219.644 -4.24451 1.0564 0
M  V30 2248 C 218.703 -5.24562 0.4149 0
M  V30 2249 O 217.729 -5.59071 1.069 0
M  V30 2250 N 218.931 -5.74651 -0.821943 0
M  V30 2251 H 221.696 -2.50699 1.64225 0
M  V30 2252 H 219.257 -1.26908 1.00529 0
M  V30 2253 H 221.249 -4.02911 -0.380139 0
M  V30 2254 H 219.819 -3.03411 -0.752376 0
M  V30 2255 H 219.039 -3.56833 1.67524 0
M  V30 2256 H 220.327 -4.78486 1.72998 0
M  V30 2257 H 219.725 -5.48797 -1.37252 0
M  V30 2258 H 218.282 -6.40549 -1.20582 0
M  V30 2259 N 221.715 -0.905404 -1.28997 0
M  V30 2260 C 222.662 -0.385892 -2.27551 0
M  V30 2261 C 223.632 0.535113 -1.57244 0
M  V30 2262 O 224.817 0.459119 -1.85194 0
M  V30 2263 C 221.957 0.375461 -3.43051 0
M  V30 2264 C 221.07 -0.577092 -4.28128 0
M  V30 2265 C 220.205 0.201879 -5.30816 0
M  V30 2266 C 219.244 -0.744829 -6.07551 0
M  V30 2267 N 218.381 9.42587e-05 -7.021 0
M  V30 2268 H 223.221 -1.23139 -2.71368 0
M  V30 2269 H 220.758 -0.618542 -1.33463 0
M  V30 2270 H 222.716 0.832992 -4.088 0
M  V30 2271 H 221.346 1.18537 -3.00248 0
M  V30 2272 H 220.398 -1.15315 -3.62501 0
M  V30 2273 H 221.71 -1.30152 -4.8152 0
M  V30 2274 H 220.864 0.720351 -6.02408 0
M  V30 2275 H 219.603 0.959413 -4.7817 0
M  V30 2276 H 218.608 -1.27475 -5.34818 0
M  V30 2277 H 219.833 -1.50178 -6.62286 0
M  V30 2278 H 217.779 0.739791 -6.51815 0
M  V30 2279 H 217.696 -0.664321 -7.53076 0
M  V30 2280 H 218.964 0.498644 -7.77903 0
M  V30 2281 N 223.193 1.4272 -0.668489 0
M  V30 2282 C 224.156 2.292 0.00448567 0
M  V30 2283 C 225.156 1.43001 0.735339 0
M  V30 2284 O 226.346 1.64461 0.57429 0
M  V30 2285 C 223.478 3.25375 1.01705 0
M  V30 2286 H 224.671 2.90199 -0.756608 0
M  V30 2287 H 222.224 1.50254 -0.430506 0
M  V30 2288 H 222.959 2.69301 1.80686 0
M  V30 2289 H 222.744 3.88944 0.496463 0
M  V30 2290 H 224.234 3.90245 1.48655 0
M  V30 2291 N 224.671 0.411399 1.52136 0
M  V30 2292 C 225.634 -0.401089 2.25663 0
M  V30 2293 C 226.634 -0.971732 1.28117 0
M  V30 2294 O 227.824 -0.850254 1.52041 0
M  V30 2295 C 224.956 -1.56483 3.02863 0
M  V30 2296 H 226.149 0.24295 2.98914 0
M  V30 2297 H 223.702 0.163968 1.55438 0
M  V30 2298 H 224.437 -2.24567 2.33967 0
M  V30 2299 H 224.222 -1.16211 3.74483 0
M  V30 2300 H 225.712 -2.13951 3.58629 0
M  V30 2301 N 226.149 -1.5696 0.141893 0
M  V30 2302 C 227.079 -2.19516 -0.795936 0
M  V30 2303 C 228.06 -1.14187 -1.26077 0
M  V30 2304 O 229.245 -1.42511 -1.31925 0
M  V30 2305 C 226.375 -2.81272 -2.03723 0
M  V30 2306 C 225.329 -3.92384 -1.70936 0
M  V30 2307 C 224.655 -4.41052 -3.02287 0
M  V30 2308 C 225.955 -5.13403 -0.959954 0
M  V30 2309 H 227.649 -2.98138 -0.274596 0
M  V30 2310 H 225.195 -1.43406 -0.130636 0
M  V30 2311 H 227.148 -3.237 -2.69808 0
M  V30 2312 H 225.872 -1.99973 -2.58221 0
M  V30 2313 H 224.531 -3.50566 -1.07232 0
M  V30 2314 H 224.179 -3.56582 -3.54765 0
M  V30 2315 H 223.879 -5.15993 -2.81114 0
M  V30 2316 H 225.403 -4.86146 -3.69451 0
M  V30 2317 H 226.817 -5.52706 -1.52279 0
M  V30 2318 H 225.214 -5.94073 -0.848357 0
M  V30 2319 H 226.284 -4.84875 0.0492434 0
M  V30 2320 N 227.627 0.131896 -1.57047 0
M  V30 2321 C 228.875 0.840269 -1.83804 0
M  V30 2322 C 229.196 1.81017 -0.72512 0
M  V30 2323 O 228.466 1.94272 0.251995 0
M  V30 2324 H 227.046 0.313294 -0.678127 0
M  V30 2325 H 229.708 0.122294 -1.94516 0
M  V30 2326 H 228.804 1.39335 -2.79271 0
M  V30 2327 N 229.106 1.52395 0.401703 0
M  V30 2328 C 230.336 1.70429 1.1678 0
M  V30 2329 C 230.744 0.416702 1.84554 0
M  V30 2330 O 230.087 -0.617697 1.73003 0
M  V30 2331 C 230.149 2.78919 2.26814 0
M  V30 2332 C 229.813 4.20437 1.79113 0
M  V30 2333 C 230.81 5.04028 1.27482 0
M  V30 2334 C 228.495 4.66704 1.85722 0
M  V30 2335 C 230.489 6.31961 0.830913 0
M  V30 2336 C 228.176 5.94625 1.40942 0
M  V30 2337 C 229.174 6.77082 0.897128 0
M  V30 2338 O 228.862 8.02607 0.455822 0
M  V30 2339 H 228.594 0.574272 0.356634 0
M  V30 2340 H 231.148 1.99767 0.477724 0
M  V30 2341 H 229.378 2.44973 2.99207 0
M  V30 2342 H 231.067 2.8548 2.88541 0
M  V30 2343 H 231.833 4.69471 1.21744 0
M  V30 2344 H 227.712 4.0262 2.24539 0
M  V30 2345 H 231.256 6.96271 0.430368 0
M  V30 2346 H 227.153 6.28688 1.46362 0
M  V30 2347 H 227.921 8.16453 0.578457 0
M  V30 2348 N 230.584 -0.659388 1.43143 0
M  V30 2349 C 231.532 -1.79374 1.4808 0
M  V30 2350 C 232.526 -1.65639 0.354988 0
M  V30 2351 O 233.732 -1.7206 0.528704 0
M  V30 2352 H 230.107 -0.591705 0.4641 0
M  V30 2353 H 232.078 -1.72329 2.43609 0
M  V30 2354 C 230.827 -3.17606 1.41499 0
M  V30 2355 H 230.15 -3.28809 2.27431 0
M  V30 2356 H 231.59 -3.96951 1.49015 0
M  V30 2357 C 230.049 -3.36642 0.131765 0
M  V30 2358 O 230.579 -3.93461 -0.809386 0
M  V30 2359 N 228.785 -2.90567 0.0439396 0
M  V30 2360 H 228.332 -2.44513 0.810619 0
M  V30 2361 H 228.29 -3.03681 -0.813969 0
M  V30 2362 N 232.062 -1.29571 -0.897171 0
M  V30 2363 C 233.311 -1.1706 -1.64256 0
M  V30 2364 C 233.624 0.276476 -1.93636 0
M  V30 2365 O 234.83 0.52294 -2.66416 0
M  V30 2366 C 233.286 -2.0475 -2.95982 0
M  V30 2367 C 232.894 -3.54295 -2.74187 0
M  V30 2368 C 234.638 -2.0097 -3.73914 0
M  V30 2369 C 232.545 -4.34081 -4.01656 0
M  V30 2370 H 231.475 -0.43452 -0.616205 0
M  V30 2371 H 234.126 -1.54229 -0.994268 0
M  V30 2372 H 232.508 -1.60452 -3.62038 0
M  V30 2373 H 233.682 -4.06662 -2.1671 0
M  V30 2374 H 231.997 -3.59773 -2.09648 0
M  V30 2375 H 234.594 -2.57838 -4.68427 0
M  V30 2376 H 234.937 -0.990273 -4.0435 0
M  V30 2377 H 235.47 -2.43325 -3.14703 0
M  V30 2378 H 232.209 -5.36671 -3.76384 0
M  V30 2379 H 231.729 -3.86483 -4.58684 0
M  V30 2380 H 233.408 -4.44877 -4.69781 0
M  V30 2381 N 233.54 1.10788 -1.12088 0
M  V30 2382 C 234.47 2.19083 -0.807755 0
M  V30 2383 C 235.451 1.6858 0.226859 0
M  V30 2384 O 236.636 1.93997 0.0888475 0
M  V30 2385 C 233.766 3.46344 -0.257576 0
M  V30 2386 C 232.72 4.101 -1.22483 0
M  V30 2387 C 232.046 5.32016 -0.535052 0
M  V30 2388 C 233.346 4.54236 -2.57811 0
M  V30 2389 H 235.04 2.45534 -1.71328 0
M  V30 2390 H 232.586 1.1801 -0.825205 0
M  V30 2391 H 234.539 4.21392 -0.0262679 0
M  V30 2392 H 233.263 3.19373 0.683278 0
M  V30 2393 H 231.922 3.37054 -1.44189 0
M  V30 2394 H 231.57 5.01319 0.410827 0
M  V30 2395 H 231.27 5.75625 -1.18024 0
M  V30 2396 H 232.794 6.09799 -0.312695 0
M  V30 2397 H 234.208 5.20575 -2.40155 0
M  V30 2398 H 232.605 5.08682 -3.18375 0
M  V30 2399 H 233.675 3.6734 -3.16528 0
M  V30 2400 N 235.018 0.912232 1.28515 0
M  V30 2401 C 236.246 0.560416 1.99166 0
M  V30 2402 C 236.661 -0.857927 1.68182 0
M  V30 2403 O 236.018 -1.56805 0.933733 0
M  V30 2404 C 236.069 0.758142 3.53461 0
M  V30 2405 O 235.79 2.12067 3.83352 0
M  V30 2406 C 237.291 0.412954 4.41372 0
M  V30 2407 H 234.511 0.213805 0.636026 0
M  V30 2408 H 237.055 1.22502 1.63749 0
M  V30 2409 H 235.21 0.140556 3.87145 0
M  V30 2410 H 235.624 2.15923 4.77993 0
M  V30 2411 H 237.098 0.60208 5.48707 0
M  V30 2412 H 237.575 -0.65073 4.34353 0
M  V30 2413 H 238.181 1.00802 4.13182 0
M  V30 2414 N 236.496 -1.42363 0.676048 0
M  V30 2415 C 237.428 -2.29164 -0.0404605 0
M  V30 2416 C 238.441 -1.43747 -0.764245 0
M  V30 2417 O 239.63 -1.67453 -0.618195 0
M  V30 2418 C 236.73 -3.21196 -1.08103 0
M  V30 2419 C 235.903 -4.35273 -0.430812 0
M  V30 2420 C 234.962 -5.08017 -1.37133 0
M  V30 2421 O 233.988 -5.62494 -0.87116 0
M  V30 2422 N 235.19 -5.13647 -2.70456 0
M  V30 2423 H 237.955 -2.91298 0.704667 0
M  V30 2424 H 235.516 -1.53303 0.520559 0
M  V30 2425 H 237.508 -3.66728 -1.71152 0
M  V30 2426 H 236.078 -2.60505 -1.72788 0
M  V30 2427 H 235.298 -3.92372 0.379209 0
M  V30 2428 H 236.586 -5.08795 0.0221132 0
M  V30 2429 H 235.984 -4.708 -3.1363 0
M  V30 2430 H 234.541 -5.62821 -3.28749 0
M  V30 2431 N 237.974 -0.419461 -1.51915 0
M  V30 2432 C 238.884 0.407528 -2.31033 0
M  V30 2433 C 239.9 1.04413 -1.3919 0
M  V30 2434 O 241.076 1.0434 -1.72265 0
M  V30 2435 C 238.141 1.50365 -3.12396 0
M  V30 2436 C 237.202 0.889029 -4.19994 0
M  V30 2437 C 236.435 1.93291 -4.97468 0
M  V30 2438 O 236.658 3.15259 -4.75361 0
M  V30 2439 O 235.592 1.53339 -5.8204 0
M  V30 2440 H 239.418 -0.237865 -3.02767 0
M  V30 2441 H 237.003 -0.182413 -1.48282 0
M  V30 2442 H 238.885 2.13975 -3.63032 0
M  V30 2443 H 237.56 2.13345 -2.43445 0
M  V30 2444 H 236.467 0.215353 -3.7348 0
M  V30 2445 H 237.8 0.302991 -4.91267 0
M  V30 2446 N 239.452 1.56882 -0.150215 0
M  V30 2447 C 240.729 1.87844 0.545327 0
M  V30 2448 C 241.109 1.0567 1.82749 0
M  V30 2449 O 240.457 0.144442 2.28043 0
M  V30 2450 C 240.667 3.39526 0.80767 0
M  V30 2451 C 242.015 4.08814 1.14703 0
M  V30 2452 O 243.039 3.44723 0.896917 0
M  V30 2453 O 241.898 5.22004 1.61784 0
M  V30 2454 H 238.992 0.778677 0.278553 0
M  V30 2455 H 241.538 1.68666 -0.187068 0
M  V30 2456 H 240.31 3.91173 -0.0996096 0
M  V30 2457 H 239.933 3.64243 1.59413 0
M  V30 2458 N 240.93 -0.123565 1.57115 0
M  V30 2459 C 241.893 -1.13583 1.99076 0
M  V30 2460 C 242.893 -1.34564 0.880296 0
M  V30 2461 O 244.083 -1.31158 1.14644 0
M  V30 2462 C 241.215 -2.49128 2.32698 0
M  V30 2463 H 242.408 -0.775287 2.89706 0
M  V30 2464 H 239.961 -0.36771 1.51913 0
M  V30 2465 H 240.696 -2.90111 1.44934 0
M  V30 2466 H 240.481 -2.35255 3.13684 0
M  V30 2467 H 241.971 -3.2199 2.65918 0
M  V30 2468 N 242.408 -1.52605 -0.393616 0
M  V30 2469 C 243.34 -1.73303 -1.49995 0
M  V30 2470 C 244.353 -0.613473 -1.50799 0
M  V30 2471 O 245.542 -0.889049 -1.54784 0
M  V30 2472 C 242.642 -1.77245 -2.88855 0
M  V30 2473 C 241.815 -3.06483 -3.12069 0
M  V30 2474 C 240.874 -3.02033 -4.30886 0
M  V30 2475 O 239.9 -3.75907 -4.27414 0
M  V30 2476 N 241.102 -2.20897 -5.36828 0
M  V30 2477 H 243.867 -2.68756 -1.32629 0
M  V30 2478 H 241.428 -1.51036 -0.583083 0
M  V30 2479 H 243.42 -1.7178 -3.66434 0
M  V30 2480 H 241.99 -0.891993 -2.99603 0
M  V30 2481 H 241.21 -3.25474 -2.22396 0
M  V30 2482 H 242.498 -3.91947 -3.2443 0
M  V30 2483 H 241.896 -1.60336 -5.42502 0
M  V30 2484 H 240.453 -2.21275 -6.13091 0
M  V30 2485 N 243.887 0.651787 -1.4349 0
M  V30 2486 C 245.112 1.44434 -1.48841 0
M  V30 2487 C 245.537 1.8779 -0.107955 0
M  V30 2488 O 244.895 1.57464 0.898602 0
M  V30 2489 C 244.943 2.65458 -2.44059 0
M  V30 2490 O 244.047 3.64566 -1.92784 0
M  V30 2491 H 243.388 0.433005 -0.503391 0
M  V30 2492 H 245.918 0.797451 -1.88419 0
M  V30 2493 H 245.928 3.13255 -2.6141 0
M  V30 2494 H 244.603 2.33244 -3.4434 0
M  V30 2495 H 243.18 3.23716 -1.851 0
M  V30 2496 N 245.365 1.30045 0.890287 0
M  V30 2497 C 246.611 1.18737 1.64406 0
M  V30 2498 C 246.944 -0.258525 1.92472 0
M  V30 2499 O 246.219 -1.18562 1.54186 0
M  V30 2500 C 246.502 2.01087 2.98724 0
M  V30 2501 C 246.355 3.53867 2.77665 0
M  V30 2502 C 247.674 1.84457 3.9958 0
M  V30 2503 H 244.793 0.432698 0.596608 0
M  V30 2504 H 247.435 1.5962 1.0306 0
M  V30 2505 H 245.585 1.66349 3.51084 0
M  V30 2506 H 247.257 3.98637 2.32133 0
M  V30 2507 H 245.5 3.78318 2.12269 0
M  V30 2508 H 246.171 4.06772 3.7315 0
M  V30 2509 H 248.647 2.14817 3.56361 0
M  V30 2510 H 247.523 2.44411 4.91482 0
M  V30 2511 H 247.784 0.802276 4.3476 0
M  V30 2512 N 246.843 -1.10192 1.12674 0
M  V30 2513 C 248.073 -1.85713 0.905213 0
M  V30 2514 C 248.481 -1.81056 -0.549108 0
M  V30 2515 O 247.824 -1.19927 -1.39151 0
M  V30 2516 C 247.886 -3.34972 1.30516 0
M  V30 2517 C 247.55 -3.63385 2.77129 0
M  V30 2518 C 248.547 -3.59772 3.75313 0
M  V30 2519 C 246.232 -3.91981 3.14096 0
M  V30 2520 C 248.226 -3.84354 5.08479 0
M  V30 2521 C 245.913 -4.16218 4.47443 0
M  V30 2522 C 246.911 -4.12395 5.44444 0
M  V30 2523 O 246.599 -4.36014 6.75387 0
M  V30 2524 H 246.331 -0.593719 0.323223 0
M  V30 2525 H 248.885 -1.40198 1.50112 0
M  V30 2526 H 247.115 -3.81156 0.652463 0
M  V30 2527 H 248.804 -3.91886 1.05736 0
M  V30 2528 H 249.57 -3.37716 3.48099 0
M  V30 2529 H 245.449 -3.94085 2.39202 0
M  V30 2530 H 248.993 -3.81285 5.84181 0
M  V30 2531 H 244.89 -4.37754 4.74386 0
M  V30 2532 H 245.658 -4.53516 6.8137 0
M  V30 2533 N 248.321 -0.919034 -1.28029 0
M  V30 2534 C 249.598 -0.473668 -1.89778 0
M  V30 2535 C 249.978 1.04783 -1.83259 0
M  V30 2536 O 249.326 1.8982 -1.27202 0
M  V30 2537 C 249.536 -1.00998 -3.34066 0
M  V30 2538 C 250.884 -1.06525 -4.1102 0
M  V30 2539 O 251.908 -0.958996 -3.43048 0
M  V30 2540 O 250.767 -1.22776 -5.3253 0
M  V30 2541 H 247.861 -0.15098 -0.813101 0
M  V30 2542 H 250.407 -1.01016 -1.36359 0
M  V30 2543 H 249.179 -2.05392 -3.33061 0
M  V30 2544 H 248.802 -0.454626 -3.94992 0
M  V30 2545 N 249.799 1.42003 -0.683588 0
M  V30 2546 C 250.762 2.29191 -0.0198243 0
M  V30 2547 C 251.762 1.43773 0.72013 0
M  V30 2548 O 252.952 1.65061 0.556815 0
M  V30 2549 C 250.084 3.26435 0.982487 0
M  V30 2550 H 251.277 2.8938 -0.787345 0
M  V30 2551 H 248.83 1.49789 -0.446418 0
M  V30 2552 H 249.565 2.71203 1.77819 0
M  V30 2553 H 249.35 3.89449 0.455182 0
M  V30 2554 H 250.84 3.918 1.44508 0
M  V30 2555 N 251.277 0.427512 1.51691 0
M  V30 2556 C 252.502 -0.143601 2.06902 0
M  V30 2557 C 252.927 -1.36536 1.29382 0
M  V30 2558 O 252.285 -1.78289 0.329043 0
M  V30 2559 C 252.333 -0.454207 3.57728 0
M  V30 2560 O 251.437 -1.54228 3.82475 0
M  V30 2561 H 250.778 -0.00617128 0.663971 0
M  V30 2562 H 253.308 0.606014 1.95419 0
M  V30 2563 H 253.318 -0.707525 4.01818 0
M  V30 2564 H 251.993 0.438812 4.13579 0
M  V30 2565 H 250.57 -1.2797 3.50254 0
M  V30 2566 N 252.755 -1.56801 0.158532 0
M  V30 2567 C 253.985 -2.00568 -0.495583 0
M  V30 2568 C 254.393 -1.03774 -1.58201 0
M  V30 2569 O 253.736 -0.0285797 -1.83678 0
M  V30 2570 C 253.798 -3.40768 -1.14532 0
M  V30 2571 C 253.462 -4.56553 -0.202101 0
M  V30 2572 C 254.459 -5.16714 0.574675 0
M  V30 2573 C 252.144 -5.02197 -0.101648 0
M  V30 2574 C 254.138 -6.20939 1.43924 0
M  V30 2575 C 251.825 -6.06274 0.766508 0
M  V30 2576 C 252.823 -6.65515 1.53555 0
M  V30 2577 O 252.511 -7.67575 2.38922 0
M  V30 2578 H 252.243 -0.662893 -0.13247 0
M  V30 2579 H 254.797 -2.03829 0.253559 0
M  V30 2580 H 253.027 -3.34381 -1.94233 0
M  V30 2581 H 254.716 -3.6857 -1.70033 0
M  V30 2582 H 255.482 -4.82341 0.507167 0
M  V30 2583 H 251.361 -4.55807 -0.689994 0
M  V30 2584 H 254.905 -6.67107 2.03996 0
M  V30 2585 H 250.802 -6.40073 0.835266 0
M  V30 2586 H 251.57 -7.84844 2.32296 0
M  V30 2587 N 254.233 0.115231 -1.57178 0
M  V30 2588 C 255.463 0.835224 -1.88964 0
M  V30 2589 C 255.871 1.73774 -0.74829 0
M  V30 2590 O 255.214 1.81401 0.289739 0
M  V30 2591 C 255.276 1.7178 -3.15804 0
M  V30 2592 C 254.94 0.989198 -4.46166 0
M  V30 2593 C 255.937 0.328263 -5.18863 0
M  V30 2594 C 253.622 0.969256 -4.9286 0
M  V30 2595 C 255.616 -0.342873 -6.36477 0
M  V30 2596 C 253.303 0.294324 -6.10391 0
M  V30 2597 C 254.301 -0.360582 -6.82048 0
M  V30 2598 O 253.989 -1.02474 -7.97342 0
M  V30 2599 H 253.721 0.245197 -0.629964 0
M  V30 2600 H 256.275 0.10303 -2.05141 0
M  V30 2601 H 254.505 2.49173 -2.95719 0
M  V30 2602 H 256.194 2.31255 -3.33581 0
M  V30 2603 H 256.96 0.335263 -4.8384 0
M  V30 2604 H 252.839 1.46844 -4.36987 0
M  V30 2605 H 256.383 -0.854629 -6.92345 0
M  V30 2606 H 252.28 0.285099 -6.4487 0
M  V30 2607 H 253.048 -0.929594 -8.13204 0
M  V30 2608 N 255.711 1.52812 0.385517 0
M  V30 2609 C 256.959 1.67694 1.12797 0
M  V30 2610 C 257.28 0.421115 1.90399 0
M  V30 2611 O 256.55 -0.564551 1.87589 0
M  V30 2612 H 255.13 0.618155 0.419396 0
M  V30 2613 H 257.792 1.89938 0.436972 0
M  V30 2614 H 256.888 2.52896 1.82894 0
M  V30 2615 N 257.189 -0.644168 1.43834 0
M  V30 2616 C 258.437 -1.40117 1.45642 0
M  V30 2617 C 258.758 -1.94814 0.0852413 0
M  V30 2618 O 258.028 -1.74988 -0.880688 0
M  V30 2619 H 256.608 -0.52005 0.536243 0
M  V30 2620 H 259.27 -0.7591 1.7951 0
M  V30 2621 H 258.366 -2.23902 2.17427 0
M  V30 2622 N 258.668 -1.30515 -0.883378 0
M  V30 2623 C 259.6 -1.12846 -1.99496 0
M  V30 2624 C 260.613 -0.0712571 -1.62644 0
M  V30 2625 O 261.802 -0.317432 -1.75655 0
M  V30 2626 C 258.902 -0.699123 -3.3161 0
M  V30 2627 C 258.075 -1.83842 -3.96889 0
M  V30 2628 C 257.134 -1.39737 -5.07307 0
M  V30 2629 O 256.16 -2.10485 -5.28852 0
M  V30 2630 N 257.362 -0.277279 -5.79837 0
M  V30 2631 H 260.127 -2.08585 -2.15203 0
M  V30 2632 H 257.688 -1.22672 -1.05656 0
M  V30 2633 H 259.68 -0.387044 -4.02845 0
M  V30 2634 H 258.25 0.166276 -3.12157 0
M  V30 2635 H 257.47 -2.31853 -3.18807 0
M  V30 2636 H 258.758 -2.60187 -4.37241 0
M  V30 2637 H 258.156 0.3122 -5.64838 0
M  V30 2638 H 256.713 -0.0246623 -6.51795 0
M  V30 2639 N 260.146 1.09593 -1.13257 0
M  V30 2640 C 261.386 1.83349 -0.903472 0
M  V30 2641 C 261.75 1.83641 0.560351 0
M  V30 2642 O 262.951 2.53037 0.906947 0
M  V30 2643 C 261.222 3.25629 -1.47311 0
M  V30 2644 S 262.781 4.16408 -1.38382 0
M  V30 2645 H 259.599 0.632014 -0.325699 0
M  V30 2646 H 262.201 1.31817 -1.44376 0
M  V30 2647 H 260.905 3.22991 -2.53189 0
M  V30 2648 H 260.436 3.82233 -0.930689 0
M  V30 2649 H 262.451 4.94884 -0.361113 0
M  V30 2650 N 261.624 0.925811 1.2754 0
M  V30 2651 C 262.534 0.428993 2.30644 0
M  V30 2652 C 263.55 -0.489387 1.66976 0
M  V30 2653 O 264.726 -0.372653 1.97922 0
M  V30 2654 C 261.791 -0.311967 3.45294 0
M  V30 2655 C 260.852 0.641098 4.24486 0
M  V30 2656 C 260.085 -0.0645955 5.33661 0
M  V30 2657 O 260.308 -1.28429 5.55754 0
M  V30 2658 O 259.242 0.606265 5.98839 0
M  V30 2659 H 263.068 1.28504 2.75173 0
M  V30 2660 H 260.653 0.691086 1.32455 0
M  V30 2661 H 262.535 -0.729972 4.15029 0
M  V30 2662 H 261.21 -1.14365 3.02824 0
M  V30 2663 H 260.117 1.10874 3.57292 0
M  V30 2664 H 261.45 1.43995 4.70666 0
M  V30 2665 N 263.102 -1.41638 0.69111 0
M  V30 2666 C 264.33 -2.05628 0.22909 0
M  V30 2667 C 264.745 -1.51992 -1.11999 0
M  V30 2668 O 264.102 -0.666322 -1.69901 0
M  V30 2669 C 264.153 -3.61084 0.173283 0
M  V30 2670 O 263.874 -4.12735 1.46907 0
M  V30 2671 C 265.375 -4.42213 -0.310266 0
M  V30 2672 H 262.595 -0.662327 0.107534 0
M  V30 2673 H 265.139 -1.81489 0.942438 0
M  V30 2674 H 263.294 -3.84278 -0.490858 0
M  V30 2675 H 263.708 -5.06743 1.35322 0
M  V30 2676 H 265.182 -5.51194 -0.298196 0
M  V30 2677 H 265.659 -4.1799 -1.34838 0
M  V30 2678 H 266.265 -4.24074 0.322716 0
M  V30 2679 N 264.58 -0.43555 -1.51462 0
M  V30 2680 C 265.826 0.131709 -2.02372 0
M  V30 2681 C 266.159 1.42516 -1.3192 0
M  V30 2682 O 265.434 1.89606 -0.433573 0
M  V30 2683 C 265.717 0.352301 -3.58373 0
M  V30 2684 C 265.57 -0.959676 -4.39443 0
M  V30 2685 C 266.889 1.12286 -4.25535 0
M  V30 2686 H 264.008 0.0463936 -0.735538 0
M  V30 2687 H 266.65 -0.574197 -1.81116 0
M  V30 2688 H 264.8 0.9536 -3.76615 0
M  V30 2689 H 266.472 -1.59482 -4.32855 0
M  V30 2690 H 264.715 -1.56468 -4.04599 0
M  V30 2691 H 265.386 -0.759394 -5.46752 0
M  V30 2692 H 267.862 0.613545 -4.11552 0
M  V30 2693 H 266.738 1.24598 -5.34571 0
M  V30 2694 H 266.999 2.15048 -3.86273 0
M  V30 2695 N 266.058 1.56714 -0.166846 0
M  V30 2696 C 267.288 2.00828 0.48494 0
M  V30 2697 C 267.696 1.04612 1.57648 0
M  V30 2698 O 267.039 0.0383201 1.8366 0
M  V30 2699 C 267.101 3.4137 1.12723 0
M  V30 2700 C 266.765 4.56654 0.177886 0
M  V30 2701 C 267.762 5.16402 -0.60207 0
M  V30 2702 C 265.447 5.02244 0.0750139 0
M  V30 2703 C 267.441 6.20167 -1.47215 0
M  V30 2704 C 265.128 6.05859 -0.798649 0
M  V30 2705 C 266.126 6.64691 -1.57082 0
M  V30 2706 O 265.814 7.66297 -2.42989 0
M  V30 2707 H 265.546 0.663587 0.128953 0
M  V30 2708 H 268.1 2.03692 -0.264365 0
M  V30 2709 H 266.33 3.35406 1.92457 0
M  V30 2710 H 268.019 3.69466 1.68076 0
M  V30 2711 H 268.785 4.82065 -0.53274 0
M  V30 2712 H 264.664 4.56167 0.665812 0
M  V30 2713 H 268.208 6.66016 -2.07531 0
M  V30 2714 H 264.105 6.39621 -0.869199 0
M  V30 2715 H 264.873 7.83601 -2.36455 0
M  V30 2716 N 267.536 -0.106894 1.57237 0
M  V30 2717 C 268.484 -1.14944 2.02215 0
M  V30 2718 C 269.478 -1.42167 0.92114 0
M  V30 2719 O 270.684 -1.41987 1.10634 0
M  V30 2720 H 267.059 -0.387841 0.64427 0
M  V30 2721 H 269.03 -0.743683 2.88984 0
M  V30 2722 C 267.779 -2.4647 2.4525 0
M  V30 2723 H 267.102 -2.26363 3.29545 0
M  V30 2724 H 268.542 -3.17948 2.80508 0
M  V30 2725 C 267.001 -3.09921 1.321 0
M  V30 2726 O 267.531 -3.9651 0.643622 0
M  V30 2727 N 265.737 -2.69986 1.07497 0
M  V30 2728 H 265.284 -1.99667 1.62761 0
M  V30 2729 H 265.242 -3.12769 0.319876 0
M  V30 2730 N 269.014 -1.53014 -0.377408 0
M  V30 2731 C 270.262 -1.6829 -1.11906 0
M  V30 2732 C 270.583 -0.431206 -1.90173 0
M  V30 2733 O 269.853 0.554595 -1.87886 0
M  V30 2734 H 268.433 -0.620371 -0.416112 0
M  V30 2735 H 271.095 -1.90167 -0.426893 0
M  V30 2736 H 270.191 -2.53862 -1.8155 0
M  V30 2737 N 270.492 0.636531 -1.44174 0
M  V30 2738 C 271.402 1.77754 -1.53103 0
M  V30 2739 C 272.418 1.68928 -0.417034 0
M  V30 2740 O 273.594 1.89801 -0.6736 0
M  V30 2741 C 270.659 3.14115 -1.46741 0
M  V30 2742 C 269.72 3.34612 -2.68948 0
M  V30 2743 C 268.953 4.64467 -2.6288 0
M  V30 2744 O 269.176 5.44919 -1.68581 0
M  V30 2745 O 268.11 4.87049 -3.53648 0
M  V30 2746 H 271.936 1.73174 -2.49489 0
M  V30 2747 H 269.521 0.79709 -1.2636 0
M  V30 2748 H 271.403 3.95412 -1.45696 0
M  V30 2749 H 270.078 3.19249 -0.534975 0
M  V30 2750 H 268.985 2.53014 -2.75562 0
M  V30 2751 H 270.318 3.34336 -3.61221 0
M  V30 2752 N 271.97 1.30982 0.876444 0
M  V30 2753 C 273.216 1.21484 1.63136 0
M  V30 2754 C 273.571 -0.226339 1.91064 0
M  V30 2755 O 272.864 -1.15788 1.52656 0
M  V30 2756 C 273.058 1.98572 2.9716 0
M  V30 2757 C 272.887 3.50039 2.82317 0
M  V30 2758 C 271.657 4.19393 2.81847 0
M  V30 2759 C 273.855 4.45111 2.57644 0
M  V30 2760 N 271.837 5.57061 2.57985 0
M  V30 2761 C 273.208 5.70402 2.42986 0
M  V30 2762 C 275.263 4.3461 2.42937 0
M  V30 2763 C 273.966 6.8638 2.15115 0
M  V30 2764 C 275.992 5.50365 2.16454 0
M  V30 2765 C 275.354 6.74642 2.02578 0
M  V30 2766 H 271.453 0.499632 0.601575 0
M  V30 2767 H 274.037 1.65094 1.03209 0
M  V30 2768 H 272.208 1.5734 3.55104 0
M  V30 2769 H 273.94 1.81146 3.61895 0
M  V30 2770 H 270.695 3.71303 2.93991 0
M  V30 2771 H 271.119 6.29529 2.49043 0
M  V30 2772 H 275.761 3.39199 2.52396 0
M  V30 2773 H 273.479 7.81824 2.04394 0
M  V30 2774 H 277.065 5.44154 2.05884 0
M  V30 2775 H 275.945 7.62699 1.82374 0
M  V30 2776 N 273.449 -1.08991 1.13837 0
M  V30 2777 C 274.865 -1.33312 0.877506 0
M  V30 2778 C 275.065 -1.95587 -0.48456 0
M  V30 2779 O 274.121 -2.20509 -1.23013 0
M  V30 2780 C 275.434 -2.24045 2.0056 0
M  V30 2781 C 276.982 -2.37542 2.03821 0
M  V30 2782 C 277.457 -3.31614 3.15905 0
M  V30 2783 N 278.948 -3.39189 3.15445 0
M  V30 2784 C 279.683 -4.11992 3.98811 0
M  V30 2785 N 279.179 -4.87553 4.92203 0
M  V30 2786 N 280.972 -4.07762 3.86894 0
M  V30 2787 H 273.123 -0.669456 2.01574 0
M  V30 2788 H 275.386 -0.357482 0.878015 0
M  V30 2789 H 275.092 -1.85521 2.98789 0
M  V30 2790 H 274.966 -3.24466 1.92359 0
M  V30 2791 H 277.353 -2.75327 1.06202 0
M  V30 2792 H 277.434 -1.36884 2.16093 0
M  V30 2793 H 277.078 -2.94551 4.13766 0
M  V30 2794 H 277.008 -4.32186 3.0087 0
M  V30 2795 H 279.499 -2.85314 2.47799 0
M  V30 2796 H 279.812 -5.40549 5.52292 0
M  V30 2797 H 278.157 -4.86627 4.96205 0
M  V30 2798 H 281.348 -3.47833 3.13257 0
M  V30 2799 H 281.521 -4.64238 4.52092 0
M  V30 2800 N 274.927 -0.932562 -1.27047 0
M  V30 2801 C 275.837 -0.441219 -2.30414 0
M  V30 2802 C 276.853 0.480525 -1.67233 0
M  V30 2803 O 278.029 0.362151 -1.98117 0
M  V30 2804 C 275.094 0.293651 -3.45454 0
M  V30 2805 C 274.155 -0.663601 -4.2414 0
M  V30 2806 C 273.388 0.0362932 -5.33688 0
M  V30 2807 O 273.611 1.2548 -5.56427 0
M  V30 2808 O 272.545 -0.638015 -5.98509 0
M  V30 2809 H 276.371 -1.29962 -2.74488 0
M  V30 2810 H 273.956 -0.6981 -1.32087 0
M  V30 2811 H 275.838 0.707951 -4.15411 0
M  V30 2812 H 274.513 1.12758 -3.03426 0
M  V30 2813 H 273.42 -1.12768 -3.56699 0
M  V30 2814 H 274.753 -1.46489 -4.69896 0
M  V30 2815 N 276.405 1.4127 -0.698611 0
M  V30 2816 C 277.335 2.33447 -0.049629 0
M  V30 2817 C 278.316 1.51982 0.763898 0
M  V30 2818 O 279.501 1.80509 0.716257 0
M  V30 2819 C 276.631 3.35828 0.885267 0
M  V30 2820 C 275.585 4.27627 0.178613 0
M  V30 2821 C 274.911 5.20406 1.22807 0
M  V30 2822 C 276.211 5.13459 -0.956933 0
M  V30 2823 H 277.905 2.87966 -0.81951 0
M  V30 2824 H 275.451 1.38461 -0.395538 0
M  V30 2825 H 277.404 3.9924 1.34854 0
M  V30 2826 H 276.128 2.79666 1.68685 0
M  V30 2827 H 274.787 3.65643 -0.26466 0
M  V30 2828 H 274.435 4.60558 2.02226 0
M  V30 2829 H 274.135 5.82661 0.760239 0
M  V30 2830 H 275.659 5.86695 1.69179 0
M  V30 2831 H 277.073 5.70421 -0.573805 0
M  V30 2832 H 275.47 5.8467 -1.35205 0
M  V30 2833 H 276.54 4.50443 -1.79524 0
M  V30 2834 N 277.883 0.443576 1.51229 0
M  V30 2835 C 279.299 0.0962001 1.5931 0
M  V30 2836 C 279.499 -1.39501 1.45402 0
M  V30 2837 O 278.555 -2.16557 1.29843 0
M  V30 2838 C 279.868 0.621875 2.94199 0
M  V30 2839 C 281.416 0.582865 3.07525 0
M  V30 2840 C 281.891 1.08562 4.44948 0
M  V30 2841 N 283.382 1.04387 4.51284 0
M  V30 2842 C 284.117 1.40368 5.55954 0
M  V30 2843 N 283.613 1.83664 6.68011 0
M  V30 2844 N 285.406 1.32145 5.46346 0
M  V30 2845 H 277.557 1.41376 1.58514 0
M  V30 2846 H 279.82 0.582965 0.747567 0
M  V30 2847 H 279.526 1.66546 3.09767 0
M  V30 2848 H 279.4 0.0502125 3.77167 0
M  V30 2849 H 281.787 -0.451749 2.91622 0
M  V30 2850 H 281.868 1.191 2.26382 0
M  V30 2851 H 281.512 2.11873 4.61598 0
M  V30 2852 H 281.442 0.453956 5.2464 0
M  V30 2853 H 283.933 0.725986 3.70861 0
M  V30 2854 H 284.246 2.0934 7.43906 0
M  V30 2855 H 282.591 1.87596 6.69203 0
M  V30 2856 H 285.782 0.981808 4.57688 0
M  V30 2857 H 285.955 1.60514 6.27805 0
M  V30 2858 N 279.361 -1.56624 0.175154 0
M  V30 2859 C 280.591 -2.01082 -0.474283 0
M  V30 2860 C 280.999 -1.05447 -1.57091 0
M  V30 2861 O 280.342 -0.0480595 -1.83637 0
M  V30 2862 C 280.404 -3.41963 -1.10911 0
M  V30 2863 C 280.068 -4.56742 -0.153666 0
M  V30 2864 C 281.065 -5.16076 0.629448 0
M  V30 2865 C 278.75 -5.02277 -0.0483776 0
M  V30 2866 C 280.744 -6.19377 1.50501 0
M  V30 2867 C 278.431 -6.05427 0.830768 0
M  V30 2868 C 279.429 -6.63849 1.60605 0
M  V30 2869 O 279.117 -7.64998 2.47049 0
M  V30 2870 H 278.849 -0.664261 -0.125432 0
M  V30 2871 H 281.403 -2.03549 0.275163 0
M  V30 2872 H 279.633 -3.36422 -1.90676 0
M  V30 2873 H 281.322 -3.70352 -1.66114 0
M  V30 2874 H 282.088 -4.81776 0.558297 0
M  V30 2875 H 277.967 -4.56513 -0.641611 0
M  V30 2876 H 281.511 -6.64906 2.1106 0
M  V30 2877 H 277.408 -6.39151 0.903107 0
M  V30 2878 H 278.176 -7.82336 2.40607 0
M  V30 2879 N 280.839 0.0985539 -1.57292 0
M  V30 2880 C 282.116 0.834155 -1.76921 0
M  V30 2881 C 282.496 1.97101 -0.755928 0
M  V30 2882 O 281.844 2.27474 0.216245 0
M  V30 2883 C 282.054 1.33194 -3.22584 0
M  V30 2884 C 283.402 1.77611 -3.85668 0
M  V30 2885 O 284.426 1.42825 -3.26312 0
M  V30 2886 O 283.285 2.4192 -4.90038 0
M  V30 2887 H 280.379 0.397628 -0.725135 0
M  V30 2888 H 282.925 0.0807044 -1.69508 0
M  V30 2889 H 281.697 0.517248 -3.87866 0
M  V30 2890 H 281.32 2.1475 -3.34616 0
M  V30 2891 N 282.317 1.53212 0.369288 0
M  V30 2892 C 283.542 1.73423 1.1375 0
M  V30 2893 C 283.967 0.460404 1.82378 0
M  V30 2894 O 283.325 -0.585298 1.71592 0
M  V30 2895 C 283.373 2.89769 2.1463 0
M  V30 2896 O 282.477 2.58119 3.21634 0
M  V30 2897 H 281.818 0.576061 0.330227 0
M  V30 2898 H 284.348 2.00083 0.427547 0
M  V30 2899 H 284.358 3.15829 2.58294 0
M  V30 2900 H 283.033 3.8217 1.64071 0
M  V30 2901 H 281.61 2.42864 2.82969 0
M  V30 2902 N 283.795 -0.628877 1.44509 0
M  V30 2903 C 285.023 -1.41554 1.50897 0
M  V30 2904 C 285.438 -1.8832 0.134564 0
M  V30 2905 O 284.795 -1.60969 -0.859965 0
M  V30 2906 C 284.846 -2.63435 2.47556 0
M  V30 2907 O 284.567 -2.18619 3.79654 0
M  V30 2908 C 286.068 -3.56537 2.63431 0
M  V30 2909 H 283.288 -0.434044 0.511709 0
M  V30 2910 H 285.832 -0.768895 1.89495 0
M  V30 2911 H 283.987 -3.24187 2.12089 0
M  V30 2912 H 284.401 -2.97652 4.31861 0
M  V30 2913 H 285.875 -4.38657 3.35088 0
M  V30 2914 H 286.352 -4.05493 1.68738 0
M  V30 2915 H 286.958 -3.01653 2.9981 0
M  V30 2916 N 285.273 -1.31445 -0.869486 0
M  V30 2917 C 286.513 -1.22458 -1.63656 0
M  V30 2918 C 286.877 0.213846 -1.90805 0
M  V30 2919 O 288.078 0.427212 -2.65383 0
M  V30 2920 C 286.349 -2.04564 -2.93067 0
M  V30 2921 S 287.908 -2.12445 -3.83944 0
M  V30 2922 H 284.726 -0.436145 -0.561514 0
M  V30 2923 H 287.328 -1.66114 -1.03085 0
M  V30 2924 H 286.032 -3.0816 -2.71045 0
M  V30 2925 H 285.563 -1.6163 -3.58663 0
M  V30 2926 H 287.578 -1.26312 -4.79854 0
M  V30 2927 N 286.751 1.08385 -1.14413 0
M  V30 2928 C 287.661 2.18856 -0.844951 0
M  V30 2929 C 288.677 1.73121 0.174668 0
M  V30 2930 O 289.853 2.014 0.00312857 0
M  V30 2931 C 286.918 3.45155 -0.32696 0
M  V30 2932 C 285.979 4.05513 -1.40916 0
M  V30 2933 C 285.212 5.25784 -0.915793 0
M  V30 2934 O 285.435 5.69884 0.242651 0
M  V30 2935 O 284.369 5.77545 -1.69487 0
M  V30 2936 H 288.195 2.46919 -1.76818 0
M  V30 2937 H 285.78 1.17524 -0.922411 0
M  V30 2938 H 287.662 4.21377 -0.0440211 0
M  V30 2939 H 286.337 3.18668 0.568539 0
M  V30 2940 H 285.244 3.30879 -1.74556 0
M  V30 2941 H 286.577 4.3625 -2.27919 0
M  V30 2942 N 288.23 0.939286 1.26551 0
M  V30 2943 C 289.646 0.641304 1.46149 0
M  V30 2944 C 289.846 -0.805964 1.84679 0
M  V30 2945 O 288.902 -1.58278 1.96734 0
M  V30 2946 C 290.215 1.6011 2.54529 0
M  V30 2947 C 291.763 1.6106 2.68382 0
M  V30 2948 C 292.238 2.55765 3.79932 0
M  V30 2949 N 293.729 2.5404 3.87322 0
M  V30 2950 C 294.464 3.24004 4.73085 0
M  V30 2951 N 293.96 4.03388 5.63249 0
M  V30 2952 N 295.753 3.12965 4.66914 0
M  V30 2953 H 287.904 1.87478 0.998285 0
M  V30 2954 H 290.167 0.805559 0.499779 0
M  V30 2955 H 289.873 2.63412 2.33039 0
M  V30 2956 H 289.747 1.35171 3.52149 0
M  V30 2957 H 292.134 0.584835 2.89247 0
M  V30 2958 H 292.215 1.90053 1.71212 0
M  V30 2959 H 291.859 3.58458 3.5982 0
M  V30 2960 H 291.789 2.24063 4.76554 0
M  V30 2961 H 294.28 1.96396 3.22858 0
M  V30 2962 H 294.593 4.5373 6.25579 0
M  V30 2963 H 292.938 4.07489 5.63008 0
M  V30 2964 H 296.129 2.50432 3.95476 0
M  V30 2965 H 296.302 3.67759 5.33533 0
M  V30 2966 N 289.708 -1.40897 0.706093 0
M  V30 2967 C 290.638 -2.33418 0.0620085 0
M  V30 2968 C 291.619 -1.52385 -0.755827 0
M  V30 2969 O 292.804 -1.80886 -0.706674 0
M  V30 2970 C 289.934 -3.36293 -0.867445 0
M  V30 2971 C 288.888 -4.27716 -0.155932 0
M  V30 2972 C 288.214 -5.2105 -1.20046 0
M  V30 2973 C 289.514 -5.12944 0.984149 0
M  V30 2974 H 291.208 -2.87527 0.83477 0
M  V30 2975 H 288.754 -1.38249 0.402875 0
M  V30 2976 H 290.707 -3.99949 -1.32735 0
M  V30 2977 H 289.431 -2.80556 -1.67199 0
M  V30 2978 H 288.09 -3.65498 0.284047 0
M  V30 2979 H 287.738 -4.61624 -1.99781 0
M  V30 2980 H 287.438 -5.83056 -0.729328 0
M  V30 2981 H 288.962 -5.87584 -1.66066 0
M  V30 2982 H 290.376 -5.70109 0.604048 0
M  V30 2983 H 288.773 -5.83945 1.38304 0
M  V30 2984 H 289.843 -4.49485 1.81911 0
M  V30 2985 N 291.186 -0.45159 -1.50991 0
M  V30 2986 C 292.416 0.108177 -2.06317 0
M  V30 2987 C 292.824 1.35774 -1.31765 0
M  V30 2988 O 292.167 1.79838 -0.374694 0
M  V30 2989 C 292.229 0.481659 -3.56259 0
M  V30 2990 C 291.893 -0.663114 -4.52163 0
M  V30 2991 C 292.89 -1.53947 -4.96585 0
M  V30 2992 C 290.575 -0.8479 -4.95092 0
M  V30 2993 C 292.569 -2.58518 -5.82621 0
M  V30 2994 C 290.256 -1.89686 -5.80915 0
M  V30 2995 C 291.254 -2.76388 -6.24579 0
M  V30 2996 O 290.942 -3.79482 -7.08695 0
M  V30 2997 H 290.674 0.00499183 -0.675982 0
M  V30 2998 H 293.228 -0.633659 -1.95381 0
M  V30 2999 H 291.458 1.27641 -3.65027 0
M  V30 3000 H 293.147 0.974233 -3.94035 0
M  V30 3001 H 293.913 -1.4083 -4.64103 0
M  V30 3002 H 289.792 -0.18258 -4.60638 0
M  V30 3003 H 293.336 -3.26224 -6.16623 0
M  V30 3004 H 289.233 -2.02817 -6.12809 0
M  V30 3005 H 290.001 -3.76234 -7.26905 0
M  V30 3006 N 292.664 1.56529 -0.183458 0
M  V30 3007 C 293.894 2.01331 0.463612 0
M  V30 3008 C 294.302 1.06278 1.5653 0
M  V30 3009 O 293.645 0.0577976 1.83609 0
M  V30 3010 C 293.707 3.42547 1.09096 0
M  V30 3011 C 293.371 4.56817 0.129442 0
M  V30 3012 C 294.368 5.15734 -0.656807 0
M  V30 3013 C 292.053 5.02295 0.02174 0
M  V30 3014 C 294.047 6.1857 -1.53784 0
M  V30 3015 C 291.734 6.04978 -0.862864 0
M  V30 3016 C 292.732 6.62988 -1.64123 0
M  V30 3017 O 292.42 7.63677 -2.51103 0
M  V30 3018 H 292.152 0.664917 0.121907 0
M  V30 3019 H 294.706 2.034 -0.285954 0
M  V30 3020 H 292.936 3.37428 1.88889 0
M  V30 3021 H 294.625 3.71228 1.64148 0
M  V30 3022 H 295.391 4.81473 -0.583839 0
M  V30 3023 H 291.27 4.56847 0.617392 0
M  V30 3024 H 294.814 6.63777 -2.14583 0
M  V30 3025 H 290.711 6.38663 -0.93699 0
M  V30 3026 H 291.479 7.81049 -2.44753 0
M  V30 3027 N 294.142 -0.090211 1.57342 0
M  V30 3028 C 295.39 -0.791241 1.85967 0
M  V30 3029 C 295.711 -1.7903 0.772859 0
M  V30 3030 O 294.981 -1.94872 -0.200398 0
M  V30 3031 H 293.561 -0.295205 0.686195 0
M  V30 3032 H 296.223 -0.0706782 1.94772 0
M  V30 3033 H 295.319 -1.31882 2.82867 0
M  V30 3034 N 295.62 -1.53406 -0.361157 0
M  V30 3035 C 296.897 -1.60411 -1.11927 0
M  V30 3036 C 297.277 -0.414385 -2.06993 0
M  V30 3037 O 296.625 0.594976 -2.20618 0
M  V30 3038 C 296.835 -2.95652 -1.85448 0
M  V30 3039 C 298.183 -3.50386 -2.39823 0
M  V30 3040 O 299.207 -2.97711 -1.95568 0
M  V30 3041 O 298.066 -4.42482 -3.20737 0
M  V30 3042 H 295.16 -0.64811 -0.513695 0
M  V30 3043 H 297.706 -1.65749 -0.364065 0
M  V30 3044 H 296.478 -3.73682 -1.16091 0
M  V30 3045 H 296.101 -2.93825 -2.67866 0
M  V30 3046 N 297.098 0.621204 -1.44841 0
M  V30 3047 C 298.375 1.38 -1.38619 0
M  V30 3048 C 298.755 2.11041 -0.0498935 0
M  V30 3049 O 298.103 2.06992 0.967816 0
M  V30 3050 C 298.313 2.33817 -2.59096 0
M  V30 3051 C 299.661 2.96844 -3.03593 0
M  V30 3052 O 300.685 2.44141 -2.59371 0
M  V30 3053 O 299.544 3.92476 -3.80296 0
M  V30 3054 H 296.638 0.61811 -0.549426 0
M  V30 3055 H 299.184 0.645429 -1.56947 0
M  V30 3056 H 297.956 1.79012 -3.47952 0
M  V30 3057 H 297.579 3.14676 -2.43032 0
M  V30 3058 N 298.576 1.31904 0.862503 0
M  V30 3059 C 299.486 1.22161 2.00285 0
M  V30 3060 C 300.502 0.136785 1.73462 0
M  V30 3061 O 301.678 0.355994 1.98229 0
M  V30 3062 C 298.743 0.937093 3.33796 0
M  V30 3063 C 297.804 2.10957 3.73893 0
M  V30 3064 C 297.037 1.83853 5.01033 0
M  V30 3065 O 297.26 0.777274 5.65079 0
M  V30 3066 O 296.194 2.69741 5.38074 0
M  V30 3067 H 300.02 2.18008 2.11439 0
M  V30 3068 H 297.605 1.11716 0.991957 0
M  V30 3069 H 299.487 0.794583 4.13841 0
M  V30 3070 H 298.162 0.00871894 3.23699 0
M  V30 3071 H 297.069 2.30752 2.94456 0
M  V30 3072 H 298.402 3.02046 3.88625 0
M  V30 3073 N 300.054 -1.07777 1.14986 0
M  V30 3074 C 301.001 -2.14867 0.842672 0
M  V30 3075 C 301.971 -1.6486 -0.202552 0
M  V30 3076 O 303.156 -1.90668 -0.0710568 0
M  V30 3077 C 300.296 -3.43486 0.333363 0
M  V30 3078 C 299.409 -4.07306 1.43965 0
M  V30 3079 C 298.544 -5.23744 0.886914 0
M  V30 3080 C 297.583 -5.79517 1.97043 0
M  V30 3081 N 296.72 -6.87291 1.4344 0
M  V30 3082 H 301.56 -2.40485 1.75986 0
M  V30 3083 H 299.097 -1.1801 0.878179 0
M  V30 3084 H 301.055 -4.17195 0.0198163 0
M  V30 3085 H 299.685 -3.18133 -0.546916 0
M  V30 3086 H 298.737 -3.31293 1.86946 0
M  V30 3087 H 300.049 -4.44771 2.25788 0
M  V30 3088 H 299.203 -6.04419 0.525651 0
M  V30 3089 H 297.942 -4.87685 0.0377957 0
M  V30 3090 H 296.947 -4.97491 2.34057 0
M  V30 3091 H 298.172 -6.17632 2.82325 0
M  V30 3092 H 296.118 -6.5318 0.607567 0
M  V30 3093 H 296.035 -7.23617 2.18895 0
M  V30 3094 H 297.303 -7.71682 1.10124 0
M  V30 3095 N 301.532 -0.945985 -1.26051 0
M  V30 3096 C 302.762 -0.612136 -1.97323 0
M  V30 3097 C 303.17 0.818171 -1.70595 0
M  V30 3098 O 302.513 1.55777 -0.973613 0
M  V30 3099 C 302.575 -0.780347 -3.50929 0
M  V30 3100 C 302.239 -2.18619 -4.01317 0
M  V30 3101 C 303.236 -3.16209 -4.12683 0
M  V30 3102 C 300.921 -2.50805 -4.35203 0
M  V30 3103 C 302.915 -4.44085 -4.57238 0
M  V30 3104 C 300.602 -3.78912 -4.79446 0
M  V30 3105 C 301.6 -4.75365 -4.90425 0
M  V30 3106 O 301.288 -6.01191 -5.3369 0
M  V30 3107 H 301.02 -0.229134 -0.635982 0
M  V30 3108 H 303.574 -1.27036 -1.61404 0
M  V30 3109 H 301.804 -0.0649864 -3.86645 0
M  V30 3110 H 303.493 -0.448842 -4.03411 0
M  V30 3111 H 304.259 -2.92668 -3.86744 0
M  V30 3112 H 300.138 -1.76463 -4.2589 0
M  V30 3113 H 303.682 -5.19373 -4.65723 0
M  V30 3114 H 299.579 -4.02265 -5.0483 0
M  V30 3115 H 300.347 -6.04442 -5.51899 0
M  V30 3116 N 303.011 1.40521 -0.713556 0
M  V30 3117 C 304.258 2.00923 -0.25219 0
M  V30 3118 C 304.586 1.56571 1.15395 0
M  V30 3119 O 303.841 0.775874 1.79663 0
M  V30 3120 C 304.14 3.56317 -0.278 0
M  V30 3121 C 303.806 4.20246 -1.63415 0
M  V30 3122 C 302.468 4.37422 -2.00538 0
M  V30 3123 C 304.82 4.55923 -2.52554 0
M  V30 3124 C 302.148 4.87558 -3.2635 0
M  V30 3125 C 304.5 5.07458 -3.77716 0
M  V30 3126 C 303.164 5.22843 -4.14959 0
M  V30 3127 H 302.434 0.735231 -0.0922829 0
M  V30 3128 H 305.081 1.68161 -0.916188 0
M  V30 3129 H 303.386 3.88976 0.469567 0
M  V30 3130 H 305.083 4.00883 0.0967819 0
M  V30 3131 H 301.673 4.07263 -1.33546 0
M  V30 3132 H 305.857 4.42291 -2.25149 0
M  V30 3133 H 301.113 4.97654 -3.55176 0
M  V30 3134 H 305.287 5.34041 -4.4696 0
M  V30 3135 H 302.914 5.61454 -5.12516 0
M  V30 3136 N 304.489 0.459591 1.5075 0
M  V30 3137 C 305.905 0.113092 1.59199 0
M  V30 3138 C 306.105 -1.37951 1.46874 0
M  V30 3139 O 305.161 -2.15168 1.32132 0
M  V30 3140 C 306.474 0.653043 2.93523 0
M  V30 3141 C 308.022 0.615449 3.0689 0
M  V30 3142 C 308.497 1.13275 4.43771 0
M  V30 3143 N 309.988 1.09167 4.50152 0
M  V30 3144 C 310.723 1.46256 5.54434 0
M  V30 3145 N 310.219 1.90739 6.66026 0
M  V30 3146 N 312.012 1.37932 5.44914 0
M  V30 3147 H 304.163 1.43049 1.57005 0
M  V30 3148 H 306.426 0.590861 0.741341 0
M  V30 3149 H 306.132 1.69822 3.07983 0
M  V30 3150 H 306.006 0.0902132 3.77092 0
M  V30 3151 H 308.393 -0.420793 2.92084 0
M  V30 3152 H 308.474 1.21495 2.25106 0
M  V30 3153 H 308.118 2.16757 4.59324 0
M  V30 3154 H 308.048 0.509576 5.24129 0
M  V30 3155 H 310.539 0.76528 3.7007 0
M  V30 3156 H 310.852 2.17218 7.41644 0
M  V30 3157 H 309.197 1.94683 6.67176 0
M  V30 3158 H 312.388 1.0303 4.56621 0
M  V30 3159 H 312.561 1.67164 6.26067 0
M  V30 3160 N 305.967 -1.56429 0.191757 0
M  V30 3161 C 306.914 -2.18936 -0.730454 0
M  V30 3162 C 307.884 -1.13557 -1.21219 0
M  V30 3163 O 309.069 -1.41794 -1.27668 0
M  V30 3164 C 306.209 -2.85013 -1.9458 0
M  V30 3165 C 305.322 -4.04909 -1.50574 0
M  V30 3166 C 304.457 -4.58853 -2.67634 0
M  V30 3167 C 303.496 -5.71114 -2.20217 0
M  V30 3168 N 302.633 -6.19478 -3.30442 0
M  V30 3169 H 307.473 -2.97389 -0.190664 0
M  V30 3170 H 305.01 -1.46869 -0.0823694 0
M  V30 3171 H 306.968 -3.21492 -2.65893 0
M  V30 3172 H 305.598 -2.09129 -2.45896 0
M  V30 3173 H 304.65 -3.74115 -0.688605 0
M  V30 3174 H 305.962 -4.86113 -1.11784 0
M  V30 3175 H 305.116 -4.97619 -3.47074 0
M  V30 3176 H 303.855 -3.76749 -3.09696 0
M  V30 3177 H 302.86 -5.31879 -1.3923 0
M  V30 3178 H 304.085 -6.55033 -1.79189 0
M  V30 3179 H 302.031 -5.40297 -3.72041 0
M  V30 3180 H 301.948 -6.95725 -2.9581 0
M  V30 3181 H 303.216 -6.62898 -4.10106 0
M  V30 3182 N 307.445 0.0818655 -1.57387 0
M  V30 3183 C 308.856 0.634871 -1.75574 0
M  V30 3184 C 309.207 1.78435 -0.815809 0
M  V30 3185 O 308.332 2.164 0.0025366 0
M  V30 3186 C 308.927 1.15845 -3.18379 0
M  V30 3187 C 307.486 1.65741 -3.37945 0
M  V30 3188 C 306.633 0.572549 -2.71325 0
M  V30 3189 H 309.584 -0.144268 -1.58043 0
M  V30 3190 H 309.605 2.02751 -3.21982 0
M  V30 3191 H 309.117 0.321631 -3.86765 0
M  V30 3192 H 307.218 2.51781 -2.74658 0
M  V30 3193 H 307.331 1.74129 -4.46336 0
M  V30 3194 H 305.695 1.01518 -2.33594 0
M  V30 3195 H 306.478 -0.253918 -3.4236 0
M  V30 3196 N 308.923 1.53595 0.353017 0
M  V30 3197 C 310.153 1.74058 1.11299 0
M  V30 3198 C 310.561 0.475205 1.83135 0
M  V30 3199 O 309.904 -0.562344 1.74881 0
M  V30 3200 C 309.966 2.85994 2.17825 0
M  V30 3201 C 309.63 4.25923 1.65647 0
M  V30 3202 C 310.627 5.07829 1.11383 0
M  V30 3203 C 308.312 4.72377 1.7078 0
M  V30 3204 C 310.306 6.34285 0.629439 0
M  V30 3205 C 307.993 5.98808 1.21953 0
M  V30 3206 C 308.991 6.79594 0.681265 0
M  V30 3207 O 308.679 8.03651 0.200248 0
M  V30 3208 H 308.411 0.585327 0.338183 0
M  V30 3209 H 310.965 2.01186 0.413927 0
M  V30 3210 H 309.195 2.54368 2.91262 0
M  V30 3211 H 310.884 2.94515 2.79313 0
M  V30 3212 H 311.65 4.73107 1.06746 0
M  V30 3213 H 307.529 4.0956 2.11617 0
M  V30 3214 H 311.073 6.97288 0.208636 0
M  V30 3215 H 306.97 6.33026 1.26287 0
M  V30 3216 H 307.738 8.1788 0.318416 0
M  V30 3217 N 310.401 -0.613514 1.45168 0
M  V30 3218 C 311.349 -1.74572 1.53712 0
M  V30 3219 C 312.343 -1.64426 0.407505 0
M  V30 3220 O 313.549 -1.70291 0.583176 0
M  V30 3221 H 309.924 -0.576641 0.48269 0
M  V30 3222 H 311.895 -1.64492 2.48968 0
M  V30 3223 C 310.644 -3.12943 1.51532 0
M  V30 3224 H 309.967 -3.21407 2.37776 0
M  V30 3225 H 311.407 -3.9201 1.61569 0
M  V30 3226 C 309.866 -3.36053 0.238798 0
M  V30 3227 O 310.396 -3.95837 -0.6838 0
M  V30 3228 N 308.602 -2.9028 0.136359 0
M  V30 3229 H 308.149 -2.41811 0.887999 0
M  V30 3230 H 308.107 -3.06116 -0.716944 0
M  V30 3231 N 311.879 -1.3236 -0.855495 0
M  V30 3232 C 313.126 -1.22872 -1.60962 0
M  V30 3233 C 313.454 0.209658 -1.93367 0
M  V30 3234 O 312.709 1.16243 -1.57436 0
M  V30 3235 C 313.008 -2.03275 -2.93963 0
M  V30 3236 C 312.674 -3.5264 -2.80991 0
M  V30 3237 C 311.336 -3.93364 -2.7716 0
M  V30 3238 C 313.688 -4.47626 -2.66983 0
M  V30 3239 C 311.016 -5.27319 -2.572 0
M  V30 3240 C 313.368 -5.81723 -2.48558 0
M  V30 3241 C 312.032 -6.2165 -2.4312 0
M  V30 3242 H 311.302 -0.44962 -0.589001 0
M  V30 3243 H 313.949 -1.63777 -0.992442 0
M  V30 3244 H 312.254 -1.55095 -3.59795 0
M  V30 3245 H 313.951 -1.93303 -3.51333 0
M  V30 3246 H 310.541 -3.20295 -2.84797 0
M  V30 3247 H 314.725 -4.17084 -2.68988 0
M  V30 3248 H 309.981 -5.57311 -2.51424 0
M  V30 3249 H 314.155 -6.5494 -2.36699 0
M  V30 3250 H 311.782 -7.25388 -2.27412 0
M  V30 3251 N 313.357 1.07166 -1.15556 0
M  V30 3252 C 314.287 2.16403 -0.877046 0
M  V30 3253 C 315.268 1.69217 0.173111 0
M  V30 3254 O 316.453 1.94181 0.027084 0
M  V30 3255 C 313.583 3.45349 -0.367632 0
M  V30 3256 C 312.537 4.05995 -1.35468 0
M  V30 3257 C 311.863 5.30045 -0.704038 0
M  V30 3258 C 313.163 4.45804 -2.72132 0
M  V30 3259 H 314.857 2.39959 -1.79053 0
M  V30 3260 H 312.403 1.15325 -0.862331 0
M  V30 3261 H 314.356 4.21095 -0.160317 0
M  V30 3262 H 313.08 3.21385 0.581326 0
M  V30 3263 H 311.739 3.32296 -1.54839 0
M  V30 3264 H 311.387 5.02373 0.251128 0
M  V30 3265 H 311.087 5.71579 -1.36277 0
M  V30 3266 H 312.611 6.08495 -0.50654 0
M  V30 3267 H 314.025 5.12671 -2.56595 0
M  V30 3268 H 312.422 4.98296 -3.34397 0
M  V30 3269 H 313.492 3.57083 -3.28054 0
M  V30 3270 N 314.835 0.952656 1.25548 0
M  V30 3271 C 315.782 0.47008 2.25962 0
M  V30 3272 C 316.752 -0.476384 1.59122 0
M  V30 3273 O 317.937 -0.39007 1.8677 0
M  V30 3274 C 315.077 -0.247881 3.44209 0
M  V30 3275 C 314.19 0.735591 4.25691 0
M  V30 3276 C 313.325 -0.0047306 5.312 0
M  V30 3277 C 312.364 0.969805 6.04368 0
M  V30 3278 N 311.501 0.260486 7.01617 0
M  V30 3279 H 316.341 1.33126 2.66611 0
M  V30 3280 H 313.878 0.66765 1.31076 0
M  V30 3281 H 315.836 -0.680695 4.1161 0
M  V30 3282 H 314.466 -1.07312 3.0444 0
M  V30 3283 H 313.518 1.28689 3.57971 0
M  V30 3284 H 314.83 1.47934 4.76358 0
M  V30 3285 H 313.984 -0.496275 6.04667 0
M  V30 3286 H 312.723 -0.781282 4.81401 0
M  V30 3287 H 311.728 1.47237 5.29718 0
M  V30 3288 H 312.953 1.74655 6.56256 0
M  V30 3289 H 310.899 -0.497364 6.54112 0
M  V30 3290 H 310.816 0.943362 7.50091 0
M  V30 3291 H 312.084 -0.209587 7.79218 0
M  V30 3292 N 316.313 -1.40141 0.720998 0
M  V30 3293 C 317.543 -2.04798 0.27226 0
M  V30 3294 C 317.951 -1.54442 -1.09289 0
M  V30 3295 O 317.294 -0.698342 -1.69908 0
M  V30 3296 C 317.356 -3.59048 0.18027 0
M  V30 3297 C 317.02 -4.32317 1.48159 0
M  V30 3298 C 318.017 -4.59902 2.42458 0
M  V30 3299 C 315.702 -4.71125 1.74202 0
M  V30 3300 C 317.696 -5.25288 3.61042 0
M  V30 3301 C 315.383 -5.36242 2.93066 0
M  V30 3302 C 316.381 -5.63254 3.86308 0
M  V30 3303 O 316.069 -6.27024 5.03086 0
M  V30 3304 H 315.801 -0.665419 0.119139 0
M  V30 3305 H 318.355 -1.80436 0.981432 0
M  V30 3306 H 316.585 -3.82251 -0.58489 0
M  V30 3307 H 318.274 -4.05221 -0.234618 0
M  V30 3308 H 319.04 -4.30379 2.23604 0
M  V30 3309 H 314.919 -4.49466 1.02477 0
M  V30 3310 H 318.463 -5.46289 4.33837 0
M  V30 3311 H 314.36 -5.65185 3.11826 0
M  V30 3312 H 315.128 -6.4552 5.03235 0
M  V30 3313 N 317.792 -0.46758 -1.50504 0
M  V30 3314 C 318.742 0.34698 -2.25344 0
M  V30 3315 C 319.726 0.964469 -1.2879 0
M  V30 3316 O 320.918 0.8776 -1.53711 0
M  V30 3317 C 318.047 1.43042 -3.1208 0
M  V30 3318 C 317.133 0.82084 -4.16081 0
M  V30 3319 N 317.524 -0.0567602 -5.05768 0
M  V30 3320 C 315.822 1.08517 -4.32597 0
M  V30 3321 C 316.523 -0.402343 -5.80307 0
M  V30 3322 N 315.499 0.221607 -5.43148 0
M  V30 3323 H 319.301 -0.329129 -2.92051 0
M  V30 3324 H 316.815 -0.281508 -1.59942 0
M  V30 3325 H 318.812 2.02712 -3.64299 0
M  V30 3326 H 317.472 2.10856 -2.46921 0
M  V30 3327 H 318.483 -0.425349 -5.1615 0
M  V30 3328 H 315.16 1.75855 -3.78657 0
M  V30 3329 H 316.55 -1.11834 -6.62528 0
M  V30 3330 N 319.27 1.56325 -0.20005 0
M  V30 3331 C 320.517 1.97719 0.437411 0
M  V30 3332 C 320.845 1.08709 1.61284 0
M  V30 3333 O 320.1 0.127261 1.95286 0
M  V30 3334 C 320.399 3.4495 0.935103 0
M  V30 3335 C 320.065 4.5072 -0.12749 0
M  V30 3336 C 318.727 4.79368 -0.419451 0
M  V30 3337 C 321.079 5.14268 -0.847231 0
M  V30 3338 C 318.407 5.68854 -1.43604 0
M  V30 3339 C 320.759 6.04852 -1.85301 0
M  V30 3340 C 319.423 6.31855 -2.15211 0
M  V30 3341 H 318.693 0.723507 0.16006 0
M  V30 3342 H 321.34 1.89166 -0.298056 0
M  V30 3343 H 319.645 3.50599 1.74894 0
M  V30 3344 H 321.342 3.74337 1.43781 0
M  V30 3345 H 317.932 4.28458 0.11023 0
M  V30 3346 H 322.116 4.92222 -0.634901 0
M  V30 3347 H 317.372 5.88047 -1.67364 0
M  V30 3348 H 321.546 6.53152 -2.41591 0
M  V30 3349 H 319.173 7.00994 -2.94129 0
M  V30 3350 N 320.748 -0.0735177 1.57428 0
M  V30 3351 C 321.658 -1.10547 2.06922 0
M  V30 3352 C 322.674 -1.42506 0.998402 0
M  V30 3353 O 323.85 -1.52717 1.31299 0
M  V30 3354 C 320.915 -2.40019 2.50184 0
M  V30 3355 C 319.976 -2.15046 3.71556 0
M  V30 3356 C 319.209 -3.38345 4.12745 0
M  V30 3357 O 319.432 -4.47399 3.53822 0
M  V30 3358 O 318.366 -3.2666 5.05546 0
M  V30 3359 H 322.192 -0.715013 2.95163 0
M  V30 3360 H 319.777 -0.287531 1.46607 0
M  V30 3361 H 321.659 -3.16218 2.78539 0
M  V30 3362 H 320.334 -2.78447 1.65072 0
M  V30 3363 H 319.241 -1.36558 3.48285 0
M  V30 3364 H 320.574 -1.81499 4.57514 0
M  V30 3365 N 322.226 -1.5378 -0.344866 0
M  V30 3366 C 323.189 -1.80981 -1.40637 0
M  V30 3367 C 324.189 -0.680816 -1.45676 0
M  V30 3368 O 325.379 -0.949095 -1.46075 0
M  V30 3369 C 322.511 -1.95063 -2.79577 0
M  V30 3370 H 323.704 -2.75803 -1.17783 0
M  V30 3371 H 321.257 -1.45173 -0.579181 0
M  V30 3372 H 321.992 -1.02379 -3.07716 0
M  V30 3373 H 321.777 -2.77198 -2.77315 0
M  V30 3374 H 323.267 -2.17629 -3.56409 0
M  V30 3375 N 323.704 0.605807 -1.45491 0
M  V30 3376 C 324.634 1.72709 -1.57143 0
M  V30 3377 C 325.615 1.6476 -0.422884 0
M  V30 3378 O 326.8 1.83132 -0.646247 0
M  V30 3379 C 323.93 3.11316 -1.53948 0
M  V30 3380 C 322.884 3.34077 -2.67537 0
M  V30 3381 C 322.21 4.72975 -2.49397 0
M  V30 3382 C 323.51 3.24158 -4.09535 0
M  V30 3383 H 325.204 1.63214 -2.51001 0
M  V30 3384 H 322.75 0.78379 -1.208 0
M  V30 3385 H 324.703 3.89557 -1.60696 0
M  V30 3386 H 323.427 3.21655 -0.566205 0
M  V30 3387 H 322.086 2.58227 -2.6022 0
M  V30 3388 H 321.734 4.8005 -1.50205 0
M  V30 3389 H 321.434 4.8916 -3.25571 0
M  V30 3390 H 322.958 5.53414 -2.58002 0
M  V30 3391 H 324.372 3.92271 -4.18086 0
M  V30 3392 H 322.769 3.51872 -4.86113 0
M  V30 3393 H 323.839 2.2157 -4.31317 0
M  V30 3394 N 325.182 1.32811 0.848464 0
M  V30 3395 C 326.145 1.22194 1.9391 0
M  V30 3396 C 327.145 0.143404 1.60159 0
M  V30 3397 O 328.335 0.394253 1.6968 0
M  V30 3398 C 325.467 0.88067 3.29328 0
M  V30 3399 H 326.66 2.19127 2.04752 0
M  V30 3400 H 324.213 1.16731 1.0394 0
M  V30 3401 H 324.948 -0.0865776 3.24184 0
M  V30 3402 H 324.733 1.66052 3.55203 0
M  V30 3403 H 326.223 0.830871 4.09251 0
M  V30 3404 N 326.66 -1.06551 1.16123 0
M  V30 3405 C 327.937 -1.76097 0.85142 0
M  V30 3406 C 328.317 -2.00802 -0.6513 0
M  V30 3407 O 327.665 -1.63302 -1.59827 0
M  V30 3408 C 327.875 -3.06384 1.67122 0
M  V30 3409 C 329.223 -3.80585 1.88255 0
M  V30 3410 O 330.247 -3.16218 1.63966 0
M  V30 3411 O 329.106 -4.96212 2.2899 0
M  V30 3412 H 326.2 -0.765102 0.313923 0
M  V30 3413 H 328.746 -1.12844 1.26745 0
M  V30 3414 H 327.518 -2.84071 2.69108 0
M  V30 3415 H 327.141 -3.77371 1.25206 0
M  V30 3416 N 328.138 -0.959301 -1.25041 0
M  V30 3417 C 329.366 -0.633949 -1.96948 0
M  V30 3418 C 329.781 0.794916 -1.7125 0
M  V30 3419 O 329.138 1.53231 -0.991287 0
M  V30 3420 C 329.189 -0.888805 -3.50403 0
M  V30 3421 O 328.91 -2.26149 -3.75218 0
M  V30 3422 C 330.411 -0.576482 -4.39536 0
M  V30 3423 H 327.631 -0.237263 -0.627652 0
M  V30 3424 H 330.175 -1.28495 -1.59089 0
M  V30 3425 H 328.33 -0.284145 -3.86357 0
M  V30 3426 H 328.744 -2.33514 -4.6965 0
M  V30 3427 H 330.218 -0.805314 -5.46094 0
M  V30 3428 H 330.695 0.489075 -4.36468 0
M  V30 3429 H 331.301 -1.16067 -4.09156 0
M  V30 3430 N 329.616 1.39756 -0.72842 0
M  V30 3431 C 330.864 2.00248 -0.272946 0
M  V30 3432 C 331.185 1.58077 1.14178 0
M  V30 3433 O 330.455 0.826014 1.77634 0
M  V30 3434 H 329.035 0.740554 -0.0979247 0
M  V30 3435 H 331.697 1.70903 -0.936912 0
M  V30 3436 H 330.793 3.10495 -0.316142 0
M  V30 3437 N 331.094 0.475555 1.50254 0
M  V30 3438 C 332.343 -0.0795996 2.01543 0
M  V30 3439 C 332.656 -1.4038 1.36209 0
M  V30 3440 O 333.862 -2.04415 1.7868 0
M  V30 3441 C 332.318 -0.192363 3.59386 0
M  V30 3442 C 331.926 1.12367 4.33679 0
M  V30 3443 C 333.67 -0.699238 4.18701 0
M  V30 3444 C 331.577 0.974453 5.83317 0
M  V30 3445 H 330.507 -0.0335228 0.753254 0
M  V30 3446 H 333.158 0.611128 1.73025 0
M  V30 3447 H 331.54 -0.946974 3.84511 0
M  V30 3448 H 332.714 1.88958 4.20276 0
M  V30 3449 H 331.029 1.562 3.85993 0
M  V30 3450 H 333.626 -0.827978 5.28251 0
M  V30 3451 H 333.969 -1.69171 3.80377 0
M  V30 3452 H 334.502 -0.00188807 3.978 0
M  V30 3453 H 331.241 1.94042 6.26121 0
M  V30 3454 H 330.761 0.248998 5.99283 0
M  V30 3455 H 332.44 0.642867 6.43798 0
M  V30 3456 N 332.573 -1.56217 0.208337 0
M  V30 3457 C 333.798 -2.02782 -0.435222 0
M  V30 3458 C 334.223 -1.08738 -1.53485 0
M  V30 3459 O 333.581 -0.0731855 -1.81152 0
M  V30 3460 C 333.629 -3.47687 -0.956335 0
M  V30 3461 O 332.733 -3.56773 -2.06849 0
M  V30 3462 H 332.074 -0.656403 -0.100158 0
M  V30 3463 H 334.604 -2.02033 0.3231 0
M  V30 3464 H 334.614 -3.87745 -1.26955 0
M  V30 3465 H 333.289 -4.15624 -0.15143 0
M  V30 3466 H 331.866 -3.28597 -1.76292 0
M  V30 3467 N 334.051 0.0651679 -1.57465 0
M  V30 3468 C 335.276 0.779605 -1.9219 0
M  V30 3469 C 335.701 1.69988 -0.805333 0
M  V30 3470 O 335.059 1.79685 0.241435 0
M  V30 3471 C 335.107 1.54364 -3.2589 0
M  V30 3472 O 334.211 2.65474 -3.1559 0
M  V30 3473 H 333.552 0.212249 -0.629163 0
M  V30 3474 H 336.082 0.0314294 -2.04576 0
M  V30 3475 H 336.092 1.92146 -3.59922 0
M  V30 3476 H 334.767 0.868457 -4.06732 0
M  V30 3477 H 333.344 2.30501 -2.93128 0
M  V30 3478 N 335.529 1.53961 0.336706 0
M  V30 3479 C 336.439 1.85432 1.43708 0
M  V30 3480 C 337.455 0.745053 1.57242 0
M  V30 3481 O 338.631 1.03804 1.72588 0
M  V30 3482 C 335.696 2.06349 2.78605 0
M  V30 3483 C 334.757 3.30191 2.74358 0
M  V30 3484 C 333.99 3.50101 4.02822 0
M  V30 3485 O 334.213 2.7371 5.00439 0
M  V30 3486 O 333.147 4.43547 4.06878 0
M  V30 3487 H 336.973 2.78975 1.20028 0
M  V30 3488 H 334.558 1.39701 0.52952 0
M  V30 3489 H 336.44 2.21513 3.58483 0
M  V30 3490 H 335.115 1.15995 3.02203 0
M  V30 3491 H 334.022 3.20425 1.93078 0
M  V30 3492 H 335.355 4.2056 2.55715 0
M  V30 3493 N 337.007 -0.598083 1.45811 0
M  V30 3494 C 338.254 -1.35681 1.50323 0
M  V30 3495 C 338.582 -1.9393 0.148739 0
M  V30 3496 O 337.837 -1.76094 -0.853787 0
M  V30 3497 C 338.136 -2.51669 2.53766 0
M  V30 3498 C 337.802 -2.11508 3.98215 0
M  V30 3499 C 336.464 -2.0027 4.37545 0
M  V30 3500 C 338.816 -1.80308 4.89018 0
M  V30 3501 C 336.144 -1.56067 5.65562 0
M  V30 3502 C 338.496 -1.37589 6.17456 0
M  V30 3503 C 337.16 -1.24916 6.55708 0
M  V30 3504 H 336.43 -0.496492 0.550069 0
M  V30 3505 H 339.077 -0.675052 1.79207 0
M  V30 3506 H 337.382 -3.25225 2.18486 0
M  V30 3507 H 339.079 -3.09895 2.54492 0
M  V30 3508 H 335.669 -2.21185 3.67117 0
M  V30 3509 H 339.853 -1.87884 4.59362 0
M  V30 3510 H 335.109 -1.44886 5.93985 0
M  V30 3511 H 339.283 -1.12495 6.87254 0
M  V30 3512 H 336.91 -0.904386 7.54801 0
M  V30 3513 N 338.485 -1.33259 -0.841409 0
M  V30 3514 C 339.715 -1.2742 -1.62628 0
M  V30 3515 C 340.123 0.157604 -1.88542 0
M  V30 3516 O 339.466 1.10938 -1.46419 0
M  V30 3517 C 339.528 -1.97797 -3.00194 0
M  V30 3518 C 339.192 -3.47109 -2.97261 0
M  V30 3519 C 340.189 -4.42358 -2.73159 0
M  V30 3520 C 337.874 -3.89247 -3.17478 0
M  V30 3521 C 339.868 -5.77718 -2.69296 0
M  V30 3522 C 337.555 -5.24713 -3.13241 0
M  V30 3523 C 338.553 -6.1876 -2.89181 0
M  V30 3524 O 338.241 -7.51745 -2.84843 0
M  V30 3525 H 337.973 -0.440436 -0.512827 0
M  V30 3526 H 340.527 -1.76153 -1.05638 0
M  V30 3527 H 338.757 -1.43652 -3.59028 0
M  V30 3528 H 340.446 -1.8549 -3.61038 0
M  V30 3529 H 341.212 -4.11127 -2.57294 0
M  V30 3530 H 337.091 -3.16456 -3.35226 0
M  V30 3531 H 340.635 -6.51097 -2.50436 0
M  V30 3532 H 336.532 -5.55569 -3.28654 0
M  V30 3533 H 337.3 -7.61262 -3.00702 0
M  V30 3534 N 339.963 1.05934 -1.16686 0
M  V30 3535 C 341.24 1.75643 -0.860747 0
M  V30 3536 C 341.62 2.01144 0.640641 0
M  V30 3537 O 340.968 1.64147 1.58959 0
M  V30 3538 C 341.178 3.05493 -1.68745 0
M  V30 3539 C 342.526 3.79581 -1.90271 0
M  V30 3540 O 343.55 3.15344 -1.65641 0
M  V30 3541 O 342.409 4.9499 -2.31618 0
M  V30 3542 H 339.503 0.763426 -0.317977 0
M  V30 3543 H 342.049 1.1217 -1.27342 0
M  V30 3544 H 340.821 2.8264 -2.70611 0
M  V30 3545 H 340.444 3.76702 -1.27206 0
M  V30 3546 N 341.441 0.965919 1.2453 0
M  V30 3547 C 342.389 0.486506 2.27455 0
M  V30 3548 C 343.383 -0.449041 1.6334 0
M  V30 3549 O 344.589 -0.324527 1.7705 0
M  V30 3550 H 340.964 0.138857 0.739069 0
M  V30 3551 H 342.935 1.3666 2.65267 0
M  V30 3552 C 341.684 -0.209481 3.47068 0
M  V30 3553 H 341.007 0.50129 3.96645 0
M  V30 3554 H 342.447 -0.508775 4.20936 0
M  V30 3555 C 340.906 -1.43586 3.0477 0
M  V30 3556 O 341.436 -2.53299 3.11773 0
M  V30 3557 N 339.642 -1.30126 2.59838 0
M  V30 3558 H 339.189 -0.408583 2.54339 0
M  V30 3559 H 339.147 -2.12294 2.31902 0
M  V30 3560 N 342.919 -1.39368 0.735821 0
M  V30 3561 C 343.882 -2.2896 0.104874 0
M  V30 3562 C 344.882 -1.46347 -0.666274 0
M  V30 3563 O 346.072 -1.67014 -0.49517 0
M  V30 3564 C 343.204 -3.29857 -0.860656 0
M  V30 3565 H 344.397 -2.86259 0.894205 0
M  V30 3566 H 341.95 -1.48029 0.501704 0
M  V30 3567 H 342.685 -2.77615 -1.67631 0
M  V30 3568 H 342.47 -3.9087 -0.310327 0
M  V30 3569 H 343.96 -3.96893 -1.29867 0
M  V30 3570 N 344.397 -0.483516 -1.5 0
M  V30 3571 C 345.345 0.318061 -2.30415 0
M  V30 3572 C 346.339 0.978988 -1.38247 0
M  V30 3573 O 347.545 0.908673 -1.55381 0
M  V30 3574 H 343.92 0.121419 -0.742133 0
M  V30 3575 H 345.891 -0.380403 -2.95965 0
M  V30 3576 C 344.64 1.38013 -3.19136 0
M  V30 3577 H 343.963 0.880952 -3.89973 0
M  V30 3578 H 345.403 1.91332 -3.78375 0
M  V30 3579 C 343.862 2.38884 -2.37563 0
M  V30 3580 O 344.392 3.44412 -2.06744 0
M  V30 3581 N 342.598 2.10912 -1.99911 0
M  V30 3582 H 342.145 1.25118 -2.25174 0
M  V30 3583 H 342.103 2.78635 -1.45636 0
M  V30 3584 N 345.875 1.56104 -0.216619 0
M  V30 3585 C 347.152 1.89988 0.465165 0
M  V30 3586 C 347.532 1.13326 1.78102 0
M  V30 3587 O 346.88 0.241033 2.27225 0
M  V30 3588 C 347.09 3.42646 0.662939 0
M  V30 3589 C 348.438 4.13311 0.972602 0
M  V30 3590 O 349.462 3.48217 0.749901 0
M  V30 3591 O 348.321 5.28396 1.39499 0
M  V30 3592 H 345.415 0.78979 0.245276 0
M  V30 3593 H 347.961 1.67721 -0.258436 0
M  V30 3594 H 346.733 3.90399 -0.26543 0
M  V30 3595 H 346.356 3.70677 1.43821 0
M  V30 3596 N 347.353 -0.0568162 1.57498 0
M  V30 3597 C 348.283 -1.06593 2.0775 0
M  V30 3598 C 349.264 -1.39448 0.974082 0
M  V30 3599 O 350.449 -1.48815 1.24771 0
M  V30 3600 C 347.579 -2.37509 2.5339 0
M  V30 3601 C 346.533 -2.1897 3.67745 0
M  V30 3602 C 345.859 -3.55402 3.99492 0
M  V30 3603 C 347.159 -1.59859 4.97235 0
M  V30 3604 H 348.853 -0.647706 2.9231 0
M  V30 3605 H 346.399 -0.310116 1.40621 0
M  V30 3606 H 348.352 -3.08409 2.87162 0
M  V30 3607 H 347.076 -2.8134 1.65878 0
M  V30 3608 H 345.735 -1.50508 3.3428 0
M  V30 3609 H 345.383 -3.9683 3.09088 0
M  V30 3610 H 345.083 -3.43831 4.76502 0
M  V30 3611 H 346.607 -4.27708 4.35773 0
M  V30 3612 H 348.021 -2.20642 5.29141 0
M  V30 3613 H 346.418 -1.58942 5.78669 0
M  V30 3614 H 347.488 -0.561506 4.81638 0
M  V30 3615 N 348.832 -1.54138 -0.328536 0
M  V30 3616 C 349.762 -1.86167 -1.40939 0
M  V30 3617 C 350.743 -0.718044 -1.54202 0
M  V30 3618 O 351.928 -0.971328 -1.68163 0
M  V30 3619 C 349.058 -2.08461 -2.77779 0
M  V30 3620 C 348.012 -3.24299 -2.7931 0
M  V30 3621 C 347.338 -3.31955 -4.19178 0
M  V30 3622 C 348.638 -4.62065 -2.43502 0
M  V30 3623 H 350.332 -2.76689 -1.14383 0
M  V30 3624 H 347.878 -1.33132 -0.548806 0
M  V30 3625 H 349.831 -2.29453 -3.53454 0
M  V30 3626 H 348.555 -1.14684 -3.05802 0
M  V30 3627 H 347.214 -3.03187 -2.0609 0
M  V30 3628 H 346.862 -2.35745 -4.44335 0
M  V30 3629 H 346.562 -4.09805 -4.2111 0
M  V30 3630 H 348.086 -3.55175 -4.96672 0
M  V30 3631 H 349.5 -4.8297 -3.08889 0
M  V30 3632 H 347.897 -5.42429 -2.56693 0
M  V30 3633 H 348.967 -4.64652 -1.38659 0
M  V30 3634 N 350.31 0.590341 -1.46126 0
M  V30 3635 C 351.535 1.37991 -1.54833 0
M  V30 3636 C 351.96 1.87163 -0.187506 0
M  V30 3637 O 351.318 1.61133 0.831008 0
M  V30 3638 C 351.366 2.54867 -2.55098 0
M  V30 3639 O 350.47 3.56061 -2.08073 0
M  V30 3640 H 349.811 0.411265 -0.521303 0
M  V30 3641 H 352.341 0.716819 -1.91632 0
M  V30 3642 H 352.351 3.01886 -2.74461 0
M  V30 3643 H 351.026 2.18429 -3.53923 0
M  V30 3644 H 349.603 3.15574 -1.98664 0
M  V30 3645 N 351.788 1.33704 0.83433 0
M  V30 3646 C 352.735 1.24335 1.94447 0
M  V30 3647 C 353.705 0.120991 1.65659 0
M  V30 3648 O 354.89 0.300035 1.88426 0
M  V30 3649 C 352.03 0.993124 3.30501 0
M  V30 3650 C 351.143 2.20217 3.71657 0
M  V30 3651 C 350.278 1.88572 4.96602 0
M  V30 3652 C 349.317 3.05683 5.30306 0
M  V30 3653 N 348.454 2.73997 6.46429 0
M  V30 3654 H 353.294 2.1928 2.01792 0
M  V30 3655 H 350.831 1.09035 0.987404 0
M  V30 3656 H 352.789 0.828467 4.08892 0
M  V30 3657 H 351.419 0.0803902 3.227 0
M  V30 3658 H 350.471 2.47642 2.88752 0
M  V30 3659 H 351.783 3.07752 3.92543 0
M  V30 3660 H 350.937 1.68776 5.82752 0
M  V30 3661 H 349.676 0.982799 4.77695 0
M  V30 3662 H 348.681 3.26088 4.42659 0
M  V30 3663 H 349.906 3.96737 5.51159 0
M  V30 3664 H 347.852 1.86268 6.28999 0
M  V30 3665 H 347.769 3.55064 6.67432 0
M  V30 3666 H 349.037 2.57679 7.35678 0
M  V30 3667 N 353.266 -1.05314 1.17247 0
M  V30 3668 C 354.512 -1.78557 0.961513 0
M  V30 3669 C 354.845 -1.87419 -0.508697 0
M  V30 3670 O 354.12 -1.37307 -1.37757 0
M  V30 3671 C 354.403 -3.22514 1.60176 0
M  V30 3672 C 354.256 -3.21673 3.14399 0
M  V30 3673 C 355.575 -4.20318 1.30463 0
M  V30 3674 H 352.694 -0.6482 0.350723 0
M  V30 3675 H 355.336 -1.23102 1.44727 0
M  V30 3676 H 353.486 -3.69867 1.18871 0
M  V30 3677 H 355.158 -2.82405 3.64753 0
M  V30 3678 H 353.401 -2.60048 3.47214 0
M  V30 3679 H 354.072 -4.23271 3.54324 0
M  V30 3680 H 356.548 -3.81454 1.66229 0
M  V30 3681 H 355.424 -5.19289 1.77848 0
M  V30 3682 H 355.685 -4.41526 0.22521 0
M  V30 3683 N 354.744 -0.972509 -1.24016 0
M  V30 3684 C 355.691 -0.505969 -2.25186 0
M  V30 3685 C 356.661 0.451009 -1.5986 0
M  V30 3686 O 357.846 0.360307 -1.87367 0
M  V30 3687 C 354.986 0.193089 -3.44559 0
M  V30 3688 C 354.099 -0.803222 -4.24467 0
M  V30 3689 C 353.234 -0.0797793 -5.3114 0
M  V30 3690 C 352.273 -1.06583 -6.02749 0
M  V30 3691 N 351.41 -0.372074 -7.01113 0
M  V30 3692 H 356.25 -1.37351 -2.64459 0
M  V30 3693 H 353.787 -0.688419 -1.29997 0
M  V30 3694 H 355.745 0.615125 -4.1264 0
M  V30 3695 H 354.375 1.02455 -3.06109 0
M  V30 3696 H 353.427 -1.34368 -3.55878 0
M  V30 3697 H 354.739 -1.55494 -4.73944 0
M  V30 3698 H 353.893 0.400015 -6.0538 0
M  V30 3699 H 352.632 0.704597 -4.82583 0
M  V30 3700 H 351.637 -1.55645 -5.27309 0
M  V30 3701 H 352.862 -1.85074 -6.53395 0
M  V30 3702 H 350.808 0.393238 -6.5482 0
M  V30 3703 H 350.725 -1.06258 -7.48495 0
M  V30 3704 H 351.993 0.0855932 -7.79453 0
M  V30 3705 N 356.222 1.38976 -0.743202 0
M  V30 3706 C 357.169 2.30544 -0.10861 0
M  V30 3707 C 358.139 1.49642 0.720869 0
M  V30 3708 O 359.324 1.78304 0.679142 0
M  V30 3709 C 356.464 3.36018 0.786496 0
M  V30 3710 C 355.577 4.31963 -0.0564849 0
M  V30 3711 C 354.712 5.24506 0.840657 0
M  V30 3712 C 353.751 6.121 -0.00658363 0
M  V30 3713 N 352.888 6.96973 0.846943 0
M  V30 3714 H 357.728 2.8424 -0.895088 0
M  V30 3715 H 355.265 1.3995 -0.453048 0
M  V30 3716 H 357.223 3.95768 1.31999 0
M  V30 3717 H 355.853 2.83758 1.53887 0
M  V30 3718 H 354.905 3.73763 -0.707492 0
M  V30 3719 H 356.217 4.93703 -0.711229 0
M  V30 3720 H 355.371 5.89322 1.4417 0
M  V30 3721 H 354.11 4.63107 1.52916 0
M  V30 3722 H 353.115 5.46289 -0.620366 0
M  V30 3723 H 354.34 6.75565 -0.691992 0
M  V30 3724 H 352.286 6.38133 1.52059 0
M  V30 3725 H 352.203 7.5559 0.248864 0
M  V30 3726 H 353.471 7.6621 1.43328 0
M  V30 3727 N 357.7 0.491464 1.49741 0
M  V30 3728 C 358.977 -0.118984 1.95238 0
M  V30 3729 C 359.357 -1.55044 1.43264 0
M  V30 3730 O 358.705 -2.19287 0.642287 0
M  V30 3731 C 358.915 -0.0414187 3.48975 0
M  V30 3732 C 360.263 -0.220133 4.24029 0
M  V30 3733 O 361.287 -0.117055 3.56008 0
M  V30 3734 O 360.146 -0.430567 5.44801 0
M  V30 3735 H 357.24 -0.100536 0.820866 0
M  V30 3736 H 359.786 0.553322 1.60426 0
M  V30 3737 H 358.558 0.957214 3.79412 0
M  V30 3738 H 358.181 -0.754292 3.9038 0
M  V30 3739 N 359.178 -1.55987 0.224894 0
M  V30 3740 C 360.125 -2.20436 -0.68385 0
M  V30 3741 C 361.095 -1.16102 -1.18783 0
M  V30 3742 O 362.28 -1.4447 -1.24632 0
M  V30 3743 C 359.42 -2.89076 -1.88491 0
M  V30 3744 C 358.533 -4.08012 -1.41951 0
M  V30 3745 C 357.668 -4.64426 -2.5784 0
M  V30 3746 C 356.707 -5.75656 -2.08053 0
M  V30 3747 N 355.844 -6.26347 -3.17227 0
M  V30 3748 H 360.684 -2.97727 -0.12754 0
M  V30 3749 H 358.221 -1.47011 -0.0511978 0
M  V30 3750 H 360.179 -3.27059 -2.59014 0
M  V30 3751 H 358.809 -2.14298 -2.41405 0
M  V30 3752 H 357.861 -3.75492 -0.609095 0
M  V30 3753 H 359.173 -4.88375 -1.01447 0
M  V30 3754 H 358.327 -5.04869 -3.3644 0
M  V30 3755 H 357.066 -3.83233 -3.01635 0
M  V30 3756 H 356.071 -5.34712 -1.27916 0
M  V30 3757 H 357.296 -6.58686 -1.65255 0
M  V30 3758 H 355.242 -5.48067 -3.60497 0
M  V30 3759 H 355.159 -7.01843 -2.80986 0
M  V30 3760 H 356.427 -6.71447 -3.95953 0
M  V30 3761 N 360.656 0.0484629 -1.57525 0
M  V30 3762 C 361.881 0.759177 -1.93006 0
M  V30 3763 C 362.306 1.69125 -0.823317 0
M  V30 3764 O 361.664 1.79931 0.222364 0
M  V30 3765 C 361.712 1.50899 -3.27509 0
M  V30 3766 O 360.816 2.62112 -3.18388 0
M  V30 3767 H 360.157 0.205564 -0.631379 0
M  V30 3768 H 362.687 0.00972959 -2.04598 0
M  V30 3769 H 362.697 1.88317 -3.6194 0
M  V30 3770 H 361.372 0.825269 -4.0763 0
M  V30 3771 H 359.949 2.27379 -2.95556 0
M  V30 3772 N 362.134 1.5431 0.320358 0
M  V30 3773 C 363.411 1.63322 1.07635 0
M  V30 3774 C 363.791 0.46912 2.05821 0
M  V30 3775 O 363.139 -0.536274 2.22118 0
M  V30 3776 C 363.349 3.00465 1.77544 0
M  V30 3777 C 364.697 3.56621 2.30449 0
M  V30 3778 O 365.721 3.02791 1.87606 0
M  V30 3779 O 364.58 4.5083 3.08892 0
M  V30 3780 H 361.674 0.661502 0.496331 0
M  V30 3781 H 364.22 1.66656 0.319992 0
M  V30 3782 H 362.992 3.76629 1.06143 0
M  V30 3783 H 362.615 3.00824 2.59982 0
M  V30 3784 N 363.613 -0.582584 1.46437 0
M  V30 3785 C 364.838 -1.37168 1.55563 0
M  V30 3786 C 365.263 -1.87061 0.19743 0
M  V30 3787 O 364.621 -1.61572 -0.822451 0
M  V30 3788 C 364.669 -2.53511 2.56446 0
M  V30 3789 O 363.773 -3.54953 2.09958 0
M  V30 3790 H 363.114 -0.408494 0.523477 0
M  V30 3791 H 365.644 -0.706646 1.9201 0
M  V30 3792 H 365.654 -3.00426 2.76058 0
M  V30 3793 H 364.329 -2.16549 3.55076 0
M  V30 3794 H 362.906 -3.14516 2.00334 0
M  V30 3795 N 365.091 -1.34144 -0.827227 0
M  V30 3796 C 366.338 -1.26258 -1.58319 0
M  V30 3797 C 366.666 0.168595 -1.93768 0
M  V30 3798 O 365.921 1.12877 -1.59866 0
M  V30 3799 C 366.22 -2.09464 -2.89585 0
M  V30 3800 C 365.886 -3.58521 -2.73448 0
M  V30 3801 C 364.548 -3.99155 -2.68754 0
M  V30 3802 C 366.9 -4.53189 -2.57428 0
M  V30 3803 C 364.228 -5.32656 -2.45957 0
M  V30 3804 C 366.58 -5.86864 -2.36163 0
M  V30 3805 C 365.244 -6.26667 -2.29879 0
M  V30 3806 H 364.514 -0.462013 -0.579332 0
M  V30 3807 H 367.161 -1.65845 -0.95748 0
M  V30 3808 H 365.466 -1.62692 -3.56425 0
M  V30 3809 H 367.163 -2.00712 -3.47154 0
M  V30 3810 H 363.753 -3.26264 -2.77939 0
M  V30 3811 H 367.937 -4.22696 -2.60081 0
M  V30 3812 H 363.193 -5.62519 -2.39546 0
M  V30 3813 H 367.367 -6.59813 -2.22754 0
M  V30 3814 H 364.994 -7.30049 -2.11975 0
M  V30 3815 N 366.569 1.04691 -1.17803 0
M  V30 3816 C 367.817 1.7743 -0.967617 0
M  V30 3817 C 368.138 1.88359 0.504574 0
M  V30 3818 O 367.408 1.40402 1.36617 0
M  V30 3819 H 365.988 0.657242 -0.355024 0
M  V30 3820 H 368.65 1.2638 -1.48371 0
M  V30 3821 H 367.746 2.78924 -1.40027 0
M  V30 3822 N 368.047 0.979072 1.23499 0
M  V30 3823 C 369.293 0.648178 1.92163 0
M  V30 3824 C 369.626 -0.816049 1.76222 0
M  V30 3825 O 368.901 -1.58849 1.12237 0
M  V30 3826 C 369.184 1.03773 3.44824 0
M  V30 3827 C 369.037 2.55948 3.69879 0
M  V30 3828 C 370.356 0.580653 4.36253 0
M  V30 3829 H 367.475 0.236952 0.69787 0
M  V30 3830 H 370.117 1.22012 1.45647 0
M  V30 3831 H 368.267 0.551058 3.84572 0
M  V30 3832 H 369.939 3.12179 3.3962 0
M  V30 3833 H 368.182 2.98641 3.14636 0
M  V30 3834 H 368.853 2.78255 4.76737 0
M  V30 3835 H 371.329 0.998465 4.03943 0
M  V30 3836 H 370.205 0.881663 5.41773 0
M  V30 3837 H 370.466 -0.519052 4.39042 0
M  V30 3838 N 369.525 -1.3858 0.750561 0
M  V30 3839 C 370.753 -2.04471 0.316098 0
M  V30 3840 C 371.168 -1.56606 -1.05452 0
M  V30 3841 O 370.525 -0.737784 -1.66922 0
M  V30 3842 C 370.576 -3.60025 0.326275 0
M  V30 3843 O 370.297 -4.06133 1.6428 0
M  V30 3844 C 371.798 -4.43131 -0.122429 0
M  V30 3845 H 369.018 -0.65717 0.135528 0
M  V30 3846 H 371.562 -1.77329 1.01857 0
M  V30 3847 H 369.717 -3.86014 -0.327431 0
M  V30 3848 H 370.131 -5.00547 1.56693 0
M  V30 3849 H 371.605 -5.51963 -0.0641473 0
M  V30 3850 H 372.082 -4.23333 -1.16988 0
M  V30 3851 H 372.688 -4.22323 0.50229 0
M  V30 3852 N 371.003 -0.499398 -1.49478 0
M  V30 3853 C 372.252 0.0475259 -2.01644 0
M  V30 3854 C 372.565 1.38195 -1.38425 0
M  V30 3855 O 373.771 2.01547 -1.8191 0
M  V30 3856 C 372.227 0.135164 -3.59646 0
M  V30 3857 C 371.835 -1.19252 -4.31837 0
M  V30 3858 C 373.579 0.632538 -4.19761 0
M  V30 3859 C 371.486 -1.06713 -5.81693 0
M  V30 3860 H 370.416 0.0215349 -0.753692 0
M  V30 3861 H 373.067 -0.638577 -1.7203 0
M  V30 3862 H 371.449 0.885681 -3.85969 0
M  V30 3863 H 372.623 -1.9562 -4.17216 0
M  V30 3864 H 370.938 -1.62321 -3.83459 0
M  V30 3865 H 373.535 0.743833 -5.29501 0
M  V30 3866 H 373.878 1.63098 -3.83021 0
M  V30 3867 H 374.411 -0.0613987 -3.97753 0
M  V30 3868 H 371.15 -2.03979 -6.22955 0
M  V30 3869 H 370.67 -0.344307 -5.98811 0
M  V30 3870 H 372.349 -0.745208 -6.42694 0
M  V30 3871 N 372.481 1.55866 -0.233164 0
M  V30 3872 C 373.729 1.9821 0.394593 0
M  V30 3873 C 374.05 1.12234 1.59463 0
M  V30 3874 O 373.32 0.201981 1.94856 0
M  V30 3875 H 371.9 0.732034 0.148778 0
M  V30 3876 H 374.562 1.92107 -0.32876 0
M  V30 3877 H 373.658 3.03845 0.713063 0
M  V30 3878 N 373.959 -0.0401083 1.57549 0
M  V30 3879 C 375.208 -0.732108 1.87944 0
M  V30 3880 C 375.521 -1.77107 0.830206 0
M  V30 3881 O 376.727 -2.51488 1.02302 0
M  V30 3882 C 375.183 -1.35315 3.33494 0
M  V30 3883 C 374.791 -0.351105 4.46622 0
M  V30 3884 C 376.535 -2.02566 3.73051 0
M  V30 3885 C 374.442 -0.979859 5.83226 0
M  V30 3886 H 373.372 -0.277188 0.701201 0
M  V30 3887 H 376.023 0.0138501 1.83495 0
M  V30 3888 H 374.405 -2.14844 3.32653 0
M  V30 3889 H 375.579 0.416674 4.58912 0
M  V30 3890 H 373.894 0.218708 4.15825 0
M  V30 3891 H 376.491 -2.50441 4.72423 0
M  V30 3892 H 376.834 -2.83904 3.04474 0
M  V30 3893 H 377.367 -1.29827 3.76018 0
M  V30 3894 H 374.106 -0.206135 6.55176 0
M  V30 3895 H 373.626 -1.71774 5.74677 0
M  V30 3896 H 375.305 -1.49046 6.29599 0
M  V30 3897 N 375.437 -1.54477 -0.31217 0
M  V30 3898 C 376.685 -1.72884 -1.04668 0
M  V30 3899 C 377.006 -0.511477 -1.88173 0
M  V30 3900 O 376.276 0.474407 -1.90069 0
M  V30 3901 H 374.856 -0.637461 -0.389425 0
M  V30 3902 H 377.518 -1.91807 -0.345852 0
M  V30 3903 H 376.614 -2.61334 -1.70619 0
M  V30 3904 N 376.915 0.57481 -1.46744 0
M  V30 3905 C 378.326 1.15695 -1.46532 0
M  V30 3906 C 378.677 1.95068 -0.210425 0
M  V30 3907 O 377.802 2.05241 0.685944 0
M  V30 3908 C 378.397 2.1048 -2.65487 0
M  V30 3909 C 376.956 2.64002 -2.68291 0
M  V30 3910 C 376.103 1.40026 -2.39349 0
M  V30 3911 H 379.054 0.362325 -1.54509 0
M  V30 3912 H 379.075 2.94074 -2.41455 0
M  V30 3913 H 378.587 1.52683 -3.56805 0
M  V30 3914 H 376.688 3.25646 -1.81067 0
M  V30 3915 H 376.801 3.06197 -3.68483 0
M  V30 3916 H 375.165 1.70106 -1.89568 0
M  V30 3917 H 375.948 0.840485 -3.32852 0
M  V30 3918 N 378.394 1.34581 0.820102 0
M  V30 3919 C 379.357 1.2628 1.91275 0
M  V30 3920 C 380.357 0.177344 1.59819 0
M  V30 3921 O 381.547 0.430156 1.68806 0
M  V30 3922 C 378.679 0.950327 3.27386 0
M  V30 3923 H 379.872 2.23421 2.00057 0
M  V30 3924 H 377.425 1.1891 1.0144 0
M  V30 3925 H 378.16 -0.0177938 3.24295 0
M  V30 3926 H 377.945 1.73549 3.51601 0
M  V30 3927 H 379.435 0.917492 4.07396 0
M  V30 3928 N 379.872 -1.04064 1.18357 0
M  V30 3929 C 381.12 -1.76915 0.977013 0
M  V30 3930 C 381.441 -1.88624 -0.494577 0
M  V30 3931 O 380.711 -1.41125 -1.3587 0
M  V30 3932 H 379.291 -0.65535 0.358504 0
M  V30 3933 H 381.953 -1.25592 1.49039 0
M  V30 3934 H 381.049 -2.78178 1.41504 0
M  V30 3935 N 381.35 -0.985608 -1.22978 0
M  V30 3936 C 382.575 -0.675254 -1.961 0
M  V30 3937 C 383 0.752154 -1.72407 0
M  V30 3938 O 382.358 1.5131 -0.998751 0
M  V30 3939 C 382.406 -0.977899 -3.47087 0
M  V30 3940 O 381.51 -0.072685 -4.12336 0
M  V30 3941 H 380.851 -0.253443 -0.613728 0
M  V30 3942 H 383.381 -1.32061 -1.56272 0
M  V30 3943 H 383.391 -0.916739 -3.97567 0
M  V30 3944 H 382.066 -2.01807 -3.63657 0
M  V30 3945 H 380.643 -0.188703 -3.72422 0
M  V30 3946 N 382.828 1.3818 -0.7579 0
M  V30 3947 C 384.239 1.82726 -0.383134 0
M  V30 3948 C 384.59 1.63214 1.08884 0
M  V30 3949 O 383.715 1.13566 1.84205 0
M  V30 3950 C 384.31 3.31728 -0.688631 0
M  V30 3951 C 382.869 3.74606 -0.367091 0
M  V30 3952 C 382.016 2.60896 -0.939599 0
M  V30 3953 H 384.967 1.26847 -0.953699 0
M  V30 3954 H 384.988 3.80487 0.0316492 0
M  V30 3955 H 384.5 3.45898 -1.76001 0
M  V30 3956 H 382.601 3.66013 0.697532 0
M  V30 3957 H 382.714 4.71215 -0.865658 0
M  V30 3958 H 381.078 2.52075 -0.3647 0
M  V30 3959 H 381.861 2.77864 -2.0161 0
M  V30 3960 N 384.306 0.507319 1.49211 0
M  V30 3961 C 385.236 -0.256939 2.32082 0
M  V30 3962 C 386.217 -0.956609 1.40652 0
M  V30 3963 O 387.402 -0.946788 1.69557 0
M  V30 3964 C 384.532 -1.31802 3.21318 0
M  V30 3965 C 383.486 -0.737855 4.21592 0
M  V30 3966 C 382.812 -1.89992 4.99807 0
M  V30 3967 C 384.112 0.275325 5.21574 0
M  V30 3968 H 385.806 0.434798 2.96226 0
M  V30 3969 H 383.352 0.210546 1.42452 0
M  V30 3970 H 385.305 -1.86045 3.78107 0
M  V30 3971 H 384.029 -2.03903 2.5513 0
M  V30 3972 H 382.688 -0.217126 3.65956 0
M  V30 3973 H 382.336 -2.60877 4.30061 0
M  V30 3974 H 382.036 -1.51777 5.6766 0
M  V30 3975 H 383.56 -2.44657 5.59442 0
M  V30 3976 H 384.974 -0.179193 5.7302 0
M  V30 3977 H 383.371 0.573649 5.97352 0
M  V30 3978 H 384.441 1.18903 4.70096 0
M  V30 3979 N 385.784 -1.5574 0.241426 0
M  V30 3980 C 386.714 -2.24133 -0.654722 0
M  V30 3981 C 387.695 -1.21974 -1.1856 0
M  V30 3982 O 388.88 -1.50612 -1.22595 0
M  V30 3983 C 386.01 -2.93659 -1.85423 0
M  V30 3984 C 384.964 -4.0246 -1.45636 0
M  V30 3985 C 384.29 -4.59383 -2.73626 0
M  V30 3986 C 385.59 -5.18468 -0.631506 0
M  V30 3987 H 387.284 -2.99281 -0.0844353 0
M  V30 3988 H 384.83 -1.43947 -0.0391707 0
M  V30 3989 H 386.783 -3.40203 -2.48676 0
M  V30 3990 H 385.507 -2.15991 -2.44981 0
M  V30 3991 H 384.166 -3.56676 -0.847202 0
M  V30 3992 H 383.814 -3.78422 -3.3137 0
M  V30 3993 H 383.514 -5.32826 -2.4773 0
M  V30 3994 H 385.038 -5.08658 -3.37786 0
M  V30 3995 H 386.452 -5.61272 -1.1682 0
M  V30 3996 H 384.849 -5.98266 -0.468831 0
M  V30 3997 H 385.919 -4.8358 0.357506 0
M  V30 3998 N 387.262 0.0317525 -1.57568 0
M  V30 3999 C 388.508 0.724175 -1.8943 0
M  V30 4000 C 388.841 1.75149 -0.838836 0
M  V30 4001 O 388.116 1.93948 0.146422 0
M  V30 4002 C 388.399 1.39615 -3.31933 0
M  V30 4003 C 388.252 0.382537 -4.4817 0
M  V30 4004 C 389.571 2.33084 -3.73309 0
M  V30 4005 H 386.69 0.261797 -0.688935 0
M  V30 4006 H 389.332 -0.013017 -1.89996 0
M  V30 4007 H 387.482 2.02451 -3.31581 0
M  V30 4008 H 389.154 -0.243689 -4.60656 0
M  V30 4009 H 387.397 -0.29844 -4.32772 0
M  V30 4010 H 388.068 0.891145 -5.44759 0
M  V30 4011 H 390.544 1.80295 -3.7501 0
M  V30 4012 H 389.42 2.77084 -4.73831 0
M  V30 4013 H 389.681 3.19643 -3.05419 0
M  V30 4014 N 388.74 1.54641 0.303973 0
M  V30 4015 C 389.988 1.73437 1.0375 0
M  V30 4016 C 390.309 0.521449 1.87899 0
M  V30 4017 O 389.579 -0.46432 1.90318 0
M  V30 4018 H 388.159 0.639518 0.386039 0
M  V30 4019 H 390.821 1.91988 0.335675 0
M  V30 4020 H 389.917 2.62235 1.69231 0
M  V30 4021 N 390.218 -0.567019 1.47046 0
M  V30 4022 C 391.464 -1.32658 1.53394 0
M  V30 4023 C 391.797 -1.93254 0.19148 0
M  V30 4024 O 391.072 -1.77338 -0.798844 0
M  V30 4025 C 391.355 -2.44412 2.64452 0
M  V30 4026 C 391.208 -1.88749 4.08282 0
M  V30 4027 C 392.527 -3.46387 2.71485 0
M  V30 4028 H 389.646 -0.48098 0.558415 0
M  V30 4029 H 392.288 -0.635481 1.79058 0
M  V30 4030 H 390.438 -3.03363 2.427 0
M  V30 4031 H 392.11 -1.34134 4.41368 0
M  V30 4032 H 390.353 -1.19481 4.17021 0
M  V30 4033 H 391.024 -2.69491 4.81745 0
M  V30 4034 H 393.5 -2.9734 2.91081 0
M  V30 4035 H 392.376 -4.2202 3.50985 0
M  V30 4036 H 392.637 -4.04616 1.78153 0
M  V30 4037 N 391.696 -1.35014 -0.812953 0
M  V30 4038 C 392.944 -1.27678 -1.56661 0
M  V30 4039 C 393.265 0.150359 -1.94419 0
M  V30 4040 O 392.535 1.08532 -1.63088 0
M  V30 4041 H 391.115 -0.469602 -0.580933 0
M  V30 4042 H 393.777 -1.69043 -0.970076 0
M  V30 4043 H 392.873 -1.88833 -2.48492 0
M  V30 4044 N 393.175 1.03435 -1.18907 0
M  V30 4045 C 394.421 1.77005 -0.989798 0
M  V30 4046 C 394.754 1.88205 0.478816 0
M  V30 4047 O 394.029 1.39481 1.35556 0
M  V30 4048 C 394.312 3.19925 -1.65287 0
M  V30 4049 C 394.165 3.1663 -3.19477 0
M  V30 4050 C 395.484 4.18189 -1.37134 0
M  V30 4051 H 392.603 0.642538 -0.360991 0
M  V30 4052 H 395.245 1.20784 -1.46667 0
M  V30 4053 H 393.395 3.67929 -1.24741 0
M  V30 4054 H 395.067 2.76567 -3.692 0
M  V30 4055 H 393.31 2.54491 -3.51307 0
M  V30 4056 H 393.981 4.1758 -3.61013 0
M  V30 4057 H 396.457 3.78761 -1.72276 0
M  V30 4058 H 395.333 5.16394 -1.86087 0
M  V30 4059 H 395.594 4.41112 -0.295424 0
M  V30 4060 N 394.653 0.992116 1.22453 0
M  V30 4061 C 395.878 0.685644 1.95739 0
M  V30 4062 C 396.303 -0.743 1.72804 0
M  V30 4063 O 395.661 -1.50778 1.00676 0
M  V30 4064 C 395.709 0.996293 3.46564 0
M  V30 4065 O 394.813 0.0945512 4.12292 0
M  V30 4066 H 394.154 0.256694 0.612376 0
M  V30 4067 H 396.684 1.32888 1.5557 0
M  V30 4068 H 396.694 0.93781 3.97076 0
M  V30 4069 H 395.369 2.03733 3.62582 0
M  V30 4070 H 393.946 0.208451 3.72317 0
M  V30 4071 N 396.131 -1.37776 0.765217 0
M  V30 4072 C 397.081 -2.2768 0.12075 0
M  V30 4073 C 398.065 -1.45778 -0.680988 0
M  V30 4074 O 399.257 -1.684 -0.545033 0
M  V30 4075 C 396.386 -3.34722 -0.762626 0
M  V30 4076 C 395.472 -4.24074 0.0465881 0
M  V30 4077 N 395.863 -4.93939 1.08892 0
M  V30 4078 C 394.161 -4.45643 -0.178418 0
M  V30 4079 C 394.862 -5.59845 1.57951 0
M  V30 4080 N 393.838 -5.36218 0.892797 0
M  V30 4081 H 397.64 -2.79166 0.918889 0
M  V30 4082 H 395.154 -1.50816 0.602353 0
M  V30 4083 H 397.151 -3.98031 -1.24005 0
M  V30 4084 H 395.811 -2.84793 -1.55959 0
M  V30 4085 H 396.822 -4.96572 1.47095 0
M  V30 4086 H 393.499 -4.06599 -0.9478 0
M  V30 4087 H 394.889 -6.25703 2.44838 0
M  V30 4088 N 397.609 -0.515225 -1.4894 0
M  V30 4089 C 398.834 0.022727 -2.07388 0
M  V30 4090 C 399.259 1.2876 -1.37122 0
M  V30 4091 O 398.617 1.76067 -0.432431 0
M  V30 4092 C 398.665 0.244869 -3.59768 0
M  V30 4093 O 397.769 1.31667 -3.90817 0
M  V30 4094 H 397.11 -0.0325506 -0.663202 0
M  V30 4095 H 399.64 -0.718918 -1.91553 0
M  V30 4096 H 399.65 0.47205 -4.0526 0
M  V30 4097 H 398.325 -0.679194 -4.10317 0
M  V30 4098 H 396.902 1.07331 -3.5712 0
M  V30 4099 N 399.087 1.5561 -0.249682 0
M  V30 4100 C 400.019 2.18834 0.681496 0
M  V30 4101 C 401.032 1.16546 1.1367 0
M  V30 4102 O 402.221 1.43397 1.06299 0
M  V30 4103 C 399.321 2.77992 1.9384 0
M  V30 4104 C 398.494 4.05725 1.63419 0
M  V30 4105 C 397.553 4.49174 2.74096 0
M  V30 4106 O 396.579 5.15492 2.41364 0
M  V30 4107 N 397.781 4.17191 4.03649 0
M  V30 4108 H 400.546 2.9937 0.140514 0
M  V30 4109 H 398.107 1.6175 -0.0697541 0
M  V30 4110 H 400.099 3.04015 2.67127 0
M  V30 4111 H 398.669 2.01596 2.38909 0
M  V30 4112 H 397.889 3.87261 0.736358 0
M  V30 4113 H 399.177 4.88999 1.40562 0
M  V30 4114 H 398.575 3.63955 4.33074 0
M  V30 4115 H 397.132 4.48043 4.73393 0
M  V30 4116 N 400.565 -0.0233959 1.57583 0
M  V30 4117 C 401.842 -0.748794 1.807 0
M  V30 4118 C 402.222 -1.9327 0.849106 0
M  V30 4119 O 401.57 -2.28247 -0.107468 0
M  V30 4120 C 401.78 -1.17651 3.28571 0
M  V30 4121 C 403.128 -1.59008 3.93702 0
M  V30 4122 O 404.152 -1.27094 3.32755 0
M  V30 4123 O 403.011 -2.18264 5.01022 0
M  V30 4124 H 400.105 -0.362578 0.743281 0
M  V30 4125 H 402.651 0.000261958 1.697 0
M  V30 4126 H 401.423 -0.331603 3.89892 0
M  V30 4127 H 401.046 -1.98541 3.44481 0
M  V30 4128 N 402.043 -1.548 -0.295768 0
M  V30 4129 C 403.271 -1.78327 -1.04914 0
M  V30 4130 C 403.686 -0.545316 -1.80753 0
M  V30 4131 O 403.043 0.485013 -1.75937 0
M  V30 4132 C 403.094 -2.99418 -2.02561 0
M  V30 4133 O 402.815 -4.18431 -1.29798 0
M  V30 4134 C 404.316 -3.35375 -2.89895 0
M  V30 4135 H 401.536 -0.594618 -0.310918 0
M  V30 4136 H 404.08 -2.01763 -0.333454 0
M  V30 4137 H 402.235 -2.78175 -2.69624 0
M  V30 4138 H 402.649 -4.86736 -1.95419 0
M  V30 4139 H 404.123 -4.23332 -3.54251 0
M  V30 4140 H 404.6 -2.53761 -3.58472 0
M  V30 4141 H 405.206 -3.58796 -2.28355 0
M  V30 4142 N 403.521 0.559213 -1.47345 0
M  V30 4143 C 404.746 1.34676 -1.57725 0
M  V30 4144 C 405.171 1.86723 -0.227164 0
M  V30 4145 O 404.529 1.6286 0.796642 0
M  V30 4146 C 404.577 2.49399 -2.60447 0
M  V30 4147 O 403.681 3.51567 -2.15578 0
M  V30 4148 H 403.022 0.400115 -0.52991 0
M  V30 4149 H 405.552 0.676009 -1.93109 0
M  V30 4150 H 405.562 2.95996 -2.80803 0
M  V30 4151 H 404.237 2.10873 -3.58477 0
M  V30 4152 H 402.814 3.11289 -2.05313 0
M  V30 4153 N 404.999 1.35443 0.805782 0
M  V30 4154 C 406.246 1.28761 1.56291 0
M  V30 4155 C 406.574 -0.137747 1.94012 0
M  V30 4156 O 405.829 -1.1032 1.61642 0
M  V30 4157 C 406.128 2.14045 2.86216 0
M  V30 4158 C 405.794 3.62826 2.67709 0
M  V30 4159 C 404.456 4.0338 2.6237 0
M  V30 4160 C 406.808 4.57227 2.50186 0
M  V30 4161 C 404.136 5.36501 2.37451 0
M  V30 4162 C 406.488 5.90547 2.26797 0
M  V30 4163 C 405.152 6.30245 2.1988 0
M  V30 4164 H 404.422 0.471171 0.571908 0
M  V30 4165 H 407.069 1.67347 0.930974 0
M  V30 4166 H 405.374 1.68342 3.53791 0
M  V30 4167 H 407.071 2.0621 3.43917 0
M  V30 4168 H 403.661 3.30644 2.72713 0
M  V30 4169 H 407.845 4.2678 2.53323 0
M  V30 4170 H 403.101 5.66259 2.30567 0
M  V30 4171 H 407.275 6.63274 2.12228 0
M  V30 4172 H 404.902 7.33328 2.00333 0
M  V30 4173 N 406.477 -1.02803 1.19454 0
M  V30 4174 C 407.407 -2.12999 0.956758 0
M  V30 4175 C 408.388 -1.69743 -0.110188 0
M  V30 4176 O 409.573 -1.94148 0.0450038 0
M  V30 4177 C 406.703 -3.43746 0.495553 0
M  V30 4178 C 405.657 -4.00688 1.50443 0
M  V30 4179 C 404.983 -5.27067 0.900275 0
M  V30 4180 C 406.283 -4.35397 2.8849 0
M  V30 4181 H 407.977 -2.33148 1.87836 0
M  V30 4182 H 405.523 -1.12045 0.904539 0
M  V30 4183 H 407.476 -4.2021 0.316493 0
M  V30 4184 H 406.2 -3.23321 -0.461646 0
M  V30 4185 H 404.859 -3.2632 1.67065 0
M  V30 4186 H 404.507 -5.02959 -0.064503 0
M  V30 4187 H 404.207 -5.66127 1.57397 0
M  V30 4188 H 405.731 -6.06196 0.73203 0
M  V30 4189 H 407.145 -5.02795 2.75446 0
M  V30 4190 H 405.542 -4.85541 3.52661 0
M  V30 4191 H 406.612 -3.44662 3.41081 0
M  V30 4192 N 407.956 -0.998596 -1.21925 0
M  V30 4193 C 408.904 -0.546641 -2.26085 0
M  V30 4194 C 409.898 0.405576 -1.64473 0
M  V30 4195 O 411.104 0.277471 -1.77849 0
M  V30 4196 H 407.479 -0.158403 -0.735127 0
M  V30 4197 H 409.45 -1.43645 -2.61551 0
M  V30 4198 C 408.199 0.117388 -3.47502 0
M  V30 4199 H 407.522 -0.606277 -3.95176 0
M  V30 4200 H 408.962 0.396993 -4.22137 0
M  V30 4201 C 407.421 1.35455 -3.0847 0
M  V30 4202 O 407.951 2.44944 -3.18379 0
M  V30 4203 N 406.157 1.23191 -2.63196 0
M  V30 4204 H 405.704 0.341006 -2.55333 0
M  V30 4205 H 405.662 2.06071 -2.37449 0
M  V30 4206 N 409.434 1.37368 -0.772513 0
M  V30 4207 C 410.344 2.34053 -0.160081 0
M  V30 4208 C 411.36 1.60216 0.678728 0
M  V30 4209 O 412.536 1.92303 0.59847 0
M  V30 4210 C 409.601 3.3939 0.708182 0
M  V30 4211 C 408.662 4.29048 -0.147172 0
M  V30 4212 C 407.895 5.29354 0.679744 0
M  V30 4213 O 408.118 5.3723 1.91678 0
M  V30 4214 O 407.052 6.01835 0.0885444 0
M  V30 4215 H 410.878 2.88159 -0.959053 0
M  V30 4216 H 408.463 1.39543 -0.533685 0
M  V30 4217 H 410.345 4.03839 1.20384 0
M  V30 4218 H 409.02 2.8761 1.48533 0
M  V30 4219 H 407.927 3.67697 -0.689205 0
M  V30 4220 H 409.26 4.84134 -0.887423 0
M  V30 4221 N 410.912 0.523116 1.48665 0
M  V30 4222 C 411.842 -0.23231 2.32342 0
M  V30 4223 C 412.823 -0.941637 1.41659 0
M  V30 4224 O 414.008 -0.928751 1.70552 0
M  V30 4225 C 411.138 -1.28387 3.22698 0
M  V30 4226 C 410.092 -0.693098 4.22351 0
M  V30 4227 C 409.418 -1.8468 5.01794 0
M  V30 4228 C 410.718 0.33063 5.21252 0
M  V30 4229 H 412.412 0.466192 2.95748 0
M  V30 4230 H 409.958 0.225643 1.42221 0
M  V30 4231 H 411.911 -1.82024 3.80059 0
M  V30 4232 H 410.635 -2.01186 2.57278 0
M  V30 4233 H 409.294 -0.178299 3.66166 0
M  V30 4234 H 408.942 -2.56301 4.32804 0
M  V30 4235 H 408.642 -1.45747 5.69238 0
M  V30 4236 H 410.166 -2.38709 5.62006 0
M  V30 4237 H 411.58 -0.118407 5.73178 0
M  V30 4238 H 409.977 0.636974 5.9671 0
M  V30 4239 H 411.047 1.23883 4.68808 0
M  V30 4240 N 412.39 -1.55475 0.257931 0
M  V30 4241 C 413.338 -2.23244 -0.653076 0
M  V30 4242 C 414.332 -1.22366 -1.17144 0
M  V30 4243 O 415.538 -1.40347 -1.12706 0
M  V30 4244 H 411.913 -0.716247 -0.229117 0
M  V30 4245 H 413.884 -2.98343 -0.0584788 0
M  V30 4246 C 412.633 -2.95401 -1.83395 0
M  V30 4247 H 411.956 -3.72802 -1.44424 0
M  V30 4248 H 413.396 -3.46165 -2.44838 0
M  V30 4249 C 411.855 -1.99895 -2.71189 0
M  V30 4250 O 412.385 -1.53909 -3.71046 0
M  V30 4251 N 410.591 -1.6676 -2.3799 0
M  V30 4252 H 410.138 -2.04352 -1.56837 0
M  V30 4253 H 410.096 -1.03127 -2.97005 0
M  V30 4254 N 413.868 0.0150385 -1.57593 0
M  V30 4255 C 414.815 1.01126 -2.07466 0
M  V30 4256 C 415.785 1.35064 -0.966794 0
M  V30 4257 O 416.97 1.4516 -1.23827 0
M  V30 4258 C 414.11 2.30276 -2.57035 0
M  V30 4259 C 413.223 2.02373 -3.81666 0
M  V30 4260 C 412.358 3.25496 -4.19793 0
M  V30 4261 C 411.397 2.93211 -5.37303 0
M  V30 4262 N 410.534 4.08826 -5.70794 0
M  V30 4263 H 415.374 0.57901 -2.92321 0
M  V30 4264 H 412.911 0.27426 -1.44521 0
M  V30 4265 H 414.869 3.05757 -2.83846 0
M  V30 4266 H 413.499 2.71197 -1.75077 0
M  V30 4267 H 412.551 1.17327 -3.61854 0
M  V30 4268 H 413.863 1.74567 -4.67256 0
M  V30 4269 H 413.017 4.09333 -4.47807 0
M  V30 4270 H 411.756 3.56428 -3.32882 0
M  V30 4271 H 410.761 2.07777 -5.09027 0
M  V30 4272 H 411.986 2.63542 -6.25877 0
M  V30 4273 H 409.932 4.39682 -4.86842 0
M  V30 4274 H 409.849 3.84491 -6.50924 0
M  V30 4275 H 411.117 4.93496 -6.03392 0
M  V30 4276 N 415.346 1.54954 0.287554 0
M  V30 4277 C 416.576 1.78622 1.03816 0
M  V30 4278 C 416.984 0.552451 1.80955 0
M  V30 4279 O 416.327 -0.487665 1.77109 0
M  V30 4280 C 416.389 2.94975 2.055 0
M  V30 4281 C 416.053 4.32565 1.47433 0
M  V30 4282 C 417.05 5.12096 0.897436 0
M  V30 4283 C 414.735 4.79195 1.50591 0
M  V30 4284 C 416.729 6.36383 0.359851 0
M  V30 4285 C 414.416 6.03441 0.964459 0
M  V30 4286 C 415.414 6.81872 0.392413 0
M  V30 4287 O 415.102 8.03777 -0.140788 0
M  V30 4288 H 414.834 0.599144 0.313053 0
M  V30 4289 H 417.388 2.02761 0.328225 0
M  V30 4290 H 415.618 2.66493 2.80211 0
M  V30 4291 H 417.307 3.06097 2.6657 0
M  V30 4292 H 418.073 4.77209 0.865841 0
M  V30 4293 H 413.952 4.18167 1.94055 0
M  V30 4294 H 417.496 6.97545 -0.0872951 0
M  V30 4295 H 413.393 6.37813 0.993246 0
M  V30 4296 H 414.161 8.18495 -0.0287617 0
M  V30 4297 N 416.824 -0.551391 1.4764 0
M  V30 4298 C 417.772 -1.67896 1.60978 0
M  V30 4299 C 418.766 -1.62549 0.476877 0
M  V30 4300 O 419.972 -1.67664 0.654878 0
M  V30 4301 H 416.347 -0.555649 0.506713 0
M  V30 4302 H 418.318 -1.53784 2.55721 0
M  V30 4303 C 417.067 -3.06234 1.64669 0
M  V30 4304 H 416.39 -3.11033 2.51194 0
M  V30 4305 H 417.83 -3.84804 1.7805 0
M  V30 4306 C 416.289 -3.34737 0.381115 0
M  V30 4307 O 416.819 -3.98381 -0.515297 0
M  V30 4308 N 415.025 -2.8944 0.259354 0
M  V30 4309 H 414.572 -2.37827 0.98976 0
M  V30 4310 H 414.53 -3.08882 -0.586464 0
M  V30 4311 N 418.302 -1.35869 -0.798587 0
M  V30 4312 C 419.212 -1.31578 -1.94228 0
M  V30 4313 C 420.228 -0.21939 -1.72611 0
M  V30 4314 O 421.404 -0.450167 -1.96305 0
M  V30 4315 C 418.469 -1.09528 -3.28944 0
M  V30 4316 C 417.53 -2.28556 -3.63402 0
M  V30 4317 C 416.763 -2.07549 -4.9169 0
M  V30 4318 O 416.986 -1.046 -5.60727 0
M  V30 4319 O 415.92 -2.95106 -5.24591 0
M  V30 4320 H 419.746 -2.27847 -2.00796 0
M  V30 4321 H 417.331 -1.16322 -0.937526 0
M  V30 4322 H 419.213 -0.991127 -4.09579 0
M  V30 4323 H 417.888 -0.16315 -3.23289 0
M  V30 4324 H 416.795 -2.44538 -2.83112 0
M  V30 4325 H 418.128 -3.20244 -3.73771 0
M  V30 4326 N 419.78 1.02168 -1.19998 0
M  V30 4327 C 420.727 2.10601 -0.944228 0
M  V30 4328 C 421.697 1.65639 0.123664 0
M  V30 4329 O 422.882 1.9079 -0.0199941 0
M  V30 4330 C 420.022 3.41504 -0.496865 0
M  V30 4331 C 419.135 3.99973 -1.63234 0
M  V30 4332 C 418.27 5.18915 -1.13579 0
M  V30 4333 C 417.309 5.69456 -2.24468 0
M  V30 4334 N 416.446 6.79665 -1.76068 0
M  V30 4335 H 421.286 2.31814 -1.8726 0
M  V30 4336 H 418.823 1.13686 -0.933483 0
M  V30 4337 H 420.781 4.16626 -0.218843 0
M  V30 4338 H 419.411 3.2038 0.394508 0
M  V30 4339 H 418.463 3.21997 -2.0254 0
M  V30 4340 H 419.775 4.33492 -2.46752 0
M  V30 4341 H 418.929 6.01222 -0.813429 0
M  V30 4342 H 417.668 4.8695 -0.270434 0
M  V30 4343 H 416.673 4.85757 -2.57526 0
M  V30 4344 H 417.898 6.03459 -3.11472 0
M  V30 4345 H 415.844 6.49538 -0.918516 0
M  V30 4346 H 415.761 7.12349 -2.5317 0
M  V30 4347 H 417.029 7.65549 -1.46817 0
M  V30 4348 N 421.258 1.00505 1.21394 0
M  V30 4349 C 422.205 0.565496 2.23765 0
M  V30 4350 C 423.175 -0.408466 1.60999 0
M  V30 4351 O 424.36 -0.310503 1.88257 0
M  V30 4352 C 421.5 -0.101667 3.4495 0
M  V30 4353 C 420.613 0.915479 4.22188 0
M  V30 4354 C 419.748 0.220574 5.30742 0
M  V30 4355 C 418.787 1.22527 5.99711 0
M  V30 4356 N 417.924 0.557831 6.9988 0
M  V30 4357 H 422.764 1.44314 2.60725 0
M  V30 4358 H 420.301 0.722643 1.28126 0
M  V30 4359 H 422.259 -0.505504 4.14126 0
M  V30 4360 H 420.889 -0.94303 3.08718 0
M  V30 4361 H 419.941 1.43756 3.52191 0
M  V30 4362 H 421.253 1.68005 4.69655 0
M  V30 4363 H 420.407 -0.239368 6.06228 0
M  V30 4364 H 419.146 -0.576401 4.84282 0
M  V30 4365 H 418.151 1.69571 5.22997 0
M  V30 4366 H 419.376 2.02332 6.48258 0
M  V30 4367 H 417.322 -0.219486 6.55633 0
M  V30 4368 H 417.239 1.26065 7.45415 0
M  V30 4369 H 418.507 0.121095 7.79406 0
M  V30 4370 N 422.737 -1.36956 0.779787 0
M  V30 4371 C 423.984 -1.99491 0.347766 0
M  V30 4372 C 424.312 -1.61898 -1.07793 0
M  V30 4373 O 423.567 -0.86071 -1.75756 0
M  V30 4374 C 423.866 -3.54585 0.447686 0
M  V30 4375 C 423.532 -4.1197 1.83279 0
M  V30 4376 C 422.194 -4.27356 2.2118 0
M  V30 4377 C 424.546 -4.43354 2.74019 0
M  V30 4378 C 421.874 -4.71432 3.4924 0
M  V30 4379 C 424.226 -4.88858 4.01497 0
M  V30 4380 C 422.89 -5.0245 4.39432 0
M  V30 4381 H 422.16 -0.729991 0.127257 0
M  V30 4382 H 424.807 -1.63599 0.995376 0
M  V30 4383 H 423.112 -3.90773 -0.283447 0
M  V30 4384 H 424.809 -4.00888 0.0945948 0
M  V30 4385 H 421.399 -4.00428 1.52825 0
M  V30 4386 H 425.583 -4.31045 2.45995 0
M  V30 4387 H 420.839 -4.80141 3.78516 0
M  V30 4388 H 425.013 -5.12108 4.71931 0
M  V30 4389 H 422.64 -5.36362 5.38721 0
M  V30 4390 N 424.215 -0.530993 -1.48385 0
M  V30 4391 C 425.464 0.00474348 -2.01699 0
M  V30 4392 C 425.777 1.35227 -1.41325 0
M  V30 4393 O 426.983 1.97643 -1.86144 0
M  V30 4394 C 425.439 0.0588473 -3.59852 0
M  V30 4395 C 425.047 -1.28385 -4.2921 0
M  V30 4396 C 426.791 0.543358 -4.21008 0
M  V30 4397 C 424.698 -1.19028 -5.79298 0
M  V30 4398 H 423.628 0.00554317 -0.75398 0
M  V30 4399 H 426.279 -0.674924 -1.70637 0
M  V30 4400 H 424.661 0.803612 -3.8776 0
M  V30 4401 H 425.835 -2.04426 -4.12973 0
M  V30 4402 H 424.15 -1.70418 -3.7993 0
M  V30 4403 H 426.747 0.631351 -5.3096 0
M  V30 4404 H 427.09 1.54937 -3.86394 0
M  V30 4405 H 427.623 -0.145754 -3.97533 0
M  V30 4406 H 424.362 -2.17147 -6.18488 0
M  V30 4407 H 423.882 -0.471246 -5.97946 0
M  V30 4408 H 425.561 -0.881365 -6.40969 0
M  V30 4409 N 425.693 1.55336 -0.266172 0
M  V30 4410 C 426.94 1.99397 0.353158 0
M  V30 4411 C 427.268 1.15451 1.56529 0
M  V30 4412 O 426.523 0.209974 1.9457 0
M  V30 4413 C 426.822 3.48606 0.787957 0
M  V30 4414 C 426.488 4.49773 -0.318541 0
M  V30 4415 C 425.15 4.77158 -0.62239 0
M  V30 4416 C 427.502 5.10212 -1.06459 0
M  V30 4417 C 424.83 5.62251 -1.67602 0
M  V30 4418 C 427.182 5.96449 -2.10788 0
M  V30 4419 C 425.846 6.22158 -2.41817 0
M  V30 4420 H 425.116 0.729644 0.12923 0
M  V30 4421 H 427.763 1.87732 -0.37802 0
M  V30 4422 H 426.068 3.57701 1.59866 0
M  V30 4423 H 427.765 3.80098 1.27775 0
M  V30 4424 H 424.355 4.2854 -0.0715925 0
M  V30 4425 H 428.539 4.89086 -0.843098 0
M  V30 4426 H 423.795 5.80419 -1.92155 0
M  V30 4427 H 427.969 6.42317 -2.69076 0
M  V30 4428 H 425.596 6.87888 -3.23596 0
M  V30 4429 N 427.171 -0.0066808 1.57599 0
M  V30 4430 C 428.399 -0.704087 1.94551 0
M  V30 4431 C 428.814 -1.67677 0.867746 0
M  V30 4432 O 428.171 -1.8185 -0.153925 0
M  V30 4433 C 428.222 -1.44177 3.31505 0
M  V30 4434 O 427.943 -0.508097 4.35144 0
M  V30 4435 C 429.444 -2.23429 3.82876 0
M  V30 4436 H 426.664 -0.196523 0.641576 0
M  V30 4437 H 429.208 0.042453 2.04456 0
M  V30 4438 H 427.363 -2.13999 3.22929 0
M  V30 4439 H 427.777 -1.02782 5.14331 0
M  V30 4440 H 429.251 -2.70552 4.8115 0
M  V30 4441 H 429.728 -3.05818 3.15233 0
M  V30 4442 H 430.334 -1.58636 3.94607 0
M  V30 4443 N 428.649 -1.55105 -0.279332 0
M  V30 4444 C 430.065 -1.46803 -0.626187 0
M  V30 4445 C 430.265 -0.676939 -1.89789 0
M  V30 4446 O 429.321 -0.19326 -2.51759 0
M  V30 4447 C 430.634 -2.90962 -0.759034 0
M  V30 4448 C 432.182 -3.01138 -0.853504 0
M  V30 4449 C 432.657 -4.46539 -1.01818 0
M  V30 4450 N 434.148 -4.50341 -1.08386 0
M  V30 4451 C 434.883 -5.60053 -1.22996 0
M  V30 4452 N 434.379 -6.79645 -1.34366 0
M  V30 4453 N 436.172 -5.47783 -1.26056 0
M  V30 4454 H 428.323 -2.04996 0.555921 0
M  V30 4455 H 430.586 -0.929325 0.187239 0
M  V30 4456 H 430.292 -3.51544 0.104852 0
M  V30 4457 H 430.166 -3.39619 -1.64131 0
M  V30 4458 H 432.553 -2.40658 -1.70786 0
M  V30 4459 H 432.634 -2.55745 0.0532466 0
M  V30 4460 H 432.278 -5.0762 -0.168504 0
M  V30 4461 H 432.208 -4.89583 -1.93948 0
M  V30 4462 H 434.699 -3.64191 -1.00864 0
M  V30 4463 H 435.012 -7.59012 -1.4533 0
M  V30 4464 H 433.357 -6.82469 -1.31382 0
M  V30 4465 H 436.548 -4.53294 -1.168 0
M  V30 4466 H 436.721 -6.33331 -1.37098 0
M  V30 4467 N 430.127 0.543554 -1.4793 0
M  V30 4468 C 431.376 1.29649 -1.54512 0
M  V30 4469 C 431.689 1.94382 -0.217973 0
M  V30 4470 O 432.895 2.71017 -0.161908 0
M  V30 4471 C 431.351 2.35175 -2.72435 0
M  V30 4472 C 430.959 1.76572 -4.11736 0
M  V30 4473 C 432.703 3.11564 -2.8832 0
M  V30 4474 C 430.61 2.79958 -5.20939 0
M  V30 4475 H 429.54 0.487541 -0.57517 0
M  V30 4476 H 432.191 0.575708 -1.74235 0
M  V30 4477 H 430.573 3.10229 -2.46118 0
M  V30 4478 H 431.747 1.07799 -4.48013 0
M  V30 4479 H 430.062 1.12722 -4.00852 0
M  V30 4480 H 432.659 3.88794 -3.67074 0
M  V30 4481 H 433.002 3.66594 -1.97268 0
M  V30 4482 H 433.535 2.43623 -3.14472 0
M  V30 4483 H 430.274 2.29766 -6.13912 0
M  V30 4484 H 429.794 3.47101 -4.89164 0
M  V30 4485 H 431.473 3.43198 -5.48474 0
M  V30 4486 N 431.605 1.3629 0.791371 0
M  V30 4487 C 432.852 1.30412 1.54916 0
M  V30 4488 C 433.18 -0.117162 1.94147 0
M  V30 4489 O 432.435 -1.08599 1.62803 0
M  V30 4490 C 432.734 2.17068 2.8393 0
M  V30 4491 C 432.4 3.65645 2.63846 0
M  V30 4492 C 431.062 4.0614 2.58077 0
M  V30 4493 C 433.414 4.59855 2.45322 0
M  V30 4494 C 430.742 5.3899 2.31748 0
M  V30 4495 C 433.094 5.9292 2.2052 0
M  V30 4496 C 431.758 6.32542 2.13183 0
M  V30 4497 H 431.028 0.47721 0.566879 0
M  V30 4498 H 433.675 1.68325 0.913172 0
M  V30 4499 H 431.98 1.72085 3.51986 0
M  V30 4500 H 433.677 2.09846 3.4171 0
M  V30 4501 H 430.267 3.33518 2.69191 0
M  V30 4502 H 434.451 4.29443 2.48782 0
M  V30 4503 H 429.707 5.68672 2.24548 0
M  V30 4504 H 433.881 6.65487 2.05182 0
M  V30 4505 H 431.508 7.35412 1.92544 0
M  V30 4506 N 433.083 -1.0153 1.20538 0
M  V30 4507 C 434.311 -1.78746 1.04199 0
M  V30 4508 C 434.726 -1.84323 -0.408733 0
M  V30 4509 O 434.083 -1.29714 -1.28377 0
M  V30 4510 C 434.134 -3.23152 1.62035 0
M  V30 4511 O 433.855 -3.17918 3.0143 0
M  V30 4512 C 435.356 -4.16911 1.50666 0
M  V30 4513 H 432.576 -0.56208 0.366479 0
M  V30 4514 H 435.12 -1.27794 1.59653 0
M  V30 4515 H 433.275 -3.71248 1.10697 0
M  V30 4516 H 433.689 -4.08567 3.28897 0
M  V30 4517 H 435.163 -5.16072 1.95892 0
M  V30 4518 H 435.64 -4.36791 0.459363 0
M  V30 4519 H 436.246 -3.74698 2.01201 0
M  V30 4520 N 434.561 -1.01147 -1.20859 0
M  V30 4521 C 435.508 -0.577354 -2.23462 0
M  V30 4522 C 436.478 0.399922 -1.61214 0
M  V30 4523 O 437.663 0.300515 -1.88419 0
M  V30 4524 C 434.803 0.083372 -3.44999 0
M  V30 4525 C 433.916 -0.937856 -4.21697 0
M  V30 4526 C 433.051 -0.248717 -5.30617 0
M  V30 4527 C 432.09 -1.25705 -5.99053 0
M  V30 4528 N 431.227 -0.594939 -6.99575 0
M  V30 4529 H 436.067 -1.45695 -2.59956 0
M  V30 4530 H 433.604 -0.729428 -1.27741 0
M  V30 4531 H 435.562 0.483535 -4.14388 0
M  V30 4532 H 434.192 0.926645 -3.09214 0
M  V30 4533 H 433.244 -1.45622 -3.51423 0
M  V30 4534 H 434.556 -1.70493 -4.68757 0
M  V30 4535 H 433.71 0.207215 -6.06346 0
M  V30 4536 H 432.449 0.55071 -4.84581 0
M  V30 4537 H 431.454 -1.72343 -5.2209 0
M  V30 4538 H 432.679 -2.05767 -6.47176 0
M  V30 4539 H 430.625 0.184713 -6.5574 0
M  V30 4540 H 430.542 -1.30017 -7.44736 0
M  V30 4541 H 431.81 -0.162427 -7.79331 0
M  V30 4542 N 436.039 1.36541 -0.78704 0
M  V30 4543 C 437.285 1.99599 -0.358872 0
M  V30 4544 C 437.618 1.62323 1.06606 0
M  V30 4545 O 436.893 0.876858 1.73613 0
M  V30 4546 C 437.176 3.56327 -0.519944 0
M  V30 4547 C 437.029 4.03464 -1.98839 0
M  V30 4548 C 438.348 4.4005 0.0664737 0
M  V30 4549 H 435.467 0.725107 -0.131869 0
M  V30 4550 H 438.109 1.6199 -0.992936 0
M  V30 4551 H 436.259 3.88495 0.0198321 0
M  V30 4552 H 437.931 3.81793 -2.58905 0
M  V30 4553 H 436.174 3.55092 -2.49183 0
M  V30 4554 H 436.845 5.12439 -2.05207 0
M  V30 4555 H 439.321 4.14228 -0.394267 0
M  V30 4556 H 438.197 5.48847 -0.0762682 0
M  V30 4557 H 438.458 4.26655 1.15835 0
M  V30 4558 N 437.518 0.538854 1.48102 0
M  V30 4559 C 438.45 -0.256278 2.27763 0
M  V30 4560 C 439.463 -0.89633 1.35904 0
M  V30 4561 O 440.652 -0.773275 1.60881 0
M  V30 4562 C 437.752 -1.37896 3.09577 0
M  V30 4563 C 436.925 -0.839159 4.29275 0
M  V30 4564 C 435.984 -1.84405 4.9283 0
M  V30 4565 O 435.01 -1.39746 5.51779 0
M  V30 4566 N 436.212 -3.17666 4.85869 0
M  V30 4567 H 438.977 0.426968 2.96643 0
M  V30 4568 H 436.538 0.373747 1.57527 0
M  V30 4569 H 438.53 -2.04955 3.48963 0
M  V30 4570 H 437.1 -1.96572 2.4306 0
M  V30 4571 H 436.32 0.00769287 3.94199 0
M  V30 4572 H 437.608 -0.457548 5.06739 0
M  V30 4573 H 437.006 -3.56609 4.39143 0
M  V30 4574 H 435.563 -3.80334 5.29329 0
M  V30 4575 N 438.996 -1.55193 0.274407 0
M  V30 4576 C 440.224 -2.03987 -0.345943 0
M  V30 4577 C 440.639 -1.15279 -1.4952 0
M  V30 4578 O 439.996 -0.172759 -1.8168 0
M  V30 4579 C 440.047 -3.51898 -0.827631 0
M  V30 4580 O 439.768 -4.37231 0.275855 0
M  V30 4581 C 441.269 -4.16577 -1.51587 0
M  V30 4582 H 438.489 -0.666335 -0.0789892 0
M  V30 4583 H 441.033 -2.00423 0.406294 0
M  V30 4584 H 439.188 -3.55909 -1.52996 0
M  V30 4585 H 439.602 -5.24415 -0.0943638 0
M  V30 4586 H 441.076 -5.21678 -1.80433 0
M  V30 4587 H 441.553 -3.64707 -2.44716 0
M  V30 4588 H 442.159 -4.16568 -0.857409 0
M  V30 4589 N 440.474 -0.00167713 -1.576 0
M  V30 4590 C 441.437 0.974046 -2.07473 0
M  V30 4591 C 442.437 1.27143 -0.984444 0
M  V30 4592 O 443.627 1.21633 -1.24703 0
M  V30 4593 C 440.759 2.29849 -2.51759 0
M  V30 4594 H 441.952 0.54262 -2.9495 0
M  V30 4595 H 439.505 0.245829 -1.54355 0
M  V30 4596 H 440.24 2.77677 -1.67529 0
M  V30 4597 H 440.025 2.09584 -3.31386 0
M  V30 4598 H 441.515 2.9984 -2.90664 0
M  V30 4599 N 441.952 1.55251 0.271103 0
M  V30 4600 C 442.902 1.84649 1.33749 0
M  V30 4601 C 443.886 0.705529 1.44607 0
M  V30 4602 O 445.078 0.966916 1.48256 0
M  V30 4603 C 442.207 2.12354 2.69742 0
M  V30 4604 C 441.293 3.32714 2.62988 0
M  V30 4605 N 441.684 4.52575 2.25853 0
M  V30 4606 C 439.982 3.35341 2.94045 0
M  V30 4607 C 440.683 5.34669 2.29136 0
M  V30 4608 N 439.659 4.73123 2.67685 0
M  V30 4609 H 443.461 2.74865 1.0405 0
M  V30 4610 H 440.975 1.55152 0.479738 0
M  V30 4611 H 442.972 2.31572 3.4667 0
M  V30 4612 H 441.632 1.23422 3.00328 0
M  V30 4613 H 442.643 4.78639 1.978 0
M  V30 4614 H 439.32 2.56608 3.2933 0
M  V30 4615 H 440.71 6.40509 2.02971 0
M  V30 4616 N 443.43 -0.535701 1.48216 0
M  V30 4617 C 444.677 -1.29183 1.55942 0
M  V30 4618 C 445.005 -1.93125 0.230857 0
M  V30 4619 O 444.26 -1.79556 -0.778331 0
M  V30 4620 C 444.559 -2.4068 2.64212 0
M  V30 4621 C 444.225 -1.94428 4.06827 0
M  V30 4622 C 442.887 -1.81532 4.45645 0
M  V30 4623 C 445.239 -1.59405 4.96225 0
M  V30 4624 C 442.567 -1.31939 5.71672 0
M  V30 4625 C 444.919 -1.11276 6.22736 0
M  V30 4626 C 443.583 -0.969924 6.60416 0
M  V30 4627 H 442.853 -0.472715 0.570632 0
M  V30 4628 H 445.5 -0.598437 1.81909 0
M  V30 4629 H 443.805 -3.15666 2.32083 0
M  V30 4630 H 445.502 -2.98822 2.67407 0
M  V30 4631 H 442.092 -2.05415 3.76168 0
M  V30 4632 H 446.276 -1.68231 4.66917 0
M  V30 4633 H 441.532 -1.19562 5.99596 0
M  V30 4634 H 445.706 -0.832453 6.91407 0
M  V30 4635 H 443.333 -0.583436 7.57958 0
M  V30 4636 N 444.908 -1.36708 -0.784132 0
M  V30 4637 C 445.855 -1.31466 -1.89698 0
M  V30 4638 C 446.825 -0.18239 -1.65096 0
M  V30 4639 O 448.01 -0.369762 -1.87183 0
M  V30 4640 C 445.15 -1.1151 -3.26588 0
M  V30 4641 C 444.263 -2.33859 -3.63227 0
M  V30 4642 C 443.398 -2.06873 -4.89262 0
M  V30 4643 C 442.437 -3.25154 -5.18595 0
M  V30 4644 N 441.574 -2.978 -6.35814 0
M  V30 4645 H 446.414 -2.26619 -1.93515 0
M  V30 4646 H 443.951 -1.12625 -0.946256 0
M  V30 4647 H 445.909 -0.979653 -4.05535 0
M  V30 4648 H 444.539 -0.200103 -3.22179 0
M  V30 4649 H 443.591 -2.58188 -2.79362 0
M  V30 4650 H 444.903 -3.22109 -3.8085 0
M  V30 4651 H 444.057 -1.90289 -5.76086 0
M  V30 4652 H 442.796 -1.15942 -4.73718 0
M  V30 4653 H 441.801 -3.42292 -4.30251 0
M  V30 4654 H 443.026 -4.1692 -5.36055 0
M  V30 4655 H 440.972 -2.09485 -6.21653 0
M  V30 4656 H 440.889 -3.7959 -6.53794 0
M  V30 4657 H 442.157 -2.84805 -7.25607 0
M  V30 4658 N 446.386 1.0089 -1.21074 0
M  V30 4659 C 447.319 2.09279 -0.909806 0
M  V30 4660 C 448.297 1.61986 0.141145 0
M  V30 4661 O 449.481 1.88495 0.0130332 0
M  V30 4662 C 446.608 3.36723 -0.365374 0
M  V30 4663 C 445.654 4.02919 -1.39852 0
M  V30 4664 S 446.487 4.45835 -2.96633 0
M  V30 4665 C 447.643 5.76471 -2.43786 0
M  V30 4666 H 447.876 2.34484 -1.82769 0
M  V30 4667 H 445.409 1.14115 -1.04006 0
M  V30 4668 H 447.367 4.10459 -0.0578203 0
M  V30 4669 H 446.028 3.09577 0.531136 0
M  V30 4670 H 445.221 4.94634 -0.967117 0
M  V30 4671 H 444.823 3.35441 -1.65395 0
M  V30 4672 H 447.115 6.52027 -1.84029 0
M  V30 4673 H 448.058 6.24418 -3.33928 0
M  V30 4674 H 448.466 5.33104 -1.85636 0
M  V30 4675 N 447.864 1.01787 1.20321 0
M  V30 4676 C 449.28 0.732951 1.41774 0
M  V30 4677 C 449.48 -0.686883 1.89431 0
M  V30 4678 O 448.536 -1.45446 2.06402 0
M  V30 4679 C 449.849 1.75973 2.43832 0
M  V30 4680 C 451.397 1.77802 2.57596 0
M  V30 4681 C 451.872 2.7941 3.62897 0
M  V30 4682 N 453.363 2.78157 3.70382 0
M  V30 4683 C 454.098 3.53434 4.51521 0
M  V30 4684 N 453.594 4.38392 5.36455 0
M  V30 4685 N 455.387 3.42026 4.46066 0
M  V30 4686 H 447.538 1.93447 0.877035 0
M  V30 4687 H 449.801 0.835712 0.447536 0
M  V30 4688 H 449.507 2.77699 2.15815 0
M  V30 4689 H 449.381 1.57292 3.4284 0
M  V30 4690 H 451.768 0.767602 2.84942 0
M  V30 4691 H 451.849 2.00557 1.58779 0
M  V30 4692 H 451.493 3.80616 3.36295 0
M  V30 4693 H 451.423 2.53916 4.61339 0
M  V30 4694 H 453.914 2.16531 3.09714 0
M  V30 4695 H 454.227 4.92596 5.95457 0
M  V30 4696 H 452.572 4.4247 5.35953 0
M  V30 4697 H 455.763 2.75075 3.78749 0
M  V30 4698 H 455.936 4.00946 5.09064 0
M  V30 4699 N 449.342 -1.36122 0.79427 0
M  V30 4700 C 450.289 -2.29982 0.194101 0
M  V30 4701 C 451.259 -1.52214 -0.664833 0
M  V30 4702 O 452.444 -1.80702 -0.612498 0
M  V30 4703 C 449.584 -3.38706 -0.661244 0
M  V30 4704 C 448.697 -4.31456 0.216766 0
M  V30 4705 C 447.832 -5.27265 -0.645411 0
M  V30 4706 C 446.871 -6.11653 0.233756 0
M  V30 4707 N 446.008 -6.99636 -0.587682 0
M  V30 4708 H 450.848 -2.80722 0.999965 0
M  V30 4709 H 448.385 -1.38172 0.504677 0
M  V30 4710 H 450.343 -4.00394 -1.17219 0
M  V30 4711 H 448.973 -2.89274 -1.43249 0
M  V30 4712 H 448.025 -3.7088 0.845724 0
M  V30 4713 H 449.337 -4.90724 0.893973 0
M  V30 4714 H 448.491 -5.94266 -1.22198 0
M  V30 4715 H 447.23 -4.68463 -1.35623 0
M  V30 4716 H 446.235 -5.4361 0.82269 0
M  V30 4717 H 447.46 -6.72531 0.942247 0
M  V30 4718 H 445.406 -6.43337 -1.2827 0
M  V30 4719 H 445.323 -7.55993 0.0317402 0
M  V30 4720 H 446.591 -7.71001 -1.14792 0
M  V30 4721 N 450.82 -0.546701 -1.47814 0
M  V30 4722 C 452.097 0.0464413 -1.95545 0
M  V30 4723 C 452.477 1.4962 -1.48919 0
M  V30 4724 O 451.825 2.16752 -0.723232 0
M  V30 4725 C 452.035 -0.0881298 -3.48889 0
M  V30 4726 C 453.383 0.0626059 -4.24554 0
M  V30 4727 O 454.407 -0.0151555 -3.56197 0
M  V30 4728 O 453.266 0.228071 -5.46024 0
M  V30 4729 H 450.36 0.0700004 -0.824032 0
M  V30 4730 H 452.906 -0.612482 -1.58262 0
M  V30 4731 H 451.678 -1.09737 -3.75597 0
M  V30 4732 H 451.301 0.608886 -3.9291 0
M  V30 4733 N 452.299 1.55045 -0.282633 0
M  V30 4734 C 453.576 1.9179 0.384166 0
M  V30 4735 C 453.956 1.20778 1.73136 0
M  V30 4736 O 453.304 0.33719 2.25998 0
M  V30 4737 C 453.514 3.45149 0.517014 0
M  V30 4738 C 454.862 4.17064 0.796427 0
M  V30 4739 O 455.886 3.51084 0.601535 0
M  V30 4740 O 454.745 5.33837 1.16962 0
M  V30 4741 H 451.839 0.799483 0.211558 0
M  V30 4742 H 454.385 1.66474 -0.32934 0
M  V30 4743 H 453.157 3.88922 -0.430772 0
M  V30 4744 H 452.78 3.76443 1.2797 0
M  V30 4745 N 453.777 0.010035 1.57597 0
M  V30 4746 C 455.026 -0.671945 1.90178 0
M  V30 4747 C 455.339 -1.74376 0.886131 0
M  V30 4748 O 456.545 -2.48107 1.10252 0
M  V30 4749 C 455.001 -1.24636 3.3763 0
M  V30 4750 C 454.609 -0.208838 4.47513 0
M  V30 4751 C 456.353 -1.90595 3.79307 0
M  V30 4752 C 454.26 -0.793814 5.86048 0
M  V30 4753 H 453.19 -0.25474 0.709665 0
M  V30 4754 H 455.841 0.0722206 1.83358 0
M  V30 4755 H 454.223 -2.04152 3.3932 0
M  V30 4756 H 455.397 0.562463 4.57354 0
M  V30 4757 H 453.712 0.350889 4.14919 0
M  V30 4758 H 456.309 -2.35284 4.80151 0
M  V30 4759 H 456.652 -2.74074 3.13352 0
M  V30 4760 H 457.185 -1.17798 3.79958 0
M  V30 4761 H 453.924 0.00240855 6.555 0
M  V30 4762 H 453.444 -1.53404 5.79851 0
M  V30 4763 H 455.123 -1.2894 6.34022 0
M  V30 4764 N 455.255 -1.55392 -0.262866 0
M  V30 4765 C 456.188 -1.8391 -1.35101 0
M  V30 4766 C 457.166 -0.692901 -1.47097 0
M  V30 4767 O 458.35 -0.936979 -1.63563 0
M  V30 4768 C 455.477 -2.00969 -2.72634 0
M  V30 4769 C 454.523 -3.23559 -2.7787 0
M  V30 4770 S 455.356 -4.80647 -2.3609 0
M  V30 4771 C 456.512 -5.00692 -3.75578 0
M  V30 4772 H 456.745 -2.75918 -1.1071 0
M  V30 4773 H 454.278 -1.47294 -0.463029 0
M  V30 4774 H 456.236 -2.11482 -3.51832 0
M  V30 4775 H 454.897 -1.09832 -2.94272 0
M  V30 4776 H 454.09 -3.32413 -3.78837 0
M  V30 4777 H 453.692 -3.11689 -2.06702 0
M  V30 4778 H 455.984 -4.87055 -4.70939 0
M  V30 4779 H 456.927 -6.02717 -3.71669 0
M  V30 4780 H 457.335 -4.28619 -3.6735 0
M  V30 4781 N 456.733 0.527833 -1.48498 0
M  V30 4782 C 457.663 1.64136 -1.66077 0
M  V30 4783 C 458.644 1.62286 -0.509625 0
M  V30 4784 O 459.829 1.79449 -0.742413 0
M  V30 4785 C 456.959 3.02717 -1.70234 0
M  V30 4786 C 455.913 3.19426 -2.8487 0
M  V30 4787 C 455.239 4.5909 -2.74118 0
M  V30 4788 C 456.539 3.01993 -4.26142 0
M  V30 4789 H 458.233 1.4968 -2.593 0
M  V30 4790 H 455.779 0.718654 -1.24785 0
M  V30 4791 H 457.732 3.80491 -1.8112 0
M  V30 4792 H 456.456 3.18201 -0.735911 0
M  V30 4793 H 455.115 2.4407 -2.73542 0
M  V30 4794 H 454.763 4.71413 -1.7544 0
M  V30 4795 H 454.463 4.71214 -3.51042 0
M  V30 4796 H 455.987 5.3896 -2.86974 0
M  V30 4797 H 457.401 3.69558 -4.38292 0
M  V30 4798 H 455.798 3.2561 -5.04082 0
M  V30 4799 H 456.868 1.98396 -4.42456 0
M  V30 4800 N 458.211 1.37122 0.776871 0
M  V30 4801 C 459.488 1.22586 1.52421 0
M  V30 4802 C 459.868 -0.182726 2.10308 0
M  V30 4803 O 459.216 -1.18979 1.9508 0
M  V30 4804 C 459.426 2.31782 2.60918 0
M  V30 4805 C 460.774 2.69071 3.2846 0
M  V30 4806 O 461.798 2.3092 2.71209 0
M  V30 4807 O 460.657 3.3478 4.31954 0
M  V30 4808 H 457.751 0.478045 0.674835 0
M  V30 4809 H 460.297 1.48888 0.814275 0
M  V30 4810 H 459.069 3.26131 2.16227 0
M  V30 4811 H 458.692 2.06916 3.39517 0
M  V30 4812 N 459.689 -1.00246 1.21608 0
M  V30 4813 C 460.599 -2.12515 0.993709 0
M  V30 4814 C 461.615 -1.73913 -0.0549939 0
M  V30 4815 O 462.791 -2.00943 0.135619 0
M  V30 4816 C 459.856 -3.42083 0.563953 0
M  V30 4817 C 458.917 -3.94843 1.68516 0
M  V30 4818 C 458.15 -5.18226 1.27582 0
M  V30 4819 O 458.373 -5.70201 0.150506 0
M  V30 4820 O 457.307 -5.64497 2.0887 0
M  V30 4821 H 461.133 -2.34152 1.93407 0
M  V30 4822 H 458.718 -1.10891 1.00118 0
M  V30 4823 H 460.6 -4.20073 0.334194 0
M  V30 4824 H 459.275 -3.21828 -0.347665 0
M  V30 4825 H 458.182 -3.18068 1.96935 0
M  V30 4826 H 459.515 -4.19512 2.5743 0
M  V30 4827 N 461.167 -1.02423 -1.1978 0
M  V30 4828 C 462.415 -0.716569 -1.8897 0
M  V30 4829 C 462.736 0.756769 -1.79716 0
M  V30 4830 O 462.006 1.5449 -1.20456 0
M  V30 4831 H 460.586 -0.262062 -0.699523 0
M  V30 4832 H 463.248 -1.29747 -1.45436 0
M  V30 4833 H 462.344 -1.00675 -2.95417 0
M  V30 4834 N 462.645 1.35699 -0.801477 0
M  V30 4835 C 463.578 2.2768 -0.153922 0
M  V30 4836 C 464.556 1.47832 0.67709 0
M  V30 4837 O 465.74 1.77104 0.645474 0
M  V30 4838 C 462.867 3.2943 0.786986 0
M  V30 4839 C 461.913 4.26485 0.0362447 0
M  V30 4840 S 462.746 5.19573 -1.2963 0
M  V30 4841 C 463.902 6.24866 -0.359705 0
M  V30 4842 H 464.135 2.82254 -0.9338 0
M  V30 4843 H 461.668 1.42421 -0.596283 0
M  V30 4844 H 463.626 3.8855 1.32436 0
M  V30 4845 H 462.287 2.73745 1.54021 0
M  V30 4846 H 461.48 4.98378 0.750668 0
M  V30 4847 H 461.082 3.71508 -0.431017 0
M  V30 4848 H 463.374 6.75957 0.456954 0
M  V30 4849 H 464.317 7.00307 -1.04768 0
M  V30 4850 H 464.725 5.64484 0.0423274 0
M  V30 4851 N 464.123 0.554532 1.47522 0
M  V30 4852 C 465.053 -0.182974 2.32782 0
M  V30 4853 C 466.034 -0.911377 1.43624 0
M  V30 4854 O 467.219 -0.892366 1.72483 0
M  V30 4855 C 464.349 -1.21513 3.25349 0
M  V30 4856 C 463.303 -0.603355 4.23726 0
M  V30 4857 C 462.629 -1.73995 5.05598 0
M  V30 4858 C 463.929 0.441121 5.20434 0
M  V30 4859 H 465.623 0.52882 2.94693 0
M  V30 4860 H 463.169 0.255759 1.41711 0
M  V30 4861 H 465.122 -1.73922 3.83835 0
M  V30 4862 H 463.846 -1.95683 2.61487 0
M  V30 4863 H 462.505 -0.10059 3.66462 0
M  V30 4864 H 462.153 -2.47063 4.38143 0
M  V30 4865 H 461.853 -1.3364 5.72201 0
M  V30 4866 H 463.377 -2.26735 5.66942 0
M  V30 4867 H 464.791 0.00319931 5.733 0
M  V30 4868 H 463.188 0.763402 5.95224 0
M  V30 4869 H 464.258 1.33799 4.66075 0
M  V30 4870 N 465.601 -1.54893 0.290851 0
M  V30 4871 C 466.533 -2.20564 -0.623236 0
M  V30 4872 C 467.546 -1.19519 -1.1054 0
M  V30 4873 O 468.735 -1.46165 -1.02459 0
M  V30 4874 C 465.835 -2.83033 -1.86401 0
M  V30 4875 C 465.008 -4.09916 -1.52604 0
M  V30 4876 C 464.067 -4.56284 -2.62091 0
M  V30 4877 O 463.093 -5.2171 -2.27612 0
M  V30 4878 N 464.295 -4.27746 -3.92446 0
M  V30 4879 H 467.06 -2.99638 -0.0610915 0
M  V30 4880 H 464.621 -1.61508 0.112615 0
M  V30 4881 H 466.613 -3.1099 -2.58973 0
M  V30 4882 H 465.183 -2.0786 -2.33481 0
M  V30 4883 H 464.403 -3.89078 -0.633424 0
M  V30 4884 H 465.691 -4.92554 -1.27547 0
M  V30 4885 H 465.089 -3.7531 -4.23272 0
M  V30 4886 H 463.646 -4.60437 -4.61347 0
M  V30 4887 N 467.08 -0.0183926 -1.57589 0
M  V30 4888 C 468.305 0.676634 -1.96052 0
M  V30 4889 C 468.73 1.6548 -0.894307 0
M  V30 4890 O 468.088 1.80712 0.145849 0
M  V30 4891 C 468.136 1.36872 -3.33614 0
M  V30 4892 O 467.24 2.48372 -3.29219 0
M  V30 4893 H 466.581 0.1786 -0.63953 0
M  V30 4894 H 469.111 -0.077056 -2.04455 0
M  V30 4895 H 469.121 1.72797 -3.69601 0
M  V30 4896 H 467.796 0.651636 -4.10763 0
M  V30 4897 H 466.373 2.14639 -3.04934 0
M  V30 4898 N 468.558 1.5553 0.254621 0
M  V30 4899 C 469.488 1.9268 1.31897 0
M  V30 4900 C 470.469 0.790797 1.506 0
M  V30 4901 O 471.654 1.05045 1.63337 0
M  V30 4902 C 468.784 2.21477 2.67517 0
M  V30 4903 C 467.738 3.37256 2.63519 0
M  V30 4904 C 467.064 3.51576 4.02862 0
M  V30 4905 C 468.364 4.73157 2.21179 0
M  V30 4906 H 470.058 2.81832 1.01051 0
M  V30 4907 H 467.604 1.35599 0.484662 0
M  V30 4908 H 469.557 2.46055 3.42104 0
M  V30 4909 H 468.281 1.29144 2.99982 0
M  V30 4910 H 466.94 3.12675 1.9139 0
M  V30 4911 H 466.588 2.56676 4.32581 0
M  V30 4912 H 466.288 4.2943 4.01078 0
M  V30 4913 H 467.812 3.78467 4.79161 0
M  V30 4914 H 469.226 4.97158 2.85494 0
M  V30 4915 H 467.623 5.54058 2.30521 0
M  V30 4916 H 468.693 4.70739 1.16332 0
M  V30 4917 N 470.036 -0.519951 1.48776 0
M  V30 4918 C 470.969 -1.64053 1.58625 0
M  V30 4919 C 471.947 -1.5664 0.43618 0
M  V30 4920 O 473.131 -1.76969 0.649159 0
M  V30 4921 C 470.258 -3.02497 1.52359 0
M  V30 4922 C 469.304 -3.28235 2.72331 0
M  V30 4923 S 470.137 -3.13414 4.34203 0
M  V30 4924 C 471.293 -4.54287 4.30551 0
M  V30 4925 H 471.526 -1.5545 2.53422 0
M  V30 4926 H 469.059 -0.703681 1.37433 0
M  V30 4927 H 471.017 -3.82336 1.4943 0
M  V30 4928 H 469.678 -3.08531 0.588824 0
M  V30 4929 H 468.871 -4.29256 2.64113 0
M  V30 4930 H 468.473 -2.56085 2.72574 0
M  V30 4931 H 470.765 -5.46006 4.01103 0
M  V30 4932 H 471.708 -4.67558 5.31785 0
M  V30 4933 H 472.116 -4.34079 3.60881 0
M  V30 4934 N 471.514 -1.37532 -0.769588 0
M  V30 4935 C 472.424 -1.35668 -1.91393 0
M  V30 4936 C 473.44 -0.255954 -1.72107 0
M  V30 4937 O 474.616 -0.491704 -1.95305 0
M  V30 4938 C 471.681 -1.16481 -3.26547 0
M  V30 4939 C 470.742 -2.36212 -3.58472 0
M  V30 4940 C 469.975 -2.17932 -4.87177 0
M  V30 4941 O 470.198 -1.1647 -5.58382 0
M  V30 4942 O 469.132 -3.06167 -5.18214 0
M  V30 4943 H 472.958 -2.32055 -1.95918 0
M  V30 4944 H 470.543 -1.18284 -0.912641 0
M  V30 4945 H 472.425 -1.07778 -4.07384 0
M  V30 4946 H 471.1 -0.231687 -3.2287 0
M  V30 4947 H 470.007 -2.50488 -2.77861 0
M  V30 4948 H 471.34 -3.281 -3.66894 0
M  V30 4949 N 472.992 0.995999 -1.22138 0
M  V30 4950 C 473.922 2.10387 -1.01289 0
M  V30 4951 C 474.903 1.69975 0.0651454 0
M  V30 4952 O 476.088 1.9396 -0.0964628 0
M  V30 4953 C 473.218 3.42312 -0.586517 0
M  V30 4954 C 472.172 3.96558 -1.61014 0
M  V30 4955 C 471.498 5.24494 -1.0397 0
M  V30 4956 C 472.798 4.27595 -2.99933 0
M  V30 4957 H 474.492 2.28086 -1.93951 0
M  V30 4958 H 472.038 1.09607 -0.933928 0
M  V30 4959 H 473.991 4.19223 -0.427793 0
M  V30 4960 H 472.715 3.24431 0.375761 0
M  V30 4961 H 471.374 3.21776 -1.75658 0
M  V30 4962 H 471.022 5.02953 -0.0688703 0
M  V30 4963 H 470.722 5.61755 -1.72352 0
M  V30 4964 H 472.246 6.04042 -0.892494 0
M  V30 4965 H 473.66 4.95315 -2.8868 0
M  V30 4966 H 472.057 4.76021 -3.6541 0
M  V30 4967 H 473.127 3.35498 -3.50099 0
M  V30 4968 N 474.47 1.03057 1.19235 0
M  V30 4969 C 475.881 0.757449 1.70645 0
M  V30 4970 C 476.232 -0.722735 1.82403 0
M  V30 4971 O 475.357 -1.56325 1.49638 0
M  V30 4972 C 475.952 1.36833 3.09939 0
M  V30 4973 C 474.511 1.14375 3.58602 0
M  V30 4974 C 473.658 1.46533 2.35422 0
M  V30 4975 H 476.609 1.19828 1.04052 0
M  V30 4976 H 476.63 0.766184 3.72706 0
M  V30 4977 H 476.142 2.44562 3.01349 0
M  V30 4978 H 474.243 0.0847542 3.72504 0
M  V30 4979 H 474.356 1.83366 4.42622 0
M  V30 4980 H 472.72 0.884712 2.38841 0
M  V30 4981 H 473.503 2.55349 2.2946 0
M  V30 4982 N 475.948 -1.35272 0.808662 0
M  V30 4983 C 477.225 -1.93077 0.313181 0
M  V30 4984 C 477.605 -1.73847 -1.19752 0
M  V30 4985 O 476.953 -1.1087 -1.998 0
M  V30 4986 C 477.163 -3.41347 0.726859 0
M  V30 4987 C 478.511 -4.18493 0.717532 0
M  V30 4988 O 479.535 -3.4987 0.668535 0
M  V30 4989 O 478.394 -5.40937 0.777779 0
M  V30 4990 H 475.488 -0.822885 0.0824018 0
M  V30 4991 H 478.034 -1.44335 0.892499 0
M  V30 4992 H 476.806 -3.49082 1.76797 0
M  V30 4993 H 476.429 -3.97411 0.122461 0
M  V30 4994 N 477.426 -0.562348 -1.47226 0
M  V30 4995 C 478.358 0.220011 -2.28142 0
M  V30 4996 C 479.371 0.874596 -1.37312 0
M  V30 4997 O 480.56 0.747583 -1.62091 0
M  V30 4998 C 477.66 1.32953 -3.11732 0
M  V30 4999 C 476.833 0.770759 -4.30556 0
M  V30 5000 C 475.892 1.76541 -4.95701 0
M  V30 5001 O 474.918 1.3095 -5.53932 0
M  V30 5002 N 476.12 3.09896 -4.90861 0
M  V30 5003 H 478.885 -0.474107 -2.95926 0
M  V30 5004 H 476.446 -0.398761 -1.56912 0
M  V30 5005 H 478.438 1.99378 -3.5218 0
M  V30 5006 H 477.008 1.92681 -2.46156 0
M  V30 5007 H 476.228 -0.0704056 -3.94137 0
M  V30 5008 H 477.516 0.376872 -5.07402 0
M  V30 5009 H 476.914 3.49577 -4.44761 0
M  V30 5010 H 475.471 3.71865 -5.35313 0
M  V30 5011 N 478.904 1.54736 -0.299062 0
M  V30 5012 C 480.134 2.04215 0.312992 0
M  V30 5013 C 480.542 1.17596 1.48215 0
M  V30 5014 O 479.885 0.193835 1.82674 0
M  V30 5015 C 479.947 3.49696 0.833862 0
M  V30 5016 C 479.611 4.56518 -0.20977 0
M  V30 5017 C 480.608 5.09442 -1.03756 0
M  V30 5018 C 478.293 5.01073 -0.35091 0
M  V30 5019 C 480.287 6.05459 -1.99244 0
M  V30 5020 C 477.974 5.9691 -1.30924 0
M  V30 5021 C 478.972 6.48987 -2.1285 0
M  V30 5022 O 478.66 7.42947 -3.07059 0
M  V30 5023 H 478.392 0.672128 0.0722494 0
M  V30 5024 H 480.946 2.00718 -0.436043 0
M  V30 5025 H 479.176 3.5051 1.63339 0
M  V30 5026 H 480.865 3.82381 1.36159 0
M  V30 5027 H 481.631 4.75816 -0.939376 0
M  V30 5028 H 477.51 4.60168 0.276813 0
M  V30 5029 H 481.054 6.46031 -2.63229 0
M  V30 5030 H 476.951 6.29953 -1.40815 0
M  V30 5031 H 477.719 7.60743 -3.02015 0
M  V30 5032 N 480.382 0.0267497 1.57577 0
M  V30 5033 C 481.33 -0.973923 2.11229 0
M  V30 5034 C 482.324 -1.33849 1.03831 0
M  V30 5035 O 483.53 -1.321 1.22269 0
M  V30 5036 H 479.905 -0.331844 0.674821 0
M  V30 5037 H 481.876 -0.496092 2.94247 0
M  V30 5038 C 480.625 -2.24798 2.65257 0
M  V30 5039 H 479.948 -1.9762 3.47543 0
M  V30 5040 H 481.388 -2.93031 3.06445 0
M  V30 5041 C 479.847 -2.97611 1.57891 0
M  V30 5042 O 480.377 -3.89629 0.97735 0
M  V30 5043 N 478.583 -2.59905 1.29992 0
M  V30 5044 H 478.13 -1.85154 1.79097 0
M  V30 5045 H 478.088 -3.08932 0.583798 0
M  V30 5046 N 481.861 -1.55662 -0.24637 0
M  V30 5047 C 483.091 -1.81312 -0.990438 0
M  V30 5048 C 483.499 -0.600234 -1.79426 0
M  V30 5049 O 482.842 0.440537 -1.78339 0
M  V30 5050 C 482.904 -3.0032 -1.97607 0
M  V30 5051 C 482.568 -4.36322 -1.35912 0
M  V30 5052 C 483.565 -5.14295 -0.761348 0
M  V30 5053 C 481.25 -4.83019 -1.37833 0
M  V30 5054 C 483.244 -6.37114 -0.190998 0
M  V30 5055 C 480.931 -6.05786 -0.804128 0
M  V30 5056 C 481.929 -6.82672 -0.211489 0
M  V30 5057 O 481.617 -8.03121 0.353845 0
M  V30 5058 H 481.349 -0.607233 -0.297058 0
M  V30 5059 H 483.903 -2.0356 -0.274351 0
M  V30 5060 H 482.133 -2.73829 -2.73047 0
M  V30 5061 H 483.822 -3.13057 -2.58361 0
M  V30 5062 H 484.588 -4.79337 -0.739013 0
M  V30 5063 H 480.467 -4.23165 -1.829 0
M  V30 5064 H 484.011 -6.97069 0.272206 0
M  V30 5065 H 479.908 -6.40222 -0.823792 0
M  V30 5066 H 480.676 -8.18131 0.245761 0
M  V30 5067 N 483.339 0.512053 -1.4905 0
M  V30 5068 C 484.587 1.26436 -1.57665 0
M  V30 5069 C 484.908 1.93255 -0.260293 0
M  V30 5070 O 484.178 1.82206 0.719564 0
M  V30 5071 H 482.758 0.469658 -0.580888 0
M  V30 5072 H 485.42 0.594398 -1.85615 0
M  V30 5073 H 484.516 2.03417 -2.36702 0
M  V30 5074 N 484.817 1.37938 0.762283 0
M  V30 5075 C 485.75 1.2884 1.88349 0
M  V30 5076 C 486.728 0.167084 1.61739 0
M  V30 5077 O 487.912 0.34292 1.85355 0
M  V30 5078 C 485.039 0.994257 3.23778 0
M  V30 5079 C 484.085 2.13376 3.69287 0
M  V30 5080 S 484.918 3.75439 3.81845 0
M  V30 5081 C 486.074 3.48195 5.20107 0
M  V30 5082 H 486.307 2.23736 1.95779 0
M  V30 5083 H 483.84 1.23672 0.924368 0
M  V30 5084 H 485.798 0.83138 4.01993 0
M  V30 5085 H 484.459 0.0626251 3.14038 0
M  V30 5086 H 483.652 1.88319 4.67495 0
M  V30 5087 H 483.254 2.25726 2.98201 0
M  V30 5088 H 485.546 3.0377 6.05583 0
M  V30 5089 H 486.489 4.45765 5.50181 0
M  V30 5090 H 486.897 2.82905 4.88493 0
M  V30 5091 N 486.295 -0.989507 1.22664 0
M  V30 5092 C 487.525 -1.7624 1.0781 0
M  V30 5093 C 487.933 -1.85466 -0.374036 0
M  V30 5094 O 487.276 -1.32645 -1.27087 0
M  V30 5095 C 487.338 -3.21007 1.61849 0
M  V30 5096 C 487.002 -3.35316 3.10503 0
M  V30 5097 C 487.999 -3.22362 4.07896 0
M  V30 5098 C 485.684 -3.60258 3.50028 0
M  V30 5099 C 487.678 -3.34139 5.42798 0
M  V30 5100 C 485.365 -3.71676 4.85078 0
M  V30 5101 C 486.363 -3.58625 5.81272 0
M  V30 5102 O 486.051 -3.69655 7.1387 0
M  V30 5103 H 485.783 -0.560209 0.378341 0
M  V30 5104 H 488.337 -1.25252 1.62792 0
M  V30 5105 H 486.567 -3.73202 1.01279 0
M  V30 5106 H 488.256 -3.80024 1.42606 0
M  V30 5107 H 489.022 -3.03 3.78703 0
M  V30 5108 H 484.901 -3.69492 2.75675 0
M  V30 5109 H 488.445 -3.23869 6.17863 0
M  V30 5110 H 484.342 -3.90545 5.1395 0
M  V30 5111 H 485.11 -3.86507 7.21495 0
M  V30 5112 N 487.773 -1.03688 -1.18687 0
M  V30 5113 C 488.736 -0.629115 -2.20397 0
M  V30 5114 C 489.736 0.311495 -1.57754 0
M  V30 5115 O 490.926 0.0974107 -1.73927 0
M  V30 5116 C 488.058 0.0782231 -3.4081 0
M  V30 5117 H 489.251 -1.52915 -2.57987 0
M  V30 5118 H 486.804 -0.828988 -1.32505 0
M  V30 5119 H 487.539 0.992233 -3.08748 0
M  V30 5120 H 487.324 -0.597776 -3.87517 0
M  V30 5121 H 488.814 0.350156 -4.16129 0
M  V30 5122 N 489.251 1.34841 -0.815825 0
M  V30 5123 C 490.198 2.29644 -0.230664 0
M  V30 5124 C 491.168 1.53253 0.640533 0
M  V30 5125 O 492.353 1.81653 0.583672 0
M  V30 5126 C 489.493 3.39715 0.607275 0
M  V30 5127 C 488.606 4.31056 -0.28538 0
M  V30 5128 C 487.741 5.28225 0.561446 0
M  V30 5129 C 486.78 6.11204 -0.331035 0
M  V30 5130 N 485.917 7.00483 0.476302 0
M  V30 5131 H 490.757 2.79095 -1.0445 0
M  V30 5132 H 488.294 1.37351 -0.526595 0
M  V30 5133 H 490.252 4.02208 1.10835 0
M  V30 5134 H 488.882 2.91517 1.38629 0
M  V30 5135 H 487.934 3.69487 -0.904621 0
M  V30 5136 H 489.246 4.89239 -0.97193 0
M  V30 5137 H 488.4 5.96135 1.12728 0
M  V30 5138 H 487.139 4.70562 1.28153 0
M  V30 5139 H 486.144 5.42232 -0.909069 0
M  V30 5140 H 487.369 6.70947 -1.04912 0
M  V30 5141 H 485.315 6.45296 1.18019 0
M  V30 5142 H 485.232 7.55847 -0.152008 0
M  V30 5143 H 486.5 7.7273 1.02512 0
M  V30 5144 N 490.729 0.570148 1.46925 0
M  V30 5145 C 491.976 0.0509529 2.02436 0
M  V30 5146 C 492.304 -1.30405 1.44308 0
M  V30 5147 O 491.559 -1.86493 0.593198 0
M  V30 5148 C 491.858 -0.0780336 3.57315 0
M  V30 5149 C 491.524 1.20775 4.34424 0
M  V30 5150 C 490.186 1.56004 4.5521 0
M  V30 5151 C 492.538 2.0592 4.78797 0
M  V30 5152 C 489.866 2.76201 5.17619 0
M  V30 5153 C 492.218 3.25332 5.42533 0
M  V30 5154 C 490.882 3.60859 5.61549 0
M  V30 5155 H 490.152 0.018645 0.740765 0
M  V30 5156 H 492.799 0.744262 1.76445 0
M  V30 5157 H 491.104 -0.854394 3.82371 0
M  V30 5158 H 492.801 -0.495312 3.97929 0
M  V30 5159 H 489.391 0.923469 4.18533 0
M  V30 5160 H 493.575 1.80008 4.62505 0
M  V30 5161 H 488.831 3.0388 5.30535 0
M  V30 5162 H 493.005 3.91586 5.75876 0
M  V30 5163 H 490.632 4.54088 6.09678 0
M  V30 5164 N 492.207 -1.54576 0.307264 0
M  V30 5165 C 493.456 -1.99442 -0.300976 0
M  V30 5166 C 493.769 -1.19928 -1.5452 0
M  V30 5167 O 494.975 -1.55092 -2.22842 0
M  V30 5168 C 493.431 -3.55084 -0.586809 0
M  V30 5169 C 493.039 -4.43413 0.639438 0
M  V30 5170 C 494.783 -4.0846 -1.1559 0
M  V30 5171 C 492.69 -5.90499 0.326411 0
M  V30 5172 H 491.62 -0.744986 -0.116238 0
M  V30 5173 H 494.271 -1.787 0.416947 0
M  V30 5174 H 492.653 -3.71749 -1.36449 0
M  V30 5175 H 493.827 -4.38522 1.41545 0
M  V30 5176 H 492.142 -4.00842 1.1276 0
M  V30 5177 H 494.739 -5.15926 -1.40445 0
M  V30 5178 H 495.082 -3.59443 -2.10015 0
M  V30 5179 H 495.615 -3.95362 -0.439778 0
M  V30 5180 H 492.354 -6.43676 1.23939 0
M  V30 5181 H 491.874 -5.98382 -0.412212 0
M  V30 5182 H 493.553 -6.46962 -0.0697393 0
M  V30 5183 N 493.685 -0.035106 -1.57561 0
M  V30 5184 C 494.633 0.962707 -2.11742 0
M  V30 5185 C 495.627 1.33296 -1.0454 0
M  V30 5186 O 496.833 1.31449 -1.22968 0
M  V30 5187 H 493.208 0.32826 -0.676572 0
M  V30 5188 H 495.179 0.48048 -2.94506 0
M  V30 5189 C 493.928 2.23388 -2.66445 0
M  V30 5190 H 493.251 1.95774 -3.48587 0
M  V30 5191 H 494.691 2.91402 -3.07995 0
M  V30 5192 C 493.15 2.96769 -1.59467 0
M  V30 5193 O 493.68 3.89105 -0.998 0
M  V30 5194 N 491.886 2.59212 -1.31369 0
M  V30 5195 H 491.433 1.84202 -1.80076 0
M  V30 5196 H 491.391 3.08618 -0.600173 0
M  V30 5197 N 495.163 1.55791 0.238111 0
M  V30 5198 C 496.44 1.68798 0.98826 0
M  V30 5199 C 496.82 0.577562 2.03045 0
M  V30 5200 O 496.168 -0.41778 2.24648 0
M  V30 5201 C 496.378 3.09454 1.61367 0
M  V30 5202 C 497.726 3.68335 2.11221 0
M  V30 5203 O 498.75 3.1231 1.71292 0
M  V30 5204 O 497.609 4.6657 2.84561 0
M  V30 5205 H 494.703 0.686881 0.460568 0
M  V30 5206 H 497.249 1.68118 0.231202 0
M  V30 5207 H 496.021 3.81726 0.860295 0
M  V30 5208 H 495.644 3.14182 2.4367 0
M  V30 5209 N 496.642 -0.504142 1.49319 0
M  V30 5210 C 497.872 -1.28071 1.62116 0
M  V30 5211 C 498.28 -1.86955 0.290566 0
M  V30 5212 O 497.623 -1.68415 -0.733616 0
M  V30 5213 C 497.685 -2.4521 2.62893 0
M  V30 5214 C 497.349 -2.07218 4.0732 0
M  V30 5215 C 498.346 -1.61375 4.94221 0
M  V30 5216 C 496.031 -2.16949 4.53033 0
M  V30 5217 C 498.025 -1.25763 6.2487 0
M  V30 5218 C 495.712 -1.80949 5.83696 0
M  V30 5219 C 496.71 -1.3543 6.69438 0
M  V30 5220 O 496.398 -0.99915 7.97667 0
M  V30 5221 H 496.13 -0.394763 0.54876 0
M  V30 5222 H 498.684 -0.612118 1.96067 0
M  V30 5223 H 496.914 -3.15134 2.24115 0
M  V30 5224 H 498.603 -3.0724 2.65252 0
M  V30 5225 H 499.369 -1.53306 4.60133 0
M  V30 5226 H 495.248 -2.5133 3.86463 0
M  V30 5227 H 498.792 -0.901631 6.91749 0
M  V30 5228 H 494.689 -1.88667 6.17313 0
M  V30 5229 H 495.457 -1.13089 8.1065 0
M  V30 5230 N 498.12 -1.38341 -0.754957 0
M  V30 5231 C 499.368 -1.34208 -1.51105 0
M  V30 5232 C 499.689 0.0677634 -1.94882 0
M  V30 5233 O 498.959 1.01517 -1.67544 0
M  V30 5234 H 497.539 -0.493819 -0.560493 0
M  V30 5235 H 500.201 -1.73005 -0.897507 0
M  V30 5236 H 499.297 -1.99203 -2.4026 0
M  V30 5237 N 499.598 0.982988 -1.23187 0
M  V30 5238 C 500.826 1.75921 -1.08901 0
M  V30 5239 C 501.241 1.85341 0.359719 0
M  V30 5240 O 500.598 1.33072 1.24892 0
M  V30 5241 C 500.649 3.18742 -1.70545 0
M  V30 5242 O 500.37 3.09814 -3.09753 0
M  V30 5243 C 501.871 4.1277 -1.61667 0
M  V30 5244 H 499.091 0.552166 -0.381252 0
M  V30 5245 H 501.635 1.23516 -1.62985 0
M  V30 5246 H 499.79 3.68182 -1.20501 0
M  V30 5247 H 500.204 3.99703 -3.39614 0
M  V30 5248 H 501.678 5.10697 -2.09506 0
M  V30 5249 H 502.155 4.3542 -0.575009 0
M  V30 5250 H 502.761 3.69232 -2.11064 0
M  V30 5251 N 501.076 1.04316 1.18135 0
M  V30 5252 C 502.026 0.606731 2.19779 0
M  V30 5253 C 503.01 -0.352144 1.56999 0
M  V30 5254 O 504.202 -0.170795 1.76174 0
M  V30 5255 C 501.331 -0.0262443 3.4329 0
M  V30 5256 C 500.417 0.955928 4.13186 0
M  V30 5257 N 500.808 2.12395 4.59045 0
M  V30 5258 C 499.106 0.782473 4.39082 0
M  V30 5259 C 499.807 2.74458 5.12882 0
M  V30 5260 N 498.783 2.02316 5.04548 0
M  V30 5261 H 502.585 1.49679 2.5293 0
M  V30 5262 H 500.099 0.912088 1.34368 0
M  V30 5263 H 502.096 -0.356617 4.15372 0
M  V30 5264 H 500.756 -0.911811 3.11635 0
M  V30 5265 H 501.767 2.50272 4.53414 0
M  V30 5266 H 498.444 -0.0527906 4.17467 0
M  V30 5267 H 499.834 3.73459 5.5855 0
M  V30 5268 N 502.554 -1.34406 0.822964 0
M  V30 5269 C 503.784 -2.02214 0.423424 0
M  V30 5270 C 504.192 -1.62124 -0.975322 0
M  V30 5271 O 503.535 -0.822452 -1.6426 0
M  V30 5272 C 503.597 -3.56721 0.446107 0
M  V30 5273 C 503.261 -4.20136 1.79819 0
M  V30 5274 C 504.258 -4.4065 2.75904 0
M  V30 5275 C 501.943 -4.56906 2.08669 0
M  V30 5276 C 503.937 -4.9706 3.99012 0
M  V30 5277 C 501.624 -5.13026 3.32036 0
M  V30 5278 C 502.622 -5.33047 4.27024 0
M  V30 5279 O 502.31 -5.87979 5.48211 0
M  V30 5280 H 502.042 -0.654748 0.168169 0
M  V30 5281 H 504.596 -1.72659 1.11257 0
M  V30 5282 H 502.826 -3.85537 -0.299734 0
M  V30 5283 H 504.515 -4.05845 0.0666114 0
M  V30 5284 H 505.281 -4.12607 2.54912 0
M  V30 5285 H 501.16 -4.40626 1.35535 0
M  V30 5286 H 504.704 -5.12603 4.73164 0
M  V30 5287 H 500.601 -5.40498 3.52891 0
M  V30 5288 H 501.369 -6.06413 5.49732 0
M  V30 5289 N 504.032 -0.577932 -1.46621 0
M  V30 5290 C 505.281 -0.0594281 -2.01612 0
M  V30 5291 C 505.594 1.30663 -1.45556 0
M  V30 5292 O 506.8 1.91621 -1.92337 0
M  V30 5293 C 505.256 -0.0556666 -3.59857 0
M  V30 5294 C 504.864 -1.41975 -4.24908 0
M  V30 5295 C 506.608 0.409143 -4.22524 0
M  V30 5296 C 504.515 -1.37397 -5.75218 0
M  V30 5297 H 503.445 -0.0184469 -0.753774 0
M  V30 5298 H 506.096 -0.728869 -1.68404 0
M  V30 5299 H 504.478 0.679843 -3.90121 0
M  V30 5300 H 505.652 -2.17461 -4.0626 0
M  V30 5301 H 503.967 -1.82419 -3.74316 0
M  V30 5302 H 506.564 0.46211 -5.32699 0
M  V30 5303 H 506.907 1.42565 -3.91128 0
M  V30 5304 H 507.44 -0.272152 -3.96868 0
M  V30 5305 H 504.179 -2.36714 -6.11267 0
M  V30 5306 H 503.699 -0.661239 -5.96144 0
M  V30 5307 H 505.378 -1.08484 -6.3784 0
M  V30 5308 N 505.51 1.54411 -0.315457 0
M  V30 5309 C 506.738 2.04833 0.291738 0
M  V30 5310 C 507.153 1.19203 1.46411 0
M  V30 5311 O 506.51 0.220867 1.81159 0
M  V30 5312 C 506.561 3.53969 0.73404 0
M  V30 5313 O 506.282 4.36346 -0.391682 0
M  V30 5314 C 507.783 4.2045 1.40489 0
M  V30 5315 H 505.003 0.668195 0.0612947 0
M  V30 5316 H 507.547 1.99276 -0.45929 0
M  V30 5317 H 505.702 3.5984 1.43506 0
M  V30 5318 H 506.116 5.24481 -0.0447088 0
M  V30 5319 H 507.59 5.26278 1.66539 0
M  V30 5320 H 508.067 3.71067 2.3496 0
M  V30 5321 H 508.673 4.18694 0.746662 0
M  V30 5322 N 506.988 0.0434614 1.5754 0
M  V30 5323 C 508.213 -0.645358 1.97104 0
M  V30 5324 C 508.638 -1.64037 0.920521 0
M  V30 5325 O 507.996 -1.80922 -0.11708 0
M  V30 5326 C 508.044 -1.31547 3.35749 0
M  V30 5327 O 507.148 -2.43103 3.33129 0
M  V30 5328 H 506.489 -0.168403 0.64229 0
M  V30 5329 H 509.019 0.109573 2.04306 0
M  V30 5330 H 509.029 -1.66895 3.72304 0
M  V30 5331 H 507.704 -0.586205 4.11748 0
M  V30 5332 H 506.281 -2.0976 3.0831 0
M  V30 5333 N 508.466 -1.55915 -0.229846 0
M  V30 5334 C 509.714 -1.7819 -0.953565 0
M  V30 5335 C 510.035 -0.610504 -1.85197 0
M  V30 5336 O 509.305 0.372988 -1.92316 0
M  V30 5337 H 507.885 -0.657208 -0.355087 0
M  V30 5338 H 510.547 -1.9337 -0.243693 0
M  V30 5339 H 509.643 -2.70011 -1.56527 0
M  V30 5340 N 509.944 0.496216 -1.49584 0
M  V30 5341 C 511.169 1.27865 -1.63295 0
M  V30 5342 C 511.594 1.85592 -0.306156 0
M  V30 5343 O 510.952 1.66092 0.726851 0
M  V30 5344 C 511 2.38128 -2.7079 0
M  V30 5345 O 510.104 3.42108 -2.30296 0
M  V30 5346 H 509.445 0.377279 -0.546403 0
M  V30 5347 H 511.975 0.593497 -1.95803 0
M  V30 5348 H 511.985 2.8382 -2.93104 0
M  V30 5349 H 510.66 1.95479 -3.67098 0
M  V30 5350 H 509.237 3.02301 -2.18331 0
M  V30 5351 N 511.423 1.38739 0.74761 0
M  V30 5352 C 512.356 1.3083 1.86972 0
M  V30 5353 C 513.334 0.184229 1.61553 0
M  V30 5354 O 514.518 0.36256 1.8498 0
M  V30 5355 C 511.645 1.02854 3.22705 0
M  V30 5356 C 510.691 2.17281 3.67003 0
M  V30 5357 S 511.524 3.79468 3.77842 0
M  V30 5358 C 512.68 3.53692 5.16385 0
M  V30 5359 H 512.913 2.258 1.93395 0
M  V30 5360 H 510.446 1.24646 0.911199 0
M  V30 5361 H 512.404 0.87397 4.01089 0
M  V30 5362 H 511.065 0.0959295 3.13953 0
M  V30 5363 H 510.258 1.93267 4.65472 0
M  V30 5364 H 509.86 2.28876 2.9579 0
M  V30 5365 H 512.152 3.10176 6.02327 0
M  V30 5366 H 513.095 4.51576 5.45422 0
M  V30 5367 H 513.503 2.8807 4.85464 0
M  V30 5368 N 512.901 -0.976442 1.23707 0
M  V30 5369 C 514.149 -1.71487 1.06942 0
M  V30 5370 C 514.47 -1.9098 -0.393897 0
M  V30 5371 O 513.74 -1.48128 -1.28198 0
M  V30 5372 H 512.32 -0.635425 0.392739 0
M  V30 5373 H 514.982 -1.17515 1.55487 0
M  V30 5374 H 514.078 -2.70286 1.56051 0
M  V30 5375 N 514.379 -1.04941 -1.1758 0
M  V30 5376 C 515.627 -0.756492 -1.87408 0
M  V30 5377 C 515.948 0.718478 -1.81281 0
M  V30 5378 O 515.218 1.519 -1.23706 0
M  V30 5379 H 513.798 -0.276841 -0.693807 0
M  V30 5380 H 516.46 -1.32803 -1.42652 0
M  V30 5381 H 515.556 -1.06918 -2.93215 0
M  V30 5382 N 515.857 1.33968 -0.830081 0
M  V30 5383 C 517.106 1.97323 -0.417928 0
M  V30 5384 C 517.419 1.6652 1.02618 0
M  V30 5385 O 518.625 2.2342 1.54259 0
M  V30 5386 C 517.081 3.53099 -0.696359 0
M  V30 5387 C 516.689 3.92788 -2.15457 0
M  V30 5388 C 518.433 4.23049 -0.350724 0
M  V30 5389 C 516.34 5.41506 -2.37751 0
M  V30 5390 H 515.27 0.738409 -0.152541 0
M  V30 5391 H 517.921 1.52711 -1.01744 0
M  V30 5392 H 516.303 3.95991 -0.0265904 0
M  V30 5393 H 517.477 3.6098 -2.86408 0
M  V30 5394 H 515.792 3.35795 -2.46232 0
M  V30 5395 H 518.389 5.32403 -0.495036 0
M  V30 5396 H 518.732 4.10279 0.705476 0
M  V30 5397 H 519.265 3.85657 -0.975362 0
M  V30 5398 H 516.004 5.5927 -3.41903 0
M  V30 5399 H 515.524 5.74804 -1.7135 0
M  V30 5400 H 517.203 6.0828 -2.20465 0
M  V30 5401 N 517.335 0.585699 1.46312 0
M  V30 5402 C 518.565 0.0780166 2.06453 0
M  V30 5403 C 518.973 -1.2336 1.43454 0
M  V30 5404 O 518.316 -1.75734 0.535086 0
M  V30 5405 C 518.378 -0.158951 3.59148 0
M  V30 5406 C 518.042 1.06752 4.44357 0
M  V30 5407 C 519.039 1.98031 4.80708 0
M  V30 5408 C 516.724 1.2902 4.85447 0
M  V30 5409 C 518.718 3.09924 5.5698 0
M  V30 5410 C 516.405 2.41218 5.61478 0
M  V30 5411 C 517.403 3.31499 5.97158 0
M  V30 5412 O 517.091 4.41747 6.71651 0
M  V30 5413 H 516.823 0.0558894 0.673686 0
M  V30 5414 H 519.377 0.806994 1.88883 0
M  V30 5415 H 517.607 -0.942575 3.75037 0
M  V30 5416 H 519.296 -0.615513 4.01206 0
M  V30 5417 H 520.062 1.82043 4.49539 0
M  V30 5418 H 515.941 0.596567 4.57124 0
M  V30 5419 H 519.485 3.80415 5.84748 0
M  V30 5420 H 515.382 2.57167 5.9206 0
M  V30 5421 H 516.15 4.40152 6.90079 0
M  V30 5422 N 518.813 -1.54241 0.323641 0
M  V30 5423 C 519.723 -2.28033 -0.551205 0
M  V30 5424 C 520.739 -1.32388 -1.12913 0
M  V30 5425 O 521.915 -1.65403 -1.14908 0
M  V30 5426 C 518.98 -3.02382 -1.69606 0
M  V30 5427 C 518.041 -4.13612 -1.14993 0
M  V30 5428 C 517.274 -4.84407 -2.24022 0
M  V30 5429 O 517.497 -4.54716 -3.44368 0
M  V30 5430 O 516.431 -5.71312 -1.89436 0
M  V30 5431 H 520.257 -3.03662 0.048066 0
M  V30 5432 H 517.842 -1.49133 0.0893289 0
M  V30 5433 H 519.724 -3.48941 -2.36259 0
M  V30 5434 H 518.399 -2.29628 -2.28151 0
M  V30 5435 H 517.306 -3.71402 -0.448484 0
M  V30 5436 H 518.639 -4.8841 -0.609608 0
M  V30 5437 N 520.291 -0.0518155 -1.57515 0
M  V30 5438 C 521.521 0.63048 -1.96745 0
M  V30 5439 C 521.929 1.64875 -0.928054 0
M  V30 5440 O 521.272 1.83449 0.0960678 0
M  V30 5441 C 521.334 1.37381 -3.32215 0
M  V30 5442 C 520.998 0.511298 -4.54131 0
M  V30 5443 C 521.995 -0.222884 -5.19422 0
M  V30 5444 C 519.68 0.442035 -5.00351 0
M  V30 5445 C 521.674 -1.01476 -6.2927 0
M  V30 5446 C 519.361 -0.35353 -6.10077 0
M  V30 5447 C 520.359 -1.08062 -6.74397 0
M  V30 5448 O 520.047 -1.8631 -7.82013 0
M  V30 5449 H 519.779 0.177126 -0.652382 0
M  V30 5450 H 522.333 -0.114726 -2.05079 0
M  V30 5451 H 520.563 2.16466 -3.20436 0
M  V30 5452 H 522.252 1.9464 -3.56188 0
M  V30 5453 H 523.018 -0.178846 -4.8467 0
M  V30 5454 H 518.897 0.997562 -4.50077 0
M  V30 5455 H 522.441 -1.58279 -6.79407 0
M  V30 5456 H 518.338 -0.399205 -6.44264 0
M  V30 5457 H 519.106 -1.78528 -7.98793 0
M  V30 5458 N 521.769 1.56035 0.221574 0
M  V30 5459 C 523.018 1.78245 0.944016 0
M  V30 5460 C 523.331 0.620371 1.85501 0
M  V30 5461 O 524.537 0.726103 2.6161 0
M  V30 5462 C 522.993 3.15659 1.7288 0
M  V30 5463 C 522.601 4.39591 0.863942 0
M  V30 5464 C 524.345 3.47195 2.44246 0
M  V30 5465 C 522.252 5.6803 1.64607 0
M  V30 5466 H 521.182 0.664547 0.356222 0
M  V30 5467 H 523.833 1.8243 0.197904 0
M  V30 5468 H 522.215 3.0565 2.51781 0
M  V30 5469 H 523.389 4.60655 0.115464 0
M  V30 5470 H 521.704 4.15572 0.262407 0
M  V30 5471 H 524.301 4.40381 3.03263 0
M  V30 5472 H 524.644 2.69693 3.1713 0
M  V30 5473 H 525.177 3.58533 1.72334 0
M  V30 5474 H 521.916 6.48425 0.960507 0
M  V30 5475 H 521.436 5.51027 2.36917 0
M  V30 5476 H 523.115 6.08203 2.20675 0
M  V30 5477 N 523.247 -0.488276 1.49845 0
M  V30 5478 C 524.177 -1.59675 1.70371 0
M  V30 5479 C 525.158 -1.60878 0.552473 0
M  V30 5480 O 526.343 -1.77417 0.78973 0
M  V30 5481 C 523.473 -2.98098 1.782 0
M  V30 5482 C 522.427 -3.11761 2.93239 0
M  V30 5483 C 521.753 -4.51661 2.86193 0
M  V30 5484 C 523.053 -2.90589 4.33999 0
M  V30 5485 H 524.747 -1.42752 2.63177 0
M  V30 5486 H 522.293 -0.685317 1.26647 0
M  V30 5487 H 524.246 -3.75555 1.91144 0
M  V30 5488 H 522.97 -3.16138 0.820018 0
M  V30 5489 H 521.629 -2.36732 2.79917 0
M  V30 5490 H 521.277 -4.66595 1.87877 0
M  V30 5491 H 520.977 -4.61742 3.63412 0
M  V30 5492 H 522.501 -5.31162 3.01163 0
M  V30 5493 H 523.915 -3.57807 4.47936 0
M  V30 5494 H 522.312 -3.1213 5.12538 0
M  V30 5495 H 523.382 -1.86595 4.4756 0
M  V30 5496 N 524.725 -1.39134 -0.740242 0
M  V30 5497 C 525.971 -1.36273 -1.50192 0
M  V30 5498 C 526.304 0.0430136 -1.94152 0
M  V30 5499 O 525.579 1.00691 -1.66408 0
M  V30 5500 C 525.862 -2.33041 -2.74525 0
M  V30 5501 C 525.715 -3.82535 -2.36617 0
M  V30 5502 C 527.034 -2.27723 -3.76604 0
M  V30 5503 H 524.153 -0.496323 -0.544823 0
M  V30 5504 H 526.795 -1.70085 -0.846815 0
M  V30 5505 H 524.945 -2.04337 -3.30422 0
M  V30 5506 H 526.617 -4.21967 -1.86391 0
M  V30 5507 H 524.86 -3.99565 -1.68909 0
M  V30 5508 H 525.531 -4.45723 -3.2563 0
M  V30 5509 H 528.007 -2.53091 -3.30279 0
M  V30 5510 H 526.883 -2.97519 -4.61274 0
M  V30 5511 H 527.144 -1.28049 -4.2315 0
M  V30 5512 N 526.204 0.969867 -1.24223 0
M  V30 5513 C 527.453 1.70687 -1.07466 0
M  V30 5514 C 527.766 1.91736 0.386861 0
M  V30 5515 O 528.972 2.62986 0.674581 0
M  V30 5516 C 527.428 3.07217 -1.87472 0
M  V30 5517 C 527.036 2.94018 -3.3802 0
M  V30 5518 C 528.78 3.84804 -1.79237 0
M  V30 5519 C 526.687 4.25844 -4.10379 0
M  V30 5520 H 525.617 0.640067 -0.398536 0
M  V30 5521 H 528.268 1.08092 -1.48285 0
M  V30 5522 H 526.65 3.70628 -1.39466 0
M  V30 5523 H 527.824 2.39632 -3.9359 0
M  V30 5524 H 526.139 2.29898 -3.47183 0
M  V30 5525 H 528.736 4.82417 -2.30603 0
M  V30 5526 H 529.079 4.09356 -0.757197 0
M  V30 5527 H 529.612 3.28115 -2.24912 0
M  V30 5528 H 526.351 4.06486 -5.14246 0
M  V30 5529 H 525.871 4.80054 -3.59594 0
M  V30 5530 H 527.55 4.94475 -4.17257 0
M  V30 5531 N 527.682 1.05563 1.17022 0
M  V30 5532 C 528.959 0.68165 1.83338 0
M  V30 5533 C 529.339 -0.837665 1.93769 0
M  V30 5534 O 528.687 -1.74507 1.47511 0
M  V30 5535 C 528.897 1.375 3.20772 0
M  V30 5536 C 530.245 1.51545 3.96635 0
M  V30 5537 O 531.269 1.33431 3.30264 0
M  V30 5538 O 530.128 1.812 5.15586 0
M  V30 5539 H 527.222 0.240412 0.791285 0
M  V30 5540 H 529.768 1.15545 1.24288 0
M  V30 5541 H 528.54 2.41135 3.08171 0
M  V30 5542 H 528.163 0.890798 3.87493 0
M  V30 5543 N 529.16 -1.33526 0.837174 0
M  V30 5544 C 530.107 -2.29248 0.267169 0
M  V30 5545 C 531.077 -1.54252 -0.616071 0
M  V30 5546 O 532.262 -1.82559 -0.554699 0
M  V30 5547 C 529.402 -3.40638 -0.553152 0
M  V30 5548 C 528.515 -4.30548 0.353921 0
M  V30 5549 C 527.65 -5.29051 -0.477339 0
M  V30 5550 C 526.689 -6.106 0.42823 0
M  V30 5551 N 525.826 -7.01152 -0.364801 0
M  V30 5552 H 530.666 -2.77398 1.08877 0
M  V30 5553 H 528.203 -1.36496 0.54838 0
M  V30 5554 H 530.161 -4.03921 -1.04422 0
M  V30 5555 H 528.791 -2.93685 -1.33973 0
M  V30 5556 H 527.843 -3.68001 0.963289 0
M  V30 5557 H 529.155 -4.87631 1.04964 0
M  V30 5558 H 528.309 -5.97853 -1.0323 0
M  V30 5559 H 527.048 -4.72541 -1.2065 0
M  V30 5560 H 526.053 -5.40718 0.995219 0
M  V30 5561 H 527.278 -6.69193 1.15573 0
M  V30 5562 H 525.224 -6.47092 -1.07738 0
M  V30 5563 H 525.141 -7.5551 0.272238 0
M  V30 5564 H 526.409 -7.74263 -0.902054 0
M  V30 5565 N 530.638 -0.59345 -1.46 0
M  V30 5566 C 531.601 0.123538 -2.28867 0
M  V30 5567 C 532.601 0.808628 -1.38989 0
M  V30 5568 O 533.791 0.658945 -1.61256 0
M  V30 5569 C 530.923 1.1847 -3.19653 0
M  V30 5570 H 532.116 -0.604843 -2.93737 0
M  V30 5571 H 529.669 -0.351875 -1.52288 0
M  V30 5572 H 530.404 1.94431 -2.59552 0
M  V30 5573 H 530.189 0.69783 -3.8584 0
M  V30 5574 H 531.679 1.68726 -3.81997 0
M  V30 5575 N 532.116 1.54067 -0.331816 0
M  V30 5576 C 533.063 2.24623 0.530372 0
M  V30 5577 C 534.033 1.24009 1.10503 0
M  V30 5578 O 535.218 1.52712 1.14384 0
M  V30 5579 C 532.358 3.01374 1.68129 0
M  V30 5580 C 531.471 4.16821 1.13507 0
M  V30 5581 C 530.606 4.81085 2.25234 0
M  V30 5582 C 529.645 5.88621 1.67903 0
M  V30 5583 N 528.782 6.46713 2.73326 0
M  V30 5584 H 533.622 2.97898 -0.0778607 0
M  V30 5585 H 531.159 1.47014 -0.0501965 0
M  V30 5586 H 533.117 3.44125 2.35868 0
M  V30 5587 H 531.747 2.30419 2.26069 0
M  V30 5588 H 530.799 3.78796 0.348979 0
M  V30 5589 H 532.111 4.94203 0.675633 0
M  V30 5590 H 531.265 5.26846 3.00862 0
M  V30 5591 H 530.004 4.03102 2.74518 0
M  V30 5592 H 529.009 5.42254 0.907773 0
M  V30 5593 H 530.234 6.68506 1.19487 0
M  V30 5594 H 528.18 5.71599 3.21886 0
M  V30 5595 H 528.097 7.19532 2.3197 0
M  V30 5596 H 529.365 6.97129 3.48758 0
M  V30 5597 N 533.594 0.0601682 1.57485 0
M  V30 5598 C 534.527 -0.94676 2.07634 0
M  V30 5599 C 535.505 -1.29837 0.978826 0
M  V30 5600 O 536.689 -1.40969 1.2514 0
M  V30 5601 C 533.816 -2.25822 2.52433 0
M  V30 5602 C 532.862 -2.05901 3.73507 0
M  V30 5603 S 533.695 -1.32907 5.18745 0
M  V30 5604 C 534.851 -2.65356 5.66866 0
M  V30 5605 H 535.084 -0.520003 2.92717 0
M  V30 5606 H 532.617 -0.152319 1.53647 0
M  V30 5607 H 534.575 -3.01201 2.78905 0
M  V30 5608 H 533.236 -2.65624 1.67639 0
M  V30 5609 H 532.429 -3.02929 4.02803 0
M  V30 5610 H 532.031 -1.38659 3.47347 0
M  V30 5611 H 534.323 -3.61492 5.73001 0
M  V30 5612 H 535.266 -2.40685 6.6594 0
M  V30 5613 H 535.674 -2.72028 4.94632 0
M  V30 5614 N 535.072 -1.5615 -0.213296 0
M  V30 5615 C 535.982 -1.96265 -1.28519 0
M  V30 5616 C 536.998 -0.86765 -1.50824 0
M  V30 5617 O 538.174 -1.17191 -1.63793 0
M  V30 5618 C 535.239 -2.27836 -2.61327 0
M  V30 5619 C 534.3 -3.50949 -2.47252 0
M  V30 5620 C 533.533 -3.81004 -3.73727 0
M  V30 5621 O 533.756 -3.12612 -4.77106 0
M  V30 5622 O 532.69 -4.74477 -3.70344 0
M  V30 5623 H 536.516 -2.87631 -0.974795 0
M  V30 5624 H 534.101 -1.43467 -0.416832 0
M  V30 5625 H 535.983 -2.49299 -3.39747 0
M  V30 5626 H 534.658 -1.39643 -2.9203 0
M  V30 5627 H 533.565 -3.34754 -1.67004 0
M  V30 5628 H 534.898 -4.39551 -2.21486 0
M  V30 5629 N 536.55 0.480323 -1.50102 0
M  V30 5630 C 537.775 1.26126 -1.64642 0
M  V30 5631 C 538.2 1.85257 -0.325823 0
M  V30 5632 O 537.558 1.66854 0.709194 0
M  V30 5633 C 537.606 2.35243 -2.73301 0
M  V30 5634 O 536.71 3.39646 -2.33911 0
M  V30 5635 H 536.051 0.371463 -0.550374 0
M  V30 5636 H 538.581 0.572696 -1.96421 0
M  V30 5637 H 538.591 2.80695 -2.96098 0
M  V30 5638 H 537.266 1.91574 -3.6915 0
M  V30 5639 H 535.843 2.99969 -2.21525 0
M  V30 5640 N 538.028 1.39524 0.732853 0
M  V30 5641 C 538.958 1.41153 1.86005 0
M  V30 5642 C 539.939 0.274614 1.67869 0
M  V30 5643 O 541.124 0.480745 1.88155 0
M  V30 5644 C 538.254 1.25638 3.23778 0
M  V30 5645 C 537.208 2.36752 3.56556 0
M  V30 5646 C 536.534 2.06326 4.93289 0
M  V30 5647 C 537.834 3.79069 3.5931 0
M  V30 5648 H 539.528 2.35484 1.84899 0
M  V30 5649 H 537.074 1.13348 0.888162 0
M  V30 5650 H 539.027 1.25398 4.0231 0
M  V30 5651 H 537.751 0.277772 3.25417 0
M  V30 5652 H 536.41 2.36213 2.80355 0
M  V30 5653 H 536.058 1.06897 4.9151 0
M  V30 5654 H 535.758 2.80757 5.16187 0
M  V30 5655 H 537.282 2.07739 5.74175 0
M  V30 5656 H 538.696 3.81526 4.27914 0
M  V30 5657 H 537.093 4.52878 3.93728 0
M  V30 5658 H 538.163 4.09893 2.59068 0
M  V30 5659 N 539.506 -0.963266 1.24736 0
M  V30 5660 C 540.754 -1.70343 1.08755 0
M  V30 5661 C 541.075 -1.91387 -0.373619 0
M  V30 5662 O 540.345 -1.4948 -1.2662 0
M  V30 5663 H 538.925 -0.631224 0.399456 0
M  V30 5664 H 541.587 -1.15859 1.56725 0
M  V30 5665 H 540.683 -2.68616 1.58909 0
M  V30 5666 N 540.985 -1.06182 -1.16461 0
M  V30 5667 C 542.234 -0.772927 -1.86303 0
M  V30 5668 C 542.547 0.703187 -1.82523 0
M  V30 5669 O 543.753 1.10641 -2.47933 0
M  V30 5670 C 542.209 -1.33249 -3.34324 0
M  V30 5671 C 541.817 -2.83876 -3.46581 0
M  V30 5672 C 543.561 -1.12108 -4.09429 0
M  V30 5673 C 541.468 -3.33082 -4.88682 0
M  V30 5674 H 540.398 -0.285452 -0.697878 0
M  V30 5675 H 543.049 -1.28039 -1.31447 0
M  V30 5676 H 541.431 -0.7528 -3.88779 0
M  V30 5677 H 542.605 -3.47786 -3.02293 0
M  V30 5678 H 540.92 -3.03671 -2.84909 0
M  V30 5679 H 543.517 -1.46361 -5.14279 0
M  V30 5680 H 543.86 -0.0593832 -4.16258 0
M  V30 5681 H 544.393 -1.6665 -3.6121 0
M  V30 5682 H 541.132 -4.38726 -4.87032 0
M  V30 5683 H 540.652 -2.73919 -5.33599 0
M  V30 5684 H 542.331 -3.28344 -5.57494 0
M  V30 5685 N 542.463 1.3308 -0.844243 0
M  V30 5686 C 543.691 2.01808 -0.456203 0
M  V30 5687 C 544.106 1.63498 0.944131 0
M  V30 5688 O 543.463 0.85102 1.61443 0
M  V30 5689 C 543.514 3.56922 -0.573513 0
M  V30 5690 O 543.235 3.93851 -1.91868 0
M  V30 5691 C 544.736 4.42922 -0.183125 0
M  V30 5692 H 541.956 0.646273 -0.180477 0
M  V30 5693 H 544.5 1.69891 -1.1383 0
M  V30 5694 H 542.655 3.87352 0.0607367 0
M  V30 5695 H 543.069 4.88564 -1.90802 0
M  V30 5696 H 544.543 5.51093 -0.316241 0
M  V30 5697 H 545.02 4.30386 0.875477 0
M  V30 5698 H 545.626 4.1786 -0.792027 0
M  V30 5699 N 543.941 0.601185 1.45683 0
M  V30 5700 C 545.166 0.0982245 2.07167 0
M  V30 5701 C 545.591 -1.20546 1.44396 0
M  V30 5702 O 544.949 -1.73247 0.534347 0
M  V30 5703 C 544.997 -0.0346976 3.60583 0
M  V30 5704 O 544.101 -1.08657 3.97828 0
M  V30 5705 H 543.442 0.0711618 0.660176 0
M  V30 5706 H 545.972 0.829376 1.87036 0
M  V30 5707 H 545.982 -0.234969 4.07323 0
M  V30 5708 H 544.657 0.917265 4.05659 0
M  V30 5709 H 543.234 -0.863275 3.6277 0
M  V30 5710 N 545.419 -1.53889 0.339982 0
M  V30 5711 C 546.835 -1.59595 -0.0120752 0
M  V30 5712 C 547.035 -1.35605 -1.49042 0
M  V30 5713 O 546.091 -1.14856 -2.24865 0
M  V30 5714 C 547.404 -2.9774 0.420898 0
M  V30 5715 C 548.952 -3.1077 0.37294 0
M  V30 5716 C 549.427 -4.51286 0.781327 0
M  V30 5717 N 550.918 -4.57325 0.735374 0
M  V30 5718 C 551.653 -5.64194 1.02336 0
M  V30 5719 N 551.149 -6.7893 1.37933 0
M  V30 5720 N 552.942 -5.54051 0.947838 0
M  V30 5721 H 545.093 -1.67738 1.30299 0
M  V30 5722 H 547.356 -0.785385 0.530918 0
M  V30 5723 H 547.062 -3.20349 1.45152 0
M  V30 5724 H 546.936 -3.76639 -0.205721 0
M  V30 5725 H 549.323 -2.87886 -0.648505 0
M  V30 5726 H 549.404 -2.33939 1.03472 0
M  V30 5727 H 549.048 -4.74905 1.80077 0
M  V30 5728 H 548.978 -5.26511 0.0970679 0
M  V30 5729 H 551.469 -3.74931 0.472773 0
M  V30 5730 H 551.782 -7.56392 1.58402 0
M  V30 5731 H 550.127 -6.80386 1.41774 0
M  V30 5732 H 553.318 -4.63293 0.669115 0
M  V30 5733 H 553.491 -6.37246 1.17563 0
M  V30 5734 N 546.897 -0.0685191 -1.57451 0
M  V30 5735 C 548.174 0.642167 -1.84758 0
M  V30 5736 C 548.554 1.87991 -0.960344 0
M  V30 5737 O 547.902 2.28485 -0.0257894 0
M  V30 5738 C 548.112 0.982946 -3.34872 0
M  V30 5739 C 549.46 1.35784 -4.02303 0
M  V30 5740 O 550.484 1.07477 -3.39598 0
M  V30 5741 O 549.343 1.88681 -5.12895 0
M  V30 5742 H 546.437 0.318625 -0.763156 0
M  V30 5743 H 548.983 -0.0992015 -1.6941 0
M  V30 5744 H 547.755 0.10372 -3.91163 0
M  V30 5745 H 547.378 1.78119 -3.55471 0
M  V30 5746 N 548.375 1.56261 0.205012 0
M  V30 5747 C 549.624 1.79236 0.925058 0
M  V30 5748 C 549.937 0.640011 1.84833 0
M  V30 5749 O 551.143 0.753809 2.60826 0
M  V30 5750 C 549.599 3.17475 1.69522 0
M  V30 5751 C 549.207 4.40482 0.817269 0
M  V30 5752 C 550.951 3.49766 2.4055 0
M  V30 5753 C 548.858 5.69744 1.58573 0
M  V30 5754 H 547.788 0.668287 0.349153 0
M  V30 5755 H 550.439 1.82629 0.178544 0
M  V30 5756 H 548.821 3.08304 2.48526 0
M  V30 5757 H 549.995 4.60752 0.0665988 0
M  V30 5758 H 548.31 4.15827 0.218316 0
M  V30 5759 H 550.907 4.43573 2.98575 0
M  V30 5760 H 551.25 2.73041 3.14252 0
M  V30 5761 H 551.783 3.60341 1.68522 0
M  V30 5762 H 548.522 6.49407 0.891679 0
M  V30 5763 H 548.042 5.53509 2.31059 0
M  V30 5764 H 549.721 6.1051 2.14212 0
M  V30 5765 N 549.853 -0.472356 1.50355 0
M  V30 5766 C 551.081 -1.24784 1.65035 0
M  V30 5767 C 551.496 -1.85837 0.333176 0
M  V30 5768 O 550.853 -1.69168 -0.68472 0
M  V30 5769 C 550.904 -2.35747 2.74054 0
M  V30 5770 O 550.625 -1.77197 4.00665 0
M  V30 5771 C 552.126 -3.26645 2.99696 0
M  V30 5772 H 549.346 -0.377432 0.554785 0
M  V30 5773 H 551.89 -0.563962 1.9657 0
M  V30 5774 H 550.045 -2.99912 2.45217 0
M  V30 5775 H 550.459 -2.5026 4.60945 0
M  V30 5776 H 551.933 -4.00718 3.79644 0
M  V30 5777 H 552.41 -3.8535 2.10718 0
M  V30 5778 H 553.016 -2.68218 3.3006 0
M  V30 5779 N 551.331 -1.39911 -0.725443 0
M  V30 5780 C 552.559 -1.40949 -1.51463 0
M  V30 5781 C 552.974 -0.0065242 -1.88799 0
M  V30 5782 O 552.331 0.967163 -1.54765 0
M  V30 5783 C 552.382 -2.29119 -2.79619 0
M  V30 5784 O 552.103 -3.63952 -2.43866 0
M  V30 5785 C 553.604 -2.38642 -3.73584 0
M  V30 5786 H 550.824 -0.481091 -0.467752 0
M  V30 5787 H 553.368 -1.83843 -0.895651 0
M  V30 5788 H 551.523 -1.89612 -3.37826 0
M  V30 5789 H 551.937 -4.10677 -3.26258 0
M  V30 5790 H 553.411 -3.04563 -4.60375 0
M  V30 5791 H 553.888 -1.40846 -4.16004 0
M  V30 5792 H 554.494 -2.78659 -3.21293 0
M  V30 5793 N 552.809 0.956637 -1.25245 0
M  V30 5794 C 554.049 1.71585 -1.11076 0
M  V30 5795 C 554.413 1.88916 0.34277 0
M  V30 5796 O 555.614 2.61875 0.606227 0
M  V30 5797 C 553.885 3.06267 -1.84215 0
M  V30 5798 S 555.444 3.97469 -1.85914 0
M  V30 5799 H 552.262 0.589803 -0.397055 0
M  V30 5800 H 554.864 1.14114 -1.58739 0
M  V30 5801 H 553.568 2.91322 -2.89067 0
M  V30 5802 H 553.099 3.688 -1.36931 0
M  V30 5803 H 555.114 4.87316 -0.93474 0
M  V30 5804 N 554.287 1.06798 1.15896 0
M  V30 5805 C 555.534 0.787767 1.86549 0
M  V30 5806 C 555.862 -0.685959 1.82002 0
M  V30 5807 O 555.117 -1.5188 1.23414 0
M  V30 5808 C 555.416 1.23414 3.35416 0
M  V30 5809 C 555.082 2.71285 3.6016 0
M  V30 5810 C 553.744 3.11676 3.66622 0
M  V30 5811 C 556.096 3.6676 3.7032 0
M  V30 5812 C 553.424 4.4637 3.8075 0
M  V30 5813 C 555.776 5.01209 3.8597 0
M  V30 5814 C 554.44 5.41229 3.90676 0
M  V30 5815 H 553.71 0.288264 0.682631 0
M  V30 5816 H 556.357 1.338 1.37003 0
M  V30 5817 H 554.662 0.60319 3.87129 0
M  V30 5818 H 556.359 0.994298 3.88477 0
M  V30 5819 H 552.949 2.39015 3.55767 0
M  V30 5820 H 557.133 3.36685 3.64633 0
M  V30 5821 H 552.389 4.76855 3.82648 0
M  V30 5822 H 556.563 5.75067 3.92773 0
M  V30 5823 H 554.19 6.45602 4.01375 0
M  V30 5824 N 555.766 -1.3263 0.851289 0
M  V30 5825 C 557.014 -1.96978 0.452128 0
M  V30 5826 C 557.335 -1.67715 -0.99482 0
M  V30 5827 O 556.605 -0.98259 -1.69476 0
M  V30 5828 H 555.185 -0.72873 0.164202 0
M  V30 5829 H 557.847 -1.61774 1.08698 0
M  V30 5830 H 556.943 -3.06387 0.594407 0
M  V30 5831 N 557.244 -0.608902 -1.45362 0
M  V30 5832 C 558.492 -0.104401 -2.0183 0
M  V30 5833 C 558.813 1.27007 -1.47967 0
M  V30 5834 O 558.083 1.83924 -0.674455 0
M  V30 5835 H 556.663 -0.0356042 -0.746151 0
M  V30 5836 H 559.325 -0.790596 -1.78145 0
M  V30 5837 H 558.421 -0.0551793 -3.12051 0
M  V30 5838 N 558.722 1.53707 -0.348139 0
M  V30 5839 C 559.947 2.05877 0.250883 0
M  V30 5840 C 560.372 1.22115 1.43072 0
M  V30 5841 O 559.73 0.235986 1.79758 0
M  V30 5842 C 559.778 3.54886 0.639416 0
M  V30 5843 O 558.882 3.73948 1.73888 0
M  V30 5844 H 558.223 0.662754 0.040653 0
M  V30 5845 H 560.753 1.98303 -0.503685 0
M  V30 5846 H 560.763 3.97601 0.915295 0
M  V30 5847 H 559.438 4.153 -0.223386 0
M  V30 5848 H 558.015 3.43134 1.45991 0
M  V30 5849 N 560.2 0.0768682 1.57412 0
M  V30 5850 C 561.13 -0.886026 2.16037 0
M  V30 5851 C 562.111 -1.30691 1.08876 0
M  V30 5852 O 563.296 -1.37705 1.36934 0
M  V30 5853 C 560.426 -2.1518 2.72608 0
M  V30 5854 C 559.38 -1.87015 3.8498 0
M  V30 5855 C 558.706 -3.20266 4.28175 0
M  V30 5856 C 560.006 -1.17143 5.08994 0
M  V30 5857 H 561.7 -0.397642 2.96748 0
M  V30 5858 H 559.246 -0.189823 1.42743 0
M  V30 5859 H 561.199 -2.82962 3.12266 0
M  V30 5860 H 559.923 -2.66269 1.89125 0
M  V30 5861 H 558.582 -1.21636 3.45833 0
M  V30 5862 H 558.23 -3.69207 3.41607 0
M  V30 5863 H 557.93 -3.0221 5.03927 0
M  V30 5864 H 559.454 -3.89237 4.70454 0
M  V30 5865 H 560.868 -1.75003 5.45937 0
M  V30 5866 H 559.265 -1.09328 5.90057 0
M  V30 5867 H 560.335 -0.151295 4.84664 0
M  V30 5868 N 561.678 -1.56367 -0.196722 0
M  V30 5869 C 562.926 -1.80172 -0.915554 0
M  V30 5870 C 563.247 -0.649649 -1.8386 0
M  V30 5871 O 562.517 0.332111 -1.93064 0
M  V30 5872 H 561.097 -0.664592 -0.341067 0
M  V30 5873 H 563.759 -1.93844 -0.202622 0
M  V30 5874 H 562.855 -2.7327 -1.50764 0
M  V30 5875 N 563.156 0.464375 -1.50603 0
M  V30 5876 C 564.405 1.21277 -1.61167 0
M  V30 5877 C 564.718 1.92953 -0.320704 0
M  V30 5878 O 565.924 2.69778 -0.30534 0
M  V30 5879 C 564.38 2.20403 -2.84518 0
M  V30 5880 C 563.988 1.54499 -4.20516 0
M  V30 5881 C 565.732 2.95843 -3.0443 0
M  V30 5882 C 563.639 2.51951 -5.35047 0
M  V30 5883 H 562.569 0.456367 -0.600204 0
M  V30 5884 H 565.22 0.48254 -1.77042 0
M  V30 5885 H 563.602 2.96746 -2.62217 0
M  V30 5886 H 564.776 0.83899 -4.53098 0
M  V30 5887 H 563.091 0.913152 -4.06264 0
M  V30 5888 H 565.688 3.6879 -3.87167 0
M  V30 5889 H 566.031 3.55622 -2.16423 0
M  V30 5890 H 566.564 2.26611 -3.26944 0
M  V30 5891 H 563.303 1.96901 -6.25228 0
M  V30 5892 H 562.823 3.20683 -5.06875 0
M  V30 5893 H 564.502 3.13643 -5.65895 0
M  V30 5894 N 564.634 1.40294 0.718013 0
M  V30 5895 C 565.566 1.36281 1.84283 0
M  V30 5896 C 566.579 0.268621 1.60569 0
M  V30 5897 O 567.768 0.528798 1.70487 0
M  V30 5898 C 564.868 1.09741 3.2064 0
M  V30 5899 C 564.041 2.30767 3.71571 0
M  V30 5900 C 563.1 2.00424 4.86535 0
M  V30 5901 O 562.126 2.73268 4.99313 0
M  V30 5902 N 563.328 0.980724 5.72156 0
M  V30 5903 H 566.093 2.3322 1.88225 0
M  V30 5904 H 563.654 1.34616 0.899453 0
M  V30 5905 H 565.646 0.874322 3.95143 0
M  V30 5906 H 564.216 0.214771 3.11861 0
M  V30 5907 H 563.436 2.68921 2.88228 0
M  V30 5908 H 564.724 3.11455 4.02335 0
M  V30 5909 H 564.122 0.377375 5.6444 0
M  V30 5910 H 562.679 0.817538 6.46653 0
M  V30 5911 N 566.112 -0.949982 1.2575 0
M  V30 5912 C 567.342 -1.72721 1.13363 0
M  V30 5913 C 567.75 -1.86562 -0.314842 0
M  V30 5914 O 567.093 -1.36621 -1.22803 0
M  V30 5915 C 567.155 -3.15695 1.7198 0
M  V30 5916 C 566.819 -3.25268 3.21014 0
M  V30 5917 C 567.816 -3.09222 4.17945 0
M  V30 5918 C 565.501 -3.4894 3.61312 0
M  V30 5919 C 567.495 -3.16701 5.53154 0
M  V30 5920 C 565.182 -3.56055 4.96657 0
M  V30 5921 C 566.18 -3.3995 5.92387 0
M  V30 5922 O 565.868 -3.46757 7.25269 0
M  V30 5923 H 565.6 -0.547888 0.395973 0
M  V30 5924 H 568.154 -1.20009 1.66694 0
M  V30 5925 H 566.384 -3.69791 1.13101 0
M  V30 5926 H 568.073 -3.75295 1.54624 0
M  V30 5927 H 568.839 -2.90798 3.88151 0
M  V30 5928 H 564.718 -3.60534 2.87291 0
M  V30 5929 H 568.262 -3.04048 6.27854 0
M  V30 5930 H 564.159 -3.73997 5.26115 0
M  V30 5931 H 564.927 -3.63358 7.33426 0
M  V30 5932 N 567.59 -1.07411 -1.15328 0
M  V30 5933 C 568.5 -0.706438 -2.23711 0
M  V30 5934 C 569.516 0.282586 -1.7169 0
M  V30 5935 O 570.692 0.129066 -2.00986 0
M  V30 5936 C 567.757 -0.11048 -3.46524 0
M  V30 5937 C 566.818 -1.15282 -4.13532 0
M  V30 5938 C 566.051 -0.585205 -5.30482 0
M  V30 5939 O 566.274 0.598549 -5.67251 0
M  V30 5940 O 565.208 -1.33039 -5.87013 0
M  V30 5941 H 569.034 -1.61031 -2.57493 0
M  V30 5942 H 566.619 -0.847113 -1.23062 0
M  V30 5943 H 568.501 0.21957 -4.20828 0
M  V30 5944 H 567.176 0.766703 -3.14489 0
M  V30 5945 H 566.083 -1.53523 -3.41147 0
M  V30 5946 H 567.416 -2.00192 -4.49649 0
M  V30 5947 N 569.068 1.32177 -0.85831 0
M  V30 5948 C 570.345 1.91781 -0.384624 0
M  V30 5949 C 570.725 1.78171 1.13217 0
M  V30 5950 O 570.073 1.18209 1.95548 0
M  V30 5951 C 570.283 3.38414 -0.853047 0
M  V30 5952 C 571.631 4.15542 -0.872359 0
M  V30 5953 O 572.655 3.47148 -0.797926 0
M  V30 5954 O 571.514 5.37678 -0.978009 0
M  V30 5955 H 568.608 0.819259 -0.112886 0
M  V30 5956 H 571.154 1.40923 -0.945453 0
M  V30 5957 H 569.926 3.4228 -1.89632 0
M  V30 5958 H 569.549 3.96683 -0.269874 0
M  V30 5959 N 570.547 0.616602 1.45037 0
M  V30 5960 C 571.494 -0.0969439 2.30596 0
M  V30 5961 C 572.464 -0.851151 1.42635 0
M  V30 5962 O 573.649 -0.835092 1.71554 0
M  V30 5963 C 570.789 -1.08234 3.27688 0
M  V30 5964 C 569.902 -0.328072 4.30752 0
M  V30 5965 C 569.037 -1.30399 5.14946 0
M  V30 5966 C 568.076 -0.538049 6.09731 0
M  V30 5967 N 567.213 -1.46371 6.86673 0
M  V30 5968 H 572.053 0.63864 2.91076 0
M  V30 5969 H 569.59 0.326733 1.43425 0
M  V30 5970 H 571.548 -1.66688 3.82454 0
M  V30 5971 H 570.178 -1.78523 2.68941 0
M  V30 5972 H 569.23 0.372136 3.78575 0
M  V30 5973 H 570.542 0.269142 4.98073 0
M  V30 5974 H 569.696 -1.96032 5.74157 0
M  V30 5975 H 568.435 -1.93514 4.47665 0
M  V30 5976 H 567.44 0.131852 5.49642 0
M  V30 5977 H 568.665 0.0881732 6.79043 0
M  V30 5978 H 566.611 -2.08233 6.22073 0
M  V30 5979 H 566.528 -0.920152 7.50379 0
M  V30 5980 H 567.796 -2.10932 7.50418 0
M  V30 5981 N 572.025 -1.5352 0.356285 0
M  V30 5982 C 573.274 -2.00298 -0.237373 0
M  V30 5983 C 573.587 -1.24784 -1.50627 0
M  V30 5984 O 574.793 -1.62103 -2.17795 0
M  V30 5985 C 573.249 -3.56771 -0.473545 0
M  V30 5986 C 572.857 -4.41154 0.780183 0
M  V30 5987 C 574.601 -4.1193 -1.02537 0
M  V30 5988 C 572.508 -5.89161 0.514108 0
M  V30 5989 H 571.438 -0.748307 -0.092478 0
M  V30 5990 H 574.089 -1.77283 0.473588 0
M  V30 5991 H 572.471 -3.75902 -1.24553 0
M  V30 5992 H 573.645 -4.33797 1.55425 0
M  V30 5993 H 571.96 -3.97052 1.25455 0
M  V30 5994 H 574.557 -5.20133 -1.2396 0
M  V30 5995 H 574.9 -3.65943 -1.98473 0
M  V30 5996 H 575.433 -3.96561 -0.313775 0
M  V30 5997 H 572.172 -6.39408 1.44355 0
M  V30 5998 H 571.692 -5.9939 -0.221632 0
M  V30 5999 H 573.371 -6.46857 0.136122 0
M  V30 6000 N 573.503 -0.0852151 -1.57369 0
M  V30 6001 C 574.451 0.894856 -2.14698 0
M  V30 6002 C 575.445 1.29903 -1.08727 0
M  V30 6003 O 576.651 1.27471 -1.27088 0
M  V30 6004 H 573.026 0.306569 -0.686673 0
M  V30 6005 H 574.997 0.386542 -2.95886 0
M  V30 6006 C 573.746 2.14798 -2.73417 0
M  V30 6007 H 573.069 1.84585 -3.54638 0
M  V30 6008 H 574.509 2.81456 -3.1711 0
M  V30 6009 C 572.968 2.91546 -1.68828 0
M  V30 6010 O 573.498 3.85733 -1.12129 0
M  V30 6011 N 571.704 2.54901 -1.39549 0
M  V30 6012 H 571.251 1.7838 -1.85845 0
M  V30 6013 H 571.209 3.06553 -0.698054 0
M  V30 6014 N 574.981 1.5647 0.188427 0
M  V30 6015 C 576.227 1.81281 0.909124 0
M  V30 6016 C 576.56 0.66034 1.82628 0
M  V30 6017 O 575.835 -0.338737 1.91528 0
M  V30 6018 C 576.118 3.16388 1.7196 0
M  V30 6019 C 575.971 4.42137 0.826714 0
M  V30 6020 C 577.29 3.48256 2.69083 0
M  V30 6021 H 574.409 0.659457 0.329068 0
M  V30 6022 H 577.051 1.89182 0.176156 0
M  V30 6023 H 575.201 3.09784 2.34448 0
M  V30 6024 H 576.873 4.60794 0.216025 0
M  V30 6025 H 575.116 4.33594 0.133792 0
M  V30 6026 H 575.787 5.33184 1.42893 0
M  V30 6027 H 578.263 3.55203 2.16726 0
M  V30 6028 H 577.139 4.43899 3.2287 0
M  V30 6029 H 577.4 2.72088 3.48455 0
M  V30 6030 N 576.459 -0.456382 1.50847 0
M  V30 6031 C 577.707 -1.20497 1.62249 0
M  V30 6032 C 578.028 -1.92156 0.331839 0
M  V30 6033 O 577.298 -1.84751 -0.651443 0
M  V30 6034 H 575.878 -0.447775 0.597918 0
M  V30 6035 H 578.54 -0.525099 1.87693 0
M  V30 6036 H 577.636 -1.94492 2.44089 0
M  V30 6037 N 577.937 -1.40673 -0.710563 0
M  V30 6038 C 579.185 -1.38947 -1.46759 0
M  V30 6039 C 579.506 0.00572879 -1.94999 0
M  V30 6040 O 578.776 0.961358 -1.70689 0
M  V30 6041 H 577.356 -0.5114 -0.544499 0
M  V30 6042 H 580.018 -1.75773 -0.842012 0
M  V30 6043 H 579.114 -2.06745 -2.33801 0
M  V30 6044 N 579.415 0.9433 -1.26252 0
M  V30 6045 C 580.663 1.68592 -1.11451 0
M  V30 6046 C 580.984 1.91957 0.343123 0
M  V30 6047 O 580.254 1.51475 1.24226 0
M  V30 6048 H 578.834 0.624789 -0.409448 0
M  V30 6049 H 581.496 1.13351 -1.58548 0
M  V30 6050 H 580.592 2.66054 -1.63162 0
M  V30 6051 N 580.893 1.08022 1.14757 0
M  V30 6052 C 581.823 0.728248 2.21853 0
M  V30 6053 C 582.804 -0.287486 1.67653 0
M  V30 6054 O 583.989 -0.158727 1.9355 0
M  V30 6055 C 581.119 0.132549 3.47047 0
M  V30 6056 C 580.073 1.07619 4.14249 0
M  V30 6057 C 579.399 0.342907 5.33599 0
M  V30 6058 C 580.699 2.41268 4.63235 0
M  V30 6059 H 582.393 1.62365 2.51551 0
M  V30 6060 H 579.939 0.782125 1.20908 0
M  V30 6061 H 581.892 -0.125665 4.21213 0
M  V30 6062 H 580.616 -0.797971 3.16702 0
M  V30 6063 H 579.275 1.31944 3.42033 0
M  V30 6064 H 578.923 -0.59129 4.99513 0
M  V30 6065 H 578.623 0.971955 5.79506 0
M  V30 6066 H 580.147 0.0926538 6.1053 0
M  V30 6067 H 581.561 2.21232 5.28894 0
M  V30 6068 H 579.958 2.9983 5.19829 0
M  V30 6069 H 581.028 3.03079 3.78512 0
M  V30 6070 N 582.371 -1.3172 0.865308 0
M  V30 6071 C 583.596 -2.01591 0.487415 0
M  V30 6072 C 584.021 -1.6455 -0.911307 0
M  V30 6073 O 583.379 -0.851689 -1.6005 0
M  V30 6074 C 583.427 -3.54759 0.646401 0
M  V30 6075 O 582.531 -4.11185 -0.316284 0
M  V30 6076 H 581.872 -0.634884 0.194468 0
M  V30 6077 H 584.402 -1.68024 1.16744 0
M  V30 6078 H 584.412 -4.04438 0.537932 0
M  V30 6079 H 583.087 -3.8106 1.66632 0
M  V30 6080 H 581.664 -3.72543 -0.163162 0
M  V30 6081 N 583.85 -0.624285 -1.44708 0
M  V30 6082 C 585.098 -0.125802 -2.01708 0
M  V30 6083 C 585.418 1.2543 -1.49306 0
M  V30 6084 O 584.689 1.83198 -0.693924 0
M  V30 6085 H 583.269 -0.0435161 -0.745731 0
M  V30 6086 H 585.931 -0.809446 -1.77296 0
M  V30 6087 H 585.027 -0.0882734 -3.11975 0
M  V30 6088 N 585.328 1.53329 -0.364422 0
M  V30 6089 C 586.605 1.93557 0.281962 0
M  V30 6090 C 586.985 1.29786 1.6649 0
M  V30 6091 O 586.333 0.456512 2.23893 0
M  V30 6092 C 586.543 3.47405 0.333331 0
M  V30 6093 C 587.891 4.20699 0.574231 0
M  V30 6094 O 588.915 3.53779 0.414588 0
M  V30 6095 O 587.774 5.39287 0.885002 0
M  V30 6096 H 584.868 0.809573 0.168881 0
M  V30 6097 H 587.414 1.64494 -0.417121 0
M  V30 6098 H 586.186 3.86091 -0.636326 0
M  V30 6099 H 585.809 3.82697 1.07836 0
M  V30 6100 N 586.806 0.0935595 1.57322 0
M  V30 6101 C 587.756 -0.876521 2.10478 0
M  V30 6102 C 588.74 -1.24482 1.01946 0
M  V30 6103 O 589.932 -1.22016 1.28223 0
M  V30 6104 C 587.061 -2.13615 2.68745 0
M  V30 6105 C 586.147 -1.79335 3.84317 0
M  V30 6106 N 586.538 -1.15606 4.92411 0
M  V30 6107 C 584.836 -2.08954 3.94023 0
M  V30 6108 C 585.537 -0.999036 5.73057 0
M  V30 6109 N 584.513 -1.51585 5.22037 0
M  V30 6110 H 588.315 -0.379829 2.91435 0
M  V30 6111 H 585.829 -0.109699 1.62029 0
M  V30 6112 H 587.826 -2.84053 3.05155 0
M  V30 6113 H 586.486 -2.63851 1.89242 0
M  V30 6114 H 587.497 -0.823063 5.11318 0
M  V30 6115 H 584.174 -2.61416 3.25527 0
M  V30 6116 H 585.564 -0.500772 6.70031 0
M  V30 6117 N 588.284 -1.56567 -0.180126 0
M  V30 6118 C 589.524 -1.83285 -0.904761 0
M  V30 6119 C 589.888 -0.673226 -1.7981 0
M  V30 6120 O 591.089 -0.820645 -2.55967 0
M  V30 6121 C 589.36 -3.15086 -1.68688 0
M  V30 6122 S 590.919 -3.63258 -2.46149 0
M  V30 6123 H 587.737 -0.643114 -0.303193 0
M  V30 6124 H 590.339 -1.94785 -0.167034 0
M  V30 6125 H 589.043 -3.97484 -1.02148 0
M  V30 6126 H 588.574 -3.06504 -2.46615 0
M  V30 6127 H 590.589 -3.29884 -3.70663 0
M  V30 6128 N 589.762 0.448376 -1.51087 0
M  V30 6129 C 590.709 1.54341 -1.71603 0
M  V30 6130 C 591.679 1.56463 -0.557536 0
M  V30 6131 O 592.864 1.73644 -0.79072 0
M  V30 6132 C 590.004 2.92148 -1.83695 0
M  V30 6133 C 589.117 2.99639 -3.11192 0
M  V30 6134 C 588.252 4.285 -3.13944 0
M  V30 6135 C 587.291 4.29819 -4.35801 0
M  V30 6136 N 586.428 5.50186 -4.36164 0
M  V30 6137 H 591.268 1.36151 -2.65079 0
M  V30 6138 H 588.805 0.661585 -1.31383 0
M  V30 6139 H 590.763 3.72093 -1.88687 0
M  V30 6140 H 589.393 3.0892 -0.936374 0
M  V30 6141 H 588.445 2.12425 -3.15562 0
M  V30 6142 H 589.757 2.96474 -4.01129 0
M  V30 6143 H 588.911 5.16811 -3.17791 0
M  V30 6144 H 587.65 4.34307 -2.21876 0
M  V30 6145 H 586.655 3.39902 -4.32142 0
M  V30 6146 H 587.88 4.25685 -5.29121 0
M  V30 6147 H 585.826 5.56735 -3.46961 0
M  V30 6148 H 585.743 5.48856 -5.19897 0
M  V30 6149 H 587.011 6.40559 -4.44189 0
M  V30 6150 N 591.24 1.41047 0.703093 0
M  V30 6151 C 592.187 1.42302 1.81711 0
M  V30 6152 C 593.157 0.278336 1.63751 0
M  V30 6153 O 594.342 0.478266 1.84709 0
M  V30 6154 C 591.482 1.30362 3.19531 0
M  V30 6155 C 590.595 2.54638 3.48975 0
M  V30 6156 C 589.73 2.35047 4.76368 0
M  V30 6157 C 588.769 3.54837 4.98756 0
M  V30 6158 N 587.906 3.34363 6.1737 0
M  V30 6159 H 592.746 2.37516 1.79973 0
M  V30 6160 H 590.283 1.1795 0.878983 0
M  V30 6161 H 592.241 1.21443 3.99134 0
M  V30 6162 H 590.871 0.387602 3.20464 0
M  V30 6163 H 589.923 2.74037 2.63833 0
M  V30 6164 H 591.235 3.43766 3.61423 0
M  V30 6165 H 590.389 2.23552 5.64012 0
M  V30 6166 H 589.128 1.43363 4.66153 0
M  V30 6167 H 588.133 3.66795 4.09563 0
M  V30 6168 H 589.358 4.47464 5.10835 0
M  V30 6169 H 587.304 2.45373 6.08382 0
M  V30 6170 H 587.221 4.17063 6.30551 0
M  V30 6171 H 588.489 3.26626 7.07768 0
M  V30 6172 N 592.718 -0.936591 1.26751 0
M  V30 6173 C 593.965 -1.68331 1.12566 0
M  V30 6174 C 594.293 -1.91677 -0.330168 0
M  V30 6175 O 593.548 -1.49859 -1.2586 0
M  V30 6176 C 593.847 -3.06099 1.84494 0
M  V30 6177 C 593.513 -3.02493 3.34378 0
M  V30 6178 C 592.175 -3.01217 3.75262 0
M  V30 6179 C 594.527 -2.94453 4.30055 0
M  V30 6180 C 591.855 -2.89672 5.10203 0
M  V30 6181 C 594.207 -2.84449 5.65041 0
M  V30 6182 C 592.871 -2.81518 6.0523 0
M  V30 6183 H 592.141 -0.615965 0.411907 0
M  V30 6184 H 594.788 -1.09292 1.5725 0
M  V30 6185 H 593.093 -3.6879 1.32292 0
M  V30 6186 H 594.79 -3.62733 1.70955 0
M  V30 6187 H 591.38 -3.04269 3.01858 0
M  V30 6188 H 595.564 -2.94544 3.99447 0
M  V30 6189 H 590.82 -2.85783 5.40498 0
M  V30 6190 H 594.994 -2.77192 6.38856 0
M  V30 6191 H 592.621 -2.72329 7.09747 0
M  V30 6192 N 594.196 -1.08629 -1.14182 0
M  V30 6193 C 595.444 -0.815731 -1.84906 0
M  V30 6194 C 595.765 0.660441 -1.83475 0
M  V30 6195 O 595.035 1.47888 -1.28476 0
M  V30 6196 H 593.615 -0.298773 -0.684648 0
M  V30 6197 H 596.277 -1.37274 -1.38354 0
M  V30 6198 H 595.373 -1.16193 -2.89665 0
M  V30 6199 N 595.674 1.31259 -0.872281 0
M  V30 6200 C 596.922 1.96233 -0.483409 0
M  V30 6201 C 597.243 1.69276 0.968012 0
M  V30 6202 O 596.513 1.00943 1.67891 0
M  V30 6203 H 595.093 0.726025 -0.175774 0
M  V30 6204 H 597.755 1.60024 -1.11258 0
M  V30 6205 H 596.851 3.05403 -0.643075 0
M  V30 6206 N 597.152 0.631951 1.44375 0
M  V30 6207 C 598.4 0.136497 2.01639 0
M  V30 6208 C 598.721 -1.24637 1.49969 0
M  V30 6209 O 597.991 -1.82827 0.70363 0
M  V30 6210 H 596.571 0.0474703 0.74549 0
M  V30 6211 H 599.233 0.818837 1.76865 0
M  V30 6212 H 598.329 0.104817 3.11924 0
M  V30 6213 N 598.631 -1.53133 0.372548 0
M  V30 6214 C 599.578 -2.25951 -0.470631 0
M  V30 6215 C 600.548 -1.26895 -1.07176 0
M  V30 6216 O 601.733 -1.55691 -1.10294 0
M  V30 6217 C 598.873 -3.05726 -1.6008 0
M  V30 6218 C 597.986 -4.19684 -1.02416 0
M  V30 6219 C 597.121 -4.86888 -2.124 0
M  V30 6220 C 596.16 -5.92866 -1.52238 0
M  V30 6221 N 595.297 -6.53732 -2.56084 0
M  V30 6222 H 600.137 -2.97587 0.156816 0
M  V30 6223 H 597.674 -1.4683 0.0891571 0
M  V30 6224 H 599.632 -3.50258 -2.26661 0
M  V30 6225 H 598.262 -2.36331 -2.1988 0
M  V30 6226 H 597.314 -3.79588 -0.248426 0
M  V30 6227 H 598.626 -4.95821 -0.544366 0
M  V30 6228 H 597.78 -5.34638 -2.86787 0
M  V30 6229 H 596.519 -4.10239 -2.63734 0
M  V30 6230 H 595.524 -5.4447 -0.763685 0
M  V30 6231 H 596.749 -6.71439 -1.0172 0
M  V30 6232 H 594.695 -5.79932 -3.06618 0
M  V30 6233 H 594.612 -7.25429 -2.12811 0
M  V30 6234 H 595.88 -7.0613 -3.30152 0
M  V30 6235 N 600.109 -0.101901 -1.5727 0
M  V30 6236 C 601.337 0.568392 -1.98939 0
M  V30 6237 C 601.752 1.61301 -0.981194 0
M  V30 6238 O 601.109 1.82478 0.0282869 0
M  V30 6239 C 601.16 1.20997 -3.40649 0
M  V30 6240 O 600.881 0.207129 -4.3761 0
M  V30 6241 C 602.382 1.96523 -3.97358 0
M  V30 6242 H 599.602 0.15186 -0.65359 0
M  V30 6243 H 602.146 -0.183198 -2.03678 0
M  V30 6244 H 600.301 1.91245 -3.36904 0
M  V30 6245 H 600.715 0.671071 -5.20189 0
M  V30 6246 H 602.189 2.36764 -4.98645 0
M  V30 6247 H 602.666 2.83376 -3.35552 0
M  V30 6248 H 603.272 1.31076 -4.04598 0
M  V30 6249 N 601.587 1.56661 0.17182 0
M  V30 6250 C 602.497 1.99604 1.2327 0
M  V30 6251 C 603.513 0.907333 1.4847 0
M  V30 6252 O 604.689 1.21492 1.60629 0
M  V30 6253 C 601.754 2.34685 2.55194 0
M  V30 6254 C 600.815 3.57381 2.3786 0
M  V30 6255 C 600.048 3.90779 3.63494 0
M  V30 6256 O 600.271 3.25152 4.6865 0
M  V30 6257 O 599.205 4.84129 3.57634 0
M  V30 6258 H 603.031 2.90114 0.898192 0
M  V30 6259 H 600.616 1.44522 0.378647 0
M  V30 6260 H 602.498 2.5822 3.33017 0
M  V30 6261 H 601.173 1.47336 2.88225 0
M  V30 6262 H 600.08 3.39064 1.5807 0
M  V30 6263 H 601.413 4.45268 2.09754 0
M  V30 6264 N 603.065 -0.440357 1.51323 0
M  V30 6265 C 604.481 -0.7766 1.39431 0
M  V30 6266 C 604.681 -1.95838 0.474296 0
M  V30 6267 O 603.737 -2.52398 -0.0716692 0
M  V30 6268 C 605.05 -1.05981 2.81405 0
M  V30 6269 C 606.598 -1.16442 2.90534 0
M  V30 6270 C 607.073 -1.48058 4.33408 0
M  V30 6271 N 608.564 -1.54988 4.36501 0
M  V30 6272 C 609.299 -1.81017 5.44078 0
M  V30 6273 N 608.795 -2.04858 6.61819 0
M  V30 6274 N 610.588 -1.82774 5.31554 0
M  V30 6275 H 602.739 0.338006 2.09693 0
M  V30 6276 H 605.002 0.0888072 0.943831 0
M  V30 6277 H 604.708 -0.264173 3.50706 0
M  V30 6278 H 604.582 -1.98822 3.20546 0
M  V30 6279 H 606.969 -1.95068 2.21432 0
M  V30 6280 H 607.05 -0.215088 2.54894 0
M  V30 6281 H 606.694 -0.699605 5.03059 0
M  V30 6282 H 606.624 -2.44192 4.66559 0
M  V30 6283 H 609.115 -1.38479 3.51613 0
M  V30 6284 H 609.428 -2.2408 7.396 0
M  V30 6285 H 607.773 -2.02187 6.6494 0
M  V30 6286 H 610.964 -1.63665 4.38556 0
M  V30 6287 H 611.137 -2.02722 6.15474 0
M  V30 6288 N 604.543 -1.41418 -0.695603 0
M  V30 6289 C 605.506 -1.42988 -1.79129 0
M  V30 6290 C 606.506 -0.320514 -1.57573 0
M  V30 6291 O 607.696 -0.58039 -1.64247 0
M  V30 6292 C 604.828 -1.24122 -3.175 0
M  V30 6293 H 606.021 -2.40526 -1.7913 0
M  V30 6294 H 603.574 -1.2756 -0.903225 0
M  V30 6295 H 604.309 -0.274253 -3.23138 0
M  V30 6296 H 604.094 -2.045 -3.34547 0
M  V30 6297 H 605.584 -1.28056 -3.97481 0
M  V30 6298 N 606.021 0.929856 -1.27246 0
M  V30 6299 C 607.437 1.20542 -1.04603 0
M  V30 6300 C 607.637 2.00276 0.221754 0
M  V30 6301 O 606.693 2.34835 0.927833 0
M  V30 6302 C 608.006 1.95566 -2.28417 0
M  V30 6303 C 609.554 2.08513 -2.33433 0
M  V30 6304 C 610.029 2.86943 -3.5697 0
M  V30 6305 N 611.52 2.94512 -3.57515 0
M  V30 6306 C 612.255 3.55656 -4.49774 0
M  V30 6307 N 611.751 4.18209 -5.52334 0
M  V30 6308 N 613.544 3.53038 -4.37402 0
M  V30 6309 H 605.695 0.397113 -2.08655 0
M  V30 6310 H 607.958 0.238277 -0.917566 0
M  V30 6311 H 607.664 1.44395 -3.20691 0
M  V30 6312 H 607.538 2.9619 -2.33563 0
M  V30 6313 H 609.925 2.58872 -1.41666 0
M  V30 6314 H 610.006 1.07117 -2.32292 0
M  V30 6315 H 609.65 2.37268 -4.49072 0
M  V30 6316 H 609.58 3.8862 -3.55362 0
M  V30 6317 H 612.071 2.50053 -2.83341 0
M  V30 6318 H 612.384 4.62796 -6.18902 0
M  V30 6319 H 610.729 4.16761 -5.56179 0
M  V30 6320 H 613.92 3.0337 -3.56489 0
M  V30 6321 H 614.093 4.004 -5.09493 0
M  V30 6322 N 607.499 1.09233 1.13605 0
M  V30 6323 C 608.446 0.729921 2.18954 0
M  V30 6324 C 609.416 -0.287916 1.63586 0
M  V30 6325 O 610.601 -0.170003 1.90041 0
M  V30 6326 C 607.741 0.154489 3.44754 0
M  V30 6327 C 606.854 1.22613 4.14234 0
M  V30 6328 C 605.989 0.613657 5.27644 0
M  V30 6329 C 605.028 1.66674 5.8897 0
M  V30 6330 N 604.165 1.07545 6.93814 0
M  V30 6331 H 609.005 1.63257 2.49302 0
M  V30 6332 H 606.542 0.815693 1.22413 0
M  V30 6333 H 608.5 -0.196923 4.16735 0
M  V30 6334 H 607.13 -0.711433 3.14863 0
M  V30 6335 H 606.182 1.69485 3.40557 0
M  V30 6336 H 607.494 2.0238 4.55899 0
M  V30 6337 H 606.648 0.210976 6.06333 0
M  V30 6338 H 605.387 -0.215584 4.87223 0
M  V30 6339 H 604.392 2.07899 5.08978 0
M  V30 6340 H 605.617 2.49861 6.31464 0
M  V30 6341 H 603.563 0.267451 6.55455 0
M  V30 6342 H 603.48 1.81011 7.3401 0
M  V30 6343 H 604.748 0.698906 7.7636 0
M  V30 6344 N 608.977 -1.30795 0.87923 0
M  V30 6345 C 609.94 -2.26563 0.346676 0
M  V30 6346 C 610.94 -1.52578 -0.507597 0
M  V30 6347 O 612.13 -1.71318 -0.315575 0
M  V30 6348 C 609.262 -3.37115 -0.506611 0
M  V30 6349 H 610.455 -2.75183 1.19223 0
M  V30 6350 H 608.008 -1.41886 0.655598 0
M  V30 6351 H 608.743 -2.93802 -1.37299 0
M  V30 6352 H 608.528 -3.91959 0.105218 0
M  V30 6353 H 610.018 -4.08412 -0.871192 0
M  V30 6354 N 610.455 -0.639598 -1.44038 0
M  V30 6355 C 611.388 0.109736 -2.27936 0
M  V30 6356 C 612.366 0.843095 -1.39035 0
M  V30 6357 O 613.55 0.845456 -1.68476 0
M  V30 6358 C 610.677 1.16173 -3.18153 0
M  V30 6359 C 609.723 0.527954 -4.2322 0
M  V30 6360 S 610.556 -0.688318 -5.31058 0
M  V30 6361 C 611.712 0.363481 -6.24844 0
M  V30 6362 H 611.945 -0.601986 -2.91142 0
M  V30 6363 H 609.478 -0.42802 -1.48349 0
M  V30 6364 H 611.436 1.76372 -3.7068 0
M  V30 6365 H 610.097 1.84569 -2.54151 0
M  V30 6366 H 609.29 1.32054 -4.86393 0
M  V30 6367 H 608.892 0.000396444 -3.74 0
M  V30 6368 H 611.184 1.23362 -6.66174 0
M  V30 6369 H 612.127 -0.23288 -7.07717 0
M  V30 6370 H 612.535 0.693179 -5.60228 0
M  V30 6371 N 611.933 1.52934 -0.380664 0
M  V30 6372 C 612.896 2.24809 0.446473 0
M  V30 6373 C 613.896 1.26133 0.997347 0
M  V30 6374 O 615.086 1.50297 0.880714 0
M  V30 6375 C 612.218 2.99649 1.62553 0
M  V30 6376 H 613.411 2.99343 -0.182677 0
M  V30 6377 H 610.964 1.55736 -0.132618 0
M  V30 6378 H 611.699 2.29395 2.29235 0
M  V30 6379 H 611.484 3.72066 1.23732 0
M  V30 6380 H 612.974 3.54246 2.21133 0
M  V30 6381 N 613.412 0.11024 1.57214 0
M  V30 6382 C 614.658 -0.550684 1.9518 0
M  V30 6383 C 614.991 -1.66885 0.993122 0
M  V30 6384 O 614.266 -1.94479 0.0287907 0
M  V30 6385 C 614.549 -1.09163 3.43155 0
M  V30 6386 C 614.402 0.0225198 4.49794 0
M  V30 6387 C 615.721 -1.98527 3.92778 0
M  V30 6388 H 612.84 -0.198706 0.709708 0
M  V30 6389 H 615.482 0.184024 1.89107 0
M  V30 6390 H 613.632 -1.71775 3.48462 0
M  V30 6391 H 615.304 0.657443 4.56591 0
M  V30 6392 H 613.547 0.686868 4.28328 0
M  V30 6393 H 614.218 -0.39706 5.5057 0
M  V30 6394 H 616.694 -1.458 3.8972 0
M  V30 6395 H 615.57 -2.33298 4.96853 0
M  V30 6396 H 615.831 -2.90846 3.32958 0
M  V30 6397 N 614.89 -1.56749 -0.16351 0
M  V30 6398 C 615.8 -2.00255 -1.2221 0
M  V30 6399 C 616.816 -0.915194 -1.47987 0
M  V30 6400 O 617.992 -1.22342 -1.59982 0
M  V30 6401 C 615.057 -2.36035 -2.53946 0
M  V30 6402 C 614.118 -3.58637 -2.35962 0
M  V30 6403 C 613.351 -3.92701 -3.61416 0
M  V30 6404 O 613.574 -3.27632 -4.66919 0
M  V30 6405 O 612.508 -4.86019 -3.55062 0
M  V30 6406 H 616.334 -2.90586 -0.882794 0
M  V30 6407 H 613.919 -1.44721 -0.370978 0
M  V30 6408 H 615.801 -2.59982 -3.31643 0
M  V30 6409 H 614.476 -1.48863 -2.8744 0
M  V30 6410 H 613.383 -3.39898 -1.5627 0
M  V30 6411 H 614.716 -4.46374 -2.0739 0
M  V30 6412 N 616.368 0.432326 -1.51554 0
M  V30 6413 C 617.645 1.19288 -1.55015 0
M  V30 6414 C 618.025 2.08701 -0.317375 0
M  V30 6415 O 617.373 2.17602 0.697243 0
M  V30 6416 C 617.583 1.99037 -2.86679 0
M  V30 6417 C 618.931 2.55907 -3.38817 0
M  V30 6418 O 619.955 2.09243 -2.88263 0
M  V30 6419 O 618.814 3.41029 -4.27038 0
M  V30 6420 H 615.908 0.543369 -0.623441 0
M  V30 6421 H 618.454 0.440988 -1.6387 0
M  V30 6422 H 617.226 1.33397 -3.6786 0
M  V30 6423 H 616.849 2.81281 -2.8101 0
M  V30 6424 N 617.846 1.41785 0.688094 0
M  V30 6425 C 619.095 1.4084 1.44385 0
M  V30 6426 C 619.408 0.0234166 1.95586 0
M  V30 6427 O 620.614 -0.108647 2.71283 0
M  V30 6428 C 619.07 2.47675 2.61123 0
M  V30 6429 C 618.678 3.92116 2.16677 0
M  V30 6430 C 620.422 2.55877 3.38714 0
M  V30 6431 C 618.329 4.90487 3.30419 0
M  V30 6432 H 617.259 0.523787 0.542368 0
M  V30 6433 H 619.91 1.6764 0.74627 0
M  V30 6434 H 618.292 2.14018 3.33185 0
M  V30 6435 H 619.466 4.35059 1.51856 0
M  V30 6436 H 617.781 3.87642 1.5206 0
M  V30 6437 H 620.378 3.26553 4.234 0
M  V30 6438 H 620.721 1.59801 3.84408 0
M  V30 6439 H 621.254 2.88662 2.73714 0
M  V30 6440 H 617.993 5.87994 2.89729 0
M  V30 6441 H 617.513 4.52187 3.94065 0
M  V30 6442 H 619.192 5.11591 3.96085 0
M  V30 6443 N 619.324 -0.923095 1.27737 0
M  V30 6444 C 620.573 -1.66581 1.13727 0
M  V30 6445 C 620.886 -1.9304 -0.315433 0
M  V30 6446 O 622.092 -2.65309 -0.57651 0
M  V30 6447 C 620.548 -3.00047 1.98745 0
M  V30 6448 C 620.156 -2.8127 3.48699 0
M  V30 6449 C 621.9 -3.77887 1.93395 0
M  V30 6450 C 619.807 -4.1032 4.25901 0
M  V30 6451 H 618.737 -0.624834 0.422017 0
M  V30 6452 H 621.388 -1.02514 1.52194 0
M  V30 6453 H 619.77 -3.65197 1.53125 0
M  V30 6454 H 620.944 -2.24859 4.02213 0
M  V30 6455 H 619.259 -2.16854 3.55476 0
M  V30 6456 H 621.856 -4.73526 2.48348 0
M  V30 6457 H 622.199 -4.06264 0.908605 0
M  V30 6458 H 622.732 -3.19541 2.36935 0
M  V30 6459 H 619.471 -3.8712 5.28978 0
M  V30 6460 H 618.991 -4.66377 3.77163 0
M  V30 6461 H 620.67 -4.78648 4.35321 0
M  V30 6462 N 620.802 -1.09834 -1.13024 0
M  V30 6463 C 622.027 -0.85909 -1.88771 0
M  V30 6464 C 622.452 0.584402 -1.78791 0
M  V30 6465 O 621.81 1.41101 -1.13842 0
M  V30 6466 C 621.858 -1.30427 -3.36186 0
M  V30 6467 O 620.962 -0.465368 -4.09766 0
M  V30 6468 H 620.303 -0.310786 -0.586778 0
M  V30 6469 H 622.833 -1.46355 -1.42973 0
M  V30 6470 H 622.843 -1.2915 -3.8702 0
M  V30 6471 H 621.518 -2.3555 -3.42767 0
M  V30 6472 H 620.095 -0.542814 -3.68928 0
M  V30 6473 N 622.28 1.30327 -0.886154 0
M  V30 6474 C 623.696 1.48676 -0.580323 0
M  V30 6475 C 623.896 1.81189 0.881639 0
M  V30 6476 O 622.952 1.90021 1.66278 0
M  V30 6477 C 624.265 2.60932 -1.49449 0
M  V30 6478 C 625.813 2.74812 -1.49824 0
M  V30 6479 C 626.288 3.90183 -2.39836 0
M  V30 6480 N 627.779 3.97495 -2.37806 0
M  V30 6481 C 628.514 4.86078 -3.04165 0
M  V30 6482 N 628.01 5.79448 -3.79753 0
M  V30 6483 N 629.803 4.79456 -2.93391 0
M  V30 6484 H 621.954 1.07495 -1.8319 0
M  V30 6485 H 624.217 0.532661 -0.784204 0
M  V30 6486 H 623.923 2.43731 -2.5355 0
M  V30 6487 H 623.797 3.57437 -1.20494 0
M  V30 6488 H 626.184 2.91418 -0.464731 0
M  V30 6489 H 626.265 1.78924 -1.82811 0
M  V30 6490 H 625.909 3.74334 -3.43273 0
M  V30 6491 H 625.839 4.85411 -2.04166 0
M  V30 6492 H 628.33 3.30703 -1.82877 0
M  V30 6493 H 628.643 6.43805 -4.27475 0
M  V30 6494 H 626.988 5.79376 -3.8386 0
M  V30 6495 H 630.179 4.05494 -2.33864 0
M  V30 6496 H 630.352 5.48283 -3.45383 0
M  V30 6497 N 623.758 0.647228 1.43697 0
M  V30 6498 C 625.004 0.158422 2.0218 0
M  V30 6499 C 625.337 -1.22233 1.50907 0
M  V30 6500 O 624.612 -1.81478 0.699702 0
M  V30 6501 C 624.895 0.1627 3.59732 0
M  V30 6502 C 624.748 1.57694 4.21251 0
M  V30 6503 C 626.067 -0.504138 4.37203 0
M  V30 6504 H 623.186 0.059042 0.734631 0
M  V30 6505 H 625.828 0.826772 1.71069 0
M  V30 6506 H 623.978 -0.406414 3.86368 0
M  V30 6507 H 625.65 2.19618 4.05667 0
M  V30 6508 H 623.893 2.12603 3.7813 0
M  V30 6509 H 624.564 1.53183 5.3032 0
M  V30 6510 H 627.04 -0.0199841 4.16095 0
M  V30 6511 H 625.916 -0.470394 5.46881 0
M  V30 6512 H 626.177 -1.57726 4.13007 0
M  V30 6513 N 625.236 -1.5273 0.388769 0
M  V30 6514 C 626.652 -1.59553 0.0387049 0
M  V30 6515 C 626.852 -1.40278 -1.44652 0
M  V30 6516 O 625.908 -1.21951 -2.21098 0
M  V30 6517 C 627.221 -2.9625 0.515409 0
M  V30 6518 C 628.769 -3.09426 0.471621 0
M  V30 6519 C 629.244 -4.48572 0.924505 0
M  V30 6520 N 630.735 -4.54754 0.880496 0
M  V30 6521 C 631.47 -5.60653 1.20234 0
M  V30 6522 N 630.966 -6.74198 1.59463 0
M  V30 6523 N 632.759 -5.50755 1.12363 0
M  V30 6524 H 624.91 -1.63508 1.35569 0
M  V30 6525 H 627.173 -0.768097 0.555636 0
M  V30 6526 H 626.879 -3.15569 1.5527 0
M  V30 6527 H 626.753 -3.77102 -0.085792 0
M  V30 6528 H 629.14 -2.89804 -0.556588 0
M  V30 6529 H 629.221 -2.30528 1.10862 0
M  V30 6530 H 628.865 -4.68936 1.95094 0
M  V30 6531 H 628.795 -5.25935 0.264524 0
M  V30 6532 H 631.286 -3.73237 0.591815 0
M  V30 6533 H 631.599 -7.5097 1.82385 0
M  V30 6534 H 629.944 -6.75531 1.63349 0
M  V30 6535 H 633.135 -4.6093 0.816169 0
M  V30 6536 H 633.308 -6.33184 1.37777 0
M  V30 6537 N 626.714 -0.118576 -1.57153 0
M  V30 6538 C 627.962 0.538461 -1.94795 0
M  V30 6539 C 628.283 1.67243 -1.00274 0
M  V30 6540 O 627.553 1.95811 -0.0589692 0
M  V30 6541 H 626.133 0.201904 -0.719197 0
M  V30 6542 H 628.795 -0.187418 -1.93997 0
M  V30 6543 H 627.891 0.933315 -2.97818 0
M  V30 6544 N 628.193 1.56834 0.155195 0
M  V30 6545 C 629.441 1.82536 0.867462 0
M  V30 6546 C 629.762 0.698168 1.82073 0
M  V30 6547 O 629.032 -0.280807 1.93877 0
M  V30 6548 H 627.612 0.673401 0.323327 0
M  V30 6549 H 630.274 1.94313 0.151156 0
M  V30 6550 H 629.37 2.77171 1.43466 0
M  V30 6551 N 629.671 -0.424282 1.51781 0
M  V30 6552 C 630.896 -1.19928 1.6921 0
M  V30 6553 C 631.321 -1.8392 0.394355 0
M  V30 6554 O 630.679 -1.69371 -0.646778 0
M  V30 6555 C 630.727 -2.24937 2.81843 0
M  V30 6556 O 629.831 -3.3073 2.46356 0
M  V30 6557 H 629.172 -0.35078 0.563781 0
M  V30 6558 H 631.702 -0.499401 1.98412 0
M  V30 6559 H 631.712 -2.69512 3.06312 0
M  V30 6560 H 630.387 -1.77742 3.76006 0
M  V30 6561 H 628.964 -2.9154 2.32505 0
M  V30 6562 N 631.149 -1.42148 -0.680565 0
M  V30 6563 C 632.374 -1.45901 -1.47403 0
M  V30 6564 C 632.799 -0.0700985 -1.87969 0
M  V30 6565 O 632.157 0.930145 -1.55621 0
M  V30 6566 C 632.205 -2.38661 -2.70321 0
M  V30 6567 O 631.309 -1.85399 -3.68376 0
M  V30 6568 H 630.65 -0.494565 -0.443059 0
M  V30 6569 H 633.18 -1.86774 -0.835251 0
M  V30 6570 H 633.19 -2.55046 -3.18458 0
M  V30 6571 H 631.865 -3.39571 -2.40134 0
M  V30 6572 H 630.442 -1.78541 -3.2738 0
M  V30 6573 N 632.627 0.916307 -1.28225 0
M  V30 6574 C 633.875 1.6619 -1.15002 0
M  V30 6575 C 634.196 1.92642 0.302329 0
M  V30 6576 O 633.466 1.54076 1.20985 0
M  V30 6577 H 632.046 0.615964 -0.422608 0
M  V30 6578 H 634.708 1.09963 -1.60917 0
M  V30 6579 H 633.804 2.62533 -1.68769 0
M  V30 6580 N 634.105 1.10431 1.1244 0
M  V30 6581 C 635.351 0.857864 1.84424 0
M  V30 6582 C 635.706 -0.609995 1.82474 0
M  V30 6583 O 634.999 -1.44401 1.25932 0
M  V30 6584 C 635.193 1.34022 3.3132 0
M  V30 6585 C 635.022 2.85344 3.47576 0
M  V30 6586 C 633.792 3.53345 3.61213 0
M  V30 6587 C 635.99 3.83446 3.42744 0
M  V30 6588 N 633.972 4.92989 3.65834 0
M  V30 6589 C 635.343 5.09101 3.5386 0
M  V30 6590 C 637.398 3.76154 3.26209 0
M  V30 6591 C 636.101 6.28323 3.50146 0
M  V30 6592 C 638.127 4.94876 3.23809 0
M  V30 6593 C 637.489 6.19378 3.35485 0
M  V30 6594 H 633.588 0.366917 0.690577 0
M  V30 6595 H 636.172 1.40668 1.34613 0
M  V30 6596 H 634.343 0.818727 3.79673 0
M  V30 6597 H 636.075 1.03801 3.91162 0
M  V30 6598 H 632.83 3.03791 3.63329 0
M  V30 6599 H 633.254 5.65762 3.71809 0
M  V30 6600 H 637.896 2.80813 3.16076 0
M  V30 6601 H 635.614 7.23953 3.5905 0
M  V30 6602 H 639.2 4.90942 3.12197 0
M  V30 6603 H 638.08 7.09704 3.33602 0
M  V30 6604 N 635.583 -1.29855 0.893053 0
M  V30 6605 C 636.808 -2.00512 0.530066 0
M  V30 6606 C 637.233 -1.66446 -0.876199 0
M  V30 6607 O 636.591 -0.885446 -1.58207 0
M  V30 6608 C 636.639 -3.53308 0.721505 0
M  V30 6609 O 635.743 -4.11764 -0.228994 0
M  V30 6610 H 635.084 -0.630617 0.207891 0
M  V30 6611 H 637.614 -1.6551 1.20282 0
M  V30 6612 H 637.624 -4.03206 0.623599 0
M  V30 6613 H 636.299 -3.77439 1.74678 0
M  V30 6614 H 634.876 -3.72805 -0.0841034 0
M  V30 6615 N 637.061 -0.65484 -1.43351 0
M  V30 6616 C 638.309 -0.168559 -2.01396 0
M  V30 6617 C 638.63 1.22235 -1.51933 0
M  V30 6618 O 637.9 1.81685 -0.732627 0
M  V30 6619 H 636.48 -0.0593244 -0.744641 0
M  V30 6620 H 639.142 -0.846871 -1.75539 0
M  V30 6621 H 638.238 -0.154428 -3.11718 0
M  V30 6622 N 638.539 1.52521 -0.396863 0
M  V30 6623 C 639.787 2.01274 0.182536 0
M  V30 6624 C 640.108 1.28485 1.46685 0
M  V30 6625 O 639.378 0.407134 1.91623 0
M  V30 6626 H 637.958 0.743671 0.0704442 0
M  V30 6627 H 640.62 1.87547 -0.530289 0
M  V30 6628 H 639.716 3.09687 0.387385 0
M  V30 6629 N 640.017 0.126909 1.57088 0
M  V30 6630 C 640.947 -0.816847 2.18746 0
M  V30 6631 C 641.928 -1.27161 1.12979 0
M  V30 6632 O 643.113 -1.33279 1.41246 0
M  V30 6633 C 640.243 -2.06398 2.79315 0
M  V30 6634 C 639.197 -1.74673 3.90735 0
M  V30 6635 C 638.523 -3.06482 4.38147 0
M  V30 6636 C 639.823 -1.0089 5.12463 0
M  V30 6637 H 641.517 -0.303032 2.97863 0
M  V30 6638 H 639.063 -0.144314 1.43275 0
M  V30 6639 H 641.016 -2.72885 3.2111 0
M  V30 6640 H 639.74 -2.60118 1.975 0
M  V30 6641 H 638.399 -1.10572 3.49527 0
M  V30 6642 H 638.047 -3.58152 3.5318 0
M  V30 6643 H 637.747 -2.86025 5.13287 0
M  V30 6644 H 639.271 -3.74073 4.82599 0
M  V30 6645 H 640.685 -1.57546 5.51228 0
M  V30 6646 H 639.082 -0.905006 5.93237 0
M  V30 6647 H 640.152 0.00297335 4.849 0
M  V30 6648 N 641.495 -1.56914 -0.146875 0
M  V30 6649 C 642.458 -1.97368 -1.16526 0
M  V30 6650 C 643.458 -0.860223 -1.35856 0
M  V30 6651 O 644.648 -1.12684 -1.32846 0
M  V30 6652 C 641.78 -2.28974 -2.52555 0
M  V30 6653 H 642.973 -2.88523 -0.818209 0
M  V30 6654 H 640.526 -1.5135 -0.390221 0
M  V30 6655 H 641.261 -1.40611 -2.92231 0
M  V30 6656 H 641.046 -3.10157 -2.39886 0
M  V30 6657 H 642.536 -2.61109 -3.25902 0
M  V30 6658 N 642.974 0.416227 -1.52004 0
M  V30 6659 C 643.906 1.52552 -1.71058 0
M  V30 6660 C 644.919 1.51693 -0.59102 0
M  V30 6661 O 646.108 1.56087 -0.865973 0
M  V30 6662 C 643.208 2.91455 -1.72937 0
M  V30 6663 C 642.381 3.16584 -3.01816 0
M  V30 6664 C 641.44 4.35322 -2.95603 0
M  V30 6665 O 640.466 4.32947 -3.6952 0
M  V30 6666 N 641.668 5.40049 -2.12903 0
M  V30 6667 H 644.433 1.36604 -2.66757 0
M  V30 6668 H 641.994 0.60544 -1.50153 0
M  V30 6669 H 643.986 3.68944 -1.66321 0
M  V30 6670 H 642.556 3.00895 -0.847418 0
M  V30 6671 H 641.776 2.27203 -3.22137 0
M  V30 6672 H 643.064 3.30213 -3.87088 0
M  V30 6673 H 642.462 5.44823 -1.52265 0
M  V30 6674 H 641.019 6.16308 -2.1215 0
M  V30 6675 N 644.452 1.42507 0.673017 0
M  V30 6676 C 645.4 1.46362 1.80779 0
M  V30 6677 C 646.394 0.339166 1.6597 0
M  V30 6678 O 647.6 0.512262 1.72557 0
M  V30 6679 H 643.975 0.458433 0.596107 0
M  V30 6680 H 645.946 2.41953 1.74646 0
M  V30 6681 C 644.695 1.38462 3.18941 0
M  V30 6682 H 644.018 2.24283 3.30964 0
M  V30 6683 H 645.458 1.45221 3.98355 0
M  V30 6684 C 643.917 0.0996354 3.36753 0
M  V30 6685 O 644.447 -0.846894 3.92671 0
M  V30 6686 N 642.653 0.016211 2.90595 0
M  V30 6687 H 642.2 0.78725 2.45276 0
M  V30 6688 H 642.158 -0.84291 3.0289 0
M  V30 6689 N 645.93 -0.909495 1.28709 0
M  V30 6690 C 647.346 -1.18862 1.06508 0
M  V30 6691 C 647.546 -2.00604 -0.189864 0
M  V30 6692 O 646.602 -2.36281 -0.890355 0
M  V30 6693 C 647.915 -1.91908 2.31499 0
M  V30 6694 C 649.463 -2.04773 2.36721 0
M  V30 6695 C 649.938 -2.81228 3.6149 0
M  V30 6696 N 651.429 -2.88787 3.62155 0
M  V30 6697 C 652.164 -3.48455 4.55375 0
M  V30 6698 N 651.66 -4.09369 5.58918 0
M  V30 6699 N 653.453 -3.46035 4.42963 0
M  V30 6700 H 645.604 -0.363867 2.0926 0
M  V30 6701 H 647.867 -0.223649 0.921241 0
M  V30 6702 H 647.573 -1.39275 3.22948 0
M  V30 6703 H 647.447 -2.92436 2.38245 0
M  V30 6704 H 649.834 -2.56585 1.45767 0
M  V30 6705 H 649.915 -1.03408 2.33967 0
M  V30 6706 H 649.559 -2.30094 4.5279 0
M  V30 6707 H 649.489 -3.82917 3.61499 0
M  V30 6708 H 651.98 -2.45514 2.87283 0
M  V30 6709 H 652.293 -4.52891 6.26187 0
M  V30 6710 H 650.638 -4.0786 5.62739 0
M  V30 6711 H 653.829 -2.9766 3.6127 0
M  V30 6712 H 654.002 -3.92244 5.15799 0
M  V30 6713 N 647.408 -1.11026 -1.11852 0
M  V30 6714 C 648.633 -0.879064 -1.87849 0
M  V30 6715 C 649.058 0.565406 -1.79401 0
M  V30 6716 O 648.416 1.39886 -1.15333 0
M  V30 6717 C 648.464 -1.33985 -3.34784 0
M  V30 6718 O 647.568 -0.508803 -4.09249 0
M  V30 6719 H 646.909 -0.316992 -0.583448 0
M  V30 6720 H 649.439 -1.47863 -1.41413 0
M  V30 6721 H 649.449 -1.33248 -3.85628 0
M  V30 6722 H 648.124 -2.39172 -3.40249 0
M  V30 6723 H 646.701 -0.581913 -3.68332 0
M  V30 6724 N 648.886 1.2938 -0.899927 0
M  V30 6725 C 650.114 1.99691 -0.541386 0
M  V30 6726 C 650.529 1.67355 0.873936 0
M  V30 6727 O 649.886 0.918728 1.57688 0
M  V30 6728 C 649.937 3.54168 -0.72438 0
M  V30 6729 O 649.658 3.85359 -2.08399 0
M  V30 6730 C 651.159 4.41746 -0.370819 0
M  V30 6731 H 648.379 0.638037 -0.207726 0
M  V30 6732 H 650.923 1.6491 -1.20934 0
M  V30 6733 H 649.078 3.87261 -0.103607 0
M  V30 6734 H 649.492 4.80032 -2.11352 0
M  V30 6735 H 650.966 5.49256 -0.549693 0
M  V30 6736 H 651.443 4.33712 0.692148 0
M  V30 6737 H 652.049 4.14125 -0.968543 0
M  V30 6738 N 650.364 0.662433 1.43002 0
M  V30 6739 C 651.613 0.176873 2.00923 0
M  V30 6740 C 651.926 -1.21954 1.52927 0
M  V30 6741 O 653.132 -1.80081 2.03182 0
M  V30 6742 C 651.588 0.265379 3.5892 0
M  V30 6743 C 651.196 1.66507 4.15908 0
M  V30 6744 C 652.94 -0.162103 4.2419 0
M  V30 6745 C 650.847 1.707 5.66229 0
M  V30 6746 H 649.777 0.0623627 0.751417 0
M  V30 6747 H 652.428 0.825813 1.63868 0
M  V30 6748 H 650.81 -0.451235 3.93421 0
M  V30 6749 H 651.984 2.40777 3.92891 0
M  V30 6750 H 650.299 2.03932 3.63044 0
M  V30 6751 H 652.896 -0.150745 5.34487 0
M  V30 6752 H 653.239 -1.19519 3.98774 0
M  V30 6753 H 653.772 0.503075 3.94606 0
M  V30 6754 H 650.511 2.7195 5.96426 0
M  V30 6755 H 650.031 1.00768 5.91275 0
M  V30 6756 H 651.71 1.45487 6.3043 0
M  V30 6757 N 651.842 -1.52309 0.404946 0
M  V30 6758 C 653.07 -2.06185 -0.171818 0
M  V30 6759 C 653.485 -1.27536 -1.39212 0
M  V30 6760 O 652.842 -0.326112 -1.79563 0
M  V30 6761 C 652.893 -3.57647 -0.526417 0
M  V30 6762 O 652.614 -4.3332 0.645417 0
M  V30 6763 C 654.115 -4.27925 -1.15736 0
M  V30 6764 H 651.335 -0.670632 -0.0222328 0
M  V30 6765 H 653.879 -1.96259 0.574692 0
M  V30 6766 H 652.034 -3.67595 -1.22282 0
M  V30 6767 H 652.448 -5.23328 0.35042 0
M  V30 6768 H 653.922 -5.35093 -1.35572 0
M  V30 6769 H 654.399 -3.84134 -2.12926 0
M  V30 6770 H 655.005 -4.22335 -0.501281 0
M  V30 6771 N 653.32 -0.135238 -1.57019 0
M  V30 6772 C 654.55 0.525303 -1.9981 0
M  V30 6773 C 654.958 1.59724 -1.01415 0
M  V30 6774 O 654.301 1.837 -0.00130938 0
M  V30 6775 C 654.363 1.19578 -3.3903 0
M  V30 6776 C 654.027 0.269855 -4.56203 0
M  V30 6777 C 655.024 -0.497905 -5.1751 0
M  V30 6778 C 652.709 0.176188 -5.01991 0
M  V30 6779 C 654.703 -1.3469 -6.23007 0
M  V30 6780 C 652.39 -0.676422 -6.07345 0
M  V30 6781 C 653.388 -1.43658 -6.67721 0
M  V30 6782 O 653.076 -2.27501 -7.71037 0
M  V30 6783 H 652.808 0.142296 -0.660854 0
M  V30 6784 H 655.362 -0.223272 -2.04183 0
M  V30 6785 H 653.592 1.99176 -3.3146 0
M  V30 6786 H 655.281 1.75486 -3.66005 0
M  V30 6787 H 656.047 -0.435507 -4.83041 0
M  V30 6788 H 651.926 0.757583 -4.54733 0
M  V30 6789 H 655.47 -1.9407 -6.70062 0
M  V30 6790 H 651.367 -0.740154 -6.41243 0
M  V30 6791 H 652.135 -2.20619 -7.88206 0
M  V30 6792 N 654.798 1.5699 0.138552 0
M  V30 6793 C 656.214 1.51844 0.491472 0
M  V30 6794 C 656.414 0.845063 1.82923 0
M  V30 6795 O 655.47 0.419143 2.48997 0
M  V30 6796 C 656.783 2.96615 0.493987 0
M  V30 6797 C 658.331 3.076 0.578913 0
M  V30 6798 C 658.806 4.53893 0.612009 0
M  V30 6799 N 660.297 4.5827 0.673997 0
M  V30 6800 C 661.032 5.68852 0.720729 0
M  V30 6801 N 660.528 6.88982 0.726292 0
M  V30 6802 N 662.321 5.56908 0.762253 0
M  V30 6803 H 654.472 1.99158 -0.738228 0
M  V30 6804 H 656.735 0.908693 -0.270149 0
M  V30 6805 H 656.441 3.49172 -0.420933 0
M  V30 6806 H 656.315 3.53017 1.32887 0
M  V30 6807 H 658.702 2.55057 1.48425 0
M  V30 6808 H 658.783 2.54227 -0.283286 0
M  V30 6809 H 658.427 5.07076 -0.289208 0
M  V30 6810 H 658.357 5.05057 1.49082 0
M  V30 6811 H 660.848 3.71793 0.676654 0
M  V30 6812 H 661.161 7.69014 0.764032 0
M  V30 6813 H 659.506 6.91526 0.69403 0
M  V30 6814 H 662.697 4.61969 0.755135 0
M  V30 6815 H 662.87 6.43102 0.795207 0
M  V30 6816 N 656.276 -0.40816 1.52223 0
M  V30 6817 C 657.501 -1.18127 1.70472 0
M  V30 6818 C 657.926 -1.83491 0.41384 0
M  V30 6819 O 657.284 -1.70047 -0.628778 0
M  V30 6820 C 657.332 -2.21935 2.84213 0
M  V30 6821 O 656.436 -3.28099 2.4985 0
M  V30 6822 H 655.777 -0.344781 0.56747 0
M  V30 6823 H 658.307 -0.478328 1.9893 0
M  V30 6824 H 658.317 -2.66248 3.09153 0
M  V30 6825 H 656.992 -1.73744 3.7787 0
M  V30 6826 H 655.569 -2.89058 2.35584 0
M  V30 6827 N 657.755 -1.42862 -0.66545 0
M  V30 6828 C 659.001 -1.4504 -1.426 0
M  V30 6829 C 659.356 -0.0690217 -1.92276 0
M  V30 6830 O 658.649 0.91036 -1.68591 0
M  V30 6831 C 658.843 -2.4175 -2.63233 0
M  V30 6832 C 658.672 -3.89155 -2.25362 0
M  V30 6833 C 657.442 -4.57619 -2.14273 0
M  V30 6834 C 659.64 -4.79326 -1.86417 0
M  V30 6835 N 657.622 -5.90006 -1.69604 0
M  V30 6836 C 658.993 -6.00892 -1.52738 0
M  V30 6837 C 661.048 -4.66696 -1.73492 0
M  V30 6838 C 659.751 -7.11232 -1.0743 0
M  V30 6839 C 661.777 -5.77027 -1.29589 0
M  V30 6840 C 661.139 -6.97712 -0.968393 0
M  V30 6841 H 657.238 -0.585889 -0.517936 0
M  V30 6842 H 659.822 -1.78956 -0.767002 0
M  V30 6843 H 657.993 -2.09881 -3.26809 0
M  V30 6844 H 659.725 -2.34447 -3.29874 0
M  V30 6845 H 656.48 -4.11957 -2.33641 0
M  V30 6846 H 656.904 -6.60249 -1.49666 0
M  V30 6847 H 661.546 -3.7386 -1.97455 0
M  V30 6848 H 659.264 -8.03907 -0.822147 0
M  V30 6849 H 662.85 -5.6927 -1.20095 0
M  V30 6850 H 661.73 -7.81634 -0.63384 0
M  V30 6851 N 659.233 0.902656 -1.29189 0
M  V30 6852 C 660.481 1.6496 -1.16758 0
M  V30 6853 C 660.802 1.92952 0.28188 0
M  V30 6854 O 660.072 1.55351 1.19344 0
M  V30 6855 H 658.652 0.611447 -0.429118 0
M  V30 6856 H 661.314 1.0825 -1.62074 0
M  V30 6857 H 660.41 2.60728 -1.71544 0
M  V30 6858 N 660.711 1.11618 1.11262 0
M  V30 6859 C 662.127 0.850468 1.35053 0
M  V30 6860 C 662.327 -0.523868 1.94571 0
M  V30 6861 O 661.383 -1.2743 2.17986 0
M  V30 6862 C 662.696 1.96005 2.28041 0
M  V30 6863 C 664.244 1.98993 2.416 0
M  V30 6864 C 664.719 3.0916 3.37911 0
M  V30 6865 N 666.21 3.08547 3.45475 0
M  V30 6866 C 666.945 3.9043 4.19943 0
M  V30 6867 N 666.441 4.8228 4.97371 0
M  V30 6868 N 668.234 3.786 4.15474 0
M  V30 6869 H 660.385 2.00184 0.709932 0
M  V30 6870 H 662.648 0.870635 0.375099 0
M  V30 6871 H 662.354 2.9499 1.91503 0
M  V30 6872 H 662.228 1.85782 3.28275 0
M  V30 6873 H 664.615 1.00633 2.77411 0
M  V30 6874 H 664.696 2.13292 1.4121 0
M  V30 6875 H 664.34 4.07748 3.02827 0
M  V30 6876 H 664.27 2.92102 4.3816 0
M  V30 6877 H 666.761 2.42 2.90249 0
M  V30 6878 H 667.074 5.41289 5.51567 0
M  V30 6879 H 665.419 4.863 4.96525 0
M  V30 6880 H 668.61 3.06185 3.54074 0
M  V30 6881 H 668.783 4.42647 4.73253 0
M  V30 6882 N 662.189 -1.289 0.906776 0
M  V30 6883 C 663.414 -1.99939 0.551303 0
M  V30 6884 C 663.839 -1.67366 -0.858496 0
M  V30 6885 O 663.197 -0.902176 -1.57259 0
M  V30 6886 C 663.245 -3.52523 0.758937 0
M  V30 6887 O 662.349 -4.11983 -0.185308 0
M  V30 6888 H 661.69 -0.628376 0.214568 0
M  V30 6889 H 664.22 -1.64225 1.2203 0
M  V30 6890 H 664.23 -4.02522 0.666329 0
M  V30 6891 H 662.905 -3.75566 1.78671 0
M  V30 6892 H 661.482 -3.72873 -0.0445577 0
M  V30 6893 N 663.667 -0.670007 -1.42649 0
M  V30 6894 C 664.597 -0.00258501 -2.335 0
M  V30 6895 C 665.578 0.794364 -1.50412 0
M  V30 6896 O 666.763 0.75248 -1.79029 0
M  V30 6897 C 663.893 0.952748 -3.33976 0
M  V30 6898 C 662.847 0.264733 -4.2718 0
M  V30 6899 C 662.173 1.33267 -5.17826 0
M  V30 6900 C 663.473 -0.853289 -5.15283 0
M  V30 6901 H 665.167 -0.761326 -2.89559 0
M  V30 6902 H 662.713 -0.367561 -1.3923 0
M  V30 6903 H 664.666 1.4287 -3.96442 0
M  V30 6904 H 663.39 1.74285 -2.7621 0
M  V30 6905 H 662.049 -0.190938 -3.66102 0
M  V30 6906 H 661.697 2.11464 -4.5639 0
M  V30 6907 H 661.397 0.877476 -5.81011 0
M  V30 6908 H 662.921 1.80965 -5.83167 0
M  V30 6909 H 664.335 -0.458763 -5.71462 0
M  V30 6910 H 662.732 -1.23398 -5.87276 0
M  V30 6911 H 663.802 -1.70412 -4.53969 0
M  V30 6912 N 665.145 1.52092 -0.413018 0
M  V30 6913 C 666.092 2.27119 0.410558 0
M  V30 6914 C 667.062 1.29692 1.03774 0
M  V30 6915 O 668.247 1.58561 1.06128 0
M  V30 6916 C 665.387 3.09863 1.51918 0
M  V30 6917 C 664.5 4.22252 0.912528 0
M  V30 6918 C 663.635 4.92348 1.99417 0
M  V30 6919 C 662.674 5.96694 1.36466 0
M  V30 6920 N 661.811 6.60292 2.38661 0
M  V30 6921 H 666.651 2.97067 -0.235661 0
M  V30 6922 H 664.188 1.46542 -0.128055 0
M  V30 6923 H 666.146 3.56144 2.17295 0
M  V30 6924 H 664.776 2.42078 2.13537 0
M  V30 6925 H 663.828 3.80113 0.147697 0
M  V30 6926 H 665.14 4.9709 0.412717 0
M  V30 6927 H 664.294 5.42054 2.72512 0
M  V30 6928 H 663.033 4.17087 2.52764 0
M  V30 6929 H 662.038 5.46304 0.61906 0
M  V30 6930 H 663.263 6.73899 0.838827 0
M  V30 6931 H 661.209 5.87858 2.91134 0
M  V30 6932 H 661.126 7.30816 1.93503 0
M  V30 6933 H 662.394 7.14635 3.11314 0
M  V30 6934 N 666.623 0.143563 1.56945 0
M  V30 6935 C 667.853 -0.514699 2.00086 0
M  V30 6936 C 668.261 -1.59184 1.0226 0
M  V30 6937 O 667.604 -1.83697 0.0110514 0
M  V30 6938 C 667.666 -1.17778 3.39659 0
M  V30 6939 C 667.33 -0.245657 4.56339 0
M  V30 6940 C 668.327 0.525343 5.17239 0
M  V30 6941 C 666.012 -0.149564 5.02077 0
M  V30 6942 C 668.006 1.37992 6.22284 0
M  V30 6943 C 665.693 0.708621 6.06978 0
M  V30 6944 C 666.691 1.47197 6.6695 0
M  V30 6945 O 666.379 2.31586 7.6982 0
M  V30 6946 H 666.111 -0.138789 0.661599 0
M  V30 6947 H 668.665 0.234098 2.04062 0
M  V30 6948 H 666.895 -1.97415 3.32512 0
M  V30 6949 H 668.584 -1.73542 3.6693 0
M  V30 6950 H 669.35 0.461118 4.82803 0
M  V30 6951 H 665.229 -0.733457 4.55128 0
M  V30 6952 H 668.773 1.97621 6.69023 0
M  V30 6953 H 664.67 0.77415 6.40841 0
M  V30 6954 H 665.438 2.24796 7.87025 0
M  V30 6955 N 668.101 -1.57061 -0.130224 0
M  V30 6956 C 669.049 -2.00486 -1.17933 0
M  V30 6957 C 670.043 -0.899933 -1.43519 0
M  V30 6958 O 671.249 -1.08514 -1.43613 0
M  V30 6959 H 667.624 -0.638441 -0.397363 0
M  V30 6960 H 669.595 -2.87848 -0.786501 0
M  V30 6961 C 668.344 -2.41565 -2.50084 0
M  V30 6962 H 667.667 -3.26148 -2.31231 0
M  V30 6963 H 669.107 -2.75757 -3.22078 0
M  V30 6964 C 667.566 -1.27485 -3.11848 0
M  V30 6965 O 668.096 -0.584688 -3.97422 0
M  V30 6966 N 666.302 -1.03478 -2.71552 0
M  V30 6967 H 665.849 -1.59779 -2.02061 0
M  V30 6968 H 665.807 -0.27341 -3.13209 0
M  V30 6969 N 669.579 0.400081 -1.52437 0
M  V30 6970 C 670.99 0.97851 -1.59003 0
M  V30 6971 C 671.341 1.91293 -0.436068 0
M  V30 6972 O 670.466 2.1183 0.442365 0
M  V30 6973 C 671.061 1.78145 -2.88184 0
M  V30 6974 C 669.62 2.30976 -2.97199 0
M  V30 6975 C 668.767 1.11212 -2.54022 0
M  V30 6976 H 671.718 0.180002 -1.57676 0
M  V30 6977 H 671.739 2.63968 -2.74046 0
M  V30 6978 H 671.251 1.1011 -3.72152 0
M  V30 6979 H 669.352 3.02355 -2.17744 0
M  V30 6980 H 669.465 2.61221 -4.01622 0
M  V30 6981 H 667.829 1.46882 -2.08081 0
M  V30 6982 H 668.612 0.447307 -3.40373 0
M  V30 6983 N 671.057 1.43213 0.657864 0
M  V30 6984 C 672.303 1.44798 1.41991 0
M  V30 6985 C 672.636 0.070256 1.94073 0
M  V30 6986 O 671.911 -0.908177 1.71995 0
M  V30 6987 C 672.194 2.4865 2.60471 0
M  V30 6988 C 672.047 3.95679 2.13911 0
M  V30 6989 C 673.366 2.49292 3.62686 0
M  V30 6990 H 670.485 0.527244 0.514959 0
M  V30 6991 H 673.127 1.74733 0.74621 0
M  V30 6992 H 671.277 2.23254 3.17946 0
M  V30 6993 H 672.949 4.32116 1.61472 0
M  V30 6994 H 671.192 4.08733 1.45325 0
M  V30 6995 H 671.863 4.6395 2.99089 0
M  V30 6996 H 674.339 2.71917 3.14961 0
M  V30 6997 H 673.215 3.23907 4.43143 0
M  V30 6998 H 673.476 1.52502 4.14964 0
M  V30 6999 N 672.536 -0.895792 1.29666 0
M  V30 7000 C 673.782 -1.64908 1.18039 0
M  V30 7001 C 674.115 -1.9236 -0.266682 0
M  V30 7002 O 673.39 -1.53682 -1.19214 0
M  V30 7003 C 673.673 -2.99574 1.99819 0
M  V30 7004 C 673.526 -2.79163 3.52687 0
M  V30 7005 C 674.845 -4.00358 1.82761 0
M  V30 7006 H 671.964 -0.598437 0.430165 0
M  V30 7007 H 674.606 -1.03736 1.59182 0
M  V30 7008 H 672.756 -3.51786 1.64859 0
M  V30 7009 H 674.428 -2.33821 3.9765 0
M  V30 7010 H 672.671 -2.13871 3.77414 0
M  V30 7011 H 673.342 -3.74871 4.05186 0
M  V30 7012 H 675.818 -3.57268 2.13304 0
M  V30 7013 H 674.694 -4.92514 2.42325 0
M  V30 7014 H 674.955 -4.35096 0.783839 0
M  V30 7015 N 674.014 -1.12206 -1.10668 0
M  V30 7016 C 675.263 -0.870595 -1.81944 0
M  V30 7017 C 675.576 0.605447 -1.85994 0
M  V30 7018 O 676.782 0.973433 -2.53449 0
M  V30 7019 C 675.238 -1.50783 -3.26791 0
M  V30 7020 C 674.846 -3.01849 -3.31046 0
M  V30 7021 C 676.59 -1.33653 -4.02911 0
M  V30 7022 C 674.497 -3.58518 -4.70339 0
M  V30 7023 H 673.427 -0.322043 -0.681765 0
M  V30 7024 H 676.078 -1.34827 -1.24475 0
M  V30 7025 H 674.46 -0.957825 -3.84242 0
M  V30 7026 H 675.634 -3.63321 -2.83433 0
M  V30 7027 H 673.949 -3.18346 -2.68411 0
M  V30 7028 H 676.546 -1.73416 -5.05797 0
M  V30 7029 H 676.889 -0.279949 -4.15358 0
M  V30 7030 H 677.422 -1.85562 -3.51868 0
M  V30 7031 H 674.161 -4.63925 -4.63091 0
M  V30 7032 H 673.681 -3.01819 -5.18329 0
M  V30 7033 H 675.36 -3.57434 -5.39305 0
M  V30 7034 N 675.492 1.28418 -0.913599 0
M  V30 7035 C 676.769 1.89977 -0.465619 0
M  V30 7036 C 677.149 1.82813 1.05559 0
M  V30 7037 O 676.497 1.26397 1.90358 0
M  V30 7038 C 676.707 3.34492 -0.995813 0
M  V30 7039 C 678.055 4.11468 -1.04782 0
M  V30 7040 O 679.079 3.43451 -0.944445 0
M  V30 7041 O 677.938 5.33046 -1.20518 0
M  V30 7042 H 675.032 0.813734 -0.147532 0
M  V30 7043 H 677.578 1.36786 -1.00437 0
M  V30 7044 H 676.35 3.33929 -2.03978 0
M  V30 7045 H 675.973 3.95181 -0.437878 0
M  V30 7046 N 676.97 0.677563 1.42291 0
M  V30 7047 C 678.217 0.200975 2.015 0
M  V30 7048 C 678.545 -1.19342 1.53583 0
M  V30 7049 O 677.8 -1.81579 0.7299 0
M  V30 7050 C 678.099 0.187229 3.56909 0
M  V30 7051 C 677.765 1.52667 4.24268 0
M  V30 7052 C 676.427 1.89341 4.42384 0
M  V30 7053 C 678.779 2.40869 4.62203 0
M  V30 7054 C 676.107 3.13836 4.95705 0
M  V30 7055 C 678.459 3.64679 5.16906 0
M  V30 7056 C 677.123 4.01519 5.33234 0
M  V30 7057 H 676.393 0.0735418 0.737342 0
M  V30 7058 H 679.04 0.873095 1.70439 0
M  V30 7059 H 677.345 -0.568407 3.87655 0
M  V30 7060 H 679.042 -0.198773 4.00507 0
M  V30 7061 H 675.632 1.23138 4.1053 0
M  V30 7062 H 679.816 2.1382 4.47878 0
M  V30 7063 H 675.072 3.42396 5.06532 0
M  V30 7064 H 679.246 4.33224 5.45243 0
M  V30 7065 H 676.873 4.98062 5.74316 0
M  V30 7066 N 678.448 -1.51871 0.421078 0
M  V30 7067 C 679.358 -2.31077 -0.405069 0
M  V30 7068 C 680.374 -1.39301 -1.04265 0
M  V30 7069 O 681.55 -1.72376 -1.04157 0
M  V30 7070 C 678.615 -3.12556 -1.50032 0
M  V30 7071 C 677.676 -4.20088 -0.884559 0
M  V30 7072 C 676.909 -4.97673 -1.92762 0
M  V30 7073 O 677.132 -4.75696 -3.14753 0
M  V30 7074 O 676.066 -5.82203 -1.52719 0
M  V30 7075 H 679.892 -3.02742 0.241086 0
M  V30 7076 H 677.477 -1.48263 0.183991 0
M  V30 7077 H 679.359 -3.6326 -2.13589 0
M  V30 7078 H 678.034 -2.43672 -2.13086 0
M  V30 7079 H 676.941 -3.73502 -0.211379 0
M  V30 7080 H 678.274 -4.91298 -0.297763 0
M  V30 7081 N 679.926 -0.151884 -1.56866 0
M  V30 7082 C 680.859 0.824094 -2.128 0
M  V30 7083 C 681.837 1.2391 -1.05286 0
M  V30 7084 O 683.021 1.33433 -1.33146 0
M  V30 7085 C 680.148 2.1072 -2.65169 0
M  V30 7086 C 679.194 1.83774 -3.84876 0
M  V30 7087 S 680.027 1.02436 -5.25611 0
M  V30 7088 C 681.183 2.31855 -5.81373 0
M  V30 7089 H 681.416 0.348456 -2.95251 0
M  V30 7090 H 678.949 0.0624794 -1.54274 0
M  V30 7091 H 680.907 2.84428 -2.95992 0
M  V30 7092 H 679.568 2.55398 -1.8284 0
M  V30 7093 H 678.761 2.78929 -4.19779 0
M  V30 7094 H 678.363 1.18172 -3.5484 0
M  V30 7095 H 680.655 3.27469 -5.93102 0
M  V30 7096 H 681.598 2.01449 -6.7884 0
M  V30 7097 H 682.006 2.42727 -5.09651 0
M  V30 7098 N 681.404 1.57128 0.121893 0
M  V30 7099 C 682.336 1.96773 1.17529 0
M  V30 7100 C 683.349 0.866668 1.37814 0
M  V30 7101 O 684.538 1.14497 1.3694 0
M  V30 7102 C 681.638 2.24832 2.53582 0
M  V30 7103 C 680.811 3.56138 2.53939 0
M  V30 7104 C 679.87 3.72443 3.71716 0
M  V30 7105 O 678.896 4.44584 3.55434 0
M  V30 7106 N 680.098 3.10993 4.90167 0
M  V30 7107 H 682.863 2.87743 0.838086 0
M  V30 7108 H 680.424 1.58881 0.311199 0
M  V30 7109 H 682.416 2.32958 3.30927 0
M  V30 7110 H 680.986 1.40002 2.79496 0
M  V30 7111 H 680.206 3.59226 1.62329 0
M  V30 7112 H 681.494 4.42448 2.51231 0
M  V30 7113 H 680.892 2.52345 5.06299 0
M  V30 7114 H 679.449 3.24644 5.65198 0
M  V30 7115 N 682.882 -0.391992 1.52647 0
M  V30 7116 C 684.293 -0.970064 1.5952 0
M  V30 7117 C 684.644 -1.91059 0.446207 0
M  V30 7118 O 683.769 -2.12062 -0.431125 0
M  V30 7119 C 684.364 -1.76614 2.89125 0
M  V30 7120 C 682.923 -2.29396 2.9842 0
M  V30 7121 C 682.07 -1.09864 2.54608 0
M  V30 7122 H 685.021 -0.171638 1.57769 0
M  V30 7123 H 685.042 -2.62511 2.75442 0
M  V30 7124 H 684.554 -1.08135 3.72731 0
M  V30 7125 H 682.655 -3.01196 2.19344 0
M  V30 7126 H 682.768 -2.59088 4.03002 0
M  V30 7127 H 681.132 -1.45777 2.08857 0
M  V30 7128 H 681.915 -0.429249 3.40606 0
M  V30 7129 N 684.36 -1.4356 -0.65026 0
M  V30 7130 C 685.609 -1.44619 -1.406 0
M  V30 7131 C 685.922 -0.0752645 -1.95455 0
M  V30 7132 O 687.128 0.0366832 -2.71475 0
M  V30 7133 C 685.584 -2.54511 -2.54465 0
M  V30 7134 C 685.192 -3.97723 -2.06204 0
M  V30 7135 C 686.936 -2.64768 -3.31811 0
M  V30 7136 C 684.843 -4.99075 -3.17298 0
M  V30 7137 H 683.773 -0.537983 -0.52829 0
M  V30 7138 H 686.424 -1.69559 -0.701561 0
M  V30 7139 H 684.806 -2.22777 -3.27393 0
M  V30 7140 H 685.98 -4.38932 -1.40267 0
M  V30 7141 H 684.295 -3.91538 -1.41729 0
M  V30 7142 H 686.892 -3.37664 -4.14593 0
M  V30 7143 H 687.235 -1.69936 -3.80036 0
M  V30 7144 H 687.768 -2.95817 -2.65964 0
M  V30 7145 H 684.507 -5.95469 -2.74038 0
M  V30 7146 H 684.027 -4.62476 -3.81937 0
M  V30 7147 H 685.706 -5.21913 -3.82382 0
M  V30 7148 N 685.838 0.888903 -1.30139 0
M  V30 7149 C 686.788 1.9814 -1.12803 0
M  V30 7150 C 687.772 1.60839 -0.0443137 0
M  V30 7151 O 688.964 1.74971 -0.267208 0
M  V30 7152 C 686.093 3.33416 -0.817849 0
M  V30 7153 C 685.179 3.77043 -1.94163 0
M  V30 7154 N 685.57 3.92805 -3.18651 0
M  V30 7155 C 683.868 4.06407 -1.8371 0
M  V30 7156 C 684.569 4.29746 -3.92038 0
M  V30 7157 N 683.545 4.3939 -3.20059 0
M  V30 7158 H 687.347 2.08411 -2.07225 0
M  V30 7159 H 684.861 1.07845 -1.21421 0
M  V30 7160 H 686.858 4.11405 -0.674668 0
M  V30 7161 H 685.518 3.24484 0.118344 0
M  V30 7162 H 686.529 3.78042 -3.53984 0
M  V30 7163 H 683.206 4.05972 -0.974331 0
M  V30 7164 H 684.596 4.49695 -4.99223 0
M  V30 7165 N 687.317 1.12792 1.10072 0
M  V30 7166 C 688.227 0.812369 2.20086 0
M  V30 7167 C 689.243 -0.200349 1.72843 0
M  V30 7168 O 690.419 -0.0330262 2.01373 0
M  V30 7169 C 687.484 0.275685 3.45602 0
M  V30 7170 C 686.545 1.34881 4.07561 0
M  V30 7171 C 685.778 0.837639 5.27086 0
M  V30 7172 O 686.001 -0.327224 5.69461 0
M  V30 7173 O 684.935 1.60894 5.79997 0
M  V30 7174 H 688.761 1.73133 2.49517 0
M  V30 7175 H 686.346 0.904863 1.18881 0
M  V30 7176 H 688.228 -0.0185375 4.21396 0
M  V30 7177 H 686.903 -0.615783 3.17789 0
M  V30 7178 H 685.81 1.69625 3.33434 0
M  V30 7179 H 687.143 2.21418 4.39585 0
M  V30 7180 N 688.795 -1.27931 0.920396 0
M  V30 7181 C 690.041 -1.94977 0.557832 0
M  V30 7182 C 690.374 -1.72224 -0.897365 0
M  V30 7183 O 689.649 -1.04705 -1.63912 0
M  V30 7184 C 689.932 -3.49289 0.875741 0
M  V30 7185 C 689.785 -3.81416 2.38416 0
M  V30 7186 C 691.104 -4.38486 0.376517 0
M  V30 7187 H 688.223 -0.708164 0.20414 0
M  V30 7188 H 690.865 -1.5118 1.15085 0
M  V30 7189 H 689.015 -3.86724 0.371062 0
M  V30 7190 H 690.687 -3.53813 2.95997 0
M  V30 7191 H 688.93 -3.28225 2.83639 0
M  V30 7192 H 689.601 -4.89198 2.55713 0
M  V30 7193 H 692.077 -4.08161 0.808945 0
M  V30 7194 H 690.953 -5.45296 0.627976 0
M  V30 7195 H 691.214 -4.36143 -0.723293 0
M  V30 7196 N 690.273 -0.685099 -1.4193 0
M  V30 7197 C 691.203 -0.0273506 -2.33484 0
M  V30 7198 C 692.184 0.778366 -1.51246 0
M  V30 7199 O 693.369 0.733449 -1.79817 0
M  V30 7200 C 690.499 0.917272 -3.34968 0
M  V30 7201 C 689.453 0.21941 -4.27437 0
M  V30 7202 C 688.779 1.27768 -5.1921 0
M  V30 7203 C 690.079 -0.907894 -5.14349 0
M  V30 7204 H 691.773 -0.791994 -2.88735 0
M  V30 7205 H 689.319 -0.382308 -1.38832 0
M  V30 7206 H 691.272 1.38657 -3.97935 0
M  V30 7207 H 689.996 1.71346 -2.78043 0
M  V30 7208 H 688.655 -0.229757 -3.65879 0
M  V30 7209 H 688.303 2.06612 -4.58607 0
M  V30 7210 H 688.003 0.815803 -5.81909 0
M  V30 7211 H 689.527 1.7477 -5.85054 0
M  V30 7212 H 690.941 -0.519348 -5.70943 0
M  V30 7213 H 689.338 -1.2962 -5.85934 0
M  V30 7214 H 690.408 -1.75218 -4.52136 0
M  V30 7215 N 691.751 1.51645 -0.429126 0
M  V30 7216 C 693.167 1.59394 -0.080994 0
M  V30 7217 C 693.367 1.44064 1.40882 0
M  V30 7218 O 692.423 1.27771 2.17786 0
M  V30 7219 C 693.736 2.94779 -0.593773 0
M  V30 7220 C 695.284 3.08067 -0.553494 0
M  V30 7221 C 695.759 4.45963 -1.04311 0
M  V30 7222 N 697.25 4.5226 -1.00076 0
M  V30 7223 C 697.985 5.57268 -1.35056 0
M  V30 7224 N 697.481 6.69734 -1.77282 0
M  V30 7225 N 699.274 5.47582 -1.26925 0
M  V30 7226 H 691.425 1.59856 -1.39857 0
M  V30 7227 H 693.688 0.753095 -0.575805 0
M  V30 7228 H 693.394 3.11342 -1.63583 0
M  V30 7229 H 693.268 3.77197 -0.0142202 0
M  V30 7230 H 695.655 2.91177 0.479556 0
M  V30 7231 H 695.736 2.27508 -1.16935 0
M  V30 7232 H 695.38 4.63598 -2.07459 0
M  V30 7233 H 695.31 5.25049 -0.403873 0
M  V30 7234 H 697.801 3.71537 -0.690564 0
M  V30 7235 H 698.114 7.4587 -2.02232 0
M  V30 7236 H 696.459 6.70963 -1.81202 0
M  V30 7237 H 699.65 4.58604 -0.93809 0
M  V30 7238 H 699.823 6.29308 -1.54516 0
M  V30 7239 N 693.229 0.160201 1.56784 0
M  V30 7240 C 694.179 -0.786461 2.14007 0
M  V30 7241 C 695.163 -1.20046 1.07134 0
M  V30 7242 O 696.355 -1.16468 1.33283 0
M  V30 7243 C 693.484 -2.02024 2.77563 0
M  V30 7244 C 692.57 -1.62874 3.91578 0
M  V30 7245 N 692.961 -0.946176 4.96871 0
M  V30 7246 C 691.259 -1.92054 4.02531 0
M  V30 7247 C 691.96 -0.755084 5.76778 0
M  V30 7248 N 690.936 -1.29307 5.27997 0
M  V30 7249 H 694.738 -0.255879 2.92784 0
M  V30 7250 H 692.252 -0.0408778 1.62349 0
M  V30 7251 H 694.249 -2.70855 3.16928 0
M  V30 7252 H 692.909 -2.55587 2.00263 0
M  V30 7253 H 693.92 -0.605455 5.14349 0
M  V30 7254 H 690.597 -2.47374 3.36322 0
M  V30 7255 H 691.987 -0.216138 6.71552 0
M  V30 7256 N 694.707 -1.5719 -0.113559 0
M  V30 7257 C 695.935 -1.89328 -0.834422 0
M  V30 7258 C 696.35 -0.752018 -1.73177 0
M  V30 7259 O 695.707 0.276912 -1.80387 0
M  V30 7260 C 695.758 -3.20962 -1.66329 0
M  V30 7261 O 695.479 -4.30695 -0.802069 0
M  V30 7262 C 696.98 -3.6684 -2.48884 0
M  V30 7263 H 694.2 -0.626769 -0.239587 0
M  V30 7264 H 696.744 -2.04273 -0.0963195 0
M  V30 7265 H 694.899 -3.0767 -2.35409 0
M  V30 7266 H 695.313 -5.06175 -1.37431 0
M  V30 7267 H 696.787 -4.61692 -3.02563 0
M  V30 7268 H 697.264 -2.93765 -3.26495 0
M  V30 7269 H 697.87 -3.82938 -1.85036 0
M  V30 7270 N 696.185 0.383891 -1.52853 0
M  V30 7271 C 697.41 1.154 -1.7233 0
M  V30 7272 C 697.835 1.82809 -0.44298 0
M  V30 7273 O 697.193 1.71026 0.601645 0
M  V30 7274 C 697.241 2.17386 -2.87708 0
M  V30 7275 O 696.345 3.24082 -2.55038 0
M  V30 7276 H 695.686 0.335709 -0.572883 0
M  V30 7277 H 698.216 0.44662 -1.99666 0
M  V30 7278 H 698.226 2.61296 -3.1335 0
M  V30 7279 H 696.901 1.6771 -3.80587 0
M  V30 7280 H 695.478 2.85273 -2.40153 0
M  V30 7281 N 697.663 1.43903 0.642637 0
M  V30 7282 C 698.593 1.52697 1.76652 0
M  V30 7283 C 699.574 0.380816 1.65782 0
M  V30 7284 O 700.759 0.599432 1.84717 0
M  V30 7285 C 697.889 1.45975 3.15133 0
M  V30 7286 C 696.843 2.58949 3.40778 0
M  V30 7287 C 696.169 2.37279 4.79169 0
M  V30 7288 C 697.469 4.01153 3.34475 0
M  V30 7289 H 699.163 2.46766 1.69549 0
M  V30 7290 H 696.709 1.18767 0.814279 0
M  V30 7291 H 698.662 1.5073 3.93521 0
M  V30 7292 H 697.386 0.484162 3.22991 0
M  V30 7293 H 696.045 2.53564 2.64765 0
M  V30 7294 H 695.693 1.37939 4.83717 0
M  V30 7295 H 695.393 3.13016 4.97287 0
M  V30 7296 H 696.917 2.43834 5.59801 0
M  V30 7297 H 698.331 4.07968 4.02784 0
M  V30 7298 H 696.728 4.77001 3.64129 0
M  V30 7299 H 697.798 4.25539 2.32475 0
M  V30 7300 N 699.141 -0.881989 1.30609 0
M  V30 7301 C 700.389 -1.63082 1.19368 0
M  V30 7302 C 700.71 -1.93376 -0.251147 0
M  V30 7303 O 699.98 -1.5723 -1.16857 0
M  V30 7304 H 698.56 -0.604542 0.438791 0
M  V30 7305 H 701.222 -1.05658 1.63776 0
M  V30 7306 H 700.318 -2.57966 1.7567 0
M  V30 7307 N 700.619 -1.13374 -1.09472 0
M  V30 7308 C 702.03 -0.90801 -1.63132 0
M  V30 7309 C 702.381 0.555576 -1.8817 0
M  V30 7310 O 701.506 1.42218 -1.63104 0
M  V30 7311 C 702.101 -1.64182 -2.96361 0
M  V30 7312 C 700.66 -1.46197 -3.46848 0
M  V30 7313 C 699.807 -1.67134 -2.21273 0
M  V30 7314 H 702.758 -1.2871 -0.928411 0
M  V30 7315 H 702.779 -1.09863 -3.64294 0
M  V30 7316 H 702.291 -2.707 -2.78106 0
M  V30 7317 H 700.392 -0.419788 -3.70228 0
M  V30 7318 H 700.505 -2.22472 -4.24315 0
M  V30 7319 H 698.869 -1.09616 -2.29905 0
M  V30 7320 H 699.652 -2.74971 -2.05538 0
M  V30 7321 N 702.098 1.27442 -0.927168 0
M  V30 7322 C 703.028 2.29256 -0.443188 0
M  V30 7323 C 704.009 1.62701 0.49624 0
M  V30 7324 O 705.194 1.90013 0.401105 0
M  V30 7325 C 702.324 3.45955 0.305366 0
M  V30 7326 C 701.278 4.24501 -0.546178 0
M  V30 7327 C 700.604 5.33671 0.331512 0
M  V30 7328 C 701.904 4.89921 -1.81037 0
M  V30 7329 H 703.598 2.69988 -1.29409 0
M  V30 7330 H 701.144 1.29792 -0.623705 0
M  V30 7331 H 703.097 4.1628 0.654885 0
M  V30 7332 H 701.821 3.04138 1.19029 0
M  V30 7333 H 700.48 3.55921 -0.878398 0
M  V30 7334 H 700.128 4.88096 1.21537 0
M  V30 7335 H 699.828 5.87131 -0.234746 0
M  V30 7336 H 701.352 6.0684 0.676614 0
M  V30 7337 H 702.766 5.52536 -1.52895 0
M  V30 7338 H 701.163 5.53436 -2.32009 0
M  V30 7339 H 702.233 4.13652 -2.53021 0
M  V30 7340 N 703.576 0.692616 1.41565 0
M  V30 7341 C 704.486 0.0258451 2.34586 0
M  V30 7342 C 705.502 -0.769324 1.56069 0
M  V30 7343 O 706.678 -0.707563 1.88562 0
M  V30 7344 C 703.743 -0.901289 3.3478 0
M  V30 7345 C 702.804 -0.0986579 4.29187 0
M  V30 7346 C 702.037 -0.981634 5.24595 0
M  V30 7347 O 702.26 -2.22115 5.25377 0
M  V30 7348 O 701.194 -0.432892 6.00341 0
M  V30 7349 H 705.02 0.792537 2.93177 0
M  V30 7350 H 702.605 0.452935 1.42369 0
M  V30 7351 H 704.487 -1.43302 3.96286 0
M  V30 7352 H 703.162 -1.64752 2.78637 0
M  V30 7353 H 702.069 0.477604 3.71039 0
M  V30 7354 H 703.402 0.608848 4.8842 0
M  V30 7355 N 705.054 -1.51416 0.437162 0
M  V30 7356 C 706.017 -2.26312 -0.362729 0
M  V30 7357 C 707.017 -1.29748 -0.949847 0
M  V30 7358 O 708.207 -1.53462 -0.824325 0
M  V30 7359 C 705.339 -3.05475 -1.5132 0
M  V30 7360 H 706.532 -2.98459 0.29365 0
M  V30 7361 H 704.085 -1.55137 0.190327 0
M  V30 7362 H 704.82 -2.37744 -2.20563 0
M  V30 7363 H 704.605 -3.76401 -1.09838 0
M  V30 7364 H 706.095 -3.62209 -2.07833 0
M  V30 7365 N 706.532 -0.168513 -1.56696 0
M  V30 7366 C 707.479 0.762875 -2.17828 0
M  V30 7367 C 708.449 1.22892 -1.11745 0
M  V30 7368 O 709.634 1.29759 -1.39883 0
M  V30 7369 C 706.774 1.9879 -2.82093 0
M  V30 7370 C 705.887 1.56568 -4.02629 0
M  V30 7371 C 705.022 2.74416 -4.54829 0
M  V30 7372 C 704.061 2.28671 -5.67782 0
M  V30 7373 N 703.198 3.39602 -6.14504 0
M  V30 7374 H 708.038 0.23479 -2.97074 0
M  V30 7375 H 705.575 0.104163 -1.46731 0
M  V30 7376 H 707.533 2.70636 -3.17509 0
M  V30 7377 H 706.163 2.48973 -2.05456 0
M  V30 7378 H 705.215 0.744067 -3.73052 0
M  V30 7379 H 706.527 1.18988 -4.844 0
M  V30 7380 H 705.681 3.54423 -4.92412 0
M  V30 7381 H 704.42 3.15254 -3.7211 0
M  V30 7382 H 703.425 1.4711 -5.29753 0
M  V30 7383 H 704.65 1.88894 -6.52301 0
M  V30 7384 H 702.596 3.80021 -5.34715 0
M  V30 7385 H 702.513 3.06105 -6.91257 0
M  V30 7386 H 703.781 4.19902 -6.56737 0
M  V30 7387 N 708.01 1.57248 0.105221 0
M  V30 7388 C 709.426 1.52853 0.459153 0
M  V30 7389 C 709.626 0.883674 1.8109 0
M  V30 7390 O 708.682 0.471864 2.48052 0
M  V30 7391 C 709.995 2.97596 0.43096 0
M  V30 7392 C 711.543 3.08758 0.513536 0
M  V30 7393 C 712.018 4.55089 0.515593 0
M  V30 7394 N 713.509 4.59597 0.576639 0
M  V30 7395 C 714.244 5.70253 0.599904 0
M  V30 7396 N 713.74 6.90368 0.579985 0
M  V30 7397 N 715.533 5.58399 0.643953 0
M  V30 7398 H 707.684 1.97547 -0.780306 0
M  V30 7399 H 709.947 0.902758 -0.289363 0
M  V30 7400 H 709.653 3.48201 -0.494903 0
M  V30 7401 H 709.527 3.55756 1.2537 0
M  V30 7402 H 711.914 2.58148 1.42982 0
M  V30 7403 H 711.995 2.53568 -0.337148 0
M  V30 7404 H 711.639 5.06348 -0.396701 0
M  V30 7405 H 711.569 5.08105 1.38335 0
M  V30 7406 H 714.06 3.73144 0.597639 0
M  V30 7407 H 714.373 7.70462 0.600741 0
M  V30 7408 H 712.718 6.92843 0.547191 0
M  V30 7409 H 715.909 4.63467 0.656975 0
M  V30 7410 H 716.082 6.44644 0.658616 0
M  V30 7411 N 709.488 -0.375779 1.53054 0
M  V30 7412 C 710.42 -1.47963 1.75042 0
M  V30 7413 C 711.433 -1.50073 0.631031 0
M  V30 7414 O 712.622 -1.53736 0.907052 0
M  V30 7415 C 709.722 -2.86767 1.80604 0
M  V30 7416 C 708.895 -3.08471 3.10104 0
M  V30 7417 C 707.954 -4.27332 3.07041 0
M  V30 7418 O 706.98 -4.22998 3.80869 0
M  V30 7419 N 708.182 -5.34214 2.27147 0
M  V30 7420 H 710.947 -1.29484 2.70285 0
M  V30 7421 H 708.508 -0.565416 1.51706 0
M  V30 7422 H 710.5 -3.64404 1.76045 0
M  V30 7423 H 709.07 -2.98542 0.926897 0
M  V30 7424 H 708.29 -2.18583 3.28048 0
M  V30 7425 H 709.578 -3.19834 3.95706 0
M  V30 7426 H 708.976 -5.40594 1.66656 0
M  V30 7427 H 707.533 -6.10467 2.28415 0
M  V30 7428 N 710.966 -1.44241 -0.634997 0
M  V30 7429 C 711.914 -1.51103 -1.76835 0
M  V30 7430 C 712.908 -0.383051 -1.65012 0
M  V30 7431 O 714.114 -0.557832 -1.71138 0
M  V30 7432 H 710.489 -0.474076 -0.583743 0
M  V30 7433 H 712.46 -2.46499 -1.68169 0
M  V30 7434 C 711.209 -1.4687 -3.15158 0
M  V30 7435 H 710.532 -2.32979 -3.24901 0
M  V30 7436 H 711.972 -1.55731 -3.94365 0
M  V30 7437 C 710.431 -0.188884 -3.3637 0
M  V30 7438 O 710.961 0.742487 -3.94778 0
M  V30 7439 N 709.167 -0.0932516 -2.9045 0
M  V30 7440 H 708.714 -0.852004 -2.43102 0
M  V30 7441 H 708.672 0.762308 -3.05018 0
M  V30 7442 N 712.444 0.87505 -1.31075 0
M  V30 7443 C 713.374 1.99775 -1.20881 0
M  V30 7444 C 714.355 1.69822 -0.0971612 0
M  V30 7445 O 715.54 1.92158 -0.280895 0
M  V30 7446 C 712.67 3.35163 -0.910118 0
M  V30 7447 C 711.624 3.79406 -1.98078 0
M  V30 7448 C 710.95 5.12197 -1.53488 0
M  V30 7449 C 712.25 3.97061 -3.39323 0
M  V30 7450 H 713.944 2.08562 -2.14808 0
M  V30 7451 H 711.49 1.00207 -1.03415 0
M  V30 7452 H 713.443 4.13237 -0.825423 0
M  V30 7453 H 712.167 3.26536 0.064822 0
M  V30 7454 H 710.826 3.03568 -2.05528 0
M  V30 7455 H 710.474 5.00007 -0.547941 0
M  V30 7456 H 710.174 5.4277 -2.2511 0
M  V30 7457 H 711.698 5.92785 -1.46417 0
M  V30 7458 H 713.112 4.65545 -3.34576 0
M  V30 7459 H 711.509 4.39025 -4.09118 0
M  V30 7460 H 712.579 3.00601 -3.80483 0
M  V30 7461 N 713.922 1.13953 1.08869 0
M  V30 7462 C 715.338 0.878924 1.33218 0
M  V30 7463 C 715.538 -0.482478 1.95638 0
M  V30 7464 O 714.594 -1.22778 2.2064 0
M  V30 7465 C 715.907 2.00798 2.23832 0
M  V30 7466 C 717.455 2.04073 2.37325 0
M  V30 7467 C 717.93 3.16258 3.31278 0
M  V30 7468 N 719.421 3.15805 3.38853 0
M  V30 7469 C 720.156 3.99249 4.11567 0
M  V30 7470 N 719.652 4.92721 4.87029 0
M  V30 7471 N 721.445 3.87327 4.0735 0
M  V30 7472 H 713.596 2.01645 0.66731 0
M  V30 7473 H 715.859 0.878395 0.356547 0
M  V30 7474 H 715.565 2.98986 1.85203 0
M  V30 7475 H 715.439 1.92704 3.24261 0
M  V30 7476 H 717.826 1.06495 2.75214 0
M  V30 7477 H 717.907 2.16239 1.36654 0
M  V30 7478 H 717.551 4.14079 2.9411 0
M  V30 7479 H 717.481 3.0133 4.31866 0
M  V30 7480 H 719.972 2.48102 2.8505 0
M  V30 7481 H 720.285 5.52867 5.39961 0
M  V30 7482 H 718.63 4.96723 4.86098 0
M  V30 7483 H 721.821 3.13627 3.475 0
M  V30 7484 H 721.994 4.52585 4.63757 0
M  V30 7485 N 715.4 -1.26948 0.933913 0
M  V30 7486 C 716.816 -1.46419 0.635103 0
M  V30 7487 C 717.016 -1.84336 -0.813785 0
M  V30 7488 O 716.072 -1.96061 -1.59111 0
M  V30 7489 C 717.385 -2.55206 1.5903 0
M  V30 7490 C 718.933 -2.69062 1.5992 0
M  V30 7491 C 719.408 -3.81013 2.54152 0
M  V30 7492 N 720.899 -3.88395 2.52395 0
M  V30 7493 C 721.634 -4.74454 3.21996 0
M  V30 7494 N 721.13 -5.64954 4.00997 0
M  V30 7495 N 722.923 -4.68237 3.10983 0
M  V30 7496 H 715.074 -1.00622 1.87053 0
M  V30 7497 H 717.337 -0.503189 0.803433 0
M  V30 7498 H 717.043 -2.34153 2.62422 0
M  V30 7499 H 716.917 -3.52719 1.33677 0
M  V30 7500 H 719.304 -2.89492 0.572569 0
M  V30 7501 H 719.385 -1.72016 1.89325 0
M  V30 7502 H 719.029 -3.61336 3.5693 0
M  V30 7503 H 718.959 -4.77499 2.22041 0
M  V30 7504 H 721.45 -3.23687 1.95025 0
M  V30 7505 H 721.763 -6.27496 4.51074 0
M  V30 7506 H 720.108 -5.6473 4.05099 0
M  V30 7507 H 723.299 -3.96535 2.48753 0
M  V30 7508 H 723.472 -5.35087 3.65494 0
M  V30 7509 N 716.879 -0.700114 -1.41195 0
M  V30 7510 C 717.842 -0.0465706 -2.29153 0
M  V30 7511 C 718.842 0.703302 -1.44604 0
M  V30 7512 O 720.032 0.537513 -1.657 0
M  V30 7513 C 717.164 0.944324 -3.2756 0
M  V30 7514 H 718.357 -0.821064 -2.88442 0
M  V30 7515 H 715.91 -0.463869 -1.49258 0
M  V30 7516 H 716.645 1.74642 -2.73259 0
M  V30 7517 H 716.43 0.409701 -3.89954 0
M  V30 7518 H 717.92 1.39925 -3.9346 0
M  V30 7519 N 718.357 1.51182 -0.445186 0
M  V30 7520 C 719.287 2.30821 0.352686 0
M  V30 7521 C 720.268 1.36576 1.01395 0
M  V30 7522 O 721.453 1.65497 1.01609 0
M  V30 7523 C 718.583 3.15593 1.44976 0
M  V30 7524 C 717.537 4.1818 0.911553 0
M  V30 7525 C 716.863 4.91523 2.10497 0
M  V30 7526 C 718.163 5.22266 -0.059418 0
M  V30 7527 H 719.857 2.97771 -0.311936 0
M  V30 7528 H 717.403 1.43201 -0.151461 0
M  V30 7529 H 719.356 3.70091 2.01521 0
M  V30 7530 H 718.08 2.4648 2.14278 0
M  V30 7531 H 716.739 3.64746 0.368264 0
M  V30 7532 H 716.387 4.18906 2.78437 0
M  V30 7533 H 716.087 5.60898 1.7512 0
M  V30 7534 H 717.611 5.48847 2.6758 0
M  V30 7535 H 719.025 5.71789 0.415985 0
M  V30 7536 H 717.422 5.99213 -0.326152 0
M  V30 7537 H 718.492 4.7461 -0.993631 0
M  V30 7538 N 719.835 0.176821 1.56605 0
M  V30 7539 C 721.112 -0.513365 1.88743 0
M  V30 7540 C 721.492 -1.80929 1.08757 0
M  V30 7541 O 720.84 -2.27765 0.183127 0
M  V30 7542 C 721.05 -0.749925 3.40848 0
M  V30 7543 C 722.398 -1.07747 4.10701 0
M  V30 7544 O 723.422 -0.838277 3.46196 0
M  V30 7545 O 722.281 -1.52901 5.24675 0
M  V30 7546 H 719.375 -0.265296 0.783292 0
M  V30 7547 H 721.921 0.215669 1.68324 0
M  V30 7548 H 720.693 0.16599 3.90948 0
M  V30 7549 H 720.316 -1.53208 3.66897 0
M  V30 7550 N 721.313 -1.57302 -0.09688 0
M  V30 7551 C 722.245 -1.98618 -1.14384 0
M  V30 7552 C 723.258 -0.888483 -1.36418 0
M  V30 7553 O 724.447 -1.16661 -1.35101 0
M  V30 7554 C 721.547 -2.28838 -2.49973 0
M  V30 7555 C 720.72 -3.60132 -2.48241 0
M  V30 7556 C 719.779 -3.7831 -3.65743 0
M  V30 7557 O 718.805 -4.50183 -3.48316 0
M  V30 7558 N 720.007 -3.18752 -4.85157 0
M  V30 7559 H 722.772 -2.8904 -0.792202 0
M  V30 7560 H 720.333 -1.59356 -0.285883 0
M  V30 7561 H 722.325 -2.38193 -3.27179 0
M  V30 7562 H 720.895 -1.44431 -2.77233 0
M  V30 7563 H 720.115 -3.61763 -1.56593 0
M  V30 7564 H 721.403 -4.46389 -2.4416 0
M  V30 7565 H 720.801 -2.60368 -5.0222 0
M  V30 7566 H 719.358 -3.33595 -5.59962 0
M  V30 7567 N 722.791 0.367657 -1.53252 0
M  V30 7568 C 724.021 1.12955 -1.72988 0
M  V30 7569 C 724.429 1.8358 -0.457708 0
M  V30 7570 O 723.772 1.74336 0.579006 0
M  V30 7571 C 723.834 2.20545 -2.83902 0
M  V30 7572 C 723.498 1.69704 -4.24323 0
M  V30 7573 C 724.495 1.16223 -5.06743 0
M  V30 7574 C 722.18 1.7528 -4.70725 0
M  V30 7575 C 724.174 0.689935 -6.33655 0
M  V30 7576 C 721.861 1.27662 -5.97617 0
M  V30 7577 C 722.859 0.746083 -6.78913 0
M  V30 7578 O 722.547 0.276925 -8.03423 0
M  V30 7579 H 722.279 0.343753 -0.582074 0
M  V30 7580 H 724.833 0.433106 -2.00782 0
M  V30 7581 H 723.063 2.93676 -2.51577 0
M  V30 7582 H 724.752 2.82111 -2.91836 0
M  V30 7583 H 725.518 1.11256 -4.72067 0
M  V30 7584 H 721.397 2.15515 -4.07522 0
M  V30 7585 H 724.941 0.275164 -6.97057 0
M  V30 7586 H 720.838 1.32322 -6.31792 0
M  V30 7587 H 721.606 0.396445 -8.17539 0
M  V30 7588 N 724.269 1.44576 0.627338 0
M  V30 7589 C 725.199 1.54562 1.75022 0
M  V30 7590 C 726.18 0.398378 1.65369 0
M  V30 7591 O 727.365 0.61899 1.84071 0
M  V30 7592 C 724.495 1.49309 3.13567 0
M  V30 7593 C 723.449 2.62549 3.38012 0
M  V30 7594 C 722.775 2.42348 4.76625 0
M  V30 7595 C 724.075 4.04678 3.30202 0
M  V30 7596 H 725.769 2.4855 1.66922 0
M  V30 7597 H 723.315 1.19624 0.801636 0
M  V30 7598 H 725.268 1.54895 3.919 0
M  V30 7599 H 723.992 0.518392 3.2246 0
M  V30 7600 H 722.651 2.56358 2.62061 0
M  V30 7601 H 722.299 1.43062 4.82226 0
M  V30 7602 H 721.999 3.18273 4.93939 0
M  V30 7603 H 723.523 2.49758 5.57183 0
M  V30 7604 H 724.937 4.12217 3.98435 0
M  V30 7605 H 723.334 4.80836 3.5905 0
M  V30 7606 H 724.404 4.2798 2.27949 0
M  V30 7607 N 725.747 -0.868086 1.31537 0
M  V30 7608 C 726.68 -1.97871 1.13676 0
M  V30 7609 C 727.658 -1.62551 0.0397589 0
M  V30 7610 O 728.842 -1.87473 0.196539 0
M  V30 7611 C 725.969 -3.30577 0.73734 0
M  V30 7612 C 725.015 -3.8488 1.83765 0
M  V30 7613 S 725.848 -4.10106 3.44345 0
M  V30 7614 C 727.004 -5.45806 3.06344 0
M  V30 7615 H 727.237 -2.12719 2.07697 0
M  V30 7616 H 724.77 -1.01849 1.16044 0
M  V30 7617 H 726.728 -4.07274 0.513641 0
M  V30 7618 H 725.389 -3.13562 -0.183787 0
M  V30 7619 H 724.582 -4.80821 1.51085 0
M  V30 7620 H 724.184 -3.14981 2.01651 0
M  V30 7621 H 726.476 -6.27535 2.55354 0
M  V30 7622 H 727.419 -5.83437 4.01257 0
M  V30 7623 H 727.827 -5.0917 2.43734 0
M  V30 7624 N 727.225 -1.14528 -1.08264 0
M  V30 7625 C 728.135 -0.84728 -2.18765 0
M  V30 7626 C 729.151 0.172826 -1.7314 0
M  V30 7627 O 730.327 0.000985336 -2.014 0
M  V30 7628 C 727.392 -0.330633 -3.4512 0
M  V30 7629 C 726.453 -1.41348 -4.05363 0
M  V30 7630 C 725.686 -0.921387 -5.25686 0
M  V30 7631 O 725.909 0.236587 -5.69909 0
M  V30 7632 O 724.843 -1.70101 -5.77364 0
M  V30 7633 H 728.669 -1.7708 -2.46731 0
M  V30 7634 H 726.254 -0.923661 -1.17426 0
M  V30 7635 H 728.136 -0.0485053 -4.21372 0
M  V30 7636 H 726.811 0.565147 -3.18728 0
M  V30 7637 H 725.718 -1.74908 -3.30693 0
M  V30 7638 H 727.051 -2.28383 -4.36007 0
M  V30 7639 N 728.703 1.26451 -0.940633 0
M  V30 7640 C 729.95 1.93778 -0.587909 0
M  V30 7641 C 730.278 1.73811 0.872935 0
M  V30 7642 O 729.533 1.06816 1.63978 0
M  V30 7643 C 729.832 3.46503 -0.875794 0
M  V30 7644 C 729.498 3.86609 -2.32043 0
M  V30 7645 C 728.16 3.97269 -2.71534 0
M  V30 7646 C 730.512 4.0672 -3.25927 0
M  V30 7647 C 727.84 4.25436 -4.04006 0
M  V30 7648 C 730.192 4.36375 -4.57995 0
M  V30 7649 C 728.856 4.45249 -4.97302 0
M  V30 7650 H 728.126 0.709084 -0.215131 0
M  V30 7651 H 730.773 1.50272 -1.18704 0
M  V30 7652 H 729.078 3.91319 -0.194124 0
M  V30 7653 H 730.775 3.96759 -0.581665 0
M  V30 7654 H 727.365 3.78858 -2.00411 0
M  V30 7655 H 731.549 3.97912 -2.96614 0
M  V30 7656 H 726.805 4.30519 -4.34124 0
M  V30 7657 H 730.979 4.50882 -5.30734 0
M  V30 7658 H 728.606 4.66829 -5.99979 0
M  V30 7659 N 730.181 0.707592 1.40822 0
M  V30 7660 C 731.129 0.0386643 2.32568 0
M  V30 7661 C 732.123 -0.755653 1.51612 0
M  V30 7662 O 733.329 -0.659921 1.67467 0
M  V30 7663 H 729.704 -0.00629912 0.751974 0
M  V30 7664 H 731.675 0.8293 2.86645 0
M  V30 7665 C 730.424 -0.87496 3.36511 0
M  V30 7666 H 729.747 -0.273157 3.98866 0
M  V30 7667 H 731.187 -1.31111 4.03219 0
M  V30 7668 C 729.646 -1.99672 2.71353 0
M  V30 7669 O 730.176 -3.08676 2.57064 0
M  V30 7670 N 728.382 -1.77799 2.29861 0
M  V30 7671 H 727.929 -0.89147 2.41683 0
M  V30 7672 H 727.887 -2.53036 1.86601 0
M  V30 7673 N 731.66 -1.50943 0.453197 0
M  V30 7674 C 732.623 -2.26684 -0.338705 0
M  V30 7675 C 733.623 -1.30748 -0.936032 0
M  V30 7676 O 734.813 -1.54327 -0.808002 0
M  V30 7677 C 731.945 -3.07063 -1.48071 0
M  V30 7678 H 733.138 -2.98131 0.325289 0
M  V30 7679 H 730.691 -1.54926 0.206771 0
M  V30 7680 H 731.426 -2.4007 -2.18029 0
M  V30 7681 H 731.211 -3.77545 -1.0584 0
M  V30 7682 H 732.701 -3.64393 -2.0398 0
M  V30 7683 N 733.138 -0.185124 -1.56509 0
M  V30 7684 C 734.378 0.458547 -1.9919 0
M  V30 7685 C 734.742 1.59484 -1.06906 0
M  V30 7686 O 735.943 2.30201 -1.38783 0
M  V30 7687 C 734.214 0.916263 -3.45455 0
M  V30 7688 S 735.773 1.55918 -4.10165 0
M  V30 7689 H 732.591 0.147008 -0.695636 0
M  V30 7690 H 735.193 -0.285841 -1.93399 0
M  V30 7691 H 733.897 0.0790543 -4.10324 0
M  V30 7692 H 733.428 1.69436 -3.55042 0
M  V30 7693 H 735.443 2.84771 -4.0635 0
M  V30 7694 N 734.616 1.57351 0.0885366 0
M  V30 7695 C 736.032 1.53331 0.442916 0
M  V30 7696 C 736.232 0.902831 1.80142 0
M  V30 7697 O 735.288 0.498147 2.47537 0
M  V30 7698 C 736.601 2.98036 0.399372 0
M  V30 7699 C 738.149 3.09286 0.480759 0
M  V30 7700 C 738.624 4.5561 0.467296 0
M  V30 7701 N 740.115 4.60182 0.52786 0
M  V30 7702 C 740.85 5.70857 0.539388 0
M  V30 7703 N 740.346 6.90944 0.506729 0
M  V30 7704 N 742.139 5.59051 0.584691 0
M  V30 7705 H 734.29 1.96709 -0.801215 0
M  V30 7706 H 736.553 0.899639 -0.298922 0
M  V30 7707 H 736.259 3.47656 -0.531806 0
M  V30 7708 H 736.133 3.57066 1.21589 0
M  V30 7709 H 738.52 2.5965 1.40236 0
M  V30 7710 H 738.601 2.53197 -0.364023 0
M  V30 7711 H 738.245 5.05899 -0.450384 0
M  V30 7712 H 738.175 5.09544 1.32938 0
M  V30 7713 H 740.666 3.73757 0.558028 0
M  V30 7714 H 740.979 7.71055 0.518989 0
M  V30 7715 H 739.324 6.93384 0.473675 0
M  V30 7716 H 742.515 4.64138 0.607781 0
M  V30 7717 H 742.688 6.45307 0.590206 0
M  V30 7718 N 736.094 -0.359525 1.53444 0
M  V30 7719 C 737.334 -1.11014 1.71625 0
M  V30 7720 C 737.698 -1.86376 0.46132 0
M  V30 7721 O 738.899 -2.63724 0.519908 0
M  V30 7722 C 737.17 -2.03907 2.93524 0
M  V30 7723 S 738.729 -2.86408 3.3244 0
M  V30 7724 H 735.547 -0.375352 0.603847 0
M  V30 7725 H 738.149 -0.390604 1.91558 0
M  V30 7726 H 736.853 -1.47316 3.83048 0
M  V30 7727 H 736.384 -2.80324 2.76011 0
M  V30 7728 H 738.399 -4.06241 2.84926 0
M  V30 7729 N 737.572 -1.44907 -0.619662 0
M  V30 7730 C 738.82 -1.47999 -1.37625 0
M  V30 7731 C 739.141 -0.118295 -1.94641 0
M  V30 7732 O 738.411 0.85086 -1.76457 0
M  V30 7733 H 736.991 -0.544993 -0.510873 0
M  V30 7734 H 739.653 -1.80772 -0.728522 0
M  V30 7735 H 738.749 -2.21196 -2.20179 0
M  V30 7736 N 739.05 0.861098 -1.31996 0
M  V30 7737 C 740.461 1.43065 -1.19955 0
M  V30 7738 C 740.812 1.95273 0.190489 0
M  V30 7739 O 739.937 1.87012 1.08882 0
M  V30 7740 C 740.532 2.60052 -2.1716 0
M  V30 7741 C 739.091 3.13026 -2.09026 0
M  V30 7742 C 738.238 1.85756 -2.05888 0
M  V30 7743 H 741.189 0.668834 -1.43918 0
M  V30 7744 H 741.21 3.37016 -1.76637 0
M  V30 7745 H 740.722 2.22024 -3.18319 0
M  V30 7746 H 738.823 3.55653 -1.11092 0
M  V30 7747 H 738.936 3.74707 -2.98549 0
M  V30 7748 H 737.3 2.05088 -1.51033 0
M  V30 7749 H 738.083 1.49954 -3.08818 0
M  V30 7750 N 740.528 1.15101 1.07655 0
M  V30 7751 C 741.768 0.934462 1.81789 0
M  V30 7752 C 742.132 -0.529101 1.84566 0
M  V30 7753 O 743.333 -0.863868 2.5454 0
M  V30 7754 C 741.604 1.52817 3.23082 0
M  V30 7755 S 743.163 1.45429 4.14 0
M  V30 7756 H 739.981 0.336379 0.626395 0
M  V30 7757 H 742.583 1.46593 1.29347 0
M  V30 7758 H 741.287 2.58635 3.18647 0
M  V30 7759 H 740.818 0.995432 3.80598 0
M  V30 7760 H 742.833 0.445058 4.942 0
M  V30 7761 N 742.006 -1.2595 0.947325 0
M  V30 7762 C 743.253 -1.93463 0.598178 0
M  V30 7763 C 743.581 -1.74271 -0.863705 0
M  V30 7764 O 742.836 -1.07684 -1.63409 0
M  V30 7765 C 743.135 -3.46034 0.894158 0
M  V30 7766 C 742.801 -3.85373 2.3409 0
M  V30 7767 C 741.463 -3.95823 2.73637 0
M  V30 7768 C 743.815 -4.04986 3.2808 0
M  V30 7769 C 741.143 -4.23288 4.06257 0
M  V30 7770 C 743.495 -4.3394 4.60303 0
M  V30 7771 C 742.159 -4.42606 4.99656 0
M  V30 7772 H 741.429 -0.707933 0.218889 0
M  V30 7773 H 744.076 -1.4964 1.19499 0
M  V30 7774 H 742.381 -3.9121 0.214874 0
M  V30 7775 H 744.078 -3.96445 0.602698 0
M  V30 7776 H 740.668 -3.7779 2.02417 0
M  V30 7777 H 744.852 -3.96333 2.9872 0
M  V30 7778 H 740.108 -4.28211 4.36401 0
M  V30 7779 H 744.282 -4.48061 5.33118 0
M  V30 7780 H 741.909 -4.63641 6.02446 0
M  V30 7781 N 743.484 -0.715051 -1.40445 0
M  V30 7782 C 744.432 -0.0509974 -2.32544 0
M  V30 7783 C 745.426 0.747602 -1.52011 0
M  V30 7784 O 746.632 0.651031 -1.67814 0
M  V30 7785 H 743.007 0.00231113 -0.751996 0
M  V30 7786 H 744.978 -0.84449 -2.86201 0
M  V30 7787 C 743.727 0.857101 -3.3697 0
M  V30 7788 H 743.05 0.252 -3.99005 0
M  V30 7789 H 744.49 1.28971 -4.03909 0
M  V30 7790 C 742.949 1.98231 -2.72408 0
M  V30 7791 O 743.479 3.07309 -2.58697 0
M  V30 7792 N 741.685 1.76577 -2.308 0
M  V30 7793 H 741.232 0.878641 -2.42152 0
M  V30 7794 H 741.19 2.52043 -1.87941 0
M  V30 7795 N 744.962 1.50701 -0.461195 0
M  V30 7796 C 745.91 2.29918 0.352231 0
M  V30 7797 C 746.904 1.36778 0.999403 0
M  V30 7798 O 748.11 1.54015 0.931639 0
M  V30 7799 H 744.485 0.740249 0.132423 0
M  V30 7800 H 746.456 2.96497 -0.336424 0
M  V30 7801 C 745.205 3.17052 1.42736 0
M  V30 7802 H 744.528 3.88623 0.938747 0
M  V30 7803 H 745.968 3.75493 1.96928 0
M  V30 7804 C 744.427 2.3399 2.42384 0
M  V30 7805 O 744.957 2.01608 3.47444 0
M  V30 7806 N 743.163 1.96758 2.13857 0
M  V30 7807 H 742.71 2.23292 1.28447 0
M  V30 7808 H 742.668 1.41484 2.80766 0
M  V30 7809 N 746.441 0.193421 1.56409 0
M  V30 7810 C 747.689 -0.444908 1.97142 0
M  V30 7811 C 748.01 -1.62268 1.08139 0
M  V30 7812 O 747.28 -1.95307 0.152326 0
M  V30 7813 H 745.86 -0.16736 0.728011 0
M  V30 7814 H 748.522 0.279763 1.92882 0
M  V30 7815 H 747.618 -0.790159 3.01932 0
M  V30 7816 N 747.919 -1.57396 -0.0801906 0
M  V30 7817 C 749.165 -1.87113 -0.782083 0
M  V30 7818 C 749.498 -0.78458 -1.77646 0
M  V30 7819 O 748.773 0.205993 -1.93406 0
M  V30 7820 C 749.056 -3.27483 -1.49756 0
M  V30 7821 C 748.909 -4.46782 -0.520171 0
M  V30 7822 C 750.228 -3.65965 -2.44454 0
M  V30 7823 H 747.347 -0.680559 -0.282858 0
M  V30 7824 H 749.989 -1.89946 -0.0454139 0
M  V30 7825 H 748.139 -3.25199 -2.12551 0
M  V30 7826 H 749.811 -4.61187 0.101919 0
M  V30 7827 H 748.054 -4.33485 0.165219 0
M  V30 7828 H 748.725 -5.41761 -1.05824 0
M  V30 7829 H 751.201 -3.69289 -1.91742 0
M  V30 7830 H 750.077 -4.65086 -2.91524 0
M  V30 7831 H 750.338 -2.95446 -3.28883 0
M  V30 7832 N 749.397 0.351382 -1.53633 0
M  V30 7833 C 750.808 0.927429 -1.62036 0
M  V30 7834 C 751.159 1.89809 -0.496706 0
M  V30 7835 O 750.284 2.1313 0.374749 0
M  V30 7836 C 750.879 1.68886 -2.93706 0
M  V30 7837 C 749.438 2.21404 -3.04397 0
M  V30 7838 C 748.585 1.03075 -2.57431 0
M  V30 7839 H 751.536 0.129748 -1.58169 0
M  V30 7840 H 751.557 2.55116 -2.82305 0
M  V30 7841 H 751.069 0.982149 -3.75467 0
M  V30 7842 H 749.17 2.95274 -2.27253 0
M  V30 7843 H 749.283 2.48312 -4.09729 0
M  V30 7844 H 747.647 1.40188 -2.12649 0
M  V30 7845 H 748.43 0.338793 -3.41624 0
M  V30 7846 N 750.875 1.45233 0.611969 0
M  V30 7847 C 752.124 1.48296 1.36716 0
M  V30 7848 C 752.437 0.12706 1.95187 0
M  V30 7849 O 753.643 0.0353066 2.71477 0
M  V30 7850 C 752.099 2.61168 2.47627 0
M  V30 7851 C 751.707 4.03051 1.95587 0
M  V30 7852 C 753.451 2.73472 3.24674 0
M  V30 7853 C 751.358 5.07312 3.03954 0
M  V30 7854 H 750.288 0.5518 0.513841 0
M  V30 7855 H 752.939 1.7136 0.656359 0
M  V30 7856 H 751.321 2.31379 3.21372 0
M  V30 7857 H 752.495 4.42497 1.2858 0
M  V30 7858 H 750.81 3.95158 1.31298 0
M  V30 7859 H 753.407 3.48537 4.05494 0
M  V30 7860 H 753.75 1.79953 3.75397 0
M  V30 7861 H 754.283 3.02765 2.58028 0
M  V30 7862 H 751.022 6.02525 2.58154 0
M  V30 7863 H 750.542 4.7244 3.69541 0
M  V30 7864 H 752.221 5.31867 3.6841 0
M  V30 7865 N 752.353 -0.854086 1.3245 0
M  V30 7866 C 753.283 -1.97827 1.24044 0
M  V30 7867 C 754.264 -1.69646 0.124166 0
M  V30 7868 O 755.449 -1.91687 0.31143 0
M  V30 7869 C 752.579 -3.33673 0.963324 0
M  V30 7870 C 751.533 -3.76207 2.04089 0
M  V30 7871 C 750.859 -5.0969 1.61618 0
M  V30 7872 C 752.159 -3.91612 3.45597 0
M  V30 7873 H 753.853 -2.05118 2.18099 0
M  V30 7874 H 751.399 -0.985489 1.04996 0
M  V30 7875 H 753.352 -4.11871 0.891061 0
M  V30 7876 H 752.076 -3.26597 -0.0128649 0
M  V30 7877 H 750.735 -3.0026 2.10332 0
M  V30 7878 H 750.383 -4.99072 0.627418 0
M  V30 7879 H 750.083 -5.3912 2.33717 0
M  V30 7880 H 751.607 -5.90381 1.55829 0
M  V30 7881 H 753.021 -4.60163 3.4194 0
M  V30 7882 H 751.418 -4.3246 4.16051 0
M  V30 7883 H 752.488 -2.9451 3.85217 0
M  V30 7884 N 753.831 -1.1567 -1.07043 0
M  V30 7885 C 754.741 -0.870435 -2.17855 0
M  V30 7886 C 755.757 0.154452 -1.73313 0
M  V30 7887 O 756.933 -0.0203759 -2.0139 0
M  V30 7888 C 753.998 -0.367219 -3.4475 0
M  V30 7889 C 753.059 -1.45639 -4.03841 0
M  V30 7890 C 752.292 -0.977092 -5.2468 0
M  V30 7891 O 752.515 0.176127 -5.70128 0
M  V30 7892 O 751.449 -1.76215 -5.75527 0
M  V30 7893 H 755.275 -1.79687 -2.44839 0
M  V30 7894 H 752.86 -0.936064 -1.1644 0
M  V30 7895 H 754.742 -0.0931947 -4.21297 0
M  V30 7896 H 753.417 0.53131 -3.1931 0
M  V30 7897 H 752.324 -1.78406 -3.28819 0
M  V30 7898 H 753.657 -2.32995 -4.3356 0
M  V30 7899 N 755.309 1.25446 -0.953992 0
M  V30 7900 C 756.557 1.92762 -0.607227 0
M  V30 7901 C 756.878 1.7509 0.858399 0
M  V30 7902 O 756.148 1.11416 1.61132 0
M  V30 7903 H 754.728 0.713377 -0.221591 0
M  V30 7904 H 757.39 1.52625 -1.21209 0
M  V30 7905 H 756.486 3.00695 -0.835998 0
M  V30 7906 N 756.787 0.722489 1.40064 0
M  V30 7907 C 758.015 0.274838 2.05066 0
M  V30 7908 C 758.43 -1.08586 1.54449 0
M  V30 7909 O 757.787 -1.68375 0.704003 0
M  V30 7910 C 757.838 0.253673 3.60609 0
M  V30 7911 O 757.559 1.56064 4.0936 0
M  V30 7912 C 759.06 -0.211684 4.42794 0
M  V30 7913 H 756.28 0.12226 0.659768 0
M  V30 7914 H 758.824 0.982632 1.79345 0
M  V30 7915 H 756.979 -0.405137 3.85276 0
M  V30 7916 H 757.393 1.46576 5.03603 0
M  V30 7917 H 758.867 -0.175341 5.51721 0
M  V30 7918 H 759.344 -1.25493 4.2089 0
M  V30 7919 H 759.95 0.4171 4.2325 0
M  V30 7920 N 758.265 -1.50454 0.469181 0
M  V30 7921 C 759.49 -2.0722 -0.0864892 0
M  V30 7922 C 759.915 -1.33098 -1.32916 0
M  V30 7923 O 759.273 -0.378084 -1.77314 0
M  V30 7924 C 759.321 -3.58845 -0.355384 0
M  V30 7925 O 758.425 -3.86583 -1.43622 0
M  V30 7926 H 757.766 -0.663889 0.0121414 0
M  V30 7927 H 760.296 -1.93674 0.659674 0
M  V30 7928 H 760.306 -4.03617 -0.596447 0
M  V30 7929 H 758.981 -4.12211 0.552698 0
M  V30 7930 H 757.558 -3.5365 -1.18262 0
M  V30 7931 N 759.743 -0.201713 -1.56304 0
M  V30 7932 C 760.983 0.437395 -1.99665 0
M  V30 7933 C 761.347 1.58341 -1.08592 0
M  V30 7934 O 762.548 2.28716 -1.41217 0
M  V30 7935 C 760.819 0.879572 -3.46408 0
M  V30 7936 S 762.378 1.51558 -4.11795 0
M  V30 7937 H 759.196 0.139621 -0.697156 0
M  V30 7938 H 761.798 -0.306337 -1.93085 0
M  V30 7939 H 760.502 0.0355295 -4.10385 0
M  V30 7940 H 760.033 1.65661 -3.56819 0
M  V30 7941 H 762.048 2.80445 -4.09347 0
M  V30 7942 N 761.222 1.57436 0.0718424 0
M  V30 7943 C 762.638 1.53792 0.426628 0
M  V30 7944 C 762.838 0.921887 1.79174 0
M  V30 7945 O 761.894 0.524374 2.46995 0
M  V30 7946 C 763.207 2.98443 0.367739 0
M  V30 7947 C 764.755 3.09778 0.447928 0
M  V30 7948 C 765.23 4.5608 0.418946 0
M  V30 7949 N 766.721 4.60716 0.479022 0
M  V30 7950 C 767.456 5.71397 0.47881 0
M  V30 7951 N 766.952 6.91443 0.433417 0
M  V30 7952 N 768.745 5.59639 0.525364 0
M  V30 7953 H 760.896 1.95848 -0.822033 0
M  V30 7954 H 763.159 0.896418 -0.308447 0
M  V30 7955 H 762.865 3.47072 -0.56865 0
M  V30 7956 H 762.739 3.58335 1.17795 0
M  V30 7957 H 765.126 2.61122 1.37474 0
M  V30 7958 H 765.207 2.52796 -0.390857 0
M  V30 7959 H 764.851 5.05393 -0.504016 0
M  V30 7960 H 764.781 5.10925 1.27526 0
M  V30 7961 H 767.272 3.74328 0.518355 0
M  V30 7962 H 767.585 7.71562 0.43718 0
M  V30 7963 H 765.93 6.93847 0.400106 0
M  V30 7964 H 769.121 4.64756 0.558519 0
M  V30 7965 H 769.294 6.45896 0.52173 0
M  V30 7966 N 762.7 -0.34323 1.53817 0
M  V30 7967 C 763.94 -1.09188 1.72793 0
M  V30 7968 C 764.304 -1.85876 0.481062 0
M  V30 7969 O 765.505 -2.63158 0.547851 0
M  V30 7970 C 763.776 -2.00783 2.9567 0
M  V30 7971 S 765.335 -2.82866 3.35459 0
M  V30 7972 H 762.153 -0.368926 0.607795 0
M  V30 7973 H 764.755 -0.370265 1.91962 0
M  V30 7974 H 763.459 -1.43245 3.84589 0
M  V30 7975 H 762.99 -2.77381 2.78968 0
M  V30 7976 H 765.005 -4.03196 2.89218 0
M  V30 7977 N 764.178 -1.45556 -0.604258 0
M  V30 7978 C 765.11 -1.50494 -1.72871 0
M  V30 7979 C 766.123 -0.395368 -1.57926 0
M  V30 7980 O 767.312 -0.662603 -1.65746 0
M  V30 7981 C 764.412 -1.34874 -3.10906 0
M  V30 7982 C 763.585 -2.59564 -3.52058 0
M  V30 7983 C 762.644 -2.38453 -4.6907 0
M  V30 7984 O 761.67 -3.12082 -4.76018 0
M  V30 7985 N 762.872 -1.43229 -5.62553 0
M  V30 7986 H 765.637 -2.4744 -1.69097 0
M  V30 7987 H 763.198 -1.41338 -0.789636 0
M  V30 7988 H 765.19 -1.18556 -3.86945 0
M  V30 7989 H 763.76 -0.461913 -3.09168 0
M  V30 7990 H 762.98 -2.90974 -2.65946 0
M  V30 7991 H 764.268 -3.42441 -3.76313 0
M  V30 7992 H 763.666 -0.824714 -5.59656 0
M  V30 7993 H 762.223 -1.32882 -6.38111 0
M  V30 7994 N 765.656 0.84705 -1.32902 0
M  V30 7995 C 766.896 1.61554 -1.25218 0
M  V30 7996 C 767.26 1.91141 0.18143 0
M  V30 7997 O 768.461 2.6607 0.382106 0
M  V30 7998 C 766.732 2.89553 -2.09509 0
M  V30 7999 S 768.291 3.80283 -2.18931 0
M  V30 8000 H 765.109 0.554031 -0.445613 0
M  V30 8001 H 767.711 1.00251 -1.67839 0
M  V30 8002 H 766.415 2.65776 -3.12716 0
M  V30 8003 H 765.946 3.55868 -1.67694 0
M  V30 8004 H 767.961 4.77641 -1.34438 0
M  V30 8005 N 767.134 1.16236 1.06428 0
M  V30 8006 C 768.55 0.906983 1.31324 0
M  V30 8007 C 768.75 -0.440872 1.96618 0
M  V30 8008 O 767.806 -1.1807 2.23194 0
M  V30 8009 C 769.119 2.05501 2.19522 0
M  V30 8010 C 770.667 2.09061 2.32943 0
M  V30 8011 C 771.142 3.23214 3.24495 0
M  V30 8012 N 772.633 3.22922 3.32078 0
M  V30 8013 C 773.368 4.07889 4.03006 0
M  V30 8014 N 772.864 5.02941 4.76469 0
M  V30 8015 N 774.657 3.95881 3.99043 0
M  V30 8016 H 766.808 2.03015 0.624388 0
M  V30 8017 H 769.071 0.88576 0.337835 0
M  V30 8018 H 768.777 3.02847 1.78819 0
M  V30 8019 H 768.651 1.99538 3.201 0
M  V30 8020 H 771.038 1.12308 2.72893 0
M  V30 8021 H 771.119 2.19089 1.32037 0
M  V30 8022 H 770.763 4.20225 2.85261 0
M  V30 8023 H 770.693 3.10423 4.25377 0
M  V30 8024 H 773.184 2.54093 2.79724 0
M  V30 8025 H 773.497 5.64196 5.28112 0
M  V30 8026 H 771.842 5.06922 4.75453 0
M  V30 8027 H 775.033 3.20927 3.40769 0
M  V30 8028 H 775.206 4.62321 4.54052 0
M  V30 8029 N 768.612 -1.24939 0.960631 0
M  V30 8030 C 769.542 -2.28 0.503815 0
M  V30 8031 C 770.523 -1.63959 -0.452928 0
M  V30 8032 O 771.708 -1.91009 -0.350585 0
M  V30 8033 C 768.838 -3.46643 -0.213535 0
M  V30 8034 C 767.792 -4.22903 0.658535 0
M  V30 8035 C 767.118 -5.34363 -0.189902 0
M  V30 8036 C 768.418 -4.84949 1.93963 0
M  V30 8037 H 770.112 -2.66462 1.36521 0
M  V30 8038 H 767.658 -1.28093 0.657897 0
M  V30 8039 H 769.611 -4.1787 -0.544286 0
M  V30 8040 H 768.335 -3.07187 -1.10923 0
M  V30 8041 H 766.994 -3.53467 0.972455 0
M  V30 8042 H 766.642 -4.91147 -1.08553 0
M  V30 8043 H 766.342 -5.86302 0.390331 0
M  V30 8044 H 767.866 -6.0842 -0.515484 0
M  V30 8045 H 769.28 -5.48288 1.67491 0
M  V30 8046 H 767.677 -5.47091 2.46601 0
M  V30 8047 H 768.747 -4.06799 2.639 0
M  V30 8048 N 770.09 -0.729906 -1.39679 0
M  V30 8049 C 771.338 -0.275077 -2.00219 0
M  V30 8050 C 771.659 1.1401 -1.58199 0
M  V30 8051 O 770.929 1.77546 -0.827904 0
M  V30 8052 H 769.509 -0.0987127 -0.740449 0
M  V30 8053 H 772.171 -0.93873 -1.70804 0
M  V30 8054 H 771.267 -0.319446 -3.10461 0
M  V30 8055 N 771.568 1.50203 -0.477153 0
M  V30 8056 C 772.793 2.07263 0.0754986 0
M  V30 8057 C 773.218 1.33801 1.32208 0
M  V30 8058 O 772.576 0.387482 1.77111 0
M  V30 8059 C 772.624 3.59028 0.336348 0
M  V30 8060 O 771.728 3.87339 1.4157 0
M  V30 8061 H 771.069 0.663815 -0.015662 0
M  V30 8062 H 773.599 1.93321 -0.669936 0
M  V30 8063 H 773.609 4.03927 0.575034 0
M  V30 8064 H 772.284 4.11912 -0.574551 0
M  V30 8065 H 770.861 3.54272 1.16385 0
M  V30 8066 N 773.046 0.209999 1.56195 0
M  V30 8067 C 773.976 -0.699746 2.22769 0
M  V30 8068 C 774.957 -1.20993 1.1956 0
M  V30 8069 O 776.142 -1.25605 1.48112 0
M  V30 8070 C 773.272 -1.91302 2.89863 0
M  V30 8071 C 772.226 -1.53715 3.99444 0
M  V30 8072 C 771.552 -2.82826 4.53777 0
M  V30 8073 C 772.852 -0.735836 5.17091 0
M  V30 8074 H 774.546 -0.144716 2.9905 0
M  V30 8075 H 772.092 -0.0681645 1.43839 0
M  V30 8076 H 774.045 -2.5548 3.35124 0
M  V30 8077 H 772.769 -2.49283 2.11011 0
M  V30 8078 H 771.428 -0.918892 3.54897 0
M  V30 8079 H 771.076 -3.38927 3.71669 0
M  V30 8080 H 770.776 -2.58415 5.27727 0
M  V30 8081 H 772.3 -3.47966 5.01749 0
M  V30 8082 H 773.714 -1.28105 5.58804 0
M  V30 8083 H 772.111 -0.589272 5.972 0
M  V30 8084 H 773.181 0.260004 4.84202 0
M  V30 8085 N 774.524 -1.57472 -0.0634922 0
M  V30 8086 C 775.772 -1.87283 -0.759563 0
M  V30 8087 C 776.093 -0.803135 -1.77693 0
M  V30 8088 O 775.363 0.167293 -1.95184 0
M  V30 8089 H 773.943 -0.691106 -0.283516 0
M  V30 8090 H 776.605 -1.94864 -0.0376091 0
M  V30 8091 H 775.701 -2.85064 -1.27062 0
M  V30 8092 N 776.003 0.335068 -1.53997 0
M  V30 8093 C 776.966 1.39481 -1.81872 0
M  V30 8094 C 777.966 1.4524 -0.690078 0
M  V30 8095 O 779.156 1.45467 -0.958377 0
M  V30 8096 C 776.288 2.78329 -1.9684 0
M  V30 8097 H 777.481 1.16024 -2.76547 0
M  V30 8098 H 775.034 0.569926 -1.45539 0
M  V30 8099 H 775.769 3.07058 -1.04337 0
M  V30 8100 H 775.554 2.75544 -2.78958 0
M  V30 8101 H 777.044 3.55016 -2.19894 0
M  V30 8102 N 777.481 1.45874 0.596531 0
M  V30 8103 C 778.444 1.54988 1.68853 0
M  V30 8104 C 779.444 0.428302 1.54991 0
M  V30 8105 O 780.634 0.692158 1.59859 0
M  V30 8106 C 777.766 1.457 3.08195 0
M  V30 8107 H 778.959 2.52294 1.62135 0
M  V30 8108 H 776.512 1.33479 0.813206 0
M  V30 8109 H 777.247 0.496204 3.20481 0
M  V30 8110 H 777.032 2.27061 3.19665 0
M  V30 8111 H 778.522 1.55133 3.87716 0
M  V30 8112 N 778.959 -0.83999 1.33349 0
M  V30 8113 C 780.199 -1.60888 1.26073 0
M  V30 8114 C 780.563 -1.91234 -0.17129 0
M  V30 8115 O 781.764 -2.66269 -0.36799 0
M  V30 8116 C 780.035 -2.88438 2.11042 0
M  V30 8117 S 781.594 -3.79116 2.20944 0
M  V30 8118 H 778.412 -0.55166 0.448545 0
M  V30 8119 H 781.014 -0.99359 1.68369 0
M  V30 8120 H 779.718 -2.64113 3.14121 0
M  V30 8121 H 779.249 -3.54974 1.69579 0
M  V30 8122 H 781.264 -4.76921 1.36969 0
M  V30 8123 N 780.437 -1.16799 -1.0581 0
M  V30 8124 C 781.347 -0.893492 -2.16919 0
M  V30 8125 C 782.363 0.136061 -1.73467 0
M  V30 8126 O 783.539 -0.0417348 -2.01357 0
M  V30 8127 C 780.604 -0.403763 -3.44341 0
M  V30 8128 C 779.665 -1.49914 -4.02274 0
M  V30 8129 C 778.898 -1.03269 -5.23614 0
M  V30 8130 O 779.121 0.115647 -5.70283 0
M  V30 8131 O 778.055 -1.8231 -5.73626 0
M  V30 8132 H 781.881 -1.82274 -2.42919 0
M  V30 8133 H 779.466 -0.948361 -1.1544 0
M  V30 8134 H 781.348 -0.137874 -4.21174 0
M  V30 8135 H 780.023 0.497413 -3.19855 0
M  V30 8136 H 778.93 -1.81883 -3.26909 0
M  V30 8137 H 780.263 -2.3758 -4.31064 0
M  V30 8138 N 781.915 1.24427 -0.967243 0
M  V30 8139 C 782.847 2.24641 -0.454856 0
M  V30 8140 C 783.86 1.56849 0.436152 0
M  V30 8141 O 785.049 1.76846 0.242401 0
M  V30 8142 C 782.149 3.36954 0.362672 0
M  V30 8143 C 781.322 4.34318 -0.518324 0
M  V30 8144 C 780.381 5.25638 0.243122 0
M  V30 8145 O 779.407 5.68043 -0.362791 0
M  V30 8146 N 780.609 5.59897 1.53282 0
M  V30 8147 H 783.374 2.69238 -1.31648 0
M  V30 8148 H 780.935 1.38464 -0.839015 0
M  V30 8149 H 782.927 3.95014 0.880094 0
M  V30 8150 H 781.497 2.91646 1.12522 0
M  V30 8151 H 780.717 3.74953 -1.21672 0
M  V30 8152 H 782.005 4.96338 -1.11919 0
M  V30 8153 H 781.403 5.27373 2.04682 0
M  V30 8154 H 779.96 6.20488 1.99594 0
M  V30 8155 N 783.393 0.737304 1.3929 0
M  V30 8156 C 784.621 0.296573 2.04763 0
M  V30 8157 C 785.036 -1.06941 1.55592 0
M  V30 8158 O 784.393 -1.67619 0.721822 0
M  V30 8159 C 784.444 0.291906 3.6032 0
M  V30 8160 O 784.165 1.60397 4.07682 0
M  V30 8161 C 785.666 -0.164708 4.42994 0
M  V30 8162 H 782.886 0.129251 0.658434 0
M  V30 8163 H 785.43 1.0016 1.78293 0
M  V30 8164 H 783.585 -0.364251 3.85684 0
M  V30 8165 H 783.999 1.51909 5.0202 0
M  V30 8166 H 785.473 -0.116814 5.51876 0
M  V30 8167 H 785.95 -1.21022 4.22197 0
M  V30 8168 H 786.556 0.461968 4.22784 0
M  V30 8169 N 784.871 -1.49948 0.485112 0
M  V30 8170 C 785.803 -2.26691 -0.338222 0
M  V30 8171 C 786.816 -1.32584 -0.944742 0
M  V30 8172 O 788.005 -1.57989 -0.830772 0
M  V30 8173 C 785.105 -3.04405 -1.48966 0
M  V30 8174 C 784.278 -4.25971 -0.993371 0
M  V30 8175 C 783.337 -4.85861 -2.02052 0
M  V30 8176 O 782.363 -5.46382 -1.59547 0
M  V30 8177 N 783.565 -4.74101 -3.34975 0
M  V30 8178 H 786.33 -2.97989 0.319748 0
M  V30 8179 H 783.891 -1.58772 0.316714 0
M  V30 8180 H 785.883 -3.41348 -2.17403 0
M  V30 8181 H 784.453 -2.35815 -2.05207 0
M  V30 8182 H 783.673 -3.93971 -0.134424 0
M  V30 8183 H 784.961 -5.0476 -0.639934 0
M  V30 8184 H 784.359 -4.26002 -3.72208 0
M  V30 8185 H 782.916 -5.15274 -3.9917 0
M  V30 8186 N 786.349 -0.21828 -1.56081 0
M  V30 8187 C 787.577 0.419258 -2.02608 0
M  V30 8188 C 787.992 1.53578 -1.09814 0
M  V30 8189 O 787.349 1.82185 -0.107149 0
M  V30 8190 C 787.4 0.953955 -3.48686 0
M  V30 8191 O 787.121 -0.11805 -4.37941 0
M  V30 8192 C 788.622 1.66506 -4.10841 0
M  V30 8193 H 785.842 0.10296 -0.663054 0
M  V30 8194 H 788.386 -0.333776 -2.01758 0
M  V30 8195 H 786.541 1.65727 -3.50162 0
M  V30 8196 H 786.955 0.283359 -5.23734 0
M  V30 8197 H 788.429 1.99123 -5.14834 0
M  V30 8198 H 788.906 2.57705 -3.55647 0
M  V30 8199 H 789.512 1.00703 -4.13206 0
M  V30 8200 N 787.827 1.57504 0.0551401 0
M  V30 8201 C 788.737 2.08198 1.08124 0
M  V30 8202 C 789.753 1.01496 1.41331 0
M  V30 8203 O 790.929 1.33073 1.51174 0
M  V30 8204 C 787.994 2.52968 2.37083 0
M  V30 8205 C 787.055 3.7404 2.10696 0
M  V30 8206 C 786.288 4.16665 3.33505 0
M  V30 8207 O 786.511 3.59019 4.4324 0
M  V30 8208 O 785.445 5.09324 3.20737 0
M  V30 8209 H 789.271 2.95977 0.680518 0
M  V30 8210 H 786.856 1.46933 0.270401 0
M  V30 8211 H 788.738 2.82211 3.12946 0
M  V30 8212 H 787.413 1.6831 2.76502 0
M  V30 8213 H 786.32 3.49855 1.32484 0
M  V30 8214 H 787.653 4.59601 1.76148 0
M  V30 8215 N 789.305 -0.326896 1.54172 0
M  V30 8216 C 790.553 -1.06313 1.71878 0
M  V30 8217 C 790.874 -1.88652 0.493498 0
M  V30 8218 O 790.144 -1.89608 -0.492522 0
M  V30 8219 H 788.724 -0.39549 0.633716 0
M  V30 8220 H 791.386 -0.364139 1.91468 0
M  V30 8221 H 790.482 -1.73105 2.59694 0
M  V30 8222 N 790.784 -1.46188 -0.588786 0
M  V30 8223 C 791.747 -1.55882 -1.68029 0
M  V30 8224 C 792.747 -0.436515 -1.54762 0
M  V30 8225 O 793.937 -0.700626 -1.59489 0
M  V30 8226 C 791.069 -1.47332 -3.07418 0
M  V30 8227 H 792.262 -2.5315 -1.60795 0
M  V30 8228 H 789.815 -1.33908 -0.806116 0
M  V30 8229 H 790.55 -0.513193 -3.20214 0
M  V30 8230 H 790.335 -2.28753 -3.18456 0
M  V30 8231 H 791.825 -1.57187 -3.86887 0
M  V30 8232 N 792.262 0.832906 -1.33792 0
M  V30 8233 C 793.209 1.94314 -1.24541 0
M  V30 8234 C 794.179 1.65646 -0.122753 0
M  V30 8235 O 795.364 1.88394 -0.30204 0
M  V30 8236 C 792.504 3.30395 -0.996641 0
M  V30 8237 C 791.617 3.71422 -2.20612 0
M  V30 8238 C 790.752 4.96401 -1.89101 0
M  V30 8239 C 789.791 5.2998 -3.06247 0
M  V30 8240 N 788.928 6.46137 -2.74685 0
M  V30 8241 H 793.768 2.01559 -2.19495 0
M  V30 8242 H 791.305 0.986243 -1.09141 0
M  V30 8243 H 793.263 4.08803 -0.832817 0
M  V30 8244 H 791.893 3.22691 -0.0838242 0
M  V30 8245 H 790.945 2.88488 -2.47949 0
M  V30 8246 H 792.257 3.92215 -3.0817 0
M  V30 8247 H 791.411 5.82572 -1.69396 0
M  V30 8248 H 790.15 4.7759 -0.987882 0
M  V30 8249 H 789.155 4.42312 -3.26559 0
M  V30 8250 H 790.38 5.50737 -3.97323 0
M  V30 8251 H 788.326 6.28801 -1.86938 0
M  V30 8252 H 788.243 6.67054 -3.55774 0
M  V30 8253 H 789.511 7.35403 -2.58461 0
M  V30 8254 N 793.74 1.17359 1.05189 0
M  V30 8255 C 794.703 0.892604 2.11105 0
M  V30 8256 C 795.703 -0.117236 1.60372 0
M  V30 8257 O 796.893 0.114936 1.7382 0
M  V30 8258 C 794.025 0.337032 3.3923 0
M  V30 8259 H 795.218 1.83169 2.37464 0
M  V30 8260 H 792.771 0.984051 1.21434 0
M  V30 8261 H 793.506 -0.609198 3.18527 0
M  V30 8262 H 793.291 1.06484 3.77364 0
M  V30 8263 H 794.781 0.158763 4.17298 0
M  V30 8264 N 795.218 -1.23913 0.973828 0
M  V30 8265 C 796.495 -1.87539 0.555729 0
M  V30 8266 C 796.875 -1.87641 -0.967162 0
M  V30 8267 O 796.223 -1.35335 -1.84111 0
M  V30 8268 C 796.433 -3.29359 1.15427 0
M  V30 8269 C 797.781 -4.06 1.24294 0
M  V30 8270 O 798.805 -3.38554 1.10723 0
M  V30 8271 O 797.664 -5.26689 1.45813 0
M  V30 8272 H 794.758 -0.805769 0.186188 0
M  V30 8273 H 797.304 -1.31838 1.06849 0
M  V30 8274 H 796.076 -3.23817 2.19678 0
M  V30 8275 H 795.699 -3.92642 0.625925 0
M  V30 8276 N 796.696 -0.74468 -1.38897 0
M  V30 8277 C 797.944 -0.296298 -1.99916 0
M  V30 8278 C 798.265 1.12325 -1.59399 0
M  V30 8279 O 797.535 1.76658 -0.846689 0
M  V30 8280 H 796.115 -0.106561 -0.73936 0
M  V30 8281 H 798.777 -0.956793 -1.69798 0
M  V30 8282 H 797.873 -0.352356 -3.10105 0
M  V30 8283 N 798.174 1.49689 -0.493057 0
M  V30 8284 C 799.399 2.07331 0.0535114 0
M  V30 8285 C 799.824 1.35196 1.30781 0
M  V30 8286 O 799.182 0.406246 1.7669 0
M  V30 8287 C 799.23 3.59364 0.29825 0
M  V30 8288 O 798.334 3.88819 1.37454 0
M  V30 8289 H 797.675 0.663612 -0.0227018 0
M  V30 8290 H 800.205 1.926 -0.690402 0
M  V30 8291 H 800.215 4.04515 0.532159 0
M  V30 8292 H 798.89 4.1128 -0.618207 0
M  V30 8293 H 797.467 3.55487 1.12621 0
M  V30 8294 N 799.652 0.226554 1.55963 0
M  V30 8295 C 800.898 -0.397608 1.99476 0
M  V30 8296 C 801.253 -1.57031 1.11172 0
M  V30 8297 O 800.546 -1.90907 0.162757 0
M  V30 8298 C 800.74 -0.87642 3.46488 0
M  V30 8299 C 800.569 0.248344 4.49014 0
M  V30 8300 C 799.339 0.71638 5.00196 0
M  V30 8301 C 801.537 1.06835 5.03081 0
M  V30 8302 N 799.519 1.81568 5.86435 0
M  V30 8303 C 800.89 2.01641 5.86294 0
M  V30 8304 C 802.945 1.10722 4.85433 0
M  V30 8305 C 801.648 3.0002 6.53743 0
M  V30 8306 C 803.674 2.07921 5.53645 0
M  V30 8307 C 803.036 3.01466 6.3663 0
M  V30 8308 H 799.135 -0.112024 0.773935 0
M  V30 8309 H 801.719 0.339472 1.91718 0
M  V30 8310 H 799.89 -1.58285 3.54684 0
M  V30 8311 H 801.622 -1.47382 3.76909 0
M  V30 8312 H 798.377 0.30409 4.72623 0
M  V30 8313 H 798.801 2.36748 6.34255 0
M  V30 8314 H 803.443 0.397909 4.20923 0
M  V30 8315 H 801.161 3.71911 7.17432 0
M  V30 8316 H 804.747 2.11609 5.41953 0
M  V30 8317 H 803.627 3.75451 6.88481 0
M  V30 8318 N 801.13 -1.57531 -0.0467866 0
M  V30 8319 C 802.355 -1.93087 -0.757123 0
M  V30 8320 C 802.78 -0.825116 -1.69037 0
M  V30 8321 O 802.138 0.220449 -1.79955 0
M  V30 8322 C 802.186 -3.27669 -1.5055 0
M  V30 8323 O 801.29 -3.18667 -2.61773 0
M  V30 8324 H 800.631 -0.631597 -0.204892 0
M  V30 8325 H 803.161 -2.04599 -0.00755232 0
M  V30 8326 H 803.171 -3.6214 -1.87932 0
M  V30 8327 H 801.846 -4.07717 -0.820931 0
M  V30 8328 H 800.423 -2.95798 -2.27064 0
M  V30 8329 N 802.608 0.318715 -1.54344 0
M  V30 8330 C 803.848 1.06425 -1.74508 0
M  V30 8331 C 804.212 1.85087 -0.510572 0
M  V30 8332 O 805.413 2.62253 -0.589647 0
M  V30 8333 C 803.684 1.96054 -2.98827 0
M  V30 8334 S 805.243 2.77493 -3.39916 0
M  V30 8335 H 802.061 0.35921 -0.613587 0
M  V30 8336 H 804.663 0.339679 -1.92526 0
M  V30 8337 H 803.367 1.37109 -3.8682 0
M  V30 8338 H 802.898 2.72908 -2.83346 0
M  V30 8339 H 804.913 3.98544 -2.95596 0
M  V30 8340 N 804.086 1.46499 0.581025 0
M  V30 8341 C 805.332 1.53108 1.33901 0
M  V30 8342 C 805.687 0.181007 1.91547 0
M  V30 8343 O 804.98 -0.810518 1.73612 0
M  V30 8344 C 805.174 2.56686 2.48691 0
M  V30 8345 C 805.003 4.01633 2.0229 0
M  V30 8346 C 803.773 4.69333 1.87228 0
M  V30 8347 C 805.971 4.89379 1.58154 0
M  V30 8348 N 803.953 5.98891 1.34917 0
M  V30 8349 C 805.324 6.08775 1.17445 0
M  V30 8350 C 807.379 4.76017 1.45987 0
M  V30 8351 C 806.082 7.16286 0.657805 0
M  V30 8352 C 808.108 5.83601 0.95726 0
M  V30 8353 C 807.47 7.02171 0.55996 0
M  V30 8354 H 803.569 0.61509 0.482896 0
M  V30 8355 H 806.153 1.83123 0.661361 0
M  V30 8356 H 804.324 2.28578 3.14017 0
M  V30 8357 H 806.056 2.5328 3.15644 0
M  V30 8358 H 802.811 4.24878 2.09226 0
M  V30 8359 H 803.235 6.67852 1.10917 0
M  V30 8360 H 807.877 3.84736 1.75322 0
M  V30 8361 H 805.595 8.07333 0.352047 0
M  V30 8362 H 809.181 5.75304 0.867007 0
M  V30 8363 H 808.061 7.84 0.177046 0
M  V30 8364 N 805.565 -0.825799 1.34232 0
M  V30 8365 C 806.79 -1.61883 1.29648 0
M  V30 8366 C 807.215 -1.87669 -0.127295 0
M  V30 8367 O 806.573 -1.45016 -1.08813 0
M  V30 8368 C 806.621 -2.93846 2.09014 0
M  V30 8369 O 805.725 -3.85778 1.4577 0
M  V30 8370 H 805.066 -0.492454 0.445405 0
M  V30 8371 H 807.596 -1.02641 1.76992 0
M  V30 8372 H 807.606 -3.43435 2.20264 0
M  V30 8373 H 806.281 -2.74401 3.12533 0
M  V30 8374 H 804.858 -3.4429 1.43245 0
M  V30 8375 N 807.043 -1.17915 -1.04565 0
M  V30 8376 C 808.268 -0.996749 -1.81878 0
M  V30 8377 C 808.693 0.450169 -1.82634 0
M  V30 8378 O 808.051 1.32268 -1.23995 0
M  V30 8379 C 808.099 -1.55005 -3.25585 0
M  V30 8380 O 807.203 -0.76804 -4.05185 0
M  V30 8381 H 806.544 -0.353456 -0.562108 0
M  V30 8382 H 809.074 -1.56557 -1.31723 0
M  V30 8383 H 809.084 -1.57503 -3.76373 0
M  V30 8384 H 807.759 -2.60327 -3.2435 0
M  V30 8385 H 806.336 -0.81498 -3.63885 0
M  V30 8386 N 808.521 1.23394 -0.980386 0
M  V30 8387 C 809.767 1.924 -0.659848 0
M  V30 8388 C 810.122 1.75076 0.797883 0
M  V30 8389 O 809.415 1.10104 1.56805 0
M  V30 8390 C 809.609 3.43542 -0.985588 0
M  V30 8391 C 809.438 3.75568 -2.47343 0
M  V30 8392 C 808.208 3.96257 -3.13541 0
M  V30 8393 C 810.406 3.81045 -3.45412 0
M  V30 8394 N 808.388 4.15489 -4.51932 0
M  V30 8395 C 809.759 4.05269 -4.69209 0
M  V30 8396 C 811.814 3.63837 -3.39893 0
M  V30 8397 C 810.517 4.14071 -5.88164 0
M  V30 8398 C 812.543 3.73892 -4.58212 0
M  V30 8399 C 811.905 3.98553 -5.80805 0
M  V30 8400 H 808.004 0.725229 -0.292518 0
M  V30 8401 H 810.588 1.48615 -1.25784 0
M  V30 8402 H 808.759 3.86163 -0.416289 0
M  V30 8403 H 810.491 3.99887 -0.622324 0
M  V30 8404 H 807.246 3.93168 -2.64038 0
M  V30 8405 H 807.67 4.29058 -5.23677 0
M  V30 8406 H 812.312 3.43767 -2.46139 0
M  V30 8407 H 810.03 4.32949 -6.82335 0
M  V30 8408 H 813.616 3.61932 -4.55518 0
M  V30 8409 H 812.496 4.06148 -6.70831 0
M  V30 8410 N 809.999 0.752036 1.385 0
M  V30 8411 C 811.224 0.316993 2.04963 0
M  V30 8412 C 811.649 -1.04582 1.56346 0
M  V30 8413 O 811.007 -1.66616 0.714755 0
M  V30 8414 C 811.055 0.347235 3.58924 0
M  V30 8415 O 810.159 -0.659296 4.07096 0
M  V30 8416 H 809.5 0.140652 0.648932 0
M  V30 8417 H 812.03 1.02272 1.77205 0
M  V30 8418 H 812.04 0.19757 4.07521 0
M  V30 8419 H 810.715 1.34157 3.93668 0
M  V30 8420 H 809.292 -0.474371 3.6987 0
M  V30 8421 N 811.477 -1.49425 0.500989 0
M  V30 8422 C 812.723 -2.02753 -0.0436 0
M  V30 8423 C 813.056 -1.37991 -1.36646 0
M  V30 8424 O 812.331 -0.515597 -1.87542 0
M  V30 8425 C 812.614 -3.59565 -0.19616 0
M  V30 8426 C 812.467 -4.34855 1.14982 0
M  V30 8427 C 813.786 -4.30014 -0.936795 0
M  V30 8428 H 810.905 -0.73686 -0.0143711 0
M  V30 8429 H 813.547 -1.78448 0.652397 0
M  V30 8430 H 811.697 -3.80405 -0.788959 0
M  V30 8431 H 813.369 -4.25512 1.7815 0
M  V30 8432 H 811.612 -3.97414 1.73911 0
M  V30 8433 H 812.283 -5.42933 0.996385 0
M  V30 8434 H 814.759 -4.1383 -0.434036 0
M  V30 8435 H 813.635 -5.39483 -1.01238 0
M  V30 8436 H 813.896 -3.95257 -1.9805 0
M  V30 8437 N 812.955 -0.234822 -1.55841 0
M  V30 8438 C 814.195 0.394944 -2.00548 0
M  V30 8439 C 814.559 1.56002 -1.11926 0
M  V30 8440 O 815.76 2.2567 -1.46037 0
M  V30 8441 C 814.031 0.805896 -3.48195 0
M  V30 8442 S 815.59 1.4279 -4.14918 0
M  V30 8443 H 812.408 0.124802 -0.699961 0
M  V30 8444 H 815.01 -0.347224 -1.92392 0
M  V30 8445 H 813.714 -0.0515271 -4.10368 0
M  V30 8446 H 813.245 1.58055 -3.60253 0
M  V30 8447 H 815.26 2.71699 -4.15204 0
M  V30 8448 N 814.433 1.57553 0.0384317 0
M  V30 8449 C 815.849 1.54663 0.39391 0
M  V30 8450 C 816.049 0.959685 1.77179 0
M  V30 8451 O 815.105 0.576647 2.45827 0
M  V30 8452 C 816.418 2.99156 0.304352 0
M  V30 8453 C 817.966 3.10659 0.382119 0
M  V30 8454 C 818.441 4.56866 0.322111 0
M  V30 8455 N 819.932 4.61629 0.38119 0
M  V30 8456 C 820.667 5.72284 0.357501 0
M  V30 8457 N 820.163 6.92207 0.286654 0
M  V30 8458 N 821.956 5.60628 0.406538 0
M  V30 8459 H 814.107 1.9406 -0.86339 0
M  V30 8460 H 816.37 0.889673 -0.327392 0
M  V30 8461 H 816.076 3.45788 -0.642141 0
M  V30 8462 H 815.95 3.60753 1.10168 0
M  V30 8463 H 818.337 2.6398 1.31904 0
M  V30 8464 H 818.418 2.5191 -0.444391 0
M  V30 8465 H 818.062 5.0421 -0.611104 0
M  V30 8466 H 817.992 5.13515 1.1666 0
M  V30 8467 H 820.483 3.75343 0.438838 0
M  V30 8468 H 820.796 7.72316 0.273421 0
M  V30 8469 H 819.141 6.9454 0.252841 0
M  V30 8470 H 822.332 4.65836 0.459812 0
M  V30 8471 H 822.505 6.46858 0.384608 0
M  V30 8472 N 815.911 -0.310526 1.54511 0
M  V30 8473 C 816.874 -1.3657 1.84068 0
M  V30 8474 C 817.874 -1.44123 0.713097 0
M  V30 8475 O 819.064 -1.43924 0.981399 0
M  V30 8476 C 816.196 -2.75162 2.01243 0
M  V30 8477 H 817.389 -1.1161 2.78358 0
M  V30 8478 H 814.942 -0.546699 1.46427 0
M  V30 8479 H 815.677 -3.05359 1.09208 0
M  V30 8480 H 815.462 -2.71071 2.83307 0
M  V30 8481 H 816.952 -3.51473 2.25514 0
M  V30 8482 N 817.389 -1.46805 -0.573248 0
M  V30 8483 C 818.637 -1.52302 -1.32847 0
M  V30 8484 C 818.958 -0.180159 -1.94166 0
M  V30 8485 O 818.228 0.794291 -1.79075 0
M  V30 8486 H 816.808 -0.56097 -0.493276 0
M  V30 8487 H 819.47 -1.82998 -0.670642 0
M  V30 8488 H 818.566 -2.28089 -2.13031 0
M  V30 8489 N 818.867 0.818669 -1.34668 0
M  V30 8490 C 820.116 1.57017 -1.26604 0
M  V30 8491 C 820.429 1.94936 0.161036 0
M  V30 8492 O 821.635 2.69051 0.36386 0
M  V30 8493 C 820.091 2.83305 -2.2196 0
M  V30 8494 C 819.699 2.52671 -3.69948 0
M  V30 8495 C 821.443 3.61324 -2.22813 0
M  V30 8496 C 819.35 3.75178 -4.5716 0
M  V30 8497 H 818.28 0.589323 -0.470335 0
M  V30 8498 H 820.931 0.900956 -1.59859 0
M  V30 8499 H 819.313 3.51874 -1.81661 0
M  V30 8500 H 820.487 1.92186 -4.18809 0
M  V30 8501 H 818.802 1.8792 -3.71584 0
M  V30 8502 H 821.399 4.52294 -2.85192 0
M  V30 8503 H 821.742 3.97759 -1.22857 0
M  V30 8504 H 822.275 2.99703 -2.61578 0
M  V30 8505 H 819.014 3.43861 -5.58068 0
M  V30 8506 H 818.534 4.34931 -4.13031 0
M  V30 8507 H 820.213 4.42542 -4.71981 0
M  V30 8508 N 820.346 1.18468 1.03938 0
M  V30 8509 C 821.278 0.870615 2.12021 0
M  V30 8510 C 822.291 -0.132318 1.62261 0
M  V30 8511 O 823.48 0.0956901 1.78243 0
M  V30 8512 C 820.58 0.279727 3.37744 0
M  V30 8513 C 819.753 1.32863 4.16733 0
M  V30 8514 C 818.812 0.753204 5.20781 0
M  V30 8515 O 817.838 1.42825 5.5099 0
M  V30 8516 N 819.04 -0.448664 5.78764 0
M  V30 8517 H 821.805 1.80091 2.39556 0
M  V30 8518 H 819.366 1.08524 1.20142 0
M  V30 8519 H 821.358 -0.118829 4.04526 0
M  V30 8520 H 819.928 -0.554621 3.07641 0
M  V30 8521 H 819.148 1.90245 3.45254 0
M  V30 8522 H 820.436 2.03574 4.66299 0
M  V30 8523 H 819.834 -1.01481 5.56523 0
M  V30 8524 H 818.391 -0.789125 6.47005 0
M  V30 8525 N 821.824 -1.22873 0.986916 0
M  V30 8526 C 822.734 -2.28277 0.540978 0
M  V30 8527 C 823.75 -1.69164 -0.407363 0
M  V30 8528 O 824.926 -1.99504 -0.275674 0
M  V30 8529 C 821.991 -3.46404 -0.143181 0
M  V30 8530 C 821.052 -4.20854 0.847375 0
M  V30 8531 C 820.285 -5.33341 0.19577 0
M  V30 8532 O 820.508 -5.61356 -1.0117 0
M  V30 8533 O 819.442 -5.95169 0.897623 0
M  V30 8534 H 823.268 -2.68578 1.41773 0
M  V30 8535 H 820.853 -1.28927 0.754867 0
M  V30 8536 H 822.735 -4.18096 -0.526676 0
M  V30 8537 H 821.41 -3.08041 -0.994593 0
M  V30 8538 H 820.317 -3.51459 1.28169 0
M  V30 8539 H 821.65 -4.63082 1.6678 0
M  V30 8540 N 823.302 -0.75937 -1.38099 0
M  V30 8541 C 824.718 -0.437606 -1.53483 0
M  V30 8542 C 824.918 1.04849 -1.72072 0
M  V30 8543 O 823.974 1.83448 -1.73502 0
M  V30 8544 C 825.287 -1.24189 -2.73857 0
M  V30 8545 C 826.835 -1.23255 -2.8771 0
M  V30 8546 C 827.31 -2.01992 -4.11051 0
M  V30 8547 N 828.801 -1.99282 -4.1814 0
M  V30 8548 C 829.536 -2.56996 -5.12583 0
M  V30 8549 N 829.032 -3.23446 -6.12662 0
M  V30 8550 N 830.825 -2.46894 -5.04975 0
M  V30 8551 H 822.976 -1.72242 -1.24283 0
M  V30 8552 H 825.239 -0.730507 -0.604205 0
M  V30 8553 H 824.945 -2.29449 -2.66545 0
M  V30 8554 H 824.819 -0.862672 -3.67203 0
M  V30 8555 H 827.206 -0.187988 -2.94501 0
M  V30 8556 H 827.287 -1.65132 -1.95359 0
M  V30 8557 H 826.931 -3.06462 -4.05023 0
M  V30 8558 H 826.861 -1.57505 -5.02494 0
M  V30 8559 H 829.352 -1.50893 -3.46467 0
M  V30 8560 H 829.665 -3.6489 -6.81231 0
M  V30 8561 H 828.01 -3.27543 -6.12977 0
M  V30 8562 H 831.201 -1.94604 -4.25731 0
M  V30 8563 H 831.374 -2.92168 -5.78396 0
M  V30 8564 N 824.78 1.49157 -0.508906 0
M  V30 8565 C 826.196 1.58741 -0.165372 0
M  V30 8566 C 826.396 1.5133 1.33047 0
M  V30 8567 O 825.452 1.39135 2.10707 0
M  V30 8568 C 826.765 2.91217 -0.749194 0
M  V30 8569 C 828.313 3.047 -0.716015 0
M  V30 8570 C 828.788 4.39807 -1.27804 0
M  V30 8571 N 830.279 4.46319 -1.23908 0
M  V30 8572 C 831.014 5.49325 -1.64406 0
M  V30 8573 N 830.51 6.59395 -2.12534 0
M  V30 8574 N 832.303 5.40084 -1.55773 0
M  V30 8575 H 824.454 1.52217 -1.48134 0
M  V30 8576 H 826.717 0.721514 -0.614915 0
M  V30 8577 H 826.423 3.02233 -1.79856 0
M  V30 8578 H 826.297 3.76592 -0.214144 0
M  V30 8579 H 828.684 2.9331 0.324535 0
M  V30 8580 H 828.765 2.2099 -1.2883 0
M  V30 8581 H 828.409 4.5195 -2.31741 0
M  V30 8582 H 828.339 5.2217 -0.681623 0
M  V30 8583 H 830.83 3.67354 -0.886537 0
M  V30 8584 H 831.143 7.34102 -2.41485 0
M  V30 8585 H 829.488 6.60414 -2.16513 0
M  V30 8586 H 832.679 4.52986 -1.17987 0
M  V30 8587 H 832.852 6.20233 -1.87657 0
M  V30 8588 N 826.258 0.243083 1.55714 0
M  V30 8589 C 827.674 -0.111853 1.59208 0
M  V30 8590 C 827.874 -1.5723 1.2602 0
M  V30 8591 O 826.93 -2.31608 1.00569 0
M  V30 8592 C 828.243 0.233885 2.99789 0
M  V30 8593 C 829.791 0.177873 3.12494 0
M  V30 8594 C 830.266 0.49759 4.55289 0
M  V30 8595 N 831.757 0.447949 4.61029 0
M  V30 8596 C 832.492 0.668545 5.69489 0
M  V30 8597 N 831.988 0.952064 6.86227 0
M  V30 8598 N 833.781 0.599512 5.58894 0
M  V30 8599 H 825.932 1.19554 1.75558 0
M  V30 8600 H 828.195 0.480765 0.817049 0
M  V30 8601 H 827.901 1.24835 3.28799 0
M  V30 8602 H 827.775 -0.440846 3.74615 0
M  V30 8603 H 830.162 -0.827263 2.83267 0
M  V30 8604 H 830.243 0.886399 2.39951 0
M  V30 8605 H 829.887 1.50026 4.85237 0
M  V30 8606 H 829.817 -0.232371 5.26087 0
M  V30 8607 H 832.308 0.237388 3.77154 0
M  V30 8608 H 832.621 1.10791 7.64817 0
M  V30 8609 H 830.966 0.989496 6.8792 0
M  V30 8610 H 834.157 0.378088 4.66571 0
M  V30 8611 H 834.33 0.774828 6.43351 0
M  V30 8612 N 827.736 -1.57571 -0.0300757 0
M  V30 8613 C 828.646 -2.09892 -1.04798 0
M  V30 8614 C 829.662 -1.03732 -1.39698 0
M  V30 8615 O 830.838 -1.35461 -1.49038 0
M  V30 8616 C 827.903 -2.56707 -2.33028 0
M  V30 8617 C 826.964 -3.77345 -2.04718 0
M  V30 8618 C 826.197 -4.21918 -3.26834 0
M  V30 8619 O 826.42 -3.66025 -4.37472 0
M  V30 8620 O 825.354 -5.14362 -3.12594 0
M  V30 8621 H 829.18 -2.97023 -0.633344 0
M  V30 8622 H 826.765 -1.47344 -0.246991 0
M  V30 8623 H 828.647 -2.87154 -3.08417 0
M  V30 8624 H 827.322 -1.72688 -2.73789 0
M  V30 8625 H 826.229 -3.51919 -1.26901 0
M  V30 8626 H 827.562 -4.62345 -1.68813 0
M  V30 8627 N 829.214 0.302327 -1.54673 0
M  V30 8628 C 830.454 1.04568 -1.75627 0
M  V30 8629 C 830.818 1.84535 -0.530175 0
M  V30 8630 O 832.019 2.61613 -0.61743 0
M  V30 8631 C 830.29 1.92873 -3.0089 0
M  V30 8632 S 831.849 2.73872 -3.4284 0
M  V30 8633 H 828.667 0.352682 -0.617362 0
M  V30 8634 H 831.269 0.319239 -1.92876 0
M  V30 8635 H 829.973 1.32998 -3.88252 0
M  V30 8636 H 829.504 2.69887 -2.86225 0
M  V30 8637 H 831.519 3.95386 -2.99807 0
M  V30 8638 N 830.692 1.47107 0.565454 0
M  V30 8639 C 831.969 1.43787 1.32607 0
M  V30 8640 C 832.349 0.130428 2.10697 0
M  V30 8641 O 831.697 -0.888086 2.10536 0
M  V30 8642 C 831.907 2.67833 2.23755 0
M  V30 8643 C 833.255 3.14704 2.85037 0
M  V30 8644 O 834.279 2.68503 2.34061 0
M  V30 8645 O 833.138 3.95002 3.77671 0
M  V30 8646 H 830.232 0.572623 0.596684 0
M  V30 8647 H 832.778 1.59296 0.58504 0
M  V30 8648 H 831.55 3.54532 1.65597 0
M  V30 8649 H 831.173 2.54869 3.05168 0
M  V30 8650 N 832.17 -0.811516 1.35101 0
M  V30 8651 C 833.118 -1.94449 1.27642 0
M  V30 8652 C 834.112 -1.68522 0.172287 0
M  V30 8653 O 835.318 -1.76799 0.337967 0
M  V30 8654 H 831.693 -0.638776 0.396824 0
M  V30 8655 H 833.664 -1.97861 2.23369 0
M  V30 8656 C 832.413 -3.31139 1.06029 0
M  V30 8657 H 831.736 -3.51644 1.90227 0
M  V30 8658 H 833.176 -4.10831 1.0485 0
M  V30 8659 C 831.635 -3.36072 -0.236039 0
M  V30 8660 O 832.165 -3.82292 -1.23353 0
M  V30 8661 N 830.371 -2.89314 -0.273107 0
M  V30 8662 H 829.918 -2.51893 0.539211 0
M  V30 8663 H 829.876 -2.92996 -1.1402 0
M  V30 8664 N 833.648 -1.19017 -1.03309 0
M  V30 8665 C 835.059 -0.993206 -1.5809 0
M  V30 8666 C 835.41 0.45505 -1.9085 0
M  V30 8667 O 834.535 1.33372 -1.70414 0
M  V30 8668 C 835.13 -1.79661 -2.87241 0
M  V30 8669 C 833.689 -1.64377 -3.38611 0
M  V30 8670 C 832.836 -1.78628 -2.12102 0
M  V30 8671 H 835.787 -1.3345 -0.858879 0
M  V30 8672 H 835.808 -1.29019 -3.57958 0
M  V30 8673 H 835.32 -2.85061 -2.63366 0
M  V30 8674 H 833.421 -0.615447 -3.67482 0
M  V30 8675 H 833.534 -2.44651 -4.11926 0
M  V30 8676 H 831.898 -1.21648 -2.23772 0
M  V30 8677 H 832.681 -2.8548 -1.90673 0
M  V30 8678 N 835.127 1.22348 -0.993418 0
M  V30 8679 C 836.09 2.22522 -0.549251 0
M  V30 8680 C 837.09 1.56529 0.368164 0
M  V30 8681 O 838.28 1.73463 0.16005 0
M  V30 8682 C 835.412 3.40307 0.201037 0
M  V30 8683 H 836.605 2.63332 -1.43515 0
M  V30 8684 H 834.158 1.35407 -0.78068 0
M  V30 8685 H 834.893 3.0497 1.10289 0
M  V30 8686 H 834.678 3.8942 -0.457685 0
M  V30 8687 H 836.168 4.14597 0.499946 0
M  V30 8688 N 836.605 0.766683 1.37694 0
M  V30 8689 C 838.016 0.394761 1.82479 0
M  V30 8690 C 838.367 -1.07842 1.63904 0
M  V30 8691 O 837.492 -1.83479 1.14737 0
M  V30 8692 C 838.087 0.70974 3.31283 0
M  V30 8693 C 836.646 0.390936 3.74364 0
M  V30 8694 C 835.793 0.956192 2.60293 0
M  V30 8695 H 838.744 0.961756 1.26238 0
M  V30 8696 H 838.765 -0.00742144 3.80499 0
M  V30 8697 H 838.277 1.782 3.4477 0
M  V30 8698 H 836.378 -0.674213 3.66449 0
M  V30 8699 H 836.491 0.895645 4.70654 0
M  V30 8700 H 834.855 0.380744 2.51838 0
M  V30 8701 H 835.638 2.03375 2.76575 0
M  V30 8702 N 838.083 -1.48885 0.516809 0
M  V30 8703 C 839.015 -2.27357 -0.290061 0
M  V30 8704 C 840.028 -1.34558 -0.916406 0
M  V30 8705 O 841.217 -1.59715 -0.797073 0
M  V30 8706 C 838.317 -3.07496 -1.42476 0
M  V30 8707 C 837.49 -4.27982 -0.902793 0
M  V30 8708 C 836.549 -4.90038 -1.91701 0
M  V30 8709 O 835.575 -5.49643 -1.47922 0
M  V30 8710 N 836.777 -4.811 -3.24843 0
M  V30 8711 H 839.542 -2.97244 0.382884 0
M  V30 8712 H 837.103 -1.58064 0.35032 0
M  V30 8713 H 839.095 -3.45882 -2.10113 0
M  V30 8714 H 837.665 -2.40115 -2.00159 0
M  V30 8715 H 836.885 -3.94167 -0.0508272 0
M  V30 8716 H 838.173 -5.06003 -0.532723 0
M  V30 8717 H 837.571 -4.33801 -3.63088 0
M  V30 8718 H 836.128 -5.23625 -3.8815 0
M  V30 8719 N 839.561 -0.251338 -1.55583 0
M  V30 8720 C 840.509 0.662534 -2.22965 0
M  V30 8721 C 841.503 1.17662 -1.21869 0
M  V30 8722 O 842.709 1.133 -1.39868 0
M  V30 8723 H 839.084 0.232151 -0.715269 0
M  V30 8724 H 841.055 0.0711252 -2.98315 0
M  V30 8725 C 839.804 1.84646 -2.94621 0
M  V30 8726 H 839.127 1.46003 -3.72187 0
M  V30 8727 H 840.567 2.46303 -3.45124 0
M  V30 8728 C 839.026 2.72034 -1.98744 0
M  V30 8729 O 839.556 3.71695 -1.52335 0
M  V30 8730 N 837.762 2.38695 -1.6575 0
M  V30 8731 H 837.309 1.57702 -2.03685 0
M  V30 8732 H 837.267 2.9744 -1.01867 0
M  V30 8733 N 841.039 1.57585 0.0217189 0
M  V30 8734 C 842.287 1.89231 0.709641 0
M  V30 8735 C 842.608 0.849964 1.75501 0
M  V30 8736 O 841.878 -0.115485 1.95559 0
M  V30 8737 H 840.458 0.69838 0.265092 0
M  V30 8738 H 843.12 1.94895 -0.0140688 0
M  V30 8739 H 842.216 2.88333 1.19459 0
M  V30 8740 N 842.517 -0.29412 1.54831 0
M  V30 8741 C 843.765 -1.02643 1.74094 0
M  V30 8742 C 844.086 -1.87563 0.533402 0
M  V30 8743 O 843.356 -1.9061 -0.452192 0
M  V30 8744 H 841.936 -0.381959 0.641963 0
M  V30 8745 H 844.598 -0.323444 1.92197 0
M  V30 8746 H 843.694 -1.67558 2.63307 0
M  V30 8747 N 843.995 -1.47404 -0.557645 0
M  V30 8748 C 844.958 -1.59411 -1.64684 0
M  V30 8749 C 845.958 -0.469244 -1.53801 0
M  V30 8750 O 847.148 -0.734298 -1.57967 0
M  V30 8751 C 844.28 -1.5382 -3.04224 0
M  V30 8752 H 845.473 -2.56504 -1.55389 0
M  V30 8753 H 843.026 -1.35588 -0.777531 0
M  V30 8754 H 843.761 -0.581 -3.19053 0
M  V30 8755 H 843.546 -2.35456 -3.13533 0
M  V30 8756 H 845.036 -1.65358 -3.83466 0
M  V30 8757 N 845.473 0.80434 -1.35529 0
M  V30 8758 C 846.698 1.598 -1.32207 0
M  V30 8759 C 847.123 1.87848 0.0974226 0
M  V30 8760 O 846.481 1.46728 1.06492 0
M  V30 8761 C 846.529 2.90483 -2.13663 0
M  V30 8762 O 845.633 3.83411 -1.51888 0
M  V30 8763 H 844.974 0.485305 -0.453183 0
M  V30 8764 H 847.504 0.998119 -1.78602 0
M  V30 8765 H 847.514 3.39888 -2.257 0
M  V30 8766 H 846.189 2.69395 -3.16859 0
M  V30 8767 H 844.766 3.41967 -1.48704 0
M  V30 8768 N 846.951 1.19563 1.02676 0
M  V30 8769 C 848.191 1.01072 1.77662 0
M  V30 8770 C 848.555 -0.450344 1.86644 0
M  V30 8771 O 849.756 -0.755132 2.57975 0
M  V30 8772 C 848.027 1.66383 3.16309 0
M  V30 8773 S 849.586 1.62858 4.07459 0
M  V30 8774 H 846.404 0.362644 0.611564 0
M  V30 8775 H 849.006 1.51947 1.23014 0
M  V30 8776 H 847.71 2.71917 3.07391 0
M  V30 8777 H 847.241 1.15596 3.76033 0
M  V30 8778 H 849.256 0.654265 4.91868 0
M  V30 8779 N 848.429 -1.21819 0.999893 0
M  V30 8780 C 849.84 -1.72517 0.713775 0
M  V30 8781 C 850.191 -1.80505 -0.768922 0
M  V30 8782 O 849.316 -1.45611 -1.60083 0
M  V30 8783 C 849.911 -3.13321 1.28901 0
M  V30 8784 C 848.47 -3.61396 1.05212 0
M  V30 8785 C 847.617 -2.39074 1.40494 0
M  V30 8786 H 850.568 -1.07068 1.17141 0
M  V30 8787 H 850.589 -3.74535 0.671084 0
M  V30 8788 H 850.101 -3.07475 2.36814 0
M  V30 8789 H 848.202 -3.72599 -0.0100732 0
M  V30 8790 H 848.315 -4.47145 1.72042 0
M  V30 8791 H 846.679 -2.41015 0.823642 0
M  V30 8792 H 847.462 -2.35884 2.49427 0
M  V30 8793 N 849.908 -0.773975 -1.37286 0
M  V30 8794 C 851.156 -0.338636 -1.99243 0
M  V30 8795 C 851.477 1.08919 -1.61746 0
M  V30 8796 O 850.747 1.74822 -0.88397 0
M  V30 8797 H 849.327 -0.12222 -0.736934 0
M  V30 8798 H 851.989 -0.992595 -1.67731 0
M  V30 8799 H 851.085 -0.418055 -3.09287 0
M  V30 8800 N 851.386 1.48609 -0.524698 0
M  V30 8801 C 852.802 1.58557 -0.182199 0
M  V30 8802 C 853.002 1.52732 1.31435 0
M  V30 8803 O 852.058 1.41362 2.0922 0
M  V30 8804 C 853.371 2.90406 -0.78004 0
M  V30 8805 C 854.919 3.03924 -0.748293 0
M  V30 8806 C 855.394 4.38427 -1.32462 0
M  V30 8807 N 856.885 4.4498 -1.28635 0
M  V30 8808 C 857.62 5.47551 -1.70223 0
M  V30 8809 N 857.116 6.57103 -2.19515 0
M  V30 8810 N 858.909 5.38402 -1.61493 0
M  V30 8811 H 851.06 1.50638 -1.4974 0
M  V30 8812 H 853.323 0.714952 -0.622533 0
M  V30 8813 H 853.029 3.00308 -1.83052 0
M  V30 8814 H 852.903 3.76343 -0.254075 0
M  V30 8815 H 855.29 2.93638 0.293407 0
M  V30 8816 H 855.371 2.19611 -1.31167 0
M  V30 8817 H 855.015 4.49466 -2.36522 0
M  V30 8818 H 854.945 5.21418 -0.736967 0
M  V30 8819 H 857.436 3.66393 -0.92545 0
M  V30 8820 H 857.749 7.31499 -2.49257 0
M  V30 8821 H 856.094 6.58081 -2.23506 0
M  V30 8822 H 859.285 4.5171 -1.22785 0
M  V30 8823 H 859.458 6.18208 -1.94225 0
M  V30 8824 N 852.864 0.259585 1.55447 0
M  V30 8825 C 853.811 -0.634578 2.21905 0
M  V30 8826 C 854.781 -1.16168 1.18719 0
M  V30 8827 O 855.966 -1.21383 1.4721 0
M  V30 8828 C 853.106 -1.82005 2.93203 0
M  V30 8829 C 852.219 -1.32828 4.11073 0
M  V30 8830 C 851.354 -2.47431 4.70055 0
M  V30 8831 C 850.393 -1.95179 5.80148 0
M  V30 8832 N 849.53 -3.03197 6.33258 0
M  V30 8833 H 854.37 -0.0611886 2.97937 0
M  V30 8834 H 851.907 -0.0184378 1.47088 0
M  V30 8835 H 853.865 -2.51664 3.32748 0
M  V30 8836 H 852.495 -2.36571 2.19622 0
M  V30 8837 H 851.547 -0.525301 3.76756 0
M  V30 8838 H 852.859 -0.905435 4.90513 0
M  V30 8839 H 852.013 -3.25111 5.12238 0
M  V30 8840 H 850.752 -2.93023 3.89857 0
M  V30 8841 H 849.757 -1.15974 5.37429 0
M  V30 8842 H 850.982 -1.50541 6.62204 0
M  V30 8843 H 848.928 -3.48199 5.55961 0
M  V30 8844 H 848.845 -2.65282 7.07928 0
M  V30 8845 H 850.113 -3.80898 6.80101 0
M  V30 8846 N 854.342 -1.57594 -0.0133615 0
M  V30 8847 C 855.588 -1.90262 -0.702019 0
M  V30 8848 C 855.921 -0.859219 -1.74158 0
M  V30 8849 O 855.196 0.123778 -1.94106 0
M  V30 8850 C 855.479 -3.3354 -1.35732 0
M  V30 8851 C 855.332 -4.48586 -0.330208 0
M  V30 8852 C 856.651 -3.76004 -2.28712 0
M  V30 8853 H 853.77 -0.691943 -0.253739 0
M  V30 8854 H 856.412 -1.89967 0.0351894 0
M  V30 8855 H 854.562 -3.33921 -1.98567 0
M  V30 8856 H 856.234 -4.6034 0.297433 0
M  V30 8857 H 854.477 -4.32394 0.348926 0
M  V30 8858 H 855.148 -5.45762 -0.827508 0
M  V30 8859 H 857.624 -3.77089 -1.75906 0
M  V30 8860 H 856.5 -4.77032 -2.71535 0
M  V30 8861 H 856.761 -3.09129 -3.16056 0
M  V30 8862 N 855.82 0.285905 -1.54985 0
M  V30 8863 C 856.752 1.37505 -1.83371 0
M  V30 8864 C 857.765 1.46138 -0.717454 0
M  V30 8865 O 858.954 1.48186 -0.995142 0
M  V30 8866 C 856.054 2.7575 -1.97016 0
M  V30 8867 C 855.227 2.89866 -3.27561 0
M  V30 8868 C 854.286 4.08704 -3.31433 0
M  V30 8869 O 853.312 4.00073 -4.04883 0
M  V30 8870 N 854.514 5.20062 -2.57907 0
M  V30 8871 H 857.279 1.13505 -2.77375 0
M  V30 8872 H 854.84 0.476006 -1.54744 0
M  V30 8873 H 856.832 3.5352 -1.96991 0
M  V30 8874 H 855.402 2.9263 -1.09938 0
M  V30 8875 H 854.622 1.99085 -3.40234 0
M  V30 8876 H 855.91 2.96219 -4.13681 0
M  V30 8877 H 855.308 5.29958 -1.97891 0
M  V30 8878 H 853.865 5.96111 -2.63619 0
M  V30 8879 N 857.298 1.47698 0.54982 0
M  V30 8880 C 858.526 1.5833 1.33188 0
M  V30 8881 C 858.941 0.236193 1.87317 0
M  V30 8882 O 858.298 -0.77167 1.65383 0
M  V30 8883 C 858.349 2.61438 2.49664 0
M  V30 8884 O 858.07 3.9092 1.97771 0
M  V30 8885 C 859.571 2.82324 3.41772 0
M  V30 8886 H 856.791 0.53443 0.405741 0
M  V30 8887 H 859.335 1.93375 0.665309 0
M  V30 8888 H 857.49 2.29307 3.12245 0
M  V30 8889 H 857.904 4.47323 2.73866 0
M  V30 8890 H 859.378 3.58316 4.19897 0
M  V30 8891 H 859.855 1.90416 3.95776 0
M  V30 8892 H 860.461 3.15682 2.85 0
M  V30 8893 N 858.776 -0.797141 1.35954 0
M  V30 8894 C 859.708 -1.91782 1.25509 0
M  V30 8895 C 860.721 -1.61843 0.176271 0
M  V30 8896 O 861.91 -1.73235 0.430343 0
M  V30 8897 C 859.01 -3.26396 0.912073 0
M  V30 8898 C 858.183 -3.84171 2.0912 0
M  V30 8899 C 857.242 -4.9721 1.72246 0
M  V30 8900 O 856.268 -5.14136 2.44239 0
M  V30 8901 N 857.47 -5.76831 0.651611 0
M  V30 8902 H 860.235 -2.01266 2.22063 0
M  V30 8903 H 857.796 -0.975033 1.29247 0
M  V30 8904 H 859.788 -3.99499 0.646707 0
M  V30 8905 H 858.358 -3.12579 0.0359079 0
M  V30 8906 H 857.578 -3.03148 2.51982 0
M  V30 8907 H 858.866 -4.19503 2.87914 0
M  V30 8908 H 858.264 -5.65675 0.0536678 0
M  V30 8909 H 856.821 -6.50272 0.44605 0
M  V30 8910 N 860.254 -1.20106 -1.0204 0
M  V30 8911 C 861.217 -0.948261 -2.08664 0
M  V30 8912 C 862.217 0.0746753 -1.60627 0
M  V30 8913 O 863.407 -0.160981 -1.73455 0
M  V30 8914 C 860.539 -0.426854 -3.38217 0
M  V30 8915 H 861.732 -1.894 -2.32524 0
M  V30 8916 H 859.285 -1.0159 -1.18782 0
M  V30 8917 H 860.02 0.524532 -3.2003 0
M  V30 8918 H 859.805 -1.16451 -3.74408 0
M  V30 8919 H 861.295 -0.269346 -4.1673 0
M  V30 8920 N 861.732 1.21287 -1.00634 0
M  V30 8921 C 862.972 1.92106 -0.698194 0
M  V30 8922 C 863.336 1.76437 0.757222 0
M  V30 8923 O 864.537 2.41641 1.17741 0
M  V30 8924 C 862.808 3.39748 -1.10932 0
M  V30 8925 S 864.367 4.29013 -0.921586 0
M  V30 8926 H 861.185 0.663755 -0.254853 0
M  V30 8927 H 863.787 1.46772 -1.29145 0
M  V30 8928 H 862.491 3.48669 -2.16467 0
M  V30 8929 H 862.022 3.90101 -0.508419 0
M  V30 8930 H 864.037 4.95871 0.180578 0
M  V30 8931 O 863.249 0.917748 1.3289 0
M  V30 8932 H 863.94 0.536038 1.86135 0
M  V30 END ATOM
M  V30 BEGIN BOND
M  V30 END BOND
M  V30 END CTAB
M  END
$$$$
