drugbank_target|P07332 Tyrosine-protein kinase Fes/Fps (DB12010)
 OpenBabel12092121153D

  0  0  0     0  0            999 V3000
M  V30 BEGIN CTAB
M  V30 COUNTS 13160 13294 0 0 0
M  V30 BEGIN ATOM
M  V30 1 H -0.908 1.98254 -0.117106 0
M  V30 2 N 0 1.576 0 0
M  V30 3 C 0.933 2.03868 1.02534 0
M  V30 4 C 1.911 0.928543 1.3348 0
M  V30 5 O 3.095 1.19667 1.45644 0
M  V30 6 C 0.222 2.43627 2.35294 0
M  V30 7 C -0.732 3.65373 2.2001 0
M  V30 8 S 0.101 5.13292 1.52614 0
M  V30 9 C 1.257 5.56322 2.86805 0
M  V30 10 H 1.49 2.90518 0.631377 0
M  V30 11 H -0.977 1.52953 0.210867 0
M  V30 12 H 0.981 2.67203 3.11629 0
M  V30 13 H -0.358 1.57376 2.7183 0
M  V30 14 H -1.165 3.90944 3.18086 0
M  V30 15 H -1.563 3.418 1.51819 0
M  V30 16 H 0.729 5.58782 3.83104 0
M  V30 17 H 1.672 6.56266 2.65933 0
M  V30 18 H 2.08 4.83886 2.90714 0
M  V30 19 N 1.4781 -0.272755 1.55222 0
M  V30 20 C 2.7261 -1.00234 1.75492 0
M  V30 21 C 3.0471 -1.8681 0.5592 0
M  V30 22 O 2.3171 -1.91215 -0.425882 0
M  V30 23 H 0.8971 -0.373076 0.647166 0
M  V30 24 H 3.5591 -0.296926 1.92625 0
M  V30 25 H 2.6551 -1.63913 2.65592 0
M  V30 26 N 2.9562 -1.48159 -0.537278 0
M  V30 27 C 4.2032 -1.55804 -1.29349 0
M  V30 28 C 4.5312 -0.228802 -1.9315 0
M  V30 29 O 3.7862 0.780242 -1.79473 0
M  V30 30 C 4.0852 -2.63956 -2.40961 0
M  V30 31 C 3.7512 -4.0662 -1.94861 0
M  V30 32 C 2.4132 -4.45452 -1.82006 0
M  V30 33 C 4.7652 -4.96055 -1.59933 0
M  V30 34 C 2.0932 -5.71531 -1.32547 0
M  V30 35 C 4.4452 -6.22617 -1.11939 0
M  V30 36 C 3.1092 -6.60312 -0.976951 0
M  V30 37 H 2.3792 -0.570129 -0.473322 0
M  V30 38 H 5.0262 -1.81845 -0.600372 0
M  V30 39 H 3.3312 -2.31747 -3.15912 0
M  V30 40 H 5.0282 -2.67089 -2.99107 0
M  V30 41 H 1.6182 -3.75949 -2.05815 0
M  V30 42 H 5.8022 -4.66738 -1.68728 0
M  V30 43 H 1.0582 -5.99468 -1.202 0
M  V30 44 H 5.2322 -6.91318 -0.839811 0
M  V30 45 H 2.8592 -7.57895 -0.591501 0
M  V30 46 N 4.4343 0.785586 -1.36625 0
M  V30 47 C 5.6593 1.57963 -1.34397 0
M  V30 48 C 6.0843 1.87964 0.071526 0
M  V30 49 O 5.4423 1.48182 1.0446 0
M  V30 50 C 5.4903 2.87511 -2.17646 0
M  V30 51 O 4.5943 3.81281 -1.57158 0
M  V30 52 H 3.9353 0.479014 -0.459828 0
M  V30 53 H 6.4653 0.973411 -1.79961 0
M  V30 54 H 6.4753 3.36745 -2.30362 0
M  V30 55 H 5.1503 2.65002 -3.20541 0
M  V30 56 H 3.7273 3.39885 -1.53403 0
M  V30 57 N 5.9124 1.20967 1.01018 0
M  V30 58 C 7.1374 1.0503 1.78839 0
M  V30 59 C 7.5624 -0.395752 1.8389 0
M  V30 60 O 6.9204 -1.28529 1.27867 0
M  V30 61 C 6.9684 1.64602 3.2084 0
M  V30 62 O 6.0724 0.887988 4.02726 0
M  V30 63 H 5.4134 0.369987 0.551367 0
M  V30 64 H 7.9434 1.60399 1.27018 0
M  V30 65 H 7.9534 1.68607 3.71532 0
M  V30 66 H 6.6284 2.69841 3.16479 0
M  V30 67 H 5.2054 0.922648 3.61305 0
M  V30 68 N 7.3905 -1.2043 1.01659 0
M  V30 69 C 8.3005 -2.2689 0.596484 0
M  V30 70 C 9.3165 -1.70107 -0.36599 0
M  V30 71 O 10.4925 -2.00117 -0.226942 0
M  V30 72 C 7.5575 -3.4665 -0.0586659 0
M  V30 73 C 6.6185 -4.18662 0.949751 0
M  V30 74 C 5.8515 -5.32705 0.32577 0
M  V30 75 O 6.0745 -5.63656 -0.874509 0
M  V30 76 O 5.0085 -5.92803 1.04249 0
M  V30 77 H 8.8345 -2.65041 1.4828 0
M  V30 78 H 6.4195 -1.27048 0.786082 0
M  V30 79 H 8.3015 -4.19256 -0.424564 0
M  V30 80 H 6.9765 -3.10375 -0.91918 0
M  V30 81 H 5.8835 -3.48229 1.36702 0
M  V30 82 H 7.2165 -4.58878 1.78023 0
M  V30 83 N 8.8686 -0.792821 -1.36206 0
M  V30 84 C 9.7986 -0.207853 -2.32573 0
M  V30 85 C 10.7796 0.659055 -1.56813 0
M  V30 86 O 11.9646 0.592176 -1.84951 0
M  V30 87 C 9.0946 0.655449 -3.41059 0
M  V30 88 C 8.0486 -0.111842 -4.27854 0
M  V30 89 C 7.3746 0.872274 -5.27537 0
M  V30 90 C 8.6746 -1.30299 -5.05786 0
M  V30 91 H 10.3686 -1.01294 -2.81744 0
M  V30 92 H 7.9146 -0.48854 -1.3546 0
M  V30 93 H 9.8676 1.07464 -4.07467 0
M  V30 94 H 8.5916 1.49328 -2.90463 0
M  V30 95 H 7.2506 -0.512053 -3.63006 0
M  V30 96 H 6.8986 1.70523 -4.73214 0
M  V30 97 H 6.5986 0.363291 -5.86476 0
M  V30 98 H 8.1226 1.28996 -5.96818 0
M  V30 99 H 9.5366 -0.959379 -5.65216 0
M  V30 100 H 7.9336 -1.7455 -5.74154 0
M  V30 101 H 9.0036 -2.09663 -4.37229 0
M  V30 102 N 10.3467 1.47872 -0.545128 0
M  V30 103 C 11.5867 2.04391 -0.0187854 0
M  V30 104 C 11.9507 1.41162 1.30144 0
M  V30 105 O 13.1517 1.88656 1.91474 0
M  V30 106 C 11.4227 3.57299 0.0850867 0
M  V30 107 S 12.9817 4.35221 0.559302 0
M  V30 108 H 9.7997 0.710737 -0.0193301 0
M  V30 109 H 12.4017 1.81395 -0.729125 0
M  V30 110 H 11.1057 4.00847 -0.880351 0
M  V30 111 H 10.6367 3.84773 0.819348 0
M  V30 112 H 12.6517 4.61571 1.82118 0
M  V30 113 N 11.8248 0.280983 1.55075 0
M  V30 114 C 13.0498 -0.340154 2.04592 0
M  V30 115 C 13.4748 -1.48246 1.15779 0
M  V30 116 O 12.8328 -1.80614 0.15761 0
M  V30 117 C 12.8808 -0.793104 3.5177 0
M  V30 118 O 11.9848 -1.89981 3.66034 0
M  V30 119 H 11.3258 -0.0694289 0.66036 0
M  V30 120 H 13.8558 0.416993 2.00306 0
M  V30 121 H 13.8658 -1.08729 3.93245 0
M  V30 122 H 12.5408 0.0426163 4.15878 0
M  V30 123 H 11.1178 -1.60771 3.36463 0
M  V30 124 N 13.3029 -1.57598 0.00835791 0
M  V30 125 C 14.7139 -1.7892 -0.53333 0
M  V30 126 C 15.0649 -0.916609 -1.73473 0
M  V30 127 O 14.1899 -0.121336 -2.1606 0
M  V30 128 C 14.7849 -3.24488 -0.974313 0
M  V30 129 C 13.3439 -3.46878 -1.46125 0
M  V30 130 C 12.4909 -2.74157 -0.416302 0
M  V30 131 H 15.4419 -1.56958 0.234495 0
M  V30 132 H 15.4629 -3.3306 -1.83988 0
M  V30 133 H 14.9749 -3.87972 -0.099718 0
M  V30 134 H 13.0759 -2.8862 -2.35646 0
M  V30 135 H 13.1889 -4.55572 -1.48295 0
M  V30 136 H 11.5529 -2.39022 -0.87981 0
M  V30 137 H 12.3359 -3.40345 0.44947 0
M  V30 138 N 14.781 0.264519 -1.55364 0
M  V30 139 C 15.713 1.34965 -1.85248 0
M  V30 140 C 16.726 1.45136 -0.737525 0
M  V30 141 O 17.915 1.46801 -1.01547 0
M  V30 142 C 15.015 2.73008 -2.00797 0
M  V30 143 C 14.188 2.85324 -3.31525 0
M  V30 144 C 13.247 4.04097 -3.37034 0
M  V30 145 O 12.273 3.94455 -4.10358 0
M  V30 146 N 13.475 5.16458 -2.65049 0
M  V30 147 H 16.24 1.09672 -2.78913 0
M  V30 148 H 13.801 0.454635 -1.55386 0
M  V30 149 H 15.793 3.50772 -2.01844 0
M  V30 150 H 14.363 2.91087 -1.1396 0
M  V30 151 H 13.583 1.94377 -3.42945 0
M  V30 152 H 14.871 2.9049 -4.17724 0
M  V30 153 H 14.269 5.27181 -2.05175 0
M  V30 154 H 12.826 5.92422 -2.71809 0
M  V30 155 N 16.2591 1.48442 0.529413 0
M  V30 156 C 17.5071 1.56179 1.28267 0
M  V30 157 C 17.8281 0.237721 1.93546 0
M  V30 158 O 17.0981 -0.740779 1.81354 0
M  V30 159 H 15.6781 0.575367 0.476405 0
M  V30 160 H 18.3401 1.84909 0.61602 0
M  V30 161 H 17.4361 2.34312 2.06165 0
M  V30 162 N 17.7372 -0.778329 1.37039 0
M  V30 163 C 18.6872 -1.88142 1.28789 0
M  V30 164 C 19.6712 -1.59923 0.177063 0
M  V30 165 O 20.8632 -1.72165 0.410873 0
M  V30 166 C 17.9922 -3.25518 1.09055 0
M  V30 167 C 17.0782 -3.5971 2.24654 0
M  V30 168 N 17.4692 -3.65131 3.50018 0
M  V30 169 C 15.7672 -3.89837 2.16663 0
M  V30 170 C 16.4682 -3.95882 4.26207 0
M  V30 171 N 15.4442 -4.11441 3.55271 0
M  V30 172 H 19.2462 -1.90575 2.23737 0
M  V30 173 H 16.7602 -0.974435 1.29917 0
M  V30 174 H 18.7572 -4.04423 1.0123 0
M  V30 175 H 17.4172 -3.24353 0.15018 0
M  V30 176 H 18.4282 -3.475 3.84011 0
M  V30 177 H 15.1052 -3.96533 1.30645 0
M  V30 178 H 16.4952 -4.06907 5.34674 0
M  V30 179 N 19.2153 -1.21501 -1.00376 0
M  V30 180 C 20.4633 -1.03095 -1.73827 0
M  V30 181 C 20.7843 0.436341 -1.90055 0
M  V30 182 O 20.0543 1.31466 -1.45236 0
M  V30 183 H 18.6343 -0.378487 -0.644016 0
M  V30 184 H 21.2963 -1.52831 -1.20949 0
M  V30 185 H 20.3923 -1.49991 -2.73695 0
M  V30 186 N 20.6934 1.19889 -1.02296 0
M  V30 187 C 21.9394 1.89701 -0.717033 0
M  V30 188 C 22.2724 1.7905 0.751989 0
M  V30 189 O 21.5474 1.17891 1.547 0
M  V30 190 C 21.8304 3.40858 -1.16136 0
M  V30 191 C 21.6834 3.60411 -2.69117 0
M  V30 192 C 23.0024 4.33876 -0.737549 0
M  V30 193 H 20.1214 0.688874 -0.261957 0
M  V30 194 H 22.7634 1.41154 -1.27183 0
M  V30 195 H 20.9134 3.82335 -0.689342 0
M  V30 196 H 22.5854 3.28145 -3.2422 0
M  V30 197 H 20.8284 3.03665 -3.0979 0
M  V30 198 H 21.4994 4.66396 -2.95261 0
M  V30 199 H 23.9754 4.00081 -1.14344 0
M  V30 200 H 22.8514 5.38242 -1.0764 0
M  V30 201 H 23.1124 4.40628 0.360436 0
M  V30 202 N 22.1715 0.800033 1.35784 0
M  V30 203 C 23.1015 0.220184 2.3246 0
M  V30 204 C 24.0825 -0.65073 1.57161 0
M  V30 205 O 25.2675 -0.582359 1.85263 0
M  V30 206 C 22.3975 -0.637353 3.41402 0
M  V30 207 C 21.3515 0.134531 4.27789 0
M  V30 208 C 20.6775 -0.844285 5.27992 0
M  V30 209 C 21.9775 1.32979 5.05088 0
M  V30 210 H 23.6715 1.02787 2.81203 0
M  V30 211 H 21.2175 0.495717 1.35199 0
M  V30 212 H 23.1705 -1.05302 4.08031 0
M  V30 213 H 21.8945 -1.47785 2.91251 0
M  V30 214 H 20.5535 0.531296 3.6273 0
M  V30 215 H 20.2015 -1.68011 4.74111 0
M  V30 216 H 19.9015 -0.332184 5.8666 0
M  V30 217 H 21.4255 -1.2583 5.97494 0
M  V30 218 H 22.8395 0.98934 5.64699 0
M  V30 219 H 21.2365 1.77593 5.7322 0
M  V30 220 H 22.3065 2.11978 4.36111 0
M  V30 221 N 23.6496 -1.47581 0.552962 0
M  V30 222 C 24.5816 -2.27997 -0.234533 0
M  V30 223 C 25.5946 -1.36753 -0.883321 0
M  V30 224 O 26.7836 -1.61612 -0.757889 0
M  V30 225 C 23.8836 -3.10879 -1.34935 0
M  V30 226 C 23.0566 -4.30056 -0.798158 0
M  V30 227 C 22.1156 -4.94567 -1.79694 0
M  V30 228 O 21.1416 -5.53087 -1.34474 0
M  V30 229 N 22.3436 -4.88878 -3.13015 0
M  V30 230 H 25.1086 -2.96222 0.455255 0
M  V30 231 H 22.6696 -1.57163 0.388761 0
M  V30 232 H 24.6616 -3.50903 -2.01616 0
M  V30 233 H 23.2316 -2.44924 -1.94244 0
M  V30 234 H 22.4516 -3.94174 0.0453079 0
M  V30 235 H 23.7396 -5.07152 -0.409173 0
M  V30 236 H 23.1376 -4.42526 -3.52402 0
M  V30 237 H 21.6946 -5.32934 -3.75266 0
M  V30 238 N 25.1277 -0.289203 -1.54924 0
M  V30 239 C 26.0597 0.625583 -2.20497 0
M  V30 240 C 27.0727 1.10667 -1.19402 0
M  V30 241 O 28.2617 1.02615 -1.46056 0
M  V30 242 C 25.3617 1.86702 -2.82835 0
M  V30 243 C 24.5347 1.5304 -4.09753 0
M  V30 244 C 23.5937 2.62576 -4.56005 0
M  V30 245 O 22.6197 2.28167 -5.21468 0
M  V30 246 N 23.8217 3.92901 -4.27328 0
M  V30 247 H 26.5867 0.0642801 -2.99631 0
M  V30 248 H 24.1477 -0.110896 -1.6152 0
M  V30 249 H 26.1397 2.59304 -3.10715 0
M  V30 250 H 24.7097 2.33702 -2.07611 0
M  V30 251 H 23.9297 0.637564 -3.8901 0
M  V30 252 H 25.2177 1.28072 -4.92418 0
M  V30 253 H 24.6157 4.23671 -3.74859 0
M  V30 254 H 23.1727 4.61837 -4.59946 0
M  V30 255 N 26.6058 1.57591 -0.0167156 0
M  V30 256 C 27.5388 2.04944 1.00366 0
M  V30 257 C 28.5168 0.942648 1.32487 0
M  V30 258 O 29.7008 1.21205 1.44367 0
M  V30 259 C 26.8278 2.46109 2.32697 0
M  V30 260 C 25.8738 3.67686 2.16123 0
M  V30 261 S 26.7068 5.14882 1.47161 0
M  V30 262 C 27.8628 5.59332 2.80888 0
M  V30 263 H 28.0958 2.91172 0.600528 0
M  V30 264 H 25.6288 1.53168 0.194632 0
M  V30 265 H 27.5868 2.70493 3.08778 0
M  V30 266 H 26.2478 1.6025 2.70146 0
M  V30 267 H 25.4408 3.94296 3.13922 0
M  V30 268 H 25.0428 3.43391 1.48185 0
M  V30 269 H 27.3348 5.62814 3.77156 0
M  V30 270 H 28.2778 6.5905 2.58958 0
M  V30 271 H 28.6858 4.86942 2.85565 0
M  V30 272 N 28.0839 -0.256276 1.55502 0
M  V30 273 C 29.0159 -1.33981 1.85962 0
M  V30 274 C 30.0289 -1.44743 0.745212 0
M  V30 275 O 31.2179 -1.4626 1.02324 0
M  V30 276 C 28.3179 -2.7194 2.02242 0
M  V30 277 C 27.4909 -2.83562 3.33033 0
M  V30 278 C 26.5499 -4.02304 3.39172 0
M  V30 279 O 25.5759 -3.92273 4.12444 0
M  V30 280 N 26.7779 -5.15045 2.67784 0
M  V30 281 H 29.5429 -1.08191 2.7949 0
M  V30 282 H 27.1039 -0.446388 1.55624 0
M  V30 283 H 29.0959 -3.49697 2.03701 0
M  V30 284 H 27.6659 -2.90479 1.15502 0
M  V30 285 H 26.8859 -1.92555 3.43971 0
M  V30 286 H 28.1739 -2.88271 4.19258 0
M  V30 287 H 27.5719 -5.26085 2.07968 0
M  V30 288 H 26.1289 -5.90972 2.74947 0
M  V30 289 N 29.562 -1.4872 -0.521534 0
M  V30 290 C 30.472 -1.66569 -1.65203 0
M  V30 291 C 31.488 -0.548197 -1.65139 0
M  V30 292 O 32.664 -0.820339 -1.83936 0
M  V30 293 C 29.729 -1.70917 -3.01642 0
M  V30 294 C 28.79 -2.94356 -3.12495 0
M  V30 295 C 28.023 -2.98487 -4.42426 0
M  V30 296 O 28.246 -2.10786 -5.30024 0
M  V30 297 O 27.18 -3.90746 -4.57822 0
M  V30 298 H 31.006 -2.62298 -1.5308 0
M  V30 299 H 28.591 -1.3222 -0.695565 0
M  V30 300 H 30.473 -1.7625 -3.82771 0
M  V30 301 H 29.148 -0.783633 -3.14071 0
M  V30 302 H 28.055 -2.94552 -2.3063 0
M  V30 303 H 29.388 -3.86322 -3.04986 0
M  V30 304 N 31.0401 0.771051 -1.3745 0
M  V30 305 C 32.0031 1.86598 -1.33093 0
M  V30 306 C 33.0031 1.59076 -0.234845 0
M  V30 307 O 34.1931 1.67145 -0.490732 0
M  V30 308 C 31.3251 3.23747 -1.06773 0
M  V30 309 H 32.5181 1.91873 -2.30488 0
M  V30 310 H 30.0711 0.970876 -1.2249 0
M  V30 311 H 30.8061 3.24148 -0.099129 0
M  V30 312 H 30.5911 3.45115 -1.86112 0
M  V30 313 H 32.0811 4.03824 -1.06377 0
M  V30 314 N 32.5182 1.22032 0.997298 0
M  V30 315 C 33.4282 1.00271 2.12092 0
M  V30 316 C 34.4442 -0.047621 1.73935 0
M  V30 317 O 35.6202 0.144136 2.00884 0
M  V30 318 C 32.6852 0.578449 3.4184 0
M  V30 319 C 31.7462 1.70189 3.94125 0
M  V30 320 C 30.9792 1.29778 5.17681 0
M  V30 321 O 31.2022 0.174676 5.70132 0
M  V30 322 O 30.1362 2.11261 5.63607 0
M  V30 323 H 33.9622 1.94398 2.3333 0
M  V30 324 H 31.5472 1.00587 1.10465 0
M  V30 325 H 33.4292 0.351998 4.19927 0
M  V30 326 H 32.1042 -0.334019 3.21972 0
M  V30 327 H 31.0112 1.98282 3.1723 0
M  V30 328 H 32.3442 2.59206 4.18417 0
M  V30 329 N 33.9963 -1.19345 1.0293 0
M  V30 330 C 34.9263 -2.2481 0.631105 0
M  V30 331 C 35.9073 -1.66245 -0.360104 0
M  V30 332 O 37.0923 -1.92677 -0.242726 0
M  V30 333 C 34.2223 -3.47295 -0.0184607 0
M  V30 334 C 33.1763 -4.18536 0.895073 0
M  V30 335 C 32.5023 -5.34586 0.110592 0
M  V30 336 C 33.8023 -4.73287 2.209 0
M  V30 337 H 35.4963 -2.58372 1.51275 0
M  V30 338 H 33.0423 -1.24194 0.728818 0
M  V30 339 H 34.9953 -4.20268 -0.308675 0
M  V30 340 H 33.7193 -3.12933 -0.934907 0
M  V30 341 H 32.3783 -3.47446 1.16949 0
M  V30 342 H 32.0263 -4.96469 -0.807902 0
M  V30 343 H 31.7263 -5.83183 0.719087 0
M  V30 344 H 33.2503 -6.10355 -0.172871 0
M  V30 345 H 34.6643 -5.38013 1.98028 0
M  V30 346 H 33.0613 -5.32373 2.76946 0
M  V30 347 H 34.1313 -3.91331 2.86336 0
M  V30 348 N 35.4744 -0.807222 -1.35358 0
M  V30 349 C 36.8904 -0.491038 -1.51858 0
M  V30 350 C 37.0904 0.987648 -1.75635 0
M  V30 351 O 36.1464 1.77265 -1.79815 0
M  V30 352 C 37.4594 -1.33695 -2.69344 0
M  V30 353 C 39.0074 -1.33246 -2.83222 0
M  V30 354 C 39.4824 -2.1625 -4.03733 0
M  V30 355 N 40.9734 -2.1379 -4.10911 0
M  V30 356 C 41.7084 -2.74772 -5.03277 0
M  V30 357 N 41.2044 -3.44684 -6.0097 0
M  V30 358 N 42.9974 -2.6441 -4.96028 0
M  V30 359 H 35.1484 -1.76485 -1.18181 0
M  V30 360 H 37.4114 -0.751199 -0.578276 0
M  V30 361 H 37.1174 -2.38634 -2.58354 0
M  V30 362 H 36.9914 -0.990618 -3.6396 0
M  V30 363 H 39.3784 -0.290911 -2.93663 0
M  V30 364 H 39.4594 -1.71866 -1.89461 0
M  V30 365 H 39.1034 -3.20445 -3.94052 0
M  V30 366 H 39.0334 -1.74989 -4.96675 0
M  V30 367 H 41.5244 -1.62923 -3.40976 0
M  V30 368 H 41.8374 -3.88501 -6.68047 0
M  V30 369 H 40.1824 -3.48788 -6.01142 0
M  V30 370 H 43.3734 -2.0938 -4.18662 0
M  V30 371 H 43.5464 -3.12225 -5.6782 0
M  V30 372 N 36.9525 1.47285 -0.560781 0
M  V30 373 C 37.8825 2.32857 0.173105 0
M  V30 374 C 38.8635 1.44009 0.905281 0
M  V30 375 O 40.0485 1.7286 0.885046 0
M  V30 376 C 37.1785 3.25861 1.20133 0
M  V30 377 C 36.1325 4.23978 0.585388 0
M  V30 378 C 35.4585 5.06332 1.7185 0
M  V30 379 C 36.7585 5.20242 -0.463178 0
M  V30 380 H 38.4525 2.94466 -0.541307 0
M  V30 381 H 35.9985 1.41601 -0.261764 0
M  V30 382 H 37.9515 3.84569 1.72293 0
M  V30 383 H 36.6755 2.62315 1.94573 0
M  V30 384 H 35.3345 3.66501 0.085054 0
M  V30 385 H 34.9825 4.39186 2.45203 0
M  V30 386 H 34.6825 5.72762 1.31213 0
M  V30 387 H 36.2065 5.67899 2.24329 0
M  V30 388 H 37.6205 5.73293 -0.027502 0
M  V30 389 H 36.0175 5.94896 -0.788627 0
M  V30 390 H 37.0875 4.65504 -1.35773 0
M  V30 391 N 38.4306 0.297415 1.54768 0
M  V30 392 C 39.3606 -0.573494 2.26348 0
M  V30 393 C 40.3416 -1.14085 1.26169 0
M  V30 394 O 41.5266 -1.17086 1.54934 0
M  V30 395 C 38.6566 -1.74716 3.00153 0
M  V30 396 C 37.6106 -1.31032 4.07449 0
M  V30 397 C 36.9366 -2.56887 4.68949 0
M  V30 398 C 38.2366 -0.444183 5.20408 0
M  V30 399 H 39.9306 0.0235131 2.99391 0
M  V30 400 H 37.4766 0.0127488 1.43994 0
M  V30 401 H 39.4296 -2.3625 3.48947 0
M  V30 402 H 38.1536 -2.37035 2.24682 0
M  V30 403 H 36.8126 -0.718066 3.59499 0
M  V30 404 H 36.4606 -3.17512 3.90122 0
M  V30 405 H 36.1606 -2.2836 5.41411 0
M  V30 406 H 37.6846 -3.19229 5.20505 0
M  V30 407 H 39.0986 -0.9651 5.65118 0
M  V30 408 H 37.4956 -0.252846 5.99567 0
M  V30 409 H 38.5656 0.531609 4.81977 0
M  V30 410 N 39.9087 -1.5758 0.0250728 0
M  V30 411 C 40.8187 -2.1343 -0.973905 0
M  V30 412 C 41.8347 -1.08556 -1.35984 0
M  V30 413 O 43.0107 -1.40592 -1.44207 0
M  V30 414 C 40.0757 -2.64703 -2.23904 0
M  V30 415 C 39.1367 -3.84276 -1.91391 0
M  V30 416 C 38.3697 -4.33095 -3.11873 0
M  V30 417 O 38.5927 -3.81107 -4.24398 0
M  V30 418 O 37.5267 -5.24984 -2.94406 0
M  V30 419 H 41.3527 -2.99057 -0.529036 0
M  V30 420 H 38.9377 -1.48118 -0.195288 0
M  V30 421 H 40.8197 -2.97769 -2.98181 0
M  V30 422 H 39.4947 -1.82161 -2.6758 0
M  V30 423 H 38.4017 -3.56143 -1.14511 0
M  V30 424 H 39.7347 -4.67968 -1.52534 0
M  V30 425 N 41.3868 0.248026 -1.55636 0
M  V30 426 C 42.6348 0.974295 -1.77065 0
M  V30 427 C 42.9558 1.85897 -0.588849 0
M  V30 428 O 42.2258 1.91868 0.395407 0
M  V30 429 H 40.8058 0.362733 -0.653019 0
M  V30 430 H 43.4678 0.266244 -1.93073 0
M  V30 431 H 42.5638 1.59667 -2.68166 0
M  V30 432 N 42.8649 1.48995 0.513639 0
M  V30 433 C 43.7979 1.59319 1.63379 0
M  V30 434 C 44.7759 0.442816 1.56454 0
M  V30 435 O 45.9599 0.656655 1.76693 0
M  V30 436 C 43.0869 1.5364 3.01848 0
M  V30 437 C 42.1329 2.7372 3.27078 0
M  V30 438 S 42.9659 4.35528 3.1157 0
M  V30 439 C 44.1219 4.32473 4.52458 0
M  V30 440 H 44.3549 2.54079 1.54374 0
M  V30 441 H 41.8879 1.3773 0.697849 0
M  V30 442 H 43.8459 1.51049 3.81699 0
M  V30 443 H 42.5069 0.601898 3.08279 0
M  V30 444 H 41.6999 2.6593 4.28132 0
M  V30 445 H 41.3019 2.73657 2.54927 0
M  V30 446 H 43.5939 4.03414 5.44301 0
M  V30 447 H 44.5369 5.33762 4.65299 0
M  V30 448 H 44.9449 3.62718 4.32546 0
M  V30 449 N 44.343 -0.763751 1.37857 0
M  V30 450 C 45.759 -1.06542 1.18832 0
M  V30 451 C 45.959 -2.01478 0.0299722 0
M  V30 452 O 45.015 -2.4458 -0.627447 0
M  V30 453 C 46.328 -1.65525 2.51042 0
M  V30 454 C 47.876 -1.77745 2.57635 0
M  V30 455 C 48.351 -2.4014 3.89996 0
M  V30 456 N 49.842 -2.47582 3.91481 0
M  V30 457 C 50.577 -2.96732 4.9065 0
M  V30 458 N 50.073 -3.45993 6.00217 0
M  V30 459 N 51.866 -2.95679 4.78048 0
M  V30 460 H 44.017 -0.133556 2.1198 0
M  V30 461 H 46.28 -0.121879 0.940133 0
M  V30 462 H 45.986 -1.03236 3.36207 0
M  V30 463 H 45.86 -2.64719 2.68707 0
M  V30 464 H 48.247 -2.39164 1.72872 0
M  V30 465 H 48.328 -0.772836 2.43846 0
M  V30 466 H 47.972 -1.79358 4.75177 0
M  V30 467 H 47.902 -3.41223 4.01092 0
M  V30 468 H 50.393 -2.1273 3.12337 0
M  V30 469 H 50.706 -3.81922 6.7183 0
M  V30 470 H 49.051 -3.44077 6.03851 0
M  V30 471 H 52.242 -2.56499 3.91568 0
M  V30 472 H 52.415 -3.33672 5.55488 0
M  V30 473 N 45.8211 -1.22559 -0.990812 0
M  V30 474 C 46.7681 -0.997519 -2.0813 0
M  V30 475 C 47.7381 0.0814702 -1.659 0
M  V30 476 O 48.9231 -0.0685424 -1.90677 0
M  V30 477 C 46.0631 -0.583615 -3.40129 0
M  V30 478 C 45.1761 -1.7336 -3.9569 0
M  V30 479 C 44.3111 -1.26748 -5.15857 0
M  V30 480 C 43.3501 -2.38888 -5.63559 0
M  V30 481 N 42.4871 -1.93308 -6.74964 0
M  V30 482 H 47.3271 -1.93099 -2.26973 0
M  V30 483 H 44.8641 -0.962114 -1.11273 0
M  V30 484 H 46.8221 -0.324801 -4.15934 0
M  V30 485 H 45.4521 0.312845 -3.2128 0
M  V30 486 H 44.5041 -2.10669 -3.16738 0
M  V30 487 H 45.8161 -2.57704 -4.27071 0
M  V30 488 H 44.9701 -0.966173 -5.98957 0
M  V30 489 H 43.7091 -0.394272 -4.86104 0
M  V30 490 H 42.7141 -2.69805 -4.79046 0
M  V30 491 H 43.9391 -3.26728 -5.95336 0
M  V30 492 H 41.8851 -1.08352 -6.4699 0
M  V30 493 H 41.8021 -2.71217 -7.05675 0
M  V30 494 H 43.0701 -1.66252 -7.61564 0
M  V30 495 N 47.2992 1.18797 -1.03562 0
M  V30 496 C 48.5452 1.89192 -0.746867 0
M  V30 497 C 48.9002 1.78531 0.717245 0
M  V30 498 O 48.1932 1.17137 1.51622 0
M  V30 499 C 48.3872 3.38692 -1.14117 0
M  V30 500 C 48.2162 3.63902 -2.64207 0
M  V30 501 C 46.9862 3.81553 -3.31279 0
M  V30 502 C 49.1842 3.64903 -3.62423 0
M  V30 503 N 47.1662 3.94455 -4.70402 0
M  V30 504 C 48.5372 3.83458 -4.87196 0
M  V30 505 C 50.5922 3.47965 -3.56125 0
M  V30 506 C 49.2952 3.86829 -6.06429 0
M  V30 507 C 51.3212 3.52616 -4.7478 0
M  V30 508 C 50.6832 3.71663 -5.9837 0
M  V30 509 H 46.7822 0.711141 -0.325273 0
M  V30 510 H 49.3662 1.42727 -1.32428 0
M  V30 511 H 47.5372 3.83864 -0.591889 0
M  V30 512 H 49.2692 3.96634 -0.803966 0
M  V30 513 H 46.0242 3.80723 -2.81686 0
M  V30 514 H 46.4482 4.0474 -5.42692 0
M  V30 515 H 51.0902 3.32189 -2.61553 0
M  V30 516 H 48.8082 4.01395 -7.01362 0
M  V30 517 H 52.3942 3.40791 -4.71543 0
M  V30 518 H 51.2742 3.75145 -6.88648 0
M  V30 519 N 48.7773 0.814389 1.34928 0
M  V30 520 C 49.7103 0.175641 2.27523 0
M  V30 521 C 50.6883 -0.662953 1.48471 0
M  V30 522 O 51.8723 -0.628545 1.77712 0
M  V30 523 C 48.9993 -0.755516 3.30166 0
M  V30 524 C 48.0453 0.00445305 4.265 0
M  V30 525 S 48.8783 1.34582 5.18313 0
M  V30 526 C 50.0343 0.419315 6.24494 0
M  V30 527 H 50.2673 0.960691 2.8135 0
M  V30 528 H 47.8003 0.609846 1.41846 0
M  V30 529 H 49.7583 -1.28723 3.89796 0
M  V30 530 H 48.4193 -1.51402 2.75202 0
M  V30 531 H 47.6123 -0.703077 4.99072 0
M  V30 532 H 47.2143 0.466447 3.7108 0
M  V30 533 H 49.5063 -0.392432 6.76362 0
M  V30 534 H 50.4493 1.11446 6.99275 0
M  V30 535 H 50.8573 0.0115389 5.64499 0
M  V30 536 N 50.2554 -1.46986 0.568584 0
M  V30 537 C 51.2184 -2.28624 -0.162366 0
M  V30 538 C 52.2184 -1.37596 -0.832103 0
M  V30 539 O 53.4084 -1.60115 -0.68622 0
M  V30 540 C 50.5404 -3.17596 -1.23878 0
M  V30 541 H 51.7334 -2.94722 0.554899 0
M  V30 542 H 49.2864 -1.52863 0.325976 0
M  V30 543 H 50.0214 -2.56214 -1.98808 0
M  V30 544 H 49.8064 -3.846 -0.763219 0
M  V30 545 H 51.2964 -3.79078 -1.75185 0
M  V30 546 N 51.7335 -0.305618 -1.54608 0
M  V30 547 C 52.6655 0.602161 -2.21149 0
M  V30 548 C 53.6785 1.09394 -1.20569 0
M  V30 549 O 54.8675 1.0106 -1.47136 0
M  V30 550 C 51.9675 1.83692 -2.84799 0
M  V30 551 C 51.1405 1.48686 -4.11353 0
M  V30 552 C 50.1995 2.57725 -4.58764 0
M  V30 553 O 49.2255 2.22623 -5.23858 0
M  V30 554 N 50.4275 3.88346 -4.31471 0
M  V30 555 H 53.1925 0.0324966 -2.99682 0
M  V30 556 H 50.7535 -0.128021 -1.61393 0
M  V30 557 H 52.7455 2.55994 -3.13448 0
M  V30 558 H 51.3155 2.31486 -2.10078 0
M  V30 559 H 50.5355 0.596269 -3.89664 0
M  V30 560 H 51.8235 1.22842 -4.93748 0
M  V30 561 H 51.2215 4.19671 -3.79331 0
M  V30 562 H 49.7785 4.56932 -4.64818 0
M  V30 563 N 53.2116 1.57565 -0.0334293 0
M  V30 564 C 54.6276 1.56297 0.322997 0
M  V30 565 C 54.8276 1.03945 1.7262 0
M  V30 566 O 53.8836 0.688109 2.42943 0
M  V30 567 C 55.1966 3.00232 0.167664 0
M  V30 568 C 56.7446 3.12078 0.240107 0
M  V30 569 C 57.2196 4.57859 0.113513 0
M  V30 570 N 58.7106 4.62887 0.170359 0
M  V30 571 C 59.4456 5.73319 0.0962517 0
M  V30 572 N 58.9416 6.92794 -0.0291881 0
M  V30 573 N 60.7346 5.61898 0.150551 0
M  V30 574 H 52.8856 1.89923 -0.950956 0
M  V30 575 H 55.1486 0.873824 -0.367608 0
M  V30 576 H 54.8546 3.42501 -0.799102 0
M  V30 577 H 54.7286 3.654 0.936083 0
M  V30 578 H 57.1156 2.69718 1.19733 0
M  V30 579 H 57.1966 2.49623 -0.558763 0
M  V30 580 H 56.8406 5.009 -0.840314 0
M  V30 581 H 56.7706 5.18299 0.931302 0
M  V30 582 H 59.2616 3.76954 0.26728 0
M  V30 583 H 59.5746 7.7276 -0.0789252 0
M  V30 584 H 57.9196 6.94971 -0.0640299 0
M  V30 585 H 61.1106 4.67448 0.246981 0
M  V30 586 H 61.2836 6.47938 0.0893365 0
M  V30 587 N 54.6897 -0.239769 1.55765 0
M  V30 588 C 55.9357 -0.968234 1.78194 0
M  V30 589 C 56.2687 -1.84701 0.599938 0
M  V30 590 O 55.5437 -1.9031 -0.401524 0
M  V30 591 C 55.8267 -1.8227 3.10564 0
M  V30 592 C 55.6797 -0.971633 4.3918 0
M  V30 593 C 56.9987 -2.80388 3.39221 0
M  V30 594 H 54.1177 -0.350572 0.648281 0
M  V30 595 H 56.7597 -0.238259 1.885 0
M  V30 596 H 54.9097 -2.44507 3.01908 0
M  V30 597 H 56.5817 -0.367408 4.59835 0
M  V30 598 H 54.8247 -0.276276 4.32919 0
M  V30 599 H 55.4957 -1.60346 5.28198 0
M  V30 600 H 57.9717 -2.28287 3.47885 0
M  V30 601 H 56.8477 -3.3729 4.33044 0
M  V30 602 H 57.1087 -3.57212 2.60484 0
M  V30 603 N 56.1678 -1.49265 -0.50573 0
M  V30 604 C 57.1148 -1.65585 -1.6078 0
M  V30 605 C 58.0848 -0.497396 -1.58478 0
M  V30 606 O 59.2698 -0.72385 -1.76536 0
M  V30 607 C 56.4098 -1.72408 -2.98948 0
M  V30 608 C 55.5228 -2.99525 -3.11301 0
M  V30 609 C 54.6578 -2.97356 -4.40174 0
M  V30 610 C 53.6968 -4.19074 -4.46143 0
M  V30 611 N 52.8338 -4.14841 -5.66437 0
M  V30 612 H 57.6738 -2.59688 -1.46172 0
M  V30 613 H 55.2108 -1.28761 -0.711261 0
M  V30 614 H 57.1688 -1.74344 -3.79025 0
M  V30 615 H 55.7988 -0.817753 -3.1227 0
M  V30 616 H 54.8508 -3.07222 -2.24318 0
M  V30 617 H 56.1628 -3.89518 -3.11572 0
M  V30 618 H 55.3168 -2.97829 -5.28567 0
M  V30 619 H 54.0558 -2.05133 -4.42461 0
M  V30 620 H 53.0608 -4.1885 -3.56153 0
M  V30 621 H 54.2858 -5.12483 -4.45575 0
M  V30 622 H 52.2318 -3.25453 -5.69575 0
M  V30 623 H 52.1488 -4.98564 -5.68304 0
M  V30 624 H 53.4168 -4.1941 -6.57051 0
M  V30 625 N 57.6459 0.756429 -1.3826 0
M  V30 626 C 58.8709 1.55077 -1.37717 0
M  V30 627 C 59.2959 1.88073 0.03164 0
M  V30 628 O 58.6539 1.50364 1.01293 0
M  V30 629 C 58.7019 2.8283 -2.23695 0
M  V30 630 O 57.8059 3.77862 -1.6521 0
M  V30 631 H 57.1469 0.469152 -0.469885 0
M  V30 632 H 59.6769 0.935019 -1.81985 0
M  V30 633 H 59.6869 3.31783 -2.37453 0
M  V30 634 H 58.3619 2.58144 -3.2609 0
M  V30 635 H 56.9389 3.36555 -1.60578 0
M  V30 636 N 59.124 1.23083 0.984299 0
M  V30 637 C 60.401 0.9689 1.69917 0
M  V30 638 C 60.781 -0.513604 2.04757 0
M  V30 639 O 60.129 -1.48383 1.73767 0
M  V30 640 C 60.339 1.87518 2.94343 0
M  V30 641 C 61.687 2.13636 3.6694 0
M  V30 642 O 62.711 1.85036 3.04368 0
M  V30 643 O 61.57 2.62119 4.79537 0
M  V30 644 H 58.664 0.365095 0.742048 0
M  V30 645 H 61.21 1.34107 1.03987 0
M  V30 646 H 59.982 2.87756 2.65164 0
M  V30 647 H 59.605 1.50514 3.6801 0
M  V30 648 N 60.6021 -1.18246 1.0419 0
M  V30 649 C 62.0181 -1.40269 0.761366 0
M  V30 650 C 62.2181 -1.90777 -0.648578 0
M  V30 651 O 61.2741 -2.0929 -1.41258 0
M  V30 652 C 62.5871 -2.40237 1.8085 0
M  V30 653 C 64.1351 -2.53961 1.82955 0
M  V30 654 C 64.6101 -3.57194 2.86664 0
M  V30 655 N 66.1011 -3.64702 2.85563 0
M  V30 656 C 66.8361 -4.44309 3.6246 0
M  V30 657 N 66.3321 -5.27514 4.49111 0
M  V30 658 N 68.1251 -4.39084 3.50944 0
M  V30 659 H 60.2761 -0.837882 1.95175 0
M  V30 660 H 62.5391 -0.430608 0.84456 0
M  V30 661 H 62.2451 -2.10176 2.81991 0
M  V30 662 H 62.1191 -3.39601 1.64168 0
M  V30 663 H 64.5061 -2.83338 0.824855 0
M  V30 664 H 64.5871 -1.54706 2.03715 0
M  V30 665 H 64.2311 -3.28558 3.87314 0
M  V30 666 H 64.1611 -4.5613 2.6316 0
M  V30 667 H 66.6521 -3.05289 2.22727 0
M  V30 668 H 66.9651 -5.85411 5.04493 0
M  V30 669 H 65.3101 -5.2693 4.53178 0
M  V30 670 H 68.5011 -3.7313 2.82651 0
M  V30 671 H 68.6741 -5.00883 4.11121 0
M  V30 672 N 62.0802 -0.821533 -1.34494 0
M  V30 673 C 62.9902 -0.244355 -2.33324 0
M  V30 674 C 64.0062 0.620527 -1.62559 0
M  V30 675 O 65.1822 0.528754 -1.94335 0
M  V30 676 C 62.2472 0.585368 -3.41723 0
M  V30 677 C 61.3082 -0.301752 -4.28238 0
M  V30 678 C 60.5412 0.488466 -5.3146 0
M  V30 679 O 60.7642 1.72186 -5.4379 0
M  V30 680 O 59.6982 -0.12848 -6.01763 0
M  V30 681 H 63.5242 -1.06231 -2.84515 0
M  V30 682 H 61.1092 -0.583645 -1.37528 0
M  V30 683 H 62.9912 1.05747 -4.07916 0
M  V30 684 H 61.6662 1.38068 -2.92778 0
M  V30 685 H 60.5732 -0.821315 -3.64973 0
M  V30 686 H 61.9062 -1.06138 -4.8062 0
M  V30 687 N 63.5583 1.46682 -0.576371 0
M  V30 688 C 64.7883 2.06498 -0.0648694 0
M  V30 689 C 65.1963 1.42665 1.24271 0
M  V30 690 O 64.5393 0.523886 1.76071 0
M  V30 691 C 64.6013 3.5904 0.181816 0
M  V30 692 C 64.2653 4.45028 -1.0392 0
M  V30 693 C 65.2623 4.81959 -1.94966 0
M  V30 694 C 62.9473 4.86259 -1.25927 0
M  V30 695 C 64.9413 5.58942 -3.06371 0
M  V30 696 C 62.6283 5.63002 -2.37638 0
M  V30 697 C 63.6263 5.99257 -3.2769 0
M  V30 698 O 63.3143 6.7445 -4.37461 0
M  V30 699 H 63.0463 0.674028 -0.0515987 0
M  V30 700 H 65.6003 1.89393 -0.794951 0
M  V30 701 H 63.8303 3.74429 0.966436 0
M  V30 702 H 65.5193 4.00806 0.641047 0
M  V30 703 H 66.2853 4.50689 -1.79177 0
M  V30 704 H 62.1643 4.57494 -0.567448 0
M  V30 705 H 65.7083 5.87158 -3.76684 0
M  V30 706 H 61.6053 5.93686 -2.53392 0
M  V30 707 H 62.3733 6.92867 -4.35749 0
M  V30 708 N 65.0364 0.313813 1.54444 0
M  V30 709 C 65.9994 -0.54379 2.22656 0
M  V30 710 C 66.9994 -1.05124 1.21678 0
M  V30 711 O 68.1894 -0.945225 1.46325 0
M  V30 712 C 65.3214 -1.75427 2.92298 0
M  V30 713 H 66.5144 0.0523599 2.99854 0
M  V30 714 H 64.0674 0.0647834 1.56166 0
M  V30 715 H 64.8024 -2.38991 2.19211 0
M  V30 716 H 64.5874 -1.39791 3.66334 0
M  V30 717 H 66.0774 -2.36325 3.44297 0
M  V30 718 N 66.5145 -1.57545 0.0417849 0
M  V30 719 C 67.7625 -1.91937 -0.632829 0
M  V30 720 C 68.0835 -0.919978 -1.71934 0
M  V30 721 O 67.3535 0.0366064 -1.95866 0
M  V30 722 H 65.9335 -0.708493 -0.236742 0
M  V30 723 H 68.5955 -1.9468 0.0925745 0
M  V30 724 H 67.6915 -2.92912 -1.07746 0
M  V30 725 N 67.9926 0.231505 -1.5589 0
M  V30 726 C 68.9226 1.29022 -1.94617 0
M  V30 727 C 69.9036 1.4941 -0.813067 0
M  V30 728 O 71.0886 1.6176 -1.07459 0
M  V30 729 C 68.2186 2.64199 -2.25424 0
M  V30 730 C 67.1726 2.58484 -3.41131 0
M  V30 731 C 66.4986 3.97599 -3.57518 0
M  V30 732 C 67.7986 2.1413 -4.76388 0
M  V30 733 H 69.4926 0.968563 -2.83301 0
M  V30 734 H 67.0386 0.464479 -1.36303 0
M  V30 735 H 68.9916 3.38413 -2.51107 0
M  V30 736 H 67.7156 2.98032 -1.33583 0
M  V30 737 H 66.3746 1.86727 -3.15481 0
M  V30 738 H 66.0226 4.28723 -2.6307 0
M  V30 739 H 65.7226 3.94659 -4.35337 0
M  V30 740 H 67.2466 4.7349 -3.85538 0
M  V30 741 H 68.6606 2.78083 -5.01341 0
M  V30 742 H 67.0576 2.2227 -5.57419 0
M  V30 743 H 68.1276 1.09331 -4.72414 0
M  V30 744 N 69.4707 1.49531 0.497807 0
M  V30 745 C 70.4007 1.6935 1.60757 0
M  V30 746 C 71.3817 0.542218 1.61227 0
M  V30 747 O 72.5667 0.778417 1.77917 0
M  V30 748 C 69.6967 1.76298 2.99226 0
M  V30 749 C 68.6507 2.91248 3.13622 0
M  V30 750 C 67.9767 2.83312 4.53474 0
M  V30 751 C 69.2767 4.3214 2.93346 0
M  V30 752 H 70.9707 2.62263 1.44425 0
M  V30 753 H 68.5167 1.26208 0.693367 0
M  V30 754 H 70.4697 1.88749 3.76765 0
M  V30 755 H 69.1937 0.799871 3.16654 0
M  V30 756 H 67.8527 2.78404 2.38509 0
M  V30 757 H 67.5007 1.84902 4.67782 0
M  V30 758 H 67.2007 3.60465 4.64046 0
M  V30 759 H 68.7247 2.97775 5.33069 0
M  V30 760 H 70.1387 4.45649 3.60652 0
M  V30 761 H 68.5357 5.1054 3.15387 0
M  V30 762 H 69.6057 4.46363 1.89441 0
M  V30 763 N 70.9488 -0.749086 1.3866 0
M  V30 764 C 71.8988 -1.85368 1.32751 0
M  V30 765 C 72.8828 -1.59511 0.210945 0
M  V30 766 O 74.0748 -1.71255 0.447299 0
M  V30 767 C 71.2038 -3.23131 1.15935 0
M  V30 768 C 70.2898 -3.54864 2.32233 0
M  V30 769 N 70.6808 -3.57625 3.57684 0
M  V30 770 C 68.9788 -3.85154 2.24883 0
M  V30 771 C 69.6798 -3.86753 4.34508 0
M  V30 772 N 68.6558 -4.03812 3.63918 0
M  V30 773 H 72.4578 -1.85787 2.27729 0
M  V30 774 H 69.9718 -0.946658 1.31955 0
M  V30 775 H 71.9688 -4.02185 1.09786 0
M  V30 776 H 70.6288 -3.23961 0.218947 0
M  V30 777 H 71.6398 -3.39276 3.91295 0
M  V30 778 H 68.3168 -3.93672 1.39027 0
M  V30 779 H 69.7068 -3.95474 5.43185 0
M  V30 780 N 72.4269 -1.23603 -0.977757 0
M  V30 781 C 73.3769 -0.986664 -2.05545 0
M  V30 782 C 74.3609 0.0683009 -1.60755 0
M  V30 783 O 75.5529 -0.144162 -1.76412 0
M  V30 784 C 72.6819 -0.582623 -3.3832 0
M  V30 785 C 71.7679 -1.67313 -3.89701 0
M  V30 786 N 72.1589 -2.90394 -4.14132 0
M  V30 787 C 70.4569 -1.54832 -4.18262 0
M  V30 788 C 71.1579 -3.61017 -4.56116 0
M  V30 789 N 70.1339 -2.8854 -4.60701 0
M  V30 790 H 73.9359 -1.92139 -2.22396 0
M  V30 791 H 71.4499 -1.1358 -1.16074 0
M  V30 792 H 73.4469 -0.38524 -4.15116 0
M  V30 793 H 72.1069 0.34503 -3.22862 0
M  V30 794 H 73.1179 -3.26673 -4.01877 0
M  V30 795 H 69.7949 -0.687969 -4.11793 0
M  V30 796 H 71.1849 -4.66544 -4.83514 0
M  V30 797 N 73.905 1.17692 -1.04816 0
M  V30 798 C 74.838 2.20436 -0.590173 0
M  V30 799 C 75.816 1.58115 0.379244 0
M  V30 800 O 77 1.86228 0.291762 0
M  V30 801 C 74.127 3.38424 0.136817 0
M  V30 802 C 73.173 4.19176 -0.787023 0
M  V30 803 S 74.006 4.84815 -2.27409 0
M  V30 804 C 75.162 6.06195 -1.55817 0
M  V30 805 H 75.395 2.58944 -1.46067 0
M  V30 806 H 72.928 1.28246 -0.859784 0
M  V30 807 H 74.886 4.06798 0.550076 0
M  V30 808 H 73.547 2.98312 0.983299 0
M  V30 809 H 72.74 5.03499 -0.224681 0
M  V30 810 H 72.342 3.56219 -1.13947 0
M  V30 811 H 74.634 6.72078 -0.855387 0
M  V30 812 H 75.577 6.6695 -2.37873 0
M  V30 813 H 75.985 5.54701 -1.04722 0
M  V30 814 N 75.3831 0.828654 1.34056 0
M  V30 815 C 76.6081 0.431637 2.02859 0
M  V30 816 C 77.0331 -0.956339 1.61975 0
M  V30 817 O 76.3911 -1.62338 0.807228 0
M  V30 818 C 76.4391 0.548323 3.56407 0
M  V30 819 O 75.5431 -0.429556 4.10157 0
M  V30 820 H 74.8841 0.176886 0.640006 0
M  V30 821 H 77.4141 1.12066 1.71179 0
M  V30 822 H 77.4241 0.426196 4.05768 0
M  V30 823 H 76.0991 1.5606 3.8551 0
M  V30 824 H 74.6761 -0.265836 3.71951 0
M  V30 825 N 76.8612 -1.46375 0.584142 0
M  V30 826 C 77.7912 -2.33103 -0.136037 0
M  V30 827 C 78.7722 -1.45431 -0.882255 0
M  V30 828 O 79.9572 -1.74246 -0.857434 0
M  V30 829 C 77.0872 -3.27731 -1.14933 0
M  V30 830 C 76.0412 -4.24855 -0.517862 0
M  V30 831 C 75.3672 -5.09001 -1.63773 0
M  V30 832 C 76.6672 -5.19439 0.545886 0
M  V30 833 H 78.3612 -2.93568 0.588086 0
M  V30 834 H 75.9072 -1.41166 0.284259 0
M  V30 835 H 77.8602 -3.87261 -1.66153 0
M  V30 836 H 76.5842 -2.65377 -1.90375 0
M  V30 837 H 75.2432 -3.6659 -0.0267361 0
M  V30 838 H 74.8912 -4.43031 -2.38185 0
M  V30 839 H 74.5912 -5.74777 -1.22085 0
M  V30 840 H 76.1152 -5.71396 -2.15266 0
M  V30 841 H 77.5292 -5.73177 0.118704 0
M  V30 842 H 75.9262 -5.93566 0.88317 0
M  V30 843 H 76.9962 -4.63285 1.43162 0
M  V30 844 N 78.3393 -0.321999 -1.54275 0
M  V30 845 C 79.2713 0.578671 -2.21775 0
M  V30 846 C 80.2843 1.08109 -1.21722 0
M  V30 847 O 81.4733 0.994938 -1.482 0
M  V30 848 C 78.5733 1.80661 -2.86731 0
M  V30 849 C 77.7463 1.44314 -4.12907 0
M  V30 850 C 76.8053 2.52845 -4.61472 0
M  V30 851 O 75.8313 2.17054 -5.2619 0
M  V30 852 N 77.0333 3.83748 -4.35566 0
M  V30 853 H 79.7983 0.000709447 -2.997 0
M  V30 854 H 77.3593 -0.145132 -1.61248 0
M  V30 855 H 79.3513 2.52655 -3.16145 0
M  V30 856 H 77.9213 2.29245 -2.12521 0
M  V30 857 H 77.1413 0.554906 -3.90275 0
M  V30 858 H 78.4293 1.17598 -4.95023 0
M  V30 859 H 77.8273 4.15625 -3.83761 0
M  V30 860 H 76.3843 4.51977 -4.69638 0
M  V30 861 N 79.8174 1.5752 -0.0501392 0
M  V30 862 C 81.0944 1.83996 0.663685 0
M  V30 863 C 81.4744 0.938339 1.89099 0
M  V30 864 O 80.8224 -0.00087759 2.285 0
M  V30 865 C 81.0324 3.33702 1.02196 0
M  V30 866 C 82.3804 4.00691 1.40469 0
M  V30 867 O 83.4044 3.38321 1.11433 0
M  V30 868 O 82.2634 5.10658 1.94654 0
M  V30 869 H 79.3574 0.759385 0.32751 0
M  V30 870 H 81.9034 1.69514 -0.0794238 0
M  V30 871 H 80.6754 3.91015 0.149364 0
M  V30 872 H 80.2984 3.53368 1.82255 0
M  V30 873 N 81.2955 -0.223234 1.56011 0
M  V30 874 C 82.5205 -0.968978 1.83373 0
M  V30 875 C 82.9455 -1.77227 0.630254 0
M  V30 876 O 82.3035 -1.76345 -0.420959 0
M  V30 877 C 82.3515 -1.86363 3.08709 0
M  V30 878 O 81.4555 -2.95873 2.87285 0
M  V30 879 H 80.7965 -0.274461 0.604622 0
M  V30 880 H 83.3265 -0.237056 2.03222 0
M  V30 881 H 83.3365 -2.27376 3.38768 0
M  V30 882 H 82.0115 -1.27319 3.95933 0
M  V30 883 H 80.5885 -2.58818 2.68454 0
M  V30 884 N 82.7736 -1.49793 -0.48987 0
M  V30 885 C 84.0216 -1.59525 -1.24081 0
M  V30 886 C 84.3426 -0.288953 -1.92847 0
M  V30 887 O 83.6126 0.692436 -1.83254 0
M  V30 888 H 82.1926 -0.587796 -0.460983 0
M  V30 889 H 84.8546 -1.86477 -0.566778 0
M  V30 890 H 83.9506 -2.39696 -1.99881 0
M  V30 891 N 84.2517 0.741722 -1.39055 0
M  V30 892 C 85.4997 1.49818 -1.35643 0
M  V30 893 C 85.8207 1.94938 0.0491642 0
M  V30 894 O 85.0907 1.68505 0.999141 0
M  V30 895 H 83.6707 0.555755 -0.499144 0
M  V30 896 H 86.3327 0.880957 -1.73854 0
M  V30 897 H 85.4287 2.38348 -2.01486 0
M  V30 898 N 85.7298 1.2412 0.971189 0
M  V30 899 C 86.6618 0.988349 2.06795 0
M  V30 900 C 87.6748 -0.0409541 1.62748 0
M  V30 901 O 88.8638 0.195673 1.77424 0
M  V30 902 C 85.9638 0.469023 3.35639 0
M  V30 903 C 85.1368 1.56065 4.08611 0
M  V30 904 C 84.1958 1.04458 5.15728 0
M  V30 905 O 83.2218 1.73553 5.42096 0
M  V30 906 N 84.4238 -0.122817 5.8037 0
M  V30 907 H 87.1888 1.93265 2.29061 0
M  V30 908 H 84.7498 1.15102 1.13856 0
M  V30 909 H 86.7418 0.108613 4.04554 0
M  V30 910 H 85.3118 -0.380919 3.1027 0
M  V30 911 H 84.5318 2.09341 3.34021 0
M  V30 912 H 85.8198 2.29449 4.54126 0
M  V30 913 H 85.2178 -0.700563 5.61345 0
M  V30 914 H 83.7748 -0.424404 6.50417 0
M  V30 915 N 87.2079 -1.17134 1.05439 0
M  V30 916 C 88.4329 -1.91913 0.786396 0
M  V30 917 C 88.8579 -1.7643 -0.652234 0
M  V30 918 O 88.2159 -1.08372 -1.45345 0
M  V30 919 C 88.2639 -3.40921 1.17497 0
M  V30 920 O 87.3679 -4.11244 0.308589 0
M  V30 921 H 86.7089 -0.598215 0.288158 0
M  V30 922 H 89.2389 -1.48457 1.4079 0
M  V30 923 H 89.2489 -3.91668 1.14281 0
M  V30 924 H 87.9239 -3.5151 2.22292 0
M  V30 925 H 86.5009 -3.70731 0.40157 0
M  V30 926 N 88.686 -0.835752 -1.33615 0
M  V30 927 C 90.102 -0.523139 -1.50783 0
M  V30 928 C 90.302 0.950171 -1.77691 0
M  V30 929 O 89.358 1.73411 -1.83534 0
M  V30 930 C 90.671 -1.39378 -2.66448 0
M  V30 931 C 92.219 -1.39223 -2.80332 0
M  V30 932 C 92.694 -2.24765 -3.99055 0
M  V30 933 N 94.185 -2.22458 -4.06284 0
M  V30 934 C 94.92 -2.85386 -4.97336 0
M  V30 935 N 94.416 -3.57354 -5.93523 0
M  V30 936 N 96.209 -2.74872 -4.90308 0
M  V30 937 H 88.36 -1.78952 -1.14411 0
M  V30 938 H 90.623 -0.763297 -0.562212 0
M  V30 939 H 90.329 -2.44061 -2.53234 0
M  V30 940 H 90.203 -1.0676 -3.61776 0
M  V30 941 H 92.59 -0.353136 -2.92979 0
M  V30 942 H 92.671 -1.75846 -1.85773 0
M  V30 943 H 92.315 -3.28732 -3.87167 0
M  V30 944 H 92.245 -1.85485 -4.92852 0
M  V30 945 H 94.736 -1.70119 -3.37443 0
M  V30 946 H 95.049 -4.02584 -6.59656 0
M  V30 947 H 93.394 -3.61461 -5.93608 0
M  V30 948 H 96.585 -2.18213 -4.14126 0
M  V30 949 H 96.758 -3.24199 -5.61069 0
M  V30 950 N 90.1641 1.46063 -0.591896 0
M  V30 951 C 91.1271 2.28854 0.125973 0
M  V30 952 C 92.1271 1.38903 0.810107 0
M  V30 953 O 93.3171 1.61186 0.66066 0
M  V30 954 C 90.4491 3.19526 1.1881 0
M  V30 955 H 91.6421 2.93802 -0.601717 0
M  V30 956 H 89.1951 1.52325 -0.350254 0
M  V30 957 H 89.9301 2.59345 1.94707 0
M  V30 958 H 89.7151 3.85766 0.701936 0
M  V30 959 H 91.2051 3.81817 1.69132 0
M  V30 960 N 91.6422 0.330177 1.54103 0
M  V30 961 C 92.8912 -0.271336 1.99867 0
M  V30 962 C 93.2042 -1.52723 1.22209 0
M  V30 963 O 94.4102 -2.20515 1.58383 0
M  V30 964 C 92.8662 -0.534032 3.55916 0
M  V30 965 C 92.4742 0.705193 4.42415 0
M  V30 966 C 94.2182 -1.09514 4.1013 0
M  V30 967 C 92.1252 0.414035 5.89949 0
M  V30 968 H 91.0552 -0.105166 0.74663 0
M  V30 969 H 93.7062 0.443429 1.78062 0
M  V30 970 H 92.0882 -1.30915 3.73734 0
M  V30 971 H 93.2622 1.4804 4.36372 0
M  V30 972 H 91.5772 1.18698 3.99124 0
M  V30 973 H 94.1742 -1.3277 5.17954 0
M  V30 974 H 94.5172 -2.04656 3.62521 0
M  V30 975 H 95.0502 -0.381038 3.95971 0
M  V30 976 H 91.7892 1.33481 6.41766 0
M  V30 977 H 91.3092 -0.323336 5.98928 0
M  V30 978 H 92.9882 0.0263105 6.46995 0
M  V30 979 N 93.1203 -1.57491 0.0584922 0
M  V30 980 C 94.3453 -1.97711 -0.62652 0
M  V30 981 C 94.7703 -0.936132 -1.63151 0
M  V30 982 O 94.1283 0.099811 -1.81025 0
M  V30 983 C 94.1763 -3.36989 -1.28338 0
M  V30 984 O 93.2803 -3.35433 -2.39913 0
M  V30 985 H 92.6213 -0.643868 -0.162266 0
M  V30 986 H 95.1513 -2.04193 0.129064 0
M  V30 987 H 95.1613 -3.73879 -1.63335 0
M  V30 988 H 93.8363 -4.12289 -0.546889 0
M  V30 989 H 92.4133 -3.10298 -2.06809 0
M  V30 990 N 94.5984 0.214957 -1.56127 0
M  V30 991 C 96.0094 0.781386 -1.69562 0
M  V30 992 C 96.3604 1.84707 -0.66165 0
M  V30 993 O 95.4854 2.156 0.185927 0
M  V30 994 C 96.0804 1.42411 -3.07416 0
M  V30 995 C 94.6394 1.93786 -3.22683 0
M  V30 996 C 93.7864 0.800438 -2.65496 0
M  V30 997 H 96.7374 -0.00980633 -1.58697 0
M  V30 998 H 96.7584 2.29309 -3.0364 0
M  V30 999 H 96.2704 0.64826 -3.82648 0
M  V30 1000 H 94.3714 2.74152 -2.52332 0
M  V30 1001 H 94.4844 2.1133 -4.29973 0
M  V30 1002 H 92.8484 1.2095 -2.2415 0
M  V30 1003 H 93.6314 0.0371471 -3.4328 0
M  V30 1004 N 96.0765 1.50051 0.48192 0
M  V30 1005 C 97.3535 1.51009 1.2432 0
M  V30 1006 C 97.7335 0.248587 2.09631 0
M  V30 1007 O 97.0815 -0.768409 2.15192 0
M  V30 1008 C 97.2915 2.79981 2.08355 0
M  V30 1009 C 98.6395 3.3022 2.66908 0
M  V30 1010 O 99.6635 2.81228 2.18607 0
M  V30 1011 O 98.5225 4.15595 3.54884 0
M  V30 1012 H 95.6165 0.605239 0.563573 0
M  V30 1013 H 98.1625 1.62332 0.494627 0
M  V30 1014 H 96.9345 3.63275 1.45419 0
M  V30 1015 H 96.5575 2.7161 2.90368 0
M  V30 1016 N 97.5546 -0.734337 1.39446 0
M  V30 1017 C 98.7796 -1.52866 1.40167 0
M  V30 1018 C 99.2046 -1.881 -0.00171513 0
M  V30 1019 O 98.5626 -1.51957 -0.988879 0
M  V30 1020 C 98.6106 -2.79235 2.28167 0
M  V30 1021 O 97.7146 -3.75185 1.71201 0
M  V30 1022 H 97.0556 -0.461618 0.477289 0
M  V30 1023 H 99.5856 -0.905949 1.8345 0
M  V30 1024 H 99.5956 -3.27963 2.42702 0
M  V30 1025 H 98.2706 -2.52923 3.30156 0
M  V30 1026 H 96.8476 -3.33958 1.65912 0
M  V30 1027 N 99.0327 -1.24633 -0.964593 0
M  V30 1028 C 100.444 -1.08045 -1.5226 0
M  V30 1029 C 100.795 0.347116 -1.93105 0
M  V30 1030 O 99.9197 1.23588 -1.77637 0
M  V30 1031 C 100.515 -1.95514 -2.76695 0
M  V30 1032 C 99.0737 -1.8314 -3.28841 0
M  V30 1033 C 98.2207 -1.90262 -2.01732 0
M  V30 1034 H 101.172 -1.38064 -0.782553 0
M  V30 1035 H 101.193 -1.48925 -3.50145 0
M  V30 1036 H 100.705 -2.99407 -2.46936 0
M  V30 1037 H 98.8057 -0.82092 -3.63444 0
M  V30 1038 H 98.9187 -2.67406 -3.97531 0
M  V30 1039 H 97.2827 -1.34027 -2.16584 0
M  V30 1040 H 98.0657 -2.9574 -1.74334 0
M  V30 1041 N 100.511 1.16574 -1.06058 0
M  V30 1042 C 101.76 1.86385 -0.770944 0
M  V30 1043 C 102.073 1.82448 0.705129 0
M  V30 1044 O 103.279 2.47815 1.10905 0
M  V30 1045 C 101.735 3.34466 -1.32893 0
M  V30 1046 C 101.343 3.46883 -2.83507 0
M  V30 1047 C 103.087 4.09548 -1.11672 0
M  V30 1048 C 100.994 4.89036 -3.32562 0
M  V30 1049 H 99.9238 0.698181 -0.284709 0
M  V30 1050 H 102.575 1.31583 -1.27899 0
M  V30 1051 H 100.957 3.88859 -0.748662 0
M  V30 1052 H 102.131 3.02663 -3.47465 0
M  V30 1053 H 100.446 2.85232 -3.03368 0
M  V30 1054 H 103.043 5.14434 -1.45814 0
M  V30 1055 H 103.386 4.16264 -0.0549535 0
M  V30 1056 H 103.919 3.61387 -1.66265 0
M  V30 1057 H 100.658 4.87499 -4.38207 0
M  V30 1058 H 100.178 5.3389 -2.73351 0
M  V30 1059 H 101.857 5.57843 -3.2775 0
M  V30 1060 N 101.989 0.842826 1.3317 0
M  V30 1061 C 103.214 0.453129 2.02389 0
M  V30 1062 C 103.639 -0.939105 1.6298 0
M  V30 1063 O 102.997 -1.61472 0.8244 0
M  V30 1064 C 103.045 0.586094 3.55805 0
M  V30 1065 O 102.149 -0.386029 4.10589 0
M  V30 1066 H 101.49 0.183664 0.638094 0
M  V30 1067 H 104.02 1.13875 1.69981 0
M  V30 1068 H 104.03 0.469209 4.05293 0
M  V30 1069 H 102.705 1.6014 3.83833 0
M  V30 1070 H 101.282 -0.226371 3.72212 0
M  V30 1071 N 103.467 -1.45747 0.599634 0
M  V30 1072 C 104.399 -2.28628 -0.161879 0
M  V30 1073 C 105.412 -1.39494 -0.839367 0
M  V30 1074 O 106.601 -1.63941 -0.706089 0
M  V30 1075 C 103.701 -3.15014 -1.24976 0
M  V30 1076 C 102.874 -4.32378 -0.660935 0
M  V30 1077 C 101.933 -5.00033 -1.63869 0
M  V30 1078 O 100.959 -5.57085 -1.1681 0
M  V30 1079 N 102.161 -4.98589 -2.97303 0
M  V30 1080 H 104.926 -2.94624 0.549265 0
M  V30 1081 H 102.487 -1.55847 0.438565 0
M  V30 1082 H 104.479 -3.5714 -1.9035 0
M  V30 1083 H 103.049 -2.5098 -1.86354 0
M  V30 1084 H 102.269 -3.9383 0.170688 0
M  V30 1085 H 103.557 -5.08197 -0.247619 0
M  V30 1086 H 102.955 -4.53514 -3.38145 0
M  V30 1087 H 101.512 -5.44603 -3.58121 0
M  V30 1088 N 104.945 -0.338344 -1.53925 0
M  V30 1089 C 106.17 0.263987 -2.05713 0
M  V30 1090 C 106.595 1.43847 -1.21201 0
M  V30 1091 O 105.953 1.79904 -0.224535 0
M  V30 1092 C 106.001 0.662 -3.54471 0
M  V30 1093 O 105.105 1.76265 -3.72833 0
M  V30 1094 H 104.446 0.0448722 -0.662482 0
M  V30 1095 H 106.976 -0.491048 -1.9862 0
M  V30 1096 H 106.986 0.940594 -3.9701 0
M  V30 1097 H 105.661 -0.196937 -4.15433 0
M  V30 1098 H 104.238 1.48173 -3.42198 0
M  V30 1099 N 106.423 1.57458 -0.0668435 0
M  V30 1100 C 107.669 1.94401 0.598316 0
M  V30 1101 C 108.024 0.946335 1.67518 0
M  V30 1102 O 107.317 -0.0321442 1.91573 0
M  V30 1103 C 107.511 3.35784 1.22409 0
M  V30 1104 C 107.34 4.49212 0.209367 0
M  V30 1105 C 106.11 5.04887 -0.204218 0
M  V30 1106 C 108.308 5.11335 -0.551431 0
M  V30 1107 N 106.29 6.01854 -1.21016 0
M  V30 1108 C 107.661 6.03754 -1.41 0
M  V30 1109 C 109.716 4.94173 -0.608038 0
M  V30 1110 C 108.419 6.80854 -2.32013 0
M  V30 1111 C 110.445 5.71912 -1.50566 0
M  V30 1112 C 109.807 6.63976 -2.35191 0
M  V30 1113 H 105.906 0.758538 0.190114 0
M  V30 1114 H 108.49 1.94175 -0.142832 0
M  V30 1115 H 106.661 3.36757 1.93518 0
M  V30 1116 H 108.393 3.59976 1.84931 0
M  V30 1117 H 105.148 4.73266 0.177908 0
M  V30 1118 H 105.572 6.55035 -1.71049 0
M  V30 1119 H 110.214 4.22788 0.032022 0
M  V30 1120 H 107.932 7.5152 -2.97057 0
M  V30 1121 H 111.518 5.60656 -1.55423 0
M  V30 1122 H 110.398 7.2308 -3.03522 0
M  V30 1123 N 107.901 -0.206675 1.56239 0
M  V30 1124 C 108.864 -1.23976 1.92776 0
M  V30 1125 C 109.864 -1.39041 0.807729 0
M  V30 1126 O 111.054 -1.37051 1.0753 0
M  V30 1127 C 108.186 -2.61112 2.19165 0
M  V30 1128 H 109.379 -0.927764 2.85189 0
M  V30 1129 H 106.932 -0.447718 1.4975 0
M  V30 1130 H 107.667 -2.97386 1.29352 0
M  V30 1131 H 107.452 -2.51552 3.00772 0
M  V30 1132 H 108.942 -3.35633 2.48476 0
M  V30 1133 N 109.379 -1.50304 -0.473955 0
M  V30 1134 C 110.289 -1.7174 -1.5982 0
M  V30 1135 C 111.305 -0.600457 -1.63311 0
M  V30 1136 O 112.481 -0.878441 -1.81233 0
M  V30 1137 C 109.546 -1.80427 -2.96052 0
M  V30 1138 C 108.607 -3.04148 -3.02972 0
M  V30 1139 C 107.84 -3.12411 -4.32706 0
M  V30 1140 O 108.063 -2.27542 -5.23049 0
M  V30 1141 O 106.997 -4.05113 -4.45159 0
M  V30 1142 H 110.823 -2.67035 -1.44657 0
M  V30 1143 H 108.408 -1.34366 -0.653148 0
M  V30 1144 H 110.29 -1.88338 -3.7697 0
M  V30 1145 H 108.965 -0.883156 -3.11419 0
M  V30 1146 H 107.872 -3.0174 -2.21142 0
M  V30 1147 H 109.205 -3.95829 -2.92541 0
M  V30 1148 N 110.857 0.726932 -1.39834 0
M  V30 1149 C 112.106 1.48214 -1.36805 0
M  V30 1150 C 112.419 1.95576 0.0305291 0
M  V30 1151 O 113.625 2.7088 0.183417 0
M  V30 1152 C 112.081 2.67854 -2.40379 0
M  V30 1153 C 111.689 2.27408 -3.85992 0
M  V30 1154 C 113.433 3.45641 -2.46439 0
M  V30 1155 C 111.34 3.43819 -4.81189 0
M  V30 1156 H 110.27 0.556606 -0.508631 0
M  V30 1157 H 112.921 0.792216 -1.65518 0
M  V30 1158 H 111.303 3.3896 -2.04749 0
M  V30 1159 H 112.477 1.63795 -4.30706 0
M  V30 1160 H 110.792 1.62692 -3.83302 0
M  V30 1161 H 113.389 4.32244 -3.14753 0
M  V30 1162 H 113.732 3.88669 -1.49139 0
M  V30 1163 H 114.265 2.8157 -2.81004 0
M  V30 1164 H 111.004 3.05834 -5.79781 0
M  V30 1165 H 110.524 4.06385 -4.41148 0
M  V30 1166 H 112.203 4.10043 -5.00474 0
M  V30 1167 N 112.336 1.25143 0.95797 0
M  V30 1168 C 113.564 1.12424 1.73691 0
M  V30 1169 C 113.979 -0.322304 1.86029 0
M  V30 1170 O 113.336 -1.22186 1.35561 0
M  V30 1171 C 113.387 1.76933 3.15241 0
M  V30 1172 O 113.108 3.15932 3.03511 0
M  V30 1173 C 114.609 1.6995 4.09429 0
M  V30 1174 H 111.829 0.3923 0.544373 0
M  V30 1175 H 114.373 1.6544 1.20207 0
M  V30 1176 H 112.528 1.27895 3.6568 0
M  V30 1177 H 112.942 3.47598 3.9278 0
M  V30 1178 H 114.416 2.19753 5.06372 0
M  V30 1179 H 114.893 0.662619 4.34173 0
M  V30 1180 H 115.499 2.18461 3.64904 0
M  V30 1181 N 113.814 -1.1601 1.06675 0
M  V30 1182 C 115.039 -1.91068 0.806706 0
M  V30 1183 C 115.464 -1.77112 -0.633485 0
M  V30 1184 O 114.822 -1.09908 -1.44187 0
M  V30 1185 C 114.87 -3.39655 1.21106 0
M  V30 1186 O 113.974 -4.10893 0.352189 0
M  V30 1187 H 113.315 -0.595125 0.294486 0
M  V30 1188 H 115.845 -1.46955 1.42356 0
M  V30 1189 H 115.855 -3.90434 1.18428 0
M  V30 1190 H 114.53 -3.49132 2.26008 0
M  V30 1191 H 113.107 -3.70285 0.440868 0
M  V30 1192 N 115.292 -0.849877 -1.32721 0
M  V30 1193 C 116.224 -0.248332 -2.27851 0
M  V30 1194 C 117.237 0.577218 -1.52224 0
M  V30 1195 O 118.426 0.402489 -1.73903 0
M  V30 1196 C 115.526 0.668107 -3.32249 0
M  V30 1197 C 114.699 -0.120534 -4.37234 0
M  V30 1198 C 113.758 0.720932 -5.21238 0
M  V30 1199 O 112.784 0.156166 -5.68986 0
M  V30 1200 N 113.986 2.03647 -5.43607 0
M  V30 1201 H 116.751 -1.06575 -2.80111 0
M  V30 1202 H 114.312 -0.709395 -1.45531 0
M  V30 1203 H 116.304 1.23627 -3.85355 0
M  V30 1204 H 114.874 1.38621 -2.80184 0
M  V30 1205 H 114.094 -0.870108 -3.84477 0
M  V30 1206 H 115.382 -0.662406 -5.0447 0
M  V30 1207 H 114.78 2.51871 -5.06535 0
M  V30 1208 H 113.337 2.55287 -5.99727 0
M  V30 1209 N 116.77 1.45427 -0.607355 0
M  V30 1210 C 117.998 2.06614 -0.108814 0
M  V30 1211 C 118.413 1.45204 1.2067 0
M  V30 1212 O 117.77 0.566132 1.73497 0
M  V30 1213 C 117.821 3.61481 0.0375347 0
M  V30 1214 O 117.542 4.20598 -1.22593 0
M  V30 1215 C 119.043 4.39652 0.567561 0
M  V30 1216 H 116.263 0.66747 -0.0687351 0
M  V30 1217 H 118.807 1.86675 -0.835022 0
M  V30 1218 H 116.962 3.80762 0.714068 0
M  V30 1219 H 117.376 5.1377 -1.05547 0
M  V30 1220 H 118.85 5.48518 0.61905 0
M  V30 1221 H 119.327 4.09417 1.58978 0
M  V30 1222 H 119.933 4.25234 -0.0749202 0
M  V30 1223 N 118.248 0.346503 1.53744 0
M  V30 1224 C 119.158 -0.517293 2.28826 0
M  V30 1225 C 120.174 -1.10935 1.3405 0
M  V30 1226 O 121.35 -1.1244 1.6709 0
M  V30 1227 C 118.415 -1.65098 3.04866 0
M  V30 1228 C 117.476 -1.0884 4.15274 0
M  V30 1229 C 116.709 -2.16806 4.87679 0
M  V30 1230 O 116.932 -3.3758 4.59778 0
M  V30 1231 O 115.866 -1.80934 5.74061 0
M  V30 1232 H 119.692 0.0931396 3.03557 0
M  V30 1233 H 117.277 0.111458 1.48984 0
M  V30 1234 H 119.159 -2.31053 3.5241 0
M  V30 1235 H 117.834 -2.24717 2.32989 0
M  V30 1236 H 116.741 -0.3933 3.72027 0
M  V30 1237 H 118.074 -0.537036 4.89261 0
M  V30 1238 N 119.726 -1.57421 0.075193 0
M  V30 1239 C 120.974 -1.93236 -0.591974 0
M  V30 1240 C 121.295 -0.956241 -1.69944 0
M  V30 1241 O 120.565 -0.00494792 -1.95899 0
M  V30 1242 H 119.145 -0.713355 -0.22166 0
M  V30 1243 H 121.807 -1.9444 0.133848 0
M  V30 1244 H 120.903 -2.95131 -1.01509 0
M  V30 1245 N 121.204 0.198386 -1.56346 0
M  V30 1246 C 122.134 1.24865 -1.9731 0
M  V30 1247 C 123.115 1.47651 -0.844576 0
M  V30 1248 O 124.3 1.59444 -1.10866 0
M  V30 1249 C 121.43 2.59358 -2.30977 0
M  V30 1250 C 120.384 2.5119 -3.46537 0
M  V30 1251 C 119.71 3.89926 -3.65871 0
M  V30 1252 C 121.01 2.03977 -4.80823 0
M  V30 1253 H 122.704 0.908252 -2.85291 0
M  V30 1254 H 120.25 0.435462 -1.37258 0
M  V30 1255 H 122.203 3.33011 -2.58228 0
M  V30 1256 H 120.927 2.95132 -1.39874 0
M  V30 1257 H 119.586 1.79993 -3.19371 0
M  V30 1258 H 119.234 4.23046 -2.72105 0
M  V30 1259 H 118.934 3.85336 -4.4361 0
M  V30 1260 H 120.458 4.65205 -3.95495 0
M  V30 1261 H 121.872 2.67386 -5.07127 0
M  V30 1262 H 120.269 2.10397 -5.62008 0
M  V30 1263 H 121.339 0.992861 -4.74626 0
M  V30 1264 N 122.682 1.50554 0.465978 0
M  V30 1265 C 123.907 1.65838 1.24549 0
M  V30 1266 C 124.332 0.343486 1.84937 0
M  V30 1267 O 123.69 -0.69324 1.67523 0
M  V30 1268 C 123.738 2.75533 2.32624 0
M  V30 1269 O 122.842 2.37142 3.37398 0
M  V30 1270 H 122.183 0.553893 0.366194 0
M  V30 1271 H 124.713 1.96959 0.553927 0
M  V30 1272 H 124.723 2.98763 2.77857 0
M  V30 1273 H 123.398 3.70962 1.88043 0
M  V30 1274 H 121.975 2.24377 2.97841 0
M  V30 1275 N 124.16 -0.719506 1.40217 0
M  V30 1276 C 125.576 -1.02707 1.22161 0
M  V30 1277 C 125.776 -2.0128 0.0940557 0
M  V30 1278 O 124.832 -2.46452 -0.549318 0
M  V30 1279 C 126.145 -1.57454 2.56181 0
M  V30 1280 C 127.693 -1.69458 2.63159 0
M  V30 1281 C 128.168 -2.27611 3.97438 0
M  V30 1282 N 129.659 -2.35002 3.99159 0
M  V30 1283 C 130.394 -2.80972 4.99842 0
M  V30 1284 N 129.89 -3.26723 6.10921 0
M  V30 1285 N 131.683 -2.80321 4.87213 0
M  V30 1286 H 123.834 -0.0660492 2.12297 0
M  V30 1287 H 126.097 -0.0919077 0.943534 0
M  V30 1288 H 125.803 -0.924873 3.39321 0
M  V30 1289 H 125.677 -2.56036 2.76993 0
M  V30 1290 H 128.064 -2.33543 1.80393 0
M  V30 1291 H 128.145 -0.694867 2.46181 0
M  V30 1292 H 127.789 -1.6415 4.80643 0
M  V30 1293 H 127.719 -3.2829 4.11744 0
M  V30 1294 H 130.21 -2.02685 3.18947 0
M  V30 1295 H 130.523 -3.60355 6.8364 0
M  V30 1296 H 128.868 -3.24692 6.14492 0
M  V30 1297 H 132.059 -2.43912 3.9953 0
M  V30 1298 H 132.232 -3.15831 5.65822 0
M  V30 1299 N 125.638 -1.25649 -0.95132 0
M  V30 1300 C 126.568 -1.08808 -2.06599 0
M  V30 1301 C 127.549 0.00382547 -1.701 0
M  V30 1302 O 128.734 -0.166325 -1.93486 0
M  V30 1303 C 125.864 -0.709542 -3.39975 0
M  V30 1304 C 124.818 -1.75206 -3.90496 0
M  V30 1305 C 124.144 -1.22811 -5.20405 0
M  V30 1306 C 125.444 -3.15153 -4.16504 0
M  V30 1307 H 127.138 -2.02048 -2.20946 0
M  V30 1308 H 124.684 -0.972835 -1.06169 0
M  V30 1309 H 126.637 -0.578649 -4.17408 0
M  V30 1310 H 125.361 0.258556 -3.25575 0
M  V30 1311 H 124.02 -1.87145 -3.15234 0
M  V30 1312 H 123.668 -0.250145 -5.02378 0
M  V30 1313 H 123.368 -1.92492 -5.55176 0
M  V30 1314 H 124.892 -1.10968 -6.00432 0
M  V30 1315 H 126.306 -3.06349 -4.84586 0
M  V30 1316 H 124.703 -3.82333 -4.62538 0
M  V30 1317 H 125.773 -3.61966 -3.22658 0
M  V30 1318 N 127.117 1.15442 -1.07289 0
M  V30 1319 C 128.047 2.22312 -0.714107 0
M  V30 1320 C 129.028 1.67467 0.298155 0
M  V30 1321 O 130.213 1.93445 0.171048 0
M  V30 1322 C 127.343 3.47124 -0.110448 0
M  V30 1323 C 126.297 4.14926 -1.04979 0
M  V30 1324 C 125.623 5.33807 -0.308924 0
M  V30 1325 C 126.923 4.64762 -2.38314 0
M  V30 1326 H 128.617 2.5258 -1.6076 0
M  V30 1327 H 126.163 1.21404 -0.77441 0
M  V30 1328 H 128.116 4.21124 0.152482 0
M  V30 1329 H 126.84 3.16187 0.81812 0
M  V30 1330 H 125.499 3.42866 -1.29764 0
M  V30 1331 H 125.147 4.99126 0.623084 0
M  V30 1332 H 124.847 5.80113 -0.935036 0
M  V30 1333 H 126.371 6.10576 -0.0537771 0
M  V30 1334 H 127.785 5.30292 -2.1786 0
M  V30 1335 H 126.182 5.21728 -2.96514 0
M  V30 1336 H 127.252 3.80434 -3.00663 0
M  V30 1337 N 128.595 0.856903 1.32268 0
M  V30 1338 C 130.011 0.547061 1.49931 0
M  V30 1339 C 130.211 -0.921781 1.7918 0
M  V30 1340 O 129.267 -1.70469 1.8627 0
M  V30 1341 C 130.58 1.43599 2.64196 0
M  V30 1342 C 132.128 1.43665 2.78081 0
M  V30 1343 C 132.603 2.31085 3.95428 0
M  V30 1344 N 134.094 2.28893 4.02694 0
M  V30 1345 C 134.829 2.93262 4.92732 0
M  V30 1346 N 134.325 3.66751 5.87763 0
M  V30 1347 N 136.118 2.82638 4.85873 0
M  V30 1348 H 128.269 1.8075 1.11549 0
M  V30 1349 H 130.532 0.772144 0.549997 0
M  V30 1350 H 130.238 2.48058 2.49319 0
M  V30 1351 H 130.112 1.12502 3.60032 0
M  V30 1352 H 132.499 0.399701 2.92381 0
M  V30 1353 H 132.58 1.7878 1.82952 0
M  V30 1354 H 132.224 3.34849 3.81888 0
M  V30 1355 H 132.154 1.93302 4.89839 0
M  V30 1356 H 134.645 1.75466 3.34694 0
M  V30 1357 H 134.958 4.13027 6.53168 0
M  V30 1358 H 133.303 3.70859 5.87783 0
M  V30 1359 H 136.494 2.24774 4.10602 0
M  V30 1360 H 136.667 3.33084 5.55841 0
M  V30 1361 N 130.073 -1.45103 0.615059 0
M  V30 1362 C 131.005 -2.28786 -0.13762 0
M  V30 1363 C 132.018 -1.40376 -0.824525 0
M  V30 1364 O 133.207 -1.64681 -0.688662 0
M  V30 1365 C 130.307 -3.16322 -1.21628 0
M  V30 1366 C 129.48 -4.33054 -0.615039 0
M  V30 1367 C 128.539 -5.01743 -1.58556 0
M  V30 1368 O 127.565 -5.58293 -1.10895 0
M  V30 1369 N 128.767 -5.01714 -2.91998 0
M  V30 1370 H 131.532 -2.94025 0.580483 0
M  V30 1371 H 129.093 -1.55373 0.45507 0
M  V30 1372 H 131.085 -3.59139 -1.86552 0
M  V30 1373 H 129.655 -2.52943 -1.83681 0
M  V30 1374 H 128.875 -3.93627 0.21245 0
M  V30 1375 H 130.163 -5.08431 -0.193704 0
M  V30 1376 H 129.561 -4.57075 -3.33316 0
M  V30 1377 H 128.118 -5.48371 -3.52325 0
M  V30 1378 N 131.551 -0.354651 -1.53558 0
M  V30 1379 C 132.501 0.513179 -2.2215 0
M  V30 1380 C 133.485 1.05734 -1.21281 0
M  V30 1381 O 134.677 0.989202 -1.46778 0
M  V30 1382 C 131.806 1.65798 -3.00609 0
M  V30 1383 C 130.892 1.12722 -4.08845 0
M  V30 1384 N 131.283 0.318563 -5.04796 0
M  V30 1385 C 129.581 1.40307 -4.23356 0
M  V30 1386 C 130.282 0.0292224 -5.81693 0
M  V30 1387 N 129.258 0.623891 -5.40008 0
M  V30 1388 H 133.06 -0.111586 -2.93688 0
M  V30 1389 H 130.574 -0.162091 -1.61589 0
M  V30 1390 H 132.571 2.29176 -3.48258 0
M  V30 1391 H 131.231 2.28591 -2.306 0
M  V30 1392 H 132.242 -0.0413091 -5.17884 0
M  V30 1393 H 128.919 2.03458 -3.6457 0
M  V30 1394 H 130.309 -0.623808 -6.68998 0
M  V30 1395 N 133.029 1.57378 -0.0835403 0
M  V30 1396 C 133.992 2.12252 0.864959 0
M  V30 1397 C 134.992 1.04916 1.21858 0
M  V30 1398 O 136.182 1.30853 1.14991 0
M  V30 1399 C 133.314 2.63358 2.16461 0
M  V30 1400 H 134.507 2.97371 0.388676 0
M  V30 1401 H 132.06 1.55423 0.165317 0
M  V30 1402 H 132.795 1.81727 2.686 0
M  V30 1403 H 132.58 3.41826 1.92087 0
M  V30 1404 H 134.07 3.05847 2.84337 0
M  V30 1405 N 134.507 -0.190092 1.56449 0
M  V30 1406 C 135.417 -1.25591 1.98152 0
M  V30 1407 C 136.433 -1.49519 0.889944 0
M  V30 1408 O 137.609 -1.62036 1.19609 0
M  V30 1409 C 134.674 -2.57916 2.3169 0
M  V30 1410 C 133.735 -2.42015 3.5458 0
M  V30 1411 C 132.968 -3.6803 3.8651 0
M  V30 1412 O 133.191 -4.72413 3.1966 0
M  V30 1413 O 132.125 -3.6326 4.79923 0
M  V30 1414 H 135.951 -0.931988 2.89046 0
M  V30 1415 H 133.536 -0.395488 1.4407 0
M  V30 1416 H 135.418 -3.36008 2.54316 0
M  V30 1417 H 134.093 -2.89925 1.43963 0
M  V30 1418 H 133 -1.62017 3.37196 0
M  V30 1419 H 134.333 -2.14937 4.4279 0
M  V30 1420 N 135.985 -1.50799 -0.457987 0
M  V30 1421 C 137.262 -1.52968 -1.21902 0
M  V30 1422 C 137.642 -0.281906 -2.09209 0
M  V30 1423 O 136.99 0.734076 -2.16388 0
M  V30 1424 C 137.2 -2.8326 -2.03875 0
M  V30 1425 C 138.548 -3.34425 -2.6162 0
M  V30 1426 O 139.572 -2.8467 -2.14106 0
M  V30 1427 O 138.431 -4.21188 -3.48228 0
M  V30 1428 H 135.525 -0.614129 -0.553873 0
M  V30 1429 H 138.071 -1.63098 -0.468739 0
M  V30 1430 H 136.843 -3.65543 -1.39621 0
M  V30 1431 H 136.466 -2.76195 -2.8601 0
M  V30 1432 N 137.463 0.71206 -1.40597 0
M  V30 1433 C 138.393 1.83889 -1.43899 0
M  V30 1434 C 139.374 1.67442 -0.299504 0
M  V30 1435 O 140.559 1.87421 -0.508624 0
M  V30 1436 C 137.689 3.21877 -1.30431 0
M  V30 1437 C 136.643 3.53002 -2.42019 0
M  V30 1438 C 135.969 4.90172 -2.13626 0
M  V30 1439 C 137.269 3.53643 -3.84362 0
M  V30 1440 H 138.963 1.81383 -2.38203 0
M  V30 1441 H 136.509 0.871237 -1.14654 0
M  V30 1442 H 138.462 4.00404 -1.31357 0
M  V30 1443 H 137.186 3.24968 -0.326049 0
M  V30 1444 H 135.845 2.76818 -2.40349 0
M  V30 1445 H 135.493 4.89869 -1.14182 0
M  V30 1446 H 135.193 5.11962 -2.88389 0
M  V30 1447 H 136.717 5.71028 -2.1624 0
M  V30 1448 H 138.131 4.22203 -3.87837 0
M  V30 1449 H 136.528 3.86961 -4.58673 0
M  V30 1450 H 137.598 2.52954 -4.13693 0
M  V30 1451 N 138.941 1.26152 0.944643 0
M  V30 1452 C 139.889 1.07215 2.06417 0
M  V30 1453 C 140.883 9.2007e-05 1.694 0
M  V30 1454 O 142.089 0.1565 1.79318 0
M  V30 1455 H 138.464 0.329837 0.675805 0
M  V30 1456 H 140.435 2.02099 2.19541 0
M  V30 1457 C 139.184 0.718197 3.40202 0
M  V30 1458 H 138.507 1.53497 3.69159 0
M  V30 1459 H 139.947 0.625459 4.19361 0
M  V30 1460 C 138.406 -0.576435 3.31932 0
M  V30 1461 O 138.936 -1.61574 3.67773 0
M  V30 1462 N 137.142 -0.565781 2.85039 0
M  V30 1463 H 136.689 0.280367 2.5607 0
M  V30 1464 H 136.647 -1.43213 2.79888 0
M  V30 1465 N 140.419 -1.14872 1.07899 0
M  V30 1466 C 141.644 -1.90202 0.826926 0
M  V30 1467 C 142.069 -1.77774 -0.614664 0
M  V30 1468 O 141.427 -1.11431 -1.43013 0
M  V30 1469 C 141.475 -3.38352 1.24702 0
M  V30 1470 O 140.579 -4.10497 0.39575 0
M  V30 1471 H 139.92 -0.591968 0.300782 0
M  V30 1472 H 142.45 -1.45437 1.43907 0
M  V30 1473 H 142.46 -3.89156 1.22563 0
M  V30 1474 H 141.135 -3.46715 2.29698 0
M  V30 1475 H 139.712 -3.69796 0.480117 0
M  V30 1476 N 141.898 -0.863906 -1.31812 0
M  V30 1477 C 143.146 -0.470904 -1.96537 0
M  V30 1478 C 143.467 0.978771 -1.68657 0
M  V30 1479 O 142.737 1.6853 -0.998717 0
M  V30 1480 H 141.317 -0.171148 -0.72713 0
M  V30 1481 H 143.979 -1.10236 -1.60729 0
M  V30 1482 H 143.075 -0.623616 -3.05806 0
M  V30 1483 N 143.376 1.44774 -0.622745 0
M  V30 1484 C 144.787 1.85546 -0.207226 0
M  V30 1485 C 145.138 1.52093 1.23944 0
M  V30 1486 O 144.263 0.95492 1.94191 0
M  V30 1487 C 144.858 3.36781 -0.369313 0
M  V30 1488 C 143.417 3.76399 -0.00836847 0
M  V30 1489 C 142.564 2.68664 -0.686651 0
M  V30 1490 H 145.515 1.3536 -0.828454 0
M  V30 1491 H 145.536 3.78453 0.394162 0
M  V30 1492 H 145.048 3.61098 -1.42231 0
M  V30 1493 H 143.149 3.57698 1.04322 0
M  V30 1494 H 143.262 4.7732 -0.412584 0
M  V30 1495 H 141.626 2.54404 -0.122777 0
M  V30 1496 H 142.409 2.95815 -1.74208 0
M  V30 1497 N 144.854 0.36279 1.53368 0
M  V30 1498 C 145.784 -0.476976 2.28576 0
M  V30 1499 C 146.765 -1.08631 1.30894 0
M  V30 1500 O 147.95 -1.10409 1.59761 0
M  V30 1501 C 145.08 -1.61828 3.07293 0
M  V30 1502 C 144.034 -1.13633 4.1264 0
M  V30 1503 C 143.36 -2.36766 4.79423 0
M  V30 1504 C 144.66 -0.223061 5.21823 0
M  V30 1505 H 146.354 0.150474 2.99022 0
M  V30 1506 H 143.9 0.0738103 1.43811 0
M  V30 1507 H 145.853 -2.21237 3.58653 0
M  V30 1508 H 144.577 -2.27292 2.34533 0
M  V30 1509 H 143.236 -0.564945 3.62221 0
M  V30 1510 H 142.884 -3.0068 4.03238 0
M  V30 1511 H 142.584 -2.05192 5.50609 0
M  V30 1512 H 144.108 -2.96865 5.33576 0
M  V30 1513 H 145.522 -0.724545 5.68703 0
M  V30 1514 H 143.919 0.001678 6.001 0
M  V30 1515 H 144.989 0.735553 4.79289 0
M  V30 1516 N 146.332 -1.57332 0.0918853 0
M  V30 1517 C 147.557 -1.98995 -0.584442 0
M  V30 1518 C 147.982 -0.970528 -1.61128 0
M  V30 1519 O 147.34 0.0613904 -1.81196 0
M  V30 1520 C 147.388 -3.39636 -1.21161 0
M  V30 1521 O 146.492 -3.40447 -2.32744 0
M  V30 1522 H 145.833 -0.647165 -0.148572 0
M  V30 1523 H 148.363 -2.03873 0.172347 0
M  V30 1524 H 148.373 -3.7726 -1.55367 0
M  V30 1525 H 147.048 -4.13356 -0.459313 0
M  V30 1526 H 145.625 -3.14614 -2.0018 0
M  V30 1527 N 147.81 0.181792 -1.56548 0
M  V30 1528 C 148.757 1.22521 -1.95595 0
M  V30 1529 C 149.727 1.4454 -0.818373 0
M  V30 1530 O 150.912 1.57454 -1.07763 0
M  V30 1531 C 148.052 2.56193 -2.31212 0
M  V30 1532 C 147.165 2.41641 -3.58097 0
M  V30 1533 C 146.3 3.68108 -3.82975 0
M  V30 1534 C 145.339 3.48445 -5.03242 0
M  V30 1535 N 144.476 4.66956 -5.24306 0
M  V30 1536 H 149.316 0.885226 -2.84548 0
M  V30 1537 H 146.853 0.425718 -1.40805 0
M  V30 1538 H 148.811 3.34088 -2.49882 0
M  V30 1539 H 147.441 2.88208 -1.45382 0
M  V30 1540 H 146.493 1.54976 -3.474 0
M  V30 1541 H 147.805 2.23052 -4.46149 0
M  V30 1542 H 146.959 4.54441 -4.01956 0
M  V30 1543 H 145.698 3.89666 -2.93278 0
M  V30 1544 H 144.703 2.60499 -4.8417 0
M  V30 1545 H 145.928 3.2832 -5.9446 0
M  V30 1546 H 143.874 4.88752 -4.37559 0
M  V30 1547 H 143.791 4.51242 -6.06561 0
M  V30 1548 H 145.059 5.54602 -5.47756 0
M  V30 1549 N 149.288 1.51039 0.449983 0
M  V30 1550 C 150.218 1.74379 1.55288 0
M  V30 1551 C 151.199 0.593236 1.5942 0
M  V30 1552 O 152.384 0.834625 1.7535 0
M  V30 1553 C 149.514 1.85728 2.93466 0
M  V30 1554 C 148.468 3.01078 3.04197 0
M  V30 1555 C 147.794 2.97595 4.44231 0
M  V30 1556 C 149.094 4.41254 2.7945 0
M  V30 1557 H 150.788 2.66725 1.36008 0
M  V30 1558 H 148.334 1.2835 0.652864 0
M  V30 1559 H 150.287 2.0064 3.70569 0
M  V30 1560 H 149.011 0.900207 3.13949 0
M  V30 1561 H 147.67 2.85851 2.29531 0
M  V30 1562 H 147.318 1.99691 4.61663 0
M  V30 1563 H 147.018 3.75046 4.52343 0
M  V30 1564 H 148.542 3.14583 5.23326 0
M  V30 1565 H 149.956 4.56897 3.46292 0
M  V30 1566 H 148.353 5.20315 2.98985 0
M  V30 1567 H 149.423 4.52164 1.75144 0
M  V30 1568 N 150.766 -0.704594 1.40972 0
M  V30 1569 C 151.991 -1.49858 1.43378 0
M  V30 1570 C 152.416 -1.88061 0.038184 0
M  V30 1571 O 151.774 -1.5402 -0.956425 0
M  V30 1572 C 151.822 -2.74333 2.34038 0
M  V30 1573 O 150.926 -3.7147 1.7912 0
M  V30 1574 H 150.267 -0.45139 0.486974 0
M  V30 1575 H 152.797 -0.866832 1.8533 0
M  V30 1576 H 152.807 -3.22741 2.49604 0
M  V30 1577 H 151.482 -2.45863 3.35446 0
M  V30 1578 H 150.059 -3.30363 1.72958 0
M  V30 1579 N 152.244 -1.26651 -0.937939 0
M  V30 1580 C 153.174 -1.10993 -2.05433 0
M  V30 1581 C 154.155 -0.0142161 -1.70094 0
M  V30 1582 O 155.34 -0.186837 -1.93299 0
M  V30 1583 C 152.47 -0.745561 -3.39203 0
M  V30 1584 C 151.424 -1.79337 -3.88616 0
M  V30 1585 C 150.75 -1.28324 -5.19073 0
M  V30 1586 C 152.05 -3.19553 -4.13138 0
M  V30 1587 H 153.744 -2.0438 -2.1879 0
M  V30 1588 H 151.29 -0.984041 -1.05131 0
M  V30 1589 H 153.243 -0.622888 -4.16771 0
M  V30 1590 H 151.967 0.22401 -3.25831 0
M  V30 1591 H 150.626 -1.90477 -3.13231 0
M  V30 1592 H 150.274 -0.303414 -5.02084 0
M  V30 1593 H 149.974 -1.98369 -5.53103 0
M  V30 1594 H 151.498 -1.1733 -5.99221 0
M  V30 1595 H 152.912 -3.11471 -4.81309 0
M  V30 1596 H 151.309 -3.87218 -4.58457 0
M  V30 1597 H 152.379 -3.65368 -3.18801 0
M  V30 1598 N 153.722 1.14298 -1.08507 0
M  V30 1599 C 154.652 2.21542 -0.737646 0
M  V30 1600 C 155.633 1.67773 0.280377 0
M  V30 1601 O 156.818 1.93616 0.150521 0
M  V30 1602 C 153.948 3.46988 -0.147259 0
M  V30 1603 C 152.902 4.13789 -1.09374 0
M  V30 1604 C 152.228 5.33449 -0.365524 0
M  V30 1605 C 153.528 4.62208 -2.4323 0
M  V30 1606 H 155.222 2.5086 -1.6343 0
M  V30 1607 H 152.768 1.20576 -0.787243 0
M  V30 1608 H 154.721 4.21262 0.107808 0
M  V30 1609 H 153.445 3.17037 0.784538 0
M  V30 1610 H 152.104 3.4147 -1.33393 0
M  V30 1611 H 151.752 4.99759 0.57011 0
M  V30 1612 H 151.452 5.79088 -0.996512 0
M  V30 1613 H 152.976 6.10485 -0.118534 0
M  V30 1614 H 154.39 5.27952 -2.23472 0
M  V30 1615 H 152.787 5.18553 -3.02031 0
M  V30 1616 H 153.857 3.77224 -3.04681 0
M  V30 1617 N 155.201 0.870884 1.31352 0
M  V30 1618 C 156.45 0.478408 1.95944 0
M  V30 1619 C 156.763 -0.974493 1.69597 0
M  V30 1620 O 157.969 -1.47316 2.28058 0
M  V30 1621 C 156.425 0.804609 3.50791 0
M  V30 1622 C 156.033 2.27433 3.85977 0
M  V30 1623 C 157.777 0.480648 4.2177 0
M  V30 1624 C 155.684 2.5429 5.33939 0
M  V30 1625 H 154.614 0.175175 0.733369 0
M  V30 1626 H 157.265 1.06391 1.4951 0
M  V30 1627 H 155.647 0.148347 3.95722 0
M  V30 1628 H 156.821 2.97373 3.52002 0
M  V30 1629 H 155.136 2.56442 3.28065 0
M  V30 1630 H 157.733 0.658519 5.30629 0
M  V30 1631 H 158.076 -0.578979 4.12254 0
M  V30 1632 H 158.609 1.09349 3.82476 0
M  V30 1633 H 155.348 3.58939 5.48491 0
M  V30 1634 H 154.868 1.88945 5.69263 0
M  V30 1635 H 156.547 2.39066 6.01212 0
M  V30 1636 N 156.679 -1.44442 0.630414 0
M  V30 1637 C 158.095 -1.56832 0.295973 0
M  V30 1638 C 158.295 -1.61806 -1.20088 0
M  V30 1639 O 157.351 -1.5607 -1.9849 0
M  V30 1640 C 158.664 -2.84031 0.987264 0
M  V30 1641 C 160.212 -2.97742 0.96534 0
M  V30 1642 C 160.687 -4.27743 1.63708 0
M  V30 1643 N 162.178 -4.34555 1.60364 0
M  V30 1644 C 162.913 -5.33862 2.09234 0
M  V30 1645 N 162.409 -6.39578 2.66292 0
M  V30 1646 N 164.202 -5.25366 1.99867 0
M  V30 1647 H 156.353 -1.39457 1.60205 0
M  V30 1648 H 158.616 -0.668237 0.672431 0
M  V30 1649 H 158.322 -2.86338 2.04215 0
M  V30 1650 H 158.196 -3.73534 0.524588 0
M  V30 1651 H 160.583 -2.94989 -0.0810639 0
M  V30 1652 H 160.664 -2.09589 1.4665 0
M  V30 1653 H 160.308 -4.31255 2.68293 0
M  V30 1654 H 160.238 -5.14752 1.11076 0
M  V30 1655 H 162.729 -3.58772 1.18705 0
M  V30 1656 H 163.042 -7.11637 3.01317 0
M  V30 1657 H 161.387 -6.40265 2.70343 0
M  V30 1658 H 164.578 -4.41688 1.55013 0
M  V30 1659 H 164.751 -6.02606 2.38265 0
M  V30 1660 N 158.157 -0.370918 -1.53173 0
M  V30 1661 C 159.067 0.480823 -2.2962 0
M  V30 1662 C 160.083 1.08789 -1.35798 0
M  V30 1663 O 161.259 1.09768 -1.68858 0
M  V30 1664 C 158.324 1.60227 -3.07454 0
M  V30 1665 C 157.385 1.0222 -4.16953 0
M  V30 1666 C 156.618 2.0902 -4.91066 0
M  V30 1667 O 156.841 3.30222 -4.65091 0
M  V30 1668 O 155.775 1.71778 -5.76867 0
M  V30 1669 H 159.601 -0.141421 -3.03371 0
M  V30 1670 H 157.186 -0.135146 -1.48787 0
M  V30 1671 H 159.068 2.25417 -3.56041 0
M  V30 1672 H 157.743 2.20982 -2.36535 0
M  V30 1673 H 156.65 0.334064 -3.72605 0
M  V30 1674 H 157.983 0.459131 -4.90054 0
M  V30 1675 N 159.635 1.57281 -0.100228 0
M  V30 1676 C 161.051 1.57527 0.256416 0
M  V30 1677 C 161.251 1.11173 1.68056 0
M  V30 1678 O 160.307 0.79053 2.39806 0
M  V30 1679 C 161.62 3.00673 0.0401747 0
M  V30 1680 C 163.168 3.12815 0.107528 0
M  V30 1681 C 163.643 4.57929 -0.0807834 0
M  V30 1682 N 165.134 4.63193 -0.0261207 0
M  V30 1683 C 165.869 5.73212 -0.146999 0
M  V30 1684 N 165.365 6.92047 -0.322999 0
M  V30 1685 N 167.158 5.62031 -0.0879044 0
M  V30 1686 H 159.309 1.85718 -1.03065 0
M  V30 1687 H 161.572 0.857446 -0.404339 0
M  V30 1688 H 161.278 3.38804 -0.943649 0
M  V30 1689 H 161.152 3.69042 0.780262 0
M  V30 1690 H 163.539 2.74554 1.08186 0
M  V30 1691 H 163.62 2.47028 -0.664134 0
M  V30 1692 H 163.264 4.96886 -1.05201 0
M  V30 1693 H 163.194 5.21783 0.710635 0
M  V30 1694 H 165.685 3.77748 0.107161 0
M  V30 1695 H 165.998 7.7173 -0.406608 0
M  V30 1696 H 164.343 6.94074 -0.358733 0
M  V30 1697 H 167.534 4.68075 0.048498 0
M  V30 1698 H 167.707 6.47734 -0.185557 0
M  V30 1699 N 161.113 -0.173488 1.56642 0
M  V30 1700 C 162.045 -1.23935 1.92802 0
M  V30 1701 C 163.058 -1.40589 0.820889 0
M  V30 1702 O 164.247 -1.40631 1.09933 0
M  V30 1703 C 161.347 -2.60837 2.16373 0
M  V30 1704 C 160.52 -2.6551 3.47596 0
M  V30 1705 C 159.579 -3.8376 3.60021 0
M  V30 1706 O 158.605 -3.69859 4.32658 0
M  V30 1707 N 159.807 -5.00127 2.94709 0
M  V30 1708 H 162.572 -0.932236 2.84832 0
M  V30 1709 H 160.133 -0.363268 1.57772 0
M  V30 1710 H 162.125 -3.38407 2.21952 0
M  V30 1711 H 160.695 -2.83948 1.30738 0
M  V30 1712 H 159.915 -1.74052 3.53694 0
M  V30 1713 H 161.203 -2.65641 4.33949 0
M  V30 1714 H 160.601 -5.14322 2.35563 0
M  V30 1715 H 159.158 -5.75567 3.05886 0
M  V30 1716 N 162.591 -1.51276 -0.441967 0
M  V30 1717 C 163.523 -1.68444 -1.55433 0
M  V30 1718 C 164.536 -0.565187 -1.52674 0
M  V30 1719 O 165.725 -0.839356 -1.57534 0
M  V30 1720 C 162.825 -1.67966 -2.94348 0
M  V30 1721 C 161.998 -2.964 -3.21661 0
M  V30 1722 C 161.057 -2.88171 -4.40277 0
M  V30 1723 O 160.083 -3.62119 -4.39157 0
M  V30 1724 N 161.285 -2.03706 -5.43584 0
M  V30 1725 H 164.05 -2.644 -1.41112 0
M  V30 1726 H 161.611 -1.49104 -0.630838 0
M  V30 1727 H 163.603 -1.60035 -3.71713 0
M  V30 1728 H 162.173 -0.796225 -3.0229 0
M  V30 1729 H 161.393 -3.18234 -2.32638 0
M  V30 1730 H 162.681 -3.81427 -3.36736 0
M  V30 1731 H 162.079 -1.42995 -5.47329 0
M  V30 1732 H 160.636 -2.01658 -6.1982 0
M  V30 1733 N 164.069 0.697108 -1.41344 0
M  V30 1734 C 164.999 1.82353 -1.45841 0
M  V30 1735 C 165.98 1.67115 -0.317247 0
M  V30 1736 O 167.165 1.86871 -0.528474 0
M  V30 1737 C 164.295 3.20476 -1.33838 0
M  V30 1738 C 163.249 3.50415 -2.4575 0
M  V30 1739 C 162.575 4.87878 -2.18813 0
M  V30 1740 C 163.875 3.49546 -3.88091 0
M  V30 1741 H 165.569 1.78846 -2.40113 0
M  V30 1742 H 163.115 0.859028 -1.15571 0
M  V30 1743 H 165.068 3.98988 -1.35596 0
M  V30 1744 H 163.792 3.24604 -0.360498 0
M  V30 1745 H 162.451 2.74253 -2.43271 0
M  V30 1746 H 162.099 4.8863 -1.19371 0
M  V30 1747 H 161.799 5.08875 -2.93803 0
M  V30 1748 H 163.323 5.68702 -2.22284 0
M  V30 1749 H 164.737 4.18066 -3.92293 0
M  V30 1750 H 163.134 3.82075 -4.62751 0
M  V30 1751 H 164.204 2.48552 -4.16353 0
M  V30 1752 N 165.547 1.27147 0.931209 0
M  V30 1753 C 166.963 1.04475 1.20653 0
M  V30 1754 C 167.163 -0.223885 2.00252 0
M  V30 1755 O 166.219 -0.930332 2.34736 0
M  V30 1756 C 167.532 2.28209 1.95809 0
M  V30 1757 C 169.08 2.33211 2.08762 0
M  V30 1758 C 169.555 3.56665 2.87323 0
M  V30 1759 N 171.046 3.57201 2.94892 0
M  V30 1760 C 171.781 4.49395 3.56134 0
M  V30 1761 N 171.277 5.51889 4.18796 0
M  V30 1762 N 173.07 4.37026 3.53504 0
M  V30 1763 H 165.221 2.08612 0.399333 0
M  V30 1764 H 167.484 0.917312 0.239253 0
M  V30 1765 H 167.19 3.20538 1.44736 0
M  V30 1766 H 167.064 2.33247 2.96438 0
M  V30 1767 H 169.451 1.41391 2.59023 0
M  V30 1768 H 169.532 2.32178 1.07364 0
M  V30 1769 H 169.176 4.4882 2.37746 0
M  V30 1770 H 169.106 3.54948 3.88998 0
M  V30 1771 H 171.597 2.83074 2.50354 0
M  V30 1772 H 171.91 6.18409 4.63454 0
M  V30 1773 H 170.255 5.55735 4.17353 0
M  V30 1774 H 173.446 3.56166 3.03749 0
M  V30 1775 H 173.619 5.09067 4.00942 0
M  V30 1776 N 167.025 -1.13721 1.09112 0
M  V30 1777 C 167.972 -2.19031 0.727591 0
M  V30 1778 C 168.942 -1.63555 -0.289656 0
M  V30 1779 O 170.127 -1.90023 -0.172026 0
M  V30 1780 C 167.267 -3.4477 0.15082 0
M  V30 1781 C 166.38 -4.14365 1.22172 0
M  V30 1782 C 165.515 -5.27709 0.608042 0
M  V30 1783 C 164.554 -5.89147 1.66047 0
M  V30 1784 N 163.691 -6.93929 1.06806 0
M  V30 1785 H 168.531 -2.49475 1.62991 0
M  V30 1786 H 166.068 -1.22499 0.81439 0
M  V30 1787 H 168.026 -4.16714 -0.201358 0
M  V30 1788 H 166.656 -3.14787 -0.714783 0
M  V30 1789 H 165.708 -3.40737 1.69122 0
M  V30 1790 H 167.02 -4.56114 2.01895 0
M  V30 1791 H 166.174 -6.06355 0.204523 0
M  V30 1792 H 164.913 -4.872 -0.220769 0
M  V30 1793 H 163.918 -5.09198 2.07357 0
M  V30 1794 H 165.143 -6.31729 2.49189 0
M  V30 1795 H 163.089 -6.55483 0.260476 0
M  V30 1796 H 163.006 -7.34202 1.8023 0
M  V30 1797 H 164.274 -7.76434 0.690644 0
M  V30 1798 N 168.503 -0.877838 -1.30888 0
M  V30 1799 C 169.731 -0.507414 -2.00581 0
M  V30 1800 C 170.146 0.902216 -1.65848 0
M  V30 1801 O 169.503 1.59225 -0.891831 0
M  V30 1802 C 169.554 -0.664162 -3.55347 0
M  V30 1803 O 169.275 -2.01829 -3.8884 0
M  V30 1804 C 170.776 -0.295787 -4.42312 0
M  V30 1805 H 167.996 -0.196866 -0.641471 0
M  V30 1806 H 170.54 -1.18117 -1.66939 0
M  V30 1807 H 168.695 -0.0378619 -3.87381 0
M  V30 1808 H 169.109 -2.03174 -4.8355 0
M  V30 1809 H 170.583 -0.456388 -5.5011 0
M  V30 1810 H 171.06 0.765663 -4.32475 0
M  V30 1811 H 171.666 -0.898113 -4.15709 0
M  V30 1812 N 169.982 1.44106 -0.638065 0
M  V30 1813 C 171.212 2.06037 -0.152394 0
M  V30 1814 C 171.62 1.47808 1.18108 0
M  V30 1815 O 170.963 0.598092 1.73691 0
M  V30 1816 C 171.025 3.59488 0.0293714 0
M  V30 1817 C 170.689 4.4022 -1.22702 0
M  V30 1818 C 171.686 4.73256 -2.15232 0
M  V30 1819 C 169.371 4.8048 -1.46437 0
M  V30 1820 C 171.365 5.45444 -3.29802 0
M  V30 1821 C 169.052 5.52417 -2.61303 0
M  V30 1822 C 170.05 5.84819 -3.52811 0
M  V30 1823 O 169.738 6.55289 -4.65673 0
M  V30 1824 H 169.47 0.671233 -0.0801401 0
M  V30 1825 H 172.024 1.85851 -0.874563 0
M  V30 1826 H 170.254 3.78191 0.806758 0
M  V30 1827 H 171.943 4.03164 0.470475 0
M  V30 1828 H 172.709 4.42684 -1.98131 0
M  V30 1829 H 168.588 4.54676 -0.760977 0
M  V30 1830 H 172.132 5.70653 -4.01249 0
M  V30 1831 H 168.029 5.82404 -2.78344 0
M  V30 1832 H 168.797 6.73762 -4.64744 0
M  V30 1833 N 171.46 0.379036 1.52974 0
M  V30 1834 C 172.685 -0.209353 2.06341 0
M  V30 1835 C 173.11 -1.40583 1.24972 0
M  V30 1836 O 172.468 -1.79246 0.272155 0
M  V30 1837 C 172.516 -0.567786 3.56102 0
M  V30 1838 O 171.62 -1.66318 3.77375 0
M  V30 1839 H 170.961 -0.0272919 0.663439 0
M  V30 1840 H 173.491 0.543536 1.97248 0
M  V30 1841 H 173.501 -0.835003 3.99364 0
M  V30 1842 H 172.176 0.307013 4.14765 0
M  V30 1843 H 170.753 -1.39048 3.46006 0
M  V30 1844 N 172.938 -1.57226 0.108567 0
M  V30 1845 C 173.848 -2.18292 -0.859401 0
M  V30 1846 C 174.864 -1.15612 -1.30038 0
M  V30 1847 O 176.04 -1.48039 -1.36552 0
M  V30 1848 C 173.105 -2.762 -2.09558 0
M  V30 1849 C 172.166 -3.93881 -1.70752 0
M  V30 1850 C 171.399 -4.49018 -2.88477 0
M  V30 1851 O 171.622 -4.03068 -4.036 0
M  V30 1852 O 170.556 -5.39852 -2.66164 0
M  V30 1853 H 174.382 -3.01441 -0.369769 0
M  V30 1854 H 171.967 -1.48945 -0.1165 0
M  V30 1855 H 173.849 -3.13156 -2.81978 0
M  V30 1856 H 172.524 -1.96089 -2.57548 0
M  V30 1857 H 171.431 -3.61713 -0.954714 0
M  V30 1858 H 172.764 -4.75396 -1.27513 0
M  V30 1859 N 174.416 0.165178 -1.56732 0
M  V30 1860 C 175.348 1.22911 -1.93457 0
M  V30 1861 C 176.361 1.40152 -0.828333 0
M  V30 1862 O 177.55 1.40046 -1.10677 0
M  V30 1863 C 174.65 2.59686 -2.17753 0
M  V30 1864 C 173.823 2.63663 -3.48999 0
M  V30 1865 C 172.882 3.81845 -3.62051 0
M  V30 1866 O 171.908 3.67559 -4.34613 0
M  V30 1867 N 173.11 4.98557 -2.97357 0
M  V30 1868 H 175.875 0.917118 -2.85323 0
M  V30 1869 H 173.436 0.354895 -1.57962 0
M  V30 1870 H 175.428 3.37225 -2.23743 0
M  V30 1871 H 173.998 2.83251 -1.32242 0
M  V30 1872 H 173.218 1.72173 -3.54612 0
M  V30 1873 H 174.506 2.63336 -4.35352 0
M  V30 1874 H 173.904 5.13065 -2.38287 0
M  V30 1875 H 172.461 5.73936 -3.08934 0
M  V30 1876 N 175.894 1.51508 0.433938 0
M  V30 1877 C 177.14 1.65549 1.18173 0
M  V30 1878 C 177.495 0.368751 1.88833 0
M  V30 1879 O 176.788 -0.635616 1.8075 0
M  V30 1880 C 176.982 2.79928 2.22205 0
M  V30 1881 C 176.811 4.19601 1.61756 0
M  V30 1882 C 175.581 4.85489 1.40101 0
M  V30 1883 C 177.779 5.02574 1.09194 0
M  V30 1884 N 175.761 6.09266 0.752859 0
M  V30 1885 C 177.132 6.17381 0.569255 0
M  V30 1886 C 179.187 4.88079 0.984025 0
M  V30 1887 C 177.89 7.19282 -0.0507472 0
M  V30 1888 C 179.916 5.90191 0.377912 0
M  V30 1889 C 179.278 7.04272 -0.134216 0
M  V30 1890 H 175.377 0.659653 0.419979 0
M  V30 1891 H 177.961 1.88746 0.477818 0
M  V30 1892 H 176.132 2.5839 2.89982 0
M  V30 1893 H 177.864 2.83132 2.89168 0
M  V30 1894 H 174.619 4.43417 1.66369 0
M  V30 1895 H 175.043 6.75528 0.446123 0
M  V30 1896 H 179.685 4.00131 1.36583 0
M  V30 1897 H 177.403 8.06876 -0.444676 0
M  V30 1898 H 180.989 5.81045 0.296269 0
M  V30 1899 H 179.869 7.81933 -0.59585 0
M  V30 1900 N 177.372 -0.689602 1.41712 0
M  V30 1901 C 178.304 -1.815 1.39966 0
M  V30 1902 C 179.317 -1.59995 0.300917 0
M  V30 1903 O 180.506 -1.69387 0.563039 0
M  V30 1904 C 177.606 -3.18364 1.16179 0
M  V30 1905 C 176.779 -3.66847 2.38206 0
M  V30 1906 C 175.838 -4.82398 2.10186 0
M  V30 1907 O 174.864 -4.93706 2.83272 0
M  V30 1908 N 176.066 -5.70064 1.0958 0
M  V30 1909 H 178.831 -1.83488 2.36965 0
M  V30 1910 H 176.392 -0.872149 1.36401 0
M  V30 1911 H 178.384 -3.93301 0.953756 0
M  V30 1912 H 176.954 -3.11365 0.27756 0
M  V30 1913 H 176.174 -2.82751 2.74673 0
M  V30 1914 H 177.462 -3.95978 3.19498 0
M  V30 1915 H 176.86 -5.63565 0.491019 0
M  V30 1916 H 175.417 -6.44874 0.947656 0
M  V30 1917 N 178.85 -1.27639 -0.924453 0
M  V30 1918 C 179.782 -1.06442 -2.02985 0
M  V30 1919 C 180.795 -0.0194771 -1.62788 0
M  V30 1920 O 181.984 -0.261388 -1.76576 0
M  V30 1921 C 179.084 -0.59327 -3.33667 0
M  V30 1922 C 178.257 -1.71123 -4.02537 0
M  V30 1923 C 177.316 -1.23527 -5.11495 0
M  V30 1924 O 176.342 -1.93553 -5.35281 0
M  V30 1925 N 177.544 -0.0926678 -5.80426 0
M  V30 1926 H 180.309 -2.01633 -2.2173 0
M  V30 1927 H 177.87 -1.19248 -1.09505 0
M  V30 1928 H 179.862 -0.258686 -4.03872 0
M  V30 1929 H 178.432 0.265502 -3.1147 0
M  V30 1930 H 177.652 -2.21593 -3.26022 0
M  V30 1931 H 178.94 -2.46145 -4.45298 0
M  V30 1932 H 178.338 0.491741 -5.63559 0
M  V30 1933 H 176.895 0.182714 -6.51544 0
M  V30 1934 N 180.328 1.1314 -1.09713 0
M  V30 1935 C 181.258 2.20748 -0.761102 0
M  V30 1936 C 182.239 1.68061 0.262566 0
M  V30 1937 O 183.424 1.93765 0.129977 0
M  V30 1938 C 180.554 3.46812 -0.184054 0
M  V30 1939 C 179.508 4.12606 -1.13757 0
M  V30 1940 C 178.834 5.33031 -0.422083 0
M  V30 1941 C 180.134 4.59603 -2.48118 0
M  V30 1942 H 181.828 2.49113 -1.66082 0
M  V30 1943 H 179.374 1.19734 -0.799987 0
M  V30 1944 H 181.327 4.21353 0.0631215 0
M  V30 1945 H 180.051 3.17851 0.750868 0
M  V30 1946 H 178.71 3.40036 -1.37007 0
M  V30 1947 H 178.358 5.00335 0.517072 0
M  V30 1948 H 178.058 5.77999 -1.05788 0
M  V30 1949 H 179.582 6.10325 -0.183277 0
M  V30 1950 H 180.996 5.25552 -2.29059 0
M  V30 1951 H 179.393 5.15321 -3.07514 0
M  V30 1952 H 180.463 3.73971 -3.08665 0
M  V30 1953 N 181.806 0.884767 1.30421 0
M  V30 1954 C 182.738 0.308655 2.27112 0
M  V30 1955 C 183.751 -0.536655 1.53701 0
M  V30 1956 O 184.94 -0.35624 1.74909 0
M  V30 1957 C 182.04 -0.579782 3.33904 0
M  V30 1958 C 181.213 0.236417 4.36761 0
M  V30 1959 C 180.272 -0.582482 5.22966 0
M  V30 1960 O 179.298 -0.00525502 5.692 0
M  V30 1961 N 180.5 -1.89163 5.48815 0
M  V30 1962 H 183.265 1.13964 2.77186 0
M  V30 1963 H 180.826 0.747731 1.43599 0
M  V30 1964 H 182.818 -1.13366 3.88497 0
M  V30 1965 H 181.388 -1.31144 2.83761 0
M  V30 1966 H 180.608 0.97174 3.82035 0
M  V30 1967 H 181.896 0.795924 5.02536 0
M  V30 1968 H 181.294 -2.38352 5.13035 0
M  V30 1969 H 179.851 -2.39296 6.06284 0
M  V30 1970 N 183.284 -1.43765 0.645699 0
M  V30 1971 C 184.216 -2.29027 -0.0890605 0
M  V30 1972 C 185.229 -1.42093 -0.794563 0
M  V30 1973 O 186.418 -1.66104 -0.653575 0
M  V30 1974 C 183.518 -3.18831 -1.14891 0
M  V30 1975 C 182.691 -4.34261 -0.523043 0
M  V30 1976 C 181.75 -5.04994 -1.47878 0
M  V30 1977 O 180.776 -5.6052 -0.990277 0
M  V30 1978 N 181.978 -5.07795 -2.81291 0
M  V30 1979 H 184.743 -2.92727 0.64272 0
M  V30 1980 H 182.304 -1.54373 0.487924 0
M  V30 1981 H 184.296 -3.63015 -1.78892 0
M  V30 1982 H 182.866 -2.56782 -1.78275 0
M  V30 1983 H 182.086 -3.93088 0.295896 0
M  V30 1984 H 183.374 -5.08728 -0.0858147 0
M  V30 1985 H 182.772 -4.64042 -3.23546 0
M  V30 1986 H 181.329 -5.55721 -3.40614 0
M  V30 1987 N 184.763 -0.387143 -1.52771 0
M  V30 1988 C 185.673 0.456442 -2.30117 0
M  V30 1989 C 186.689 1.07342 -1.36944 0
M  V30 1990 O 187.865 1.07971 -1.70013 0
M  V30 1991 C 184.93 1.56957 -3.09136 0
M  V30 1992 C 183.991 0.977916 -4.18014 0
M  V30 1993 C 183.224 2.038 -4.93256 0
M  V30 1994 O 183.447 3.25271 -4.68567 0
M  V30 1995 O 182.381 1.6565 -5.78657 0
M  V30 1996 H 186.207 -0.17359 -3.03203 0
M  V30 1997 H 183.792 -0.150919 -1.48636 0
M  V30 1998 H 185.674 2.21628 -3.58412 0
M  V30 1999 H 184.349 2.18461 -2.38865 0
M  V30 2000 H 183.256 0.294525 -3.72939 0
M  V30 2001 H 184.589 0.407128 -4.90513 0
M  V30 2002 N 186.241 1.57166 -0.116904 0
M  V30 2003 C 187.171 2.18222 0.830759 0
M  V30 2004 C 188.152 1.12167 1.27877 0
M  V30 2005 O 189.337 1.40394 1.34176 0
M  V30 2006 C 186.467 2.77996 2.08172 0
M  V30 2007 C 185.421 3.89614 1.77157 0
M  V30 2008 C 184.747 4.36187 3.09265 0
M  V30 2009 C 186.047 5.1181 1.04151 0
M  V30 2010 H 187.741 2.97664 0.321992 0
M  V30 2011 H 185.287 1.4318 0.153434 0
M  V30 2012 H 187.24 3.19366 2.74924 0
M  V30 2013 H 185.964 1.9584 2.6137 0
M  V30 2014 H 184.623 3.48816 1.12796 0
M  V30 2015 H 184.271 3.50893 3.60393 0
M  V30 2016 H 183.971 5.11455 2.89288 0
M  V30 2017 H 185.495 4.80207 3.77139 0
M  V30 2018 H 186.909 5.50214 1.61052 0
M  V30 2019 H 185.306 5.92648 0.942762 0
M  V30 2020 H 186.376 4.84892 0.0279022 0
M  V30 2021 N 187.719 -0.156864 1.56817 0
M  V30 2022 C 188.947 -0.886316 1.86955 0
M  V30 2023 C 189.362 -1.75185 0.703975 0
M  V30 2024 O 188.719 -1.79555 -0.326552 0
M  V30 2025 C 188.77 -1.75117 3.16253 0
M  V30 2026 O 188.491 -0.920537 4.2832 0
M  V30 2027 C 189.992 -2.58905 3.59837 0
M  V30 2028 H 187.212 -0.25678 0.619923 0
M  V30 2029 H 189.756 -0.152615 2.0393 0
M  V30 2030 H 187.911 -2.43805 3.01062 0
M  V30 2031 H 188.325 -1.51337 5.02192 0
M  V30 2032 H 189.799 -3.1518 4.53172 0
M  V30 2033 H 190.276 -3.34472 2.84649 0
M  V30 2034 H 190.882 -1.95526 3.7769 0
M  V30 2035 N 189.197 -1.51736 -0.425897 0
M  V30 2036 C 190.144 -1.73875 -1.51776 0
M  V30 2037 C 191.114 -0.580702 -1.55618 0
M  V30 2038 O 192.299 -0.81641 -1.72451 0
M  V30 2039 C 189.439 -1.88012 -2.89388 0
M  V30 2040 C 188.552 -3.15606 -2.94986 0
M  V30 2041 C 187.687 -3.20271 -4.23793 0
M  V30 2042 C 186.726 -4.42134 -4.23302 0
M  V30 2043 N 185.863 -4.44284 -5.43651 0
M  V30 2044 H 190.703 -2.67071 -1.32201 0
M  V30 2045 H 188.24 -1.32351 -0.642008 0
M  V30 2046 H 190.198 -1.9419 -3.69251 0
M  V30 2047 H 188.828 -0.98213 -3.07496 0
M  V30 2048 H 187.88 -3.18681 -2.07717 0
M  V30 2049 H 189.192 -4.05486 -2.90486 0
M  V30 2050 H 188.346 -3.25428 -5.12036 0
M  V30 2051 H 187.085 -2.28299 -4.30965 0
M  V30 2052 H 186.09 -4.3714 -3.3345 0
M  V30 2053 H 187.315 -5.35382 -4.17783 0
M  V30 2054 H 185.261 -3.55188 -5.51523 0
M  V30 2055 H 185.178 -5.27988 -5.41078 0
M  V30 2056 H 186.446 -4.53649 -6.33895 0
M  V30 2057 N 190.675 0.682077 -1.42076 0
M  V30 2058 C 191.903 1.47057 -1.4554 0
M  V30 2059 C 192.318 1.8869 -0.0645779 0
M  V30 2060 O 191.675 1.57666 0.919115 0
M  V30 2061 C 191.726 2.72442 -2.37609 0
M  V30 2062 O 191.447 2.32559 -3.71279 0
M  V30 2063 C 192.948 3.66069 -2.50017 0
M  V30 2064 H 190.168 0.452737 -0.495248 0
M  V30 2065 H 192.712 0.838695 -1.8651 0
M  V30 2066 H 190.867 3.31835 -1.9991 0
M  V30 2067 H 191.281 3.13475 -4.20516 0
M  V30 2068 H 192.755 4.50792 -3.18576 0
M  V30 2069 H 193.232 4.11476 -1.53572 0
M  V30 2070 H 193.838 3.12572 -2.88407 0
M  V30 2071 N 192.153 1.28127 0.917671 0
M  V30 2072 C 193.103 1.08361 2.00604 0
M  V30 2073 C 194.087 0.00847518 1.60898 0
M  V30 2074 O 195.279 0.228167 1.75523 0
M  V30 2075 C 192.408 0.743376 3.35155 0
M  V30 2076 C 191.494 1.85716 3.81275 0
M  V30 2077 N 191.885 3.09822 3.99805 0
M  V30 2078 C 190.183 1.74612 4.10398 0
M  V30 2079 C 190.884 3.82368 4.38372 0
M  V30 2080 N 189.86 3.10192 4.4641 0
M  V30 2081 H 193.662 2.02531 2.12975 0
M  V30 2082 H 191.176 1.18989 1.10523 0
M  V30 2083 H 193.173 0.582859 4.12805 0
M  V30 2084 H 191.833 -0.190595 3.2414 0
M  V30 2085 H 192.844 3.45475 3.85833 0
M  V30 2086 H 189.521 0.883657 4.08041 0
M  V30 2087 H 190.911 4.89082 4.60704 0
M  V30 2088 N 193.631 -1.12557 1.10312 0
M  V30 2089 C 194.856 -1.88405 0.867085 0
M  V30 2090 C 195.281 -1.79038 -0.576817 0
M  V30 2091 O 194.639 -1.14439 -1.40618 0
M  V30 2092 C 194.687 -3.3563 1.31851 0
M  V30 2093 O 193.791 -4.09565 0.482734 0
M  V30 2094 H 193.132 -0.585455 0.313271 0
M  V30 2095 H 195.662 -1.42352 1.4696 0
M  V30 2096 H 195.672 -3.86469 1.3079 0
M  V30 2097 H 194.347 -3.41765 2.37001 0
M  V30 2098 H 192.924 -3.68695 0.558448 0
M  V30 2099 N 195.109 -0.891671 -1.2995 0
M  V30 2100 C 196.041 -0.320695 -2.26945 0
M  V30 2101 C 197.054 0.528497 -1.53983 0
M  V30 2102 O 198.243 0.346959 -1.75096 0
M  V30 2103 C 195.343 0.562066 -3.34207 0
M  V30 2104 C 194.516 -0.259576 -4.36629 0
M  V30 2105 C 193.575 0.554739 -5.23268 0
M  V30 2106 O 192.601 -0.0249311 -5.69195 0
M  V30 2107 N 193.803 1.8625 -5.4981 0
M  V30 2108 H 196.568 -1.15432 -2.76578 0
M  V30 2109 H 194.129 -0.755336 -1.432 0
M  V30 2110 H 196.121 1.11304 -3.89093 0
M  V30 2111 H 194.691 1.29637 -2.84452 0
M  V30 2112 H 193.911 -0.991986 -3.81514 0
M  V30 2113 H 195.199 -0.822564 -5.02107 0
M  V30 2114 H 194.597 2.35628 -5.14292 0
M  V30 2115 H 193.154 2.36078 -6.07545 0
M  V30 2116 N 196.587 1.43421 -0.653314 0
M  V30 2117 C 197.864 1.95361 -0.0966581 0
M  V30 2118 C 198.244 1.59461 1.38331 0
M  V30 2119 O 197.592 0.879777 2.10884 0
M  V30 2120 C 197.802 3.47311 -0.342988 0
M  V30 2121 C 199.15 4.23875 -0.24798 0
M  V30 2122 O 200.174 3.55133 -0.275553 0
M  V30 2123 O 199.033 5.4623 -0.171771 0
M  V30 2124 H 196.127 0.826945 0.00956291 0
M  V30 2125 H 198.673 1.5336 -0.726558 0
M  V30 2126 H 197.445 3.66569 -1.36906 0
M  V30 2127 H 197.068 3.9631 0.319975 0
M  V30 2128 N 198.065 0.39524 1.52563 0
M  V30 2129 C 199.314 -0.186321 2.00838 0
M  V30 2130 C 199.627 -1.47402 1.28577 0
M  V30 2131 O 200.833 -2.13599 1.67593 0
M  V30 2132 C 199.289 -0.382595 3.57861 0
M  V30 2133 C 198.897 0.892202 4.39026 0
M  V30 2134 C 200.641 -0.9202 4.14406 0
M  V30 2135 C 198.548 0.66388 5.87662 0
M  V30 2136 H 197.478 -0.0734041 0.750418 0
M  V30 2137 H 200.129 0.518552 1.76021 0
M  V30 2138 H 198.511 -1.14946 3.7895 0
M  V30 2139 H 199.685 1.66414 4.29701 0
M  V30 2140 H 198 1.35519 3.9373 0
M  V30 2141 H 200.597 -1.10683 5.23119 0
M  V30 2142 H 200.94 -1.89096 3.70875 0
M  V30 2143 H 201.473 -0.212751 3.97231 0
M  V30 2144 H 198.212 1.6058 6.35527 0
M  V30 2145 H 197.732 -0.0690193 5.9976 0
M  V30 2146 H 199.411 0.300699 6.46301 0
M  V30 2147 N 199.544 -1.57102 0.125237 0
M  V30 2148 C 200.454 -2.19191 -0.8362 0
M  V30 2149 C 201.47 -1.16985 -1.28805 0
M  V30 2150 O 202.646 -1.49479 -1.34974 0
M  V30 2151 C 199.711 -2.78407 -2.06617 0
M  V30 2152 C 198.772 -3.9567 -1.66565 0
M  V30 2153 C 198.005 -4.52052 -2.83698 0
M  V30 2154 O 198.228 -4.07326 -3.99302 0
M  V30 2155 O 197.162 -5.42645 -2.60423 0
M  V30 2156 H 200.988 -3.01816 -0.337776 0
M  V30 2157 H 198.573 -1.4906 -0.100695 0
M  V30 2158 H 200.455 -3.16129 -2.7864 0
M  V30 2159 H 199.13 -1.9881 -2.55453 0
M  V30 2160 H 198.037 -3.62705 -0.916296 0
M  V30 2161 H 199.37 -4.76722 -1.22464 0
M  V30 2162 N 201.022 0.148545 -1.56898 0
M  V30 2163 C 201.969 1.18345 -1.98149 0
M  V30 2164 C 202.939 1.42772 -0.848848 0
M  V30 2165 O 204.124 1.55132 -1.11079 0
M  V30 2166 C 201.264 2.51231 -2.36594 0
M  V30 2167 C 200.377 2.33991 -3.63142 0
M  V30 2168 C 199.512 3.59902 -3.90697 0
M  V30 2169 C 198.551 3.37692 -5.1052 0
M  V30 2170 N 197.688 4.5573 -5.34092 0
M  V30 2171 H 202.528 0.82467 -2.86362 0
M  V30 2172 H 200.065 0.395756 -1.41676 0
M  V30 2173 H 202.023 3.28713 -2.56912 0
M  V30 2174 H 200.653 2.85059 -1.51463 0
M  V30 2175 H 199.705 1.47572 -3.50609 0
M  V30 2176 H 201.017 2.13539 -4.5078 0
M  V30 2177 H 200.171 4.45813 -4.11505 0
M  V30 2178 H 198.91 3.83357 -3.01477 0
M  V30 2179 H 197.915 2.5017 -4.89587 0
M  V30 2180 H 199.14 3.15637 -6.0129 0
M  V30 2181 H 197.086 4.79361 -4.47827 0
M  V30 2182 H 197.003 4.38274 -6.15996 0
M  V30 2183 H 198.271 5.42858 -5.59397 0
M  V30 2184 N 202.5 1.5196 0.417844 0
M  V30 2185 C 203.43 1.77634 1.51554 0
M  V30 2186 C 204.411 0.626918 1.58126 0
M  V30 2187 O 205.596 0.871632 1.7354 0
M  V30 2188 C 202.726 1.91911 2.8946 0
M  V30 2189 C 201.68 3.07463 2.97743 0
M  V30 2190 C 201.006 3.06951 4.37819 0
M  V30 2191 C 202.306 4.47082 2.70027 0
M  V30 2192 H 204 2.6955 1.3032 0
M  V30 2193 H 201.546 1.29706 0.625492 0
M  V30 2194 H 203.499 2.08455 3.6623 0
M  V30 2195 H 202.223 0.966598 3.11969 0
M  V30 2196 H 200.882 2.90656 2.23416 0
M  V30 2197 H 200.53 2.09438 4.57323 0
M  V30 2198 H 200.23 3.84556 4.44286 0
M  V30 2199 H 201.754 3.25613 5.16535 0
M  V30 2200 H 203.168 4.6414 3.36522 0
M  V30 2201 H 201.565 5.2654 2.87881 0
M  V30 2202 H 202.635 4.55777 1.65514 0
M  V30 2203 N 203.978 -0.674533 1.42435 0
M  V30 2204 C 204.925 -1.78807 1.45934 0
M  V30 2205 C 205.895 -1.63157 0.311271 0
M  V30 2206 O 207.08 -1.83707 0.515383 0
M  V30 2207 C 204.22 -3.16839 1.36773 0
M  V30 2208 C 203.333 -3.43774 2.61617 0
M  V30 2209 C 202.468 -4.71536 2.44597 0
M  V30 2210 C 201.507 -4.91505 3.64814 0
M  V30 2211 N 200.644 -6.10508 3.46734 0
M  V30 2212 H 205.484 -1.75151 2.41093 0
M  V30 2213 H 203.021 -0.85504 1.19697 0
M  V30 2214 H 204.979 -3.96606 1.29459 0
M  V30 2215 H 203.609 -3.19619 0.452089 0
M  V30 2216 H 202.661 -2.58259 2.79297 0
M  V30 2217 H 203.973 -3.54423 3.50978 0
M  V30 2218 H 203.127 -5.59393 2.3487 0
M  V30 2219 H 201.866 -4.6317 1.52726 0
M  V30 2220 H 200.871 -4.0209 3.74972 0
M  V30 2221 H 202.096 -5.01716 4.57665 0
M  V30 2222 H 200.042 -6.03315 2.5758 0
M  V30 2223 H 199.959 -6.2202 4.29682 0
M  V30 2224 H 201.227 -7.01044 3.40819 0
M  V30 2225 N 205.456 -1.28612 -0.910864 0
M  V30 2226 C 206.681 -1.1891 -1.69927 0
M  V30 2227 C 207.106 0.248372 -1.86453 0
M  V30 2228 O 206.464 1.17961 -1.37676 0
M  V30 2229 C 206.512 -1.89578 -3.06745 0
M  V30 2230 O 205.616 -1.20521 -3.94396 0
M  V30 2231 H 204.957 -0.412632 -0.520222 0
M  V30 2232 H 207.487 -1.69985 -1.1387 0
M  V30 2233 H 207.497 -1.97597 -3.56958 0
M  V30 2234 H 206.172 -2.94136 -2.94035 0
M  V30 2235 H 204.749 -1.20684 -3.52831 0
M  V30 2236 N 206.934 1.1197 -1.10907 0
M  V30 2237 C 207.866 2.17592 -0.720175 0
M  V30 2238 C 208.879 1.60938 0.245495 0
M  V30 2239 O 210.068 1.78476 0.0292245 0
M  V30 2240 C 207.168 3.38873 -0.0427917 0
M  V30 2241 C 206.341 4.25006 -1.03388 0
M  V30 2242 C 205.4 5.24774 -0.387075 0
M  V30 2243 O 204.426 5.59631 -1.03934 0
M  V30 2244 N 205.628 5.74208 0.852407 0
M  V30 2245 H 208.393 2.51567 -1.62893 0
M  V30 2246 H 205.954 1.27439 -0.998543 0
M  V30 2247 H 207.946 4.02703 0.401501 0
M  V30 2248 H 206.516 3.03007 0.768456 0
M  V30 2249 H 205.736 3.57716 -1.65629 0
M  V30 2250 H 207.024 4.79397 -1.70458 0
M  V30 2251 H 206.422 5.48062 1.40161 0
M  V30 2252 H 204.979 6.39901 1.23977 0
M  V30 2253 N 208.412 0.89855 1.29475 0
M  V30 2254 C 209.642 0.538479 1.99459 0
M  V30 2255 C 210.05 -0.880922 1.67441 0
M  V30 2256 O 209.393 -1.59283 0.915127 0
M  V30 2257 C 209.455 0.649564 3.53583 0
M  V30 2258 C 209.119 2.03573 4.09154 0
M  V30 2259 C 210.116 3.00675 4.24135 0
M  V30 2260 C 207.801 2.3448 4.44212 0
M  V30 2261 C 209.795 4.26809 4.73405 0
M  V30 2262 C 207.482 3.60857 4.93179 0
M  V30 2263 C 208.48 4.56836 5.0773 0
M  V30 2264 O 208.168 5.80969 5.55635 0
M  V30 2265 H 207.9 0.205372 0.644048 0
M  V30 2266 H 210.454 1.20958 1.66007 0
M  V30 2267 H 208.684 -0.0785592 3.8662 0
M  V30 2268 H 210.373 0.29881 4.04799 0
M  V30 2269 H 211.139 2.78112 3.97339 0
M  V30 2270 H 207.018 1.60534 4.32145 0
M  V30 2271 H 210.562 5.0173 4.84678 0
M  V30 2272 H 206.459 3.83251 5.19412 0
M  V30 2273 H 207.227 5.83542 5.73952 0
M  V30 2274 N 209.89 -1.43072 0.660911 0
M  V30 2275 C 211.306 -1.56169 0.329173 0
M  V30 2276 C 211.506 -1.64317 -1.16629 0
M  V30 2277 O 210.562 -1.60245 -1.95135 0
M  V30 2278 C 211.875 -2.81873 1.04729 0
M  V30 2279 C 213.423 -2.95627 1.02828 0
M  V30 2280 C 213.898 -4.24174 1.72744 0
M  V30 2281 N 215.389 -4.31055 1.69545 0
M  V30 2282 C 216.124 -5.29304 2.20511 0
M  V30 2283 N 215.62 -6.33786 2.79799 0
M  V30 2284 N 217.413 -5.21008 2.10966 0
M  V30 2285 H 209.564 -1.36027 1.63127 0
M  V30 2286 H 211.827 -0.653823 0.686454 0
M  V30 2287 H 211.533 -2.81942 2.10242 0
M  V30 2288 H 211.407 -3.72338 0.603702 0
M  V30 2289 H 213.794 -2.95094 -0.0184742 0
M  V30 2290 H 213.875 -2.06431 1.51063 0
M  V30 2291 H 213.519 -4.25467 2.7738 0
M  V30 2292 H 213.449 -5.1228 1.2197 0
M  V30 2293 H 215.94 -3.56174 1.26288 0
M  V30 2294 H 216.253 -7.05086 3.16344 0
M  V30 2295 H 214.598 -6.34387 2.83863 0
M  V30 2296 H 217.789 -4.38301 1.64347 0
M  V30 2297 H 217.962 -5.97416 2.50993 0
M  V30 2298 N 211.368 -0.403325 -1.52352 0
M  V30 2299 C 212.331 0.413051 -2.25447 0
M  V30 2300 C 213.331 0.978513 -1.276 0
M  V30 2301 O 214.521 0.858305 -1.51587 0
M  V30 2302 C 211.653 1.58087 -3.02029 0
M  V30 2303 H 212.846 -0.227094 -2.99039 0
M  V30 2304 H 210.399 -0.155722 -1.55522 0
M  V30 2305 H 211.134 2.25804 -2.32772 0
M  V30 2306 H 210.919 1.18195 -3.73861 0
M  V30 2307 H 212.409 2.1585 -3.57489 0
M  V30 2308 N 212.846 1.57033 -0.133567 0
M  V30 2309 C 213.776 2.1909 0.807567 0
M  V30 2310 C 214.757 1.13517 1.26681 0
M  V30 2311 O 215.942 1.41809 1.32679 0
M  V30 2312 C 213.072 2.80188 2.05212 0
M  V30 2313 C 212.026 3.91471 1.73015 0
M  V30 2314 C 211.352 4.39443 3.04622 0
M  V30 2315 C 212.652 5.12886 0.987168 0
M  V30 2316 H 214.346 2.97988 0.290403 0
M  V30 2317 H 211.892 1.43335 0.138239 0
M  V30 2318 H 213.845 3.22264 2.71521 0
M  V30 2319 H 212.569 1.98601 2.59278 0
M  V30 2320 H 211.228 3.49993 1.0909 0
M  V30 2321 H 210.876 3.54695 3.56651 0
M  V30 2322 H 210.576 5.14495 2.83847 0
M  V30 2323 H 212.1 4.8418 3.72024 0
M  V30 2324 H 213.514 5.51891 1.55208 0
M  V30 2325 H 211.911 5.93615 0.87985 0
M  V30 2326 H 212.981 4.84894 -0.0235286 0
M  V30 2327 N 214.325 -0.140222 1.56975 0
M  V30 2328 C 215.288 -1.15689 1.97861 0
M  V30 2329 C 216.288 -1.3549 0.865974 0
M  V30 2330 O 217.478 -1.32367 1.13246 0
M  V30 2331 C 214.61 -2.51582 2.30042 0
M  V30 2332 H 215.803 -0.805971 2.88867 0
M  V30 2333 H 213.356 -0.383801 1.51515 0
M  V30 2334 H 214.091 -2.91632 1.41849 0
M  V30 2335 H 213.876 -2.38569 3.11171 0
M  V30 2336 H 215.366 -3.24792 2.62488 0
M  V30 2337 N 215.803 -1.52179 -0.40978 0
M  V30 2338 C 217.219 -1.40968 -0.74835 0
M  V30 2339 C 217.419 -0.513657 -1.94843 0
M  V30 2340 O 216.475 0.0208026 -2.52491 0
M  V30 2341 C 217.788 -2.83483 -1.0029 0
M  V30 2342 C 219.336 -2.92821 -1.10565 0
M  V30 2343 C 219.811 -4.36303 -1.39296 0
M  V30 2344 N 221.302 -4.39535 -1.46162 0
M  V30 2345 C 222.037 -5.47614 -1.70018 0
M  V30 2346 N 221.533 -6.65812 -1.91483 0
M  V30 2347 N 223.326 -5.35129 -1.72027 0
M  V30 2348 H 215.477 -2.0897 0.380186 0
M  V30 2349 H 217.74 -0.94185 0.107805 0
M  V30 2350 H 217.446 -3.51168 -0.193461 0
M  V30 2351 H 217.32 -3.24487 -1.92323 0
M  V30 2352 H 219.707 -2.25318 -1.90568 0
M  V30 2353 H 219.788 -2.55276 -0.16369 0
M  V30 2354 H 219.432 -5.04366 -0.598109 0
M  V30 2355 H 219.362 -4.71385 -2.34743 0
M  V30 2356 H 221.853 -3.54332 -1.31367 0
M  V30 2357 H 222.166 -7.43964 -2.09134 0
M  V30 2358 H 220.511 -6.68879 -1.88749 0
M  V30 2359 H 223.702 -4.41764 -1.54796 0
M  V30 2360 H 223.875 -6.19433 -1.9028 0
M  V30 2361 N 217.281 0.66697 -1.42791 0
M  V30 2362 C 218.558 1.4234 -1.34159 0
M  V30 2363 C 218.938 2.11093 0.0172729 0
M  V30 2364 O 218.286 2.03808 1.03318 0
M  V30 2365 C 218.496 2.41942 -2.51526 0
M  V30 2366 C 219.844 3.06353 -2.93995 0
M  V30 2367 O 220.868 2.52269 -2.51473 0
M  V30 2368 O 219.727 4.04376 -3.67617 0
M  V30 2369 H 216.821 0.635277 -0.529483 0
M  V30 2370 H 219.367 0.695034 -1.54814 0
M  V30 2371 H 218.139 1.89991 -3.42081 0
M  V30 2372 H 217.762 3.22249 -2.32898 0
M  V30 2373 N 218.759 1.29093 0.90403 0
M  V30 2374 C 219.984 1.19809 1.69294 0
M  V30 2375 C 220.409 -0.238481 1.86582 0
M  V30 2376 O 219.767 -1.1723 1.383 0
M  V30 2377 C 219.815 1.91202 3.05736 0
M  V30 2378 O 218.919 1.22611 3.93752 0
M  V30 2379 H 218.26 0.415385 0.518027 0
M  V30 2380 H 220.79 1.70586 1.12967 0
M  V30 2381 H 220.8 1.99487 3.55906 0
M  V30 2382 H 219.475 2.95692 2.92471 0
M  V30 2383 H 218.052 1.22554 3.52186 0
M  V30 2384 N 220.237 -1.11381 1.11499 0
M  V30 2385 C 221.2 -2.15622 0.777153 0
M  V30 2386 C 222.2 -1.59504 -0.203779 0
M  V30 2387 O 223.39 -1.74188 0.020782 0
M  V30 2388 C 220.522 -3.40556 0.153116 0
M  V30 2389 H 221.715 -2.47021 1.70061 0
M  V30 2390 H 219.268 -1.26577 0.916952 0
M  V30 2391 H 220.003 -3.14767 -0.780536 0
M  V30 2392 H 219.788 -3.8257 0.859238 0
M  V30 2393 H 221.278 -4.17546 -0.0671044 0
M  V30 2394 N 221.715 -0.905404 -1.28997 0
M  V30 2395 C 222.647 -0.344748 -2.26592 0
M  V30 2396 C 223.66 0.512135 -1.54535 0
M  V30 2397 O 224.849 0.328368 -1.75454 0
M  V30 2398 C 221.949 0.526587 -3.34784 0
M  V30 2399 C 221.122 -0.305871 -4.36329 0
M  V30 2400 C 220.181 0.499209 -5.23827 0
M  V30 2401 O 219.207 -0.0853004 -5.69136 0
M  V30 2402 N 220.409 1.80408 -5.51755 0
M  V30 2403 H 223.174 -1.18359 -2.75338 0
M  V30 2404 H 220.735 -0.770481 -1.42391 0
M  V30 2405 H 222.727 1.07171 -3.90252 0
M  V30 2406 H 221.297 1.26613 -2.85811 0
M  V30 2407 H 220.517 -1.0324 -3.80441 0
M  V30 2408 H 221.805 -0.875773 -5.01206 0
M  V30 2409 H 221.203 2.3016 -5.16762 0
M  V30 2410 H 219.76 2.29621 -6.10014 0
M  V30 2411 N 223.193 1.4272 -0.668489 0
M  V30 2412 C 224.156 2.292 0.00448567 0
M  V30 2413 C 225.156 1.43001 0.735339 0
M  V30 2414 O 226.346 1.64461 0.57429 0
M  V30 2415 C 223.478 3.25375 1.01705 0
M  V30 2416 H 224.671 2.90199 -0.756608 0
M  V30 2417 H 222.224 1.50254 -0.430506 0
M  V30 2418 H 222.959 2.69301 1.80686 0
M  V30 2419 H 222.744 3.88944 0.496463 0
M  V30 2420 H 224.234 3.90245 1.48655 0
M  V30 2421 N 224.671 0.411399 1.52136 0
M  V30 2422 C 225.618 -0.412975 2.27075 0
M  V30 2423 C 226.588 -1.03912 1.29582 0
M  V30 2424 O 227.773 -1.06296 1.58448 0
M  V30 2425 C 224.913 -1.52247 3.09701 0
M  V30 2426 C 224.026 -0.917021 4.22155 0
M  V30 2427 C 223.161 -1.9994 4.92135 0
M  V30 2428 C 222.2 -1.37101 5.96548 0
M  V30 2429 N 221.337 -2.39364 6.60038 0
M  V30 2430 H 226.177 0.232499 2.97092 0
M  V30 2431 H 223.714 0.126496 1.46555 0
M  V30 2432 H 225.672 -2.17674 3.55913 0
M  V30 2433 H 224.302 -2.13794 2.41851 0
M  V30 2434 H 223.354 -0.151742 3.80097 0
M  V30 2435 H 224.666 -0.418006 4.97045 0
M  V30 2436 H 223.82 -2.73088 5.41763 0
M  V30 2437 H 222.559 -2.53208 4.16818 0
M  V30 2438 H 221.564 -0.624873 5.46237 0
M  V30 2439 H 222.789 -0.845998 6.7381 0
M  V30 2440 H 220.735 -2.91759 5.87548 0
M  V30 2441 H 220.652 -1.9428 7.3061 0
M  V30 2442 H 221.92 -3.12074 7.14304 0
M  V30 2443 N 226.149 -1.5696 0.141893 0
M  V30 2444 C 227.565 -1.58151 -0.21456 0
M  V30 2445 C 227.765 -1.1559 -1.65049 0
M  V30 2446 O 226.821 -0.853832 -2.37626 0
M  V30 2447 C 228.134 -3.00674 0.0395576 0
M  V30 2448 C 229.682 -3.1299 -0.0245529 0
M  V30 2449 C 230.157 -4.57554 0.202167 0
M  V30 2450 N 231.648 -4.62961 0.148919 0
M  V30 2451 C 232.383 -5.7262 0.298924 0
M  V30 2452 N 231.879 -6.90947 0.50637 0
M  V30 2453 N 233.672 -5.61601 0.236886 0
M  V30 2454 H 225.823 -1.8292 1.07953 0
M  V30 2455 H 228.086 -0.846425 0.42693 0
M  V30 2456 H 227.792 -3.36183 1.03315 0
M  V30 2457 H 227.666 -3.70981 -0.682143 0
M  V30 2458 H 230.053 -2.77326 -1.00869 0
M  V30 2459 H 230.134 -2.4518 0.729396 0
M  V30 2460 H 229.778 -4.93922 1.18338 0
M  V30 2461 H 229.708 -5.23484 -0.572044 0
M  V30 2462 H 232.199 -3.77899 -0.00697015 0
M  V30 2463 H 232.512 -7.7038 0.611076 0
M  V30 2464 H 230.857 -6.92878 0.542628 0
M  V30 2465 H 234.048 -4.68039 0.0756209 0
M  V30 2466 H 234.221 -6.47015 0.357227 0
M  V30 2467 N 227.627 0.131896 -1.57047 0
M  V30 2468 C 228.574 1.16236 -1.99393 0
M  V30 2469 C 229.544 1.41863 -0.863943 0
M  V30 2470 O 230.729 1.53946 -1.12718 0
M  V30 2471 C 227.869 2.48708 -2.39245 0
M  V30 2472 C 226.982 2.30127 -3.65603 0
M  V30 2473 C 226.117 3.55738 -3.94492 0
M  V30 2474 C 225.156 3.32259 -5.14073 0
M  V30 2475 N 224.293 4.50039 -5.38896 0
M  V30 2476 H 229.133 0.794251 -2.87221 0
M  V30 2477 H 226.67 0.380707 -1.42088 0
M  V30 2478 H 228.628 3.25969 -2.60384 0
M  V30 2479 H 227.258 2.83437 -1.54478 0
M  V30 2480 H 226.31 1.43845 -3.52154 0
M  V30 2481 H 227.622 2.08746 -4.5302 0
M  V30 2482 H 226.776 4.41423 -4.1621 0
M  V30 2483 H 225.515 3.80138 -3.05526 0
M  V30 2484 H 224.52 2.44963 -4.92212 0
M  V30 2485 H 225.745 3.09242 -6.04604 0
M  V30 2486 H 223.691 4.74584 -4.52886 0
M  V30 2487 H 223.608 4.31716 -6.2061 0
M  V30 2488 H 224.876 5.36895 -5.65123 0
M  V30 2489 N 229.106 1.52395 0.401703 0
M  V30 2490 C 230.336 1.70429 1.1678 0
M  V30 2491 C 230.744 0.416702 1.84554 0
M  V30 2492 O 230.087 -0.617697 1.73003 0
M  V30 2493 C 230.149 2.78919 2.26814 0
M  V30 2494 C 229.813 4.20437 1.79113 0
M  V30 2495 C 230.81 5.04028 1.27482 0
M  V30 2496 C 228.495 4.66704 1.85722 0
M  V30 2497 C 230.489 6.31961 0.830913 0
M  V30 2498 C 228.176 5.94625 1.40942 0
M  V30 2499 C 229.174 6.77082 0.897128 0
M  V30 2500 O 228.862 8.02607 0.455822 0
M  V30 2501 H 228.594 0.574272 0.356634 0
M  V30 2502 H 231.148 1.99767 0.477724 0
M  V30 2503 H 229.378 2.44973 2.99207 0
M  V30 2504 H 231.067 2.8548 2.88541 0
M  V30 2505 H 231.833 4.69471 1.21744 0
M  V30 2506 H 227.712 4.0262 2.24539 0
M  V30 2507 H 231.256 6.96271 0.430368 0
M  V30 2508 H 227.153 6.28688 1.46362 0
M  V30 2509 H 227.921 8.16453 0.578457 0
M  V30 2510 N 230.584 -0.659388 1.43143 0
M  V30 2511 C 231.516 -1.7849 1.43784 0
M  V30 2512 C 232.529 -1.5932 0.334787 0
M  V30 2513 O 233.718 -1.68155 0.598842 0
M  V30 2514 C 230.818 -3.15828 1.22906 0
M  V30 2515 C 229.991 -3.61711 2.45934 0
M  V30 2516 C 229.05 -4.77831 2.20371 0
M  V30 2517 O 228.076 -4.87586 2.93681 0
M  V30 2518 N 229.278 -5.67611 1.21647 0
M  V30 2519 H 232.043 -1.7842 2.40803 0
M  V30 2520 H 229.604 -0.84302 1.3822 0
M  V30 2521 H 231.596 -3.91189 1.03697 0
M  V30 2522 H 230.166 -3.10707 0.343542 0
M  V30 2523 H 229.386 -2.76861 2.80609 0
M  V30 2524 H 230.674 -3.89112 3.27825 0
M  V30 2525 H 230.072 -5.62397 0.610449 0
M  V30 2526 H 228.629 -6.42719 1.08423 0
M  V30 2527 N 232.062 -1.29571 -0.897171 0
M  V30 2528 C 232.972 -1.16808 -2.03453 0
M  V30 2529 C 233.988 -0.0907471 -1.73763 0
M  V30 2530 O 235.164 -0.303312 -1.99103 0
M  V30 2531 C 232.229 -0.848264 -3.36163 0
M  V30 2532 C 231.29 -2.0097 -3.79354 0
M  V30 2533 C 230.523 -1.70505 -5.05731 0
M  V30 2534 O 230.746 -0.62718 -5.66941 0
M  V30 2535 O 229.68 -2.5538 -5.45036 0
M  V30 2536 H 233.506 -2.12325 -2.17144 0
M  V30 2537 H 231.091 -1.09047 -1.02123 0
M  V30 2538 H 232.973 -0.684581 -4.15802 0
M  V30 2539 H 231.648 0.0771071 -3.23608 0
M  V30 2540 H 230.555 -2.22863 -3.00471 0
M  V30 2541 H 231.888 -2.91636 -3.96496 0
M  V30 2542 N 233.54 1.10788 -1.12088 0
M  V30 2543 C 234.503 2.15207 -0.788577 0
M  V30 2544 C 235.503 1.59609 0.195317 0
M  V30 2545 O 236.693 1.74174 -0.0300193 0
M  V30 2546 C 233.825 3.4047 -0.171174 0
M  V30 2547 H 235.018 2.46116 -1.71368 0
M  V30 2548 H 232.571 1.26089 -0.923652 0
M  V30 2549 H 233.306 3.15176 0.763832 0
M  V30 2550 H 233.091 3.82109 -0.879514 0
M  V30 2551 H 234.581 4.17576 0.04496 0
M  V30 2552 N 235.018 0.912232 1.28515 0
M  V30 2553 C 236.243 0.559774 1.99703 0
M  V30 2554 C 236.668 -0.851393 1.67729 0
M  V30 2555 O 236.026 -1.56875 0.908834 0
M  V30 2556 C 236.074 0.773874 3.52198 0
M  V30 2557 O 235.178 -0.167842 4.12058 0
M  V30 2558 H 234.519 0.21723 0.627461 0
M  V30 2559 H 237.049 1.22725 1.63706 0
M  V30 2560 H 237.059 0.683386 4.02236 0
M  V30 2561 H 235.734 1.80261 3.74805 0
M  V30 2562 H 234.311 -0.0287509 3.72889 0
M  V30 2563 N 236.496 -1.42363 0.676048 0
M  V30 2564 C 237.443 -2.308 -0.00150904 0
M  V30 2565 C 238.413 -1.46032 -0.791444 0
M  V30 2566 O 239.598 -1.74861 -0.76344 0
M  V30 2567 C 236.738 -3.31883 -0.945919 0
M  V30 2568 C 235.851 -4.31741 -0.149675 0
M  V30 2569 C 234.986 -5.19898 -1.08995 0
M  V30 2570 C 234.025 -6.11434 -0.285465 0
M  V30 2571 N 233.162 -6.92138 -1.17851 0
M  V30 2572 H 238.002 -2.88187 0.758455 0
M  V30 2573 H 235.539 -1.41952 0.38576 0
M  V30 2574 H 237.497 -3.89019 -1.50731 0
M  V30 2575 H 236.127 -2.76093 -1.6725 0
M  V30 2576 H 235.179 -3.76713 0.528359 0
M  V30 2577 H 236.491 -4.96534 0.474866 0
M  V30 2578 H 235.645 -5.81772 -1.72123 0
M  V30 2579 H 234.384 -4.55284 -1.74837 0
M  V30 2580 H 233.389 -5.48627 0.359018 0
M  V30 2581 H 234.614 -6.78097 0.368883 0
M  V30 2582 H 232.56 -6.30152 -1.82332 0
M  V30 2583 H 232.477 -7.53542 -0.609082 0
M  V30 2584 H 233.745 -7.58499 -1.79722 0
M  V30 2585 N 237.974 -0.419461 -1.51915 0
M  V30 2586 C 239.251 0.211999 -1.94448 0
M  V30 2587 C 239.631 1.61703 -1.35703 0
M  V30 2588 O 238.979 2.22102 -0.536931 0
M  V30 2589 C 239.189 0.207872 -3.4838 0
M  V30 2590 C 240.537 0.422192 -4.22496 0
M  V30 2591 O 241.561 0.286778 -3.55044 0
M  V30 2592 O 240.42 0.690009 -5.42126 0
M  V30 2593 H 237.514 0.139586 -0.815135 0
M  V30 2594 H 240.06 -0.476151 -1.62883 0
M  V30 2595 H 238.832 -0.775102 -3.83546 0
M  V30 2596 H 238.455 0.939688 -3.86336 0
M  V30 2597 N 239.452 1.56882 -0.150215 0
M  V30 2598 C 240.399 2.16922 0.788244 0
M  V30 2599 C 241.369 1.10303 1.24187 0
M  V30 2600 O 242.554 1.38359 1.31383 0
M  V30 2601 C 239.694 2.79754 2.02068 0
M  V30 2602 C 238.807 4.00775 1.61257 0
M  V30 2603 C 237.942 4.51595 2.79705 0
M  V30 2604 C 236.981 5.65074 2.35282 0
M  V30 2605 N 236.118 6.10499 3.4675 0
M  V30 2606 H 240.958 2.96779 0.269444 0
M  V30 2607 H 238.495 1.46599 0.12128 0
M  V30 2608 H 240.453 3.14329 2.74323 0
M  V30 2609 H 239.083 2.02536 2.51354 0
M  V30 2610 H 238.135 3.72158 0.787553 0
M  V30 2611 H 239.447 4.82978 1.24633 0
M  V30 2612 H 238.601 4.88242 3.60145 0
M  V30 2613 H 237.34 3.68406 3.19576 0
M  V30 2614 H 236.345 5.28 1.53283 0
M  V30 2615 H 237.57 6.50052 1.96493 0
M  V30 2616 H 235.516 5.30243 3.86236 0
M  V30 2617 H 235.433 6.87637 3.14152 0
M  V30 2618 H 236.701 6.51791 4.27537 0
M  V30 2619 N 240.93 -0.123565 1.57115 0
M  V30 2620 C 242.207 -0.862196 1.75572 0
M  V30 2621 C 242.587 -1.98279 0.724475 0
M  V30 2622 O 241.935 -2.27102 -0.252407 0
M  V30 2623 C 242.145 -1.38309 3.20424 0
M  V30 2624 C 243.493 -1.83724 3.82793 0
M  V30 2625 O 244.517 -1.47999 3.23998 0
M  V30 2626 O 243.376 -2.49685 4.86127 0
M  V30 2627 H 240.47 -0.409113 0.718718 0
M  V30 2628 H 243.016 -0.107661 1.69358 0
M  V30 2629 H 241.788 -0.578889 3.86994 0
M  V30 2630 H 241.411 -2.20046 3.31158 0
M  V30 2631 N 242.408 -1.52605 -0.393616 0
M  V30 2632 C 243.824 -1.41753 -0.733357 0
M  V30 2633 C 244.024 -0.534293 -1.94287 0
M  V30 2634 O 243.08 -0.0059787 -2.52499 0
M  V30 2635 C 244.393 -2.84531 -0.972772 0
M  V30 2636 C 245.941 -2.93978 -1.07453 0
M  V30 2637 C 246.416 -4.37756 -1.3466 0
M  V30 2638 N 247.907 -4.4106 -1.41492 0
M  V30 2639 C 248.642 -5.49387 -1.642 0
M  V30 2640 N 248.138 -6.67806 -1.8441 0
M  V30 2641 N 249.931 -5.36923 -1.66342 0
M  V30 2642 H 242.082 -2.08555 0.402328 0
M  V30 2643 H 244.345 -0.940654 0.117789 0
M  V30 2644 H 244.051 -3.51353 -0.156204 0
M  V30 2645 H 243.925 -3.26508 -1.88871 0
M  V30 2646 H 246.312 -2.27326 -1.88167 0
M  V30 2647 H 246.393 -2.55435 -0.136605 0
M  V30 2648 H 246.037 -5.04972 -0.544581 0
M  V30 2649 H 245.967 -4.73848 -2.2973 0
M  V30 2650 H 248.458 -3.55705 -1.27601 0
M  V30 2651 H 248.771 -7.46141 -2.01231 0
M  V30 2652 H 247.116 -6.70843 -1.81644 0
M  V30 2653 H 250.307 -4.43381 -1.50102 0
M  V30 2654 H 250.48 -6.21416 -1.837 0
M  V30 2655 N 243.887 0.651787 -1.4349 0
M  V30 2656 C 245.164 1.40909 -1.35661 0
M  V30 2657 C 245.544 2.11099 -0.00511733 0
M  V30 2658 O 244.892 2.04892 1.0115 0
M  V30 2659 C 245.102 2.3926 -2.54078 0
M  V30 2660 C 246.45 3.03217 -2.97228 0
M  V30 2661 O 247.474 2.49588 -2.54135 0
M  V30 2662 O 246.333 4.00455 -3.71885 0
M  V30 2663 H 243.427 0.629625 -0.536191 0
M  V30 2664 H 245.973 0.678575 -1.55542 0
M  V30 2665 H 244.745 1.86352 -3.44076 0
M  V30 2666 H 244.368 3.1976 -2.36303 0
M  V30 2667 N 245.365 1.30045 0.890287 0
M  V30 2668 C 246.312 1.15976 1.99545 0
M  V30 2669 C 247.282 0.0506202 1.66023 0
M  V30 2670 O 248.467 0.219847 1.89529 0
M  V30 2671 C 245.607 0.852054 3.34416 0
M  V30 2672 C 244.72 2.04255 3.80662 0
M  V30 2673 C 243.855 1.6734 5.04154 0
M  V30 2674 C 242.894 2.82916 5.42794 0
M  V30 2675 N 242.031 2.46333 6.57468 0
M  V30 2676 H 246.871 2.10524 2.10911 0
M  V30 2677 H 244.408 1.04749 1.03276 0
M  V30 2678 H 246.366 0.654296 4.12037 0
M  V30 2679 H 244.996 -0.0565502 3.2275 0
M  V30 2680 H 244.048 2.35172 2.98995 0
M  V30 2681 H 245.36 2.90826 4.05242 0
M  V30 2682 H 244.514 1.43908 5.89386 0
M  V30 2683 H 243.253 0.779308 4.81433 0
M  V30 2684 H 242.258 3.0702 4.56091 0
M  V30 2685 H 243.483 3.73004 5.6749 0
M  V30 2686 H 241.429 1.59423 6.36334 0
M  V30 2687 H 241.346 3.26436 6.81891 0
M  V30 2688 H 242.614 2.26244 7.45945 0
M  V30 2689 N 246.843 -1.10192 1.12674 0
M  V30 2690 C 247.806 -2.14786 0.799979 0
M  V30 2691 C 248.806 -1.59711 -0.18685 0
M  V30 2692 O 249.996 -1.74156 0.0392558 0
M  V30 2693 C 247.128 -3.40374 0.189228 0
M  V30 2694 H 248.321 -2.45203 1.72671 0
M  V30 2695 H 245.874 -1.25597 0.930326 0
M  V30 2696 H 246.609 -3.15577 -0.747107 0
M  V30 2697 H 246.394 -3.81637 0.899766 0
M  V30 2698 H 247.884 -4.17594 -0.0228143 0
M  V30 2699 N 248.321 -0.919034 -1.28029 0
M  V30 2700 C 249.268 -0.410005 -2.27129 0
M  V30 2701 C 250.238 0.518405 -1.57803 0
M  V30 2702 O 251.423 0.439451 -1.8567 0
M  V30 2703 C 248.563 0.339054 -3.4343 0
M  V30 2704 C 247.676 -0.622468 -4.27492 0
M  V30 2705 C 246.811 0.145567 -5.31001 0
M  V30 2706 C 245.85 -0.809226 -6.06727 0
M  V30 2707 N 244.987 -0.0743728 -7.02061 0
M  V30 2708 H 249.827 -1.26011 -2.70047 0
M  V30 2709 H 247.364 -0.632663 -1.328 0
M  V30 2710 H 249.322 0.789586 -4.0966 0
M  V30 2711 H 247.952 1.15346 -3.01488 0
M  V30 2712 H 247.004 -1.19153 -3.61257 0
M  V30 2713 H 248.316 -1.35252 -4.80113 0
M  V30 2714 H 247.47 0.656417 -6.03139 0
M  V30 2715 H 246.209 0.908643 -4.79161 0
M  V30 2716 H 245.214 -1.3314 -5.33436 0
M  V30 2717 H 246.439 -1.57194 -6.60656 0
M  V30 2718 H 244.385 0.670616 -6.52563 0
M  V30 2719 H 244.302 -0.744157 -7.52329 0
M  V30 2720 H 245.57 0.416109 -7.78389 0
M  V30 2721 N 249.799 1.42003 -0.683588 0
M  V30 2722 C 251.076 1.95112 -0.138075 0
M  V30 2723 C 251.456 1.62359 1.34918 0
M  V30 2724 O 250.804 0.924311 2.08971 0
M  V30 2725 C 251.014 3.46505 -0.416581 0
M  V30 2726 C 252.362 4.23254 -0.337834 0
M  V30 2727 O 253.386 3.54468 -0.35082 0
M  V30 2728 O 252.245 5.45743 -0.287596 0
M  V30 2729 H 249.339 0.826961 -0.00797996 0
M  V30 2730 H 251.885 1.51784 -0.758924 0
M  V30 2731 H 250.657 3.63582 -1.4465 0
M  V30 2732 H 250.28 3.969 0.235839 0
M  V30 2733 N 251.277 0.427512 1.51691 0
M  V30 2734 C 252.224 -0.388867 2.275 0
M  V30 2735 C 253.194 -1.02532 1.30677 0
M  V30 2736 O 254.379 -1.0461 1.59566 0
M  V30 2737 C 251.519 -1.48954 3.11298 0
M  V30 2738 C 250.632 -0.872194 4.23104 0
M  V30 2739 C 249.767 -1.94709 4.94228 0
M  V30 2740 C 248.806 -1.30766 5.97969 0
M  V30 2741 N 247.943 -2.32349 6.62539 0
M  V30 2742 H 252.783 0.263997 2.96828 0
M  V30 2743 H 250.32 0.142033 1.46413 0
M  V30 2744 H 252.278 -2.13887 3.58201 0
M  V30 2745 H 250.908 -2.11217 2.44105 0
M  V30 2746 H 249.96 -0.111419 3.80237 0
M  V30 2747 H 251.272 -0.365264 4.97461 0
M  V30 2748 H 250.426 -2.67327 5.44629 0
M  V30 2749 H 249.165 -2.48773 4.1948 0
M  V30 2750 H 248.17 -0.566902 5.4687 0
M  V30 2751 H 249.395 -0.774483 6.74669 0
M  V30 2752 H 247.341 -2.85511 5.90609 0
M  V30 2753 H 247.258 -1.8652 7.3263 0
M  V30 2754 H 248.526 -3.04481 7.17574 0
M  V30 2755 N 252.755 -1.56801 0.158532 0
M  V30 2756 C 253.985 -2.00568 -0.495583 0
M  V30 2757 C 254.393 -1.03774 -1.58201 0
M  V30 2758 O 253.736 -0.0285797 -1.83678 0
M  V30 2759 C 253.798 -3.40768 -1.14532 0
M  V30 2760 C 253.462 -4.56553 -0.202101 0
M  V30 2761 C 254.459 -5.16714 0.574675 0
M  V30 2762 C 252.144 -5.02197 -0.101648 0
M  V30 2763 C 254.138 -6.20939 1.43924 0
M  V30 2764 C 251.825 -6.06274 0.766508 0
M  V30 2765 C 252.823 -6.65515 1.53555 0
M  V30 2766 O 252.511 -7.67575 2.38922 0
M  V30 2767 H 252.243 -0.662893 -0.13247 0
M  V30 2768 H 254.797 -2.03829 0.253559 0
M  V30 2769 H 253.027 -3.34381 -1.94233 0
M  V30 2770 H 254.716 -3.6857 -1.70033 0
M  V30 2771 H 255.482 -4.82341 0.507167 0
M  V30 2772 H 251.361 -4.55807 -0.689994 0
M  V30 2773 H 254.905 -6.67107 2.03996 0
M  V30 2774 H 250.802 -6.40073 0.835266 0
M  V30 2775 H 251.57 -7.84844 2.32296 0
M  V30 2776 N 254.233 0.115231 -1.57178 0
M  V30 2777 C 255.479 0.82357 -1.85325 0
M  V30 2778 C 255.812 1.79349 -0.744814 0
M  V30 2779 O 255.087 1.92899 0.249024 0
M  V30 2780 C 255.37 1.57014 -3.24066 0
M  V30 2781 C 255.223 0.619565 -4.45513 0
M  V30 2782 C 256.542 2.52545 -3.60429 0
M  V30 2783 H 253.661 0.297948 -0.674089 0
M  V30 2784 H 256.303 0.0877138 -1.89797 0
M  V30 2785 H 254.453 2.19742 -3.20383 0
M  V30 2786 H 256.125 0.000837639 -4.613 0
M  V30 2787 H 254.368 -0.0686174 -4.33746 0
M  V30 2788 H 255.039 1.17866 -5.3927 0
M  V30 2789 H 257.515 1.9992 -3.64926 0
M  V30 2790 H 256.391 3.01811 -4.58477 0
M  V30 2791 H 256.652 3.35383 -2.88047 0
M  V30 2792 N 255.711 1.52812 0.385517 0
M  V30 2793 C 257.127 1.4214 0.725829 0
M  V30 2794 C 257.327 0.544589 1.94001 0
M  V30 2795 O 256.383 0.0193693 2.52493 0
M  V30 2796 C 257.696 2.85042 0.957668 0
M  V30 2797 C 259.244 2.94543 1.05892 0
M  V30 2798 C 259.719 4.38464 1.32337 0
M  V30 2799 N 261.21 4.41804 1.39151 0
M  V30 2800 C 261.945 5.5025 1.61285 0
M  V30 2801 N 261.441 6.68775 1.80866 0
M  V30 2802 N 263.234 5.37798 1.63492 0
M  V30 2803 H 255.385 2.08338 -0.413383 0
M  V30 2804 H 257.648 0.940016 -0.122775 0
M  V30 2805 H 257.354 3.51431 0.137568 0
M  V30 2806 H 257.228 3.27505 1.87137 0
M  V30 2807 H 259.615 2.28321 1.86959 0
M  V30 2808 H 259.696 2.55504 0.123057 0
M  V30 2809 H 259.34 5.05254 0.517793 0
M  V30 2810 H 259.27 4.75059 2.27214 0
M  V30 2811 H 261.761 3.56377 1.25713 0
M  V30 2812 H 262.074 7.47197 1.97271 0
M  V30 2813 H 260.419 6.71797 1.78083 0
M  V30 2814 H 263.61 4.44171 1.47749 0
M  V30 2815 H 263.783 6.22382 1.80402 0
M  V30 2816 N 257.189 -0.644168 1.43834 0
M  V30 2817 C 258.414 -1.43642 1.49605 0
M  V30 2818 C 258.839 -1.8773 0.117913 0
M  V30 2819 O 258.197 -1.57938 -0.890239 0
M  V30 2820 C 258.245 -2.6416 2.45463 0
M  V30 2821 O 257.349 -3.63538 1.94714 0
M  V30 2822 H 256.69 -0.430329 0.50568 0
M  V30 2823 H 259.22 -0.787448 1.8884 0
M  V30 2824 H 259.23 -3.11864 2.63068 0
M  V30 2825 H 257.905 -2.31414 3.45572 0
M  V30 2826 H 256.482 -3.2273 1.86814 0
M  V30 2827 N 258.668 -1.30515 -0.883378 0
M  V30 2828 C 259.598 -1.19607 -2.00541 0
M  V30 2829 C 260.579 -0.086346 -1.69881 0
M  V30 2830 O 261.764 -0.268654 -1.92333 0
M  V30 2831 C 258.894 -0.888758 -3.35736 0
M  V30 2832 C 257.848 -1.95659 -3.8066 0
M  V30 2833 C 257.174 -1.50224 -5.13164 0
M  V30 2834 C 258.474 -3.36788 -3.99213 0
M  V30 2835 H 260.168 -2.13476 -2.09925 0
M  V30 2836 H 257.714 -1.02775 -1.00863 0
M  V30 2837 H 259.667 -0.799094 -4.13754 0
M  V30 2838 H 258.391 0.0856125 -3.26488 0
M  V30 2839 H 257.05 -2.03591 -3.04871 0
M  V30 2840 H 256.698 -0.516092 -5.00345 0
M  V30 2841 H 256.398 -2.2165 -5.44192 0
M  V30 2842 H 257.922 -1.42639 -5.93706 0
M  V30 2843 H 259.336 -3.31605 -4.67665 0
M  V30 2844 H 257.733 -4.06314 -4.41621 0
M  V30 2845 H 258.803 -3.78561 -3.03017 0
M  V30 2846 N 260.146 1.09593 -1.13257 0
M  V30 2847 C 261.392 1.82181 -0.904521 0
M  V30 2848 C 261.747 1.83967 0.563358 0
M  V30 2849 O 261.04 1.29566 1.41149 0
M  V30 2850 C 261.234 3.27802 -1.42411 0
M  V30 2851 C 261.063 3.40201 -2.94097 0
M  V30 2852 C 259.833 3.52104 -3.62424 0
M  V30 2853 C 262.031 3.32875 -3.92044 0
M  V30 2854 N 260.013 3.53169 -5.0214 0
M  V30 2855 C 261.384 3.40789 -5.17941 0
M  V30 2856 C 263.439 3.16531 -3.84334 0
M  V30 2857 C 262.142 3.34042 -6.37031 0
M  V30 2858 C 264.168 3.11109 -5.02956 0
M  V30 2859 C 263.53 3.19614 -6.27715 0
M  V30 2860 H 259.629 0.681015 -0.384373 0
M  V30 2861 H 262.213 1.3099 -1.44048 0
M  V30 2862 H 260.384 3.77466 -0.915086 0
M  V30 2863 H 262.116 3.88393 -1.13722 0
M  V30 2864 H 258.871 3.5548 -3.12939 0
M  V30 2865 H 259.295 3.57291 -5.75041 0
M  V30 2866 H 263.937 3.08827 -2.88766 0
M  V30 2867 H 261.655 3.4051 -7.32857 0
M  V30 2868 H 265.241 2.99601 -4.98729 0
M  V30 2869 H 264.121 3.15432 -7.17964 0
M  V30 2870 N 261.624 0.925811 1.2754 0
M  V30 2871 C 262.571 0.422045 2.26908 0
M  V30 2872 C 263.541 -0.510029 1.58076 0
M  V30 2873 O 264.726 -0.429599 1.85901 0
M  V30 2874 C 261.866 -0.320837 3.43605 0
M  V30 2875 C 260.979 0.64513 4.27156 0
M  V30 2876 C 260.114 -0.117405 5.3107 0
M  V30 2877 C 259.153 0.841391 6.0629 0
M  V30 2878 N 258.29 0.111604 7.02011 0
M  V30 2879 H 263.13 1.27441 2.69375 0
M  V30 2880 H 260.667 0.639697 1.32462 0
M  V30 2881 H 262.625 -0.76785 4.10073 0
M  V30 2882 H 261.255 -1.13745 3.02096 0
M  V30 2883 H 260.307 1.21067 3.6062 0
M  V30 2884 H 261.619 1.37797 4.79389 0
M  V30 2885 H 260.773 -0.624422 6.03478 0
M  V30 2886 H 259.512 -0.883219 4.79636 0
M  V30 2887 H 258.517 1.35967 5.32722 0
M  V30 2888 H 259.742 1.60696 6.59813 0
M  V30 2889 H 257.688 -0.635999 6.5291 0
M  V30 2890 H 257.605 0.784044 7.51923 0
M  V30 2891 H 258.873 -0.374823 7.78598 0
M  V30 2892 N 263.102 -1.41638 0.69111 0
M  V30 2893 C 264.032 -2.3347 0.037248 0
M  V30 2894 C 265.013 -1.51575 -0.771947 0
M  V30 2895 O 266.198 -1.80126 -0.72582 0
M  V30 2896 C 263.328 -3.35354 -0.903064 0
M  V30 2897 C 262.282 -4.27526 -0.201288 0
M  V30 2898 C 261.608 -5.19747 -1.25565 0
M  V30 2899 C 262.908 -5.13959 0.929689 0
M  V30 2900 H 264.602 -2.88397 0.804227 0
M  V30 2901 H 262.148 -1.38669 0.388189 0
M  V30 2902 H 264.101 -3.98519 -1.36969 0
M  V30 2903 H 262.825 -2.78767 -1.70166 0
M  V30 2904 H 261.484 -3.65779 0.245265 0
M  V30 2905 H 261.132 -4.59479 -2.04666 0
M  V30 2906 H 260.832 -5.8225 -0.791128 0
M  V30 2907 H 262.356 -5.85789 -1.72288 0
M  V30 2908 H 263.77 -5.70718 0.543546 0
M  V30 2909 H 262.167 -5.85379 1.32103 0
M  V30 2910 H 263.237 -4.51389 1.77133 0
M  V30 2911 N 264.58 -0.43555 -1.51462 0
M  V30 2912 C 265.827 0.131514 -2.02072 0
M  V30 2913 C 266.155 1.42868 -1.31981 0
M  V30 2914 O 265.41 1.91076 -0.422883 0
M  V30 2915 C 265.709 0.39942 -3.55161 0
M  V30 2916 C 265.375 -0.81172 -4.43533 0
M  V30 2917 C 264.037 -1.14387 -4.67407 0
M  V30 2918 C 266.389 -1.61976 -4.95392 0
M  V30 2919 C 263.717 -2.28477 -5.40384 0
M  V30 2920 C 266.069 -2.75164 -5.6962 0
M  V30 2921 C 264.733 -3.08835 -5.91758 0
M  V30 2922 H 264.003 0.0481244 -0.739436 0
M  V30 2923 H 266.65 -0.58238 -1.8243 0
M  V30 2924 H 264.955 1.19519 -3.73125 0
M  V30 2925 H 266.652 0.85157 -3.91854 0
M  V30 2926 H 263.242 -0.542898 -4.25148 0
M  V30 2927 H 267.426 -1.37637 -4.76833 0
M  V30 2928 H 262.682 -2.5488 -5.55739 0
M  V30 2929 H 266.856 -3.38147 -6.08793 0
M  V30 2930 H 264.483 -3.97353 -6.48086 0
M  V30 2931 N 266.058 1.56714 -0.166846 0
M  V30 2932 C 267.021 2.16539 0.751232 0
M  V30 2933 C 268.021 1.11228 1.16125 0
M  V30 2934 O 269.211 1.36765 1.07894 0
M  V30 2935 C 266.343 2.74462 2.02196 0
M  V30 2936 H 267.536 2.99013 0.230499 0
M  V30 2937 H 265.089 1.56081 0.0826982 0
M  V30 2938 H 265.824 1.95709 2.58589 0
M  V30 2939 H 265.609 3.51527 1.73698 0
M  V30 2940 H 267.099 3.20489 2.67725 0
M  V30 2941 N 267.536 -0.106894 1.57237 0
M  V30 2942 C 268.486 -1.1366 1.9765 0
M  V30 2943 C 269.47 -1.36416 0.853203 0
M  V30 2944 O 270.662 -1.37305 1.11697 0
M  V30 2945 C 267.791 -2.46 2.39455 0
M  V30 2946 C 266.877 -2.26668 3.58445 0
M  V30 2947 N 267.268 -1.77176 4.73754 0
M  V30 2948 C 265.566 -2.57279 3.64312 0
M  V30 2949 C 266.267 -1.71836 5.5574 0
M  V30 2950 N 265.243 -2.16623 4.98573 0
M  V30 2951 H 269.045 -0.74669 2.84256 0
M  V30 2952 H 266.559 -0.314483 1.59326 0
M  V30 2953 H 268.556 -3.2049 2.6663 0
M  V30 2954 H 267.216 -2.85738 1.54219 0
M  V30 2955 H 268.227 -1.46545 4.96734 0
M  V30 2956 H 264.904 -3.00622 2.89711 0
M  V30 2957 H 266.294 -1.34723 6.58255 0
M  V30 2958 N 269.014 -1.53014 -0.377408 0
M  V30 2959 C 269.964 -1.74996 -1.46152 0
M  V30 2960 C 270.948 -0.604236 -1.49123 0
M  V30 2961 O 272.14 -0.862489 -1.54564 0
M  V30 2962 C 269.269 -1.93267 -2.8373 0
M  V30 2963 C 268.355 -3.13807 -2.85283 0
M  V30 2964 N 268.746 -4.35941 -2.56493 0
M  V30 2965 C 267.044 -3.14288 -3.16448 0
M  V30 2966 C 267.745 -5.17615 -2.65424 0
M  V30 2967 N 266.721 -4.53559 -2.99641 0
M  V30 2968 H 270.523 -2.67044 -1.22738 0
M  V30 2969 H 268.037 -1.51479 -0.585479 0
M  V30 2970 H 270.034 -2.0714 -3.61799 0
M  V30 2971 H 268.694 -1.0244 -3.08117 0
M  V30 2972 H 269.705 -4.63876 -2.30302 0
M  V30 2973 H 266.382 -2.33312 -3.46225 0
M  V30 2974 H 267.772 -6.25006 -2.46612 0
M  V30 2975 N 270.492 0.636531 -1.44174 0
M  V30 2976 C 271.44 1.76995 -1.50915 0
M  V30 2977 C 272.434 1.65053 -0.381295 0
M  V30 2978 O 273.64 1.71197 -0.55601 0
M  V30 2979 H 270.015 0.584247 -0.473455 0
M  V30 2980 H 271.986 1.68432 -2.4632 0
M  V30 2981 C 270.735 3.15314 -1.46534 0
M  V30 2982 H 270.058 3.25149 -2.32633 0
M  V30 2983 H 271.498 3.9453 -1.55312 0
M  V30 2984 C 269.957 3.3639 -0.185305 0
M  V30 2985 O 270.487 3.94699 0.746688 0
M  V30 2986 N 268.693 2.9046 -0.0901606 0
M  V30 2987 H 268.24 2.43193 -0.849416 0
M  V30 2988 H 268.198 3.04937 0.765553 0
M  V30 2989 N 271.97 1.30982 0.876444 0
M  V30 2990 C 273.386 1.09498 1.16113 0
M  V30 2991 C 273.586 -0.13875 2.01022 0
M  V30 2992 O 272.642 -0.829935 2.38471 0
M  V30 2993 C 273.955 2.36308 1.85954 0
M  V30 2994 C 275.503 2.41856 1.98683 0
M  V30 2995 C 275.978 3.6853 2.71937 0
M  V30 2996 N 277.469 3.69387 2.79477 0
M  V30 2997 C 278.204 4.64096 3.36753 0
M  V30 2998 N 277.7 5.69155 3.95012 0
M  V30 2999 N 279.493 4.51626 3.3465 0
M  V30 3000 H 271.644 2.10118 0.310494 0
M  V30 3001 H 273.907 0.926634 0.200131 0
M  V30 3002 H 273.613 3.26388 1.31011 0
M  V30 3003 H 273.487 2.4561 2.86278 0
M  V30 3004 H 275.874 1.52249 2.52793 0
M  V30 3005 H 275.955 2.36523 0.9742 0
M  V30 3006 H 275.599 4.58499 2.18496 0
M  V30 3007 H 275.529 3.71127 3.73593 0
M  V30 3008 H 278.02 2.93438 2.38123 0
M  V30 3009 H 278.333 6.3751 4.36808 0
M  V30 3010 H 276.678 5.72937 3.93406 0
M  V30 3011 H 279.869 3.68728 2.8837 0
M  V30 3012 H 280.042 5.25614 3.7899 0
M  V30 3013 N 273.449 -1.08991 1.13837 0
M  V30 3014 C 274.679 -1.84743 0.924859 0
M  V30 3015 C 275.087 -1.81629 -0.529874 0
M  V30 3016 O 274.43 -1.21397 -1.37872 0
M  V30 3017 C 274.492 -3.33568 1.34061 0
M  V30 3018 C 274.156 -3.60425 2.80968 0
M  V30 3019 C 275.153 -3.55771 3.79108 0
M  V30 3020 C 272.838 -3.88627 3.18236 0
M  V30 3021 C 274.832 -3.78939 5.12527 0
M  V30 3022 C 272.519 -4.11449 4.51833 0
M  V30 3023 C 273.517 -4.06598 5.48787 0
M  V30 3024 O 273.205 -4.28826 6.79973 0
M  V30 3025 H 272.937 -0.590258 0.329502 0
M  V30 3026 H 275.491 -1.38598 1.51591 0
M  V30 3027 H 273.721 -3.80442 0.692853 0
M  V30 3028 H 275.41 -3.90743 1.09886 0
M  V30 3029 H 276.176 -3.34005 3.51661 0
M  V30 3030 H 272.055 -3.91526 2.43369 0
M  V30 3031 H 275.599 -3.75068 5.88192 0
M  V30 3032 H 271.496 -4.32698 4.79002 0
M  V30 3033 H 272.264 -4.46264 6.86142 0
M  V30 3034 N 274.927 -0.932562 -1.27047 0
M  V30 3035 C 276.173 -0.576412 -1.94436 0
M  V30 3036 C 276.506 0.880891 -1.73072 0
M  V30 3037 O 275.781 1.62905 -1.06264 0
M  V30 3038 C 276.064 -0.909031 -3.48437 0
M  V30 3039 C 275.917 -2.42044 -3.79123 0
M  V30 3040 C 277.236 -0.418341 -4.38107 0
M  V30 3041 H 274.355 -0.210888 -0.706184 0
M  V30 3042 H 276.997 -1.16522 -1.50075 0
M  V30 3043 H 275.147 -0.407947 -3.86352 0
M  V30 3044 H 276.819 -2.99359 -3.50973 0
M  V30 3045 H 275.062 -2.86758 -3.25503 0
M  V30 3046 H 275.733 -2.6037 -4.86736 0
M  V30 3047 H 278.209 -0.847856 -4.0737 0
M  V30 3048 H 277.085 -0.679981 -5.44672 0
M  V30 3049 H 277.346 0.681642 -4.36814 0
M  V30 3050 N 276.405 1.4127 -0.698611 0
M  V30 3051 C 277.335 2.33447 -0.049629 0
M  V30 3052 C 278.316 1.51982 0.763898 0
M  V30 3053 O 279.501 1.80509 0.716257 0
M  V30 3054 C 276.631 3.35828 0.885267 0
M  V30 3055 C 275.585 4.27627 0.178613 0
M  V30 3056 C 274.911 5.20406 1.22807 0
M  V30 3057 C 276.211 5.13459 -0.956933 0
M  V30 3058 H 277.905 2.87966 -0.81951 0
M  V30 3059 H 275.451 1.38461 -0.395538 0
M  V30 3060 H 277.404 3.9924 1.34854 0
M  V30 3061 H 276.128 2.79666 1.68685 0
M  V30 3062 H 274.787 3.65643 -0.26466 0
M  V30 3063 H 274.435 4.60558 2.02226 0
M  V30 3064 H 274.135 5.82661 0.760239 0
M  V30 3065 H 275.659 5.86695 1.69179 0
M  V30 3066 H 277.073 5.70421 -0.573805 0
M  V30 3067 H 275.47 5.8467 -1.35205 0
M  V30 3068 H 276.54 4.50443 -1.79524 0
M  V30 3069 N 277.883 0.443576 1.51229 0
M  V30 3070 C 279.131 -0.120557 2.0174 0
M  V30 3071 C 279.452 -1.42665 1.32935 0
M  V30 3072 O 278.722 -1.9028 0.465866 0
M  V30 3073 H 277.302 -0.0475426 0.745486 0
M  V30 3074 H 279.964 0.587711 1.85828 0
M  V30 3075 H 279.06 -0.291972 3.10731 0
M  V30 3076 N 279.361 -1.56624 0.175154 0
M  V30 3077 C 280.607 -1.9729 -0.469506 0
M  V30 3078 C 280.94 -1.06128 -1.62636 0
M  V30 3079 O 280.215 -0.109183 -1.94193 0
M  V30 3080 C 280.498 -3.47375 -0.948804 0
M  V30 3081 C 280.351 -4.49317 0.208491 0
M  V30 3082 C 281.67 -4.00652 -1.82116 0
M  V30 3083 H 278.789 -0.717317 -0.16919 0
M  V30 3084 H 281.431 -1.88184 0.262062 0
M  V30 3085 H 279.581 -3.55267 -1.57219 0
M  V30 3086 H 281.253 -4.53482 0.845682 0
M  V30 3087 H 279.496 -4.25121 0.863395 0
M  V30 3088 H 280.167 -5.51741 -0.169059 0
M  V30 3089 H 282.643 -3.95416 -1.2956 0
M  V30 3090 H 281.519 -5.06075 -2.12554 0
M  V30 3091 H 281.78 -3.44699 -2.7683 0
M  V30 3092 N 280.839 0.0985539 -1.57292 0
M  V30 3093 C 282.255 0.45267 -1.53046 0
M  V30 3094 C 282.455 1.80713 -0.891342 0
M  V30 3095 O 281.511 2.4785 -0.482375 0
M  V30 3096 C 282.824 0.418341 -2.97776 0
M  V30 3097 C 284.372 0.500443 -3.08973 0
M  V30 3098 C 284.847 0.496297 -4.55303 0
M  V30 3099 N 286.338 0.557151 -4.59837 0
M  V30 3100 C 287.073 0.575726 -5.70502 0
M  V30 3101 N 286.569 0.550714 -6.90608 0
M  V30 3102 N 288.362 0.620277 -5.58667 0
M  V30 3103 H 280.513 -0.788673 -1.97215 0
M  V30 3104 H 282.776 -0.293188 -0.901524 0
M  V30 3105 H 282.482 -0.509659 -3.47988 0
M  V30 3106 H 282.356 1.2386 -3.56284 0
M  V30 3107 H 284.743 1.41886 -2.58751 0
M  V30 3108 H 284.824 -0.347894 -2.53423 0
M  V30 3109 H 284.468 -0.418162 -5.06176 0
M  V30 3110 H 284.398 1.3618 -5.08687 0
M  V30 3111 H 286.889 0.581816 -3.73394 0
M  V30 3112 H 287.202 0.568075 -7.70709 0
M  V30 3113 H 285.547 0.517816 -6.93068 0
M  V30 3114 H 288.738 0.637322 -4.63741 0
M  V30 3115 H 288.911 0.631283 -6.44918 0
M  V30 3116 N 282.317 1.53212 0.369288 0
M  V30 3117 C 283.28 1.7872 1.43498 0
M  V30 3118 C 284.28 0.657554 1.46741 0
M  V30 3119 O 285.47 0.925736 1.47566 0
M  V30 3120 C 282.602 1.90591 2.82645 0
M  V30 3121 H 283.795 2.73894 1.22156 0
M  V30 3122 H 281.348 1.44233 0.602203 0
M  V30 3123 H 282.083 0.974709 3.09306 0
M  V30 3124 H 281.868 2.72751 2.8169 0
M  V30 3125 H 283.358 2.11931 3.59826 0
M  V30 3126 N 283.795 -0.628877 1.44509 0
M  V30 3127 C 284.758 -1.72263 1.51188 0
M  V30 3128 C 285.758 -1.55907 0.39367 0
M  V30 3129 O 286.948 -1.61361 0.656377 0
M  V30 3130 C 284.08 -3.11365 1.38798 0
M  V30 3131 H 285.273 -1.67714 2.4862 0
M  V30 3132 H 282.826 -0.842737 1.31634 0
M  V30 3133 H 283.561 -3.21507 0.424693 0
M  V30 3134 H 283.346 -3.24644 2.19884 0
M  V30 3135 H 284.836 -3.91075 1.46458 0
M  V30 3136 N 285.273 -1.31445 -0.869486 0
M  V30 3137 C 286.205 -1.14955 -1.98287 0
M  V30 3138 C 287.218 -0.0885037 -1.62559 0
M  V30 3139 O 288.407 -0.336044 -1.75308 0
M  V30 3140 C 285.507 -0.734255 -3.3085 0
M  V30 3141 C 284.68 -1.88042 -3.94917 0
M  V30 3142 C 283.739 -1.4511 -5.05796 0
M  V30 3143 O 282.765 -2.16082 -5.2659 0
M  V30 3144 N 283.967 -0.338763 -5.79511 0
M  V30 3145 H 286.732 -2.10856 -2.12979 0
M  V30 3146 H 284.293 -1.23786 -1.04349 0
M  V30 3147 H 286.285 -0.42975 -4.02412 0
M  V30 3148 H 284.855 0.133158 -3.12316 0
M  V30 3149 H 284.075 -2.35222 -3.1633 0
M  V30 3150 H 285.363 -2.6481 -4.34457 0
M  V30 3151 H 284.761 0.252274 -5.65137 0
M  V30 3152 H 283.318 -0.0937925 -6.51733 0
M  V30 3153 N 286.751 1.08385 -1.14413 0
M  V30 3154 C 287.681 2.17321 -0.854044 0
M  V30 3155 C 288.662 1.69024 0.191049 0
M  V30 3156 O 289.847 1.94141 0.0476779 0
M  V30 3157 C 286.977 3.45719 -0.330983 0
M  V30 3158 C 285.931 4.07409 -1.31155 0
M  V30 3159 C 285.257 5.30762 -0.64778 0
M  V30 3160 C 286.557 4.48665 -2.67388 0
M  V30 3161 H 288.251 2.41845 -1.76498 0
M  V30 3162 H 285.797 1.16233 -0.850051 0
M  V30 3163 H 287.75 4.21241 -0.115645 0
M  V30 3164 H 286.474 3.2075 0.615381 0
M  V30 3165 H 285.133 3.33919 -1.51306 0
M  V30 3166 H 284.781 5.02078 0.304398 0
M  V30 3167 H 284.481 5.72992 -1.30207 0
M  V30 3168 H 286.005 6.08998 -0.441972 0
M  V30 3169 H 287.419 5.15364 -2.51143 0
M  V30 3170 H 285.816 5.01814 -3.29093 0
M  V30 3171 H 286.886 3.60543 -3.24248 0
M  V30 3172 N 288.23 0.939286 1.26551 0
M  V30 3173 C 289.18 0.418284 2.2413 0
M  V30 3174 C 290.164 -0.483935 1.5345 0
M  V30 3175 O 291.356 -0.319489 1.74093 0
M  V30 3176 C 288.485 -0.31709 3.41832 0
M  V30 3177 C 287.571 0.602311 4.19801 0
M  V30 3178 N 287.962 1.72726 4.75394 0
M  V30 3179 C 286.26 0.407534 4.44134 0
M  V30 3180 C 286.961 2.30004 5.34297 0
M  V30 3181 N 285.937 1.58828 5.1988 0
M  V30 3182 H 289.739 1.27705 2.64705 0
M  V30 3183 H 287.253 0.794929 1.41614 0
M  V30 3184 H 289.25 -0.707364 4.10855 0
M  V30 3185 H 287.91 -1.17264 3.02786 0
M  V30 3186 H 288.921 2.10944 4.72994 0
M  V30 3187 H 285.598 -0.406406 4.15517 0
M  V30 3188 H 286.988 3.24778 5.88191 0
M  V30 3189 N 289.708 -1.40897 0.706093 0
M  V30 3190 C 290.658 -2.27987 0.0240746 0
M  V30 3191 C 291.642 -1.42759 -0.742204 0
M  V30 3192 O 292.834 -1.65936 -0.615966 0
M  V30 3193 C 289.963 -3.31186 -0.903907 0
M  V30 3194 C 289.049 -4.2389 -0.133318 0
M  V30 3195 N 289.44 -4.98113 0.878444 0
M  V30 3196 C 287.738 -4.44485 -0.367269 0
M  V30 3197 C 288.439 -5.6604 1.34064 0
M  V30 3198 N 287.415 -5.39522 0.664565 0
M  V30 3199 H 291.217 -2.82812 0.799658 0
M  V30 3200 H 288.731 -1.53235 0.537845 0
M  V30 3201 H 290.728 -3.92413 -1.40775 0
M  V30 3202 H 289.388 -2.77922 -1.67897 0
M  V30 3203 H 290.399 -5.02364 1.25901 0
M  V30 3204 H 287.076 -4.02213 -1.1194 0
M  V30 3205 H 288.466 -6.35524 2.1808 0
M  V30 3206 N 291.186 -0.45159 -1.50991 0
M  V30 3207 C 292.118 0.388634 -2.25881 0
M  V30 3208 C 293.131 0.974041 -1.30446 0
M  V30 3209 O 294.32 0.865758 -1.56099 0
M  V30 3210 C 291.42 1.5571 -3.01011 0
M  V30 3211 C 290.593 1.08801 -4.23652 0
M  V30 3212 C 289.652 2.12825 -4.8124 0
M  V30 3213 O 288.678 1.71678 -5.42693 0
M  V30 3214 N 289.88 3.45453 -4.66522 0
M  V30 3215 H 292.645 -0.25329 -2.98628 0
M  V30 3216 H 290.206 -0.281268 -1.59438 0
M  V30 3217 H 292.198 2.24952 -3.3642 0
M  V30 3218 H 290.768 2.10409 -2.31186 0
M  V30 3219 H 289.988 0.22215 -3.93574 0
M  V30 3220 H 291.276 0.752213 -5.03209 0
M  V30 3221 H 290.674 3.81605 -4.17605 0
M  V30 3222 H 289.231 4.10549 -5.06254 0
M  V30 3223 N 292.664 1.56529 -0.183458 0
M  V30 3224 C 293.614 2.1515 0.754605 0
M  V30 3225 C 294.598 1.08904 1.18443 0
M  V30 3226 O 295.79 1.34997 1.14476 0
M  V30 3227 C 292.919 2.80531 1.97881 0
M  V30 3228 C 292.005 3.93952 1.57043 0
M  V30 3229 N 292.396 4.98221 0.87231 0
M  V30 3230 C 290.694 4.05338 1.86057 0
M  V30 3231 C 291.395 5.77836 0.669377 0
M  V30 3232 N 290.371 5.29858 1.21454 0
M  V30 3233 H 294.173 2.93132 0.212387 0
M  V30 3234 H 291.687 1.62391 0.0167725 0
M  V30 3235 H 293.684 3.20914 2.6612 0
M  V30 3236 H 292.344 2.04035 2.52586 0
M  V30 3237 H 293.355 5.15191 0.529033 0
M  V30 3238 H 290.032 3.39957 2.42354 0
M  V30 3239 H 291.422 6.71799 0.116422 0
M  V30 3240 N 294.142 -0.090211 1.57342 0
M  V30 3241 C 295.092 -1.11557 1.98844 0
M  V30 3242 C 296.076 -1.35503 0.867624 0
M  V30 3243 O 297.268 -1.36113 1.13148 0
M  V30 3244 C 294.397 -2.43446 2.42051 0
M  V30 3245 C 293.483 -2.22853 3.60828 0
M  V30 3246 N 293.874 -1.72141 4.75606 0
M  V30 3247 C 292.172 -2.53401 3.67021 0
M  V30 3248 C 292.873 -1.65932 5.57531 0
M  V30 3249 N 291.849 -2.11323 5.00843 0
M  V30 3250 H 295.651 -0.716499 2.85032 0
M  V30 3251 H 293.165 -0.297567 1.59651 0
M  V30 3252 H 295.162 -3.17644 2.70014 0
M  V30 3253 H 293.822 -2.84087 1.57241 0
M  V30 3254 H 294.833 -1.41268 4.98261 0
M  V30 3255 H 291.51 -2.97532 2.92884 0
M  V30 3256 H 292.9 -1.27733 6.59647 0
M  V30 3257 N 295.62 -1.53406 -0.361157 0
M  V30 3258 C 296.57 -1.76536 -1.44287 0
M  V30 3259 C 297.554 -0.620019 -1.48474 0
M  V30 3260 O 298.746 -0.878834 -1.53641 0
M  V30 3261 C 295.875 -1.96266 -2.81664 0
M  V30 3262 C 294.961 -3.16815 -2.81938 0
M  V30 3263 N 295.352 -4.38637 -2.51855 0
M  V30 3264 C 293.65 -3.17627 -3.13096 0
M  V30 3265 C 294.351 -5.20401 -2.59919 0
M  V30 3266 N 293.327 -4.56712 -2.94814 0
M  V30 3267 H 297.129 -2.68331 -1.19899 0
M  V30 3268 H 294.643 -1.52091 -0.56938 0
M  V30 3269 H 296.64 -2.10966 -3.59582 0
M  V30 3270 H 295.3 -1.05702 -3.07013 0
M  V30 3271 H 296.311 -4.66293 -2.25369 0
M  V30 3272 H 292.988 -2.36971 -3.43731 0
M  V30 3273 H 294.378 -6.27586 -2.39969 0
M  V30 3274 N 297.098 0.621204 -1.44841 0
M  V30 3275 C 298.03 1.74615 -1.48466 0
M  V30 3276 C 299.043 1.58377 -0.37691 0
M  V30 3277 O 300.232 1.66508 -0.643215 0
M  V30 3278 C 297.332 3.12459 -1.31236 0
M  V30 3279 C 296.505 3.55064 -2.55438 0
M  V30 3280 C 295.564 4.71821 -2.32963 0
M  V30 3281 O 294.59 4.79628 -3.06505 0
M  V30 3282 N 295.792 5.64186 -1.36654 0
M  V30 3283 H 298.557 1.71973 -2.45449 0
M  V30 3284 H 296.118 0.806077 -1.40407 0
M  V30 3285 H 298.11 3.88302 -1.14032 0
M  V30 3286 H 296.68 3.09686 -0.4258 0
M  V30 3287 H 295.9 2.69324 -2.87851 0
M  V30 3288 H 297.188 3.80284 -3.38026 0
M  V30 3289 H 296.586 5.6058 -0.759344 0
M  V30 3290 H 295.143 6.39618 -1.25425 0
M  V30 3291 N 298.576 1.31904 0.862503 0
M  V30 3292 C 299.506 1.22782 1.98612 0
M  V30 3293 C 300.487 0.113362 1.69722 0
M  V30 3294 O 301.672 0.299218 1.91881 0
M  V30 3295 C 298.802 0.942058 3.34279 0
M  V30 3296 C 297.756 2.0169 3.77499 0
M  V30 3297 C 297.082 1.58369 5.10709 0
M  V30 3298 C 298.382 3.43096 3.93805 0
M  V30 3299 H 300.076 2.16788 2.06502 0
M  V30 3300 H 297.622 1.04366 0.992154 0
M  V30 3301 H 299.575 0.864818 4.1243 0
M  V30 3302 H 298.299 -0.0336603 3.26583 0
M  V30 3303 H 296.958 2.08416 3.01593 0
M  V30 3304 H 296.606 0.595628 4.99461 0
M  V30 3305 H 296.306 2.30279 5.40597 0
M  V30 3306 H 297.83 1.52067 5.91361 0
M  V30 3307 H 299.244 3.39003 4.62331 0
M  V30 3308 H 297.641 4.13288 4.35101 0
M  V30 3309 H 298.711 3.83334 2.96957 0
M  V30 3310 N 300.054 -1.07777 1.14986 0
M  V30 3311 C 300.984 -2.16865 0.865557 0
M  V30 3312 C 301.965 -1.69123 -0.182083 0
M  V30 3313 O 303.15 -1.94164 -0.0373815 0
M  V30 3314 C 300.28 -3.45539 0.349313 0
M  V30 3315 C 299.234 -4.06708 1.33313 0
M  V30 3316 C 298.56 -5.30411 0.675918 0
M  V30 3317 C 299.86 -4.47241 2.69764 0
M  V30 3318 H 301.554 -2.40905 1.77778 0
M  V30 3319 H 299.1 -1.15781 0.856203 0
M  V30 3320 H 301.053 -4.21174 0.137983 0
M  V30 3321 H 299.777 -3.21072 -0.598362 0
M  V30 3322 H 298.436 -3.33112 1.53075 0
M  V30 3323 H 298.084 -5.02232 -0.277767 0
M  V30 3324 H 297.784 -5.72293 1.33244 0
M  V30 3325 H 299.308 -6.08755 0.474262 0
M  V30 3326 H 300.722 -5.14025 2.53873 0
M  V30 3327 H 299.119 -5.00062 3.3175 0
M  V30 3328 H 300.189 -3.58818 3.26156 0
M  V30 3329 N 301.532 -0.945985 -1.26051 0
M  V30 3330 C 302.462 -0.477172 -2.28572 0
M  V30 3331 C 303.443 0.472032 -1.63419 0
M  V30 3332 O 304.628 0.372853 -1.90587 0
M  V30 3333 C 301.758 0.253975 -3.4637 0
M  V30 3334 C 300.712 -0.609135 -4.23643 0
M  V30 3335 C 300.038 0.252252 -5.34105 0
M  V30 3336 C 301.338 -1.8829 -4.8718 0
M  V30 3337 H 303.032 -1.33402 -2.68038 0
M  V30 3338 H 300.578 -0.642904 -1.28852 0
M  V30 3339 H 302.531 0.593016 -4.17207 0
M  V30 3340 H 301.255 1.145 -3.05871 0
M  V30 3341 H 299.914 -0.931138 -3.54578 0
M  V30 3342 H 299.562 1.14278 -4.89846 0
M  V30 3343 H 299.262 -0.32188 -5.86718 0
M  V30 3344 H 300.786 0.586454 -6.07777 0
M  V30 3345 H 302.2 -1.61081 -5.50205 0
M  V30 3346 H 300.597 -2.40199 -5.49931 0
M  V30 3347 H 301.667 -2.59134 -4.09851 0
M  V30 3348 N 303.011 1.40521 -0.713556 0
M  V30 3349 C 304.422 1.83853 -0.324807 0
M  V30 3350 C 304.773 1.59667 1.14021 0
M  V30 3351 O 303.898 1.07649 1.87725 0
M  V30 3352 C 304.493 3.33751 -0.582746 0
M  V30 3353 C 303.052 3.75584 -0.247727 0
M  V30 3354 C 302.199 2.63753 -0.856121 0
M  V30 3355 H 305.15 1.29817 -0.91286 0
M  V30 3356 H 305.171 3.80194 0.152682 0
M  V30 3357 H 304.683 3.51322 -1.64908 0
M  V30 3358 H 302.784 3.63608 0.813624 0
M  V30 3359 H 302.897 4.7373 -0.715307 0
M  V30 3360 H 301.261 2.53108 -0.28432 0
M  V30 3361 H 302.044 2.84137 -1.92668 0
M  V30 3362 N 304.489 0.459591 1.5075 0
M  V30 3363 C 305.737 -0.0991532 2.01857 0
M  V30 3364 C 306.058 -1.41247 1.34441 0
M  V30 3365 O 305.328 -1.89775 0.486022 0
M  V30 3366 H 303.908 -0.039633 0.745948 0
M  V30 3367 H 306.57 0.607387 1.85194 0
M  V30 3368 H 305.666 -0.258998 3.11023 0
M  V30 3369 N 305.967 -1.56429 0.191757 0
M  V30 3370 C 306.897 -2.21937 -0.725696 0
M  V30 3371 C 307.878 -1.1814 -1.2238 0
M  V30 3372 O 309.063 -1.46636 -1.27325 0
M  V30 3373 C 306.193 -2.87611 -1.94672 0
M  V30 3374 C 305.147 -3.97623 -1.58366 0
M  V30 3375 C 304.473 -4.50446 -2.88102 0
M  V30 3376 C 305.773 -5.16197 -0.796133 0
M  V30 3377 H 307.467 -2.98861 -0.179606 0
M  V30 3378 H 305.013 -1.43749 -0.0849464 0
M  V30 3379 H 306.966 -3.3212 -2.59373 0
M  V30 3380 H 305.69 -2.08087 -2.51728 0
M  V30 3381 H 304.349 -3.53801 -0.960247 0
M  V30 3382 H 303.997 -3.67688 -3.43241 0
M  V30 3383 H 303.697 -5.24675 -2.64556 0
M  V30 3384 H 305.221 -4.97654 -3.53798 0
M  V30 3385 H 306.635 -5.57271 -1.34618 0
M  V30 3386 H 305.032 -5.96471 -0.658928 0
M  V30 3387 H 306.102 -4.84473 0.203478 0
M  V30 3388 N 307.445 0.0818655 -1.57387 0
M  V30 3389 C 308.375 1.09885 -2.06028 0
M  V30 3390 C 309.356 1.4098 -0.951774 0
M  V30 3391 O 310.541 1.50781 -1.22387 0
M  V30 3392 C 307.671 2.4151 -2.4958 0
M  V30 3393 C 306.625 2.24792 -3.64215 0
M  V30 3394 C 305.951 3.61712 -3.93787 0
M  V30 3395 C 307.251 1.67749 -4.94629 0
M  V30 3396 H 308.945 0.694128 -2.91243 0
M  V30 3397 H 306.491 0.332448 -1.4011 0
M  V30 3398 H 308.444 3.12939 -2.82219 0
M  V30 3399 H 307.168 2.83943 -1.61381 0
M  V30 3400 H 305.827 1.55807 -3.31843 0
M  V30 3401 H 305.475 4.01697 -3.02735 0
M  V30 3402 H 305.175 3.51368 -4.70971 0
M  V30 3403 H 306.699 4.34587 -4.28913 0
M  V30 3404 H 308.113 2.29032 -5.25564 0
M  V30 3405 H 306.51 1.68128 -5.76067 0
M  V30 3406 H 307.58 0.638059 -4.80684 0
M  V30 3407 N 308.923 1.53595 0.353017 0
M  V30 3408 C 310.339 1.43648 0.695516 0
M  V30 3409 C 310.539 0.585617 1.92802 0
M  V30 3410 O 309.595 0.0729223 2.52395 0
M  V30 3411 C 310.908 2.8701 0.896991 0
M  V30 3412 C 312.456 2.96723 0.996209 0
M  V30 3413 C 312.931 4.41173 1.23007 0
M  V30 3414 N 314.422 4.44657 1.29749 0
M  V30 3415 C 315.157 5.53547 1.49577 0
M  V30 3416 N 314.653 6.72461 1.66639 0
M  V30 3417 N 316.446 5.41145 1.52048 0
M  V30 3418 H 308.597 2.07415 -0.457481 0
M  V30 3419 H 310.86 0.9372 -0.142687 0
M  V30 3420 H 310.566 3.51644 0.0629938 0
M  V30 3421 H 310.44 3.31401 1.80148 0
M  V30 3422 H 312.827 2.32235 1.82074 0
M  V30 3423 H 312.908 2.55707 0.0688331 0
M  V30 3424 H 312.552 5.06238 0.410505 0
M  V30 3425 H 312.482 4.79772 2.17086 0
M  V30 3426 H 314.973 3.58963 1.18126 0
M  V30 3427 H 315.286 7.51214 1.81378 0
M  V30 3428 H 313.631 6.75423 1.63794 0
M  V30 3429 H 316.822 4.47205 1.38294 0
M  V30 3430 H 316.995 6.26068 1.67159 0
M  V30 3431 N 310.401 -0.613514 1.45168 0
M  V30 3432 C 311.626 -1.40437 1.52618 0
M  V30 3433 C 312.051 -1.87438 0.157707 0
M  V30 3434 O 311.409 -1.59791 -0.856537 0
M  V30 3435 C 311.457 -2.58894 2.51011 0
M  V30 3436 O 310.561 -3.59326 2.02382 0
M  V30 3437 H 309.902 -0.419506 0.514695 0
M  V30 3438 H 312.432 -0.747215 1.90467 0
M  V30 3439 H 312.442 -3.06214 2.69624 0
M  V30 3440 H 311.117 -2.24032 3.50403 0
M  V30 3441 H 309.694 -3.18695 1.93618 0
M  V30 3442 N 311.879 -1.3236 -0.855495 0
M  V30 3443 C 312.809 -1.23833 -1.97958 0
M  V30 3444 C 313.79 -0.122361 -1.69659 0
M  V30 3445 O 314.975 -0.30939 -1.9172 0
M  V30 3446 C 312.105 -0.959772 -3.33775 0
M  V30 3447 C 311.059 -2.03689 -3.76424 0
M  V30 3448 C 310.385 -1.61075 -5.09862 0
M  V30 3449 C 311.685 -3.4518 -3.9198 0
M  V30 3450 H 313.379 -2.1788 -2.0535 0
M  V30 3451 H 310.925 -1.04891 -0.986605 0
M  V30 3452 H 312.878 -0.886678 -4.11966 0
M  V30 3453 H 311.602 0.0163404 -3.26596 0
M  V30 3454 H 310.261 -2.10012 -3.00484 0
M  V30 3455 H 309.909 -0.622107 -4.99138 0
M  V30 3456 H 309.609 -2.33143 -5.39368 0
M  V30 3457 H 311.133 -1.55201 -5.90546 0
M  V30 3458 H 312.547 -3.4145 -4.60526 0
M  V30 3459 H 310.944 -4.1559 -4.32903 0
M  V30 3460 H 312.014 -3.84903 -2.94919 0
M  V30 3461 N 313.357 1.07166 -1.15556 0
M  V30 3462 C 314.289 2.14341 -0.811815 0
M  V30 3463 C 315.302 1.61835 0.177015 0
M  V30 3464 O 316.491 1.78439 -0.0464996 0
M  V30 3465 C 313.591 3.38387 -0.186481 0
M  V30 3466 C 312.764 4.20238 -1.21321 0
M  V30 3467 C 311.823 5.2266 -0.609302 0
M  V30 3468 O 310.849 5.54719 -1.27576 0
M  V30 3469 N 312.051 5.77306 0.608099 0
M  V30 3470 H 314.816 2.44431 -1.73417 0
M  V30 3471 H 312.377 1.23089 -1.0517 0
M  V30 3472 H 314.369 4.04044 0.230339 0
M  V30 3473 H 312.939 3.05994 0.639249 0
M  V30 3474 H 312.159 3.50369 -1.80652 0
M  V30 3475 H 313.447 4.71736 -1.90638 0
M  V30 3476 H 312.845 5.53513 1.1679 0
M  V30 3477 H 311.402 6.44583 0.96725 0
M  V30 3478 N 314.835 0.952656 1.25548 0
M  V30 3479 C 316.112 0.523818 1.88456 0
M  V30 3480 C 316.492 -0.998871 1.85973 0
M  V30 3481 O 315.84 -1.86381 1.3219 0
M  V30 3482 C 316.05 1.0982 3.31271 0
M  V30 3483 C 317.398 1.17385 4.08051 0
M  V30 3484 O 318.422 1.04961 3.40384 0
M  V30 3485 O 317.281 1.36852 5.29088 0
M  V30 3486 H 314.375 0.172485 0.808813 0
M  V30 3487 H 316.921 1.04596 1.33633 0
M  V30 3488 H 315.693 2.1415 3.27499 0
M  V30 3489 H 315.316 0.559191 3.93648 0
M  V30 3490 N 316.313 -1.40141 0.720998 0
M  V30 3491 C 317.243 -2.33339 0.0867621 0
M  V30 3492 C 318.224 -1.53178 -0.739622 0
M  V30 3493 O 319.409 -1.81625 -0.687449 0
M  V30 3494 C 316.539 -3.37194 -0.831728 0
M  V30 3495 C 315.493 -4.27857 -0.110558 0
M  V30 3496 C 314.819 -5.22294 -1.14513 0
M  V30 3497 C 316.119 -5.11872 1.0385 0
M  V30 3498 H 317.813 -2.86626 0.865219 0
M  V30 3499 H 315.359 -1.37814 0.417516 0
M  V30 3500 H 317.312 -4.01335 -1.28485 0
M  V30 3501 H 316.036 -2.82314 -1.64214 0
M  V30 3502 H 314.695 -3.65176 0.322797 0
M  V30 3503 H 314.343 -4.63717 -1.94874 0
M  V30 3504 H 314.043 -5.83797 -0.667446 0
M  V30 3505 H 315.567 -5.89312 -1.59824 0
M  V30 3506 H 316.981 -5.69436 0.664482 0
M  V30 3507 H 315.378 -5.82445 1.4449 0
M  V30 3508 H 316.448 -4.4753 1.86668 0
M  V30 3509 N 317.792 -0.46758 -1.50504 0
M  V30 3510 C 318.742 0.34698 -2.25344 0
M  V30 3511 C 319.726 0.964469 -1.2879 0
M  V30 3512 O 320.918 0.8776 -1.53711 0
M  V30 3513 C 318.047 1.43042 -3.1208 0
M  V30 3514 C 317.133 0.82084 -4.16081 0
M  V30 3515 N 317.524 -0.0567602 -5.05768 0
M  V30 3516 C 315.822 1.08517 -4.32597 0
M  V30 3517 C 316.523 -0.402343 -5.80307 0
M  V30 3518 N 315.499 0.221607 -5.43148 0
M  V30 3519 H 319.301 -0.329129 -2.92051 0
M  V30 3520 H 316.815 -0.281508 -1.59942 0
M  V30 3521 H 318.812 2.02712 -3.64299 0
M  V30 3522 H 317.472 2.10856 -2.46921 0
M  V30 3523 H 318.483 -0.425349 -5.1615 0
M  V30 3524 H 315.16 1.75855 -3.78657 0
M  V30 3525 H 316.55 -1.11834 -6.62528 0
M  V30 3526 N 319.27 1.56325 -0.20005 0
M  V30 3527 C 320.18 2.22931 0.730668 0
M  V30 3528 C 321.196 1.22997 1.23076 0
M  V30 3529 O 322.372 1.55748 1.27689 0
M  V30 3530 C 319.437 2.87948 1.93098 0
M  V30 3531 C 318.498 4.03166 1.47497 0
M  V30 3532 C 317.731 4.65073 2.61807 0
M  V30 3533 O 317.954 4.25913 3.79413 0
M  V30 3534 O 316.888 5.54452 2.34237 0
M  V30 3535 H 320.714 3.03084 0.193391 0
M  V30 3536 H 318.299 1.49371 0.0294621 0
M  V30 3537 H 320.181 3.29063 2.6324 0
M  V30 3538 H 318.856 2.10771 2.45677 0
M  V30 3539 H 317.763 3.66664 0.742201 0
M  V30 3540 H 319.096 4.82022 0.995796 0
M  V30 3541 N 320.748 -0.0735177 1.57428 0
M  V30 3542 C 321.658 -1.10547 2.06922 0
M  V30 3543 C 322.674 -1.42506 0.998402 0
M  V30 3544 O 323.85 -1.52717 1.31299 0
M  V30 3545 C 320.915 -2.40019 2.50184 0
M  V30 3546 C 319.976 -2.15046 3.71556 0
M  V30 3547 C 319.209 -3.38345 4.12745 0
M  V30 3548 O 319.432 -4.47399 3.53822 0
M  V30 3549 O 318.366 -3.2666 5.05546 0
M  V30 3550 H 322.192 -0.715013 2.95163 0
M  V30 3551 H 319.777 -0.287531 1.46607 0
M  V30 3552 H 321.659 -3.16218 2.78539 0
M  V30 3553 H 320.334 -2.78447 1.65072 0
M  V30 3554 H 319.241 -1.36558 3.48285 0
M  V30 3555 H 320.574 -1.81499 4.57514 0
M  V30 3556 N 322.226 -1.5378 -0.344866 0
M  V30 3557 C 323.159 -1.7649 -1.4466 0
M  V30 3558 C 324.137 -0.613954 -1.50563 0
M  V30 3559 O 325.321 -0.84896 -1.683 0
M  V30 3560 C 322.448 -1.86235 -2.82903 0
M  V30 3561 C 321.494 -3.08375 -2.94631 0
M  V30 3562 S 322.327 -4.67457 -2.61236 0
M  V30 3563 C 323.483 -4.80079 -4.0159 0
M  V30 3564 H 323.716 -2.69661 -1.2518 0
M  V30 3565 H 321.249 -1.44632 -0.540455 0
M  V30 3566 H 323.207 -1.92535 -3.62547 0
M  V30 3567 H 321.868 -0.940786 -2.9968 0
M  V30 3568 H 321.061 -3.11865 -3.95925 0
M  V30 3569 H 320.663 -3.00294 -2.22934 0
M  V30 3570 H 322.955 -4.61407 -4.96094 0
M  V30 3571 H 323.898 -5.82168 -4.03095 0
M  V30 3572 H 324.306 -4.08544 -3.89554 0
M  V30 3573 N 323.704 0.605807 -1.45491 0
M  V30 3574 C 324.667 1.69836 -1.5391 0
M  V30 3575 C 325.667 1.55261 -0.418424 0
M  V30 3576 O 326.857 1.60296 -0.681965 0
M  V30 3577 C 323.989 3.09117 -1.43734 0
M  V30 3578 H 325.182 1.63738 -2.51257 0
M  V30 3579 H 322.735 0.821689 -1.32959 0
M  V30 3580 H 323.47 3.20791 -0.475788 0
M  V30 3581 H 323.255 3.21104 -2.25021 0
M  V30 3582 H 324.745 3.88696 -1.52661 0
M  V30 3583 N 325.182 1.32811 0.848464 0
M  V30 3584 C 326.422 1.25046 1.61687 0
M  V30 3585 C 326.786 -0.183464 1.91121 0
M  V30 3586 O 327.987 -0.384937 2.66029 0
M  V30 3587 C 326.258 2.09201 2.89775 0
M  V30 3588 S 327.817 2.18526 3.80515 0
M  V30 3589 H 324.635 0.445023 0.554505 0
M  V30 3590 H 327.237 1.67733 1.00429 0
M  V30 3591 H 325.941 3.12433 2.66108 0
M  V30 3592 H 325.472 1.67315 3.56047 0
M  V30 3593 H 327.487 1.3393 4.77784 0
M  V30 3594 N 326.66 -1.06551 1.16123 0
M  V30 3595 C 327.909 -1.78687 0.935622 0
M  V30 3596 C 328.222 -1.88056 -0.538001 0
M  V30 3597 O 329.428 -2.56794 -0.88143 0
M  V30 3598 C 327.884 -3.21143 1.62466 0
M  V30 3599 C 327.492 -3.19949 3.13587 0
M  V30 3600 C 329.236 -3.9783 1.48092 0
M  V30 3601 C 327.143 -4.57108 3.75241 0
M  V30 3602 H 326.073 -0.669712 0.346412 0
M  V30 3603 H 328.724 -1.19534 1.39226 0
M  V30 3604 H 327.106 -3.80539 1.09572 0
M  V30 3605 H 328.28 -2.70151 3.73303 0
M  V30 3606 H 326.595 -2.5676 3.27816 0
M  V30 3607 H 329.192 -4.99217 1.91538 0
M  V30 3608 H 329.535 -4.14078 0.429507 0
M  V30 3609 H 330.068 -3.4495 1.98127 0
M  V30 3610 H 326.807 -4.46065 4.80319 0
M  V30 3611 H 326.327 -5.07111 3.20309 0
M  V30 3612 H 328.006 -5.26069 3.76644 0
M  V30 3613 N 328.138 -0.959301 -1.25041 0
M  V30 3614 C 329.068 -0.501388 -2.28053 0
M  V30 3615 C 330.049 0.454673 -1.63911 0
M  V30 3616 O 331.234 0.352618 -1.90972 0
M  V30 3617 C 328.364 0.217224 -3.4662 0
M  V30 3618 C 327.318 -0.654034 -4.22973 0
M  V30 3619 C 326.644 0.195589 -5.34342 0
M  V30 3620 C 327.944 -1.93447 -4.85155 0
M  V30 3621 H 329.638 -1.36238 -2.66608 0
M  V30 3622 H 327.184 -0.656534 -1.28163 0
M  V30 3623 H 329.137 0.548732 -4.17812 0
M  V30 3624 H 327.861 1.1125 -3.07068 0
M  V30 3625 H 326.52 -0.968693 -3.5357 0
M  V30 3626 H 326.168 1.09076 -4.91031 0
M  V30 3627 H 325.868 -0.384091 -5.86343 0
M  V30 3628 H 327.392 0.521958 -6.08365 0
M  V30 3629 H 328.806 -1.66908 -5.48466 0
M  V30 3630 H 327.203 -2.46018 -5.47353 0
M  V30 3631 H 328.273 -2.63466 -4.07079 0
M  V30 3632 N 329.616 1.39756 -0.72842 0
M  V30 3633 C 330.563 2.30647 -0.0841519 0
M  V30 3634 C 331.533 1.48869 0.7367 0
M  V30 3635 O 332.718 1.77574 0.698015 0
M  V30 3636 C 329.858 3.35165 0.822091 0
M  V30 3637 C 328.971 4.31999 -0.0106663 0
M  V30 3638 C 328.106 5.23585 0.896241 0
M  V30 3639 C 327.145 6.12072 0.0583381 0
M  V30 3640 N 326.282 6.96035 0.920818 0
M  V30 3641 H 331.122 2.85173 -0.864891 0
M  V30 3642 H 328.659 1.40422 -0.438179 0
M  V30 3643 H 330.617 3.94345 1.36189 0
M  V30 3644 H 329.247 2.8211 1.56888 0
M  V30 3645 H 328.299 3.74492 -0.66781 0
M  V30 3646 H 329.611 4.9443 -0.658825 0
M  V30 3647 H 328.765 5.87759 1.50412 0
M  V30 3648 H 327.504 4.61459 1.57819 0
M  V30 3649 H 326.509 5.46916 -0.562389 0
M  V30 3650 H 327.734 6.76261 -0.6203 0
M  V30 3651 H 325.68 6.36485 1.58818 0
M  V30 3652 H 325.597 7.55284 0.32899 0
M  V30 3653 H 326.865 7.64646 1.51447 0
M  V30 3654 N 331.094 0.475555 1.50254 0
M  V30 3655 C 332.004 -0.321501 2.32387 0
M  V30 3656 C 333.02 -0.991755 1.42969 0
M  V30 3657 O 334.196 -0.978747 1.76018 0
M  V30 3658 C 331.261 -1.38667 3.17762 0
M  V30 3659 C 330.322 -0.732538 4.23004 0
M  V30 3660 C 329.555 -1.74695 5.04299 0
M  V30 3661 O 329.778 -2.97399 4.86734 0
M  V30 3662 O 328.712 -1.31631 5.8733 0
M  V30 3663 H 332.538 0.350071 3.01676 0
M  V30 3664 H 330.123 0.237321 1.47503 0
M  V30 3665 H 332.005 -2.00354 3.70724 0
M  V30 3666 H 330.68 -2.04163 2.51196 0
M  V30 3667 H 329.587 -0.0765902 3.74022 0
M  V30 3668 H 330.92 -0.120452 4.92053 0
M  V30 3669 N 332.573 -1.56217 0.208337 0
M  V30 3670 C 333.822 -1.97124 -0.427204 0
M  V30 3671 C 334.135 -1.09859 -1.61835 0
M  V30 3672 O 335.341 -1.40606 -2.32255 0
M  V30 3673 C 333.797 -3.50633 -0.811442 0
M  V30 3674 C 333.405 -4.46582 0.35615 0
M  V30 3675 C 335.149 -4.00282 -1.41332 0
M  V30 3676 C 333.056 -5.91379 -0.0497852 0
M  V30 3677 H 331.986 -0.736086 -0.163381 0
M  V30 3678 H 334.637 -1.8099 0.302456 0
M  V30 3679 H 333.019 -3.62319 -1.59815 0
M  V30 3680 H 334.193 -4.46636 1.1337 0
M  V30 3681 H 332.508 -4.07202 0.870396 0
M  V30 3682 H 335.105 -5.0595 -1.72972 0
M  V30 3683 H 335.448 -3.45359 -2.32449 0
M  V30 3684 H 335.981 -3.91764 -0.690323 0
M  V30 3685 H 332.72 -6.50255 0.827529 0
M  V30 3686 H 332.24 -5.94549 -0.791926 0
M  V30 3687 H 333.919 -6.45209 -0.481042 0
M  V30 3688 N 334.051 0.0651679 -1.57465 0
M  V30 3689 C 334.981 1.07693 -2.07182 0
M  V30 3690 C 335.962 1.39962 -0.966673 0
M  V30 3691 O 337.147 1.49475 -1.2398 0
M  V30 3692 C 334.277 2.3885 -2.52127 0
M  V30 3693 C 333.231 2.20917 -3.66579 0
M  V30 3694 C 332.557 3.57515 -3.97601 0
M  V30 3695 C 333.857 1.62493 -4.9638 0
M  V30 3696 H 335.551 0.663199 -2.91962 0
M  V30 3697 H 333.097 0.317569 -1.40455 0
M  V30 3698 H 335.05 3.09928 -2.85522 0
M  V30 3699 H 333.774 2.82215 -1.64384 0
M  V30 3700 H 332.433 1.52279 -3.33477 0
M  V30 3701 H 332.081 3.98463 -3.06979 0
M  V30 3702 H 331.781 3.46353 -4.74672 0
M  V30 3703 H 333.305 4.30013 -4.33499 0
M  V30 3704 H 334.719 2.23445 -5.27963 0
M  V30 3705 H 333.116 1.62009 -5.77818 0
M  V30 3706 H 334.186 0.587041 -4.81333 0
M  V30 3707 N 335.529 1.53961 0.336706 0
M  V30 3708 C 336.461 1.78751 1.4346 0
M  V30 3709 C 337.474 0.669019 1.48418 0
M  V30 3710 O 338.663 0.945884 1.51378 0
M  V30 3711 C 335.763 1.87844 2.82078 0
M  V30 3712 C 334.936 3.17854 3.00479 0
M  V30 3713 C 333.995 3.17816 4.19379 0
M  V30 3714 O 333.021 3.91511 4.13168 0
M  V30 3715 N 334.223 2.40669 5.2826 0
M  V30 3716 H 336.988 2.73493 1.22563 0
M  V30 3717 H 334.549 1.53096 0.526625 0
M  V30 3718 H 336.541 1.85261 3.59806 0
M  V30 3719 H 335.111 1.00257 2.96086 0
M  V30 3720 H 334.331 3.33504 2.10163 0
M  V30 3721 H 335.619 4.03718 3.0966 0
M  V30 3722 H 335.017 1.8036 5.36178 0
M  V30 3723 H 333.574 2.43877 6.04456 0
M  V30 3724 N 337.007 -0.598083 1.45811 0
M  V30 3725 C 337.917 -1.73632 1.57763 0
M  V30 3726 C 338.933 -1.67763 0.461676 0
M  V30 3727 O 340.109 -1.87949 0.723685 0
M  V30 3728 C 337.174 -3.10114 1.55018 0
M  V30 3729 C 336.235 -3.27364 2.77726 0
M  V30 3730 C 335.468 -4.57334 2.75102 0
M  V30 3731 O 335.691 -5.40258 1.8297 0
M  V30 3732 O 334.625 -4.77502 3.66437 0
M  V30 3733 H 338.451 -1.66498 2.53992 0
M  V30 3734 H 336.036 -0.763308 1.28429 0
M  V30 3735 H 337.918 -3.9141 1.56129 0
M  V30 3736 H 336.593 -3.17718 0.619431 0
M  V30 3737 H 335.5 -2.45619 2.82174 0
M  V30 3738 H 336.833 -3.24641 3.69958 0
M  V30 3739 N 338.485 -1.33259 -0.841409 0
M  V30 3740 C 339.715 -1.2742 -1.62628 0
M  V30 3741 C 340.123 0.157604 -1.88542 0
M  V30 3742 O 339.466 1.10938 -1.46419 0
M  V30 3743 C 339.528 -1.97797 -3.00194 0
M  V30 3744 C 339.192 -3.47109 -2.97261 0
M  V30 3745 C 340.189 -4.42358 -2.73159 0
M  V30 3746 C 337.874 -3.89247 -3.17478 0
M  V30 3747 C 339.868 -5.77718 -2.69296 0
M  V30 3748 C 337.555 -5.24713 -3.13241 0
M  V30 3749 C 338.553 -6.1876 -2.89181 0
M  V30 3750 O 338.241 -7.51745 -2.84843 0
M  V30 3751 H 337.973 -0.440436 -0.512827 0
M  V30 3752 H 340.527 -1.76153 -1.05638 0
M  V30 3753 H 338.757 -1.43652 -3.59028 0
M  V30 3754 H 340.446 -1.8549 -3.61038 0
M  V30 3755 H 341.212 -4.11127 -2.57294 0
M  V30 3756 H 337.091 -3.16456 -3.35226 0
M  V30 3757 H 340.635 -6.51097 -2.50436 0
M  V30 3758 H 336.532 -5.55569 -3.28654 0
M  V30 3759 H 337.3 -7.61262 -3.00702 0
M  V30 3760 N 339.963 1.05934 -1.16686 0
M  V30 3761 C 340.893 2.1546 -0.899949 0
M  V30 3762 C 341.874 1.69391 0.155154 0
M  V30 3763 O 343.059 1.94199 0.00648693 0
M  V30 3764 C 340.189 3.44939 -0.404241 0
M  V30 3765 C 339.143 4.04536 -1.39767 0
M  V30 3766 C 338.469 5.29268 -0.760216 0
M  V30 3767 C 339.769 4.42893 -2.76845 0
M  V30 3768 H 341.463 2.38046 -1.81588 0
M  V30 3769 H 339.009 1.14404 -0.874514 0
M  V30 3770 H 340.962 4.20901 -0.204971 0
M  V30 3771 H 339.686 3.21983 0.547206 0
M  V30 3772 H 338.345 3.30635 -1.58355 0
M  V30 3773 H 337.993 5.02611 0.197831 0
M  V30 3774 H 337.693 5.70101 -1.42332 0
M  V30 3775 H 339.217 6.07924 -0.57105 0
M  V30 3776 H 340.631 5.09921 -2.62019 0
M  V30 3777 H 339.028 4.94721 -3.39663 0
M  V30 3778 H 340.098 3.53584 -3.31823 0
M  V30 3779 N 341.441 0.965919 1.2453 0
M  V30 3780 C 342.351 0.502154 2.29163 0
M  V30 3781 C 343.367 -0.436017 1.68448 0
M  V30 3782 O 344.543 -0.309497 1.99008 0
M  V30 3783 C 341.608 -0.201956 3.46111 0
M  V30 3784 C 340.669 0.775821 4.22232 0
M  V30 3785 C 339.902 0.105217 5.33596 0
M  V30 3786 O 340.125 -1.10683 5.59558 0
M  V30 3787 O 339.059 0.796475 5.96607 0
M  V30 3788 H 342.885 1.37194 2.70946 0
M  V30 3789 H 340.47 0.732875 1.30189 0
M  V30 3790 H 342.352 -0.597564 4.17142 0
M  V30 3791 H 341.027 -1.04673 3.06309 0
M  V30 3792 H 339.934 1.22185 3.53584 0
M  V30 3793 H 341.267 1.58896 4.65846 0
M  V30 3794 N 342.919 -1.39368 0.735821 0
M  V30 3795 C 344.168 -1.99733 0.281004 0
M  V30 3796 C 344.481 -1.59055 -1.13846 0
M  V30 3797 O 345.687 -2.12262 -1.69284 0
M  V30 3798 C 344.143 -3.57057 0.451462 0
M  V30 3799 C 343.751 -4.06697 1.87886 0
M  V30 3800 C 345.495 -4.2446 0.0584616 0
M  V30 3801 C 343.402 -5.56598 1.99883 0
M  V30 3802 H 342.332 -0.747163 0.101311 0
M  V30 3803 H 344.983 -1.59357 0.909819 0
M  V30 3804 H 343.365 -3.95234 -0.246263 0
M  V30 3805 H 344.539 -3.79853 2.60861 0
M  V30 3806 H 342.854 -3.5196 2.22515 0
M  V30 3807 H 345.451 -5.34549 0.127099 0
M  V30 3808 H 345.794 -4.04444 -0.986433 0
M  V30 3809 H 346.327 -3.9146 0.707374 0
M  V30 3810 H 343.066 -5.81494 3.02564 0
M  V30 3811 H 342.586 -5.85242 1.31346 0
M  V30 3812 H 344.265 -6.22022 1.78039 0
M  V30 3813 N 344.397 -0.483516 -1.5 0
M  V30 3814 C 345.622 0.0667119 -2.07293 0
M  V30 3815 C 346.047 1.3164 -1.3436 0
M  V30 3816 O 345.405 1.76945 -0.394987 0
M  V30 3817 C 345.453 0.321126 -3.59167 0
M  V30 3818 O 344.557 1.39927 -3.87936 0
M  V30 3819 H 343.898 -0.0184758 -0.663743 0
M  V30 3820 H 346.428 -0.678125 -1.93035 0
M  V30 3821 H 346.438 0.557906 -4.04168 0
M  V30 3822 H 345.113 -0.592007 -4.11665 0
M  V30 3823 H 343.69 1.14882 -3.54763 0
M  V30 3824 N 345.875 1.56104 -0.216619 0
M  V30 3825 C 347.1 2.0301 0.424462 0
M  V30 3826 C 347.525 1.0955 1.52907 0
M  V30 3827 O 346.883 0.0827914 1.81111 0
M  V30 3828 C 346.931 3.4819 0.937883 0
M  V30 3829 O 346.035 3.57865 2.04955 0
M  V30 3830 H 345.376 0.656925 0.0966755 0
M  V30 3831 H 347.906 2.01859 -0.33381 0
M  V30 3832 H 347.916 3.88413 1.24897 0
M  V30 3833 H 346.591 4.15699 0.129387 0
M  V30 3834 H 345.168 3.29527 1.74546 0
M  V30 3835 N 347.353 -0.0568162 1.57498 0
M  V30 3836 C 348.283 -1.06593 2.0775 0
M  V30 3837 C 349.264 -1.39448 0.974082 0
M  V30 3838 O 350.449 -1.48815 1.24771 0
M  V30 3839 C 347.579 -2.37509 2.5339 0
M  V30 3840 C 346.533 -2.1897 3.67745 0
M  V30 3841 C 345.859 -3.55402 3.99492 0
M  V30 3842 C 347.159 -1.59859 4.97235 0
M  V30 3843 H 348.853 -0.647706 2.9231 0
M  V30 3844 H 346.399 -0.310116 1.40621 0
M  V30 3845 H 348.352 -3.08409 2.87162 0
M  V30 3846 H 347.076 -2.8134 1.65878 0
M  V30 3847 H 345.735 -1.50508 3.3428 0
M  V30 3848 H 345.383 -3.9683 3.09088 0
M  V30 3849 H 345.083 -3.43831 4.76502 0
M  V30 3850 H 346.607 -4.27708 4.35773 0
M  V30 3851 H 348.021 -2.20642 5.29141 0
M  V30 3852 H 346.418 -1.58942 5.78669 0
M  V30 3853 H 347.488 -0.561506 4.81638 0
M  V30 3854 N 348.832 -1.54138 -0.328536 0
M  V30 3855 C 350.078 -1.7236 -1.06865 0
M  V30 3856 C 350.411 -0.493231 -1.87832 0
M  V30 3857 O 349.686 0.5098 -1.877 0
M  V30 3858 C 349.969 -2.99621 -1.99747 0
M  V30 3859 C 349.822 -4.32899 -1.22143 0
M  V30 3860 C 351.141 -3.22615 -2.99345 0
M  V30 3861 H 348.26 -0.627151 -0.387105 0
M  V30 3862 H 350.902 -1.86827 -0.345767 0
M  V30 3863 H 349.052 -2.87418 -2.61387 0
M  V30 3864 H 350.724 -4.56978 -0.630017 0
M  V30 3865 H 348.967 -4.30628 -0.523628 0
M  V30 3866 H 349.638 -5.18154 -1.90318 0
M  V30 3867 H 352.114 -3.34248 -2.47826 0
M  V30 3868 H 350.99 -4.13027 -3.61524 0
M  V30 3869 H 351.251 -2.3961 -3.71536 0
M  V30 3870 N 350.31 0.590341 -1.46126 0
M  V30 3871 C 351.242 1.71427 -1.52136 0
M  V30 3872 C 352.255 1.57542 -0.41042 0
M  V30 3873 O 353.444 1.65106 -0.678389 0
M  V30 3874 C 350.544 3.09605 -1.37834 0
M  V30 3875 C 349.717 3.49566 -2.62912 0
M  V30 3876 C 348.776 4.66773 -2.42918 0
M  V30 3877 O 347.802 4.73019 -3.1661 0
M  V30 3878 N 349.004 5.61161 -1.4859 0
M  V30 3879 H 351.769 1.66728 -2.49042 0
M  V30 3880 H 349.33 0.776113 -1.42085 0
M  V30 3881 H 351.322 3.85796 -1.22243 0
M  V30 3882 H 349.892 3.08714 -0.491393 0
M  V30 3883 H 349.112 2.63158 -2.93499 0
M  V30 3884 H 350.4 3.73028 -3.46017 0
M  V30 3885 H 349.798 5.58844 -0.87808 0
M  V30 3886 H 348.355 6.36814 -1.38965 0
M  V30 3887 N 351.788 1.33704 0.83433 0
M  V30 3888 C 353.065 1.16011 1.57483 0
M  V30 3889 C 353.445 -0.27176 2.09343 0
M  V30 3890 O 352.793 -1.27146 1.89858 0
M  V30 3891 C 353.003 2.20507 2.70514 0
M  V30 3892 C 354.351 2.54898 3.39577 0
M  V30 3893 O 355.375 2.19209 2.80759 0
M  V30 3894 O 354.234 3.16158 4.45765 0
M  V30 3895 H 351.328 0.448992 0.694503 0
M  V30 3896 H 353.874 1.453 0.876691 0
M  V30 3897 H 352.646 3.16667 2.29865 0
M  V30 3898 H 352.269 1.92329 3.47987 0
M  V30 3899 N 353.266 -1.05314 1.17247 0
M  V30 3900 C 354.176 -2.16538 0.90268 0
M  V30 3901 C 355.192 -1.73523 -0.128707 0
M  V30 3902 O 356.368 -2.01337 0.0502701 0
M  V30 3903 C 353.433 -3.44167 0.418356 0
M  V30 3904 C 352.494 -4.01635 1.51618 0
M  V30 3905 C 351.727 -5.23171 1.05487 0
M  V30 3906 O 351.95 -5.70327 -0.0914715 0
M  V30 3907 O 350.884 -5.72848 1.8474 0
M  V30 3908 H 354.71 -2.42145 1.83302 0
M  V30 3909 H 352.295 -1.15037 0.953246 0
M  V30 3910 H 354.177 -4.21112 0.155726 0
M  V30 3911 H 352.852 -3.20063 -0.48385 0
M  V30 3912 H 351.759 -3.26135 1.83268 0
M  V30 3913 H 353.092 -4.30053 2.39405 0
M  V30 3914 N 354.744 -0.972509 -1.24016 0
M  V30 3915 C 355.99 -0.637978 -1.92504 0
M  V30 3916 C 356.323 0.825383 -1.75787 0
M  V30 3917 O 355.598 1.59442 -1.11393 0
M  V30 3918 C 355.881 -1.01942 -3.45369 0
M  V30 3919 C 355.734 -2.53983 -3.71231 0
M  V30 3920 C 357.053 -0.55751 -4.36555 0
M  V30 3921 H 354.172 -0.233248 -0.699117 0
M  V30 3922 H 356.814 -1.21238 -1.46292 0
M  V30 3923 H 354.964 -0.530656 -3.84859 0
M  V30 3924 H 356.636 -3.10374 -3.41271 0
M  V30 3925 H 354.879 -2.96968 -3.16216 0
M  V30 3926 H 355.55 -2.75723 -4.78206 0
M  V30 3927 H 358.026 -0.977029 -4.04467 0
M  V30 3928 H 356.902 -0.85292 -5.42233 0
M  V30 3929 H 357.163 0.542328 -4.38761 0
M  V30 3930 N 356.222 1.38976 -0.743202 0
M  V30 3931 C 357.468 2.0064 -0.295189 0
M  V30 3932 C 357.801 1.5885 1.11716 0
M  V30 3933 O 357.076 0.821181 1.76315 0
M  V30 3934 C 357.359 3.578 -0.406318 0
M  V30 3935 C 357.212 4.09586 -1.85903 0
M  V30 3936 C 358.531 4.39616 0.206439 0
M  V30 3937 H 355.65 0.728935 -0.108733 0
M  V30 3938 H 358.292 1.65067 -0.940897 0
M  V30 3939 H 356.442 3.88235 0.143419 0
M  V30 3940 H 358.114 3.89837 -2.46627 0
M  V30 3941 H 356.357 3.6284 -2.3776 0
M  V30 3942 H 357.028 5.18708 -1.888 0
M  V30 3943 H 359.504 4.15273 -0.262283 0
M  V30 3944 H 358.38 5.48812 0.0983819 0
M  V30 3945 H 358.641 4.22754 1.2935 0
M  V30 3946 N 357.7 0.491464 1.49741 0
M  V30 3947 C 358.663 -0.280906 2.27472 0
M  V30 3948 C 359.663 -0.902454 1.33088 0
M  V30 3949 O 360.853 -0.768465 1.56334 0
M  V30 3950 C 357.985 -1.40209 3.10732 0
M  V30 3951 H 359.178 0.401056 2.97206 0
M  V30 3952 H 356.731 0.246131 1.5435 0
M  V30 3953 H 357.466 -2.11849 2.45541 0
M  V30 3954 H 357.251 -0.961969 3.80117 0
M  V30 3955 H 358.741 -1.9464 3.69466 0
M  V30 3956 N 359.178 -1.55987 0.224894 0
M  V30 3957 C 360.427 -1.97566 -0.406273 0
M  V30 3958 C 360.74 -1.11569 -1.6066 0
M  V30 3959 O 361.946 -1.43062 -2.3075 0
M  V30 3960 C 360.402 -3.51474 -0.774207 0
M  V30 3961 C 360.01 -4.46179 0.403496 0
M  V30 3962 C 361.754 -4.01758 -1.37079 0
M  V30 3963 C 359.661 -5.91399 0.0129412 0
M  V30 3964 H 358.591 -0.737777 -0.155565 0
M  V30 3965 H 361.242 -1.80659 0.321635 0
M  V30 3966 H 359.624 -3.63994 -1.55963 0
M  V30 3967 H 360.798 -4.45409 1.18101 0
M  V30 3968 H 359.113 -4.06255 0.913536 0
M  V30 3969 H 361.71 -5.07756 -1.67596 0
M  V30 3970 H 362.053 -3.47805 -2.28773 0
M  V30 3971 H 362.586 -3.92475 -0.648733 0
M  V30 3972 H 359.325 -6.49341 0.896451 0
M  V30 3973 H 358.845 -5.95356 -0.728821 0
M  V30 3974 H 360.524 -6.45683 -0.412582 0
M  V30 3975 N 360.656 0.0484629 -1.57525 0
M  V30 3976 C 361.606 1.06246 -2.01732 0
M  V30 3977 C 362.59 1.33155 -0.903245 0
M  V30 3978 O 363.782 1.33065 -1.16717 0
M  V30 3979 C 360.911 2.36943 -2.48421 0
M  V30 3980 C 359.997 2.13208 -3.6661 0
M  V30 3981 N 360.388 1.5947 -4.80003 0
M  V30 3982 C 358.686 2.43581 -3.7361 0
M  V30 3983 C 359.387 1.51092 -5.61735 0
M  V30 3984 N 358.363 1.9797 -5.0627 0
M  V30 3985 H 362.165 0.640675 -2.86832 0
M  V30 3986 H 359.679 0.255134 -1.60383 0
M  V30 3987 H 361.676 3.10374 -2.78341 0
M  V30 3988 H 360.336 2.79818 -1.64718 0
M  V30 3989 H 361.347 1.28008 -5.01831 0
M  V30 3990 H 358.024 2.89662 -3.00669 0
M  V30 3991 H 359.414 1.10199 -6.62801 0
M  V30 3992 N 362.134 1.5431 0.320358 0
M  V30 3993 C 363.55 1.45091 0.664889 0
M  V30 3994 C 363.75 0.626382 1.91517 0
M  V30 3995 O 362.806 0.126443 2.52183 0
M  V30 3996 C 364.119 2.88848 0.83591 0
M  V30 3997 C 365.667 2.9877 0.933046 0
M  V30 3998 C 366.142 4.43683 1.13621 0
M  V30 3999 N 367.633 4.47309 1.20287 0
M  V30 4000 C 368.368 5.56595 1.37801 0
M  V30 4001 N 367.864 6.75844 1.52338 0
M  V30 4002 N 369.657 5.44248 1.40535 0
M  V30 4003 H 361.808 2.06398 -0.501374 0
M  V30 4004 H 364.071 0.933963 -0.162534 0
M  V30 4005 H 363.777 3.51698 -0.0116092 0
M  V30 4006 H 363.651 3.35148 1.73078 0
M  V30 4007 H 366.038 2.36045 1.77107 0
M  V30 4008 H 366.119 2.55796 0.0145782 0
M  V30 4009 H 365.763 5.06995 0.303032 0
M  V30 4010 H 365.693 4.84269 2.0686 0
M  V30 4011 H 368.184 3.61388 1.10485 0
M  V30 4012 H 368.497 7.54892 1.65403 0
M  V30 4013 H 366.842 6.78746 1.4943 0
M  V30 4014 H 370.033 4.50038 1.28777 0
M  V30 4015 H 370.206 6.29473 1.53842 0
M  V30 4016 N 363.613 -0.582584 1.46437 0
M  V30 4017 C 364.523 -1.71949 1.59595 0
M  V30 4018 C 365.539 -1.67264 0.479443 0
M  V30 4019 O 366.715 -1.87171 0.743579 0
M  V30 4020 C 363.78 -3.08452 1.58298 0
M  V30 4021 C 362.841 -3.244 2.81182 0
M  V30 4022 C 362.074 -4.54391 2.79937 0
M  V30 4023 O 362.297 -5.38287 1.8869 0
M  V30 4024 O 361.231 -4.73588 3.71481 0
M  V30 4025 H 365.057 -1.63795 2.55744 0
M  V30 4026 H 362.642 -0.749643 1.29231 0
M  V30 4027 H 364.524 -3.89732 1.60271 0
M  V30 4028 H 363.199 -3.17043 0.653094 0
M  V30 4029 H 362.106 -2.42613 2.84763 0
M  V30 4030 H 363.439 -3.20699 3.7338 0
M  V30 4031 N 365.091 -1.34144 -0.827227 0
M  V30 4032 C 366.024 -1.19707 -1.94282 0
M  V30 4033 C 367.002 -0.0897256 -1.62352 0
M  V30 4034 O 368.186 -0.254095 -1.8678 0
M  V30 4035 C 365.313 -0.838646 -3.28153 0
M  V30 4036 C 364.359 -1.95514 -3.79047 0
M  V30 4037 S 365.192 -3.56793 -3.99323 0
M  V30 4038 C 366.348 -3.22983 -5.36127 0
M  V30 4039 H 366.581 -2.1414 -2.06231 0
M  V30 4040 H 364.114 -1.19121 -0.982321 0
M  V30 4041 H 366.072 -0.638637 -4.05502 0
M  V30 4042 H 364.733 0.0872776 -3.13979 0
M  V30 4043 H 363.926 -1.658 -4.75948 0
M  V30 4044 H 363.528 -2.11241 -3.08631 0
M  V30 4045 H 365.82 -2.74531 -6.19386 0
M  V30 4046 H 366.763 -4.19008 -5.70822 0
M  V30 4047 H 367.171 -2.59276 -5.01434 0
M  V30 4048 N 366.569 1.04691 -1.17803 0
M  V30 4049 C 367.532 2.10724 -0.901545 0
M  V30 4050 C 368.532 1.6042 0.110437 0
M  V30 4051 O 369.722 1.7377 -0.122303 0
M  V30 4052 C 366.854 3.39084 -0.351409 0
M  V30 4053 H 368.047 2.36686 -1.84174 0
M  V30 4054 H 365.6 1.21015 -0.98919 0
M  V30 4055 H 366.335 3.18782 0.59569 0
M  V30 4056 H 366.12 3.76909 -1.08083 0
M  V30 4057 H 367.61 4.17227 -0.176451 0
M  V30 4058 N 368.047 0.979072 1.23499 0
M  V30 4059 C 369.01 0.523244 2.23147 0
M  V30 4060 C 370.01 -0.386406 1.56088 0
M  V30 4061 O 371.2 -0.180283 1.73265 0
M  V30 4062 C 368.332 -0.240739 3.40049 0
M  V30 4063 H 369.525 1.40432 2.64989 0
M  V30 4064 H 367.078 0.764824 1.36309 0
M  V30 4065 H 367.813 -1.13841 3.03662 0
M  V30 4066 H 367.598 0.412207 3.89927 0
M  V30 4067 H 369.088 -0.548297 4.13985 0
M  V30 4068 N 369.525 -1.3858 0.750561 0
M  V30 4069 C 370.488 -2.28836 0.129152 0
M  V30 4070 C 371.488 -1.47045 -0.650714 0
M  V30 4071 O 372.678 -1.6753 -0.477428 0
M  V30 4072 C 369.81 -3.30751 -0.825622 0
M  V30 4073 H 371.003 -2.85294 0.924516 0
M  V30 4074 H 368.556 -1.47489 0.517376 0
M  V30 4075 H 369.291 -2.79378 -1.64677 0
M  V30 4076 H 369.076 -3.91177 -0.268852 0
M  V30 4077 H 370.566 -3.98249 -1.2565 0
M  V30 4078 N 371.003 -0.499398 -1.49478 0
M  V30 4079 C 371.966 0.268838 -2.27618 0
M  V30 4080 C 372.966 0.895383 -1.33565 0
M  V30 4081 O 374.156 0.760164 -1.56739 0
M  V30 4082 C 371.288 1.38559 -3.11471 0
M  V30 4083 H 372.481 -0.416812 -2.96989 0
M  V30 4084 H 370.034 -0.254313 -1.54217 0
M  V30 4085 H 370.769 2.10544 -2.46661 0
M  V30 4086 H 370.554 0.941797 -3.80621 0
M  V30 4087 H 372.044 1.92678 -3.70493 0
M  V30 4088 N 372.481 1.55866 -0.233164 0
M  V30 4089 C 373.444 2.1953 0.658715 0
M  V30 4090 C 374.444 1.16053 1.11303 0
M  V30 4091 O 375.634 1.41218 1.01996 0
M  V30 4092 C 372.766 2.82791 1.90373 0
M  V30 4093 H 373.959 2.99721 0.10347 0
M  V30 4094 H 371.512 1.56291 0.0164245 0
M  V30 4095 H 372.247 2.06501 2.50056 0
M  V30 4096 H 372.032 3.58578 1.58632 0
M  V30 4097 H 373.522 3.31556 2.53891 0
M  V30 4098 N 373.959 -0.0401083 1.57549 0
M  V30 4099 C 375.375 -0.395556 1.54621 0
M  V30 4100 C 375.575 -1.77281 0.957799 0
M  V30 4101 O 374.631 -2.45888 0.574031 0
M  V30 4102 C 375.944 -0.307535 2.99123 0
M  V30 4103 C 377.492 -0.385425 3.10618 0
M  V30 4104 C 377.967 -0.326973 4.56831 0
M  V30 4105 N 379.458 -0.386102 4.61588 0
M  V30 4106 C 380.193 -0.363591 5.72246 0
M  V30 4107 N 379.689 -0.29402 6.92176 0
M  V30 4108 N 381.482 -0.412503 5.60584 0
M  V30 4109 H 373.633 0.861325 1.94152 0
M  V30 4110 H 375.896 0.326445 0.890021 0
M  V30 4111 H 375.602 0.638461 3.45856 0
M  V30 4112 H 375.476 -1.10552 3.60636 0
M  V30 4113 H 377.863 -1.32185 2.63839 0
M  V30 4114 H 377.944 0.44171 2.51957 0
M  V30 4115 H 377.588 0.605738 5.04275 0
M  V30 4116 H 377.518 -1.17207 5.13391 0
M  V30 4117 H 380.009 -0.442832 3.75296 0
M  V30 4118 H 380.322 -0.28164 7.72287 0
M  V30 4119 H 378.667 -0.260232 6.94513 0
M  V30 4120 H 381.858 -0.464769 4.65787 0
M  V30 4121 H 382.031 -0.391492 6.46816 0
M  V30 4122 N 375.437 -1.54477 -0.31217 0
M  V30 4123 C 376.686 -1.72438 -1.04633 0
M  V30 4124 C 376.999 -0.511163 -1.88803 0
M  V30 4125 O 378.205 -0.572341 -2.65399 0
M  V30 4126 C 376.661 -3.05043 -1.9099 0
M  V30 4127 C 376.269 -4.33806 -1.11877 0
M  V30 4128 C 378.013 -3.32364 -2.64073 0
M  V30 4129 C 375.92 -5.57467 -1.97445 0
M  V30 4130 H 374.85 -0.642647 -0.394361 0
M  V30 4131 H 377.501 -1.80966 -0.303929 0
M  V30 4132 H 375.883 -2.90451 -2.69173 0
M  V30 4133 H 377.057 -4.59199 -0.383843 0
M  V30 4134 H 375.372 -4.13336 -0.504252 0
M  V30 4135 H 377.969 -4.21951 -3.28423 0
M  V30 4136 H 378.312 -2.50745 -3.32314 0
M  V30 4137 H 378.845 -3.47875 -1.92944 0
M  V30 4138 H 375.584 -6.41722 -1.33692 0
M  V30 4139 H 375.104 -5.36277 -2.6864 0
M  V30 4140 H 376.783 -5.94303 -2.5576 0
M  V30 4141 N 376.915 0.57481 -1.46744 0
M  V30 4142 C 377.847 1.69804 -1.53946 0
M  V30 4143 C 378.86 1.57098 -0.427106 0
M  V30 4144 O 380.049 1.64378 -0.695863 0
M  V30 4145 C 377.149 3.08125 -1.4111 0
M  V30 4146 C 376.322 3.46757 -2.66605 0
M  V30 4147 C 375.381 4.6417 -2.47855 0
M  V30 4148 O 374.407 4.69634 -3.21609 0
M  V30 4149 N 375.609 5.59553 -1.54534 0
M  V30 4150 H 378.374 1.64077 -2.50796 0
M  V30 4151 H 375.935 0.761 -1.429 0
M  V30 4152 H 377.927 3.84478 -1.26328 0
M  V30 4153 H 376.497 3.08175 -0.524109 0
M  V30 4154 H 375.717 2.6003 -2.96274 0
M  V30 4155 H 377.005 3.69337 -3.49954 0
M  V30 4156 H 376.403 5.57881 -0.937304 0
M  V30 4157 H 374.96 6.35304 -1.45711 0
M  V30 4158 N 378.394 1.34581 0.820102 0
M  V30 4159 C 379.805 1.24298 1.39309 0
M  V30 4160 C 380.156 -0.130351 1.95767 0
M  V30 4161 O 379.281 -1.0308 1.90272 0
M  V30 4162 C 379.876 2.25054 2.53251 0
M  V30 4163 C 378.435 2.18552 3.0645 0
M  V30 4164 C 377.582 2.11503 1.79337 0
M  V30 4165 H 380.533 1.45906 0.624262 0
M  V30 4166 H 380.554 1.86917 3.31425 0
M  V30 4167 H 380.066 3.24996 2.1213 0
M  V30 4168 H 378.167 1.21976 3.52069 0
M  V30 4169 H 378.28 3.0993 3.65349 0
M  V30 4170 H 376.644 1.57268 2.00347 0
M  V30 4171 H 377.427 3.13284 1.40386 0
M  V30 4172 N 379.872 -1.04064 1.18357 0
M  V30 4173 C 380.782 -2.15569 0.925596 0
M  V30 4174 C 381.798 -1.7365 -0.110295 0
M  V30 4175 O 382.974 -2.01273 0.0716218 0
M  V30 4176 C 380.039 -3.43704 0.454836 0
M  V30 4177 C 379.1 -4.00004 1.55869 0
M  V30 4178 C 378.333 -5.22023 1.1103 0
M  V30 4179 O 378.556 -5.70392 -0.0309756 0
M  V30 4180 O 377.49 -5.70856 1.90805 0
M  V30 4181 H 381.316 -2.40187 1.8586 0
M  V30 4182 H 378.901 -1.1402 0.965394 0
M  V30 4183 H 380.783 -4.20923 0.200382 0
M  V30 4184 H 379.458 -3.20559 -0.449876 0
M  V30 4185 H 378.365 -3.24172 1.86716 0
M  V30 4186 H 379.698 -4.2749 2.43953 0
M  V30 4187 N 381.35 -0.985608 -1.22978 0
M  V30 4188 C 382.313 -0.535071 -2.22867 0
M  V30 4189 C 383.313 0.378123 -1.56291 0
M  V30 4190 O 384.503 0.171092 -1.73358 0
M  V30 4191 C 381.635 0.222702 -3.40172 0
M  V30 4192 H 382.828 -1.41835 -2.6424 0
M  V30 4193 H 380.381 -0.772042 -1.35901 0
M  V30 4194 H 381.116 1.12229 -3.04262 0
M  V30 4195 H 380.901 -0.43288 -3.89703 0
M  V30 4196 H 382.391 0.526335 -4.1427 0
M  V30 4197 N 382.828 1.3818 -0.7579 0
M  V30 4198 C 383.738 2.3421 -0.135247 0
M  V30 4199 C 384.754 1.59487 0.695683 0
M  V30 4200 O 385.93 1.91657 0.618832 0
M  V30 4201 C 382.995 3.3862 0.744139 0
M  V30 4202 C 382.056 4.2918 -0.101658 0
M  V30 4203 C 381.289 5.28603 0.735851 0
M  V30 4204 O 381.512 5.35166 1.97366 0
M  V30 4205 O 380.446 6.01707 0.152372 0
M  V30 4206 H 384.272 2.8916 -0.928436 0
M  V30 4207 H 381.857 1.40101 -0.518855 0
M  V30 4208 H 383.739 4.02539 1.2466 0
M  V30 4209 H 382.414 2.86019 1.51575 0
M  V30 4210 H 381.321 3.68407 -0.650167 0
M  V30 4211 H 382.654 4.85048 -0.836024 0
M  V30 4212 N 384.306 0.507319 1.49211 0
M  V30 4213 C 385.536 -0.0315292 2.06576 0
M  V30 4214 C 385.944 -1.30791 1.36713 0
M  V30 4215 O 385.287 -1.78324 0.441181 0
M  V30 4216 C 385.349 -0.349104 3.57801 0
M  V30 4217 C 385.013 0.830475 4.49391 0
M  V30 4218 C 386.01 1.72271 4.90529 0
M  V30 4219 C 383.695 1.03107 4.91604 0
M  V30 4220 C 385.689 2.79964 5.72625 0
M  V30 4221 C 383.376 2.11116 5.73475 0
M  V30 4222 C 384.374 2.99379 6.1389 0
M  V30 4223 O 384.062 4.05523 6.94123 0
M  V30 4224 H 383.794 0.0201002 0.675701 0
M  V30 4225 H 386.348 0.705737 1.92895 0
M  V30 4226 H 384.578 -1.14005 3.69513 0
M  V30 4227 H 386.267 -0.827319 3.97379 0
M  V30 4228 H 387.033 1.57958 4.58557 0
M  V30 4229 H 382.912 0.353417 4.59643 0
M  V30 4230 H 386.456 3.48884 6.04091 0
M  V30 4231 H 382.353 2.25421 6.0486 0
M  V30 4232 H 383.121 4.02953 7.1244 0
M  V30 4233 N 385.784 -1.5574 0.241426 0
M  V30 4234 C 386.716 -2.18469 -0.693091 0
M  V30 4235 C 387.729 -1.15942 -1.14286 0
M  V30 4236 O 388.918 -1.42832 -1.07058 0
M  V30 4237 C 386.018 -2.7696 -1.95311 0
M  V30 4238 C 385.191 -4.04853 -1.65568 0
M  V30 4239 C 384.25 -4.47715 -2.76474 0
M  V30 4240 O 383.276 -5.14205 -2.44094 0
M  V30 4241 N 384.478 -4.15044 -4.05855 0
M  V30 4242 H 387.243 -2.99292 -0.156388 0
M  V30 4243 H 384.804 -1.61784 0.0611752 0
M  V30 4244 H 386.796 -3.02594 -2.68736 0
M  V30 4245 H 385.366 -2.00326 -2.39975 0
M  V30 4246 H 384.586 -3.86865 -0.756886 0
M  V30 4247 H 385.874 -4.88246 -1.43153 0
M  V30 4248 H 385.272 -3.61654 -4.34998 0
M  V30 4249 H 383.829 -4.45526 -4.75762 0
M  V30 4250 N 387.262 0.0317525 -1.57568 0
M  V30 4251 C 388.51 0.721676 -1.88776 0
M  V30 4252 C 388.831 1.76039 -0.838772 0
M  V30 4253 O 388.101 1.95482 0.127935 0
M  V30 4254 H 386.681 0.269534 -0.696678 0
M  V30 4255 H 389.343 -0.00165879 -1.949 0
M  V30 4256 H 388.439 1.21293 -2.87566 0
M  V30 4257 N 388.74 1.54641 0.303973 0
M  V30 4258 C 389.987 1.7378 1.03955 0
M  V30 4259 C 390.315 0.521986 1.87365 0
M  V30 4260 O 389.57 -0.496099 1.89308 0
M  V30 4261 C 389.869 2.97753 1.97681 0
M  V30 4262 C 389.535 4.31671 1.30271 0
M  V30 4263 C 388.197 4.68075 1.11619 0
M  V30 4264 C 390.549 5.147 0.82055 0
M  V30 4265 C 387.877 5.8509 0.434304 0
M  V30 4266 C 390.229 6.32416 0.152395 0
M  V30 4267 C 388.893 6.67484 -0.0461067 0
M  V30 4268 H 388.163 0.635908 0.380398 0
M  V30 4269 H 390.81 1.88896 0.314718 0
M  V30 4270 H 389.115 2.77406 2.76682 0
M  V30 4271 H 390.812 3.09756 2.54661 0
M  V30 4272 H 387.402 4.03041 1.45795 0
M  V30 4273 H 391.586 4.87077 0.952374 0
M  V30 4274 H 386.842 6.10806 0.269495 0
M  V30 4275 H 391.016 6.96023 -0.229126 0
M  V30 4276 H 388.643 7.58011 -0.576494 0
M  V30 4277 N 390.218 -0.567019 1.47046 0
M  V30 4278 C 391.148 -1.68482 1.61667 0
M  V30 4279 C 392.129 -1.6358 0.466418 0
M  V30 4280 O 393.314 -1.81354 0.694574 0
M  V30 4281 C 390.444 -3.07124 1.62148 0
M  V30 4282 C 389.398 -3.26867 2.76301 0
M  V30 4283 C 388.724 -4.66196 2.61849 0
M  V30 4284 C 390.024 -3.13186 4.17986 0
M  V30 4285 H 391.718 -1.56502 2.5524 0
M  V30 4286 H 389.264 -0.751486 1.22836 0
M  V30 4287 H 391.217 -3.8516 1.70968 0
M  V30 4288 H 389.941 -3.2004 0.651287 0
M  V30 4289 H 388.6 -2.51237 2.66975 0
M  V30 4290 H 388.248 -4.75898 1.62879 0
M  V30 4291 H 387.948 -4.80356 3.38425 0
M  V30 4292 H 389.472 -5.46379 2.72584 0
M  V30 4293 H 390.886 -3.81049 4.2834 0
M  V30 4294 H 389.283 -3.3886 4.95272 0
M  V30 4295 H 390.353 -2.10057 4.3704 0
M  V30 4296 N 391.696 -1.35014 -0.812953 0
M  V30 4297 C 393.112 -1.14914 -1.10757 0
M  V30 4298 C 393.312 0.0426818 -2.01455 0
M  V30 4299 O 392.368 0.715212 -2.42159 0
M  V30 4300 C 393.681 -2.44911 -1.74468 0
M  V30 4301 C 395.229 -2.5106 -1.86917 0
M  V30 4302 C 395.704 -3.81085 -2.54044 0
M  V30 4303 N 397.195 -3.82301 -2.61535 0
M  V30 4304 C 397.93 -4.79634 -3.14227 0
M  V30 4305 N 397.426 -5.87353 -3.67407 0
M  V30 4306 N 399.219 -4.67078 -3.12721 0
M  V30 4307 H 391.37 -2.1136 -0.20989 0
M  V30 4308 H 393.633 -0.935128 -0.155692 0
M  V30 4309 H 393.339 -3.32267 -1.15289 0
M  V30 4310 H 393.213 -2.58989 -2.74234 0
M  V30 4311 H 395.6 -1.64137 -2.45241 0
M  V30 4312 H 395.681 -2.40901 -0.860242 0
M  V30 4313 H 395.325 -4.68402 -1.96372 0
M  V30 4314 H 395.255 -3.88529 -3.55461 0
M  V30 4315 H 397.746 -3.04465 -2.23851 0
M  V30 4316 H 398.059 -6.57624 -4.05894 0
M  V30 4317 H 396.404 -5.91054 -3.65623 0
M  V30 4318 H 399.595 -3.82067 -2.70449 0
M  V30 4319 H 399.768 -5.43098 -3.53481 0
M  V30 4320 N 393.175 1.03435 -1.18907 0
M  V30 4321 C 394.107 2.1165 -0.879595 0
M  V30 4322 C 395.12 1.62316 0.125439 0
M  V30 4323 O 396.309 1.78201 -0.103245 0
M  V30 4324 C 393.409 3.37622 -0.294042 0
M  V30 4325 C 392.582 4.16166 -1.34629 0
M  V30 4326 C 391.641 5.20457 -0.775274 0
M  V30 4327 O 390.667 5.50379 -1.4516 0
M  V30 4328 N 391.869 5.78949 0.424126 0
M  V30 4329 H 394.634 2.38791 -1.81105 0
M  V30 4330 H 392.195 1.19681 -1.09032 0
M  V30 4331 H 394.187 4.04572 0.101679 0
M  V30 4332 H 392.757 3.07873 0.541575 0
M  V30 4333 H 391.977 3.44444 -1.91707 0
M  V30 4334 H 393.265 4.65432 -2.05549 0
M  V30 4335 H 392.663 5.56948 0.991209 0
M  V30 4336 H 391.22 6.47334 0.761691 0
M  V30 4337 N 394.653 0.992116 1.22453 0
M  V30 4338 C 395.883 0.684949 1.94915 0
M  V30 4339 C 396.291 -0.754292 1.73514 0
M  V30 4340 O 395.634 -1.52056 1.03076 0
M  V30 4341 C 395.696 0.910054 3.47791 0
M  V30 4342 C 395.36 2.33363 3.92926 0
M  V30 4343 C 396.357 3.31308 4.00663 0
M  V30 4344 C 394.042 2.66785 4.25595 0
M  V30 4345 C 396.036 4.6075 4.40441 0
M  V30 4346 C 393.723 3.96446 4.65053 0
M  V30 4347 C 394.721 4.9324 4.72444 0
M  V30 4348 O 394.409 6.20584 5.1101 0
M  V30 4349 H 394.141 0.25258 0.62704 0
M  V30 4350 H 396.695 1.32939 1.56577 0
M  V30 4351 H 394.925 0.208443 3.86138 0
M  V30 4352 H 396.614 0.598257 4.01467 0
M  V30 4353 H 397.38 3.0682 3.75615 0
M  V30 4354 H 393.259 1.92148 4.19047 0
M  V30 4355 H 396.803 5.363 4.46126 0
M  V30 4356 H 392.7 4.20724 4.89552 0
M  V30 4357 H 393.468 6.24509 5.29085 0
M  V30 4358 N 396.131 -1.37776 0.765217 0
M  V30 4359 C 397.379 -1.99454 0.325943 0
M  V30 4360 C 397.7 -1.61049 -1.09947 0
M  V30 4361 O 396.97 -0.872821 -1.75381 0
M  V30 4362 H 395.55 -0.737697 0.117525 0
M  V30 4363 H 398.212 -1.68359 0.981895 0
M  V30 4364 H 397.308 -3.09547 0.398353 0
M  V30 4365 N 397.609 -0.515225 -1.4894 0
M  V30 4366 C 398.834 0.022727 -2.07388 0
M  V30 4367 C 399.259 1.2876 -1.37122 0
M  V30 4368 O 398.617 1.76067 -0.432431 0
M  V30 4369 C 398.665 0.244869 -3.59768 0
M  V30 4370 O 397.769 1.31667 -3.90817 0
M  V30 4371 H 397.11 -0.0325506 -0.663202 0
M  V30 4372 H 399.64 -0.718918 -1.91553 0
M  V30 4373 H 399.65 0.47205 -4.0526 0
M  V30 4374 H 398.325 -0.679194 -4.10317 0
M  V30 4375 H 396.902 1.07331 -3.5712 0
M  V30 4376 N 399.087 1.5561 -0.249682 0
M  V30 4377 C 400.05 2.20217 0.635394 0
M  V30 4378 C 401.05 1.17227 1.10066 0
M  V30 4379 O 402.24 1.42292 1.00492 0
M  V30 4380 C 399.372 2.84794 1.87363 0
M  V30 4381 H 400.565 2.99814 0.0716752 0
M  V30 4382 H 398.118 1.563 -0.000153234 0
M  V30 4383 H 398.853 2.09142 2.47851 0
M  V30 4384 H 398.638 3.60241 1.5482 0
M  V30 4385 H 400.128 3.3423 2.5036 0
M  V30 4386 N 400.565 -0.0233959 1.57583 0
M  V30 4387 C 401.976 -0.56927 1.77809 0
M  V30 4388 C 402.327 -1.75284 0.881472 0
M  V30 4389 O 401.452 -2.1626 0.0777805 0
M  V30 4390 C 402.047 -1.03949 3.22459 0
M  V30 4391 C 400.606 -1.53084 3.43864 0
M  V30 4392 C 399.753 -0.471454 2.73263 0
M  V30 4393 H 402.704 0.202825 1.57399 0
M  V30 4394 H 402.725 -1.90661 3.29285 0
M  V30 4395 H 402.237 -0.177865 3.87692 0
M  V30 4396 H 400.338 -2.41414 2.83814 0
M  V30 4397 H 400.451 -1.57443 4.52491 0
M  V30 4398 H 398.815 -0.927788 2.37201 0
M  V30 4399 H 399.598 0.380808 3.41181 0
M  V30 4400 N 402.043 -1.548 -0.295768 0
M  V30 4401 C 403.32 -1.65014 -1.05023 0
M  V30 4402 C 403.7 -0.501805 -2.05049 0
M  V30 4403 O 403.048 0.500869 -2.22943 0
M  V30 4404 C 403.258 -3.03252 -1.72741 0
M  V30 4405 C 404.606 -3.60242 -2.24746 0
M  V30 4406 O 405.63 -3.05737 -1.82765 0
M  V30 4407 O 404.489 -4.55687 -3.01681 0
M  V30 4408 H 401.583 -0.669314 -0.485744 0
M  V30 4409 H 404.129 -1.67144 -0.293438 0
M  V30 4410 H 402.901 -3.7827 -1.00138 0
M  V30 4411 H 402.524 -3.04922 -2.55163 0
M  V30 4412 N 403.521 0.559213 -1.47345 0
M  V30 4413 C 404.767 1.31843 -1.54095 0
M  V30 4414 C 405.1 1.93149 -0.201726 0
M  V30 4415 O 404.375 1.77759 0.789428 0
M  V30 4416 C 404.658 2.43006 -2.65744 0
M  V30 4417 C 404.511 1.86581 -4.09277 0
M  V30 4418 C 405.83 3.44943 -2.73318 0
M  V30 4419 H 402.949 0.478012 -0.560957 0
M  V30 4420 H 405.591 0.625977 -1.79392 0
M  V30 4421 H 403.741 3.02072 -2.44305 0
M  V30 4422 H 405.413 1.31792 -4.42073 0
M  V30 4423 H 403.656 1.17268 -4.17649 0
M  V30 4424 H 404.327 2.66933 -4.83168 0
M  V30 4425 H 406.803 2.95793 -2.92653 0
M  V30 4426 H 405.679 4.20153 -3.53218 0
M  V30 4427 H 405.94 4.03665 -1.80296 0
M  V30 4428 N 404.999 1.35443 0.805782 0
M  V30 4429 C 406.41 1.25768 1.37983 0
M  V30 4430 C 406.761 -0.10958 1.95894 0
M  V30 4431 O 405.886 -1.01056 1.91355 0
M  V30 4432 C 406.481 2.27727 2.5085 0
M  V30 4433 C 405.04 2.2179 3.04115 0
M  V30 4434 C 404.187 2.13393 1.77084 0
M  V30 4435 H 407.138 1.4656 0.608752 0
M  V30 4436 H 407.159 1.90422 3.29424 0
M  V30 4437 H 406.671 3.27227 2.08671 0
M  V30 4438 H 404.772 1.25703 3.50756 0
M  V30 4439 H 404.885 3.13788 3.62042 0
M  V30 4440 H 403.249 1.59384 1.98668 0
M  V30 4441 H 404.032 3.14755 1.37056 0
M  V30 4442 N 406.477 -1.02803 1.19454 0
M  V30 4443 C 407.888 -1.57667 0.999899 0
M  V30 4444 C 408.239 -1.91041 -0.446956 0
M  V30 4445 O 407.364 -1.70978 -1.32648 0
M  V30 4446 C 407.959 -2.86477 1.80877 0
M  V30 4447 C 406.518 -3.37911 1.65811 0
M  V30 4448 C 405.665 -2.11343 1.79526 0
M  V30 4449 H 408.616 -0.853214 1.33813 0
M  V30 4450 H 408.637 -3.57408 1.30536 0
M  V30 4451 H 408.149 -2.62155 2.86175 0
M  V30 4452 H 406.25 -3.67218 0.63102 0
M  V30 4453 H 406.363 -4.10885 2.46395 0
M  V30 4454 H 404.727 -2.23254 1.22596 0
M  V30 4455 H 405.51 -1.89461 2.86285 0
M  V30 4456 N 407.956 -0.998596 -1.21925 0
M  V30 4457 C 409.196 -0.685948 -1.92546 0
M  V30 4458 C 409.56 0.768441 -1.75952 0
M  V30 4459 O 410.761 1.19277 -2.40887 0
M  V30 4460 C 409.032 -1.08767 -3.40448 0
M  V30 4461 S 410.591 -0.894251 -4.29591 0
M  V30 4462 H 407.409 -0.250622 -0.665364 0
M  V30 4463 H 410.011 -1.28207 -1.47591 0
M  V30 4464 H 408.715 -2.14242 -3.50041 0
M  V30 4465 H 408.246 -0.48357 -3.90417 0
M  V30 4466 H 410.261 0.212149 -4.95746 0
M  V30 4467 N 409.434 1.37368 -0.772513 0
M  V30 4468 C 410.68 1.99969 -0.337681 0
M  V30 4469 C 411.013 1.61184 1.08321 0
M  V30 4470 O 410.288 0.858395 1.74533 0
M  V30 4471 C 410.571 3.56858 -0.482121 0
M  V30 4472 C 410.424 4.0555 -1.94549 0
M  V30 4473 C 411.743 4.39955 0.113143 0
M  V30 4474 H 408.862 0.726464 -0.124171 0
M  V30 4475 H 411.504 1.63034 -0.975699 0
M  V30 4476 H 409.654 3.88452 0.0610361 0
M  V30 4477 H 411.326 3.84518 -2.54841 0
M  V30 4478 H 409.569 3.57715 -2.45403 0
M  V30 4479 H 410.24 5.14587 -1.9976 0
M  V30 4480 H 412.716 4.14623 -0.35031 0
M  V30 4481 H 411.592 5.48897 -0.0180514 0
M  V30 4482 H 411.853 4.25403 1.20354 0
M  V30 4483 N 410.912 0.523116 1.48665 0
M  V30 4484 C 412.14 -0.0096312 2.06898 0
M  V30 4485 C 412.555 -1.28784 1.38059 0
M  V30 4486 O 411.912 -1.76453 0.465893 0
M  V30 4487 C 411.963 -0.244386 3.60673 0
M  V30 4488 O 411.684 0.983172 4.26925 0
M  V30 4489 C 413.185 -0.818289 4.35682 0
M  V30 4490 H 410.405 0.0304161 0.67031 0
M  V30 4491 H 412.949 0.726799 1.91149 0
M  V30 4492 H 411.104 -0.930847 3.76051 0
M  V30 4493 H 411.518 0.759653 5.1897 0
M  V30 4494 H 412.992 -0.93201 5.44075 0
M  V30 4495 H 413.469 -1.82153 3.99646 0
M  V30 4496 H 414.075 -0.168609 4.24966 0
M  V30 4497 N 412.39 -1.55475 0.257931 0
M  V30 4498 C 413.637 -1.99207 -0.363728 0
M  V30 4499 C 413.965 -1.1462 -1.57139 0
M  V30 4500 O 413.22 -0.199653 -1.94679 0
M  V30 4501 C 413.519 -3.48183 -0.806433 0
M  V30 4502 C 413.185 -4.49936 0.294684 0
M  V30 4503 C 411.847 -4.77481 0.597076 0
M  V30 4504 C 414.199 -5.10769 1.03751 0
M  V30 4505 C 411.527 -5.63132 1.64618 0
M  V30 4506 C 413.879 -5.97558 2.07622 0
M  V30 4507 C 412.543 -6.23432 2.38514 0
M  V30 4508 H 411.813 -0.728949 -0.133097 0
M  V30 4509 H 414.46 -1.8793 0.368059 0
M  V30 4510 H 412.765 -3.56848 -1.61761 0
M  V30 4511 H 414.462 -3.79415 -1.29789 0
M  V30 4512 H 411.052 -4.28572 0.0488649 0
M  V30 4513 H 415.236 -4.89527 0.817149 0
M  V30 4514 H 410.492 -5.8143 1.89074 0
M  V30 4515 H 414.666 -6.43735 2.65666 0
M  V30 4516 H 412.293 -6.89594 3.19943 0
M  V30 4517 N 413.868 0.0150385 -1.57593 0
M  V30 4518 C 415.145 0.7392 -1.81094 0
M  V30 4519 C 415.525 1.92817 -0.859344 0
M  V30 4520 O 414.873 2.28301 0.095362 0
M  V30 4521 C 415.083 1.15907 -3.29191 0
M  V30 4522 C 416.431 1.56918 -3.9454 0
M  V30 4523 O 417.455 1.25328 -3.33424 0
M  V30 4524 O 416.314 2.15604 -5.02173 0
M  V30 4525 H 413.408 0.358631 -0.745193 0
M  V30 4526 H 415.954 -0.00926156 -1.69697 0
M  V30 4527 H 414.726 0.310921 -3.90063 0
M  V30 4528 H 414.349 1.96711 -3.45529 0
M  V30 4529 N 415.346 1.54954 0.287554 0
M  V30 4530 C 416.256 1.8991 1.37736 0
M  V30 4531 C 417.272 0.794701 1.54792 0
M  V30 4532 O 418.448 1.09243 1.69198 0
M  V30 4533 C 415.513 2.15108 2.71899 0
M  V30 4534 C 414.574 3.38752 2.63715 0
M  V30 4535 C 413.807 3.62739 3.91479 0
M  V30 4536 O 414.03 2.89492 4.91478 0
M  V30 4537 O 412.964 4.56267 3.92561 0
M  V30 4538 H 416.79 2.82652 1.11092 0
M  V30 4539 H 414.375 1.41315 0.484807 0
M  V30 4540 H 416.257 2.32806 3.51254 0
M  V30 4541 H 414.932 1.25551 2.9836 0
M  V30 4542 H 413.839 3.26405 1.82786 0
M  V30 4543 H 415.172 4.28483 2.42205 0
M  V30 4544 N 416.824 -0.551391 1.4764 0
M  V30 4545 C 418.049 -1.33837 1.58437 0
M  V30 4546 C 418.474 -1.866 0.237063 0
M  V30 4547 O 417.832 -1.6328 -0.787994 0
M  V30 4548 C 417.88 -2.48014 2.61766 0
M  V30 4549 O 416.984 -3.50419 2.1744 0
M  V30 4550 H 416.325 -0.397299 0.532024 0
M  V30 4551 H 418.855 -0.665759 1.93465 0
M  V30 4552 H 418.865 -2.94503 2.82369 0
M  V30 4553 H 417.54 -2.08969 3.5959 0
M  V30 4554 H 416.117 -3.10196 2.06961 0
M  V30 4555 N 418.302 -1.35869 -0.798587 0
M  V30 4556 C 419.232 -1.32118 -1.92528 0
M  V30 4557 C 420.213 -0.194209 -1.68988 0
M  V30 4558 O 421.398 -0.390426 -1.90235 0
M  V30 4559 C 418.528 -1.10047 -3.29404 0
M  V30 4560 C 417.482 -2.19471 -3.67446 0
M  V30 4561 C 416.808 -1.82555 -5.02571 0
M  V30 4562 C 418.108 -3.61495 -3.76987 0
M  V30 4563 H 419.802 -2.26394 -1.95924 0
M  V30 4564 H 417.348 -1.08981 -0.94123 0
M  V30 4565 H 419.301 -1.06061 -4.07835 0
M  V30 4566 H 418.025 -0.122195 -3.26371 0
M  V30 4567 H 416.684 -2.22568 -2.91306 0
M  V30 4568 H 416.332 -0.833249 -4.9605 0
M  V30 4569 H 416.032 -2.5581 -5.28995 0
M  V30 4570 H 417.556 -1.80108 -5.83432 0
M  V30 4571 H 418.97 -3.60676 -4.4563 0
M  V30 4572 H 417.367 -4.33577 -4.14887 0
M  V30 4573 H 418.437 -3.97065 -2.78329 0
M  V30 4574 N 419.78 1.02168 -1.19998 0
M  V30 4575 C 420.71 2.12488 -0.96804 0
M  V30 4576 C 421.691 1.69799 0.101185 0
M  V30 4577 O 422.876 1.94121 -0.0552993 0
M  V30 4578 C 420.006 3.43479 -0.513776 0
M  V30 4579 C 418.96 3.99884 -1.52566 0
M  V30 4580 C 418.286 5.26582 -0.928214 0
M  V30 4581 C 419.586 4.33861 -2.90795 0
M  V30 4582 H 421.28 2.32149 -1.89069 0
M  V30 4583 H 418.826 1.11564 -0.910468 0
M  V30 4584 H 420.779 4.20036 -0.338774 0
M  V30 4585 H 419.503 3.23561 0.444493 0
M  V30 4586 H 418.162 3.25429 -1.68794 0
M  V30 4587 H 417.81 5.02986 0.0378289 0
M  V30 4588 H 417.51 5.65284 -1.60397 0
M  V30 4589 H 419.034 6.05799 -0.764167 0
M  V30 4590 H 420.448 5.01327 -2.78109 0
M  V30 4591 H 418.845 4.83664 -3.55231 0
M  V30 4592 H 419.915 3.42848 -3.42904 0
M  V30 4593 N 421.258 1.00505 1.21394 0
M  V30 4594 C 422.168 0.574806 2.27449 0
M  V30 4595 C 423.184 -0.382206 1.6975 0
M  V30 4596 O 424.36 -0.246027 1.99892 0
M  V30 4597 C 421.425 -0.0917414 3.46579 0
M  V30 4598 C 420.486 0.909758 4.1955 0
M  V30 4599 C 419.719 0.274924 5.32991 0
M  V30 4600 O 419.942 -0.928254 5.62796 0
M  V30 4601 O 418.876 0.985877 5.93771 0
M  V30 4602 H 422.702 1.45744 2.66444 0
M  V30 4603 H 420.287 0.773923 1.27792 0
M  V30 4604 H 422.169 -0.464551 4.18832 0
M  V30 4605 H 420.844 -0.948755 3.09484 0
M  V30 4606 H 419.751 1.33372 3.49518 0
M  V30 4607 H 421.084 1.73636 4.60555 0
M  V30 4608 N 422.737 -1.36956 0.779787 0
M  V30 4609 C 423.647 -2.33965 0.172491 0
M  V30 4610 C 424.663 -1.60574 -0.670222 0
M  V30 4611 O 425.839 -1.92617 -0.588263 0
M  V30 4612 C 422.904 -3.39761 -0.690173 0
M  V30 4613 C 421.965 -4.28964 0.169924 0
M  V30 4614 C 421.198 -5.29707 -0.651662 0
M  V30 4615 O 421.421 -5.38238 -1.88827 0
M  V30 4616 O 420.355 -6.01873 -0.0566264 0
M  V30 4617 H 424.181 -2.87647 0.974321 0
M  V30 4618 H 421.766 -1.39258 0.541078 0
M  V30 4619 H 423.648 -4.04471 -1.1824 0
M  V30 4620 H 422.323 -2.88394 -1.47006 0
M  V30 4621 H 421.23 -3.67326 0.708696 0
M  V30 4622 H 422.563 -4.83656 0.913085 0
M  V30 4623 N 424.215 -0.530993 -1.48385 0
M  V30 4624 C 425.463 0.00273189 -2.021 0
M  V30 4625 C 425.784 1.34672 -1.41027 0
M  V30 4626 O 425.054 1.8724 -0.576012 0
M  V30 4627 H 423.634 0.00399774 -0.746989 0
M  V30 4628 H 426.296 -0.695054 -1.82085 0
M  V30 4629 H 425.392 0.11031 -3.11905 0
M  V30 4630 N 425.693 1.55336 -0.266172 0
M  V30 4631 C 426.603 2.2583 0.635458 0
M  V30 4632 C 427.619 1.28106 1.17749 0
M  V30 4633 O 428.795 1.61024 1.20968 0
M  V30 4634 C 425.86 2.95879 1.80712 0
M  V30 4635 C 424.921 4.09059 1.30265 0
M  V30 4636 C 424.154 4.75759 2.41846 0
M  V30 4637 O 424.377 4.41622 3.61007 0
M  V30 4638 O 423.311 5.63888 2.1051 0
M  V30 4639 H 427.137 3.03631 0.0646693 0
M  V30 4640 H 424.722 1.49361 -0.0339177 0
M  V30 4641 H 426.604 3.39932 2.49047 0
M  V30 4642 H 425.279 2.21002 2.36516 0
M  V30 4643 H 424.186 3.69482 0.586019 0
M  V30 4644 H 425.519 4.85811 0.790458 0
M  V30 4645 N 427.171 -0.0066808 1.57599 0
M  V30 4646 C 428.582 -0.550379 1.78403 0
M  V30 4647 C 428.933 -1.74339 0.900014 0
M  V30 4648 O 428.058 -2.16166 0.100713 0
M  V30 4649 C 428.653 -1.00523 3.23544 0
M  V30 4650 C 427.212 -1.49428 3.45468 0
M  V30 4651 C 426.359 -0.442444 2.73748 0
M  V30 4652 H 429.31 0.219508 1.57175 0
M  V30 4653 H 429.331 -1.87157 3.31289 0
M  V30 4654 H 428.843 -0.136735 3.87859 0
M  V30 4655 H 426.944 -2.3839 2.86358 0
M  V30 4656 H 427.057 -1.52635 4.54136 0
M  V30 4657 H 425.421 -0.902578 2.38171 0
M  V30 4658 H 426.204 0.416973 3.40758 0
M  V30 4659 N 428.649 -1.55105 -0.279332 0
M  V30 4660 C 429.579 -1.90557 -1.34945 0
M  V30 4661 C 430.56 -0.766738 -1.51839 0
M  V30 4662 O 431.745 -1.02434 -1.64988 0
M  V30 4663 C 428.875 -2.17193 -2.71006 0
M  V30 4664 C 427.829 -3.33021 -2.68851 0
M  V30 4665 C 427.155 -3.45123 -4.08405 0
M  V30 4666 C 428.455 -4.69578 -2.28678 0
M  V30 4667 H 430.149 -2.80188 -1.05522 0
M  V30 4668 H 427.695 -1.34811 -0.506173 0
M  V30 4669 H 429.648 -2.40581 -3.45975 0
M  V30 4670 H 428.372 -1.24355 -3.01999 0
M  V30 4671 H 427.031 -3.0959 -1.9634 0
M  V30 4672 H 426.679 -2.49762 -4.3661 0
M  V30 4673 H 426.379 -4.22995 -4.07859 0
M  V30 4674 H 427.903 -3.70796 -4.85121 0
M  V30 4675 H 429.317 -4.92553 -2.93368 0
M  V30 4676 H 427.714 -5.5032 -2.39306 0
M  V30 4677 H 428.784 -4.68828 -1.23807 0
M  V30 4678 N 430.127 0.543554 -1.4793 0
M  V30 4679 C 431.037 1.67657 -1.64098 0
M  V30 4680 C 432.053 1.65934 -0.523622 0
M  V30 4681 O 433.229 1.85133 -0.792943 0
M  V30 4682 C 430.294 3.04146 -1.66421 0
M  V30 4683 C 429.355 3.16831 -2.89684 0
M  V30 4684 C 428.588 4.46809 -2.91886 0
M  V30 4685 O 428.811 5.33095 -2.02895 0
M  V30 4686 O 427.745 4.63573 -3.83906 0
M  V30 4687 H 431.571 1.56957 -2.59997 0
M  V30 4688 H 429.156 0.715116 -1.31173 0
M  V30 4689 H 431.038 3.85346 -1.70548 0
M  V30 4690 H 429.713 3.152 -0.736923 0
M  V30 4691 H 428.62 2.34977 -2.91095 0
M  V30 4692 H 429.953 3.10687 -3.81752 0
M  V30 4693 N 431.605 1.3629 0.791371 0
M  V30 4694 C 433.016 1.27225 1.36641 0
M  V30 4695 C 433.367 -0.0887968 1.95999 0
M  V30 4696 O 432.492 -0.990207 1.92416 0
M  V30 4697 C 433.087 2.30375 2.48421 0
M  V30 4698 C 431.646 2.25004 3.01746 0
M  V30 4699 C 430.793 2.15259 1.7481 0
M  V30 4700 H 433.744 1.47198 0.593173 0
M  V30 4701 H 433.765 1.93905 3.27385 0
M  V30 4702 H 433.277 3.29422 2.05189 0
M  V30 4703 H 431.378 1.29417 3.49403 0
M  V30 4704 H 431.491 3.1761 3.58693 0
M  V30 4705 H 429.855 1.61482 1.96966 0
M  V30 4706 H 430.638 3.16191 1.33709 0
M  V30 4707 N 433.083 -1.0153 1.20538 0
M  V30 4708 C 434.331 -1.74803 1.01432 0
M  V30 4709 C 434.652 -1.8963 -0.454456 0
M  V30 4710 O 433.922 -1.43975 -1.32846 0
M  V30 4711 H 432.502 -0.647598 0.372324 0
M  V30 4712 H 435.164 -1.22402 1.5167 0
M  V30 4713 H 434.26 -2.75114 1.47373 0
M  V30 4714 N 434.561 -1.01147 -1.20859 0
M  V30 4715 C 435.471 -0.58686 -2.27141 0
M  V30 4716 C 436.487 0.373198 -1.69951 0
M  V30 4717 O 437.663 0.235423 -2.00019 0
M  V30 4718 C 434.728 0.0733602 -3.46622 0
M  V30 4719 C 433.789 -0.931995 -4.19061 0
M  V30 4720 C 433.022 -0.303186 -5.32838 0
M  V30 4721 O 433.245 0.898395 -5.63281 0
M  V30 4722 O 432.179 -1.01735 -5.9324 0
M  V30 4723 H 436.005 -1.47155 -2.65667 0
M  V30 4724 H 433.59 -0.780689 -1.2738 0
M  V30 4725 H 435.472 0.442333 -4.19072 0
M  V30 4726 H 434.147 0.932329 -3.09983 0
M  V30 4727 H 433.054 -1.35224 -3.48805 0
M  V30 4728 H 434.387 -1.76076 -4.59628 0
M  V30 4729 N 436.039 1.36541 -0.78704 0
M  V30 4730 C 436.969 2.32659 -0.197992 0
M  V30 4731 C 437.95 1.56533 0.665697 0
M  V30 4732 O 439.135 1.84698 0.60001 0
M  V30 4733 C 436.265 3.40778 0.669901 0
M  V30 4734 C 435.219 4.27897 -0.0937039 0
M  V30 4735 C 434.545 5.27163 0.894629 0
M  V30 4736 C 435.845 5.06334 -1.28154 0
M  V30 4737 H 437.539 2.82171 -1.00099 0
M  V30 4738 H 435.085 1.35665 -0.482793 0
M  V30 4739 H 437.038 4.07008 1.09191 0
M  V30 4740 H 435.762 2.89827 1.50558 0
M  V30 4741 H 434.421 3.6322 -0.49666 0
M  V30 4742 H 434.069 4.72486 1.72527 0
M  V30 4743 H 433.769 5.86317 0.388149 0
M  V30 4744 H 435.293 5.96266 1.31525 0
M  V30 4745 H 436.707 5.65617 -0.93541 0
M  V30 4746 H 435.104 5.74888 -1.72115 0
M  V30 4747 H 436.174 4.38114 -2.07807 0
M  V30 4748 N 437.518 0.538854 1.48102 0
M  V30 4749 C 438.45 -0.256278 2.27763 0
M  V30 4750 C 439.463 -0.89633 1.35904 0
M  V30 4751 O 440.652 -0.773275 1.60881 0
M  V30 4752 C 437.752 -1.37896 3.09577 0
M  V30 4753 C 436.925 -0.839159 4.29275 0
M  V30 4754 C 435.984 -1.84405 4.9283 0
M  V30 4755 O 435.01 -1.39746 5.51779 0
M  V30 4756 N 436.212 -3.17666 4.85869 0
M  V30 4757 H 438.977 0.426968 2.96643 0
M  V30 4758 H 436.538 0.373747 1.57527 0
M  V30 4759 H 438.53 -2.04955 3.48963 0
M  V30 4760 H 437.1 -1.96572 2.4306 0
M  V30 4761 H 436.32 0.00769287 3.94199 0
M  V30 4762 H 437.608 -0.457548 5.06739 0
M  V30 4763 H 437.006 -3.56609 4.39143 0
M  V30 4764 H 435.563 -3.80334 5.29329 0
M  V30 4765 N 438.996 -1.55193 0.274407 0
M  V30 4766 C 439.926 -2.25471 -0.607032 0
M  V30 4767 C 440.907 -1.24461 -1.15946 0
M  V30 4768 O 442.092 -1.53179 -1.19373 0
M  V30 4769 C 439.222 -2.97526 -1.79153 0
M  V30 4770 C 438.176 -4.05459 -1.37067 0
M  V30 4771 C 437.502 -4.65084 -2.6382 0
M  V30 4772 C 438.802 -5.19691 -0.521389 0
M  V30 4773 H 440.496 -2.99393 -0.0209343 0
M  V30 4774 H 438.042 -1.43997 -0.00862866 0
M  V30 4775 H 439.995 -3.45402 -2.41404 0
M  V30 4776 H 438.719 -2.21138 -2.40344 0
M  V30 4777 H 437.378 -3.58393 -0.771355 0
M  V30 4778 H 437.026 -3.85365 -3.23268 0
M  V30 4779 H 436.726 -5.37961 -2.36372 0
M  V30 4780 H 438.25 -5.15708 -3.26921 0
M  V30 4781 H 439.664 -5.63623 -1.04889 0
M  V30 4782 H 438.061 -5.99126 -0.341825 0
M  V30 4783 H 439.131 -4.82713 0.46 0
M  V30 4784 N 440.474 -0.00167713 -1.576 0
M  V30 4785 C 441.422 1.0074 -2.09652 0
M  V30 4786 C 442.416 1.35483 -1.01689 0
M  V30 4787 O 443.622 1.34028 -1.20152 0
M  V30 4788 H 439.997 0.342537 -0.669457 0
M  V30 4789 H 441.968 0.542841 -2.93421 0
M  V30 4790 C 440.717 2.2899 -2.61647 0
M  V30 4791 H 440.04 2.03124 -3.44355 0
M  V30 4792 H 441.48 2.9787 -3.01744 0
M  V30 4793 C 439.939 3.00085 -1.53136 0
M  V30 4794 O 440.469 3.91135 -0.91524 0
M  V30 4795 N 438.675 2.6194 -1.25841 0
M  V30 4796 H 438.222 1.8798 -1.76129 0
M  V30 4797 H 438.18 3.09822 -0.534576 0
M  V30 4798 N 441.952 1.55251 0.271103 0
M  V30 4799 C 442.862 1.9136 1.35714 0
M  V30 4800 C 443.878 0.811075 1.5394 0
M  V30 4801 O 445.054 1.11031 1.6803 0
M  V30 4802 C 442.119 2.1798 2.69603 0
M  V30 4803 C 441.18 3.4153 2.60107 0
M  V30 4804 C 440.413 3.66871 3.8761 0
M  V30 4805 O 440.636 2.94689 4.8838 0
M  V30 4806 O 439.57 4.60405 3.87699 0
M  V30 4807 H 443.396 2.83815 1.08088 0
M  V30 4808 H 440.981 1.41821 0.469792 0
M  V30 4809 H 442.863 2.36518 3.48765 0
M  V30 4810 H 441.538 1.28708 2.97012 0
M  V30 4811 H 440.445 3.28325 1.79314 0
M  V30 4812 H 441.778 4.31027 2.37647 0
M  V30 4813 N 443.43 -0.535701 1.48216 0
M  V30 4814 C 444.36 -1.65014 1.65204 0
M  V30 4815 C 445.341 -1.62554 0.501011 0
M  V30 4816 O 446.526 -1.7984 0.732886 0
M  V30 4817 C 443.656 -3.03616 1.68626 0
M  V30 4818 C 442.61 -3.20932 2.83172 0
M  V30 4819 C 441.936 -4.60537 2.71679 0
M  V30 4820 C 443.236 -3.04249 4.24535 0
M  V30 4821 H 444.93 -1.51053 2.58502 0
M  V30 4822 H 442.476 -0.725262 1.24402 0
M  V30 4823 H 444.429 -3.81446 1.79099 0
M  V30 4824 H 443.153 -3.18587 0.719026 0
M  V30 4825 H 441.812 -2.45517 2.72244 0
M  V30 4826 H 441.46 -4.72336 1.72937 0
M  V30 4827 H 441.16 -4.73069 3.48538 0
M  V30 4828 H 442.684 -5.40475 2.84112 0
M  V30 4829 H 444.098 -3.71877 4.36326 0
M  V30 4830 H 442.495 -3.28278 5.02348 0
M  V30 4831 H 443.565 -2.00739 4.41397 0
M  V30 4832 N 444.908 -1.36708 -0.784132 0
M  V30 4833 C 446.136 -1.34398 -1.57305 0
M  V30 4834 C 446.551 0.0735577 -1.88657 0
M  V30 4835 O 445.908 1.03193 -1.50524 0
M  V30 4836 C 445.959 -2.17053 -2.89085 0
M  V30 4837 O 445.68 -3.53281 -2.59083 0
M  V30 4838 C 447.181 -2.22583 -3.83369 0
M  V30 4839 H 444.401 -0.460819 -0.487736 0
M  V30 4840 H 446.945 -1.79879 -0.972819 0
M  V30 4841 H 445.1 -1.75113 -3.45564 0
M  V30 4842 H 445.514 -3.9647 -3.43383 0
M  V30 4843 H 446.988 -2.84763 -4.72878 0
M  V30 4844 H 447.465 -1.23075 -4.21603 0
M  V30 4845 H 448.071 -2.64781 -3.32823 0
M  V30 4846 N 446.386 1.0089 -1.21074 0
M  V30 4847 C 447.632 1.74866 -1.02712 0
M  V30 4848 C 447.965 1.89178 0.438787 0
M  V30 4849 O 447.24 1.42325 1.32567 0
M  V30 4850 C 447.523 3.16347 -1.72036 0
M  V30 4851 C 447.376 3.09782 -3.26121 0
M  V30 4852 C 448.695 4.15187 -1.45973 0
M  V30 4853 H 445.814 0.634736 -0.374539 0
M  V30 4854 H 448.456 1.17646 -1.49196 0
M  V30 4855 H 446.606 3.65201 -1.32517 0
M  V30 4856 H 448.278 2.68673 -3.74983 0
M  V30 4857 H 446.521 2.46982 -3.56626 0
M  V30 4858 H 447.192 4.09829 -3.6979 0
M  V30 4859 H 449.668 3.75022 -1.80272 0
M  V30 4860 H 448.544 5.12331 -1.96999 0
M  V30 4861 H 448.805 4.40386 -0.388924 0
M  V30 4862 N 447.864 1.01787 1.20321 0
M  V30 4863 C 448.774 0.598898 2.26827 0
M  V30 4864 C 449.79 -0.36418 1.70146 0
M  V30 4865 O 450.966 -0.224812 2.00141 0
M  V30 4866 C 448.031 -0.0549769 3.46656 0
M  V30 4867 C 447.092 0.954205 4.18561 0
M  V30 4868 C 446.325 0.331439 5.3267 0
M  V30 4869 O 446.548 -0.86851 5.63749 0
M  V30 4870 O 445.482 1.0488 5.92692 0
M  V30 4871 H 449.308 1.48562 2.64883 0
M  V30 4872 H 446.893 0.787434 1.26964 0
M  V30 4873 H 448.775 -0.420102 4.19301 0
M  V30 4874 H 447.45 -0.915876 3.10473 0
M  V30 4875 H 446.357 1.37072 3.48083 0
M  V30 4876 H 447.69 1.78511 4.58688 0
M  V30 4877 N 449.342 -1.36122 0.79427 0
M  V30 4878 C 450.567 -2.03891 0.379871 0
M  V30 4879 C 450.992 -1.59488 -0.997251 0
M  V30 4880 O 450.35 -0.765652 -1.64339 0
M  V30 4881 C 450.398 -3.57687 0.457442 0
M  V30 4882 O 449.502 -4.08931 -0.5338 0
M  V30 4883 H 448.843 -0.6443 0.160541 0
M  V30 4884 H 451.373 -1.73976 1.07673 0
M  V30 4885 H 451.383 -4.06721 0.322792 0
M  V30 4886 H 450.058 -3.89357 1.46199 0
M  V30 4887 H 448.635 -3.71154 -0.360409 0
M  V30 4888 N 450.82 -0.546701 -1.47814 0
M  V30 4889 C 452.066 -0.0187684 -2.02791 0
M  V30 4890 C 452.399 1.32338 -1.42128 0
M  V30 4891 O 451.674 1.85867 -0.573023 0
M  V30 4892 C 451.957 0.0854985 -3.59998 0
M  V30 4893 C 451.81 -1.283 -4.31114 0
M  V30 4894 C 453.129 0.80412 -4.32691 0
M  V30 4895 H 450.248 -0.0082946 -0.736953 0
M  V30 4896 H 452.89 -0.706962 -1.76358 0
M  V30 4897 H 451.04 0.671609 -3.82651 0
M  V30 4898 H 452.712 -1.91151 -4.19832 0
M  V30 4899 H 450.955 -1.86049 -3.91878 0
M  V30 4900 H 451.626 -1.16287 -5.39612 0
M  V30 4901 H 454.102 0.306576 -4.14969 0
M  V30 4902 H 452.978 0.846011 -5.42341 0
M  V30 4903 H 453.239 1.85802 -4.01161 0
M  V30 4904 N 452.299 1.55045 -0.282633 0
M  V30 4905 C 453.231 2.2023 0.634924 0
M  V30 4906 C 454.244 1.18931 1.11172 0
M  V30 4907 O 455.433 1.4562 1.03233 0
M  V30 4908 C 452.533 2.82041 1.87899 0
M  V30 4909 C 451.706 4.091 1.54776 0
M  V30 4910 C 450.765 4.54887 2.64507 0
M  V30 4911 O 449.791 5.20496 2.30375 0
M  V30 4912 N 450.993 4.25659 3.94709 0
M  V30 4913 H 453.758 2.99601 0.0769811 0
M  V30 4914 H 451.319 1.61565 -0.104048 0
M  V30 4915 H 453.311 3.09613 2.60619 0
M  V30 4916 H 451.881 2.06618 2.3458 0
M  V30 4917 H 451.101 3.88736 0.654049 0
M  V30 4918 H 452.389 4.9187 1.30158 0
M  V30 4919 H 451.787 3.7306 4.25256 0
M  V30 4920 H 450.344 4.57984 4.63782 0
M  V30 4921 N 453.777 0.010035 1.57597 0
M  V30 4922 C 454.727 -0.986858 2.05536 0
M  V30 4923 C 455.711 -1.29711 0.952042 0
M  V30 4924 O 456.903 -1.28641 1.21575 0
M  V30 4925 C 454.032 -2.2756 2.57043 0
M  V30 4926 C 453.118 -1.99455 3.74271 0
M  V30 4927 N 453.509 -1.41546 4.85591 0
M  V30 4928 C 451.807 -2.29547 3.82393 0
M  V30 4929 C 452.508 -1.3014 5.66956 0
M  V30 4930 N 451.484 -1.79044 5.13268 0
M  V30 4931 H 455.286 -0.533778 2.89012 0
M  V30 4932 H 452.8 -0.195432 1.6122 0
M  V30 4933 H 454.797 -2.99829 2.89669 0
M  V30 4934 H 453.457 -2.73512 1.7499 0
M  V30 4935 H 454.468 -1.09294 5.06236 0
M  V30 4936 H 451.145 -2.78304 3.11213 0
M  V30 4937 H 452.535 -0.855237 6.66435 0
M  V30 4938 N 455.255 -1.55392 -0.262866 0
M  V30 4939 C 456.483 -1.80513 -1.01108 0
M  V30 4940 C 456.898 -0.583533 -1.79556 0
M  V30 4941 O 456.255 0.447585 -1.76926 0
M  V30 4942 C 456.306 -3.03648 -1.96164 0
M  V30 4943 O 456.027 -4.2109 -1.20893 0
M  V30 4944 C 457.528 -3.41448 -2.82715 0
M  V30 4945 H 454.748 -0.601079 -0.298236 0
M  V30 4946 H 457.292 -2.02425 -0.290582 0
M  V30 4947 H 455.447 -2.83832 -2.63663 0
M  V30 4948 H 455.861 -4.90771 -1.85051 0
M  V30 4949 H 457.335 -4.30751 -3.45192 0
M  V30 4950 H 457.812 -2.61308 -3.53008 0
M  V30 4951 H 458.418 -3.63559 -2.20693 0
M  V30 4952 N 456.733 0.527833 -1.48498 0
M  V30 4953 C 457.663 1.64136 -1.66077 0
M  V30 4954 C 458.644 1.62286 -0.509625 0
M  V30 4955 O 459.829 1.79449 -0.742413 0
M  V30 4956 C 456.959 3.02717 -1.70234 0
M  V30 4957 C 455.913 3.19426 -2.8487 0
M  V30 4958 C 455.239 4.5909 -2.74118 0
M  V30 4959 C 456.539 3.01993 -4.26142 0
M  V30 4960 H 458.233 1.4968 -2.593 0
M  V30 4961 H 455.779 0.718654 -1.24785 0
M  V30 4962 H 457.732 3.80491 -1.8112 0
M  V30 4963 H 456.456 3.18201 -0.735911 0
M  V30 4964 H 455.115 2.4407 -2.73542 0
M  V30 4965 H 454.763 4.71413 -1.7544 0
M  V30 4966 H 454.463 4.71214 -3.51042 0
M  V30 4967 H 455.987 5.3896 -2.86974 0
M  V30 4968 H 457.401 3.69558 -4.38292 0
M  V30 4969 H 455.798 3.2561 -5.04082 0
M  V30 4970 H 456.868 1.98396 -4.42456 0
M  V30 4971 N 458.211 1.37122 0.776871 0
M  V30 4972 C 459.439 1.3523 1.5659 0
M  V30 4973 C 459.854 -0.0635518 1.88693 0
M  V30 4974 O 459.211 -1.02394 1.51069 0
M  V30 4975 C 459.262 2.18583 2.8793 0
M  V30 4976 O 458.983 3.5465 2.57206 0
M  V30 4977 C 460.484 2.24612 3.82183 0
M  V30 4978 H 457.704 0.4634 0.485285 0
M  V30 4979 H 460.248 1.80392 0.963266 0
M  V30 4980 H 458.403 1.76943 3.4463 0
M  V30 4981 H 458.817 3.98286 3.41275 0
M  V30 4982 H 460.291 2.87267 4.71361 0
M  V30 4983 H 460.768 1.25309 4.20944 0
M  V30 4984 H 461.374 2.66543 3.31414 0
M  V30 4985 N 459.689 -1.00246 1.21608 0
M  V30 4986 C 460.914 -1.78167 1.06167 0
M  V30 4987 C 461.339 -1.84138 -0.384035 0
M  V30 4988 O 460.697 -1.28683 -1.27712 0
M  V30 4989 C 460.745 -3.19786 1.66642 0
M  V30 4990 O 459.849 -4.02153 0.913613 0
M  V30 4991 H 459.19 -0.549 0.37349 0
M  V30 4992 H 461.72 -1.25994 1.61204 0
M  V30 4993 H 461.73 -3.70451 1.70969 0
M  V30 4994 H 460.405 -3.14754 2.7185 0
M  V30 4995 H 458.982 -3.60711 0.945635 0
M  V30 4996 N 461.167 -1.02423 -1.1978 0
M  V30 4997 C 462.413 -0.719051 -1.89625 0
M  V30 4998 C 462.746 0.750083 -1.7913 0
M  V30 4999 O 462.021 1.54574 -1.18056 0
M  V30 5000 C 462.304 -1.16499 -3.40735 0
M  V30 5001 C 462.157 -2.695 -3.60125 0
M  V30 5002 C 463.476 -0.742166 -4.33797 0
M  V30 5003 H 460.595 -0.26269 -0.688595 0
M  V30 5004 H 463.237 -1.27333 -1.41018 0
M  V30 5005 H 461.387 -0.69341 -3.82262 0
M  V30 5006 H 463.059 -3.24569 -3.278 0
M  V30 5007 H 461.302 -3.10113 -3.03336 0
M  V30 5008 H 461.973 -2.95757 -4.66081 0
M  V30 5009 H 464.449 -1.1477 -3.99959 0
M  V30 5010 H 463.325 -1.08213 -5.38127 0
M  V30 5011 H 463.586 0.355747 -4.40666 0
M  V30 5012 N 462.645 1.35699 -0.801477 0
M  V30 5013 C 463.873 2.03157 -0.391768 0
M  V30 5014 C 464.288 1.60412 0.995668 0
M  V30 5015 O 463.645 0.799228 1.64069 0
M  V30 5016 C 463.696 3.58566 -0.459671 0
M  V30 5017 O 463.417 3.99756 -1.7924 0
M  V30 5018 C 464.918 4.4328 -0.0421205 0
M  V30 5019 H 462.138 0.651688 -0.159825 0
M  V30 5020 H 464.682 1.73426 -1.08368 0
M  V30 5021 H 462.837 3.86963 0.183939 0
M  V30 5022 H 463.251 4.94387 -1.75162 0
M  V30 5023 H 464.725 5.51821 -0.140754 0
M  V30 5024 H 465.202 4.27383 1.01196 0
M  V30 5025 H 465.808 4.20168 -0.658687 0
M  V30 5026 N 464.123 0.554532 1.47522 0
M  V30 5027 C 465.4 -0.0360704 1.95567 0
M  V30 5028 C 465.78 -1.48828 1.49711 0
M  V30 5029 O 465.128 -2.16366 0.734717 0
M  V30 5030 C 465.338 0.106631 3.48837 0
M  V30 5031 C 466.686 -0.0400899 4.24581 0
M  V30 5032 O 467.71 0.0340453 3.56184 0
M  V30 5033 O 466.569 -0.199111 5.46137 0
M  V30 5034 H 463.663 -0.0656294 0.824392 0
M  V30 5035 H 466.209 0.620867 1.57935 0
M  V30 5036 H 464.981 1.11727 3.7501 0
M  V30 5037 H 464.604 -0.58804 3.93227 0
M  V30 5038 N 465.601 -1.54893 0.290851 0
M  V30 5039 C 466.511 -2.26812 -0.59945 0
M  V30 5040 C 467.527 -1.29963 -1.15696 0
M  V30 5041 O 468.703 -1.62928 -1.18391 0
M  V30 5042 C 465.768 -2.98716 -1.75982 0
M  V30 5043 C 464.829 -4.1108 -1.2374 0
M  V30 5044 C 464.062 -4.79546 -2.34246 0
M  V30 5045 O 464.285 -4.47309 -3.53936 0
M  V30 5046 O 463.219 -5.67165 -2.01512 0
M  V30 5047 H 467.045 -3.03696 -0.0163561 0
M  V30 5048 H 464.63 -1.49289 0.0576755 0
M  V30 5049 H 466.512 -3.43851 -2.43607 0
M  V30 5050 H 465.187 -2.24737 -2.3297 0
M  V30 5051 H 464.094 -3.70367 -0.527163 0
M  V30 5052 H 465.427 -4.87007 -0.71307 0
M  V30 5053 N 467.08 -0.0183926 -1.57589 0
M  V30 5054 C 468.01 0.965596 -2.12599 0
M  V30 5055 C 468.991 1.34641 -1.0395 0
M  V30 5056 O 470.176 1.42693 -1.31729 0
M  V30 5057 C 467.306 2.25149 -2.64434 0
M  V30 5058 C 466.26 2.01175 -3.77773 0
M  V30 5059 C 465.586 3.35937 -4.15994 0
M  V30 5060 C 466.886 1.35953 -5.04296 0
M  V30 5061 H 468.58 0.507504 -2.95067 0
M  V30 5062 H 466.126 0.242671 -1.41941 0
M  V30 5063 H 468.079 2.94357 -3.01549 0
M  V30 5064 H 466.803 2.73105 -1.79112 0
M  V30 5065 H 465.462 1.34388 -3.4108 0
M  V30 5066 H 465.11 3.81631 -3.27669 0
M  V30 5067 H 464.81 3.20705 -4.92364 0
M  V30 5068 H 466.334 4.0643 -4.55683 0
M  V30 5069 H 467.748 1.95144 -5.39065 0
M  V30 5070 H 466.145 1.31152 -5.85593 0
M  V30 5071 H 467.215 0.331071 -4.83768 0
M  V30 5072 N 468.558 1.5553 0.254621 0
M  V30 5073 C 469.521 1.88872 1.29846 0
M  V30 5074 C 470.521 0.764591 1.41459 0
M  V30 5075 O 471.711 1.03265 1.40293 0
M  V30 5076 C 468.843 2.11032 2.67728 0
M  V30 5077 H 470.036 2.82201 1.01502 0
M  V30 5078 H 467.589 1.48303 0.493556 0
M  V30 5079 H 468.324 1.20146 3.01223 0
M  V30 5080 H 468.109 2.92895 2.60682 0
M  V30 5081 H 469.599 2.38038 3.43115 0
M  V30 5082 N 470.036 -0.519951 1.48776 0
M  V30 5083 C 471.282 -1.27711 1.57536 0
M  V30 5084 C 471.615 -1.92547 0.252866 0
M  V30 5085 O 470.89 -1.7979 -0.742021 0
M  V30 5086 C 471.173 -2.35875 2.72094 0
M  V30 5087 C 471.026 -1.75664 4.1408 0
M  V30 5088 C 472.345 -3.37575 2.82367 0
M  V30 5089 H 469.464 -0.462971 0.573434 0
M  V30 5090 H 472.106 -0.578194 1.80989 0
M  V30 5091 H 470.256 -2.95488 2.52228 0
M  V30 5092 H 471.928 -1.20025 4.45412 0
M  V30 5093 H 470.171 -1.06154 4.20611 0
M  V30 5094 H 470.842 -2.54029 4.90075 0
M  V30 5095 H 473.318 -2.87929 3.00393 0
M  V30 5096 H 472.194 -4.1064 3.64233 0
M  V30 5097 H 472.455 -3.98743 1.90936 0
M  V30 5098 N 471.514 -1.37532 -0.769588 0
M  V30 5099 C 472.477 -1.33292 -1.86456 0
M  V30 5100 C 473.477 -0.236537 -1.59051 0
M  V30 5101 O 474.667 -0.492511 -1.67093 0
M  V30 5102 C 471.799 -1.07118 -3.23633 0
M  V30 5103 H 472.992 -2.30692 -1.91628 0
M  V30 5104 H 470.545 -1.22593 -0.969572 0
M  V30 5105 H 471.28 -0.102578 -3.24138 0
M  V30 5106 H 471.065 -1.86479 -3.44917 0
M  V30 5107 H 472.555 -1.06806 -4.03711 0
M  V30 5108 N 472.992 0.995999 -1.22138 0
M  V30 5109 C 474.22 1.77066 -1.07029 0
M  V30 5110 C 474.635 1.8495 0.379357 0
M  V30 5111 O 473.992 1.3174 1.26297 0
M  V30 5112 C 474.043 3.20533 -1.67155 0
M  V30 5113 O 473.764 3.13082 -3.06449 0
M  V30 5114 C 475.265 4.14461 -1.5728 0
M  V30 5115 H 472.485 0.556179 -0.375374 0
M  V30 5116 H 475.029 1.25238 -1.61666 0
M  V30 5117 H 473.184 3.6944 -1.16589 0
M  V30 5118 H 473.598 4.03283 -3.35355 0
M  V30 5119 H 475.072 5.1289 -2.04078 0
M  V30 5120 H 475.549 4.36005 -0.528795 0
M  V30 5121 H 476.155 3.71449 -2.07136 0
M  V30 5122 N 474.47 1.03057 1.19235 0
M  V30 5123 C 475.38 0.622922 2.26179 0
M  V30 5124 C 476.396 -0.346113 1.70523 0
M  V30 5125 O 477.572 -0.203572 2.00369 0
M  V30 5126 C 474.637 -0.0182063 3.46695 0
M  V30 5127 C 473.698 0.998546 4.17526 0
M  V30 5128 C 472.931 0.387917 5.32288 0
M  V30 5129 O 473.154 -0.808668 5.64639 0
M  V30 5130 O 472.088 1.1116 5.91546 0
M  V30 5131 H 475.914 1.51363 2.63292 0
M  V30 5132 H 473.499 0.800856 1.26122 0
M  V30 5133 H 475.381 -0.375606 4.19723 0
M  V30 5134 H 474.056 -0.882895 3.11427 0
M  V30 5135 H 472.963 1.40756 3.4661 0
M  V30 5136 H 474.296 1.83366 4.56769 0
M  V30 5137 N 475.948 -1.35272 0.808662 0
M  V30 5138 C 476.881 -2.27595 0.165994 0
M  V30 5139 C 477.859 -1.48189 -0.669241 0
M  V30 5140 O 479.043 -1.77444 -0.636073 0
M  V30 5141 C 476.17 -3.29843 -0.769505 0
M  V30 5142 C 475.216 -4.26498 -0.0136267 0
M  V30 5143 S 476.049 -5.18878 1.32384 0
M  V30 5144 C 477.205 -6.24666 0.392838 0
M  V30 5145 H 477.438 -2.81755 0.948756 0
M  V30 5146 H 474.971 -1.42103 0.603828 0
M  V30 5147 H 476.929 -3.89247 -1.30374 0
M  V30 5148 H 475.59 -2.74558 -1.52567 0
M  V30 5149 H 474.783 -4.98769 -0.724227 0
M  V30 5150 H 474.385 -3.71274 0.450713 0
M  V30 5151 H 476.677 -6.7619 -0.4211 0
M  V30 5152 H 477.62 -6.99741 1.0848 0
M  V30 5153 H 478.028 -5.64499 -0.0123908 0
M  V30 5154 N 477.426 -0.562348 -1.47226 0
M  V30 5155 C 478.672 -0.0402761 -2.0276 0
M  V30 5156 C 479.005 1.30823 -1.43523 0
M  V30 5157 O 478.28 1.85249 -0.592705 0
M  V30 5158 C 478.563 0.047311 -3.60069 0
M  V30 5159 C 478.416 -1.32865 -4.29729 0
M  V30 5160 C 479.735 0.758182 -4.3352 0
M  V30 5161 H 476.854 -0.0161105 -0.736824 0
M  V30 5162 H 479.496 -0.725628 -1.75598 0
M  V30 5163 H 477.646 0.630986 -3.83342 0
M  V30 5164 H 479.318 -1.95593 -4.17781 0
M  V30 5165 H 477.561 -1.90195 -3.89882 0
M  V30 5166 H 478.232 -1.22004 -5.38349 0
M  V30 5167 H 480.708 0.262546 -4.15271 0
M  V30 5168 H 479.584 0.78844 -5.43208 0
M  V30 5169 H 479.845 1.81537 -4.03109 0
M  V30 5170 N 478.904 1.54736 -0.299062 0
M  V30 5171 C 480.151 2.00101 0.310784 0
M  V30 5172 C 480.479 1.18746 1.54045 0
M  V30 5173 O 479.734 0.251198 1.94081 0
M  V30 5174 C 480.033 3.50199 0.713835 0
M  V30 5175 C 479.699 4.48997 -0.413873 0
M  V30 5176 C 478.361 4.7573 -0.723462 0
M  V30 5177 C 480.713 5.07839 -1.17257 0
M  V30 5178 C 478.041 5.5857 -1.79491 0
M  V30 5179 C 480.393 5.91844 -2.23392 0
M  V30 5180 C 479.057 6.16889 -2.54959 0
M  V30 5181 H 478.327 0.732221 0.113724 0
M  V30 5182 H 480.974 1.86888 -0.417756 0
M  V30 5183 H 479.279 3.61012 1.52243 0
M  V30 5184 H 480.976 3.82723 1.19684 0
M  V30 5185 H 477.566 4.28292 -0.162476 0
M  V30 5186 H 481.75 4.87188 -0.946651 0
M  V30 5187 H 477.006 5.76213 -2.04423 0
M  V30 5188 H 481.18 6.36465 -2.8264 0
M  V30 5189 H 478.807 6.80869 -3.38114 0
M  V30 5190 N 480.382 0.0267497 1.57577 0
M  V30 5191 C 481.798 -0.32962 1.56159 0
M  V30 5192 C 481.998 -1.73059 1.03213 0
M  V30 5193 O 481.054 -2.43233 0.677804 0
M  V30 5194 C 482.367 -0.18039 3.00158 0
M  V30 5195 C 483.915 -0.253334 3.11973 0
M  V30 5196 C 484.39 -0.132921 4.57807 0
M  V30 5197 N 485.881 -0.189979 4.6281 0
M  V30 5198 C 486.616 -0.120554 5.73273 0
M  V30 5199 N 486.112 -0.000180315 6.928 0
M  V30 5200 N 487.905 -0.174369 5.61829 0
M  V30 5201 H 480.056 0.942896 1.90324 0
M  V30 5202 H 482.319 0.3639 0.875375 0
M  V30 5203 H 482.025 0.784576 3.42837 0
M  V30 5204 H 481.899 -0.951565 3.65 0
M  V30 5205 H 484.286 -1.20876 2.69208 0
M  V30 5206 H 484.367 0.548177 2.49857 0
M  V30 5207 H 484.011 0.819073 5.01252 0
M  V30 5208 H 483.941 -0.953264 5.179 0
M  V30 5209 H 486.432 -0.283257 3.76837 0
M  V30 5210 H 486.745 0.0461666 7.72786 0
M  V30 5211 H 485.09 0.034569 6.94991 0
M  V30 5212 H 488.281 -0.266794 4.67339 0
M  V30 5213 H 488.454 -0.116802 6.47895 0
M  V30 5214 N 481.861 -1.55662 -0.24637 0
M  V30 5215 C 483.277 -1.48098 -0.594907 0
M  V30 5216 C 483.477 -0.717044 -1.8831 0
M  V30 5217 O 482.533 -0.246618 -2.51293 0
M  V30 5218 C 483.846 -2.92507 -0.697146 0
M  V30 5219 C 485.394 -3.02881 -0.789436 0
M  V30 5220 C 485.869 -4.48598 -0.923232 0
M  V30 5221 N 487.36 -4.52538 -0.988088 0
M  V30 5222 C 488.095 -5.62536 -1.11089 0
M  V30 5223 N 487.591 -6.82342 -1.19919 0
M  V30 5224 N 489.384 -5.50334 -1.14408 0
M  V30 5225 H 481.535 -2.0377 0.599278 0
M  V30 5226 H 483.798 -0.925145 0.20691 0
M  V30 5227 H 483.504 -3.51242 0.179396 0
M  V30 5228 H 483.378 -3.43024 -1.5689 0
M  V30 5229 H 485.765 -2.44226 -1.65643 0
M  V30 5230 H 485.846 -2.55574 0.107482 0
M  V30 5231 H 485.49 -5.07864 -0.0607927 0
M  V30 5232 H 485.42 -4.93587 -1.8352 0
M  V30 5233 H 487.911 -3.66248 -0.931167 0
M  V30 5234 H 488.224 -7.61924 -1.29197 0
M  V30 5235 H 486.569 -6.85102 -1.16876 0
M  V30 5236 H 489.76 -4.5567 -1.07158 0
M  V30 5237 H 489.933 -6.36096 -1.23634 0
M  V30 5238 N 483.339 0.512053 -1.4905 0
M  V30 5239 C 484.271 1.63121 -1.6101 0
M  V30 5240 C 485.284 1.55145 -0.493352 0
M  V30 5241 O 486.473 1.61278 -0.764955 0
M  V30 5242 C 483.573 3.01863 -1.54052 0
M  V30 5243 C 482.746 3.35138 -2.81072 0
M  V30 5244 C 481.805 4.5324 -2.67319 0
M  V30 5245 O 480.831 4.55571 -3.41238 0
M  V30 5246 N 482.033 5.52495 -1.78127 0
M  V30 5247 H 484.798 1.53292 -2.5753 0
M  V30 5248 H 482.359 0.699706 -1.45999 0
M  V30 5249 H 484.351 3.78774 -1.42521 0
M  V30 5250 H 482.921 3.05675 -0.654345 0
M  V30 5251 H 482.141 2.4723 -3.07036 0
M  V30 5252 H 483.429 3.54162 -3.65304 0
M  V30 5253 H 482.827 5.53403 -1.17308 0
M  V30 5254 H 481.384 6.28553 -1.72525 0
M  V30 5255 N 484.817 1.37938 0.762283 0
M  V30 5256 C 485.727 1.36681 1.90671 0
M  V30 5257 C 486.743 0.265078 1.71969 0
M  V30 5258 O 487.919 0.502055 1.95042 0
M  V30 5259 C 484.984 1.18211 3.25925 0
M  V30 5260 C 484.045 2.3811 3.57214 0
M  V30 5261 C 483.278 2.20512 4.86014 0
M  V30 5262 O 483.501 1.19429 5.57757 0
M  V30 5263 O 482.435 3.08911 5.16583 0
M  V30 5264 H 486.261 2.33091 1.94685 0
M  V30 5265 H 483.846 1.18767 0.906356 0
M  V30 5266 H 485.728 1.09937 4.06807 0
M  V30 5267 H 484.403 0.248807 3.22742 0
M  V30 5268 H 483.31 2.51958 2.76529 0
M  V30 5269 H 484.643 3.30041 3.65149 0
M  V30 5270 N 486.295 -0.989507 1.22664 0
M  V30 5271 C 487.228 -2.07805 0.942985 0
M  V30 5272 C 488.206 -1.6219 -0.115356 0
M  V30 5273 O 489.39 -1.88492 0.0169565 0
M  V30 5274 C 486.517 -3.361 0.418898 0
M  V30 5275 C 485.563 -4.00643 1.46244 0
M  V30 5276 S 486.396 -4.41059 3.03689 0
M  V30 5277 C 487.552 -5.7252 2.52927 0
M  V30 5278 H 487.785 -2.31547 1.86476 0
M  V30 5279 H 485.318 -1.12446 1.05808 0
M  V30 5280 H 487.276 -4.10315 0.123114 0
M  V30 5281 H 485.937 -3.10383 -0.481818 0
M  V30 5282 H 485.13 -4.93033 1.04569 0
M  V30 5283 H 484.732 -3.32767 1.7071 0
M  V30 5284 H 487.024 -6.49017 1.94379 0
M  V30 5285 H 487.967 -6.19026 3.4382 0
M  V30 5286 H 488.375 -5.30083 1.94094 0
M  V30 5287 N 487.773 -1.03688 -1.18687 0
M  V30 5288 C 489.019 -0.739123 -1.88851 0
M  V30 5289 C 489.352 0.731042 -1.79915 0
M  V30 5290 O 488.627 1.53313 -1.19688 0
M  V30 5291 C 488.91 -1.20106 -3.3948 0
M  V30 5292 C 488.763 -2.73304 -3.57246 0
M  V30 5293 C 490.082 -0.788134 -4.32986 0
M  V30 5294 H 487.201 -0.269978 -0.68577 0
M  V30 5295 H 489.843 -1.28822 -1.3966 0
M  V30 5296 H 487.993 -0.733915 -3.81505 0
M  V30 5297 H 489.665 -3.28027 -3.24339 0
M  V30 5298 H 487.908 -3.13313 -3.00029 0
M  V30 5299 H 488.579 -3.00684 -4.62918 0
M  V30 5300 H 491.055 -1.19005 -3.98719 0
M  V30 5301 H 489.931 -1.13915 -5.36949 0
M  V30 5302 H 490.192 0.308988 -4.41019 0
M  V30 5303 N 489.251 1.34841 -0.815825 0
M  V30 5304 C 490.479 2.0273 -0.413294 0
M  V30 5305 C 490.894 1.61459 0.978599 0
M  V30 5306 O 490.251 0.816584 1.63212 0
M  V30 5307 C 490.302 3.58058 -0.497676 0
M  V30 5308 O 490.023 3.97832 -1.8347 0
M  V30 5309 C 491.524 4.4321 -0.0891339 0
M  V30 5310 H 488.744 0.649956 -0.166728 0
M  V30 5311 H 491.288 1.72267 -1.10201 0
M  V30 5312 H 489.443 3.87136 0.142886 0
M  V30 5313 H 489.857 4.92501 -1.80396 0
M  V30 5314 H 491.331 5.5164 -0.199274 0
M  V30 5315 H 491.808 4.28432 0.966571 0
M  V30 5316 H 492.414 4.19446 -0.703214 0
M  V30 5317 N 490.729 0.570148 1.46925 0
M  V30 5318 C 491.661 -0.207909 2.28255 0
M  V30 5319 C 492.674 -0.867301 1.37774 0
M  V30 5320 O 493.863 -0.738976 1.62485 0
M  V30 5321 C 490.963 -1.31298 3.12433 0
M  V30 5322 C 490.136 -0.747915 4.30958 0
M  V30 5323 C 489.195 -1.7391 4.9663 0
M  V30 5324 O 488.221 -1.2801 5.54619 0
M  V30 5325 N 489.423 -3.07288 4.92498 0
M  V30 5326 H 492.188 0.489794 2.95671 0
M  V30 5327 H 489.749 0.407076 1.56699 0
M  V30 5328 H 491.741 -1.97507 3.53232 0
M  V30 5329 H 490.311 -1.91373 2.47175 0
M  V30 5330 H 489.531 0.0913066 3.94094 0
M  V30 5331 H 490.819 -0.349958 5.07595 0
M  V30 5332 H 490.217 -3.47213 4.46609 0
M  V30 5333 H 488.774 -3.69021 5.37277 0
M  V30 5334 N 492.207 -1.54576 0.307264 0
M  V30 5335 C 493.137 -2.26708 -0.55907 0
M  V30 5336 C 494.118 -1.26893 -1.1328 0
M  V30 5337 O 495.303 -1.55677 -1.16097 0
M  V30 5338 C 492.433 -3.01259 -1.72801 0
M  V30 5339 C 491.387 -4.08275 -1.28435 0
M  V30 5340 C 490.713 -4.70575 -2.53895 0
M  V30 5341 C 492.013 -5.2068 -0.411038 0
M  V30 5342 H 493.707 -2.9937 0.042576 0
M  V30 5343 H 491.253 -1.43983 0.0219173 0
M  V30 5344 H 493.206 -3.50444 -2.34023 0
M  V30 5345 H 491.93 -2.26187 -2.356 0
M  V30 5346 H 490.589 -3.59949 -0.695161 0
M  V30 5347 H 490.237 -3.92136 -3.15021 0
M  V30 5348 H 489.937 -5.42854 -2.24908 0
M  V30 5349 H 491.461 -5.22527 -3.15908 0
M  V30 5350 H 492.875 -5.65721 -0.929097 0
M  V30 5351 H 491.272 -5.99716 -0.214664 0
M  V30 5352 H 492.342 -4.81629 0.562287 0
M  V30 5353 N 493.685 -0.035106 -1.57561 0
M  V30 5354 C 494.617 0.973604 -2.07494 0
M  V30 5355 C 495.63 1.28504 -0.999534 0
M  V30 5356 O 496.819 1.24864 -1.27559 0
M  V30 5357 C 493.919 2.29945 -2.48955 0
M  V30 5358 C 493.092 2.1723 -3.79644 0
M  V30 5359 C 492.151 3.328 -4.07592 0
M  V30 5360 O 491.177 3.09418 -4.77754 0
M  V30 5361 N 492.379 4.56779 -3.58236 0
M  V30 5362 H 495.144 0.547525 -2.94656 0
M  V30 5363 H 492.705 0.151515 -1.61189 0
M  V30 5364 H 494.697 3.06097 -2.64739 0
M  V30 5365 H 493.267 2.64173 -1.67126 0
M  V30 5366 H 492.487 1.25768 -3.73599 0
M  V30 5367 H 493.775 2.05945 -4.65257 0
M  V30 5368 H 493.173 4.78668 -3.01485 0
M  V30 5369 H 491.73 5.30079 -3.79288 0
M  V30 5370 N 495.163 1.55791 0.238111 0
M  V30 5371 C 496.095 1.87513 1.31802 0
M  V30 5372 C 497.108 0.762053 1.43863 0
M  V30 5373 O 498.297 1.04024 1.45056 0
M  V30 5374 C 495.397 2.05402 2.69561 0
M  V30 5375 C 494.57 3.3632 2.79656 0
M  V30 5376 C 493.629 3.43844 3.98319 0
M  V30 5377 O 492.655 4.16994 3.87433 0
M  V30 5378 N 493.857 2.73777 5.11885 0
M  V30 5379 H 496.622 2.80734 1.04922 0
M  V30 5380 H 494.183 1.56135 0.428196 0
M  V30 5381 H 496.175 2.07769 3.47296 0
M  V30 5382 H 494.745 1.18884 2.89111 0
M  V30 5383 H 493.965 3.46195 1.88528 0
M  V30 5384 H 495.253 4.22594 2.83358 0
M  V30 5385 H 494.651 2.14094 5.23622 0
M  V30 5386 H 493.208 2.81825 5.87723 0
M  V30 5387 N 496.642 -0.504142 1.49319 0
M  V30 5388 C 497.552 -1.63248 1.68486 0
M  V30 5389 C 498.568 -1.64488 0.567432 0
M  V30 5390 O 499.744 -1.82966 0.841749 0
M  V30 5391 C 496.809 -2.99627 1.74426 0
M  V30 5392 C 495.87 -3.09039 2.97982 0
M  V30 5393 C 495.103 -4.38913 3.0363 0
M  V30 5394 O 495.326 -5.27528 2.16958 0
M  V30 5395 O 494.26 -4.53231 3.96062 0
M  V30 5396 H 498.086 -1.50008 2.64067 0
M  V30 5397 H 495.671 -0.680086 1.33023 0
M  V30 5398 H 497.553 -3.80689 1.80705 0
M  V30 5399 H 496.228 -3.13136 0.820233 0
M  V30 5400 H 495.135 -2.27177 2.97223 0
M  V30 5401 H 496.468 -3.00456 3.89855 0
M  V30 5402 N 498.12 -1.38341 -0.754957 0
M  V30 5403 C 499.05 -1.38176 -1.88227 0
M  V30 5404 C 500.031 -0.247873 -1.68284 0
M  V30 5405 O 501.216 -0.45075 -1.88896 0
M  V30 5406 C 498.346 -1.20471 -3.25736 0
M  V30 5407 C 497.3 -2.3105 -3.60278 0
M  V30 5408 C 496.626 -1.98452 -4.96509 0
M  V30 5409 C 497.926 -3.73305 -3.65295 0
M  V30 5410 H 499.62 -2.32512 -1.88622 0
M  V30 5411 H 497.166 -1.1192 -0.906082 0
M  V30 5412 H 499.119 -1.18982 -4.04254 0
M  V30 5413 H 497.843 -0.225965 -3.25817 0
M  V30 5414 H 496.502 -2.31723 -2.84078 0
M  V30 5415 H 496.15 -0.990641 -4.93148 0
M  V30 5416 H 495.85 -2.7251 -5.20588 0
M  V30 5417 H 497.374 -1.98578 -5.77407 0
M  V30 5418 H 498.788 -3.7467 -4.3393 0
M  V30 5419 H 497.185 -4.46557 -4.00883 0
M  V30 5420 H 498.255 -4.05719 -2.65556 0
M  V30 5421 N 499.598 0.982988 -1.23187 0
M  V30 5422 C 501.014 1.2487 -0.993967 0
M  V30 5423 C 501.214 1.99155 0.306498 0
M  V30 5424 O 500.27 2.30688 1.0266 0
M  V30 5425 C 501.583 2.05078 -2.19917 0
M  V30 5426 C 503.131 2.18227 -2.2438 0
M  V30 5427 C 503.606 3.01825 -3.44479 0
M  V30 5428 N 505.097 3.09411 -3.44702 0
M  V30 5429 C 505.832 3.74412 -4.34285 0
M  V30 5430 N 505.328 4.41259 -5.341 0
M  V30 5431 N 507.121 3.71273 -4.22035 0
M  V30 5432 H 499.272 0.485253 -2.06783 0
M  V30 5433 H 501.535 0.276979 -0.906635 0
M  V30 5434 H 501.241 1.57867 -3.14279 0
M  V30 5435 H 501.115 3.05829 -2.2079 0
M  V30 5436 H 503.502 2.64648 -1.30559 0
M  V30 5437 H 503.583 1.16873 -2.2754 0
M  V30 5438 H 503.227 2.56102 -4.38605 0
M  V30 5439 H 503.157 4.03342 -3.38559 0
M  V30 5440 H 505.648 2.61845 -2.7248 0
M  V30 5441 H 505.961 4.88629 -5.98717 0
M  V30 5442 H 504.306 4.39975 -5.38002 0
M  V30 5443 H 507.497 3.18217 -3.43301 0
M  V30 5444 H 507.67 4.21649 -4.92053 0
M  V30 5445 N 501.076 1.04316 1.18135 0
M  V30 5446 C 502.024 0.630175 2.23901 0
M  V30 5447 C 503.018 -0.344254 1.65865 0
M  V30 5448 O 504.224 -0.211273 1.78756 0
M  V30 5449 H 500.599 0.185578 0.728742 0
M  V30 5450 H 502.57 1.53253 2.56039 0
M  V30 5451 C 501.319 0.011666 3.47698 0
M  V30 5452 H 500.642 0.752526 3.92654 0
M  V30 5453 H 502.082 -0.240046 4.2332 0
M  V30 5454 C 500.541 -1.23913 3.13285 0
M  V30 5455 O 501.071 -2.32959 3.27251 0
M  V30 5456 N 499.277 -1.13338 2.67587 0
M  V30 5457 H 498.824 -0.246006 2.56423 0
M  V30 5458 H 498.782 -1.97116 2.44934 0
M  V30 5459 N 502.554 -1.34406 0.822964 0
M  V30 5460 C 503.464 -2.33298 0.246838 0
M  V30 5461 C 504.48 -1.62625 -0.618797 0
M  V30 5462 O 505.656 -1.94391 -0.526685 0
M  V30 5463 C 502.721 -3.41785 -0.581731 0
M  V30 5464 C 501.782 -4.28206 0.306309 0
M  V30 5465 C 501.015 -5.31512 -0.48281 0
M  V30 5466 O 501.238 -5.43973 -1.71607 0
M  V30 5467 O 500.172 -6.01749 0.134884 0
M  V30 5468 H 503.998 -2.84401 1.06534 0
M  V30 5469 H 501.583 -1.37466 0.585108 0
M  V30 5470 H 503.465 -4.08028 -1.05313 0
M  V30 5471 H 502.14 -2.92925 -1.37756 0
M  V30 5472 H 501.047 -3.64885 0.825199 0
M  V30 5473 H 502.38 -4.80507 1.06649 0
M  V30 5474 N 504.032 -0.577932 -1.46621 0
M  V30 5475 C 504.942 0.160651 -2.34049 0
M  V30 5476 C 505.958 0.890911 -1.49462 0
M  V30 5477 O 507.134 0.855166 -1.82343 0
M  V30 5478 C 504.199 1.16447 -3.26559 0
M  V30 5479 C 503.26 0.4394 -4.27045 0
M  V30 5480 C 502.493 1.3954 -5.15135 0
M  V30 5481 O 502.716 2.63162 -5.06065 0
M  V30 5482 O 501.65 0.908585 -5.95003 0
M  V30 5483 H 505.476 -0.557057 -2.98547 0
M  V30 5484 H 503.061 -0.338369 -1.45518 0
M  V30 5485 H 504.943 1.7434 -3.83645 0
M  V30 5486 H 503.618 1.86373 -2.64663 0
M  V30 5487 H 502.525 -0.181247 -3.73661 0
M  V30 5488 H 503.858 -0.218799 -4.91713 0
M  V30 5489 N 505.51 1.54411 -0.315457 0
M  V30 5490 C 506.42 2.27737 0.56329 0
M  V30 5491 C 507.436 1.31787 1.13614 0
M  V30 5492 O 508.612 1.64791 1.15784 0
M  V30 5493 C 505.677 3.01478 1.71207 0
M  V30 5494 C 504.738 4.12997 1.17185 0
M  V30 5495 C 503.971 4.83212 2.26588 0
M  V30 5496 O 504.194 4.52884 3.46775 0
M  V30 5497 O 503.128 5.70299 1.92463 0
M  V30 5498 H 506.954 3.03683 -0.0319614 0
M  V30 5499 H 504.539 1.49178 -0.0814188 0
M  V30 5500 H 506.421 3.47683 2.38106 0
M  V30 5501 H 505.096 2.28414 2.29366 0
M  V30 5502 H 504.003 3.71159 0.468174 0
M  V30 5503 H 505.336 4.8808 0.635501 0
M  V30 5504 N 506.988 0.0434614 1.5754 0
M  V30 5505 C 507.936 -0.951465 2.1225 0
M  V30 5506 C 508.93 -1.3274 1.05245 0
M  V30 5507 O 510.136 -1.30795 1.23663 0
M  V30 5508 H 506.511 -0.324667 0.678303 0
M  V30 5509 H 508.482 -0.464855 2.94757 0
M  V30 5510 C 507.231 -2.21972 2.67626 0
M  V30 5511 H 506.554 -1.93923 3.4962 0
M  V30 5512 H 507.994 -2.89765 3.09536 0
M  V30 5513 C 506.453 -2.95919 1.61038 0
M  V30 5514 O 506.983 -3.8857 1.01862 0
M  V30 5515 N 505.189 -2.58511 1.32741 0
M  V30 5516 H 504.736 -1.83244 1.81051 0
M  V30 5517 H 504.694 -3.08296 0.616531 0
M  V30 5518 N 508.466 -1.55915 -0.229846 0
M  V30 5519 C 509.694 -1.82617 -0.972562 0
M  V30 5520 C 510.109 -0.621488 -1.78278 0
M  V30 5521 O 509.466 0.409956 -1.77836 0
M  V30 5522 C 509.517 -3.0774 -1.89679 0
M  V30 5523 O 509.238 -4.23559 -1.11934 0
M  V30 5524 C 510.739 -3.47368 -2.75409 0
M  V30 5525 H 507.959 -0.60727 -0.285419 0
M  V30 5526 H 510.503 -2.02996 -0.247579 0
M  V30 5527 H 508.658 -2.89361 -2.57583 0
M  V30 5528 H 509.072 -4.94586 -1.74599 0
M  V30 5529 H 510.546 -4.37977 -3.35977 0
M  V30 5530 H 511.023 -2.68737 -3.47386 0
M  V30 5531 H 511.629 -3.68158 -2.12931 0
M  V30 5532 N 509.944 0.496216 -1.49584 0
M  V30 5533 C 510.894 1.59422 -1.62999 0
M  V30 5534 C 511.878 1.53402 -0.485457 0
M  V30 5535 O 513.07 1.60851 -0.738649 0
M  V30 5536 C 510.199 2.98009 -1.70427 0
M  V30 5537 C 509.285 3.09008 -2.90473 0
M  V30 5538 N 509.676 2.89884 -4.14489 0
M  V30 5539 C 507.974 3.40115 -2.8851 0
M  V30 5540 C 508.675 3.0519 -4.95211 0
M  V30 5541 N 507.651 3.3428 -4.2867 0
M  V30 5542 H 511.453 1.43297 -2.56599 0
M  V30 5543 H 508.967 0.702443 -1.46422 0
M  V30 5544 H 510.964 3.76926 -1.78136 0
M  V30 5545 H 509.624 3.152 -0.77967 0
M  V30 5546 H 510.635 2.65963 -4.44392 0
M  V30 5547 H 507.312 3.63452 -2.05448 0
M  V30 5548 H 508.702 2.94856 -6.03746 0
M  V30 5549 N 511.423 1.38739 0.74761 0
M  V30 5550 C 512.834 1.31507 1.32524 0
M  V30 5551 C 513.185 -0.0263963 1.96182 0
M  V30 5552 O 512.31 -0.92849 1.95469 0
M  V30 5553 C 512.905 2.38162 2.40966 0
M  V30 5554 C 511.464 2.34489 2.94434 0
M  V30 5555 C 510.611 2.20712 1.67873 0
M  V30 5556 H 513.562 1.4901 0.546043 0
M  V30 5557 H 513.583 2.04222 3.21051 0
M  V30 5558 H 513.095 3.35783 1.94605 0
M  V30 5559 H 511.196 1.40467 3.45108 0
M  V30 5560 H 511.309 3.28861 3.48407 0
M  V30 5561 H 509.673 1.67667 1.91729 0
M  V30 5562 H 510.456 3.20285 1.23582 0
M  V30 5563 N 512.901 -0.976442 1.23707 0
M  V30 5564 C 514.317 -1.24341 1.00058 0
M  V30 5565 C 514.517 -1.99315 -0.295932 0
M  V30 5566 O 513.573 -2.3123 -1.01435 0
M  V30 5567 C 514.886 -2.03909 2.21001 0
M  V30 5568 C 516.434 -2.17034 2.25534 0
M  V30 5569 C 516.909 -2.99994 3.46075 0
M  V30 5570 N 518.4 -3.07578 3.46338 0
M  V30 5571 C 519.135 -3.72104 4.36264 0
M  V30 5572 N 518.631 -4.3842 5.36432 0
M  V30 5573 N 520.424 -3.69029 4.23998 0
M  V30 5574 H 512.575 -0.47428 2.07037 0
M  V30 5575 H 514.838 -0.272167 0.908091 0
M  V30 5576 H 514.544 -1.56198 3.15111 0
M  V30 5577 H 514.418 -3.04654 2.22409 0
M  V30 5578 H 516.805 -2.63951 1.31961 0
M  V30 5579 H 516.886 -1.15664 2.28156 0
M  V30 5580 H 516.53 -2.53772 4.39957 0
M  V30 5581 H 516.46 -4.01541 3.40694 0
M  V30 5582 H 518.951 -2.60397 2.73865 0
M  V30 5583 H 519.264 -4.85447 6.013 0
M  V30 5584 H 517.609 -4.37116 5.40328 0
M  V30 5585 H 520.8 -3.16392 3.44984 0
M  V30 5586 H 520.973 -4.19034 4.94282 0
M  V30 5587 N 514.379 -1.04941 -1.1758 0
M  V30 5588 C 515.289 -0.658826 -2.25159 0
M  V30 5589 C 516.305 0.318941 -1.71052 0
M  V30 5590 O 517.481 0.171669 -2.00667 0
M  V30 5591 C 514.546 -0.0369522 -3.4668 0
M  V30 5592 C 513.607 -1.06484 -4.15884 0
M  V30 5593 C 512.84 -0.472551 -5.31604 0
M  V30 5594 O 513.063 0.718736 -5.65854 0
M  V30 5595 O 511.997 -1.20557 -5.89703 0
M  V30 5596 H 515.823 -1.55533 -2.60851 0
M  V30 5597 H 513.408 -0.820819 -1.24832 0
M  V30 5598 H 515.29 0.308784 -4.20267 0
M  V30 5599 H 513.965 0.833238 -3.12792 0
M  V30 5600 H 512.872 -1.46253 -3.44327 0
M  V30 5601 H 514.205 -1.9061 -4.53794 0
M  V30 5602 N 515.857 1.33968 -0.830081 0
M  V30 5603 C 517.273 1.51003 -0.516742 0
M  V30 5604 C 517.473 1.77286 0.957694 0
M  V30 5605 O 516.529 1.82797 1.74188 0
M  V30 5606 C 517.842 2.67036 -1.38247 0
M  V30 5607 C 519.39 2.80919 -1.38034 0
M  V30 5608 C 519.865 4.00004 -2.23071 0
M  V30 5609 N 521.356 4.07224 -2.20733 0
M  V30 5610 C 522.091 4.98541 -2.83275 0
M  V30 5611 N 521.587 5.95033 -3.54835 0
M  V30 5612 N 523.38 4.91469 -2.72791 0
M  V30 5613 H 515.531 1.15168 -1.78466 0
M  V30 5614 H 517.794 0.565443 -0.760906 0
M  V30 5615 H 517.5 2.54266 -2.42985 0
M  V30 5616 H 517.374 3.62226 -1.05225 0
M  V30 5617 H 519.761 2.93127 -0.340713 0
M  V30 5618 H 519.842 1.86517 -1.75057 0
M  V30 5619 H 519.486 3.88557 -3.27087 0
M  V30 5620 H 519.416 4.93634 -1.83394 0
M  V30 5621 H 521.907 3.38162 -1.68687 0
M  V30 5622 H 522.22 6.61357 -3.99784 0
M  V30 5623 H 520.565 5.95135 -3.58942 0
M  V30 5624 H 523.756 4.15048 -2.16456 0
M  V30 5625 H 523.929 5.62439 -3.21818 0
M  V30 5626 N 517.335 0.585699 1.46312 0
M  V30 5627 C 518.581 0.0725284 2.0267 0
M  V30 5628 C 518.914 -1.28523 1.45586 0
M  V30 5629 O 518.189 -1.84283 0.622101 0
M  V30 5630 C 518.472 0.0099788 3.60099 0
M  V30 5631 C 518.325 1.39685 4.27561 0
M  V30 5632 C 519.644 -0.689117 4.34671 0
M  V30 5633 H 516.763 0.0278307 0.736474 0
M  V30 5634 H 519.405 0.753472 1.74421 0
M  V30 5635 H 517.555 -0.56992 3.84297 0
M  V30 5636 H 519.227 2.02215 4.14617 0
M  V30 5637 H 517.47 1.96374 3.86807 0
M  V30 5638 H 518.141 1.30553 5.36339 0
M  V30 5639 H 520.617 -0.196446 4.15636 0
M  V30 5640 H 519.493 -0.701921 5.44393 0
M  V30 5641 H 519.754 -1.75101 4.05946 0
M  V30 5642 N 518.813 -1.54241 0.323641 0
M  V30 5643 C 519.745 -2.21836 -0.576311 0
M  V30 5644 C 520.758 -1.21837 -1.07979 0
M  V30 5645 O 521.947 -1.48306 -0.99336 0
M  V30 5646 C 519.047 -2.86923 -1.80356 0
M  V30 5647 C 518.22 -4.1306 -1.43875 0
M  V30 5648 C 517.279 -4.6174 -2.52353 0
M  V30 5649 O 516.305 -5.26421 -2.16494 0
M  V30 5650 N 517.507 -4.35974 -3.83284 0
M  V30 5651 H 520.272 -2.997 0.00247987 0
M  V30 5652 H 517.833 -1.61233 0.146848 0
M  V30 5653 H 519.825 -3.16414 -2.52318 0
M  V30 5654 H 518.395 -2.12765 -2.29019 0
M  V30 5655 H 517.615 -3.90334 -0.550752 0
M  V30 5656 H 518.903 -4.95148 -1.17071 0
M  V30 5657 H 518.301 -3.84203 -4.15216 0
M  V30 5658 H 516.858 -4.70119 -4.51477 0
M  V30 5659 N 520.291 -0.0518155 -1.57515 0
M  V30 5660 C 521.221 0.920283 -2.146 0
M  V30 5661 C 522.202 1.32406 -1.06783 0
M  V30 5662 O 523.387 1.39866 -1.34726 0
M  V30 5663 C 520.517 2.1949 -2.6915 0
M  V30 5664 C 519.471 1.93116 -3.81956 0
M  V30 5665 C 518.797 3.27037 -4.23026 0
M  V30 5666 C 520.097 1.25225 -5.07066 0
M  V30 5667 H 521.791 0.444801 -2.96077 0
M  V30 5668 H 519.337 0.212508 -1.42423 0
M  V30 5669 H 521.29 2.87894 -3.07725 0
M  V30 5670 H 520.014 2.69244 -1.84865 0
M  V30 5671 H 518.673 1.27123 -3.43854 0
M  V30 5672 H 518.321 3.74595 -3.3569 0
M  V30 5673 H 518.021 3.10189 -4.99056 0
M  V30 5674 H 519.545 3.96673 -4.64202 0
M  V30 5675 H 520.959 1.83666 -5.43083 0
M  V30 5676 H 519.356 1.18702 -5.88243 0
M  V30 5677 H 520.426 0.228382 -4.84362 0
M  V30 5678 N 521.769 1.56035 0.221574 0
M  V30 5679 C 522.699 1.95434 1.2778 0
M  V30 5680 C 523.68 0.822564 1.48889 0
M  V30 5681 O 524.865 1.08486 1.61072 0
M  V30 5682 C 521.995 2.27102 2.62759 0
M  V30 5683 C 520.949 3.4277 2.56306 0
M  V30 5684 C 520.275 3.60043 3.95314 0
M  V30 5685 C 521.575 4.77742 2.11093 0
M  V30 5686 H 523.269 2.83912 0.950504 0
M  V30 5687 H 520.815 1.36596 0.455791 0
M  V30 5688 H 522.768 2.53256 3.36807 0
M  V30 5689 H 521.492 1.35478 2.97176 0
M  V30 5690 H 520.151 3.16664 1.84715 0
M  V30 5691 H 519.799 2.65794 4.27039 0
M  V30 5692 H 519.499 4.37841 3.91879 0
M  V30 5693 H 521.023 3.88545 4.71025 0
M  V30 5694 H 522.437 5.03102 2.74885 0
M  V30 5695 H 520.834 5.58823 2.18716 0
M  V30 5696 H 521.904 4.731 1.06321 0
M  V30 5697 N 523.247 -0.488276 1.49845 0
M  V30 5698 C 524.495 -1.23911 1.59657 0
M  V30 5699 C 524.816 -1.92816 0.291005 0
M  V30 5700 O 524.086 -1.83328 -0.690485 0
M  V30 5701 H 522.666 -0.460357 0.588286 0
M  V30 5702 H 525.328 -0.564794 1.86537 0
M  V30 5703 H 524.424 -1.99625 2.39909 0
M  V30 5704 N 524.725 -1.39134 -0.740242 0
M  V30 5705 C 525.672 -1.37434 -1.8542 0
M  V30 5706 C 526.642 -0.234822 -1.64432 0
M  V30 5707 O 527.827 -0.429125 -1.85912 0
M  V30 5708 C 524.967 -1.21844 -3.22875 0
M  V30 5709 C 524.08 -2.45296 -3.55603 0
M  V30 5710 C 523.215 -2.22334 -4.82432 0
M  V30 5711 C 522.254 -3.41488 -5.07988 0
M  V30 5712 N 521.391 -3.17877 -6.26018 0
M  V30 5713 H 526.231 -2.3266 -1.86207 0
M  V30 5714 H 523.768 -1.15578 -0.909946 0
M  V30 5715 H 525.726 -1.10818 -4.02213 0
M  V30 5716 H 524.356 -0.3025 -3.21379 0
M  V30 5717 H 523.408 -2.66945 -2.71006 0
M  V30 5718 H 524.72 -3.34063 -3.7041 0
M  V30 5719 H 523.874 -2.0852 -5.69741 0
M  V30 5720 H 522.613 -1.30954 -4.6979 0
M  V30 5721 H 521.618 -3.55807 -4.19144 0
M  V30 5722 H 522.843 -4.33763 -5.22519 0
M  V30 5723 H 520.789 -2.29156 -6.14673 0
M  V30 5724 H 520.706 -4.00198 -6.41387 0
M  V30 5725 H 521.974 -3.07746 -7.16179 0
M  V30 5726 N 526.204 0.969867 -1.24223 0
M  V30 5727 C 527.62 1.23809 -1.00716 0
M  V30 5728 C 527.82 1.99469 0.285358 0
M  V30 5729 O 526.876 2.31764 1.00207 0
M  V30 5730 C 528.189 2.02734 -2.2208 0
M  V30 5731 C 529.737 2.15834 -2.26681 0
M  V30 5732 C 530.212 2.98154 -3.47661 0
M  V30 5733 N 531.703 3.05737 -3.47964 0
M  V30 5734 C 532.438 3.69785 -4.38231 0
M  V30 5735 N 531.934 4.35569 -5.3875 0
M  V30 5736 N 533.727 3.66775 -4.25949 0
M  V30 5737 H 525.878 0.463294 -2.07286 0
M  V30 5738 H 528.141 0.267348 -0.909521 0
M  V30 5739 H 527.847 1.54524 -3.15935 0
M  V30 5740 H 527.721 3.0347 -2.24021 0
M  V30 5741 H 530.108 2.63248 -1.33359 0
M  V30 5742 H 530.189 1.14453 -2.28767 0
M  V30 5743 H 529.833 2.51435 -4.41297 0
M  V30 5744 H 529.763 3.99729 -3.42818 0
M  V30 5745 H 532.254 2.58941 -2.75242 0
M  V30 5746 H 532.567 4.82251 -6.03866 0
M  V30 5747 H 530.912 4.34244 -5.42639 0
M  V30 5748 H 534.103 3.14558 -3.46657 0
M  V30 5749 H 534.276 4.16407 -4.96497 0
M  V30 5750 N 527.682 1.05563 1.17022 0
M  V30 5751 C 528.614 0.617888 2.20714 0
M  V30 5752 C 529.627 -0.320303 1.59618 0
M  V30 5753 O 530.816 -0.112449 1.78145 0
M  V30 5754 C 527.916 -0.115333 3.38704 0
M  V30 5755 C 527.089 0.834493 4.29366 0
M  V30 5756 C 526.148 0.141855 5.26009 0
M  V30 5757 O 525.174 0.777151 5.6387 0
M  V30 5758 N 526.376 -1.11934 5.69606 0
M  V30 5759 H 529.141 1.50981 2.58892 0
M  V30 5760 H 526.702 0.938008 1.31958 0
M  V30 5761 H 528.694 -0.588918 4.00392 0
M  V30 5762 H 527.264 -0.908967 2.99093 0
M  V30 5763 H 526.484 1.48762 3.65053 0
M  V30 5764 H 527.772 1.4791 4.86827 0
M  V30 5765 H 527.17 -1.65574 5.40927 0
M  V30 5766 H 525.727 -1.53692 6.33421 0
M  V30 5767 N 529.16 -1.33526 0.837174 0
M  V30 5768 C 530.406 -1.9813 0.432704 0
M  V30 5769 C 530.739 -1.66168 -1.00508 0
M  V30 5770 O 530.014 -0.94069 -1.70239 0
M  V30 5771 C 530.297 -3.54151 0.651834 0
M  V30 5772 C 530.15 -3.95806 2.13676 0
M  V30 5773 C 531.469 -4.39993 0.0968937 0
M  V30 5774 H 528.588 -0.719713 0.15869 0
M  V30 5775 H 531.23 -1.58193 1.05237 0
M  V30 5776 H 529.38 -3.88301 0.124369 0
M  V30 5777 H 531.052 -3.71921 2.72896 0
M  V30 5778 H 529.295 -3.45599 2.62191 0
M  V30 5779 H 529.966 -5.0447 2.24084 0
M  V30 5780 H 532.442 -4.12479 0.547733 0
M  V30 5781 H 531.318 -5.48186 0.279917 0
M  V30 5782 H 531.579 -4.3066 -0.9992 0
M  V30 5783 N 530.638 -0.59345 -1.46 0
M  V30 5784 C 531.568 0.121192 -2.33185 0
M  V30 5785 C 532.549 0.872977 -1.4599 0
M  V30 5786 O 533.734 0.846321 -1.74789 0
M  V30 5787 C 530.864 1.12844 -3.28456 0
M  V30 5788 C 529.818 0.4908 -4.25177 0
M  V30 5789 C 529.144 1.60529 -5.10034 0
M  V30 5790 C 530.444 -0.578949 -5.19081 0
M  V30 5791 H 532.138 -0.606767 -2.93187 0
M  V30 5792 H 529.684 -0.293242 -1.40983 0
M  V30 5793 H 531.637 1.63684 -3.88311 0
M  V30 5794 H 530.361 1.88681 -2.66584 0
M  V30 5795 H 529.02 0.00339328 -3.666 0
M  V30 5796 H 528.668 2.35359 -4.44539 0
M  V30 5797 H 528.368 1.18422 -5.75543 0
M  V30 5798 H 529.892 2.11623 -5.72755 0
M  V30 5799 H 531.306 -0.155199 -5.7309 0
M  V30 5800 H 529.703 -0.920947 -5.92991 0
M  V30 5801 H 530.773 -1.46109 -4.62364 0
M  V30 5802 N 532.116 1.54067 -0.331816 0
M  V30 5803 C 533.048 2.22139 0.564538 0
M  V30 5804 C 534.061 1.22408 1.07332 0
M  V30 5805 O 535.25 1.4883 0.985481 0
M  V30 5806 C 532.35 2.87876 1.78831 0
M  V30 5807 C 531.523 4.13817 1.41682 0
M  V30 5808 C 530.582 4.63072 2.49901 0
M  V30 5809 O 529.608 5.27562 2.13699 0
M  V30 5810 N 530.81 4.38001 3.80967 0
M  V30 5811 H 533.575 2.99694 -0.0183736 0
M  V30 5812 H 531.136 1.61153 -0.155396 0
M  V30 5813 H 533.128 3.17747 2.50637 0
M  V30 5814 H 531.698 2.13977 2.27887 0
M  V30 5815 H 530.918 3.9062 0.530044 0
M  V30 5816 H 532.206 4.95762 1.14443 0
M  V30 5817 H 531.604 3.864 4.13173 0
M  V30 5818 H 530.161 4.72507 4.48977 0
M  V30 5819 N 533.594 0.0601682 1.57485 0
M  V30 5820 C 534.504 -0.926121 2.15546 0
M  V30 5821 C 535.52 -1.33532 1.11558 0
M  V30 5822 O 536.696 -1.4104 1.4377 0
M  V30 5823 C 533.761 -2.17952 2.69625 0
M  V30 5824 C 532.822 -1.82783 3.88444 0
M  V30 5825 C 532.055 -3.02148 4.39935 0
M  V30 5826 O 532.278 -4.15803 3.90466 0
M  V30 5827 O 531.212 -2.82639 5.31412 0
M  V30 5828 H 535.038 -0.462289 3.00161 0
M  V30 5829 H 532.623 -0.162246 1.48516 0
M  V30 5830 H 534.505 -2.91474 3.04337 0
M  V30 5831 H 533.18 -2.63456 1.88077 0
M  V30 5832 H 532.087 -1.06549 3.58606 0
M  V30 5833 H 533.42 -1.42072 4.7125 0
M  V30 5834 N 535.072 -1.5615 -0.213296 0
M  V30 5835 C 536.035 -1.92249 -1.24792 0
M  V30 5836 C 537.035 -0.801828 -1.39382 0
M  V30 5837 O 538.225 -1.06948 -1.37506 0
M  V30 5838 C 535.357 -2.18056 -2.62039 0
M  V30 5839 H 536.55 -2.84793 -0.939845 0
M  V30 5840 H 534.103 -1.49559 -0.454062 0
M  V30 5841 H 534.838 -1.2809 -2.97932 0
M  V30 5842 H 534.623 -2.99703 -2.52825 0
M  V30 5843 H 536.113 -2.47051 -3.36683 0
M  V30 5844 N 536.55 0.480323 -1.50102 0
M  V30 5845 C 537.48 1.58769 -1.71215 0
M  V30 5846 C 538.461 1.60583 -0.560997 0
M  V30 5847 O 539.646 1.76996 -0.799127 0
M  V30 5848 C 536.776 2.97148 -1.79778 0
M  V30 5849 C 535.73 3.10201 -2.94888 0
M  V30 5850 C 535.056 4.50137 -2.88584 0
M  V30 5851 C 536.356 2.88283 -4.35534 0
M  V30 5852 H 538.05 1.41354 -2.6393 0
M  V30 5853 H 535.596 0.678591 -1.27008 0
M  V30 5854 H 537.549 3.74536 -1.93133 0
M  V30 5855 H 536.273 3.15699 -0.836772 0
M  V30 5856 H 534.932 2.35244 -2.81169 0
M  V30 5857 H 534.58 4.65593 -1.90349 0
M  V30 5858 H 534.28 4.59808 -3.65856 0
M  V30 5859 H 535.804 5.29558 -3.03976 0
M  V30 5860 H 537.218 3.55427 -4.49827 0
M  V30 5861 H 535.615 3.09408 -5.14186 0
M  V30 5862 H 536.685 1.84219 -4.48544 0
M  V30 5863 N 538.028 1.39524 0.732853 0
M  V30 5864 C 538.96 1.34318 1.85718 0
M  V30 5865 C 539.973 0.251576 1.60844 0
M  V30 5866 O 541.162 0.510685 1.71039 0
M  V30 5867 C 538.262 1.06334 3.21786 0
M  V30 5868 C 537.435 2.26813 3.73998 0
M  V30 5869 C 536.494 1.95253 4.88634 0
M  V30 5870 O 535.52 2.67957 5.02183 0
M  V30 5871 N 536.722 0.919984 5.73164 0
M  V30 5872 H 539.487 2.3121 1.90688 0
M  V30 5873 H 537.048 1.33654 0.91368 0
M  V30 5874 H 539.04 0.832363 3.96048 0
M  V30 5875 H 537.61 0.181682 3.12072 0
M  V30 5876 H 536.83 2.65849 2.91064 0
M  V30 5877 H 538.118 3.0717 4.05616 0
M  V30 5878 H 537.516 0.317487 5.64808 0
M  V30 5879 H 536.073 0.748905 6.47483 0
M  V30 5880 N 539.506 -0.963266 1.24736 0
M  V30 5881 C 540.754 -1.70343 1.08755 0
M  V30 5882 C 541.075 -1.91387 -0.373619 0
M  V30 5883 O 540.345 -1.4948 -1.2662 0
M  V30 5884 H 538.925 -0.631224 0.399456 0
M  V30 5885 H 541.587 -1.15859 1.56725 0
M  V30 5886 H 540.683 -2.68616 1.58909 0
M  V30 5887 N 540.985 -1.06182 -1.16461 0
M  V30 5888 C 541.915 -0.692861 -2.22984 0
M  V30 5889 C 542.896 0.314122 -1.67174 0
M  V30 5890 O 544.081 0.189499 -1.93273 0
M  V30 5891 C 541.211 -0.07732 -3.47214 0
M  V30 5892 C 540.165 -1.01015 -4.15909 0
M  V30 5893 C 539.491 -0.257973 -5.34077 0
M  V30 5894 C 540.791 -2.33868 -4.67015 0
M  V30 5895 H 542.485 -1.58343 -2.54102 0
M  V30 5896 H 540.031 -0.76279 -1.22137 0
M  V30 5897 H 541.984 0.19266 -4.20959 0
M  V30 5898 H 540.708 0.848254 -3.15392 0
M  V30 5899 H 539.367 -1.26486 -3.44088 0
M  V30 5900 H 539.015 0.670684 -4.98509 0
M  V30 5901 H 538.715 -0.879638 -5.80979 0
M  V30 5902 H 540.239 0.00448788 -6.106 0
M  V30 5903 H 541.653 -2.1279 -5.32347 0
M  V30 5904 H 540.05 -2.91522 -5.24533 0
M  V30 5905 H 541.12 -2.97019 -3.83286 0
M  V30 5906 N 542.463 1.3308 -0.844243 0
M  V30 5907 C 543.395 2.27954 -0.238671 0
M  V30 5908 C 544.408 1.51978 0.583665 0
M  V30 5909 O 545.597 1.73731 0.409857 0
M  V30 5910 C 542.697 3.31963 0.682185 0
M  V30 5911 C 541.87 4.37281 -0.101998 0
M  V30 5912 C 540.929 5.20928 0.743022 0
M  V30 5913 O 539.955 5.68914 0.180285 0
M  V30 5914 N 541.157 5.42738 2.0595 0
M  V30 5915 H 543.922 2.8056 -1.05386 0
M  V30 5916 H 541.483 1.4583 -0.70322 0
M  V30 5917 H 543.475 3.84828 1.25259 0
M  V30 5918 H 542.045 2.79594 1.39808 0
M  V30 5919 H 541.265 3.84843 -0.853802 0
M  V30 5920 H 542.553 5.04746 -0.641015 0
M  V30 5921 H 541.951 5.05463 2.54016 0
M  V30 5922 H 540.508 5.98639 2.57827 0
M  V30 5923 N 543.941 0.601185 1.45683 0
M  V30 5924 C 545.187 0.0940202 2.02582 0
M  V30 5925 C 545.52 -1.26972 1.46941 0
M  V30 5926 O 544.795 -1.83613 0.641612 0
M  V30 5927 C 545.078 0.0481715 3.60068 0
M  V30 5928 C 544.931 1.44212 4.26055 0
M  V30 5929 C 546.25 -0.642975 4.35378 0
M  V30 5930 H 543.369 0.0356404 0.736138 0
M  V30 5931 H 546.011 0.771929 1.73612 0
M  V30 5932 H 544.161 -0.529128 3.8488 0
M  V30 5933 H 545.833 2.06601 4.12449 0
M  V30 5934 H 544.076 2.00465 3.84703 0
M  V30 5935 H 544.747 1.36234 5.34925 0
M  V30 5936 H 547.223 -0.152351 4.15821 0
M  V30 5937 H 546.099 -0.644141 5.45107 0
M  V30 5938 H 546.36 -1.70785 4.0778 0
M  V30 5939 N 545.419 -1.53889 0.339982 0
M  V30 5940 C 546.382 -2.23547 -0.50592 0
M  V30 5941 C 547.382 -1.23445 -1.03044 0
M  V30 5942 O 548.572 -1.47909 -0.920253 0
M  V30 5943 C 545.704 -2.95234 -1.7044 0
M  V30 5944 H 546.897 -2.99722 0.103247 0
M  V30 5945 H 544.45 -1.56033 0.0912804 0
M  V30 5946 H 545.185 -2.23236 -2.35236 0
M  V30 5947 H 544.97 -3.68654 -1.33553 0
M  V30 5948 H 546.46 -3.48258 -2.30447 0
M  V30 5949 N 546.897 -0.0685191 -1.57451 0
M  V30 5950 C 547.827 0.89747 -2.15564 0
M  V30 5951 C 548.808 1.31266 -1.08181 0
M  V30 5952 O 549.993 1.38429 -1.36202 0
M  V30 5953 C 547.123 2.16623 -2.71463 0
M  V30 5954 C 546.077 1.89054 -3.83982 0
M  V30 5955 C 545.403 3.22532 -4.26471 0
M  V30 5956 C 546.703 1.1984 -5.08366 0
M  V30 5957 H 548.397 0.413373 -2.96533 0
M  V30 5958 H 545.943 0.197391 -1.42641 0
M  V30 5959 H 547.896 2.84614 -3.10761 0
M  V30 5960 H 546.62 2.67269 -1.8771 0
M  V30 5961 H 545.279 1.23469 -3.45183 0
M  V30 5962 H 544.927 3.71013 -3.39644 0
M  V30 5963 H 544.627 3.04879 -5.02317 0
M  V30 5964 H 546.151 3.91727 -4.68383 0
M  V30 5965 H 547.565 1.77896 -5.45001 0
M  V30 5966 H 545.962 1.12456 -5.89469 0
M  V30 5967 H 547.032 0.176996 -4.84577 0
M  V30 5968 N 548.375 1.56261 0.205012 0
M  V30 5969 C 549.615 1.81823 0.933806 0
M  V30 5970 C 549.979 0.644534 1.80858 0
M  V30 5971 O 551.18 0.779819 2.5724 0
M  V30 5972 C 549.451 3.12362 1.7368 0
M  V30 5973 S 551.01 3.59296 2.51897 0
M  V30 5974 H 547.828 0.638209 0.313386 0
M  V30 5975 H 550.43 1.94495 0.198001 0
M  V30 5976 H 549.134 3.95809 1.08459 0
M  V30 5977 H 548.665 3.02542 2.5146 0
M  V30 5978 H 550.68 3.23945 3.75864 0
M  V30 5979 N 549.853 -0.472356 1.50355 0
M  V30 5980 C 551.078 -1.25251 1.65309 0
M  V30 5981 C 551.503 -1.85081 0.335643 0
M  V30 5982 O 550.861 -1.67227 -0.700335 0
M  V30 5983 C 550.909 -2.3379 2.74544 0
M  V30 5984 O 550.013 -3.38401 2.35709 0
M  V30 5985 H 549.354 -0.368539 0.552336 0
M  V30 5986 H 551.884 -0.562271 1.96722 0
M  V30 5987 H 551.894 -2.79121 2.97583 0
M  V30 5988 H 550.569 -1.89614 3.70161 0
M  V30 5989 H 549.146 -2.9879 2.23112 0
M  V30 5990 N 551.331 -1.39911 -0.725443 0
M  V30 5991 C 552.263 -1.35301 -1.85003 0
M  V30 5992 C 553.276 -0.260102 -1.60709 0
M  V30 5993 O 554.465 -0.519749 -1.70766 0
M  V30 5994 C 551.565 -1.08039 -3.21218 0
M  V30 5995 C 550.738 -2.28793 -3.7279 0
M  V30 5996 C 549.797 -1.97841 -4.87591 0
M  V30 5997 O 548.823 -2.70616 -5.00755 0
M  V30 5998 N 550.025 -0.950367 -5.72668 0
M  V30 5999 H 552.79 -2.32218 -1.89459 0
M  V30 6000 H 550.351 -1.34137 -0.90658 0
M  V30 6001 H 552.343 -0.853354 -3.95601 0
M  V30 6002 H 550.913 -0.198229 -3.11971 0
M  V30 6003 H 550.133 -2.67388 -2.8965 0
M  V30 6004 H 551.421 -3.09317 -4.03981 0
M  V30 6005 H 550.819 -0.347436 -5.64632 0
M  V30 6006 H 549.376 -0.783232 -6.47077 0
M  V30 6007 N 552.809 0.956637 -1.25245 0
M  V30 6008 C 553.772 2.03457 -1.05537 0
M  V30 6009 C 554.772 1.60798 -0.00886317 0
M  V30 6010 O 555.962 1.72384 -0.250865 0
M  V30 6011 C 553.094 3.35543 -0.601965 0
M  V30 6012 H 554.287 2.22372 -2.01223 0
M  V30 6013 H 551.84 1.13344 -1.07623 0
M  V30 6014 H 552.575 3.22323 0.357584 0
M  V30 6015 H 552.36 3.67854 -1.35743 0
M  V30 6016 H 553.85 4.14769 -0.485454 0
M  V30 6017 N 554.287 1.06798 1.15896 0
M  V30 6018 C 555.234 0.683314 2.20453 0
M  V30 6019 C 556.204 -0.32255 1.62938 0
M  V30 6020 O 557.389 -0.210276 1.89638 0
M  V30 6021 C 554.529 0.0813266 3.45004 0
M  V30 6022 C 553.642 1.13799 4.16742 0
M  V30 6023 C 552.777 0.501598 5.28826 0
M  V30 6024 C 551.816 1.54144 5.92373 0
M  V30 6025 N 550.953 0.928038 6.9594 0
M  V30 6026 H 555.793 1.57932 2.52708 0
M  V30 6027 H 553.33 0.789544 1.24115 0
M  V30 6028 H 555.288 -0.285274 4.16224 0
M  V30 6029 H 553.918 -0.77806 3.13283 0
M  V30 6030 H 552.97 1.62223 3.44075 0
M  V30 6031 H 554.282 1.92664 4.60089 0
M  V30 6032 H 553.436 0.0823162 6.06644 0
M  V30 6033 H 552.175 -0.318883 4.86656 0
M  V30 6034 H 551.18 1.97056 5.13273 0
M  V30 6035 H 552.405 2.3641 6.36621 0
M  V30 6036 H 550.351 0.12836 6.55874 0
M  V30 6037 H 550.268 1.65401 7.37685 0
M  V30 6038 H 551.536 0.534071 7.77668 0
M  V30 6039 N 555.766 -1.3263 0.851289 0
M  V30 6040 C 556.696 -2.31449 0.308771 0
M  V30 6041 C 557.677 -1.59531 -0.590255 0
M  V30 6042 O 558.862 -1.87351 -0.511205 0
M  V30 6043 C 555.992 -3.43586 -0.506548 0
M  V30 6044 C 554.946 -4.26963 0.297753 0
M  V30 6045 C 554.272 -5.30831 -0.642094 0
M  V30 6046 C 555.572 -4.99643 1.52166 0
M  V30 6047 H 557.266 -2.77074 1.13447 0
M  V30 6048 H 554.812 -1.33207 0.546971 0
M  V30 6049 H 556.765 -4.11754 -0.896474 0
M  V30 6050 H 555.489 -2.96681 -1.36558 0
M  V30 6051 H 554.148 -3.60437 0.669391 0
M  V30 6052 H 553.796 -4.8018 -1.49788 0
M  V30 6053 H 553.496 -5.87501 -0.107968 0
M  V30 6054 H 555.02 -6.01862 -1.02927 0
M  V30 6055 H 556.434 -5.6051 1.20421 0
M  V30 6056 H 554.831 -5.66022 1.99347 0
M  V30 6057 H 555.901 -4.27701 2.28474 0
M  V30 6058 N 557.244 -0.608902 -1.45362 0
M  V30 6059 C 558.176 0.147318 -2.28726 0
M  V30 6060 C 559.189 0.830468 -1.40025 0
M  V30 6061 O 560.378 0.695636 -1.64387 0
M  V30 6062 C 557.478 1.22968 -3.15804 0
M  V30 6063 C 556.651 0.633391 -4.3279 0
M  V30 6064 C 555.71 1.60682 -5.01067 0
M  V30 6065 O 554.736 1.13261 -5.57818 0
M  V30 6066 N 555.938 2.94123 -5.00472 0
M  V30 6067 H 558.703 -0.568014 -2.94268 0
M  V30 6068 H 556.264 -0.448479 -1.55564 0
M  V30 6069 H 558.256 1.88072 -3.58345 0
M  V30 6070 H 556.826 1.84752 -2.52162 0
M  V30 6071 H 556.046 -0.195762 -3.93714 0
M  V30 6072 H 557.334 0.215255 -5.08344 0
M  V30 6073 H 556.732 3.3525 -4.55657 0
M  V30 6074 H 555.289 3.54646 -5.46872 0
M  V30 6075 N 558.722 1.53707 -0.348139 0
M  V30 6076 C 559.685 2.23812 0.494058 0
M  V30 6077 C 560.685 1.23989 1.02388 0
M  V30 6078 O 561.875 1.48395 0.912396 0
M  V30 6079 C 559.007 2.96133 1.68872 0
M  V30 6080 H 560.2 2.99663 -0.119141 0
M  V30 6081 H 557.753 1.55983 -0.0995539 0
M  V30 6082 H 558.488 2.24481 2.34049 0
M  V30 6083 H 558.273 3.69357 1.31596 0
M  V30 6084 H 559.763 3.49475 2.28597 0
M  V30 6085 N 560.2 0.0768682 1.57412 0
M  V30 6086 C 561.132 -0.918248 2.10002 0
M  V30 6087 C 562.145 -1.25808 1.03325 0
M  V30 6088 O 563.334 -1.21438 1.30824 0
M  V30 6089 C 560.434 -2.23263 2.54964 0
M  V30 6090 C 559.607 -2.07088 3.8527 0
M  V30 6091 C 558.666 -3.21876 4.16272 0
M  V30 6092 O 557.692 -2.96643 4.8579 0
M  V30 6093 N 558.894 -4.4712 3.70221 0
M  V30 6094 H 561.659 -0.469209 2.96004 0
M  V30 6095 H 559.22 -0.108725 1.61535 0
M  V30 6096 H 561.212 -2.9897 2.72762 0
M  V30 6097 H 559.782 -2.59649 1.74072 0
M  V30 6098 H 559.002 -1.15818 3.76802 0
M  V30 6099 H 560.29 -1.93537 4.70554 0
M  V30 6100 H 559.688 -4.70506 3.1407 0
M  V30 6101 H 558.245 -5.19837 3.93209 0
M  V30 6102 N 561.678 -1.56367 -0.196722 0
M  V30 6103 C 562.61 -1.90941 -1.26784 0
M  V30 6104 C 563.623 -0.799928 -1.41792 0
M  V30 6105 O 564.812 -1.07833 -1.42247 0
M  V30 6106 C 561.912 -2.12477 -2.6402 0
M  V30 6107 C 561.085 -3.43616 -2.70641 0
M  V30 6108 C 560.144 -3.54284 -3.89062 0
M  V30 6109 O 559.17 -4.2712 -3.76241 0
M  V30 6110 N 560.372 -2.87252 -5.04447 0
M  V30 6111 H 563.137 -2.83417 -0.974417 0
M  V30 6112 H 560.698 -1.57215 -0.386649 0
M  V30 6113 H 562.69 -2.16904 -3.41665 0
M  V30 6114 H 561.26 -1.26508 -2.85857 0
M  V30 6115 H 560.48 -3.51072 -1.79283 0
M  V30 6116 H 561.768 -4.29958 -2.72054 0
M  V30 6117 H 561.166 -2.27901 -5.17762 0
M  V30 6118 H 559.723 -2.97308 -5.80044 0
M  V30 6119 N 563.156 0.464375 -1.50603 0
M  V30 6120 C 564.066 1.58723 -1.72754 0
M  V30 6121 C 565.082 1.62925 -0.610844 0
M  V30 6122 O 566.258 1.8067 -0.889963 0
M  V30 6123 C 563.323 2.94897 -1.82309 0
M  V30 6124 C 562.384 3.0103 -3.06071 0
M  V30 6125 C 561.617 4.30708 -3.1516 0
M  V30 6126 O 561.84 5.2159 -2.30868 0
M  V30 6127 O 560.774 4.42571 -4.0794 0
M  V30 6128 H 564.6 1.42954 -2.67951 0
M  V30 6129 H 562.185 0.644579 -1.3478 0
M  V30 6130 H 564.067 3.75764 -1.90735 0
M  V30 6131 H 562.742 3.10851 -0.902967 0
M  V30 6132 H 561.649 2.19217 -3.03142 0
M  V30 6133 H 562.982 2.90014 -3.97684 0
M  V30 6134 N 564.634 1.40294 0.718013 0
M  V30 6135 C 565.564 1.43118 1.84498 0
M  V30 6136 C 566.545 0.292403 1.67568 0
M  V30 6137 O 567.73 0.500675 1.87635 0
M  V30 6138 C 564.86 1.29065 3.22427 0
M  V30 6139 C 563.814 2.40521 3.54025 0
M  V30 6140 C 563.14 2.11546 4.91073 0
M  V30 6141 C 564.44 3.82859 3.55269 0
M  V30 6142 H 566.134 2.37432 1.82391 0
M  V30 6143 H 563.68 1.14283 0.87609 0
M  V30 6144 H 565.633 1.29658 4.00957 0
M  V30 6145 H 564.357 0.312271 3.25104 0
M  V30 6146 H 563.016 2.39173 2.77834 0
M  V30 6147 H 562.664 1.12104 4.90348 0
M  V30 6148 H 562.364 2.86216 5.1318 0
M  V30 6149 H 563.888 2.13817 5.71939 0
M  V30 6150 H 565.302 3.86044 4.23843 0
M  V30 6151 H 563.699 4.57029 3.88902 0
M  V30 6152 H 564.769 4.12617 2.54706 0
M  V30 6153 N 566.112 -0.949982 1.2575 0
M  V30 6154 C 567.042 -2.06483 1.09028 0
M  V30 6155 C 568.023 -1.701 -0.00201532 0
M  V30 6156 O 569.208 -1.93469 0.168383 0
M  V30 6157 C 566.338 -3.39899 0.71316 0
M  V30 6158 C 565.292 -3.90309 1.75621 0
M  V30 6159 C 564.618 -5.20274 1.23365 0
M  V30 6160 C 565.918 -4.16169 3.15596 0
M  V30 6161 H 567.612 -2.20731 2.02283 0
M  V30 6162 H 565.158 -1.06066 0.973964 0
M  V30 6163 H 567.111 -4.17346 0.58309 0
M  V30 6164 H 565.835 -3.25602 -0.255091 0
M  V30 6165 H 564.494 -3.15035 1.8748 0
M  V30 6166 H 564.142 -5.02351 0.255491 0
M  V30 6167 H 563.842 -5.54971 1.93082 0
M  V30 6168 H 565.366 -6.00314 1.11607 0
M  V30 6169 H 566.78 -4.84259 3.06864 0
M  V30 6170 H 565.177 -4.62131 3.82825 0
M  V30 6171 H 566.247 -3.22273 3.6231 0
M  V30 6172 N 567.59 -1.07411 -1.15328 0
M  V30 6173 C 568.522 -0.652924 -2.19703 0
M  V30 6174 C 569.535 0.294869 -1.60107 0
M  V30 6175 O 570.724 0.0840932 -1.78302 0
M  V30 6176 C 567.824 0.061434 -3.38844 0
M  V30 6177 C 566.997 -0.902696 -4.27984 0
M  V30 6178 C 566.056 -0.225521 -5.25717 0
M  V30 6179 O 565.082 -0.86676 -5.62562 0
M  V30 6180 N 566.284 1.02858 -5.71315 0
M  V30 6181 H 569.049 -1.55081 -2.56457 0
M  V30 6182 H 566.61 -0.958883 -1.30449 0
M  V30 6183 H 568.602 0.525145 -4.01278 0
M  V30 6184 H 567.172 0.861269 -3.00501 0
M  V30 6185 H 566.392 -1.54551 -3.6264 0
M  V30 6186 H 567.68 -1.55636 -4.84412 0
M  V30 6187 H 567.078 1.56948 -5.43492 0
M  V30 6188 H 565.635 1.43596 -6.35786 0
M  V30 6189 N 569.068 1.32177 -0.85831 0
M  V30 6190 C 570.296 2.01313 -0.477582 0
M  V30 6191 C 570.711 1.6449 0.926736 0
M  V30 6192 O 570.068 0.868096 1.60531 0
M  V30 6193 C 570.119 3.56293 -0.611337 0
M  V30 6194 O 569.84 3.91794 -1.96034 0
M  V30 6195 C 571.341 4.42702 -0.230093 0
M  V30 6196 H 568.561 0.644323 -0.187322 0
M  V30 6197 H 571.105 1.68674 -1.15626 0
M  V30 6198 H 569.26 3.87395 0.0196494 0
M  V30 6199 H 569.674 4.86513 -1.95973 0
M  V30 6200 H 571.148 5.50727 -0.374674 0
M  V30 6201 H 571.625 4.3129 0.829779 0
M  V30 6202 H 572.231 4.16997 -0.836302 0
M  V30 6203 N 570.547 0.616602 1.45037 0
M  V30 6204 C 571.494 -0.0969439 2.30596 0
M  V30 6205 C 572.464 -0.851151 1.42635 0
M  V30 6206 O 573.649 -0.835092 1.71554 0
M  V30 6207 C 570.789 -1.08234 3.27688 0
M  V30 6208 C 569.902 -0.328072 4.30752 0
M  V30 6209 C 569.037 -1.30399 5.14946 0
M  V30 6210 C 568.076 -0.538049 6.09731 0
M  V30 6211 N 567.213 -1.46371 6.86673 0
M  V30 6212 H 572.053 0.63864 2.91076 0
M  V30 6213 H 569.59 0.326733 1.43425 0
M  V30 6214 H 571.548 -1.66688 3.82454 0
M  V30 6215 H 570.178 -1.78523 2.68941 0
M  V30 6216 H 569.23 0.372136 3.78575 0
M  V30 6217 H 570.542 0.269142 4.98073 0
M  V30 6218 H 569.696 -1.96032 5.74157 0
M  V30 6219 H 568.435 -1.93514 4.47665 0
M  V30 6220 H 567.44 0.131852 5.49642 0
M  V30 6221 H 568.665 0.0881732 6.79043 0
M  V30 6222 H 566.611 -2.08233 6.22073 0
M  V30 6223 H 566.528 -0.920152 7.50379 0
M  V30 6224 H 567.796 -2.10932 7.50418 0
M  V30 6225 N 572.025 -1.5352 0.356285 0
M  V30 6226 C 572.955 -2.28372 -0.486661 0
M  V30 6227 C 573.936 -1.30432 -1.09185 0
M  V30 6228 O 575.121 -1.59291 -1.11085 0
M  V30 6229 C 572.251 -3.06604 -1.63129 0
M  V30 6230 C 571.205 -4.12154 -1.15381 0
M  V30 6231 C 570.531 -4.78415 -2.38796 0
M  V30 6232 C 571.831 -5.21724 -0.245179 0
M  V30 6233 H 573.525 -2.99083 0.137797 0
M  V30 6234 H 571.071 -1.43841 0.0677134 0
M  V30 6235 H 573.024 -3.57712 -2.22755 0
M  V30 6236 H 571.748 -2.33568 -2.28284 0
M  V30 6237 H 570.407 -3.61978 -0.580294 0
M  V30 6238 H 570.055 -4.01959 -3.02387 0
M  V30 6239 H 569.755 -5.49734 -2.07524 0
M  V30 6240 H 571.279 -5.32313 -2.99125 0
M  V30 6241 H 572.693 -5.68391 -0.748646 0
M  V30 6242 H 571.09 -6.00095 -0.0237608 0
M  V30 6243 H 572.16 -4.79596 0.715229 0
M  V30 6244 N 573.503 -0.0852151 -1.57369 0
M  V30 6245 C 574.413 0.891712 -2.16992 0
M  V30 6246 C 575.429 1.3174 -1.13669 0
M  V30 6247 O 576.605 1.38735 -1.45995 0
M  V30 6248 C 573.67 2.13635 -2.73059 0
M  V30 6249 C 572.731 1.7658 -3.91303 0
M  V30 6250 C 571.964 2.95111 -4.44686 0
M  V30 6251 O 572.187 4.09539 -3.97032 0
M  V30 6252 O 571.121 2.74149 -5.35841 0
M  V30 6253 H 574.947 0.414477 -3.00858 0
M  V30 6254 H 572.532 0.138598 -1.48756 0
M  V30 6255 H 574.414 2.86595 -3.08935 0
M  V30 6256 H 573.089 2.6043 -1.92244 0
M  V30 6257 H 571.996 1.00831 -3.60255 0
M  V30 6258 H 573.329 1.34557 -4.7345 0
M  V30 6259 N 574.981 1.5647 0.188427 0
M  V30 6260 C 575.931 1.91479 1.23774 0
M  V30 6261 C 576.915 0.78119 1.40664 0
M  V30 6262 O 578.107 1.04414 1.42922 0
M  V30 6263 C 575.236 2.26354 2.58106 0
M  V30 6264 C 574.322 3.46186 2.44981 0
M  V30 6265 N 574.713 4.63911 2.01546 0
M  V30 6266 C 573.011 3.50456 2.75856 0
M  V30 6267 C 573.712 5.46064 2.00472 0
M  V30 6268 N 572.688 4.86648 2.42229 0
M  V30 6269 H 576.49 2.79994 0.893339 0
M  V30 6270 H 574.004 1.57477 0.39682 0
M  V30 6271 H 576.001 2.49622 3.33908 0
M  V30 6272 H 574.661 1.39168 2.93364 0
M  V30 6273 H 575.672 4.88451 1.7215 0
M  V30 6274 H 572.349 2.73704 3.15265 0
M  V30 6275 H 573.739 6.50368 1.68734 0
M  V30 6276 N 576.459 -0.456382 1.50847 0
M  V30 6277 C 577.389 -1.56025 1.73719 0
M  V30 6278 C 578.37 -1.5967 0.586473 0
M  V30 6279 O 579.555 -1.75702 0.827185 0
M  V30 6280 C 576.685 -2.94251 1.84483 0
M  V30 6281 C 575.639 -3.05471 2.99786 0
M  V30 6282 C 574.965 -4.45489 2.95709 0
M  V30 6283 C 576.265 -2.81318 4.40065 0
M  V30 6284 H 577.959 -1.37138 2.66146 0
M  V30 6285 H 575.505 -0.658299 1.28072 0
M  V30 6286 H 577.458 -3.71417 1.99067 0
M  V30 6287 H 576.182 -3.14328 0.886891 0
M  V30 6288 H 574.841 -2.30741 2.84876 0
M  V30 6289 H 574.489 -4.62505 1.97732 0
M  V30 6290 H 574.189 -4.53929 3.73125 0
M  V30 6291 H 575.713 -5.24655 3.12362 0
M  V30 6292 H 577.127 -3.48226 4.55425 0
M  V30 6293 H 575.524 -3.01188 5.19043 0
M  V30 6294 H 576.594 -1.7706 4.51418 0
M  V30 6295 N 577.937 -1.40673 -0.710563 0
M  V30 6296 C 579.185 -1.38947 -1.46759 0
M  V30 6297 C 579.506 0.00572879 -1.94999 0
M  V30 6298 O 578.776 0.961358 -1.70689 0
M  V30 6299 H 577.356 -0.5114 -0.544499 0
M  V30 6300 H 580.018 -1.75773 -0.842012 0
M  V30 6301 H 579.114 -2.06745 -2.33801 0
M  V30 6302 N 579.415 0.9433 -1.26252 0
M  V30 6303 C 580.826 1.50404 -1.10614 0
M  V30 6304 C 581.177 1.93666 0.31429 0
M  V30 6305 O 580.302 1.79709 1.20555 0
M  V30 6306 C 580.897 2.73336 -2.00182 0
M  V30 6307 C 579.456 3.25686 -1.88695 0
M  V30 6308 C 578.603 1.98474 -1.93658 0
M  V30 6309 H 581.554 0.759006 -1.39373 0
M  V30 6310 H 581.575 3.47567 -1.54847 0
M  V30 6311 H 581.087 2.41818 -3.03555 0
M  V30 6312 H 579.188 3.61998 -0.882489 0
M  V30 6313 H 579.301 3.92935 -2.74115 0
M  V30 6314 H 577.665 2.14278 -1.37684 0
M  V30 6315 H 578.448 1.6929 -2.98657 0
M  V30 6316 N 580.893 1.08022 1.14757 0
M  V30 6317 C 582.141 0.805913 1.85336 0
M  V30 6318 C 582.462 -0.670162 1.83122 0
M  V30 6319 O 581.732 -1.48567 1.2769 0
M  V30 6320 H 580.312 0.295138 0.686223 0
M  V30 6321 H 582.974 1.36538 1.3908 0
M  V30 6322 H 582.07 1.14655 2.90277 0
M  V30 6323 N 582.371 -1.3172 0.865308 0
M  V30 6324 C 583.281 -2.32394 0.320935 0
M  V30 6325 C 584.297 -1.64511 -0.566746 0
M  V30 6326 O 585.473 -1.95969 -0.464575 0
M  V30 6327 C 582.538 -3.43462 -0.472701 0
M  V30 6328 C 581.599 -4.27015 0.442385 0
M  V30 6329 C 580.832 -5.32779 -0.313469 0
M  V30 6330 O 581.055 -5.49158 -1.54214 0
M  V30 6331 O 579.989 -6.01015 0.326257 0
M  V30 6332 H 583.815 -2.80868 1.15528 0
M  V30 6333 H 581.4 -1.35535 0.628545 0
M  V30 6334 H 583.282 -4.11172 -0.922781 0
M  V30 6335 H 581.957 -2.97159 -1.28367 0
M  V30 6336 H 580.864 -3.62075 0.940866 0
M  V30 6337 H 582.197 -4.76871 1.21882 0
M  V30 6338 N 583.85 -0.624285 -1.44708 0
M  V30 6339 C 585.26 -0.2092 -1.85524 0
M  V30 6340 C 585.611 1.23783 -1.52225 0
M  V30 6341 O 584.736 1.94089 -0.956986 0
M  V30 6342 C 585.332 -0.372897 -3.36742 0
M  V30 6343 C 583.891 -0.012374 -3.76398 0
M  V30 6344 C 583.038 -0.68951 -2.68591 0
M  V30 6345 H 585.989 -0.829894 -1.35272 0
M  V30 6346 H 586.01 0.390134 -3.78495 0
M  V30 6347 H 585.522 -1.42615 -3.60947 0
M  V30 6348 H 583.623 1.03941 -3.57809 0
M  V30 6349 H 583.736 -0.417663 -4.77276 0
M  V30 6350 H 582.1 -0.125484 -2.54391 0
M  V30 6351 H 582.883 -1.74522 -2.9563 0
M  V30 6352 N 585.328 1.53329 -0.364422 0
M  V30 6353 C 586.739 1.86345 0.115039 0
M  V30 6354 C 587.09 1.28505 1.4826 0
M  V30 6355 O 586.215 0.606639 2.07723 0
M  V30 6356 C 586.81 3.38114 0.215522 0
M  V30 6357 C 585.369 3.70932 0.639237 0
M  V30 6358 C 584.516 2.76471 -0.214261 0
M  V30 6359 H 587.467 1.47593 -0.583258 0
M  V30 6360 H 587.488 3.66031 1.0393 0
M  V30 6361 H 587 3.80182 -0.779948 0
M  V30 6362 H 585.101 3.3442 1.64298 0
M  V30 6363 H 585.214 4.77302 0.41465 0
M  V30 6364 H 583.578 2.52724 0.316678 0
M  V30 6365 H 584.361 3.21373 -1.20725 0
M  V30 6366 N 586.806 0.0935595 1.57322 0
M  V30 6367 C 588.217 -0.435807 1.81542 0
M  V30 6368 C 588.568 -1.68263 1.00907 0
M  V30 6369 O 587.693 -2.15087 0.237983 0
M  V30 6370 C 588.288 -0.797436 3.29282 0
M  V30 6371 C 586.847 -1.27155 3.54272 0
M  V30 6372 C 585.994 -0.267455 2.76007 0
M  V30 6373 H 588.945 0.31902 1.5546 0
M  V30 6374 H 588.966 -1.6571 3.42521 0
M  V30 6375 H 588.478 0.110206 3.87943 0
M  V30 6376 H 586.579 -2.19696 3.00939 0
M  V30 6377 H 586.692 -1.23445 4.62923 0
M  V30 6378 H 585.056 -0.749282 2.43429 0
M  V30 6379 H 585.839 0.632839 3.37417 0
M  V30 6380 N 588.284 -1.56567 -0.180126 0
M  V30 6381 C 589.53 -1.81761 -0.899497 0
M  V30 6382 C 589.863 -0.670015 -1.82276 0
M  V30 6383 O 589.138 0.328575 -1.91705 0
M  V30 6384 C 589.421 -3.17296 -1.7028 0
M  V30 6385 C 589.274 -4.4257 -0.803255 0
M  V30 6386 C 590.593 -3.49678 -2.67233 0
M  V30 6387 H 587.712 -0.661192 -0.325567 0
M  V30 6388 H 590.354 -1.89272 -0.16612 0
M  V30 6389 H 588.504 -3.11023 -2.32802 0
M  V30 6390 H 590.176 -4.60902 -0.191585 0
M  V30 6391 H 588.419 -4.33658 -0.110796 0
M  V30 6392 H 589.09 -5.33935 -1.40064 0
M  V30 6393 H 591.566 -3.56347 -2.14839 0
M  V30 6394 H 590.442 -4.45605 -3.20511 0
M  V30 6395 H 590.703 -2.73932 -3.47007 0
M  V30 6396 N 589.762 0.448376 -1.51087 0
M  V30 6397 C 590.692 1.55102 -1.74544 0
M  V30 6398 C 591.673 1.59357 -0.594932 0
M  V30 6399 O 592.858 1.75261 -0.836491 0
M  V30 6400 C 589.988 2.93268 -1.86041 0
M  V30 6401 C 588.942 3.03877 -3.01402 0
M  V30 6402 C 588.268 4.43914 -2.98068 0
M  V30 6403 C 589.568 2.7898 -4.41551 0
M  V30 6404 H 591.262 1.35724 -2.66869 0
M  V30 6405 H 588.808 0.651498 -1.28419 0
M  V30 6406 H 590.761 3.70356 -2.01034 0
M  V30 6407 H 589.485 3.13853 -0.903548 0
M  V30 6408 H 588.144 2.29227 -2.86096 0
M  V30 6409 H 587.792 4.6145 -2.00182 0
M  V30 6410 H 587.492 4.51944 -3.75527 0
M  V30 6411 H 589.016 5.22991 -3.1514 0
M  V30 6412 H 590.43 3.45805 -4.57265 0
M  V30 6413 H 588.827 2.98431 -5.20633 0
M  V30 6414 H 589.897 1.74663 -4.5235 0
M  V30 6415 N 591.24 1.41047 0.703093 0
M  V30 6416 C 592.17 1.45067 1.82969 0
M  V30 6417 C 593.151 0.31016 1.67248 0
M  V30 6418 O 594.336 0.520548 1.87093 0
M  V30 6419 C 591.466 1.32478 3.2104 0
M  V30 6420 C 590.42 2.44262 3.51454 0
M  V30 6421 C 589.746 2.16742 4.88801 0
M  V30 6422 C 591.046 3.86606 3.51189 0
M  V30 6423 H 592.74 2.39353 1.79863 0
M  V30 6424 H 590.286 1.15206 0.863919 0
M  V30 6425 H 592.239 1.33904 3.99559 0
M  V30 6426 H 590.963 0.346735 3.24754 0
M  V30 6427 H 589.622 2.42107 2.75282 0
M  V30 6428 H 589.27 1.17299 4.89132 0
M  V30 6429 H 588.97 2.91643 5.10116 0
M  V30 6430 H 590.494 2.19872 5.69639 0
M  V30 6431 H 591.908 3.90517 4.19725 0
M  V30 6432 H 590.305 4.61128 3.84033 0
M  V30 6433 H 591.375 4.15296 2.50315 0
M  V30 6434 N 592.718 -0.936591 1.26751 0
M  V30 6435 C 593.648 -2.05315 1.11212 0
M  V30 6436 C 594.629 -1.70092 0.0160262 0
M  V30 6437 O 595.814 -1.93279 0.188894 0
M  V30 6438 C 592.944 -3.39123 0.749171 0
M  V30 6439 C 591.898 -3.88425 1.79751 0
M  V30 6440 C 591.224 -5.18936 1.28876 0
M  V30 6441 C 592.524 -4.12798 3.19992 0
M  V30 6442 H 594.218 -2.18573 2.04613 0
M  V30 6443 H 591.764 -1.05027 0.985159 0
M  V30 6444 H 593.717 -4.16704 0.627323 0
M  V30 6445 H 592.441 -3.25855 -0.220543 0
M  V30 6446 H 591.1 -3.13028 1.90811 0
M  V30 6447 H 590.748 -5.02051 0.308757 0
M  V30 6448 H 590.448 -5.52892 1.98958 0
M  V30 6449 H 591.972 -5.99096 1.17967 0
M  V30 6450 H 593.386 -4.80977 3.11983 0
M  V30 6451 H 591.783 -4.58044 3.87705 0
M  V30 6452 H 592.853 -3.18412 3.65707 0
M  V30 6453 N 594.196 -1.08629 -1.14182 0
M  V30 6454 C 595.128 -0.676189 -2.18998 0
M  V30 6455 C 596.141 0.277871 -1.60411 0
M  V30 6456 O 597.33 0.0651771 -1.78381 0
M  V30 6457 C 594.43 0.0254916 -3.3889 0
M  V30 6458 C 593.603 -0.948039 -4.27002 0
M  V30 6459 C 592.662 -0.281268 -5.25448 0
M  V30 6460 O 591.688 -0.926378 -5.61611 0
M  V30 6461 N 592.89 0.967923 -5.72374 0
M  V30 6462 H 595.655 -1.57792 -2.54798 0
M  V30 6463 H 593.216 -0.972665 -1.29425 0
M  V30 6464 H 595.208 0.482554 -4.01813 0
M  V30 6465 H 593.778 0.829348 -3.01398 0
M  V30 6466 H 592.998 -1.58388 -3.6098 0
M  V30 6467 H 594.286 -1.60765 -4.82734 0
M  V30 6468 H 593.684 1.51175 -5.45126 0
M  V30 6469 H 592.241 1.36844 -6.37273 0
M  V30 6470 N 595.674 1.31259 -0.872281 0
M  V30 6471 C 596.951 1.91362 -0.404943 0
M  V30 6472 C 597.331 1.79362 1.11321 0
M  V30 6473 O 596.679 1.20277 1.94283 0
M  V30 6474 C 596.889 3.3749 -0.888893 0
M  V30 6475 C 598.237 4.14593 -0.916384 0
M  V30 6476 O 599.261 3.46282 -0.834701 0
M  V30 6477 O 598.12 5.3661 -1.03498 0
M  V30 6478 H 595.214 0.818016 -0.121569 0
M  V30 6479 H 597.76 1.39912 -0.960346 0
M  V30 6480 H 596.532 3.40249 -1.93251 0
M  V30 6481 H 596.155 3.96375 -0.311932 0
M  V30 6482 N 597.152 0.631951 1.44375 0
M  V30 6483 C 598.429 0.067646 1.95483 0
M  V30 6484 C 598.809 -1.40683 1.57389 0
M  V30 6485 O 598.157 -2.12167 0.848375 0
M  V30 6486 C 598.367 0.291392 3.47781 0
M  V30 6487 C 599.715 0.185028 4.24197 0
M  V30 6488 O 600.739 0.222803 3.55503 0
M  V30 6489 O 599.598 0.0906642 5.46425 0
M  V30 6490 H 596.692 -0.0218379 0.826712 0
M  V30 6491 H 599.238 0.703711 1.54421 0
M  V30 6492 H 598.01 1.31449 3.68561 0
M  V30 6493 H 597.633 -0.378772 3.95792 0
M  V30 6494 N 598.631 -1.53133 0.372548 0
M  V30 6495 C 600.047 -1.59585 0.02178 0
M  V30 6496 C 600.247 -1.38736 -1.46132 0
M  V30 6497 O 599.303 -1.19599 -2.22379 0
M  V30 6498 C 600.616 -2.9678 0.483959 0
M  V30 6499 C 602.164 -3.09909 0.438775 0
M  V30 6500 C 602.639 -4.49527 0.876876 0
M  V30 6501 N 604.13 -4.55663 0.832214 0
M  V30 6502 C 604.865 -5.61896 1.14281 0
M  V30 6503 N 604.361 -6.75852 1.52303 0
M  V30 6504 N 606.154 -5.51916 1.06515 0
M  V30 6505 H 598.305 -1.64936 1.33827 0
M  V30 6506 H 600.568 -0.773947 0.547458 0
M  V30 6507 H 600.274 -3.17198 1.51915 0
M  V30 6508 H 600.148 -3.7699 -0.125784 0
M  V30 6509 H 602.535 -2.89197 -0.587294 0
M  V30 6510 H 602.616 -2.31691 1.0841 0
M  V30 6511 H 602.26 -4.70979 1.90109 0
M  V30 6512 H 602.19 -5.26186 0.208727 0
M  V30 6513 H 604.681 -3.73844 0.552195 0
M  V30 6514 H 604.994 -7.52862 1.7441 0
M  V30 6515 H 603.339 -6.77226 1.56175 0
M  V30 6516 H 606.53 -4.6177 0.767235 0
M  V30 6517 H 606.703 -6.34609 1.31053 0
M  V30 6518 N 600.109 -0.101901 -1.5727 0
M  V30 6519 C 601.059 0.865346 -2.1094 0
M  V30 6520 C 602.043 1.2394 -1.02605 0
M  V30 6521 O 603.235 1.21334 -1.28868 0
M  V30 6522 C 600.364 2.12187 -2.69874 0
M  V30 6523 C 599.45 1.77295 -3.85263 0
M  V30 6524 N 599.841 1.12993 -4.93017 0
M  V30 6525 C 598.139 2.06862 -3.95126 0
M  V30 6526 C 598.84 0.968631 -5.73579 0
M  V30 6527 N 597.816 1.48814 -5.22834 0
M  V30 6528 H 601.618 0.364368 -2.91633 0
M  V30 6529 H 599.132 0.101104 -1.62085 0
M  V30 6530 H 601.129 2.82431 -3.06657 0
M  V30 6531 H 599.789 2.62844 -1.90639 0
M  V30 6532 H 600.8 0.795935 -5.11747 0
M  V30 6533 H 597.477 2.59686 -3.26909 0
M  V30 6534 H 598.867 0.465231 -6.70287 0
M  V30 6535 N 601.587 1.56661 0.17182 0
M  V30 6536 C 602.812 1.86459 0.908165 0
M  V30 6537 C 603.237 0.688181 1.75059 0
M  V30 6538 O 602.595 -0.362753 1.77634 0
M  V30 6539 C 602.643 3.14669 1.76112 0
M  V30 6540 O 601.747 2.96858 2.86268 0
M  V30 6541 H 601.088 0.613318 0.254434 0
M  V30 6542 H 603.618 2.03892 0.170113 0
M  V30 6543 H 603.628 3.46061 2.16115 0
M  V30 6544 H 602.303 3.99905 1.14233 0
M  V30 6545 H 600.88 2.76819 2.49852 0
M  V30 6546 N 603.065 -0.440357 1.51323 0
M  V30 6547 C 604.293 -1.21255 1.67645 0
M  V30 6548 C 604.708 -1.85088 0.37252 0
M  V30 6549 O 604.065 -1.70582 -0.648683 0
M  V30 6550 C 604.116 -2.29881 2.78993 0
M  V30 6551 O 603.837 -1.68659 4.04334 0
M  V30 6552 C 605.338 -3.20214 3.06558 0
M  V30 6553 H 602.558 -0.36558 0.562666 0
M  V30 6554 H 605.102 -0.52214 1.97722 0
M  V30 6555 H 603.257 -2.94643 2.51524 0
M  V30 6556 H 603.671 -2.40426 4.6615 0
M  V30 6557 H 605.145 -3.92575 3.88058 0
M  V30 6558 H 605.622 -3.80794 2.18844 0
M  V30 6559 H 606.228 -2.61156 3.35675 0
M  V30 6560 N 604.543 -1.41418 -0.695603 0
M  V30 6561 C 605.768 -1.44329 -1.48942 0
M  V30 6562 C 606.193 -0.0501579 -1.88033 0
M  V30 6563 O 605.551 0.946598 -1.54626 0
M  V30 6564 C 605.599 -2.3578 -2.72837 0
M  V30 6565 O 604.703 -1.81482 -3.70322 0
M  V30 6566 H 604.044 -0.489838 -0.44828 0
M  V30 6567 H 606.574 -1.85878 -0.855014 0
M  V30 6568 H 606.584 -2.51654 -3.21145 0
M  V30 6569 H 605.259 -3.37005 -2.43722 0
M  V30 6570 H 603.836 -1.75058 -3.29255 0
M  V30 6571 N 606.021 0.929856 -1.27246 0
M  V30 6572 C 607.246 1.71674 -1.16374 0
M  V30 6573 C 607.671 1.86064 0.276024 0
M  V30 6574 O 607.029 1.3591 1.19992 0
M  V30 6575 C 607.077 3.09526 -1.85003 0
M  V30 6576 O 606.181 3.96142 -1.14653 0
M  V30 6577 H 605.522 0.52629 -0.404863 0
M  V30 6578 H 608.052 1.16381 -1.68276 0
M  V30 6579 H 608.062 3.59852 -1.92276 0
M  V30 6580 H 606.737 2.98369 -2.89739 0
M  V30 6581 H 605.314 3.54584 -1.15433 0
M  V30 6582 N 607.499 1.09233 1.13605 0
M  V30 6583 C 608.724 0.849067 1.89224 0
M  V30 6584 C 609.149 -0.593875 1.78479 0
M  V30 6585 O 608.507 -1.41703 1.13092 0
M  V30 6586 C 608.555 1.28642 3.36873 0
M  V30 6587 O 607.659 0.44363 4.10007 0
M  V30 6588 H 607 0.30767 0.588417 0
M  V30 6589 H 609.53 1.45595 1.43748 0
M  V30 6590 H 609.54 1.27096 3.87699 0
M  V30 6591 H 608.215 2.33729 3.44011 0
M  V30 6592 H 606.792 0.523241 3.69211 0
M  V30 6593 N 608.977 -1.30795 0.87923 0
M  V30 6594 C 609.887 -2.32041 0.345565 0
M  V30 6595 C 610.903 -1.65103 -0.549265 0
M  V30 6596 O 612.079 -1.9645 -0.443763 0
M  V30 6597 C 609.144 -3.43944 -0.436245 0
M  V30 6598 C 608.205 -4.26521 0.48765 0
M  V30 6599 C 607.438 -5.33081 -0.256943 0
M  V30 6600 O 607.661 -5.50762 -1.48381 0
M  V30 6601 O 606.595 -6.00635 0.389985 0
M  V30 6602 H 610.421 -2.79627 1.18501 0
M  V30 6603 H 608.006 -1.3486 0.642885 0
M  V30 6604 H 609.888 -4.12128 -0.879119 0
M  V30 6605 H 608.563 -2.98504 -1.25208 0
M  V30 6606 H 607.47 -3.61057 0.979216 0
M  V30 6607 H 608.803 -4.75551 1.26933 0
M  V30 6608 N 610.455 -0.639598 -1.44038 0
M  V30 6609 C 611.387 0.0987684 -2.28987 0
M  V30 6610 C 612.4 0.80058 -1.41755 0
M  V30 6611 O 613.589 0.660611 -1.65826 0
M  V30 6612 C 610.689 1.16242 -3.18341 0
M  V30 6613 C 609.862 0.541447 -4.34036 0
M  V30 6614 C 608.921 1.50017 -5.04362 0
M  V30 6615 O 607.947 1.01403 -5.60095 0
M  V30 6616 N 609.149 2.83441 -5.06598 0
M  V30 6617 H 611.914 -0.630305 -2.92997 0
M  V30 6618 H 609.475 -0.481376 -1.54578 0
M  V30 6619 H 611.467 1.80429 -3.62253 0
M  V30 6620 H 610.037 1.79362 -2.56024 0
M  V30 6621 H 609.257 -0.27923 -3.9321 0
M  V30 6622 H 610.545 0.107379 -5.08687 0
M  V30 6623 H 609.943 3.2551 -4.62666 0
M  V30 6624 H 608.5 3.42966 -5.54272 0
M  V30 6625 N 611.933 1.52934 -0.380664 0
M  V30 6626 C 612.843 2.29921 0.466192 0
M  V30 6627 C 613.859 1.36488 1.07922 0
M  V30 6628 O 615.035 1.69553 1.0869 0
M  V30 6629 C 612.1 3.08468 1.58266 0
M  V30 6630 C 611.161 4.17595 0.995627 0
M  V30 6631 C 610.394 4.92387 2.05889 0
M  V30 6632 O 610.617 4.67184 3.27254 0
M  V30 6633 O 609.551 5.77949 1.68102 0
M  V30 6634 H 613.377 3.03274 -0.160735 0
M  V30 6635 H 610.962 1.48698 -0.144617 0
M  V30 6636 H 612.844 3.57469 2.23145 0
M  V30 6637 H 611.519 2.37937 2.19471 0
M  V30 6638 H 610.426 3.72811 0.310332 0
M  V30 6639 H 611.759 4.90336 0.427918 0
M  V30 6640 N 613.412 0.11024 1.57214 0
M  V30 6641 C 614.828 -0.24638 1.57687 0
M  V30 6642 C 615.028 -1.67344 1.12241 0
M  V30 6643 O 614.084 -2.39298 0.805783 0
M  V30 6644 C 615.397 -0.0210288 3.00693 0
M  V30 6645 C 616.945 -0.0876077 3.12877 0
M  V30 6646 C 617.42 0.10994 4.57868 0
M  V30 6647 N 618.911 0.0556135 4.63167 0
M  V30 6648 C 619.646 0.183495 5.73106 0
M  V30 6649 N 619.142 0.367058 6.91827 0
M  V30 6650 N 620.935 0.123689 5.61964 0
M  V30 6651 H 613.086 1.04246 1.85058 0
M  V30 6652 H 615.349 0.40979 0.854854 0
M  V30 6653 H 615.055 0.965203 3.38196 0
M  V30 6654 H 614.929 -0.756748 3.69531 0
M  V30 6655 H 617.316 -1.06436 2.75237 0
M  V30 6656 H 617.397 0.67985 2.466 0
M  V30 6657 H 617.041 1.08362 4.96206 0
M  V30 6658 H 616.971 -0.677397 5.22225 0
M  V30 6659 H 619.462 -0.0831062 3.77809 0
M  V30 6660 H 619.775 0.455739 7.71455 0
M  V30 6661 H 618.12 0.40292 6.93831 0
M  V30 6662 H 621.311 -0.0186928 4.68096 0
M  V30 6663 H 621.484 0.226797 6.47603 0
M  V30 6664 N 614.89 -1.56749 -0.16351 0
M  V30 6665 C 615.8 -2.00255 -1.2221 0
M  V30 6666 C 616.816 -0.915194 -1.47987 0
M  V30 6667 O 617.992 -1.22342 -1.59982 0
M  V30 6668 C 615.057 -2.36035 -2.53946 0
M  V30 6669 C 614.118 -3.58637 -2.35962 0
M  V30 6670 C 613.351 -3.92701 -3.61416 0
M  V30 6671 O 613.574 -3.27632 -4.66919 0
M  V30 6672 O 612.508 -4.86019 -3.55062 0
M  V30 6673 H 616.334 -2.90586 -0.882794 0
M  V30 6674 H 613.919 -1.44721 -0.370978 0
M  V30 6675 H 615.801 -2.59982 -3.31643 0
M  V30 6676 H 614.476 -1.48863 -2.8744 0
M  V30 6677 H 613.383 -3.39898 -1.5627 0
M  V30 6678 H 614.716 -4.46374 -2.0739 0
M  V30 6679 N 616.368 0.432326 -1.51554 0
M  V30 6680 C 617.616 1.17901 -1.64146 0
M  V30 6681 C 617.937 1.91604 -0.362367 0
M  V30 6682 O 617.207 1.85764 0.621968 0
M  V30 6683 H 615.787 0.438206 -0.604966 0
M  V30 6684 H 618.449 0.495172 -1.88505 0
M  V30 6685 H 617.545 1.90584 -2.47152 0
M  V30 6686 N 617.846 1.41785 0.688094 0
M  V30 6687 C 619.094 1.41264 1.4453 0
M  V30 6688 C 619.415 0.0252946 1.94984 0
M  V30 6689 O 618.685 -0.934081 1.72197 0
M  V30 6690 H 617.265 0.519998 0.536294 0
M  V30 6691 H 619.927 1.7709 0.813941 0
M  V30 6692 H 619.023 2.10439 2.30482 0
M  V30 6693 N 619.324 -0.923095 1.27737 0
M  V30 6694 C 620.74 -1.19985 1.05241 0
M  V30 6695 C 620.94 -2.00391 -0.21113 0
M  V30 6696 O 619.996 -2.35324 -0.915366 0
M  V30 6697 C 621.309 -1.94352 2.29451 0
M  V30 6698 C 622.857 -2.07273 2.34536 0
M  V30 6699 C 623.332 -2.85046 3.58487 0
M  V30 6700 N 624.823 -2.92612 3.59072 0
M  V30 6701 C 625.558 -3.53266 4.51654 0
M  V30 6702 N 625.054 -4.15274 5.54545 0
M  V30 6703 N 626.847 -3.50714 4.39268 0
M  V30 6704 H 618.998 -0.386042 2.08862 0
M  V30 6705 H 621.261 -0.233407 0.918817 0
M  V30 6706 H 620.967 -1.42692 3.21453 0
M  V30 6707 H 620.841 -2.94947 2.3513 0
M  V30 6708 H 623.228 -2.58117 1.43037 0
M  V30 6709 H 623.309 -1.05884 2.32857 0
M  V30 6710 H 622.953 -2.34884 4.50324 0
M  V30 6711 H 622.883 -3.8673 3.57418 0
M  V30 6712 H 625.374 -2.48547 2.84663 0
M  V30 6713 H 625.687 -4.59507 6.21348 0
M  V30 6714 H 624.032 -4.13806 5.58382 0
M  V30 6715 H 627.223 -3.01475 3.58093 0
M  V30 6716 H 627.396 -3.97693 5.1161 0
M  V30 6717 N 620.802 -1.09834 -1.13024 0
M  V30 6718 C 622.03 -0.858902 -1.8823 0
M  V30 6719 C 622.445 0.590164 -1.79339 0
M  V30 6720 O 621.802 1.4065 -1.16292 0
M  V30 6721 C 621.853 -1.29066 -3.37675 0
M  V30 6722 O 621.574 -2.6829 -3.46341 0
M  V30 6723 C 623.075 -1.08421 -4.29837 0
M  V30 6724 H 620.295 -0.308713 -0.595766 0
M  V30 6725 H 622.839 -1.4614 -1.4305 0
M  V30 6726 H 620.994 -0.731961 -3.80422 0
M  V30 6727 H 621.408 -2.86598 -4.39274 0
M  V30 6728 H 622.882 -1.43553 -5.33007 0
M  V30 6729 H 623.359 -0.0223315 -4.39194 0
M  V30 6730 H 623.965 -1.62907 -3.92863 0
M  V30 6731 N 622.28 1.30327 -0.886154 0
M  V30 6732 C 623.691 1.78243 -0.555554 0
M  V30 6733 C 624.042 1.72849 0.928314 0
M  V30 6734 O 623.167 1.30607 1.72542 0
M  V30 6735 C 623.762 3.23654 -1.00168 0
M  V30 6736 C 622.321 3.69401 -0.722471 0
M  V30 6737 C 621.468 2.50753 -1.18399 0
M  V30 6738 H 624.419 1.1718 -1.07026 0
M  V30 6739 H 624.44 3.79056 -0.331152 0
M  V30 6740 H 623.952 3.27548 -2.08169 0
M  V30 6741 H 622.053 3.70995 0.345496 0
M  V30 6742 H 622.166 4.60818 -1.31085 0
M  V30 6743 H 620.53 2.47452 -0.603303 0
M  V30 6744 H 621.313 2.57383 -2.27176 0
M  V30 6745 N 623.758 0.647228 1.43697 0
M  V30 6746 C 624.986 0.16575 2.06235 0
M  V30 6747 C 625.401 -1.1662 1.48476 0
M  V30 6748 O 624.758 -1.7187 0.613762 0
M  V30 6749 C 624.809 0.0621651 3.61447 0
M  V30 6750 O 624.53 1.34146 4.17057 0
M  V30 6751 C 626.031 -0.446102 4.4105 0
M  V30 6752 H 623.251 0.0871158 0.665321 0
M  V30 6753 H 625.795 0.886183 1.84301 0
M  V30 6754 H 623.95 -0.608794 3.82587 0
M  V30 6755 H 624.364 1.19675 5.10664 0
M  V30 6756 H 625.838 -0.46755 5.50016 0
M  V30 6757 H 626.315 -1.47627 4.13646 0
M  V30 6758 H 626.921 0.192159 4.24866 0
M  V30 6759 N 625.236 -1.5273 0.388769 0
M  V30 6760 C 626.166 -2.29353 -0.438111 0
M  V30 6761 C 627.147 -1.32719 -1.06394 0
M  V30 6762 O 628.332 -1.61612 -1.07681 0
M  V30 6763 C 625.462 -3.09995 -1.56589 0
M  V30 6764 C 624.416 -4.14509 -1.06613 0
M  V30 6765 C 623.742 -4.83372 -2.28594 0
M  V30 6766 C 625.042 -5.22127 -0.134459 0
M  V30 6767 H 626.736 -2.98723 0.201206 0
M  V30 6768 H 624.282 -1.43665 0.0982089 0
M  V30 6769 H 626.235 -3.62357 -2.15118 0
M  V30 6770 H 624.959 -2.38357 -2.23279 0
M  V30 6771 H 623.618 -3.63128 -0.503383 0
M  V30 6772 H 623.266 -4.08283 -2.93792 0
M  V30 6773 H 622.966 -5.54012 -1.95817 0
M  V30 6774 H 624.49 -5.38538 -2.87766 0
M  V30 6775 H 625.904 -5.69851 -0.627914 0
M  V30 6776 H 624.301 -6.00011 0.103534 0
M  V30 6777 H 625.371 -4.77971 0.816798 0
M  V30 6778 N 626.714 -0.118576 -1.57153 0
M  V30 6779 C 627.624 0.845484 -2.18835 0
M  V30 6780 C 628.64 1.29299 -1.16438 0
M  V30 6781 O 629.816 1.35607 -1.48905 0
M  V30 6782 C 626.881 2.07795 -2.77529 0
M  V30 6783 C 625.942 1.6824 -3.9496 0
M  V30 6784 C 625.175 2.85612 -4.50845 0
M  V30 6785 O 625.398 4.01025 -4.05629 0
M  V30 6786 O 624.332 2.62721 -5.41536 0
M  V30 6787 H 628.158 0.350568 -3.0167 0
M  V30 6788 H 625.743 0.107013 -1.49016 0
M  V30 6789 H 627.625 2.79978 -3.14945 0
M  V30 6790 H 626.3 2.56294 -1.97725 0
M  V30 6791 H 625.207 0.931663 -3.62313 0
M  V30 6792 H 626.54 1.24484 -4.76198 0
M  V30 6793 N 628.193 1.56834 0.155195 0
M  V30 6794 C 629.442 1.82088 0.867567 0
M  V30 6795 C 629.755 0.69849 1.82703 0
M  V30 6796 O 630.961 0.836407 2.58295 0
M  V30 6797 C 629.417 3.22707 1.59336 0
M  V30 6798 C 629.025 4.42859 0.676719 0
M  V30 6799 C 630.769 3.57242 2.293 0
M  V30 6800 C 628.676 5.74501 1.40367 0
M  V30 6801 H 627.606 0.679057 0.327715 0
M  V30 6802 H 630.257 1.83105 0.120351 0
M  V30 6803 H 628.639 3.16054 2.38591 0
M  V30 6804 H 629.813 4.60731 -0.0800196 0
M  V30 6805 H 628.128 4.16311 0.0859129 0
M  V30 6806 H 630.725 4.52847 2.84312 0
M  V30 6807 H 631.068 2.82901 3.05406 0
M  V30 6808 H 631.601 3.6552 1.56972 0
M  V30 6809 H 628.34 6.51915 0.684623 0
M  V30 6810 H 627.86 5.60579 2.13332 0
M  V30 6811 H 629.539 6.17016 1.94681 0
M  V30 6812 N 629.671 -0.424282 1.51781 0
M  V30 6813 C 630.601 -1.52305 1.7699 0
M  V30 6814 C 631.582 -1.5839 0.620209 0
M  V30 6815 O 632.767 -1.73908 0.864268 0
M  V30 6816 C 629.897 -2.90271 1.90683 0
M  V30 6817 C 628.851 -2.99043 3.06198 0
M  V30 6818 C 628.177 -4.39116 3.05092 0
M  V30 6819 C 629.477 -2.7192 4.45934 0
M  V30 6820 H 631.171 -1.31461 2.68995 0
M  V30 6821 H 628.717 -0.630985 1.29439 0
M  V30 6822 H 630.67 -3.6711 2.06901 0
M  V30 6823 H 629.394 -3.12376 0.953365 0
M  V30 6824 H 628.053 -2.24646 2.89706 0
M  V30 6825 H 627.701 -4.58207 2.07498 0
M  V30 6826 H 627.401 -4.45912 3.82669 0
M  V30 6827 H 628.925 -5.17911 3.2342 0
M  V30 6828 H 630.339 -3.38487 4.62709 0
M  V30 6829 H 628.736 -2.90111 5.25315 0
M  V30 6830 H 629.806 -1.67445 4.55072 0
M  V30 6831 N 631.149 -1.42148 -0.680565 0
M  V30 6832 C 632.096 -1.45175 -1.79424 0
M  V30 6833 C 633.066 -0.304352 -1.63288 0
M  V30 6834 O 634.251 -0.507591 -1.83924 0
M  V30 6835 C 631.391 -1.35429 -3.17416 0
M  V30 6836 C 630.504 -2.60158 -3.4488 0
M  V30 6837 C 629.639 -2.42596 -4.72568 0
M  V30 6838 C 628.678 -3.62727 -4.93047 0
M  V30 6839 N 627.815 -3.44143 -6.11973 0
M  V30 6840 H 632.655 -2.40349 -1.76172 0
M  V30 6841 H 630.192 -1.19334 -0.860107 0
M  V30 6842 H 632.15 -1.27777 -3.97151 0
M  V30 6843 H 630.78 -0.438536 -3.19807 0
M  V30 6844 H 629.832 -2.78199 -2.5944 0
M  V30 6845 H 631.144 -3.49473 -3.55908 0
M  V30 6846 H 630.298 -2.32497 -5.60384 0
M  V30 6847 H 629.037 -1.50761 -4.63813 0
M  V30 6848 H 628.042 -3.73264 -4.03676 0
M  V30 6849 H 629.267 -4.55534 -5.03652 0
M  V30 6850 H 627.213 -2.5502 -6.04401 0
M  V30 6851 H 627.13 -4.27041 -6.23836 0
M  V30 6852 H 628.398 -3.37845 -7.02482 0
M  V30 6853 N 632.627 0.916307 -1.28225 0
M  V30 6854 C 633.852 1.7043 -1.18188 0
M  V30 6855 C 634.277 1.86346 0.256274 0
M  V30 6856 O 633.635 1.37175 1.18544 0
M  V30 6857 C 633.683 3.07546 -1.88275 0
M  V30 6858 O 632.787 3.94904 -1.18848 0
M  V30 6859 H 632.128 0.521967 -0.410423 0
M  V30 6860 H 634.658 1.14589 -1.69501 0
M  V30 6861 H 634.668 3.57793 -1.96082 0
M  V30 6862 H 633.343 2.95279 -2.92887 0
M  V30 6863 H 631.92 3.53339 -1.19187 0
M  V30 6864 N 634.105 1.10431 1.1244 0
M  V30 6865 C 635.055 0.722378 2.16254 0
M  V30 6866 C 636.039 -0.268427 1.58645 0
M  V30 6867 O 637.231 -0.077169 1.76832 0
M  V30 6868 C 634.36 0.155763 3.42946 0
M  V30 6869 C 633.446 1.17361 4.07538 0
M  V30 6870 N 633.837 2.36429 4.47141 0
M  V30 6871 C 632.135 1.01412 4.34317 0
M  V30 6872 C 632.836 3.01259 4.97612 0
M  V30 6873 N 631.812 2.28777 4.93115 0
M  V30 6874 H 635.614 1.62876 2.4464 0
M  V30 6875 H 633.128 0.982031 1.29344 0
M  V30 6876 H 635.125 -0.135936 4.16678 0
M  V30 6877 H 633.785 -0.745339 3.1603 0
M  V30 6878 H 634.796 2.73954 4.39511 0
M  V30 6879 H 631.473 0.168574 4.1716 0
M  V30 6880 H 632.863 4.02541 5.37968 0
M  V30 6881 N 635.583 -1.29855 0.893053 0
M  V30 6882 C 636.832 -1.95104 0.511597 0
M  V30 6883 C 637.145 -1.71226 -0.945567 0
M  V30 6884 O 638.351 -2.30525 -1.43424 0
M  V30 6885 C 636.807 -3.49374 0.864034 0
M  V30 6886 C 636.415 -3.82061 2.33952 0
M  V30 6887 C 638.159 -4.20894 0.552167 0
M  V30 6888 C 636.066 -5.29546 2.63316 0
M  V30 6889 H 634.996 -0.73029 0.187597 0
M  V30 6890 H 637.647 -1.47682 1.08914 0
M  V30 6891 H 636.029 -3.95413 0.215493 0
M  V30 6892 H 637.203 -3.46904 3.03305 0
M  V30 6893 H 635.518 -3.23665 2.61973 0
M  V30 6894 H 638.115 -5.29435 0.748489 0
M  V30 6895 H 638.458 -4.13178 -0.508924 0
M  V30 6896 H 638.991 -3.80564 1.15825 0
M  V30 6897 H 635.73 -5.4232 3.68197 0
M  V30 6898 H 635.25 -5.65974 1.9858 0
M  V30 6899 H 636.929 -5.97068 2.49236 0
M  V30 6900 N 637.061 -0.65484 -1.43351 0
M  V30 6901 C 638.286 -0.175046 -2.0666 0
M  V30 6902 C 638.711 1.15104 -1.4877 0
M  V30 6903 O 638.069 1.71144 -0.598279 0
M  V30 6904 C 638.117 -0.0991544 -3.60464 0
M  V30 6905 O 637.221 0.938169 -4.01587 0
M  V30 6906 H 636.562 -0.0956148 -0.65708 0
M  V30 6907 H 639.092 -0.898222 -1.83829 0
M  V30 6908 H 639.102 0.083632 -4.07914 0
M  V30 6909 H 637.777 -1.06719 -4.01975 0
M  V30 6910 H 636.354 0.72804 -3.65724 0
M  V30 6911 N 638.539 1.52521 -0.396863 0
M  V30 6912 C 639.787 2.01274 0.182536 0
M  V30 6913 C 640.108 1.28485 1.46685 0
M  V30 6914 O 639.378 0.407134 1.91623 0
M  V30 6915 H 637.958 0.743671 0.0704442 0
M  V30 6916 H 640.62 1.87547 -0.530289 0
M  V30 6917 H 639.716 3.09687 0.387385 0
M  V30 6918 N 640.017 0.126909 1.57088 0
M  V30 6919 C 641.266 -0.529024 1.94639 0
M  V30 6920 C 641.579 -1.67323 1.01304 0
M  V30 6921 O 642.785 -2.39245 1.28352 0
M  V30 6922 C 641.241 -0.992483 3.45945 0
M  V30 6923 C 640.849 0.123691 4.47829 0
M  V30 6924 C 642.593 -1.61934 3.924 0
M  V30 6925 C 640.5 -0.356911 5.90322 0
M  V30 6926 H 639.43 -0.201397 0.726605 0
M  V30 6927 H 642.081 0.208032 1.82317 0
M  V30 6928 H 640.463 -1.7842 3.53528 0
M  V30 6929 H 641.637 0.900168 4.51922 0
M  V30 6930 H 639.952 0.657699 4.11173 0
M  V30 6931 H 642.549 -1.9902 4.96281 0
M  V30 6932 H 642.892 -2.50075 3.32819 0
M  V30 6933 H 643.425 -0.892894 3.8765 0
M  V30 6934 H 640.164 0.488636 6.53676 0
M  V30 6935 H 639.684 -1.0997 5.89633 0
M  V30 6936 H 641.363 -0.815547 6.41839 0
M  V30 6937 N 641.495 -1.56914 -0.146875 0
M  V30 6938 C 642.742 -1.83356 -0.859467 0
M  V30 6939 C 643.07 -0.707811 -1.81164 0
M  V30 6940 O 642.325 0.303155 -1.93338 0
M  V30 6941 C 642.624 -3.16128 -1.66727 0
M  V30 6942 C 642.29 -4.42586 -0.861881 0
M  V30 6943 C 640.952 -4.76929 -0.639687 0
M  V30 6944 C 643.304 -5.20344 -0.298643 0
M  V30 6945 C 640.632 -5.86491 0.156451 0
M  V30 6946 C 642.984 -6.30742 0.484536 0
M  V30 6947 C 641.648 -6.63635 0.717306 0
M  V30 6948 H 640.918 -0.670947 -0.314501 0
M  V30 6949 H 643.565 -1.91104 -0.123108 0
M  V30 6950 H 641.87 -3.03831 -2.47374 0
M  V30 6951 H 643.567 -3.33802 -2.2221 0
M  V30 6952 H 640.157 -4.15662 -1.04513 0
M  V30 6953 H 644.341 -4.94186 -0.457585 0
M  V30 6954 H 639.597 -6.10419 0.346292 0
M  V30 6955 H 643.771 -6.90188 0.928105 0
M  V30 6956 H 641.398 -7.48367 1.33607 0
M  V30 6957 N 642.974 0.416227 -1.52004 0
M  V30 6958 C 644.39 0.754319 -1.40649 0
M  V30 6959 C 644.59 1.95059 -0.505392 0
M  V30 6960 O 643.646 2.5248 0.0315057 0
M  V30 6961 C 644.959 1.0149 -2.83055 0
M  V30 6962 C 646.507 1.11805 -2.9235 0
M  V30 6963 C 646.982 1.41144 -4.35709 0
M  V30 6964 N 648.473 1.48024 -4.38911 0
M  V30 6965 C 649.208 1.72338 -5.46889 0
M  V30 6966 N 648.704 1.94303 -6.64995 0
M  V30 6967 N 650.497 1.74294 -5.34395 0
M  V30 6968 H 642.648 -0.371324 -2.09129 0
M  V30 6969 H 644.911 -0.103811 -0.942299 0
M  V30 6970 H 644.617 0.208345 -3.51082 0
M  V30 6971 H 644.491 1.93697 -3.23668 0
M  V30 6972 H 646.878 1.91521 -2.24508 0
M  V30 6973 H 646.959 0.17451 -2.55204 0
M  V30 6974 H 646.603 0.619484 -5.04108 0
M  V30 6975 H 646.533 2.36739 -4.70385 0
M  V30 6976 H 649.024 1.32868 -3.53772 0
M  V30 6977 H 649.337 2.12286 -7.43071 0
M  V30 6978 H 647.682 1.91582 -6.68073 0
M  V30 6979 H 650.873 1.56667 -4.41104 0
M  V30 6980 H 651.046 1.92904 -6.18621 0
M  V30 6981 N 644.452 1.42507 0.673017 0
M  V30 6982 C 645.863 1.38347 1.25367 0
M  V30 6983 C 646.214 0.0776327 1.96046 0
M  V30 6984 O 645.339 -0.823571 2.00116 0
M  V30 6985 C 645.934 2.506 2.28002 0
M  V30 6986 C 644.493 2.49767 2.81591 0
M  V30 6987 C 643.64 2.293 1.55938 0
M  V30 6988 H 646.591 1.51695 0.466288 0
M  V30 6989 H 646.612 2.20953 3.09774 0
M  V30 6990 H 646.124 3.45627 1.76532 0
M  V30 6991 H 644.225 1.58563 3.37177 0
M  V30 6992 H 644.338 3.46867 3.30485 0
M  V30 6993 H 642.702 1.77594 1.82572 0
M  V30 6994 H 643.485 3.26385 1.06431 0
M  V30 6995 N 645.93 -0.909495 1.28709 0
M  V30 6996 C 646.877 -2.01245 1.13 0
M  V30 6997 C 647.847 -1.6608 0.0259684 0
M  V30 6998 O 649.032 -1.89835 0.191687 0
M  V30 6999 C 646.172 -3.35644 0.802315 0
M  V30 7000 C 645.285 -3.83653 1.98582 0
M  V30 7001 C 644.42 -5.06582 1.59837 0
M  V30 7002 C 643.459 -5.46934 2.74827 0
M  V30 7003 N 642.596 -6.61053 2.36546 0
M  V30 7004 H 647.436 -2.14013 2.0737 0
M  V30 7005 H 644.973 -1.0482 1.03205 0
M  V30 7006 H 646.931 -4.12963 0.593057 0
M  V30 7007 H 645.561 -3.22631 -0.104457 0
M  V30 7008 H 644.613 -3.02454 2.30708 0
M  V30 7009 H 645.925 -4.09515 2.84779 0
M  V30 7010 H 645.079 -5.91457 1.35143 0
M  V30 7011 H 643.818 -4.82537 0.707753 0
M  V30 7012 H 642.823 -4.60599 3.00215 0
M  V30 7013 H 644.048 -5.72965 3.64538 0
M  V30 7014 H 641.994 -6.3863 1.49959 0
M  V30 7015 H 641.911 -6.86662 3.16277 0
M  V30 7016 H 643.179 -7.49221 2.15146 0
M  V30 7017 N 647.408 -1.11026 -1.11852 0
M  V30 7018 C 648.655 -0.85646 -1.83497 0
M  V30 7019 C 648.983 0.617938 -1.84423 0
M  V30 7020 O 648.238 1.47194 -1.28966 0
M  V30 7021 C 648.537 -1.35777 -3.30604 0
M  V30 7022 C 648.203 -2.84465 -3.49843 0
M  V30 7023 C 646.865 -3.25068 -3.54802 0
M  V30 7024 C 649.217 -3.80251 -3.56453 0
M  V30 7025 C 646.545 -4.60194 -3.63921 0
M  V30 7026 C 648.897 -5.15188 -3.67102 0
M  V30 7027 C 647.561 -5.55356 -3.70319 0
M  V30 7028 H 646.831 -0.313401 -0.671462 0
M  V30 7029 H 649.478 -1.38792 -1.31943 0
M  V30 7030 H 647.783 -0.746455 -3.84624 0
M  V30 7031 H 649.48 -1.13779 -3.8452 0
M  V30 7032 H 646.07 -2.52054 -3.46651 0
M  V30 7033 H 650.254 -3.49986 -3.51886 0
M  V30 7034 H 645.51 -4.90728 -3.64686 0
M  V30 7035 H 649.684 -5.89248 -3.71159 0
M  V30 7036 H 647.311 -6.60054 -3.77138 0
M  V30 7037 N 648.886 1.2938 -0.899927 0
M  V30 7038 C 650.111 2.00228 -0.540692 0
M  V30 7039 C 650.536 1.66909 0.867359 0
M  V30 7040 O 649.894 0.893824 1.57735 0
M  V30 7041 C 649.942 3.52921 -0.740232 0
M  V30 7042 O 649.046 4.11879 0.207154 0
M  V30 7043 H 648.387 0.629505 -0.211233 0
M  V30 7044 H 650.917 1.6487 -1.21158 0
M  V30 7045 H 650.927 4.0287 -0.644973 0
M  V30 7046 H 649.602 3.76508 -1.76677 0
M  V30 7047 H 648.179 3.72845 0.0643315 0
M  V30 7048 N 650.364 0.662433 1.43002 0
M  V30 7049 C 651.294 -0.00979809 2.33498 0
M  V30 7050 C 652.275 -0.802329 1.49989 0
M  V30 7051 O 653.46 -0.761964 1.78627 0
M  V30 7052 C 650.59 -0.970446 3.33466 0
M  V30 7053 C 649.544 -0.287383 4.27034 0
M  V30 7054 C 648.87 -1.36012 5.17112 0
M  V30 7055 C 650.17 0.82595 5.15728 0
M  V30 7056 H 651.864 0.745959 2.89958 0
M  V30 7057 H 649.41 0.360172 1.39423 0
M  V30 7058 H 651.363 -1.44971 3.95679 0
M  V30 7059 H 650.087 -1.75748 2.75282 0
M  V30 7060 H 648.746 0.17152 3.66199 0
M  V30 7061 H 648.394 -2.13882 4.55262 0
M  V30 7062 H 648.094 -0.908276 5.80538 0
M  V30 7063 H 649.618 -1.84056 5.82199 0
M  V30 7064 H 651.032 0.42845 5.71697 0
M  V30 7065 H 649.429 1.20282 5.87922 0
M  V30 7066 H 650.499 1.68003 4.54866 0
M  V30 7067 N 651.842 -1.52309 0.404946 0
M  V30 7068 C 653.253 -1.86585 -0.0655926 0
M  V30 7069 C 653.604 -1.3239 -1.44801 0
M  V30 7070 O 652.729 -0.6615 -2.06042 0
M  V30 7071 C 653.324 -3.38566 -0.125801 0
M  V30 7072 C 651.883 -3.72497 -0.540666 0
M  V30 7073 C 651.03 -2.75806 0.287487 0
M  V30 7074 H 653.981 -1.45995 0.622185 0
M  V30 7075 H 654.002 -3.68658 -0.941888 0
M  V30 7076 H 653.514 -3.77981 0.880473 0
M  V30 7077 H 651.615 -3.38659 -1.55373 0
M  V30 7078 H 651.728 -4.78234 -0.287956 0
M  V30 7079 H 650.092 -2.53474 -0.249561 0
M  V30 7080 H 650.875 -3.18059 1.29203 0
M  V30 7081 N 653.32 -0.135238 -1.57019 0
M  V30 7082 C 654.731 0.387521 -1.82634 0
M  V30 7083 C 655.082 1.65528 -1.05332 0
M  V30 7084 O 654.207 2.14381 -0.294926 0
M  V30 7085 C 654.802 0.709852 -3.3128 0
M  V30 7086 C 653.361 1.17718 -3.57518 0
M  V30 7087 C 652.508 0.194183 -2.76619 0
M  V30 7088 H 655.459 -0.360126 -1.5456 0
M  V30 7089 H 655.48 1.5657 -3.46794 0
M  V30 7090 H 654.992 -0.213024 -3.87515 0
M  V30 7091 H 653.093 2.1164 -3.06658 0
M  V30 7092 H 653.206 1.11128 -4.66034 0
M  V30 7093 H 651.57 0.684478 -2.4533 0
M  V30 7094 H 652.353 -0.722076 -3.3562 0
M  V30 7095 N 654.798 1.5699 0.138552 0
M  V30 7096 C 656.209 1.73171 0.697754 0
M  V30 7097 C 656.56 0.750952 1.8126 0
M  V30 7098 O 655.685 -0.080549 2.1625 0
M  V30 7099 C 656.28 3.13996 1.27248 0
M  V30 7100 C 654.839 3.3175 1.77816 0
M  V30 7101 C 653.986 2.69084 0.669991 0
M  V30 7102 H 656.937 1.5846 -0.0871979 0
M  V30 7103 H 656.958 3.14463 2.14227 0
M  V30 7104 H 656.47 3.85354 0.460855 0
M  V30 7105 H 654.571 2.65403 2.61519 0
M  V30 7106 H 654.684 4.39768 1.90107 0
M  V30 7107 H 653.048 2.29782 1.09874 0
M  V30 7108 H 653.831 3.43053 -0.130329 0
M  V30 7109 N 656.276 -0.40816 1.52223 0
M  V30 7110 C 657.206 -1.5042 1.78595 0
M  V30 7111 C 658.187 -1.57723 0.636974 0
M  V30 7112 O 659.372 -1.72982 0.882664 0
M  V30 7113 C 656.502 -2.88232 1.93751 0
M  V30 7114 C 655.456 -2.95779 3.09352 0
M  V30 7115 C 654.782 -4.35855 3.09732 0
M  V30 7116 C 656.082 -2.67175 4.48793 0
M  V30 7117 H 657.776 -1.28601 2.70374 0
M  V30 7118 H 655.322 -0.617221 1.30101 0
M  V30 7119 H 657.275 -3.64895 2.10783 0
M  V30 7120 H 655.999 -3.11347 0.986443 0
M  V30 7121 H 654.658 -2.21561 2.92072 0
M  V30 7122 H 654.306 -4.55981 2.12346 0
M  V30 7123 H 654.006 -4.41829 3.87377 0
M  V30 7124 H 655.53 -5.14451 3.28895 0
M  V30 7125 H 656.944 -3.3356 4.66273 0
M  V30 7126 H 655.341 -2.84523 5.28362 0
M  V30 7127 H 656.411 -1.62609 4.56822 0
M  V30 7128 N 657.755 -1.42862 -0.66545 0
M  V30 7129 C 658.687 -1.43026 -1.79098 0
M  V30 7130 C 659.7 -0.32803 -1.59461 0
M  V30 7131 O 660.889 -0.591709 -1.68407 0
M  V30 7132 C 657.989 -1.21566 -3.16346 0
M  V30 7133 C 657.162 -2.44399 -3.62751 0
M  V30 7134 C 656.221 -2.18344 -4.78761 0
M  V30 7135 O 655.247 -2.91611 -4.88827 0
M  V30 7136 N 656.449 -1.1924 -5.68122 0
M  V30 7137 H 659.214 -2.40045 -1.79439 0
M  V30 7138 H 656.775 -1.37861 -0.848872 0
M  V30 7139 H 658.767 -1.02037 -3.91625 0
M  V30 7140 H 657.337 -0.330368 -3.10849 0
M  V30 7141 H 656.557 -2.79433 -2.78048 0
M  V30 7142 H 657.845 -3.26173 -3.90498 0
M  V30 7143 H 657.243 -0.586603 -5.6265 0
M  V30 7144 H 655.8 -1.05698 -6.43173 0
M  V30 7145 N 659.233 0.902656 -1.29189 0
M  V30 7146 C 660.163 2.02294 -1.16616 0
M  V30 7147 C 661.144 1.6999 -0.0611175 0
M  V30 7148 O 662.329 1.9271 -0.240072 0
M  V30 7149 C 659.459 3.37018 -0.83882 0
M  V30 7150 C 658.413 3.83522 -1.89986 0
M  V30 7151 C 657.739 5.15337 -1.42589 0
M  V30 7152 C 659.039 4.04169 -3.30824 0
M  V30 7153 H 660.733 2.13071 -2.10336 0
M  V30 7154 H 658.279 1.02378 -1.01266 0
M  V30 7155 H 660.232 4.14895 -0.737584 0
M  V30 7156 H 658.956 3.26325 0.134071 0
M  V30 7157 H 657.615 3.07859 -1.99043 0
M  V30 7158 H 657.263 5.01056 -0.441759 0
M  V30 7159 H 656.963 5.47423 -2.13547 0
M  V30 7160 H 658.487 5.95758 -1.3381 0
M  V30 7161 H 659.901 4.72537 -3.24626 0
M  V30 7162 H 658.298 4.47604 -3.99713 0
M  V30 7163 H 659.368 3.08604 -3.74021 0
M  V30 7164 N 660.711 1.11618 1.11262 0
M  V30 7165 C 661.96 0.860934 1.82403 0
M  V30 7166 C 662.273 -0.615303 1.8567 0
M  V30 7167 O 663.479 -0.986861 2.52929 0
M  V30 7168 C 661.935 1.49048 3.27586 0
M  V30 7169 C 661.543 3.00089 3.32642 0
M  V30 7170 C 663.287 1.31515 4.03614 0
M  V30 7171 C 661.194 3.56019 4.72234 0
M  V30 7172 H 660.124 0.318423 0.683464 0
M  V30 7173 H 662.775 1.34165 1.25188 0
M  V30 7174 H 661.157 0.937434 3.84744 0
M  V30 7175 H 662.331 3.61813 2.85356 0
M  V30 7176 H 660.646 3.16919 2.70096 0
M  V30 7177 H 663.243 1.70732 5.0671 0
M  V30 7178 H 663.586 0.257917 4.155 0
M  V30 7179 H 664.119 1.83694 3.52848 0
M  V30 7180 H 660.858 4.61463 4.65545 0
M  V30 7181 H 660.378 2.99066 5.19923 0
M  V30 7182 H 662.057 3.54568 5.41193 0
M  V30 7183 N 662.189 -1.289 0.906776 0
M  V30 7184 C 663.6 -1.77336 0.58384 0
M  V30 7185 C 663.951 -1.74304 -0.900697 0
M  V30 7186 O 663.076 -1.33335 -1.70443 0
M  V30 7187 C 663.671 -3.22019 1.05304 0
M  V30 7188 C 662.23 -3.68205 0.781148 0
M  V30 7189 C 661.377 -2.48837 1.22373 0
M  V30 7190 H 664.328 -1.15462 1.08877 0
M  V30 7191 H 664.349 -3.78481 0.391414 0
M  V30 7192 H 663.861 -3.24194 2.13353 0
M  V30 7193 H 661.962 -3.71497 -0.28643 0
M  V30 7194 H 662.075 -4.58675 1.384 0
M  V30 7195 H 660.439 -2.46461 0.642594 0
M  V30 7196 H 661.222 -2.53736 2.31242 0
M  V30 7197 N 663.667 -0.670007 -1.42649 0
M  V30 7198 C 664.577 0.0114788 -2.34597 0
M  V30 7199 C 665.593 0.794055 -1.54825 0
M  V30 7200 O 666.769 0.737472 -1.87412 0
M  V30 7201 C 663.834 0.954436 -3.33304 0
M  V30 7202 C 662.895 0.166925 -4.28975 0
M  V30 7203 C 662.128 1.06497 -5.22967 0
M  V30 7204 O 662.351 2.30446 -5.21777 0
M  V30 7205 O 661.285 0.528347 -5.99577 0
M  V30 7206 H 665.111 -0.745794 -2.944 0
M  V30 7207 H 662.696 -0.430228 -1.43071 0
M  V30 7208 H 664.578 1.49589 -3.93956 0
M  V30 7209 H 663.253 1.69164 -2.7598 0
M  V30 7210 H 662.16 -0.418515 -3.71752 0
M  V30 7211 H 663.493 -0.531067 -4.89327 0
M  V30 7212 N 665.145 1.52092 -0.413018 0
M  V30 7213 C 666.391 2.02154 0.161737 0
M  V30 7214 C 666.724 1.29789 1.44459 0
M  V30 7215 O 665.999 0.405378 1.90229 0
M  V30 7216 C 666.282 3.5781 0.405463 0
M  V30 7217 C 666.135 4.40819 -0.894335 0
M  V30 7218 C 667.454 4.23821 1.18591 0
M  V30 7219 H 664.573 0.734769 0.0573077 0
M  V30 7220 H 667.215 1.81948 -0.547247 0
M  V30 7221 H 665.365 3.75158 1.0094 0
M  V30 7222 H 667.037 4.35175 -1.53039 0
M  V30 7223 H 665.28 4.06877 -1.50444 0
M  V30 7224 H 665.951 5.47819 -0.678144 0
M  V30 7225 H 668.427 4.10596 0.674573 0
M  V30 7226 H 667.303 5.32663 1.3252 0
M  V30 7227 H 667.564 3.83038 2.20758 0
M  V30 7228 N 666.623 0.143563 1.56945 0
M  V30 7229 C 667.555 -0.828353 2.13708 0
M  V30 7230 C 668.568 -1.21313 1.08568 0
M  V30 7231 O 669.757 -1.1578 1.35857 0
M  V30 7232 C 666.857 -2.12248 2.64204 0
M  V30 7233 C 666.03 -1.90561 3.93707 0
M  V30 7234 C 665.089 -3.03931 4.29549 0
M  V30 7235 O 664.115 -2.75772 4.97934 0
M  V30 7236 N 665.317 -4.31016 3.88852 0
M  V30 7237 H 668.082 -0.343242 2.97728 0
M  V30 7238 H 665.643 -0.0401152 1.6185 0
M  V30 7239 H 667.635 -2.87132 2.85197 0
M  V30 7240 H 666.205 -2.52033 1.84928 0
M  V30 7241 H 665.425 -0.997327 3.81375 0
M  V30 7242 H 666.713 -1.73405 4.78339 0
M  V30 7243 H 666.111 -4.56762 3.33743 0
M  V30 7244 H 664.668 -5.02691 4.14903 0
M  V30 7245 N 668.101 -1.57061 -0.130224 0
M  V30 7246 C 669.048 -1.99517 -1.16024 0
M  V30 7247 C 670.018 -0.865452 -1.41771 0
M  V30 7248 O 671.203 -1.12882 -1.53826 0
M  V30 7249 C 668.343 -2.3951 -2.48453 0
M  V30 7250 C 667.456 -3.65848 -2.29737 0
M  V30 7251 C 666.591 -3.9487 -3.55318 0
M  V30 7252 C 665.63 -5.14426 -3.31711 0
M  V30 7253 N 664.767 -5.39375 -4.49466 0
M  V30 7254 H 669.607 -2.87305 -0.791194 0
M  V30 7255 H 667.144 -1.42129 -0.379195 0
M  V30 7256 H 669.102 -2.60731 -3.25692 0
M  V30 7257 H 667.732 -1.54779 -2.83272 0
M  V30 7258 H 666.784 -3.52307 -1.4347 0
M  V30 7259 H 668.096 -4.53241 -2.08263 0
M  V30 7260 H 667.25 -4.16679 -4.4098 0
M  V30 7261 H 665.989 -3.05931 -3.79813 0
M  V30 7262 H 664.994 -4.92473 -2.44439 0
M  V30 7263 H 666.219 -6.04933 -3.08598 0
M  V30 7264 H 664.165 -4.53391 -4.74102 0
M  V30 7265 H 664.082 -6.21069 -4.31055 0
M  V30 7266 H 665.35 -5.65694 -5.36293 0
M  V30 7267 N 669.579 0.400081 -1.52437 0
M  V30 7268 C 670.99 0.97851 -1.59003 0
M  V30 7269 C 671.341 1.91293 -0.436068 0
M  V30 7270 O 670.466 2.1183 0.442365 0
M  V30 7271 C 671.061 1.78145 -2.88184 0
M  V30 7272 C 669.62 2.30976 -2.97199 0
M  V30 7273 C 668.767 1.11212 -2.54022 0
M  V30 7274 H 671.718 0.180002 -1.57676 0
M  V30 7275 H 671.739 2.63968 -2.74046 0
M  V30 7276 H 671.251 1.1011 -3.72152 0
M  V30 7277 H 669.352 3.02355 -2.17744 0
M  V30 7278 H 669.465 2.61221 -4.01622 0
M  V30 7279 H 667.829 1.46882 -2.08081 0
M  V30 7280 H 668.612 0.447307 -3.40373 0
M  V30 7281 N 671.057 1.43213 0.657864 0
M  V30 7282 C 671.987 1.50815 1.78262 0
M  V30 7283 C 672.968 0.363211 1.66177 0
M  V30 7284 O 674.153 0.579806 1.85343 0
M  V30 7285 C 671.283 1.42625 3.16663 0
M  V30 7286 C 670.237 2.5532 3.43505 0
M  V30 7287 C 669.563 2.32184 4.81658 0
M  V30 7288 C 670.863 3.97583 3.38711 0
M  V30 7289 H 672.557 2.44954 1.72157 0
M  V30 7290 H 670.103 1.17896 0.82683 0
M  V30 7291 H 672.056 1.46548 3.95097 0
M  V30 7292 H 670.78 0.449877 3.23487 0
M  V30 7293 H 669.439 2.50742 2.6744 0
M  V30 7294 H 669.087 1.32801 4.85153 0
M  V30 7295 H 668.787 3.07724 5.00579 0
M  V30 7296 H 670.311 2.37883 5.62356 0
M  V30 7297 H 671.725 4.03673 4.07089 0
M  V30 7298 H 670.122 4.73112 3.69168 0
M  V30 7299 H 671.192 4.23049 2.36976 0
M  V30 7300 N 672.536 -0.895792 1.29666 0
M  V30 7301 C 673.486 -1.98736 1.1175 0
M  V30 7302 C 674.47 -1.6086 0.0357834 0
M  V30 7303 O 675.662 -1.75111 0.257926 0
M  V30 7304 C 672.791 -3.33845 0.800156 0
M  V30 7305 C 671.877 -3.78068 1.9216 0
M  V30 7306 N 672.268 -3.94489 3.16563 0
M  V30 7307 C 670.566 -4.07376 1.81552 0
M  V30 7308 C 671.267 -4.31819 3.89753 0
M  V30 7309 N 670.243 -4.41081 3.17724 0
M  V30 7310 H 674.045 -2.09507 2.06117 0
M  V30 7311 H 671.559 -1.08488 1.20848 0
M  V30 7312 H 673.556 -4.11757 0.652841 0
M  V30 7313 H 672.216 -3.24417 -0.135551 0
M  V30 7314 H 673.227 -3.79914 3.51974 0
M  V30 7315 H 669.904 -4.06483 0.952787 0
M  V30 7316 H 671.294 -4.52337 4.96831 0
M  V30 7317 N 674.014 -1.12206 -1.10668 0
M  V30 7318 C 674.924 -0.800686 -2.20513 0
M  V30 7319 C 675.94 0.209512 -1.72734 0
M  V30 7320 O 677.116 0.043705 -2.01353 0
M  V30 7321 C 674.181 -0.257353 -3.45744 0
M  V30 7322 C 673.242 -1.32718 -4.0827 0
M  V30 7323 C 672.475 -0.809674 -5.27522 0
M  V30 7324 O 672.698 0.35742 -5.69279 0
M  V30 7325 O 671.632 -1.57816 -5.80842 0
M  V30 7326 H 675.458 -1.71807 -2.50432 0
M  V30 7327 H 673.043 -0.898546 -1.19359 0
M  V30 7328 H 674.925 0.0408849 -4.2138 0
M  V30 7329 H 673.6 0.632627 -3.17458 0
M  V30 7330 H 672.507 -1.67855 -3.34329 0
M  V30 7331 H 673.84 -2.19083 -4.40753 0
M  V30 7332 N 675.492 1.28418 -0.913599 0
M  V30 7333 C 676.424 2.26368 -0.359169 0
M  V30 7334 C 677.437 1.54858 0.502285 0
M  V30 7335 O 678.626 1.75659 0.31719 0
M  V30 7336 C 675.726 3.35112 0.50526 0
M  V30 7337 C 674.899 4.36126 -0.333648 0
M  V30 7338 C 673.958 5.24134 0.465845 0
M  V30 7339 O 672.984 5.6907 -0.121538 0
M  V30 7340 N 674.186 5.52892 1.76891 0
M  V30 7341 H 676.951 2.74579 -1.2011 0
M  V30 7342 H 674.512 1.41898 -0.779532 0
M  V30 7343 H 676.504 3.90926 1.04684 0
M  V30 7344 H 675.074 2.86611 1.2479 0
M  V30 7345 H 674.294 3.79776 -1.0566 0
M  V30 7346 H 675.582 5.00638 -0.907669 0
M  V30 7347 H 674.98 5.18217 2.26865 0
M  V30 7348 H 673.537 6.11464 2.25732 0
M  V30 7349 N 676.97 0.677563 1.42291 0
M  V30 7350 C 677.9 0.014968 2.33495 0
M  V30 7351 C 678.881 -0.786376 1.50831 0
M  V30 7352 O 680.066 -0.742975 1.79426 0
M  V30 7353 C 677.196 -0.935023 3.34477 0
M  V30 7354 C 676.15 -0.242074 4.27315 0
M  V30 7355 C 675.476 -1.30519 5.18526 0
M  V30 7356 C 676.776 0.880604 5.14823 0
M  V30 7357 H 678.47 0.776671 2.89151 0
M  V30 7358 H 676.016 0.37494 1.39033 0
M  V30 7359 H 677.969 -1.40766 3.97194 0
M  V30 7360 H 676.693 -1.72818 2.77131 0
M  V30 7361 H 675.352 0.210351 3.65996 0
M  V30 7362 H 675 -2.09041 4.57505 0
M  V30 7363 H 674.7 -0.846652 5.81468 0
M  V30 7364 H 676.224 -1.7787 5.84119 0
M  V30 7365 H 677.638 0.489062 5.7121 0
M  V30 7366 H 676.035 1.26511 5.86613 0
M  V30 7367 H 677.105 1.72818 4.53059 0
M  V30 7368 N 678.448 -1.51871 0.421078 0
M  V30 7369 C 679.694 -2.02894 -0.143346 0
M  V30 7370 C 680.049 -1.30054 -1.41787 0
M  V30 7371 O 679.342 -0.401776 -1.8734 0
M  V30 7372 C 679.536 -3.54764 -0.433292 0
M  V30 7373 C 679.365 -4.42316 0.811584 0
M  V30 7374 C 678.135 -4.872 1.34033 0
M  V30 7375 C 680.333 -4.85631 1.69313 0
M  V30 7376 N 678.315 -5.58915 2.53944 0
M  V30 7377 C 679.686 -5.56248 2.7384 0
M  V30 7378 C 681.741 -4.67634 1.70947 0
M  V30 7379 C 680.444 -6.10777 3.79927 0
M  V30 7380 C 682.47 -5.23068 2.7596 0
M  V30 7381 C 681.832 -5.93617 3.79207 0
M  V30 7382 H 677.931 -0.78188 -0.0137104 0
M  V30 7383 H 680.515 -1.85919 0.578105 0
M  V30 7384 H 678.686 -3.71787 -1.12378 0
M  V30 7385 H 680.418 -3.92464 -0.987644 0
M  V30 7386 H 677.173 -4.65035 0.896606 0
M  V30 7387 H 677.597 -5.99408 3.14704 0
M  V30 7388 H 682.239 -4.12566 0.9246 0
M  V30 7389 H 679.957 -6.64909 4.59262 0
M  V30 7390 H 683.543 -5.11005 2.78147 0
M  V30 7391 H 682.423 -6.35743 4.5913 0
M  V30 7392 N 679.926 -0.151884 -1.56866 0
M  V30 7393 C 681.156 0.504081 -2.00356 0
M  V30 7394 C 681.564 1.58639 -1.03103 0
M  V30 7395 O 680.907 1.83688 -0.0207931 0
M  V30 7396 C 680.969 1.15975 -3.40279 0
M  V30 7397 C 680.633 0.221453 -4.56463 0
M  V30 7398 C 681.63 -0.552766 -5.16953 0
M  V30 7399 C 679.315 0.122936 -5.0215 0
M  V30 7400 C 681.309 -1.4129 -6.21543 0
M  V30 7401 C 678.996 -0.740801 -6.06593 0
M  V30 7402 C 679.994 -1.50732 -6.6616 0
M  V30 7403 O 679.682 -2.35666 -7.68581 0
M  V30 7404 H 679.414 0.135279 -0.662326 0
M  V30 7405 H 681.968 -0.244916 -2.03935 0
M  V30 7406 H 680.198 1.95649 -3.33554 0
M  V30 7407 H 681.887 1.71594 -3.67846 0
M  V30 7408 H 682.653 -0.486716 -4.82552 0
M  V30 7409 H 678.532 0.70931 -4.5551 0
M  V30 7410 H 682.076 -2.01166 -6.67966 0
M  V30 7411 H 677.973 -0.808125 -6.40421 0
M  V30 7412 H 678.741 -2.28967 -7.85822 0
M  V30 7413 N 681.404 1.57128 0.121893 0
M  V30 7414 C 682.354 1.96556 1.15541 0
M  V30 7415 C 683.338 0.840147 1.37224 0
M  V30 7416 O 684.53 1.10382 1.38365 0
M  V30 7417 C 681.659 2.37097 2.48274 0
M  V30 7418 C 680.745 3.56265 2.30078 0
M  V30 7419 N 681.136 4.72041 1.81688 0
M  V30 7420 C 679.434 3.61841 2.60744 0
M  V30 7421 C 680.135 5.54075 1.77132 0
M  V30 7422 N 679.111 4.96483 2.21371 0
M  V30 7423 H 682.913 2.83531 0.77378 0
M  V30 7424 H 680.427 1.59019 0.329672 0
M  V30 7425 H 682.424 2.6356 3.2302 0
M  V30 7426 H 681.084 1.51486 2.87197 0
M  V30 7427 H 682.095 4.95313 1.51278 0
M  V30 7428 H 678.772 2.8683 3.03373 0
M  V30 7429 H 680.162 6.56939 1.40998 0
M  V30 7430 N 682.882 -0.391992 1.52647 0
M  V30 7431 C 684.13 -1.13507 1.67214 0
M  V30 7432 C 684.451 -1.90575 0.41304 0
M  V30 7433 O 683.721 -1.87348 -0.572498 0
M  V30 7434 H 682.301 -0.422013 0.616372 0
M  V30 7435 H 684.963 -0.44502 1.89751 0
M  V30 7436 H 684.059 -1.83964 2.52118 0
M  V30 7437 N 684.36 -1.4356 -0.65026 0
M  V30 7438 C 685.323 -1.48615 -1.74489 0
M  V30 7439 C 686.323 -0.370483 -1.56474 0
M  V30 7440 O 687.513 -0.632351 -1.62317 0
M  V30 7441 C 684.645 -1.34161 -3.13391 0
M  V30 7442 H 685.838 -2.46103 -1.71387 0
M  V30 7443 H 683.391 -1.30369 -0.862186 0
M  V30 7444 H 684.126 -0.376918 -3.22102 0
M  V30 7445 H 683.911 -2.1504 -3.27872 0
M  V30 7446 H 685.401 -1.40637 -3.93206 0
M  V30 7447 N 685.838 0.888903 -1.30139 0
M  V30 7448 C 687.087 1.63507 -1.18103 0
M  V30 7449 C 687.4 1.93808 0.264141 0
M  V30 7450 O 688.606 2.66744 0.505966 0
M  V30 7451 C 687.062 2.94673 -2.0663 0
M  V30 7452 C 686.67 2.71926 -3.56034 0
M  V30 7453 C 688.414 3.72626 -2.03346 0
M  V30 7454 C 686.321 3.98884 -4.3663 0
M  V30 7455 H 685.251 0.613426 -0.438435 0
M  V30 7456 H 687.902 0.984427 -1.54859 0
M  V30 7457 H 686.284 3.61009 -1.62754 0
M  V30 7458 H 687.458 2.14116 -4.08033 0
M  V30 7459 H 685.773 2.07353 -3.61101 0
M  V30 7460 H 688.37 4.66775 -2.60816 0
M  V30 7461 H 688.713 4.03712 -1.016 0
M  V30 7462 H 689.246 3.13147 -2.45324 0
M  V30 7463 H 685.985 3.72959 -5.39056 0
M  V30 7464 H 685.505 4.56214 -3.89396 0
M  V30 7465 H 687.184 4.66938 -4.47859 0
M  V30 7466 N 687.317 1.12792 1.10072 0
M  V30 7467 C 688.728 0.899346 1.63611 0
M  V30 7468 C 689.079 -0.565547 1.87872 0
M  V30 7469 O 688.204 -1.43081 1.62348 0
M  V30 7470 C 688.799 1.62608 2.97227 0
M  V30 7471 C 687.358 1.44356 3.47618 0
M  V30 7472 C 686.505 1.65958 2.22156 0
M  V30 7473 H 689.456 1.28216 0.935223 0
M  V30 7474 H 689.477 1.0793 3.64872 0
M  V30 7475 H 688.989 2.69221 2.79538 0
M  V30 7476 H 687.09 0.400148 3.70445 0
M  V30 7477 H 687.203 2.20218 4.25489 0
M  V30 7478 H 685.567 1.08395 2.30484 0
M  V30 7479 H 686.35 2.73877 2.06993 0
M  V30 7480 N 688.795 -1.27931 0.920396 0
M  V30 7481 C 690.211 -1.47085 0.619537 0
M  V30 7482 C 690.411 -1.83463 -0.833291 0
M  V30 7483 O 689.467 -1.94363 -1.61181 0
M  V30 7484 C 690.78 -2.56878 1.56314 0
M  V30 7485 C 692.328 -2.70743 1.57058 0
M  V30 7486 C 692.803 -3.83687 2.50097 0
M  V30 7487 N 694.294 -3.9105 2.48262 0
M  V30 7488 C 695.029 -4.77842 3.16945 0
M  V30 7489 N 694.525 -5.69176 3.94982 0
M  V30 7490 N 696.318 -4.71509 3.06 0
M  V30 7491 H 688.469 -1.02601 1.85975 0
M  V30 7492 H 690.732 -0.511682 0.798051 0
M  V30 7493 H 690.438 -2.36923 2.59923 0
M  V30 7494 H 690.312 -3.54117 1.29928 0
M  V30 7495 H 692.699 -2.90083 0.541832 0
M  V30 7496 H 692.78 -1.74015 1.8749 0
M  V30 7497 H 692.424 -3.65101 3.53077 0
M  V30 7498 H 692.354 -4.79827 2.16964 0
M  V30 7499 H 694.845 -3.25738 1.91581 0
M  V30 7500 H 695.158 -6.32245 4.44394 0
M  V30 7501 H 693.503 -5.68995 3.99086 0
M  V30 7502 H 696.694 -3.99151 2.44533 0
M  V30 7503 H 696.867 -5.38933 3.59799 0
M  V30 7504 N 690.273 -0.685099 -1.4193 0
M  V30 7505 C 691.236 -0.0222632 -2.29189 0
M  V30 7506 C 692.236 0.7186 -1.4385 0
M  V30 7507 O 693.426 0.555058 -1.6512 0
M  V30 7508 C 690.558 0.979013 -3.2654 0
M  V30 7509 H 691.751 -0.790424 -2.89296 0
M  V30 7510 H 689.304 -0.448012 -1.49742 0
M  V30 7511 H 690.039 1.77531 -2.71392 0
M  V30 7512 H 689.824 0.451037 -3.89497 0
M  V30 7513 H 691.314 1.44091 -3.91954 0
M  V30 7514 N 691.751 1.51645 -0.429126 0
M  V30 7515 C 692.661 2.31288 0.392809 0
M  V30 7516 C 693.677 1.39852 1.03525 0
M  V30 7517 O 694.853 1.72926 1.03241 0
M  V30 7518 C 691.918 3.13347 1.48372 0
M  V30 7519 C 690.979 4.20551 0.862268 0
M  V30 7520 C 690.212 4.98688 1.9012 0
M  V30 7521 O 690.435 4.77359 3.12225 0
M  V30 7522 O 689.369 5.83005 1.4963 0
M  V30 7523 H 693.195 3.02609 -0.257138 0
M  V30 7524 H 690.78 1.48163 -0.191851 0
M  V30 7525 H 692.662 3.64387 2.1166 0
M  V30 7526 H 691.337 2.44799 2.1179 0
M  V30 7527 H 690.244 3.73609 0.191568 0
M  V30 7528 H 691.577 4.91449 0.271704 0
M  V30 7529 N 693.229 0.160201 1.56784 0
M  V30 7530 C 694.475 -0.48831 1.96833 0
M  V30 7531 C 694.808 -1.63641 1.04571 0
M  V30 7532 O 694.083 -1.94289 0.0906481 0
M  V30 7533 C 694.366 -0.981908 3.46454 0
M  V30 7534 C 694.219 0.165607 4.49495 0
M  V30 7535 C 695.538 -1.85931 3.98896 0
M  V30 7536 H 692.657 -0.176027 0.71567 0
M  V30 7537 H 695.299 0.244093 1.88426 0
M  V30 7538 H 693.449 -1.60602 3.5375 0
M  V30 7539 H 695.121 0.802372 4.54268 0
M  V30 7540 H 693.364 0.822789 4.25926 0
M  V30 7541 H 694.035 -0.221699 5.51555 0
M  V30 7542 H 696.511 -1.33327 3.94161 0
M  V30 7543 H 695.387 -2.17373 5.04024 0
M  V30 7544 H 695.648 -2.80106 3.42042 0
M  V30 7545 N 694.707 -1.5719 -0.113559 0
M  V30 7546 C 695.67 -1.99796 -1.12314 0
M  V30 7547 C 696.67 -0.888847 -1.34001 0
M  V30 7548 O 697.86 -1.15476 -1.30426 0
M  V30 7549 C 694.992 -2.34279 -2.47641 0
M  V30 7550 H 696.185 -2.90193 -0.756825 0
M  V30 7551 H 693.738 -1.52144 -0.358029 0
M  V30 7552 H 694.473 -1.46778 -2.89183 0
M  V30 7553 H 694.258 -3.15175 -2.33253 0
M  V30 7554 H 695.748 -2.67963 -3.2029 0
M  V30 7555 N 696.185 0.383891 -1.52853 0
M  V30 7556 C 697.095 1.49343 -1.80925 0
M  V30 7557 C 698.111 1.59458 -0.696348 0
M  V30 7558 O 699.287 1.75698 -0.984481 0
M  V30 7559 C 696.352 2.84819 -1.97684 0
M  V30 7560 C 695.413 2.84382 -3.21598 0
M  V30 7561 C 694.646 4.13397 -3.37548 0
M  V30 7562 O 694.869 5.08619 -2.58192 0
M  V30 7563 O 693.803 4.20325 -4.30826 0
M  V30 7564 H 697.629 1.2855 -2.75152 0
M  V30 7565 H 695.214 0.572229 -1.38007 0
M  V30 7566 H 697.096 3.65125 -2.10385 0
M  V30 7567 H 695.771 3.05627 -1.06647 0
M  V30 7568 H 694.678 2.0284 -3.14336 0
M  V30 7569 H 696.011 2.68526 -4.12498 0
M  V30 7570 N 697.663 1.43903 0.642637 0
M  V30 7571 C 698.593 1.52697 1.76652 0
M  V30 7572 C 699.574 0.380816 1.65782 0
M  V30 7573 O 700.759 0.599432 1.84717 0
M  V30 7574 C 697.889 1.45975 3.15133 0
M  V30 7575 C 696.843 2.58949 3.40778 0
M  V30 7576 C 696.169 2.37279 4.79169 0
M  V30 7577 C 697.469 4.01153 3.34475 0
M  V30 7578 H 699.163 2.46766 1.69549 0
M  V30 7579 H 696.709 1.18767 0.814279 0
M  V30 7580 H 698.662 1.5073 3.93521 0
M  V30 7581 H 697.386 0.484162 3.22991 0
M  V30 7582 H 696.045 2.53564 2.64765 0
M  V30 7583 H 695.693 1.37939 4.83717 0
M  V30 7584 H 695.393 3.13016 4.97287 0
M  V30 7585 H 696.917 2.43834 5.59801 0
M  V30 7586 H 698.331 4.07968 4.02784 0
M  V30 7587 H 696.728 4.77001 3.64129 0
M  V30 7588 H 697.798 4.25539 2.32475 0
M  V30 7589 N 699.141 -0.881989 1.30609 0
M  V30 7590 C 700.071 -2.00413 1.1982 0
M  V30 7591 C 701.052 -1.69871 0.0881538 0
M  V30 7592 O 702.237 -1.92304 0.2707 0
M  V30 7593 C 699.367 -3.35641 0.89233 0
M  V30 7594 C 698.321 -3.80451 1.96064 0
M  V30 7595 C 697.647 -5.13003 1.5077 0
M  V30 7596 C 698.947 -3.98855 3.37213 0
M  V30 7597 H 700.641 -2.09698 2.13699 0
M  V30 7598 H 698.187 -1.00754 1.02882 0
M  V30 7599 H 700.14 -4.13669 0.803497 0
M  V30 7600 H 698.864 -3.26497 -0.0821381 0
M  V30 7601 H 697.523 -3.04654 2.03916 0
M  V30 7602 H 697.171 -5.0029 0.521417 0
M  V30 7603 H 696.871 -5.43956 2.22229 0
M  V30 7604 H 698.395 -5.93554 1.43271 0
M  V30 7605 H 699.809 -4.67312 3.32103 0
M  V30 7606 H 698.206 -4.41188 4.06784 0
M  V30 7607 H 699.276 -3.02614 3.78883 0
M  V30 7608 N 700.619 -1.13374 -1.09472 0
M  V30 7609 C 701.865 -0.896516 -1.81908 0
M  V30 7610 C 702.198 0.575933 -1.85463 0
M  V30 7611 O 701.473 1.42618 -1.32251 0
M  V30 7612 C 701.756 -1.48445 -3.28079 0
M  V30 7613 C 701.609 -3.02598 -3.32798 0
M  V30 7614 C 702.928 -1.15226 -4.24748 0
M  V30 7615 H 700.047 -0.327127 -0.660422 0
M  V30 7616 H 702.689 -1.40195 -1.2824 0
M  V30 7617 H 700.839 -1.0546 -3.73912 0
M  V30 7618 H 702.511 -3.54335 -2.95372 0
M  V30 7619 H 700.754 -3.37613 -2.72397 0
M  V30 7620 H 701.425 -3.38835 -4.3577 0
M  V30 7621 H 703.901 -1.52369 -3.87199 0
M  V30 7622 H 702.777 -1.59012 -5.25363 0
M  V30 7623 H 703.038 -0.0658891 -4.42051 0
M  V30 7624 N 702.098 1.27442 -0.927168 0
M  V30 7625 C 703.048 2.24519 -0.396878 0
M  V30 7626 C 704.032 1.52981 0.498555 0
M  V30 7627 O 705.224 1.7378 0.336087 0
M  V30 7628 C 702.353 3.41514 0.349694 0
M  V30 7629 C 701.439 4.20357 -0.562226 0
M  V30 7630 N 701.83 4.7702 -1.68182 0
M  V30 7631 C 700.128 4.44503 -0.365135 0
M  V30 7632 C 700.829 5.36467 -2.24895 0
M  V30 7633 N 699.805 5.21371 -1.5386 0
M  V30 7634 H 703.607 2.65911 -1.25173 0
M  V30 7635 H 701.121 1.42366 -0.78138 0
M  V30 7636 H 703.118 4.10161 0.746536 0
M  V30 7637 H 701.778 3.01653 1.20148 0
M  V30 7638 H 702.789 4.74985 -2.06421 0
M  V30 7639 H 699.466 4.15111 0.446037 0
M  V30 7640 H 700.856 5.91264 -3.1915 0
M  V30 7641 N 703.576 0.692616 1.41565 0
M  V30 7642 C 704.801 0.229776 2.06123 0
M  V30 7643 C 705.226 -1.11119 1.5177 0
M  V30 7644 O 704.584 -1.69498 0.643444 0
M  V30 7645 C 704.632 0.19469 3.60074 0
M  V30 7646 O 703.736 -0.831366 4.03933 0
M  V30 7647 H 703.077 0.113002 0.654314 0
M  V30 7648 H 705.607 0.946645 1.81383 0
M  V30 7649 H 705.617 0.0245487 4.07993 0
M  V30 7650 H 704.292 1.17339 3.99004 0
M  V30 7651 H 702.869 -0.630819 3.67526 0
M  V30 7652 N 705.054 -1.51416 0.437162 0
M  V30 7653 C 706.302 -2.01687 -0.129108 0
M  V30 7654 C 706.623 -1.32329 -1.43227 0
M  V30 7655 O 705.893 -0.457796 -1.90476 0
M  V30 7656 H 704.473 -0.745277 -0.0507023 0
M  V30 7657 H 707.135 -1.86075 0.579828 0
M  V30 7658 H 706.231 -3.10605 -0.305141 0
M  V30 7659 N 706.532 -0.168513 -1.56696 0
M  V30 7660 C 707.809 0.523367 -1.88468 0
M  V30 7661 C 708.189 1.81503 -1.07796 0
M  V30 7662 O 707.537 2.27859 -0.171045 0
M  V30 7663 C 707.747 0.767991 -3.40445 0
M  V30 7664 C 709.095 1.09924 -4.10124 0
M  V30 7665 O 710.119 0.856625 -3.45746 0
M  V30 7666 O 708.978 1.55681 -5.23856 0
M  V30 7667 H 706.072 0.269447 -0.781874 0
M  V30 7668 H 708.618 -0.206739 -1.68436 0
M  V30 7669 H 707.39 -0.145254 -3.9103 0
M  V30 7670 H 707.013 1.55151 -3.66079 0
M  V30 7671 N 708.01 1.57248 0.105221 0
M  V30 7672 C 709.257 1.8557 0.810552 0
M  V30 7673 C 709.585 0.755595 1.79223 0
M  V30 7674 O 708.84 -0.251788 1.94073 0
M  V30 7675 C 709.139 3.20437 1.58287 0
M  V30 7676 C 708.805 4.44716 0.744235 0
M  V30 7677 C 707.467 4.78458 0.513013 0
M  V30 7678 C 709.819 5.20953 0.160578 0
M  V30 7679 C 707.147 5.8587 -0.311894 0
M  V30 7680 C 709.499 6.29235 -0.651596 0
M  V30 7681 C 708.163 6.615 -0.893005 0
M  V30 7682 H 707.433 0.67905 0.296602 0
M  V30 7683 H 710.08 1.91363 0.0723968 0
M  V30 7684 H 708.385 3.10283 2.39232 0
M  V30 7685 H 710.082 3.39576 2.13282 0
M  V30 7686 H 706.672 4.18287 0.934555 0
M  V30 7687 H 710.856 4.95226 0.3264 0
M  V30 7688 H 706.112 6.09286 -0.508012 0
M  V30 7689 H 710.286 6.87484 -1.11077 0
M  V30 7690 H 707.913 7.44562 -1.53401 0
M  V30 7691 N 709.488 -0.375779 1.53054 0
M  V30 7692 C 710.418 -1.46598 1.81745 0
M  V30 7693 C 711.399 -1.56337 0.670286 0
M  V30 7694 O 712.584 -1.71071 0.919158 0
M  V30 7695 C 709.714 -2.84058 1.99821 0
M  V30 7696 C 708.668 -2.8915 3.15557 0
M  V30 7697 C 707.994 -4.29187 3.18908 0
M  V30 7698 C 709.294 -2.57595 4.54359 0
M  V30 7699 H 710.988 -1.22837 2.73041 0
M  V30 7700 H 708.534 -0.589485 1.31381 0
M  V30 7701 H 710.487 -3.60342 2.18475 0
M  V30 7702 H 709.211 -3.09184 1.05226 0
M  V30 7703 H 707.87 -2.15316 2.96706 0
M  V30 7704 H 707.518 -4.51374 2.2197 0
M  V30 7705 H 707.218 -4.33512 3.96662 0
M  V30 7706 H 708.742 -5.07359 3.39734 0
M  V30 7707 H 710.156 -3.23595 4.73243 0
M  V30 7708 H 708.553 -2.73252 5.34279 0
M  V30 7709 H 709.623 -1.52882 4.60169 0
M  V30 7710 N 710.966 -1.44241 -0.634997 0
M  V30 7711 C 712.212 -1.47038 -1.39669 0
M  V30 7712 C 712.545 -0.101122 -1.93937 0
M  V30 7713 O 711.82 0.880699 -1.73418 0
M  V30 7714 C 712.103 -2.52763 -2.56482 0
M  V30 7715 C 711.956 -3.99032 -2.07589 0
M  V30 7716 C 713.275 -2.55031 -3.58674 0
M  V30 7717 H 710.394 -0.53537 -0.506506 0
M  V30 7718 H 713.036 -1.75898 -0.718317 0
M  V30 7719 H 711.186 -2.28284 -3.14354 0
M  V30 7720 H 712.858 -4.3463 -1.54577 0
M  V30 7721 H 711.101 -4.10994 -1.38804 0
M  V30 7722 H 711.772 -4.68649 -2.91671 0
M  V30 7723 H 714.248 -2.76893 -3.10595 0
M  V30 7724 H 713.124 -3.30916 -4.37934 0
M  V30 7725 H 713.385 -1.59085 -4.12486 0
M  V30 7726 N 712.444 0.87505 -1.31075 0
M  V30 7727 C 713.86 1.15997 -1.09622 0
M  V30 7728 C 714.06 2.01036 0.136611 0
M  V30 7729 O 713.116 2.38559 0.827397 0
M  V30 7730 C 714.429 1.85702 -2.36506 0
M  V30 7731 C 715.977 1.98425 -2.42067 0
M  V30 7732 C 716.452 2.71544 -3.68819 0
M  V30 7733 N 717.943 2.79084 -3.69684 0
M  V30 7734 C 718.678 3.36259 -4.64454 0
M  V30 7735 N 718.174 3.94406 -5.69575 0
M  V30 7736 N 719.967 3.34169 -4.51982 0
M  V30 7737 H 712.118 0.308258 -2.10151 0
M  V30 7738 H 714.381 0.199145 -0.926847 0
M  V30 7739 H 714.087 1.30663 -3.26527 0
M  V30 7740 H 713.961 2.86017 -2.45915 0
M  V30 7741 H 716.348 2.5263 -1.52518 0
M  V30 7742 H 716.429 0.971682 -2.36626 0
M  V30 7743 H 716.073 2.18008 -4.58732 0
M  V30 7744 H 716.003 3.73198 -3.71525 0
M  V30 7745 H 718.494 2.3781 -2.93691 0
M  V30 7746 H 718.807 4.36129 -6.37974 0
M  V30 7747 H 717.152 3.92797 -5.73355 0
M  V30 7748 H 720.343 2.87977 -3.69035 0
M  V30 7749 H 720.516 3.78431 -5.26017 0
M  V30 7750 N 713.922 1.13953 1.08869 0
M  V30 7751 C 714.832 0.835666 2.19212 0
M  V30 7752 C 715.848 -0.182005 1.73045 0
M  V30 7753 O 717.024 -0.0116661 2.01397 0
M  V30 7754 C 714.089 0.312325 3.4529 0
M  V30 7755 C 713.15 1.39196 4.06107 0
M  V30 7756 C 712.383 0.893496 5.26168 0
M  V30 7757 O 712.606 -0.266807 5.69776 0
M  V30 7758 O 711.54 1.67037 5.78258 0
M  V30 7759 H 715.366 1.75769 2.47667 0
M  V30 7760 H 712.951 0.917421 1.17914 0
M  V30 7761 H 714.833 0.0261582 4.21392 0
M  V30 7762 H 713.508 -0.582042 3.18424 0
M  V30 7763 H 712.415 1.73152 3.31616 0
M  V30 7764 H 713.748 2.26068 4.37212 0
M  V30 7765 N 715.4 -1.26948 0.933913 0
M  V30 7766 C 716.625 -1.98724 0.593589 0
M  V30 7767 C 717.05 -1.6915 -0.822801 0
M  V30 7768 O 716.408 -0.93533 -1.5531 0
M  V30 7769 C 716.456 -3.50834 0.833542 0
M  V30 7770 O 715.56 -4.12284 -0.0978788 0
M  V30 7771 H 714.901 -0.623683 0.227849 0
M  V30 7772 H 717.431 -1.61599 1.25486 0
M  V30 7773 H 717.441 -4.01018 0.75156 0
M  V30 7774 H 716.116 -3.71691 1.86597 0
M  V30 7775 H 714.693 -3.72884 0.0345443 0
M  V30 7776 N 716.879 -0.700114 -1.41195 0
M  V30 7777 C 717.811 0.00155823 -2.292 0
M  V30 7778 C 718.824 0.739736 -1.45023 0
M  V30 7779 O 720.013 0.589684 -1.68478 0
M  V30 7780 C 717.113 1.02635 -3.22985 0
M  V30 7781 C 716.286 0.356871 -4.35942 0
M  V30 7782 C 715.345 1.28491 -5.10271 0
M  V30 7783 O 714.371 0.775562 -5.63892 0
M  V30 7784 N 715.573 2.61699 -5.18164 0
M  V30 7785 H 718.338 -0.754008 -2.9006 0
M  V30 7786 H 715.899 -0.546504 -1.52397 0
M  V30 7787 H 717.891 1.64902 -3.6958 0
M  V30 7788 H 716.461 1.68341 -2.63401 0
M  V30 7789 H 715.681 -0.445753 -3.91672 0
M  V30 7790 H 716.969 -0.108469 -5.08684 0
M  V30 7791 H 716.367 3.05594 -4.76056 0
M  V30 7792 H 714.924 3.19149 -5.6832 0
M  V30 7793 N 718.357 1.51182 -0.445186 0
M  V30 7794 C 719.605 2.01753 0.11841 0
M  V30 7795 C 719.926 1.33087 1.42523 0
M  V30 7796 O 719.196 0.467891 1.9023 0
M  V30 7797 H 717.776 0.745536 0.0467492 0
M  V30 7798 H 720.438 1.85765 -0.589688 0
M  V30 7799 H 719.534 3.10762 0.288665 0
M  V30 7800 N 719.835 0.176821 1.56605 0
M  V30 7801 C 720.782 -0.751312 2.18229 0
M  V30 7802 C 721.752 -1.22297 1.12395 0
M  V30 7803 O 722.937 -1.29015 1.40569 0
M  V30 7804 C 720.077 -1.97291 2.83143 0
M  V30 7805 C 719.19 -1.54431 4.03454 0
M  V30 7806 C 718.325 -2.72 4.56278 0
M  V30 7807 C 717.364 -2.25657 5.68986 0
M  V30 7808 N 716.501 -3.36338 6.16296 0
M  V30 7809 H 721.341 -0.219033 2.97194 0
M  V30 7810 H 718.878 -0.0963803 1.46784 0
M  V30 7811 H 720.836 -2.68949 3.1894 0
M  V30 7812 H 719.466 -2.4788 2.06773 0
M  V30 7813 H 718.518 -0.724273 3.73441 0
M  V30 7814 H 719.83 -1.16417 4.85024 0
M  V30 7815 H 718.984 -3.51806 4.94285 0
M  V30 7816 H 717.723 -3.13277 3.73777 0
M  V30 7817 H 716.728 -1.44299 5.30526 0
M  V30 7818 H 717.953 -1.85432 6.53293 0
M  V30 7819 H 715.899 -3.7718 5.36723 0
M  V30 7820 H 715.816 -3.02435 6.9287 0
M  V30 7821 H 717.084 -4.16413 6.58954 0
M  V30 7822 N 721.313 -1.57302 -0.09688 0
M  V30 7823 C 722.245 -1.98618 -1.14384 0
M  V30 7824 C 723.258 -0.888483 -1.36418 0
M  V30 7825 O 724.447 -1.16661 -1.35101 0
M  V30 7826 C 721.547 -2.28838 -2.49973 0
M  V30 7827 C 720.72 -3.60132 -2.48241 0
M  V30 7828 C 719.779 -3.7831 -3.65743 0
M  V30 7829 O 718.805 -4.50183 -3.48316 0
M  V30 7830 N 720.007 -3.18752 -4.85157 0
M  V30 7831 H 722.772 -2.8904 -0.792202 0
M  V30 7832 H 720.333 -1.59356 -0.285883 0
M  V30 7833 H 722.325 -2.38193 -3.27179 0
M  V30 7834 H 720.895 -1.44431 -2.77233 0
M  V30 7835 H 720.115 -3.61763 -1.56593 0
M  V30 7836 H 721.403 -4.46389 -2.4416 0
M  V30 7837 H 720.801 -2.60368 -5.0222 0
M  V30 7838 H 719.358 -3.33595 -5.59962 0
M  V30 7839 N 722.791 0.367657 -1.53252 0
M  V30 7840 C 723.701 1.47415 -1.82499 0
M  V30 7841 C 724.717 1.58711 -0.713222 0
M  V30 7842 O 725.893 1.74644 -1.00306 0
M  V30 7843 C 722.958 2.82706 -2.00694 0
M  V30 7844 C 722.019 2.80955 -3.24596 0
M  V30 7845 C 721.252 4.09793 -3.41914 0
M  V30 7846 O 721.475 5.05852 -2.63572 0
M  V30 7847 O 720.409 4.15731 -4.3526 0
M  V30 7848 H 724.235 1.25624 -2.765 0
M  V30 7849 H 721.82 0.557559 -1.38606 0
M  V30 7850 H 723.702 3.62873 -2.14246 0
M  V30 7851 H 722.377 3.04479 -1.09883 0
M  V30 7852 H 721.284 1.99494 -3.16469 0
M  V30 7853 H 722.617 2.64136 -4.15323 0
M  V30 7854 N 724.269 1.44576 0.627338 0
M  V30 7855 C 725.499 1.50829 1.41189 0
M  V30 7856 C 725.907 0.133083 1.88731 0
M  V30 7857 O 725.25 -0.87199 1.61685 0
M  V30 7858 C 725.312 2.41449 2.66351 0
M  V30 7859 C 724.976 3.88549 2.40579 0
M  V30 7860 C 725.973 4.78981 2.0217 0
M  V30 7861 C 723.658 4.33287 2.54102 0
M  V30 7862 C 725.652 6.12153 1.77618 0
M  V30 7863 C 723.339 5.66505 2.29163 0
M  V30 7864 C 724.337 6.55756 1.9098 0
M  V30 7865 O 724.025 7.86506 1.66321 0
M  V30 7866 H 723.757 0.513797 0.439304 0
M  V30 7867 H 726.311 1.90256 0.774059 0
M  V30 7868 H 724.541 1.96955 3.32784 0
M  V30 7869 H 726.23 2.38608 3.28361 0
M  V30 7870 H 726.996 4.45689 1.91277 0
M  V30 7871 H 722.875 3.64074 2.82792 0
M  V30 7872 H 726.419 6.81776 1.47739 0
M  V30 7873 H 722.316 5.99358 2.39668 0
M  V30 7874 H 723.084 7.98341 1.80536 0
M  V30 7875 N 725.747 -0.868086 1.31537 0
M  V30 7876 C 726.993 -1.62367 1.2151 0
M  V30 7877 C 727.326 -1.92883 -0.225819 0
M  V30 7878 O 726.601 -1.56176 -1.15927 0
M  V30 7879 C 726.884 -2.95268 2.06129 0
M  V30 7880 C 726.737 -2.71619 3.58529 0
M  V30 7881 C 728.056 -3.96391 1.91212 0
M  V30 7882 H 725.175 -0.589178 0.442762 0
M  V30 7883 H 727.817 -1.00336 1.61347 0
M  V30 7884 H 725.967 -3.4821 1.72284 0
M  V30 7885 H 727.639 -2.25334 4.0252 0
M  V30 7886 H 725.882 -2.05817 3.81866 0
M  V30 7887 H 726.553 -3.66192 4.13047 0
M  V30 7888 H 729.029 -3.52663 2.20834 0
M  V30 7889 H 727.905 -4.87263 2.52718 0
M  V30 7890 H 728.166 -4.33335 0.875953 0
M  V30 7891 N 727.225 -1.14528 -1.08264 0
M  V30 7892 C 728.155 -0.856356 -2.1723 0
M  V30 7893 C 729.136 0.189251 -1.69044 0
M  V30 7894 O 730.321 0.0456119 -1.94146 0
M  V30 7895 C 727.451 -0.334662 -3.45684 0
M  V30 7896 C 726.405 -1.31588 -4.0727 0
M  V30 7897 C 725.731 -0.653428 -5.30692 0
M  V30 7898 C 727.031 -2.67866 -4.48381 0
M  V30 7899 H 728.725 -1.76755 -2.41657 0
M  V30 7900 H 726.271 -0.851287 -1.16143 0
M  V30 7901 H 728.224 -0.120128 -4.21229 0
M  V30 7902 H 726.948 0.611967 -3.20815 0
M  V30 7903 H 725.607 -1.51661 -3.33758 0
M  V30 7904 H 725.255 0.299054 -5.0211 0
M  V30 7905 H 724.955 -1.30817 -5.72853 0
M  V30 7906 H 726.479 -0.448453 -6.08951 0
M  V30 7907 H 727.893 -2.51692 -5.15096 0
M  V30 7908 H 726.29 -3.29627 -5.01464 0
M  V30 7909 H 727.36 -3.24632 -3.60198 0
M  V30 7910 N 728.703 1.26451 -0.940633 0
M  V30 7911 C 729.928 1.98407 -0.60412 0
M  V30 7912 C 730.353 1.69584 0.81382 0
M  V30 7913 O 729.711 0.943553 1.54812 0
M  V30 7914 C 729.759 3.50387 -0.852136 0
M  V30 7915 O 728.863 4.1233 0.076013 0
M  V30 7916 H 728.204 0.622466 -0.231153 0
M  V30 7917 H 730.734 1.60932 -1.26342 0
M  V30 7918 H 730.744 4.00614 -0.772816 0
M  V30 7919 H 729.419 3.70696 -1.88566 0
M  V30 7920 H 727.996 3.7286 -0.0543187 0
M  V30 7921 N 730.181 0.707592 1.40822 0
M  V30 7922 C 731.427 0.244031 2.01326 0
M  V30 7923 C 731.76 -1.15722 1.55955 0
M  V30 7924 O 731.035 -1.78347 0.776044 0
M  V30 7925 C 731.318 0.315128 3.58718 0
M  V30 7926 C 731.171 1.75419 4.14184 0
M  V30 7927 C 732.49 -0.318251 4.38948 0
M  V30 7928 H 729.609 0.0901471 0.731466 0
M  V30 7929 H 732.251 0.898584 1.67408 0
M  V30 7930 H 730.401 -0.242176 3.87744 0
M  V30 7931 H 732.073 2.36626 3.95987 0
M  V30 7932 H 730.316 2.28449 3.68773 0
M  V30 7933 H 730.987 1.75538 5.23345 0
M  V30 7934 H 733.463 0.156514 4.15806 0
M  V30 7935 H 732.339 -0.238019 5.48384 0
M  V30 7936 H 732.6 -1.40067 4.19325 0
M  V30 7937 N 731.66 -1.50943 0.453197 0
M  V30 7938 C 732.59 -2.31005 -0.34044 0
M  V30 7939 C 733.571 -1.37112 -1.00669 0
M  V30 7940 O 734.756 -1.66033 -1.0073 0
M  V30 7941 C 731.886 -3.16358 -1.433 0
M  V30 7942 C 730.84 -4.18658 -0.889363 0
M  V30 7943 C 730.166 -4.92633 -2.07887 0
M  V30 7944 C 731.466 -5.22227 0.0871142 0
M  V30 7945 H 733.16 -2.97601 0.327723 0
M  V30 7946 H 730.706 -1.43119 0.159054 0
M  V30 7947 H 732.659 -3.71155 -1.99555 0
M  V30 7948 H 731.383 -2.47613 -2.12968 0
M  V30 7949 H 730.042 -3.64936 -0.348915 0
M  V30 7950 H 729.69 -4.20376 -2.76211 0
M  V30 7951 H 729.39 -5.61819 -1.72143 0
M  V30 7952 H 730.914 -5.50258 -2.64666 0
M  V30 7953 H 732.328 -5.72001 -0.385656 0
M  V30 7954 H 730.725 -5.99032 0.357926 0
M  V30 7955 H 731.795 -4.74077 1.01879 0
M  V30 7956 N 733.138 -0.185124 -1.56509 0
M  V30 7957 C 734.384 0.450356 -1.98352 0
M  V30 7958 C 734.739 1.59923 -1.06969 0
M  V30 7959 O 734.032 1.91272 -0.112084 0
M  V30 7960 C 734.226 0.967977 -3.44042 0
M  V30 7961 C 734.055 -0.129208 -4.49514 0
M  V30 7962 C 732.825 -0.58351 -5.0192 0
M  V30 7963 C 735.023 -0.93459 -5.05737 0
M  V30 7964 N 733.005 -1.65956 -5.91043 0
M  V30 7965 C 734.376 -1.86026 -5.91434 0
M  V30 7966 C 736.431 -0.978125 -4.88198 0
M  V30 7967 C 735.134 -2.82582 -6.61468 0
M  V30 7968 C 737.16 -1.93169 -5.58963 0
M  V30 7969 C 736.522 -2.84481 -6.44399 0
M  V30 7970 H 732.621 0.132504 -0.770692 0
M  V30 7971 H 735.205 -0.288523 -1.9255 0
M  V30 7972 H 733.376 1.67633 -3.50362 0
M  V30 7973 H 735.108 1.57323 -3.72869 0
M  V30 7974 H 731.863 -0.178676 -4.73263 0
M  V30 7975 H 732.287 -2.19848 -6.40309 0
M  V30 7976 H 736.929 -0.286169 -4.2183 0
M  V30 7977 H 734.647 -3.52758 -7.2704 0
M  V30 7978 H 738.233 -1.97166 -5.47373 0
M  V30 7979 H 737.113 -3.57065 -6.98194 0
M  V30 7980 N 734.616 1.57351 0.0885366 0
M  V30 7981 C 735.893 1.77449 0.822873 0
M  V30 7982 C 736.273 0.768463 1.96616 0
M  V30 7983 O 735.621 -0.201757 2.27608 0
M  V30 7984 C 735.831 3.23425 1.31137 0
M  V30 7985 C 737.179 3.86791 1.75152 0
M  V30 7986 O 738.203 3.27215 1.40745 0
M  V30 7987 O 737.062 4.91568 2.38794 0
M  V30 7988 H 734.156 0.727653 0.393002 0
M  V30 7989 H 736.702 1.69556 0.0699095 0
M  V30 7990 H 735.474 3.88188 0.49254 0
M  V30 7991 H 735.097 3.35977 2.12615 0
M  V30 7992 N 736.094 -0.359525 1.53444 0
M  V30 7993 C 737.342 -1.09935 1.69584 0
M  V30 7994 C 737.663 -1.89656 0.453371 0
M  V30 7995 O 736.933 -1.8852 -0.53263 0
M  V30 7996 H 735.513 -0.408843 0.625185 0
M  V30 7997 H 738.175 -0.40467 1.90653 0
M  V30 7998 H 737.271 -1.78575 2.55964 0
M  V30 7999 N 737.572 -1.44907 -0.619662 0
M  V30 8000 C 738.502 -1.55488 -1.742 0
M  V30 8001 C 739.483 -0.407143 -1.65156 0
M  V30 8002 O 740.668 -0.628743 -1.8374 0
M  V30 8003 C 737.798 -1.5097 -3.1277 0
M  V30 8004 C 736.752 -2.64337 -3.36615 0
M  V30 8005 C 736.078 -2.44872 -4.75333 0
M  V30 8006 C 737.378 -4.06423 -3.28051 0
M  V30 8007 H 739.072 -2.49432 -1.65602 0
M  V30 8008 H 736.618 -1.20047 -0.795281 0
M  V30 8009 H 738.571 -1.56971 -3.91073 0
M  V30 8010 H 737.295 -0.535486 -3.2218 0
M  V30 8011 H 735.954 -2.57744 -2.60698 0
M  V30 8012 H 735.602 -1.45617 -4.81461 0
M  V30 8013 H 735.302 -3.20888 -4.92244 0
M  V30 8014 H 736.826 -2.52709 -5.55851 0
M  V30 8015 H 738.24 -4.14324 -3.96243 0
M  V30 8016 H 736.637 -4.82733 -3.56495 0
M  V30 8017 H 737.707 -4.29183 -2.25676 0
M  V30 8018 N 739.05 0.861098 -1.31996 0
M  V30 8019 C 740.461 1.43065 -1.19955 0
M  V30 8020 C 740.812 1.95273 0.190489 0
M  V30 8021 O 739.937 1.87012 1.08882 0
M  V30 8022 C 740.532 2.60052 -2.1716 0
M  V30 8023 C 739.091 3.13026 -2.09026 0
M  V30 8024 C 738.238 1.85756 -2.05888 0
M  V30 8025 H 741.189 0.668834 -1.43918 0
M  V30 8026 H 741.21 3.37016 -1.76637 0
M  V30 8027 H 740.722 2.22024 -3.18319 0
M  V30 8028 H 738.823 3.55653 -1.11092 0
M  V30 8029 H 738.936 3.74707 -2.98549 0
M  V30 8030 H 737.3 2.05088 -1.51033 0
M  V30 8031 H 738.083 1.49954 -3.08818 0
M  V30 8032 N 740.528 1.15101 1.07655 0
M  V30 8033 C 741.944 0.893004 1.32279 0
M  V30 8034 C 742.144 -0.461701 1.96139 0
M  V30 8035 O 741.2 -1.20431 2.21929 0
M  V30 8036 C 742.513 2.03161 2.21689 0
M  V30 8037 C 744.061 2.06579 2.35147 0
M  V30 8038 C 744.536 3.19754 3.27905 0
M  V30 8039 N 746.027 3.19382 3.35484 0
M  V30 8040 C 746.762 4.03592 4.07309 0
M  V30 8041 N 746.258 4.97859 4.81776 0
M  V30 8042 N 748.051 3.91626 4.03219 0
M  V30 8043 H 740.202 2.02341 0.645886 0
M  V30 8044 H 742.465 0.882127 0.347211 0
M  V30 8045 H 742.171 3.00934 1.82021 0
M  V30 8046 H 742.045 1.96132 3.22199 0
M  V30 8047 H 744.432 1.09408 2.74069 0
M  V30 8048 H 744.513 2.17676 1.34353 0
M  V30 8049 H 744.157 4.17175 2.89702 0
M  V30 8050 H 744.087 3.05893 4.28645 0
M  V30 8051 H 746.578 2.51112 2.82403 0
M  V30 8052 H 746.891 5.58563 5.34067 0
M  V30 8053 H 745.236 5.0185 4.80803 0
M  V30 8054 H 748.427 3.17295 3.44154 0
M  V30 8055 H 748.6 4.57479 4.5893 0
M  V30 8056 N 742.006 -1.2595 0.947325 0
M  V30 8057 C 742.956 -2.23859 0.432547 0
M  V30 8058 C 743.94 -1.53755 -0.474154 0
M  V30 8059 O 745.132 -1.74293 -0.308397 0
M  V30 8060 C 742.261 -3.42027 -0.295318 0
M  V30 8061 C 741.347 -4.19409 0.62903 0
M  V30 8062 N 741.738 -4.74284 1.7575 0
M  V30 8063 C 740.036 -4.43866 0.435805 0
M  V30 8064 C 740.737 -5.32821 2.33401 0
M  V30 8065 N 739.713 -5.18858 1.62135 0
M  V30 8066 H 743.515 -2.63886 1.29388 0
M  V30 8067 H 741.029 -1.41105 0.80393 0
M  V30 8068 H 743.026 -4.11297 -0.681188 0
M  V30 8069 H 741.686 -3.03526 -1.15334 0
M  V30 8070 H 742.697 -4.71641 2.13952 0
M  V30 8071 H 739.374 -4.15768 -0.37994 0
M  V30 8072 H 740.764 -5.86111 3.28517 0
M  V30 8073 N 743.484 -0.715051 -1.40445 0
M  V30 8074 C 744.731 -0.254328 -2.00897 0
M  V30 8075 C 745.059 1.15228 -1.56693 0
M  V30 8076 O 744.314 1.7958 -0.777786 0
M  V30 8077 C 744.613 -0.281791 -3.56287 0
M  V30 8078 C 744.279 -1.63862 -4.20071 0
M  V30 8079 C 742.941 -2.01003 -4.37208 0
M  V30 8080 C 745.293 -2.53039 -4.55654 0
M  V30 8081 C 742.621 -3.26869 -4.8721 0
M  V30 8082 C 744.973 -3.78256 -5.07055 0
M  V30 8083 C 743.637 -4.15515 -5.22401 0
M  V30 8084 H 742.907 -0.0930652 -0.735133 0
M  V30 8085 H 745.554 -0.917977 -1.68064 0
M  V30 8086 H 743.859 0.465428 -3.89026 0
M  V30 8087 H 745.556 0.0925158 -4.00893 0
M  V30 8088 H 742.146 -1.33979 -4.07121 0
M  V30 8089 H 746.33 -2.2562 -4.42051 0
M  V30 8090 H 741.586 -3.55706 -4.97276 0
M  V30 8091 H 745.76 -4.47528 -5.33565 0
M  V30 8092 H 743.387 -5.13114 -5.60909 0
M  V30 8093 N 744.962 1.50701 -0.461195 0
M  V30 8094 C 746.211 2.01458 0.0988277 0
M  V30 8095 C 746.524 1.34863 1.41673 0
M  V30 8096 O 747.73 1.76721 2.06111 0
M  V30 8097 C 746.186 3.59186 0.226648 0
M  V30 8098 C 745.794 4.34732 -1.08223 0
M  V30 8099 C 747.538 4.18015 0.73916 0
M  V30 8100 C 745.445 5.8422 -0.918747 0
M  V30 8101 H 744.375 0.7529 0.040709 0
M  V30 8102 H 747.026 1.736 -0.594589 0
M  V30 8103 H 745.408 3.83589 0.983621 0
M  V30 8104 H 746.582 4.22059 -1.84939 0
M  V30 8105 H 744.897 3.87466 -1.52509 0
M  V30 8106 H 747.494 5.27436 0.878347 0
M  V30 8107 H 747.837 3.78746 1.72793 0
M  V30 8108 H 748.37 3.9778 0.0398469 0
M  V30 8109 H 745.109 6.27944 -1.88059 0
M  V30 8110 H 744.629 5.99493 -0.191801 0
M  V30 8111 H 746.308 6.44382 -0.581405 0
M  V30 8112 N 746.441 0.193421 1.56409 0
M  V30 8113 C 747.69 -0.445995 1.96707 0
M  V30 8114 C 748.003 -1.62876 1.08309 0
M  V30 8115 O 749.209 -2.33586 1.38383 0
M  V30 8116 C 747.665 -0.844863 3.49843 0
M  V30 8117 C 747.273 0.31352 4.46902 0
M  V30 8118 C 749.017 -1.45146 3.98915 0
M  V30 8119 C 746.924 -0.106214 5.91305 0
M  V30 8120 H 745.854 -0.170398 0.734493 0
M  V30 8121 H 748.505 0.285172 1.81271 0
M  V30 8122 H 746.887 -1.63265 3.60778 0
M  V30 8123 H 748.061 1.09103 4.47698 0
M  V30 8124 H 746.376 0.8315 4.08014 0
M  V30 8125 H 748.973 -1.77792 5.04276 0
M  V30 8126 H 749.316 -2.35734 3.43126 0
M  V30 8127 H 749.849 -0.727675 3.91088 0
M  V30 8128 H 746.588 0.765442 6.51016 0
M  V30 8129 H 746.108 -0.848623 5.93766 0
M  V30 8130 H 747.787 -0.542588 6.44721 0
M  V30 8131 N 747.919 -1.57396 -0.0801906 0
M  V30 8132 C 748.851 -1.9982 -1.12271 0
M  V30 8133 C 749.864 -0.902902 -1.35468 0
M  V30 8134 O 751.053 -1.18088 -1.33856 0
M  V30 8135 C 748.153 -2.31476 -2.47532 0
M  V30 8136 C 747.326 -3.62745 -2.44407 0
M  V30 8137 C 746.385 -3.82168 -3.6171 0
M  V30 8138 O 745.411 -4.53852 -3.43522 0
M  V30 8139 N 746.613 -3.2388 -4.81749 0
M  V30 8140 H 749.378 -2.89864 -0.761501 0
M  V30 8141 H 746.939 -1.5965 -0.268965 0
M  V30 8142 H 748.931 -2.4165 -3.24634 0
M  V30 8143 H 747.501 -1.47364 -2.75686 0
M  V30 8144 H 746.721 -3.63403 -1.52747 0
M  V30 8145 H 748.009 -4.48954 -2.39412 0
M  V30 8146 H 747.407 -2.6568 -4.9943 0
M  V30 8147 H 745.964 -3.39515 -5.56392 0
M  V30 8148 N 749.397 0.351382 -1.53633 0
M  V30 8149 C 750.622 1.11718 -1.74739 0
M  V30 8150 C 751.047 1.81829 -0.481657 0
M  V30 8151 O 750.405 1.72264 0.565233 0
M  V30 8152 C 750.453 2.11234 -2.92254 0
M  V30 8153 O 749.557 3.186 -2.61855 0
M  V30 8154 H 748.898 0.323482 -0.579875 0
M  V30 8155 H 751.428 0.404167 -2.00568 0
M  V30 8156 H 751.438 2.54591 -3.18822 0
M  V30 8157 H 750.113 1.59599 -3.84058 0
M  V30 8158 H 748.69 2.80115 -2.4615 0
M  V30 8159 N 750.875 1.45233 0.611969 0
M  V30 8160 C 751.805 1.5641 1.73373 0
M  V30 8161 C 752.786 0.415896 1.64937 0
M  V30 8162 O 753.971 0.638478 1.83404 0
M  V30 8163 C 751.101 1.52627 3.11965 0
M  V30 8164 C 750.055 2.66119 3.35208 0
M  V30 8165 C 749.381 2.4739 4.74028 0
M  V30 8166 C 750.681 4.08157 3.25891 0
M  V30 8167 H 752.375 2.50307 1.64277 0
M  V30 8168 H 749.921 1.20467 0.788904 0
M  V30 8169 H 751.874 1.59043 3.90235 0
M  V30 8170 H 750.598 0.552564 3.21892 0
M  V30 8171 H 749.257 2.59123 2.59327 0
M  V30 8172 H 748.905 1.48168 4.80682 0
M  V30 8173 H 748.605 3.23494 4.90536 0
M  V30 8174 H 750.129 2.55653 5.54503 0
M  V30 8175 H 751.543 4.1642 3.9404 0
M  V30 8176 H 749.94 4.84617 3.5393 0
M  V30 8177 H 751.01 4.30374 2.23397 0
M  V30 8178 N 752.353 -0.854086 1.3245 0
M  V30 8179 C 753.63 -1.59188 1.1366 0
M  V30 8180 C 754.01 -2.08917 -0.302807 0
M  V30 8181 O 753.358 -1.8795 -1.29951 0
M  V30 8182 C 753.568 -2.73757 2.16467 0
M  V30 8183 C 754.916 -3.43323 2.49829 0
M  V30 8184 O 755.94 -2.83983 2.15017 0
M  V30 8185 O 754.799 -4.50409 3.09506 0
M  V30 8186 H 751.893 -0.701092 0.438633 0
M  V30 8187 H 754.439 -0.898165 1.43983 0
M  V30 8188 H 753.211 -2.3454 3.1322 0
M  V30 8189 H 752.834 -3.50804 1.87142 0
M  V30 8190 N 753.831 -1.1567 -1.07043 0
M  V30 8191 C 754.779 -0.852204 -2.16426 0
M  V30 8192 C 755.773 0.175661 -1.68487 0
M  V30 8193 O 756.979 0.0303874 -1.79974 0
M  V30 8194 H 753.354 -0.257942 -0.706378 0
M  V30 8195 H 755.325 -1.78231 -2.39324 0
M  V30 8196 C 754.074 -0.361362 -3.45817 0
M  V30 8197 H 753.397 -1.14369 -3.83092 0
M  V30 8198 H 754.837 -0.186997 -4.23587 0
M  V30 8199 C 753.296 0.917703 -3.2416 0
M  V30 8200 O 753.826 1.98858 -3.49025 0
M  V30 8201 N 752.032 0.858456 -2.77631 0
M  V30 8202 H 751.579 -0.0131821 -2.57597 0
M  V30 8203 H 751.537 1.71478 -2.6352 0
M  V30 8204 N 755.309 1.25446 -0.953992 0
M  V30 8205 C 756.239 2.28264 -0.491717 0
M  V30 8206 C 757.22 1.63717 0.461617 0
M  V30 8207 O 758.405 1.90821 0.36071 0
M  V30 8208 C 755.535 3.46525 0.231915 0
M  V30 8209 C 754.489 4.23247 -0.636098 0
M  V30 8210 C 753.815 5.34254 0.218238 0
M  V30 8211 C 755.115 4.85971 -1.91389 0
M  V30 8212 H 756.809 2.67183 -1.35106 0
M  V30 8213 H 754.355 1.2844 -0.651095 0
M  V30 8214 H 756.308 4.17576 0.566439 0
M  V30 8215 H 755.032 3.06594 1.12551 0
M  V30 8216 H 753.691 3.53978 -0.953696 0
M  V30 8217 H 753.339 4.90564 1.11156 0
M  V30 8218 H 753.039 5.86501 -0.359232 0
M  V30 8219 H 754.563 6.08138 0.547743 0
M  V30 8220 H 755.977 5.49168 -1.64581 0
M  V30 8221 H 754.374 5.48391 -2.43696 0
M  V30 8222 H 755.444 4.08192 -2.61738 0
M  V30 8223 N 756.787 0.722489 1.40064 0
M  V30 8224 C 758.017 0.274439 2.04769 0
M  V30 8225 C 758.425 -1.09125 1.54559 0
M  V30 8226 O 757.768 -1.69834 0.700149 0
M  V30 8227 C 757.83 0.184091 3.59028 0
M  V30 8228 C 757.494 1.48619 4.32159 0
M  V30 8229 C 758.491 2.42947 4.59644 0
M  V30 8230 C 756.176 1.74703 4.7094 0
M  V30 8231 C 758.17 3.616 5.24904 0
M  V30 8232 C 755.857 2.93636 5.3593 0
M  V30 8233 C 756.855 3.86907 5.62843 0
M  V30 8234 O 756.543 5.03753 6.26489 0
M  V30 8235 H 756.275 0.119847 0.665292 0
M  V30 8236 H 758.829 0.983352 1.80331 0
M  V30 8237 H 757.059 -0.580821 3.82313 0
M  V30 8238 H 758.748 -0.230306 4.05246 0
M  V30 8239 H 759.514 2.24062 4.30141 0
M  V30 8240 H 755.393 1.02955 4.49356 0
M  V30 8241 H 758.937 4.34418 5.45827 0
M  V30 8242 H 754.834 3.12428 5.64853 0
M  V30 8243 H 755.602 5.03922 6.44984 0
M  V30 8244 N 758.265 -1.50454 0.469181 0
M  V30 8245 C 759.681 -1.59124 0.123226 0
M  V30 8246 C 759.881 -1.47749 -1.37013 0
M  V30 8247 O 758.937 -1.335 -2.14322 0
M  V30 8248 C 760.25 -2.93101 0.67172 0
M  V30 8249 C 761.798 -3.06491 0.634978 0
M  V30 8250 C 762.273 -4.43041 1.16098 0
M  V30 8251 N 763.764 -4.49448 1.12031 0
M  V30 8252 C 764.499 -5.53491 1.49784 0
M  V30 8253 N 763.995 -6.64798 1.94976 0
M  V30 8254 N 765.788 -5.44025 1.41399 0
M  V30 8255 H 757.939 -1.56091 1.44046 0
M  V30 8256 H 760.202 -0.737564 0.59557 0
M  V30 8257 H 759.908 -3.06895 1.7178 0
M  V30 8258 H 759.782 -3.77027 0.114222 0
M  V30 8259 H 762.169 -2.92346 -0.402187 0
M  V30 8260 H 762.25 -2.24328 1.22926 0
M  V30 8261 H 761.894 -4.57935 2.19677 0
M  V30 8262 H 761.824 -5.23794 0.542939 0
M  V30 8263 H 764.315 -3.69575 0.788828 0
M  V30 8264 H 764.628 -7.40246 2.21936 0
M  V30 8265 H 762.973 -6.65923 1.98927 0
M  V30 8266 H 766.164 -4.55955 1.05935 0
M  V30 8267 H 766.337 -6.2499 1.71147 0
M  V30 8268 N 759.743 -0.201713 -1.56304 0
M  V30 8269 C 760.673 0.71155 -2.22394 0
M  V30 8270 C 761.654 1.21625 -1.18917 0
M  V30 8271 O 762.839 1.26388 -1.47444 0
M  V30 8272 C 759.969 1.92837 -2.88845 0
M  V30 8273 C 758.923 1.55831 -3.98623 0
M  V30 8274 C 758.249 2.85228 -4.52271 0
M  V30 8275 C 759.549 0.763249 -5.16693 0
M  V30 8276 H 761.243 0.160573 -2.98969 0
M  V30 8277 H 758.789 0.0757916 -1.438 0
M  V30 8278 H 760.742 2.57253 -3.33764 0
M  V30 8279 H 759.466 2.50398 -2.09686 0
M  V30 8280 H 758.125 0.9377 -3.54405 0
M  V30 8281 H 757.773 3.40893 -3.69866 0
M  V30 8282 H 757.473 2.6121 -5.26349 0
M  V30 8283 H 758.997 3.50622 -4.99897 0
M  V30 8284 H 760.411 1.31066 -5.58117 0
M  V30 8285 H 758.808 0.620935 -5.96879 0
M  V30 8286 H 759.878 -0.234322 -4.84334 0
M  V30 8287 N 761.222 1.57436 0.0718424 0
M  V30 8288 C 762.132 2.07039 1.10326 0
M  V30 8289 C 763.148 0.999918 1.424 0
M  V30 8290 O 764.324 1.31462 1.52577 0
M  V30 8291 C 761.389 2.50439 2.39752 0
M  V30 8292 C 760.45 3.71784 2.14651 0
M  V30 8293 C 759.683 4.13104 3.37906 0
M  V30 8294 O 759.906 3.54298 4.47023 0
M  V30 8295 O 758.84 5.05894 3.26121 0
M  V30 8296 H 762.666 2.95239 0.711872 0
M  V30 8297 H 760.251 1.46638 0.28597 0
M  V30 8298 H 762.133 2.78876 3.15921 0
M  V30 8299 H 760.808 1.65368 2.78271 0
M  V30 8300 H 759.715 3.48431 1.36187 0
M  V30 8301 H 761.048 4.57707 1.81012 0
M  V30 8302 N 762.7 -0.34323 1.53817 0
M  V30 8303 C 763.948 -1.0813 1.70741 0
M  V30 8304 C 764.269 -1.89165 0.473461 0
M  V30 8305 O 763.539 -1.89075 -0.512605 0
M  V30 8306 H 762.119 -0.40219 0.629486 0
M  V30 8307 H 764.781 -0.384426 1.91071 0
M  V30 8308 H 763.877 -1.7585 2.57843 0
M  V30 8309 N 764.178 -1.45556 -0.604258 0
M  V30 8310 C 765.088 -1.57025 -1.74299 0
M  V30 8311 C 766.104 -0.45456 -1.67958 0
M  V30 8312 O 767.28 -0.715711 -1.88254 0
M  V30 8313 C 764.345 -1.53702 -3.10768 0
M  V30 8314 C 763.406 -2.76335 -3.28538 0
M  V30 8315 C 762.639 -2.73161 -4.58496 0
M  V30 8316 O 762.862 -1.80678 -5.41028 0
M  V30 8317 O 761.796 -3.64409 -4.79051 0
M  V30 8318 H 765.622 -2.53284 -1.67573 0
M  V30 8319 H 763.207 -1.28104 -0.768745 0
M  V30 8320 H 765.089 -1.54468 -3.92068 0
M  V30 8321 H 763.764 -0.605957 -3.17978 0
M  V30 8322 H 762.671 -2.8113 -2.46813 0
M  V30 8323 H 764.004 -3.68578 -3.26207 0
M  V30 8324 N 765.656 0.84705 -1.32902 0
M  V30 8325 C 766.904 1.5986 -1.2365 0
M  V30 8326 C 767.225 1.93974 0.199789 0
M  V30 8327 O 766.495 1.60273 1.12648 0
M  V30 8328 H 765.075 0.592696 -0.454665 0
M  V30 8329 H 767.737 1.01278 -1.66519 0
M  V30 8330 H 766.833 2.53218 -1.82448 0
M  V30 8331 N 767.134 1.16236 1.06428 0
M  V30 8332 C 768.381 0.943034 1.79201 0
M  V30 8333 C 768.709 -0.529243 1.87161 0
M  V30 8334 O 767.964 -1.40874 1.35842 0
M  V30 8335 C 768.263 1.51396 3.2375 0
M  V30 8336 C 767.929 3.00833 3.35873 0
M  V30 8337 C 766.591 3.41626 3.38888 0
M  V30 8338 C 768.943 3.96825 3.37904 0
M  V30 8339 C 766.271 4.77033 3.4155 0
M  V30 8340 C 768.623 5.32116 3.42104 0
M  V30 8341 C 767.287 5.72392 3.43401 0
M  V30 8342 H 766.557 0.34508 0.655744 0
M  V30 8343 H 769.204 1.44929 1.25171 0
M  V30 8344 H 767.509 0.929114 3.80624 0
M  V30 8345 H 769.206 1.31996 3.78653 0
M  V30 8346 H 765.796 2.68306 3.3423 0
M  V30 8347 H 769.98 3.66376 3.34787 0
M  V30 8348 H 765.236 5.07569 3.40858 0
M  V30 8349 H 769.41 6.06286 3.42623 0
M  V30 8350 H 767.037 6.77296 3.45216 0
M  V30 8351 N 768.612 -1.24939 0.960631 0
M  V30 8352 C 770.023 -1.74701 0.658529 0
M  V30 8353 C 770.374 -1.77967 -0.825959 0
M  V30 8354 O 769.499 -1.40444 -1.64634 0
M  V30 8355 C 770.094 -3.17263 1.18867 0
M  V30 8356 C 768.653 -3.64561 0.936614 0
M  V30 8357 C 767.8 -2.43423 1.32817 0
M  V30 8358 H 770.751 -1.10741 1.13676 0
M  V30 8359 H 770.772 -3.76481 0.551589 0
M  V30 8360 H 770.284 -3.14854 2.26912 0
M  V30 8361 H 768.385 -3.72378 -0.128608 0
M  V30 8362 H 768.498 -4.52392 1.57729 0
M  V30 8363 H 766.862 -2.43513 0.746548 0
M  V30 8364 H 767.645 -2.437 2.41796 0
M  V30 8365 N 770.09 -0.729906 -1.39679 0
M  V30 8366 C 771.315 -0.284345 -2.05442 0
M  V30 8367 C 771.74 1.07056 -1.54663 0
M  V30 8368 O 771.098 1.67732 -0.688157 0
M  V30 8369 C 771.146 -0.290089 -3.59431 0
M  V30 8370 O 770.25 0.723978 -4.05995 0
M  V30 8371 H 769.591 -0.130311 -0.651088 0
M  V30 8372 H 772.121 -0.994403 -1.78809 0
M  V30 8373 H 772.131 -0.132712 -4.07784 0
M  V30 8374 H 770.806 -1.27877 -3.95753 0
M  V30 8375 H 769.383 0.533154 -3.69069 0
M  V30 8376 N 771.568 1.50203 -0.477153 0
M  V30 8377 C 772.817 2.01551 0.0774548 0
M  V30 8378 C 773.13 1.36359 1.40234 0
M  V30 8379 O 774.336 1.78898 2.04225 0
M  V30 8380 C 772.792 3.59406 0.188539 0
M  V30 8381 C 772.4 4.3356 -1.12828 0
M  V30 8382 C 774.144 4.18776 0.694782 0
M  V30 8383 C 772.051 5.83213 -0.98066 0
M  V30 8384 H 770.981 0.75329 0.0327212 0
M  V30 8385 H 773.632 1.72959 -0.612969 0
M  V30 8386 H 772.014 3.84611 0.942881 0
M  V30 8387 H 773.188 4.20074 -1.89405 0
M  V30 8388 H 771.503 3.85827 -1.5661 0
M  V30 8389 H 774.1 5.28338 0.822356 0
M  V30 8390 H 774.443 3.80557 1.68766 0
M  V30 8391 H 774.976 3.978 -0.00234519 0
M  V30 8392 H 771.715 6.25914 -1.94709 0
M  V30 8393 H 771.235 5.99256 -0.255375 0
M  V30 8394 H 772.914 6.4373 -0.649717 0
M  V30 8395 N 773.046 0.209999 1.56195 0
M  V30 8396 C 774.457 -0.299943 1.84275 0
M  V30 8397 C 774.808 -1.60314 1.1311 0
M  V30 8398 O 773.933 -2.1273 0.396874 0
M  V30 8399 C 774.528 -0.550986 3.3429 0
M  V30 8400 C 773.087 -1.00526 3.62728 0
M  V30 8401 C 772.234 -0.0619828 2.77231 0
M  V30 8402 H 775.185 0.433458 1.52666 0
M  V30 8403 H 775.206 -1.39846 3.53869 0
M  V30 8404 H 774.718 0.397669 3.86057 0
M  V30 8405 H 772.819 -1.96768 3.16407 0
M  V30 8406 H 772.932 -0.887664 4.70805 0
M  V30 8407 H 771.296 -0.566648 2.48317 0
M  V30 8408 H 772.079 0.881383 3.31793 0
M  V30 8409 N 774.524 -1.57472 -0.0634922 0
M  V30 8410 C 775.454 -2.07297 -1.07473 0
M  V30 8411 C 776.435 -0.968162 -1.39859 0
M  V30 8412 O 777.62 -1.24139 -1.49343 0
M  V30 8413 C 774.75 -2.52381 -2.38581 0
M  V30 8414 C 773.704 -3.66813 -2.20526 0
M  V30 8415 C 773.03 -3.97982 -3.57092 0
M  V30 8416 C 774.33 -4.96553 -1.61965 0
M  V30 8417 H 776.024 -2.92033 -0.660092 0
M  V30 8418 H 773.57 -1.40488 -0.316074 0
M  V30 8419 H 775.523 -2.85852 -3.09624 0
M  V30 8420 H 774.247 -1.64684 -2.8204 0
M  V30 8421 H 772.906 -3.33639 -1.51924 0
M  V30 8422 H 772.554 -3.07403 -3.98136 0
M  V30 8423 H 772.254 -4.7504 -3.45848 0
M  V30 8424 H 773.778 -4.33956 -4.29552 0
M  V30 8425 H 775.192 -5.28201 -2.22883 0
M  V30 8426 H 773.589 -5.7799 -1.61394 0
M  V30 8427 H 774.659 -4.81396 -0.581918 0
M  V30 8428 N 776.003 0.335068 -1.53997 0
M  V30 8429 C 776.933 1.41727 -1.85568 0
M  V30 8430 C 777.914 1.54505 -0.7115 0
M  V30 8431 O 779.099 1.68573 -0.964191 0
M  V30 8432 C 776.229 2.7866 -2.07282 0
M  V30 8433 C 775.183 2.80682 -3.23112 0
M  V30 8434 C 774.509 4.20581 -3.30175 0
M  V30 8435 C 775.809 2.45458 -4.61029 0
M  V30 8436 H 777.503 1.15555 -2.76202 0
M  V30 8437 H 775.049 0.554445 -1.32898 0
M  V30 8438 H 777.002 3.54423 -2.27952 0
M  V30 8439 H 775.726 3.06286 -1.13387 0
M  V30 8440 H 774.385 2.07373 -3.02311 0
M  V30 8441 H 774.033 4.4533 -2.33859 0
M  V30 8442 H 773.733 4.22843 -4.08016 0
M  V30 8443 H 775.257 4.98174 -3.53066 0
M  V30 8444 H 776.671 3.10934 -4.81656 0
M  V30 8445 H 775.068 2.5899 -5.41336 0
M  V30 8446 H 776.138 1.40628 -4.6406 0
M  V30 8447 N 777.481 1.45874 0.596531 0
M  V30 8448 C 778.73 1.49737 1.35135 0
M  V30 8449 C 779.043 0.147755 1.95041 0
M  V30 8450 O 780.249 0.0640984 2.71424 0
M  V30 8451 C 778.705 2.6378 2.44843 0
M  V30 8452 C 778.313 4.05102 1.91301 0
M  V30 8453 C 780.057 2.769 3.21755 0
M  V30 8454 C 777.964 5.10508 2.98557 0
M  V30 8455 H 776.894 0.557219 0.507959 0
M  V30 8456 H 779.545 1.72046 0.638147 0
M  V30 8457 H 777.927 2.34774 3.189 0
M  V30 8458 H 779.101 4.43836 1.2388 0
M  V30 8459 H 777.416 3.96528 1.271 0
M  V30 8460 H 780.013 3.52819 4.01775 0
M  V30 8461 H 780.356 1.83924 3.73467 0
M  V30 8462 H 780.889 3.05485 2.54802 0
M  V30 8463 H 777.628 6.0523 2.51749 0
M  V30 8464 H 777.148 4.76332 3.6451 0
M  V30 8465 H 778.827 5.35745 3.62748 0
M  V30 8466 N 778.959 -0.83999 1.33349 0
M  V30 8467 C 780.236 -1.57973 1.15342 0
M  V30 8468 C 780.616 -2.09226 -0.280632 0
M  V30 8469 O 779.964 -1.89317 -1.2795 0
M  V30 8470 C 780.174 -2.71446 2.19359 0
M  V30 8471 C 781.522 -3.40654 2.53456 0
M  V30 8472 O 782.546 -2.81686 2.18017 0
M  V30 8473 O 781.405 -4.47101 3.14266 0
M  V30 8474 H 778.499 -0.6964 0.446044 0
M  V30 8475 H 781.045 -0.882843 1.44927 0
M  V30 8476 H 779.817 -2.31205 3.1569 0
M  V30 8477 H 779.44 -3.488 1.90852 0
M  V30 8478 N 780.437 -1.16799 -1.0581 0
M  V30 8479 C 781.387 -0.847231 -2.11674 0
M  V30 8480 C 782.371 0.175476 -1.5994 0
M  V30 8481 O 783.563 -0.0260602 -1.76981 0
M  V30 8482 C 780.692 -0.355446 -3.41455 0
M  V30 8483 C 779.778 -1.40922 -4.00002 0
M  V30 8484 N 780.169 -2.62096 -4.32596 0
M  V30 8485 C 778.467 -1.26562 -4.27666 0
M  V30 8486 C 779.168 -3.29759 -4.79201 0
M  V30 8487 N 778.144 -2.57138 -4.78938 0
M  V30 8488 H 781.946 -1.76862 -2.34727 0
M  V30 8489 H 779.46 -1.05577 -1.23399 0
M  V30 8490 H 781.457 -0.107231 -4.16762 0
M  V30 8491 H 780.117 0.559817 -3.19838 0
M  V30 8492 H 781.128 -2.99113 -4.22791 0
M  V30 8493 H 777.805 -0.411503 -4.15467 0
M  V30 8494 H 779.195 -4.33222 -5.13584 0
M  V30 8495 N 781.915 1.24427 -0.967243 0
M  V30 8496 C 782.845 2.2773 -0.515899 0
M  V30 8497 C 783.826 1.64197 0.444227 0
M  V30 8498 O 785.011 1.91193 0.340451 0
M  V30 8499 C 782.141 3.46751 0.195149 0
M  V30 8500 C 781.095 4.22548 -0.680953 0
M  V30 8501 C 780.421 5.34456 0.161561 0
M  V30 8502 C 781.721 4.83914 -1.96532 0
M  V30 8503 H 783.415 2.65735 -1.37933 0
M  V30 8504 H 780.961 1.27742 -0.664681 0
M  V30 8505 H 782.914 4.18153 0.522117 0
M  V30 8506 H 781.638 3.07771 1.09292 0
M  V30 8507 H 780.297 3.52946 -0.991186 0
M  V30 8508 H 779.945 4.91716 1.05947 0
M  V30 8509 H 779.645 5.86087 -0.421418 0
M  V30 8510 H 781.169 6.08685 0.483211 0
M  V30 8511 H 782.583 5.47392 -1.70396 0
M  V30 8512 H 780.98 5.45775 -2.49499 0
M  V30 8513 H 782.05 4.05393 -2.66053 0
M  V30 8514 N 783.393 0.737304 1.3929 0
M  V30 8515 C 784.323 0.113988 2.33222 0
M  V30 8516 C 785.304 -0.721695 1.54031 0
M  V30 8517 O 786.489 -0.666206 1.82415 0
M  V30 8518 C 783.619 -0.792319 3.38141 0
M  V30 8519 C 782.573 -0.0606178 4.27957 0
M  V30 8520 C 781.899 -1.08409 5.23595 0
M  V30 8521 C 783.199 1.09817 5.10625 0
M  V30 8522 H 784.893 0.898611 2.85596 0
M  V30 8523 H 782.439 0.433571 1.37318 0
M  V30 8524 H 784.392 -1.23793 4.02807 0
M  V30 8525 H 783.116 -1.60908 2.84211 0
M  V30 8526 H 781.775 0.365393 3.64775 0
M  V30 8527 H 781.423 -1.89449 4.6596 0
M  V30 8528 H 781.123 -0.599269 5.84536 0
M  V30 8529 H 782.647 -1.52936 5.91137 0
M  V30 8530 H 784.061 0.730892 5.68622 0
M  V30 8531 H 782.458 1.51278 5.80719 0
M  V30 8532 H 783.528 1.91878 4.45321 0
M  V30 8533 N 784.871 -1.49948 0.485112 0
M  V30 8534 C 786.096 -2.073 -0.0645059 0
M  V30 8535 C 786.521 -1.345 -1.31497 0
M  V30 8536 O 785.879 -0.39687 -1.76903 0
M  V30 8537 C 785.927 -3.59201 -0.317304 0
M  V30 8538 O 785.031 -3.88085 -1.39514 0
M  V30 8539 H 784.372 -0.663723 0.0191822 0
M  V30 8540 H 786.902 -1.92963 0.680179 0
M  V30 8541 H 786.912 -4.04227 -0.553604 0
M  V30 8542 H 785.587 -4.11602 0.596387 0
M  V30 8543 H 784.164 -3.54885 -1.14504 0
M  V30 8544 N 786.349 -0.21828 -1.56081 0
M  V30 8545 C 787.577 0.419258 -2.02608 0
M  V30 8546 C 787.992 1.53578 -1.09814 0
M  V30 8547 O 787.349 1.82185 -0.107149 0
M  V30 8548 C 787.4 0.953955 -3.48686 0
M  V30 8549 O 787.121 -0.11805 -4.37941 0
M  V30 8550 C 788.622 1.66506 -4.10841 0
M  V30 8551 H 785.842 0.10296 -0.663054 0
M  V30 8552 H 788.386 -0.333776 -2.01758 0
M  V30 8553 H 786.541 1.65727 -3.50162 0
M  V30 8554 H 786.955 0.283359 -5.23734 0
M  V30 8555 H 788.429 1.99123 -5.14834 0
M  V30 8556 H 788.906 2.57705 -3.55647 0
M  V30 8557 H 789.512 1.00703 -4.13206 0
M  V30 8558 N 787.827 1.57504 0.0551401 0
M  V30 8559 C 788.759 2.0158 1.09078 0
M  V30 8560 C 789.772 0.92434 1.34014 0
M  V30 8561 O 790.961 1.20202 1.31961 0
M  V30 8562 C 788.061 2.35385 2.43818 0
M  V30 8563 C 787.234 3.66588 2.38605 0
M  V30 8564 C 786.293 3.87874 3.55585 0
M  V30 8565 O 785.319 4.59259 3.36258 0
M  V30 8566 N 786.521 3.31503 4.76536 0
M  V30 8567 H 789.286 2.91039 0.71529 0
M  V30 8568 H 786.847 1.60058 0.243532 0
M  V30 8569 H 788.839 2.46784 3.20749 0
M  V30 8570 H 787.409 1.51731 2.73307 0
M  V30 8571 H 786.629 3.65787 1.46947 0
M  V30 8572 H 787.917 4.52706 2.32239 0
M  V30 8573 H 787.315 2.73592 4.9514 0
M  V30 8574 H 785.872 3.48324 5.50921 0
M  V30 8575 N 789.305 -0.326896 1.54172 0
M  V30 8576 C 790.237 -1.42319 1.79661 0
M  V30 8577 C 791.25 -1.47989 0.678456 0
M  V30 8578 O 792.439 -1.50773 0.955503 0
M  V30 8579 C 789.539 -2.80876 1.89636 0
M  V30 8580 C 788.712 -2.98449 3.19761 0
M  V30 8581 C 787.771 -4.17347 3.2048 0
M  V30 8582 O 786.797 -4.10667 3.94134 0
M  V30 8583 N 787.999 -5.26717 2.44027 0
M  V30 8584 H 790.764 -1.20819 2.74268 0
M  V30 8585 H 788.325 -0.516866 1.53428 0
M  V30 8586 H 790.317 -3.58619 1.87549 0
M  V30 8587 H 788.887 -2.95442 1.02141 0
M  V30 8588 H 788.107 -2.08035 3.34836 0
M  V30 8589 H 789.395 -3.07083 4.05681 0
M  V30 8590 H 788.793 -5.35019 1.8377 0
M  V30 8591 H 787.35 -6.02891 2.47721 0
M  V30 8592 N 790.784 -1.46188 -0.588786 0
M  V30 8593 C 792.195 -1.45421 -1.17088 0
M  V30 8594 C 792.546 -0.191801 -1.9526 0
M  V30 8595 O 791.671 0.705497 -2.04577 0
M  V30 8596 C 792.266 -2.63467 -2.13004 0
M  V30 8597 C 790.825 -2.6576 -2.6655 0
M  V30 8598 C 789.972 -2.38002 -1.42304 0
M  V30 8599 H 792.923 -1.54156 -0.377052 0
M  V30 8600 H 792.944 -2.38638 -2.96365 0
M  V30 8601 H 792.456 -3.55331 -1.56081 0
M  V30 8602 H 790.557 -1.77952 -3.27359 0
M  V30 8603 H 790.67 -3.65545 -3.09699 0
M  V30 8604 H 789.034 -1.87936 -1.71907 0
M  V30 8605 H 789.817 -3.32035 -0.872209 0
M  V30 8606 N 792.262 0.832906 -1.33792 0
M  V30 8607 C 793.192 1.95828 -1.27176 0
M  V30 8608 C 794.173 1.69427 -0.15114 0
M  V30 8609 O 795.358 1.91167 -0.341886 0
M  V30 8610 C 792.488 3.32098 -1.01629 0
M  V30 8611 C 791.442 3.72912 -2.10049 0
M  V30 8612 C 790.768 5.07054 -1.69706 0
M  V30 8613 C 792.068 3.86064 -3.51783 0
M  V30 8614 H 793.762 2.01622 -2.21334 0
M  V30 8615 H 791.308 0.96866 -1.0655 0
M  V30 8616 H 793.261 4.10402 -0.956474 0
M  V30 8617 H 791.985 3.26577 -0.0390956 0
M  V30 8618 H 790.644 2.96876 -2.15082 0
M  V30 8619 H 790.292 4.9801 -0.706737 0
M  V30 8620 H 789.992 5.35333 -2.42264 0
M  V30 8621 H 791.516 5.87827 -1.65202 0
M  V30 8622 H 792.93 4.54665 -3.49218 0
M  V30 8623 H 791.327 4.25787 -4.22878 0
M  V30 8624 H 792.397 2.88344 -3.89854 0
M  V30 8625 N 793.74 1.17359 1.05189 0
M  V30 8626 C 794.968 0.986529 1.81866 0
M  V30 8627 C 795.383 -0.46522 1.82979 0
M  V30 8628 O 794.74 -1.32305 1.25705 0
M  V30 8629 C 794.791 1.52021 3.27982 0
M  V30 8630 O 794.512 2.91511 3.27037 0
M  V30 8631 C 796.013 1.37774 4.21347 0
M  V30 8632 H 793.233 0.349021 0.573084 0
M  V30 8633 H 795.777 1.55648 1.32643 0
M  V30 8634 H 793.932 0.992287 3.74476 0
M  V30 8635 H 794.346 3.16178 4.18488 0
M  V30 8636 H 795.82 1.7993 5.21852 0
M  V30 8637 H 796.297 0.32483 4.37997 0
M  V30 8638 H 796.903 1.89583 3.80708 0
M  V30 8639 N 795.218 -1.23913 0.973828 0
M  V30 8640 C 796.165 -2.25132 0.508366 0
M  V30 8641 C 797.135 -1.59908 -0.449307 0
M  V30 8642 O 798.32 -1.87405 -0.358313 0
M  V30 8643 C 795.46 -3.4458 -0.189422 0
M  V30 8644 C 794.573 -4.24381 0.807738 0
M  V30 8645 C 793.708 -5.31131 0.0854315 0
M  V30 8646 C 792.747 -6.02635 1.07225 0
M  V30 8647 N 791.884 -7.01073 0.379535 0
M  V30 8648 H 796.724 -2.64313 1.37632 0
M  V30 8649 H 794.261 -1.29924 0.689802 0
M  V30 8650 H 796.219 -4.12706 -0.610733 0
M  V30 8651 H 794.849 -3.06218 -1.02129 0
M  V30 8652 H 793.901 -3.55735 1.34747 0
M  V30 8653 H 795.213 -4.73778 1.55998 0
M  V30 8654 H 794.367 -6.05422 -0.393572 0
M  V30 8655 H 793.106 -4.82658 -0.699461 0
M  V30 8656 H 792.111 -5.27143 1.56207 0
M  V30 8657 H 793.336 -6.53197 1.85769 0
M  V30 8658 H 791.282 -6.54862 -0.386269 0
M  V30 8659 H 791.199 -7.48382 1.07054 0
M  V30 8660 H 792.467 -7.79462 -0.0772984 0
M  V30 8661 N 796.696 -0.74468 -1.38897 0
M  V30 8662 C 797.643 -0.111064 -2.30533 0
M  V30 8663 C 798.613 0.719276 -1.49719 0
M  V30 8664 O 799.798 0.677244 -1.78376 0
M  V30 8665 C 796.938 0.78292 -3.36102 0
M  V30 8666 C 796.051 -0.0610817 -4.31957 0
M  V30 8667 C 795.186 0.835075 -5.24595 0
M  V30 8668 C 794.225 -0.0130974 -6.12099 0
M  V30 8669 N 793.362 0.839525 -6.97063 0
M  V30 8670 H 798.202 -0.898113 -2.84144 0
M  V30 8671 H 795.739 -0.454537 -1.39901 0
M  V30 8672 H 797.697 1.31578 -3.95908 0
M  V30 8673 H 796.327 1.53585 -2.83922 0
M  V30 8674 H 795.379 -0.711469 -3.73687 0
M  V30 8675 H 796.691 -0.716482 -4.93627 0
M  V30 8676 H 795.845 1.43542 -5.89475 0
M  V30 8677 H 794.584 1.52423 -4.63269 0
M  V30 8678 H 793.589 -0.626179 -5.46223 0
M  V30 8679 H 794.814 -0.699181 -6.75491 0
M  V30 8680 H 792.76 1.5138 -6.38295 0
M  V30 8681 H 792.677 0.240823 -7.55616 0
M  V30 8682 H 793.945 1.42513 -7.66362 0
M  V30 8683 N 798.174 1.49689 -0.493057 0
M  V30 8684 C 799.399 2.07331 0.0535114 0
M  V30 8685 C 799.824 1.35196 1.30781 0
M  V30 8686 O 799.182 0.406246 1.7669 0
M  V30 8687 C 799.23 3.59364 0.29825 0
M  V30 8688 O 798.334 3.88819 1.37454 0
M  V30 8689 H 797.675 0.663612 -0.0227018 0
M  V30 8690 H 800.205 1.926 -0.690402 0
M  V30 8691 H 800.215 4.04515 0.532159 0
M  V30 8692 H 798.89 4.1128 -0.618207 0
M  V30 8693 H 797.467 3.55487 1.12621 0
M  V30 8694 N 799.652 0.226554 1.55963 0
M  V30 8695 C 800.9 -0.402991 1.98041 0
M  V30 8696 C 801.221 -1.59938 1.11557 0
M  V30 8697 O 800.491 -1.9494 0.193719 0
M  V30 8698 H 799.071 -0.15188 0.731397 0
M  V30 8699 H 801.733 0.320613 1.92245 0
M  V30 8700 H 800.829 -0.725937 3.0354 0
M  V30 8701 N 801.13 -1.57531 -0.0467866 0
M  V30 8702 C 802.376 -1.8873 -0.742218 0
M  V30 8703 C 802.709 -0.822084 -1.75941 0
M  V30 8704 O 801.984 0.164922 -1.938 0
M  V30 8705 C 802.267 -3.30586 -1.42776 0
M  V30 8706 C 802.12 -4.47785 -0.425285 0
M  V30 8707 C 803.439 -3.71068 -2.36636 0
M  V30 8708 H 800.558 -0.686406 -0.268359 0
M  V30 8709 H 803.2 -1.89999 -0.00511341 0
M  V30 8710 H 801.35 -3.29634 -2.05605 0
M  V30 8711 H 803.022 -4.60867 0.199721 0
M  V30 8712 H 801.265 -4.33037 0.25713 0
M  V30 8713 H 801.936 -5.43884 -0.943086 0
M  V30 8714 H 804.412 -3.73273 -1.83866 0
M  V30 8715 H 803.288 -4.71165 -2.81593 0
M  V30 8716 H 803.549 -3.02355 -3.22542 0
M  V30 8717 N 802.608 0.318715 -1.54344 0
M  V30 8718 C 803.854 1.05765 -1.73037 0
M  V30 8719 C 804.187 1.87514 -0.505181 0
M  V30 8720 O 803.462 1.88021 0.497838 0
M  V30 8721 C 803.745 1.97836 -3.00887 0
M  V30 8722 C 803.598 1.19384 -4.33668 0
M  V30 8723 C 804.917 2.97285 -3.24514 0
M  V30 8724 H 802.036 0.383104 -0.629603 0
M  V30 8725 H 804.678 0.333864 -1.87044 0
M  V30 8726 H 802.828 2.59552 -2.89076 0
M  V30 8727 H 804.5 0.600906 -4.57369 0
M  V30 8728 H 802.743 0.496198 -4.30953 0
M  V30 8729 H 803.414 1.87014 -5.19355 0
M  V30 8730 H 805.89 2.45693 -3.35819 0
M  V30 8731 H 804.766 3.58887 -4.15321 0
M  V30 8732 H 805.027 3.70003 -2.41971 0
M  V30 8733 N 804.086 1.46499 0.581025 0
M  V30 8734 C 805.016 1.60052 1.70017 0
M  V30 8735 C 805.997 0.450788 1.64018 0
M  V30 8736 O 807.182 0.677237 1.82009 0
M  V30 8737 C 804.312 1.5921 3.08658 0
M  V30 8738 C 803.266 2.73169 3.29488 0
M  V30 8739 C 802.592 2.57389 4.68674 0
M  V30 8740 C 803.892 4.14978 3.1716 0
M  V30 8741 H 805.586 2.53735 1.5893 0
M  V30 8742 H 803.132 1.22113 0.763173 0
M  V30 8743 H 805.085 1.67285 3.86773 0
M  V30 8744 H 803.809 0.620718 3.20647 0
M  V30 8745 H 802.468 2.64566 2.53773 0
M  V30 8746 H 802.116 1.58331 4.77431 0
M  V30 8747 H 801.816 3.33826 4.83564 0
M  V30 8748 H 803.34 2.67358 5.48956 0
M  V30 8749 H 804.754 4.24684 3.85119 0
M  V30 8750 H 803.151 4.92016 3.4357 0
M  V30 8751 H 804.221 4.35016 2.14218 0
M  V30 8752 N 805.565 -0.825799 1.34232 0
M  V30 8753 C 806.515 -1.92533 1.22128 0
M  V30 8754 C 807.499 -1.60444 0.121002 0
M  V30 8755 O 808.691 -1.73497 0.350385 0
M  V30 8756 C 805.82 -3.29134 0.975995 0
M  V30 8757 C 804.906 -3.6735 2.11931 0
M  V30 8758 N 805.297 -3.77154 3.37029 0
M  V30 8759 C 803.595 -3.97179 2.02891 0
M  V30 8760 C 804.296 -4.10552 4.12095 0
M  V30 8761 N 803.272 -4.23619 3.40658 0
M  V30 8762 H 807.074 -1.98287 2.16932 0
M  V30 8763 H 804.588 -1.01929 1.26429 0
M  V30 8764 H 806.585 -4.07717 0.870187 0
M  V30 8765 H 805.245 -3.24679 0.036606 0
M  V30 8766 H 806.256 -3.60723 3.71618 0
M  V30 8767 H 802.933 -4.00861 1.16692 0
M  V30 8768 H 804.323 -4.25365 5.2011 0
M  V30 8769 N 807.043 -1.17915 -1.04565 0
M  V30 8770 C 808.459 -0.927761 -1.29864 0
M  V30 8771 C 808.659 0.409536 -1.97294 0
M  V30 8772 O 807.715 1.14505 -2.25044 0
M  V30 8773 C 809.028 -2.08967 -2.16225 0
M  V30 8774 C 810.576 -2.12741 -2.29587 0
M  V30 8775 C 811.051 -3.28335 -3.19312 0
M  V30 8776 N 812.542 -3.28164 -3.26898 0
M  V30 8777 C 813.277 -4.14249 -3.96466 0
M  V30 8778 N 812.773 -5.10457 -4.68407 0
M  V30 8779 N 814.566 -4.02179 -3.92694 0
M  V30 8780 H 806.717 -2.03983 -0.592011 0
M  V30 8781 H 808.98 -0.891023 -0.323701 0
M  V30 8782 H 808.686 -3.05654 -1.73979 0
M  V30 8783 H 808.56 -2.04606 -3.16885 0
M  V30 8784 H 810.947 -1.16636 -2.71072 0
M  V30 8785 H 811.028 -2.21162 -1.28535 0
M  V30 8786 H 810.672 -4.2471 -2.78539 0
M  V30 8787 H 810.602 -3.17151 -4.20384 0
M  V30 8788 H 813.093 -2.58511 -2.75646 0
M  V30 8789 H 813.406 -5.72526 -5.1907 0
M  V30 8790 H 811.751 -5.14422 -4.67328 0
M  V30 8791 H 814.942 -3.26308 -3.3562 0
M  V30 8792 H 815.115 -4.69486 -4.4664 0
M  V30 8793 N 808.521 1.23394 -0.980386 0
M  V30 8794 C 809.484 2.23092 -0.525619 0
M  V30 8795 C 810.484 1.56129 0.384745 0
M  V30 8796 O 811.674 1.73284 0.178439 0
M  V30 8797 C 808.806 3.40074 0.23712 0
M  V30 8798 H 809.999 2.64839 -1.40714 0
M  V30 8799 H 807.552 1.36227 -0.766275 0
M  V30 8800 H 808.287 3.03783 1.13518 0
M  V30 8801 H 808.072 3.89883 -0.416356 0
M  V30 8802 H 809.562 4.14043 0.543892 0
M  V30 8803 N 809.999 0.752036 1.385 0
M  V30 8804 C 811.245 0.307958 2.00448 0
M  V30 8805 C 811.578 -1.10702 1.59558 0
M  V30 8806 O 810.853 -1.75788 0.832391 0
M  V30 8807 C 811.136 0.429092 3.57534 0
M  V30 8808 C 810.989 1.88507 4.08393 0
M  V30 8809 C 812.308 -0.178442 4.39738 0
M  V30 8810 H 809.427 0.113373 0.728228 0
M  V30 8811 H 812.069 0.951389 1.64465 0
M  V30 8812 H 810.219 -0.118695 3.88319 0
M  V30 8813 H 811.891 2.49104 3.88259 0
M  V30 8814 H 810.134 2.40066 3.61318 0
M  V30 8815 H 810.805 1.92099 5.17496 0
M  V30 8816 H 813.281 0.28872 4.15097 0
M  V30 8817 H 812.157 -0.0634349 5.48863 0
M  V30 8818 H 812.418 -1.26655 4.23569 0
M  V30 8819 N 811.477 -1.49425 0.500989 0
M  V30 8820 C 812.888 -1.86624 0.0532011 0
M  V30 8821 C 813.239 -1.41331 -1.36088 0
M  V30 8822 O 812.364 -0.791195 -2.01418 0
M  V30 8823 C 812.959 -3.38681 0.0897693 0
M  V30 8824 C 811.518 -3.75181 -0.302677 0
M  V30 8825 C 810.665 -2.73419 0.462307 0
M  V30 8826 H 813.616 -1.41743 0.713773 0
M  V30 8827 H 813.637 -3.73902 -0.705528 0
M  V30 8828 H 813.149 -3.71616 1.11907 0
M  V30 8829 H 811.25 -3.47855 -1.33521 0
M  V30 8830 H 811.363 -4.79097 0.0167653 0
M  V30 8831 H 809.727 -2.54548 -0.0878557 0
M  V30 8832 H 810.51 -3.09198 1.49169 0
M  V30 8833 N 812.955 -0.234822 -1.55841 0
M  V30 8834 C 813.902 0.6698 -2.20867 0
M  V30 8835 C 814.872 1.18042 -1.16856 0
M  V30 8836 O 816.057 1.23709 -1.45261 0
M  V30 8837 C 813.197 1.86646 -2.90271 0
M  V30 8838 C 812.31 1.39351 -4.08908 0
M  V30 8839 C 811.445 2.54878 -4.66059 0
M  V30 8840 C 810.484 2.04384 -5.76969 0
M  V30 8841 N 809.621 3.13233 -6.28355 0
M  V30 8842 H 814.461 0.10858 -2.97802 0
M  V30 8843 H 811.998 0.041836 -1.4704 0
M  V30 8844 H 813.956 2.56926 -3.28702 0
M  V30 8845 H 812.586 2.40035 -2.15831 0
M  V30 8846 H 811.638 0.585173 -3.75872 0
M  V30 8847 H 812.95 0.983356 -4.89011 0
M  V30 8848 H 812.104 3.33219 -5.07001 0
M  V30 8849 H 810.843 2.99188 -3.85146 0
M  V30 8850 H 809.848 1.24509 -5.35516 0
M  V30 8851 H 811.073 1.61057 -6.59725 0
M  V30 8852 H 809.019 3.57 -5.50352 0
M  V30 8853 H 808.936 2.76511 -7.03618 0
M  V30 8854 H 810.204 3.91669 -6.73955 0
M  V30 8855 N 814.433 1.57553 0.0384317 0
M  V30 8856 C 815.71 1.79977 0.766002 0
M  V30 8857 C 816.09 0.830625 1.94072 0
M  V30 8858 O 815.438 -0.129243 2.28134 0
M  V30 8859 C 815.648 3.27434 1.20781 0
M  V30 8860 C 816.996 3.92167 1.62758 0
M  V30 8861 O 818.02 3.31527 1.30263 0
M  V30 8862 O 816.879 4.98917 2.23035 0
M  V30 8863 H 813.973 0.739787 0.369654 0
M  V30 8864 H 816.519 1.69693 0.0159312 0
M  V30 8865 H 815.291 3.89558 0.368792 0
M  V30 8866 H 814.914 3.42571 2.01819 0
M  V30 8867 N 815.911 -0.310526 1.54511 0
M  V30 8868 C 816.858 -1.38264 1.84802 0
M  V30 8869 C 817.828 -1.50808 0.696141 0
M  V30 8870 O 819.013 -1.6582 0.943846 0
M  V30 8871 C 816.153 -2.74422 2.09252 0
M  V30 8872 C 815.266 -2.70405 3.36906 0
M  V30 8873 C 814.401 -3.98495 3.51248 0
M  V30 8874 C 813.44 -3.88836 4.72729 0
M  V30 8875 N 812.577 -5.08683 4.83928 0
M  V30 8876 H 817.417 -1.11732 2.76261 0
M  V30 8877 H 814.954 -0.540609 1.36806 0
M  V30 8878 H 816.912 -3.53593 2.21422 0
M  V30 8879 H 815.542 -2.99235 1.2107 0
M  V30 8880 H 814.594 -1.83151 3.33406 0
M  V30 8881 H 815.906 -2.59155 4.26193 0
M  V30 8882 H 815.06 -4.861 3.63031 0
M  V30 8883 H 813.799 -4.12567 2.60077 0
M  V30 8884 H 812.804 -2.99615 4.60989 0
M  V30 8885 H 814.029 -3.76318 5.65298 0
M  V30 8886 H 811.975 -5.23236 3.95677 0
M  V30 8887 H 811.892 -4.99819 5.67201 0
M  V30 8888 H 813.16 -5.97966 5.00057 0
M  V30 8889 N 817.389 -1.46805 -0.573248 0
M  V30 8890 C 818.635 -1.53816 -1.33088 0
M  V30 8891 C 818.99 -0.191162 -1.91448 0
M  V30 8892 O 818.283 0.801299 -1.7404 0
M  V30 8893 C 818.477 -2.58001 -2.47326 0
M  V30 8894 C 818.306 -4.027 -2.00157 0
M  V30 8895 C 817.076 -4.70319 -1.84737 0
M  V30 8896 C 819.274 -4.90211 -1.55557 0
M  V30 8897 N 817.256 -5.99598 -1.31739 0
M  V30 8898 C 818.627 -6.09389 -1.14215 0
M  V30 8899 C 820.682 -4.76784 -1.43461 0
M  V30 8900 C 819.385 -7.16625 -0.619809 0
M  V30 8901 C 821.411 -5.84101 -0.926297 0
M  V30 8902 C 820.773 -7.02458 -0.522715 0
M  V30 8903 H 816.872 -0.617642 -0.479627 0
M  V30 8904 H 819.456 -1.83471 -0.65164 0
M  V30 8905 H 817.627 -2.3024 -3.128 0
M  V30 8906 H 819.359 -2.54951 -3.14296 0
M  V30 8907 H 816.114 -4.25982 -2.06969 0
M  V30 8908 H 816.538 -6.68431 -1.07374 0
M  V30 8909 H 821.18 -3.85661 -1.73279 0
M  V30 8910 H 818.898 -8.07508 -0.309228 0
M  V30 8911 H 822.484 -5.75755 -0.836485 0
M  V30 8912 H 821.364 -7.84083 -0.135467 0
M  V30 8913 N 818.867 0.818669 -1.34668 0
M  V30 8914 C 820.113 1.57746 -1.27453 0
M  V30 8915 C 820.446 1.93588 0.154077 0
M  V30 8916 O 819.721 1.60371 1.10051 0
M  V30 8917 C 820.004 2.87414 -2.16945 0
M  V30 8918 C 819.857 2.58125 -3.68363 0
M  V30 8919 C 821.176 3.89021 -2.05792 0
M  V30 8920 H 818.295 0.572339 -0.464324 0
M  V30 8921 H 820.937 0.942784 -1.64959 0
M  V30 8922 H 819.087 3.41576 -1.85089 0
M  V30 8923 H 820.759 2.10239 -4.10606 0
M  V30 8924 H 819.002 1.91503 -3.89242 0
M  V30 8925 H 819.673 3.5061 -4.26353 0
M  V30 8926 H 822.149 3.44224 -2.33771 0
M  V30 8927 H 821.025 4.77548 -2.70628 0
M  V30 8928 H 821.286 4.29786 -1.03618 0
M  V30 8929 N 820.346 1.18468 1.03938 0
M  V30 8930 C 821.276 0.936389 2.13902 0
M  V30 8931 C 822.257 -0.126381 1.6963 0
M  V30 8932 O 823.442 0.0264757 1.94182 0
M  V30 8933 C 820.572 0.462729 3.44204 0
M  V30 8934 C 819.526 1.46613 4.02105 0
M  V30 8935 C 818.852 0.84994 5.27902 0
M  V30 8936 C 820.152 2.84323 4.3813 0
M  V30 8937 H 821.846 1.85602 2.3493 0
M  V30 8938 H 819.392 0.893806 1.12903 0
M  V30 8939 H 821.345 0.276382 4.20493 0
M  V30 8940 H 820.069 -0.492477 3.22866 0
M  V30 8941 H 818.728 1.63944 3.27899 0
M  V30 8942 H 818.376 -0.112493 5.02874 0
M  V30 8943 H 818.076 1.51988 5.67603 0
M  V30 8944 H 819.6 0.674152 6.06867 0
M  V30 8945 H 821.014 2.70636 5.054 0
M  V30 8946 H 819.411 3.48012 4.88884 0
M  V30 8947 H 820.481 3.37776 3.47901 0
M  V30 8948 N 821.824 -1.22873 0.986916 0
M  V30 8949 C 822.772 -2.26597 0.525043 0
M  V30 8950 C 823.766 -1.64079 -0.421252 0
M  V30 8951 O 824.972 -1.77576 -0.294429 0
M  V30 8952 H 821.347 -0.736606 0.151381 0
M  V30 8953 H 823.318 -2.62909 1.41142 0
M  V30 8954 C 822.067 -3.47374 -0.150542 0
M  V30 8955 H 821.39 -3.95737 0.568541 0
M  V30 8956 H 822.83 -4.21739 -0.437256 0
M  V30 8957 C 821.289 -3.07163 -1.38392 0
M  V30 8958 O 821.819 -3.16028 -2.47971 0
M  V30 8959 N 820.025 -2.62009 -1.25697 0
M  V30 8960 H 819.572 -2.54996 -0.365355 0
M  V30 8961 H 819.53 -2.35472 -2.08327 0
M  V30 8962 N 823.302 -0.75937 -1.38099 0
M  V30 8963 C 824.252 -0.111098 -2.27729 0
M  V30 8964 C 825.236 0.687161 -1.45489 0
M  V30 8965 O 826.428 0.552167 -1.68167 0
M  V30 8966 C 823.557 0.776809 -3.34396 0
M  V30 8967 C 822.643 -0.0286108 -4.2409 0
M  V30 8968 N 823.034 -1.06797 -4.94397 0
M  V30 8969 C 821.332 0.197307 -4.45563 0
M  V30 8970 C 822.033 -1.55576 -5.6051 0
M  V30 8971 N 821.009 -0.870059 -5.36592 0
M  V30 8972 H 824.811 -0.907047 -2.79553 0
M  V30 8973 H 822.325 -0.595954 -1.5107 0
M  V30 8974 H 824.322 1.25691 -3.97502 0
M  V30 8975 H 822.982 1.57164 -2.84129 0
M  V30 8976 H 823.993 -1.44988 -4.97191 0
M  V30 8977 H 820.67 0.965028 -4.06194 0
M  V30 8978 H 822.06 -2.42184 -6.26735 0
M  V30 8979 N 824.78 1.49157 -0.508906 0
M  V30 8980 C 825.69 2.33045 0.269656 0
M  V30 8981 C 826.706 1.45143 0.959662 0
M  V30 8982 O 827.882 1.78155 0.939295 0
M  V30 8983 C 824.947 3.20772 1.31554 0
M  V30 8984 C 824.008 4.24531 0.638131 0
M  V30 8985 C 823.241 5.08065 1.63418 0
M  V30 8986 O 823.464 4.93238 2.86483 0
M  V30 8987 O 822.398 5.90117 1.18516 0
M  V30 8988 H 826.224 3.00821 -0.417183 0
M  V30 8989 H 823.809 1.46938 -0.270119 0
M  V30 8990 H 825.691 3.75095 1.92047 0
M  V30 8991 H 824.366 2.55681 1.98516 0
M  V30 8992 H 823.273 3.74099 -0.00674357 0
M  V30 8993 H 824.606 4.92199 0.0108155 0
M  V30 8994 N 826.258 0.243083 1.55714 0
M  V30 8995 C 827.535 -0.432851 1.90751 0
M  V30 8996 C 827.915 -1.76153 1.16333 0
M  V30 8997 O 827.263 -2.26783 0.279565 0
M  V30 8998 C 827.473 -0.604685 3.43722 0
M  V30 8999 C 828.821 -0.90231 4.14902 0
M  V30 9000 O 829.845 -0.690689 3.49439 0
M  V30 9001 O 828.704 -1.3051 5.30688 0
M  V30 9002 H 825.798 -0.231835 0.79384 0
M  V30 9003 H 828.344 0.286867 1.67258 0
M  V30 9004 H 827.116 0.331655 3.89892 0
M  V30 9005 H 826.739 -1.37509 3.73065 0
M  V30 9006 N 827.736 -1.57571 -0.0300757 0
M  V30 9007 C 828.666 -2.0953 -1.03051 0
M  V30 9008 C 829.647 -0.99761 -1.37774 0
M  V30 9009 O 830.832 -1.27279 -1.46676 0
M  V30 9010 C 827.962 -2.57385 -2.33174 0
M  V30 9011 C 826.916 -3.71409 -2.12696 0
M  V30 9012 C 826.242 -4.05467 -3.4857 0
M  V30 9013 C 827.542 -4.99877 -1.51396 0
M  V30 9014 H 829.236 -2.93367 -0.597999 0
M  V30 9015 H 826.782 -1.41127 -0.286203 0
M  V30 9016 H 828.735 -2.92355 -3.03491 0
M  V30 9017 H 827.459 -1.70629 -2.78484 0
M  V30 9018 H 826.118 -3.36786 -1.44813 0
M  V30 9019 H 825.766 -3.15779 -3.91526 0
M  V30 9020 H 825.466 -4.82269 -3.35694 0
M  V30 9021 H 826.99 -4.4297 -4.2025 0
M  V30 9022 H 828.404 -5.3281 -2.11629 0
M  V30 9023 H 826.801 -5.81283 -1.49098 0
M  V30 9024 H 827.871 -4.82522 -0.479676 0
M  V30 9025 N 829.214 0.302327 -1.54673 0
M  V30 9026 C 830.46 1.03924 -1.74149 0
M  V30 9027 C 830.793 1.86968 -0.525041 0
M  V30 9028 O 830.068 1.88538 0.477868 0
M  V30 9029 C 830.351 1.94633 -3.02969 0
M  V30 9030 C 830.204 1.14778 -4.34909 0
M  V30 9031 C 831.523 2.93826 -3.27649 0
M  V30 9032 H 828.642 0.376405 -0.633631 0
M  V30 9033 H 831.284 0.314007 -1.87387 0
M  V30 9034 H 829.434 2.56471 -2.91813 0
M  V30 9035 H 831.106 0.552363 -4.57981 0
M  V30 9036 H 829.349 0.450462 -4.31455 0
M  V30 9037 H 830.02 1.81495 -5.21309 0
M  V30 9038 H 832.496 2.42117 -3.38406 0
M  V30 9039 H 831.372 3.54462 -4.19104 0
M  V30 9040 H 831.633 3.67416 -2.45882 0
M  V30 9041 N 830.692 1.47107 0.565454 0
M  V30 9042 C 831.622 1.61846 1.68309 0
M  V30 9043 C 832.603 0.468159 1.63531 0
M  V30 9044 O 833.788 0.696504 1.8128 0
M  V30 9045 C 830.918 1.62474 3.06952 0
M  V30 9046 C 829.872 2.76649 3.26572 0
M  V30 9047 C 829.198 2.62345 4.65917 0
M  V30 9048 C 830.498 4.18319 3.12741 0
M  V30 9049 H 832.192 2.55407 1.5623 0
M  V30 9050 H 829.738 1.22916 0.750179 0
M  V30 9051 H 831.691 1.71378 3.84977 0
M  V30 9052 H 830.415 0.654692 3.19971 0
M  V30 9053 H 829.074 2.67242 2.50952 0
M  V30 9054 H 828.722 1.63386 4.75725 0
M  V30 9055 H 828.422 3.38936 4.79996 0
M  V30 9056 H 829.946 2.73165 5.46089 0
M  V30 9057 H 831.36 4.28745 3.80593 0
M  V30 9058 H 829.757 4.95632 3.38333 0
M  V30 9059 H 830.827 4.37263 2.09592 0
M  V30 9060 N 832.17 -0.811516 1.35101 0
M  V30 9061 C 833.418 -1.56525 1.27845 0
M  V30 9062 C 833.739 -1.94435 -0.14829 0
M  V30 9063 O 833.009 -1.63203 -1.08359 0
M  V30 9064 H 831.589 -0.580433 0.47022 0
M  V30 9065 H 834.251 -0.968277 1.69146 0
M  V30 9066 H 833.347 -2.48291 1.89097 0
M  V30 9067 N 833.648 -1.19017 -1.03309 0
M  V30 9068 C 834.558 -0.939303 -2.14975 0
M  V30 9069 C 835.574 0.0992359 -1.73717 0
M  V30 9070 O 836.75 -0.0844362 -2.01223 0
M  V30 9071 C 833.815 -0.476712 -3.43407 0
M  V30 9072 C 832.876 -1.58413 -3.99003 0
M  V30 9073 C 832.109 -1.14352 -5.21305 0
M  V30 9074 O 832.332 -0.00534408 -5.704 0
M  V30 9075 O 831.266 -1.94436 -5.6963 0
M  V30 9076 H 835.092 -1.87386 -2.38998 0
M  V30 9077 H 832.677 -0.972635 -1.13403 0
M  V30 9078 H 834.559 -0.22718 -4.20787 0
M  V30 9079 H 833.234 0.429455 -3.20839 0
M  V30 9080 H 832.141 -1.88777 -3.22977 0
M  V30 9081 H 833.474 -2.4667 -4.25928 0
M  V30 9082 N 835.127 1.22348 -0.993418 0
M  V30 9083 C 836.059 2.23626 -0.502404 0
M  V30 9084 C 837.072 1.57739 0.402784 0
M  V30 9085 O 838.261 1.77321 0.204835 0
M  V30 9086 C 835.361 3.37647 0.291118 0
M  V30 9087 C 834.534 4.33121 -0.610332 0
M  V30 9088 C 833.593 5.26035 0.131572 0
M  V30 9089 O 832.619 5.67145 -0.483199 0
M  V30 9090 N 833.821 5.63023 1.41371 0
M  V30 9091 H 836.586 2.66385 -1.37329 0
M  V30 9092 H 834.147 1.36653 -0.868196 0
M  V30 9093 H 836.139 3.96792 0.796107 0
M  V30 9094 H 834.709 2.93967 1.0631 0
M  V30 9095 H 833.929 3.72287 -1.29598 0
M  V30 9096 H 835.217 4.93853 -1.22422 0
M  V30 9097 H 834.615 5.31596 1.93449 0
M  V30 9098 H 833.172 6.24582 1.86388 0
M  V30 9099 N 836.605 0.766683 1.37694 0
M  V30 9100 C 837.854 0.325425 1.99057 0
M  V30 9101 C 838.167 -1.10275 1.61551 0
M  V30 9102 O 839.373 -1.64513 2.1598 0
M  V30 9103 C 837.829 0.530886 3.55963 0
M  V30 9104 C 837.437 1.96899 4.02411 0
M  V30 9105 C 839.181 0.152997 4.24224 0
M  V30 9106 C 837.088 2.12232 5.52007 0
M  V30 9107 H 836.018 0.117929 0.744721 0
M  V30 9108 H 838.669 0.945091 1.5729 0
M  V30 9109 H 837.051 -0.158162 3.95684 0
M  V30 9110 H 838.225 2.69258 3.73948 0
M  V30 9111 H 836.54 2.303 3.46916 0
M  V30 9112 H 839.137 0.24614 5.34133 0
M  V30 9113 H 839.48 -0.896096 4.06541 0
M  V30 9114 H 840.013 0.794398 3.89787 0
M  V30 9115 H 836.752 3.15442 5.7461 0
M  V30 9116 H 836.272 1.4435 5.82171 0
M  V30 9117 H 837.951 1.9185 6.17902 0
M  V30 9118 N 838.083 -1.48885 0.516809 0
M  V30 9119 C 839.331 -2.02088 -0.0220166 0
M  V30 9120 C 839.652 -1.39735 -1.36011 0
M  V30 9121 O 838.922 -0.558119 -1.87781 0
M  V30 9122 H 837.502 -0.746917 -0.0111255 0
M  V30 9123 H 840.164 -1.8274 0.677647 0
M  V30 9124 H 839.26 -3.11786 -0.140067 0
M  V30 9125 N 839.561 -0.251338 -1.55583 0
M  V30 9126 C 840.977 0.103409 -1.59265 0
M  V30 9127 C 841.177 1.56559 -1.26852 0
M  V30 9128 O 840.233 2.31071 -1.01796 0
M  V30 9129 C 841.546 -0.249781 -2.99661 0
M  V30 9130 C 843.094 -0.194442 -3.12395 0
M  V30 9131 C 843.569 -0.521728 -4.55019 0
M  V30 9132 N 845.06 -0.472393 -4.60785 0
M  V30 9133 C 845.795 -0.698737 -5.69127 0
M  V30 9134 N 845.291 -0.988443 -6.85713 0
M  V30 9135 N 847.084 -0.629143 -5.58568 0
M  V30 9136 H 839.235 -1.20484 -1.74921 0
M  V30 9137 H 841.498 -0.485092 -0.814488 0
M  V30 9138 H 841.204 -1.26577 -3.28133 0
M  V30 9139 H 841.078 0.420973 -3.74844 0
M  V30 9140 H 843.465 0.812229 -2.83702 0
M  V30 9141 H 843.546 -0.899111 -2.39478 0
M  V30 9142 H 843.19 -1.52597 -4.84434 0
M  V30 9143 H 843.12 0.204468 -5.26203 0
M  V30 9144 H 845.611 -0.257386 -3.77022 0
M  V30 9145 H 845.924 -1.14846 -7.64219 0
M  V30 9146 H 844.269 -1.02596 -6.87386 0
M  V30 9147 H 847.46 -0.402826 -4.66364 0
M  V30 9148 H 847.633 -0.808935 -6.42931 0
M  V30 9149 N 841.039 1.57585 0.0217189 0
M  V30 9150 C 842.287 1.89231 0.709641 0
M  V30 9151 C 842.608 0.849964 1.75501 0
M  V30 9152 O 841.878 -0.115485 1.95559 0
M  V30 9153 H 840.458 0.69838 0.265092 0
M  V30 9154 H 843.12 1.94895 -0.0140688 0
M  V30 9155 H 842.216 2.88333 1.19459 0
M  V30 9156 N 842.517 -0.29412 1.54831 0
M  V30 9157 C 843.465 -1.38296 1.87021 0
M  V30 9158 C 844.459 -1.5216 0.744557 0
M  V30 9159 O 845.665 -1.54196 0.92864 0
M  V30 9160 H 842.04 -0.462088 0.593278 0
M  V30 9161 H 844.011 -1.08386 2.7802 0
M  V30 9162 C 842.76 -2.74024 2.14023 0
M  V30 9163 H 842.083 -2.6414 3.00117 0
M  V30 9164 H 843.523 -3.49205 2.40482 0
M  V30 9165 C 841.982 -3.23492 0.940982 0
M  V30 9166 O 842.512 -4.01361 0.164937 0
M  V30 9167 N 840.718 -2.80902 0.744467 0
M  V30 9168 H 840.265 -2.17694 1.37721 0
M  V30 9169 H 840.223 -3.14349 -0.0563652 0
M  V30 9170 N 843.995 -1.47404 -0.557645 0
M  V30 9171 C 845.242 -1.54007 -1.31484 0
M  V30 9172 C 845.57 -0.202162 -1.93447 0
M  V30 9173 O 844.825 0.804901 -1.78381 0
M  V30 9174 C 845.124 -2.6061 -2.44575 0
M  V30 9175 C 844.79 -4.03896 -2.00446 0
M  V30 9176 C 843.452 -4.42901 -1.88127 0
M  V30 9177 C 845.804 -4.93804 -1.66754 0
M  V30 9178 C 843.132 -5.6965 -1.40411 0
M  V30 9179 C 845.484 -6.21016 -1.20509 0
M  V30 9180 C 844.148 -6.58903 -1.06786 0
M  V30 9181 H 843.418 -0.563552 -0.481134 0
M  V30 9182 H 846.065 -1.81001 -0.625375 0
M  V30 9183 H 844.37 -2.27371 -3.19076 0
M  V30 9184 H 846.067 -2.62941 -3.02759 0
M  V30 9185 H 842.657 -3.73077 -2.10977 0
M  V30 9186 H 846.841 -4.64369 -1.75144 0
M  V30 9187 H 842.097 -5.97755 -1.2845 0
M  V30 9188 H 846.271 -6.90095 -0.935001 0
M  V30 9189 H 843.898 -7.57008 -0.695891 0
M  V30 9190 N 845.473 0.80434 -1.35529 0
M  V30 9191 C 846.721 1.55845 -1.28673 0
M  V30 9192 C 847.042 1.94511 0.137976 0
M  V30 9193 O 846.312 1.63775 1.07492 0
M  V30 9194 H 844.892 0.577931 -0.473291 0
M  V30 9195 H 847.554 0.959293 -1.69657 0
M  V30 9196 H 846.65 2.47285 -1.90411 0
M  V30 9197 N 846.951 1.19563 1.02676 0
M  V30 9198 C 847.861 0.950691 2.14474 0
M  V30 9199 C 848.877 -0.0900219 1.73767 0
M  V30 9200 O 850.053 0.0951063 2.01175 0
M  V30 9201 C 847.118 0.494917 3.43149 0
M  V30 9202 C 846.179 1.60527 3.98158 0
M  V30 9203 C 845.412 1.17115 5.20692 0
M  V30 9204 O 845.635 0.0355937 5.70389 0
M  V30 9205 O 844.569 1.97454 5.68591 0
M  V30 9206 H 848.395 1.88651 2.38001 0
M  V30 9207 H 845.98 0.978635 1.12885 0
M  V30 9208 H 847.862 0.249492 4.20661 0
M  V30 9209 H 846.537 -0.412434 3.21062 0
M  V30 9210 H 845.444 1.90487 3.21971 0
M  V30 9211 H 846.777 2.48925 4.24614 0
M  V30 9212 N 848.429 -1.21819 0.999893 0
M  V30 9213 C 849.675 -1.91035 0.680701 0
M  V30 9214 C 850.008 -1.77582 -0.786021 0
M  V30 9215 O 849.283 -1.14917 -1.56921 0
M  V30 9216 C 849.566 -3.43013 1.0961 0
M  V30 9217 C 849.419 -3.65481 2.6219 0
M  V30 9218 C 850.738 -4.35204 0.654616 0
M  V30 9219 H 847.857 -0.693748 0.248763 0
M  V30 9220 H 850.499 -1.43555 1.24466 0
M  V30 9221 H 848.649 -3.83581 0.616253 0
M  V30 9222 H 850.321 -3.34273 3.17899 0
M  V30 9223 H 848.564 -3.09522 3.03938 0
M  V30 9224 H 849.235 -4.71945 2.86307 0
M  V30 9225 H 851.711 -4.0219 1.06688 0
M  V30 9226 H 850.587 -5.40198 0.973492 0
M  V30 9227 H 850.848 -4.3986 -0.444458 0
M  V30 9228 N 849.908 -0.773975 -1.37286 0
M  V30 9229 C 851.155 -0.339306 -1.99637 0
M  V30 9230 C 851.483 1.08478 -1.61439 0
M  V30 9231 O 850.738 1.7612 -0.853252 0
M  V30 9232 C 851.037 -0.432651 -3.54772 0
M  V30 9233 C 850.703 -1.81531 -4.12744 0
M  V30 9234 C 849.365 -2.19366 -4.2829 0
M  V30 9235 C 851.717 -2.72137 -4.44512 0
M  V30 9236 C 849.045 -3.47239 -4.72908 0
M  V30 9237 C 851.397 -3.99421 -4.90556 0
M  V30 9238 C 850.061 -4.37298 -5.04308 0
M  V30 9239 H 849.331 -0.124161 -0.730524 0
M  V30 9240 H 851.978 -0.988432 -1.64019 0
M  V30 9241 H 850.283 0.30001 -3.9065 0
M  V30 9242 H 851.98 -0.0776 -4.00925 0
M  V30 9243 H 848.57 -1.51126 -4.01072 0
M  V30 9244 H 852.754 -2.44165 -4.32084 0
M  V30 9245 H 848.01 -3.76477 -4.81742 0
M  V30 9246 H 852.184 -4.69756 -5.14104 0
M  V30 9247 H 849.811 -5.36442 -5.38641 0
M  V30 9248 N 851.386 1.48609 -0.524698 0
M  V30 9249 C 852.611 2.07398 0.00952139 0
M  V30 9250 C 853.036 1.37939 1.27884 0
M  V30 9251 O 852.394 0.443633 1.75788 0
M  V30 9252 C 852.442 3.59916 0.221956 0
M  V30 9253 O 851.546 3.91647 1.29175 0
M  V30 9254 H 850.887 0.662981 -0.0367729 0
M  V30 9255 H 853.417 1.91092 -0.7311 0
M  V30 9256 H 853.427 4.05552 0.446236 0
M  V30 9257 H 852.102 4.09876 -0.705306 0
M  V30 9258 H 850.679 3.57796 1.05055 0
M  V30 9259 N 852.864 0.259585 1.55447 0
M  V30 9260 C 854.112 -0.360893 1.98852 0
M  V30 9261 C 854.433 -1.57535 1.14924 0
M  V30 9262 O 853.703 -1.94485 0.235025 0
M  V30 9263 H 852.283 -0.136332 0.734454 0
M  V30 9264 H 854.945 0.361319 1.91522 0
M  V30 9265 H 854.041 -0.661388 3.05012 0
M  V30 9266 N 854.342 -1.57594 -0.0133615 0
M  V30 9267 C 855.758 -1.5527 -0.369255 0
M  V30 9268 C 855.958 -0.987751 -1.7563 0
M  V30 9269 O 855.014 -0.615683 -2.44879 0
M  V30 9270 C 856.327 -2.99602 -0.25672 0
M  V30 9271 C 857.875 -3.11227 -0.332647 0
M  V30 9272 C 858.35 -4.57321 -0.249387 0
M  V30 9273 N 859.841 -4.62177 -0.3077 0
M  V30 9274 C 860.576 -5.72781 -0.26641 0
M  V30 9275 N 860.072 -6.92575 -0.176494 0
M  V30 9276 N 861.865 -5.61204 -0.317295 0
M  V30 9277 H 854.016 -1.92662 0.894154 0
M  V30 9278 H 856.279 -0.884352 0.341505 0
M  V30 9279 H 855.985 -3.44723 0.697072 0
M  V30 9280 H 855.859 -3.6246 -1.04415 0
M  V30 9281 H 858.246 -2.66045 -1.27688 0
M  V30 9282 H 858.327 -2.51171 0.484412 0
M  V30 9283 H 857.971 -5.03174 0.691242 0
M  V30 9284 H 857.901 -5.15306 -1.08476 0
M  V30 9285 H 860.392 -3.75994 -0.379069 0
M  V30 9286 H 860.705 -7.72653 -0.150518 0
M  V30 9287 H 859.05 -6.94854 -0.142314 0
M  V30 9288 H 862.241 -4.66509 -0.385643 0
M  V30 9289 H 862.414 -6.47388 -0.28165 0
M  V30 9290 N 855.82 0.285905 -1.54985 0
M  V30 9291 C 856.75 1.35752 -1.89983 0
M  V30 9292 C 857.731 1.52163 -0.760295 0
M  V30 9293 O 858.916 1.65421 -1.01733 0
M  V30 9294 C 856.046 2.71925 -2.16042 0
M  V30 9295 C 855 2.70261 -3.31878 0
M  V30 9296 C 854.326 4.09864 -3.43388 0
M  V30 9297 C 855.626 2.30667 -4.68604 0
M  V30 9298 H 857.32 1.06709 -2.79738 0
M  V30 9299 H 854.866 0.511884 -1.34595 0
M  V30 9300 H 856.819 3.46992 -2.39113 0
M  V30 9301 H 855.543 3.02523 -1.23074 0
M  V30 9302 H 854.202 1.97651 -3.08755 0
M  V30 9303 H 853.85 4.37664 -2.47909 0
M  V30 9304 H 853.55 4.09648 -4.21262 0
M  V30 9305 H 855.074 4.86689 -3.68736 0
M  V30 9306 H 856.488 2.95453 -4.91305 0
M  V30 9307 H 854.885 2.41637 -5.49301 0
M  V30 9308 H 855.955 1.25793 -4.68299 0
M  V30 9309 N 857.298 1.47698 0.54982 0
M  V30 9310 C 858.714 1.3338 0.876468 0
M  V30 9311 C 858.914 0.329837 1.98782 0
M  V30 9312 O 857.97 -0.256022 2.51199 0
M  V30 9313 C 859.283 2.72903 1.26272 0
M  V30 9314 C 860.831 2.81243 1.37373 0
M  V30 9315 C 861.306 4.21423 1.79351 0
M  V30 9316 N 862.797 4.24 1.86489 0
M  V30 9317 C 863.532 5.29386 2.20313 0
M  V30 9318 N 863.028 6.4507 2.527 0
M  V30 9319 N 864.821 5.16768 2.2115 0
M  V30 9320 H 856.972 2.11603 -0.183781 0
M  V30 9321 H 859.235 0.947798 -0.0195601 0
M  V30 9322 H 858.941 3.47836 0.519889 0
M  V30 9323 H 858.815 3.05151 2.21727 0
M  V30 9324 H 861.202 2.06577 2.10737 0
M  V30 9325 H 861.283 2.52639 0.400882 0
M  V30 9326 H 860.927 4.96597 1.06555 0
M  V30 9327 H 860.857 4.47456 2.77652 0
M  V30 9328 H 863.348 3.40547 1.63817 0
M  V30 9329 H 863.661 7.21236 2.77557 0
M  V30 9330 H 862.006 6.48377 2.50263 0
M  V30 9331 H 865.197 4.25416 1.95293 0
M  V30 9332 H 865.37 5.99004 2.4718 0
M  V30 9333 N 858.776 -0.797141 1.35954 0
M  V30 9334 C 859.739 -1.89104 1.29508 0
M  V30 9335 C 860.739 -1.59495 0.204444 0
M  V30 9336 O 861.929 -1.68051 0.458746 0
M  V30 9337 C 859.061 -3.25726 1.00576 0
M  V30 9338 H 860.254 -1.96237 2.26785 0
M  V30 9339 H 857.807 -0.994075 1.20614 0
M  V30 9340 H 858.542 -3.24279 0.0372519 0
M  V30 9341 H 858.327 -3.48604 1.79492 0
M  V30 9342 H 859.817 -4.0578 0.986508 0
M  V30 9343 N 860.254 -1.20106 -1.0204 0
M  V30 9344 C 861.531 -0.918029 -1.72718 0
M  V30 9345 C 861.911 0.574163 -2.03142 0
M  V30 9346 O 861.259 1.53476 -1.69285 0
M  V30 9347 C 861.469 -1.78698 -2.9978 0
M  V30 9348 C 862.817 -2.02648 -3.7312 0
M  V30 9349 O 863.841 -1.75919 -3.09727 0
M  V30 9350 O 862.7 -2.47767 -4.87107 0
M  V30 9351 H 859.794 -0.342904 -0.752559 0
M  V30 9352 H 862.34 -1.30961 -1.07923 0
M  V30 9353 H 861.112 -2.79757 -2.7359 0
M  V30 9354 H 860.735 -1.39522 -3.72316 0
M  V30 9355 N 861.732 1.21287 -1.00634 0
M  V30 9356 C 862.68 2.25733 -0.561026 0
M  V30 9357 C 863.674 1.64728 0.395095 0
M  V30 9358 O 864.88 1.78022 0.266141 0
M  V30 9359 H 861.255 0.734104 -0.163081 0
M  V30 9360 H 863.226 2.60631 -1.45307 0
M  V30 9361 C 861.975 3.47569 0.0952587 0
M  V30 9362 H 861.298 3.94782 -0.631427 0
M  V30 9363 H 862.738 4.22382 0.370105 0
M  V30 9364 C 861.197 3.09326 1.33488 0
M  V30 9365 O 861.727 3.19933 2.42912 0
M  V30 9366 N 859.933 2.63976 1.21512 0
M  V30 9367 H 859.48 2.55545 0.324741 0
M  V30 9368 H 859.438 2.38757 2.04555 0
M  V30 9369 N 863.21 0.781244 1.36873 0
M  V30 9370 C 864.438 0.361566 2.03716 0
M  V30 9371 C 864.853 -1.01937 1.58916 0
M  V30 9372 O 864.21 -1.65237 0.774783 0
M  V30 9373 C 864.261 0.406391 3.59208 0
M  V30 9374 O 863.982 1.73286 4.02372 0
M  V30 9375 C 865.483 -0.0236894 4.43294 0
M  V30 9376 H 862.703 0.150133 0.653988 0
M  V30 9377 H 865.247 1.05781 1.75016 0
M  V30 9378 H 863.402 -0.241364 3.86647 0
M  V30 9379 H 863.816 1.67804 4.96933 0
M  V30 9380 H 865.29 0.0588205 5.51969 0
M  V30 9381 H 865.767 -1.07529 4.25833 0
M  V30 9382 H 866.373 0.59624 4.211 0
M  V30 9383 N 864.689 -1.48329 0.532571 0
M  V30 9384 C 865.619 -2.32485 -0.217511 0
M  V30 9385 C 866.6 -1.42255 -0.932598 0
M  V30 9386 O 867.785 -1.7114 -0.917873 0
M  V30 9387 C 864.915 -3.23509 -1.26329 0
M  V30 9388 C 863.869 -4.22784 -0.666191 0
M  V30 9389 C 863.195 -5.0296 -1.81482 0
M  V30 9390 C 864.495 -5.21031 0.363813 0
M  V30 9391 H 866.189 -2.95445 0.485014 0
M  V30 9392 H 863.735 -1.42075 0.234694 0
M  V30 9393 H 865.688 -3.81211 -1.79601 0
M  V30 9394 H 864.412 -2.58554 -1.99543 0
M  V30 9395 H 863.071 -3.66272 -0.15498 0
M  V30 9396 H 862.719 -4.34427 -2.5354 0
M  V30 9397 H 862.419 -5.70154 -1.4212 0
M  V30 9398 H 863.943 -5.63514 -2.35126 0
M  V30 9399 H 865.357 -5.73241 -0.0819079 0
M  V30 9400 H 863.754 -5.96292 0.674956 0
M  V30 9401 H 864.824 -4.6801 1.26865 0
M  V30 9402 N 866.167 -0.267825 -1.55308 0
M  V30 9403 C 867.413 0.351556 -1.9973 0
M  V30 9404 C 867.746 1.56049 -1.15596 0
M  V30 9405 O 867.021 1.93203 -0.224274 0
M  V30 9406 C 867.304 0.74091 -3.52395 0
M  V30 9407 C 867.157 -0.474861 -4.47286 0
M  V30 9408 C 868.476 1.5801 -4.10756 0
M  V30 9409 H 865.595 0.126308 -0.726096 0
M  V30 9410 H 868.237 -0.373316 -1.86296 0
M  V30 9411 H 866.387 1.35851 -3.63973 0
M  V30 9412 H 868.059 -1.1134 -4.47662 0
M  V30 9413 H 866.302 -1.11425 -4.19246 0
M  V30 9414 H 866.973 -0.158782 -5.51772 0
M  V30 9415 H 869.449 1.05857 -4.0241 0
M  V30 9416 H 868.325 1.82135 -5.17801 0
M  V30 9417 H 868.586 2.55878 -3.60526 0
M  V30 9418 N 867.645 1.57599 0.00500368 0
M  V30 9419 C 868.608 2.07058 0.982832 0
M  V30 9420 C 869.608 0.979045 1.27559 0
M  V30 9421 O 870.798 1.24187 1.22161 0
M  V30 9422 C 867.93 2.50782 2.30914 0
M  V30 9423 H 869.123 2.94718 0.555119 0
M  V30 9424 H 866.676 1.54249 0.25237 0
M  V30 9425 H 867.411 1.66351 2.78385 0
M  V30 9426 H 867.196 3.30495 2.10987 0
M  V30 9427 H 868.686 2.89391 3.0107 0
M  V30 9428 N 869.123 -0.277682 1.55134 0
M  V30 9429 C 870.369 -1.0114 1.7578 0
M  V30 9430 C 870.702 -1.86109 0.554719 0
M  V30 9431 O 869.977 -1.89275 -0.447813 0
M  V30 9432 C 870.26 -1.89789 3.06027 0
M  V30 9433 C 870.113 -1.07844 4.3668 0
M  V30 9434 C 871.432 -2.88577 3.32282 0
M  V30 9435 H 868.551 -0.366277 0.639539 0
M  V30 9436 H 871.193 -0.284155 1.87863 0
M  V30 9437 H 869.343 -2.51796 2.95856 0
M  V30 9438 H 871.015 -0.479432 4.58802 0
M  V30 9439 H 869.258 -0.381764 4.32117 0
M  V30 9440 H 869.929 -1.73179 5.24131 0
M  V30 9441 H 872.405 -2.36702 3.42215 0
M  V30 9442 H 871.281 -3.47749 4.2469 0
M  V30 9443 H 871.542 -3.63458 2.51696 0
M  V30 9444 N 870.601 -1.47988 -0.541979 0
M  V30 9445 C 871.548 -1.61615 -1.6477 0
M  V30 9446 C 872.518 -0.458602 -1.59644 0
M  V30 9447 O 873.703 -0.680585 -1.78249 0
M  V30 9448 C 870.843 -1.65066 -3.03063 0
M  V30 9449 C 869.956 -2.91845 -3.18513 0
M  V30 9450 C 869.091 -2.86534 -4.47294 0
M  V30 9451 C 868.13 -4.0807 -4.5623 0
M  V30 9452 N 867.267 -4.00905 -5.76385 0
M  V30 9453 H 872.107 -2.56046 -1.52461 0
M  V30 9454 H 869.644 -1.26989 -0.742449 0
M  V30 9455 H 871.602 -1.65049 -3.83164 0
M  V30 9456 H 870.232 -0.74136 -3.14171 0
M  V30 9457 H 869.284 -3.01661 -2.31743 0
M  V30 9458 H 870.596 -3.81804 -3.20978 0
M  V30 9459 H 869.75 -2.84851 -5.35672 0
M  V30 9460 H 868.489 -1.94283 -4.47332 0
M  V30 9461 H 867.494 -4.10041 -3.66261 0
M  V30 9462 H 868.719 -5.01465 -4.5794 0
M  V30 9463 H 866.665 -3.11467 -5.77342 0
M  V30 9464 H 866.582 -4.84557 -5.80293 0
M  V30 9465 H 867.85 -4.03263 -6.67083 0
M  V30 9466 N 872.079 0.78992 -1.36375 0
M  V30 9467 C 873.304 1.58389 -1.33895 0
M  V30 9468 C 873.729 1.8794 0.0774934 0
M  V30 9469 O 873.087 1.4785 1.0493 0
M  V30 9470 C 873.135 2.88201 -2.16732 0
M  V30 9471 O 872.239 3.81778 -1.55946 0
M  V30 9472 H 871.58 0.480471 -0.458305 0
M  V30 9473 H 874.11 0.979119 -1.79651 0
M  V30 9474 H 874.12 3.37475 -2.29292 0
M  V30 9475 H 872.795 2.66019 -3.19698 0
M  V30 9476 H 871.372 3.40371 -1.52323 0
M  V30 9477 N 873.557 1.20646 1.01402 0
M  V30 9478 C 874.797 1.02951 1.7658 0
M  V30 9479 C 875.161 -0.430522 1.87111 0
M  V30 9480 O 876.362 -0.727727 2.58762 0
M  V30 9481 C 874.633 1.69728 3.14527 0
M  V30 9482 S 876.192 1.6717 4.05709 0
M  V30 9483 H 873.01 0.36911 0.607683 0
M  V30 9484 H 875.612 1.53243 1.21395 0
M  V30 9485 H 874.316 2.75162 3.0449 0
M  V30 9486 H 873.847 1.19578 3.74786 0
M  V30 9487 H 875.862 0.706397 4.91146 0
M  V30 9488 N 875.035 -1.20752 1.01276 0
M  V30 9489 C 876.451 -1.42084 0.726934 0
M  V30 9490 C 876.651 -1.89138 -0.694907 0
M  V30 9491 O 875.707 -2.05783 -1.4632 0
M  V30 9492 C 877.02 -2.44575 1.74938 0
M  V30 9493 C 878.568 -2.58347 1.76708 0
M  V30 9494 C 879.043 -3.64078 2.77869 0
M  V30 9495 N 880.534 -3.71558 2.76585 0
M  V30 9496 C 881.269 -4.53016 3.51517 0
M  V30 9497 N 880.765 -5.38309 4.36114 0
M  V30 9498 N 882.558 -4.47512 3.40132 0
M  V30 9499 H 874.709 -0.885228 1.93074 0
M  V30 9500 H 876.972 -0.451075 0.833808 0
M  V30 9501 H 876.678 -2.1699 2.76782 0
M  V30 9502 H 876.552 -3.43503 1.55838 0
M  V30 9503 H 878.939 -2.85265 0.755516 0
M  V30 9504 H 879.02 -1.59628 1.99882 0
M  V30 9505 H 878.664 -3.37905 3.79187 0
M  V30 9506 H 878.594 -4.62412 2.51958 0
M  V30 9507 H 881.085 -3.10629 2.15216 0
M  V30 9508 H 881.398 -5.9754 4.90068 0
M  V30 9509 H 879.743 -5.37824 4.40194 0
M  V30 9510 H 882.934 -3.79912 2.73467 0
M  V30 9511 H 883.107 -5.10759 3.98784 0
M  V30 9512 N 876.513 -0.788492 -1.36457 0
M  V30 9513 C 877.423 -0.187385 -2.3385 0
M  V30 9514 C 878.439 0.659984 -1.60998 0
M  V30 9515 O 879.615 0.575986 -1.92988 0
M  V30 9516 C 876.68 0.668525 -3.40194 0
M  V30 9517 C 875.741 -0.197234 -4.28847 0
M  V30 9518 C 874.974 0.61792 -5.30111 0
M  V30 9519 O 875.197 1.85396 -5.3943 0
M  V30 9520 O 874.131 0.0183016 -6.01897 0
M  V30 9521 H 877.957 -0.992617 -2.87021 0
M  V30 9522 H 875.542 -0.549934 -1.3891 0
M  V30 9523 H 877.424 1.15663 -4.05216 0
M  V30 9524 H 876.099 1.45166 -2.89324 0
M  V30 9525 H 875.006 -0.73207 -3.66867 0
M  V30 9526 H 876.339 -0.943863 -4.83065 0
M  V30 9527 N 877.991 1.48044 -0.54043 0
M  V30 9528 C 879.219 2.06895 -0.0145153 0
M  V30 9529 C 879.634 1.39552 1.27164 0
M  V30 9530 O 878.991 0.486454 1.75897 0
M  V30 9531 C 879.042 3.60934 0.202278 0
M  V30 9532 O 878.763 4.25749 -1.03293 0
M  V30 9533 C 880.264 4.36607 0.767387 0
M  V30 9534 H 877.484 0.66991 -0.0382368 0
M  V30 9535 H 880.028 1.90288 -0.749057 0
M  V30 9536 H 878.183 3.77111 0.886897 0
M  V30 9537 H 878.597 5.18048 -0.820167 0
M  V30 9538 H 880.071 5.45126 0.86845 0
M  V30 9539 H 880.548 4.01745 1.77477 0
M  V30 9540 H 881.154 4.25133 0.119002 0
M  V30 9541 N 879.47 0.276058 1.55163 0
M  V30 9542 C 880.4 -0.604633 2.25536 0
M  V30 9543 C 881.381 -1.15813 1.24585 0
M  V30 9544 O 882.566 -1.1921 1.53306 0
M  V30 9545 C 879.696 -1.78836 2.97716 0
M  V30 9546 C 878.65 -1.36635 4.05604 0
M  V30 9547 C 877.976 -2.63325 4.65364 0
M  V30 9548 C 879.276 -0.515858 5.19746 0
M  V30 9549 H 880.97 -0.0177483 2.99395 0
M  V30 9550 H 878.516 -0.00709627 1.43998 0
M  V30 9551 H 880.469 -2.41036 3.45658 0
M  V30 9552 H 879.193 -2.40109 2.21394 0
M  V30 9553 H 877.852 -0.767541 3.58475 0
M  V30 9554 H 877.5 -3.22858 3.85709 0
M  V30 9555 H 877.2 -2.358 5.38212 0
M  V30 9556 H 878.724 -3.26372 5.16056 0
M  V30 9557 H 880.138 -1.04289 5.63735 0
M  V30 9558 H 878.535 -0.335449 5.99162 0
M  V30 9559 H 879.605 0.465137 4.82664 0
M  V30 9560 N 880.948 -1.576 0.00335426 0
M  V30 9561 C 882.359 -1.7875 -0.539008 0
M  V30 9562 C 882.71 -0.911097 -1.73763 0
M  V30 9563 O 881.835 -0.114476 -2.16097 0
M  V30 9564 C 882.43 -3.24177 -0.984611 0
M  V30 9565 C 880.989 -3.46412 -1.47226 0
M  V30 9566 C 880.136 -2.74024 -0.425004 0
M  V30 9567 H 883.087 -1.57032 0.229511 0
M  V30 9568 H 883.108 -3.32474 -1.85044 0
M  V30 9569 H 882.62 -3.87938 -0.112035 0
M  V30 9570 H 880.721 -2.8787 -2.36562 0
M  V30 9571 H 880.834 -4.55098 -1.49741 0
M  V30 9572 H 879.198 -2.38741 -0.887394 0
M  V30 9573 H 879.981 -3.40486 0.438662 0
M  V30 9574 N 882.426 0.269451 -1.5528 0
M  V30 9575 C 883.837 0.840233 -1.66724 0
M  V30 9576 C 884.188 1.86909 -0.596621 0
M  V30 9577 O 883.313 2.14817 0.261246 0
M  V30 9578 C 883.908 1.5308 -3.02245 0
M  V30 9579 C 882.467 2.04957 -3.15705 0
M  V30 9580 C 881.614 0.892838 -2.62533 0
M  V30 9581 H 884.565 0.0457236 -1.58634 0
M  V30 9582 H 884.586 2.39792 -2.95432 0
M  V30 9583 H 884.098 0.781741 -3.80145 0
M  V30 9584 H 882.199 2.82813 -2.42585 0
M  V30 9585 H 882.312 2.26244 -4.22316 0
M  V30 9586 H 880.676 1.28719 -2.19781 0
M  V30 9587 H 881.459 0.157229 -3.4294 0
M  V30 9588 N 883.904 1.48273 0.534124 0
M  V30 9589 C 885.181 1.46567 1.29528 0
M  V30 9590 C 885.561 0.17509 2.10373 0
M  V30 9591 O 884.909 -0.843228 2.12372 0
M  V30 9592 C 885.119 2.72519 2.18023 0
M  V30 9593 C 886.467 3.2068 2.78298 0
M  V30 9594 O 887.491 2.73408 2.28313 0
M  V30 9595 O 886.35 4.02924 3.69208 0
M  V30 9596 H 883.444 0.585151 0.584403 0
M  V30 9597 H 885.99 1.60502 0.551119 0
M  V30 9598 H 884.762 3.57965 1.5804 0
M  V30 9599 H 884.385 2.61285 2.99693 0
M  V30 9600 N 885.382 -0.782676 1.36792 0
M  V30 9601 C 886.312 -1.90973 1.34356 0
M  V30 9602 C 887.293 -1.6875 0.213917 0
M  V30 9603 O 888.478 -1.89766 0.412601 0
M  V30 9604 C 885.608 -3.28097 1.13884 0
M  V30 9605 C 884.562 -3.6486 2.23744 0
M  V30 9606 C 883.888 -5.00406 1.88408 0
M  V30 9607 C 885.188 -3.72742 3.6587 0
M  V30 9608 H 886.882 -1.93268 2.28665 0
M  V30 9609 H 884.428 -0.928447 1.10072 0
M  V30 9610 H 886.381 -4.06569 1.10813 0
M  V30 9611 H 885.105 -3.26206 0.160275 0
M  V30 9612 H 883.764 -2.88689 2.25952 0
M  V30 9613 H 883.412 -4.95044 0.891083 0
M  V30 9614 H 883.112 -5.25973 2.61966 0
M  V30 9615 H 884.636 -5.81291 1.86905 0
M  V30 9616 H 886.05 -4.4139 3.65852 0
M  V30 9617 H 884.447 -4.09798 4.38389 0
M  V30 9618 H 885.517 -2.73676 4.00287 0
M  V30 9619 N 886.86 -1.21182 -1.00761 0
M  V30 9620 C 887.807 -0.968741 -2.09485 0
M  V30 9621 C 888.777 0.104325 -1.65772 0
M  V30 9622 O 889.962 -0.0422587 -1.90753 0
M  V30 9623 C 887.102 -0.536686 -3.40901 0
M  V30 9624 C 886.215 -1.6789 -3.98041 0
M  V30 9625 C 885.35 -1.19627 -5.17555 0
M  V30 9626 C 884.389 -2.31099 -5.66798 0
M  V30 9627 N 883.526 -1.83988 -6.77564 0
M  V30 9628 H 888.366 -1.89952 -2.29613 0
M  V30 9629 H 885.903 -0.946688 -1.12589 0
M  V30 9630 H 887.861 -0.26745 -4.16342 0
M  V30 9631 H 886.491 0.357092 -3.20819 0
M  V30 9632 H 885.543 -2.06284 -3.19611 0
M  V30 9633 H 886.855 -2.51794 -4.30582 0
M  V30 9634 H 886.009 -0.883539 -6.00232 0
M  V30 9635 H 884.748 -0.327244 -4.86601 0
M  V30 9636 H 883.753 -2.63178 -4.82719 0
M  V30 9637 H 884.978 -3.18493 -5.99782 0
M  V30 9638 H 882.924 -0.994257 -6.48422 0
M  V30 9639 H 882.841 -2.61466 -7.09346 0
M  V30 9640 H 884.109 -1.55741 -7.63783 0
M  V30 9641 N 888.338 1.20213 -1.01915 0
M  V30 9642 C 889.301 2.21307 -0.596327 0
M  V30 9643 C 890.301 1.57274 0.334879 0
M  V30 9644 O 891.491 1.73764 0.12322 0
M  V30 9645 C 888.623 3.40657 0.128808 0
M  V30 9646 H 889.816 2.60228 -1.49068 0
M  V30 9647 H 887.369 1.33721 -0.809226 0
M  V30 9648 H 888.104 3.07241 1.03796 0
M  V30 9649 H 887.889 3.88361 -0.540183 0
M  V30 9650 H 889.379 4.15564 0.411892 0
M  V30 9651 N 889.816 0.795718 1.36037 0
M  V30 9652 C 890.763 0.196548 2.29962 0
M  V30 9653 C 891.733 -0.663213 1.52285 0
M  V30 9654 O 892.918 -0.610574 1.80767 0
M  V30 9655 C 890.058 -0.657639 3.38776 0
M  V30 9656 C 889.171 0.221358 4.31433 0
M  V30 9657 C 888.306 -0.6398 5.27333 0
M  V30 9658 C 887.345 0.240265 6.11628 0
M  V30 9659 N 886.482 -0.580237 6.99698 0
M  V30 9660 H 891.322 1.00295 2.80615 0
M  V30 9661 H 888.859 0.506147 1.38118 0
M  V30 9662 H 890.817 -1.16793 4.00519 0
M  V30 9663 H 889.447 -1.42941 2.89426 0
M  V30 9664 H 888.499 0.84967 3.70789 0
M  V30 9665 H 889.811 0.899195 4.90628 0
M  V30 9666 H 888.965 -1.21566 5.94396 0
M  V30 9667 H 887.704 -1.35124 4.68607 0
M  V30 9668 H 886.709 0.828474 5.43522 0
M  V30 9669 H 887.934 0.949403 6.72431 0
M  V30 9670 H 885.88 -1.27585 6.43473 0
M  V30 9671 H 885.797 0.0397853 7.5599 0
M  V30 9672 H 887.065 -1.13972 7.71123 0
M  V30 9673 N 891.294 -1.47756 0.548274 0
M  V30 9674 C 892.541 -2.02489 0.0208955 0
M  V30 9675 C 892.869 -1.42356 -1.32533 0
M  V30 9676 O 892.124 -0.565448 -1.87353 0
M  V30 9677 C 892.423 -3.5716 -0.131069 0
M  V30 9678 C 892.089 -4.36169 1.14313 0
M  V30 9679 C 890.751 -4.57476 1.4923 0
M  V30 9680 C 893.103 -4.81801 1.9879 0
M  V30 9681 C 890.431 -5.21662 2.68487 0
M  V30 9682 C 892.783 -5.47303 3.17242 0
M  V30 9683 C 891.447 -5.66844 3.52483 0
M  V30 9684 H 890.717 -0.740961 0.00764621 0
M  V30 9685 H 893.364 -1.77531 0.717987 0
M  V30 9686 H 891.669 -3.8106 -0.911063 0
M  V30 9687 H 893.366 -3.9715 -0.55433 0
M  V30 9688 H 889.956 -4.19858 0.861235 0
M  V30 9689 H 894.14 -4.65126 1.73123 0
M  V30 9690 H 889.396 -5.34987 2.95971 0
M  V30 9691 H 893.57 -5.81626 3.82994 0
M  V30 9692 H 891.197 -6.16352 4.44988 0
M  V30 9693 N 892.772 -0.284283 -1.55015 0
M  V30 9694 C 893.702 0.592663 -2.25853 0
M  V30 9695 C 894.683 1.15151 -1.25197 0
M  V30 9696 O 895.868 1.18395 -1.53936 0
M  V30 9697 C 892.998 1.77254 -2.98661 0
M  V30 9698 C 891.952 1.34482 -4.06323 0
M  V30 9699 C 891.278 2.60853 -4.66754 0
M  V30 9700 C 892.578 0.488288 -5.20013 0
M  V30 9701 H 894.272 0.00187041 -2.994 0
M  V30 9702 H 891.818 -0.000540402 -1.44 0
M  V30 9703 H 893.771 2.39199 -3.46932 0
M  V30 9704 H 892.495 2.38931 -2.22664 0
M  V30 9705 H 891.154 0.748519 -3.58877 0
M  V30 9706 H 890.802 3.20808 -3.87416 0
M  V30 9707 H 890.502 2.32942 -5.39455 0
M  V30 9708 H 892.026 3.23631 -5.1778 0
M  V30 9709 H 893.44 1.01298 -5.6428 0
M  V30 9710 H 891.837 0.303669 -5.99331 0
M  V30 9711 H 892.907 -0.490727 -4.8241 0
M  V30 9712 N 894.251 1.57596 -0.0117121 0
M  V30 9713 C 895.183 2.06025 1.0043 0
M  V30 9714 C 896.196 0.980348 1.29973 0
M  V30 9715 O 897.385 1.25691 1.26744 0
M  V30 9716 C 894.485 2.45514 2.33615 0
M  V30 9717 C 893.658 3.76378 2.22842 0
M  V30 9718 C 892.717 4.02606 3.38814 0
M  V30 9719 O 891.743 4.73108 3.16477 0
M  V30 9720 N 892.945 3.51416 4.62047 0
M  V30 9721 H 895.71 2.93811 0.591206 0
M  V30 9722 H 893.271 1.60947 0.175427 0
M  V30 9723 H 895.263 2.60166 3.09993 0
M  V30 9724 H 893.833 1.63186 2.66625 0
M  V30 9725 H 893.053 3.71691 1.313 0
M  V30 9726 H 894.341 4.62149 2.12829 0
M  V30 9727 H 893.739 2.94346 4.83091 0
M  V30 9728 H 892.296 3.71377 5.35651 0
M  V30 9729 N 895.729 -0.261212 1.5542 0
M  V30 9730 C 896.639 -1.34493 1.92221 0
M  V30 9731 C 897.655 -1.53421 0.82086 0
M  V30 9732 O 898.831 -1.6732 1.12099 0
M  V30 9733 C 895.896 -2.68209 2.19692 0
M  V30 9734 C 894.957 -2.57927 3.43179 0
M  V30 9735 C 894.19 -3.85266 3.69331 0
M  V30 9736 O 894.413 -4.86493 2.97793 0
M  V30 9737 O 893.347 -3.8476 4.62865 0
M  V30 9738 H 897.173 -1.06278 2.84497 0
M  V30 9739 H 894.758 -0.460752 1.42118 0
M  V30 9740 H 896.64 -3.47252 2.38734 0
M  V30 9741 H 895.315 -2.96186 1.30597 0
M  V30 9742 H 894.222 -1.77219 3.2946 0
M  V30 9743 H 895.555 -2.34898 4.32532 0
M  V30 9744 N 897.207 -1.48554 -0.526253 0
M  V30 9745 C 898.17 -1.62868 -1.61266 0
M  V30 9746 C 899.17 -0.501762 -1.52771 0
M  V30 9747 O 900.36 -0.76764 -1.56374 0
M  V30 9748 C 897.492 -1.60238 -3.00893 0
M  V30 9749 H 898.685 -2.59742 -1.49913 0
M  V30 9750 H 896.238 -1.37207 -0.748595 0
M  V30 9751 H 896.973 -0.648545 -3.17749 0
M  V30 9752 H 896.758 -2.42054 -3.08468 0
M  V30 9753 H 898.248 -1.73455 -3.79872 0
M  V30 9754 N 898.685 0.775411 -1.37205 0
M  V30 9755 C 900.101 1.07546 -1.17924 0
M  V30 9756 C 900.301 2.01496 -0.0128897 0
M  V30 9757 O 899.357 2.44039 0.64816 0
M  V30 9758 C 900.67 1.67647 -2.49629 0
M  V30 9759 C 902.218 1.79923 -2.56119 0
M  V30 9760 C 902.693 2.43438 -3.87946 0
M  V30 9761 N 904.184 2.50893 -3.89368 0
M  V30 9762 C 904.919 3.00881 -4.88117 0
M  V30 9763 N 904.415 3.5107 -5.97262 0
M  V30 9764 N 906.208 2.99722 -4.75524 0
M  V30 9765 H 898.359 0.151524 -2.11859 0
M  V30 9766 H 900.622 0.129845 -0.939066 0
M  V30 9767 H 900.328 1.06082 -3.3532 0
M  V30 9768 H 900.202 2.66988 -2.66453 0
M  V30 9769 H 902.589 2.40621 -1.70838 0
M  V30 9770 H 902.67 0.793482 -2.43182 0
M  V30 9771 H 902.314 1.8338 -4.73639 0
M  V30 9772 H 902.244 3.44611 -3.98184 0
M  V30 9773 H 904.735 2.1537 -3.10522 0
M  V30 9774 H 905.048 3.87604 -6.68568 0
M  V30 9775 H 903.393 3.49184 -6.00912 0
M  V30 9776 H 906.584 2.5981 -3.8938 0
M  V30 9777 H 906.757 3.38369 -5.52639 0
M  V30 9778 N 900.163 1.21714 1.00117 0
M  V30 9779 C 901.412 1.03087 1.73367 0
M  V30 9780 C 901.725 -0.435532 1.90689 0
M  V30 9781 O 902.931 -0.741291 2.61184 0
M  V30 9782 C 901.387 1.79593 3.11888 0
M  V30 9783 C 900.995 3.30428 3.02525 0
M  V30 9784 C 902.739 1.69386 3.89241 0
M  V30 9785 C 900.646 3.99408 4.3615 0
M  V30 9786 H 899.576 0.382117 0.650002 0
M  V30 9787 H 902.227 1.45486 1.11831 0
M  V30 9788 H 900.609 1.29988 3.74058 0
M  V30 9789 H 901.783 3.87364 2.49571 0
M  V30 9790 H 900.098 3.4122 2.38659 0
M  V30 9791 H 902.695 2.18251 4.8813 0
M  V30 9792 H 903.038 0.652773 4.1115 0
M  V30 9793 H 903.571 2.16489 3.33733 0
M  V30 9794 H 900.31 5.03735 4.19442 0
M  V30 9795 H 899.83 3.47261 4.8905 0
M  V30 9796 H 901.509 4.04537 5.04934 0
M  V30 9797 N 901.641 -1.19671 1.02551 0
M  V30 9798 C 902.571 -2.25009 0.623965 0
M  V30 9799 C 903.552 -1.66129 -0.36538 0
M  V30 9800 O 904.737 -1.92599 -0.248842 0
M  V30 9801 C 901.867 -3.47287 -0.0294869 0
M  V30 9802 C 900.821 -4.18818 0.881781 0
M  V30 9803 C 900.147 -5.34618 0.0936189 0
M  V30 9804 C 901.447 -4.73986 2.19396 0
M  V30 9805 H 903.141 -2.58851 1.50454 0
M  V30 9806 H 900.687 -1.24425 0.724872 0
M  V30 9807 H 902.64 -4.20168 -0.322016 0
M  V30 9808 H 901.364 -3.12635 -0.944838 0
M  V30 9809 H 900.023 -3.47815 1.15845 0
M  V30 9810 H 899.671 -4.9621 -0.823661 0
M  V30 9811 H 899.371 -5.83409 0.700568 0
M  V30 9812 H 900.895 -6.10297 -0.192249 0
M  V30 9813 H 902.309 -5.38639 1.96319 0
M  V30 9814 H 900.706 -5.3325 2.75254 0
M  V30 9815 H 901.776 -3.92238 2.85092 0
M  V30 9816 N 903.119 -0.802921 -1.35613 0
M  V30 9817 C 904.066 -0.20874 -2.29854 0
M  V30 9818 C 905.036 0.655128 -1.52634 0
M  V30 9819 O 906.221 0.600979 -1.81088 0
M  V30 9820 C 903.361 0.639663 -3.3912 0
M  V30 9821 C 902.474 -0.244234 -4.31309 0
M  V30 9822 C 901.609 0.611825 -5.27665 0
M  V30 9823 C 900.648 -0.272698 -6.11492 0
M  V30 9824 N 899.785 0.543122 -6.99996 0
M  V30 9825 H 904.625 -1.01782 -2.80079 0
M  V30 9826 H 902.162 -0.513465 -1.37848 0
M  V30 9827 H 904.12 1.14668 -4.01132 0
M  V30 9828 H 902.75 1.41404 -2.9018 0
M  V30 9829 H 901.802 -0.869322 -3.70334 0
M  V30 9830 H 903.114 -0.925202 -4.90144 0
M  V30 9831 H 902.268 1.18412 -5.95032 0
M  V30 9832 H 901.007 1.32637 -4.69317 0
M  V30 9833 H 900.012 -0.857287 -5.43075 0
M  V30 9834 H 901.237 -0.985051 -6.71918 0
M  V30 9835 H 899.183 1.24171 -6.44141 0
M  V30 9836 H 899.1 -0.0798767 -7.55958 0
M  V30 9837 H 900.368 1.09881 -7.71717 0
M  V30 9838 N 904.597 1.47463 -0.556102 0
M  V30 9839 C 905.529 2.28046 0.22968 0
M  V30 9840 C 906.542 1.3694 0.880409 0
M  V30 9841 O 907.731 1.61773 0.754447 0
M  V30 9842 C 904.831 3.11165 1.34273 0
M  V30 9843 C 904.004 4.30225 0.789004 0
M  V30 9844 C 903.063 4.94948 1.78641 0
M  V30 9845 O 902.089 5.53372 1.33297 0
M  V30 9846 N 903.291 4.89543 3.11974 0
M  V30 9847 H 906.056 2.96125 -0.461558 0
M  V30 9848 H 903.617 1.5708 -0.392105 0
M  V30 9849 H 905.609 3.51331 2.00869 0
M  V30 9850 H 904.179 2.45337 1.93722 0
M  V30 9851 H 903.399 3.94163 -0.0536971 0
M  V30 9852 H 904.687 5.07238 0.398378 0
M  V30 9853 H 904.085 4.43275 3.51459 0
M  V30 9854 H 902.642 5.33732 3.74131 0
M  V30 9855 N 906.075 0.2925 1.54862 0
M  V30 9856 C 907.305 -0.321646 2.04081 0
M  V30 9857 C 907.713 -1.48712 1.16967 0
M  V30 9858 O 907.056 -1.82755 0.18609 0
M  V30 9859 C 907.118 -0.848678 3.49339 0
M  V30 9860 C 906.782 0.190416 4.56603 0
M  V30 9861 C 907.779 1.01595 5.09877 0
M  V30 9862 C 905.464 0.329666 5.01217 0
M  V30 9863 C 907.458 1.96676 6.06298 0
M  V30 9864 C 905.145 1.28393 5.9746 0
M  V30 9865 C 906.143 2.10097 6.49883 0
M  V30 9866 O 905.831 3.03907 7.44242 0
M  V30 9867 H 905.563 -0.075098 0.671816 0
M  V30 9868 H 908.117 0.427531 2.00901 0
M  V30 9869 H 906.347 -1.64823 3.49815 0
M  V30 9870 H 908.036 -1.37779 3.81801 0
M  V30 9871 H 908.802 0.919197 4.7621 0
M  V30 9872 H 904.681 -0.296317 4.60047 0
M  V30 9873 H 908.225 2.60488 6.47141 0
M  V30 9874 H 904.122 1.38144 6.30545 0
M  V30 9875 H 904.89 2.98787 7.62016 0
M  V30 9876 N 907.553 -1.57587 0.0200696 0
M  V30 9877 C 908.778 -1.96124 -0.674547 0
M  V30 9878 C 909.203 -0.896068 -1.65385 0
M  V30 9879 O 908.561 0.143925 -1.80728 0
M  V30 9880 C 908.609 -3.3376 -1.36517 0
M  V30 9881 O 907.713 -3.29483 -2.48022 0
M  V30 9882 H 907.054 -0.639719 -0.177919 0
M  V30 9883 H 909.584 -2.04447 0.0792317 0
M  V30 9884 H 909.594 -3.69785 -1.72403 0
M  V30 9885 H 908.269 -4.10832 -0.647265 0
M  V30 9886 H 906.846 -3.05162 -2.14314 0
M  V30 9887 N 909.032 0.252966 -1.55557 0
M  V30 9888 C 909.982 1.31585 -1.86197 0
M  V30 9889 C 910.966 1.43773 -0.722357 0
M  V30 9890 O 912.158 1.47117 -0.984152 0
M  V30 9891 C 909.287 2.67245 -2.15487 0
M  V30 9892 C 908.373 2.59087 -3.3576 0
M  V30 9893 N 908.764 2.20556 -4.5518 0
M  V30 9894 C 907.062 2.90112 -3.3875 0
M  V30 9895 C 907.763 2.22881 -5.37307 0
M  V30 9896 N 906.739 2.62145 -4.76215 0
M  V30 9897 H 910.541 1.00835 -2.76061 0
M  V30 9898 H 908.055 0.461598 -1.55702 0
M  V30 9899 H 910.052 3.43944 -2.35602 0
M  V30 9900 H 908.712 2.98867 -1.26919 0
M  V30 9901 H 909.723 1.922 -4.80915 0
M  V30 9902 H 906.4 3.26313 -2.60434 0
M  V30 9903 H 907.79 1.95482 -6.42835 0
M  V30 9904 N 910.51 1.48831 0.518367 0
M  V30 9905 C 911.921 1.50842 1.10016 0
M  V30 9906 C 912.272 0.284744 1.94123 0
M  V30 9907 O 911.397 -0.607088 2.0771 0
M  V30 9908 C 911.992 2.73329 2.00191 0
M  V30 9909 C 910.551 2.78175 2.53566 0
M  V30 9910 C 909.698 2.4452 1.30786 0
M  V30 9911 H 912.649 1.55779 0.303073 0
M  V30 9912 H 912.67 2.52506 2.84642 0
M  V30 9913 H 912.182 3.62374 1.3895 0
M  V30 9914 H 910.283 1.93368 3.18496 0
M  V30 9915 H 910.396 3.79905 2.91906 0
M  V30 9916 H 908.76 1.95924 1.62744 0
M  V30 9917 H 909.543 3.35819 0.712797 0
M  V30 9918 N 911.988 -0.768124 1.37614 0
M  V30 9919 C 912.936 -1.9029 1.33763 0
M  V30 9920 C 913.93 -1.67888 0.225814 0
M  V30 9921 O 915.136 -1.75634 0.394043 0
M  V30 9922 H 911.511 -0.625828 0.416945 0
M  V30 9923 H 913.482 -1.90654 2.29551 0
M  V30 9924 C 912.231 -3.27598 1.16511 0
M  V30 9925 H 911.554 -3.45414 2.01318 0
M  V30 9926 H 912.994 -4.07288 1.17867 0
M  V30 9927 C 911.453 -3.36653 -0.129001 0
M  V30 9928 O 911.983 -3.86023 -1.11128 0
M  V30 9929 N 910.189 -2.90036 -0.180926 0
M  V30 9930 H 909.736 -2.5005 0.619076 0
M  V30 9931 H 909.694 -2.96475 -1.04641 0
M  V30 9932 N 913.466 -1.22244 -0.994698 0
M  V30 9933 C 914.715 -1.04005 -1.72817 0
M  V30 9934 C 915.028 0.425413 -1.90918 0
M  V30 9935 O 916.234 0.727429 -2.61574 0
M  V30 9936 C 914.69 -1.81244 -3.10932 0
M  V30 9937 C 914.298 -3.32028 -3.00768 0
M  V30 9938 C 916.042 -1.71448 -3.88337 0
M  V30 9939 C 913.949 -4.01716 -4.34026 0
M  V30 9940 H 912.879 -0.385559 -0.647966 0
M  V30 9941 H 915.53 -1.46077 -1.11058 0
M  V30 9942 H 913.912 -1.3197 -3.73363 0
M  V30 9943 H 915.086 -3.88682 -2.47513 0
M  V30 9944 H 913.401 -3.4248 -2.36846 0
M  V30 9945 H 915.998 -2.20836 -4.86965 0
M  V30 9946 H 916.341 -0.674568 -4.10798 0
M  V30 9947 H 916.874 -2.18256 -3.3258 0
M  V30 9948 H 913.613 -5.05952 -4.16765 0
M  V30 9949 H 913.133 -3.49849 -4.87202 0
M  V30 9950 H 914.812 -4.0721 -5.02782 0
M  V30 9951 N 914.944 1.19125 -1.03184 0
M  V30 9952 C 916.19 1.89163 -0.731111 0
M  V30 9953 C 916.523 1.79604 0.738662 0
M  V30 9954 O 915.798 1.19037 1.53819 0
M  V30 9955 C 916.081 3.39986 -1.18666 0
M  V30 9956 C 915.934 3.58401 -2.71788 0
M  V30 9957 C 917.253 4.33316 -0.769772 0
M  V30 9958 H 914.372 0.686908 -0.267069 0
M  V30 9959 H 917.014 1.40205 -1.28229 0
M  V30 9960 H 915.164 3.81813 -0.717736 0
M  V30 9961 H 916.836 3.25727 -3.26649 0
M  V30 9962 H 915.079 3.01355 -3.12038 0
M  V30 9963 H 915.75 4.64189 -2.98719 0
M  V30 9964 H 918.226 3.9922 -1.17314 0
M  V30 9965 H 917.102 5.37427 -1.11637 0
M  V30 9966 H 917.363 4.40884 0.327681 0
M  V30 9967 N 916.422 0.810101 1.35185 0
M  V30 9968 C 917.838 0.494269 1.51754 0
M  V30 9969 C 918.038 -0.983907 1.75845 0
M  V30 9970 O 917.094 -1.76882 1.80191 0
M  V30 9971 C 918.407 1.34268 2.69059 0
M  V30 9972 C 919.955 1.33848 2.82938 0
M  V30 9973 C 920.43 2.17109 4.03271 0
M  V30 9974 N 921.921 2.14664 4.10456 0
M  V30 9975 C 922.656 2.75843 5.02691 0
M  V30 9976 N 922.152 3.45962 6.00235 0
M  V30 9977 N 923.945 2.65465 4.95464 0
M  V30 9978 H 916.096 1.76736 1.17805 0
M  V30 9979 H 918.359 0.752429 0.576676 0
M  V30 9980 H 918.065 2.39183 2.57845 0
M  V30 9981 H 917.939 0.998362 3.63748 0
M  V30 9982 H 920.326 0.29716 2.936 0
M  V30 9983 H 920.407 1.72269 1.89095 0
M  V30 9984 H 920.051 3.21283 3.93369 0
M  V30 9985 H 919.981 1.76046 4.96302 0
M  V30 9986 H 922.472 1.63648 3.40628 0
M  V30 9987 H 922.785 3.89922 6.67219 0
M  V30 9988 H 921.13 3.50067 6.00398 0
M  V30 9989 H 924.321 2.1027 4.18215 0
M  V30 9990 H 924.494 3.13433 5.67154 0
M  V30 9991 N 917.9 -1.47166 0.563914 0
M  V30 9992 C 918.83 -2.32894 -0.168148 0
M  V30 9993 C 919.811 -1.44202 -0.902214 0
M  V30 9994 O 920.996 -1.73048 -0.881365 0
M  V30 9995 C 918.126 -3.26116 -1.19439 0
M  V30 9996 C 917.08 -4.24101 -0.576363 0
M  V30 9997 C 916.406 -5.06696 -1.70772 0
M  V30 9998 C 917.706 -5.20142 0.47425 0
M  V30 9999 H 919.4 -2.9435 0.547573 0
M  V30 10000 H 916.946 -1.41545 0.264778 0
M  V30 10001 H 918.899 -3.84935 -1.71474 0
M  V30 10002 H 917.623 -2.62728 -1.94014 0
M  V30 10003 H 916.282 -3.66519 -0.0772534 0
M  V30 10004 H 915.93 -4.39707 -2.44268 0
M  V30 10005 H 915.63 -5.7304 -1.29994 0
M  V30 10006 H 917.154 -5.68375 -2.2312 0
M  V30 10007 H 918.568 -5.73286 0.0397035 0
M  V30 10008 H 916.965 -5.94726 0.801287 0
M  V30 10009 H 918.035 -4.65214 1.36764 0
M  V30 10010 N 919.378 -0.300708 -1.54705 0
M  V30 10011 C 920.627 0.309428 -1.99312 0
M  V30 10012 C 920.94 1.55027 -1.19272 0
M  V30 10013 O 922.146 2.23498 -1.54146 0
M  V30 10014 C 920.602 0.601856 -3.54832 0
M  V30 10015 C 920.21 -0.620636 -4.4368 0
M  V30 10016 C 921.954 1.1732 -4.07966 0
M  V30 10017 C 919.861 -0.301376 -5.90632 0
M  V30 10018 H 918.791 0.119395 -0.744487 0
M  V30 10019 H 921.442 -0.409368 -1.78875 0
M  V30 10020 H 919.824 1.38024 -3.71168 0
M  V30 10021 H 920.998 -1.39685 -4.39118 0
M  V30 10022 H 919.313 -1.1106 -4.01316 0
M  V30 10023 H 921.91 1.42631 -5.15326 0
M  V30 10024 H 922.253 2.11537 -3.5855 0
M  V30 10025 H 922.786 0.456534 -3.95172 0
M  V30 10026 H 919.525 -1.21209 -6.44196 0
M  V30 10027 H 919.045 0.437574 -5.98202 0
M  V30 10028 H 920.724 0.097164 -6.46927 0
M  V30 10029 N 920.856 1.57574 -0.0284266 0
M  V30 10030 C 922.104 1.91393 0.649079 0
M  V30 10031 C 922.425 0.905368 1.72708 0
M  V30 10032 O 921.695 -0.0532107 1.95828 0
M  V30 10033 H 920.275 0.70646 0.24274 0
M  V30 10034 H 922.937 1.94752 -0.076066 0
M  V30 10035 H 922.033 2.91988 1.10226 0
M  V30 10036 N 922.334 -0.244713 1.55689 0
M  V30 10037 C 923.58 -0.973886 1.77886 0
M  V30 10038 C 923.913 -1.8489 0.594071 0
M  V30 10039 O 923.188 -1.90182 -0.407564 0
M  V30 10040 C 923.471 -1.83255 3.09983 0
M  V30 10041 C 923.324 -0.985571 4.3887 0
M  V30 10042 C 924.643 -2.81464 3.38329 0
M  V30 10043 H 921.762 -0.352629 0.647165 0
M  V30 10044 H 924.404 -0.244243 1.88424 0
M  V30 10045 H 922.554 -2.45464 3.01131 0
M  V30 10046 H 924.226 -0.382005 4.59716 0
M  V30 10047 H 922.469 -0.29002 4.32829 0
M  V30 10048 H 923.14 -1.62022 5.27686 0
M  V30 10049 H 925.616 -2.2939 3.47159 0
M  V30 10050 H 924.492 -3.38663 4.31971 0
M  V30 10051 H 924.753 -3.58037 2.59349 0
M  V30 10052 N 923.813 -1.49104 -0.510467 0
M  V30 10053 C 925.053 -1.59723 -1.27545 0
M  V30 10054 C 925.417 -0.273525 -1.90042 0
M  V30 10055 O 926.618 -0.254835 -2.67589 0
M  V30 10056 C 924.889 -2.71771 -2.3211 0
M  V30 10057 S 926.448 -3.02282 -3.18074 0
M  V30 10058 H 923.266 -0.563489 -0.433591 0
M  V30 10059 H 925.868 -1.86719 -0.579328 0
M  V30 10060 H 924.572 -3.66483 -1.84711 0
M  V30 10061 H 924.103 -2.46739 -3.06404 0
M  V30 10062 H 926.118 -2.43076 -4.32583 0
M  V30 10063 N 925.291 0.760815 -1.38019 0
M  V30 10064 C 926.519 1.55001 -1.37048 0
M  V30 10065 C 926.934 1.88754 0.0415261 0
M  V30 10066 O 926.291 1.52254 1.00624 0
M  V30 10067 C 926.342 2.8536 -2.21928 0
M  V30 10068 O 926.063 2.53049 -3.57628 0
M  V30 10069 C 927.564 3.79536 -2.29057 0
M  V30 10070 H 924.784 0.479844 -0.469032 0
M  V30 10071 H 927.328 0.942148 -1.81504 0
M  V30 10072 H 925.483 3.42542 -1.80953 0
M  V30 10073 H 925.897 3.36604 -4.02241 0
M  V30 10074 H 927.371 4.67977 -2.92749 0
M  V30 10075 H 927.848 4.19453 -1.30213 0
M  V30 10076 H 928.454 3.28281 -2.70392 0
M  V30 10077 N 926.769 1.22769 0.988202 0
M  V30 10078 C 927.701 0.959757 2.08138 0
M  V30 10079 C 928.714 -0.0633787 1.62677 0
M  V30 10080 O 929.903 0.171203 1.77677 0
M  V30 10081 C 927.003 0.422724 3.36253 0
M  V30 10082 C 926.176 1.50419 4.10722 0
M  V30 10083 C 925.235 0.973407 5.17118 0
M  V30 10084 O 924.261 1.66066 5.44436 0
M  V30 10085 N 925.463 -0.202787 5.80146 0
M  V30 10086 H 928.228 1.9009 2.31702 0
M  V30 10087 H 925.789 1.13522 1.15431 0
M  V30 10088 H 927.781 0.0528514 4.04665 0
M  V30 10089 H 926.351 -0.423642 3.09716 0
M  V30 10090 H 925.571 2.04718 3.36874 0
M  V30 10091 H 926.859 2.23169 4.57245 0
M  V30 10092 H 926.257 -0.777856 5.60327 0
M  V30 10093 H 924.814 -0.513998 6.4977 0
M  V30 10094 N 928.247 -1.18576 1.03814 0
M  V30 10095 C 929.194 -2.2212 0.626988 0
M  V30 10096 C 930.164 -1.62064 -0.363912 0
M  V30 10097 O 931.349 -1.89041 -0.258469 0
M  V30 10098 C 928.489 -3.45099 -0.00650133 0
M  V30 10099 C 927.602 -4.19503 1.03156 0
M  V30 10100 C 926.737 -5.29932 0.366852 0
M  V30 10101 C 925.776 -5.96104 1.39018 0
M  V30 10102 N 924.913 -6.98076 0.750625 0
M  V30 10103 H 929.753 -2.56646 1.51449 0
M  V30 10104 H 927.29 -1.26084 0.757702 0
M  V30 10105 H 929.248 -4.15363 -0.391108 0
M  V30 10106 H 927.878 -3.11201 -0.857536 0
M  V30 10107 H 926.93 -3.48092 1.53414 0
M  V30 10108 H 928.242 -4.64843 1.80893 0
M  V30 10109 H 927.396 -6.06657 -0.0720979 0
M  V30 10110 H 926.135 -4.85687 -0.442631 0
M  V30 10111 H 925.14 -5.18122 1.8393 0
M  V30 10112 H 926.365 -6.42432 2.20132 0
M  V30 10113 H 924.311 -6.55989 -0.0385981 0
M  V30 10114 H 924.228 -7.41655 1.46574 0
M  V30 10115 H 925.496 -7.78776 0.335986 0
M  V30 10116 N 929.725 -0.817259 -1.34754 0
M  V30 10117 C 930.657 -0.192695 -2.28389 0
M  V30 10118 C 931.67 0.614167 -1.50771 0
M  V30 10119 O 932.859 0.444776 -1.7287 0
M  V30 10120 C 929.959 0.748929 -3.30521 0
M  V30 10121 C 929.132 -0.0138762 -4.37398 0
M  V30 10122 C 928.191 0.847825 -5.19325 0
M  V30 10123 O 927.217 0.29487 -5.68436 0
M  V30 10124 N 928.419 2.16843 -5.38479 0
M  V30 10125 H 931.184 -0.997122 -2.82626 0
M  V30 10126 H 928.745 -0.673696 -1.47217 0
M  V30 10127 H 930.737 1.32987 -3.82226 0
M  V30 10128 H 929.307 1.45412 -2.7672 0
M  V30 10129 H 928.527 -0.776093 -3.86485 0
M  V30 10130 H 929.815 -0.539191 -5.05935 0
M  V30 10131 H 929.213 2.64148 -5.00242 0
M  V30 10132 H 927.77 2.69835 -5.93323 0
M  V30 10133 N 931.203 1.46865 -0.571711 0
M  V30 10134 C 932.614 1.86158 -0.142181 0
M  V30 10135 C 932.965 1.47663 1.2919 0
M  V30 10136 O 932.09 0.886393 1.97413 0
M  V30 10137 C 932.685 3.37867 -0.251256 0
M  V30 10138 C 931.244 3.76198 0.123329 0
M  V30 10139 C 930.391 2.70902 -0.592232 0
M  V30 10140 H 933.342 1.38176 -0.780587 0
M  V30 10141 H 933.363 3.76842 0.526331 0
M  V30 10142 H 932.875 3.65853 -1.2951 0
M  V30 10143 H 930.976 3.53829 1.16773 0
M  V30 10144 H 931.089 4.78471 -0.24533 0
M  V30 10145 H 929.453 2.54678 -0.0336927 0
M  V30 10146 H 930.236 3.01729 -1.63751 0
M  V30 10147 N 932.681 0.308908 1.54543 0
M  V30 10148 C 933.93 -0.298854 1.99474 0
M  V30 10149 C 934.243 -1.54393 1.20093 0
M  V30 10150 O 935.449 -2.22677 1.55329 0
M  V30 10151 C 933.905 -0.58303 3.55146 0
M  V30 10152 C 933.513 0.644157 4.43345 0
M  V30 10153 C 935.257 -1.15155 4.08582 0
M  V30 10154 C 933.164 0.332694 5.90463 0
M  V30 10155 H 932.094 -0.115445 0.74511 0
M  V30 10156 H 934.745 0.418848 1.78656 0
M  V30 10157 H 933.127 -1.36053 3.71894 0
M  V30 10158 H 934.301 1.42012 4.38371 0
M  V30 10159 H 932.616 1.13186 4.00722 0
M  V30 10160 H 935.213 -1.39896 5.16075 0
M  V30 10161 H 935.556 -2.09632 3.59667 0
M  V30 10162 H 936.089 -0.435571 3.95408 0
M  V30 10163 H 932.828 1.24624 6.43544 0
M  V30 10164 H 932.348 -0.405844 5.98425 0
M  V30 10165 H 934.027 -0.0628545 6.46969 0
M  V30 10166 N 934.159 -1.57557 0.0367827 0
M  V30 10167 C 935.389 -1.96134 -0.649225 0
M  V30 10168 C 935.797 -0.912279 -1.65753 0
M  V30 10169 O 935.14 0.113569 -1.83349 0
M  V30 10170 C 935.202 -3.30889 -1.40545 0
M  V30 10171 C 934.866 -4.53622 -0.554609 0
M  V30 10172 C 935.863 -5.19611 0.17331 0
M  V30 10173 C 933.548 -4.99907 -0.48976 0
M  V30 10174 C 935.542 -6.3021 0.95467 0
M  V30 10175 C 933.229 -6.10386 0.295299 0
M  V30 10176 C 934.227 -6.75398 1.01621 0
M  V30 10177 O 933.915 -7.83755 1.78839 0
M  V30 10178 H 933.647 -0.650662 -0.183344 0
M  V30 10179 H 936.201 -2.05179 0.0951512 0
M  V30 10180 H 934.431 -3.18356 -2.19513 0
M  V30 10181 H 936.12 -3.54315 -1.9803 0
M  V30 10182 H 936.886 -4.84819 0.132589 0
M  V30 10183 H 932.765 -4.49105 -1.04046 0
M  V30 10184 H 936.309 -6.80886 1.51789 0
M  V30 10185 H 932.206 -6.44616 0.33771 0
M  V30 10186 H 932.974 -8.0046 1.70898 0
M  V30 10187 N 935.637 0.236453 -1.55816 0
M  V30 10188 C 936.886 0.960981 -1.77336 0
M  V30 10189 C 937.199 1.86085 -0.602641 0
M  V30 10190 O 938.405 2.62291 -0.701106 0
M  V30 10191 C 936.861 1.75884 -3.13995 0
M  V30 10192 C 936.469 0.905849 -4.38746 0
M  V30 10193 C 938.213 2.47548 -3.44848 0
M  V30 10194 C 936.12 1.7002 -5.66434 0
M  V30 10195 H 935.05 0.362547 -0.661117 0
M  V30 10196 H 937.701 0.215303 -1.82233 0
M  V30 10197 H 936.083 2.54687 -3.03234 0
M  V30 10198 H 937.257 0.159415 -4.60524 0
M  V30 10199 H 935.572 0.30205 -4.15303 0
M  V30 10200 H 938.169 3.07452 -4.37467 0
M  V30 10201 H 938.512 3.19689 -2.66655 0
M  V30 10202 H 939.045 1.75747 -3.56872 0
M  V30 10203 H 935.784 1.02234 -6.47479 0
M  V30 10204 H 935.304 2.42164 -5.48741 0
M  V30 10205 H 936.983 2.26469 -6.0607 0
M  V30 10206 N 937.115 1.49373 0.502552 0
M  V30 10207 C 938.361 1.59016 1.25864 0
M  V30 10208 C 938.694 0.27532 1.92238 0
M  V30 10209 O 937.969 -0.720988 1.80643 0
M  V30 10210 C 938.252 2.74828 2.32683 0
M  V30 10211 C 938.105 4.16102 1.7082 0
M  V30 10212 C 939.424 2.86288 3.34256 0
M  V30 10213 H 936.543 0.578798 0.456248 0
M  V30 10214 H 939.185 1.81651 0.557032 0
M  V30 10215 H 937.335 2.5566 2.92524 0
M  V30 10216 H 939.007 4.46782 1.14818 0
M  V30 10217 H 937.25 4.21822 1.01238 0
M  V30 10218 H 937.921 4.93006 2.48292 0
M  V30 10219 H 940.397 3.03733 2.84404 0
M  V30 10220 H 939.273 3.69001 4.06362 0
M  V30 10221 H 939.534 1.95576 3.96488 0
M  V30 10222 N 938.594 -0.753485 1.38421 0
M  V30 10223 C 939.527 -1.87525 1.30037 0
M  V30 10224 C 940.505 -1.6163 0.177379 0
M  V30 10225 O 941.689 -1.85132 0.354716 0
M  V30 10226 C 938.816 -3.23138 1.01485 0
M  V30 10227 C 937.862 -3.67921 2.15723 0
M  V30 10228 S 938.695 -3.79447 3.77863 0
M  V30 10229 C 939.851 -5.17879 3.51499 0
M  V30 10230 H 940.084 -1.94351 2.24978 0
M  V30 10231 H 937.617 -0.916475 1.24258 0
M  V30 10232 H 939.575 -4.01455 0.856959 0
M  V30 10233 H 938.236 -3.13991 0.0826199 0
M  V30 10234 H 937.429 -4.66287 1.91292 0
M  V30 10235 H 937.031 -2.96758 2.2762 0
M  V30 10236 H 939.323 -6.03636 3.0762 0
M  V30 10237 H 940.266 -5.47331 4.49259 0
M  V30 10238 H 940.674 -4.86681 2.8601 0
M  V30 10239 N 940.072 -1.23292 -0.981677 0
M  V30 10240 C 940.982 -1.02964 -2.10798 0
M  V30 10241 C 941.998 0.0254674 -1.73981 0
M  V30 10242 O 943.174 -0.169706 -2.00684 0
M  V30 10243 C 940.239 -0.621934 -3.41076 0
M  V30 10244 C 939.3 -1.75194 -3.91926 0
M  V30 10245 C 938.533 -1.36359 -5.15986 0
M  V30 10246 O 938.756 -0.247265 -5.69864 0
M  V30 10247 O 937.69 -2.18421 -5.60871 0
M  V30 10248 H 941.516 -1.97354 -2.30836 0
M  V30 10249 H 939.101 -1.01986 -1.09175 0
M  V30 10250 H 940.983 -0.405446 -4.19445 0
M  V30 10251 H 939.658 0.29299 -3.22371 0
M  V30 10252 H 938.565 -2.02305 -3.1468 0
M  V30 10253 H 939.898 -2.64513 -4.15083 0
M  V30 10254 N 941.55 1.18024 -1.04442 0
M  V30 10255 C 942.48 2.23988 -0.659683 0
M  V30 10256 C 943.461 1.6669 0.338904 0
M  V30 10257 O 944.646 1.92971 0.21817 0
M  V30 10258 C 941.776 3.4729 -0.0257672 0
M  V30 10259 C 940.73 4.17362 -0.948299 0
M  V30 10260 C 940.056 5.34401 -0.17866 0
M  V30 10261 C 941.356 4.70435 -2.26909 0
M  V30 10262 H 943.05 2.56425 -1.54553 0
M  V30 10263 H 940.596 1.23256 -0.744575 0
M  V30 10264 H 942.549 4.20627 0.255131 0
M  V30 10265 H 941.273 3.14098 0.894981 0
M  V30 10266 H 939.932 3.45928 -1.21364 0
M  V30 10267 H 939.58 4.97458 0.744614 0
M  V30 10268 H 939.28 5.8222 -0.793294 0
M  V30 10269 H 940.804 6.10526 0.0951315 0
M  V30 10270 H 942.218 5.35447 -2.04864 0
M  V30 10271 H 940.615 5.28803 -2.83703 0
M  V30 10272 H 941.685 3.87653 -2.91296 0
M  V30 10273 N 943.028 0.824394 1.34319 0
M  V30 10274 C 944.274 0.413779 1.98534 0
M  V30 10275 C 944.607 -1.02089 1.65201 0
M  V30 10276 O 943.882 -1.71129 0.924402 0
M  V30 10277 C 944.165 0.61801 3.54757 0
M  V30 10278 C 944.018 2.0989 3.97827 0
M  V30 10279 C 945.337 0.0549041 4.40066 0
M  V30 10280 H 942.456 0.151815 0.721194 0
M  V30 10281 H 945.098 1.03723 1.5919 0
M  V30 10282 H 943.248 0.0873107 3.88402 0
M  V30 10283 H 944.92 2.69335 3.74508 0
M  V30 10284 H 943.163 2.58881 3.48085 0
M  V30 10285 H 943.834 2.1926 5.06586 0
M  V30 10286 H 946.31 0.508348 4.12983 0
M  V30 10287 H 945.186 0.227595 5.48428 0
M  V30 10288 H 945.447 -1.04025 4.29687 0
M  V30 10289 N 944.506 -1.46559 0.579492 0
M  V30 10290 C 945.438 -2.28383 -0.19337 0
M  V30 10291 C 946.451 -1.38324 -0.858511 0
M  V30 10292 O 947.64 -1.62952 -0.728615 0
M  V30 10293 C 944.74 -3.13262 -1.29306 0
M  V30 10294 C 943.913 -4.31426 -0.720459 0
M  V30 10295 C 942.972 -4.97728 -1.70744 0
M  V30 10296 O 941.998 -5.55423 -1.24476 0
M  V30 10297 N 943.2 -4.94445 -3.04146 0
M  V30 10298 H 945.965 -2.95353 0.508611 0
M  V30 10299 H 943.526 -1.56436 0.417046 0
M  V30 10300 H 945.518 -3.54483 -1.95254 0
M  V30 10301 H 944.088 -2.48388 -1.89795 0
M  V30 10302 H 943.308 -3.94028 0.116398 0
M  V30 10303 H 944.596 -5.07808 -0.31763 0
M  V30 10304 H 943.994 -4.4881 -3.44363 0
M  V30 10305 H 942.551 -5.39616 -3.65592 0
M  V30 10306 N 945.984 -0.3171 -1.54377 0
M  V30 10307 C 947.232 0.286842 -2.00054 0
M  V30 10308 C 947.553 1.53161 -1.20692 0
M  V30 10309 O 946.823 1.93479 -0.307045 0
M  V30 10310 H 945.403 0.108979 -0.739008 0
M  V30 10311 H 948.065 -0.432152 -1.90049 0
M  V30 10312 H 947.161 0.547729 -3.07256 0
M  V30 10313 N 947.462 1.57535 -0.0451378 0
M  V30 10314 C 948.71 1.92071 0.628743 0
M  V30 10315 C 949.031 0.923635 1.71738 0
M  V30 10316 O 948.301 -0.0324376 1.95873 0
M  V30 10317 H 946.881 0.708995 0.235233 0
M  V30 10318 H 949.543 1.9466 -0.0967177 0
M  V30 10319 H 948.639 2.9314 1.07123 0
M  V30 10320 N 948.94 -0.228186 1.55939 0
M  V30 10321 C 950.217 -0.977492 1.69424 0
M  V30 10322 C 950.597 -2.02674 0.590479 0
M  V30 10323 O 949.945 -2.2491 -0.403467 0
M  V30 10324 C 950.155 -1.59394 3.10475 0
M  V30 10325 C 951.503 -2.08871 3.69673 0
M  V30 10326 O 952.527 -1.693 3.13394 0
M  V30 10327 O 951.386 -2.81584 4.68372 0
M  V30 10328 H 948.48 -0.456185 0.6898 0
M  V30 10329 H 951.026 -0.220492 1.68261 0
M  V30 10330 H 949.798 -0.835971 3.82266 0
M  V30 10331 H 949.421 -2.41665 3.15727 0
M  V30 10332 N 950.418 -1.49637 -0.494624 0
M  V30 10333 C 951.665 -1.59445 -1.24834 0
M  V30 10334 C 951.993 -0.284028 -1.92415 0
M  V30 10335 O 951.248 0.728519 -1.81634 0
M  V30 10336 C 951.547 -2.70749 -2.33302 0
M  V30 10337 C 951.213 -4.12034 -1.83135 0
M  V30 10338 C 949.875 -4.50482 -1.69173 0
M  V30 10339 C 952.227 -5.00432 -1.4566 0
M  V30 10340 C 949.555 -5.75093 -1.16124 0
M  V30 10341 C 951.907 -6.25568 -0.940608 0
M  V30 10342 C 950.571 -6.62839 -0.787432 0
M  V30 10343 H 949.841 -0.583451 -0.456799 0
M  V30 10344 H 952.488 -1.8349 -0.548044 0
M  V30 10345 H 950.793 -2.407 -3.09145 0
M  V30 10346 H 952.49 -2.75546 -2.91334 0
M  V30 10347 H 949.08 -3.8169 -1.94964 0
M  V30 10348 H 953.264 -4.71379 -1.55291 0
M  V30 10349 H 948.52 -6.02665 -1.02982 0
M  V30 10350 H 952.694 -6.93439 -0.641467 0
M  V30 10351 H 950.321 -7.59279 -0.374191 0
M  V30 10352 N 951.896 0.746133 -1.38819 0
M  V30 10353 C 952.826 1.87344 -1.39372 0
M  V30 10354 C 953.807 1.68123 -0.258583 0
M  V30 10355 O 954.992 1.88606 -0.462769 0
M  V30 10356 C 952.122 3.24962 -1.22543 0
M  V30 10357 C 951.076 3.58799 -2.33339 0
M  V30 10358 C 950.402 4.95235 -2.01609 0
M  V30 10359 C 951.702 3.62911 -3.75624 0
M  V30 10360 H 953.396 1.87138 -2.33709 0
M  V30 10361 H 950.942 0.898937 -1.12495 0
M  V30 10362 H 952.895 4.03488 -1.21554 0
M  V30 10363 H 951.619 3.25667 -0.246707 0
M  V30 10364 H 950.278 2.82596 -2.33527 0
M  V30 10365 H 949.926 4.92508 -1.02202 0
M  V30 10366 H 949.626 5.18843 -2.75819 0
M  V30 10367 H 951.15 5.76131 -2.02251 0
M  V30 10368 H 952.564 4.31535 -3.77426 0
M  V30 10369 H 950.961 3.98031 -4.491 0
M  V30 10370 H 952.031 2.62967 -4.07402 0
M  V30 10371 N 953.375 1.23811 0.975125 0
M  V30 10372 C 954.603 1.10019 1.75224 0
M  V30 10373 C 955.018 -0.34791 1.85567 0
M  V30 10374 O 954.375 -1.24043 1.33864 0
M  V30 10375 C 954.426 1.72572 3.1765 0
M  V30 10376 O 954.147 3.11719 3.07836 0
M  V30 10377 C 955.648 1.64292 4.11732 0
M  V30 10378 H 952.868 0.38476 0.549728 0
M  V30 10379 H 955.412 1.63768 1.22476 0
M  V30 10380 H 953.567 1.22843 3.67408 0
M  V30 10381 H 953.981 3.42152 3.97533 0
M  V30 10382 H 955.455 2.12754 5.09352 0
M  V30 10383 H 955.932 0.602722 4.35045 0
M  V30 10384 H 956.538 2.13411 3.6788 0
M  V30 10385 N 954.853 -1.17469 1.05066 0
M  V30 10386 C 956.1 -1.87698 0.759987 0
M  V30 10387 C 956.428 -1.80964 -0.712902 0
M  V30 10388 O 955.683 -1.21146 -1.53695 0
M  V30 10389 C 955.982 -3.37211 1.18421 0
M  V30 10390 C 955.648 -3.64148 2.65909 0
M  V30 10391 C 954.31 -3.71209 3.06199 0
M  V30 10392 C 956.662 -3.75724 3.61222 0
M  V30 10393 C 953.99 -3.87334 4.40669 0
M  V30 10394 C 956.342 -3.93368 4.95424 0
M  V30 10395 C 955.006 -3.98667 5.3537 0
M  V30 10396 H 954.276 -0.686835 0.278099 0
M  V30 10397 H 956.923 -1.38975 1.31751 0
M  V30 10398 H 955.228 -3.87982 0.545654 0
M  V30 10399 H 956.925 -3.89911 0.936518 0
M  V30 10400 H 953.515 -3.59276 2.33707 0
M  V30 10401 H 957.699 -3.69591 3.31235 0
M  V30 10402 H 952.955 -3.89685 4.71122 0
M  V30 10403 H 957.129 -4.01267 5.69173 0
M  V30 10404 H 954.756 -4.10915 6.39572 0
M  V30 10405 N 956.331 -0.831506 -1.3388 0
M  V30 10406 C 957.261 -0.274378 -2.31882 0
M  V30 10407 C 958.242 0.613872 -1.58637 0
M  V30 10408 O 959.427 0.538961 -1.86571 0
M  V30 10409 C 956.557 0.557498 -3.42796 0
M  V30 10410 C 955.511 -0.234337 -4.27358 0
M  V30 10411 C 954.837 0.720825 -5.29819 0
M  V30 10412 C 956.137 -1.44732 -5.01847 0
M  V30 10413 H 957.831 -1.09322 -2.78728 0
M  V30 10414 H 955.377 -0.527136 -1.34005 0
M  V30 10415 H 957.33 0.957501 -4.10378 0
M  V30 10416 H 956.054 1.40947 -2.94621 0
M  V30 10417 H 954.713 -0.61581 -3.61391 0
M  V30 10418 H 954.361 1.569 -4.77903 0
M  V30 10419 H 954.061 0.195171 -5.87276 0
M  V30 10420 H 955.585 1.1185 -6.00268 0
M  V30 10421 H 956.999 -1.12087 -5.62236 0
M  V30 10422 H 955.396 -1.90923 -5.68919 0
M  V30 10423 H 956.466 -2.22099 -4.31045 0
M  V30 10424 N 957.809 1.4625 -0.587256 0
M  V30 10425 C 959.225 1.57641 -0.249284 0
M  V30 10426 C 959.425 1.58169 1.24839 0
M  V30 10427 O 958.481 1.50109 2.03036 0
M  V30 10428 C 959.794 2.86837 -0.902509 0
M  V30 10429 C 961.342 3.00476 -0.876524 0
M  V30 10430 C 961.817 4.32414 -1.50938 0
M  V30 10431 N 963.308 4.39124 -1.47392 0
M  V30 10432 C 964.043 5.39838 -1.93293 0
M  V30 10433 N 963.539 6.47202 -2.47188 0
M  V30 10434 N 965.332 5.31068 -1.84183 0
M  V30 10435 H 957.483 1.44151 -1.55994 0
M  V30 10436 H 959.746 0.687905 -0.652297 0
M  V30 10437 H 959.452 2.92274 -1.95624 0
M  V30 10438 H 959.326 3.74927 -0.413466 0
M  V30 10439 H 961.713 2.94618 0.168601 0
M  V30 10440 H 961.794 2.1385 -1.40363 0
M  V30 10441 H 961.438 4.3903 -2.55372 0
M  V30 10442 H 961.368 5.17823 -0.957455 0
M  V30 10443 H 963.859 3.62138 -1.08002 0
M  V30 10444 H 964.172 7.20269 -2.80058 0
M  V30 10445 H 962.517 6.48009 -2.51216 0
M  V30 10446 H 965.708 4.46095 -1.41833 0
M  V30 10447 H 965.881 6.09414 -2.2027 0
M  V30 10448 N 959.287 0.325282 1.54207 0
M  V30 10449 C 960.515 -0.27869 2.05014 0
M  V30 10450 C 960.93 -1.45649 1.20133 0
M  V30 10451 O 960.287 -1.81014 0.232398 0
M  V30 10452 C 960.338 -0.711486 3.54429 0
M  V30 10453 O 960.059 0.419458 4.36087 0
M  V30 10454 C 961.56 -1.37809 4.21336 0
M  V30 10455 H 958.78 -0.0570388 0.668571 0
M  V30 10456 H 961.324 0.47197 1.98979 0
M  V30 10457 H 959.479 -1.41212 3.60746 0
M  V30 10458 H 959.893 0.0781037 5.24442 0
M  V30 10459 H 961.367 -1.63184 5.27328 0
M  V30 10460 H 961.844 -2.32593 3.72555 0
M  V30 10461 H 962.45 -0.719987 4.19161 0
M  V30 10462 N 960.765 -1.57509 0.0534917 0
M  V30 10463 C 961.675 -2.15152 -0.935249 0
M  V30 10464 C 962.691 -1.10991 -1.34003 0
M  V30 10465 O 963.867 -1.43171 -1.41648 0
M  V30 10466 C 960.932 -2.68699 -2.19093 0
M  V30 10467 C 959.993 -3.87666 -1.84428 0
M  V30 10468 C 959.226 -4.3865 -3.0401 0
M  V30 10469 O 959.449 -3.887 -4.17455 0
M  V30 10470 O 958.383 -5.30209 -2.84889 0
M  V30 10471 H 962.209 -2.99962 -0.475009 0
M  V30 10472 H 959.794 -1.48446 -0.16854 0
M  V30 10473 H 961.676 -3.03098 -2.92762 0
M  V30 10474 H 960.351 -1.86958 -2.6425 0
M  V30 10475 H 959.258 -3.58151 -1.08068 0
M  V30 10476 H 960.591 -4.70643 -1.44068 0
M  V30 10477 N 962.243 0.219913 -1.56058 0
M  V30 10478 C 963.491 0.942199 -1.78793 0
M  V30 10479 C 963.812 1.84804 -0.622284 0
M  V30 10480 O 963.082 1.9255 0.360735 0
M  V30 10481 H 961.662 0.350895 -0.659455 0
M  V30 10482 H 964.324 0.231376 -1.93522 0
M  V30 10483 H 963.42 1.54804 -2.71002 0
M  V30 10484 N 963.721 1.49897 0.486681 0
M  V30 10485 C 964.684 1.67086 1.56891 0
M  V30 10486 C 965.684 0.54209 1.51387 0
M  V30 10487 O 966.874 0.80883 1.54284 0
M  V30 10488 C 964.006 1.68159 2.96539 0
M  V30 10489 H 965.199 2.63626 1.42974 0
M  V30 10490 H 962.752 1.39143 0.711954 0
M  V30 10491 H 963.487 0.732562 3.15918 0
M  V30 10492 H 963.272 2.50147 3.01942 0
M  V30 10493 H 964.762 1.83466 3.7514 0
M  V30 10494 N 965.199 -0.738761 1.39212 0
M  V30 10495 C 966.615 -1.04381 1.20734 0
M  V30 10496 C 966.815 -2.01391 0.0663082 0
M  V30 10497 O 965.871 -2.45672 -0.583229 0
M  V30 10498 C 967.184 -1.6097 2.53987 0
M  V30 10499 C 968.732 -1.73069 2.60799 0
M  V30 10500 C 969.207 -2.33067 3.94264 0
M  V30 10501 N 970.698 -2.40481 3.95883 0
M  V30 10502 C 971.433 -2.87834 4.95923 0
M  V30 10503 N 970.929 -3.35111 6.0636 0
M  V30 10504 N 972.722 -2.87009 4.83304 0
M  V30 10505 H 964.873 -0.0952996 2.12186 0
M  V30 10506 H 967.136 -0.104902 0.942178 0
M  V30 10507 H 966.842 -0.971548 3.38015 0
M  V30 10508 H 966.716 -2.59829 2.73439 0
M  V30 10509 H 969.103 -2.36007 1.77157 0
M  V30 10510 H 969.184 -0.728728 2.452 0
M  V30 10511 H 968.828 -1.70758 4.78335 0
M  V30 10512 H 968.758 -3.33933 4.07181 0
M  V30 10513 H 971.249 -2.07061 3.16123 0
M  V30 10514 H 971.562 -3.69742 6.78609 0
M  V30 10515 H 969.907 -3.33129 6.09959 0
M  V30 10516 H 973.098 -2.49395 3.96131 0
M  V30 10517 H 973.271 -3.23598 5.61416 0
M  V30 10518 N 966.677 -1.24326 -0.968545 0
M  V30 10519 C 967.607 -1.05951 -2.08079 0
M  V30 10520 C 968.588 0.0272666 -1.70078 0
M  V30 10521 O 969.773 -0.139644 -1.93697 0
M  V30 10522 C 966.903 -0.662623 -3.4092 0
M  V30 10523 C 965.857 -1.69807 -3.92873 0
M  V30 10524 C 965.183 -1.15628 -5.22048 0
M  V30 10525 C 966.483 -3.09383 -4.20808 0
M  V30 10526 H 968.177 -1.98984 -2.23709 0
M  V30 10527 H 965.723 -0.958112 -1.075 0
M  V30 10528 H 967.676 -0.521071 -4.18166 0
M  V30 10529 H 966.4 0.303399 -3.25188 0
M  V30 10530 H 965.059 -1.82783 -3.17783 0
M  V30 10531 H 964.707 -0.180888 -5.02675 0
M  V30 10532 H 964.407 -1.84822 -5.57776 0
M  V30 10533 H 965.931 -1.02683 -6.01904 0
M  V30 10534 H 967.345 -2.99642 -4.88761 0
M  V30 10535 H 965.742 -3.75923 -4.67763 0
M  V30 10536 H 966.812 -3.57486 -3.27616 0
M  V30 10537 N 968.156 1.1691 -1.05688 0
M  V30 10538 C 969.572 1.39288 -0.779167 0
M  V30 10539 C 969.772 1.91587 0.624231 0
M  V30 10540 O 968.828 2.11072 1.38582 0
M  V30 10541 C 970.141 2.37914 -1.83895 0
M  V30 10542 C 971.689 2.51611 -1.86175 0
M  V30 10543 C 972.164 3.53514 -2.9119 0
M  V30 10544 N 973.655 3.61036 -2.90184 0
M  V30 10545 C 974.39 4.39657 -3.68088 0
M  V30 10546 N 973.886 5.21752 -4.55793 0
M  V30 10547 N 975.679 4.3458 -3.56507 0
M  V30 10548 H 967.83 0.81296 -1.96226 0
M  V30 10549 H 970.093 0.419818 -0.849975 0
M  V30 10550 H 969.799 2.06568 -2.84645 0
M  V30 10551 H 969.673 3.37483 -1.68479 0
M  V30 10552 H 972.06 2.82264 -0.86087 0
M  V30 10553 H 972.141 1.52099 -2.05668 0
M  V30 10554 H 971.785 3.23599 -3.91467 0
M  V30 10555 H 971.715 4.52742 -2.68947 0
M  V30 10556 H 974.206 3.02428 -2.26596 0
M  V30 10557 H 974.519 5.78939 -5.11907 0
M  V30 10558 H 972.864 5.21116 -4.59851 0
M  V30 10559 H 976.055 3.69501 -2.87379 0
M  V30 10560 H 976.228 4.95607 -4.17466 0
M  V30 10561 N 969.634 0.838594 1.33437 0
M  V30 10562 C 970.88 0.434813 1.98084 0
M  V30 10563 C 971.213 -1.00331 1.66275 0
M  V30 10564 O 970.488 -1.70139 0.942501 0
M  V30 10565 C 970.771 0.655602 3.54082 0
M  V30 10566 C 970.624 2.14097 3.95578 0
M  V30 10567 C 971.943 0.101576 4.39983 0
M  V30 10568 H 969.062 0.159456 0.719544 0
M  V30 10569 H 971.704 1.05406 1.58081 0
M  V30 10570 H 969.854 0.128501 3.88287 0
M  V30 10571 H 971.526 2.73292 3.71631 0
M  V30 10572 H 969.769 2.62558 3.4532 0
M  V30 10573 H 970.44 2.24621 5.04231 0
M  V30 10574 H 972.916 0.552122 4.12421 0
M  V30 10575 H 971.792 0.28575 5.48156 0
M  V30 10576 H 972.053 -0.994616 4.30767 0
M  V30 10577 N 971.112 -1.45937 0.595003 0
M  V30 10578 C 972.059 -2.30427 -0.131165 0
M  V30 10579 C 973.029 -1.41355 -0.872232 0
M  V30 10580 O 974.214 -1.70296 -0.860467 0
M  V30 10581 C 971.354 -3.26045 -1.13087 0
M  V30 10582 C 970.467 -4.30218 -0.391982 0
M  V30 10583 C 969.602 -5.12953 -1.3803 0
M  V30 10584 C 968.641 -6.08865 -0.628505 0
M  V30 10585 N 967.778 -6.84425 -1.56548 0
M  V30 10586 H 972.618 -2.91992 0.595359 0
M  V30 10587 H 970.155 -1.43895 0.305405 0
M  V30 10588 H 972.113 -3.79937 -1.72348 0
M  V30 10589 H 970.743 -2.66261 -1.82496 0
M  V30 10590 H 969.795 -3.79086 0.315895 0
M  V30 10591 H 971.107 -4.98418 0.195173 0
M  V30 10592 H 970.261 -5.71184 -2.04534 0
M  V30 10593 H 969 -4.44743 -2.00138 0
M  V30 10594 H 968.005 -5.49777 0.0502431 0
M  V30 10595 H 969.23 -6.79099 -0.012641 0
M  V30 10596 H 967.176 -6.18913 -2.17444 0
M  V30 10597 H 967.093 -7.48931 -1.03145 0
M  V30 10598 H 968.361 -7.47204 -2.22049 0
M  V30 10599 N 972.59 -0.333456 -1.54032 0
M  V30 10600 C 973.818 0.267813 -2.05159 0
M  V30 10601 C 974.233 1.4501 -1.20903 0
M  V30 10602 O 973.59 1.80888 -0.241994 0
M  V30 10603 C 973.641 0.69268 -3.54802 0
M  V30 10604 O 973.362 -0.442579 -4.35859 0
M  V30 10605 C 974.863 1.35572 -4.2206 0
M  V30 10606 H 972.083 0.0534924 -0.668864 0
M  V30 10607 H 974.627 -0.482515 -1.98726 0
M  V30 10608 H 972.782 1.39297 -3.6149 0
M  V30 10609 H 973.196 -0.105915 -5.24393 0
M  V30 10610 H 974.67 1.60385 -5.28186 0
M  V30 10611 H 975.147 2.30614 -3.73783 0
M  V30 10612 H 975.753 0.697748 -4.19537 0
M  V30 10613 N 974.068 1.57479 -0.061844 0
M  V30 10614 C 974.998 2.15181 0.9066 0
M  V30 10615 C 975.979 1.07624 1.31724 0
M  V30 10616 O 977.164 1.35614 1.39006 0
M  V30 10617 C 974.294 2.70542 2.17771 0
M  V30 10618 C 973.248 3.83178 1.9068 0
M  V30 10619 C 972.574 4.25099 3.24337 0
M  V30 10620 C 973.874 5.07853 1.21994 0
M  V30 10621 H 975.568 2.96355 0.42594 0
M  V30 10622 H 973.114 1.42556 0.203435 0
M  V30 10623 H 975.067 3.09552 2.85929 0
M  V30 10624 H 973.791 1.86575 2.68062 0
M  V30 10625 H 972.45 3.44656 1.24931 0
M  V30 10626 H 972.098 3.38069 3.72449 0
M  V30 10627 H 971.798 5.01021 3.07005 0
M  V30 10628 H 973.322 4.66718 3.93709 0
M  V30 10629 H 974.736 5.44242 1.80204 0
M  V30 10630 H 973.133 5.88987 1.14954 0
M  V30 10631 H 974.203 4.84497 0.197536 0
M  V30 10632 N 975.546 -0.211634 1.56173 0
M  V30 10633 C 976.476 -1.26533 1.96244 0
M  V30 10634 C 977.457 -1.48362 0.832028 0
M  V30 10635 O 978.642 -1.60378 1.0951 0
M  V30 10636 C 975.772 -2.61307 2.2877 0
M  V30 10637 C 974.726 -2.54119 3.44395 0
M  V30 10638 C 974.052 -3.93014 3.62552 0
M  V30 10639 C 975.352 -2.08046 4.79076 0
M  V30 10640 H 977.046 -0.932407 2.84511 0
M  V30 10641 H 974.592 -0.447084 1.36884 0
M  V30 10642 H 976.545 -3.35188 2.55396 0
M  V30 10643 H 975.269 -2.96307 1.37367 0
M  V30 10644 H 973.928 -1.82694 3.17834 0
M  V30 10645 H 973.576 -4.25338 2.68508 0
M  V30 10646 H 973.276 -3.89083 4.40327 0
M  V30 10647 H 974.8 -4.68542 3.91537 0
M  V30 10648 H 976.214 -2.71676 5.04842 0
M  V30 10649 H 974.611 -2.15154 5.60204 0
M  V30 10650 H 975.681 -1.03306 4.73768 0
M  V30 10651 N 977.024 -1.50153 -0.478725 0
M  V30 10652 C 977.956 -1.64603 -1.59494 0
M  V30 10653 C 978.969 -0.527789 -1.54007 0
M  V30 10654 O 980.158 -0.80069 -1.59534 0
M  V30 10655 C 977.258 -1.60738 -2.98356 0
M  V30 10656 C 976.431 -2.88468 -3.28794 0
M  V30 10657 C 975.49 -2.77349 -4.47173 0
M  V30 10658 O 974.516 -3.51302 -4.47857 0
M  V30 10659 N 975.718 -1.9039 -5.4839 0
M  V30 10660 H 978.483 -2.6088 -1.47518 0
M  V30 10661 H 976.044 -1.47521 -0.667011 0
M  V30 10662 H 978.036 -1.50923 -3.75505 0
M  V30 10663 H 976.606 -0.722273 -3.04141 0
M  V30 10664 H 975.826 -3.12467 -2.40329 0
M  V30 10665 H 977.114 -3.73102 -3.45937 0
M  V30 10666 H 976.512 -1.29606 -5.50653 0
M  V30 10667 H 975.069 -1.86484 -6.24553 0
M  V30 10668 N 978.502 0.731368 -1.39602 0
M  V30 10669 C 979.435 1.85433 -1.33004 0
M  V30 10670 C 980.413 1.61327 -0.20307 0
M  V30 10671 O 981.597 1.84545 -0.384124 0
M  V30 10672 C 978.724 3.21483 -1.06613 0
M  V30 10673 C 977.77 3.64443 -2.21549 0
M  V30 10674 S 978.603 3.73387 -3.83852 0
M  V30 10675 C 979.759 5.12222 -3.59694 0
M  V30 10676 H 979.992 1.90747 -2.28041 0
M  V30 10677 H 977.525 0.89659 -1.25701 0
M  V30 10678 H 979.483 4.00041 -0.920719 0
M  V30 10679 H 978.144 3.1382 -0.132563 0
M  V30 10680 H 977.337 4.63185 -1.98686 0
M  V30 10681 H 976.939 2.93099 -2.32312 0
M  V30 10682 H 979.231 5.98666 -3.17184 0
M  V30 10683 H 980.174 5.40115 -4.5791 0
M  V30 10684 H 980.582 4.8207 -2.93716 0
M  V30 10685 N 979.98 1.24838 0.961938 0
M  V30 10686 C 981.226 1.09313 1.70817 0
M  V30 10687 C 981.559 -0.366244 1.90715 0
M  V30 10688 O 980.834 -1.27036 1.47282 0
M  V30 10689 C 981.117 1.83988 3.09549 0
M  V30 10690 C 980.97 3.3771 2.97106 0
M  V30 10691 C 982.289 1.61718 4.09311 0
M  V30 10692 H 979.408 0.398498 0.619974 0
M  V30 10693 H 982.05 1.53579 1.11864 0
M  V30 10694 H 980.2 1.46363 3.59875 0
M  V30 10695 H 981.872 3.84967 2.54161 0
M  V30 10696 H 980.115 3.65795 2.33187 0
M  V30 10697 H 980.786 3.85166 3.95412 0
M  V30 10698 H 983.262 1.94458 3.67866 0
M  V30 10699 H 982.138 2.16415 5.04436 0
M  V30 10700 H 982.399 0.55677 4.3858 0
M  V30 10701 N 981.458 -1.16348 1.06306 0
M  V30 10702 C 982.706 -1.86512 0.778311 0
M  V30 10703 C 983.027 -1.82107 -0.697273 0
M  V30 10704 O 982.297 -1.2547 -1.50446 0
M  V30 10705 H 980.877 -0.690529 0.284919 0
M  V30 10706 H 983.539 -1.41092 1.34458 0
M  V30 10707 H 982.635 -2.91947 1.10333 0
M  V30 10708 N 982.937 -0.845659 -1.3299 0
M  V30 10709 C 984.214 -0.366306 -1.92139 0
M  V30 10710 C 984.594 1.14912 -1.77083 0
M  V30 10711 O 983.942 1.96667 -1.16338 0
M  V30 10712 C 984.152 -0.820716 -3.39213 0
M  V30 10713 C 985.5 -0.832667 -4.16355 0
M  V30 10714 O 986.524 -0.764764 -3.47893 0
M  V30 10715 O 985.383 -0.926658 -5.38586 0
M  V30 10716 H 982.477 -0.105063 -0.820299 0
M  V30 10717 H 985.023 -0.931962 -1.41819 0
M  V30 10718 H 983.795 -1.86357 -3.44074 0
M  V30 10719 H 983.418 -0.232009 -3.96923 0
M  V30 10720 N 984.415 1.45619 -0.602734 0
M  V30 10721 C 985.378 2.28941 0.108962 0
M  V30 10722 C 986.378 1.39501 0.799762 0
M  V30 10723 O 987.568 1.61673 0.648663 0
M  V30 10724 C 984.7 3.204 1.16432 0
M  V30 10725 H 985.893 2.93346 -0.623534 0
M  V30 10726 H 983.446 1.52061 -0.361565 0
M  V30 10727 H 984.181 2.60785 1.92774 0
M  V30 10728 H 983.966 3.86277 0.673248 0
M  V30 10729 H 985.456 3.83063 1.6629 0
M  V30 10730 N 985.893 0.34162 1.53853 0
M  V30 10731 C 986.856 -0.503541 2.236 0
M  V30 10732 C 987.856 -1.02912 1.23554 0
M  V30 10733 O 989.046 -0.918678 1.48007 0
M  V30 10734 C 986.178 -1.70126 2.95415 0
M  V30 10735 H 987.371 0.106437 2.99711 0
M  V30 10736 H 984.924 0.0929408 1.56023 0
M  V30 10737 H 985.659 -2.34999 2.23486 0
M  V30 10738 H 985.444 -1.33161 3.68796 0
M  V30 10739 H 986.934 -2.30077 3.48503 0
M  V30 10740 N 987.371 -1.57444 0.0701946 0
M  V30 10741 C 988.334 -2.11511 -0.882923 0
M  V30 10742 C 989.334 -1.03879 -1.22743 0
M  V30 10743 O 990.524 -1.29874 -1.16097 0
M  V30 10744 C 987.656 -2.61514 -2.18686 0
M  V30 10745 H 988.849 -2.9703 -0.413873 0
M  V30 10746 H 986.402 -1.55278 -0.178488 0
M  V30 10747 H 987.137 -1.79443 -2.70131 0
M  V30 10748 H 986.922 -3.40185 -1.94978 0
M  V30 10749 H 988.412 -3.03425 -2.86919 0
M  V30 10750 N 988.849 0.203349 -1.56283 0
M  V30 10751 C 990.097 0.923183 -1.79782 0
M  V30 10752 C 990.418 1.84134 -0.64185 0
M  V30 10753 O 989.688 1.92922 0.340292 0
M  V30 10754 H 988.268 0.343881 -0.66314 0
M  V30 10755 H 990.93 0.210837 -1.93756 0
M  V30 10756 H 990.026 1.51921 -2.72629 0
M  V30 10757 N 990.327 1.50405 0.470755 0
M  V30 10758 C 991.26 1.63933 1.58749 0
M  V30 10759 C 992.238 0.487444 1.55122 0
M  V30 10760 O 993.422 0.706992 1.74739 0
M  V30 10761 C 990.549 1.62222 2.97324 0
M  V30 10762 C 989.595 2.82975 3.19104 0
M  V30 10763 S 990.428 4.44272 2.98969 0
M  V30 10764 C 991.584 4.45254 4.39886 0
M  V30 10765 H 991.817 2.58396 1.47034 0
M  V30 10766 H 989.35 1.39672 0.658115 0
M  V30 10767 H 991.308 1.6192 3.77217 0
M  V30 10768 H 989.969 0.689944 3.06429 0
M  V30 10769 H 989.162 2.78083 4.2034 0
M  V30 10770 H 988.764 2.80846 2.46984 0
M  V30 10771 H 991.056 4.18837 5.32524 0
M  V30 10772 H 991.999 5.4687 4.49821 0
M  V30 10773 H 992.407 3.74958 4.2198 0
M  V30 10774 N 991.805 -0.723954 1.39988 0
M  V30 10775 C 992.715 -1.86829 1.41887 0
M  V30 10776 C 993.731 -1.71173 0.312401 0
M  V30 10777 O 994.907 -1.93583 0.555651 0
M  V30 10778 C 991.972 -3.22541 1.27154 0
M  V30 10779 C 991.033 -3.50512 2.47871 0
M  V30 10780 C 990.266 -4.79749 2.33831 0
M  V30 10781 O 990.489 -5.54251 1.34765 0
M  V30 10782 O 989.423 -5.07868 3.23039 0
M  V30 10783 H 993.249 -1.88183 2.38371 0
M  V30 10784 H 990.834 -0.873259 1.21221 0
M  V30 10785 H 992.716 -4.0362 1.21114 0
M  V30 10786 H 991.391 -3.21933 0.337715 0
M  V30 10787 H 990.298 -2.69475 2.59488 0
M  V30 10788 H 991.631 -3.55909 3.39985 0
M  V30 10789 N 993.283 -1.25346 -0.955304 0
M  V30 10790 C 994.513 -1.12629 -1.732 0
M  V30 10791 C 994.921 0.322748 -1.86427 0
M  V30 10792 O 994.264 1.23381 -1.36099 0
M  V30 10793 C 994.326 -1.7064 -3.16421 0
M  V30 10794 C 993.99 -3.19632 -3.26626 0
M  V30 10795 C 994.987 -4.1663 -3.10991 0
M  V30 10796 C 992.672 -3.59829 -3.50468 0
M  V30 10797 C 994.666 -5.51806 -3.19043 0
M  V30 10798 C 992.353 -4.95143 -3.58157 0
M  V30 10799 C 993.351 -5.90941 -3.42459 0
M  V30 10800 O 993.039 -7.23792 -3.49828 0
M  V30 10801 H 992.771 -0.393646 -0.549562 0
M  V30 10802 H 995.325 -1.66184 -1.20715 0
M  V30 10803 H 993.555 -1.11532 -3.70267 0
M  V30 10804 H 995.244 -1.53032 -3.75947 0
M  V30 10805 H 996.01 -3.86915 -2.92441 0
M  V30 10806 H 991.889 -2.8576 -3.61749 0
M  V30 10807 H 995.433 -6.26559 -3.06707 0
M  V30 10808 H 991.33 -5.24525 -3.76224 0
M  V30 10809 H 992.098 -7.31879 -3.66463 0
M  V30 10810 N 994.761 1.15782 -1.06922 0
M  V30 10811 C 995.691 2.22538 -0.707045 0
M  V30 10812 C 996.672 1.67371 0.303471 0
M  V30 10813 O 997.857 1.9339 0.177189 0
M  V30 10814 C 994.987 3.47158 -0.0994269 0
M  V30 10815 C 993.941 4.15257 -1.03661 0
M  V30 10816 C 993.267 5.33902 -0.291974 0
M  V30 10817 C 994.567 4.65516 -2.36837 0
M  V30 10818 H 996.261 2.53089 -1.59958 0
M  V30 10819 H 993.807 1.21649 -0.770552 0
M  V30 10820 H 995.76 4.21073 0.165852 0
M  V30 10821 H 994.484 3.15926 0.828155 0
M  V30 10822 H 993.143 3.43276 -1.28674 0
M  V30 10823 H 992.791 4.98926 0.638928 0
M  V30 10824 H 992.491 5.80407 -0.916613 0
M  V30 10825 H 994.015 6.1059 -0.0343915 0
M  V30 10826 H 995.429 5.30981 -2.16175 0
M  V30 10827 H 993.826 5.22666 -2.94856 0
M  V30 10828 H 994.896 3.81387 -2.99453 0
M  V30 10829 N 996.239 0.8527 1.3254 0
M  V30 10830 C 997.149 0.298744 2.3269 0
M  V30 10831 C 998.165 -0.582418 1.63963 0
M  V30 10832 O 999.341 -0.483253 1.95516 0
M  V30 10833 C 996.406 -0.505453 3.42996 0
M  V30 10834 C 995.467 0.401618 4.27417 0
M  V30 10835 C 994.7 -0.364294 5.32455 0
M  V30 10836 O 994.923 -1.59448 5.47661 0
M  V30 10837 O 993.857 0.268892 6.01299 0
M  V30 10838 H 997.683 1.12843 2.81958 0
M  V30 10839 H 995.268 0.615584 1.36128 0
M  V30 10840 H 997.15 -0.961974 4.10273 0
M  V30 10841 H 995.825 -1.31197 2.95921 0
M  V30 10842 H 994.732 0.906274 3.62957 0
M  V30 10843 H 996.065 1.17327 4.78012 0
M  V30 10844 N 997.718 -1.45297 0.610449 0
M  V30 10845 C 998.943 -2.07101 0.111414 0
M  V30 10846 C 999.368 -1.45161 -1.19625 0
M  V30 10847 O 998.726 -0.545368 -1.72903 0
M  V30 10848 C 998.774 -3.60598 -0.0117372 0
M  V30 10849 O 997.878 -3.98512 -1.06122 0
M  V30 10850 H 997.219 -0.659709 0.075364 0
M  V30 10851 H 999.749 -1.86504 0.841269 0
M  V30 10852 H 999.759 -4.07464 -0.209028 0
M  V30 10853 H 998.434 -4.05067 0.943076 0
M  V30 10854 H 997.011 -3.63312 -0.840158 0
M  V30 10855 N 999.196 -0.349774 -1.5367 0
M  V30 10856 C 1000.14 0.504121 -2.25227 0
M  V30 10857 C 1001.11 1.09048 -1.2529 0
M  V30 10858 O 1002.3 1.12594 -1.54037 0
M  V30 10859 C 999.438 1.64601 -3.03316 0
M  V30 10860 C 998.551 1.08635 -4.18118 0
M  V30 10861 C 997.686 2.19605 -4.83681 0
M  V30 10862 C 996.725 1.61023 -5.90541 0
M  V30 10863 N 995.862 2.6576 -6.49858 0
M  V30 10864 H 1000.7 -0.112621 -2.97787 0
M  V30 10865 H 998.239 -0.0673503 -1.46946 0
M  V30 10866 H 1000.2 2.31836 -3.46854 0
M  V30 10867 H 998.827 2.23364 -2.33041 0
M  V30 10868 H 997.879 0.304748 -3.79177 0
M  V30 10869 H 999.191 0.617911 -4.94958 0
M  V30 10870 H 998.345 2.94693 -5.30322 0
M  V30 10871 H 997.084 2.69795 -4.06278 0
M  V30 10872 H 996.089 0.844428 -5.43277 0
M  V30 10873 H 997.314 1.11677 -6.69855 0
M  V30 10874 H 995.26 3.15193 -5.75317 0
M  V30 10875 H 995.177 2.23557 -7.2219 0
M  V30 10876 H 996.445 3.40598 -7.01151 0
M  V30 10877 N 1000.67 1.57404 -0.0785433 0
M  V30 10878 C 1001.91 1.95621 0.592595 0
M  V30 10879 C 1002.28 0.958429 1.66367 0
M  V30 10880 O 1003.48 1.2285 2.39084 0
M  V30 10881 C 1001.75 3.38445 1.14846 0
M  V30 10882 S 1003.31 3.98645 1.83378 0
M  V30 10883 H 1000.13 0.684063 0.193851 0
M  V30 10884 H 1002.73 1.94892 -0.154007 0
M  V30 10885 H 1001.43 4.08843 0.357179 0
M  V30 10886 H 1000.96 3.42733 1.93127 0
M  V30 10887 H 1002.98 3.86099 3.11676 0
M  V30 10888 N 1002.15 -0.195058 1.56388 0
M  V30 10889 C 1003.39 -0.92221 1.82413 0
M  V30 10890 C 1003.76 -1.80444 0.656037 0
M  V30 10891 O 1004.96 -2.56738 0.796182 0
M  V30 10892 C 1003.23 -1.71687 3.13462 0
M  V30 10893 S 1004.79 -2.49604 3.60892 0
M  V30 10894 H 1001.6 -0.309316 0.640191 0
M  V30 10895 H 1004.21 -0.185613 1.94617 0
M  V30 10896 H 1002.91 -1.05936 3.96492 0
M  V30 10897 H 1002.44 -2.49529 3.04137 0
M  V30 10898 H 1004.46 -3.73794 3.26332 0
M  V30 10899 N 1003.63 -1.50653 -0.462772 0
M  V30 10900 C 1004.88 -1.61296 -1.21105 0
M  V30 10901 C 1005.19 -0.322757 -1.92919 0
M  V30 10902 O 1006.4 -0.308211 -2.69745 0
M  V30 10903 C 1004.85 -2.84752 -2.201 0
M  V30 10904 C 1004.46 -4.20681 -1.54051 0
M  V30 10905 C 1006.21 -3.04744 -2.95518 0
M  V30 10906 C 1004.11 -5.35314 -2.51381 0
M  V30 10907 H 1003.04 -0.60069 -0.455728 0
M  V30 10908 H 1005.69 -1.77093 -0.480656 0
M  V30 10909 H 1004.08 -2.62532 -2.96467 0
M  V30 10910 H 1005.25 -4.53187 -0.834168 0
M  V30 10911 H 1003.56 -4.06361 -0.908828 0
M  V30 10912 H 1006.16 -3.87559 -3.68378 0
M  V30 10913 H 1006.5 -2.16802 -3.55391 0
M  V30 10914 H 1007.04 -3.27185 -2.26263 0
M  V30 10915 H 1003.78 -6.25437 -1.96235 0
M  V30 10916 H 1003.3 -5.07216 -3.20144 0
M  V30 10917 H 1004.98 -5.66229 -3.1304 0
M  V30 10918 N 1005.11 0.71652 -1.4037 0
M  V30 10919 C 1006.06 1.82219 -1.37041 0
M  V30 10920 C 1007.04 1.58975 -0.248116 0
M  V30 10921 O 1008.23 1.70164 -0.487147 0
M  V30 10922 C 1005.36 3.20337 -1.23446 0
M  V30 10923 C 1004.45 3.49347 -2.40452 0
M  V30 10924 N 1004.84 3.49179 -3.65934 0
M  V30 10925 C 1003.14 3.798 -2.33811 0
M  V30 10926 C 1003.84 3.76506 -4.43416 0
M  V30 10927 N 1002.82 3.95209 -3.73244 0
M  V30 10928 H 1006.62 1.80421 -2.32003 0
M  V30 10929 H 1004.13 0.915603 -1.34129 0
M  V30 10930 H 1006.13 3.99513 -1.19143 0
M  V30 10931 H 1004.79 3.23362 -0.294497 0
M  V30 10932 H 1005.8 3.30051 -3.99107 0
M  V30 10933 H 1002.48 3.9032 -1.48177 0
M  V30 10934 H 1003.87 3.82689 -5.52267 0
M  V30 10935 N 1006.59 1.25851 0.948643 0
M  V30 10936 C 1008 1.02802 1.22081 0
M  V30 10937 C 1008.2 -0.251461 1.99925 0
M  V30 10938 O 1007.26 -0.962592 2.33432 0
M  V30 10939 C 1008.57 2.25489 1.98936 0
M  V30 10940 C 1010.12 2.30312 2.11956 0
M  V30 10941 C 1010.59 3.52671 2.92211 0
M  V30 10942 N 1012.09 3.53103 2.99787 0
M  V30 10943 C 1012.82 4.44445 3.62294 0
M  V30 10944 N 1012.32 5.46065 4.26362 0
M  V30 10945 N 1014.11 4.32113 3.59493 0
M  V30 10946 H 1006.26 2.08042 0.428044 0
M  V30 10947 H 1008.52 0.913928 0.251872 0
M  V30 10948 H 1008.23 3.18513 1.4914 0
M  V30 10949 H 1008.1 2.2914 2.99624 0
M  V30 10950 H 1010.49 1.37808 2.60946 0
M  V30 10951 H 1010.57 2.30676 1.10554 0
M  V30 10952 H 1010.22 4.45501 2.43909 0
M  V30 10953 H 1010.15 3.49554 3.93853 0
M  V30 10954 H 1012.64 2.79597 2.54232 0
M  V30 10955 H 1012.95 6.11964 4.71932 0
M  V30 10956 H 1011.29 5.49931 4.24972 0
M  V30 10957 H 1014.49 3.51946 3.08629 0
M  V30 10958 H 1014.66 5.03493 4.0792 0
M  V30 10959 N 1008.06 -1.15214 1.07534 0
M  V30 10960 C 1009.34 -1.82155 0.71267 0
M  V30 10961 C 1009.72 -1.95163 -0.804655 0
M  V30 10962 O 1009.07 -1.50451 -1.71979 0
M  V30 10963 C 1009.28 -3.18392 1.42925 0
M  V30 10964 C 1010.63 -3.94005 1.58256 0
M  V30 10965 O 1011.65 -3.27952 1.39018 0
M  V30 10966 O 1010.51 -5.12436 1.89925 0
M  V30 10967 H 1007.6 -0.78709 0.253808 0
M  V30 10968 H 1010.15 -1.22309 1.17638 0
M  V30 10969 H 1008.92 -3.04034 2.46331 0
M  V30 10970 H 1008.55 -3.85925 0.956439 0
M  V30 10971 N 1009.54 -0.859717 -1.32086 0
M  V30 10972 C 1010.47 -0.323502 -2.31248 0
M  V30 10973 C 1011.45 0.580085 -1.59903 0
M  V30 10974 O 1012.64 0.499265 -1.87673 0
M  V30 10975 C 1009.77 0.484661 -3.43902 0
M  V30 10976 C 1008.72 -0.324933 -4.26765 0
M  V30 10977 C 1008.05 0.608281 -5.31229 0
M  V30 10978 C 1009.35 -1.55344 -4.98664 0
M  V30 10979 H 1011.04 -1.15209 -2.76346 0
M  V30 10980 H 1008.59 -0.555442 -1.32856 0
M  V30 10981 H 1010.54 0.870238 -4.12316 0
M  V30 10982 H 1009.27 1.34666 -2.97544 0
M  V30 10983 H 1007.92 -0.692328 -3.60003 0
M  V30 10984 H 1007.57 1.46727 -4.81124 0
M  V30 10985 H 1007.27 0.0705571 -5.87558 0
M  V30 10986 H 1008.8 0.990925 -6.02506 0
M  V30 10987 H 1010.21 -1.23987 -5.59732 0
M  V30 10988 H 1008.61 -2.02947 -5.64741 0
M  V30 10989 H 1009.68 -2.31192 -4.26237 0
M  V30 10990 N 1011.02 1.44971 -0.618145 0
M  V30 10991 C 1011.98 2.29044 0.0846739 0
M  V30 10992 C 1012.98 1.40341 0.784921 0
M  V30 10993 O 1014.17 1.62351 0.631479 0
M  V30 10994 C 1011.31 3.21617 1.13027 0
M  V30 10995 H 1012.5 2.92668 -0.654612 0
M  V30 10996 H 1010.05 1.51668 -0.377672 0
M  V30 10997 H 1010.79 2.62815 1.89997 0
M  V30 10998 H 1010.57 3.86969 0.63224 0
M  V30 10999 H 1012.06 3.84805 1.62218 0
M  V30 11000 N 1012.5 0.357919 1.53482 0
M  V30 11001 C 1013.46 -0.479797 2.24122 0
M  V30 11002 C 1014.46 -1.01596 1.24639 0
M  V30 11003 O 1015.65 -0.902928 1.48973 0
M  V30 11004 C 1012.78 -1.66983 2.97203 0
M  V30 11005 H 1013.98 0.138219 2.99581 0
M  V30 11006 H 1011.53 0.109484 1.55916 0
M  V30 11007 H 1012.26 -2.32615 2.25966 0
M  V30 11008 H 1012.05 -1.29242 3.70188 0
M  V30 11009 H 1013.54 -2.26367 3.50924 0
M  V30 11010 N 1013.98 -1.5736 0.0868897 0
M  V30 11011 C 1015.39 -1.57304 -0.269762 0
M  V30 11012 C 1015.59 -1.09745 -1.68992 0
M  V30 11013 O 1014.65 -0.77017 -2.40468 0
M  V30 11014 C 1015.96 -3.00628 -0.0656646 0
M  V30 11015 C 1017.51 -3.12713 -0.134045 0
M  V30 11016 C 1017.98 -4.57981 0.0419569 0
M  V30 11017 N 1019.48 -4.63198 -0.0131501 0
M  V30 11018 C 1020.21 -5.73316 0.0983964 0
M  V30 11019 N 1019.71 -6.92296 0.264315 0
M  V30 11020 N 1021.5 -5.62086 0.0402517 0
M  V30 11021 H 1013.65 -1.86585 1.01487 0
M  V30 11022 H 1015.91 -0.860843 0.397055 0
M  V30 11023 H 1015.62 -3.39592 0.914891 0
M  V30 11024 H 1015.49 -3.68367 -0.811522 0
M  V30 11025 H 1017.88 -2.73627 -1.1051 0
M  V30 11026 H 1017.96 -2.47582 0.643167 0
M  V30 11027 H 1017.61 -4.9776 1.00984 0
M  V30 11028 H 1017.54 -5.21162 -0.754847 0
M  V30 11029 H 1020.03 -3.77644 -0.139183 0
M  V30 11030 H 1020.34 -7.72047 0.341165 0
M  V30 11031 H 1018.68 -6.94353 0.299876 0
M  V30 11032 H 1021.88 -4.68017 -0.0881801 0
M  V30 11033 H 1022.05 -6.47868 0.130635 0
M  V30 11034 N 1015.45 0.186762 -1.56489 0
M  V30 11035 C 1016.4 1.25084 -1.96104 0
M  V30 11036 C 1017.4 1.4667 -0.847609 0
M  V30 11037 O 1018.6 1.47432 -1.03266 0
M  V30 11038 H 1014.98 0.420121 -0.623701 0
M  V30 11039 H 1016.95 0.889761 -2.84826 0
M  V30 11040 C 1015.7 2.5863 -2.32392 0
M  V30 11041 H 1015.02 2.42838 -3.176 0
M  V30 11042 H 1016.46 3.3181 -2.63967 0
M  V30 11043 C 1014.92 3.16241 -1.16159 0
M  V30 11044 O 1015.45 3.99272 -0.441034 0
M  V30 11045 N 1013.66 2.75106 -0.936206 0
M  V30 11046 H 1013.2 2.0769 -1.5239 0
M  V30 11047 H 1013.16 3.13991 -0.160317 0
M  V30 11048 N 1016.93 1.50896 0.454776 0
M  V30 11049 C 1018.17 1.64347 1.21529 0
M  V30 11050 C 1018.54 0.343869 1.88896 0
M  V30 11051 O 1019.74 0.353973 2.66459 0
M  V30 11052 C 1018.01 2.80199 2.21864 0
M  V30 11053 S 1019.57 3.13879 3.06636 0
M  V30 11054 H 1016.39 0.579193 0.412379 0
M  V30 11055 H 1018.99 1.88741 0.509629 0
M  V30 11056 H 1017.69 3.73086 1.70982 0
M  V30 11057 H 1017.22 2.57941 2.97036 0
M  V30 11058 H 1019.24 2.58964 4.23264 0
M  V30 11059 N 1018.41 -0.709066 1.40748 0
M  V30 11060 C 1019.34 -1.83583 1.4429 0
M  V30 11061 C 1020.32 -1.67378 0.303067 0
M  V30 11062 O 1021.51 -1.87312 0.512612 0
M  V30 11063 C 1018.64 -3.21599 1.31116 0
M  V30 11064 C 1017.59 -3.52486 2.4277 0
M  V30 11065 C 1016.92 -4.89716 2.14668 0
M  V30 11066 C 1018.22 -3.52824 3.85113 0
M  V30 11067 H 1019.91 -1.80876 2.38588 0
M  V30 11068 H 1017.46 -0.868795 1.14839 0
M  V30 11069 H 1019.41 -4.00123 1.32209 0
M  V30 11070 H 1018.13 -3.24898 0.332965 0
M  V30 11071 H 1016.79 -2.76305 2.40937 0
M  V30 11072 H 1016.44 -4.89625 1.15224 0
M  V30 11073 H 1016.14 -5.11347 2.89478 0
M  V30 11074 H 1017.66 -5.70566 2.17455 0
M  V30 11075 H 1019.08 -4.21377 3.88734 0
M  V30 11076 H 1017.48 -3.85984 4.59496 0
M  V30 11077 H 1018.55 -2.52073 4.14231 0
M  V30 11078 N 1019.89 -1.26353 -0.941956 0
M  V30 11079 C 1021.14 -1.12017 -1.69056 0
M  V30 11080 C 1021.47 0.335856 -1.91274 0
M  V30 11081 O 1020.74 1.24677 -1.49285 0
M  V30 11082 C 1021.03 -1.88889 -3.06583 0
M  V30 11083 C 1020.88 -3.42394 -2.91696 0
M  V30 11084 C 1022.2 -1.68209 -4.06686 0
M  V30 11085 H 1019.32 -0.408311 -0.613556 0
M  V30 11086 H 1021.96 -1.55339 -1.09407 0
M  V30 11087 H 1020.11 -1.5207 -3.57501 0
M  V30 11088 H 1021.78 -3.88962 -2.48005 0
M  V30 11089 H 1020.02 -3.69459 -2.27338 0
M  V30 11090 H 1020.7 -3.91408 -3.89235 0
M  V30 11091 H 1023.17 -2.00286 -3.64726 0
M  V30 11092 H 1022.05 -2.24412 -5.00929 0
M  V30 11093 H 1022.31 -0.626474 -4.37639 0
M  V30 11094 N 1021.37 1.14642 -1.08144 0
M  V30 11095 C 1022.6 1.89484 -0.830864 0
M  V30 11096 C 1023.01 1.78443 0.616722 0
M  V30 11097 O 1022.37 1.14191 1.42361 0
M  V30 11098 C 1022.42 3.39554 -1.24039 0
M  V30 11099 O 1022.14 3.50286 -2.63119 0
M  V30 11100 C 1023.64 4.31399 -1.02029 0
M  V30 11101 H 1020.86 0.600283 -0.299835 0
M  V30 11102 H 1023.4 1.45204 -1.44001 0
M  V30 11103 H 1021.56 3.81467 -0.675407 0
M  V30 11104 H 1021.97 4.43481 -2.80045 0
M  V30 11105 H 1023.45 5.35079 -1.35625 0
M  V30 11106 H 1023.92 4.39179 0.0428697 0
M  V30 11107 H 1024.53 3.95238 -1.57057 0
M  V30 11108 N 1022.85 0.866709 1.31628 0
M  V30 11109 C 1023.76 0.323408 2.3236 0
M  V30 11110 C 1024.77 -0.564995 1.64572 0
M  V30 11111 O 1025.95 -0.462489 1.96018 0
M  V30 11112 C 1023.01 -0.469045 3.43513 0
M  V30 11113 C 1022.07 0.446928 4.26967 0
M  V30 11114 C 1021.31 -0.307799 5.32812 0
M  V30 11115 O 1021.53 -1.5363 5.49321 0
M  V30 11116 O 1020.46 0.332653 6.0098 0
M  V30 11117 H 1024.29 1.15827 2.80745 0
M  V30 11118 H 1021.87 0.629987 1.35468 0
M  V30 11119 H 1023.76 -0.918405 4.1127 0
M  V30 11120 H 1022.43 -1.28051 2.97296 0
M  V30 11121 H 1021.34 0.944719 3.61975 0
M  V30 11122 H 1022.67 1.2239 4.76741 0
M  V30 11123 N 1024.32 -1.44642 0.625825 0
M  V30 11124 C 1025.27 -2.30653 -0.082259 0
M  V30 11125 C 1026.24 -1.43174 -0.842052 0
M  V30 11126 O 1027.43 -1.72082 -0.824151 0
M  V30 11127 C 1024.57 -3.2837 -1.06146 0
M  V30 11128 C 1023.68 -4.30953 -0.300638 0
M  V30 11129 C 1022.81 -5.15766 -1.27118 0
M  V30 11130 C 1021.85 -6.10061 -0.499215 0
M  V30 11131 N 1020.99 -6.87591 -1.41995 0
M  V30 11132 H 1025.83 -2.90664 0.657161 0
M  V30 11133 H 1023.37 -1.43215 0.335859 0
M  V30 11134 H 1025.32 -3.83507 -1.6425 0
M  V30 11135 H 1023.95 -2.70072 -1.76807 0
M  V30 11136 H 1023.01 -3.78331 0.396234 0
M  V30 11137 H 1024.32 -4.97892 0.300851 0
M  V30 11138 H 1023.47 -5.75394 -1.92372 0
M  V30 11139 H 1022.21 -4.48888 -1.9066 0
M  V30 11140 H 1021.22 -5.49547 0.166848 0
M  V30 11141 H 1022.44 -6.78973 0.131409 0
M  V30 11142 H 1020.39 -6.23387 -2.04267 0
M  V30 11143 H 1020.3 -7.5095 -0.872354 0
M  V30 11144 H 1021.57 -7.51746 -2.0615 0
M  V30 11145 N 1025.8 -0.366053 -1.5329 0
M  V30 11146 C 1026.75 0.495319 -2.27265 0
M  V30 11147 C 1027.74 1.08298 -1.30261 0
M  V30 11148 O 1028.95 1.02613 -1.47887 0
M  V30 11149 H 1025.32 0.178454 -0.730519 0
M  V30 11150 H 1027.3 -0.150354 -2.98021 0
M  V30 11151 C 1026.04 1.62283 -3.07505 0
M  V30 11152 H 1025.37 1.17993 -3.81992 0
M  V30 11153 H 1026.81 2.20024 -3.62444 0
M  V30 11154 C 1025.27 2.56542 -2.18375 0
M  V30 11155 O 1025.8 3.59371 -1.79486 0
M  V30 11156 N 1024 2.25742 -1.82999 0
M  V30 11157 H 1023.55 1.42159 -2.14822 0
M  V30 11158 H 1023.51 2.89064 -1.2365 0
M  V30 11159 N 1027.28 1.57312 -0.0952337 0
M  V30 11160 C 1028.53 1.94646 0.569284 0
M  V30 11161 C 1028.86 0.977152 1.67825 0
M  V30 11162 O 1028.13 0.0102318 1.94497 0
M  V30 11163 C 1028.42 3.42098 1.12433 0
M  V30 11164 C 1028.27 4.49795 0.0204016 0
M  V30 11165 C 1029.59 3.90866 2.02266 0
M  V30 11166 H 1026.71 0.707779 0.205469 0
M  V30 11167 H 1029.35 1.89274 -0.16597 0
M  V30 11168 H 1027.5 3.46807 1.75092 0
M  V30 11169 H 1029.17 4.57198 -0.613845 0
M  V30 11170 H 1027.41 4.28964 -0.645965 0
M  V30 11171 H 1028.09 5.50166 0.449579 0
M  V30 11172 H 1030.56 3.88311 1.49512 0
M  V30 11173 H 1029.44 4.94604 2.38029 0
M  V30 11174 H 1029.7 3.30167 2.9401 0
M  V30 11175 N 1028.76 -0.17846 1.56586 0
M  V30 11176 C 1029.69 -1.22342 1.98884 0
M  V30 11177 C 1030.67 -1.46564 0.86331 0
M  V30 11178 O 1031.85 -1.58019 1.12887 0
M  V30 11179 C 1028.98 -2.56396 2.34261 0
M  V30 11180 C 1027.94 -2.46756 3.49708 0
M  V30 11181 C 1027.26 -3.85235 3.70807 0
M  V30 11182 C 1028.56 -1.97838 4.83381 0
M  V30 11183 H 1030.26 -0.871848 2.86425 0
M  V30 11184 H 1027.8 -0.417948 1.37801 0
M  V30 11185 H 1029.76 -3.29695 2.62448 0
M  V30 11186 H 1028.48 -2.93327 1.43621 0
M  V30 11187 H 1027.14 -1.75912 3.21637 0
M  V30 11188 H 1026.79 -4.19547 2.7747 0
M  V30 11189 H 1026.49 -3.79655 4.48481 0
M  V30 11190 H 1028.01 -4.60131 4.01387 0
M  V30 11191 H 1029.43 -2.60906 5.10491 0
M  V30 11192 H 1027.82 -2.03223 5.64642 0
M  V30 11193 H 1028.89 -0.932339 4.75852 0
M  V30 11194 N 1030.24 -1.51135 -0.446768 0
M  V30 11195 C 1031.18 -1.71767 -1.54158 0
M  V30 11196 C 1032.15 -0.559201 -1.56404 0
M  V30 11197 O 1033.34 -0.792567 -1.7356 0
M  V30 11198 C 1030.48 -1.84006 -2.91952 0
M  V30 11199 C 1029.59 -3.11511 -2.99308 0
M  V30 11200 C 1028.73 -3.144 -4.28166 0
M  V30 11201 C 1027.76 -4.36258 -4.29355 0
M  V30 11202 N 1026.9 -4.3675 -5.49722 0
M  V30 11203 H 1031.74 -2.65224 -1.35869 0
M  V30 11204 H 1029.28 -1.31453 -0.660186 0
M  V30 11205 H 1031.24 -1.89083 -3.71892 0
M  V30 11206 H 1029.87 -0.939661 -3.08821 0
M  V30 11207 H 1028.92 -3.15788 -2.12089 0
M  V30 11208 H 1030.23 -4.01445 -2.96047 0
M  V30 11209 H 1029.38 -3.18341 -5.16473 0
M  V30 11210 H 1028.12 -2.22338 -4.3407 0
M  V30 11211 H 1027.13 -4.32503 -3.39442 0
M  V30 11212 H 1028.35 -5.29574 -4.25122 0
M  V30 11213 H 1026.3 -3.47554 -5.56365 0
M  V30 11214 H 1026.22 -5.20481 -5.48302 0
M  V30 11215 H 1027.48 -4.4487 -6.40086 0
M  V30 11216 N 1031.71 0.701592 -1.41122 0
M  V30 11217 C 1032.96 1.45722 -1.39456 0
M  V30 11218 C 1033.28 1.95599 -0.00475228 0
M  V30 11219 O 1034.48 2.71166 0.134529 0
M  V30 11220 C 1032.94 2.63475 -2.45172 0
M  V30 11221 C 1032.55 2.20409 -3.90031 0
M  V30 11222 C 1034.29 3.4114 -2.52633 0
M  V30 11223 C 1032.2 3.35084 -4.87312 0
M  V30 11224 H 1031.13 0.547341 -0.518588 0
M  V30 11225 H 1033.78 0.762233 -1.6692 0
M  V30 11226 H 1032.16 3.35212 -2.10829 0
M  V30 11227 H 1033.33 1.56 -4.3359 0
M  V30 11228 H 1031.65 1.55752 -3.86174 0
M  V30 11229 H 1034.25 4.26496 -3.22498 0
M  V30 11230 H 1034.59 3.85915 -1.56125 0
M  V30 11231 H 1035.12 2.76456 -2.86037 0
M  V30 11232 H 1031.86 2.95327 -5.85203 0
M  V30 11233 H 1031.38 3.98362 -4.48406 0
M  V30 11234 H 1033.06 4.00949 -5.07788 0
M  V30 11235 N 1033.19 1.2685 0.935242 0
M  V30 11236 C 1034.42 1.15645 1.72165 0
M  V30 11237 C 1034.84 -0.283909 1.85945 0
M  V30 11238 O 1034.2 -1.20567 1.354 0
M  V30 11239 C 1034.25 1.83689 3.10307 0
M  V30 11240 O 1033.35 1.12972 3.96625 0
M  V30 11241 H 1032.69 0.402629 0.528002 0
M  V30 11242 H 1035.22 1.67781 1.17093 0
M  V30 11243 H 1035.23 1.90749 3.60664 0
M  V30 11244 H 1033.91 2.88472 2.99595 0
M  V30 11245 H 1032.48 1.13929 3.5507 0
M  V30 11246 N 1034.67 -1.14067 1.0875 0
M  V30 11247 C 1035.95 -1.81389 0.73195 0
M  V30 11248 C 1036.33 -1.96005 -0.78391 0
M  V30 11249 O 1035.68 -1.52267 -1.70373 0
M  V30 11250 C 1035.89 -3.16858 1.46294 0
M  V30 11251 C 1037.23 -3.92305 1.62426 0
M  V30 11252 O 1038.26 -3.26459 1.42488 0
M  V30 11253 O 1037.12 -5.10393 1.9535 0
M  V30 11254 H 1034.21 -0.784354 0.262141 0
M  V30 11255 H 1036.76 -1.21054 1.18929 0
M  V30 11256 H 1035.53 -3.01404 2.49542 0
M  V30 11257 H 1035.15 -3.84889 0.997318 0
M  V30 11258 N 1036.15 -0.873678 -1.31166 0
M  V30 11259 C 1037.4 -0.486457 -1.9657 0
M  V30 11260 C 1037.72 0.962042 -1.69041 0
M  V30 11261 O 1036.98 1.69305 -0.981543 0
M  V30 11262 C 1037.28 -0.69462 -3.50585 0
M  V30 11263 C 1036.94 -2.11647 -3.98141 0
M  V30 11264 C 1035.61 -2.50531 -4.10838 0
M  V30 11265 C 1037.96 -3.0436 -4.23101 0
M  V30 11266 C 1035.29 -3.81361 -4.45848 0
M  V30 11267 C 1037.64 -4.34709 -4.59577 0
M  V30 11268 C 1036.3 -4.73502 -4.70481 0
M  V30 11269 H 1035.57 -0.178007 -0.719301 0
M  V30 11270 H 1038.22 -1.10737 -1.56235 0
M  V30 11271 H 1036.52 0.00940878 -3.91799 0
M  V30 11272 H 1038.22 -0.374782 -3.99245 0
M  V30 11273 H 1034.81 -1.8046 -3.88757 0
M  V30 11274 H 1038.99 -2.75544 -4.12782 0
M  V30 11275 H 1034.25 -4.11174 -4.52488 0
M  V30 11276 H 1038.42 -5.06596 -4.77842 0
M  V30 11277 H 1036.05 -5.74919 -4.97365 0
M  V30 11278 N 1037.63 1.44308 -0.633487 0
M  V30 11279 C 1038.87 2.01624 -0.138643 0
M  V30 11280 C 1039.2 1.50101 1.24477 0
M  V30 11281 O 1038.47 0.705575 1.82752 0
M  V30 11282 H 1037.05 0.745439 -0.0482636 0
M  V30 11283 H 1039.71 1.76777 -0.820719 0
M  V30 11284 H 1038.8 3.11913 -0.108136 0
M  V30 11285 N 1039.1 0.374177 1.53094 0
M  V30 11286 C 1040.04 -0.511995 2.22382 0
M  V30 11287 C 1041.02 -1.07617 1.2189 0
M  V30 11288 O 1042.2 -1.13068 1.50824 0
M  V30 11289 C 1039.33 -1.70724 2.92525 0
M  V30 11290 C 1038.37 -1.26972 4.07161 0
M  V30 11291 S 1039.21 -0.263835 5.3485 0
M  V30 11292 C 1040.36 -1.46521 6.08508 0
M  V30 11293 H 1040.59 0.0764311 2.97202 0
M  V30 11294 H 1038.13 0.158307 1.53586 0
M  V30 11295 H 1040.09 -2.39279 3.3355 0
M  V30 11296 H 1038.75 -2.26693 2.17414 0
M  V30 11297 H 1037.94 -2.16172 4.55286 0
M  V30 11298 H 1037.54 -0.663273 3.68072 0
M  V30 11299 H 1039.83 -2.39483 6.33762 0
M  V30 11300 H 1040.78 -1.02517 7.0064 0
M  V30 11301 H 1041.18 -1.67516 5.39072 0
M  V30 11302 N 1040.58 -1.57259 0.103575 0
M  V30 11303 C 1041.81 -1.99424 -0.569638 0
M  V30 11304 C 1042.23 -0.982475 -1.60403 0
M  V30 11305 O 1041.59 0.0479231 -1.81237 0
M  V30 11306 C 1041.64 -3.40527 -1.18633 0
M  V30 11307 O 1040.74 -3.42167 -2.30208 0
M  V30 11308 H 1040.08 -0.648251 -0.143759 0
M  V30 11309 H 1042.61 -2.03739 0.187493 0
M  V30 11310 H 1042.62 -3.78404 -1.5256 0
M  V30 11311 H 1041.3 -4.13686 -0.428582 0
M  V30 11312 H 1039.88 -3.16093 -1.97837 0
M  V30 11313 N 1042.06 0.170153 -1.56679 0
M  V30 11314 C 1043.48 0.521966 -1.50823 0
M  V30 11315 C 1043.68 1.84589 -0.808037 0
M  V30 11316 O 1042.73 2.49791 -0.368891 0
M  V30 11317 C 1044.05 0.553648 -2.95559 0
M  V30 11318 C 1045.59 0.640769 -3.06371 0
M  V30 11319 C 1046.07 0.703332 -4.52567 0
M  V30 11320 N 1047.56 0.76619 -4.56819 0
M  V30 11321 C 1048.29 0.835192 -5.67285 0
M  V30 11322 N 1047.79 0.864957 -6.87379 0
M  V30 11323 N 1049.58 0.874302 -5.55259 0
M  V30 11324 H 1041.73 -0.697952 -2.00605 0
M  V30 11325 H 1044 -0.251787 -0.913952 0
M  V30 11326 H 1043.7 -0.350498 -3.49949 0
M  V30 11327 H 1043.58 1.39973 -3.50268 0
M  V30 11328 H 1045.96 1.53534 -2.52015 0
M  V30 11329 H 1046.05 -0.232008 -2.54746 0
M  V30 11330 H 1045.69 -0.186986 -5.07556 0
M  V30 11331 H 1045.62 1.59227 -5.0195 0
M  V30 11332 H 1048.11 0.751424 -3.70354 0
M  V30 11333 H 1048.42 0.918814 -7.67318 0
M  V30 11334 H 1046.77 0.833215 -6.89987 0
M  V30 11335 H 1049.96 0.848057 -4.60354 0
M  V30 11336 H 1050.13 0.924615 -6.4137 0
M  V30 11337 N 1043.54 1.5137 0.438746 0
M  V30 11338 C 1044.45 1.75424 1.55768 0
M  V30 11339 C 1045.46 0.638409 1.61865 0
M  V30 11340 O 1046.64 0.9205 1.79133 0
M  V30 11341 C 1043.71 1.87288 2.9176 0
M  V30 11342 C 1042.77 3.11137 2.95791 0
M  V30 11343 C 1042 3.22425 4.25297 0
M  V30 11344 O 1042.22 2.39688 5.17596 0
M  V30 11345 O 1041.16 4.15393 4.35583 0
M  V30 11346 H 1044.98 2.70339 1.38386 0
M  V30 11347 H 1042.57 1.35854 0.621609 0
M  V30 11348 H 1044.45 1.97085 3.72472 0
M  V30 11349 H 1043.12 0.955599 3.09273 0
M  V30 11350 H 1042.03 3.06819 2.1404 0
M  V30 11351 H 1043.36 4.02549 2.83223 0
M  V30 11352 N 1045.02 -0.694098 1.41492 0
M  V30 11353 C 1045.93 -1.83778 1.45818 0
M  V30 11354 C 1046.94 -1.70471 0.348639 0
M  V30 11355 O 1048.12 -1.92361 0.596588 0
M  V30 11356 C 1045.18 -3.19771 1.33967 0
M  V30 11357 C 1044.24 -3.45175 2.5525 0
M  V30 11358 C 1043.48 -4.74681 2.43955 0
M  V30 11359 O 1043.7 -5.51268 1.46491 0
M  V30 11360 O 1042.63 -5.00901 3.33739 0
M  V30 11361 H 1046.46 -1.83084 2.42309 0
M  V30 11362 H 1044.05 -0.847349 1.23046 0
M  V30 11363 H 1045.93 -4.00961 1.29648 0
M  V30 11364 H 1044.6 -3.21145 0.405926 0
M  V30 11365 H 1043.51 -2.6391 2.65146 0
M  V30 11366 H 1044.84 -3.48617 3.47458 0
M  V30 11367 N 1046.49 -1.27344 -0.928501 0
M  V30 11368 C 1047.46 -1.10043 -2.01055 0
M  V30 11369 C 1048.46 -0.0446793 -1.60738 0
M  V30 11370 O 1049.65 -0.289202 -1.71783 0
M  V30 11371 C 1046.78 -0.676559 -3.34119 0
M  V30 11372 H 1047.97 -2.06126 -2.17835 0
M  V30 11373 H 1045.53 -1.10121 -1.10919 0
M  V30 11374 H 1046.26 0.285697 -3.23039 0
M  V30 11375 H 1046.05 -1.43903 -3.64739 0
M  V30 11376 H 1047.54 -0.577725 -4.13584 0
M  V30 11377 N 1047.97 1.13488 -1.09353 0
M  V30 11378 C 1049.25 1.80998 -0.741559 0
M  V30 11379 C 1049.63 1.96418 0.773505 0
M  V30 11380 O 1048.98 1.53168 1.69563 0
M  V30 11381 C 1049.19 3.16078 -1.47972 0
M  V30 11382 C 1050.54 3.91438 -1.64504 0
M  V30 11383 O 1051.56 3.25699 -1.44218 0
M  V30 11384 O 1050.42 5.0935 -1.98054 0
M  V30 11385 H 1047.51 0.782953 -0.266297 0
M  V30 11386 H 1050.06 1.20422 -1.19569 0
M  V30 11387 H 1048.83 3.00076 -2.51137 0
M  V30 11388 H 1048.45 3.84354 -1.01772 0
M  V30 11389 N 1049.45 0.880621 1.30701 0
M  V30 11390 C 1050.7 0.495894 1.95922 0
M  V30 11391 C 1051.02 -0.957214 1.69889 0
M  V30 11392 O 1050.29 -1.67245 1.0201 0
M  V30 11393 H 1048.87 0.180394 0.724891 0
M  V30 11394 H 1051.53 1.12274 1.59313 0
M  V30 11395 H 1050.63 0.662508 3.04987 0
M  V30 11396 N 1050.93 -1.4397 0.641131 0
M  V30 11397 C 1052.18 -2.02246 0.14985 0
M  V30 11398 C 1052.51 -1.50387 -1.22871 0
M  V30 11399 O 1051.78 -0.692003 -1.81773 0
M  V30 11400 C 1052.07 -3.59798 0.147449 0
M  V30 11401 C 1051.92 -4.21916 1.55907 0
M  V30 11402 C 1053.24 -4.36985 -0.522667 0
M  V30 11403 H 1050.36 -0.734875 0.0559274 0
M  V30 11404 H 1053 -1.71418 0.819513 0
M  V30 11405 H 1051.15 -3.86193 -0.422789 0
M  V30 11406 H 1052.82 -4.06594 2.17896 0
M  V30 11407 H 1051.06 -3.79028 2.10998 0
M  V30 11408 H 1051.74 -5.30964 1.50934 0
M  V30 11409 H 1054.21 -4.16083 -0.0376226 0
M  V30 11410 H 1053.09 -5.46676 -0.493572 0
M  V30 11411 H 1053.35 -4.12335 -1.59475 0
M  V30 11412 N 1052.41 -0.382291 -1.52893 0
M  V30 11413 C 1053.64 0.202114 -2.05609 0
M  V30 11414 C 1054.05 1.4164 -1.25438 0
M  V30 11415 O 1053.39 1.81359 -0.292324 0
M  V30 11416 C 1053.45 0.64356 -3.53693 0
M  V30 11417 C 1053.11 -0.456305 -4.54716 0
M  V30 11418 C 1054.11 -1.3115 -5.03086 0
M  V30 11419 C 1051.8 -0.621329 -4.98442 0
M  V30 11420 C 1053.79 -2.3169 -5.938 0
M  V30 11421 C 1051.48 -1.63008 -5.88958 0
M  V30 11422 C 1052.48 -2.47629 -6.36529 0
M  V30 11423 O 1052.16 -3.46781 -7.25257 0
M  V30 11424 H 1051.9 0.0358014 -0.675051 0
M  V30 11425 H 1054.45 -0.543935 -1.98067 0
M  V30 11426 H 1052.68 1.44148 -3.58829 0
M  V30 11427 H 1054.37 1.15284 -3.89184 0
M  V30 11428 H 1055.13 -1.19528 -4.70041 0
M  V30 11429 H 1051.01 0.027593 -4.60992 0
M  V30 11430 H 1054.56 -2.97776 -6.30853 0
M  V30 11431 H 1050.45 -1.74671 -6.21418 0
M  V30 11432 H 1051.22 -3.42707 -7.433 0
M  V30 11433 N 1053.89 1.57202 -0.111913 0
M  V30 11434 C 1054.85 2.13778 0.826534 0
M  V30 11435 C 1055.85 1.07097 1.19945 0
M  V30 11436 O 1057.04 1.32906 1.12613 0
M  V30 11437 C 1054.17 2.6722 2.11675 0
M  V30 11438 H 1055.36 2.98023 0.334975 0
M  V30 11439 H 1052.92 1.55696 0.137256 0
M  V30 11440 H 1053.65 1.86542 2.65278 0
M  V30 11441 H 1053.44 3.45235 1.8589 0
M  V30 11442 H 1054.93 3.10926 2.78774 0
M  V30 11443 N 1055.36 -0.161842 1.56767 0
M  V30 11444 C 1056.33 -1.18404 1.96247 0
M  V30 11445 C 1057.33 -1.3667 0.84722 0
M  V30 11446 O 1058.52 -1.33915 1.11411 0
M  V30 11447 C 1055.65 -2.54728 2.26553 0
M  V30 11448 H 1056.84 -0.845703 2.87729 0
M  V30 11449 H 1054.39 -0.404645 1.50971 0
M  V30 11450 H 1055.13 -2.93559 1.37816 0
M  V30 11451 H 1054.91 -2.42834 3.07854 0
M  V30 11452 H 1056.4 -3.28378 2.57987 0
M  V30 11453 N 1056.84 -1.516 -0.430713 0
M  V30 11454 C 1058.07 -1.687 -1.20644 0
M  V30 11455 C 1058.49 -0.386555 -1.84085 0
M  V30 11456 O 1057.85 0.653952 -1.69095 0
M  V30 11457 C 1057.9 -2.80887 -2.2613 0
M  V30 11458 O 1057 -2.44952 -3.31772 0
M  V30 11459 H 1056.34 -0.562289 -0.353167 0
M  V30 11460 H 1058.87 -1.98198 -0.507807 0
M  V30 11461 H 1058.88 -3.05167 -2.70809 0
M  V30 11462 H 1057.56 -3.75249 -1.79334 0
M  V30 11463 H 1056.13 -2.31267 -2.92523 0
M  V30 11464 N 1058.32 0.686584 -1.41858 0
M  V30 11465 C 1059.57 1.44379 -1.41418 0
M  V30 11466 C 1059.89 1.94981 -0.0273696 0
M  V30 11467 O 1059.16 1.72296 0.932248 0
M  V30 11468 H 1057.74 0.53574 -0.520568 0
M  V30 11469 H 1060.4 0.812056 -1.77177 0
M  V30 11470 H 1059.5 2.30258 -2.10684 0
M  V30 11471 N 1059.8 1.27835 0.921735 0
M  V30 11472 C 1061.05 1.14296 1.66676 0
M  V30 11473 C 1061.37 -0.310493 1.92512 0
M  V30 11474 O 1060.64 -1.21637 1.53562 0
M  V30 11475 H 1059.22 0.419994 0.617749 0
M  V30 11476 H 1061.88 1.60449 1.10644 0
M  V30 11477 H 1060.97 1.67654 2.63246 0
M  V30 11478 N 1061.28 -1.12907 1.09954 0
M  V30 11479 C 1062.21 -2.20585 0.765799 0
M  V30 11480 C 1063.19 -1.68117 -0.258989 0
M  V30 11481 O 1064.37 -1.93792 -0.125853 0
M  V30 11482 C 1061.5 -3.46772 0.191435 0
M  V30 11483 C 1060.46 -4.12363 1.14635 0
M  V30 11484 C 1059.78 -5.3294 0.433426 0
M  V30 11485 C 1061.08 -4.59073 2.49096 0
M  V30 11486 H 1062.78 -2.48759 1.66612 0
M  V30 11487 H 1060.32 -1.19563 0.802534 0
M  V30 11488 H 1062.27 -4.21365 -0.0541535 0
M  V30 11489 H 1061 -3.18011 -0.744101 0
M  V30 11490 H 1059.66 -3.39744 1.37731 0
M  V30 11491 H 1059.31 -5.00444 -0.506422 0
M  V30 11492 H 1059.01 -5.77772 1.07018 0
M  V30 11493 H 1060.53 -6.10284 0.196267 0
M  V30 11494 H 1061.94 -5.25063 2.30177 0
M  V30 11495 H 1060.34 -5.14665 3.0861 0
M  V30 11496 H 1061.41 -3.73313 3.0946 0
M  V30 11497 N 1062.75 -0.88754 -1.30232 0
M  V30 11498 C 1064.17 -0.581904 -1.48614 0
M  V30 11499 C 1064.37 0.879711 -1.81282 0
M  V30 11500 O 1063.43 1.66076 -1.90198 0
M  V30 11501 C 1064.74 -1.49726 -2.60773 0
M  V30 11502 C 1066.29 -1.50117 -2.74653 0
M  V30 11503 C 1066.76 -2.40251 -3.89927 0
M  V30 11504 N 1068.25 -2.38229 -3.97242 0
M  V30 11505 C 1068.99 -3.04682 -4.85754 0
M  V30 11506 N 1068.48 -3.80369 -5.79043 0
M  V30 11507 N 1070.28 -2.93901 -4.79144 0
M  V30 11508 H 1062.43 -1.83304 -1.073 0
M  V30 11509 H 1064.69 -0.78477 -0.531826 0
M  V30 11510 H 1064.4 -2.5381 -2.43462 0
M  V30 11511 H 1064.27 -1.20874 -3.57308 0
M  V30 11512 H 1066.66 -0.467832 -2.91368 0
M  V30 11513 H 1066.74 -1.83001 -1.7873 0
M  V30 11514 H 1066.38 -3.43671 -3.73969 0
M  V30 11515 H 1066.31 -2.04682 -4.85194 0
M  V30 11516 H 1068.8 -1.83229 -3.30508 0
M  V30 11517 H 1069.12 -4.28159 -6.4335 0
M  V30 11518 H 1067.46 -3.84477 -5.78967 0
M  V30 11519 H 1070.65 -2.34296 -4.05245 0
M  V30 11520 H 1070.83 -3.45967 -5.47915 0
M  V30 11521 N 1064.23 1.43628 -0.648757 0
M  V30 11522 C 1065.16 2.29045 0.0841858 0
M  V30 11523 C 1066.18 1.42262 0.791537 0
M  V30 11524 O 1067.37 1.66243 0.650039 0
M  V30 11525 C 1064.47 3.19075 1.14212 0
M  V30 11526 C 1063.64 4.34372 0.513799 0
M  V30 11527 C 1062.7 5.05307 1.46803 0
M  V30 11528 O 1061.72 5.60729 0.978346 0
M  V30 11529 N 1062.93 5.08393 2.80209 0
M  V30 11530 H 1065.69 2.9259 -0.648948 0
M  V30 11531 H 1063.25 1.54268 -0.491209 0
M  V30 11532 H 1065.24 3.63395 1.78119 0
M  V30 11533 H 1063.81 2.57161 1.77728 0
M  V30 11534 H 1063.03 3.93024 -0.304262 0
M  V30 11535 H 1064.32 5.08745 0.0749871 0
M  V30 11536 H 1063.72 4.64729 3.22557 0
M  V30 11537 H 1062.28 5.56445 3.3943 0
M  V30 11538 N 1065.71 0.390394 1.52688 0
M  V30 11539 C 1066.96 -0.191729 2.01892 0
M  V30 11540 C 1067.29 -1.4637 1.27631 0
M  V30 11541 O 1066.56 -1.90809 0.377094 0
M  V30 11542 C 1066.85 -0.458535 3.57169 0
M  V30 11543 C 1066.7 0.828796 4.42098 0
M  V30 11544 C 1068.02 -1.2487 4.22014 0
M  V30 11545 H 1065.14 -0.0682091 0.733837 0
M  V30 11546 H 1067.78 0.520176 1.82741 0
M  V30 11547 H 1065.93 -1.06498 3.73618 0
M  V30 11548 H 1067.6 1.46562 4.37398 0
M  V30 11549 H 1065.85 1.44388 4.09066 0
M  V30 11550 H 1066.52 0.596746 5.48765 0
M  V30 11551 H 1068.99 -0.735452 4.09549 0
M  V30 11552 H 1067.87 -1.40412 5.30637 0
M  V30 11553 H 1068.13 -2.2642 3.79719 0
M  V30 11554 N 1067.19 -1.57141 0.120249 0
M  V30 11555 C 1068.6 -1.82256 -0.404931 0
M  V30 11556 C 1068.95 -1.03748 -1.66526 0
M  V30 11557 O 1068.08 -0.274456 -2.14653 0
M  V30 11558 C 1068.67 -3.30588 -0.741431 0
M  V30 11559 C 1067.23 -3.56379 -1.21124 0
M  V30 11560 C 1066.38 -2.76421 -0.220569 0
M  V30 11561 H 1069.33 -1.54897 0.345361 0
M  V30 11562 H 1069.35 -3.45284 -1.59872 0
M  V30 11563 H 1068.86 -3.87701 0.176036 0
M  V30 11564 H 1066.96 -3.04625 -2.14556 0
M  V30 11565 H 1067.07 -4.64952 -1.1557 0
M  V30 11566 H 1065.44 -2.44666 -0.707857 0
M  V30 11567 H 1066.22 -3.36294 0.690018 0
M  V30 11568 N 1068.67 0.153526 -1.5685 0
M  V30 11569 C 1069.91 0.868517 -1.83261 0
M  V30 11570 C 1070.25 1.81112 -0.700857 0
M  V30 11571 O 1069.52 1.92235 0.295989 0
M  V30 11572 C 1069.8 1.6487 -3.2014 0
M  V30 11573 C 1069.66 0.728021 -4.43869 0
M  V30 11574 C 1070.98 2.61259 -3.54163 0
M  V30 11575 H 1068.09 0.314297 -0.666623 0
M  V30 11576 H 1070.74 0.133971 -1.89527 0
M  V30 11577 H 1068.89 2.2749 -3.1493 0
M  V30 11578 H 1070.56 0.113328 -4.61161 0
M  V30 11579 H 1068.8 0.0371744 -4.33784 0
M  V30 11580 H 1069.47 1.30981 -5.36235 0
M  V30 11581 H 1071.95 2.0876 -3.59942 0
M  V30 11582 H 1070.82 3.12902 -4.50981 0
M  V30 11583 H 1071.09 3.42307 -2.79782 0
M  V30 11584 N 1070.14 1.51827 0.422667 0
M  V30 11585 C 1071.09 1.74198 1.51406 0
M  V30 11586 C 1072.06 0.584013 1.55494 0
M  V30 11587 O 1073.25 0.820079 1.72277 0
M  V30 11588 C 1070.39 1.88627 2.88988 0
M  V30 11589 C 1069.5 3.16233 2.94314 0
M  V30 11590 C 1068.63 3.21172 4.2311 0
M  V30 11591 C 1067.67 4.43033 4.2236 0
M  V30 11592 N 1066.81 4.4544 5.42704 0
M  V30 11593 H 1071.65 2.67352 1.31632 0
M  V30 11594 H 1069.19 1.32487 0.63919 0
M  V30 11595 H 1071.15 1.94976 3.68837 0
M  V30 11596 H 1069.78 0.988673 3.07287 0
M  V30 11597 H 1068.83 3.19123 2.07039 0
M  V30 11598 H 1070.14 4.06104 2.89623 0
M  V30 11599 H 1069.29 3.26517 5.11343 0
M  V30 11600 H 1068.03 2.29216 4.30478 0
M  V30 11601 H 1067.04 4.37849 3.32518 0
M  V30 11602 H 1068.26 5.3627 4.16643 0
M  V30 11603 H 1066.21 3.56361 5.50766 0
M  V30 11604 H 1066.13 5.29138 5.39953 0
M  V30 11605 H 1067.39 4.54997 6.32928 0
M  V30 11606 N 1071.62 -0.679052 1.4222 0
M  V30 11607 C 1072.87 -1.43978 1.43673 0
M  V30 11608 C 1073.22 -1.92333 0.0506711 0
M  V30 11609 O 1072.52 -1.67715 -0.926406 0
M  V30 11610 C 1072.71 -2.65528 2.39227 0
M  V30 11611 C 1072.54 -2.29065 3.86987 0
M  V30 11612 C 1071.31 -2.1863 4.55553 0
M  V30 11613 C 1073.51 -1.90983 4.77525 0
M  V30 11614 N 1071.49 -1.75227 5.88361 0
M  V30 11615 C 1072.86 -1.58465 5.99407 0
M  V30 11616 C 1074.92 -1.77938 4.65019 0
M  V30 11617 C 1073.62 -1.14212 7.10175 0
M  V30 11618 C 1075.64 -1.35089 5.75765 0
M  V30 11619 C 1075.01 -1.03493 6.96756 0
M  V30 11620 H 1071.11 -0.523503 0.58092 0
M  V30 11621 H 1073.69 -0.784043 1.78216 0
M  V30 11622 H 1071.86 -3.28797 2.06753 0
M  V30 11623 H 1073.59 -3.32096 2.31288 0
M  V30 11624 H 1070.35 -2.37562 4.09709 0
M  V30 11625 H 1070.77 -1.5596 6.58791 0
M  V30 11626 H 1075.41 -2.01013 3.71959 0
M  V30 11627 H 1073.13 -0.89882 8.03086 0
M  V30 11628 H 1076.72 -1.25522 5.68098 0
M  V30 11629 H 1075.6 -0.708396 7.80994 0
M  V30 11630 N 1073.1 -1.28322 -0.914942 0
M  V30 11631 C 1074.33 -1.18254 -1.69775 0
M  V30 11632 C 1074.74 0.258978 -1.87015 0
M  V30 11633 O 1074.1 1.17514 -1.3963 0
M  V30 11634 C 1074.15 -1.8753 -3.09054 0
M  V30 11635 O 1073.87 -3.26051 -2.92613 0
M  V30 11636 C 1075.37 -1.83749 -4.03424 0
M  V30 11637 H 1072.59 -0.41055 -0.530744 0
M  V30 11638 H 1075.14 -1.69425 -1.14523 0
M  V30 11639 H 1073.29 -1.40233 -3.61128 0
M  V30 11640 H 1073.71 -3.60729 -3.80756 0
M  V30 11641 H 1075.18 -2.36813 -4.98622 0
M  V30 11642 H 1075.66 -0.809601 -4.31674 0
M  V30 11643 H 1076.26 -2.3072 -3.57279 0
M  V30 11644 N 1074.58 1.12322 -1.10551 0
M  V30 11645 C 1075.54 2.16273 -0.758844 0
M  V30 11646 C 1076.54 1.59325 0.217294 0
M  V30 11647 O 1077.73 1.74199 -0.00601346 0
M  V30 11648 C 1074.86 3.40674 -0.124238 0
M  V30 11649 H 1076.06 2.48454 -1.6796 0
M  V30 11650 H 1073.61 1.2735 -0.906188 0
M  V30 11651 H 1074.34 3.14094 0.807194 0
M  V30 11652 H 1074.13 3.83284 -0.826772 0
M  V30 11653 H 1075.62 4.17474 0.102502 0
M  V30 11654 N 1076.06 0.894434 1.2976 0
M  V30 11655 C 1077.47 0.566892 1.77885 0
M  V30 11656 C 1077.82 -0.917289 1.73437 0
M  V30 11657 O 1076.94 -1.71707 1.31703 0
M  V30 11658 C 1077.54 1.02227 3.2301 0
M  V30 11659 C 1076.1 0.745978 3.68934 0
M  V30 11660 C 1075.24 1.19993 2.49994 0
M  V30 11661 H 1078.2 1.0777 1.16496 0
M  V30 11662 H 1078.22 0.355281 3.78838 0
M  V30 11663 H 1077.73 2.1025 3.26215 0
M  V30 11664 H 1075.83 -0.321866 3.71207 0
M  V30 11665 H 1075.94 1.34017 4.59974 0
M  V30 11666 H 1074.31 0.619047 2.47063 0
M  V30 11667 H 1075.09 2.28811 2.55931 0
M  V30 11668 N 1077.53 -1.43282 0.656365 0
M  V30 11669 C 1078.44 -2.34576 -0.033864 0
M  V30 11670 C 1079.46 -1.5406 -0.808793 0
M  V30 11671 O 1080.64 -1.867 -0.755322 0
M  V30 11672 C 1077.7 -3.32378 -0.986197 0
M  V30 11673 C 1076.76 -4.28797 -0.207851 0
M  V30 11674 C 1076 -5.21927 -1.11482 0
M  V30 11675 O 1076.22 -5.19554 -2.35414 0
M  V30 11676 O 1075.15 -5.99045 -0.585536 0
M  V30 11677 H 1078.98 -2.95099 0.717668 0
M  V30 11678 H 1076.56 -1.43475 0.416556 0
M  V30 11679 H 1078.45 -3.9251 -1.53341 0
M  V30 11680 H 1077.12 -2.74354 -1.7179 0
M  V30 11681 H 1076.03 -3.72134 0.383022 0
M  V30 11682 H 1077.36 -4.89811 0.48435 0
M  V30 11683 N 1079.01 -0.398486 -1.52479 0
M  V30 11684 C 1079.98 0.420206 -2.25315 0
M  V30 11685 C 1080.98 0.982559 -1.27289 0
M  V30 11686 O 1082.17 0.863113 -1.51314 0
M  V30 11687 C 1079.3 1.59045 -3.01525 0
M  V30 11688 H 1080.49 -0.217599 -2.9911 0
M  V30 11689 H 1078.04 -0.150784 -1.55571 0
M  V30 11690 H 1078.78 2.26542 -2.32054 0
M  V30 11691 H 1078.56 1.19382 -3.73484 0
M  V30 11692 H 1080.05 2.16984 -3.56802 0
M  V30 11693 N 1080.49 1.57075 -0.12858 0
M  V30 11694 C 1081.42 2.18833 0.814519 0
M  V30 11695 C 1082.4 1.13114 1.2704 0
M  V30 11696 O 1083.59 1.41387 1.33129 0
M  V30 11697 C 1080.72 2.79535 2.06101 0
M  V30 11698 C 1079.67 3.9092 1.74257 0
M  V30 11699 C 1079 4.38473 3.06015 0
M  V30 11700 C 1080.3 5.1257 1.00345 0
M  V30 11701 H 1081.99 2.97895 0.299862 0
M  V30 11702 H 1079.54 1.4329 0.14279 0
M  V30 11703 H 1081.49 3.21401 2.72543 0
M  V30 11704 H 1080.21 1.97777 2.59907 0
M  V30 11705 H 1078.87 3.49645 1.102 0
M  V30 11706 H 1078.52 3.53561 3.57776 0
M  V30 11707 H 1078.22 5.13591 2.85479 0
M  V30 11708 H 1079.75 4.82997 3.7356 0
M  V30 11709 H 1081.16 5.51395 1.56959 0
M  V30 11710 H 1079.56 5.93333 0.898693 0
M  V30 11711 H 1080.63 4.84899 -0.0081335 0
M  V30 11712 N 1081.97 -0.145205 1.5693 0
M  V30 11713 C 1082.92 -1.19841 1.99351 0
M  V30 11714 C 1083.91 -1.44371 0.886197 0
M  V30 11715 O 1085.12 -1.44642 1.07138 0
M  V30 11716 H 1081.49 -0.403437 0.63462 0
M  V30 11717 H 1083.46 -0.813932 2.87085 0
M  V30 11718 C 1082.21 -2.52377 2.39167 0
M  V30 11719 H 1081.54 -2.34332 3.23927 0
M  V30 11720 H 1082.98 -3.24694 2.72671 0
M  V30 11721 C 1081.43 -3.1305 1.24503 0
M  V30 11722 O 1081.96 -3.97962 0.546739 0
M  V30 11723 N 1080.17 -2.72528 1.00882 0
M  V30 11724 H 1079.72 -2.03576 1.57843 0
M  V30 11725 H 1079.68 -3.13456 0.24351 0
M  V30 11726 N 1083.45 -1.52049 -0.414609 0
M  V30 11727 C 1084.68 -1.69433 -1.18221 0
M  V30 11728 C 1085.09 -0.40104 -1.84901 0
M  V30 11729 O 1084.43 0.632342 -1.72474 0
M  V30 11730 C 1084.49 -2.76986 -2.2917 0
M  V30 11731 C 1084.15 -4.18903 -1.82671 0
M  V30 11732 C 1085.15 -5.02929 -1.31751 0
M  V30 11733 C 1082.84 -4.65113 -1.89672 0
M  V30 11734 C 1084.83 -6.31234 -0.884461 0
M  V30 11735 C 1082.52 -5.93408 -1.45978 0
M  V30 11736 C 1083.52 -6.76297 -0.9545 0
M  V30 11737 O 1083.2 -8.02191 -0.523852 0
M  V30 11738 H 1082.94 -0.571228 -0.36149 0
M  V30 11739 H 1085.49 -1.99355 -0.494643 0
M  V30 11740 H 1083.72 -2.42428 -3.01273 0
M  V30 11741 H 1085.41 -2.83023 -2.90951 0
M  V30 11742 H 1086.17 -4.68422 -1.2572 0
M  V30 11743 H 1082.05 -4.00702 -2.27945 0
M  V30 11744 H 1085.6 -6.95881 -0.489383 0
M  V30 11745 H 1081.49 -6.27424 -1.51687 0
M  V30 11746 H 1082.26 -8.15934 -0.647656 0
M  V30 11747 N 1084.93 0.6715 -1.42579 0
M  V30 11748 C 1086.17 1.42871 -1.42941 0
M  V30 11749 C 1086.49 1.94941 -0.0480483 0
M  V30 11750 O 1085.76 1.73275 0.913921 0
M  V30 11751 H 1084.34 0.530189 -0.526221 0
M  V30 11752 H 1087.01 0.793219 -1.78028 0
M  V30 11753 H 1086.1 2.2801 -2.13114 0
M  V30 11754 N 1086.4 1.28806 0.908124 0
M  V30 11755 C 1087.82 1.06634 1.18749 0
M  V30 11756 C 1088.02 -0.187729 2.00624 0
M  V30 11757 O 1087.08 -0.88784 2.36376 0
M  V30 11758 C 1088.39 2.31703 1.91661 0
M  V30 11759 C 1089.94 2.36939 2.04521 0
M  V30 11760 C 1090.41 3.61789 2.80843 0
M  V30 11761 N 1091.9 3.62462 2.88402 0
M  V30 11762 C 1092.64 4.55746 3.47971 0
M  V30 11763 N 1092.13 5.59353 4.08774 0
M  V30 11764 N 1093.93 4.43331 3.45564 0
M  V30 11765 H 1086.08 2.09299 0.36164 0
M  V30 11766 H 1088.34 0.921479 0.222668 0
M  V30 11767 H 1088.05 3.23096 1.38931 0
M  V30 11768 H 1087.92 2.38556 2.92183 0
M  V30 11769 H 1090.31 1.4604 2.5643 0
M  V30 11770 H 1090.39 2.34077 1.03159 0
M  V30 11771 H 1090.03 4.53035 2.29612 0
M  V30 11772 H 1089.96 3.61907 3.82532 0
M  V30 11773 H 1092.45 2.87544 2.45208 0
M  V30 11774 H 1092.77 6.26668 4.52224 0
M  V30 11775 H 1091.11 5.63173 4.07261 0
M  V30 11776 H 1094.3 3.61587 2.97276 0
M  V30 11777 H 1094.48 5.16216 3.91695 0
M  V30 11778 N 1087.88 -1.11734 1.11145 0
M  V30 11779 C 1089.11 -1.86943 0.879534 0
M  V30 11780 C 1089.52 -1.80283 -0.574007 0
M  V30 11781 O 1088.86 -1.17998 -1.40791 0
M  V30 11782 C 1088.92 -3.36738 1.25887 0
M  V30 11783 C 1088.59 -3.67169 2.72095 0
M  V30 11784 C 1089.59 -3.6491 3.7032 0
M  V30 11785 C 1087.27 -3.96272 3.08665 0
M  V30 11786 C 1089.26 -3.91325 5.03134 0
M  V30 11787 C 1086.95 -4.22345 4.41665 0
M  V30 11788 C 1087.95 -4.19859 5.38709 0
M  V30 11789 O 1087.64 -4.4528 6.69314 0
M  V30 11790 H 1087.37 -0.598117 0.315011 0
M  V30 11791 H 1089.92 -1.42253 1.48166 0
M  V30 11792 H 1088.15 -3.82019 0.599873 0
M  V30 11793 H 1089.84 -3.93306 1.00325 0
M  V30 11794 H 1090.61 -3.42481 3.43412 0
M  V30 11795 H 1086.49 -3.97344 2.33749 0
M  V30 11796 H 1090.03 -3.893 5.78871 0
M  V30 11797 H 1085.93 -4.4425 4.68308 0
M  V30 11798 H 1086.7 -4.62863 6.75056 0
M  V30 11799 N 1089.36 -0.901303 -1.29284 0
M  V30 11800 C 1090.58 -0.542823 -2.0017 0
M  V30 11801 C 1091.01 0.865583 -1.67001 0
M  V30 11802 O 1090.37 1.5764 -0.895502 0
M  V30 11803 C 1090.42 -0.743987 -3.52842 0
M  V30 11804 O 1089.52 0.202771 -4.11901 0
M  V30 11805 H 1088.86 -0.211903 -0.62928 0
M  V30 11806 H 1091.39 -1.21333 -1.64741 0
M  V30 11807 H 1091.4 -0.64926 -4.02801 0
M  V30 11808 H 1090.08 -1.77077 -3.7632 0
M  V30 11809 H 1088.65 0.0603637 -3.72851 0
M  V30 11810 N 1090.84 1.42931 -0.663954 0
M  V30 11811 C 1092.06 2.06544 -0.188201 0
M  V30 11812 C 1092.49 1.495 1.14155 0
M  V30 11813 O 1091.85 0.609164 1.7076 0
M  V30 11814 C 1091.89 3.60393 -0.122105 0
M  V30 11815 O 1091 4.02176 0.91258 0
M  V30 11816 H 1090.34 0.656458 -0.0997967 0
M  V30 11817 H 1092.87 1.83253 -0.909909 0
M  V30 11818 H 1092.88 4.07959 0.0576568 0
M  V30 11819 H 1091.55 4.01287 -1.09276 0
M  V30 11820 H 1090.13 3.6618 0.704738 0
M  V30 11821 N 1092.32 0.406567 1.52266 0
M  V30 11822 C 1093.23 -0.4271 2.30679 0
M  V30 11823 C 1094.24 -1.0559 1.383 0
M  V30 11824 O 1095.42 -1.05797 1.71374 0
M  V30 11825 C 1092.48 -1.53008 3.1111 0
M  V30 11826 C 1091.54 -0.924604 4.19225 0
M  V30 11827 C 1090.78 -1.97502 4.95811 0
M  V30 11828 O 1091 -3.19277 4.72671 0
M  V30 11829 O 1089.93 -1.58268 5.80719 0
M  V30 11830 H 1093.76 0.212187 3.02958 0
M  V30 11831 H 1091.34 0.169835 1.48432 0
M  V30 11832 H 1093.23 -2.17046 3.61205 0
M  V30 11833 H 1091.9 -2.15401 2.41628 0
M  V30 11834 H 1090.81 -0.247009 3.73284 0
M  V30 11835 H 1092.14 -0.34463 4.90992 0
M  V30 11836 N 1093.79 -1.57004 0.136909 0
M  V30 11837 C 1095.02 -2.00587 -0.527209 0
M  V30 11838 C 1095.44 -1.01628 -1.58283 0
M  V30 11839 O 1094.8 0.00946934 -1.81298 0
M  V30 11840 C 1094.85 -3.42967 -1.11384 0
M  V30 11841 O 1093.95 -3.46973 -2.22898 0
M  V30 11842 H 1093.3 -0.651155 -0.129976 0
M  V30 11843 H 1095.83 -2.03296 0.230667 0
M  V30 11844 H 1095.84 -3.81555 -1.44499 0
M  V30 11845 H 1094.51 -4.14502 -0.340736 0
M  V30 11846 H 1093.09 -3.20219 -1.91087 0
M  V30 11847 N 1095.27 0.136881 -1.57004 0
M  V30 11848 C 1096.55 0.87705 -1.74835 0
M  V30 11849 C 1096.93 1.98886 -0.707639 0
M  V30 11850 O 1096.28 2.26879 0.271652 0
M  V30 11851 C 1096.49 1.41021 -3.1924 0
M  V30 11852 C 1097.84 1.86963 -3.81222 0
M  V30 11853 O 1098.86 1.5074 -3.22732 0
M  V30 11854 O 1097.72 2.53798 -4.83993 0
M  V30 11855 H 1094.81 0.415192 -0.715223 0
M  V30 11856 H 1097.36 0.122016 -1.69261 0
M  V30 11857 H 1096.13 0.611677 -3.8649 0
M  V30 11858 H 1095.75 2.22846 -3.2928 0
M  V30 11859 N 1096.75 1.52266 0.40654 0
M  V30 11860 C 1098 1.66699 1.15496 0
M  V30 11861 C 1098.33 0.397019 1.90098 0
M  V30 11862 O 1097.6 -0.604646 1.84863 0
M  V30 11863 C 1097.89 2.8907 2.14734 0
M  V30 11864 C 1097.74 4.26123 1.44012 0
M  V30 11865 C 1099.06 3.06966 3.15373 0
M  V30 11866 H 1096.18 0.606642 0.418515 0
M  V30 11867 H 1098.82 1.84826 0.440381 0
M  V30 11868 H 1096.97 2.73745 2.75673 0
M  V30 11869 H 1098.64 4.5318 0.861722 0
M  V30 11870 H 1096.89 4.27406 0.742064 0
M  V30 11871 H 1097.56 5.07799 2.16436 0
M  V30 11872 H 1100.03 3.21205 2.64512 0
M  V30 11873 H 1098.91 3.94097 3.82072 0
M  V30 11874 H 1099.17 2.20395 3.83247 0
M  V30 11875 N 1098.23 -0.663929 1.42933 0
M  V30 11876 C 1099.47 -1.42446 1.45192 0
M  V30 11877 C 1099.83 -1.92269 0.0710678 0
M  V30 11878 O 1099.12 -1.68688 -0.908565 0
M  V30 11879 C 1099.32 -2.62976 2.4203 0
M  V30 11880 C 1099.15 -2.24948 3.89395 0
M  V30 11881 C 1097.92 -2.13786 4.57847 0
M  V30 11882 C 1100.11 -1.85907 4.79524 0
M  V30 11883 N 1098.1 -1.68976 5.90187 0
M  V30 11884 C 1099.47 -1.52099 6.01054 0
M  V30 11885 C 1101.52 -1.72995 4.6688 0
M  V30 11886 C 1100.22 -1.06673 7.11346 0
M  V30 11887 C 1102.25 -1.28975 5.77165 0
M  V30 11888 C 1101.61 -0.960968 6.97814 0
M  V30 11889 H 1097.71 -0.517312 0.58644 0
M  V30 11890 H 1100.3 -0.765097 1.79037 0
M  V30 11891 H 1098.47 -3.26586 2.10229 0
M  V30 11892 H 1100.2 -3.29624 2.34798 0
M  V30 11893 H 1096.95 -2.33203 4.12206 0
M  V30 11894 H 1097.38 -1.48964 6.60408 0
M  V30 11895 H 1102.02 -1.97057 3.7407 0
M  V30 11896 H 1099.74 -0.813591 8.03994 0
M  V30 11897 H 1103.32 -1.19489 5.69398 0
M  V30 11898 H 1102.2 -0.625522 7.81701 0
M  V30 11899 N 1099.71 -1.29285 -0.901281 0
M  V30 11900 C 1100.93 -1.20169 -1.69039 0
M  V30 11901 C 1101.36 0.234509 -1.86632 0
M  V30 11902 O 1100.71 1.16935 -1.38549 0
M  V30 11903 C 1100.76 -1.91852 -3.05328 0
M  V30 11904 O 1099.87 -1.23448 -3.9349 0
M  V30 11905 H 1099.21 -0.416486 -0.517141 0
M  V30 11906 H 1101.74 -1.70826 -1.12603 0
M  V30 11907 H 1101.75 -2.00244 -3.5548 0
M  V30 11908 H 1100.42 -2.96313 -2.91841 0
M  V30 11909 H 1099 -1.23303 -3.51924 0
M  V30 11910 N 1101.18 1.11143 -1.11736 0
M  V30 11911 C 1102.43 1.82948 -0.868127 0
M  V30 11912 C 1102.76 1.84813 0.606182 0
M  V30 11913 O 1102.01 1.29901 1.4637 0
M  V30 11914 C 1102.31 3.29733 -1.3788 0
M  V30 11915 C 1101.98 3.48025 -2.86687 0
M  V30 11916 C 1100.64 3.52725 -3.2732 0
M  V30 11917 C 1102.99 3.54024 -3.82513 0
M  V30 11918 C 1100.32 3.60983 -4.62502 0
M  V30 11919 C 1102.67 3.63814 -5.17515 0
M  V30 11920 C 1101.34 3.66776 -5.57702 0
M  V30 11921 H 1100.61 0.669452 -0.31767 0
M  V30 11922 H 1103.25 1.31057 -1.3963 0
M  V30 11923 H 1101.56 3.8414 -0.77093 0
M  V30 11924 H 1103.26 3.83787 -1.16225 0
M  V30 11925 H 1099.85 3.45039 -2.54256 0
M  V30 11926 H 1104.03 3.4965 -3.52219 0
M  V30 11927 H 1099.29 3.61554 -4.9304 0
M  V30 11928 H 1103.46 3.674 -5.916 0
M  V30 11929 H 1101.09 3.72927 -6.62442 0
M  V30 11930 N 1102.66 0.908147 1.28804 0
M  V30 11931 C 1103.91 0.53734 1.94826 0
M  V30 11932 C 1104.23 -0.920962 1.71882 0
M  V30 11933 O 1103.5 -1.65043 1.05534 0
M  V30 11934 H 1102.08 0.195729 0.720902 0
M  V30 11935 H 1104.74 1.15628 1.56895 0
M  V30 11936 H 1103.84 0.727052 3.03513 0
M  V30 11937 N 1104.14 -1.42577 0.671525 0
M  V30 11938 C 1105.39 -2.00806 0.189663 0
M  V30 11939 C 1105.7 -1.537 -1.20978 0
M  V30 11940 O 1106.91 -2.04325 -1.78784 0
M  V30 11941 C 1105.36 -3.58744 0.288227 0
M  V30 11942 C 1104.97 -4.14839 1.69152 0
M  V30 11943 C 1106.72 -4.24285 -0.13509 0
M  V30 11944 C 1104.62 -5.65131 1.74302 0
M  V30 11945 H 1103.55 -0.751004 0.067146 0
M  V30 11946 H 1106.2 -1.63338 0.83623 0
M  V30 11947 H 1104.59 -3.937 -0.426175 0
M  V30 11948 H 1105.76 -3.91349 2.43274 0
M  V30 11949 H 1104.08 -3.61738 2.0624 0
M  V30 11950 H 1106.67 -5.34573 -0.116709 0
M  V30 11951 H 1107.02 -3.99527 -1.16977 0
M  V30 11952 H 1107.55 -3.94278 0.528191 0
M  V30 11953 H 1104.29 -5.94682 2.75742 0
M  V30 11954 H 1103.81 -5.90621 1.04531 0
M  V30 11955 H 1105.49 -6.29491 1.49498 0
M  V30 11956 N 1105.62 -0.414636 -1.52048 0
M  V30 11957 C 1106.55 0.399119 -2.30064 0
M  V30 11958 C 1107.53 1.04126 -1.34506 0
M  V30 11959 O 1108.71 1.04923 -1.63416 0
M  V30 11960 C 1105.84 1.51305 -3.12608 0
M  V30 11961 C 1104.8 0.995621 -4.16259 0
M  V30 11962 C 1104.12 2.20357 -4.87183 0
M  V30 11963 C 1105.42 0.0458178 -5.2228 0
M  V30 11964 H 1107.12 -0.251879 -2.98339 0
M  V30 11965 H 1104.66 -0.122579 -1.43477 0
M  V30 11966 H 1106.62 2.08936 -3.65956 0
M  V30 11967 H 1105.34 2.19201 -2.42113 0
M  V30 11968 H 1104 0.441676 -3.6393 0
M  V30 11969 H 1103.65 2.8682 -4.13211 0
M  V30 11970 H 1103.35 1.86385 -5.57256 0
M  V30 11971 H 1104.87 2.78584 -5.43345 0
M  V30 11972 H 1106.29 0.531102 -5.70835 0
M  V30 11973 H 1104.68 -0.20536 -5.99749 0
M  V30 11974 H 1105.75 -0.897807 -4.76516 0
M  V30 11975 N 1107.1 1.56929 -0.145233 0
M  V30 11976 C 1108.03 2.19685 0.791263 0
M  V30 11977 C 1109.01 1.14455 1.25833 0
M  V30 11978 O 1110.19 1.42791 1.31622 0
M  V30 11979 C 1107.32 2.81705 2.03124 0
M  V30 11980 C 1106.28 3.92746 1.70101 0
M  V30 11981 C 1105.6 4.41694 3.01347 0
M  V30 11982 C 1106.9 5.13606 0.949025 0
M  V30 11983 H 1108.6 2.98196 0.26825 0
M  V30 11984 H 1106.14 1.43434 0.127584 0
M  V30 11985 H 1108.1 3.24273 2.69119 0
M  V30 11986 H 1106.82 2.00523 2.57795 0
M  V30 11987 H 1105.48 3.50794 1.06486 0
M  V30 11988 H 1105.13 3.57336 3.54006 0
M  V30 11989 H 1104.83 5.1659 2.80016 0
M  V30 11990 H 1106.35 4.86931 3.68416 0
M  V30 11991 H 1107.76 5.53029 1.51102 0
M  V30 11992 H 1106.16 5.94252 0.835711 0
M  V30 11993 H 1107.23 4.84863 -0.0595631 0
M  V30 11994 N 1108.58 -0.128553 1.57075 0
M  V30 11995 C 1109.82 -0.834322 1.85501 0
M  V30 11996 C 1110.18 -1.77943 0.731725 0
M  V30 11997 O 1109.47 -1.89702 -0.269003 0
M  V30 11998 C 1109.66 -1.63027 3.18052 0
M  V30 11999 C 1109.49 -0.763737 4.43167 0
M  V30 12000 C 1108.26 -0.42224 5.03533 0
M  V30 12001 C 1110.46 -0.0856773 5.14229 0
M  V30 12002 N 1108.44 0.455954 6.12204 0
M  V30 12003 C 1109.81 0.651902 6.16563 0
M  V30 12004 C 1111.87 -0.00826404 4.97899 0
M  V30 12005 C 1110.57 1.45961 7.04335 0
M  V30 12006 C 1112.6 0.786239 5.8615 0
M  V30 12007 C 1111.96 1.51204 6.8798 0
M  V30 12008 H 1108.06 -0.282535 0.729176 0
M  V30 12009 H 1110.64 -0.0985924 1.9445 0
M  V30 12010 H 1108.81 -2.3371 3.10216 0
M  V30 12011 H 1110.55 -2.28063 3.34319 0
M  V30 12012 H 1107.3 -0.76229 4.67425 0
M  V30 12013 H 1107.72 0.886619 6.71169 0
M  V30 12014 H 1112.37 -0.555051 4.19141 0
M  V30 12015 H 1110.08 2.01759 7.82508 0
M  V30 12016 H 1113.67 0.848372 5.75581 0
M  V30 12017 H 1112.55 2.11694 7.55086 0
M  V30 12018 N 1110.05 -1.5248 -0.398459 0
M  V30 12019 C 1110.96 -1.79492 -1.51062 0
M  V30 12020 C 1111.98 -0.681101 -1.60116 0
M  V30 12021 O 1113.16 -0.967671 -1.7663 0
M  V30 12022 C 1110.22 -1.94958 -2.86692 0
M  V30 12023 C 1109.28 -3.1887 -2.87438 0
M  V30 12024 C 1108.51 -3.33588 -4.16599 0
M  V30 12025 O 1108.74 -2.53327 -5.11059 0
M  V30 12026 O 1107.67 -4.26795 -4.24416 0
M  V30 12027 H 1111.5 -2.73913 -1.31169 0
M  V30 12028 H 1109.08 -1.37455 -0.585372 0
M  V30 12029 H 1110.96 -2.06891 -3.67116 0
M  V30 12030 H 1109.64 -1.03726 -3.06631 0
M  V30 12031 H 1108.55 -3.12386 -2.0583 0
M  V30 12032 H 1109.88 -4.09917 -2.7245 0
M  V30 12033 N 1111.53 0.65634 -1.43283 0
M  V30 12034 C 1112.76 1.44408 -1.48168 0
M  V30 12035 C 1113.17 1.88542 -0.0986016 0
M  V30 12036 O 1112.53 1.59298 0.890527 0
M  V30 12037 C 1112.58 2.68111 -2.42484 0
M  V30 12038 O 1112.3 2.25824 -3.75413 0
M  V30 12039 C 1113.8 3.61499 -2.56579 0
M  V30 12040 H 1111.02 0.443731 -0.503333 0
M  V30 12041 H 1113.57 0.804917 -1.87993 0
M  V30 12042 H 1111.72 3.28175 -2.05863 0
M  V30 12043 H 1112.14 3.05839 -4.26102 0
M  V30 12044 H 1113.61 4.44972 -3.26655 0
M  V30 12045 H 1114.09 4.08639 -1.60969 0
M  V30 12046 H 1114.69 3.07319 -2.93998 0
M  V30 12047 N 1113.01 1.29761 0.894412 0
M  V30 12048 C 1114.26 1.18039 1.64539 0
M  V30 12049 C 1114.58 -0.26697 1.92659 0
M  V30 12050 O 1113.84 -1.20865 1.53916 0
M  V30 12051 C 1114.14 1.94458 2.99868 0
M  V30 12052 C 1113.8 3.44143 2.91336 0
M  V30 12053 C 1112.47 3.84963 2.88716 0
M  V30 12054 C 1114.82 4.39503 2.80154 0
M  V30 12055 C 1112.15 5.19451 2.72741 0
M  V30 12056 C 1114.5 5.74088 2.65718 0
M  V30 12057 C 1113.16 6.14159 2.61467 0
M  V30 12058 H 1112.43 0.431936 0.60209 0
M  V30 12059 H 1115.08 1.60758 1.04063 0
M  V30 12060 H 1113.38 1.44346 3.64241 0
M  V30 12061 H 1115.08 1.82788 3.56917 0
M  V30 12062 H 1111.67 3.11699 2.9418 0
M  V30 12063 H 1115.86 4.08915 2.81251 0
M  V30 12064 H 1111.11 5.49602 2.67858 0
M  V30 12065 H 1115.29 6.47625 2.56038 0
M  V30 12066 H 1112.91 7.18317 2.48847 0
M  V30 12067 N 1114.49 -1.10549 1.12324 0
M  V30 12068 C 1115.71 -1.8681 0.900927 0
M  V30 12069 C 1116.14 -1.80049 -0.54443 0
M  V30 12070 O 1115.5 -1.16957 -1.38531 0
M  V30 12071 C 1115.54 -3.33197 1.37883 0
M  V30 12072 O 1114.65 -4.08628 0.556529 0
M  V30 12073 H 1113.99 -0.579709 0.32378 0
M  V30 12074 H 1116.52 -1.39678 1.49503 0
M  V30 12075 H 1116.53 -3.84047 1.37739 0
M  V30 12076 H 1115.2 -3.37435 2.43127 0
M  V30 12077 H 1113.78 -3.67627 0.62486 0
M  V30 12078 N 1115.97 -0.914965 -1.28321 0
M  V30 12079 C 1116.9 -0.421292 -2.29668 0
M  V30 12080 C 1117.88 0.511743 -1.6222 0
M  V30 12081 O 1119.06 0.419218 -1.89621 0
M  V30 12082 C 1116.19 0.338364 -3.45648 0
M  V30 12083 C 1115.15 -0.505646 -4.25003 0
M  V30 12084 C 1114.47 0.382421 -5.33331 0
M  V30 12085 C 1115.77 -1.76354 -4.91626 0
M  V30 12086 H 1117.47 -1.26826 -2.71211 0
M  V30 12087 H 1115.01 -0.611291 -1.30381 0
M  V30 12088 H 1116.96 0.694578 -4.15636 0
M  V30 12089 H 1115.69 1.21925 -3.02988 0
M  V30 12090 H 1114.35 -0.844395 -3.56743 0
M  V30 12091 H 1114 1.26189 -4.86914 0
M  V30 12092 H 1113.7 -0.17871 -5.87328 0
M  V30 12093 H 1115.22 0.73449 -6.06166 0
M  V30 12094 H 1116.63 -1.47616 -5.5397 0
M  V30 12095 H 1115.03 -2.26717 -5.55625 0
M  V30 12096 H 1116.1 -2.49063 -4.16048 0
M  V30 12097 N 1117.44 1.42219 -0.679077 0
M  V30 12098 C 1118.69 2.01081 -0.202718 0
M  V30 12099 C 1119.01 1.53986 1.19639 0
M  V30 12100 O 1118.28 0.763359 1.80415 0
M  V30 12101 H 1116.86 0.743526 -0.0719547 0
M  V30 12102 H 1119.52 1.74077 -0.876544 0
M  V30 12103 H 1118.62 3.11411 -0.207314 0
M  V30 12104 N 1118.92 0.422693 1.51826 0
M  V30 12105 C 1119.88 -0.384307 2.25955 0
M  V30 12106 C 1120.88 -0.962184 1.28836 0
M  V30 12107 O 1122.07 -0.838931 1.52668 0
M  V30 12108 C 1119.21 -1.54228 3.04018 0
M  V30 12109 H 1120.4 0.265157 2.98726 0
M  V30 12110 H 1117.95 0.175515 1.55311 0
M  V30 12111 H 1118.69 -2.22822 2.35629 0
M  V30 12112 H 1118.47 -1.13425 3.75336 0
M  V30 12113 H 1119.96 -2.1128 3.60209 0
M  V30 12114 N 1120.4 -1.5685 0.153553 0
M  V30 12115 C 1121.62 -2.01135 -0.505904 0
M  V30 12116 C 1122.05 -1.03301 -1.57196 0
M  V30 12117 O 1121.41 -0.00976022 -1.81297 0
M  V30 12118 C 1121.46 -3.44129 -1.0774 0
M  V30 12119 O 1120.56 -3.49318 -2.19205 0
M  V30 12120 H 1119.9 -0.652496 -0.123062 0
M  V30 12121 H 1122.43 -2.03039 0.252216 0
M  V30 12122 H 1122.44 -3.83066 -1.40444 0
M  V30 12123 H 1121.12 -4.1484 -0.296754 0
M  V30 12124 H 1119.69 -3.22227 -1.8768 0
M  V30 12125 N 1121.88 0.120221 -1.57141 0
M  V30 12126 C 1123.29 0.677497 -1.73974 0
M  V30 12127 C 1123.64 1.80371 -0.772055 0
M  V30 12128 O 1122.76 2.16329 0.0553062 0
M  V30 12129 C 1123.36 1.23575 -3.1546 0
M  V30 12130 C 1121.92 1.73933 -3.33803 0
M  V30 12131 C 1121.07 0.638542 -2.69848 0
M  V30 12132 H 1124.02 -0.105685 -1.58348 0
M  V30 12133 H 1124.04 2.10542 -3.16942 0
M  V30 12134 H 1123.55 0.415851 -3.85866 0
M  V30 12135 H 1121.65 2.58404 -2.68437 0
M  V30 12136 H 1121.76 1.84961 -4.41957 0
M  V30 12137 H 1120.13 1.07185 -2.31049 0
M  V30 12138 H 1120.91 -0.170356 -3.42877 0
M  V30 12139 N 1123.36 1.52689 0.390367 0
M  V30 12140 C 1124.59 1.71292 1.1551 0
M  V30 12141 C 1124.99 0.430405 1.84239 0
M  V30 12142 O 1124.34 -0.604823 1.73458 0
M  V30 12143 C 1124.4 2.80597 2.24735 0
M  V30 12144 C 1124.06 4.21757 1.75984 0
M  V30 12145 C 1125.06 5.04961 1.23733 0
M  V30 12146 C 1122.75 4.68071 1.82248 0
M  V30 12147 C 1124.74 6.32561 0.783926 0
M  V30 12148 C 1122.43 5.95656 1.36519 0
M  V30 12149 C 1123.42 6.7773 0.846786 0
M  V30 12150 O 1123.11 8.02923 0.396164 0
M  V30 12151 H 1122.84 0.576906 0.352356 0
M  V30 12152 H 1125.4 2.00117 0.462865 0
M  V30 12153 H 1123.63 2.4719 2.97378 0
M  V30 12154 H 1125.32 2.87616 2.86412 0
M  V30 12155 H 1126.08 4.70363 1.18251 0
M  V30 12156 H 1121.96 4.04278 2.21541 0
M  V30 12157 H 1125.51 6.96572 0.378612 0
M  V30 12158 H 1121.4 6.29758 1.41686 0
M  V30 12159 H 1122.17 8.16861 0.517766 0
M  V30 12160 N 1124.83 -0.648732 1.43629 0
M  V30 12161 C 1126.25 -1.23001 1.40455 0
M  V30 12162 C 1126.6 -1.95886 0.110897 0
M  V30 12163 O 1125.72 -2.01485 -0.789487 0
M  V30 12164 C 1126.32 -2.23716 2.54434 0
M  V30 12165 C 1124.88 -2.77311 2.54511 0
M  V30 12166 C 1124.02 -1.52024 2.31914 0
M  V30 12167 H 1126.97 -0.440473 1.52465 0
M  V30 12168 H 1126.99 -3.05979 2.26179 0
M  V30 12169 H 1126.51 -1.7064 3.48574 0
M  V30 12170 H 1124.61 -3.34437 1.64263 0
M  V30 12171 H 1124.72 -3.2455 3.52426 0
M  V30 12172 H 1123.08 -1.79531 1.80667 0
M  V30 12173 H 1123.87 -1.00876 3.28145 0
M  V30 12174 N 1126.31 -1.30234 -0.887518 0
M  V30 12175 C 1127.26 -1.16302 -2.01436 0
M  V30 12176 C 1128.25 -0.0755422 -1.69231 0
M  V30 12177 O 1129.46 -0.236213 -1.78443 0
M  V30 12178 H 1125.84 -0.35961 -0.660443 0
M  V30 12179 H 1127.81 -2.11677 -2.10322 0
M  V30 12180 C 1126.56 -0.869009 -3.36665 0
M  V30 12181 H 1125.88 -1.69787 -3.61956 0
M  V30 12182 H 1127.32 -0.811621 -4.16159 0
M  V30 12183 C 1125.78 0.428021 -3.3417 0
M  V30 12184 O 1126.31 1.45033 -3.74604 0
M  V30 12185 N 1124.51 0.438264 -2.87276 0
M  V30 12186 H 1124.06 -0.394142 -2.54567 0
M  V30 12187 H 1124.02 1.30604 -2.85989 0
M  V30 12188 N 1127.79 1.09952 -1.12909 0
M  V30 12189 C 1128.72 2.18477 -0.824014 0
M  V30 12190 C 1129.7 1.68744 0.214324 0
M  V30 12191 O 1130.89 1.94057 0.0744281 0
M  V30 12192 C 1128.02 3.46143 -0.283308 0
M  V30 12193 C 1126.97 4.09178 -1.25528 0
M  V30 12194 C 1126.3 5.31604 -0.574574 0
M  V30 12195 C 1127.6 4.52308 -2.6118 0
M  V30 12196 H 1129.29 2.44254 -1.73148 0
M  V30 12197 H 1126.84 1.17394 -0.833952 0
M  V30 12198 H 1128.79 4.21361 -0.057583 0
M  V30 12199 H 1127.51 3.19872 0.659525 0
M  V30 12200 H 1126.17 3.35973 -1.4669 0
M  V30 12201 H 1125.82 5.01611 0.37356 0
M  V30 12202 H 1125.52 5.74732 -1.22299 0
M  V30 12203 H 1127.04 6.0955 -0.358004 0
M  V30 12204 H 1128.46 5.18776 -2.44017 0
M  V30 12205 H 1126.86 5.06302 -3.22147 0
M  V30 12206 H 1127.93 3.64977 -3.19249 0
M  V30 12207 N 1129.27 0.921757 1.27833 0
M  V30 12208 C 1130.49 0.574599 1.99281 0
M  V30 12209 C 1130.92 -0.838905 1.68357 0
M  V30 12210 O 1130.28 -1.56196 0.920468 0
M  V30 12211 C 1130.32 0.800027 3.51613 0
M  V30 12212 O 1129.43 -0.137215 4.12172 0
M  V30 12213 H 1128.77 0.221887 0.625829 0
M  V30 12214 H 1131.3 1.23939 1.62789 0
M  V30 12215 H 1131.31 0.71326 4.01717 0
M  V30 12216 H 1129.98 1.83042 3.73455 0
M  V30 12217 H 1128.56 -0.00103872 3.729 0
M  V30 12218 N 1130.75 -1.41857 0.686609 0
M  V30 12219 C 1131.69 -2.326 0.0041351 0
M  V30 12220 C 1132.69 -1.50474 -0.778077 0
M  V30 12221 O 1133.89 -1.66468 -0.684709 0
M  V30 12222 H 1130.27 -0.751797 -0.0174615 0
M  V30 12223 H 1132.24 -2.87844 0.786656 0
M  V30 12224 C 1130.99 -3.35175 -0.924819 0
M  V30 12225 H 1130.31 -3.98416 -0.332339 0
M  V30 12226 H 1131.75 -4.01229 -1.37082 0
M  V30 12227 C 1130.21 -2.68359 -2.03679 0
M  V30 12228 O 1130.74 -2.52453 -3.12459 0
M  V30 12229 N 1128.95 -2.27196 -1.81192 0
M  V30 12230 H 1128.49 -2.40333 -0.92725 0
M  V30 12231 H 1128.45 -1.82824 -2.55778 0
M  V30 12232 N 1132.22 -0.430739 -1.51599 0
M  V30 12233 C 1133.16 0.419726 -2.25324 0
M  V30 12234 C 1134.17 0.991925 -1.29092 0
M  V30 12235 O 1135.36 0.887188 -1.54891 0
M  V30 12236 C 1132.46 1.59844 -2.98836 0
M  V30 12237 C 1131.63 1.14629 -4.22112 0
M  V30 12238 C 1130.69 2.19437 -4.78261 0
M  V30 12239 O 1129.72 1.79141 -5.40275 0
M  V30 12240 N 1130.92 3.51849 -4.61717 0
M  V30 12241 H 1133.68 -0.212112 -2.98948 0
M  V30 12242 H 1131.24 -0.259269 -1.59811 0
M  V30 12243 H 1133.24 2.29567 -3.33288 0
M  V30 12244 H 1131.81 2.13575 -2.28264 0
M  V30 12245 H 1131.03 0.276367 -3.9323 0
M  V30 12246 H 1132.31 0.821488 -5.02124 0
M  V30 12247 H 1131.71 3.87324 -4.12306 0
M  V30 12248 H 1130.27 4.17486 -5.00548 0
M  V30 12249 N 1133.7 1.56767 -0.161869 0
M  V30 12250 C 1134.63 2.1466 0.803356 0
M  V30 12251 C 1135.65 1.09977 1.20037 0
M  V30 12252 O 1136.84 1.37199 1.14187 0
M  V30 12253 C 1133.94 2.66663 2.09151 0
M  V30 12254 C 1133.11 3.95904 1.85953 0
M  V30 12255 C 1132.17 4.33067 2.98897 0
M  V30 12256 O 1131.19 5.01119 2.69942 0
M  V30 12257 N 1132.4 3.93856 4.26448 0
M  V30 12258 H 1135.16 2.98108 0.308472 0
M  V30 12259 H 1132.72 1.61886 0.0212238 0
M  V30 12260 H 1134.71 2.88528 2.83784 0
M  V30 12261 H 1133.28 1.87856 2.49857 0
M  V30 12262 H 1132.5 3.82513 0.952751 0
M  V30 12263 H 1133.79 4.8033 1.67811 0
M  V30 12264 H 1133.19 3.39051 4.52836 0
M  V30 12265 H 1131.75 4.20741 4.97815 0
M  V30 12266 N 1135.18 -0.111886 1.57202 0
M  V30 12267 C 1136.41 -0.832407 1.89416 0
M  V30 12268 C 1136.82 -1.73096 0.753861 0
M  V30 12269 O 1136.18 -1.80416 -0.274992 0
M  V30 12270 C 1136.23 -1.65988 3.21139 0
M  V30 12271 O 1135.95 -0.797485 4.3078 0
M  V30 12272 C 1137.45 -2.48493 3.67105 0
M  V30 12273 H 1134.67 -0.238919 0.627024 0
M  V30 12274 H 1137.22 -0.0941456 2.04283 0
M  V30 12275 H 1135.37 -2.35082 3.07921 0
M  V30 12276 H 1135.79 -1.36892 5.06321 0
M  V30 12277 H 1137.26 -3.02072 4.62014 0
M  V30 12278 H 1137.74 -3.26182 2.94112 0
M  V30 12279 H 1138.34 -1.84628 3.83135 0
M  V30 12280 N 1136.66 -1.52894 -0.382264 0
M  V30 12281 C 1138.07 -1.42295 -0.722802 0
M  V30 12282 C 1138.27 -0.548717 -1.93885 0
M  V30 12283 O 1137.33 -0.0247431 -2.52488 0
M  V30 12284 C 1138.64 -2.85246 -0.9516 0
M  V30 12285 C 1140.19 -2.94768 -1.05265 0
M  V30 12286 C 1140.67 -4.38745 -1.31404 0
M  V30 12287 N 1142.16 -4.421 -1.38211 0
M  V30 12288 C 1142.89 -5.50592 -1.60113 0
M  V30 12289 N 1142.39 -6.69158 -1.79442 0
M  V30 12290 N 1144.18 -5.38145 -1.62347 0
M  V30 12291 H 1136.33 -2.0825 0.417816 0
M  V30 12292 H 1138.6 -0.939753 0.124776 0
M  V30 12293 H 1138.3 -3.51459 -0.130088 0
M  V30 12294 H 1138.18 -3.27903 -1.86439 0
M  V30 12295 H 1140.56 -2.28718 -1.86472 0
M  V30 12296 H 1140.64 -2.55529 -0.117619 0
M  V30 12297 H 1140.29 -5.05363 -0.507038 0
M  V30 12298 H 1140.22 -4.75542 -2.26202 0
M  V30 12299 H 1142.71 -3.56644 -1.24954 0
M  V30 12300 H 1143.02 -7.47615 -1.95681 0
M  V30 12301 H 1141.37 -6.72175 -1.76653 0
M  V30 12302 H 1144.56 -4.44485 -1.46803 0
M  V30 12303 H 1144.73 -6.22764 -1.79077 0
M  V30 12304 N 1138.14 0.641106 -1.43971 0
M  V30 12305 C 1139.05 1.78239 -1.52538 0
M  V30 12306 C 1140.06 1.6906 -0.411668 0
M  V30 12307 O 1141.24 1.90014 -0.66757 0
M  V30 12308 C 1138.3 3.14579 -1.45743 0
M  V30 12309 C 1137.37 3.35464 -2.67885 0
M  V30 12310 C 1136.6 4.65299 -2.61404 0
M  V30 12311 O 1136.82 5.45451 -1.66851 0
M  V30 12312 O 1135.76 4.8817 -3.521 0
M  V30 12313 H 1139.58 1.73965 -2.48937 0
M  V30 12314 H 1137.17 0.801098 -1.26106 0
M  V30 12315 H 1139.05 3.95873 -1.4444 0
M  V30 12316 H 1137.72 3.19417 -0.524837 0
M  V30 12317 H 1136.63 2.53888 -2.74758 0
M  V30 12318 H 1137.96 3.35481 -3.60157 0
M  V30 12319 N 1139.62 1.30703 0.880598 0
M  V30 12320 C 1140.86 1.19778 1.63277 0
M  V30 12321 C 1141.19 -0.246521 1.92931 0
M  V30 12322 O 1140.45 -1.19226 1.55189 0
M  V30 12323 C 1140.74 1.97628 2.97789 0
M  V30 12324 C 1140.41 3.47213 2.87669 0
M  V30 12325 C 1139.07 3.88004 2.84617 0
M  V30 12326 C 1141.42 4.4245 2.75477 0
M  V30 12327 C 1138.75 5.22315 2.67216 0
M  V30 12328 C 1141.1 5.76874 2.59614 0
M  V30 12329 C 1139.77 6.16898 2.54939 0
M  V30 12330 H 1139.04 0.438298 0.597475 0
M  V30 12331 H 1141.69 1.61853 1.02352 0
M  V30 12332 H 1139.99 1.48201 3.6269 0
M  V30 12333 H 1141.69 1.86563 3.54958 0
M  V30 12334 H 1138.28 3.14802 2.90857 0
M  V30 12335 H 1142.46 4.11875 2.76899 0
M  V30 12336 H 1137.72 5.52412 2.62014 0
M  V30 12337 H 1141.89 6.50304 2.49155 0
M  V30 12338 H 1139.52 7.20916 2.41214 0
M  V30 12339 N 1141.09 -1.09351 1.1349 0
M  V30 12340 C 1142.34 -1.81812 0.898452 0
M  V30 12341 C 1142.67 -1.85525 -0.573959 0
M  V30 12342 O 1141.95 -1.32403 -1.42477 0
M  V30 12343 C 1142.23 -3.27921 1.48794 0
M  V30 12344 C 1142.08 -3.32476 3.02952 0
M  V30 12345 C 1143.4 -4.24625 1.15678 0
M  V30 12346 H 1140.52 -0.660074 0.327829 0
M  V30 12347 H 1143.16 -1.28091 1.40331 0
M  V30 12348 H 1141.31 -3.738 1.05858 0
M  V30 12349 H 1142.99 -2.94994 3.54649 0
M  V30 12350 H 1141.23 -2.72037 3.37903 0
M  V30 12351 H 1141.9 -4.35409 3.39298 0
M  V30 12352 H 1144.38 -3.87036 1.52781 0
M  V30 12353 H 1143.25 -5.25194 1.59571 0
M  V30 12354 H 1143.51 -4.42044 0.0705933 0
M  V30 12355 N 1142.57 -0.928524 -1.27343 0
M  V30 12356 C 1143.48 -0.433901 -2.30553 0
M  V30 12357 C 1144.5 0.485832 -1.6708 0
M  V30 12358 O 1145.67 0.36844 -1.98001 0
M  V30 12359 C 1142.74 0.304617 -3.45359 0
M  V30 12360 C 1141.8 -0.650131 -4.24349 0
M  V30 12361 C 1141.03 0.0532372 -5.33673 0
M  V30 12362 O 1141.26 1.27246 -5.56026 0
M  V30 12363 O 1140.19 -0.619009 -5.98709 0
M  V30 12364 H 1144.02 -1.2909 -2.74899 0
M  V30 12365 H 1141.6 -0.693903 -1.32308 0
M  V30 12366 H 1143.48 0.721137 -4.15184 0
M  V30 12367 H 1142.16 1.13721 -3.03066 0
M  V30 12368 H 1141.06 -1.11635 -3.57055 0
M  V30 12369 H 1142.4 -1.44996 -4.70358 0
M  V30 12370 N 1144.05 1.41491 -0.694123 0
M  V30 12371 C 1145 2.30783 -0.0278824 0
M  V30 12372 C 1145.97 1.47028 0.772783 0
M  V30 12373 O 1147.15 1.75819 0.74111 0
M  V30 12374 C 1144.29 3.33061 0.903579 0
M  V30 12375 C 1143.4 4.31896 0.0946823 0
M  V30 12376 C 1142.54 5.21243 1.02365 0
M  V30 12377 C 1141.58 6.11748 0.207578 0
M  V30 12378 N 1140.72 6.93583 1.09028 0
M  V30 12379 H 1145.56 2.87197 -0.795092 0
M  V30 12380 H 1143.09 1.41449 -0.403806 0
M  V30 12381 H 1145.05 3.90907 1.45765 0
M  V30 12382 H 1143.68 2.782 1.6372 0
M  V30 12383 H 1142.73 3.76009 -0.576289 0
M  V30 12384 H 1144.04 4.95889 -0.538059 0
M  V30 12385 H 1143.2 5.83917 1.647 0
M  V30 12386 H 1141.94 4.57473 1.69025 0
M  V30 12387 H 1140.94 5.48125 -0.428854 0
M  V30 12388 H 1142.17 6.77573 -0.455206 0
M  V30 12389 H 1140.11 6.32422 1.74292 0
M  V30 12390 H 1140.03 7.54257 0.513073 0
M  V30 12391 H 1141.3 7.60726 1.70048 0
M  V30 12392 N 1145.53 0.438773 1.51369 0
M  V30 12393 C 1146.78 -0.126962 2.01701 0
M  V30 12394 C 1147.1 -1.43086 1.32481 0
M  V30 12395 O 1146.37 -1.90427 0.459823 0
M  V30 12396 H 1144.95 -0.0499092 0.745331 0
M  V30 12397 H 1147.61 0.581808 1.86013 0
M  V30 12398 H 1146.7 -0.301836 3.10637 0
M  V30 12399 N 1147.01 -1.56678 0.170181 0
M  V30 12400 C 1148.25 -1.9646 -0.474125 0
M  V30 12401 C 1148.57 -1.05719 -1.63855 0
M  V30 12402 O 1147.84 -0.123316 -1.95511 0
M  V30 12403 H 1146.42 -0.725446 -0.178149 0
M  V30 12404 H 1149.09 -1.93276 0.251099 0
M  V30 12405 H 1148.18 -3.00726 -0.834894 0
M  V30 12406 N 1148.48 0.103547 -1.57259 0
M  V30 12407 C 1149.9 0.457527 -1.52901 0
M  V30 12408 C 1150.1 1.80995 -0.8856 0
M  V30 12409 O 1149.16 2.48001 -0.474504 0
M  V30 12410 C 1150.47 0.427793 -2.97641 0
M  V30 12411 C 1152.02 0.51025 -3.08813 0
M  V30 12412 C 1152.49 0.51075 -4.55143 0
M  V30 12413 N 1153.98 0.571748 -4.59658 0
M  V30 12414 C 1154.72 0.593836 -5.70317 0
M  V30 12415 N 1154.21 0.572638 -6.90429 0
M  V30 12416 N 1156.01 0.638011 -5.58467 0
M  V30 12417 H 1148.16 -0.782408 -1.97464 0
M  V30 12418 H 1150.42 -0.290324 -0.90245 0
M  V30 12419 H 1150.13 -0.498608 -3.48148 0
M  V30 12420 H 1150 1.24991 -3.55889 0
M  V30 12421 H 1152.39 1.42707 -2.583 0
M  V30 12422 H 1152.47 -0.339846 -2.53532 0
M  V30 12423 H 1152.11 -0.40209 -5.06306 0
M  V30 12424 H 1152.04 1.37794 -5.08252 0
M  V30 12425 H 1154.53 0.593668 -3.73208 0
M  V30 12426 H 1154.85 0.592542 -7.70525 0
M  V30 12427 H 1153.19 0.539818 -6.929 0
M  V30 12428 H 1156.38 0.652042 -4.63536 0
M  V30 12429 H 1156.56 0.651756 -6.44714 0
M  V30 12430 N 1149.96 1.53094 0.37415 0
M  V30 12431 C 1150.89 1.81901 1.46404 0
M  V30 12432 C 1151.87 0.671949 1.56265 0
M  V30 12433 O 1153.06 0.920978 1.70973 0
M  V30 12434 C 1150.19 2.00123 2.83845 0
M  V30 12435 C 1149.14 3.15864 2.88814 0
M  V30 12436 C 1148.47 3.19364 4.28848 0
M  V30 12437 C 1149.77 4.54633 2.57112 0
M  V30 12438 H 1151.46 2.73172 1.22546 0
M  V30 12439 H 1149.01 1.31444 0.588087 0
M  V30 12440 H 1150.96 2.18859 3.6011 0
M  V30 12441 H 1149.68 1.05555 3.09072 0
M  V30 12442 H 1148.34 2.96935 2.15 0
M  V30 12443 H 1147.99 2.2245 4.51137 0
M  V30 12444 H 1147.69 3.97123 4.3309 0
M  V30 12445 H 1149.22 3.40273 5.06997 0
M  V30 12446 H 1150.63 4.73587 3.23091 0
M  V30 12447 H 1149.03 5.34569 2.72683 0
M  V30 12448 H 1150.1 4.60331 1.52392 0
M  V30 12449 N 1151.44 -0.633461 1.44309 0
M  V30 12450 C 1152.85 -1.21504 1.41752 0
M  V30 12451 C 1153.2 -1.95758 0.131667 0
M  V30 12452 O 1152.33 -2.02311 -0.768072 0
M  V30 12453 C 1152.92 -2.21005 2.56792 0
M  V30 12454 C 1151.48 -2.74596 2.57438 0
M  V30 12455 C 1150.63 -1.49555 2.33513 0
M  V30 12456 H 1153.58 -0.424277 1.52923 0
M  V30 12457 H 1153.6 -3.03563 2.29412 0
M  V30 12458 H 1153.11 -1.66934 3.50364 0
M  V30 12459 H 1151.21 -3.32676 1.67801 0
M  V30 12460 H 1151.33 -3.20794 3.55849 0
M  V30 12461 H 1149.69 -1.77605 1.82561 0
M  V30 12462 H 1150.47 -0.973899 3.29196 0
M  V30 12463 N 1152.92 -1.31168 -0.873655 0
M  V30 12464 C 1154.16 -1.21938 -1.64044 0
M  V30 12465 C 1154.52 0.219903 -1.90737 0
M  V30 12466 O 1155.72 0.435635 -2.65246 0
M  V30 12467 C 1153.99 -2.03633 -2.93715 0
M  V30 12468 S 1155.55 -2.11224 -3.84616 0
M  V30 12469 H 1152.37 -0.43436 -0.562896 0
M  V30 12470 H 1154.97 -1.65786 -1.03612 0
M  V30 12471 H 1153.68 -3.07298 -2.72022 0
M  V30 12472 H 1153.21 -1.6049 -3.59175 0
M  V30 12473 H 1155.22 -1.24787 -4.80253 0
M  V30 12474 N 1154.4 1.08748 -1.14068 0
M  V30 12475 C 1155.81 1.62551 -0.918379 0
M  V30 12476 C 1156.16 1.8852 0.543583 0
M  V30 12477 O 1155.28 1.64007 1.41176 0
M  V30 12478 C 1155.88 2.95309 -1.66066 0
M  V30 12479 C 1154.44 3.4591 -1.48403 0
M  V30 12480 C 1153.58 2.20204 -1.6854 0
M  V30 12481 H 1156.54 0.920196 -1.29298 0
M  V30 12482 H 1156.56 3.63587 -1.12181 0
M  V30 12483 H 1156.07 2.76377 -2.72465 0
M  V30 12484 H 1154.17 3.69953 -0.443353 0
M  V30 12485 H 1154.28 4.2289 -2.25169 0
M  V30 12486 H 1152.65 2.29203 -1.11077 0
M  V30 12487 H 1153.43 2.03783 -2.76274 0
M  V30 12488 N 1155.87 0.935264 1.26849 0
M  V30 12489 C 1156.78 0.446122 2.30319 0
M  V30 12490 C 1157.8 -0.476965 1.67335 0
M  V30 12491 O 1158.98 -0.357934 1.98194 0
M  V30 12492 C 1156.04 -0.286297 3.45516 0
M  V30 12493 C 1155.1 0.672626 4.23998 0
M  V30 12494 C 1154.34 -0.0249345 5.33694 0
M  V30 12495 O 1154.56 -1.24296 5.56693 0
M  V30 12496 O 1153.49 0.650752 5.98372 0
M  V30 12497 H 1157.32 1.30546 2.74211 0
M  V30 12498 H 1154.9 0.70091 1.31938 0
M  V30 12499 H 1156.79 -0.699109 4.1556 0
M  V30 12500 H 1155.46 -1.12112 3.03665 0
M  V30 12501 H 1154.37 1.13527 3.56458 0
M  V30 12502 H 1155.7 1.47489 4.69583 0
M  V30 12503 N 1157.35 -1.41121 0.701616 0
M  V30 12504 C 1158.28 -2.33436 0.0545974 0
M  V30 12505 C 1159.26 -1.52144 -0.760662 0
M  V30 12506 O 1160.45 -1.80661 -0.712414 0
M  V30 12507 C 1157.58 -3.36015 -0.878117 0
M  V30 12508 C 1156.53 -4.27664 -0.169511 0
M  V30 12509 C 1155.86 -5.20666 -1.21699 0
M  V30 12510 C 1157.16 -5.13254 0.967859 0
M  V30 12511 H 1158.85 -2.87791 0.825637 0
M  V30 12512 H 1156.4 -1.38377 0.398484 0
M  V30 12513 H 1158.35 -3.99526 -1.34004 0
M  V30 12514 H 1157.08 -2.80024 -1.68089 0
M  V30 12515 H 1155.73 -3.65586 0.272441 0
M  V30 12516 H 1155.38 -4.60987 -2.01246 0
M  V30 12517 H 1155.08 -5.82822 -0.747836 0
M  V30 12518 H 1156.61 -5.87053 -1.6793 0
M  V30 12519 H 1158.02 -5.70298 0.585944 0
M  V30 12520 H 1156.42 -5.84381 1.3645 0
M  V30 12521 H 1157.49 -4.5006 1.80483 0
M  V30 12522 N 1158.83 -0.446794 -1.51134 0
M  V30 12523 C 1160.07 0.115546 -2.04073 0
M  V30 12524 C 1160.43 1.39137 -1.32306 0
M  V30 12525 O 1161.64 2.03455 -1.75668 0
M  V30 12526 C 1159.91 0.319657 -3.55968 0
M  V30 12527 S 1161.47 0.844045 -4.30606 0
M  V30 12528 H 1158.28 0.0274089 -0.710471 0
M  V30 12529 H 1160.89 -0.608368 -1.85793 0
M  V30 12530 H 1159.59 -0.615082 -4.05765 0
M  V30 12531 H 1159.12 1.07038 -3.78558 0
M  V30 12532 H 1161.14 2.12051 -4.48608 0
M  V30 12533 N 1160.31 1.56586 -0.178487 0
M  V30 12534 C 1161.72 1.83633 0.337009 0
M  V30 12535 C 1162.07 1.09857 1.6256 0
M  V30 12536 O 1161.2 0.353933 2.13486 0
M  V30 12537 C 1161.79 3.33112 0.618225 0
M  V30 12538 C 1160.35 3.60629 1.07814 0
M  V30 12539 C 1159.5 2.7705 0.117825 0
M  V30 12540 H 1162.45 1.53508 -0.402612 0
M  V30 12541 H 1162.47 3.5098 1.46947 0
M  V30 12542 H 1161.98 3.8678 -0.319808 0
M  V30 12543 H 1160.08 3.12378 2.03103 0
M  V30 12544 H 1160.19 4.68921 0.982339 0
M  V30 12545 H 1158.56 2.47125 0.616563 0
M  V30 12546 H 1159.34 3.33501 -0.814356 0
M  V30 12547 N 1161.79 -0.095206 1.57312 0
M  V30 12548 C 1163.06 -0.830388 1.77099 0
M  V30 12549 C 1163.44 -1.9694 0.760121 0
M  V30 12550 O 1162.79 -2.2752 -0.211403 0
M  V30 12551 C 1163 -1.32507 3.22867 0
M  V30 12552 C 1164.35 -1.7679 3.86045 0
M  V30 12553 O 1165.37 -1.42131 3.26615 0
M  V30 12554 O 1164.23 -2.40876 4.90552 0
M  V30 12555 H 1161.33 -0.396083 0.72598 0
M  V30 12556 H 1163.87 -0.0770965 1.69525 0
M  V30 12557 H 1162.64 -0.508992 3.87975 0
M  V30 12558 H 1162.27 -2.14037 3.35073 0
M  V30 12559 N 1163.26 -1.53291 -0.366026 0
M  V30 12560 C 1164.23 -1.79025 -1.43117 0
M  V30 12561 C 1165.23 -0.660676 -1.46601 0
M  V30 12562 O 1166.42 -0.928875 -1.47369 0
M  V30 12563 C 1163.55 -1.91192 -2.82238 0
M  V30 12564 H 1164.74 -2.74154 -1.21572 0
M  V30 12565 H 1162.3 -1.44361 -0.599132 0
M  V30 12566 H 1163.03 -0.98129 -3.09097 0
M  V30 12567 H 1162.82 -2.7335 -2.81109 0
M  V30 12568 H 1164.31 -2.12696 -3.59375 0
M  V30 12569 N 1164.74 0.6258 -1.44643 0
M  V30 12570 C 1165.99 1.3873 -1.47925 0
M  V30 12571 C 1166.32 1.93868 -0.113469 0
M  V30 12572 O 1165.6 1.73976 0.869639 0
M  V30 12573 C 1165.88 2.54867 -2.54391 0
M  V30 12574 C 1165.73 2.05044 -4.00346 0
M  V30 12575 C 1167.05 3.57043 -2.57309 0
M  V30 12576 H 1164.17 0.503087 -0.538584 0
M  V30 12577 H 1166.81 0.707102 -1.76352 0
M  V30 12578 H 1164.96 3.12894 -2.30281 0
M  V30 12579 H 1166.63 1.51807 -4.35606 0
M  V30 12580 H 1164.88 1.36185 -4.11869 0
M  V30 12581 H 1165.55 2.88681 -4.70497 0
M  V30 12582 H 1168.02 3.08826 -2.78865 0
M  V30 12583 H 1166.9 4.35818 -3.33698 0
M  V30 12584 H 1167.16 4.11464 -1.61708 0
M  V30 12585 N 1166.22 1.31629 0.866686 0
M  V30 12586 C 1167.47 1.21503 1.61998 0
M  V30 12587 C 1167.8 -0.226044 1.93182 0
M  V30 12588 O 1167.05 -1.17573 1.56445 0
M  V30 12589 C 1167.35 2.00775 2.95676 0
M  V30 12590 C 1167.02 3.50245 2.83971 0
M  V30 12591 C 1165.68 3.91 2.80485 0
M  V30 12592 C 1168.03 4.45347 2.70769 0
M  V30 12593 C 1165.36 5.25119 2.61661 0
M  V30 12594 C 1167.71 5.79595 2.53481 0
M  V30 12595 C 1166.37 6.19567 2.48381 0
M  V30 12596 H 1165.64 0.44461 0.592792 0
M  V30 12597 H 1168.29 1.62929 1.00629 0
M  V30 12598 H 1166.6 1.52039 3.61097 0
M  V30 12599 H 1168.29 1.90318 3.52959 0
M  V30 12600 H 1164.88 3.17869 2.87502 0
M  V30 12601 H 1169.07 4.14789 2.72514 0
M  V30 12602 H 1164.32 5.5516 2.5614 0
M  V30 12603 H 1168.5 6.5291 2.42243 0
M  V30 12604 H 1166.12 7.23434 2.33554 0
M  V30 12605 N 1167.7 -1.08142 1.14644 0
M  V30 12606 C 1169.12 -1.32656 0.887388 0
M  V30 12607 C 1169.32 -1.95942 -0.470012 0
M  V30 12608 O 1168.37 -2.21417 -1.21371 0
M  V30 12609 C 1169.68 -2.22549 2.02219 0
M  V30 12610 C 1171.23 -2.36021 2.0558 0
M  V30 12611 C 1171.71 -3.29257 3.18361 0
M  V30 12612 N 1173.2 -3.36835 3.17957 0
M  V30 12613 C 1173.93 -4.09017 4.01862 0
M  V30 12614 N 1173.43 -4.83882 4.95812 0
M  V30 12615 N 1175.22 -4.04875 3.89913 0
M  V30 12616 H 1167.37 -0.654457 2.02066 0
M  V30 12617 H 1169.64 -0.350947 0.880648 0
M  V30 12618 H 1169.34 -1.83296 3.00159 0
M  V30 12619 H 1169.22 -3.23027 1.94765 0
M  V30 12620 H 1171.6 -2.74531 1.08245 0
M  V30 12621 H 1171.68 -1.35275 2.17105 0
M  V30 12622 H 1171.33 -2.91468 4.15944 0
M  V30 12623 H 1171.26 -4.29938 3.04074 0
M  V30 12624 H 1173.75 -2.83465 2.49912 0
M  V30 12625 H 1174.06 -5.3643 5.56294 0
M  V30 12626 H 1172.41 -4.82926 4.99808 0
M  V30 12627 H 1175.6 -3.45496 3.15833 0
M  V30 12628 H 1175.77 -4.60866 4.55529 0
M  V30 12629 N 1169.18 -0.941978 -1.26351 0
M  V30 12630 C 1170.11 -0.469913 -2.28723 0
M  V30 12631 C 1171.09 0.477218 -1.63269 0
M  V30 12632 O 1172.27 0.378902 -1.90468 0
M  V30 12633 C 1169.4 0.264971 -3.46288 0
M  V30 12634 C 1168.36 -0.595682 -4.23834 0
M  V30 12635 C 1167.68 0.269208 -5.34022 0
M  V30 12636 C 1168.98 -1.86743 -4.87775 0
M  V30 12637 H 1170.68 -1.32551 -2.6846 0
M  V30 12638 H 1168.22 -0.638809 -1.29055 0
M  V30 12639 H 1170.18 0.606259 -4.17016 0
M  V30 12640 H 1168.9 1.15471 -3.05506 0
M  V30 12641 H 1167.56 -0.919875 -3.54872 0
M  V30 12642 H 1167.21 1.15832 -4.89481 0
M  V30 12643 H 1166.91 -0.30325 -5.86817 0
M  V30 12644 H 1168.43 0.605748 -6.07588 0
M  V30 12645 H 1169.85 -1.59333 -5.50714 0
M  V30 12646 H 1168.24 -2.38452 -5.50691 0
M  V30 12647 H 1169.31 -2.57831 -4.10671 0
M  V30 12648 N 1170.66 1.40747 -0.709091 0
M  V30 12649 C 1171.59 2.282 -0.00156906 0
M  V30 12650 C 1172.57 1.42981 0.774279 0
M  V30 12651 O 1173.75 1.724 0.762276 0
M  V30 12652 C 1170.88 3.23441 1.00517 0
M  V30 12653 C 1169.92 4.25291 0.320904 0
M  V30 12654 S 1170.76 5.27069 -0.946518 0
M  V30 12655 C 1171.91 6.25873 0.0582856 0
M  V30 12656 H 1172.15 2.87859 -0.743271 0
M  V30 12657 H 1169.68 1.46085 -0.499866 0
M  V30 12658 H 1171.64 3.78841 1.58082 0
M  V30 12659 H 1170.3 2.62851 1.71954 0
M  V30 12660 H 1169.49 4.92255 1.08173 0
M  V30 12661 H 1169.09 3.73557 -0.18202 0
M  V30 12662 H 1171.38 6.71398 0.907233 0
M  V30 12663 H 1172.33 7.05739 -0.577787 0
M  V30 12664 H 1172.74 5.62942 0.419108 0
M  V30 12665 N 1172.13 0.454803 1.50895 0
M  V30 12666 C 1173.04 -0.353495 2.31921 0
M  V30 12667 C 1174.06 -1.01136 1.41589 0
M  V30 12668 O 1175.24 -1.00291 1.74653 0
M  V30 12669 C 1172.3 -1.43032 3.15821 0
M  V30 12670 C 1171.36 -0.790763 4.21954 0
M  V30 12671 C 1170.59 -1.81628 5.01843 0
M  V30 12672 O 1170.82 -3.04078 4.8259 0
M  V30 12673 O 1169.75 -1.39713 5.8546 0
M  V30 12674 H 1173.58 0.308463 3.02129 0
M  V30 12675 H 1171.16 0.216971 1.47816 0
M  V30 12676 H 1173.04 -2.05444 3.67927 0
M  V30 12677 H 1171.72 -2.07605 2.48358 0
M  V30 12678 H 1170.63 -0.128127 3.73881 0
M  V30 12679 H 1171.96 -0.188251 4.9184 0
M  V30 12680 N 1173.61 -1.56489 0.186789 0
M  V30 12681 C 1174.54 -2.15911 -0.769104 0
M  V30 12682 C 1175.56 -1.11872 -1.18273 0
M  V30 12683 O 1176.75 -1.38999 -1.1199 0
M  V30 12684 C 1173.85 -2.69957 -2.04882 0
M  V30 12685 C 1173.02 -3.98812 -1.79631 0
M  V30 12686 C 1172.08 -4.37767 -2.9197 0
M  V30 12687 O 1171.1 -5.0535 -2.61935 0
M  V30 12688 N 1172.31 -4.0059 -4.20128 0
M  V30 12689 H 1175.07 -2.98561 -0.261007 0
M  V30 12690 H 1172.63 -1.61899 0.00453357 0
M  V30 12691 H 1174.62 -2.93006 -2.79158 0
M  V30 12692 H 1173.19 -1.91808 -2.46837 0
M  V30 12693 H 1172.41 -3.8398 -0.891776 0
M  V30 12694 H 1173.7 -4.82939 -1.60148 0
M  V30 12695 H 1173.1 -3.46213 -4.47385 0
M  V30 12696 H 1171.66 -4.28608 -4.91059 0
M  V30 12697 N 1175.09 0.086862 -1.5736 0
M  V30 12698 C 1176.33 0.794358 -1.88333 0
M  V30 12699 C 1176.69 1.75496 -0.778783 0
M  V30 12700 O 1177.89 2.50643 -0.971152 0
M  V30 12701 C 1176.17 1.49686 -3.24544 0
M  V30 12702 S 1177.72 2.2415 -3.7723 0
M  V30 12703 H 1174.54 0.264479 -0.659979 0
M  V30 12704 H 1177.14 0.0511046 -1.95433 0
M  V30 12705 H 1175.85 0.783713 -4.02847 0
M  V30 12706 H 1175.38 2.27984 -3.20604 0
M  V30 12707 H 1177.39 3.50426 -3.51306 0
M  V30 12708 N 1176.57 1.53483 0.357892 0
M  V30 12709 C 1177.81 1.71233 1.09776 0
M  V30 12710 C 1178.17 0.462401 1.86761 0
M  V30 12711 O 1177.46 -0.544746 1.83693 0
M  V30 12712 C 1177.66 2.90654 2.07978 0
M  V30 12713 C 1177.48 4.27141 1.40644 0
M  V30 12714 C 1176.25 4.91868 1.15732 0
M  V30 12715 C 1178.45 5.07392 0.840118 0
M  V30 12716 N 1176.43 6.12261 0.448282 0
M  V30 12717 C 1177.81 6.19451 0.260863 0
M  V30 12718 C 1179.86 4.92377 0.739558 0
M  V30 12719 C 1178.56 7.18135 -0.409153 0
M  V30 12720 C 1180.59 5.91341 0.0833084 0
M  V30 12721 C 1179.95 7.02728 -0.485038 0
M  V30 12722 H 1176.05 0.679764 0.386582 0
M  V30 12723 H 1178.63 1.90893 0.383158 0
M  V30 12724 H 1176.81 2.7252 2.76744 0
M  V30 12725 H 1178.54 2.97192 2.74698 0
M  V30 12726 H 1175.29 4.51157 1.44064 0
M  V30 12727 H 1175.72 6.76912 0.108905 0
M  V30 12728 H 1180.36 4.06441 1.16472 0
M  V30 12729 H 1178.08 8.03657 -0.846247 0
M  V30 12730 H 1181.66 5.818 0.00632482 0
M  V30 12731 H 1180.54 7.77992 -0.984802 0
M  V30 12732 N 1178.05 -0.61812 1.44973 0
M  V30 12733 C 1179.01 -1.71135 1.52465 0
M  V30 12734 C 1180.01 -1.5561 0.405246 0
M  V30 12735 O 1181.2 -1.60869 0.668351 0
M  V30 12736 C 1178.33 -3.10324 1.41108 0
M  V30 12737 H 1179.52 -1.65862 2.49859 0
M  V30 12738 H 1177.08 -0.832932 1.32257 0
M  V30 12739 H 1177.81 -3.21183 0.448574 0
M  V30 12740 H 1177.6 -3.23001 2.2229 0
M  V30 12741 H 1179.09 -3.89976 1.49361 0
M  V30 12742 N 1179.52 -1.32087 -0.859693 0
M  V30 12743 C 1180.75 -1.25167 -1.64368 0
M  V30 12744 C 1181.16 0.183572 -1.88307 0
M  V30 12745 O 1180.5 1.12945 -1.44876 0
M  V30 12746 C 1180.57 -1.93641 -3.02892 0
M  V30 12747 C 1180.23 -3.4298 -3.02017 0
M  V30 12748 C 1181.23 -4.38551 -2.79229 0
M  V30 12749 C 1178.91 -3.84835 -3.22812 0
M  V30 12750 C 1180.91 -5.73952 -2.77232 0
M  V30 12751 C 1178.59 -5.20346 -3.20442 0
M  V30 12752 C 1179.59 -6.14716 -2.97681 0
M  V30 12753 O 1179.28 -7.47748 -2.95175 0
M  V30 12754 H 1179.01 -0.433327 -0.518848 0
M  V30 12755 H 1181.57 -1.7468 -1.08055 0
M  V30 12756 H 1179.8 -1.3869 -3.60974 0
M  V30 12757 H 1181.48 -1.80497 -3.63559 0
M  V30 12758 H 1182.25 -4.07542 -2.62935 0
M  V30 12759 H 1178.13 -3.11806 -3.39555 0
M  V30 12760 H 1181.67 -6.47584 -2.59385 0
M  V30 12761 H 1177.57 -5.50987 -3.36279 0
M  V30 12762 H 1178.34 -7.57046 -3.11165 0
M  V30 12763 N 1181 1.07532 -1.15215 0
M  V30 12764 C 1181.91 2.18222 -0.861192 0
M  V30 12765 C 1182.93 1.73246 0.161798 0
M  V30 12766 O 1184.1 2.01397 -0.0118386 0
M  V30 12767 C 1181.17 3.44902 -0.352601 0
M  V30 12768 C 1180.23 4.04455 -1.43926 0
M  V30 12769 C 1179.46 5.25089 -0.954841 0
M  V30 12770 O 1179.69 5.70048 0.200294 0
M  V30 12771 O 1178.62 5.76269 -1.73774 0
M  V30 12772 H 1182.45 2.45599 -1.78648 0
M  V30 12773 H 1180.03 1.16835 -0.93112 0
M  V30 12774 H 1181.91 4.21333 -0.0753347 0
M  V30 12775 H 1180.59 3.19082 0.544841 0
M  V30 12776 H 1179.49 3.29573 -1.7701 0
M  V30 12777 H 1180.83 4.34544 -2.31155 0
M  V30 12778 N 1182.48 0.948665 1.2585 0
M  V30 12779 C 1183.89 0.641829 1.75321 0
M  V30 12780 C 1184.24 -0.842903 1.77171 0
M  V30 12781 O 1183.37 -1.65967 1.38867 0
M  V30 12782 C 1183.96 1.15835 3.18383 0
M  V30 12783 C 1182.52 0.901784 3.65438 0
M  V30 12784 C 1181.67 1.30489 2.44679 0
M  V30 12785 H 1184.62 1.12614 1.1182 0
M  V30 12786 H 1184.64 0.515639 3.7699 0
M  V30 12787 H 1184.15 2.23897 3.17004 0
M  V30 12788 H 1182.25 -0.164135 3.72238 0
M  V30 12789 H 1182.37 1.53405 4.53876 0
M  V30 12790 H 1180.73 0.723278 2.44215 0
M  V30 12791 H 1181.51 2.3946 2.45996 0
M  V30 12792 N 1183.96 -1.40369 0.716545 0
M  V30 12793 C 1185.21 -2.00473 0.255959 0
M  V30 12794 C 1185.53 -1.57104 -1.15514 0
M  V30 12795 O 1184.8 -0.810925 -1.78328 0
M  V30 12796 H 1183.38 -0.741357 0.0916427 0
M  V30 12797 H 1186.04 -1.71692 0.922389 0
M  V30 12798 H 1185.14 -3.10752 0.289806 0
M  V30 12799 N 1185.44 -0.462799 -1.50652 0
M  V30 12800 C 1186.37 0.371837 -2.26164 0
M  V30 12801 C 1187.38 0.96432 -1.31167 0
M  V30 12802 O 1188.57 0.854134 -1.56738 0
M  V30 12803 C 1185.67 1.53469 -3.0216 0
M  V30 12804 C 1184.84 1.0565 -4.24449 0
M  V30 12805 C 1183.9 2.09243 -4.82808 0
M  V30 12806 O 1182.93 1.67641 -5.43953 0
M  V30 12807 N 1184.13 3.41976 -4.69076 0
M  V30 12808 H 1186.9 -0.275476 -2.98431 0
M  V30 12809 H 1184.46 -0.293109 -1.59225 0
M  V30 12810 H 1186.45 2.22446 -3.38083 0
M  V30 12811 H 1185.02 2.08685 -2.32743 0
M  V30 12812 H 1184.24 0.192895 -3.93728 0
M  V30 12813 H 1185.53 0.714796 -5.03754 0
M  V30 12814 H 1184.92 3.78491 -4.20429 0
M  V30 12815 H 1183.48 4.06775 -5.09291 0
M  V30 12816 N 1186.91 1.56388 -0.195085 0
M  V30 12817 C 1188.33 1.58788 0.160758 0
M  V30 12818 C 1188.53 1.21125 1.61031 0
M  V30 12819 O 1187.59 0.933994 2.34591 0
M  V30 12820 C 1188.9 3.00366 -0.141588 0
M  V30 12821 C 1190.45 3.12893 -0.0816947 0
M  V30 12822 C 1190.92 4.56604 -0.35735 0
M  V30 12823 N 1192.41 4.62188 -0.305968 0
M  V30 12824 C 1193.15 5.71276 -0.493108 0
M  V30 12825 N 1192.64 6.8883 -0.740595 0
M  V30 12826 N 1194.44 5.60473 -0.427365 0
M  V30 12827 H 1186.59 1.79151 -1.14099 0
M  V30 12828 H 1188.85 0.831446 -0.455413 0
M  V30 12829 H 1188.56 3.32483 -1.14666 0
M  V30 12830 H 1188.43 3.73082 0.555834 0
M  V30 12831 H 1190.82 2.80589 0.913978 0
M  V30 12832 H 1190.9 2.42564 -0.812193 0
M  V30 12833 H 1190.54 4.8962 -1.35034 0
M  V30 12834 H 1190.47 5.25124 0.394036 0
M  V30 12835 H 1192.96 3.77705 -0.121298 0
M  V30 12836 H 1193.28 7.67862 -0.872201 0
M  V30 12837 H 1191.62 6.90637 -0.777488 0
M  V30 12838 H 1194.81 4.67513 -0.234436 0
M  V30 12839 H 1194.99 6.45429 -0.576627 0
M  V30 12840 N 1188.39 -0.0785156 1.57404 0
M  V30 12841 C 1189.8 -0.631132 1.75709 0
M  V30 12842 C 1190.15 -1.78261 0.819605 0
M  V30 12843 O 1189.28 -2.164 0.00206912 0
M  V30 12844 C 1189.87 -1.15168 3.18625 0
M  V30 12845 C 1188.43 -1.65021 3.38297 0
M  V30 12846 C 1187.58 -0.566773 2.71446 0
M  V30 12847 H 1190.53 0.147631 1.58012 0
M  V30 12848 H 1190.55 -2.02065 3.22413 0
M  V30 12849 H 1190.06 -0.313399 3.86833 0
M  V30 12850 H 1188.17 -2.51196 2.75194 0
M  V30 12851 H 1188.28 -1.73179 4.46706 0
M  V30 12852 H 1186.64 -1.01021 2.33809 0
M  V30 12853 H 1187.43 0.261204 3.42305 0
M  V30 12854 N 1189.87 -1.5367 -0.349747 0
M  V30 12855 C 1191.1 -1.74858 -1.11532 0
M  V30 12856 C 1191.52 -0.483591 -1.81777 0
M  V30 12857 O 1190.88 0.563399 -1.72324 0
M  V30 12858 C 1190.93 -2.92479 -2.10923 0
M  V30 12859 O 1190.03 -2.62194 -3.18321 0
M  V30 12860 H 1189.37 -0.580219 -0.322865 0
M  V30 12861 H 1191.9 -2.00611 -0.402033 0
M  V30 12862 H 1191.91 -3.19093 -2.54252 0
M  V30 12863 H 1190.59 -3.84228 -1.59191 0
M  V30 12864 H 1189.16 -2.46448 -2.79853 0
M  V30 12865 N 1191.35 0.610423 -1.45298 0
M  V30 12866 C 1192.6 1.36951 -1.49167 0
M  V30 12867 C 1192.92 1.9405 -0.132292 0
M  V30 12868 O 1192.18 1.75363 0.868686 0
M  V30 12869 C 1192.48 2.53812 -2.51623 0
M  V30 12870 C 1192.14 2.14877 -3.96407 0
M  V30 12871 C 1190.81 2.03972 -4.35831 0
M  V30 12872 C 1193.16 1.84448 -4.87472 0
M  V30 12873 C 1190.49 1.60856 -5.64218 0
M  V30 12874 C 1192.84 1.42818 -6.16268 0
M  V30 12875 C 1191.5 1.3047 -6.54625 0
M  V30 12876 H 1190.77 0.501138 -0.54584 0
M  V30 12877 H 1193.42 0.690221 -1.78629 0
M  V30 12878 H 1191.72 3.27066 -2.1572 0
M  V30 12879 H 1193.42 3.12041 -2.51856 0
M  V30 12880 H 1190.01 2.2429 -3.65229 0
M  V30 12881 H 1194.19 1.91771 -4.57753 0
M  V30 12882 H 1189.45 1.49916 -5.92735 0
M  V30 12883 H 1193.62 1.18318 -6.86275 0
M  V30 12884 H 1191.25 0.968347 -7.54007 0
M  V30 12885 N 1192.83 1.32541 0.852676 0
M  V30 12886 C 1194.05 1.2636 1.64462 0
M  V30 12887 C 1194.48 -0.16508 1.87374 0
M  V30 12888 O 1193.83 -1.11712 1.42794 0
M  V30 12889 C 1193.88 2.03052 2.97997 0
M  V30 12890 O 1192.99 1.37967 3.88637 0
M  V30 12891 H 1192.33 0.435393 0.501327 0
M  V30 12892 H 1194.86 1.74888 1.06186 0
M  V30 12893 H 1194.87 2.133 3.47803 0
M  V30 12894 H 1193.54 3.06941 2.80642 0
M  V30 12895 H 1192.12 1.36279 3.47106 0
M  V30 12896 N 1194.3 -1.0692 1.15784 0
M  V30 12897 C 1195.53 -1.8331 0.959422 0
M  V30 12898 C 1195.95 -1.82268 -0.492332 0
M  V30 12899 O 1195.3 -1.23727 -1.34156 0
M  V30 12900 C 1195.36 -3.30202 1.47135 0
M  V30 12901 O 1195.08 -3.31328 2.86624 0
M  V30 12902 C 1196.58 -4.23346 1.31504 0
M  V30 12903 H 1193.8 -0.578202 0.340475 0
M  V30 12904 H 1196.34 -1.34939 1.53661 0
M  V30 12905 H 1194.5 -3.75908 0.936587 0
M  V30 12906 H 1194.91 -4.23135 3.0993 0
M  V30 12907 H 1196.38 -5.24465 1.72163 0
M  V30 12908 H 1196.86 -4.38431 0.259773 0
M  V30 12909 H 1197.47 -3.8348 1.83911 0
M  V30 12910 N 1195.78 -0.955326 -1.25345 0
M  V30 12911 C 1197.03 -0.606149 -1.92377 0
M  V30 12912 C 1197.34 0.860927 -1.75634 0
M  V30 12913 O 1198.55 1.3201 -2.37246 0
M  V30 12914 C 1197.01 -1.03341 -3.44744 0
M  V30 12915 C 1196.61 -2.52308 -3.70196 0
M  V30 12916 C 1198.36 -0.756797 -4.17699 0
M  V30 12917 C 1196.27 -2.88831 -5.16072 0
M  V30 12918 H 1195.2 -0.222994 -0.720271 0
M  V30 12919 H 1197.85 -1.15987 -1.42194 0
M  V30 12920 H 1196.23 -0.408096 -3.93892 0
M  V30 12921 H 1197.4 -3.19864 -3.31698 0
M  V30 12922 H 1195.72 -2.77448 -3.10502 0
M  V30 12923 H 1198.31 -1.00583 -5.25154 0
M  V30 12924 H 1198.66 0.306794 -4.15168 0
M  V30 12925 H 1199.19 -1.34249 -3.74462 0
M  V30 12926 H 1195.93 -3.9421 -5.23716 0
M  V30 12927 H 1195.45 -2.25948 -5.55614 0
M  V30 12928 H 1197.13 -2.78061 -5.84201 0
M  V30 12929 N 1197.26 1.39987 -0.723979 0
M  V30 12930 C 1198.49 2.0474 -0.276618 0
M  V30 12931 C 1198.9 1.54675 1.0896 0
M  V30 12932 O 1198.24 0.701956 1.69759 0
M  V30 12933 C 1198.3 3.59009 -0.187912 0
M  V30 12934 C 1197.97 4.32 -1.49079 0
M  V30 12935 C 1198.97 4.59385 -2.43436 0
M  V30 12936 C 1196.65 4.70753 -1.75204 0
M  V30 12937 C 1198.64 5.24519 -3.62159 0
M  V30 12938 C 1196.33 5.35617 -2.94206 0
M  V30 12939 C 1197.33 5.62431 -3.87506 0
M  V30 12940 O 1197.02 6.25952 -5.0442 0
M  V30 12941 H 1196.75 0.665164 -0.120554 0
M  V30 12942 H 1199.3 1.80226 -0.98527 0
M  V30 12943 H 1197.53 3.82375 0.576753 0
M  V30 12944 H 1199.22 4.0527 0.225993 0
M  V30 12945 H 1199.99 4.29902 -2.24519 0
M  V30 12946 H 1195.87 4.49247 -1.03433 0
M  V30 12947 H 1199.41 5.45364 -4.34999 0
M  V30 12948 H 1195.31 5.64521 -3.13029 0
M  V30 12949 H 1196.08 6.44448 -5.04608 0
M  V30 12950 N 1198.74 0.470782 1.50404 0
M  V30 12951 C 1199.67 -0.359838 2.26358 0
M  V30 12952 C 1200.68 -0.95735 1.31676 0
M  V30 12953 O 1201.87 -0.84581 1.57189 0
M  V30 12954 C 1198.97 -1.51864 3.02969 0
M  V30 12955 C 1198.15 -1.03397 4.25003 0
M  V30 12956 C 1197.21 -2.06679 4.83911 0
M  V30 12957 O 1196.23 -1.64754 5.44835 0
M  V30 12958 N 1197.43 -3.39484 4.70883 0
M  V30 12959 H 1200.2 0.291299 2.98281 0
M  V30 12960 H 1197.76 0.301549 1.59067 0
M  V30 12961 H 1199.75 -2.2065 3.39258 0
M  V30 12962 H 1198.32 -2.07448 2.33846 0
M  V30 12963 H 1197.54 -0.172012 3.93825 0
M  V30 12964 H 1198.83 -0.68807 5.04126 0
M  V30 12965 H 1198.23 -3.76256 4.22431 0
M  V30 12966 H 1196.78 -4.04068 5.11441 0
M  V30 12967 N 1200.22 -1.56282 0.203376 0
M  V30 12968 C 1201.13 -2.23086 -0.725922 0
M  V30 12969 C 1202.14 -1.23258 -1.22814 0
M  V30 12970 O 1203.32 -1.5602 -1.27357 0
M  V30 12971 C 1200.38 -2.88358 -1.92485 0
M  V30 12972 C 1199.45 -4.03479 -1.46639 0
M  V30 12973 C 1198.68 -4.65629 -2.60816 0
M  V30 12974 O 1198.9 -4.2672 -3.78506 0
M  V30 12975 O 1197.84 -5.54949 -2.33056 0
M  V30 12976 H 1201.66 -3.03124 -0.18694 0
M  V30 12977 H 1199.25 -1.49377 -0.0262829 0
M  V30 12978 H 1201.13 -3.29623 -2.62539 0
M  V30 12979 H 1199.8 -2.11294 -2.45228 0
M  V30 12980 H 1198.71 -3.66821 -0.734396 0
M  V30 12981 H 1200.04 -4.82232 -0.985535 0
M  V30 12982 N 1201.7 0.070167 -1.57444 0
M  V30 12983 C 1202.63 1.08351 -2.06839 0
M  V30 12984 C 1203.61 1.40269 -0.962224 0
M  V30 12985 O 1204.79 1.49867 -1.23505 0
M  V30 12986 C 1201.92 2.39649 -2.51368 0
M  V30 12987 C 1200.88 2.22079 -3.65875 0
M  V30 12988 C 1200.2 3.58776 -3.96464 0
M  V30 12989 C 1201.5 1.64069 -4.95862 0
M  V30 12990 H 1203.2 0.672465 -2.9175 0
M  V30 12991 H 1200.74 0.322027 -1.40353 0
M  V30 12992 H 1202.69 3.10833 -2.84537 0
M  V30 12993 H 1201.42 2.82736 -1.63487 0
M  V30 12994 H 1200.08 1.53337 -3.32992 0
M  V30 12995 H 1199.73 3.99436 -3.05712 0
M  V30 12996 H 1199.43 3.47859 -4.7357 0
M  V30 12997 H 1200.95 4.31387 -4.32131 0
M  V30 12998 H 1202.36 2.2512 -5.27251 0
M  V30 12999 H 1200.76 1.63843 -5.773 0
M  V30 13000 H 1201.83 0.60232 -4.81145 0
M  V30 13001 N 1203.17 1.53854 0.341593 0
M  V30 13002 C 1204.11 1.78295 1.44027 0
M  V30 13003 C 1205.12 0.664303 1.4863 0
M  V30 13004 O 1206.31 0.941073 1.51678 0
M  V30 13005 C 1203.41 1.86947 2.82673 0
M  V30 13006 C 1202.58 3.16898 3.01487 0
M  V30 13007 C 1201.64 3.16483 4.20386 0
M  V30 13008 O 1200.67 3.90197 4.14409 0
M  V30 13009 N 1201.87 2.3899 5.29022 0
M  V30 13010 H 1204.63 2.73102 1.23431 0
M  V30 13011 H 1202.19 1.52928 0.531483 0
M  V30 13012 H 1204.19 1.84118 3.60392 0
M  V30 13013 H 1202.76 0.993169 2.96403 0
M  V30 13014 H 1201.98 3.32835 2.11221 0
M  V30 13015 H 1203.26 4.02733 3.1094 0
M  V30 13016 H 1202.66 1.78657 5.36748 0
M  V30 13017 H 1201.22 2.41957 6.05227 0
M  V30 13018 N 1204.65 -0.602709 1.4562 0
M  V30 13019 C 1205.88 -1.39299 1.53657 0
M  V30 13020 C 1206.3 -1.87315 0.171632 0
M  V30 13021 O 1205.66 -1.60423 -0.844639 0
M  V30 13022 C 1205.71 -2.57021 2.52928 0
M  V30 13023 O 1204.81 -3.57812 2.05047 0
M  V30 13024 H 1204.15 -0.41567 0.517798 0
M  V30 13025 H 1206.68 -0.73304 1.91018 0
M  V30 13026 H 1206.69 -3.04202 2.71892 0
M  V30 13027 H 1205.37 -2.21422 3.52058 0
M  V30 13028 H 1203.94 -3.17247 1.95981 0
M  V30 13029 N 1206.13 -1.32992 -0.845635 0
M  V30 13030 C 1207.38 -1.23415 -1.59536 0
M  V30 13031 C 1207.69 0.200278 -1.94572 0
M  V30 13032 O 1208.9 0.417993 -2.68263 0
M  V30 13033 C 1207.35 -2.16207 -2.8772 0
M  V30 13034 C 1206.96 -3.64782 -2.60073 0
M  V30 13035 C 1208.71 -2.15488 -3.65739 0
M  V30 13036 C 1206.61 -4.49508 -3.84313 0
M  V30 13037 H 1205.54 -0.458366 -0.598679 0
M  V30 13038 H 1208.19 -1.58012 -0.932981 0
M  V30 13039 H 1206.58 -1.74535 -3.55462 0
M  V30 13040 H 1207.75 -4.14852 -2.00585 0
M  V30 13041 H 1206.06 -3.67723 -1.95369 0
M  V30 13042 H 1208.66 -2.76021 -4.57948 0
M  V30 13043 H 1209 -1.14818 -4.00153 0
M  V30 13044 H 1209.54 -2.55487 -3.04912 0
M  V30 13045 H 1206.28 -5.51027 -3.55035 0
M  V30 13046 H 1205.8 -4.04185 -4.43165 0
M  V30 13047 H 1207.48 -4.62969 -4.51961 0
M  V30 13048 N 1207.61 1.06304 -1.1635 0
M  V30 13049 C 1209.02 1.31227 -0.90838 0
M  V30 13050 C 1209.22 1.96665 0.438779 0
M  V30 13051 O 1208.28 2.2332 1.17833 0
M  V30 13052 C 1209.59 2.19303 -2.05734 0
M  V30 13053 C 1211.14 2.3272 -2.09309 0
M  V30 13054 C 1211.62 3.24151 -3.23559 0
M  V30 13055 N 1213.11 3.31734 -3.23275 0
M  V30 13056 C 1213.84 4.02572 -4.08318 0
M  V30 13057 N 1213.34 4.75933 -5.03448 0
M  V30 13058 N 1215.13 3.98621 -3.96305 0
M  V30 13059 H 1207.28 0.622228 -2.03081 0
M  V30 13060 H 1209.54 0.336892 -0.886119 0
M  V30 13061 H 1209.25 1.78497 -3.03037 0
M  V30 13062 H 1209.12 3.19888 -1.99879 0
M  V30 13063 H 1211.51 2.72774 -1.12599 0
M  V30 13064 H 1211.59 1.31804 -2.19229 0
M  V30 13065 H 1211.24 2.84813 -4.20528 0
M  V30 13066 H 1211.17 4.25046 -3.10875 0
M  V30 13067 H 1213.66 2.79453 -2.5439 0
M  V30 13068 H 1213.97 5.27512 -5.64758 0
M  V30 13069 H 1212.32 4.74913 -5.07427 0
M  V30 13070 H 1215.51 3.40427 -3.21289 0
M  V30 13071 H 1215.68 4.5356 -4.62804 0
M  V30 13072 N 1209.09 0.96196 1.24836 0
M  V30 13073 C 1210.03 0.48686 2.25607 0
M  V30 13074 C 1211 -0.464546 1.59472 0
M  V30 13075 O 1212.19 -0.376179 1.87055 0
M  V30 13076 C 1209.33 -0.222294 3.44383 0
M  V30 13077 C 1208.44 0.767206 4.25133 0
M  V30 13078 C 1207.58 0.0347458 5.31189 0
M  V30 13079 C 1206.61 1.01469 6.03631 0
M  V30 13080 N 1205.75 0.312619 7.01404 0
M  V30 13081 H 1210.59 1.35104 2.65614 0
M  V30 13082 H 1208.13 0.677373 1.30576 0
M  V30 13083 H 1210.09 -0.650087 4.12104 0
M  V30 13084 H 1208.72 -1.05047 3.0523 0
M  V30 13085 H 1207.77 1.31346 3.57005 0
M  V30 13086 H 1209.08 1.5147 4.75245 0
M  V30 13087 H 1208.23 -0.451325 6.05019 0
M  V30 13088 H 1206.97 -0.745485 4.81969 0
M  V30 13089 H 1205.98 1.51169 5.28609 0
M  V30 13090 H 1207.2 1.79527 6.5494 0
M  V30 13091 H 1205.15 -0.44874 6.54463 0
M  V30 13092 H 1205.07 0.999079 7.49369 0
M  V30 13093 H 1206.33 -0.151673 7.79352 0
M  V30 13094 N 1210.56 -1.39601 0.731392 0
M  V30 13095 C 1211.98 -1.54334 0.406594 0
M  V30 13096 C 1212.18 -1.69925 -1.08295 0
M  V30 13097 O 1211.24 -1.69771 -1.86906 0
M  V30 13098 C 1212.55 -2.76303 1.18647 0
M  V30 13099 C 1214.1 -2.90135 1.17433 0
M  V30 13100 C 1214.57 -4.15038 1.93669 0
M  V30 13101 N 1216.06 -4.2207 1.90817 0
M  V30 13102 C 1216.8 -5.17656 2.46616 0
M  V30 13103 N 1216.29 -6.19054 3.11037 0
M  V30 13104 N 1218.09 -5.09847 2.3667 0
M  V30 13105 H 1210.24 -1.27728 1.69703 0
M  V30 13106 H 1212.5 -0.6188 0.718186 0
M  V30 13107 H 1212.21 -2.71113 2.24032 0
M  V30 13108 H 1212.08 -3.68866 0.788514 0
M  V30 13109 H 1214.47 -2.9482 0.128615 0
M  V30 13110 H 1214.55 -1.98646 1.61163 0
M  V30 13111 H 1214.19 -4.11115 2.9824 0
M  V30 13112 H 1214.12 -5.05565 1.47349 0
M  V30 13113 H 1216.61 -3.49437 1.43882 0
M  V30 13114 H 1216.93 -6.88444 3.51091 0
M  V30 13115 H 1215.27 -6.19452 3.15126 0
M  V30 13116 H 1218.46 -4.29566 1.85987 0
M  V30 13117 H 1218.64 -5.84165 2.80455 0
M  V30 13118 N 1212.04 -0.478751 -1.50152 0
M  V30 13119 C 1212.99 0.330224 -2.25596 0
M  V30 13120 C 1213.98 0.954871 -1.29503 0
M  V30 13121 O 1215.17 0.866153 -1.54359 0
M  V30 13122 C 1212.3 1.40719 -3.13134 0
M  V30 13123 C 1211.38 0.789896 -4.16679 0
M  V30 13124 N 1211.77 -0.094345 -5.05712 0
M  V30 13125 C 1210.07 1.05299 -4.33391 0
M  V30 13126 C 1210.77 -0.445458 -5.79992 0
M  V30 13127 N 1209.75 0.181237 -5.43298 0
M  V30 13128 H 1213.55 -0.350824 -2.91799 0
M  V30 13129 H 1211.07 -0.293386 -1.59728 0
M  V30 13130 H 1213.06 1.99999 -3.65795 0
M  V30 13131 H 1211.72 2.09015 -2.48481 0
M  V30 13132 H 1212.73 -0.463695 -5.1582 0
M  V30 13133 H 1209.41 1.73036 -3.79954 0
M  V30 13134 H 1210.8 -1.16754 -6.61678 0
M  V30 13135 N 1213.52 1.56172 -0.211661 0
M  V30 13136 C 1214.94 1.5895 0.143907 0
M  V30 13137 C 1215.14 1.22826 1.59737 0
M  V30 13138 O 1214.19 0.958823 2.33587 0
M  V30 13139 C 1215.51 3.00199 -0.173438 0
M  V30 13140 C 1217.05 3.12789 -0.114877 0
M  V30 13141 C 1217.53 4.56199 -0.405759 0
M  V30 13142 N 1219.02 4.61838 -0.354973 0
M  V30 13143 C 1219.75 5.70721 -0.553671 0
M  V30 13144 N 1219.25 6.88006 -0.813613 0
M  V30 13145 N 1221.04 5.59988 -0.486787 0
M  V30 13146 H 1213.19 1.77931 -1.15993 0
M  V30 13147 H 1215.46 0.826569 -0.464206 0
M  V30 13148 H 1215.16 3.31248 -1.18186 0
M  V30 13149 H 1215.04 3.73651 0.516232 0
M  V30 13150 H 1217.42 2.81543 0.884166 0
M  V30 13151 H 1217.51 2.41688 -0.837875 0
M  V30 13152 H 1217.15 4.88161 -1.40219 0
M  V30 13153 H 1217.08 5.25512 0.338318 0
M  V30 13154 H 1219.57 3.77555 -0.161352 0
M  V30 13155 H 1219.88 7.66894 -0.953594 0
M  V30 13156 H 1218.23 6.89774 -0.850696 0
M  V30 13157 H 1221.42 4.67238 -0.284009 0
M  V30 13158 H 1221.59 6.44781 -0.645051 0
M  V30 13159 O 1215.04 0.0750807 1.61325 0
M  V30 13160 H 1215.73 -0.530633 1.8629 0
M  V30 END ATOM
M  V30 BEGIN BOND
M  V30 END BOND
M  V30 END CTAB
M  END
$$$$
