drugbank_target|P07437 Tubulin beta chain (DB00361; DB00541; DB00570; DB01179; DB01394; DB01873; DB03010; DB05147; DB05284; DB06042; DB06137; DB09130; DB11638; DB11641; DB11731; DB12334; DB15534)
 OpenBabel12092119253D

  0  0  0     0  0            999 V3000
M  V30 BEGIN CTAB
M  V30 COUNTS 6826 6902 0 0 0
M  V30 BEGIN ATOM
M  V30 1 H -0.908 1.98254 -0.117106 0
M  V30 2 N 0 1.576 0 0
M  V30 3 C 0.933 2.03868 1.02534 0
M  V30 4 C 1.911 0.928543 1.3348 0
M  V30 5 O 3.095 1.19667 1.45644 0
M  V30 6 C 0.222 2.43627 2.35294 0
M  V30 7 C -0.732 3.65373 2.2001 0
M  V30 8 S 0.101 5.13292 1.52614 0
M  V30 9 C 1.257 5.56322 2.86805 0
M  V30 10 H 1.49 2.90518 0.631377 0
M  V30 11 H -0.977 1.52953 0.210867 0
M  V30 12 H 0.981 2.67203 3.11629 0
M  V30 13 H -0.358 1.57376 2.7183 0
M  V30 14 H -1.165 3.90944 3.18086 0
M  V30 15 H -1.563 3.418 1.51819 0
M  V30 16 H 0.729 5.58782 3.83104 0
M  V30 17 H 1.672 6.56266 2.65933 0
M  V30 18 H 2.08 4.83886 2.90714 0
M  V30 19 N 1.4781 -0.272755 1.55222 0
M  V30 20 C 2.8941 -0.619959 1.47067 0
M  V30 21 C 3.0941 -1.895 0.684978 0
M  V30 22 O 2.1501 -2.51675 0.203931 0
M  V30 23 C 3.4631 -0.746693 2.91282 0
M  V30 24 C 5.0111 -0.840731 3.01497 0
M  V30 25 C 5.4861 -0.99924 4.46967 0
M  V30 26 N 6.9771 -1.06476 4.50796 0
M  V30 27 C 7.7121 -1.20621 5.6057 0
M  V30 28 N 7.2081 -1.31483 6.80209 0
M  V30 29 N 9.0011 -1.23733 5.48312 0
M  V30 30 H 1.1521 0.564606 2.04758 0
M  V30 31 H 3.4151 0.191177 0.928523 0
M  V30 32 H 3.1211 0.119753 3.51496 0
M  V30 33 H 2.9951 -1.6269 3.40311 0
M  V30 34 H 5.3821 -1.69764 2.41379 0
M  V30 35 H 5.4631 0.0640874 2.5572 0
M  V30 36 H 5.1071 -0.146984 5.07687 0
M  V30 37 H 5.0371 -1.91871 4.90401 0
M  V30 38 H 7.5281 -0.993196 3.64615 0
M  V30 39 H 7.8411 -1.42111 7.59621 0
M  V30 40 H 6.1861 -1.28487 6.8302 0
M  V30 41 H 9.3771 -1.14877 4.53785 0
M  V30 42 H 9.5501 -1.34412 6.33906 0
M  V30 43 N 2.9562 -1.48159 -0.537278 0
M  V30 44 C 3.8662 -1.64807 -1.6696 0
M  V30 45 C 4.8822 -0.530651 -1.65711 0
M  V30 46 O 6.0582 -0.800784 -1.84796 0
M  V30 47 C 3.1232 -1.67708 -3.03438 0
M  V30 48 C 2.1842 -2.91025 -3.156 0
M  V30 49 C 1.4172 -2.93778 -4.45567 0
M  V30 50 O 1.6402 -2.05153 -5.3223 0
M  V30 51 O 0.5742 -3.85868 -4.61941 0
M  V30 52 H 4.4002 -2.6066 -1.55853 0
M  V30 53 H 1.9852 -1.31475 -0.709549 0
M  V30 54 H 3.8672 -1.7218 -3.84619 0
M  V30 55 H 2.5422 -0.750278 -3.14885 0
M  V30 56 H 1.4492 -2.92089 -2.33741 0
M  V30 57 H 2.7822 -3.83065 -3.09066 0
M  V30 58 N 4.4343 0.785586 -1.36625 0
M  V30 59 C 5.6833 1.53883 -1.30396 0
M  V30 60 C 5.9963 1.95271 0.113452 0
M  V30 61 O 7.2023 2.69858 0.298142 0
M  V30 62 C 5.6583 2.77808 -2.28802 0
M  V30 63 C 5.2663 2.43574 -3.75999 0
M  V30 64 C 7.0103 3.55783 -2.31558 0
M  V30 65 C 4.9173 3.63919 -4.66173 0
M  V30 66 H 3.8473 0.577678 -0.484566 0
M  V30 67 H 6.4983 0.861705 -1.62009 0
M  V30 68 H 4.8803 3.47339 -1.90188 0
M  V30 69 H 6.0543 1.81916 -4.23371 0
M  V30 70 H 4.3693 1.78803 -3.76056 0
M  V30 71 H 6.9663 4.45205 -2.96137 0
M  V30 72 H 7.3093 3.94644 -1.3252 0
M  V30 73 H 7.8423 2.93235 -2.68809 0
M  V30 74 H 4.5813 3.3015 -5.66287 0
M  V30 75 H 4.1013 4.2473 -4.23515 0
M  V30 76 H 5.7803 4.30901 -4.82632 0
M  V30 77 N 5.9124 1.20967 1.01018 0
M  V30 78 C 7.1584 1.02526 1.74975 0
M  V30 79 C 7.4914 -0.4408 1.89131 0
M  V30 80 O 6.7664 -1.32718 1.42184 0
M  V30 81 C 7.0494 1.71699 3.1653 0
M  V30 82 C 6.9024 3.25791 3.10129 0
M  V30 83 C 8.2214 1.45531 4.15342 0
M  V30 84 H 5.3404 0.373863 0.635134 0
M  V30 85 H 7.9824 1.49071 1.17805 0
M  V30 86 H 6.1324 1.32128 3.65341 0
M  V30 87 H 7.8044 3.74697 2.69072 0
M  V30 88 H 6.0474 3.56363 2.47362 0
M  V30 89 H 6.7184 3.69353 4.10222 0
M  V30 90 H 9.1944 1.79872 3.75213 0
M  V30 91 H 8.0704 1.96453 5.1254 0
M  V30 92 H 8.3314 0.384237 4.40427 0
M  V30 93 N 7.3905 -1.2043 1.01659 0
M  V30 94 C 8.3405 -2.21076 0.557623 0
M  V30 95 C 9.3245 -1.56176 -0.387029 0
M  V30 96 O 10.5165 -1.7575 -0.209996 0
M  V30 97 C 7.6455 -3.43146 -0.102707 0
M  V30 98 C 6.7315 -4.15213 0.863652 0
M  V30 99 N 7.1225 -4.63662 2.02117 0
M  V30 100 C 5.4205 -4.40716 0.684472 0
M  V30 101 C 6.1215 -5.18868 2.62966 0
M  V30 102 N 5.0975 -5.0893 1.91027 0
M  V30 103 H 8.8995 -2.56201 1.44008 0
M  V30 104 H 6.4135 -1.36366 0.881931 0
M  V30 105 H 8.4105 -4.14475 -0.449054 0
M  V30 106 H 7.0705 -3.09526 -0.981003 0
M  V30 107 H 8.0815 -4.58877 2.40109 0
M  V30 108 H 4.7585 -4.17245 -0.14577 0
M  V30 109 H 6.1485 -5.6673 3.60924 0
M  V30 110 N 8.8686 -0.792821 -1.36206 0
M  V30 111 C 10.1176 -0.363353 -1.984 0
M  V30 112 C 10.4306 1.07172 -1.63626 0
M  V30 113 O 11.6366 1.60362 -2.19081 0
M  V30 114 C 10.0926 -0.59872 -3.54885 0
M  V30 115 C 9.7006 -2.04543 -3.9858 0
M  V30 116 C 11.4446 -0.233926 -4.23855 0
M  V30 117 C 9.3516 -2.22727 -5.47856 0
M  V30 118 H 8.2816 -0.13212 -0.742334 0
M  V30 119 H 10.9326 -0.974935 -1.55458 0
M  V30 120 H 9.3146 0.0826222 -3.95914 0
M  V30 121 H 10.4886 -2.76345 -3.68741 0
M  V30 122 H 8.8036 -2.36879 -3.42458 0
M  V30 123 H 11.4006 -0.348027 -5.33566 0
M  V30 124 H 11.7436 0.818351 -4.08177 0
M  V30 125 H 12.2766 -0.868639 -3.882 0
M  V30 126 H 9.0156 -3.2635 -5.68486 0
M  V30 127 H 8.5356 -1.55434 -5.7931 0
M  V30 128 H 10.2146 -2.03607 -6.14128 0
M  V30 129 N 10.3467 1.47872 -0.545128 0
M  V30 130 C 11.2787 2.27869 0.246621 0
M  V30 131 C 12.2917 1.36282 0.890561 0
M  V30 132 O 13.4807 1.61207 0.766449 0
M  V30 133 C 10.5807 3.10159 1.36582 0
M  V30 134 C 9.7537 4.29627 0.820954 0
M  V30 135 C 8.8127 4.93607 1.82314 0
M  V30 136 O 7.8387 5.52366 1.37406 0
M  V30 137 N 9.0407 4.87211 3.15603 0
M  V30 138 H 11.8057 2.96459 -0.439539 0
M  V30 139 H 9.3667 1.57367 -0.380421 0
M  V30 140 H 11.3587 3.49829 2.03474 0
M  V30 141 H 9.9287 2.43891 1.9554 0
M  V30 142 H 9.1487 3.94192 -0.0244032 0
M  V30 143 H 10.4367 5.06928 0.436063 0
M  V30 144 H 9.8347 4.40651 3.54744 0
M  V30 145 H 8.3917 5.30937 3.78087 0
M  V30 146 N 11.8248 0.280983 1.55075 0
M  V30 147 C 12.7878 -0.590896 2.21452 0
M  V30 148 C 13.7878 -1.07682 1.19421 0
M  V30 149 O 14.9778 -0.97605 1.44288 0
M  V30 150 C 12.1098 -1.81587 2.88511 0
M  V30 151 H 13.3028 -0.0112554 2.99898 0
M  V30 152 H 10.8558 0.0316438 1.56268 0
M  V30 153 H 11.5908 -2.43587 2.14093 0
M  V30 154 H 11.3758 -1.4753 3.63287 0
M  V30 155 H 12.8658 -2.43575 3.39206 0
M  V30 156 N 13.3029 -1.57598 0.00835791 0
M  V30 157 C 14.5509 -1.90551 -0.6734 0
M  V30 158 C 14.8719 -0.883301 -1.73847 0
M  V30 159 O 14.1419 0.0781442 -1.95744 0
M  V30 160 H 12.7219 -0.703312 -0.251717 0
M  V30 161 H 15.3839 -1.94833 0.0512592 0
M  V30 162 H 14.4799 -2.9056 -1.13935 0
M  V30 163 N 14.781 0.264519 -1.55364 0
M  V30 164 C 15.713 1.34965 -1.85248 0
M  V30 165 C 16.726 1.45136 -0.737525 0
M  V30 166 O 17.915 1.46801 -1.01547 0
M  V30 167 C 15.015 2.73008 -2.00797 0
M  V30 168 C 14.188 2.85324 -3.31525 0
M  V30 169 C 13.247 4.04097 -3.37034 0
M  V30 170 O 12.273 3.94455 -4.10358 0
M  V30 171 N 13.475 5.16458 -2.65049 0
M  V30 172 H 16.24 1.09672 -2.78913 0
M  V30 173 H 13.801 0.454635 -1.55386 0
M  V30 174 H 15.793 3.50772 -2.01844 0
M  V30 175 H 14.363 2.91087 -1.1396 0
M  V30 176 H 13.583 1.94377 -3.42945 0
M  V30 177 H 14.871 2.9049 -4.17724 0
M  V30 178 H 14.269 5.27181 -2.05175 0
M  V30 179 H 12.826 5.92422 -2.71809 0
M  V30 180 N 16.2591 1.48442 0.529413 0
M  V30 181 C 17.4991 1.58086 1.29569 0
M  V30 182 C 17.8631 0.249302 1.90375 0
M  V30 183 O 19.0641 0.220738 2.67892 0
M  V30 184 C 17.3351 2.68793 2.35552 0
M  V30 185 S 18.8941 2.98207 3.21898 0
M  V30 186 H 15.7121 0.557922 0.440732 0
M  V30 187 H 18.3141 1.85966 0.603059 0
M  V30 188 H 17.0181 3.64102 1.89363 0
M  V30 189 H 16.5491 2.42817 3.09522 0
M  V30 190 H 18.5641 2.37548 4.35644 0
M  V30 191 N 17.7372 -0.778329 1.37039 0
M  V30 192 C 18.9852 -1.53361 1.31623 0
M  V30 193 C 19.3062 -1.94739 -0.100831 0
M  V30 194 O 18.5762 -1.65797 -1.04347 0
M  V30 195 H 17.1562 -0.568794 0.484234 0
M  V30 196 H 19.8182 -0.926742 1.71457 0
M  V30 197 H 18.9142 -2.43606 1.95096 0
M  V30 198 N 19.2153 -1.21501 -1.00376 0
M  V30 199 C 20.1633 -0.972442 -2.11297 0
M  V30 200 C 21.1573 0.080731 -1.69208 0
M  V30 201 O 22.3633 -0.0707666 -1.79861 0
M  V30 202 H 18.7383 -0.297218 -0.690772 0
M  V30 203 H 20.7093 -1.91394 -2.28934 0
M  V30 204 C 19.4583 -0.555065 -3.43241 0
M  V30 205 H 18.7813 -1.35709 -3.76062 0
M  V30 206 H 20.2213 -0.424664 -4.21868 0
M  V30 207 C 18.6803 0.734147 -3.28804 0
M  V30 208 O 19.2103 1.78937 -3.59645 0
M  V30 209 N 17.4163 0.701133 -2.82015 0
M  V30 210 H 16.9633 -0.157874 -2.57116 0
M  V30 211 H 16.9213 1.56403 -2.72737 0
M  V30 212 N 20.6934 1.19889 -1.02296 0
M  V30 213 C 21.6254 2.22334 -0.556787 0
M  V30 214 C 22.6384 1.58674 0.364199 0
M  V30 215 O 23.8274 1.77768 0.161533 0
M  V30 216 C 20.9274 3.38257 0.208694 0
M  V30 217 C 20.1004 4.31504 -0.71577 0
M  V30 218 C 19.1594 5.262 0.00325597 0
M  V30 219 O 18.1854 5.65798 -0.621357 0
M  V30 220 N 19.3874 5.66303 1.27599 0
M  V30 221 H 22.1524 2.62957 -1.43784 0
M  V30 222 H 19.7134 1.34495 -0.901261 0
M  V30 223 H 21.7054 3.98616 0.699111 0
M  V30 224 H 20.2754 2.96472 0.991102 0
M  V30 225 H 19.4954 3.69016 -1.38638 0
M  V30 226 H 20.7834 4.9072 -1.34428 0
M  V30 227 H 20.1814 5.36155 1.80429 0
M  V30 228 H 18.7384 6.28942 1.71102 0
M  V30 229 N 22.1715 0.800033 1.35784 0
M  V30 230 C 23.4205 0.37387 1.98205 0
M  V30 231 C 23.7335 -1.06302 1.64193 0
M  V30 232 O 24.9395 -1.59198 2.19928 0
M  V30 233 C 23.3955 0.617532 3.54562 0
M  V30 234 C 23.0035 2.06654 3.9749 0
M  V30 235 C 24.7475 0.256401 4.23725 0
M  V30 236 C 22.6545 2.2563 5.46667 0
M  V30 237 H 21.5845 0.136055 0.741623 0
M  V30 238 H 24.2355 0.983166 1.54939 0
M  V30 239 H 22.6175 -0.0616248 3.95952 0
M  V30 240 H 23.7915 2.78296 3.67271 0
M  V30 241 H 22.1065 2.38691 3.41197 0
M  V30 242 H 24.7035 0.376318 5.33374 0
M  V30 243 H 25.0465 -0.796692 4.08606 0
M  V30 244 H 25.5795 0.889214 3.87734 0
M  V30 245 H 22.3185 3.2936 5.66747 0
M  V30 246 H 21.8385 1.58504 5.78478 0
M  V30 247 H 23.5175 2.06861 6.1304 0
M  V30 248 N 23.6496 -1.47581 0.552962 0
M  V30 249 C 24.8976 -2.02082 0.0272703 0
M  V30 250 C 25.2186 -1.4301 -1.32563 0
M  V30 251 O 24.4886 -0.603745 -1.86365 0
M  V30 252 H 23.0686 -0.746966 0.00709182 0
M  V30 253 H 25.7306 -1.81033 0.722008 0
M  V30 254 H 24.8266 -3.12034 -0.0639951 0
M  V30 255 N 25.1277 -0.289203 -1.54924 0
M  V30 256 C 26.0907 0.579144 -2.21762 0
M  V30 257 C 27.0907 1.07047 -1.1999 0
M  V30 258 O 28.2807 0.968384 -1.44803 0
M  V30 259 C 25.4127 1.80055 -2.8947 0
M  V30 260 H 26.6057 -0.00464908 -2.999 0
M  V30 261 H 24.1587 -0.0399306 -1.56249 0
M  V30 262 H 24.8937 2.42449 -2.15381 0
M  V30 263 H 24.6787 1.45602 -3.64064 0
M  V30 264 H 26.1687 2.41773 -3.40493 0
M  V30 265 N 26.6058 1.57591 -0.0167156 0
M  V30 266 C 27.5528 2.09462 0.969251 0
M  V30 267 C 28.5228 0.99381 1.33089 0
M  V30 268 O 29.7078 1.26726 1.42636 0
M  V30 269 C 26.8478 2.61622 2.25051 0
M  V30 270 C 25.9608 3.85666 1.94642 0
M  V30 271 C 25.0958 4.26266 3.16972 0
M  V30 272 C 24.1348 5.43101 2.82326 0
M  V30 273 N 23.2718 5.78915 3.97243 0
M  V30 274 H 28.1118 2.93428 0.519997 0
M  V30 275 H 25.6488 1.45044 0.245087 0
M  V30 276 H 27.6068 2.89949 2.99976 0
M  V30 277 H 26.2368 1.80505 2.67615 0
M  V30 278 H 25.2888 3.64145 1.10013 0
M  V30 279 H 26.6008 4.70678 1.65117 0
M  V30 280 H 25.7548 4.55963 4.00228 0
M  V30 281 H 24.4938 3.39996 3.49648 0
M  V30 282 H 23.4988 5.1311 1.97479 0
M  V30 283 H 24.7238 6.3106 2.50879 0
M  V30 284 H 22.6698 4.95602 4.29785 0
M  V30 285 H 22.5868 6.58539 3.71299 0
M  V30 286 H 23.8548 6.13212 4.81239 0
M  V30 287 N 28.0839 -0.256276 1.55502 0
M  V30 288 C 29.3309 -0.985619 1.76895 0
M  V30 289 C 29.6589 -1.85671 0.579355 0
M  V30 290 O 28.9139 -1.90744 -0.437651 0
M  V30 291 C 29.2129 -1.88432 3.03691 0
M  V30 292 C 28.8789 -1.16936 4.35473 0
M  V30 293 C 27.5409 -0.97173 4.71286 0
M  V30 294 C 29.8929 -0.661889 5.1698 0
M  V30 295 C 27.2209 -0.254179 5.86149 0
M  V30 296 C 29.5729 0.042149 6.32586 0
M  V30 297 C 28.2369 0.25134 6.67027 0
M  V30 298 H 27.5069 -0.360663 0.647304 0
M  V30 299 H 30.1539 -0.256483 1.89775 0
M  V30 300 H 28.4589 -2.68021 2.85783 0
M  V30 301 H 30.1559 -2.45015 3.1744 0
M  V30 302 H 26.7459 -1.33332 4.07333 0
M  V30 303 H 30.9299 -0.802145 4.89775 0
M  V30 304 H 26.1859 -0.0815408 6.11346 0
M  V30 305 H 30.3599 0.443049 6.94989 0
M  V30 306 H 27.9869 0.809314 7.5588 0
M  V30 307 N 29.562 -1.4872 -0.521534 0
M  V30 308 C 30.808 -1.58378 -1.27624 0
M  V30 309 C 31.163 -0.258028 -1.90662 0
M  V30 310 O 30.456 0.739917 -1.76736 0
M  V30 311 C 30.65 -2.66497 -2.38148 0
M  V30 312 C 30.479 -4.09456 -1.85945 0
M  V30 313 C 29.249 -4.76495 -1.68168 0
M  V30 314 C 31.447 -4.95353 -1.3831 0
M  V30 315 N 29.429 -6.0384 -1.1068 0
M  V30 316 C 30.8 -6.13012 -0.928238 0
M  V30 317 C 32.855 -4.81512 -1.26692 0
M  V30 318 C 31.558 -7.18354 -0.368701 0
M  V30 319 C 33.584 -5.86984 -0.721368 0
M  V30 320 C 32.946 -7.03857 -0.276623 0
M  V30 321 H 29.045 -0.634045 -0.457724 0
M  V30 322 H 31.629 -1.85639 -0.587049 0
M  V30 323 H 29.8 -2.41043 -3.04553 0
M  V30 324 H 31.532 -2.65791 -3.05184 0
M  V30 325 H 28.287 -4.32962 -1.91939 0
M  V30 326 H 28.711 -6.71778 -0.839217 0
M  V30 327 H 33.353 -3.91487 -1.5968 0
M  V30 328 H 31.071 -8.08096 -0.0265122 0
M  V30 329 H 34.657 -5.78329 -0.634531 0
M  V30 330 H 33.537 -7.84077 0.138947 0
M  V30 331 N 31.0401 0.771051 -1.3745 0
M  V30 332 C 31.9501 1.91538 -1.35464 0
M  V30 333 C 32.9661 1.72134 -0.254123 0
M  V30 334 O 34.1421 1.95358 -0.489626 0
M  V30 335 C 31.2071 3.26671 -1.16134 0
M  V30 336 C 30.2681 3.58723 -2.35831 0
M  V30 337 C 29.5011 4.87409 -2.17413 0
M  V30 338 O 29.7241 5.58506 -1.15876 0
M  V30 339 O 28.6581 5.18539 -3.05615 0
M  V30 340 H 32.4841 1.96165 -2.31847 0
M  V30 341 H 30.0691 0.9139 -1.18187 0
M  V30 342 H 31.9511 4.07499 -1.07345 0
M  V30 343 H 30.6261 3.22894 -0.228251 0
M  V30 344 H 29.5331 2.78127 -2.50192 0
M  V30 345 H 30.8661 3.67243 -3.27709 0
M  V30 346 N 32.5182 1.22032 0.997298 0
M  V30 347 C 33.7642 1.04376 1.73878 0
M  V30 348 C 34.0972 -0.420716 1.89588 0
M  V30 349 O 33.3722 -1.31202 1.43583 0
M  V30 350 C 33.6552 1.75047 3.14691 0
M  V30 351 C 33.5082 3.29062 3.06656 0
M  V30 352 C 34.8272 1.49928 4.13775 0
M  V30 353 H 31.9462 0.380578 0.631133 0
M  V30 354 H 34.5882 1.50312 1.16217 0
M  V30 355 H 32.7382 1.35996 3.63919 0
M  V30 356 H 34.4102 3.7753 2.65083 0
M  V30 357 H 32.6532 3.58967 2.43568 0
M  V30 358 H 33.3242 3.73683 4.06282 0
M  V30 359 H 35.8002 1.83842 3.73285 0
M  V30 360 H 34.6762 2.01878 5.10428 0
M  V30 361 H 34.9372 0.430929 4.39995 0
M  V30 362 N 33.9963 -1.19345 1.0293 0
M  V30 363 C 35.2453 -1.88363 0.721256 0
M  V30 364 C 35.5583 -1.80514 -0.753254 0
M  V30 365 O 36.7643 -2.44788 -1.17436 0
M  V30 366 C 35.2203 -3.37872 1.23978 0
M  V30 367 C 34.8283 -3.54278 2.74211 0
M  V30 368 C 36.5723 -4.12365 1.00775 0
M  V30 369 C 34.4793 -4.97682 3.19479 0
M  V30 370 H 33.4093 -0.705484 0.266098 0
M  V30 371 H 36.0603 -1.34928 1.24365 0
M  V30 372 H 34.4423 -3.90707 0.6453 0
M  V30 373 H 35.6163 -3.11769 3.39318 0
M  V30 374 H 33.9313 -2.93174 2.95699 0
M  V30 375 H 36.5283 -5.18119 1.32123 0
M  V30 376 H 36.8713 -4.16263 -0.0554308 0
M  V30 377 H 37.4043 -3.65668 1.56625 0
M  V30 378 H 34.1433 -4.98945 4.25128 0
M  V30 379 H 33.6633 -5.4095 2.591 0
M  V30 380 H 35.3423 -5.66337 3.12845 0
M  V30 381 N 35.4744 -0.807222 -1.35358 0
M  V30 382 C 36.6994 -0.399309 -2.0352 0
M  V30 383 C 37.1244 0.981986 -1.60433 0
M  V30 384 O 36.4824 1.63601 -0.781299 0
M  V30 385 C 36.5304 -0.491552 -3.57234 0
M  V30 386 O 35.6344 0.494754 -4.09421 0
M  V30 387 H 34.9754 -0.166682 -0.642739 0
M  V30 388 H 37.5054 -1.09328 -1.72941 0
M  V30 389 H 37.5154 -0.361588 -4.06395 0
M  V30 390 H 36.1904 -1.49907 -3.87944 0
M  V30 391 H 34.7674 0.324977 -3.71481 0
M  V30 392 N 36.9525 1.47285 -0.560781 0
M  V30 393 C 38.2295 1.9558 0.0277798 0
M  V30 394 C 38.6095 1.5034 1.48192 0
M  V30 395 O 37.9575 0.743882 2.16052 0
M  V30 396 C 38.1675 3.48789 -0.121418 0
M  V30 397 C 39.5155 4.24594 0.0220912 0
M  V30 398 O 40.5395 3.56166 -0.0491439 0
M  V30 399 O 39.3985 5.46217 0.175958 0
M  V30 400 H 36.4925 0.824663 0.0621342 0
M  V30 401 H 39.0385 1.5767 -0.627556 0
M  V30 402 H 37.8105 3.74533 -1.13316 0
M  V30 403 H 37.4335 3.93473 0.571366 0
M  V30 404 N 38.4306 0.297415 1.54768 0
M  V30 405 C 39.3406 -0.58983 2.27064 0
M  V30 406 C 40.3566 -1.15144 1.30453 0
M  V30 407 O 41.5326 -1.17699 1.63428 0
M  V30 408 C 38.5976 -1.74714 2.9946 0
M  V30 409 C 37.6586 -1.21997 4.11601 0
M  V30 410 C 36.8916 -2.32212 4.80535 0
M  V30 411 O 37.1146 -3.52036 4.48806 0
M  V30 412 O 36.0486 -1.99106 5.68014 0
M  V30 413 H 39.8746 -0.00348199 3.037 0
M  V30 414 H 37.4596 0.0640035 1.49263 0
M  V30 415 H 39.3416 -2.42147 3.44881 0
M  V30 416 H 38.0166 -2.32016 2.25722 0
M  V30 417 H 36.9236 -0.511458 3.70587 0
M  V30 418 H 38.2566 -0.692419 4.87305 0
M  V30 419 N 39.9087 -1.5758 0.0250728 0
M  V30 420 C 40.8587 -2.06468 -0.967201 0
M  V30 421 C 41.8427 -0.964376 -1.28797 0
M  V30 422 O 43.0347 -1.22797 -1.27475 0
M  V30 423 C 40.1637 -2.59203 -2.25097 0
M  V30 424 C 39.2497 -3.76157 -1.95874 0
M  V30 425 N 39.6407 -4.86919 -1.36905 0
M  V30 426 C 37.9387 -3.84566 -2.25887 0
M  V30 427 C 38.6397 -5.68172 -1.24724 0
M  V30 428 N 37.6157 -5.14953 -1.74138 0
M  V30 429 H 41.4177 -2.89508 -0.506176 0
M  V30 430 H 38.9317 -1.61399 -0.18004 0
M  V30 431 H 40.9287 -2.92517 -2.97052 0
M  V30 432 H 39.5887 -1.77592 -2.71829 0
M  V30 433 H 40.5997 -5.07256 -1.04459 0
M  V30 434 H 37.2767 -3.13854 -2.75321 0
M  V30 435 H 38.6667 -6.67221 -0.791605 0
M  V30 436 N 41.3868 0.248026 -1.55636 0
M  V30 437 C 42.6348 0.974295 -1.77065 0
M  V30 438 C 42.9558 1.85897 -0.588849 0
M  V30 439 O 42.2258 1.91868 0.395407 0
M  V30 440 H 40.8058 0.362733 -0.653019 0
M  V30 441 H 43.4678 0.266244 -1.93073 0
M  V30 442 H 42.5638 1.59667 -2.68166 0
M  V30 443 N 42.8649 1.48995 0.513639 0
M  V30 444 C 44.1139 1.57093 1.2651 0
M  V30 445 C 44.4269 0.257091 1.93903 0
M  V30 446 O 45.6329 0.216478 2.70636 0
M  V30 447 C 44.0889 2.77118 2.29638 0
M  V30 448 C 43.6969 4.15209 1.68241 0
M  V30 449 C 45.4409 2.94538 3.05692 0
M  V30 450 C 43.3479 5.26474 2.69406 0
M  V30 451 H 42.2779 0.584876 0.475854 0
M  V30 452 H 44.9289 1.7536 0.540487 0
M  V30 453 H 43.3109 2.52319 3.05207 0
M  V30 454 H 44.4849 4.50094 0.987505 0
M  V30 455 H 42.7999 4.03042 1.04623 0
M  V30 456 H 45.3969 3.74832 3.8132 0
M  V30 457 H 45.7399 2.04614 3.62545 0
M  V30 458 H 46.2729 3.19316 2.37238 0
M  V30 459 H 43.0119 6.18417 2.17351 0
M  V30 460 H 42.5319 4.96058 3.37175 0
M  V30 461 H 44.2109 5.55277 3.32078 0
M  V30 462 N 44.343 -0.763751 1.37857 0
M  V30 463 C 45.62 -1.51244 1.24035 0
M  V30 464 C 46 -2.10472 -0.162649 0
M  V30 465 O 45.348 -1.96206 -1.17112 0
M  V30 466 C 45.558 -2.58694 2.34261 0
M  V30 467 C 46.906 -3.25878 2.72193 0
M  V30 468 O 47.93 -2.68993 2.33497 0
M  V30 469 O 46.789 -4.2874 3.38887 0
M  V30 470 H 43.883 -0.670243 0.484462 0
M  V30 471 H 46.429 -0.800031 1.49658 0
M  V30 472 H 45.201 -2.13105 3.2818 0
M  V30 473 H 44.824 -3.37527 2.10146 0
M  V30 474 N 45.8211 -1.22559 -0.990812 0
M  V30 475 C 47.2321 -1.04791 -1.54518 0
M  V30 476 C 47.5831 0.387998 -1.92325 0
M  V30 477 O 46.7081 1.27328 -1.74976 0
M  V30 478 C 47.3031 -1.896 -2.80779 0
M  V30 479 C 45.8621 -1.76124 -3.32652 0
M  V30 480 C 45.0091 -1.8594 -2.05722 0
M  V30 481 H 47.9601 -1.36374 -0.811662 0
M  V30 482 H 47.9811 -1.41464 -3.53225 0
M  V30 483 H 47.4931 -2.94101 -2.53231 0
M  V30 484 H 45.5941 -0.743643 -3.65104 0
M  V30 485 H 45.7071 -2.58913 -4.03114 0
M  V30 486 H 44.0711 -1.29403 -2.19379 0
M  V30 487 H 44.8541 -2.91976 -1.80568 0
M  V30 488 N 47.2992 1.18797 -1.03562 0
M  V30 489 C 48.5272 1.92599 -0.755869 0
M  V30 490 C 48.9422 1.75886 0.686271 0
M  V30 491 O 48.2992 1.08517 1.46732 0
M  V30 492 C 48.3502 3.44159 -1.10619 0
M  V30 493 O 48.0712 3.60341 -2.4917 0
M  V30 494 C 49.5722 4.3507 -0.850214 0
M  V30 495 H 46.7922 0.611587 -0.276048 0
M  V30 496 H 49.3362 1.50742 -1.38192 0
M  V30 497 H 47.4912 3.83823 -0.525194 0
M  V30 498 H 47.9052 4.54128 -2.62427 0
M  V30 499 H 49.3792 5.39989 -1.14523 0
M  V30 500 H 49.8562 4.38673 0.215176 0
M  V30 501 H 50.4622 4.01097 -1.41426 0
M  V30 502 N 48.7773 0.814389 1.34928 0
M  V30 503 C 50.0253 0.397636 1.9815 0
M  V30 504 C 50.3463 -1.04069 1.64908 0
M  V30 505 O 49.6163 -1.72121 0.93548 0
M  V30 506 H 48.1963 0.144043 0.732981 0
M  V30 507 H 50.8583 1.04195 1.6471 0
M  V30 508 H 49.9543 0.509688 3.0791 0
M  V30 509 N 50.2554 -1.46986 0.568584 0
M  V30 510 C 51.4834 -2.0683 0.0539956 0
M  V30 511 C 51.8984 -1.41953 -1.24478 0
M  V30 512 O 51.2554 -0.519933 -1.74937 0
M  V30 513 C 51.3064 -3.61254 -0.133362 0
M  V30 514 O 51.0274 -4.237 1.11399 0
M  V30 515 C 52.5284 -4.37992 -0.683927 0
M  V30 516 H 49.7484 -0.669058 0.0510141 0
M  V30 517 H 52.2924 -1.88824 0.785234 0
M  V30 518 H 50.4474 -3.78735 -0.81477 0
M  V30 519 H 50.8614 -5.16388 0.91888 0
M  V30 520 H 52.3354 -5.46684 -0.764263 0
M  V30 521 H 52.8124 -4.05058 -1.69778 0
M  V30 522 H 53.4184 -4.25283 -0.0378494 0
M  V30 523 N 51.7335 -0.305618 -1.54608 0
M  V30 524 C 52.9635 0.304333 -2.04346 0
M  V30 525 C 53.3715 1.47715 -1.18224 0
M  V30 526 O 52.7145 1.82591 -0.201577 0
M  V30 527 C 52.7765 0.819031 -3.50046 0
M  V30 528 C 52.4405 -0.22912 -4.56425 0
M  V30 529 C 53.4375 -1.05914 -5.08997 0
M  V30 530 C 51.1225 -0.372148 -5.0092 0
M  V30 531 C 53.1165 -2.01809 -6.04609 0
M  V30 532 C 50.8035 -1.33454 -5.9635 0
M  V30 533 C 51.8015 -2.15599 -6.48079 0
M  V30 534 O 51.4895 -3.10205 -7.41639 0
M  V30 535 H 51.2215 0.0693996 -0.672428 0
M  V30 536 H 53.7755 -0.444548 -2.00532 0
M  V30 537 H 52.0055 1.61852 -3.51199 0
M  V30 538 H 53.6945 1.34537 -3.82955 0
M  V30 539 H 54.4605 -0.959538 -4.75413 0
M  V30 540 H 50.3395 0.257304 -4.60281 0
M  V30 541 H 53.8835 -2.65966 -6.44909 0
M  V30 542 H 49.7805 -1.43485 -6.29351 0
M  V30 543 H 50.5485 -3.05237 -7.59455 0
M  V30 544 N 53.2116 1.57565 -0.0334293 0
M  V30 545 C 54.1616 2.06978 0.956237 0
M  V30 546 C 55.1456 0.971193 1.28283 0
M  V30 547 O 56.3376 1.23471 1.26822 0
M  V30 548 C 53.4666 2.60393 2.23719 0
M  V30 549 C 52.5526 3.7719 1.93877 0
M  V30 550 N 52.9436 4.87639 1.34321 0
M  V30 551 C 51.2416 3.85758 2.23845 0
M  V30 552 C 51.9426 5.68825 1.21709 0
M  V30 553 N 50.9186 5.1587 1.71404 0
M  V30 554 H 54.7206 2.89773 0.490815 0
M  V30 555 H 52.2346 1.61492 0.171478 0
M  V30 556 H 54.2316 2.94088 2.95496 0
M  V30 557 H 52.8916 1.79031 2.70884 0
M  V30 558 H 53.9026 5.07803 1.01767 0
M  V30 559 H 50.5796 3.1531 2.73653 0
M  V30 560 H 51.9696 6.67631 0.75621 0
M  V30 561 N 54.6897 -0.239769 1.55765 0
M  V30 562 C 55.9377 -0.964892 1.77579 0
M  V30 563 C 56.2587 -1.85582 0.598699 0
M  V30 564 O 55.5287 -1.92075 -0.385226 0
M  V30 565 H 54.1087 -0.359265 0.654933 0
M  V30 566 H 56.7707 -0.256001 1.93211 0
M  V30 567 H 55.8667 -1.58243 2.69009 0
M  V30 568 N 56.1678 -1.49265 -0.50573 0
M  V30 569 C 57.4448 -1.49012 -1.26707 0
M  V30 570 C 57.8248 -0.215205 -2.1 0
M  V30 571 O 57.1728 0.802547 -2.13943 0
M  V30 572 C 57.3828 -2.7663 -2.12783 0
M  V30 573 C 58.7308 -3.25932 -2.72127 0
M  V30 574 O 59.7548 -2.77715 -2.23054 0
M  V30 575 O 58.6138 -4.09897 -3.61451 0
M  V30 576 H 55.7078 -0.596197 -0.57313 0
M  V30 577 H 58.2538 -1.61524 -0.52039 0
M  V30 578 H 57.0258 -3.60916 -1.5118 0
M  V30 579 H 56.6488 -2.66956 -2.94653 0
M  V30 580 N 57.6459 0.756429 -1.3826 0
M  V30 581 C 58.8709 1.55077 -1.37717 0
M  V30 582 C 59.2959 1.88073 0.03164 0
M  V30 583 O 58.6539 1.50364 1.01293 0
M  V30 584 C 58.7019 2.8283 -2.23695 0
M  V30 585 O 57.8059 3.77862 -1.6521 0
M  V30 586 H 57.1469 0.469152 -0.469885 0
M  V30 587 H 59.6769 0.935019 -1.81985 0
M  V30 588 H 59.6869 3.31783 -2.37453 0
M  V30 589 H 58.3619 2.58144 -3.2609 0
M  V30 590 H 56.9389 3.36555 -1.60578 0
M  V30 591 N 59.124 1.23083 0.984299 0
M  V30 592 C 60.401 0.9689 1.69917 0
M  V30 593 C 60.781 -0.513604 2.04757 0
M  V30 594 O 60.129 -1.48383 1.73767 0
M  V30 595 C 60.339 1.87518 2.94343 0
M  V30 596 C 61.687 2.13636 3.6694 0
M  V30 597 O 62.711 1.85036 3.04368 0
M  V30 598 O 61.57 2.62119 4.79537 0
M  V30 599 H 58.664 0.365095 0.742048 0
M  V30 600 H 61.21 1.34107 1.03987 0
M  V30 601 H 59.982 2.87756 2.65164 0
M  V30 602 H 59.605 1.50514 3.6801 0
M  V30 603 N 60.6021 -1.18246 1.0419 0
M  V30 604 C 61.5321 -2.24127 0.654914 0
M  V30 605 C 62.5131 -1.66617 -0.342451 0
M  V30 606 O 63.6981 -1.92924 -0.222277 0
M  V30 607 C 60.8281 -3.47295 0.0183757 0
M  V30 608 C 59.7821 -4.17563 0.939414 0
M  V30 609 C 59.1081 -5.34438 0.167286 0
M  V30 610 C 60.4081 -4.70917 2.25908 0
M  V30 611 H 62.1021 -2.56753 1.54007 0
M  V30 612 H 59.6481 -1.23414 0.74195 0
M  V30 613 H 61.6011 -4.20572 -0.264082 0
M  V30 614 H 60.3251 -3.13907 -0.901664 0
M  V30 615 H 58.9841 -3.46186 1.20628 0
M  V30 616 H 58.6321 -4.97298 -0.7552 0
M  V30 617 H 58.3321 -5.82388 0.780901 0
M  V30 618 H 59.8561 -6.10504 -0.108125 0
M  V30 619 H 61.2701 -5.35882 2.03724 0
M  V30 620 H 59.6671 -5.29406 2.82577 0
M  V30 621 H 60.7371 -3.88272 2.9047 0
M  V30 622 N 62.0802 -0.821533 -1.34494 0
M  V30 623 C 63.0122 -0.199946 -2.28326 0
M  V30 624 C 64.0252 0.609377 -1.50965 0
M  V30 625 O 65.2142 0.439285 -1.7301 0
M  V30 626 C 62.3142 0.738431 -3.30757 0
M  V30 627 C 61.4872 -0.0277632 -4.37391 0
M  V30 628 C 60.5462 0.831332 -5.19591 0
M  V30 629 O 59.5722 0.276822 -5.68526 0
M  V30 630 N 60.7742 2.15132 -5.39165 0
M  V30 631 H 63.5392 -1.00609 -2.82308 0
M  V30 632 H 61.1002 -0.678366 -1.47003 0
M  V30 633 H 63.0922 1.31773 -3.82646 0
M  V30 634 H 61.6622 1.44533 -2.7718 0
M  V30 635 H 60.8822 -0.788359 -3.86236 0
M  V30 636 H 62.1702 -0.555251 -5.05761 0
M  V30 637 H 61.5682 2.62559 -5.01078 0
M  V30 638 H 60.1252 2.6795 -5.94177 0
M  V30 639 N 63.5583 1.46682 -0.576371 0
M  V30 640 C 64.4883 2.33028 0.148397 0
M  V30 641 C 65.4693 1.44961 0.889956 0
M  V30 642 O 66.6543 1.73789 0.866662 0
M  V30 643 C 63.7843 3.27117 1.1667 0
M  V30 644 C 62.7383 4.24575 0.540386 0
M  V30 645 C 62.0643 5.08126 1.6647 0
M  V30 646 C 63.3643 5.19722 -0.518331 0
M  V30 647 H 65.0583 2.93875 -0.572509 0
M  V30 648 H 62.6043 1.41315 -0.276768 0
M  V30 649 H 64.5573 3.86374 1.68204 0
M  V30 650 H 63.2813 2.64364 1.9178 0
M  V30 651 H 61.9403 3.66571 0.0461769 0
M  V30 652 H 61.5883 4.41762 2.40531 0
M  V30 653 H 61.2883 5.74122 1.25131 0
M  V30 654 H 62.8123 5.70246 2.18293 0
M  V30 655 H 64.2263 5.73232 -0.0883058 0
M  V30 656 H 62.6233 5.94026 -0.851679 0
M  V30 657 H 63.6933 4.64037 -1.40703 0
M  V30 658 N 65.0364 0.313813 1.54444 0
M  V30 659 C 66.3134 -0.345447 1.92525 0
M  V30 660 C 66.6934 -1.70667 1.24242 0
M  V30 661 O 66.0414 -2.25273 0.382654 0
M  V30 662 C 66.2514 -0.44737 3.46121 0
M  V30 663 C 67.5994 -0.712238 4.18584 0
M  V30 664 O 68.6234 -0.530678 3.52225 0
M  V30 665 O 67.4824 -1.06183 5.36085 0
M  V30 666 H 64.5764 -0.195407 0.803583 0
M  V30 667 H 67.1224 0.362813 1.65776 0
M  V30 668 H 65.8944 0.509043 3.87975 0
M  V30 669 H 65.5174 -1.20359 3.78945 0
M  V30 670 N 66.5145 -1.57545 0.0417849 0
M  V30 671 C 67.9305 -1.56467 -0.314704 0
M  V30 672 C 68.1305 -1.04859 -1.72066 0
M  V30 673 O 67.1865 -0.700983 -2.42575 0
M  V30 674 C 68.4995 -3.00317 -0.15174 0
M  V30 675 C 70.0475 -3.12201 -0.223553 0
M  V30 676 C 70.5225 -4.57913 -0.0892295 0
M  V30 677 N 72.0135 -4.6297 -0.145808 0
M  V30 678 C 72.7485 -5.73362 -0.0658459 0
M  V30 679 N 72.2445 -6.92769 0.0659282 0
M  V30 680 N 74.0375 -5.6197 -0.12075 0
M  V30 681 H 66.1885 -1.89416 0.961014 0
M  V30 682 H 68.4515 -0.871862 0.372237 0
M  V30 683 H 68.1575 -3.42073 0.817254 0
M  V30 684 H 68.0315 -3.65892 -0.916692 0
M  V30 685 H 70.4185 -2.70349 -1.18301 0
M  V30 686 H 70.4995 -2.49323 0.571994 0
M  V30 687 H 70.1435 -5.00448 0.866867 0
M  V30 688 H 70.0735 -5.18786 -0.903802 0
M  V30 689 H 72.5645 -3.7709 -0.247286 0
M  V30 690 H 72.8775 -7.72707 0.119905 0
M  V30 691 H 71.2225 -6.94927 0.100885 0
M  V30 692 H 74.4135 -4.67572 -0.222187 0
M  V30 693 H 74.5865 -6.47977 -0.0549735 0
M  V30 694 N 67.9926 0.231505 -1.5589 0
M  V30 695 C 69.2416 0.955346 -1.7764 0
M  V30 696 C 69.5546 1.85893 -0.608546 0
M  V30 697 O 70.7606 2.62067 -0.70943 0
M  V30 698 C 69.2166 1.74886 -3.14552 0
M  V30 699 C 68.8246 0.891915 -4.39032 0
M  V30 700 C 70.5686 2.46452 -3.45633 0
M  V30 701 C 68.4756 1.68221 -5.66971 0
M  V30 702 H 67.4056 0.360446 -0.662265 0
M  V30 703 H 70.0566 0.209516 -1.823 0
M  V30 704 H 68.4386 2.53723 -3.04041 0
M  V30 705 H 69.6126 0.144793 -4.60572 0
M  V30 706 H 67.9276 0.288863 -4.15397 0
M  V30 707 H 70.5246 3.06061 -4.38441 0
M  V30 708 H 70.8676 3.18841 -2.67668 0
M  V30 709 H 71.4006 1.74613 -3.57428 0
M  V30 710 H 68.1396 1.00178 -6.478 0
M  V30 711 H 67.6596 2.4042 -5.49507 0
M  V30 712 H 69.3386 2.24544 -6.06786 0
M  V30 713 N 69.4707 1.49531 0.497807 0
M  V30 714 C 70.6957 1.63159 1.28039 0
M  V30 715 C 71.1207 0.30418 1.85624 0
M  V30 716 O 70.4787 -0.728618 1.66015 0
M  V30 717 C 70.5267 2.70537 2.38416 0
M  V30 718 O 69.6307 2.29931 3.42353 0
M  V30 719 H 68.9717 0.546001 0.377861 0
M  V30 720 H 71.5017 1.9574 0.59558 0
M  V30 721 H 71.5117 2.92802 2.84132 0
M  V30 722 H 70.1867 3.6689 1.95869 0
M  V30 723 H 68.7637 2.18009 3.02533 0
M  V30 724 N 70.9488 -0.749086 1.3866 0
M  V30 725 C 72.1948 -1.51056 1.35314 0
M  V30 726 C 72.5278 -1.94121 -0.0553751 0
M  V30 727 O 71.8028 -1.65763 -1.01749 0
M  V30 728 C 72.0858 -2.76003 2.31288 0
M  V30 729 C 71.9388 -2.39047 3.8102 0
M  V30 730 C 73.2578 -3.78046 2.2532 0
M  V30 731 H 70.3768 -0.547972 0.492844 0
M  V30 732 H 73.0188 -0.857628 1.69543 0
M  V30 733 H 71.1688 -3.31716 2.02229 0
M  V30 734 H 72.8408 -1.89074 4.20771 0
M  V30 735 H 71.0838 -1.71449 3.98482 0
M  V30 736 H 71.7548 -3.28462 4.4364 0
M  V30 737 H 74.2308 -3.31884 2.50983 0
M  V30 738 H 73.1068 -4.63159 2.94576 0
M  V30 739 H 73.3678 -4.23957 1.25352 0
M  V30 740 N 72.4269 -1.23603 -0.977757 0
M  V30 741 C 73.6569 -1.09487 -1.75203 0
M  V30 742 C 74.0649 0.356321 -1.85814 0
M  V30 743 O 73.4079 1.25816 -1.33851 0
M  V30 744 C 73.4699 -1.64905 -3.19447 0
M  V30 745 C 73.1339 -3.13688 -3.32338 0
M  V30 746 C 74.1309 -4.10953 -3.18455 0
M  V30 747 C 71.8159 -3.53449 -3.56902 0
M  V30 748 C 73.8099 -5.45962 -3.28944 0
M  V30 749 C 71.4969 -4.88602 -3.6703 0
M  V30 750 C 72.4949 -5.84668 -3.53062 0
M  V30 751 O 72.1829 -7.17365 -3.62826 0
M  V30 752 H 71.9149 -0.38367 -0.556573 0
M  V30 753 H 74.4689 -1.6398 -1.23693 0
M  V30 754 H 72.6989 -1.04835 -3.72218 0
M  V30 755 H 74.3879 -1.46226 -3.78646 0
M  V30 756 H 75.1539 -3.81577 -2.99372 0
M  V30 757 H 71.0329 -2.79188 -3.66844 0
M  V30 758 H 74.5769 -6.20925 -3.17958 0
M  V30 759 H 70.4739 -5.17653 -3.85623 0
M  V30 760 H 71.2419 -7.2515 -3.79605 0
M  V30 761 N 73.905 1.17692 -1.04816 0
M  V30 762 C 75.135 1.91508 -0.775128 0
M  V30 763 C 75.543 1.76844 0.67253 0
M  V30 764 O 74.886 1.10057 1.47082 0
M  V30 765 C 74.948 3.43167 -1.0713 0
M  V30 766 C 74.612 3.81612 -2.51438 0
M  V30 767 C 75.609 3.84772 -3.49638 0
M  V30 768 C 73.294 4.12687 -2.86348 0
M  V30 769 C 75.288 4.18469 -4.80794 0
M  V30 770 C 72.975 4.46053 -4.17708 0
M  V30 771 C 73.973 4.48921 -5.14741 0
M  V30 772 O 73.661 4.81504 -6.43746 0
M  V30 773 H 73.393 0.614575 -0.281555 0
M  V30 774 H 75.947 1.50206 -1.40098 0
M  V30 775 H 74.177 3.84745 -0.388342 0
M  V30 776 H 75.866 3.98239 -0.784883 0
M  V30 777 H 76.632 3.60893 -3.24008 0
M  V30 778 H 72.511 4.09627 -2.11486 0
M  V30 779 H 76.055 4.20623 -5.56527 0
M  V30 780 H 71.952 4.69393 -4.43103 0
M  V30 781 H 72.72 4.99377 -6.4851 0
M  V30 782 N 75.3831 0.828654 1.34056 0
M  V30 783 C 76.3311 0.242973 2.31327 0
M  V30 784 C 77.3251 -0.61944 1.57668 0
M  V30 785 O 78.5311 -0.51014 1.7262 0
M  V30 786 H 74.9061 0.059834 0.749616 0
M  V30 787 H 76.8771 1.07809 2.78244 0
M  V30 788 C 75.6261 -0.575733 3.429 0
M  V30 789 H 74.9491 0.0785582 3.99723 0
M  V30 790 H 76.3891 -0.951547 4.13185 0
M  V30 791 C 74.8481 -1.75044 2.87856 0
M  V30 792 O 75.3781 -2.84882 2.83205 0
M  V30 793 N 73.5841 -1.56903 2.44602 0
M  V30 794 H 73.1311 -0.675547 2.48584 0
M  V30 795 H 73.0891 -2.35652 2.08124 0
M  V30 796 N 76.8612 -1.46375 0.584142 0
M  V30 797 C 77.7712 -2.34115 -0.150728 0
M  V30 798 C 78.7872 -1.49838 -0.884567 0
M  V30 799 O 79.9632 -1.82704 -0.847429 0
M  V30 800 C 77.0282 -3.2705 -1.15062 0
M  V30 801 C 76.0892 -4.27228 -0.421293 0
M  V30 802 C 75.3222 -5.15722 -1.37355 0
M  V30 803 O 75.5452 -5.07176 -2.61014 0
M  V30 804 O 74.4792 -5.95383 -0.883355 0
M  V30 805 H 78.3052 -2.98309 0.569708 0
M  V30 806 H 75.8902 -1.45373 0.344535 0
M  V30 807 H 77.7722 -3.84381 -1.72712 0
M  V30 808 H 76.4472 -2.65451 -1.8525 0
M  V30 809 H 75.3542 -3.7358 0.197085 0
M  V30 810 H 76.6872 -4.91616 0.239641 0
M  V30 811 N 78.3393 -0.321999 -1.54275 0
M  V30 812 C 79.3023 0.531975 -2.22941 0
M  V30 813 C 80.3023 1.04478 -1.22234 0
M  V30 814 O 81.4923 0.937452 -1.46825 0
M  V30 815 C 78.6243 1.73874 -2.93224 0
M  V30 816 H 79.8173 -0.0682612 -2.99822 0
M  V30 817 H 77.3703 -0.0730644 -1.56129 0
M  V30 818 H 78.1053 2.37825 -2.20476 0
M  V30 819 H 77.8903 1.37847 -3.6707 0
M  V30 820 H 79.3803 2.34496 -3.45545 0
M  V30 821 N 79.8174 1.5752 -0.0501392 0
M  V30 822 C 81.0454 1.96963 0.633492 0
M  V30 823 C 81.4604 0.927631 1.6444 0
M  V30 824 O 80.8174 -0.0882665 1.82286 0
M  V30 825 C 80.8684 3.36487 1.32132 0
M  V30 826 O 80.5894 4.36693 0.350894 0
M  V30 827 C 82.0904 3.90682 2.09481 0
M  V30 828 H 79.3104 0.648244 0.173266 0
M  V30 829 H 81.8544 2.0417 -0.116134 0
M  V30 830 H 80.0094 3.30434 2.02218 0
M  V30 831 H 80.4234 5.17702 0.841735 0
M  V30 832 H 81.8974 4.90591 2.5303 0
M  V30 833 H 82.3744 3.26053 2.94255 0
M  V30 834 H 82.9804 4.00069 1.44307 0
M  V30 835 N 81.2955 -0.223234 1.56011 0
M  V30 836 C 82.5435 -0.946003 1.78592 0
M  V30 837 C 82.8645 -1.84936 0.618349 0
M  V30 838 O 82.1345 -1.92473 -0.364833 0
M  V30 839 H 80.7145 -0.352298 0.658707 0
M  V30 840 H 83.3765 -0.235494 1.93472 0
M  V30 841 H 82.4725 -1.55381 2.70672 0
M  V30 842 N 82.7736 -1.49793 -0.48987 0
M  V30 843 C 84.0216 -1.59525 -1.24081 0
M  V30 844 C 84.3426 -0.288953 -1.92847 0
M  V30 845 O 83.6126 0.692436 -1.83254 0
M  V30 846 H 82.1926 -0.587796 -0.460983 0
M  V30 847 H 84.8546 -1.86477 -0.566778 0
M  V30 848 H 83.9506 -2.39696 -1.99881 0
M  V30 849 N 84.2517 0.741722 -1.39055 0
M  V30 850 C 85.1987 1.85566 -1.37237 0
M  V30 851 C 86.1687 1.64457 -0.233072 0
M  V30 852 O 87.3537 1.85957 -0.427147 0
M  V30 853 C 84.4937 3.23004 -1.215 0
M  V30 854 C 83.6067 3.55864 -2.44918 0
M  V30 855 C 82.7417 4.82669 -2.21821 0
M  V30 856 C 81.7807 5.08351 -3.40948 0
M  V30 857 N 80.9177 6.26356 -3.17211 0
M  V30 858 H 85.7577 1.86455 -2.32462 0
M  V30 859 H 83.2947 0.911176 -1.15482 0
M  V30 860 H 85.2527 4.02331 -1.10389 0
M  V30 861 H 83.8827 3.21411 -0.29908 0
M  V30 862 H 82.9347 2.7129 -2.66657 0
M  V30 863 H 84.2467 3.70765 -3.33668 0
M  V30 864 H 83.4007 5.69962 -2.07914 0
M  V30 865 H 82.1397 4.69929 -1.30454 0
M  V30 866 H 81.1447 4.19522 -3.55361 0
M  V30 867 H 82.3697 5.22981 -4.33207 0
M  V30 868 H 80.3157 6.14917 -2.28502 0
M  V30 869 H 80.2327 6.41813 -3.99515 0
M  V30 870 H 81.5007 7.16506 -3.06984 0
M  V30 871 N 85.7298 1.2412 0.971189 0
M  V30 872 C 86.9598 1.10415 1.7462 0
M  V30 873 C 87.3678 -0.346462 1.86001 0
M  V30 874 O 86.7108 -1.25104 1.34517 0
M  V30 875 C 86.7728 1.66596 3.18568 0
M  V30 876 C 86.4368 3.15446 3.3067 0
M  V30 877 C 87.4338 4.12636 3.16271 0
M  V30 878 C 85.1188 3.55337 3.55022 0
M  V30 879 C 87.1128 5.47699 3.26044 0
M  V30 880 C 84.7998 4.90542 3.64434 0
M  V30 881 C 85.7978 5.86532 3.49956 0
M  V30 882 O 85.4858 7.19279 3.59017 0
M  V30 883 H 85.2178 0.386616 0.55453 0
M  V30 884 H 87.7718 1.64633 1.22821 0
M  V30 885 H 86.0018 1.06808 3.71657 0
M  V30 886 H 87.6908 1.48232 3.77865 0
M  V30 887 H 88.4568 3.8316 2.97344 0
M  V30 888 H 84.3358 2.8113 3.65359 0
M  V30 889 H 87.8798 6.22603 3.14661 0
M  V30 890 H 83.7768 5.19691 3.82873 0
M  V30 891 H 84.5448 7.27153 3.75754 0
M  V30 892 N 87.2079 -1.17134 1.05439 0
M  V30 893 C 88.4539 -1.87733 0.767077 0
M  V30 894 C 88.7869 -1.8098 -0.704253 0
M  V30 895 O 88.0619 -1.21951 -1.5152 0
M  V30 896 C 88.3449 -3.37659 1.25133 0
M  V30 897 C 88.1979 -3.53149 2.78578 0
M  V30 898 C 89.5169 -4.31768 0.852324 0
M  V30 899 H 86.6359 -0.681687 0.280129 0
M  V30 900 H 89.2779 -1.37732 1.30881 0
M  V30 901 H 87.4279 -3.80373 0.790469 0
M  V30 902 H 89.0999 -3.19434 3.32806 0
M  V30 903 H 87.3429 -2.95345 3.17732 0
M  V30 904 H 88.0139 -4.58403 3.07523 0
M  V30 905 H 90.4899 -3.96909 1.24911 0
M  V30 906 H 89.3659 -5.35199 1.21873 0
M  V30 907 H 89.6269 -4.41429 -0.243485 0
M  V30 908 N 88.686 -0.835752 -1.33615 0
M  V30 909 C 90.097 -0.487099 -1.80234 0
M  V30 910 C 90.448 0.993627 -1.69179 0
M  V30 911 O 89.573 1.77403 -1.23924 0
M  V30 912 C 90.168 -0.877385 -3.27242 0
M  V30 913 C 88.727 -0.580915 -3.7189 0
M  V30 914 C 87.874 -1.0874 -2.5509 0
M  V30 915 H 90.825 -1.02474 -1.2118 0
M  V30 916 H 90.846 -0.186195 -3.80044 0
M  V30 917 H 90.358 -1.95512 -3.35256 0
M  V30 918 H 88.459 0.486881 -3.69405 0
M  V30 919 H 88.572 -1.13396 -4.65487 0
M  V30 920 H 86.936 -0.508392 -2.49575 0
M  V30 921 H 87.719 -2.17184 -2.65868 0
M  V30 922 N 90.1641 1.46063 -0.591896 0
M  V30 923 C 91.5801 1.57561 -0.254288 0
M  V30 924 C 91.7801 1.58565 1.24336 0
M  V30 925 O 90.8361 1.50753 2.02558 0
M  V30 926 C 92.1491 2.86549 -0.911611 0
M  V30 927 C 93.6971 3.00197 -0.886059 0
M  V30 928 C 94.1721 4.31933 -1.5231 0
M  V30 929 N 95.6631 4.38654 -1.48786 0
M  V30 930 C 96.3981 5.39222 -1.95006 0
M  V30 931 N 95.8941 6.46414 -2.49241 0
M  V30 932 N 97.6871 5.3048 -1.85868 0
M  V30 933 H 89.8381 1.43655 -1.56451 0
M  V30 934 H 92.1011 0.68583 -0.654478 0
M  V30 935 H 91.8071 2.91651 -1.96551 0
M  V30 936 H 91.6811 3.74794 -0.425368 0
M  V30 937 H 94.0681 2.9467 0.159246 0
M  V30 938 H 94.1491 2.13403 -1.41041 0
M  V30 939 H 93.7931 4.38217 -2.56765 0
M  V30 940 H 93.7231 5.17516 -0.973891 0
M  V30 941 H 96.2141 3.61793 -1.09151 0
M  V30 942 H 96.5271 7.19376 -2.82344 0
M  V30 943 H 94.8721 6.47208 -2.53272 0
M  V30 944 H 98.0631 4.45643 -1.43248 0
M  V30 945 H 98.2361 6.08711 -2.22204 0
M  V30 946 N 91.6422 0.330177 1.54103 0
M  V30 947 C 92.6052 -0.520144 2.2322 0
M  V30 948 C 93.6052 -1.03828 1.22786 0
M  V30 949 O 94.7952 -0.929652 1.4732 0
M  V30 950 C 91.9272 -1.72317 2.94142 0
M  V30 951 H 93.1202 0.0841605 2.99782 0
M  V30 952 H 90.6732 0.0813433 1.56088 0
M  V30 953 H 91.4082 -2.36653 2.21734 0
M  V30 954 H 91.1932 -1.35898 3.67796 0
M  V30 955 H 92.6832 -2.3266 3.46784 0
M  V30 956 N 93.1203 -1.57491 0.0584922 0
M  V30 957 C 94.3693 -1.92155 -0.613146 0
M  V30 958 C 94.6823 -0.939334 -1.71569 0
M  V30 959 O 95.8883 -1.17829 -2.44599 0
M  V30 960 C 94.3443 -3.41303 -1.14195 0
M  V30 961 C 93.9523 -4.47944 -0.0711265 0
M  V30 962 C 95.6963 -3.84988 -1.78841 0
M  V30 963 C 93.6033 -5.88212 -0.613225 0
M  V30 964 H 92.5333 -0.717162 -0.232796 0
M  V30 965 H 95.1843 -1.83049 0.12857 0
M  V30 966 H 93.5663 -3.45437 -1.93621 0
M  V30 967 H 94.7403 -4.55408 0.702836 0
M  V30 968 H 93.0553 -4.13644 0.478313 0
M  V30 969 H 95.6523 -4.87159 -2.20408 0
M  V30 970 H 95.9953 -3.21632 -2.64308 0
M  V30 971 H 96.5283 -3.83401 -1.06059 0
M  V30 972 H 93.2673 -6.55183 0.203978 0
M  V30 973 H 92.7873 -5.84294 -1.35501 0
M  V30 974 H 94.4663 -6.37687 -1.09383 0
M  V30 975 N 94.5984 0.214957 -1.56127 0
M  V30 976 C 95.5284 1.2695 -1.95974 0
M  V30 977 C 96.5094 1.48539 -0.828868 0
M  V30 978 O 97.6944 1.60611 -1.09168 0
M  V30 979 C 94.8244 2.61794 -2.28214 0
M  V30 980 C 93.7784 2.54851 -3.43853 0
M  V30 981 C 93.1044 3.93785 -3.61715 0
M  V30 982 C 94.4044 2.09065 -4.78632 0
M  V30 983 H 96.0984 0.93846 -2.84312 0
M  V30 984 H 93.6444 0.449996 -1.36788 0
M  V30 985 H 95.5974 3.35731 -2.54682 0
M  V30 986 H 94.3214 2.96599 -1.36736 0
M  V30 987 H 92.9804 1.8337 -3.17444 0
M  V30 988 H 92.6284 4.25908 -2.67602 0
M  V30 989 H 92.3284 3.90019 -4.39498 0
M  V30 990 H 93.8524 4.69374 -3.90539 0
M  V30 991 H 95.2664 2.7275 -5.04262 0
M  V30 992 H 93.6634 2.16346 -5.59745 0
M  V30 993 H 94.7334 1.04315 -4.73547 0
M  V30 994 N 96.0765 1.50051 0.48192 0
M  V30 995 C 97.3225 1.60736 1.2366 0
M  V30 996 C 97.6555 0.301786 1.91841 0
M  V30 997 O 96.9305 -0.696025 1.8162 0
M  V30 998 C 97.2135 2.78009 2.28874 0
M  V30 999 C 97.0665 4.18416 1.65069 0
M  V30 1000 C 98.3855 2.90867 3.30279 0
M  V30 1001 H 95.5045 0.585031 0.448228 0
M  V30 1002 H 98.1465 1.82402 0.531946 0
M  V30 1003 H 96.2965 2.59667 2.88973 0
M  V30 1004 H 97.9685 4.48322 1.0865 0
M  V30 1005 H 96.2115 4.23177 0.954148 0
M  V30 1006 H 96.8825 4.96381 2.41474 0
M  V30 1007 H 99.3585 3.07623 2.80191 0
M  V30 1008 H 98.2345 3.74566 4.01238 0
M  V30 1009 H 98.4955 2.01021 3.93755 0
M  V30 1010 N 97.5546 -0.734337 1.39446 0
M  V30 1011 C 98.8316 -1.48579 1.27215 0
M  V30 1012 C 99.2116 -2.1077 -0.117968 0
M  V30 1013 O 98.5596 -1.98646 -1.12924 0
M  V30 1014 C 98.7696 -2.53667 2.39696 0
M  V30 1015 C 100.118 -3.20031 2.79044 0
M  V30 1016 O 101.142 -2.6398 2.39151 0
M  V30 1017 O 100.001 -4.21455 3.47905 0
M  V30 1018 H 97.0946 -0.659816 0.49857 0
M  V30 1019 H 99.6406 -0.768106 1.51322 0
M  V30 1020 H 98.4126 -2.06096 3.32626 0
M  V30 1021 H 98.0356 -3.32994 2.17258 0
M  V30 1022 N 99.0327 -1.24633 -0.964593 0
M  V30 1023 C 99.9627 -1.06611 -2.07741 0
M  V30 1024 C 100.944 0.0218666 -1.70086 0
M  V30 1025 O 102.129 -0.145793 -1.93652 0
M  V30 1026 C 99.2587 -0.673444 -3.40708 0
M  V30 1027 C 98.2127 -1.71054 -3.92332 0
M  V30 1028 C 97.5387 -1.17285 -5.21678 0
M  V30 1029 C 98.8387 -3.10718 -4.19824 0
M  V30 1030 H 100.533 -1.99693 -2.23076 0
M  V30 1031 H 98.0787 -0.96152 -1.07195 0
M  V30 1032 H 100.032 -0.534345 -4.17998 0
M  V30 1033 H 98.7557 0.293073 -3.25282 0
M  V30 1034 H 97.4147 -1.83791 -3.17201 0
M  V30 1035 H 97.0627 -0.196847 -5.02615 0
M  V30 1036 H 96.7627 -1.86592 -5.57187 0
M  V30 1037 H 98.2867 -1.04593 -6.01575 0
M  V30 1038 H 99.7007 -3.01192 -4.87808 0
M  V30 1039 H 98.0977 -3.77406 -4.66567 0
M  V30 1040 H 99.1677 -3.58524 -3.26479 0
M  V30 1041 N 100.511 1.16574 -1.06058 0
M  V30 1042 C 101.421 2.2452 -0.680282 0
M  V30 1043 C 102.437 1.71348 0.302604 0
M  V30 1044 O 103.613 2.00822 0.152513 0
M  V30 1045 C 100.678 3.46629 -0.0700315 0
M  V30 1046 C 99.7388 4.14849 -1.10448 0
M  V30 1047 C 98.9718 5.31129 -0.523256 0
M  V30 1048 O 99.1948 5.66514 0.664709 0
M  V30 1049 O 98.1288 5.88526 -1.26179 0
M  V30 1050 H 101.955 2.59355 -1.58015 0
M  V30 1051 H 99.5398 1.24043 -0.832694 0
M  V30 1052 H 101.422 4.20543 0.268667 0
M  V30 1053 H 100.097 3.13573 0.803353 0
M  V30 1054 H 99.0038 3.42916 -1.49532 0
M  V30 1055 H 100.337 4.51954 -1.94931 0
M  V30 1056 N 101.989 0.842826 1.3317 0
M  V30 1057 C 103.4 0.496651 1.79973 0
M  V30 1058 C 103.751 -0.984641 1.69703 0
M  V30 1059 O 102.876 -1.76743 1.24863 0
M  V30 1060 C 103.471 0.894727 3.26772 0
M  V30 1061 C 102.03 0.600629 3.71577 0
M  V30 1062 C 101.177 1.10091 2.5451 0
M  V30 1063 H 104.128 1.03116 1.20635 0
M  V30 1064 H 104.149 0.206347 3.7994 0
M  V30 1065 H 103.661 1.97287 3.34215 0
M  V30 1066 H 101.762 -0.467284 3.69658 0
M  V30 1067 H 101.875 1.15863 4.64879 0
M  V30 1068 H 100.239 0.52162 2.49301 0
M  V30 1069 H 101.022 2.18591 2.64713 0
M  V30 1070 N 103.467 -1.45747 0.599634 0
M  V30 1071 C 104.715 -2.01893 0.0915472 0
M  V30 1072 C 105.036 -1.47155 -1.27946 0
M  V30 1073 O 104.306 -0.66273 -1.84349 0
M  V30 1074 H 102.886 -0.746363 0.0308524 0
M  V30 1075 H 105.548 -1.78645 0.779237 0
M  V30 1076 H 104.644 -3.1208 0.0353086 0
M  V30 1077 N 104.945 -0.338344 -1.53925 0
M  V30 1078 C 106.173 0.261298 -2.05243 0
M  V30 1079 C 106.588 1.44625 -1.21363 0
M  V30 1080 O 105.945 1.80811 -0.247736 0
M  V30 1081 C 105.996 0.681412 -3.5502 0
M  V30 1082 O 105.717 -0.456414 -4.35716 0
M  V30 1083 C 107.218 1.34232 -4.22489 0
M  V30 1084 H 104.438 0.0513685 -0.669031 0
M  V30 1085 H 106.982 -0.488822 -1.98572 0
M  V30 1086 H 105.137 1.38148 -3.61931 0
M  V30 1087 H 105.551 -0.122564 -5.24357 0
M  V30 1088 H 107.025 1.58708 -5.28693 0
M  V30 1089 H 107.502 2.29426 -3.74514 0
M  V30 1090 H 108.108 0.684424 -4.19757 0
M  V30 1091 N 106.423 1.57458 -0.0668435 0
M  V30 1092 C 107.356 2.08033 0.93795 0
M  V30 1093 C 108.334 0.984321 1.29421 0
M  V30 1094 O 109.518 1.25736 1.40437 0
M  V30 1095 C 106.645 2.53388 2.24749 0
M  V30 1096 C 105.691 3.74376 2.04315 0
M  V30 1097 S 106.524 5.19303 1.30706 0
M  V30 1098 C 107.68 5.67986 2.62951 0
M  V30 1099 H 107.913 2.92935 0.50759 0
M  V30 1100 H 105.446 1.5371 0.145804 0
M  V30 1101 H 107.404 2.8018 3.00016 0
M  V30 1102 H 106.065 1.68763 2.64911 0
M  V30 1103 H 105.258 4.04083 3.01218 0
M  V30 1104 H 104.86 3.47931 1.37186 0
M  V30 1105 H 107.152 5.74528 3.5906 0
M  V30 1106 H 108.095 6.66955 2.3786 0
M  V30 1107 H 108.503 4.95781 2.69929 0
M  V30 1108 N 107.901 -0.206675 1.56239 0
M  V30 1109 C 109.178 -0.954051 1.70755 0
M  V30 1110 C 109.558 -2.01841 0.618353 0
M  V30 1111 O 108.906 -2.25444 -0.372434 0
M  V30 1112 C 109.116 -1.551 3.12642 0
M  V30 1113 C 110.464 -2.03757 3.72516 0
M  V30 1114 O 111.488 -1.64965 3.15698 0
M  V30 1115 O 110.347 -2.75103 4.72208 0
M  V30 1116 H 107.441 -0.446636 0.696021 0
M  V30 1117 H 109.987 -0.197283 1.68549 0
M  V30 1118 H 108.759 -0.783212 3.83382 0
M  V30 1119 H 108.382 -2.37291 3.19028 0
M  V30 1120 N 109.379 -1.50304 -0.473955 0
M  V30 1121 C 110.604 -1.65175 -1.25427 0
M  V30 1122 C 111.029 -0.333673 -1.85117 0
M  V30 1123 O 110.387 0.702114 -1.67153 0
M  V30 1124 C 110.435 -2.74295 -2.34082 0
M  V30 1125 O 109.539 -2.35349 -3.38651 0
M  V30 1126 H 108.88 -0.551944 -0.369126 0
M  V30 1127 H 111.41 -1.96662 -0.564364 0
M  V30 1128 H 111.42 -2.97285 -2.79438 0
M  V30 1129 H 110.095 -3.69959 -1.90008 0
M  V30 1130 H 108.672 -2.22794 -2.99027 0
M  V30 1131 N 110.857 0.726932 -1.39834 0
M  V30 1132 C 112.103 1.48884 -1.377 0
M  V30 1133 C 112.436 1.94185 0.0244852 0
M  V30 1134 O 111.711 1.67361 0.990986 0
M  V30 1135 C 111.994 2.72288 -2.3565 0
M  V30 1136 C 111.847 2.32956 -3.84775 0
M  V30 1137 C 113.166 3.74414 -2.31306 0
M  V30 1138 H 110.285 0.540062 -0.5015 0
M  V30 1139 H 112.927 0.830547 -1.70886 0
M  V30 1140 H 111.077 3.28457 -2.07481 0
M  V30 1141 H 112.749 1.82356 -4.23726 0
M  V30 1142 H 110.992 1.65088 -4.01159 0
M  V30 1143 H 111.663 3.21362 -4.4881 0
M  V30 1144 H 114.139 3.27849 -2.56231 0
M  V30 1145 H 113.015 4.58414 -3.01907 0
M  V30 1146 H 113.276 4.21909 -1.32081 0
M  V30 1147 N 112.336 1.25143 0.95797 0
M  V30 1148 C 113.752 1.01892 1.22842 0
M  V30 1149 C 113.952 -0.266311 1.99732 0
M  V30 1150 O 113.008 -0.979913 2.3271 0
M  V30 1151 C 114.321 2.24004 2.00606 0
M  V30 1152 C 115.869 2.28731 2.13662 0
M  V30 1153 C 116.344 3.5049 2.94823 0
M  V30 1154 N 117.835 3.50866 3.02403 0
M  V30 1155 C 118.57 4.4174 3.65586 0
M  V30 1156 N 118.066 5.42882 4.30408 0
M  V30 1157 N 119.859 4.29429 3.62694 0
M  V30 1158 H 112.01 2.07718 0.443493 0
M  V30 1159 H 114.273 0.912031 0.258657 0
M  V30 1160 H 113.979 3.17395 1.51503 0
M  V30 1161 H 113.853 2.26907 3.01319 0
M  V30 1162 H 116.24 1.35865 2.61963 0
M  V30 1163 H 116.321 2.29848 1.12265 0
M  V30 1164 H 115.965 4.43676 2.47213 0
M  V30 1165 H 115.895 3.46617 3.96439 0
M  V30 1166 H 118.386 2.777 2.56302 0
M  V30 1167 H 118.699 6.0844 4.76467 0
M  V30 1168 H 117.044 5.46758 4.29047 0
M  V30 1169 H 120.235 3.49643 3.11236 0
M  V30 1170 H 120.408 5.00448 4.1165 0
M  V30 1171 N 113.814 -1.1601 1.06675 0
M  V30 1172 C 115.039 -1.91068 0.806706 0
M  V30 1173 C 115.464 -1.77112 -0.633485 0
M  V30 1174 O 114.822 -1.09908 -1.44187 0
M  V30 1175 C 114.87 -3.39655 1.21106 0
M  V30 1176 O 113.974 -4.10893 0.352189 0
M  V30 1177 H 113.315 -0.595125 0.294486 0
M  V30 1178 H 115.845 -1.46955 1.42356 0
M  V30 1179 H 115.855 -3.90434 1.18428 0
M  V30 1180 H 114.53 -3.49132 2.26008 0
M  V30 1181 H 113.107 -3.70285 0.440868 0
M  V30 1182 N 115.292 -0.849877 -1.32721 0
M  V30 1183 C 116.54 -0.450032 -1.97026 0
M  V30 1184 C 116.861 0.996604 -1.67609 0
M  V30 1185 O 116.131 1.6958 -0.980786 0
M  V30 1186 H 114.711 -0.163426 -0.728904 0
M  V30 1187 H 117.373 -1.08526 -1.6189 0
M  V30 1188 H 116.469 -0.591146 -3.0645 0
M  V30 1189 N 116.77 1.45427 -0.607355 0
M  V30 1190 C 118.181 1.85756 -0.187535 0
M  V30 1191 C 118.532 1.5077 1.25551 0
M  V30 1192 O 117.657 0.93427 1.95193 0
M  V30 1193 C 118.252 3.37154 -0.333572 0
M  V30 1194 C 116.811 3.76387 0.0315542 0
M  V30 1195 C 115.958 2.69377 -0.658117 0
M  V30 1196 H 118.909 1.36231 -0.81405 0
M  V30 1197 H 118.93 3.78014 0.43428 0
M  V30 1198 H 118.442 3.62586 -1.38393 0
M  V30 1199 H 116.543 3.56571 1.0811 0
M  V30 1200 H 116.656 4.77731 -0.361935 0
M  V30 1201 H 115.02 2.5452 -0.0957873 0
M  V30 1202 H 115.803 2.97646 -1.7106 0
M  V30 1203 N 118.248 0.346503 1.53744 0
M  V30 1204 C 119.495 -0.249104 2.00962 0
M  V30 1205 C 119.823 -1.5032 1.23426 0
M  V30 1206 O 119.078 -1.93217 0.310761 0
M  V30 1207 C 119.377 -0.605809 3.52228 0
M  V30 1208 C 119.043 0.551747 4.47512 0
M  V30 1209 C 117.705 0.86941 4.73281 0
M  V30 1210 C 120.057 1.32818 5.03993 0
M  V30 1211 C 117.385 1.96582 5.52786 0
M  V30 1212 C 119.737 2.41486 5.84694 0
M  V30 1213 C 118.401 2.73808 6.08757 0
M  V30 1214 H 117.671 -0.0911538 0.735372 0
M  V30 1215 H 120.318 0.475027 1.85515 0
M  V30 1216 H 118.623 -1.4107 3.65522 0
M  V30 1217 H 120.32 -1.07858 3.86222 0
M  V30 1218 H 116.91 0.294102 4.2759 0
M  V30 1219 H 121.094 1.09602 4.84047 0
M  V30 1220 H 116.35 2.22045 5.69654 0
M  V30 1221 H 120.524 3.02078 6.27473 0
M  V30 1222 H 118.151 3.58892 6.7015 0
M  V30 1223 N 119.726 -1.57421 0.075193 0
M  V30 1224 C 120.974 -1.93236 -0.591974 0
M  V30 1225 C 121.295 -0.956241 -1.69944 0
M  V30 1226 O 120.565 -0.00494792 -1.95899 0
M  V30 1227 H 119.145 -0.713355 -0.22166 0
M  V30 1228 H 121.807 -1.9444 0.133848 0
M  V30 1229 H 120.903 -2.95131 -1.01509 0
M  V30 1230 N 121.204 0.198386 -1.56346 0
M  V30 1231 C 122.136 1.26987 -1.90806 0
M  V30 1232 C 123.149 1.41877 -0.798419 0
M  V30 1233 O 124.338 1.42362 -1.07682 0
M  V30 1234 C 121.438 2.64246 -2.12196 0
M  V30 1235 C 120.611 2.71007 -3.43328 0
M  V30 1236 C 119.67 3.89439 -3.5387 0
M  V30 1237 O 118.696 3.76695 -4.26719 0
M  V30 1238 N 119.898 5.04752 -2.86715 0
M  V30 1239 H 122.663 0.977433 -2.83313 0
M  V30 1240 H 120.224 0.388322 -1.57174 0
M  V30 1241 H 122.216 3.41896 -2.1654 0
M  V30 1242 H 120.786 2.85992 -1.26204 0
M  V30 1243 H 120.006 1.79657 -3.50881 0
M  V30 1244 H 121.294 2.72512 -4.29668 0
M  V30 1245 H 120.692 5.18004 -2.2735 0
M  V30 1246 H 119.249 5.8036 -2.96691 0
M  V30 1247 N 122.682 1.50554 0.465978 0
M  V30 1248 C 123.931 1.61038 1.21448 0
M  V30 1249 C 124.244 0.31865 1.92987 0
M  V30 1250 O 125.45 0.302469 2.6981 0
M  V30 1251 C 123.906 2.84283 2.20706 0
M  V30 1252 C 123.514 4.20352 1.54946 0
M  V30 1253 C 125.258 3.04115 2.96166 0
M  V30 1254 C 123.165 5.34778 2.5252 0
M  V30 1255 H 122.095 0.599718 0.457005 0
M  V30 1256 H 124.746 1.7699 0.484424 0
M  V30 1257 H 123.128 2.61901 2.97025 0
M  V30 1258 H 124.302 4.53008 0.843811 0
M  V30 1259 H 122.617 4.06167 0.917475 0
M  V30 1260 H 125.214 3.86774 3.69202 0
M  V30 1261 H 125.557 2.16045 3.55852 0
M  V30 1262 H 126.09 3.26702 2.26959 0
M  V30 1263 H 122.829 6.25018 1.97566 0
M  V30 1264 H 122.349 5.06534 3.21222 0
M  V30 1265 H 124.028 5.65561 3.14245 0
M  V30 1266 N 124.16 -0.719506 1.40217 0
M  V30 1267 C 125.407 -1.47933 1.38283 0
M  V30 1268 C 125.735 -1.94493 -0.0161536 0
M  V30 1269 O 124.99 -1.68224 -0.999956 0
M  V30 1270 C 125.289 -2.72271 2.31524 0
M  V30 1271 C 124.955 -2.44496 3.78857 0
M  V30 1272 C 123.617 -2.36631 4.18998 0
M  V30 1273 C 125.969 -2.21104 4.71977 0
M  V30 1274 C 123.297 -2.03437 5.503 0
M  V30 1275 C 125.649 -1.89423 6.03574 0
M  V30 1276 C 124.313 -1.80038 6.42762 0
M  V30 1277 H 123.583 -0.541325 0.506012 0
M  V30 1278 H 126.23 -0.824502 1.72842 0
M  V30 1279 H 124.535 -3.42572 1.90137 0
M  V30 1280 H 126.232 -3.30348 2.27313 0
M  V30 1281 H 122.822 -2.51503 3.47051 0
M  V30 1282 H 127.006 -2.26139 4.41786 0
M  V30 1283 H 122.262 -1.94705 5.79569 0
M  V30 1284 H 126.436 -1.70336 6.75247 0
M  V30 1285 H 124.063 -1.54083 7.44421 0
M  V30 1286 N 125.638 -1.25649 -0.95132 0
M  V30 1287 C 127.054 -1.02542 -1.223 0
M  V30 1288 C 127.254 0.255715 -1.99871 0
M  V30 1289 O 126.31 0.967558 -2.33226 0
M  V30 1290 C 127.623 -2.25065 -1.99415 0
M  V30 1291 C 129.171 -2.29861 -2.12446 0
M  V30 1292 C 129.646 -3.52048 -2.92961 0
M  V30 1293 N 131.137 -3.52465 -3.00538 0
M  V30 1294 C 131.872 -4.43672 -3.63239 0
M  V30 1295 N 131.368 -5.45157 -4.27523 0
M  V30 1296 N 133.161 -4.31346 -3.60412 0
M  V30 1297 H 125.312 -2.07951 -0.432471 0
M  V30 1298 H 127.575 -0.91339 -0.253816 0
M  V30 1299 H 127.281 -3.18194 -1.49817 0
M  V30 1300 H 127.155 -2.28502 -3.00111 0
M  V30 1301 H 129.542 -1.37252 -2.61239 0
M  V30 1302 H 129.623 -2.3044 -1.11044 0
M  V30 1303 H 129.267 -4.44981 -2.44856 0
M  V30 1304 H 129.197 -3.48715 -3.94596 0
M  V30 1305 H 131.688 -2.79056 -2.54826 0
M  V30 1306 H 132.001 -6.10958 -4.73234 0
M  V30 1307 H 130.346 -5.49025 -4.26141 0
M  V30 1308 H 133.537 -3.51288 -3.09377 0
M  V30 1309 H 133.71 -5.02624 -4.0899 0
M  V30 1310 N 127.117 1.15442 -1.07289 0
M  V30 1311 C 128.528 1.67803 -0.818475 0
M  V30 1312 C 128.879 1.8489 0.656507 0
M  V30 1313 O 128.004 1.55176 1.50829 0
M  V30 1314 C 128.599 3.04805 -1.47917 0
M  V30 1315 C 127.158 3.54245 -1.27229 0
M  V30 1316 C 126.305 2.29986 -1.54925 0
M  V30 1317 H 129.256 0.996646 -1.23502 0
M  V30 1318 H 129.277 3.69702 -0.90005 0
M  V30 1319 H 128.789 2.92336 -2.55267 0
M  V30 1320 H 126.89 3.71956 -0.21899 0
M  V30 1321 H 127.003 4.35723 -1.99203 0
M  V30 1322 H 125.367 2.35496 -0.970242 0
M  V30 1323 H 126.15 2.20105 -2.63455 0
M  V30 1324 N 128.595 0.856903 1.32268 0
M  V30 1325 C 129.872 0.382583 1.91822 0
M  V30 1326 C 130.252 -1.13407 1.78051 0
M  V30 1327 O 129.6 -1.95673 1.18001 0
M  V30 1328 C 129.81 0.849446 3.38505 0
M  V30 1329 C 131.158 0.867936 4.15634 0
M  V30 1330 O 132.182 0.794232 3.47232 0
M  V30 1331 O 131.041 0.972286 5.37781 0
M  V30 1332 H 128.135 0.112014 0.819379 0
M  V30 1333 H 130.681 0.943952 1.41024 0
M  V30 1334 H 129.453 1.89267 3.42482 0
M  V30 1335 H 129.076 0.265652 3.96712 0
M  V30 1336 N 130.073 -1.45103 0.615059 0
M  V30 1337 C 131.021 -2.32331 -0.111791 0
M  V30 1338 C 132.015 -1.46409 -0.852102 0
M  V30 1339 O 133.221 -1.62849 -0.766821 0
M  V30 1340 H 129.596 -0.749993 -0.0549072 0
M  V30 1341 H 131.567 -2.91407 0.642225 0
M  V30 1342 C 130.316 -3.3015 -1.09071 0
M  V30 1343 H 129.639 -3.96265 -0.530485 0
M  V30 1344 H 131.079 -3.93898 -1.56908 0
M  V30 1345 C 129.538 -2.57875 -2.168 0
M  V30 1346 O 130.068 -2.36567 -3.24652 0
M  V30 1347 N 128.274 -2.17884 -1.92289 0
M  V30 1348 H 127.821 -2.35413 -1.04587 0
M  V30 1349 H 127.779 -1.6985 -2.64572 0
M  V30 1350 N 131.551 -0.354651 -1.53558 0
M  V30 1351 C 132.798 0.238443 -2.01091 0
M  V30 1352 C 133.126 1.49663 -1.24222 0
M  V30 1353 O 132.381 1.93049 -0.321003 0
M  V30 1354 C 132.68 0.587121 -3.52545 0
M  V30 1355 C 132.346 -0.575472 -4.47213 0
M  V30 1356 C 131.008 -0.894497 -4.72813 0
M  V30 1357 C 133.36 -1.35489 -5.03281 0
M  V30 1358 C 130.688 -1.99511 -5.51736 0
M  V30 1359 C 133.04 -2.44583 -5.83405 0
M  V30 1360 C 131.704 -2.77033 -6.07296 0
M  V30 1361 H 130.974 0.0872526 -0.735845 0
M  V30 1362 H 133.621 -0.484859 -1.8526 0
M  V30 1363 H 131.926 1.39129 -3.66265 0
M  V30 1364 H 133.623 1.05809 -3.86789 0
M  V30 1365 H 130.213 -0.316774 -4.27428 0
M  V30 1366 H 134.397 -1.12167 -4.83459 0
M  V30 1367 H 129.653 -2.25063 -5.68469 0
M  V30 1368 H 133.827 -3.05401 -6.25862 0
M  V30 1369 H 131.454 -3.6244 -6.68237 0
M  V30 1370 N 133.029 1.57378 -0.0835403 0
M  V30 1371 C 134.275 1.94217 0.583733 0
M  V30 1372 C 134.608 0.964653 1.68547 0
M  V30 1373 O 133.883 -0.00422258 1.945 0
M  V30 1374 C 134.166 3.41253 1.14972 0
M  V30 1375 C 134.019 4.49768 0.0538277 0
M  V30 1376 C 135.338 3.89352 2.05166 0
M  V30 1377 H 132.457 0.706233 0.210724 0
M  V30 1378 H 135.099 1.89392 -0.1519 0
M  V30 1379 H 133.249 3.45496 1.77665 0
M  V30 1380 H 134.921 4.57641 -0.579851 0
M  V30 1381 H 133.164 4.29432 -0.614068 0
M  V30 1382 H 133.835 5.49817 0.490452 0
M  V30 1383 H 136.311 3.87189 1.52393 0
M  V30 1384 H 135.187 4.92822 2.41698 0
M  V30 1385 H 135.448 3.27973 2.96456 0
M  V30 1386 N 134.507 -0.190092 1.56449 0
M  V30 1387 C 135.754 -0.909705 1.80916 0
M  V30 1388 C 136.082 -1.83047 0.657583 0
M  V30 1389 O 135.337 -1.92428 -0.356356 0
M  V30 1390 C 135.636 -1.75382 3.1141 0
M  V30 1391 C 135.302 -0.983606 4.40041 0
M  V30 1392 C 133.964 -0.770967 4.74984 0
M  V30 1393 C 136.316 -0.442024 5.19322 0
M  V30 1394 C 133.644 -0.0053448 5.867 0
M  V30 1395 C 135.996 0.310412 6.31838 0
M  V30 1396 C 134.66 0.534023 6.6536 0
M  V30 1397 H 133.93 -0.332885 0.662019 0
M  V30 1398 H 136.577 -0.175762 1.90692 0
M  V30 1399 H 134.882 -2.55659 2.96893 0
M  V30 1400 H 136.579 -2.31331 3.27547 0
M  V30 1401 H 133.169 -1.15936 4.12622 0
M  V30 1402 H 137.353 -0.593693 4.92736 0
M  V30 1403 H 132.609 0.177825 6.11141 0
M  V30 1404 H 136.783 0.737419 6.92485 0
M  V30 1405 H 134.41 1.12918 7.51767 0
M  V30 1406 N 135.985 -1.50799 -0.457987 0
M  V30 1407 C 137.233 -1.62121 -1.2067 0
M  V30 1408 C 137.554 -0.329793 -1.92191 0
M  V30 1409 O 136.824 0.653409 -1.84682 0
M  V30 1410 H 135.404 -0.597441 -0.448411 0
M  V30 1411 H 138.066 -1.87637 -0.527096 0
M  V30 1412 H 137.162 -2.43882 -1.94751 0
M  V30 1413 N 137.463 0.71206 -1.40597 0
M  V30 1414 C 138.395 1.83704 -1.37061 0
M  V30 1415 C 139.408 1.60453 -0.275426 0
M  V30 1416 O 140.597 1.70262 -0.53602 0
M  V30 1417 C 137.697 3.20172 -1.11099 0
M  V30 1418 C 136.87 3.7059 -2.3234 0
M  V30 1419 C 135.929 4.85681 -2.02485 0
M  V30 1420 O 134.955 4.9815 -2.75382 0
M  V30 1421 N 136.157 5.71735 -1.00497 0
M  V30 1422 H 138.922 1.87235 -2.34016 0
M  V30 1423 H 136.483 0.893739 -1.34996 0
M  V30 1424 H 138.475 3.94768 -0.891064 0
M  V30 1425 H 137.045 3.11767 -0.227989 0
M  V30 1426 H 136.265 2.87085 -2.7014 0
M  V30 1427 H 137.553 4.01011 -3.13157 0
M  V30 1428 H 136.951 5.64275 -0.401298 0
M  V30 1429 H 135.508 6.463 -0.844942 0
M  V30 1430 N 138.941 1.26152 0.944643 0
M  V30 1431 C 140.166 1.14363 1.7302 0
M  V30 1432 C 140.591 -0.29772 1.85729 0
M  V30 1433 O 139.949 -1.2157 1.34501 0
M  V30 1434 C 139.997 1.81378 3.11664 0
M  V30 1435 O 139.101 1.10022 3.97453 0
M  V30 1436 H 138.442 0.398694 0.53098 0
M  V30 1437 H 140.972 1.66906 1.18337 0
M  V30 1438 H 140.982 1.88064 3.62072 0
M  V30 1439 H 139.657 2.86237 3.0173 0
M  V30 1440 H 138.234 1.11287 3.55907 0
M  V30 1441 N 140.419 -1.14872 1.07899 0
M  V30 1442 C 141.667 -1.85422 0.803941 0
M  V30 1443 C 141.988 -1.83051 -0.67211 0
M  V30 1444 O 141.258 -1.27532 -1.48703 0
M  V30 1445 H 139.838 -0.686537 0.294408 0
M  V30 1446 H 142.5 -1.39226 1.3639 0
M  V30 1447 H 141.596 -2.90399 1.14346 0
M  V30 1448 N 141.898 -0.863906 -1.31812 0
M  V30 1449 C 142.861 -0.320212 -2.26952 0
M  V30 1450 C 143.861 0.525369 -1.51975 0
M  V30 1451 O 145.051 0.335547 -1.70938 0
M  V30 1452 C 142.183 0.545919 -3.365 0
M  V30 1453 H 143.376 -1.16004 -2.76556 0
M  V30 1454 H 140.929 -0.638995 -1.42641 0
M  V30 1455 H 141.664 1.40718 -2.92179 0
M  V30 1456 H 141.449 -0.0594674 -3.92055 0
M  V30 1457 H 142.939 0.918796 -4.07367 0
M  V30 1458 N 143.376 1.44774 -0.622745 0
M  V30 1459 C 144.624 2.01721 -0.123655 0
M  V30 1460 C 144.945 1.49172 1.25589 0
M  V30 1461 O 144.215 0.691974 1.83272 0
M  V30 1462 H 142.795 0.745777 -0.0427225 0
M  V30 1463 H 145.457 1.77382 -0.807559 0
M  V30 1464 H 144.553 3.11984 -0.0849534 0
M  V30 1465 N 144.854 0.36279 1.53368 0
M  V30 1466 C 145.802 -0.500155 2.27159 0
M  V30 1467 C 146.796 -1.08575 1.3003 0
M  V30 1468 O 148.002 -1.02927 1.47668 0
M  V30 1469 H 144.377 -0.180009 0.730138 0
M  V30 1470 H 146.348 0.14401 2.98052 0
M  V30 1471 C 145.097 -1.62937 3.07159 0
M  V30 1472 H 144.42 -1.18806 3.8174 0
M  V30 1473 H 145.86 -2.20795 3.61975 0
M  V30 1474 C 144.319 -2.57007 2.17829 0
M  V30 1475 O 144.849 -3.59752 1.78721 0
M  V30 1476 N 143.055 -2.26131 1.82518 0
M  V30 1477 H 142.602 -1.42616 2.14519 0
M  V30 1478 H 142.56 -2.89327 1.23034 0
M  V30 1479 N 146.332 -1.57332 0.0918853 0
M  V30 1480 C 147.28 -2.15075 -0.885747 0
M  V30 1481 C 148.274 -1.09277 -1.29441 0
M  V30 1482 O 149.48 -1.27627 -1.26931 0
M  V30 1483 H 145.855 -0.687966 -0.303656 0
M  V30 1484 H 147.826 -2.96047 -0.373995 0
M  V30 1485 C 146.575 -2.74325 -2.13638 0
M  V30 1486 H 145.898 -3.55418 -1.8308 0
M  V30 1487 H 147.338 -3.183 -2.80109 0
M  V30 1488 C 145.797 -1.70062 -2.90827 0
M  V30 1489 O 146.327 -1.13763 -3.85254 0
M  V30 1490 N 144.533 -1.40628 -2.54307 0
M  V30 1491 H 144.08 -1.866 -1.7759 0
M  V30 1492 H 144.038 -0.711043 -3.06254 0
M  V30 1493 N 147.81 0.181792 -1.56548 0
M  V30 1494 C 149.056 0.896803 -1.82562 0
M  V30 1495 C 149.411 1.80324 -0.670908 0
M  V30 1496 O 148.704 1.8868 0.333235 0
M  V30 1497 C 148.898 1.73728 -3.12335 0
M  V30 1498 C 148.727 0.913714 -4.4032 0
M  V30 1499 C 147.497 0.592903 -5.01809 0
M  V30 1500 C 149.695 0.260164 -5.13642 0
M  V30 1501 N 147.677 -0.247901 -6.13399 0
M  V30 1502 C 149.048 -0.442256 -6.18421 0
M  V30 1503 C 151.103 0.177253 -4.97584 0
M  V30 1504 C 149.806 -1.21971 -7.08883 0
M  V30 1505 C 151.832 -0.586839 -5.88481 0
M  V30 1506 C 151.194 -1.27766 -6.92716 0
M  V30 1507 H 147.293 0.307122 -0.719166 0
M  V30 1508 H 149.877 0.164535 -1.94004 0
M  V30 1509 H 148.048 2.44105 -3.02105 0
M  V30 1510 H 149.78 2.39279 -3.26386 0
M  V30 1511 H 146.535 0.920502 -4.64568 0
M  V30 1512 H 146.959 -0.658304 -6.73792 0
M  V30 1513 H 151.601 0.696993 -4.17015 0
M  V30 1514 H 149.319 -1.75083 -7.88905 0
M  V30 1515 H 152.905 -0.652522 -5.78129 0
M  V30 1516 H 151.785 -1.85943 -7.61836 0
M  V30 1517 N 149.288 1.51039 0.449983 0
M  V30 1518 C 150.251 1.70863 1.5277 0
M  V30 1519 C 151.251 0.578846 1.5002 0
M  V30 1520 O 152.441 0.846213 1.52266 0
M  V30 1521 C 149.573 1.75341 2.9235 0
M  V30 1522 H 150.766 2.67034 1.36502 0
M  V30 1523 H 148.319 1.40838 0.677812 0
M  V30 1524 H 149.054 0.809383 3.14037 0
M  V30 1525 H 148.839 2.57436 2.95752 0
M  V30 1526 H 150.329 1.92559 3.70555 0
M  V30 1527 N 150.766 -0.704594 1.40972 0
M  V30 1528 C 151.713 -1.81862 1.42109 0
M  V30 1529 C 152.683 -1.63781 0.276593 0
M  V30 1530 O 153.868 -1.84759 0.4763 0
M  V30 1531 C 151.008 -3.19669 1.30022 0
M  V30 1532 C 150.121 -3.49246 2.54267 0
M  V30 1533 C 149.256 -4.76618 2.3454 0
M  V30 1534 C 148.295 -4.99133 3.54306 0
M  V30 1535 N 147.432 -6.17726 3.33706 0
M  V30 1536 H 152.272 -1.80226 2.37324 0
M  V30 1537 H 149.809 -0.880238 1.17857 0
M  V30 1538 H 151.767 -3.99263 1.21018 0
M  V30 1539 H 150.397 -3.20506 0.384192 0
M  V30 1540 H 149.449 -2.64125 2.73756 0
M  V30 1541 H 150.761 -3.61788 3.43381 0
M  V30 1542 H 149.915 -5.64249 2.22952 0
M  V30 1543 H 148.654 -4.66305 1.42867 0
M  V30 1544 H 147.659 -4.09953 3.66359 0
M  V30 1545 H 148.884 -5.11311 4.4692 0
M  V30 1546 H 146.83 -6.08642 2.44725 0
M  V30 1547 H 146.747 -6.30995 4.16391 0
M  V30 1548 H 148.015 -7.08115 3.25873 0
M  V30 1549 N 152.244 -1.26651 -0.937939 0
M  V30 1550 C 153.492 -1.12165 -1.68118 0
M  V30 1551 C 153.813 0.334983 -1.92101 0
M  V30 1552 O 153.083 1.23583 -1.52 0
M  V30 1553 H 151.663 -0.412093 -0.623048 0
M  V30 1554 H 154.325 -1.59027 -1.12678 0
M  V30 1555 H 153.421 -1.64289 -2.6536 0
M  V30 1556 N 153.722 1.14298 -1.08507 0
M  V30 1557 C 154.672 2.17449 -0.685569 0
M  V30 1558 C 155.656 1.58167 0.295315 0
M  V30 1559 O 156.848 1.76675 0.107172 0
M  V30 1560 C 153.977 3.43161 -0.0975318 0
M  V30 1561 C 153.063 4.09471 -1.10426 0
M  V30 1562 N 153.454 4.51089 -2.28806 0
M  V30 1563 C 151.752 4.35976 -0.940258 0
M  V30 1564 C 152.453 5.02654 -2.9277 0
M  V30 1565 N 151.429 4.96927 -2.20374 0
M  V30 1566 H 155.231 2.47369 -1.587 0
M  V30 1567 H 152.745 1.30992 -0.959936 0
M  V30 1568 H 154.742 4.16388 0.20664 0
M  V30 1569 H 153.402 3.14719 0.798872 0
M  V30 1570 H 154.413 4.44097 -2.66455 0
M  V30 1571 H 151.09 4.17386 -0.0977441 0
M  V30 1572 H 152.48 5.44723 -3.93352 0
M  V30 1573 N 155.201 0.870884 1.31352 0
M  V30 1574 C 156.431 0.496049 2.00557 0
M  V30 1575 C 156.839 -0.916241 1.65534 0
M  V30 1576 O 156.182 -1.61188 0.881134 0
M  V30 1577 C 156.244 0.574418 3.54881 0
M  V30 1578 C 155.908 1.94849 4.1338 0
M  V30 1579 C 156.905 2.91611 4.30417 0
M  V30 1580 C 154.59 2.25005 4.49086 0
M  V30 1581 C 156.584 4.16672 4.82352 0
M  V30 1582 C 154.271 3.50315 5.00722 0
M  V30 1583 C 155.269 4.45964 5.17306 0
M  V30 1584 O 154.957 5.69052 5.67833 0
M  V30 1585 H 154.689 0.191664 0.64826 0
M  V30 1586 H 157.243 1.17409 1.68536 0
M  V30 1587 H 155.473 -0.160549 3.86367 0
M  V30 1588 H 157.162 0.212879 4.05341 0
M  V30 1589 H 157.928 2.69622 4.03149 0
M  V30 1590 H 153.807 1.51332 4.35453 0
M  V30 1591 H 157.351 4.91336 4.95211 0
M  V30 1592 H 153.248 3.72147 5.27424 0
M  V30 1593 H 154.016 5.71236 5.86201 0
M  V30 1594 N 156.679 -1.44442 0.630414 0
M  V30 1595 C 157.907 -2.06414 0.141671 0
M  V30 1596 C 158.322 -1.47105 -1.18345 0
M  V30 1597 O 157.679 -0.593662 -1.72574 0
M  V30 1598 C 157.73 -3.61494 0.0199784 0
M  V30 1599 O 157.451 -4.18594 1.29269 0
M  V30 1600 C 158.952 -4.40499 -0.497544 0
M  V30 1601 H 156.172 -0.666292 0.0793452 0
M  V30 1602 H 158.716 -1.85323 0.864614 0
M  V30 1603 H 156.871 -3.8185 -0.653402 0
M  V30 1604 H 157.285 -5.12026 1.13707 0
M  V30 1605 H 158.759 -5.49433 -0.531708 0
M  V30 1606 H 159.236 -4.11895 -1.52445 0
M  V30 1607 H 159.842 -4.25061 0.142562 0
M  V30 1608 N 158.157 -0.370918 -1.53173 0
M  V30 1609 C 159.067 0.480823 -2.2962 0
M  V30 1610 C 160.083 1.08789 -1.35798 0
M  V30 1611 O 161.259 1.09768 -1.68858 0
M  V30 1612 C 158.324 1.60227 -3.07454 0
M  V30 1613 C 157.385 1.0222 -4.16953 0
M  V30 1614 C 156.618 2.0902 -4.91066 0
M  V30 1615 O 156.841 3.30222 -4.65091 0
M  V30 1616 O 155.775 1.71778 -5.76867 0
M  V30 1617 H 159.601 -0.141421 -3.03371 0
M  V30 1618 H 157.186 -0.135146 -1.48787 0
M  V30 1619 H 159.068 2.25417 -3.56041 0
M  V30 1620 H 157.743 2.20982 -2.36535 0
M  V30 1621 H 156.65 0.334064 -3.72605 0
M  V30 1622 H 157.983 0.459131 -4.90054 0
M  V30 1623 N 159.635 1.57281 -0.100228 0
M  V30 1624 C 160.883 1.94153 0.561157 0
M  V30 1625 C 161.204 0.983157 1.68401 0
M  V30 1626 O 160.474 0.0361132 1.95867 0
M  V30 1627 H 159.054 0.716791 0.210283 0
M  V30 1628 H 161.716 1.94202 -0.164765 0
M  V30 1629 H 160.812 2.96709 0.968008 0
M  V30 1630 N 161.113 -0.173488 1.56642 0
M  V30 1631 C 162.076 -1.19859 1.95362 0
M  V30 1632 C 163.076 -1.37296 0.83704 0
M  V30 1633 O 164.266 -1.34739 1.10413 0
M  V30 1634 C 161.398 -2.56405 2.24654 0
M  V30 1635 H 162.591 -0.867062 2.87092 0
M  V30 1636 H 160.144 -0.415853 1.50666 0
M  V30 1637 H 160.879 -2.94576 1.35631 0
M  V30 1638 H 160.664 -2.45115 3.06041 0
M  V30 1639 H 162.154 -3.30287 2.5554 0
M  V30 1640 N 162.591 -1.51276 -0.441967 0
M  V30 1641 C 163.501 -1.75092 -1.56141 0
M  V30 1642 C 164.517 -0.634963 -1.62001 0
M  V30 1643 O 165.693 -0.916686 -1.79329 0
M  V30 1644 C 162.758 -1.86666 -2.92158 0
M  V30 1645 C 161.819 -3.10506 -2.96453 0
M  V30 1646 C 161.052 -3.21519 -4.25982 0
M  V30 1647 O 161.275 -2.38586 -5.18105 0
M  V30 1648 O 160.209 -4.14465 -4.36466 0
M  V30 1649 H 164.035 -2.70044 -1.38961 0
M  V30 1650 H 161.62 -1.35722 -0.624499 0
M  V30 1651 H 163.502 -1.96292 -3.72891 0
M  V30 1652 H 162.177 -0.949014 -3.09476 0
M  V30 1653 H 161.084 -3.06363 -2.14692 0
M  V30 1654 H 162.417 -4.01945 -2.84079 0
M  V30 1655 N 164.069 0.697108 -1.41344 0
M  V30 1656 C 164.999 1.82353 -1.45841 0
M  V30 1657 C 165.98 1.67115 -0.317247 0
M  V30 1658 O 167.165 1.86871 -0.528474 0
M  V30 1659 C 164.295 3.20476 -1.33838 0
M  V30 1660 C 163.249 3.50415 -2.4575 0
M  V30 1661 C 162.575 4.87878 -2.18813 0
M  V30 1662 C 163.875 3.49546 -3.88091 0
M  V30 1663 H 165.569 1.78846 -2.40113 0
M  V30 1664 H 163.115 0.859028 -1.15571 0
M  V30 1665 H 165.068 3.98988 -1.35596 0
M  V30 1666 H 163.792 3.24604 -0.360498 0
M  V30 1667 H 162.451 2.74253 -2.43271 0
M  V30 1668 H 162.099 4.8863 -1.19371 0
M  V30 1669 H 161.799 5.08875 -2.93803 0
M  V30 1670 H 163.323 5.68702 -2.22284 0
M  V30 1671 H 164.737 4.18066 -3.92293 0
M  V30 1672 H 163.134 3.82075 -4.62751 0
M  V30 1673 H 164.204 2.48552 -4.16353 0
M  V30 1674 N 165.547 1.27147 0.931209 0
M  V30 1675 C 166.793 1.13446 1.68101 0
M  V30 1676 C 167.126 -0.319628 1.91552 0
M  V30 1677 O 166.401 -1.23407 1.50336 0
M  V30 1678 C 166.684 1.91482 3.0497 0
M  V30 1679 C 166.537 3.44855 2.88782 0
M  V30 1680 C 167.856 1.71651 4.05246 0
M  V30 1681 H 164.975 0.413498 0.610072 0
M  V30 1682 H 167.617 1.56261 1.08086 0
M  V30 1683 H 165.767 1.55095 3.56199 0
M  V30 1684 H 167.439 3.9105 2.44698 0
M  V30 1685 H 165.682 3.71373 2.24198 0
M  V30 1686 H 166.353 3.94694 3.85902 0
M  V30 1687 H 168.829 2.0337 3.63015 0
M  V30 1688 H 167.705 2.28651 4.99009 0
M  V30 1689 H 167.966 0.663555 4.37092 0
M  V30 1690 N 167.025 -1.13721 1.09112 0
M  V30 1691 C 168.302 -1.81155 0.737706 0
M  V30 1692 C 168.682 -1.96253 -0.777683 0
M  V30 1693 O 168.03 -1.52807 -1.69889 0
M  V30 1694 C 168.24 -3.16392 1.47299 0
M  V30 1695 C 169.588 -3.91787 1.63671 0
M  V30 1696 O 170.612 -3.26005 1.43524 0
M  V30 1697 O 169.471 -5.0977 1.96969 0
M  V30 1698 H 166.565 -0.783518 0.26463 0
M  V30 1699 H 169.111 -1.20676 1.19312 0
M  V30 1700 H 167.883 -3.0061 2.50498 0
M  V30 1701 H 167.506 -3.8457 1.00953 0
M  V30 1702 N 168.503 -0.877838 -1.30888 0
M  V30 1703 C 169.728 -0.506629 -2.01117 0
M  V30 1704 C 170.153 0.895564 -1.65412 0
M  V30 1705 O 169.511 1.5923 -0.866922 0
M  V30 1706 C 169.559 -0.680223 -3.54126 0
M  V30 1707 O 168.663 0.277033 -4.11468 0
M  V30 1708 H 168.004 -0.200518 -0.633 0
M  V30 1709 H 170.534 -1.18342 -1.66902 0
M  V30 1710 H 170.544 -0.5765 -4.03907 0
M  V30 1711 H 169.219 -1.70261 -3.79452 0
M  V30 1712 H 167.796 0.127606 -3.72682 0
M  V30 1713 N 169.982 1.44106 -0.638065 0
M  V30 1714 C 171.228 2.02277 -0.145546 0
M  V30 1715 C 171.561 1.50125 1.23191 0
M  V30 1716 O 170.836 0.688133 1.8192 0
M  V30 1717 C 171.119 3.59829 -0.139791 0
M  V30 1718 C 170.972 4.22247 -1.55008 0
M  V30 1719 C 172.291 4.36873 0.531966 0
M  V30 1720 H 169.41 0.734992 -0.0543632 0
M  V30 1721 H 172.052 1.71592 -0.815863 0
M  V30 1722 H 170.202 3.86102 0.431007 0
M  V30 1723 H 171.874 4.07057 -2.1703 0
M  V30 1724 H 170.117 3.79476 -2.10191 0
M  V30 1725 H 170.788 5.31284 -1.49804 0
M  V30 1726 H 173.264 4.16074 0.0464781 0
M  V30 1727 H 172.14 5.4657 0.505206 0
M  V30 1728 H 172.401 4.11995 1.60352 0
M  V30 1729 N 171.46 0.379036 1.52974 0
M  V30 1730 C 172.39 -0.452706 2.29069 0
M  V30 1731 C 173.371 -1.07237 1.32039 0
M  V30 1732 O 174.556 -1.08708 1.60923 0
M  V30 1733 C 171.686 -1.5856 3.08992 0
M  V30 1734 C 170.64 -1.0925 4.13822 0
M  V30 1735 C 169.966 -2.31668 4.81907 0
M  V30 1736 C 171.266 -0.167702 5.22031 0
M  V30 1737 H 172.96 0.182181 2.98845 0
M  V30 1738 H 170.506 0.0890592 1.43724 0
M  V30 1739 H 172.459 -2.1742 3.6098 0
M  V30 1740 H 171.183 -2.24792 2.36931 0
M  V30 1741 H 169.842 -0.526494 3.628 0
M  V30 1742 H 169.49 -2.96386 4.06404 0
M  V30 1743 H 169.19 -1.9934 5.52754 0
M  V30 1744 H 170.714 -2.91189 5.36695 0
M  V30 1745 H 172.128 -0.664186 5.6944 0
M  V30 1746 H 170.525 0.0653265 6.00064 0
M  V30 1747 H 171.595 0.786347 4.78482 0
M  V30 1748 N 172.938 -1.57226 0.108567 0
M  V30 1749 C 174.215 -1.86333 -0.594939 0
M  V30 1750 C 174.595 -1.00788 -1.85486 0
M  V30 1751 O 173.943 -0.0839293 -2.28346 0
M  V30 1752 C 174.153 -3.37265 -0.897405 0
M  V30 1753 C 175.501 -4.05629 -1.25501 0
M  V30 1754 O 176.525 -3.42224 -0.987998 0
M  V30 1755 O 175.384 -5.17531 -1.75567 0
M  V30 1756 H 172.478 -0.771018 -0.2991 0
M  V30 1757 H 175.024 -1.69102 0.142283 0
M  V30 1758 H 173.796 -3.913 -0.00413806 0
M  V30 1759 H 173.419 -3.59889 -1.69014 0
M  V30 1760 N 174.416 0.165178 -1.56732 0
M  V30 1761 C 175.662 0.882112 -1.82611 0
M  V30 1762 C 175.995 1.81628 -0.687378 0
M  V30 1763 O 175.27 1.92009 0.310267 0
M  V30 1764 C 175.553 1.67245 -3.18906 0
M  V30 1765 C 175.406 0.760987 -4.43316 0
M  V30 1766 C 176.725 2.63884 -3.52212 0
M  V30 1767 H 173.844 0.319242 -0.664269 0
M  V30 1768 H 176.486 0.148052 -1.89422 0
M  V30 1769 H 174.636 2.29824 -3.1323 0
M  V30 1770 H 176.308 0.147596 -4.61064 0
M  V30 1771 H 174.551 0.0694102 -4.33744 0
M  V30 1772 H 175.222 1.34962 -5.35247 0
M  V30 1773 H 177.698 2.11429 -3.58381 0
M  V30 1774 H 176.574 3.16245 -4.48643 0
M  V30 1775 H 176.835 3.44377 -2.77231 0
M  V30 1776 N 175.894 1.51508 0.433938 0
M  V30 1777 C 177.14 1.64588 1.18484 0
M  V30 1778 C 177.473 0.362666 1.90784 0
M  V30 1779 O 176.748 -0.637892 1.83742 0
M  V30 1780 C 177.031 2.85149 2.19913 0
M  V30 1781 C 176.884 4.23456 1.51674 0
M  V30 1782 C 178.203 3.01227 3.20858 0
M  V30 1783 H 175.322 0.598994 0.429389 0
M  V30 1784 H 177.964 1.84002 0.473647 0
M  V30 1785 H 176.114 2.68729 2.80566 0
M  V30 1786 H 177.786 4.51552 0.943322 0
M  V30 1787 H 176.029 4.25998 0.819035 0
M  V30 1788 H 176.7 5.03812 2.2556 0
M  V30 1789 H 179.176 3.16382 2.70263 0
M  V30 1790 H 178.052 3.87141 3.89118 0
M  V30 1791 H 178.313 2.13447 3.8716 0
M  V30 1792 N 177.372 -0.689602 1.41712 0
M  V30 1793 C 178.788 -1.00093 1.24312 0
M  V30 1794 C 178.988 -2.01036 0.136729 0
M  V30 1795 O 178.044 -2.47562 -0.496918 0
M  V30 1796 C 179.357 -1.51985 2.59463 0
M  V30 1797 C 180.905 -1.63838 2.66695 0
M  V30 1798 C 181.38 -2.1913 4.02177 0
M  V30 1799 N 182.871 -2.26483 4.04054 0
M  V30 1800 C 183.606 -2.70306 5.0569 0
M  V30 1801 N 183.102 -3.13691 6.17713 0
M  V30 1802 N 184.895 -2.69923 4.9305 0
M  V30 1803 H 177.046 -0.0210029 2.1239 0
M  V30 1804 H 179.309 -0.0718733 0.945272 0
M  V30 1805 H 179.015 -0.85269 3.41207 0
M  V30 1806 H 178.889 -2.50103 2.82362 0
M  V30 1807 H 181.276 -2.29664 1.85306 0
M  V30 1808 H 181.357 -0.642492 2.476 0
M  V30 1809 H 181.001 -1.53918 4.84016 0
M  V30 1810 H 180.931 -3.19482 4.18615 0
M  V30 1811 H 183.422 -1.95874 3.23174 0
M  V30 1812 H 183.735 -3.45773 6.9113 0
M  V30 1813 H 182.08 -3.11585 6.21241 0
M  V30 1814 H 185.271 -2.35382 4.04614 0
M  V30 1815 H 185.444 -3.03758 5.72394 0
M  V30 1816 N 178.85 -1.27639 -0.924453 0
M  V30 1817 C 179.797 -1.10644 -2.0255 0
M  V30 1818 C 180.767 -0.00658438 -1.66099 0
M  V30 1819 O 181.952 -0.16952 -1.90045 0
M  V30 1820 C 179.092 -0.76309 -3.36557 0
M  V30 1821 C 178.205 -1.94091 -3.85944 0
M  V30 1822 C 177.34 -1.53914 -5.08413 0
M  V30 1823 C 176.379 -2.68425 -5.50104 0
M  V30 1824 N 175.516 -2.28815 -6.63768 0
M  V30 1825 H 180.356 -2.04858 -2.16419 0
M  V30 1826 H 177.893 -1.01974 -1.06017 0
M  V30 1827 H 179.851 -0.544822 -4.13627 0
M  V30 1828 H 178.481 0.142102 -3.22487 0
M  V30 1829 H 177.533 -2.27162 -3.05125 0
M  V30 1830 H 178.845 -2.7998 -4.12811 0
M  V30 1831 H 177.999 -1.28231 -5.92994 0
M  V30 1832 H 176.738 -0.651391 -4.8333 0
M  V30 1833 H 175.743 -2.94819 -4.64071 0
M  V30 1834 H 176.968 -3.57826 -5.7718 0
M  V30 1835 H 174.914 -1.42495 -6.40337 0
M  V30 1836 H 174.831 -3.08242 -6.90306 0
M  V30 1837 H 176.099 -2.06387 -7.51681 0
M  V30 1838 N 180.328 1.1314 -1.09713 0
M  V30 1839 C 181.238 2.22242 -0.751367 0
M  V30 1840 C 182.254 1.72224 0.247938 0
M  V30 1841 O 183.43 2.01205 0.0885463 0
M  V30 1842 C 180.495 3.46231 -0.180274 0
M  V30 1843 C 179.556 4.11125 -1.2359 0
M  V30 1844 C 178.789 5.29195 -0.691966 0
M  V30 1845 O 179.012 5.68342 0.48414 0
M  V30 1846 O 177.946 5.84214 -1.44838 0
M  V30 1847 H 181.772 2.54197 -1.66186 0
M  V30 1848 H 179.357 1.21331 -0.871735 0
M  V30 1849 H 181.239 4.21185 0.134739 0
M  V30 1850 H 179.914 3.1597 0.703185 0
M  V30 1851 H 178.821 3.37985 -1.60366 0
M  V30 1852 H 180.154 4.45524 -2.09211 0
M  V30 1853 N 181.806 0.884767 1.30421 0
M  V30 1854 C 182.769 0.356277 2.26414 0
M  V30 1855 C 183.769 -0.501124 1.52792 0
M  V30 1856 O 184.959 -0.30831 1.7145 0
M  V30 1857 C 182.091 -0.492316 3.37326 0
M  V30 1858 H 183.284 1.20389 2.74675 0
M  V30 1859 H 180.837 0.661607 1.41607 0
M  V30 1860 H 181.572 -1.36052 2.94381 0
M  V30 1861 H 181.357 0.121832 3.91911 0
M  V30 1862 H 182.847 -0.853871 4.08777 0
M  V30 1863 N 183.284 -1.43765 0.645699 0
M  V30 1864 C 184.194 -2.34544 -0.0512957 0
M  V30 1865 C 185.21 -1.53455 -0.82022 0
M  V30 1866 O 186.386 -1.86133 -0.769176 0
M  V30 1867 C 183.451 -3.31636 -1.01087 0
M  V30 1868 C 182.512 -4.2863 -0.239712 0
M  V30 1869 C 181.745 -5.21084 -1.15358 0
M  V30 1870 O 181.968 -5.1779 -2.39269 0
M  V30 1871 O 180.902 -5.98593 -0.630038 0
M  V30 1872 H 184.728 -2.95624 0.695718 0
M  V30 1873 H 182.313 -1.43781 0.405882 0
M  V30 1874 H 184.195 -3.9136 -1.56254 0
M  V30 1875 H 182.87 -2.73069 -1.73824 0
M  V30 1876 H 181.777 -3.72408 0.355356 0
M  V30 1877 H 183.11 -4.90157 0.447936 0
M  V30 1878 N 184.763 -0.387143 -1.52771 0
M  V30 1879 C 185.988 0.198407 -2.06449 0
M  V30 1880 C 186.413 1.39918 -1.25716 0
M  V30 1881 O 185.771 1.79099 -0.281657 0
M  V30 1882 C 185.819 0.548893 -3.56398 0
M  V30 1883 O 184.923 1.64315 -3.78252 0
M  V30 1884 H 184.264 0.0237731 -0.663574 0
M  V30 1885 H 186.794 -0.553989 -1.96957 0
M  V30 1886 H 186.804 0.813812 -3.99801 0
M  V30 1887 H 185.479 -0.329005 -4.14597 0
M  V30 1888 H 184.056 1.37211 -3.46738 0
M  V30 1889 N 186.241 1.57166 -0.116904 0
M  V30 1890 C 187.481 1.97008 0.544715 0
M  V30 1891 C 187.845 0.998713 1.63981 0
M  V30 1892 O 189.046 1.28644 2.36018 0
M  V30 1893 C 187.317 3.41145 1.06559 0
M  V30 1894 S 188.876 4.02998 1.73603 0
M  V30 1895 H 185.694 0.688587 0.177112 0
M  V30 1896 H 188.296 1.94459 -0.201487 0
M  V30 1897 H 187 4.09592 0.257374 0
M  V30 1898 H 186.531 3.4734 1.84712 0
M  V30 1899 H 188.546 3.93585 3.02168 0
M  V30 1900 N 187.719 -0.156864 1.56817 0
M  V30 1901 C 188.996 -0.899244 1.73704 0
M  V30 1902 C 189.376 -1.99771 0.682254 0
M  V30 1903 O 188.724 -2.26515 -0.300522 0
M  V30 1904 C 188.934 -1.45075 3.17418 0
M  V30 1905 C 190.282 -1.91802 3.7881 0
M  V30 1906 O 191.306 -1.54838 3.20786 0
M  V30 1907 O 190.165 -2.5994 4.80722 0
M  V30 1908 H 187.259 -0.424267 0.709878 0
M  V30 1909 H 189.805 -0.143561 1.69092 0
M  V30 1910 H 188.577 -0.660846 3.85679 0
M  V30 1911 H 188.2 -2.27021 3.26416 0
M  V30 1912 N 189.197 -1.51736 -0.425897 0
M  V30 1913 C 190.437 -1.66636 -1.18371 0
M  V30 1914 C 190.801 -0.379854 -1.88205 0
M  V30 1915 O 192.002 -0.404758 -2.65735 0
M  V30 1916 C 190.273 -2.84382 -2.16476 0
M  V30 1917 S 191.832 -3.19673 -3.0059 0
M  V30 1918 H 188.65 -0.586957 -0.40125 0
M  V30 1919 H 191.252 -1.89679 -0.473518 0
M  V30 1920 H 189.956 -3.76281 -1.63831 0
M  V30 1921 H 189.487 -2.63562 -2.92059 0
M  V30 1922 H 191.502 -2.66994 -4.18245 0
M  V30 1923 N 190.675 0.682077 -1.42076 0
M  V30 1924 C 191.605 1.80796 -1.47767 0
M  V30 1925 C 192.586 1.6677 -0.334954 0
M  V30 1926 O 193.771 1.863 -0.548264 0
M  V30 1927 C 190.901 3.19038 -1.37229 0
M  V30 1928 C 189.855 3.47789 -2.49453 0
M  V30 1929 C 189.181 4.8553 -2.23975 0
M  V30 1930 C 190.481 3.45411 -3.91776 0
M  V30 1931 H 192.175 1.7629 -2.41997 0
M  V30 1932 H 189.721 0.846721 -1.16476 0
M  V30 1933 H 191.674 3.97528 -1.39821 0
M  V30 1934 H 190.398 3.24204 -0.394907 0
M  V30 1935 H 189.057 2.71657 -2.46166 0
M  V30 1936 H 188.705 4.87337 -1.24547 0
M  V30 1937 H 188.405 5.0573 -2.99184 0
M  V30 1938 H 189.929 5.66312 -2.28304 0
M  V30 1939 H 191.343 4.13882 -3.96705 0
M  V30 1940 H 189.74 3.77145 -4.66778 0
M  V30 1941 H 190.81 2.44122 -4.18966 0
M  V30 1942 N 192.153 1.28127 0.917671 0
M  V30 1943 C 193.085 1.07517 2.02417 0
M  V30 1944 C 194.098 0.0281099 1.62776 0
M  V30 1945 O 195.287 0.270748 1.76435 0
M  V30 1946 C 192.387 0.610957 3.33347 0
M  V30 1947 C 191.56 1.73255 4.01624 0
M  V30 1948 C 190.619 1.26238 5.10833 0
M  V30 1949 O 189.645 1.96389 5.34247 0
M  V30 1950 N 190.847 0.123448 5.80369 0
M  V30 1951 H 193.612 2.02806 2.20658 0
M  V30 1952 H 191.173 1.19827 1.08871 0
M  V30 1953 H 193.165 0.280101 4.0373 0
M  V30 1954 H 191.735 -0.24898 3.11607 0
M  V30 1955 H 190.955 2.23319 3.24842 0
M  V30 1956 H 192.243 2.48503 4.43986 0
M  V30 1957 H 191.641 -0.461847 5.63812 0
M  V30 1958 H 190.198 -0.148158 6.51632 0
M  V30 1959 N 193.631 -1.12557 1.10312 0
M  V30 1960 C 194.879 -1.83675 0.843091 0
M  V30 1961 C 195.2 -1.84435 -0.633131 0
M  V30 1962 O 194.47 -1.30657 -1.45964 0
M  V30 1963 H 193.05 -0.680138 0.308904 0
M  V30 1964 H 195.712 -1.36301 1.39313 0
M  V30 1965 H 194.808 -2.87908 1.2048 0
M  V30 1966 N 195.109 -0.891671 -1.2995 0
M  V30 1967 C 196.356 -0.513501 -1.95881 0
M  V30 1968 C 196.684 0.938655 -1.70351 0
M  V30 1969 O 195.939 1.67936 -1.00478 0
M  V30 1970 C 196.238 -0.742868 -3.49594 0
M  V30 1971 C 195.904 -2.17114 -3.95186 0
M  V30 1972 C 194.566 -2.56169 -4.07346 0
M  V30 1973 C 196.918 -3.10162 -4.18866 0
M  V30 1974 C 194.246 -3.87469 -4.4055 0
M  V30 1975 C 196.598 -4.41001 -4.53542 0
M  V30 1976 C 195.262 -4.79941 -4.63911 0
M  V30 1977 H 194.532 -0.187903 -0.71678 0
M  V30 1978 H 197.179 -1.1288 -1.54694 0
M  V30 1979 H 195.484 -0.044586 -3.91775 0
M  V30 1980 H 197.181 -0.429767 -3.9869 0
M  V30 1981 H 193.771 -1.85801 -3.86233 0
M  V30 1982 H 197.955 -2.81206 -4.08946 0
M  V30 1983 H 193.211 -4.17371 -4.46779 0
M  V30 1984 H 197.385 -5.13133 -4.70815 0
M  V30 1985 H 195.012 -5.81719 -4.89395 0
M  V30 1986 N 196.587 1.43421 -0.653314 0
M  V30 1987 C 197.519 2.29071 0.0769134 0
M  V30 1988 C 198.532 1.42513 0.787017 0
M  V30 1989 O 199.721 1.66449 0.644757 0
M  V30 1990 C 196.821 3.19436 1.13199 0
M  V30 1991 C 195.994 4.34533 0.500006 0
M  V30 1992 C 195.053 5.05771 1.45198 0
M  V30 1993 O 194.079 5.61037 0.960538 0
M  V30 1994 N 195.281 5.0928 2.78594 0
M  V30 1995 H 198.046 2.92382 -0.658235 0
M  V30 1996 H 195.607 1.54112 -0.496104 0
M  V30 1997 H 197.599 3.63958 1.76964 0
M  V30 1998 H 196.169 2.57724 1.7691 0
M  V30 1999 H 195.389 3.92925 -0.316738 0
M  V30 2000 H 196.677 5.08766 0.0588345 0
M  V30 2001 H 196.075 4.65751 3.2108 0
M  V30 2002 H 194.632 5.57519 3.37662 0
M  V30 2003 N 198.065 0.39524 1.52563 0
M  V30 2004 C 198.995 -0.428384 2.29537 0
M  V30 2005 C 199.976 -1.05831 1.33169 0
M  V30 2006 O 201.161 -1.06995 1.62067 0
M  V30 2007 C 198.291 -1.55274 3.10656 0
M  V30 2008 C 197.245 -1.04855 4.14957 0
M  V30 2009 C 196.571 -2.26543 4.84337 0
M  V30 2010 C 197.871 -0.112324 5.22179 0
M  V30 2011 H 199.565 0.213867 2.98635 0
M  V30 2012 H 197.111 0.104298 1.43622 0
M  V30 2013 H 199.064 -2.1358 3.63265 0
M  V30 2014 H 197.788 -2.22266 2.39302 0
M  V30 2015 H 196.447 -0.487985 3.63338 0
M  V30 2016 H 196.095 -2.92059 4.09525 0
M  V30 2017 H 195.795 -1.93466 5.54837 0
M  V30 2018 H 197.319 -2.85481 5.39753 0
M  V30 2019 H 198.733 -0.603752 5.70112 0
M  V30 2020 H 197.13 0.128968 5.99961 0
M  V30 2021 H 198.2 0.837052 4.77621 0
M  V30 2022 N 199.544 -1.57102 0.125237 0
M  V30 2023 C 200.772 -1.99761 -0.538797 0
M  V30 2024 C 201.187 -1.00503 -1.59827 0
M  V30 2025 O 200.544 0.00119474 -1.825 0
M  V30 2026 C 200.595 -3.42408 -1.15927 0
M  V30 2027 O 200.316 -4.37869 -0.142143 0
M  V30 2028 C 201.817 -4.00232 -1.90602 0
M  V30 2029 H 199.037 -0.655772 -0.14214 0
M  V30 2030 H 201.581 -2.03383 0.213413 0
M  V30 2031 H 199.736 -3.39706 -1.86223 0
M  V30 2032 H 200.15 -5.21128 -0.593775 0
M  V30 2033 H 201.624 -5.02105 -2.29335 0
M  V30 2034 H 202.101 -3.39721 -2.78363 0
M  V30 2035 H 202.707 -4.06499 -1.25055 0
M  V30 2036 N 201.022 0.148545 -1.56898 0
M  V30 2037 C 201.972 1.1886 -1.94567 0
M  V30 2038 C 202.956 1.3863 -0.816735 0
M  V30 2039 O 204.148 1.40218 -1.08018 0
M  V30 2040 C 201.277 2.52262 -2.32849 0
M  V30 2041 C 200.363 2.36092 -3.52309 0
M  V30 2042 N 200.754 1.89674 -4.6889 0
M  V30 2043 C 199.052 2.66848 -3.57363 0
M  V30 2044 C 199.753 1.86511 -5.50989 0
M  V30 2045 N 198.729 2.29766 -4.92655 0
M  V30 2046 H 202.531 0.821793 -2.82177 0
M  V30 2047 H 200.045 0.356615 -1.58436 0
M  V30 2048 H 202.042 3.27447 -2.58039 0
M  V30 2049 H 200.702 2.89727 -1.46589 0
M  V30 2050 H 201.713 1.59663 -4.92674 0
M  V30 2051 H 198.39 3.08198 -2.81639 0
M  V30 2052 H 199.78 1.52128 -6.54452 0
M  V30 2053 N 202.5 1.5196 0.417844 0
M  V30 2054 C 203.725 1.69717 1.1921 0
M  V30 2055 C 204.15 0.402148 1.83751 0
M  V30 2056 O 203.508 -0.639593 1.69643 0
M  V30 2057 C 203.556 2.82794 2.2374 0
M  V30 2058 O 202.66 2.47756 3.29683 0
M  V30 2059 H 202.001 0.565263 0.348387 0
M  V30 2060 H 204.531 1.98621 0.490985 0
M  V30 2061 H 204.541 3.07452 2.68212 0
M  V30 2062 H 203.216 3.76756 1.76146 0
M  V30 2063 H 201.793 2.33739 2.90552 0
M  V30 2064 N 203.978 -0.674533 1.42435 0
M  V30 2065 C 204.908 -1.80009 1.48724 0
M  V30 2066 C 205.889 -1.6659 0.343793 0
M  V30 2067 O 207.074 -1.86007 0.558137 0
M  V30 2068 C 204.204 -3.18306 1.38919 0
M  V30 2069 C 203.158 -3.46461 2.51294 0
M  V30 2070 C 202.484 -4.84335 2.26547 0
M  V30 2071 C 203.784 -3.43328 3.93603 0
M  V30 2072 H 205.478 -1.75004 2.42928 0
M  V30 2073 H 203.024 -0.840533 1.16923 0
M  V30 2074 H 204.977 -3.9678 1.41927 0
M  V30 2075 H 203.701 -3.2399 0.412094 0
M  V30 2076 H 202.36 -2.70348 2.47604 0
M  V30 2077 H 202.008 -4.86669 1.2713 0
M  V30 2078 H 201.708 -5.04136 3.01861 0
M  V30 2079 H 203.232 -5.65094 2.31304 0
M  V30 2080 H 204.646 -4.11772 3.98894 0
M  V30 2081 H 203.043 -3.74664 4.68771 0
M  V30 2082 H 204.113 -2.41897 4.20255 0
M  V30 2083 N 205.456 -1.28612 -0.910864 0
M  V30 2084 C 206.704 -1.15705 -1.65701 0
M  V30 2085 C 207.025 0.29416 -1.92769 0
M  V30 2086 O 206.295 1.20331 -1.54588 0
M  V30 2087 H 204.875 -0.425216 -0.614167 0
M  V30 2088 H 207.537 -1.61381 -1.0928 0
M  V30 2089 H 206.633 -1.6988 -2.61815 0
M  V30 2090 N 206.934 1.1197 -1.10907 0
M  V30 2091 C 208.182 1.83225 -0.852819 0
M  V30 2092 C 208.503 1.84769 0.623341 0
M  V30 2093 O 207.773 1.3143 1.45269 0
M  V30 2094 H 206.353 0.67849 -0.312507 0
M  V30 2095 H 209.015 1.3556 -1.40033 0
M  V30 2096 H 208.111 2.87265 -1.22005 0
M  V30 2097 N 208.412 0.89855 1.29475 0
M  V30 2098 C 209.66 0.522847 1.9522 0
M  V30 2099 C 209.981 -0.93371 1.71192 0
M  V30 2100 O 209.251 -1.65823 1.04305 0
M  V30 2101 H 207.831 0.190366 0.722336 0
M  V30 2102 H 210.493 1.14459 1.5775 0
M  V30 2103 H 209.589 0.704476 3.04045 0
M  V30 2104 N 209.89 -1.43072 0.660911 0
M  V30 2105 C 211.118 -2.06067 0.185422 0
M  V30 2106 C 211.533 -1.49582 -1.15198 0
M  V30 2107 O 210.89 -0.630134 -1.71276 0
M  V30 2108 C 210.941 -3.61371 0.0966523 0
M  V30 2109 O 210.662 -4.15758 1.38119 0
M  V30 2110 C 212.163 -4.41455 -0.403996 0
M  V30 2111 H 209.383 -0.664459 0.0934604 0
M  V30 2112 H 211.927 -1.83447 0.90373 0
M  V30 2113 H 210.082 -3.8315 -0.572259 0
M  V30 2114 H 210.496 -5.09499 1.24542 0
M  V30 2115 H 211.97 -5.50437 -0.415045 0
M  V30 2116 H 212.447 -4.15036 -1.43674 0
M  V30 2117 H 213.053 -4.24663 0.232691 0
M  V30 2118 N 211.368 -0.403325 -1.52352 0
M  V30 2119 C 212.616 0.174003 -2.0135 0
M  V30 2120 C 212.937 1.46139 -1.29106 0
M  V30 2121 O 212.207 1.91448 -0.415253 0
M  V30 2122 H 210.787 0.0672911 -0.743963 0
M  V30 2123 H 213.449 -0.538235 -1.87321 0
M  V30 2124 H 212.545 0.374254 -3.09848 0
M  V30 2125 N 212.846 1.57033 -0.133567 0
M  V30 2126 C 214.071 2.00475 0.531477 0
M  V30 2127 C 214.496 1.01291 1.58499 0
M  V30 2128 O 213.854 -0.0133279 1.81295 0
M  V30 2129 C 213.902 3.42729 1.12113 0
M  V30 2130 O 213.006 3.46498 2.23636 0
M  V30 2131 H 212.347 0.650876 0.131362 0
M  V30 2132 H 214.877 2.03344 -0.22634 0
M  V30 2133 H 214.887 3.81246 1.4531 0
M  V30 2134 H 213.562 4.14428 0.349557 0
M  V30 2135 H 212.139 3.19811 1.91769 0
M  V30 2136 N 214.325 -0.140222 1.56975 0
M  V30 2137 C 215.573 -0.850005 1.83356 0
M  V30 2138 C 215.894 -1.81399 0.71551 0
M  V30 2139 O 215.164 -1.94136 -0.262294 0
M  V30 2140 H 213.744 -0.316886 0.676456 0
M  V30 2141 H 216.406 -0.132608 1.94448 0
M  V30 2142 H 215.502 -1.40814 2.78528 0
M  V30 2143 N 215.803 -1.52179 -0.40978 0
M  V30 2144 C 216.736 -1.70196 -1.52015 0
M  V30 2145 C 217.714 -0.549542 -1.53032 0
M  V30 2146 O 218.898 -0.776815 -1.71749 0
M  V30 2147 C 216.025 -1.74069 -2.90547 0
M  V30 2148 C 215.071 -2.95601 -3.07445 0
M  V30 2149 S 215.904 -4.55956 -2.80827 0
M  V30 2150 C 217.06 -4.62614 -4.21591 0
M  V30 2151 H 217.293 -2.64109 -1.36504 0
M  V30 2152 H 214.826 -1.4221 -0.601312 0
M  V30 2153 H 216.784 -1.76985 -3.70387 0
M  V30 2154 H 215.445 -0.812835 -3.034 0
M  V30 2155 H 214.638 -2.94791 -4.08796 0
M  V30 2156 H 214.24 -2.90569 -2.35469 0
M  V30 2157 H 216.532 -4.39951 -5.15218 0
M  V30 2158 H 217.475 -5.64548 -4.27424 0
M  V30 2159 H 217.883 -3.91654 -4.06531 0
M  V30 2160 N 217.281 0.66697 -1.42791 0
M  V30 2161 C 218.529 1.42417 -1.43394 0
M  V30 2162 C 218.85 1.94925 -0.0542373 0
M  V30 2163 O 218.12 1.73564 0.908415 0
M  V30 2164 H 216.7 0.528515 -0.527902 0
M  V30 2165 H 219.362 0.787562 -1.78279 0
M  V30 2166 H 218.458 2.27333 -2.13837 0
M  V30 2167 N 218.759 1.29093 0.90403 0
M  V30 2168 C 219.987 1.19689 1.68766 0
M  V30 2169 C 220.402 -0.243113 1.87228 0
M  V30 2170 O 219.759 -1.16326 1.40621 0
M  V30 2171 C 219.81 1.90144 3.07453 0
M  V30 2172 O 219.531 3.2852 2.89838 0
M  V30 2173 C 221.032 1.87162 4.01852 0
M  V30 2174 H 218.252 0.415035 0.527244 0
M  V30 2175 H 220.796 1.7039 1.13082 0
M  V30 2176 H 218.951 1.43289 3.59926 0
M  V30 2177 H 219.365 3.63944 3.77684 0
M  V30 2178 H 220.839 2.41032 4.96596 0
M  V30 2179 H 221.316 0.84617 4.30972 0
M  V30 2180 H 221.922 2.33741 3.5531 0
M  V30 2181 N 220.237 -1.11381 1.11499 0
M  V30 2182 C 221.167 -2.19509 0.796125 0
M  V30 2183 C 222.148 -1.68458 -0.235796 0
M  V30 2184 O 223.333 -1.93947 -0.0991344 0
M  V30 2185 C 220.463 -3.46475 0.239205 0
M  V30 2186 C 219.417 -4.10744 1.20307 0
M  V30 2187 C 218.743 -5.32293 0.50683 0
M  V30 2188 C 220.043 -4.55597 2.55399 0
M  V30 2189 H 221.737 -2.46439 1.70024 0
M  V30 2190 H 219.283 -1.18446 0.818935 0
M  V30 2191 H 221.236 -4.214 0.00392006 0
M  V30 2192 H 219.96 -3.19006 -0.700206 0
M  V30 2193 H 218.619 -3.37813 1.42399 0
M  V30 2194 H 218.267 -5.01095 -0.437408 0
M  V30 2195 H 217.967 -5.76243 1.1497 0
M  V30 2196 H 219.491 -6.09956 0.280351 0
M  V30 2197 H 220.905 -5.21841 2.37391 0
M  V30 2198 H 219.302 -5.10363 3.15673 0
M  V30 2199 H 220.372 -3.69013 3.14575 0
M  V30 2200 N 221.715 -0.905404 -1.28997 0
M  V30 2201 C 222.645 -0.404212 -2.29975 0
M  V30 2202 C 223.626 0.523784 -1.61835 0
M  V30 2203 O 224.811 0.433298 -1.89304 0
M  V30 2204 C 221.941 0.364042 -3.45387 0
M  V30 2205 C 220.895 -0.474048 -4.25367 0
M  V30 2206 C 220.221 0.422045 -5.33032 0
M  V30 2207 C 221.521 -1.72696 -4.92923 0
M  V30 2208 H 223.215 -1.24807 -2.72146 0
M  V30 2209 H 220.761 -0.601585 -1.30832 0
M  V30 2210 H 222.714 0.725447 -4.15109 0
M  V30 2211 H 221.438 1.24174 -3.02074 0
M  V30 2212 H 220.097 -0.81786 -3.57361 0
M  V30 2213 H 219.745 1.29804 -4.85963 0
M  V30 2214 H 219.445 -0.135057 -5.87445 0
M  V30 2215 H 220.969 0.779517 -6.05604 0
M  V30 2216 H 222.383 -1.43495 -5.55051 0
M  V30 2217 H 220.78 -2.22582 -5.57295 0
M  V30 2218 H 221.85 -2.45964 -4.17887 0
M  V30 2219 N 223.193 1.4272 -0.668489 0
M  V30 2220 C 224.442 2.00846 -0.185389 0
M  V30 2221 C 224.755 1.53442 1.21305 0
M  V30 2222 O 225.961 2.03944 1.79218 0
M  V30 2223 C 224.417 3.58805 -0.280591 0
M  V30 2224 C 224.025 4.15198 -1.68268 0
M  V30 2225 C 225.769 4.24255 0.14412 0
M  V30 2226 C 223.676 5.655 -1.73099 0
M  V30 2227 H 222.606 0.751145 -0.0655475 0
M  V30 2228 H 225.257 1.63516 -0.832752 0
M  V30 2229 H 223.639 3.93608 0.434553 0
M  V30 2230 H 224.813 3.91866 -2.42441 0
M  V30 2231 H 223.128 3.62176 -2.05469 0
M  V30 2232 H 225.725 5.34547 0.128086 0
M  V30 2233 H 226.068 3.99277 1.17827 0
M  V30 2234 H 226.601 3.94389 -0.519798 0
M  V30 2235 H 223.34 5.95268 -2.74475 0
M  V30 2236 H 222.86 5.90842 -1.03274 0
M  V30 2237 H 224.539 6.29808 -1.48158 0
M  V30 2238 N 224.671 0.411399 1.52136 0
M  V30 2239 C 225.896 -0.165538 2.06738 0
M  V30 2240 C 226.321 -1.379 1.27926 0
M  V30 2241 O 225.679 -1.78628 0.310114 0
M  V30 2242 C 225.727 -0.492124 3.57226 0
M  V30 2243 O 224.831 -1.58276 3.80818 0
M  V30 2244 H 224.172 -0.0132132 0.663869 0
M  V30 2245 H 226.702 0.585253 1.96051 0
M  V30 2246 H 226.712 -0.750104 4.01045 0
M  V30 2247 H 225.387 0.394922 4.14021 0
M  V30 2248 H 223.964 -1.31677 3.48877 0
M  V30 2249 N 226.149 -1.5696 0.141893 0
M  V30 2250 C 227.096 -2.16501 -0.799737 0
M  V30 2251 C 228.066 -1.09643 -1.24771 0
M  V30 2252 O 229.251 -1.3766 -1.32115 0
M  V30 2253 C 226.391 -2.78679 -2.03549 0
M  V30 2254 C 225.504 -3.99914 -1.6338 0
M  V30 2255 C 224.639 -4.50106 -2.82096 0
M  V30 2256 C 223.678 -5.63819 -2.38275 0
M  V30 2257 N 222.815 -6.08651 -3.49983 0
M  V30 2258 H 227.655 -2.96632 -0.285179 0
M  V30 2259 H 225.192 -1.46533 -0.129053 0
M  V30 2260 H 227.15 -3.1287 -2.75986 0
M  V30 2261 H 225.78 -2.012 -2.52425 0
M  V30 2262 H 224.832 -3.71735 -0.807279 0
M  V30 2263 H 226.144 -4.82311 -1.27192 0
M  V30 2264 H 225.298 -4.86325 -3.62729 0
M  V30 2265 H 224.037 -3.66706 -3.21525 0
M  V30 2266 H 223.042 -5.2718 -1.56081 0
M  V30 2267 H 224.267 -6.49 -1.99938 0
M  V30 2268 H 222.213 -5.28188 -3.89042 0
M  V30 2269 H 222.13 -6.85961 -3.17794 0
M  V30 2270 H 223.398 -6.49515 -4.30988 0
M  V30 2271 N 227.627 0.131896 -1.57047 0
M  V30 2272 C 228.876 0.84044 -1.83356 0
M  V30 2273 C 229.189 1.81646 -0.725535 0
M  V30 2274 O 230.395 2.57025 -0.874659 0
M  V30 2275 C 228.851 1.54528 -3.25037 0
M  V30 2276 C 228.459 0.610902 -4.43815 0
M  V30 2277 C 230.203 2.23972 -3.60606 0
M  V30 2278 C 228.11 1.31823 -5.76521 0
M  V30 2279 H 227.04 0.317599 -0.683847 0
M  V30 2280 H 229.691 0.0931561 -1.83263 0
M  V30 2281 H 228.073 2.33873 -3.19561 0
M  V30 2282 H 229.247 -0.148407 -4.60561 0
M  V30 2283 H 227.562 0.0241016 -4.16393 0
M  V30 2284 H 230.159 2.77558 -4.57018 0
M  V30 2285 H 230.502 3.01173 -2.87403 0
M  V30 2286 H 231.035 1.51529 -3.6781 0
M  V30 2287 H 227.774 0.587771 -6.52859 0
M  V30 2288 H 227.294 2.04987 -5.63685 0
M  V30 2289 H 228.973 1.855 -6.19838 0
M  V30 2290 N 229.106 1.52395 0.401703 0
M  V30 2291 C 230.522 1.41363 0.740864 0
M  V30 2292 C 230.722 0.523982 1.94568 0
M  V30 2293 O 229.778 -0.00741204 2.52499 0
M  V30 2294 C 231.091 2.84011 0.987847 0
M  V30 2295 C 232.639 2.93404 1.09011 0
M  V30 2296 C 233.114 4.37036 1.3698 0
M  V30 2297 N 234.605 4.40304 1.43829 0
M  V30 2298 C 235.34 5.48508 1.67112 0
M  V30 2299 N 234.836 6.66819 1.87949 0
M  V30 2300 N 236.629 5.36034 1.69187 0
M  V30 2301 H 228.78 2.08765 -0.391262 0
M  V30 2302 H 231.043 0.941265 -0.112798 0
M  V30 2303 H 230.749 3.51265 0.174835 0
M  V30 2304 H 230.623 3.25502 1.906 0
M  V30 2305 H 233.01 2.26325 1.8937 0
M  V30 2306 H 233.091 2.55359 0.15015 0
M  V30 2307 H 232.735 5.04676 0.571353 0
M  V30 2308 H 232.665 4.72623 2.3224 0
M  V30 2309 H 235.156 3.55024 1.29486 0
M  V30 2310 H 235.469 7.45063 2.05185 0
M  V30 2311 H 233.814 6.6987 1.85199 0
M  V30 2312 H 237.005 4.42579 1.52451 0
M  V30 2313 H 237.178 6.20434 1.86993 0
M  V30 2314 N 230.584 -0.659388 1.43143 0
M  V30 2315 C 231.494 -1.80167 1.50256 0
M  V30 2316 C 232.51 -1.69571 0.390106 0
M  V30 2317 O 233.686 -1.90849 0.643319 0
M  V30 2318 C 230.751 -3.16409 1.41725 0
M  V30 2319 C 229.812 -3.38848 2.63591 0
M  V30 2320 C 229.045 -4.68591 2.55458 0
M  V30 2321 O 229.268 -5.47532 1.59891 0
M  V30 2322 O 228.202 -4.92614 3.45854 0
M  V30 2323 H 232.028 -1.77121 2.46702 0
M  V30 2324 H 229.613 -0.817092 1.25076 0
M  V30 2325 H 231.495 -3.9768 1.39387 0
M  V30 2326 H 230.17 -3.20059 0.484118 0
M  V30 2327 H 229.077 -2.57366 2.71502 0
M  V30 2328 H 230.41 -3.4004 3.55856 0
M  V30 2329 N 232.062 -1.29571 -0.897171 0
M  V30 2330 C 232.972 -1.16808 -2.03453 0
M  V30 2331 C 233.988 -0.0907471 -1.73763 0
M  V30 2332 O 235.164 -0.303312 -1.99103 0
M  V30 2333 C 232.229 -0.848264 -3.36163 0
M  V30 2334 C 231.29 -2.0097 -3.79354 0
M  V30 2335 C 230.523 -1.70505 -5.05731 0
M  V30 2336 O 230.746 -0.62718 -5.66941 0
M  V30 2337 O 229.68 -2.5538 -5.45036 0
M  V30 2338 H 233.506 -2.12325 -2.17144 0
M  V30 2339 H 231.091 -1.09047 -1.02123 0
M  V30 2340 H 232.973 -0.684581 -4.15802 0
M  V30 2341 H 231.648 0.0771071 -3.23608 0
M  V30 2342 H 230.555 -2.22863 -3.00471 0
M  V30 2343 H 231.888 -2.91636 -3.96496 0
M  V30 2344 N 233.54 1.10788 -1.12088 0
M  V30 2345 C 234.77 1.86191 -0.895351 0
M  V30 2346 C 235.178 1.80763 0.558702 0
M  V30 2347 O 234.521 1.19188 1.39785 0
M  V30 2348 C 234.583 3.35659 -1.28737 0
M  V30 2349 C 234.247 3.64849 -2.75198 0
M  V30 2350 C 235.244 3.61757 -3.734 0
M  V30 2351 C 232.929 3.93641 -3.12013 0
M  V30 2352 C 234.923 3.87045 -5.06434 0
M  V30 2353 C 232.61 4.18585 -4.4523 0
M  V30 2354 C 233.608 4.15277 -5.42249 0
M  V30 2355 O 233.296 4.3959 -6.73065 0
M  V30 2356 H 233.028 0.595425 -0.32007 0
M  V30 2357 H 235.582 1.40992 -1.49367 0
M  V30 2358 H 233.812 3.81497 -0.63224 0
M  V30 2359 H 235.501 3.92441 -1.03656 0
M  V30 2360 H 236.267 3.39557 -3.46303 0
M  V30 2361 H 232.146 3.95348 -2.37109 0
M  V30 2362 H 235.69 3.84378 -5.82151 0
M  V30 2363 H 231.587 4.40264 -4.72057 0
M  V30 2364 H 232.355 4.57123 -6.78956 0
M  V30 2365 N 235.018 0.912232 1.28515 0
M  V30 2366 C 236.429 0.591352 1.77087 0
M  V30 2367 C 236.78 -0.8933 1.74684 0
M  V30 2368 O 235.905 -1.69876 1.34056 0
M  V30 2369 C 236.5 1.06668 3.2157 0
M  V30 2370 C 235.059 0.79675 3.67871 0
M  V30 2371 C 234.206 1.23427 2.48316 0
M  V30 2372 H 237.157 1.09365 1.15 0
M  V30 2373 H 237.178 0.407455 3.78312 0
M  V30 2374 H 236.69 2.14726 3.23287 0
M  V30 2375 H 234.791 -0.270679 3.71616 0
M  V30 2376 H 234.904 1.40343 4.58084 0
M  V30 2377 H 233.268 0.653036 2.46186 0
M  V30 2378 H 234.051 2.32316 2.52753 0
M  V30 2379 N 236.496 -1.42363 0.676048 0
M  V30 2380 C 237.773 -1.95183 0.127726 0
M  V30 2381 C 238.153 -1.61641 -1.35777 0
M  V30 2382 O 237.501 -0.913216 -2.09458 0
M  V30 2383 C 237.711 -3.46721 0.398199 0
M  V30 2384 C 239.059 -4.23427 0.315383 0
M  V30 2385 O 240.083 -3.54649 0.332016 0
M  V30 2386 O 238.942 -5.45888 0.25865 0
M  V30 2387 H 236.036 -0.826992 0.00359427 0
M  V30 2388 H 238.582 -1.52184 0.750864 0
M  V30 2389 H 237.354 -3.64344 1.4272 0
M  V30 2390 H 236.977 -3.96769 -0.256885 0
M  V30 2391 N 237.974 -0.419461 -1.51915 0
M  V30 2392 C 239.39 -0.0708431 -1.59443 0
M  V30 2393 C 239.59 1.41796 -1.43164 0
M  V30 2394 O 238.646 2.18596 -1.26381 0
M  V30 2395 C 239.959 -0.574991 -2.95151 0
M  V30 2396 C 241.507 -0.533867 -3.08413 0
M  V30 2397 C 241.982 -1.01469 -4.46618 0
M  V30 2398 N 243.473 -0.971939 -4.52888 0
M  V30 2399 C 244.208 -1.31505 -5.58116 0
M  V30 2400 N 243.704 -1.73014 -6.70849 0
M  V30 2401 N 245.497 -1.23436 -5.48379 0
M  V30 2402 H 237.648 -1.38836 -1.60743 0
M  V30 2403 H 239.911 -0.570998 -0.756747 0
M  V30 2404 H 239.617 -1.61597 -3.12377 0
M  V30 2405 H 239.491 0.00979777 -3.77199 0
M  V30 2406 H 241.878 0.498086 -2.90866 0
M  V30 2407 H 241.959 -1.15484 -2.28248 0
M  V30 2408 H 241.603 -2.04502 -4.6491 0
M  V30 2409 H 241.533 -0.370433 -5.25295 0
M  V30 2410 H 244.024 -0.666893 -3.71969 0
M  V30 2411 H 244.337 -1.97479 -7.47143 0
M  V30 2412 H 242.682 -1.76926 -6.72103 0
M  V30 2413 H 245.873 -0.908869 -4.59192 0
M  V30 2414 H 246.046 -1.50506 -6.30279 0
M  V30 2415 N 239.452 1.56882 -0.150215 0
M  V30 2416 C 240.701 1.95403 0.500071 0
M  V30 2417 C 241.014 1.03777 1.658 0
M  V30 2418 O 242.22 1.31889 2.37313 0
M  V30 2419 C 240.676 3.4738 0.941018 0
M  V30 2420 C 240.284 4.47596 -0.190158 0
M  V30 2421 C 242.028 3.9476 1.56091 0
M  V30 2422 C 239.935 5.90787 0.269237 0
M  V30 2423 H 238.865 0.729515 0.190588 0
M  V30 2424 H 241.516 1.81988 -0.235074 0
M  V30 2425 H 239.898 3.56138 1.73152 0
M  V30 2426 H 241.072 4.50536 -0.967157 0
M  V30 2427 H 239.387 4.10151 -0.718666 0
M  V30 2428 H 241.984 4.99181 1.9163 0
M  V30 2429 H 242.327 3.36494 2.45107 0
M  V30 2430 H 242.86 3.88932 0.835249 0
M  V30 2431 H 239.599 6.52879 -0.585621 0
M  V30 2432 H 239.119 5.912 1.01204 0
M  V30 2433 H 240.798 6.42979 0.720176 0
M  V30 2434 N 240.93 -0.123565 1.57115 0
M  V30 2435 C 241.863 -1.18202 1.95201 0
M  V30 2436 C 242.841 -1.40349 0.821031 0
M  V30 2437 O 244.025 -1.54578 1.07879 0
M  V30 2438 C 241.152 -2.53671 2.24429 0
M  V30 2439 C 240.198 -2.4798 3.46999 0
M  V30 2440 S 241.031 -1.92389 4.99747 0
M  V30 2441 C 242.187 -3.2954 5.32123 0
M  V30 2442 H 242.42 -0.857212 2.84674 0
M  V30 2443 H 239.953 -0.33014 1.50829 0
M  V30 2444 H 241.911 -3.3162 2.41947 0
M  V30 2445 H 240.572 -2.83332 1.35579 0
M  V30 2446 H 239.765 -3.47758 3.64801 0
M  V30 2447 H 239.367 -1.7815 3.28844 0
M  V30 2448 H 241.659 -4.25736 5.27025 0
M  V30 2449 H 242.602 -3.16569 6.33395 0
M  V30 2450 H 243.01 -3.27758 4.59603 0
M  V30 2451 N 242.408 -1.52605 -0.393616 0
M  V30 2452 C 243.356 -1.77688 -1.50099 0
M  V30 2453 C 244.35 -0.644615 -1.56656 0
M  V30 2454 O 245.556 -0.826997 -1.59877 0
M  V30 2455 H 241.931 -0.562159 -0.499481 0
M  V30 2456 H 243.902 -2.7043 -1.26135 0
M  V30 2457 C 242.651 -1.95858 -2.87289 0
M  V30 2458 H 241.974 -2.8241 -2.82992 0
M  V30 2459 H 243.414 -2.174 -3.64024 0
M  V30 2460 C 241.873 -0.729848 -3.28899 0
M  V30 2461 O 242.403 0.0949217 -4.01588 0
M  V30 2462 N 240.609 -0.561283 -2.85128 0
M  V30 2463 H 240.156 -1.23357 -2.26143 0
M  V30 2464 H 240.114 0.2595 -3.13327 0
M  V30 2465 N 243.887 0.651787 -1.4349 0
M  V30 2466 C 245.115 1.43937 -1.48626 0
M  V30 2467 C 245.53 1.8851 -0.104587 0
M  V30 2468 O 244.887 1.5958 0.885464 0
M  V30 2469 C 244.938 2.6734 -2.43334 0
M  V30 2470 O 244.659 2.24631 -3.76128 0
M  V30 2471 C 246.16 3.60683 -2.57726 0
M  V30 2472 H 243.38 0.44213 -0.504739 0
M  V30 2473 H 245.924 0.798944 -1.88248 0
M  V30 2474 H 244.079 3.2752 -2.06904 0
M  V30 2475 H 244.493 3.04485 -4.2707 0
M  V30 2476 H 245.967 4.43933 -3.28067 0
M  V30 2477 H 246.444 4.08126 -1.62265 0
M  V30 2478 H 247.05 3.06384 -2.94973 0
M  V30 2479 N 245.365 1.30045 0.890287 0
M  V30 2480 C 246.612 1.18561 1.64163 0
M  V30 2481 C 246.94 -0.260852 1.92743 0
M  V30 2482 O 246.195 -1.20376 1.54299 0
M  V30 2483 C 246.494 1.95409 2.99249 0
M  V30 2484 C 246.16 3.45066 2.90242 0
M  V30 2485 C 244.822 3.85878 2.87492 0
M  V30 2486 C 247.174 4.4039 2.78758 0
M  V30 2487 C 244.502 5.20314 2.7109 0
M  V30 2488 C 246.854 5.74928 2.63894 0
M  V30 2489 C 245.518 6.14986 2.59516 0
M  V30 2490 H 244.788 0.433846 0.600715 0
M  V30 2491 H 247.435 1.61088 1.03552 0
M  V30 2492 H 245.74 1.45501 3.63781 0
M  V30 2493 H 247.437 1.8392 3.56334 0
M  V30 2494 H 244.027 3.12631 2.93189 0
M  V30 2495 H 248.211 4.09806 2.79952 0
M  V30 2496 H 243.467 5.50449 2.66112 0
M  V30 2497 H 247.641 6.48434 2.53981 0
M  V30 2498 H 245.268 7.19104 2.46565 0
M  V30 2499 N 246.843 -1.10192 1.12674 0
M  V30 2500 C 248.068 -1.86523 0.906853 0
M  V30 2501 C 248.493 -1.80221 -0.538711 0
M  V30 2502 O 247.851 -1.17396 -1.38158 0
M  V30 2503 C 247.899 -3.32758 1.3894 0
M  V30 2504 O 247.003 -4.08449 0.5695 0
M  V30 2505 H 246.344 -0.578678 0.325619 0
M  V30 2506 H 248.874 -1.39203 1.49946 0
M  V30 2507 H 248.884 -3.83608 1.38958 0
M  V30 2508 H 247.559 -3.36661 2.44197 0
M  V30 2509 H 246.136 -3.67427 0.636528 0
M  V30 2510 N 248.321 -0.919034 -1.28029 0
M  V30 2511 C 249.567 -0.555757 -1.95036 0
M  V30 2512 C 249.9 0.899198 -1.72128 0
M  V30 2513 O 249.175 1.64023 -1.04531 0
M  V30 2514 C 249.458 -0.872024 -3.49382 0
M  V30 2515 C 249.311 -2.3801 -3.81669 0
M  V30 2516 C 250.63 -0.37185 -4.38526 0
M  V30 2517 H 247.749 -0.203386 -0.708381 0
M  V30 2518 H 250.391 -1.14924 -1.51303 0
M  V30 2519 H 248.541 -0.366946 -3.86763 0
M  V30 2520 H 250.213 -2.9562 -3.54128 0
M  V30 2521 H 248.456 -2.83289 -3.28526 0
M  V30 2522 H 249.127 -2.55192 -4.8947 0
M  V30 2523 H 251.603 -0.804602 -4.08247 0
M  V30 2524 H 250.479 -0.622173 -5.45362 0
M  V30 2525 H 250.74 0.727934 -4.36066 0
M  V30 2526 N 249.799 1.42003 -0.683588 0
M  V30 2527 C 251.045 2.01712 -0.209825 0
M  V30 2528 C 251.378 1.53968 1.18353 0
M  V30 2529 O 250.653 0.745661 1.79639 0
M  V30 2530 C 250.936 3.59202 -0.254197 0
M  V30 2531 C 250.789 4.17102 -1.68363 0
M  V30 2532 C 252.108 4.38344 0.392709 0
M  V30 2533 H 249.227 0.732891 -0.0777189 0
M  V30 2534 H 251.869 1.68909 -0.87004 0
M  V30 2535 H 250.019 3.87278 0.307954 0
M  V30 2536 H 251.691 3.99946 -2.29871 0
M  V30 2537 H 249.934 3.72597 -2.22157 0
M  V30 2538 H 250.605 5.26249 -1.6663 0
M  V30 2539 H 253.081 4.16011 -0.0859162 0
M  V30 2540 H 251.957 5.47901 0.331063 0
M  V30 2541 H 252.218 4.16887 1.47164 0
M  V30 2542 N 251.277 0.427512 1.51691 0
M  V30 2543 C 252.688 -0.0378867 1.86662 0
M  V30 2544 C 253.039 -1.42819 1.34525 0
M  V30 2545 O 252.164 -2.05037 0.692014 0
M  V30 2546 C 252.759 -0.0755266 3.38716 0
M  V30 2547 C 251.318 -0.485309 3.73258 0
M  V30 2548 C 250.465 0.328399 2.75349 0
M  V30 2549 H 253.416 0.64379 1.45055 0
M  V30 2550 H 253.437 -0.887056 3.70016 0
M  V30 2551 H 252.949 0.936487 3.76632 0
M  V30 2552 H 251.05 -1.50329 3.40928 0
M  V30 2553 H 251.163 -0.21693 4.78609 0
M  V30 2554 H 249.527 -0.211905 2.53817 0
M  V30 2555 H 250.31 1.3391 3.16106 0
M  V30 2556 N 252.755 -1.56801 0.158532 0
M  V30 2557 C 253.98 -2.01295 -0.499516 0
M  V30 2558 C 254.405 -1.03799 -1.56867 0
M  V30 2559 O 253.763 -0.0155162 -1.81293 0
M  V30 2560 C 253.811 -3.44469 -1.06647 0
M  V30 2561 O 252.915 -3.50012 -2.18095 0
M  V30 2562 H 252.256 -0.652884 -0.12099 0
M  V30 2563 H 254.786 -2.02958 0.258661 0
M  V30 2564 H 254.796 -3.8351 -1.39227 0
M  V30 2565 H 253.471 -4.14932 -0.283581 0
M  V30 2566 H 252.048 -3.22822 -1.86656 0
M  V30 2567 N 254.233 0.115231 -1.57178 0
M  V30 2568 C 255.644 0.67197 -1.74188 0
M  V30 2569 C 255.995 1.80125 -0.777777 0
M  V30 2570 O 255.12 2.16346 0.0484376 0
M  V30 2571 C 255.715 1.22573 -3.1585 0
M  V30 2572 C 254.274 1.72872 -3.34353 0
M  V30 2573 C 253.421 0.629972 -2.70049 0
M  V30 2574 H 256.372 -0.110712 -1.58313 0
M  V30 2575 H 256.393 2.09535 -3.17609 0
M  V30 2576 H 255.905 0.403598 -3.85996 0
M  V30 2577 H 254.006 2.5755 -2.69256 0
M  V30 2578 H 254.119 1.83557 -4.42542 0
M  V30 2579 H 252.483 1.0645 -2.31388 0
M  V30 2580 H 253.266 -0.181241 -3.42821 0
M  V30 2581 N 255.711 1.52812 0.385517 0
M  V30 2582 C 256.658 1.77838 1.47113 0
M  V30 2583 C 257.628 0.621757 1.54024 0
M  V30 2584 O 258.813 0.861846 1.70226 0
M  V30 2585 C 255.953 1.95618 2.84302 0
M  V30 2586 C 255.066 3.23316 2.86515 0
M  V30 2587 C 254.201 3.31394 4.15152 0
M  V30 2588 C 253.24 4.53201 4.1143 0
M  V30 2589 N 252.377 4.58542 5.3168 0
M  V30 2590 H 257.217 2.70482 1.25073 0
M  V30 2591 H 254.754 1.34006 0.606692 0
M  V30 2592 H 256.712 2.03912 3.63972 0
M  V30 2593 H 255.342 1.06331 3.04784 0
M  V30 2594 H 254.394 3.24076 1.99195 0
M  V30 2595 H 255.706 4.13045 2.79634 0
M  V30 2596 H 254.86 3.3889 5.03228 0
M  V30 2597 H 253.599 2.39645 4.24761 0
M  V30 2598 H 252.604 4.45827 3.21742 0
M  V30 2599 H 253.829 5.46271 4.03442 0
M  V30 2600 H 251.775 3.69686 5.41912 0
M  V30 2601 H 251.692 5.42148 5.26889 0
M  V30 2602 H 252.96 4.70296 6.21644 0
M  V30 2603 N 257.189 -0.644168 1.43834 0
M  V30 2604 C 258.435 -1.40603 1.46146 0
M  V30 2605 C 258.768 -1.93997 0.0887717 0
M  V30 2606 O 258.043 -1.72854 -0.891724 0
M  V30 2607 C 258.326 -2.58086 2.51124 0
M  V30 2608 C 258.179 -2.10126 3.97702 0
M  V30 2609 C 259.498 -3.60291 2.52742 0
M  V30 2610 H 256.617 -0.509905 0.532134 0
M  V30 2611 H 259.259 -0.729502 1.75437 0
M  V30 2612 H 257.409 -3.15801 2.26278 0
M  V30 2613 H 259.081 -1.57342 4.33637 0
M  V30 2614 H 257.324 -1.41419 4.10101 0
M  V30 2615 H 257.995 -2.94649 4.66783 0
M  V30 2616 H 260.471 -3.12352 2.7491 0
M  V30 2617 H 259.347 -4.40032 3.28121 0
M  V30 2618 H 259.608 -4.1349 1.56455 0
M  V30 2619 N 258.668 -1.30515 -0.883378 0
M  V30 2620 C 259.893 -1.22487 -1.67367 0
M  V30 2621 C 260.318 0.208767 -1.86938 0
M  V30 2622 O 259.676 1.15015 -1.40148 0
M  V30 2623 C 259.724 -1.96041 -3.02655 0
M  V30 2624 O 258.828 -1.28859 -3.91751 0
M  V30 2625 H 258.169 -0.423573 -0.511353 0
M  V30 2626 H 260.699 -1.72362 -1.10239 0
M  V30 2627 H 260.709 -2.05124 -3.52687 0
M  V30 2628 H 259.384 -3.00307 -2.8773 0
M  V30 2629 H 257.961 -1.28141 -3.50192 0
M  V30 2630 N 260.146 1.09593 -1.13257 0
M  V30 2631 C 261.423 1.78293 -0.804432 0
M  V30 2632 C 261.803 1.99004 0.70431 0
M  V30 2633 O 261.151 1.59007 1.641 0
M  V30 2634 C 261.361 3.10707 -1.5894 0
M  V30 2635 C 262.709 3.85443 -1.78099 0
M  V30 2636 O 263.733 3.20454 -1.55525 0
M  V30 2637 O 262.592 5.02108 -2.15753 0
M  V30 2638 H 259.686 0.773156 -0.293528 0
M  V30 2639 H 262.232 1.16164 -1.23709 0
M  V30 2640 H 261.004 2.91106 -2.61482 0
M  V30 2641 H 260.627 3.80558 -1.15157 0
M  V30 2642 N 261.624 0.925811 1.2754 0
M  V30 2643 C 262.852 0.581509 1.9856 0
M  V30 2644 C 263.267 -0.840041 1.69082 0
M  V30 2645 O 262.624 -1.55805 0.950312 0
M  V30 2646 C 262.675 0.795589 3.52637 0
M  V30 2647 O 262.396 2.16121 3.81082 0
M  V30 2648 C 263.897 0.459744 4.4091 0
M  V30 2649 H 261.117 0.220538 0.633722 0
M  V30 2650 H 263.661 1.24232 1.6244 0
M  V30 2651 H 261.816 0.18161 3.86974 0
M  V30 2652 H 262.23 2.2098 4.75676 0
M  V30 2653 H 263.704 0.660244 5.48037 0
M  V30 2654 H 264.181 -0.604625 4.35018 0
M  V30 2655 H 264.787 1.05178 4.12089 0
M  V30 2656 N 263.102 -1.41638 0.69111 0
M  V30 2657 C 264.348 -2.01598 0.220519 0
M  V30 2658 C 264.681 -1.54594 -1.17535 0
M  V30 2659 O 263.956 -0.755177 -1.79241 0
M  V30 2660 C 264.239 -3.59062 0.273243 0
M  V30 2661 C 264.092 -4.16203 1.70573 0
M  V30 2662 C 265.411 -4.38546 -0.369457 0
M  V30 2663 H 262.53 -0.732468 0.0816045 0
M  V30 2664 H 265.172 -1.68445 0.878986 0
M  V30 2665 H 263.322 -3.87435 -0.287411 0
M  V30 2666 H 264.994 -3.98722 2.31989 0
M  V30 2667 H 263.237 -3.71414 2.2413 0
M  V30 2668 H 263.908 -5.25358 1.69419 0
M  V30 2669 H 266.384 -4.1596 0.107977 0
M  V30 2670 H 265.26 -5.48069 -0.302002 0
M  V30 2671 H 265.521 -4.17662 -1.44951 0
M  V30 2672 N 264.58 -0.43555 -1.51462 0
M  V30 2673 C 265.826 0.131709 -2.02372 0
M  V30 2674 C 266.159 1.42516 -1.3192 0
M  V30 2675 O 265.434 1.89606 -0.433573 0
M  V30 2676 C 265.717 0.352301 -3.58373 0
M  V30 2677 C 265.57 -0.959676 -4.39443 0
M  V30 2678 C 266.889 1.12286 -4.25535 0
M  V30 2679 H 264.008 0.0463936 -0.735538 0
M  V30 2680 H 266.65 -0.574197 -1.81116 0
M  V30 2681 H 264.8 0.9536 -3.76615 0
M  V30 2682 H 266.472 -1.59482 -4.32855 0
M  V30 2683 H 264.715 -1.56468 -4.04599 0
M  V30 2684 H 265.386 -0.759394 -5.46752 0
M  V30 2685 H 267.862 0.613545 -4.11552 0
M  V30 2686 H 266.738 1.24598 -5.34571 0
M  V30 2687 H 266.999 2.15048 -3.86273 0
M  V30 2688 N 266.058 1.56714 -0.166846 0
M  V30 2689 C 266.968 2.21331 0.777791 0
M  V30 2690 C 267.984 1.20358 1.25658 0
M  V30 2691 O 269.16 1.53005 1.30964 0
M  V30 2692 C 266.225 2.83787 1.99163 0
M  V30 2693 C 265.286 3.99947 1.56016 0
M  V30 2694 C 264.519 4.59415 2.71613 0
M  V30 2695 O 264.742 4.17769 3.88362 0
M  V30 2696 O 263.676 5.49359 2.45945 0
M  V30 2697 H 267.502 3.02605 0.257636 0
M  V30 2698 H 265.087 1.49275 0.0611393 0
M  V30 2699 H 266.969 3.23405 2.70161 0
M  V30 2700 H 265.644 2.05513 2.50092 0
M  V30 2701 H 264.551 3.65007 0.819809 0
M  V30 2702 H 265.884 4.79801 1.09782 0
M  V30 2703 N 267.536 -0.106894 1.57237 0
M  V30 2704 C 268.947 -0.662723 1.74542 0
M  V30 2705 C 269.298 -1.7971 0.787319 0
M  V30 2706 O 268.423 -2.16368 -0.0369636 0
M  V30 2707 C 269.018 -1.20896 3.16496 0
M  V30 2708 C 267.577 -1.71096 3.35266 0
M  V30 2709 C 266.724 -0.615642 2.7038 0
M  V30 2710 H 269.675 0.119106 1.58252 0
M  V30 2711 H 269.696 -2.07847 3.18716 0
M  V30 2712 H 269.208 -0.383122 3.86204 0
M  V30 2713 H 267.309 -2.56119 2.70618 0
M  V30 2714 H 267.422 -1.81208 4.43509 0
M  V30 2715 H 265.786 -1.05222 2.31949 0
M  V30 2716 H 266.569 0.199419 3.4272 0
M  V30 2717 N 269.014 -1.53014 -0.377408 0
M  V30 2718 C 270.244 -1.72265 -1.14054 0
M  V30 2719 C 270.652 -0.44601 -1.83868 0
M  V30 2720 O 269.995 0.590095 -1.73964 0
M  V30 2721 C 270.057 -2.82492 -2.22348 0
M  V30 2722 C 269.721 -4.23233 -1.72402 0
M  V30 2723 C 270.718 -5.05992 -1.19448 0
M  V30 2724 C 268.403 -4.696 -1.78273 0
M  V30 2725 C 270.397 -6.33203 -0.730268 0
M  V30 2726 C 268.084 -5.96792 -1.31464 0
M  V30 2727 C 269.082 -6.78424 -0.789297 0
M  V30 2728 O 268.77 -8.0323 -0.328077 0
M  V30 2729 H 268.502 -0.579873 -0.347453 0
M  V30 2730 H 271.056 -2.00502 -0.445882 0
M  V30 2731 H 269.286 -2.49702 -2.95272 0
M  V30 2732 H 270.975 -2.90034 -2.83963 0
M  V30 2733 H 271.741 -4.71349 -1.14259 0
M  V30 2734 H 267.62 -4.06142 -2.18106 0
M  V30 2735 H 271.164 -6.96868 -0.319542 0
M  V30 2736 H 267.061 -6.30937 -1.36342 0
M  V30 2737 H 267.829 -8.1727 -0.448493 0
M  V30 2738 N 270.492 0.636531 -1.44174 0
M  V30 2739 C 271.44 1.76995 -1.50915 0
M  V30 2740 C 272.434 1.65053 -0.381295 0
M  V30 2741 O 273.64 1.71197 -0.55601 0
M  V30 2742 H 270.015 0.584247 -0.473455 0
M  V30 2743 H 271.986 1.68432 -2.4632 0
M  V30 2744 C 270.735 3.15314 -1.46534 0
M  V30 2745 H 270.058 3.25149 -2.32633 0
M  V30 2746 H 271.498 3.9453 -1.55312 0
M  V30 2747 C 269.957 3.3639 -0.185305 0
M  V30 2748 O 270.487 3.94699 0.746688 0
M  V30 2749 N 268.693 2.9046 -0.0901606 0
M  V30 2750 H 268.24 2.43193 -0.849416 0
M  V30 2751 H 268.198 3.04937 0.765553 0
M  V30 2752 N 271.97 1.30982 0.876444 0
M  V30 2753 C 272.933 1.18054 1.96459 0
M  V30 2754 C 273.933 0.109399 1.60427 0
M  V30 2755 O 275.123 0.358173 1.70478 0
M  V30 2756 C 272.255 0.810616 3.31122 0
M  V30 2757 H 273.448 2.14735 2.09354 0
M  V30 2758 H 271.001 1.145 1.06392 0
M  V30 2759 H 271.736 -0.155322 3.23928 0
M  V30 2760 H 271.521 1.58481 3.58645 0
M  V30 2761 H 273.011 0.743876 4.10921 0
M  V30 2762 N 273.449 -1.08991 1.13837 0
M  V30 2763 C 274.677 -1.85011 0.926202 0
M  V30 2764 C 275.092 -1.8135 -0.525127 0
M  V30 2765 O 274.449 -1.21287 -1.36366 0
M  V30 2766 C 274.5 -3.32802 1.41155 0
M  V30 2767 O 274.221 -3.36444 2.80601 0
M  V30 2768 C 275.722 -4.25649 1.23847 0
M  V30 2769 H 272.942 -0.584249 0.32999 0
M  V30 2770 H 275.486 -1.37688 1.51202 0
M  V30 2771 H 273.641 -3.77536 0.868631 0
M  V30 2772 H 274.055 -4.28657 3.02248 0
M  V30 2773 H 275.529 -5.27485 1.62675 0
M  V30 2774 H 276.006 -4.38828 0.18065 0
M  V30 2775 H 276.612 -3.86735 1.76964 0
M  V30 2776 N 274.927 -0.932562 -1.27047 0
M  V30 2777 C 275.857 -0.452902 -2.29066 0
M  V30 2778 C 276.838 0.489338 -1.62909 0
M  V30 2779 O 278.023 0.393046 -1.90181 0
M  V30 2780 C 275.153 0.290698 -3.46081 0
M  V30 2781 C 274.107 -0.564168 -4.24265 0
M  V30 2782 C 273.433 0.308886 -5.33807 0
M  V30 2783 C 274.733 -1.83112 -4.89149 0
M  V30 2784 H 276.427 -1.30552 -2.69437 0
M  V30 2785 H 273.973 -0.629201 -1.29526 0
M  V30 2786 H 275.926 0.637233 -4.16554 0
M  V30 2787 H 274.65 1.17738 -3.0464 0
M  V30 2788 H 273.309 -0.893477 -3.55545 0
M  V30 2789 H 272.957 1.19467 -4.88607 0
M  V30 2790 H 272.657 -0.259633 -5.87026 0
M  V30 2791 H 274.181 0.650884 -6.07121 0
M  V30 2792 H 275.595 -1.55236 -5.51883 0
M  V30 2793 H 273.992 -2.34353 -5.52448 0
M  V30 2794 H 275.062 -2.54772 -4.12576 0
M  V30 2795 N 276.405 1.4127 -0.698611 0
M  V30 2796 C 277.63 2.06024 -0.238512 0
M  V30 2797 C 278.055 1.5224 1.10475 0
M  V30 2798 O 277.413 0.650623 1.69223 0
M  V30 2799 C 277.461 3.59988 -0.209952 0
M  V30 2800 O 276.565 4.04282 0.814235 0
M  V30 2801 H 275.906 0.653829 -0.115775 0
M  V30 2802 H 278.436 1.8098 -0.954326 0
M  V30 2803 H 278.446 4.07979 -0.0418436 0
M  V30 2804 H 277.121 3.98503 -1.1903 0
M  V30 2805 H 275.698 3.6779 0.615234 0
M  V30 2806 N 277.883 0.443576 1.51229 0
M  V30 2807 C 279.129 -0.120975 2.02439 0
M  V30 2808 C 279.462 -1.41815 1.32674 0
M  V30 2809 O 278.737 -1.89373 0.443622 0
M  V30 2810 C 279.02 -0.333291 3.58554 0
M  V30 2811 C 278.873 0.982968 4.38928 0
M  V30 2812 C 280.192 -1.10028 4.26124 0
M  V30 2813 H 277.311 -0.0424923 0.735774 0
M  V30 2814 H 279.953 0.583794 1.80809 0
M  V30 2815 H 278.103 -0.933614 3.77115 0
M  V30 2816 H 279.775 1.61775 4.32003 0
M  V30 2817 H 278.018 1.58611 4.03763 0
M  V30 2818 H 278.689 0.788379 5.46341 0
M  V30 2819 H 281.165 -0.591711 4.11871 0
M  V30 2820 H 280.041 -1.21761 5.35225 0
M  V30 2821 H 280.302 -2.12996 3.87408 0
M  V30 2822 N 279.361 -1.56624 0.175154 0
M  V30 2823 C 280.311 -2.14747 -0.766004 0
M  V30 2824 C 281.295 -1.08275 -1.19018 0
M  V30 2825 O 282.487 -1.34388 -1.15191 0
M  V30 2826 C 279.616 -2.79478 -1.99366 0
M  V30 2827 C 278.702 -3.93114 -1.5913 0
M  V30 2828 N 279.093 -4.97752 -0.89872 0
M  V30 2829 C 277.391 -4.04345 -1.88204 0
M  V30 2830 C 278.092 -5.77473 -0.700012 0
M  V30 2831 N 277.068 -5.29207 -1.24263 0
M  V30 2832 H 280.87 -2.93015 -0.22793 0
M  V30 2833 H 278.384 -1.6238 -0.0253843 0
M  V30 2834 H 280.381 -3.19498 -2.67818 0
M  V30 2835 H 279.041 -2.02692 -2.53665 0
M  V30 2836 H 280.052 -5.14903 -0.556347 0
M  V30 2837 H 276.729 -3.38667 -2.44153 0
M  V30 2838 H 278.119 -6.71728 -0.152047 0
M  V30 2839 N 280.839 0.0985539 -1.57292 0
M  V30 2840 C 281.771 1.14595 -1.98496 0
M  V30 2841 C 282.784 1.36512 -0.887031 0
M  V30 2842 O 283.973 1.35225 -1.16518 0
M  V30 2843 C 281.073 2.50216 -2.28572 0
M  V30 2844 C 280.246 2.48624 -3.59868 0
M  V30 2845 C 279.305 3.66146 -3.7792 0
M  V30 2846 O 278.331 3.48795 -4.49812 0
M  V30 2847 N 279.533 4.85496 -3.18235 0
M  V30 2848 H 282.298 0.795277 -2.88956 0
M  V30 2849 H 279.859 0.287579 -1.59325 0
M  V30 2850 H 281.851 3.27432 -2.37845 0
M  V30 2851 H 280.421 2.77387 -1.44136 0
M  V30 2852 H 279.641 1.56978 -3.61596 0
M  V30 2853 H 280.929 2.44635 -4.46129 0
M  V30 2854 H 280.327 5.02497 -2.59833 0
M  V30 2855 H 278.884 5.60317 -3.32999 0
M  V30 2856 N 282.317 1.53212 0.369288 0
M  V30 2857 C 283.247 1.82365 1.45826 0
M  V30 2858 C 284.228 0.676907 1.56051 0
M  V30 2859 O 285.413 0.926401 1.70679 0
M  V30 2860 C 282.543 2.01023 2.83208 0
M  V30 2861 C 281.497 3.1678 2.8781 0
M  V30 2862 C 280.823 3.20724 4.27832 0
M  V30 2863 C 282.123 4.55447 2.55667 0
M  V30 2864 H 283.817 2.73559 1.21678 0
M  V30 2865 H 281.363 1.3163 0.583911 0
M  V30 2866 H 283.316 2.20001 3.59413 0
M  V30 2867 H 282.04 1.06536 3.08736 0
M  V30 2868 H 280.699 2.97616 2.14056 0
M  V30 2869 H 280.347 2.23882 4.50429 0
M  V30 2870 H 280.047 3.98496 4.31827 0
M  V30 2871 H 281.571 3.41881 5.05915 0
M  V30 2872 H 282.985 4.74611 3.21586 0
M  V30 2873 H 281.382 5.35432 2.70984 0
M  V30 2874 H 282.452 4.60812 1.5093 0
M  V30 2875 N 283.795 -0.628877 1.44509 0
M  V30 2876 C 285.041 -1.39045 1.47629 0
M  V30 2877 C 285.374 -1.93892 0.109343 0
M  V30 2878 O 284.649 -1.7379 -0.87334 0
M  V30 2879 C 284.932 -2.55408 2.53848 0
M  V30 2880 C 284.785 -2.05896 3.99909 0
M  V30 2881 C 286.104 -3.5759 2.56549 0
M  V30 2882 H 283.223 -0.504232 0.537512 0
M  V30 2883 H 285.865 -0.710854 1.76201 0
M  V30 2884 H 284.015 -3.13384 2.29615 0
M  V30 2885 H 285.687 -1.52734 4.35282 0
M  V30 2886 H 283.93 -1.37061 4.11578 0
M  V30 2887 H 284.601 -2.89681 4.69882 0
M  V30 2888 H 287.077 -3.09419 2.78207 0
M  V30 2889 H 285.953 -4.36527 3.32769 0
M  V30 2890 H 286.214 -4.11808 1.60832 0
M  V30 2891 N 285.273 -1.31445 -0.869486 0
M  V30 2892 C 286.183 -1.21097 -2.0093 0
M  V30 2893 C 287.199 -0.127584 -1.73532 0
M  V30 2894 O 288.375 -0.345477 -1.98415 0
M  V30 2895 C 285.44 -0.919378 -3.34288 0
M  V30 2896 C 284.501 -2.08971 -3.75006 0
M  V30 2897 C 283.734 -1.81194 -5.02001 0
M  V30 2898 O 283.957 -0.747296 -5.65484 0
M  V30 2899 O 282.891 -2.66883 -5.39497 0
M  V30 2900 H 286.717 -2.16883 -2.12592 0
M  V30 2901 H 284.302 -1.11189 -0.997868 0
M  V30 2902 H 286.184 -0.772625 -4.14257 0
M  V30 2903 H 284.859 0.00844772 -3.23699 0
M  V30 2904 H 283.766 -2.29187 -2.95676 0
M  V30 2905 H 285.099 -2.9998 -3.90221 0
M  V30 2906 N 286.751 1.08385 -1.14413 0
M  V30 2907 C 287.699 2.17406 -0.826888 0
M  V30 2908 C 288.693 1.6827 0.195312 0
M  V30 2909 O 289.899 1.79927 0.0513892 0
M  V30 2910 H 286.274 0.70934 -0.249681 0
M  V30 2911 H 288.245 2.41388 -1.75426 0
M  V30 2912 C 286.994 3.46215 -0.320979 0
M  V30 2913 H 286.317 3.84401 -1.0989 0
M  V30 2914 H 287.757 4.23777 -0.137549 0
M  V30 2915 C 286.216 3.23067 0.955472 0
M  V30 2916 O 286.746 3.4668 2.02918 0
M  V30 2917 N 284.952 2.7661 0.890798 0
M  V30 2918 H 284.499 2.57594 0.0168815 0
M  V30 2919 H 284.457 2.61501 1.74542 0
M  V30 2920 N 288.23 0.939286 1.26551 0
M  V30 2921 C 289.458 0.602536 1.97932 0
M  V30 2922 C 289.873 -0.82206 1.69964 0
M  V30 2923 O 289.23 -1.54789 0.966784 0
M  V30 2924 C 289.281 0.832946 3.51773 0
M  V30 2925 O 289.002 2.20151 3.78768 0
M  V30 2926 C 290.503 0.506483 4.40397 0
M  V30 2927 H 287.723 0.227248 0.631347 0
M  V30 2928 H 290.267 1.25948 1.61113 0
M  V30 2929 H 288.422 0.222644 3.8676 0
M  V30 2930 H 288.836 2.26013 4.73306 0
M  V30 2931 H 290.31 0.718333 5.47306 0
M  V30 2932 H 290.787 -0.558451 4.35635 0
M  V30 2933 H 291.393 1.09543 4.10951 0
M  V30 2934 N 289.708 -1.40897 0.706093 0
M  V30 2935 C 290.985 -1.94868 0.169099 0
M  V30 2936 C 291.365 -1.64485 -1.32318 0
M  V30 2937 O 290.713 -0.95744 -2.07474 0
M  V30 2938 C 290.923 -3.45798 0.471654 0
M  V30 2939 C 292.271 -4.22663 0.405127 0
M  V30 2940 O 293.295 -3.53865 0.407168 0
M  V30 2941 O 292.154 -5.45216 0.374383 0
M  V30 2942 H 289.248 -0.82673 0.0211352 0
M  V30 2943 H 291.794 -1.50558 0.782976 0
M  V30 2944 H 290.566 -3.61235 1.50416 0
M  V30 2945 H 290.189 -3.97225 -0.172666 0
M  V30 2946 N 291.186 -0.45159 -1.50991 0
M  V30 2947 C 292.096 0.358431 -2.31846 0
M  V30 2948 C 293.112 1.01438 -1.41373 0
M  V30 2949 O 294.288 1.00663 -1.74439 0
M  V30 2950 C 291.353 1.43704 -3.15515 0
M  V30 2951 C 290.414 0.799742 -4.21785 0
M  V30 2952 C 289.647 1.82696 -5.01456 0
M  V30 2953 O 289.87 3.05105 -4.81941 0
M  V30 2954 O 288.804 1.40958 -5.85162 0
M  V30 2955 H 292.63 -0.302032 -3.02194 0
M  V30 2956 H 290.215 -0.213825 -1.47862 0
M  V30 2957 H 292.097 2.06227 -3.67489 0
M  V30 2958 H 290.772 2.08133 -2.47916 0
M  V30 2959 H 289.679 0.136084 -3.73852 0
M  V30 2960 H 291.012 0.198718 -4.91799 0
M  V30 2961 N 292.664 1.56529 -0.183458 0
M  V30 2962 C 293.892 2.01623 0.464285 0
M  V30 2963 C 294.307 1.06366 1.55986 0
M  V30 2964 O 293.664 0.0665398 1.82379 0
M  V30 2965 C 293.715 3.46475 1.03139 0
M  V30 2966 O 293.436 4.38095 -0.0204675 0
M  V30 2967 C 294.937 4.0703 1.75617 0
M  V30 2968 H 292.157 0.660596 0.117704 0
M  V30 2969 H 294.701 2.02451 -0.288751 0
M  V30 2970 H 292.856 3.46383 1.73486 0
M  V30 2971 H 293.27 5.22973 0.399952 0
M  V30 2972 H 294.744 5.10271 2.10542 0
M  V30 2973 H 295.221 3.49819 2.65563 0
M  V30 2974 H 295.827 4.1086 1.09882 0
M  V30 2975 N 294.142 -0.090211 1.57342 0
M  V30 2976 C 295.372 -0.805055 1.90269 0
M  V30 2977 C 295.78 -1.72561 0.775842 0
M  V30 2978 O 295.123 -1.81839 -0.260843 0
M  V30 2979 C 295.185 -1.66734 3.18497 0
M  V30 2980 C 294.849 -0.918092 4.47683 0
M  V30 2981 C 295.846 -0.245674 5.19319 0
M  V30 2982 C 293.531 -0.890724 4.94339 0
M  V30 2983 C 295.525 0.444088 6.35851 0
M  V30 2984 C 293.212 -0.197179 6.10782 0
M  V30 2985 C 294.21 0.469044 6.81388 0
M  V30 2986 O 293.898 1.15146 7.95611 0
M  V30 2987 H 293.63 -0.235143 0.633785 0
M  V30 2988 H 296.184 -0.0703805 2.05279 0
M  V30 2989 H 294.414 -2.44437 2.99646 0
M  V30 2990 H 296.103 -2.25919 3.37217 0
M  V30 2991 H 296.869 -0.258246 4.84312 0
M  V30 2992 H 292.748 -1.39873 4.39268 0
M  V30 2993 H 296.292 0.964667 6.90898 0
M  V30 2994 H 292.189 -0.18247 6.45242 0
M  V30 2995 H 292.957 1.05885 8.11622 0
M  V30 2996 N 295.62 -1.53406 -0.361157 0
M  V30 2997 C 296.86 -1.71507 -1.11197 0
M  V30 2998 C 297.224 -0.459337 -1.86425 0
M  V30 2999 O 298.425 -0.517102 -2.63779 0
M  V30 3000 C 296.696 -2.93307 -2.0422 0
M  V30 3001 S 298.255 -3.32135 -2.86761 0
M  V30 3002 H 295.073 -0.603448 -0.375995 0
M  V30 3003 H 297.675 -1.91516 -0.392642 0
M  V30 3004 H 296.379 -3.82891 -1.47724 0
M  V30 3005 H 295.91 -2.75712 -2.80618 0
M  V30 3006 H 297.925 -2.84493 -4.06544 0
M  V30 3007 N 297.098 0.621204 -1.44841 0
M  V30 3008 C 298.347 1.37658 -1.47422 0
M  V30 3009 C 298.66 1.95264 -0.114629 0
M  V30 3010 O 299.866 2.71494 -0.0180199 0
M  V30 3011 C 298.322 2.49285 -2.59586 0
M  V30 3012 C 297.93 1.98149 -4.01797 0
M  V30 3013 C 299.674 3.26409 -2.71399 0
M  V30 3014 C 297.581 3.07178 -5.05367 0
M  V30 3015 H 296.511 0.517344 -0.548517 0
M  V30 3016 H 299.162 0.667257 -1.70938 0
M  V30 3017 H 297.544 3.22839 -2.29328 0
M  V30 3018 H 298.718 1.31395 -4.41669 0
M  V30 3019 H 297.033 1.33812 -3.94314 0
M  V30 3020 H 299.63 4.07706 -3.45948 0
M  V30 3021 H 299.973 3.76535 -1.77559 0
M  V30 3022 H 300.506 2.5995 -3.01116 0
M  V30 3023 H 297.245 2.61985 -6.00869 0
M  V30 3024 H 296.765 3.72542 -4.70077 0
M  V30 3025 H 298.444 3.71789 -5.29511 0
M  V30 3026 N 298.576 1.31904 0.862503 0
M  V30 3027 C 299.853 1.12644 1.59908 0
M  V30 3028 C 300.233 -0.316104 2.0872 0
M  V30 3029 O 299.581 -1.31145 1.87118 0
M  V30 3030 C 299.791 2.1472 2.7513 0
M  V30 3031 C 301.139 2.47637 3.44907 0
M  V30 3032 O 302.163 2.13205 2.85346 0
M  V30 3033 O 301.022 3.06632 4.52371 0
M  V30 3034 H 298.116 0.43416 0.703871 0
M  V30 3035 H 300.662 1.43408 0.907314 0
M  V30 3036 H 299.434 3.1172 2.3653 0
M  V30 3037 H 299.057 1.84905 3.51989 0
M  V30 3038 N 300.054 -1.07777 1.14986 0
M  V30 3039 C 301.002 -2.16964 0.838406 0
M  V30 3040 C 301.996 -1.68372 -0.186386 0
M  V30 3041 O 303.202 -1.79951 -0.0418465 0
M  V30 3042 H 299.577 -0.708006 0.253439 0
M  V30 3043 H 301.548 -2.40454 1.76704 0
M  V30 3044 C 300.297 -3.4604 0.339335 0
M  V30 3045 H 299.62 -3.83813 1.11927 0
M  V30 3046 H 301.06 -4.23698 0.160021 0
M  V30 3047 C 299.519 -3.23569 -0.938325 0
M  V30 3048 O 300.049 -3.47752 -2.01077 0
M  V30 3049 N 298.255 -2.77079 -0.876117 0
M  V30 3050 H 297.802 -2.576 -0.00322037 0
M  V30 3051 H 297.76 -2.62422 -1.73153 0
M  V30 3052 N 301.532 -0.945985 -1.26051 0
M  V30 3053 C 302.442 -0.465633 -2.29933 0
M  V30 3054 C 303.458 0.462761 -1.67733 0
M  V30 3055 O 304.634 0.341118 -1.9849 0
M  V30 3056 C 301.699 0.256994 -3.45746 0
M  V30 3057 C 300.76 -0.708549 -4.23412 0
M  V30 3058 C 299.993 -0.0203135 -5.33696 0
M  V30 3059 O 300.216 1.19571 -5.57726 0
M  V30 3060 O 299.15 -0.701459 -5.97799 0
M  V30 3061 H 302.976 -1.32866 -2.73094 0
M  V30 3062 H 300.561 -0.712071 -1.31339 0
M  V30 3063 H 302.443 0.663852 -4.16138 0
M  V30 3064 H 301.118 1.09533 -3.04605 0
M  V30 3065 H 300.025 -1.16545 -3.55483 0
M  V30 3066 H 301.358 -1.51465 -4.68315 0
M  V30 3067 N 303.011 1.40521 -0.713556 0
M  V30 3068 C 303.974 2.29098 -0.0684347 0
M  V30 3069 C 304.974 1.45268 0.689472 0
M  V30 3070 O 306.164 1.66205 0.521677 0
M  V30 3071 C 303.296 3.28446 0.913024 0
M  V30 3072 H 304.489 2.87645 -0.84855 0
M  V30 3073 H 302.042 1.48809 -0.47809 0
M  V30 3074 H 302.777 2.74913 1.72027 0
M  V30 3075 H 302.562 3.90327 0.372472 0
M  V30 3076 H 304.052 3.94777 1.36165 0
M  V30 3077 N 304.489 0.459591 1.5075 0
M  V30 3078 C 305.419 -0.330644 2.31147 0
M  V30 3079 C 306.4 -1.00087 1.37538 0
M  V30 3080 O 307.585 -1.00025 1.66459 0
M  V30 3081 C 304.715 -1.41958 3.16962 0
M  V30 3082 C 303.669 -0.871608 4.19031 0
M  V30 3083 C 302.995 -2.05797 4.9351 0
M  V30 3084 C 304.295 0.109251 5.22186 0
M  V30 3085 H 305.989 0.340336 2.97459 0
M  V30 3086 H 303.535 0.165119 1.4305 0
M  V30 3087 H 305.488 -1.9798 3.71997 0
M  V30 3088 H 304.212 -2.11917 2.48513 0
M  V30 3089 H 302.871 -0.333442 3.6508 0
M  V30 3090 H 302.519 -2.74427 4.21544 0
M  V30 3091 H 302.219 -1.6976 5.62544 0
M  V30 3092 H 303.743 -2.62331 5.51375 0
M  V30 3093 H 305.157 -0.361405 5.7216 0
M  V30 3094 H 303.554 0.383316 5.98875 0
M  V30 3095 H 304.624 1.03887 4.73641 0
M  V30 3096 N 305.967 -1.56429 0.191757 0
M  V30 3097 C 307.197 -2.01574 -0.452928 0
M  V30 3098 C 307.605 -1.07107 -1.55964 0
M  V30 3099 O 306.948 -0.067534 -1.83576 0
M  V30 3100 C 307.01 -3.43121 -1.07278 0
M  V30 3101 C 306.674 -4.56879 -0.105214 0
M  V30 3102 C 307.671 -5.15379 0.684149 0
M  V30 3103 C 305.356 -5.023 0.00489824 0
M  V30 3104 C 307.35 -6.17746 1.57062 0
M  V30 3105 C 305.037 -6.04511 0.894935 0
M  V30 3106 C 306.035 -6.62108 1.67637 0
M  V30 3107 O 305.723 -7.62335 2.55149 0
M  V30 3108 H 305.455 -0.665554 -0.118379 0
M  V30 3109 H 308.009 -2.03245 0.296737 0
M  V30 3110 H 306.239 -3.38425 -1.87097 0
M  V30 3111 H 307.928 -3.72093 -1.62177 0
M  V30 3112 H 308.694 -4.81157 0.609365 0
M  V30 3113 H 304.573 -4.57168 -0.593156 0
M  V30 3114 H 308.117 -6.6263 2.181 0
M  V30 3115 H 304.014 -6.38157 0.970847 0
M  V30 3116 H 304.782 -7.79741 2.48892 0
M  V30 3117 N 307.445 0.0818655 -1.57387 0
M  V30 3118 C 308.722 0.815343 -1.77796 0
M  V30 3119 C 309.102 1.96289 -0.77679 0
M  V30 3120 O 308.45 2.27691 0.192106 0
M  V30 3121 C 308.66 1.29765 -3.23978 0
M  V30 3122 C 310.008 1.7351 -3.8753 0
M  V30 3123 O 311.032 1.39356 -3.27808 0
M  V30 3124 O 309.891 2.36708 -4.92576 0
M  V30 3125 H 306.985 0.389914 -0.729312 0
M  V30 3126 H 309.531 0.0627213 -1.69584 0
M  V30 3127 H 308.303 0.47608 -3.88393 0
M  V30 3128 H 307.926 2.11189 -3.36875 0
M  V30 3129 N 308.923 1.53595 0.353017 0
M  V30 3130 C 310.172 1.69603 1.09168 0
M  V30 3131 C 310.485 0.460925 1.90092 0
M  V30 3132 O 311.691 0.501774 2.66823 0
M  V30 3133 C 310.147 2.99872 1.9901 0
M  V30 3134 C 309.755 4.30687 1.23339 0
M  V30 3135 C 311.499 3.25246 2.72792 0
M  V30 3136 C 309.406 5.52036 2.12156 0
M  V30 3137 H 308.336 0.631966 0.411261 0
M  V30 3138 H 310.987 1.80096 0.351802 0
M  V30 3139 H 309.369 2.83212 2.7678 0
M  V30 3140 H 310.543 4.58019 0.505456 0
M  V30 3141 H 308.858 4.11853 0.613663 0
M  V30 3142 H 311.455 4.13095 3.39495 0
M  V30 3143 H 311.798 2.41846 3.38846 0
M  V30 3144 H 312.331 3.42638 2.021 0
M  V30 3145 H 309.07 6.37951 1.50659 0
M  V30 3146 H 308.59 5.28966 2.82764 0
M  V30 3147 H 310.269 5.87313 2.71427 0
M  V30 3148 N 310.401 -0.613514 1.45168 0
M  V30 3149 C 311.641 -1.38405 1.5041 0
M  V30 3150 C 312.005 -1.91489 0.139922 0
M  V30 3151 O 313.206 -2.68716 0.067033 0
M  V30 3152 C 311.477 -2.50552 2.5487 0
M  V30 3153 S 313.036 -3.38439 2.79292 0
M  V30 3154 H 309.854 -0.471945 0.531779 0
M  V30 3155 H 312.456 -0.708518 1.82209 0
M  V30 3156 H 311.16 -2.09894 3.52665 0
M  V30 3157 H 310.691 -3.22913 2.24701 0
M  V30 3158 H 312.706 -4.48527 2.12222 0
M  V30 3159 N 311.879 -1.3236 -0.855495 0
M  V30 3160 C 313.126 -1.22872 -1.60962 0
M  V30 3161 C 313.454 0.209658 -1.93367 0
M  V30 3162 O 312.709 1.16243 -1.57436 0
M  V30 3163 C 313.008 -2.03275 -2.93963 0
M  V30 3164 C 312.674 -3.5264 -2.80991 0
M  V30 3165 C 311.336 -3.93364 -2.7716 0
M  V30 3166 C 313.688 -4.47626 -2.66983 0
M  V30 3167 C 311.016 -5.27319 -2.572 0
M  V30 3168 C 313.368 -5.81723 -2.48558 0
M  V30 3169 C 312.032 -6.2165 -2.4312 0
M  V30 3170 H 311.302 -0.44962 -0.589001 0
M  V30 3171 H 313.949 -1.63777 -0.992442 0
M  V30 3172 H 312.254 -1.55095 -3.59795 0
M  V30 3173 H 313.951 -1.93303 -3.51333 0
M  V30 3174 H 310.541 -3.20295 -2.84797 0
M  V30 3175 H 314.725 -4.17084 -2.68988 0
M  V30 3176 H 309.981 -5.57311 -2.51424 0
M  V30 3177 H 314.155 -6.5494 -2.36699 0
M  V30 3178 H 311.782 -7.25388 -2.27412 0
M  V30 3179 N 313.357 1.07166 -1.15556 0
M  V30 3180 C 314.773 1.31899 -0.898603 0
M  V30 3181 C 314.973 1.96333 0.453383 0
M  V30 3182 O 314.029 2.22438 1.19489 0
M  V30 3183 C 315.342 2.20826 -2.04099 0
M  V30 3184 C 316.89 2.34269 -2.07574 0
M  V30 3185 C 317.365 3.26546 -3.21141 0
M  V30 3186 N 318.856 3.34127 -3.20801 0
M  V30 3187 C 319.591 4.05595 -4.05315 0
M  V30 3188 N 319.087 4.79661 -4.99897 0
M  V30 3189 N 320.88 4.01555 -3.93332 0
M  V30 3190 H 313.031 0.637302 -2.02613 0
M  V30 3191 H 315.294 0.343468 -0.883591 0
M  V30 3192 H 315 1.80744 -3.01703 0
M  V30 3193 H 314.874 3.21364 -1.97496 0
M  V30 3194 H 317.261 2.73603 -1.10568 0
M  V30 3195 H 317.342 1.33429 -2.18244 0
M  V30 3196 H 316.986 2.87931 -4.184 0
M  V30 3197 H 316.916 4.27345 -3.07708 0
M  V30 3198 H 319.407 2.81336 -2.52306 0
M  V30 3199 H 319.72 5.31694 -5.60822 0
M  V30 3200 H 318.065 4.78671 -5.03884 0
M  V30 3201 H 321.256 3.42806 -3.18751 0
M  V30 3202 H 321.429 4.56987 -4.5942 0
M  V30 3203 N 314.835 0.952656 1.25548 0
M  V30 3204 C 316.063 0.623496 1.97282 0
M  V30 3205 C 316.478 -0.803987 1.70826 0
M  V30 3206 O 315.835 -1.53755 0.983147 0
M  V30 3207 C 315.886 0.870209 3.5087 0
M  V30 3208 O 315.607 2.24156 3.76412 0
M  V30 3209 C 317.108 0.553164 4.39835 0
M  V30 3210 H 314.328 0.233931 0.628902 0
M  V30 3211 H 316.872 1.27649 1.59768 0
M  V30 3212 H 315.027 0.263652 3.86502 0
M  V30 3213 H 315.441 2.31021 4.70882 0
M  V30 3214 H 316.915 0.776342 5.46513 0
M  V30 3215 H 317.392 -0.512215 4.36203 0
M  V30 3216 H 317.998 1.13896 4.09766 0
M  V30 3217 N 316.313 -1.40141 0.720998 0
M  V30 3218 C 317.243 -2.33339 0.0867621 0
M  V30 3219 C 318.224 -1.53178 -0.739622 0
M  V30 3220 O 319.409 -1.81625 -0.687449 0
M  V30 3221 C 316.539 -3.37194 -0.831728 0
M  V30 3222 C 315.493 -4.27857 -0.110558 0
M  V30 3223 C 314.819 -5.22294 -1.14513 0
M  V30 3224 C 316.119 -5.11872 1.0385 0
M  V30 3225 H 317.813 -2.86626 0.865219 0
M  V30 3226 H 315.359 -1.37814 0.417516 0
M  V30 3227 H 317.312 -4.01335 -1.28485 0
M  V30 3228 H 316.036 -2.82314 -1.64214 0
M  V30 3229 H 314.695 -3.65176 0.322797 0
M  V30 3230 H 314.343 -4.63717 -1.94874 0
M  V30 3231 H 314.043 -5.83797 -0.667446 0
M  V30 3232 H 315.567 -5.89312 -1.59824 0
M  V30 3233 H 316.981 -5.69436 0.664482 0
M  V30 3234 H 315.378 -5.82445 1.4449 0
M  V30 3235 H 316.448 -4.4753 1.86668 0
M  V30 3236 N 317.792 -0.46758 -1.50504 0
M  V30 3237 C 318.739 0.328413 -2.28452 0
M  V30 3238 C 319.709 0.990313 -1.33349 0
M  V30 3239 O 320.894 1.00343 -1.62284 0
M  V30 3240 C 318.034 1.40648 -3.15138 0
M  V30 3241 C 317.147 0.759709 -4.25267 0
M  V30 3242 C 316.282 1.81537 -4.99217 0
M  V30 3243 C 315.321 1.14866 -6.01226 0
M  V30 3244 N 314.458 2.14702 -6.68467 0
M  V30 3245 H 319.298 -0.342603 -2.96024 0
M  V30 3246 H 316.835 -0.180801 -1.45985 0
M  V30 3247 H 318.793 2.04315 -3.63746 0
M  V30 3248 H 317.423 2.04671 -2.49619 0
M  V30 3249 H 316.475 0.0105671 -3.80399 0
M  V30 3250 H 317.787 0.233243 -4.98254 0
M  V30 3251 H 316.941 2.52793 -5.51526 0
M  V30 3252 H 315.68 2.37564 -4.25928 0
M  V30 3253 H 314.685 0.42171 -5.4818 0
M  V30 3254 H 315.91 0.595334 -6.76485 0
M  V30 3255 H 313.856 2.69752 -5.97972 0
M  V30 3256 H 313.773 1.6703 -7.37317 0
M  V30 3257 H 315.041 2.85348 -7.25394 0
M  V30 3258 N 319.27 1.56325 -0.20005 0
M  V30 3259 C 320.2 2.22318 0.713916 0
M  V30 3260 C 321.181 1.18788 1.21752 0
M  V30 3261 O 322.366 1.47309 1.26545 0
M  V30 3262 C 319.496 2.88639 1.93144 0
M  V30 3263 C 318.45 3.98457 1.56255 0
M  V30 3264 C 317.776 4.51967 2.85709 0
M  V30 3265 C 319.076 5.16612 0.768747 0
M  V30 3266 H 320.77 2.98952 0.163755 0
M  V30 3267 H 318.316 1.43792 0.0773219 0
M  V30 3268 H 320.269 3.33491 2.57608 0
M  V30 3269 H 318.993 2.09419 2.50621 0
M  V30 3270 H 317.652 3.54305 0.941471 0
M  V30 3271 H 317.3 3.69503 3.41287 0
M  V30 3272 H 317 5.26071 2.6177 0
M  V30 3273 H 318.524 4.99523 3.51154 0
M  V30 3274 H 319.938 5.57977 1.3166 0
M  V30 3275 H 318.335 5.96812 0.627286 0
M  V30 3276 H 319.405 4.84358 -0.229168 0
M  V30 3277 N 320.748 -0.0735177 1.57428 0
M  V30 3278 C 321.976 -0.785969 1.9139 0
M  V30 3279 C 322.391 -1.71207 0.795847 0
M  V30 3280 O 321.748 -1.81033 -0.230915 0
M  V30 3281 C 321.799 -1.58107 3.25091 0
M  V30 3282 O 321.52 -0.6922 4.32597 0
M  V30 3283 C 323.021 -2.39467 3.73055 0
M  V30 3284 H 320.241 -0.223558 0.632663 0
M  V30 3285 H 322.785 -0.044302 2.04452 0
M  V30 3286 H 320.94 -2.27503 3.13562 0
M  V30 3287 H 321.354 -1.24504 5.09508 0
M  V30 3288 H 322.828 -2.90716 4.69242 0
M  V30 3289 H 323.305 -3.18913 3.01979 0
M  V30 3290 H 323.911 -1.7523 3.87523 0
M  V30 3291 N 322.226 -1.5378 -0.344866 0
M  V30 3292 C 323.454 -1.74899 -1.10534 0
M  V30 3293 C 323.869 -0.487534 -1.82397 0
M  V30 3294 O 323.226 0.540741 -1.74305 0
M  V30 3295 C 323.277 -2.92822 -2.11984 0
M  V30 3296 O 322.998 -4.14089 -1.43044 0
M  V30 3297 C 324.499 -3.25982 -3.00417 0
M  V30 3298 H 321.719 -0.584426 -0.329678 0
M  V30 3299 H 324.263 -2.006 -0.397474 0
M  V30 3300 H 322.418 -2.69457 -2.78338 0
M  V30 3301 H 322.832 -4.80272 -2.10805 0
M  V30 3302 H 324.306 -4.11848 -3.67539 0
M  V30 3303 H 324.783 -2.42228 -3.66363 0
M  V30 3304 H 325.389 -3.51349 -2.39654 0
M  V30 3305 N 323.704 0.605807 -1.45491 0
M  V30 3306 C 325.115 1.18777 -1.44045 0
M  V30 3307 C 325.466 1.95471 -0.169001 0
M  V30 3308 O 324.591 2.0374 0.729324 0
M  V30 3309 C 325.186 2.16064 -2.60963 0
M  V30 3310 C 323.745 2.69633 -2.62631 0
M  V30 3311 C 322.892 1.45072 -2.36325 0
M  V30 3312 H 325.843 0.395017 -1.53705 0
M  V30 3313 H 325.864 2.9913 -2.35163 0
M  V30 3314 H 325.376 1.60217 -3.53486 0
M  V30 3315 H 323.477 3.29414 -1.74119 0
M  V30 3316 H 323.59 3.13944 -3.61906 0
M  V30 3317 H 321.954 1.74089 -1.85917 0
M  V30 3318 H 322.737 0.910899 -3.30995 0
M  V30 3319 N 325.182 1.32811 0.848464 0
M  V30 3320 C 326.41 1.26739 1.63538 0
M  V30 3321 C 326.825 -0.163484 1.88091 0
M  V30 3322 O 326.182 -1.10258 1.45429 0
M  V30 3323 C 326.233 2.03013 2.99112 0
M  V30 3324 O 325.954 3.40518 2.75643 0
M  V30 3325 C 327.455 2.04038 3.93552 0
M  V30 3326 H 324.675 0.437024 0.509167 0
M  V30 3327 H 327.219 1.75033 1.05753 0
M  V30 3328 H 325.374 1.58426 3.53525 0
M  V30 3329 H 325.788 3.79635 3.61908 0
M  V30 3330 H 327.262 2.61877 4.85926 0
M  V30 3331 H 327.739 1.0282 4.26995 0
M  V30 3332 H 328.345 2.486 3.45077 0
M  V30 3333 N 326.66 -1.06551 1.16123 0
M  V30 3334 C 327.89 -1.8274 0.963838 0
M  V30 3335 C 328.298 -1.82712 -0.491228 0
M  V30 3336 O 327.641 -1.24294 -1.35265 0
M  V30 3337 C 327.703 -3.3065 1.41106 0
M  V30 3338 C 327.367 -3.54384 2.88549 0
M  V30 3339 C 328.364 -3.4765 3.86569 0
M  V30 3340 C 326.049 -3.81789 3.26408 0
M  V30 3341 C 328.043 -3.67982 5.2045 0
M  V30 3342 C 325.73 -4.01772 4.60459 0
M  V30 3343 C 326.728 -3.94866 5.57288 0
M  V30 3344 O 326.416 -4.14306 6.88916 0
M  V30 3345 H 326.148 -0.583136 0.341948 0
M  V30 3346 H 328.702 -1.35351 1.54497 0
M  V30 3347 H 326.932 -3.78887 0.773394 0
M  V30 3348 H 328.621 -3.88324 1.1815 0
M  V30 3349 H 329.387 -3.2647 3.58667 0
M  V30 3350 H 325.266 -3.86276 2.51619 0
M  V30 3351 H 328.81 -3.62507 5.96015 0
M  V30 3352 H 324.707 -4.2244 4.88072 0
M  V30 3353 H 325.475 -4.31609 6.95454 0
M  V30 3354 N 328.138 -0.959301 -1.25041 0
M  V30 3355 C 329.386 -0.615393 -1.92503 0
M  V30 3356 C 329.707 0.850969 -1.75452 0
M  V30 3357 O 328.977 1.60658 -1.12098 0
M  V30 3358 H 327.557 -0.224613 -0.712431 0
M  V30 3359 H 330.219 -1.21855 -1.5211 0
M  V30 3360 H 329.315 -0.848738 -3.00338 0
M  V30 3361 N 329.616 1.39756 -0.72842 0
M  V30 3362 C 330.893 1.94574 -0.200079 0
M  V30 3363 C 331.273 1.66569 1.29684 0
M  V30 3364 O 330.621 0.990326 2.05924 0
M  V30 3365 C 330.831 3.45004 -0.526608 0
M  V30 3366 C 332.179 4.21965 -0.472318 0
M  V30 3367 O 333.203 3.53173 -0.463413 0
M  V30 3368 O 332.062 5.44552 -0.461075 0
M  V30 3369 H 329.156 0.826289 -0.0342851 0
M  V30 3370 H 331.702 1.49293 -0.806829 0
M  V30 3371 H 330.474 3.58796 -1.56144 0
M  V30 3372 H 330.097 3.97449 0.109449 0
M  V30 3373 N 331.094 0.475555 1.50254 0
M  V30 3374 C 332.024 -0.30611 2.31485 0
M  V30 3375 C 333.005 -0.986228 1.38591 0
M  V30 3376 O 334.19 -0.982541 1.67511 0
M  V30 3377 C 331.32 -1.38588 3.1845 0
M  V30 3378 C 330.274 -0.827115 4.19932 0
M  V30 3379 C 329.6 -2.00551 4.95665 0
M  V30 3380 C 330.9 0.16463 5.2204 0
M  V30 3381 H 332.594 0.371866 2.97082 0
M  V30 3382 H 330.14 0.180282 1.42867 0
M  V30 3383 H 332.093 -1.94023 3.74076 0
M  V30 3384 H 330.817 -2.09269 2.50747 0
M  V30 3385 H 329.476 -0.294702 3.65414 0
M  V30 3386 H 329.124 -2.6994 4.2443 0
M  V30 3387 H 328.824 -1.63784 5.64313 0
M  V30 3388 H 330.348 -2.56468 5.54127 0
M  V30 3389 H 331.762 -0.300699 5.72511 0
M  V30 3390 H 330.159 0.446813 5.98434 0
M  V30 3391 H 331.229 1.08905 4.72512 0
M  V30 3392 N 332.573 -1.56217 0.208337 0
M  V30 3393 C 333.521 -2.21053 -0.723769 0
M  V30 3394 C 334.515 -1.18578 -1.20978 0
M  V30 3395 O 335.721 -1.36691 -1.17114 0
M  V30 3396 H 332.096 -0.708595 -0.251788 0
M  V30 3397 H 334.067 -2.98006 -0.153365 0
M  V30 3398 C 332.816 -2.89417 -1.927 0
M  V30 3399 H 332.139 -3.68019 -1.56212 0
M  V30 3400 H 333.579 -3.38201 -2.55727 0
M  V30 3401 C 332.038 -1.91166 -2.77411 0
M  V30 3402 O 332.568 -1.42026 -3.75754 0
M  V30 3403 N 330.774 -1.59105 -2.43175 0
M  V30 3404 H 330.321 -1.99259 -1.63259 0
M  V30 3405 H 330.279 -0.936255 -3.00136 0
M  V30 3406 N 334.051 0.0651679 -1.57465 0
M  V30 3407 C 335.001 1.0838 -2.00594 0
M  V30 3408 C 335.985 1.34106 -0.889071 0
M  V30 3409 O 337.177 1.34295 -1.15299 0
M  V30 3410 C 334.306 2.39565 -2.45894 0
M  V30 3411 C 333.392 2.17085 -3.64328 0
M  V30 3412 N 333.783 1.64553 -4.78285 0
M  V30 3413 C 332.081 2.4753 -3.71006 0
M  V30 3414 C 332.782 1.57042 -5.60101 0
M  V30 3415 N 331.758 2.03328 -5.04141 0
M  V30 3416 H 335.56 0.671062 -2.86136 0
M  V30 3417 H 333.074 0.27213 -1.60104 0
M  V30 3418 H 335.071 3.13308 -2.75034 0
M  V30 3419 H 333.731 2.81549 -1.61741 0
M  V30 3420 H 334.742 1.33323 -5.00445 0
M  V30 3421 H 331.419 2.92835 -2.9758 0
M  V30 3422 H 332.809 1.17223 -6.61595 0
M  V30 3423 N 335.529 1.53961 0.336706 0
M  V30 3424 C 336.459 1.85417 1.41925 0
M  V30 3425 C 337.44 0.709856 1.5458 0
M  V30 3426 O 338.625 0.962396 1.68676 0
M  V30 3427 C 335.755 2.06985 2.78881 0
M  V30 3428 C 334.709 3.22813 2.81026 0
M  V30 3429 C 334.035 3.29727 4.20932 0
M  V30 3430 C 335.335 4.60767 2.45949 0
M  V30 3431 H 337.029 2.76079 1.15848 0
M  V30 3432 H 334.575 1.32839 0.555859 0
M  V30 3433 H 336.528 2.27575 3.54665 0
M  V30 3434 H 335.252 1.13061 3.06406 0
M  V30 3435 H 333.911 3.0209 2.07695 0
M  V30 3436 H 333.559 2.33385 4.45579 0
M  V30 3437 H 333.259 4.07566 4.23277 0
M  V30 3438 H 334.783 3.52536 4.98549 0
M  V30 3439 H 336.197 4.81325 3.11446 0
M  V30 3440 H 334.594 5.4106 2.59566 0
M  V30 3441 H 335.664 4.6391 1.41122 0
M  V30 3442 N 337.007 -0.598083 1.45811 0
M  V30 3443 C 338.253 -1.35882 1.50545 0
M  V30 3444 C 338.586 -1.93616 0.150445 0
M  V30 3445 O 337.861 -1.75604 -0.83628 0
M  V30 3446 C 338.144 -2.49966 2.59208 0
M  V30 3447 C 337.997 -1.97367 4.04186 0
M  V30 3448 C 339.316 -3.52068 2.64076 0
M  V30 3449 H 336.435 -0.492717 0.548087 0
M  V30 3450 H 339.077 -0.673319 1.77669 0
M  V30 3451 H 337.227 -3.08443 2.3621 0
M  V30 3452 H 338.899 -1.43466 4.38423 0
M  V30 3453 H 337.142 -1.283 4.14393 0
M  V30 3454 H 337.813 -2.79649 4.75921 0
M  V30 3455 H 340.289 -3.03448 2.84708 0
M  V30 3456 H 339.165 -4.2937 3.41954 0
M  V30 3457 H 339.426 -4.08304 1.69531 0
M  V30 3458 N 338.485 -1.33259 -0.841409 0
M  V30 3459 C 339.71 -1.2775 -1.63385 0
M  V30 3460 C 340.135 0.149188 -1.87507 0
M  V30 3461 O 339.493 1.10498 -1.43736 0
M  V30 3462 C 339.541 -2.05571 -2.96265 0
M  V30 3463 O 338.645 -1.41257 -3.87453 0
M  V30 3464 H 337.986 -0.439627 -0.497618 0
M  V30 3465 H 340.516 -1.75782 -1.04699 0
M  V30 3466 H 340.526 -2.16241 -3.45982 0
M  V30 3467 H 339.201 -3.09309 -2.7803 0
M  V30 3468 H 337.778 -1.39217 -3.45938 0
M  V30 3469 N 339.963 1.05934 -1.16686 0
M  V30 3470 C 340.926 2.11669 -0.879144 0
M  V30 3471 C 341.926 1.60294 0.127445 0
M  V30 3472 O 343.116 1.7389 -0.103865 0
M  V30 3473 C 340.248 3.39438 -0.315425 0
M  V30 3474 H 341.441 2.38626 -1.81653 0
M  V30 3475 H 338.994 1.22058 -0.976299 0
M  V30 3476 H 339.729 3.18132 0.629468 0
M  V30 3477 H 339.514 3.78034 -1.04079 0
M  V30 3478 H 341.004 4.17391 -0.132189 0
M  V30 3479 N 341.441 0.965919 1.2453 0
M  V30 3480 C 342.669 0.644385 1.96609 0
M  V30 3481 C 343.084 -0.785823 1.71669 0
M  V30 3482 O 342.441 -1.52703 0.999399 0
M  V30 3483 C 342.492 0.907375 3.49927 0
M  V30 3484 O 342.213 2.28136 3.74013 0
M  V30 3485 C 343.714 0.599784 4.39224 0
M  V30 3486 H 340.934 0.240588 0.626385 0
M  V30 3487 H 343.478 1.29337 1.58405 0
M  V30 3488 H 341.633 0.304631 3.862 0
M  V30 3489 H 342.047 2.36002 4.68405 0
M  V30 3490 H 343.521 0.834263 5.45659 0
M  V30 3491 H 343.998 -0.465921 4.36722 0
M  V30 3492 H 344.604 1.18235 4.08535 0
M  V30 3493 N 342.919 -1.39368 0.735821 0
M  V30 3494 C 343.852 -2.28155 0.0451175 0
M  V30 3495 C 344.83 -1.44433 -0.746852 0
M  V30 3496 O 346.014 -1.73823 -0.729237 0
M  V30 3497 C 343.141 -3.253 -0.943266 0
M  V30 3498 C 342.187 -4.25826 -0.239685 0
M  V30 3499 S 343.02 -5.25166 1.04693 0
M  V30 3500 C 344.176 -6.2587 0.0611639 0
M  V30 3501 H 344.409 -2.86388 0.79807 0
M  V30 3502 H 341.942 -1.45104 0.527653 0
M  V30 3503 H 343.9 -3.81789 -1.50824 0
M  V30 3504 H 342.561 -2.66085 -1.66906 0
M  V30 3505 H 341.754 -4.94229 -0.987596 0
M  V30 3506 H 341.356 -3.73141 0.253274 0
M  V30 3507 H 343.648 -6.73007 -0.778941 0
M  V30 3508 H 344.591 -7.04508 0.712362 0
M  V30 3509 H 344.999 -5.63639 -0.311602 0
M  V30 3510 N 344.397 -0.483516 -1.5 0
M  V30 3511 C 345.622 0.0667119 -2.07293 0
M  V30 3512 C 346.047 1.3164 -1.3436 0
M  V30 3513 O 345.405 1.76945 -0.394987 0
M  V30 3514 C 345.453 0.321126 -3.59167 0
M  V30 3515 O 344.557 1.39927 -3.87936 0
M  V30 3516 H 343.898 -0.0184758 -0.663743 0
M  V30 3517 H 346.428 -0.678125 -1.93035 0
M  V30 3518 H 346.438 0.557906 -4.04168 0
M  V30 3519 H 345.113 -0.592007 -4.11665 0
M  V30 3520 H 343.69 1.14882 -3.54763 0
M  V30 3521 N 345.875 1.56104 -0.216619 0
M  V30 3522 C 347.123 1.97781 0.415593 0
M  V30 3523 C 347.444 1.10536 1.60645 0
M  V30 3524 O 346.714 0.181303 1.95059 0
M  V30 3525 H 345.294 0.730415 0.156534 0
M  V30 3526 H 347.956 1.92445 -0.308366 0
M  V30 3527 H 347.052 3.03072 0.74525 0
M  V30 3528 N 347.353 -0.0568162 1.57498 0
M  V30 3529 C 348.599 -0.75422 1.88253 0
M  V30 3530 C 348.932 -1.76461 0.810865 0
M  V30 3531 O 348.207 -1.93691 -0.177259 0
M  V30 3532 C 348.49 -1.44878 3.2967 0
M  V30 3533 C 348.343 -0.453789 4.47505 0
M  V30 3534 C 349.662 -2.38994 3.69554 0
M  V30 3535 H 346.781 -0.272724 0.684683 0
M  V30 3536 H 349.423 -0.0172113 1.89992 0
M  V30 3537 H 347.573 -2.077 3.28318 0
M  V30 3538 H 349.245 0.170371 4.60985 0
M  V30 3539 H 347.488 0.229552 4.33192 0
M  V30 3540 H 348.159 -0.977699 5.43273 0
M  V30 3541 H 350.635 -1.86239 3.72095 0
M  V30 3542 H 349.511 -2.84587 4.69363 0
M  V30 3543 H 349.772 -3.24461 3.00296 0
M  V30 3544 N 348.832 -1.54138 -0.328536 0
M  V30 3545 C 350.06 -1.76062 -1.08673 0
M  V30 3546 C 350.475 -0.506852 -1.81869 0
M  V30 3547 O 349.832 0.522223 -1.74869 0
M  V30 3548 C 349.883 -2.95054 -2.08866 0
M  V30 3549 O 349.604 -4.15583 -1.38644 0
M  V30 3550 C 351.105 -3.2915 -2.96943 0
M  V30 3551 H 348.325 -0.587889 -0.323461 0
M  V30 3552 H 350.869 -2.0101 -0.376175 0
M  V30 3553 H 349.024 -2.72394 -2.75464 0
M  V30 3554 H 349.438 -4.82481 -2.05699 0
M  V30 3555 H 350.912 -4.15723 -3.63151 0
M  V30 3556 H 351.389 -2.461 -3.63774 0
M  V30 3557 H 351.995 -3.53871 -2.35914 0
M  V30 3558 N 350.31 0.590341 -1.46126 0
M  V30 3559 C 351.538 1.37504 -1.54597 0
M  V30 3560 C 351.953 1.87897 -0.184447 0
M  V30 3561 O 351.31 1.63192 0.816984 0
M  V30 3562 C 351.361 2.56779 -2.54454 0
M  V30 3563 O 351.082 2.08476 -3.85317 0
M  V30 3564 C 352.583 3.49427 -2.72792 0
M  V30 3565 H 349.803 0.420325 -0.523037 0
M  V30 3566 H 352.347 0.718383 -1.91467 0
M  V30 3567 H 350.502 3.1845 -2.20609 0
M  V30 3568 H 350.916 2.86097 -4.396 0
M  V30 3569 H 352.39 4.29619 -3.466 0
M  V30 3570 H 352.867 4.00876 -1.79429 0
M  V30 3571 H 353.473 2.93598 -3.07702 0
M  V30 3572 N 351.788 1.33704 0.83433 0
M  V30 3573 C 353.028 1.26754 1.60352 0
M  V30 3574 C 353.392 -0.163182 1.91305 0
M  V30 3575 O 354.593 -0.3567 2.66423 0
M  V30 3576 C 352.864 2.12262 2.8754 0
M  V30 3577 S 354.423 2.22549 3.78176 0
M  V30 3578 H 351.241 0.450879 0.549753 0
M  V30 3579 H 353.843 1.68788 0.986444 0
M  V30 3580 H 352.547 3.15238 2.62779 0
M  V30 3581 H 352.078 1.71082 3.54252 0
M  V30 3582 H 354.093 1.3899 4.76336 0
M  V30 3583 N 353.266 -1.05314 1.17247 0
M  V30 3584 C 354.196 -2.1498 0.911362 0
M  V30 3585 C 355.177 -1.69471 -0.146169 0
M  V30 3586 O 356.362 -1.942 0.003812 0
M  V30 3587 C 353.492 -3.4472 0.422528 0
M  V30 3588 C 352.446 -4.03789 1.4191 0
M  V30 3589 C 351.772 -5.28858 0.788274 0
M  V30 3590 C 353.072 -4.41418 2.7919 0
M  V30 3591 H 354.766 -2.3708 1.82848 0
M  V30 3592 H 352.312 -1.13938 0.880569 0
M  V30 3593 H 354.265 -4.20787 0.227289 0
M  V30 3594 H 352.989 -3.22269 -0.530123 0
M  V30 3595 H 351.648 -3.2979 1.60106 0
M  V30 3596 H 351.296 -5.02709 -0.171173 0
M  V30 3597 H 350.996 -5.69338 1.45353 0
M  V30 3598 H 352.52 -6.07612 0.603282 0
M  V30 3599 H 353.934 -5.08524 2.64719 0
M  V30 3600 H 352.331 -4.92913 3.42282 0
M  V30 3601 H 353.401 -3.51819 3.33693 0
M  V30 3602 N 354.744 -0.972509 -1.24016 0
M  V30 3603 C 356.16 -0.679827 -1.44397 0
M  V30 3604 C 356.36 0.756716 -1.86751 0
M  V30 3605 O 355.416 1.53007 -2.00861 0
M  V30 3606 C 356.729 -1.66803 -2.50195 0
M  V30 3607 C 358.277 -1.68119 -2.64017 0
M  V30 3608 C 358.752 -2.65748 -3.73017 0
M  V30 3609 N 360.243 -2.64219 -3.8045 0
M  V30 3610 C 360.978 -3.36433 -4.64328 0
M  V30 3611 N 360.474 -4.1818 -5.52356 0
M  V30 3612 N 362.267 -3.25235 -4.58453 0
M  V30 3613 H 354.418 -1.90059 -0.948228 0
M  V30 3614 H 356.681 -0.818527 -0.478245 0
M  V30 3615 H 356.387 -2.69498 -2.25973 0
M  V30 3616 H 356.261 -1.4446 -3.48441 0
M  V30 3617 H 358.648 -0.661319 -2.87594 0
M  V30 3618 H 358.729 -1.94525 -1.66113 0
M  V30 3619 H 358.373 -3.67872 -3.50189 0
M  V30 3620 H 358.303 -2.36619 -4.70446 0
M  V30 3621 H 360.794 -2.04887 -3.17537 0
M  V30 3622 H 361.107 -4.70157 -6.13329 0
M  V30 3623 H 359.452 -4.22273 -5.52006 0
M  V30 3624 H 362.643 -2.60829 -3.88698 0
M  V30 3625 H 362.816 -3.81776 -5.23594 0
M  V30 3626 N 356.222 1.38976 -0.743202 0
M  V30 3627 C 357.469 2.00343 -0.294752 0
M  V30 3628 C 357.797 1.58983 1.12047 0
M  V30 3629 O 357.052 0.813809 1.77977 0
M  V30 3630 C 357.351 3.55647 -0.353517 0
M  V30 3631 C 357.017 4.16685 -1.72292 0
M  V30 3632 C 355.679 4.3307 -2.09771 0
M  V30 3633 C 358.031 4.50464 -2.62168 0
M  V30 3634 C 355.359 4.80526 -3.36618 0
M  V30 3635 C 357.711 4.99332 -3.88395 0
M  V30 3636 C 356.375 5.13924 -4.25956 0
M  V30 3637 H 355.645 0.733108 -0.107857 0
M  V30 3638 H 358.292 1.6618 -0.951651 0
M  V30 3639 H 356.597 3.89884 0.386954 0
M  V30 3640 H 358.294 4.00998 0.0117269 0
M  V30 3641 H 354.884 4.04339 -1.42155 0
M  V30 3642 H 359.068 4.37416 -2.3448 0
M  V30 3643 H 354.324 4.90008 -3.65653 0
M  V30 3644 H 358.498 5.2444 -4.58187 0
M  V30 3645 H 356.125 5.50457 -5.2431 0
M  V30 3646 N 357.7 0.491464 1.49741 0
M  V30 3647 C 359.111 0.0413169 1.86654 0
M  V30 3648 C 359.462 -1.36985 1.40462 0
M  V30 3649 O 358.587 -2.01917 0.778354 0
M  V30 3650 C 359.182 0.0682023 3.38731 0
M  V30 3651 C 357.741 -0.32656 3.74981 0
M  V30 3652 C 356.888 0.444888 2.73708 0
M  V30 3653 H 359.839 0.704733 1.42194 0
M  V30 3654 H 359.86 -0.729322 3.73445 0
M  V30 3655 H 359.372 1.09539 3.72321 0
M  V30 3656 H 357.473 -1.35734 3.46997 0
M  V30 3657 H 357.586 -0.013741 4.79098 0
M  V30 3658 H 355.95 -0.104062 2.54487 0
M  V30 3659 H 356.733 1.47197 3.10142 0
M  V30 3660 N 359.178 -1.55987 0.224894 0
M  V30 3661 C 360.426 -1.97998 -0.405099 0
M  V30 3662 C 360.747 -1.11387 -1.60056 0
M  V30 3663 O 360.017 -0.191645 -1.9496 0
M  V30 3664 H 358.597 -0.731235 -0.152658 0
M  V30 3665 H 361.259 -1.92279 0.318567 0
M  V30 3666 H 360.355 -3.03463 -0.729167 0
M  V30 3667 N 360.656 0.0484629 -1.57525 0
M  V30 3668 C 361.588 1.08222 -2.02041 0
M  V30 3669 C 362.601 1.33621 -0.930012 0
M  V30 3670 O 363.79 1.3145 -1.20761 0
M  V30 3671 C 360.89 2.42818 -2.36416 0
M  V30 3672 C 360.063 2.37049 -3.67596 0
M  V30 3673 C 359.122 3.53937 -3.89378 0
M  V30 3674 O 358.148 3.34308 -4.60681 0
M  V30 3675 N 359.35 4.75126 -3.3352 0
M  V30 3676 H 362.115 0.702946 -2.9134 0
M  V30 3677 H 359.676 0.236745 -1.6016 0
M  V30 3678 H 361.668 3.197 -2.48141 0
M  V30 3679 H 360.238 2.72661 -1.52888 0
M  V30 3680 H 359.458 1.45395 -3.66407 0
M  V30 3681 H 360.746 2.30318 -4.53686 0
M  V30 3682 H 360.144 4.93976 -2.75688 0
M  V30 3683 H 358.701 5.49439 -3.50656 0
M  V30 3684 N 362.134 1.5431 0.320358 0
M  V30 3685 C 363.064 1.86912 1.3995 0
M  V30 3686 C 364.045 0.726211 1.53819 0
M  V30 3687 O 365.23 0.980233 1.67646 0
M  V30 3688 C 362.36 2.09932 2.7667 0
M  V30 3689 C 361.314 3.25776 2.77586 0
M  V30 3690 C 360.64 3.34173 4.17412 0
M  V30 3691 C 361.94 4.6335 2.41048 0
M  V30 3692 H 363.634 2.77292 1.12914 0
M  V30 3693 H 361.18 1.33421 0.541738 0
M  V30 3694 H 363.133 2.31324 3.52232 0
M  V30 3695 H 361.857 1.16304 3.0519 0
M  V30 3696 H 360.516 3.04276 2.04479 0
M  V30 3697 H 360.164 2.38098 4.43078 0
M  V30 3698 H 359.864 4.12033 4.18931 0
M  V30 3699 H 361.388 3.57803 4.94782 0
M  V30 3700 H 362.802 4.84602 3.06324 0
M  V30 3701 H 361.199 5.43782 2.53813 0
M  V30 3702 H 362.269 4.65381 1.36193 0
M  V30 3703 N 363.613 -0.582584 1.46437 0
M  V30 3704 C 364.561 -1.71272 1.5738 0
M  V30 3705 C 365.555 -1.63524 0.44229 0
M  V30 3706 O 366.761 -1.69016 0.619166 0
M  V30 3707 H 363.136 -0.566273 0.494813 0
M  V30 3708 H 365.107 -1.59174 2.52401 0
M  V30 3709 C 363.856 -3.09658 1.58136 0
M  V30 3710 H 363.179 -3.16291 2.44541 0
M  V30 3711 H 364.619 -3.88494 1.69847 0
M  V30 3712 C 363.078 -3.3547 0.310026 0
M  V30 3713 O 363.608 -3.97199 -0.599683 0
M  V30 3714 N 361.814 -2.89925 0.197901 0
M  V30 3715 H 361.361 -2.39873 0.93909 0
M  V30 3716 H 361.319 -3.07568 -0.65185 0
M  V30 3717 N 365.091 -1.34144 -0.827227 0
M  V30 3718 C 366.054 -1.25264 -1.91942 0
M  V30 3719 C 367.054 -0.168866 -1.59911 0
M  V30 3720 O 368.244 -0.421198 -1.69031 0
M  V30 3721 C 365.376 -0.932952 -3.27885 0
M  V30 3722 H 366.569 -2.22357 -2.0124 0
M  V30 3723 H 364.122 -1.1837 -1.0207 0
M  V30 3724 H 364.857 0.0349917 -3.24281 0
M  V30 3725 H 364.642 -1.71682 -3.52516 0
M  V30 3726 H 366.132 -0.895874 -4.07877 0
M  V30 3727 N 366.569 1.04691 -1.17803 0
M  V30 3728 C 367.846 1.7472 -0.879328 0
M  V30 3729 C 368.226 2.01812 0.619271 0
M  V30 3730 O 367.574 1.65824 1.57209 0
M  V30 3731 C 367.784 3.03686 -1.71976 0
M  V30 3732 C 369.132 3.77542 -1.94286 0
M  V30 3733 O 370.156 3.13569 -1.68976 0
M  V30 3734 O 369.015 4.92506 -2.36855 0
M  V30 3735 H 366.109 0.760011 -0.326056 0
M  V30 3736 H 368.655 1.10813 -1.28525 0
M  V30 3737 H 367.427 2.79754 -2.73594 0
M  V30 3738 H 367.05 3.75332 -1.31194 0
M  V30 3739 N 368.047 0.979072 1.23499 0
M  V30 3740 C 368.977 0.537606 2.27227 0
M  V30 3741 C 369.958 -0.428539 1.64613 0
M  V30 3742 O 371.143 -0.322191 1.91509 0
M  V30 3743 C 368.273 -0.162052 3.46922 0
M  V30 3744 C 367.227 0.721242 4.21879 0
M  V30 3745 C 366.553 -0.110555 5.34586 0
M  V30 3746 C 367.853 2.01141 4.82016 0
M  V30 3747 H 369.547 1.40462 2.64406 0
M  V30 3748 H 367.093 0.67684 1.27102 0
M  V30 3749 H 369.046 -0.482192 4.18632 0
M  V30 3750 H 367.77 -1.06351 3.08799 0
M  V30 3751 H 366.429 1.02482 3.51984 0
M  V30 3752 H 366.077 -1.0125 4.92704 0
M  V30 3753 H 365.777 0.477325 5.85658 0
M  V30 3754 H 367.301 -0.425107 6.09118 0
M  V30 3755 H 368.715 1.75612 5.45741 0
M  V30 3756 H 367.112 2.54695 5.43369 0
M  V30 3757 H 368.182 2.69909 4.02836 0
M  V30 3758 N 369.525 -1.3858 0.750561 0
M  V30 3759 C 370.941 -1.53759 0.427824 0
M  V30 3760 C 371.141 -1.71401 -1.05943 0
M  V30 3761 O 370.197 -1.72331 -1.84549 0
M  V30 3762 C 371.51 -2.74642 1.22443 0
M  V30 3763 C 373.058 -2.88489 1.2142 0
M  V30 3764 C 373.533 -4.12329 1.9937 0
M  V30 3765 N 375.024 -4.194 1.96616 0
M  V30 3766 C 375.759 -5.14209 2.53727 0
M  V30 3767 N 375.255 -6.14709 3.19539 0
M  V30 3768 N 377.048 -5.06537 2.43673 0
M  V30 3769 H 369.199 -1.25377 1.71447 0
M  V30 3770 H 371.462 -0.608844 0.726645 0
M  V30 3771 H 371.168 -2.68 2.27747 0
M  V30 3772 H 371.042 -3.67745 0.839273 0
M  V30 3773 H 373.429 -2.94614 0.169232 0
M  V30 3774 H 373.51 -1.96406 1.63885 0
M  V30 3775 H 373.154 -4.06966 3.03877 0
M  V30 3776 H 373.084 -5.03486 1.54302 0
M  V30 3777 H 375.575 -3.47421 1.48684 0
M  V30 3778 H 375.888 -6.8354 3.60545 0
M  V30 3779 H 374.233 -6.1505 3.23633 0
M  V30 3780 H 377.424 -4.26962 1.91889 0
M  V30 3781 H 377.597 -5.80245 2.88479 0
M  V30 3782 N 371.003 -0.499398 -1.49478 0
M  V30 3783 C 371.95 0.279881 -2.29097 0
M  V30 3784 C 372.92 0.961805 -1.3542 0
M  V30 3785 O 374.105 0.968777 -1.64376 0
M  V30 3786 C 371.245 1.33932 -3.18051 0
M  V30 3787 C 370.358 0.669333 -4.26783 0
M  V30 3788 C 369.493 1.70907 -5.02955 0
M  V30 3789 C 368.532 1.02087 -6.03527 0
M  V30 3790 N 367.669 2.00474 -6.7287 0
M  V30 3791 H 372.509 -0.405317 -2.95231 0
M  V30 3792 H 370.046 -0.211726 -1.45568 0
M  V30 3793 H 372.004 1.96553 -3.67998 0
M  V30 3794 H 370.634 1.9933 -2.53904 0
M  V30 3795 H 369.686 -0.0701234 -3.80335 0
M  V30 3796 H 370.998 0.127503 -4.98637 0
M  V30 3797 H 370.152 2.41037 -5.56764 0
M  V30 3798 H 368.891 2.28476 -4.30871 0
M  V30 3799 H 367.896 0.305338 -5.48951 0
M  V30 3800 H 369.121 0.451708 -6.77596 0
M  V30 3801 H 367.067 2.57007 -6.03559 0
M  V30 3802 H 366.984 1.51353 -7.40694 0
M  V30 3803 H 368.252 2.69897 -7.31284 0
M  V30 3804 N 372.481 1.55866 -0.233164 0
M  V30 3805 C 373.411 2.23783 0.666599 0
M  V30 3806 C 374.392 1.21343 1.19205 0
M  V30 3807 O 375.577 1.4996 1.23392 0
M  V30 3808 C 372.707 2.92671 1.86978 0
M  V30 3809 C 371.661 4.01682 1.47768 0
M  V30 3810 C 370.987 4.57926 2.76058 0
M  V30 3811 C 372.287 5.18126 0.658993 0
M  V30 3812 H 373.981 2.99232 0.100306 0
M  V30 3813 H 371.527 1.43924 0.046804 0
M  V30 3814 H 373.48 3.3888 2.50476 0
M  V30 3815 H 372.204 2.14688 2.46123 0
M  V30 3816 H 370.863 3.56222 0.866106 0
M  V30 3817 H 370.511 3.76659 3.33372 0
M  V30 3818 H 370.211 5.31505 2.50552 0
M  V30 3819 H 371.735 5.06859 3.40479 0
M  V30 3820 H 373.149 5.60644 1.19795 0
M  V30 3821 H 371.546 5.98009 0.500552 0
M  V30 3822 H 372.616 4.83763 -0.331856 0
M  V30 3823 N 373.959 -0.0401083 1.57549 0
M  V30 3824 C 374.922 -1.02871 2.04817 0
M  V30 3825 C 375.922 -1.29708 0.950388 0
M  V30 3826 O 377.112 -1.24897 1.21435 0
M  V30 3827 C 374.244 -2.36443 2.45576 0
M  V30 3828 H 375.437 -0.620631 2.93408 0
M  V30 3829 H 372.99 -0.286667 1.53649 0
M  V30 3830 H 373.725 -2.82021 1.60108 0
M  V30 3831 H 373.51 -2.18296 3.25713 0
M  V30 3832 H 375 -3.07441 2.82612 0
M  V30 3833 N 375.437 -1.54477 -0.31217 0
M  V30 3834 C 376.683 -1.73483 -1.0503 0
M  V30 3835 C 377.016 -0.513125 -1.87298 0
M  V30 3836 O 376.291 0.489864 -1.8823 0
M  V30 3837 C 376.574 -3.01723 -1.96558 0
M  V30 3838 C 376.427 -4.3417 -1.17545 0
M  V30 3839 C 377.746 -3.25772 -2.95907 0
M  V30 3840 H 374.865 -0.631222 -0.380432 0
M  V30 3841 H 377.507 -1.87184 -0.325932 0
M  V30 3842 H 375.657 -2.90174 -2.58324 0
M  V30 3843 H 377.329 -4.5762 -0.581513 0
M  V30 3844 H 375.572 -4.31159 -0.477925 0
M  V30 3845 H 376.243 -5.20143 -1.84811 0
M  V30 3846 H 378.719 -3.36857 -2.44267 0
M  V30 3847 H 377.595 -4.16838 -3.57123 0
M  V30 3848 H 377.856 -2.43537 -3.68974 0
M  V30 3849 N 376.915 0.57481 -1.46744 0
M  V30 3850 C 377.863 1.70435 -1.58286 0
M  V30 3851 C 378.857 1.63287 -0.450956 0
M  V30 3852 O 380.063 1.68685 -0.628121 0
M  V30 3853 H 376.438 0.56364 -0.497809 0
M  V30 3854 H 378.409 1.57833 -2.53242 0
M  V30 3855 C 377.158 3.08815 -1.59776 0
M  V30 3856 H 376.481 3.1499 -2.46214 0
M  V30 3857 H 377.921 3.87588 -1.71905 0
M  V30 3858 C 376.38 3.35301 -0.327812 0
M  V30 3859 O 376.91 3.97511 0.57861 0
M  V30 3860 N 375.116 2.89816 -0.213274 0
M  V30 3861 H 374.663 2.39371 -0.951798 0
M  V30 3862 H 374.621 3.0791 0.63553 0
M  V30 3863 N 378.394 1.34581 0.820102 0
M  V30 3864 C 379.327 1.20735 1.93644 0
M  V30 3865 C 380.305 0.0983343 1.62302 0
M  V30 3866 O 381.489 0.263997 1.86642 0
M  V30 3867 C 378.616 0.856037 3.27704 0
M  V30 3868 C 377.662 1.97521 3.78005 0
M  V30 3869 S 378.495 3.58906 3.97425 0
M  V30 3870 C 379.651 3.25822 5.34407 0
M  V30 3871 H 379.884 2.15231 2.05093 0
M  V30 3872 H 377.417 1.1964 0.97599 0
M  V30 3873 H 379.375 0.660133 4.05157 0
M  V30 3874 H 378.036 -0.0706253 3.14021 0
M  V30 3875 H 377.229 1.68321 4.75062 0
M  V30 3876 H 376.831 2.12875 3.07507 0
M  V30 3877 H 379.123 2.77812 6.17922 0
M  V30 3878 H 380.066 4.22029 5.68592 0
M  V30 3879 H 380.474 2.61932 5.00052 0
M  V30 3880 N 379.872 -1.04064 1.18357 0
M  V30 3881 C 381.118 -1.77528 0.980397 0
M  V30 3882 C 381.451 -1.87948 -0.48879 0
M  V30 3883 O 380.726 -1.3876 -1.36293 0
M  V30 3884 C 381.009 -3.20797 1.63588 0
M  V30 3885 C 380.862 -3.1832 3.17793 0
M  V30 3886 C 382.181 -4.18911 1.34914 0
M  V30 3887 H 379.3 -0.644443 0.357578 0
M  V30 3888 H 381.942 -1.2156 1.46024 0
M  V30 3889 H 380.092 -3.68586 1.22788 0
M  V30 3890 H 381.764 -2.78521 3.67728 0
M  V30 3891 H 380.007 -2.56351 3.49952 0
M  V30 3892 H 380.678 -4.19489 3.58794 0
M  V30 3893 H 383.154 -3.7967 1.70265 0
M  V30 3894 H 382.03 -5.17374 1.83346 0
M  V30 3895 H 382.291 -4.41262 0.272027 0
M  V30 3896 N 381.35 -0.985608 -1.22978 0
M  V30 3897 C 382.761 -0.693593 -1.73338 0
M  V30 3898 C 383.112 0.789935 -1.79595 0
M  V30 3899 O 382.237 1.61771 -1.43733 0
M  V30 3900 C 382.832 -1.25235 -3.14804 0
M  V30 3901 C 381.391 -1.00987 -3.626 0
M  V30 3902 C 380.538 -1.37695 -2.40698 0
M  V30 3903 H 383.489 -1.15884 -1.08428 0
M  V30 3904 H 383.51 -0.627329 -3.75293 0
M  V30 3905 H 383.022 -2.33209 -3.10218 0
M  V30 3906 H 381.123 0.0535565 -3.72562 0
M  V30 3907 H 381.236 -1.66812 -4.49122 0
M  V30 3908 H 379.6 -0.795459 -2.4196 0
M  V30 3909 H 380.383 -2.46657 -2.38779 0
M  V30 3910 N 382.828 1.3818 -0.7579 0
M  V30 3911 C 384.075 2.00019 -0.315985 0
M  V30 3912 C 384.403 1.60163 1.10355 0
M  V30 3913 O 383.658 0.83264 1.77103 0
M  V30 3914 C 383.957 3.55252 -0.391218 0
M  V30 3915 C 383.623 4.14834 -1.76702 0
M  V30 3916 C 382.285 4.30821 -2.14353 0
M  V30 3917 C 384.637 4.47658 -2.66931 0
M  V30 3918 C 381.965 4.76928 -3.41696 0
M  V30 3919 C 384.317 4.95184 -3.93669 0
M  V30 3920 C 382.981 5.09377 -4.31383 0
M  V30 3921 H 382.251 0.731923 -0.115627 0
M  V30 3922 H 384.898 1.65161 -0.969223 0
M  V30 3923 H 383.203 3.90273 0.34558 0
M  V30 3924 H 384.9 4.00988 -0.030805 0
M  V30 3925 H 381.49 4.02808 -1.46435 0
M  V30 3926 H 385.674 4.34904 -2.39106 0
M  V30 3927 H 380.93 4.86103 -3.70829 0
M  V30 3928 H 385.104 5.19551 -4.63724 0
M  V30 3929 H 382.731 5.44865 -5.30119 0
M  V30 3930 N 384.306 0.507319 1.49211 0
M  V30 3931 C 385.717 0.0611118 1.866 0
M  V30 3932 C 386.068 -1.35488 1.41907 0
M  V30 3933 O 385.193 -2.0108 0.799726 0
M  V30 3934 C 385.788 0.104125 3.3864 0
M  V30 3935 C 384.347 -0.28677 3.75306 0
M  V30 3936 C 383.494 0.473893 2.73221 0
M  V30 3937 H 386.445 0.719775 1.41439 0
M  V30 3938 H 386.466 -0.689672 3.74198 0
M  V30 3939 H 385.978 1.13482 3.71138 0
M  V30 3940 H 384.079 -1.32046 3.48417 0
M  V30 3941 H 384.192 0.0370745 4.79086 0
M  V30 3942 H 382.556 -0.0770644 2.54583 0
M  V30 3943 H 383.339 1.50478 3.08563 0
M  V30 3944 N 385.784 -1.5574 0.241426 0
M  V30 3945 C 387.2 -1.59196 -0.113548 0
M  V30 3946 C 387.4 -1.25852 -1.57364 0
M  V30 3947 O 386.456 -1.00322 -2.31715 0
M  V30 3948 C 387.769 -2.99814 0.230695 0
M  V30 3949 C 389.317 -3.12513 0.174547 0
M  V30 3950 C 389.792 -4.55342 0.492744 0
M  V30 3951 N 391.283 -4.61076 0.443043 0
M  V30 3952 C 392.018 -5.6956 0.662484 0
M  V30 3953 N 391.514 -6.86328 0.944761 0
M  V30 3954 N 393.307 -5.58957 0.593564 0
M  V30 3955 H 385.458 -1.75685 1.19368 0
M  V30 3956 H 387.721 -0.81756 0.479896 0
M  V30 3957 H 387.427 -3.28932 1.24485 0
M  V30 3958 H 387.301 -3.74568 -0.444833 0
M  V30 3959 H 389.688 -2.83179 -0.830277 0
M  V30 3960 H 389.769 -2.40045 0.883845 0
M  V30 3961 H 389.413 -4.85396 1.4951 0
M  V30 3962 H 389.343 -5.26062 -0.23797 0
M  V30 3963 H 391.834 -3.77179 0.233374 0
M  V30 3964 H 392.147 -7.64935 1.09977 0
M  V30 3965 H 390.492 -6.88025 0.982175 0
M  V30 3966 H 393.683 -4.66611 0.373123 0
M  V30 3967 H 393.856 -6.43433 0.767981 0
M  V30 3968 N 387.262 0.0317525 -1.57568 0
M  V30 3969 C 388.192 1.03274 -2.0942 0
M  V30 3970 C 389.173 1.3788 -0.996143 0
M  V30 3971 O 390.358 1.46811 -1.27122 0
M  V30 3972 C 387.488 2.33448 -2.57137 0
M  V30 3973 C 386.442 2.13091 -3.71182 0
M  V30 3974 C 385.768 3.49001 -4.05095 0
M  V30 3975 C 387.068 1.51928 -4.99715 0
M  V30 3976 H 388.762 0.60112 -2.93303 0
M  V30 3977 H 386.308 0.287705 -1.41097 0
M  V30 3978 H 388.261 3.03802 -2.92032 0
M  V30 3979 H 386.985 2.78665 -1.70333 0
M  V30 3980 H 385.644 1.45171 -3.36632 0
M  V30 3981 H 385.292 3.91862 -3.15362 0
M  V30 3982 H 384.992 3.36207 -4.81911 0
M  V30 3983 H 386.516 4.20721 -4.42522 0
M  V30 3984 H 387.93 2.12196 -5.32584 0
M  V30 3985 H 386.327 1.49716 -5.81124 0
M  V30 3986 H 387.397 0.484811 -4.8247 0
M  V30 3987 N 388.74 1.54641 0.303973 0
M  V30 3988 C 389.69 1.8177 1.37636 0
M  V30 3989 C 390.674 0.674697 1.46071 0
M  V30 3990 O 391.866 0.935251 1.50273 0
M  V30 3991 C 388.995 2.06584 2.74186 0
M  V30 3992 C 388.081 3.2706 2.69986 0
M  V30 3993 N 388.472 4.47682 2.35402 0
M  V30 3994 C 386.77 3.29028 3.01092 0
M  V30 3995 C 387.471 5.29689 2.40426 0
M  V30 3996 N 386.447 4.67339 2.7766 0
M  V30 3997 H 390.249 2.72596 1.09857 0
M  V30 3998 H 387.763 1.541 0.51254 0
M  V30 3999 H 389.76 2.24166 3.51504 0
M  V30 4000 H 388.42 1.17024 3.02879 0
M  V30 4001 H 389.431 4.74336 2.07908 0
M  V30 4002 H 386.108 2.49565 3.34699 0
M  V30 4003 H 387.498 6.3606 2.16512 0
M  V30 4004 N 390.218 -0.567019 1.47046 0
M  V30 4005 C 391.465 -1.32462 1.53167 0
M  V30 4006 C 391.793 -1.93571 0.189841 0
M  V30 4007 O 391.048 -1.77865 -0.816243 0
M  V30 4008 C 391.347 -2.4623 2.59047 0
M  V30 4009 C 391.013 -2.03014 4.02612 0
M  V30 4010 C 389.675 -1.90944 4.41694 0
M  V30 4011 C 392.027 -1.69895 4.92732 0
M  V30 4012 C 389.355 -1.44035 5.68745 0
M  V30 4013 C 391.707 -1.2446 6.20236 0
M  V30 4014 C 390.371 -1.10979 6.5821 0
M  V30 4015 H 389.641 -0.484713 0.560477 0
M  V30 4016 H 392.288 -0.636888 1.80599 0
M  V30 4017 H 390.593 -3.20517 2.25335 0
M  V30 4018 H 392.29 -3.04427 2.61008 0
M  V30 4019 H 388.88 -2.13348 3.71726 0
M  V30 4020 H 393.064 -1.78098 4.63244 0
M  V30 4021 H 388.32 -1.32254 5.96925 0
M  V30 4022 H 392.494 -0.978924 6.89485 0
M  V30 4023 H 390.121 -0.744078 7.5655 0
M  V30 4024 N 391.696 -1.35014 -0.812953 0
M  V30 4025 C 392.943 -1.27931 -1.56971 0
M  V30 4026 C 393.271 0.148034 -1.93936 0
M  V30 4027 O 392.526 1.11175 -1.61054 0
M  V30 4028 C 392.825 -2.12524 -2.87347 0
M  V30 4029 C 392.491 -3.61401 -2.6963 0
M  V30 4030 C 391.153 -4.01983 -2.64506 0
M  V30 4031 C 393.505 -4.55894 -2.52607 0
M  V30 4032 C 390.833 -5.35235 -2.40293 0
M  V30 4033 C 393.185 -5.89336 -2.29925 0
M  V30 4034 C 391.849 -6.2907 -2.23219 0
M  V30 4035 H 391.119 -0.468131 -0.574399 0
M  V30 4036 H 393.766 -1.66851 -0.939836 0
M  V30 4037 H 392.071 -1.66463 -3.54679 0
M  V30 4038 H 393.768 -2.04383 -3.45005 0
M  V30 4039 H 390.358 -3.29193 -2.74463 0
M  V30 4040 H 394.542 -4.25431 -2.55583 0
M  V30 4041 H 389.798 -5.65028 -2.33566 0
M  V30 4042 H 393.972 -6.62139 -2.15743 0
M  V30 4043 H 391.599 -7.32256 -2.04219 0
M  V30 4044 N 393.175 1.03435 -1.18907 0
M  V30 4045 C 394.108 2.11162 -0.86521 0
M  V30 4046 C 395.086 1.6165 0.175473 0
M  V30 4047 O 396.27 1.88425 0.0530129 0
M  V30 4048 C 393.397 3.37423 -0.293868 0
M  V30 4049 C 392.443 4.05795 -1.31274 0
M  V30 4050 S 393.276 4.52027 -2.8711 0
M  V30 4051 C 394.432 5.81513 -2.31504 0
M  V30 4052 H 394.665 2.38308 -1.77754 0
M  V30 4053 H 392.198 1.16295 -1.01562 0
M  V30 4054 H 394.156 4.1049 0.0292572 0
M  V30 4055 H 392.817 3.0838 0.596682 0
M  V30 4056 H 392.01 4.96574 -0.86198 0
M  V30 4057 H 391.612 3.38874 -1.58242 0
M  V30 4058 H 393.904 6.55784 -1.70157 0
M  V30 4059 H 394.847 6.3136 -3.20608 0
M  V30 4060 H 395.255 5.36921 -1.74286 0
M  V30 4061 N 394.653 0.992116 1.22453 0
M  V30 4062 C 396.064 0.702776 1.72968 0
M  V30 4063 C 396.415 -0.780399 1.80012 0
M  V30 4064 O 395.54 -1.61007 1.44589 0
M  V30 4065 C 396.135 1.26903 3.14135 0
M  V30 4066 C 394.694 1.02909 3.62059 0
M  V30 4067 C 393.841 1.38969 2.39964 0
M  V30 4068 H 396.792 1.16457 1.07812 0
M  V30 4069 H 396.813 0.647223 3.74955 0
M  V30 4070 H 396.325 2.34851 3.08977 0
M  V30 4071 H 394.426 -0.0337979 3.72585 0
M  V30 4072 H 394.539 1.69191 4.48231 0
M  V30 4073 H 392.903 0.808279 2.41535 0
M  V30 4074 H 393.686 2.4792 2.37467 0
M  V30 4075 N 396.131 -1.37776 0.765217 0
M  V30 4076 C 397.379 -1.99454 0.325943 0
M  V30 4077 C 397.7 -1.61049 -1.09947 0
M  V30 4078 O 396.97 -0.872821 -1.75381 0
M  V30 4079 H 395.55 -0.737697 0.117525 0
M  V30 4080 H 398.212 -1.68359 0.981895 0
M  V30 4081 H 397.308 -3.09547 0.398353 0
M  V30 4082 N 397.609 -0.515225 -1.4894 0
M  V30 4083 C 398.856 0.024215 -2.02486 0
M  V30 4084 C 399.184 1.35671 -1.39368 0
M  V30 4085 O 398.439 1.88566 -0.523574 0
M  V30 4086 C 398.738 0.210595 -3.56779 0
M  V30 4087 C 398.404 -1.04569 -4.38607 0
M  V30 4088 C 397.066 -1.39002 -4.60686 0
M  V30 4089 C 399.418 -1.88008 -4.86109 0
M  V30 4090 C 396.746 -2.568 -5.27514 0
M  V30 4091 C 399.098 -3.04972 -5.54234 0
M  V30 4092 C 397.762 -3.39768 -5.74555 0
M  V30 4093 H 397.032 0.00886088 -0.740947 0
M  V30 4094 H 399.679 -0.678263 -1.79086 0
M  V30 4095 H 397.984 0.99572 -3.78936 0
M  V30 4096 H 399.681 0.642659 -3.95817 0
M  V30 4097 H 396.271 -0.767497 -4.21672 0
M  V30 4098 H 400.455 -1.62719 -4.68867 0
M  V30 4099 H 395.711 -2.8398 -5.41447 0
M  V30 4100 H 399.885 -3.69943 -5.90013 0
M  V30 4101 H 397.512 -4.31148 -6.26112 0
M  V30 4102 N 399.087 1.5561 -0.249682 0
M  V30 4103 C 400.05 2.20217 0.635394 0
M  V30 4104 C 401.05 1.17227 1.10066 0
M  V30 4105 O 402.24 1.42292 1.00492 0
M  V30 4106 C 399.372 2.84794 1.87363 0
M  V30 4107 H 400.565 2.99814 0.0716752 0
M  V30 4108 H 398.118 1.563 -0.000153234 0
M  V30 4109 H 398.853 2.09142 2.47851 0
M  V30 4110 H 398.638 3.60241 1.5482 0
M  V30 4111 H 400.128 3.3423 2.5036 0
M  V30 4112 N 400.565 -0.0233959 1.57583 0
M  V30 4113 C 401.976 -0.56927 1.77809 0
M  V30 4114 C 402.327 -1.75284 0.881472 0
M  V30 4115 O 401.452 -2.1626 0.0777805 0
M  V30 4116 C 402.047 -1.03949 3.22459 0
M  V30 4117 C 400.606 -1.53084 3.43864 0
M  V30 4118 C 399.753 -0.471454 2.73263 0
M  V30 4119 H 402.704 0.202825 1.57399 0
M  V30 4120 H 402.725 -1.90661 3.29285 0
M  V30 4121 H 402.237 -0.177865 3.87692 0
M  V30 4122 H 400.338 -2.41414 2.83814 0
M  V30 4123 H 400.451 -1.57443 4.52491 0
M  V30 4124 H 398.815 -0.927788 2.37201 0
M  V30 4125 H 399.598 0.380808 3.41181 0
M  V30 4126 N 402.043 -1.548 -0.295768 0
M  V30 4127 C 402.973 -1.89115 -1.36959 0
M  V30 4128 C 403.954 -0.75059 -1.52644 0
M  V30 4129 O 405.139 -1.00678 -1.66065 0
M  V30 4130 C 402.269 -2.14307 -2.73295 0
M  V30 4131 C 401.223 -3.30151 -2.72368 0
M  V30 4132 C 400.549 -3.40772 -4.12042 0
M  V30 4133 C 401.849 -4.67126 -2.33646 0
M  V30 4134 H 403.543 -2.79053 -1.08488 0
M  V30 4135 H 401.089 -1.34266 -0.520443 0
M  V30 4136 H 403.042 -2.36898 -3.48507 0
M  V30 4137 H 401.766 -1.21145 -3.03301 0
M  V30 4138 H 400.425 -3.0749 -1.99613 0
M  V30 4139 H 400.073 -2.45117 -4.39234 0
M  V30 4140 H 399.773 -4.18645 -4.12322 0
M  V30 4141 H 401.297 -3.6563 -4.89027 0
M  V30 4142 H 402.711 -4.89414 -2.98575 0
M  V30 4143 H 401.108 -5.47751 -2.45129 0
M  V30 4144 H 402.178 -4.67489 -1.28772 0
M  V30 4145 N 403.521 0.559213 -1.47345 0
M  V30 4146 C 404.749 1.34194 -1.57479 0
M  V30 4147 C 405.164 1.87463 -0.224261 0
M  V30 4148 O 404.521 1.64888 0.782185 0
M  V30 4149 C 404.572 2.51324 -2.59843 0
M  V30 4150 O 404.293 2.00256 -3.89653 0
M  V30 4151 C 405.794 3.43563 -2.80142 0
M  V30 4152 H 403.014 0.409136 -0.531835 0
M  V30 4153 H 405.558 0.677609 -1.92947 0
M  V30 4154 H 403.713 3.13699 -2.27314 0
M  V30 4155 H 404.127 2.76708 -4.4557 0
M  V30 4156 H 405.601 4.2217 -3.55635 0
M  V30 4157 H 406.078 3.9698 -1.87892 0
M  V30 4158 H 406.684 2.87005 -3.1386 0
M  V30 4159 N 404.999 1.35443 0.805782 0
M  V30 4160 C 406.224 1.32037 1.59941 0
M  V30 4161 C 406.649 -0.0994215 1.87837 0
M  V30 4162 O 406.007 -1.06648 1.46615 0
M  V30 4163 C 406.055 2.13354 2.90711 0
M  V30 4164 O 405.159 1.5148 3.83572 0
M  V30 4165 H 404.5 0.452666 0.485787 0
M  V30 4166 H 407.03 1.78496 1.00002 0
M  V30 4167 H 407.04 2.25338 3.40128 0
M  V30 4168 H 405.715 3.16572 2.69732 0
M  V30 4169 H 404.292 1.4834 3.42125 0
M  V30 4170 N 406.477 -1.02803 1.19454 0
M  V30 4171 C 407.893 -1.28473 0.946937 0
M  V30 4172 C 408.093 -1.97881 -0.380202 0
M  V30 4173 O 407.149 -2.26719 -1.11151 0
M  V30 4174 C 408.462 -2.13099 2.12154 0
M  V30 4175 C 410.01 -2.26404 2.16126 0
M  V30 4176 C 410.485 -3.14402 3.33039 0
M  V30 4177 N 411.976 -3.21991 3.32981 0
M  V30 4178 C 412.711 -3.90272 4.20089 0
M  V30 4179 N 412.207 -4.60777 5.17355 0
M  V30 4180 N 414 -3.8668 4.07964 0
M  V30 4181 H 406.151 -0.561665 2.04839 0
M  V30 4182 H 408.414 -0.310438 0.89573 0
M  V30 4183 H 408.12 -1.69422 3.08203 0
M  V30 4184 H 407.994 -3.13813 2.09287 0
M  V30 4185 H 410.381 -2.69311 1.20647 0
M  V30 4186 H 410.462 -1.25237 2.23045 0
M  V30 4187 H 410.106 -2.72204 4.28798 0
M  V30 4188 H 410.036 -4.1563 3.23356 0
M  V30 4189 H 412.527 -2.71778 2.62574 0
M  V30 4190 H 412.84 -5.10513 5.80169 0
M  V30 4191 H 411.185 -4.5964 5.21302 0
M  V30 4192 H 414.376 -3.30739 3.31254 0
M  V30 4193 H 414.549 -4.39621 4.76064 0
M  V30 4194 N 407.956 -0.998596 -1.21925 0
M  V30 4195 C 409.204 -0.676325 -1.90448 0
M  V30 4196 C 409.525 0.794719 -1.78071 0
M  V30 4197 O 408.795 1.5701 -1.17152 0
M  V30 4198 H 407.375 -0.247165 -0.704925 0
M  V30 4199 H 410.037 -1.26633 -1.48156 0
M  V30 4200 H 409.133 -0.943858 -2.97486 0
M  V30 4201 N 409.434 1.37368 -0.772513 0
M  V30 4202 C 410.659 2.0447 -0.347386 0
M  V30 4203 C 411.084 1.57882 1.0225 0
M  V30 4204 O 410.442 0.73941 1.65537 0
M  V30 4205 C 410.49 3.58369 -0.400479 0
M  V30 4206 O 409.594 4.0803 0.598789 0
M  V30 4207 H 408.935 0.646773 -0.15027 0
M  V30 4208 H 411.465 1.75667 -1.04892 0
M  V30 4209 H 411.475 4.07183 -0.258045 0
M  V30 4210 H 410.15 3.91633 -1.39986 0
M  V30 4211 H 408.727 3.70534 0.419411 0
M  V30 4212 N 410.912 0.523116 1.48665 0
M  V30 4213 C 411.844 -0.280421 2.27478 0
M  V30 4214 C 412.857 -0.910694 1.34945 0
M  V30 4215 O 414.046 -0.790295 1.60052 0
M  V30 4216 C 411.146 -1.41171 3.08097 0
M  V30 4217 C 410.319 -0.884642 4.28361 0
M  V30 4218 C 409.378 -1.89622 4.90846 0
M  V30 4219 O 408.404 -1.4559 5.50265 0
M  V30 4220 N 409.606 -3.22801 4.82472 0
M  V30 4221 H 412.371 0.395481 2.97079 0
M  V30 4222 H 409.932 0.357018 1.57915 0
M  V30 4223 H 411.924 -2.08645 3.4677 0
M  V30 4224 H 410.494 -1.99139 2.40961 0
M  V30 4225 H 409.714 -0.0341177 3.94185 0
M  V30 4226 H 411.002 -0.511268 5.06225 0
M  V30 4227 H 410.4 -3.61246 4.35336 0
M  V30 4228 H 408.957 -3.85927 5.25265 0
M  V30 4229 N 412.39 -1.55475 0.257931 0
M  V30 4230 C 413.322 -2.19192 -0.669881 0
M  V30 4231 C 414.335 -1.17148 -1.1305 0
M  V30 4232 O 415.524 -1.43959 -1.05537 0
M  V30 4233 C 412.624 -2.79016 -1.92363 0
M  V30 4234 C 411.797 -4.06586 -1.61265 0
M  V30 4235 C 410.856 -4.50622 -2.7171 0
M  V30 4236 O 409.882 -5.16765 -2.38627 0
M  V30 4237 N 411.084 -4.19325 -4.01431 0
M  V30 4238 H 413.849 -2.99441 -0.124635 0
M  V30 4239 H 411.41 -1.6171 0.0783311 0
M  V30 4240 H 413.402 -3.05427 -2.65511 0
M  V30 4241 H 411.972 -2.0286 -2.37837 0
M  V30 4242 H 411.192 -3.87646 -0.715811 0
M  V30 4243 H 412.48 -4.89737 -1.37967 0
M  V30 4244 H 411.878 -3.66247 -4.31138 0
M  V30 4245 H 410.435 -4.50547 -4.7101 0
M  V30 4246 N 413.868 0.0150385 -1.57593 0
M  V30 4247 C 415.098 0.713359 -1.93894 0
M  V30 4248 C 415.506 1.68663 -0.857289 0
M  V30 4249 O 414.849 1.82876 0.173788 0
M  V30 4250 C 414.911 1.51348 -3.26089 0
M  V30 4251 C 414.575 0.703451 -4.51554 0
M  V30 4252 C 415.572 -0.00237924 -5.199 0
M  V30 4253 C 413.257 0.653854 -4.98026 0
M  V30 4254 C 415.251 -0.746955 -6.33008 0
M  V30 4255 C 412.938 -0.0944578 -6.11027 0
M  V30 4256 C 413.936 -0.793609 -6.78374 0
M  V30 4257 O 413.624 -1.52974 -7.89211 0
M  V30 4258 H 413.356 0.204637 -0.644282 0
M  V30 4259 H 415.91 -0.0276411 -2.05381 0
M  V30 4260 H 414.14 2.29862 -3.10967 0
M  V30 4261 H 415.829 2.09572 -3.47612 0
M  V30 4262 H 416.595 0.0268803 -4.84993 0
M  V30 4263 H 412.474 1.18756 -4.45441 0
M  V30 4264 H 416.018 -1.2932 -6.85509 0
M  V30 4265 H 411.915 -0.125591 -6.45378 0
M  V30 4266 H 412.683 -1.44488 -8.05646 0
M  V30 4267 N 415.346 1.54954 0.287554 0
M  V30 4268 C 416.762 1.46469 0.633964 0
M  V30 4269 C 416.962 0.666865 1.90145 0
M  V30 4270 O 416.018 0.179906 2.51858 0
M  V30 4271 C 417.331 2.90556 0.774454 0
M  V30 4272 C 418.879 3.00681 0.869462 0
M  V30 4273 C 419.354 4.45993 1.04184 0
M  V30 4274 N 420.845 4.4976 1.10772 0
M  V30 4275 C 421.58 5.59393 1.25964 0
M  V30 4276 N 421.076 6.78923 1.37968 0
M  V30 4277 N 422.869 5.47107 1.28959 0
M  V30 4278 H 415.02 2.05288 -0.545041 0
M  V30 4279 H 417.283 0.930305 -0.182308 0
M  V30 4280 H 416.989 3.51594 -0.086207 0
M  V30 4281 H 416.863 3.38743 1.6593 0
M  V30 4282 H 419.25 2.39749 1.7206 0
M  V30 4283 H 419.331 2.55769 -0.0396831 0
M  V30 4284 H 418.975 5.07524 0.195422 0
M  V30 4285 H 418.905 4.88548 1.96542 0
M  V30 4286 H 421.396 3.63651 1.02794 0
M  V30 4287 H 421.709 7.58231 1.49353 0
M  V30 4288 H 420.054 6.81763 1.34999 0
M  V30 4289 H 423.245 4.52668 1.19202 0
M  V30 4290 H 423.418 6.32595 1.40455 0
M  V30 4291 N 416.824 -0.551391 1.4764 0
M  V30 4292 C 417.787 -1.64007 1.60107 0
M  V30 4293 C 418.787 -1.53601 0.47576 0
M  V30 4294 O 419.977 -1.57655 0.740988 0
M  V30 4295 C 417.109 -3.03569 1.55108 0
M  V30 4296 H 418.302 -1.543 2.57161 0
M  V30 4297 H 415.855 -0.771776 1.35917 0
M  V30 4298 H 416.59 -3.18804 0.594519 0
M  V30 4299 H 416.375 -3.12532 2.36783 0
M  V30 4300 H 417.865 -3.82762 1.66982 0
M  V30 4301 N 418.302 -1.35869 -0.798587 0
M  V30 4302 C 419.232 -1.32118 -1.92528 0
M  V30 4303 C 420.213 -0.194209 -1.68988 0
M  V30 4304 O 421.398 -0.390426 -1.90235 0
M  V30 4305 C 418.528 -1.10047 -3.29404 0
M  V30 4306 C 417.482 -2.19471 -3.67446 0
M  V30 4307 C 416.808 -1.82555 -5.02571 0
M  V30 4308 C 418.108 -3.61495 -3.76987 0
M  V30 4309 H 419.802 -2.26394 -1.95924 0
M  V30 4310 H 417.348 -1.08981 -0.94123 0
M  V30 4311 H 419.301 -1.06061 -4.07835 0
M  V30 4312 H 418.025 -0.122195 -3.26371 0
M  V30 4313 H 416.684 -2.22568 -2.91306 0
M  V30 4314 H 416.332 -0.833249 -4.9605 0
M  V30 4315 H 416.032 -2.5581 -5.28995 0
M  V30 4316 H 417.556 -1.80108 -5.83432 0
M  V30 4317 H 418.97 -3.60676 -4.4563 0
M  V30 4318 H 417.367 -4.33577 -4.14887 0
M  V30 4319 H 418.437 -3.97065 -2.78329 0
M  V30 4320 N 419.78 1.02168 -1.19998 0
M  V30 4321 C 421.008 1.79296 -1.03249 0
M  V30 4322 C 421.423 1.84103 0.418502 0
M  V30 4323 O 420.78 1.29031 1.29063 0
M  V30 4324 C 420.831 3.24007 -1.60319 0
M  V30 4325 O 420.552 3.19512 -2.99739 0
M  V30 4326 C 422.053 4.17704 -1.48453 0
M  V30 4327 H 419.273 0.564016 -0.363493 0
M  V30 4328 H 421.817 1.28639 -1.58973 0
M  V30 4329 H 419.972 3.7183 -1.08727 0
M  V30 4330 H 420.386 4.10306 -3.26725 0
M  V30 4331 H 421.86 5.17104 -1.93153 0
M  V30 4332 H 422.337 4.37029 -0.436193 0
M  V30 4333 H 422.943 3.7576 -1.99211 0
M  V30 4334 N 421.258 1.00505 1.21394 0
M  V30 4335 C 422.504 0.688793 1.90745 0
M  V30 4336 C 422.837 -0.778486 1.77914 0
M  V30 4337 O 422.112 -1.56433 1.15581 0
M  V30 4338 C 422.395 1.11063 3.42545 0
M  V30 4339 C 422.248 2.63737 3.64367 0
M  V30 4340 C 423.567 0.673059 4.34923 0
M  V30 4341 H 420.686 0.251702 0.692687 0
M  V30 4342 H 423.328 1.25074 1.43026 0
M  V30 4343 H 421.478 0.632508 3.83317 0
M  V30 4344 H 423.15 3.19313 3.32922 0
M  V30 4345 H 421.393 3.05248 3.08231 0
M  V30 4346 H 422.064 2.88305 4.70727 0
M  V30 4347 H 424.54 1.08392 4.01734 0
M  V30 4348 H 423.416 0.996383 5.39781 0
M  V30 4349 H 423.677 -0.425808 4.40045 0
M  V30 4350 N 422.737 -1.36956 0.779787 0
M  V30 4351 C 424.148 -1.82094 0.412156 0
M  V30 4352 C 424.499 -1.64926 -1.06273 0
M  V30 4353 O 423.624 -1.16483 -1.82375 0
M  V30 4354 C 424.219 -3.3059 0.741319 0
M  V30 4355 C 422.778 -3.73974 0.426641 0
M  V30 4356 C 421.925 -2.59368 0.980987 0
M  V30 4357 H 424.876 -1.25314 0.973758 0
M  V30 4358 H 424.897 -3.80489 0.028887 0
M  V30 4359 H 424.409 -3.43054 1.81482 0
M  V30 4360 H 422.51 -3.67076 -0.639215 0
M  V30 4361 H 422.623 -4.69778 0.940515 0
M  V30 4362 H 420.987 -2.51463 0.404757 0
M  V30 4363 H 421.77 -2.74621 2.06005 0
M  V30 4364 N 424.215 -0.530993 -1.48385 0
M  V30 4365 C 425.125 0.23503 -2.3342 0
M  V30 4366 C 426.141 0.93801 -1.46552 0
M  V30 4367 O 427.317 0.912745 -1.7953 0
M  V30 4368 C 424.382 1.26778 -3.22689 0
M  V30 4369 C 423.443 0.575038 -4.25431 0
M  V30 4370 C 422.676 1.55858 -5.10435 0
M  V30 4371 O 422.899 2.79129 -4.97437 0
M  V30 4372 O 421.833 1.09742 -5.91811 0
M  V30 4373 H 425.659 -0.461794 -3.00169 0
M  V30 4374 H 423.244 -0.291903 -1.46521 0
M  V30 4375 H 425.126 1.86457 -3.77904 0
M  V30 4376 H 423.801 1.94699 -2.586 0
M  V30 4377 H 422.708 -0.0622782 -3.74048 0
M  V30 4378 H 424.041 -0.062253 -4.92161 0
M  V30 4379 N 425.693 1.55336 -0.266172 0
M  V30 4380 C 426.623 2.25146 0.618981 0
M  V30 4381 C 427.604 1.23845 1.16604 0
M  V30 4382 O 428.789 1.52544 1.20183 0
M  V30 4383 C 425.919 2.96572 1.80728 0
M  V30 4384 C 424.873 4.04726 1.39215 0
M  V30 4385 C 424.199 4.63678 2.66283 0
M  V30 4386 C 425.499 5.19407 0.548942 0
M  V30 4387 H 427.193 2.99377 0.0368116 0
M  V30 4388 H 424.739 1.43991 0.0162651 0
M  V30 4389 H 426.692 3.44116 2.43232 0
M  V30 4390 H 425.416 2.19861 2.41514 0
M  V30 4391 H 424.075 3.57979 0.790351 0
M  V30 4392 H 423.723 3.83646 3.25308 0
M  V30 4393 H 423.423 5.367 2.39222 0
M  V30 4394 H 424.947 5.13967 3.29651 0
M  V30 4395 H 426.361 5.63059 1.07876 0
M  V30 4396 H 424.758 5.98936 0.373593 0
M  V30 4397 H 425.828 4.8295 -0.434394 0
M  V30 4398 N 427.171 -0.0066808 1.57599 0
M  V30 4399 C 428.399 -0.704087 1.94551 0
M  V30 4400 C 428.814 -1.67677 0.867746 0
M  V30 4401 O 428.171 -1.8185 -0.153925 0
M  V30 4402 C 428.222 -1.44177 3.31505 0
M  V30 4403 O 427.943 -0.508097 4.35144 0
M  V30 4404 C 429.444 -2.23429 3.82876 0
M  V30 4405 H 426.664 -0.196523 0.641576 0
M  V30 4406 H 429.208 0.042453 2.04456 0
M  V30 4407 H 427.363 -2.13999 3.22929 0
M  V30 4408 H 427.777 -1.02782 5.14331 0
M  V30 4409 H 429.251 -2.70552 4.8115 0
M  V30 4410 H 429.728 -3.05818 3.15233 0
M  V30 4411 H 430.334 -1.58636 3.94607 0
M  V30 4412 N 428.649 -1.55105 -0.279332 0
M  V30 4413 C 429.581 -1.83952 -1.36727 0
M  V30 4414 C 430.594 -0.723642 -1.45833 0
M  V30 4415 O 431.783 -1.00141 -1.47763 0
M  V30 4416 C 428.883 -1.98183 -2.74912 0
M  V30 4417 C 428.056 -3.28787 -2.88475 0
M  V30 4418 C 427.115 -3.33162 -4.07295 0
M  V30 4419 O 426.141 -4.06576 -3.98353 0
M  V30 4420 N 427.343 -2.60109 -5.18964 0
M  V30 4421 H 430.108 -2.77853 -1.12328 0
M  V30 4422 H 427.669 -1.54945 -0.469442 0
M  V30 4423 H 429.661 -1.98488 -3.52682 0
M  V30 4424 H 428.231 -1.11177 -2.92162 0
M  V30 4425 H 427.451 -3.41075 -1.97641 0
M  V30 4426 H 428.739 -4.14933 -2.94463 0
M  V30 4427 H 428.137 -2.00136 -5.29115 0
M  V30 4428 H 426.694 -2.66143 -5.94988 0
M  V30 4429 N 430.127 0.543554 -1.4793 0
M  V30 4430 C 431.059 1.665 -1.57513 0
M  V30 4431 C 432.072 1.56156 -0.460333 0
M  V30 4432 O 433.261 1.62865 -0.730573 0
M  V30 4433 C 430.361 3.05063 -1.47614 0
M  V30 4434 C 429.534 3.41024 -2.739 0
M  V30 4435 C 428.593 4.58809 -2.57645 0
M  V30 4436 O 427.619 4.62707 -3.31498 0
M  V30 4437 N 428.821 5.56149 -1.66368 0
M  V30 4438 H 431.586 1.5872 -2.5422 0
M  V30 4439 H 429.147 0.730517 -1.44482 0
M  V30 4440 H 431.139 3.81712 -1.34455 0
M  V30 4441 H 429.709 3.06994 -0.589359 0
M  V30 4442 H 428.929 2.53687 -3.01723 0
M  V30 4443 H 430.217 3.61831 -3.57709 0
M  V30 4444 H 429.615 5.55767 -1.05543 0
M  V30 4445 H 428.172 6.32071 -1.59154 0
M  V30 4446 N 431.605 1.3629 0.791371 0
M  V30 4447 C 432.851 1.30605 1.55146 0
M  V30 4448 C 433.184 -0.115042 1.93859 0
M  V30 4449 O 432.459 -1.06798 1.62556 0
M  V30 4450 C 432.742 2.22692 2.82985 0
M  V30 4451 C 432.595 3.73489 2.50651 0
M  V30 4452 C 433.914 2.13588 3.84796 0
M  V30 4453 H 431.033 0.475761 0.562868 0
M  V30 4454 H 433.675 1.66825 0.909358 0
M  V30 4455 H 431.825 1.91933 3.37778 0
M  V30 4456 H 433.497 4.14758 2.01924 0
M  V30 4457 H 431.74 3.93021 1.83622 0
M  V30 4458 H 432.411 4.3333 3.41949 0
M  V30 4459 H 434.887 2.40659 3.39445 0
M  V30 4460 H 433.763 2.80195 4.71998 0
M  V30 4461 H 434.024 1.12256 4.27611 0
M  V30 4462 N 433.083 -1.0153 1.20538 0
M  V30 4463 C 434.33 -1.75149 1.01633 0
M  V30 4464 C 434.658 -1.89189 -0.451399 0
M  V30 4465 O 433.913 -1.41551 -1.35136 0
M  V30 4466 C 434.212 -3.17213 1.64654 0
M  V30 4467 C 433.878 -3.23146 3.14464 0
M  V30 4468 C 432.54 -3.24472 3.55347 0
M  V30 4469 C 434.892 -3.21207 4.10458 0
M  V30 4470 C 432.22 -3.21532 4.90748 0
M  V30 4471 C 434.572 -3.19808 5.45807 0
M  V30 4472 C 433.236 -3.19439 5.86102 0
M  V30 4473 H 432.506 -0.640914 0.3719 0
M  V30 4474 H 435.153 -1.19071 1.49981 0
M  V30 4475 H 433.458 -3.76457 1.08571 0
M  V30 4476 H 435.155 -3.72871 1.4754 0
M  V30 4477 H 431.745 -3.2285 2.81897 0
M  V30 4478 H 435.929 -3.19351 3.79906 0
M  V30 4479 H 431.185 -3.19578 5.21229 0
M  V30 4480 H 435.359 -3.1726 6.19935 0
M  V30 4481 H 432.986 -3.16915 6.90991 0
M  V30 4482 N 434.561 -1.01147 -1.20859 0
M  V30 4483 C 435.838 -0.613136 -1.85742 0
M  V30 4484 C 436.218 0.909004 -1.90526 0
M  V30 4485 O 435.566 1.79862 -1.40932 0
M  V30 4486 C 435.776 -1.255 -3.25654 0
M  V30 4487 C 437.124 -1.3672 -4.01986 0
M  V30 4488 O 438.148 -1.21082 -3.34989 0
M  V30 4489 O 437.007 -1.6194 -5.21956 0
M  V30 4490 H 434.101 -0.210878 -0.799662 0
M  V30 4491 H 436.647 -1.10853 -1.2849 0
M  V30 4492 H 435.419 -2.29532 -3.16908 0
M  V30 4493 H 435.042 -0.746369 -3.90532 0
M  V30 4494 N 436.039 1.36541 -0.78704 0
M  V30 4495 C 437.002 2.28413 -0.189778 0
M  V30 4496 C 438.002 1.48719 0.611499 0
M  V30 4497 O 439.192 1.68737 0.432842 0
M  V30 4498 C 436.324 3.32824 0.737638 0
M  V30 4499 H 437.517 2.82743 -0.999831 0
M  V30 4500 H 435.07 1.46065 -0.556298 0
M  V30 4501 H 435.805 2.83646 1.57212 0
M  V30 4502 H 435.59 3.91752 0.165044 0
M  V30 4503 H 437.08 4.0144 1.15047 0
M  V30 4504 N 437.518 0.538854 1.48102 0
M  V30 4505 C 438.465 -0.219042 2.29758 0
M  V30 4506 C 439.435 -0.925562 1.37922 0
M  V30 4507 O 440.62 -0.924855 1.66886 0
M  V30 4508 C 437.76 -1.25452 3.2149 0
M  V30 4509 C 436.873 -0.555943 4.28408 0
M  V30 4510 C 436.008 -1.57512 5.0731 0
M  V30 4511 C 435.047 -0.860498 6.06021 0
M  V30 4512 N 434.184 -1.82564 6.77949 0
M  V30 4513 H 439.024 0.483449 2.94052 0
M  V30 4514 H 436.561 0.250247 1.44956 0
M  V30 4515 H 438.519 -1.86727 3.7308 0
M  V30 4516 H 437.149 -1.92528 2.591 0
M  V30 4517 H 436.201 0.170938 3.80016 0
M  V30 4518 H 437.513 0.00474616 4.988 0
M  V30 4519 H 436.667 -2.26191 5.62959 0
M  V30 4520 H 435.406 -2.16972 4.36778 0
M  V30 4521 H 434.411 -0.159686 5.49568 0
M  V30 4522 H 435.636 -0.271897 6.78555 0
M  V30 4523 H 433.582 -2.40915 6.10161 0
M  V30 4524 H 433.499 -1.31662 7.44447 0
M  V30 4525 H 434.767 -2.50414 7.38182 0
M  V30 4526 N 438.996 -1.55193 0.274407 0
M  V30 4527 C 439.944 -2.23924 -0.629362 0
M  V30 4528 C 440.938 -1.23602 -1.1584 0
M  V30 4529 O 442.144 -1.41535 -1.11211 0
M  V30 4530 H 438.519 -0.718637 -0.221507 0
M  V30 4531 H 440.49 -2.98388 -0.0268322 0
M  V30 4532 C 439.239 -2.97329 -1.80252 0
M  V30 4533 H 438.562 -3.74313 -1.40462 0
M  V30 4534 H 440.002 -3.48743 -2.41152 0
M  V30 4535 C 438.461 -2.0276 -2.69054 0
M  V30 4536 O 438.991 -1.57836 -3.69392 0
M  V30 4537 N 437.197 -1.69275 -2.36208 0
M  V30 4538 H 436.744 -2.06004 -1.54661 0
M  V30 4539 H 436.702 -1.06271 -2.95895 0
M  V30 4540 N 440.474 -0.00167713 -1.576 0
M  V30 4541 C 441.407 1.02317 -2.03977 0
M  V30 4542 C 442.385 1.33381 -0.929963 0
M  V30 4543 O 443.569 1.45517 -1.19822 0
M  V30 4544 C 440.696 2.35035 -2.43878 0
M  V30 4545 C 439.742 2.19621 -3.65607 0
M  V30 4546 S 440.575 1.52068 -5.13455 0
M  V30 4547 C 441.731 2.86212 -5.56627 0
M  V30 4548 H 441.964 0.628285 -2.90585 0
M  V30 4549 H 439.497 0.209239 -1.52976 0
M  V30 4550 H 441.455 3.11345 -2.67534 0
M  V30 4551 H 440.116 2.71663 -1.57665 0
M  V30 4552 H 439.309 3.1767 -3.91282 0
M  V30 4553 H 438.911 1.51455 -3.41961 0
M  V30 4554 H 441.203 3.82509 -5.59189 0
M  V30 4555 H 442.146 2.65235 -6.56549 0
M  V30 4556 H 442.554 2.90199 -4.84195 0
M  V30 4557 N 441.952 1.55251 0.271103 0
M  V30 4558 C 442.885 1.83191 1.36075 0
M  V30 4559 C 443.863 0.685091 1.47463 0
M  V30 4560 O 445.047 0.928292 1.64058 0
M  V30 4561 C 442.174 1.99521 2.73696 0
M  V30 4562 C 441.22 3.22081 2.79582 0
M  V30 4563 S 442.053 4.79388 2.38636 0
M  V30 4564 C 443.209 4.98693 3.78228 0
M  V30 4565 H 443.442 2.75327 1.12171 0
M  V30 4566 H 440.975 1.47046 0.470833 0
M  V30 4567 H 442.933 2.09613 3.52948 0
M  V30 4568 H 441.594 1.0827 2.9485 0
M  V30 4569 H 440.787 3.304 3.80594 0
M  V30 4570 H 440.389 3.10589 2.08352 0
M  V30 4571 H 442.681 4.84551 4.73515 0
M  V30 4572 H 443.624 6.00738 3.7486 0
M  V30 4573 H 444.032 4.26665 3.69618 0
M  V30 4574 N 443.43 -0.535701 1.48216 0
M  V30 4575 C 444.393 -1.623 1.61838 0
M  V30 4576 C 445.393 -1.53087 0.492024 0
M  V30 4577 O 446.583 -1.5686 0.757668 0
M  V30 4578 C 443.715 -3.01907 1.58319 0
M  V30 4579 H 444.908 -1.51564 2.58783 0
M  V30 4580 H 442.461 -0.757317 1.36727 0
M  V30 4581 H 443.196 -3.18155 0.628299 0
M  V30 4582 H 442.981 -3.10003 2.40085 0
M  V30 4583 H 444.471 -3.80969 1.71033 0
M  V30 4584 N 444.908 -1.36708 -0.784132 0
M  V30 4585 C 445.871 -1.31307 -1.87859 0
M  V30 4586 C 446.871 -0.219654 -1.59293 0
M  V30 4587 O 448.061 -0.47476 -1.67606 0
M  V30 4588 C 445.193 -1.03679 -3.24751 0
M  V30 4589 H 446.386 -2.28647 -1.94064 0
M  V30 4590 H 443.939 -1.21558 -0.98252 0
M  V30 4591 H 444.674 -0.0681936 -3.24228 0
M  V30 4592 H 444.459 -1.82811 -3.46876 0
M  V30 4593 H 445.949 -1.02518 -4.04821 0
M  V30 4594 N 446.386 1.0089 -1.21074 0
M  V30 4595 C 447.626 1.76142 -1.03699 0
M  V30 4596 C 447.99 1.87292 0.422587 0
M  V30 4597 O 449.191 2.59068 0.716752 0
M  V30 4598 C 447.462 3.13805 -1.7106 0
M  V30 4599 S 449.021 4.04996 -1.68889 0
M  V30 4600 H 445.839 0.606113 -0.371683 0
M  V30 4601 H 448.441 1.20744 -1.53756 0
M  V30 4602 H 447.145 3.0332 -2.76451 0
M  V30 4603 H 446.676 3.74276 -1.21166 0
M  V30 4604 H 448.691 4.90842 -0.727211 0
M  V30 4605 N 447.864 1.01787 1.20321 0
M  V30 4606 C 449.141 0.622978 1.85414 0
M  V30 4607 C 449.521 -0.898887 1.91006 0
M  V30 4608 O 448.869 -1.79112 1.41884 0
M  V30 4609 C 449.079 1.27226 3.24984 0
M  V30 4610 C 450.427 1.3885 4.01255 0
M  V30 4611 O 451.451 1.22857 3.34342 0
M  V30 4612 O 450.31 1.64705 5.2109 0
M  V30 4613 H 447.404 0.215116 0.798533 0
M  V30 4614 H 449.95 1.11533 1.27901 0
M  V30 4615 H 448.722 2.31209 3.15687 0
M  V30 4616 H 448.345 0.767069 3.90131 0
M  V30 4617 N 449.342 -1.36122 0.79427 0
M  V30 4618 C 450.753 -1.81646 0.431446 0
M  V30 4619 C 451.104 -1.66043 -1.04518 0
M  V30 4620 O 450.229 -1.1841 -1.8113 0
M  V30 4621 C 450.824 -3.29785 0.776341 0
M  V30 4622 C 449.383 -3.73501 0.466282 0
M  V30 4623 C 448.53 -2.58313 1.00844 0
M  V30 4624 H 451.481 -1.24274 0.986995 0
M  V30 4625 H 451.502 -3.80437 0.0692413 0
M  V30 4626 H 451.014 -3.4111 1.8511 0
M  V30 4627 H 449.115 -3.67733 -0.600245 0
M  V30 4628 H 449.228 -4.68754 0.990288 0
M  V30 4629 H 447.592 -2.5102 0.431406 0
M  V30 4630 H 448.375 -2.72421 2.08906 0
M  V30 4631 N 450.82 -0.546701 -1.47814 0
M  V30 4632 C 452.236 -0.205717 -1.58269 0
M  V30 4633 C 452.436 1.29153 -1.54667 0
M  V30 4634 O 451.492 2.07098 -1.44453 0
M  V30 4635 C 452.805 -0.823065 -2.89216 0
M  V30 4636 C 454.353 -0.793328 -3.02779 0
M  V30 4637 C 454.828 -1.38955 -4.36412 0
M  V30 4638 N 456.319 -1.35227 -4.43021 0
M  V30 4639 C 457.054 -1.78333 -5.44963 0
M  V30 4640 N 456.55 -2.29246 -6.53772 0
M  V30 4641 N 458.343 -1.69467 -5.35945 0
M  V30 4642 H 450.494 -1.5196 -1.48398 0
M  V30 4643 H 452.757 -0.633078 -0.705632 0
M  V30 4644 H 452.463 -1.8749 -2.97558 0
M  V30 4645 H 452.337 -0.309915 -3.75925 0
M  V30 4646 H 454.724 0.249784 -2.94041 0
M  V30 4647 H 454.805 -1.34412 -2.17639 0
M  V30 4648 H 454.449 -2.43168 -4.45906 0
M  V30 4649 H 454.379 -0.814291 -5.20266 0
M  V30 4650 H 456.87 -0.979739 -3.64979 0
M  V30 4651 H 457.183 -2.60089 -7.27718 0
M  V30 4652 H 455.528 -2.3325 -6.5469 0
M  V30 4653 H 458.719 -1.29477 -4.49837 0
M  V30 4654 H 458.892 -2.03381 -6.15256 0
M  V30 4655 N 452.299 1.55045 -0.282633 0
M  V30 4656 C 453.249 2.19514 0.616249 0
M  V30 4657 C 454.233 1.16216 1.11277 0
M  V30 4658 O 455.425 1.42004 1.05659 0
M  V30 4659 C 452.554 2.92548 1.7964 0
M  V30 4660 C 451.64 4.03142 1.31671 0
M  V30 4661 N 452.031 5.0276 0.553695 0
M  V30 4662 C 450.329 4.1635 1.59903 0
M  V30 4663 C 451.03 5.80923 0.30054 0
M  V30 4664 N 450.006 5.3651 0.875116 0
M  V30 4665 H 453.808 2.93889 0.0255363 0
M  V30 4666 H 451.322 1.62169 -0.0865362 0
M  V30 4667 H 453.319 3.37188 2.45173 0
M  V30 4668 H 451.979 2.19685 2.39099 0
M  V30 4669 H 452.99 5.17512 0.20032 0
M  V30 4670 H 449.667 3.54682 2.20243 0
M  V30 4671 H 451.057 6.7118 -0.311053 0
M  V30 4672 N 453.777 0.010035 1.57597 0
M  V30 4673 C 455.025 -0.671371 1.90623 0
M  V30 4674 C 455.346 -1.73753 0.885151 0
M  V30 4675 O 454.616 -1.95752 -0.0760611 0
M  V30 4676 H 453.196 -0.250968 0.703579 0
M  V30 4677 H 455.858 0.0533325 1.94827 0
M  V30 4678 H 454.954 -1.13626 2.90681 0
M  V30 4679 N 455.255 -1.55392 -0.262866 0
M  V30 4680 C 456.671 -1.47459 -0.610582 0
M  V30 4681 C 456.871 -0.697031 -1.8906 0
M  V30 4682 O 455.927 -0.219952 -2.5154 0
M  V30 4683 C 457.24 -2.91751 -0.728131 0
M  V30 4684 C 458.788 -3.02027 -0.821517 0
M  V30 4685 C 459.263 -4.47594 -0.97076 0
M  V30 4686 N 460.754 -4.51465 -1.03603 0
M  V30 4687 C 461.489 -5.61326 -1.17049 0
M  V30 4688 N 460.985 -6.81032 -1.2715 0
M  V30 4689 N 462.778 -5.49089 -1.20239 0
M  V30 4690 H 454.929 -2.04395 0.577632 0
M  V30 4691 H 457.192 -0.927287 0.197086 0
M  V30 4692 H 456.898 -3.51413 0.142132 0
M  V30 4693 H 456.772 -3.4134 -1.6052 0
M  V30 4694 H 459.159 -2.42456 -1.68224 0
M  V30 4695 H 459.24 -2.55674 0.0803688 0
M  V30 4696 H 458.884 -5.07771 -0.114655 0
M  V30 4697 H 458.814 -4.91613 -1.88745 0
M  V30 4698 H 461.305 -3.6524 -0.96996 0
M  V30 4699 H 461.618 -7.60511 -1.37271 0
M  V30 4700 H 459.963 -6.83824 -1.24136 0
M  V30 4701 H 463.154 -4.54507 -1.11985 0
M  V30 4702 H 463.327 -6.34749 -1.30373 0
M  V30 4703 N 456.733 0.527833 -1.48498 0
M  V30 4704 C 457.963 1.30633 -1.60058 0
M  V30 4705 C 458.371 1.87394 -0.260786 0
M  V30 4706 O 457.714 1.67227 0.760317 0
M  V30 4707 C 457.776 2.49361 -2.58958 0
M  V30 4708 C 457.44 2.13671 -4.03972 0
M  V30 4709 C 458.437 1.69217 -4.91591 0
M  V30 4710 C 456.122 2.24129 -4.49524 0
M  V30 4711 C 458.116 1.35689 -6.2279 0
M  V30 4712 C 455.803 1.90212 -5.80743 0
M  V30 4713 C 456.801 1.46063 -6.67199 0
M  V30 4714 O 456.489 1.12593 -7.95976 0
M  V30 4715 H 456.221 0.403444 -0.54241 0
M  V30 4716 H 458.775 0.643233 -1.95068 0
M  V30 4717 H 457.005 3.18659 -2.19073 0
M  V30 4718 H 458.694 3.11421 -2.6033 0
M  V30 4719 H 459.46 1.60607 -4.57636 0
M  V30 4720 H 455.339 2.57447 -3.82416 0
M  V30 4721 H 458.883 1.01157 -6.90227 0
M  V30 4722 H 454.78 1.98464 -6.14233 0
M  V30 4723 H 455.548 1.25972 -8.08748 0
M  V30 4724 N 458.211 1.37122 0.776871 0
M  V30 4725 C 459.141 1.35164 1.90402 0
M  V30 4726 C 460.122 0.221069 1.68657 0
M  V30 4727 O 461.307 0.420642 1.8959 0
M  V30 4728 C 458.437 1.15274 3.27611 0
M  V30 4729 C 457.391 2.25289 3.63908 0
M  V30 4730 C 456.717 1.90527 4.99603 0
M  V30 4731 C 458.017 3.67446 3.71188 0
M  V30 4732 H 459.711 2.29482 1.92297 0
M  V30 4733 H 457.257 1.10465 0.923773 0
M  V30 4734 H 459.21 1.12536 4.06096 0
M  V30 4735 H 457.934 0.174102 3.26136 0
M  V30 4736 H 456.593 2.27174 2.87728 0
M  V30 4737 H 456.241 0.91206 4.94662 0
M  V30 4738 H 455.941 2.64193 5.24858 0
M  V30 4739 H 457.465 1.89367 5.80493 0
M  V30 4740 H 458.879 3.67719 4.39836 0
M  V30 4741 H 457.276 4.40123 4.07936 0
M  V30 4742 H 458.346 4.01443 2.71977 0
M  V30 4743 N 459.689 -1.00246 1.21608 0
M  V30 4744 C 460.917 -1.77631 1.06089 0
M  V30 4745 C 461.332 -1.84746 -0.38916 0
M  V30 4746 O 460.689 -1.31068 -1.26994 0
M  V30 4747 C 460.74 -3.21415 1.65453 0
M  V30 4748 O 460.461 -3.14703 3.04785 0
M  V30 4749 C 461.962 -4.15289 1.55079 0
M  V30 4750 H 459.182 -0.558162 0.37242 0
M  V30 4751 H 461.726 -1.26093 1.60999 0
M  V30 4752 H 459.881 -3.70053 1.14629 0
M  V30 4753 H 460.295 -4.05056 3.33212 0
M  V30 4754 H 461.769 -5.13965 2.01355 0
M  V30 4755 H 462.246 -4.36279 0.505665 0
M  V30 4756 H 462.852 -3.72543 2.05163 0
M  V30 4757 N 461.167 -1.02423 -1.1978 0
M  V30 4758 C 462.413 -0.719051 -1.89625 0
M  V30 4759 C 462.746 0.750083 -1.7913 0
M  V30 4760 O 462.021 1.54574 -1.18056 0
M  V30 4761 C 462.304 -1.16499 -3.40735 0
M  V30 4762 C 462.157 -2.695 -3.60125 0
M  V30 4763 C 463.476 -0.742166 -4.33797 0
M  V30 4764 H 460.595 -0.26269 -0.688595 0
M  V30 4765 H 463.237 -1.27333 -1.41018 0
M  V30 4766 H 461.387 -0.69341 -3.82262 0
M  V30 4767 H 463.059 -3.24569 -3.278 0
M  V30 4768 H 461.302 -3.10113 -3.03336 0
M  V30 4769 H 461.973 -2.95757 -4.66081 0
M  V30 4770 H 464.449 -1.1477 -3.99959 0
M  V30 4771 H 463.325 -1.08213 -5.38127 0
M  V30 4772 H 463.586 0.355747 -4.40666 0
M  V30 4773 N 462.645 1.35699 -0.801477 0
M  V30 4774 C 463.608 2.28199 -0.213994 0
M  V30 4775 C 464.608 1.49359 0.595691 0
M  V30 4776 O 465.798 1.69186 0.414921 0
M  V30 4777 C 462.93 3.33587 0.702297 0
M  V30 4778 H 464.123 2.81666 -1.02976 0
M  V30 4779 H 461.676 1.45467 -0.571759 0
M  V30 4780 H 462.411 2.85297 1.54195 0
M  V30 4781 H 462.196 3.91906 0.123484 0
M  V30 4782 H 463.686 4.02638 1.10783 0
M  V30 4783 N 464.123 0.554532 1.47522 0
M  V30 4784 C 465.086 -0.184174 2.28459 0
M  V30 4785 C 466.086 -0.845195 1.36796 0
M  V30 4786 O 467.276 -0.701467 1.59452 0
M  V30 4787 C 464.408 -1.26903 3.16399 0
M  V30 4788 H 465.601 0.526751 2.95238 0
M  V30 4789 H 463.154 0.311375 1.53167 0
M  V30 4790 H 463.889 -2.01244 2.54306 0
M  V30 4791 H 463.674 -0.799883 3.83854 0
M  V30 4792 H 465.164 -1.78794 3.77389 0
M  V30 4793 N 465.601 -1.54893 0.290851 0
M  V30 4794 C 466.847 -2.0023 -0.321867 0
M  V30 4795 C 467.18 -1.179 -1.54316 0
M  V30 4796 O 466.455 -0.25293 -1.92848 0
M  V30 4797 C 466.738 -3.53456 -0.688515 0
M  V30 4798 C 466.591 -4.46532 0.541209 0
M  V30 4799 C 467.91 -4.13057 -1.51895 0
M  V30 4800 H 465.029 -0.727891 -0.115515 0
M  V30 4801 H 467.671 -1.85722 0.400931 0
M  V30 4802 H 465.821 -3.6595 -1.30433 0
M  V30 4803 H 467.493 -4.4596 1.17973 0
M  V30 4804 H 465.736 -4.17545 1.17636 0
M  V30 4805 H 466.407 -5.51475 0.240675 0
M  V30 4806 H 468.883 -4.03937 -0.99872 0
M  V30 4807 H 467.759 -5.20448 -1.74429 0
M  V30 4808 H 468.02 -3.64284 -2.50498 0
M  V30 4809 N 467.08 -0.0183926 -1.57589 0
M  V30 4810 C 468.327 0.662562 -1.91354 0
M  V30 4811 C 468.655 1.72747 -0.893788 0
M  V30 4812 O 467.91 1.9545 0.0988509 0
M  V30 4813 C 468.209 1.32676 -3.31861 0
M  V30 4814 C 467.875 0.393267 -4.49182 0
M  V30 4815 C 466.537 0.136302 -4.81007 0
M  V30 4816 C 468.889 -0.248366 -5.20608 0
M  V30 4817 C 466.217 -0.770282 -5.81621 0
M  V30 4818 C 468.569 -1.14294 -6.22189 0
M  V30 4819 C 467.233 -1.4089 -6.52462 0
M  V30 4820 H 466.503 0.242448 -0.700214 0
M  V30 4821 H 469.15 -0.0778629 -1.91342 0
M  V30 4822 H 467.455 2.14168 -3.28084 0
M  V30 4823 H 469.152 1.86001 -3.55253 0
M  V30 4824 H 465.742 0.603723 -4.24327 0
M  V30 4825 H 469.926 -0.062883 -4.9626 0
M  V30 4826 H 465.182 -0.984154 -6.03427 0
M  V30 4827 H 469.356 -1.64637 -6.76659 0
M  V30 4828 H 466.983 -2.11306 -7.30242 0
M  V30 4829 N 468.558 1.5553 0.254621 0
M  V30 4830 C 469.974 1.4778 0.602753 0
M  V30 4831 C 470.174 0.707047 1.88688 0
M  V30 4832 O 469.23 0.233288 2.5142 0
M  V30 4833 C 470.543 2.92133 0.712648 0
M  V30 4834 C 472.091 3.02458 0.805488 0
M  V30 4835 C 472.566 4.48102 0.947009 0
M  V30 4836 N 474.057 4.52008 1.01207 0
M  V30 4837 C 474.792 5.61939 1.1407 0
M  V30 4838 N 474.288 6.81697 1.23536 0
M  V30 4839 N 476.081 5.49719 1.17325 0
M  V30 4840 H 468.232 2.04085 -0.588463 0
M  V30 4841 H 470.495 0.926229 -0.202001 0
M  V30 4842 H 470.201 3.51332 -0.160766 0
M  V30 4843 H 470.075 3.42187 1.58707 0
M  V30 4844 H 472.462 2.43344 1.66936 0
M  V30 4845 H 472.543 2.55627 -0.0939266 0
M  V30 4846 H 472.187 5.07824 0.087725 0
M  V30 4847 H 472.117 4.92607 1.86135 0
M  V30 4848 H 474.608 3.65749 0.950577 0
M  V30 4849 H 474.921 7.61228 1.33236 0
M  V30 4850 H 473.266 6.84473 1.20508 0
M  V30 4851 H 476.457 4.55095 1.09573 0
M  V30 4852 H 476.63 6.35432 1.27005 0
M  V30 4853 N 470.036 -0.519951 1.48776 0
M  V30 4854 C 471.284 -1.2727 1.56993 0
M  V30 4855 C 471.605 -1.9339 0.25004 0
M  V30 4856 O 470.875 -1.81822 -0.729216 0
M  V30 4857 H 469.455 -0.472732 0.578389 0
M  V30 4858 H 472.117 -0.604234 1.85297 0
M  V30 4859 H 471.213 -2.04669 2.3562 0
M  V30 4860 N 471.514 -1.37532 -0.769588 0
M  V30 4861 C 472.93 -1.18379 -1.07045 0
M  V30 4862 C 473.13 -0.0214312 -2.01489 0
M  V30 4863 O 472.186 0.637809 -2.44312 0
M  V30 4864 C 473.499 -2.50338 -1.66588 0
M  V30 4865 C 475.047 -2.56879 -1.78835 0
M  V30 4866 C 475.522 -3.88974 -2.41792 0
M  V30 4867 N 477.013 -3.90428 -2.4924 0
M  V30 4868 C 477.748 -4.89388 -2.98809 0
M  V30 4869 N 477.244 -5.98745 -3.48535 0
M  V30 4870 N 479.037 -4.76791 -2.97703 0
M  V30 4871 H 471.188 -2.11921 -0.142541 0
M  V30 4872 H 473.451 -0.939608 -0.125863 0
M  V30 4873 H 473.157 -3.35767 -1.0466 0
M  V30 4874 H 473.031 -2.67583 -2.65856 0
M  V30 4875 H 475.418 -1.71856 -2.39895 0
M  V30 4876 H 475.499 -2.43516 -0.783166 0
M  V30 4877 H 475.143 -4.74412 -1.81371 0
M  V30 4878 H 475.073 -3.99641 -3.4292 0
M  V30 4879 H 477.564 -3.11433 -2.14052 0
M  V30 4880 H 477.877 -6.70205 -3.84767 0
M  V30 4881 H 476.222 -6.02387 -3.46634 0
M  V30 4882 H 479.413 -3.90478 -2.58157 0
M  V30 4883 H 479.586 -5.54069 -3.36024 0
M  V30 4884 N 472.992 0.995999 -1.22138 0
M  V30 4885 C 473.925 2.08302 -0.931952 0
M  V30 4886 C 474.903 1.62127 0.123956 0
M  V30 4887 O 476.087 1.88499 -0.00696004 0
M  V30 4888 C 473.214 3.36317 -0.401068 0
M  V30 4889 C 472.26 4.01413 -1.44117 0
M  V30 4890 S 473.093 4.42664 -3.01345 0
M  V30 4891 C 474.249 5.73853 -2.49887 0
M  V30 4892 H 474.482 2.32532 -1.85246 0
M  V30 4893 H 472.015 1.13005 -1.0521 0
M  V30 4894 H 473.973 4.10375 -0.101352 0
M  V30 4895 H 472.634 3.10123 0.498272 0
M  V30 4896 H 471.827 4.9358 -1.01952 0
M  V30 4897 H 471.429 3.33668 -1.68943 0
M  V30 4898 H 473.721 6.50039 -1.90934 0
M  V30 4899 H 474.664 6.20841 -3.40532 0
M  V30 4900 H 475.072 5.31105 -1.9128 0
M  V30 4901 N 474.47 1.03057 1.19235 0
M  V30 4902 C 475.695 0.74757 1.93458 0
M  V30 4903 C 476.12 -0.687648 1.7508 0
M  V30 4904 O 475.478 -1.47499 1.05422 0
M  V30 4905 C 475.526 1.10604 3.43219 0
M  V30 4906 O 474.63 0.225671 4.11782 0
M  V30 4907 H 473.971 0.276047 0.603899 0
M  V30 4908 H 476.501 1.3777 1.51263 0
M  V30 4909 H 476.511 1.06366 3.93891 0
M  V30 4910 H 475.186 2.15165 3.55917 0
M  V30 4911 H 473.763 0.326795 3.71465 0
M  V30 4912 N 475.948 -1.35272 0.808662 0
M  V30 4913 C 476.881 -2.27595 0.165994 0
M  V30 4914 C 477.859 -1.48189 -0.669241 0
M  V30 4915 O 479.043 -1.77444 -0.636073 0
M  V30 4916 C 476.17 -3.29843 -0.769505 0
M  V30 4917 C 475.216 -4.26498 -0.0136267 0
M  V30 4918 S 476.049 -5.18878 1.32384 0
M  V30 4919 C 477.205 -6.24666 0.392838 0
M  V30 4920 H 477.438 -2.81755 0.948756 0
M  V30 4921 H 474.971 -1.42103 0.603828 0
M  V30 4922 H 476.929 -3.89247 -1.30374 0
M  V30 4923 H 475.59 -2.74558 -1.52567 0
M  V30 4924 H 474.783 -4.98769 -0.724227 0
M  V30 4925 H 474.385 -3.71274 0.450713 0
M  V30 4926 H 476.677 -6.7619 -0.4211 0
M  V30 4927 H 477.62 -6.99741 1.0848 0
M  V30 4928 H 478.028 -5.64499 -0.0123908 0
M  V30 4929 N 477.426 -0.562348 -1.47226 0
M  V30 4930 C 478.373 0.182461 -2.30078 0
M  V30 4931 C 479.343 0.903503 -1.39377 0
M  V30 4932 O 480.528 0.898188 -1.68337 0
M  V30 4933 C 477.668 1.20322 -3.23445 0
M  V30 4934 C 476.781 0.487717 -4.29238 0
M  V30 4935 C 475.916 1.49422 -5.09752 0
M  V30 4936 C 474.955 0.763976 -6.07314 0
M  V30 4937 N 474.092 1.71755 -6.80768 0
M  V30 4938 H 478.932 -0.530169 -2.93246 0
M  V30 4939 H 476.469 -0.273276 -1.44539 0
M  V30 4940 H 478.427 1.80768 -3.76004 0
M  V30 4941 H 477.057 1.88382 -2.6213 0
M  V30 4942 H 476.109 -0.231374 -3.79696 0
M  V30 4943 H 477.421 -0.0841003 -4.98729 0
M  V30 4944 H 476.575 2.17206 -5.66486 0
M  V30 4945 H 475.314 2.09995 -4.40174 0
M  V30 4946 H 474.319 0.0722344 -5.49753 0
M  V30 4947 H 475.544 0.16391 -6.78902 0
M  V30 4948 H 473.49 2.31177 -6.13916 0
M  V30 4949 H 473.407 1.19802 -7.46447 0
M  V30 4950 H 474.675 2.38638 -7.42073 0
M  V30 4951 N 478.904 1.54736 -0.299062 0
M  V30 4952 C 479.814 2.27127 0.587413 0
M  V30 4953 C 480.83 1.30575 1.15005 0
M  V30 4954 O 482.006 1.63554 1.17525 0
M  V30 4955 C 479.071 2.99645 1.74395 0
M  V30 4956 C 478.132 4.11731 1.21559 0
M  V30 4957 C 477.365 4.80781 2.317 0
M  V30 4958 O 477.588 4.4918 3.51558 0
M  V30 4959 O 476.522 5.68226 1.98501 0
M  V30 4960 H 480.348 3.037 0.000250109 0
M  V30 4961 H 477.933 1.49256 -0.0655919 0
M  V30 4962 H 479.815 3.45138 2.4178 0
M  V30 4963 H 478.49 2.25969 2.31775 0
M  V30 4964 H 477.397 3.70641 0.507514 0
M  V30 4965 H 478.73 4.87379 0.687233 0
M  V30 4966 N 480.382 0.0267497 1.57577 0
M  V30 4967 C 481.628 -0.653371 1.91987 0
M  V30 4968 C 481.961 -1.71915 0.903263 0
M  V30 4969 O 481.236 -1.94358 -0.0743387 0
M  V30 4970 C 481.519 -1.272 3.36886 0
M  V30 4971 C 481.372 -0.215938 4.49281 0
M  V30 4972 C 482.691 -2.19069 3.81703 0
M  V30 4973 H 479.81 -0.236047 0.698177 0
M  V30 4974 H 482.452 0.0835236 1.89816 0
M  V30 4975 H 480.602 -1.90005 3.38866 0
M  V30 4976 H 482.274 0.41449 4.59434 0
M  V30 4977 H 480.517 0.458855 4.31366 0
M  V30 4978 H 481.188 -0.688347 5.47691 0
M  V30 4979 H 483.664 -1.66253 3.81444 0
M  V30 4980 H 482.54 -2.59307 4.83788 0
M  V30 4981 H 482.801 -3.08087 3.17072 0
M  V30 4982 N 481.861 -1.55662 -0.24637 0
M  V30 4983 C 483.138 -1.68272 -0.997198 0
M  V30 4984 C 483.518 -0.566785 -2.03349 0
M  V30 4985 O 482.866 0.429688 -2.24424 0
M  V30 4986 C 483.076 -3.08594 -1.63006 0
M  V30 4987 C 484.424 -3.6721 -2.13171 0
M  V30 4988 O 485.448 -3.11397 -1.72946 0
M  V30 4989 O 484.307 -4.65054 -2.87031 0
M  V30 4990 H 481.401 -0.684429 -0.464205 0
M  V30 4991 H 483.947 -1.67993 -0.240114 0
M  V30 4992 H 482.719 -3.81264 -0.880527 0
M  V30 4993 H 482.342 -3.12886 -2.45333 0
M  V30 4994 N 483.339 0.512053 -1.4905 0
M  V30 4995 C 484.249 1.64139 -1.67617 0
M  V30 4996 C 485.265 1.64786 -0.558701 0
M  V30 4997 O 486.441 1.8341 -0.832034 0
M  V30 4998 C 483.506 3.00548 -1.72835 0
M  V30 4999 C 482.567 3.10615 -2.96339 0
M  V30 5000 C 481.8 4.40517 -3.01298 0
M  V30 5001 O 482.023 5.28671 -2.14157 0
M  V30 5002 O 480.957 4.55325 -3.93653 0
M  V30 5003 H 484.783 1.51407 -2.63267 0
M  V30 5004 H 482.368 0.687131 -1.32661 0
M  V30 5005 H 484.25 3.81641 -1.78683 0
M  V30 5006 H 482.925 3.13566 -0.803616 0
M  V30 5007 H 481.832 2.2875 -2.96014 0
M  V30 5008 H 483.165 3.0252 -3.88256 0
M  V30 5009 N 484.817 1.37938 0.762283 0
M  V30 5010 C 485.749 1.30349 1.88525 0
M  V30 5011 C 486.762 0.217402 1.61342 0
M  V30 5012 O 487.951 0.474291 1.72084 0
M  V30 5013 C 485.051 0.994844 3.23969 0
M  V30 5014 C 484.224 2.18829 3.78725 0
M  V30 5015 C 483.283 1.84844 4.92665 0
M  V30 5016 O 482.309 2.57244 5.07754 0
M  V30 5017 N 483.511 0.798201 5.74986 0
M  V30 5018 H 486.276 2.27114 1.95549 0
M  V30 5019 H 483.837 1.31686 0.941825 0
M  V30 5020 H 485.829 0.748168 3.97724 0
M  V30 5021 H 484.399 0.115446 3.12387 0
M  V30 5022 H 483.619 2.59615 2.96637 0
M  V30 5023 H 484.907 2.98497 4.1204 0
M  V30 5024 H 484.305 0.197611 5.65355 0
M  V30 5025 H 482.862 0.611396 6.48926 0
M  V30 5026 N 486.295 -0.989507 1.22664 0
M  V30 5027 C 487.228 -2.07805 0.942985 0
M  V30 5028 C 488.206 -1.6219 -0.115356 0
M  V30 5029 O 489.39 -1.88492 0.0169565 0
M  V30 5030 C 486.517 -3.361 0.418898 0
M  V30 5031 C 485.563 -4.00643 1.46244 0
M  V30 5032 S 486.396 -4.41059 3.03689 0
M  V30 5033 C 487.552 -5.7252 2.52927 0
M  V30 5034 H 487.785 -2.31547 1.86476 0
M  V30 5035 H 485.318 -1.12446 1.05808 0
M  V30 5036 H 487.276 -4.10315 0.123114 0
M  V30 5037 H 485.937 -3.10383 -0.481818 0
M  V30 5038 H 485.13 -4.93033 1.04569 0
M  V30 5039 H 484.732 -3.32767 1.7071 0
M  V30 5040 H 487.024 -6.49017 1.94379 0
M  V30 5041 H 487.967 -6.19026 3.4382 0
M  V30 5042 H 488.375 -5.30083 1.94094 0
M  V30 5043 N 487.773 -1.03688 -1.18687 0
M  V30 5044 C 488.703 -0.645407 -2.24403 0
M  V30 5045 C 489.684 0.349511 -1.66471 0
M  V30 5046 O 490.869 0.230453 -1.92828 0
M  V30 5047 C 487.999 -0.00365337 -3.473 0
M  V30 5048 C 486.953 -0.921705 -4.17958 0
M  V30 5049 C 486.279 -0.144629 -5.34504 0
M  V30 5050 C 487.579 -2.23909 -4.71871 0
M  V30 5051 H 489.273 -1.52917 -2.57404 0
M  V30 5052 H 486.819 -0.736711 -1.23728 0
M  V30 5053 H 488.772 0.281908 -4.20456 0
M  V30 5054 H 487.496 0.914963 -3.13522 0
M  V30 5055 H 486.155 -1.19159 -3.46694 0
M  V30 5056 H 485.803 0.776274 -4.96974 0
M  V30 5057 H 485.503 -0.756206 -5.82714 0
M  V30 5058 H 487.027 0.134004 -6.10453 0
M  V30 5059 H 488.441 -2.0145 -5.36741 0
M  V30 5060 H 486.838 -2.8033 -5.30599 0
M  V30 5061 H 487.908 -2.88822 -3.895 0
M  V30 5062 N 489.251 1.34841 -0.815825 0
M  V30 5063 C 490.199 2.31549 -0.220888 0
M  V30 5064 C 491.193 1.5707 0.634457 0
M  V30 5065 O 492.399 1.72125 0.526589 0
M  V30 5066 H 488.774 0.750153 -0.0526782 0
M  V30 5067 H 490.745 2.7926 -1.05149 0
M  V30 5068 C 489.494 3.42335 0.608427 0
M  V30 5069 H 488.817 3.9978 -0.0404121 0
M  V30 5070 H 490.257 4.12258 0.990931 0
M  V30 5071 C 488.716 2.86173 1.77782 0
M  V30 5072 O 489.246 2.80474 2.87571 0
M  V30 5073 N 487.452 2.43093 1.59229 0
M  V30 5074 H 486.999 2.47928 0.699237 0
M  V30 5075 H 486.957 2.05866 2.37627 0
M  V30 5076 N 490.729 0.570148 1.46925 0
M  V30 5077 C 491.975 0.0510284 2.02736 0
M  V30 5078 C 492.308 -1.3006 1.44215 0
M  V30 5079 O 491.583 -1.84932 0.602521 0
M  V30 5080 C 491.866 -0.028215 3.60089 0
M  V30 5081 C 491.719 1.35142 4.29018 0
M  V30 5082 C 493.038 -0.735181 4.33916 0
M  V30 5083 H 490.157 0.0200178 0.736728 0
M  V30 5084 H 492.799 0.73493 1.75211 0
M  V30 5085 H 490.949 -0.610648 3.83671 0
M  V30 5086 H 492.621 1.97806 4.16738 0
M  V30 5087 H 490.864 1.9226 3.88868 0
M  V30 5088 H 491.535 1.24857 5.37694 0
M  V30 5089 H 494.011 -0.240519 4.15404 0
M  V30 5090 H 492.887 -0.759622 5.43618 0
M  V30 5091 H 493.148 -1.79397 4.04066 0
M  V30 5092 N 492.207 -1.54576 0.307264 0
M  V30 5093 C 493.139 -2.21212 -0.599807 0
M  V30 5094 C 494.152 -1.20685 -1.09266 0
M  V30 5095 O 495.341 -1.47244 -1.00903 0
M  V30 5096 C 492.441 -2.84994 -1.83389 0
M  V30 5097 C 491.614 -4.11511 -1.48248 0
M  V30 5098 C 490.673 -4.59038 -2.57237 0
M  V30 5099 O 489.699 -5.24095 -2.22065 0
M  V30 5100 N 490.901 -4.31884 -3.87887 0
M  V30 5101 H 493.666 -2.99686 -0.0293075 0
M  V30 5102 H 491.227 -1.61379 0.129738 0
M  V30 5103 H 493.219 -3.1372 -2.5566 0
M  V30 5104 H 491.789 -2.10324 -2.31263 0
M  V30 5105 H 491.009 -3.89728 -0.592122 0
M  V30 5106 H 492.297 -4.93879 -1.22316 0
M  V30 5107 H 491.695 -3.79778 -4.19268 0
M  V30 5108 H 490.252 -4.65304 -4.56438 0
M  V30 5109 N 493.685 -0.035106 -1.57561 0
M  V30 5110 C 494.633 0.962707 -2.11742 0
M  V30 5111 C 495.627 1.33296 -1.0454 0
M  V30 5112 O 496.833 1.31449 -1.22968 0
M  V30 5113 H 493.208 0.32826 -0.676572 0
M  V30 5114 H 495.179 0.48048 -2.94506 0
M  V30 5115 C 493.928 2.23388 -2.66445 0
M  V30 5116 H 493.251 1.95774 -3.48587 0
M  V30 5117 H 494.691 2.91402 -3.07995 0
M  V30 5118 C 493.15 2.96769 -1.59467 0
M  V30 5119 O 493.68 3.89105 -0.998 0
M  V30 5120 N 491.886 2.59212 -1.31369 0
M  V30 5121 H 491.433 1.84202 -1.80076 0
M  V30 5122 H 491.391 3.08618 -0.600173 0
M  V30 5123 N 495.163 1.55791 0.238111 0
M  V30 5124 C 496.11 1.9105 1.29493 0
M  V30 5125 C 497.08 0.765733 1.47397 0
M  V30 5126 O 498.265 1.02017 1.61236 0
M  V30 5127 C 495.405 2.21826 2.64362 0
M  V30 5128 C 494.518 3.49153 2.54394 0
M  V30 5129 C 493.653 3.69455 3.81676 0
M  V30 5130 C 492.692 4.90353 3.66361 0
M  V30 5131 N 491.829 5.07131 4.85554 0
M  V30 5132 H 496.669 2.81172 0.987233 0
M  V30 5133 H 494.206 1.39179 0.476203 0
M  V30 5134 H 496.164 2.37675 3.4288 0
M  V30 5135 H 494.794 1.34897 2.93262 0
M  V30 5136 H 493.846 3.41587 1.67399 0
M  V30 5137 H 495.158 4.37818 2.38991 0
M  V30 5138 H 494.312 3.85311 4.68636 0
M  V30 5139 H 493.051 2.7904 3.99985 0
M  V30 5140 H 492.056 4.74464 2.77784 0
M  V30 5141 H 493.281 5.82237 3.49538 0
M  V30 5142 H 491.227 4.19654 5.04209 0
M  V30 5143 H 491.144 5.89899 4.72816 0
M  V30 5144 H 492.412 5.27407 5.73988 0
M  V30 5145 N 496.642 -0.504142 1.49319 0
M  V30 5146 C 497.59 -1.62689 1.66238 0
M  V30 5147 C 498.584 -1.6095 0.528349 0
M  V30 5148 O 499.79 -1.65496 0.707887 0
M  V30 5149 H 496.165 -0.539247 0.524134 0
M  V30 5150 H 498.136 -1.45571 2.60484 0
M  V30 5151 C 496.885 -3.00841 1.74328 0
M  V30 5152 H 496.208 -3.02884 2.60963 0
M  V30 5153 H 497.648 -3.78945 1.90202 0
M  V30 5154 C 496.107 -3.33355 0.487416 0
M  V30 5155 O 496.637 -3.99819 -0.388294 0
M  V30 5156 N 494.843 -2.88469 0.351306 0
M  V30 5157 H 494.39 -2.34557 1.06492 0
M  V30 5158 H 494.348 -3.10591 -0.487899 0
M  V30 5159 N 498.12 -1.38341 -0.754957 0
M  V30 5160 C 499.345 -1.37882 -1.5493 0
M  V30 5161 C 499.77 0.0296385 -1.88077 0
M  V30 5162 O 499.128 1.01133 -1.50472 0
M  V30 5163 C 499.176 -2.23996 -2.82592 0
M  V30 5164 O 498.28 -1.65612 -3.77686 0
M  V30 5165 H 497.621 -0.470384 -0.468652 0
M  V30 5166 H 500.151 -1.82084 -0.933082 0
M  V30 5167 H 500.161 -2.37806 -3.3153 0
M  V30 5168 H 498.836 -3.26365 -2.57796 0
M  V30 5169 H 497.413 -1.60936 -3.36384 0
M  V30 5170 N 499.598 0.982988 -1.23187 0
M  V30 5171 C 500.823 1.76455 -1.08988 0
M  V30 5172 C 501.248 1.84726 0.354691 0
M  V30 5173 O 500.606 1.30699 1.25649 0
M  V30 5174 C 500.654 3.17094 -1.71708 0
M  V30 5175 O 499.758 4.00648 -0.977477 0
M  V30 5176 H 499.099 0.542988 -0.382177 0
M  V30 5177 H 501.629 1.23413 -1.63188 0
M  V30 5178 H 501.639 3.67684 -1.76841 0
M  V30 5179 H 500.314 3.10389 -2.76823 0
M  V30 5180 H 498.891 3.59161 -1.0029 0
M  V30 5181 N 501.076 1.04316 1.18135 0
M  V30 5182 C 502.306 0.767003 1.91835 0
M  V30 5183 C 502.714 -0.68002 1.76557 0
M  V30 5184 O 502.057 -1.47548 1.09432 0
M  V30 5185 C 502.119 1.05674 3.43618 0
M  V30 5186 C 501.783 2.49818 3.82675 0
M  V30 5187 C 502.78 3.48003 3.86251 0
M  V30 5188 C 500.465 2.84596 4.13897 0
M  V30 5189 C 502.459 4.79016 4.20503 0
M  V30 5190 C 500.146 4.15813 4.4782 0
M  V30 5191 C 501.144 5.12834 4.51099 0
M  V30 5192 O 500.832 6.41699 4.84229 0
M  V30 5193 H 500.564 0.278948 0.615763 0
M  V30 5194 H 503.118 1.3946 1.50798 0
M  V30 5195 H 501.348 0.372029 3.84906 0
M  V30 5196 H 503.037 0.767994 3.98568 0
M  V30 5197 H 503.803 3.22475 3.62264 0
M  V30 5198 H 499.682 2.09748 4.1052 0
M  V30 5199 H 503.226 5.54739 4.22978 0
M  V30 5200 H 499.123 4.41109 4.71268 0
M  V30 5201 H 499.891 6.46387 5.02121 0
M  V30 5202 N 502.554 -1.34406 0.822964 0
M  V30 5203 C 503.801 -1.98284 0.411057 0
M  V30 5204 C 504.129 -1.65245 -1.02588 0
M  V30 5205 O 503.384 -0.91619 -1.72929 0
M  V30 5206 C 503.683 -3.52981 0.560268 0
M  V30 5207 C 503.349 -4.05931 1.96293 0
M  V30 5208 C 502.011 -4.20103 2.34664 0
M  V30 5209 C 504.363 -4.34412 2.87985 0
M  V30 5210 C 501.691 -4.60082 3.64062 0
M  V30 5211 C 504.043 -4.75838 4.16847 0
M  V30 5212 C 502.707 -4.88215 4.55195 0
M  V30 5213 H 501.977 -0.725573 0.150416 0
M  V30 5214 H 504.624 -1.60349 1.04692 0
M  V30 5215 H 502.929 -3.91477 -0.158982 0
M  V30 5216 H 504.626 -4.00385 0.222087 0
M  V30 5217 H 501.216 -3.95363 1.65487 0
M  V30 5218 H 505.4 -4.23001 2.59584 0
M  V30 5219 H 500.656 -4.67856 3.93599 0
M  V30 5220 H 504.83 -4.96834 4.87984 0
M  V30 5221 H 502.457 -5.18952 5.55512 0
M  V30 5222 N 504.032 -0.577932 -1.46621 0
M  V30 5223 C 505.278 -0.0617793 -2.02706 0
M  V30 5224 C 505.611 1.29294 -1.44903 0
M  V30 5225 O 504.886 1.8461 -0.61232 0
M  V30 5226 C 505.169 0.00911824 -3.60099 0
M  V30 5227 C 505.022 -1.37416 -4.28295 0
M  V30 5228 C 506.341 0.712159 -4.343 0
M  V30 5229 H 503.46 -0.0239246 -0.736612 0
M  V30 5230 H 506.102 -0.744211 -1.74818 0
M  V30 5231 H 504.252 0.590292 -3.83989 0
M  V30 5232 H 505.924 -2.00013 -4.15683 0
M  V30 5233 H 504.167 -1.94319 -3.87843 0
M  V30 5234 H 504.838 -1.27707 -5.37024 0
M  V30 5235 H 507.314 0.218486 -4.15526 0
M  V30 5236 H 506.19 0.730782 -5.44014 0
M  V30 5237 H 506.451 1.77251 -4.05012 0
M  V30 5238 N 505.51 1.54411 -0.315457 0
M  V30 5239 C 506.42 2.27737 0.56329 0
M  V30 5240 C 507.436 1.31787 1.13614 0
M  V30 5241 O 508.612 1.64791 1.15784 0
M  V30 5242 C 505.677 3.01478 1.71207 0
M  V30 5243 C 504.738 4.12997 1.17185 0
M  V30 5244 C 503.971 4.83212 2.26588 0
M  V30 5245 O 504.194 4.52884 3.46775 0
M  V30 5246 O 503.128 5.70299 1.92463 0
M  V30 5247 H 506.954 3.03683 -0.0319614 0
M  V30 5248 H 504.539 1.49178 -0.0814188 0
M  V30 5249 H 506.421 3.47683 2.38106 0
M  V30 5250 H 505.096 2.28414 2.29366 0
M  V30 5251 H 504.003 3.71159 0.468174 0
M  V30 5252 H 505.336 4.8808 0.635501 0
M  V30 5253 N 506.988 0.0434614 1.5754 0
M  V30 5254 C 508.234 -0.627109 1.93491 0
M  V30 5255 C 508.589 -1.68904 0.921362 0
M  V30 5256 O 507.882 -1.91504 -0.0605799 0
M  V30 5257 C 508.076 -1.2738 3.3393 0
M  V30 5258 C 507.905 -0.27603 4.48852 0
M  V30 5259 C 506.675 0.129244 5.05135 0
M  V30 5260 C 508.873 0.475462 5.12098 0
M  V30 5261 N 506.855 1.12068 6.03584 0
M  V30 5262 C 508.226 1.32021 6.05781 0
M  V30 5263 C 510.281 0.534611 4.95022 0
M  V30 5264 C 508.984 2.2188 6.84223 0
M  V30 5265 C 511.01 1.42059 5.74085 0
M  V30 5266 C 510.372 2.25309 6.67394 0
M  V30 5267 H 506.471 -0.201354 0.755633 0
M  V30 5268 H 509.055 0.113991 1.94366 0
M  V30 5269 H 507.226 -1.98496 3.33847 0
M  V30 5270 H 508.958 -1.90255 3.57191 0
M  V30 5271 H 505.713 -0.248145 4.72949 0
M  V30 5272 H 506.137 1.61306 6.57502 0
M  V30 5273 H 510.779 -0.0947817 4.22694 0
M  V30 5274 H 508.497 2.85868 7.55847 0
M  V30 5275 H 512.083 1.47083 5.62901 0
M  V30 5276 H 510.963 2.92754 7.27506 0
M  V30 5277 N 508.466 -1.55915 -0.229846 0
M  V30 5278 C 509.715 -1.77742 -0.953455 0
M  V30 5279 C 510.028 -0.610524 -1.85828 0
M  V30 5280 O 511.234 -0.712219 -2.61992 0
M  V30 5281 C 509.69 -3.14738 -1.74551 0
M  V30 5282 C 509.298 -4.39126 -0.887242 0
M  V30 5283 C 511.042 -3.45895 -2.46084 0
M  V30 5284 C 508.949 -5.67149 -1.67617 0
M  V30 5285 H 507.879 -0.662648 -0.359741 0
M  V30 5286 H 510.53 -1.82322 -0.207576 0
M  V30 5287 H 508.912 -3.04311 -2.53399 0
M  V30 5288 H 510.086 -4.60588 -0.139892 0
M  V30 5289 H 508.401 -4.15427 -0.284443 0
M  V30 5290 H 510.998 -4.38767 -3.05594 0
M  V30 5291 H 511.341 -2.68007 -3.18556 0
M  V30 5292 H 511.874 -3.57614 -1.74233 0
M  V30 5293 H 508.613 -6.47906 -0.994881 0
M  V30 5294 H 508.133 -5.49763 -2.39836 0
M  V30 5295 H 509.812 -6.07025 -2.23898 0
M  V30 5296 N 509.944 0.496216 -1.49584 0
M  V30 5297 C 511.355 1.07765 -1.52459 0
M  V30 5298 C 511.706 1.93679 -0.31353 0
M  V30 5299 O 510.831 2.08588 0.576186 0
M  V30 5300 C 511.426 1.96111 -2.76271 0
M  V30 5301 C 509.985 2.49409 -2.81908 0
M  V30 5302 C 509.132 1.27142 -2.46435 0
M  V30 5303 H 512.083 0.279914 -1.56212 0
M  V30 5304 H 512.104 2.80862 -2.56704 0
M  V30 5305 H 511.616 1.33555 -3.64396 0
M  V30 5306 H 509.717 3.1559 -1.98074 0
M  V30 5307 H 509.83 2.86234 -3.84196 0
M  V30 5308 H 508.194 1.59818 -1.98319 0
M  V30 5309 H 508.977 0.662866 -3.3684 0
M  V30 5310 N 511.423 1.38739 0.74761 0
M  V30 5311 C 512.371 1.36573 1.88283 0
M  V30 5312 C 513.365 0.250712 1.67534 0
M  V30 5313 O 514.571 0.420073 1.7503 0
M  V30 5314 H 510.946 0.42619 0.619569 0
M  V30 5315 H 512.917 2.32356 1.87226 0
M  V30 5316 C 511.666 1.21361 3.25832 0
M  V30 5317 H 510.989 2.06424 3.42388 0
M  V30 5318 H 512.429 1.23901 4.05493 0
M  V30 5319 C 510.888 -0.0790099 3.36807 0
M  V30 5320 O 511.418 -1.05385 3.8763 0
M  V30 5321 N 509.624 -0.13785 2.90273 0
M  V30 5322 H 509.171 0.656128 2.49104 0
M  V30 5323 H 509.129 -1.00228 2.97996 0
M  V30 5324 N 512.901 -0.976442 1.23707 0
M  V30 5325 C 513.849 -2.09078 1.01927 0
M  V30 5326 C 514.843 -1.69345 -0.0430193 0
M  V30 5327 O 516.049 -1.79659 0.110814 0
M  V30 5328 H 512.424 -0.68398 0.312531 0
M  V30 5329 H 514.395 -2.24614 1.96447 0
M  V30 5330 C 513.144 -3.41919 0.631385 0
M  V30 5331 H 512.467 -3.72946 1.44053 0
M  V30 5332 H 513.907 -4.20817 0.518532 0
M  V30 5333 C 512.366 -3.30357 -0.660723 0
M  V30 5334 O 512.896 -3.63542 -1.70881 0
M  V30 5335 N 511.102 -2.83507 -0.638139 0
M  V30 5336 H 510.649 -2.567 0.215108 0
M  V30 5337 H 510.607 -2.76153 -1.50289 0
M  V30 5338 N 514.379 -1.04941 -1.1758 0
M  V30 5339 C 515.625 -0.759112 -1.88057 0
M  V30 5340 C 515.958 0.711918 -1.8068 0
M  V30 5341 O 515.233 1.52035 -1.21308 0
M  V30 5342 C 515.516 -1.237 -3.38187 0
M  V30 5343 C 515.369 -2.77078 -3.54327 0
M  V30 5344 C 516.688 -0.834014 -4.32125 0
M  V30 5345 H 513.807 -0.277237 -0.682868 0
M  V30 5346 H 516.449 -1.30296 -1.38286 0
M  V30 5347 H 514.599 -0.774337 -3.80705 0
M  V30 5348 H 516.271 -3.31449 -3.20842 0
M  V30 5349 H 514.514 -3.16477 -2.96689 0
M  V30 5350 H 515.185 -3.05577 -4.59703 0
M  V30 5351 H 517.661 -1.23228 -3.97434 0
M  V30 5352 H 516.537 -1.19603 -5.35711 0
M  V30 5353 H 516.798 0.262195 -4.41322 0
M  V30 5354 N 515.857 1.33968 -0.830081 0
M  V30 5355 C 516.804 2.29387 -0.255008 0
M  V30 5356 C 517.774 1.53923 0.624243 0
M  V30 5357 O 518.959 1.82262 0.564372 0
M  V30 5358 C 516.099 3.4034 0.571209 0
M  V30 5359 C 515.212 4.30729 -0.331083 0
M  V30 5360 C 514.347 5.2879 0.505389 0
M  V30 5361 C 513.386 6.10819 -0.395843 0
M  V30 5362 N 512.523 7.00948 0.401979 0
M  V30 5363 H 517.363 2.77972 -1.07404 0
M  V30 5364 H 514.9 1.36785 -0.541133 0
M  V30 5365 H 516.858 4.03361 1.06562 0
M  V30 5366 H 515.488 2.9297 1.35529 0
M  V30 5367 H 514.54 3.68507 -0.943759 0
M  V30 5368 H 515.852 4.88181 -1.02377 0
M  V30 5369 H 515.006 5.97297 1.06399 0
M  V30 5370 H 513.745 4.71894 1.23155 0
M  V30 5371 H 512.75 5.41238 -0.966529 0
M  V30 5372 H 513.975 6.69797 -1.12023 0
M  V30 5373 H 511.921 6.46512 1.11168 0
M  V30 5374 H 511.838 7.55643 -0.232167 0
M  V30 5375 H 513.106 7.73774 0.943102 0
M  V30 5376 N 517.335 0.585699 1.46312 0
M  V30 5377 C 518.563 0.0781299 2.06752 0
M  V30 5378 C 518.978 -1.22812 1.43396 0
M  V30 5379 O 518.335 -1.74318 0.540314 0
M  V30 5380 C 518.386 -0.0911927 3.61385 0
M  V30 5381 O 518.107 1.16336 4.22371 0
M  V30 5382 C 519.608 -0.632765 4.38761 0
M  V30 5383 H 516.828 0.0588188 0.668417 0
M  V30 5384 H 519.372 0.807218 1.87894 0
M  V30 5385 H 517.527 -0.770514 3.7966 0
M  V30 5386 H 517.941 0.979082 5.15281 0
M  V30 5387 H 519.415 -0.70041 5.47538 0
M  V30 5388 H 519.892 -1.65039 4.07012 0
M  V30 5389 H 520.498 0.0117856 4.25298 0
M  V30 5390 N 518.813 -1.54241 0.323641 0
M  V30 5391 C 519.776 -2.22997 -0.529602 0
M  V30 5392 C 520.776 -1.22345 -1.04347 0
M  V30 5393 O 521.966 -1.46924 -0.935889 0
M  V30 5394 C 519.098 -2.93409 -1.73562 0
M  V30 5395 H 520.291 -2.99815 0.0714518 0
M  V30 5396 H 517.844 -1.56121 0.0747258 0
M  V30 5397 H 518.579 -2.20729 -2.37591 0
M  V30 5398 H 518.364 -3.67217 -1.37456 0
M  V30 5399 H 519.854 -3.45794 -2.34128 0
M  V30 5400 N 520.291 -0.0518155 -1.57515 0
M  V30 5401 C 521.537 0.622745 -1.93002 0
M  V30 5402 C 521.87 1.70456 -0.930499 0
M  V30 5403 O 521.145 1.94452 0.0434086 0
M  V30 5404 C 521.428 1.21824 -3.38867 0
M  V30 5405 C 521.281 0.144434 -4.49568 0
M  V30 5406 C 522.6 2.12968 -3.8514 0
M  V30 5407 H 519.719 0.22491 -0.701844 0
M  V30 5408 H 522.361 -0.113711 -1.89659 0
M  V30 5409 H 520.511 1.8459 -3.41846 0
M  V30 5410 H 522.183 -0.48753 -4.58717 0
M  V30 5411 H 520.426 -0.527424 -4.30582 0
M  V30 5412 H 521.097 0.601127 -5.48717 0
M  V30 5413 H 523.573 1.60163 -3.8404 0
M  V30 5414 H 522.449 2.51578 -4.87852 0
M  V30 5415 H 522.71 3.03004 -3.21934 0
M  V30 5416 N 521.769 1.56035 0.221574 0
M  V30 5417 C 523.009 1.80822 0.953038 0
M  V30 5418 C 523.373 0.625316 1.81532 0
M  V30 5419 O 524.574 0.752491 2.58052 0
M  V30 5420 C 522.845 3.10503 1.76983 0
M  V30 5421 S 524.404 3.56604 2.55693 0
M  V30 5422 H 521.222 0.634849 0.320137 0
M  V30 5423 H 523.824 1.94274 0.218619 0
M  V30 5424 H 522.528 3.94636 1.12651 0
M  V30 5425 H 522.059 2.99858 2.54655 0
M  V30 5426 H 524.074 3.1994 3.79279 0
M  V30 5427 N 523.247 -0.488276 1.49845 0
M  V30 5428 C 524.524 -1.24959 1.50481 0
M  V30 5429 C 524.904 -2.09735 0.239698 0
M  V30 5430 O 524.252 -2.14865 -0.777524 0
M  V30 5431 C 524.462 -2.0954 2.79095 0
M  V30 5432 C 525.81 -2.68305 3.29086 0
M  V30 5433 O 526.834 -2.19797 2.80299 0
M  V30 5434 O 525.693 -3.56643 4.14087 0
M  V30 5435 H 522.787 -0.566133 0.602845 0
M  V30 5436 H 525.333 -0.501504 1.6212 0
M  V30 5437 H 524.105 -1.46958 3.62656 0
M  V30 5438 H 523.728 -2.91517 2.70377 0
M  V30 5439 N 524.725 -1.39134 -0.740242 0
M  V30 5440 C 525.974 -1.35384 -1.49512 0
M  V30 5441 C 526.287 0.04919 -1.95538 0
M  V30 5442 O 527.493 0.209257 -2.70692 0
M  V30 5443 C 525.949 -2.37812 -2.70136 0
M  V30 5444 C 525.557 -3.83804 -2.31081 0
M  V30 5445 C 527.301 -2.4313 -3.47977 0
M  V30 5446 C 525.208 -4.77886 -3.48395 0
M  V30 5447 H 524.138 -0.503297 -0.561434 0
M  V30 5448 H 526.789 -1.64754 -0.807974 0
M  V30 5449 H 525.171 -2.01505 -3.40899 0
M  V30 5450 H 526.345 -4.29123 -1.67898 0
M  V30 5451 H 524.66 -3.81732 -1.66343 0
M  V30 5452 H 527.257 -3.10614 -4.35228 0
M  V30 5453 H 527.6 -1.45423 -3.90074 0
M  V30 5454 H 528.133 -2.78304 -2.84239 0
M  V30 5455 H 524.872 -5.76836 -3.11353 0
M  V30 5456 H 524.392 -4.3725 -4.10576 0
M  V30 5457 H 526.071 -4.96538 -4.148 0
M  V30 5458 N 526.204 0.969867 -1.24223 0
M  V30 5459 C 527.615 1.52717 -1.07399 0
M  V30 5460 C 527.966 1.92956 0.355298 0
M  V30 5461 O 527.091 1.77112 1.2434 0
M  V30 5462 C 527.686 2.77521 -1.94339 0
M  V30 5463 C 526.245 3.29615 -1.81744 0
M  V30 5464 C 525.392 2.02537 -1.89405 0
M  V30 5465 H 528.343 0.788399 -1.37732 0
M  V30 5466 H 528.364 3.50773 -1.47439 0
M  V30 5467 H 527.876 2.48203 -2.98357 0
M  V30 5468 H 525.977 3.63789 -0.805505 0
M  V30 5469 H 526.09 3.98661 -2.65718 0
M  V30 5470 H 524.454 2.17151 -1.33108 0
M  V30 5471 H 525.237 1.75587 -2.94999 0
M  V30 5472 N 527.682 1.05563 1.17022 0
M  V30 5473 C 529.093 0.793475 1.69 0
M  V30 5474 C 529.444 -0.683882 1.83895 0
M  V30 5475 O 528.569 -1.53116 1.5292 0
M  V30 5476 C 529.164 1.43376 3.06967 0
M  V30 5477 C 527.723 1.21956 3.56095 0
M  V30 5478 C 526.87 1.51494 2.3226 0
M  V30 5479 H 529.821 1.22008 1.01487 0
M  V30 5480 H 529.842 0.845068 3.70997 0
M  V30 5481 H 529.354 2.50899 2.96093 0
M  V30 5482 H 527.455 0.163749 3.7224 0
M  V30 5483 H 527.568 1.92713 4.38633 0
M  V30 5484 H 525.932 0.935175 2.3691 0
M  V30 5485 H 526.715 2.60159 2.23992 0
M  V30 5486 N 529.16 -1.33526 0.837174 0
M  V30 5487 C 530.576 -1.50727 0.524743 0
M  V30 5488 C 530.776 -1.77792 -0.948279 0
M  V30 5489 O 529.832 -1.83719 -1.73216 0
M  V30 5490 C 531.145 -2.66299 1.39661 0
M  V30 5491 C 532.693 -2.80183 1.39521 0
M  V30 5492 C 533.168 -3.98815 2.25189 0
M  V30 5493 N 534.659 -4.06047 2.2289 0
M  V30 5494 C 535.394 -4.97032 2.85915 0
M  V30 5495 N 534.89 -5.93143 3.57985 0
M  V30 5496 N 536.683 -4.90015 2.75394 0
M  V30 5497 H 528.834 -1.1422 1.79074 0
M  V30 5498 H 531.097 -0.561399 0.763894 0
M  V30 5499 H 530.803 -2.52974 2.4433 0
M  V30 5500 H 530.677 -3.61663 1.07145 0
M  V30 5501 H 533.064 -2.92942 0.356253 0
M  V30 5502 H 533.145 -1.85586 1.76044 0
M  V30 5503 H 532.789 -3.86817 3.29143 0
M  V30 5504 H 532.719 -4.92654 1.86009 0
M  V30 5505 H 535.21 -3.37262 1.70478 0
M  V30 5506 H 535.523 -6.59227 4.03286 0
M  V30 5507 H 533.868 -5.93223 3.62093 0
M  V30 5508 H 537.059 -4.13894 2.18654 0
M  V30 5509 H 537.232 -5.60724 3.24796 0
M  V30 5510 N 530.638 -0.59345 -1.46 0
M  V30 5511 C 531.886 -0.082988 -2.0193 0
M  V30 5512 C 532.207 1.28569 -1.46612 0
M  V30 5513 O 531.477 1.84629 -0.654909 0
M  V30 5514 H 530.057 -0.0276882 -0.746487 0
M  V30 5515 H 532.719 -0.771657 -1.78973 0
M  V30 5516 H 531.815 -0.022079 -3.12092 0
M  V30 5517 N 532.116 1.54067 -0.331816 0
M  V30 5518 C 533.046 2.27569 0.522932 0
M  V30 5519 C 534.027 1.28679 1.11247 0
M  V30 5520 O 535.212 1.57504 1.13605 0
M  V30 5521 C 532.342 3.0397 1.67987 0
M  V30 5522 C 531.296 4.10267 1.21924 0
M  V30 5523 C 530.622 4.74555 2.46377 0
M  V30 5524 C 531.922 5.21268 0.32815 0
M  V30 5525 H 533.616 2.99264 -0.0901977 0
M  V30 5526 H 531.162 1.4393 -0.044821 0
M  V30 5527 H 533.115 3.54123 2.28418 0
M  V30 5528 H 531.839 2.29906 2.31971 0
M  V30 5529 H 530.498 3.61009 0.637809 0
M  V30 5530 H 530.146 3.97098 3.08743 0
M  V30 5531 H 529.846 5.46363 2.16243 0
M  V30 5532 H 531.37 5.27487 3.07555 0
M  V30 5533 H 532.784 5.67128 0.838978 0
M  V30 5534 H 531.181 5.99982 0.119228 0
M  V30 5535 H 532.251 4.80673 -0.638839 0
M  V30 5536 N 533.594 0.0601682 1.57485 0
M  V30 5537 C 534.541 -0.91112 2.12055 0
M  V30 5538 C 535.511 -1.30298 1.03013 0
M  V30 5539 O 536.696 -1.39087 1.30612 0
M  V30 5540 C 533.836 -2.1775 2.67729 0
M  V30 5541 C 532.949 -1.83933 3.90887 0
M  V30 5542 C 532.084 -3.05096 4.34845 0
M  V30 5543 C 531.123 -2.67241 5.5068 0
M  V30 5544 N 530.26 -3.81127 5.8965 0
M  V30 5545 H 535.1 -0.43888 2.9475 0
M  V30 5546 H 532.637 -0.204995 1.45665 0
M  V30 5547 H 534.595 -2.91866 2.98111 0
M  V30 5548 H 533.225 -2.62535 1.87816 0
M  V30 5549 H 532.277 -0.999287 3.6704 0
M  V30 5550 H 533.589 -1.52074 4.75052 0
M  V30 5551 H 532.743 -3.87502 4.66827 0
M  V30 5552 H 531.482 -3.40139 3.49509 0
M  V30 5553 H 530.487 -1.83254 5.18361 0
M  V30 5554 H 531.712 -2.3338 6.37738 0
M  V30 5555 H 529.658 -4.15954 5.07266 0
M  V30 5556 H 529.575 -3.52997 6.68528 0
M  V30 5557 H 530.843 -4.64145 6.2625 0
M  V30 5558 N 535.072 -1.5615 -0.213296 0
M  V30 5559 C 536.005 -1.88115 -1.29182 0
M  V30 5560 C 536.983 -0.739348 -1.44819 0
M  V30 5561 O 538.167 -0.988541 -1.605 0
M  V30 5562 C 535.294 -2.09541 -2.66102 0
M  V30 5563 C 534.34 -3.32236 -2.67436 0
M  V30 5564 S 535.173 -4.87915 -2.20679 0
M  V30 5565 C 536.329 -5.12387 -3.59458 0
M  V30 5566 H 536.562 -2.793 -1.01876 0
M  V30 5567 H 534.095 -1.48692 -0.415934 0
M  V30 5568 H 536.053 -2.22568 -3.44925 0
M  V30 5569 H 534.714 -1.19138 -2.90628 0
M  V30 5570 H 533.907 -3.44297 -3.6807 0
M  V30 5571 H 533.509 -3.18108 -1.96681 0
M  V30 5572 H 535.801 -5.01791 -4.55205 0
M  V30 5573 H 536.744 -6.14236 -3.52306 0
M  V30 5574 H 537.152 -4.40089 -3.53528 0
M  V30 5575 N 536.55 0.480323 -1.50102 0
M  V30 5576 C 537.513 1.56181 -1.6775 0
M  V30 5577 C 538.513 1.51156 -0.548503 0
M  V30 5578 O 539.703 1.5394 -0.815363 0
M  V30 5579 C 536.835 2.95823 -1.69415 0
M  V30 5580 H 538.028 1.41855 -2.6423 0
M  V30 5581 H 535.581 0.70605 -1.39444 0
M  V30 5582 H 536.316 3.15604 -0.745948 0
M  V30 5583 H 536.101 3.00878 -2.51425 0
M  V30 5584 H 537.591 3.74359 -1.85054 0
M  V30 5585 N 538.028 1.39524 0.732853 0
M  V30 5586 C 539.274 1.37068 1.49467 0
M  V30 5587 C 539.607 -0.0327166 1.94172 0
M  V30 5588 O 538.882 -0.998071 1.66939 0
M  V30 5589 C 539.165 2.34494 2.73285 0
M  V30 5590 C 539.018 3.83784 2.34585 0
M  V30 5591 C 540.337 2.29717 3.75391 0
M  V30 5592 H 537.456 0.499206 0.542183 0
M  V30 5593 H 540.098 1.70532 0.837783 0
M  V30 5594 H 538.248 2.06087 3.29333 0
M  V30 5595 H 539.92 4.22949 1.84151 0
M  V30 5596 H 538.163 4.00455 1.66787 0
M  V30 5597 H 538.834 4.47444 3.23262 0
M  V30 5598 H 541.31 2.54839 3.28932 0
M  V30 5599 H 540.186 2.99962 4.59689 0
M  V30 5600 H 540.447 1.30291 4.22465 0
M  V30 5601 N 539.506 -0.963266 1.24736 0
M  V30 5602 C 540.734 -1.74166 1.11686 0
M  V30 5603 C 541.149 -1.8589 -0.330187 0
M  V30 5604 O 540.506 -1.35042 -1.2276 0
M  V30 5605 C 540.557 -3.15989 1.75595 0
M  V30 5606 O 540.278 -3.04847 3.14642 0
M  V30 5607 C 541.779 -4.10145 1.68213 0
M  V30 5608 H 538.999 -0.546031 0.389989 0
M  V30 5609 H 541.543 -1.20907 1.64929 0
M  V30 5610 H 539.698 -3.66219 1.26343 0
M  V30 5611 H 540.112 -3.9425 3.4593 0
M  V30 5612 H 541.586 -5.07299 2.17604 0
M  V30 5613 H 542.063 -4.3445 0.644208 0
M  V30 5614 H 542.669 -3.65827 2.16912 0
M  V30 5615 N 540.985 -1.06182 -1.16461 0
M  V30 5616 C 542.232 -0.777863 -1.86964 0
M  V30 5617 C 542.56 0.695602 -1.81636 0
M  V30 5618 O 541.815 1.52532 -1.22607 0
M  V30 5619 C 542.114 -1.21633 -3.36066 0
M  V30 5620 C 541.78 -2.69371 -3.61594 0
M  V30 5621 C 540.442 -3.09727 -3.6827 0
M  V30 5622 C 542.794 -3.64791 -3.7226 0
M  V30 5623 C 540.122 -4.44345 -3.83112 0
M  V30 5624 C 542.474 -4.99155 -3.88623 0
M  V30 5625 C 541.138 -5.39149 -3.93541 0
M  V30 5626 H 540.408 -0.28464 -0.68415 0
M  V30 5627 H 543.055 -1.33071 -1.37711 0
M  V30 5628 H 541.36 -0.582651 -3.87443 0
M  V30 5629 H 543.057 -0.973682 -3.88999 0
M  V30 5630 H 539.647 -2.37124 -3.57029 0
M  V30 5631 H 543.831 -3.34746 -3.66413 0
M  V30 5632 H 539.087 -4.74819 -3.85172 0
M  V30 5633 H 543.261 -5.72976 -3.95817 0
M  V30 5634 H 540.888 -6.43464 -4.04794 0
M  V30 5635 N 542.463 1.3308 -0.844243 0
M  V30 5636 C 543.712 1.96868 -0.438833 0
M  V30 5637 C 544.025 1.67599 1.00846 0
M  V30 5638 O 545.231 2.25043 1.51881 0
M  V30 5639 C 543.687 3.5234 -0.73377 0
M  V30 5640 C 543.295 3.90481 -2.1961 0
M  V30 5641 C 545.039 4.22653 -0.395574 0
M  V30 5642 C 542.946 5.38954 -2.43481 0
M  V30 5643 H 541.876 0.736749 -0.160364 0
M  V30 5644 H 544.527 1.51623 -1.03358 0
M  V30 5645 H 542.909 3.95941 -0.068589 0
M  V30 5646 H 544.083 3.57922 -2.90221 0
M  V30 5647 H 542.398 3.33165 -2.4978 0
M  V30 5648 H 544.995 5.31848 -0.551477 0
M  V30 5649 H 545.338 4.11004 0.661921 0
M  V30 5650 H 545.871 3.84601 -1.01621 0
M  V30 5651 H 542.61 5.55612 -3.47816 0
M  V30 5652 H 542.13 5.72954 -1.77437 0
M  V30 5653 H 543.809 6.05907 -2.26905 0
M  V30 5654 N 543.941 0.601185 1.45683 0
M  V30 5655 C 545.189 0.0936957 2.01883 0
M  V30 5656 C 545.51 -1.2779 1.47291 0
M  V30 5657 O 544.78 -1.84279 0.664691 0
M  V30 5658 H 543.36 0.0316466 0.746329 0
M  V30 5659 H 546.022 0.781137 1.78562 0
M  V30 5660 H 545.118 0.0386297 3.12076 0
M  V30 5661 N 545.419 -1.53889 0.339982 0
M  V30 5662 C 546.367 -2.26391 -0.533822 0
M  V30 5663 C 547.361 -1.28404 -1.10493 0
M  V30 5664 O 548.567 -1.46124 -1.05108 0
M  V30 5665 H 544.942 -0.727385 -0.190828 0
M  V30 5666 H 546.913 -2.98233 0.0997484 0
M  V30 5667 C 545.662 -3.04707 -1.67479 0
M  V30 5668 H 544.985 -3.79934 -1.2446 0
M  V30 5669 H 546.425 -3.58657 -2.26144 0
M  V30 5670 C 544.884 -2.13989 -2.60212 0
M  V30 5671 O 545.414 -1.73361 -3.62366 0
M  V30 5672 N 543.62 -1.79141 -2.28816 0
M  V30 5673 H 543.167 -2.12378 -1.45785 0
M  V30 5674 H 543.125 -1.18725 -2.91121 0
M  V30 5675 N 546.897 -0.0685191 -1.57451 0
M  V30 5676 C 548.122 0.613919 -1.98106 0
M  V30 5677 C 548.547 1.62551 -0.946501 0
M  V30 5678 O 547.905 1.81085 0.0882824 0
M  V30 5679 C 547.953 1.26189 -3.378 0
M  V30 5680 O 547.057 2.37773 -3.36954 0
M  V30 5681 H 546.398 0.158163 -0.644888 0
M  V30 5682 H 548.928 -0.142063 -2.04106 0
M  V30 5683 H 548.938 1.60951 -3.74912 0
M  V30 5684 H 547.613 0.520625 -4.12629 0
M  V30 5685 H 546.19 2.04829 -3.11608 0
M  V30 5686 N 548.375 1.56261 0.205012 0
M  V30 5687 C 549.603 1.84141 0.943386 0
M  V30 5688 C 550.018 0.649772 1.77266 0
M  V30 5689 O 549.375 -0.381612 1.78466 0
M  V30 5690 C 549.426 3.10719 1.84759 0
M  V30 5691 O 549.147 4.25286 1.05181 0
M  V30 5692 C 550.648 3.51706 2.69848 0
M  V30 5693 H 547.868 0.611734 0.275721 0
M  V30 5694 H 550.412 2.03364 0.215253 0
M  V30 5695 H 548.567 2.93422 2.52947 0
M  V30 5696 H 548.981 4.97301 1.66709 0
M  V30 5697 H 550.455 4.43266 3.28967 0
M  V30 5698 H 550.932 2.7423 3.43067 0
M  V30 5699 H 551.538 3.71499 2.07047 0
M  V30 5700 N 549.853 -0.472356 1.50355 0
M  V30 5701 C 550.816 -1.5529 1.68576 0
M  V30 5702 C 551.816 -1.50863 0.556511 0
M  V30 5703 O 553.006 -1.53505 0.823516 0
M  V30 5704 C 550.138 -2.94921 1.70981 0
M  V30 5705 H 551.331 -1.40451 2.64978 0
M  V30 5706 H 548.884 -0.698645 1.39816 0
M  V30 5707 H 549.619 -3.15204 0.762675 0
M  V30 5708 H 549.404 -2.99541 2.53017 0
M  V30 5709 H 550.894 -3.73372 1.87037 0
M  V30 5710 N 551.331 -1.39911 -0.725443 0
M  V30 5711 C 552.58 -1.36963 -1.48068 0
M  V30 5712 C 552.893 0.0284478 -1.95579 0
M  V30 5713 O 554.099 0.180535 -2.70899 0
M  V30 5714 C 552.555 -2.40664 -2.67598 0
M  V30 5715 C 552.163 -3.86234 -2.26997 0
M  V30 5716 C 553.907 -2.46807 -3.45379 0
M  V30 5717 C 551.814 -4.81554 -3.43307 0
M  V30 5718 H 550.744 -0.509223 -0.556065 0
M  V30 5719 H 553.395 -1.65602 -0.790454 0
M  V30 5720 H 551.777 -2.05109 -3.38742 0
M  V30 5721 H 552.951 -4.3088 -1.63337 0
M  V30 5722 H 551.266 -3.83475 -1.62284 0
M  V30 5723 H 553.863 -3.15213 -4.31909 0
M  V30 5724 H 554.206 -1.49552 -3.8851 0
M  V30 5725 H 554.739 -2.81303 -2.81271 0
M  V30 5726 H 551.478 -5.80106 -3.05217 0
M  V30 5727 H 550.998 -4.4158 -4.05915 0
M  V30 5728 H 552.677 -5.0091 -4.0951 0
M  V30 5729 N 552.809 0.956637 -1.25245 0
M  V30 5730 C 553.741 2.05628 -1.01242 0
M  V30 5731 C 554.754 1.62785 0.0219579 0
M  V30 5732 O 555.943 1.77184 -0.216365 0
M  V30 5733 C 553.043 3.35069 -0.508161 0
M  V30 5734 C 552.216 4.06761 -1.60823 0
M  V30 5735 C 551.275 5.14473 -1.1047 0
M  V30 5736 O 550.301 5.40033 -1.79868 0
M  V30 5737 N 551.503 5.80474 0.0550773 0
M  V30 5738 H 554.268 2.2679 -1.95925 0
M  V30 5739 H 551.829 1.12505 -1.16423 0
M  V30 5740 H 553.821 4.044 -0.155819 0
M  V30 5741 H 552.391 3.10694 0.344683 0
M  V30 5742 H 551.611 3.31555 -2.13224 0
M  V30 5743 H 552.899 4.51418 -2.34733 0
M  V30 5744 H 552.297 5.62125 0.635004 0
M  V30 5745 H 550.854 6.50868 0.348469 0
M  V30 5746 N 554.287 1.06798 1.15896 0
M  V30 5747 C 555.197 0.694564 2.24083 0
M  V30 5748 C 556.213 -0.291687 1.71538 0
M  V30 5749 O 557.389 -0.139723 2.00915 0
M  V30 5750 C 554.454 0.0921014 3.46578 0
M  V30 5751 C 553.515 1.13087 4.14137 0
M  V30 5752 C 552.748 0.557064 5.30785 0
M  V30 5753 O 552.971 -0.628623 5.66925 0
M  V30 5754 O 551.905 1.29924 5.8771 0
M  V30 5755 H 555.731 1.59663 2.58344 0
M  V30 5756 H 553.316 0.840575 1.2351 0
M  V30 5757 H 555.198 -0.241884 4.20705 0
M  V30 5758 H 553.873 -0.78337 3.14078 0
M  V30 5759 H 552.78 1.51712 3.41957 0
M  V30 5760 H 554.113 1.97805 4.50704 0
M  V30 5761 N 555.766 -1.3263 0.851289 0
M  V30 5762 C 556.696 -2.31449 0.308771 0
M  V30 5763 C 557.677 -1.59531 -0.590255 0
M  V30 5764 O 558.862 -1.87351 -0.511205 0
M  V30 5765 C 555.992 -3.43586 -0.506548 0
M  V30 5766 C 554.946 -4.26963 0.297753 0
M  V30 5767 C 554.272 -5.30831 -0.642094 0
M  V30 5768 C 555.572 -4.99643 1.52166 0
M  V30 5769 H 557.266 -2.77074 1.13447 0
M  V30 5770 H 554.812 -1.33207 0.546971 0
M  V30 5771 H 556.765 -4.11754 -0.896474 0
M  V30 5772 H 555.489 -2.96681 -1.36558 0
M  V30 5773 H 554.148 -3.60437 0.669391 0
M  V30 5774 H 553.796 -4.8018 -1.49788 0
M  V30 5775 H 553.496 -5.87501 -0.107968 0
M  V30 5776 H 555.02 -6.01862 -1.02927 0
M  V30 5777 H 556.434 -5.6051 1.20421 0
M  V30 5778 H 554.831 -5.66022 1.99347 0
M  V30 5779 H 555.901 -4.27701 2.28474 0
M  V30 5780 N 557.244 -0.608902 -1.45362 0
M  V30 5781 C 558.491 -0.104607 -2.0223 0
M  V30 5782 C 558.819 1.26534 -1.47714 0
M  V30 5783 O 558.074 1.84855 -0.642435 0
M  V30 5784 C 558.373 -0.0167296 -3.57396 0
M  V30 5785 C 558.039 -1.32251 -4.31069 0
M  V30 5786 C 556.701 -1.68019 -4.50914 0
M  V30 5787 C 559.053 -2.18542 -4.73169 0
M  V30 5788 C 556.381 -2.89828 -5.10114 0
M  V30 5789 C 558.733 -3.39602 -5.33717 0
M  V30 5790 C 557.397 -3.7562 -5.51784 0
M  V30 5791 H 556.667 -0.0382785 -0.740011 0
M  V30 5792 H 559.314 -0.790782 -1.7441 0
M  V30 5793 H 557.619 0.752715 -3.84502 0
M  V30 5794 H 559.316 0.389634 -3.99103 0
M  V30 5795 H 555.906 -1.03411 -4.15938 0
M  V30 5796 H 560.09 -1.92208 -4.5757 0
M  V30 5797 H 555.346 -3.17839 -5.22291 0
M  V30 5798 H 559.52 -4.06716 -5.65292 0
M  V30 5799 H 557.147 -4.70093 -5.97425 0
M  V30 5800 N 558.722 1.53707 -0.348139 0
M  V30 5801 C 559.669 2.25173 0.506518 0
M  V30 5802 C 560.639 1.25174 1.09182 0
M  V30 5803 O 561.824 1.53917 1.12757 0
M  V30 5804 C 558.964 3.03141 1.64923 0
M  V30 5805 C 558.077 4.18002 1.0908 0
M  V30 5806 C 557.212 4.83447 2.20119 0
M  V30 5807 C 556.251 5.90369 1.61651 0
M  V30 5808 N 555.388 6.49575 2.66451 0
M  V30 5809 H 560.228 2.97799 -0.109452 0
M  V30 5810 H 557.765 1.46953 -0.0657866 0
M  V30 5811 H 559.723 3.46607 2.32205 0
M  V30 5812 H 558.353 2.32803 2.23612 0
M  V30 5813 H 557.405 3.79145 0.308783 0
M  V30 5814 H 558.717 4.94892 0.623178 0
M  V30 5815 H 557.871 5.30008 2.95257 0
M  V30 5816 H 556.61 4.05991 2.70227 0
M  V30 5817 H 555.615 5.43186 0.850209 0
M  V30 5818 H 556.84 6.69735 1.1239 0
M  V30 5819 H 554.786 5.74981 3.15805 0
M  V30 5820 H 554.703 7.21952 2.24325 0
M  V30 5821 H 555.971 7.00789 3.41344 0
M  V30 5822 N 560.2 0.0768682 1.57412 0
M  V30 5823 C 561.616 -0.279772 1.57129 0
M  V30 5824 C 561.816 -1.69688 1.08666 0
M  V30 5825 O 560.872 -2.40953 0.754843 0
M  V30 5826 C 562.185 -0.0848055 3.0058 0
M  V30 5827 C 563.733 -0.153954 3.12621 0
M  V30 5828 C 564.208 0.0127946 4.57998 0
M  V30 5829 N 565.699 -0.0426435 4.6318 0
M  V30 5830 C 566.434 0.0618892 5.73367 0
M  V30 5831 N 565.93 0.220229 6.9245 0
M  V30 5832 N 567.723 0.00446072 5.621 0
M  V30 5833 H 559.874 1.00297 1.87228 0
M  V30 5834 H 562.137 0.391565 0.863354 0
M  V30 5835 H 561.843 0.89325 3.40168 0
M  V30 5836 H 561.717 -0.834961 3.67843 0
M  V30 5837 H 564.104 -1.1225 2.72917 0
M  V30 5838 H 564.185 0.627389 2.47987 0
M  V30 5839 H 563.829 0.978128 4.98392 0
M  V30 5840 H 563.759 -0.788016 5.20671 0
M  V30 5841 H 566.25 -0.163226 3.77547 0
M  V30 5842 H 566.563 0.291999 7.72248 0
M  V30 5843 H 564.908 0.255658 6.9453 0
M  V30 5844 H 568.099 -0.117979 4.67951 0
M  V30 5845 H 568.272 0.0893796 6.47938 0
M  V30 5846 N 561.678 -1.56367 -0.196722 0
M  V30 5847 C 562.927 -1.79724 -0.915539 0
M  V30 5848 C 563.24 -0.649804 -1.84491 0
M  V30 5849 O 564.446 -0.767631 -2.60422 0
M  V30 5850 C 562.902 -3.18369 -1.67836 0
M  V30 5851 C 562.51 -4.4091 -0.793897 0
M  V30 5852 C 564.254 -3.51037 -2.38691 0
M  V30 5853 C 562.161 -5.70577 -1.55549 0
M  V30 5854 H 561.091 -0.67013 -0.345604 0
M  V30 5855 H 563.742 -1.82721 -0.168856 0
M  V30 5856 H 562.124 -3.09617 -2.46887 0
M  V30 5857 H 563.298 -4.60781 -0.042163 0
M  V30 5858 H 561.613 -4.15937 -0.19626 0
M  V30 5859 H 564.21 -4.4515 -2.96219 0
M  V30 5860 H 564.553 -2.74704 -3.12799 0
M  V30 5861 H 565.086 -3.61229 -1.66608 0
M  V30 5862 H 561.825 -6.49871 -0.857226 0
M  V30 5863 H 561.345 -5.54726 -2.2812 0
M  V30 5864 H 563.024 -6.11637 -2.10971 0
M  V30 5865 N 563.156 0.464375 -1.50603 0
M  V30 5866 C 564.381 1.24372 -1.65971 0
M  V30 5867 C 564.806 1.84901 -0.345453 0
M  V30 5868 O 564.164 1.67596 0.691457 0
M  V30 5869 C 564.212 2.32331 -2.7578 0
M  V30 5870 O 563.316 3.37146 -2.375 0
M  V30 5871 H 562.657 0.365604 -0.554283 0
M  V30 5872 H 565.187 0.55183 -1.97018 0
M  V30 5873 H 565.197 2.77539 -2.99059 0
M  V30 5874 H 563.872 1.87648 -3.71162 0
M  V30 5875 H 562.449 2.97602 -2.24694 0
M  V30 5876 N 564.634 1.40294 0.718013 0
M  V30 5877 C 565.544 1.42678 1.86226 0
M  V30 5878 C 566.56 0.319655 1.71039 0
M  V30 5879 O 567.736 0.563852 1.93346 0
M  V30 5880 C 564.801 1.2852 3.21999 0
M  V30 5881 C 563.862 2.49354 3.49458 0
M  V30 5882 C 563.095 2.35863 4.78753 0
M  V30 5883 O 563.318 1.37114 5.53675 0
M  V30 5884 O 562.252 3.25189 5.06494 0
M  V30 5885 H 566.078 2.39167 1.87171 0
M  V30 5886 H 563.663 1.2159 0.868112 0
M  V30 5887 H 565.545 1.22824 4.03103 0
M  V30 5888 H 564.22 0.351359 3.21787 0
M  V30 5889 H 563.127 2.60628 2.68373 0
M  V30 5890 H 564.46 3.41491 3.54464 0
M  V30 5891 N 566.112 -0.949982 1.2575 0
M  V30 5892 C 567.044 -2.05088 1.02331 0
M  V30 5893 C 568.057 -1.62795 -0.0133247 0
M  V30 5894 O 569.246 -1.77067 0.225759 0
M  V30 5895 C 566.346 -3.34794 0.525924 0
M  V30 5896 C 565.519 -4.05903 1.62978 0
M  V30 5897 C 564.578 -5.1388 1.13196 0
M  V30 5898 O 563.604 -5.39072 1.82729 0
M  V30 5899 N 564.806 -5.80495 -0.0242926 0
M  V30 5900 H 567.571 -2.25747 1.97125 0
M  V30 5901 H 565.132 -1.11886 1.17018 0
M  V30 5902 H 567.124 -4.04312 0.177263 0
M  V30 5903 H 565.694 -3.10872 -0.328202 0
M  V30 5904 H 564.914 -3.3042 2.1498 0
M  V30 5905 H 566.202 -4.50166 2.37124 0
M  V30 5906 H 565.6 -5.62454 -0.605184 0
M  V30 5907 H 564.157 -6.51043 -0.313947 0
M  V30 5908 N 567.59 -1.07411 -1.15328 0
M  V30 5909 C 568.837 -0.797649 -1.86128 0
M  V30 5910 C 569.165 0.676298 -1.82364 0
M  V30 5911 O 568.42 1.51223 -1.24218 0
M  V30 5912 C 568.719 -1.25191 -3.34757 0
M  V30 5913 C 568.385 -2.73191 -3.58716 0
M  V30 5914 C 567.047 -3.13616 -3.64964 0
M  V30 5915 C 569.399 -3.68718 -3.6837 0
M  V30 5916 C 566.727 -4.48383 -3.78377 0
M  V30 5917 C 569.079 -5.03248 -3.83306 0
M  V30 5918 C 567.743 -5.43293 -3.878 0
M  V30 5919 H 567.013 -0.29188 -0.681092 0
M  V30 5920 H 569.66 -1.34524 -1.36292 0
M  V30 5921 H 567.965 -0.623712 -3.86804 0
M  V30 5922 H 569.662 -1.01489 -3.87945 0
M  V30 5923 H 566.252 -2.40898 -3.54494 0
M  V30 5924 H 570.436 -3.38614 -3.62842 0
M  V30 5925 H 565.692 -4.78877 -3.80114 0
M  V30 5926 H 569.866 -5.77142 -3.89718 0
M  V30 5927 H 567.493 -6.47721 -3.97946 0
M  V30 5928 N 569.068 1.32177 -0.85831 0
M  V30 5929 C 570.296 2.01313 -0.477582 0
M  V30 5930 C 570.711 1.6449 0.926736 0
M  V30 5931 O 570.068 0.868096 1.60531 0
M  V30 5932 C 570.119 3.56293 -0.611337 0
M  V30 5933 O 569.84 3.91794 -1.96034 0
M  V30 5934 C 571.341 4.42702 -0.230093 0
M  V30 5935 H 568.561 0.644323 -0.187322 0
M  V30 5936 H 571.105 1.68674 -1.15626 0
M  V30 5937 H 569.26 3.87395 0.0196494 0
M  V30 5938 H 569.674 4.86513 -1.95973 0
M  V30 5939 H 571.148 5.50727 -0.374674 0
M  V30 5940 H 571.625 4.3129 0.829779 0
M  V30 5941 H 572.231 4.16997 -0.836302 0
M  V30 5942 N 570.547 0.616602 1.45037 0
M  V30 5943 C 571.51 -0.0871112 2.29034 0
M  V30 5944 C 572.51 -0.786414 1.40258 0
M  V30 5945 O 573.7 -0.633207 1.62284 0
M  V30 5946 C 570.832 -1.13369 3.21497 0
M  V30 5947 H 572.025 0.651497 2.92738 0
M  V30 5948 H 569.578 0.376058 1.51709 0
M  V30 5949 H 570.313 -1.90277 2.62612 0
M  V30 5950 H 570.098 -0.636358 3.86902 0
M  V30 5951 H 571.588 -1.62627 3.84633 0
M  V30 5952 N 572.025 -1.5352 0.356285 0
M  V30 5953 C 572.958 -2.2177 -0.537913 0
M  V30 5954 C 573.936 -1.20626 -1.09033 0
M  V30 5955 O 575.12 -1.49494 -1.1482 0
M  V30 5956 C 572.247 -2.90513 -1.74126 0
M  V30 5957 C 571.293 -4.05652 -1.31715 0
M  V30 5958 S 572.126 -5.34505 -0.326236 0
M  V30 5959 C 573.282 -6.06757 -1.53612 0
M  V30 5960 H 573.515 -2.97271 0.0417411 0
M  V30 5961 H 571.048 -1.53761 0.140372 0
M  V30 5962 H 573.006 -3.30735 -2.43155 0
M  V30 5963 H 571.667 -2.14754 -2.29215 0
M  V30 5964 H 570.86 -4.52733 -2.21471 0
M  V30 5965 H 570.462 -3.67272 -0.706183 0
M  V30 5966 H 572.754 -6.30924 -2.46863 0
M  V30 5967 H 573.697 -6.99395 -1.10687 0
M  V30 5968 H 574.105 -5.3708 -1.73796 0
M  V30 5969 N 573.503 -0.0852151 -1.57369 0
M  V30 5970 C 574.75 0.580806 -1.93992 0
M  V30 5971 C 575.078 1.68801 -0.966252 0
M  V30 5972 O 574.333 1.95694 0.0158649 0
M  V30 5973 C 574.632 1.18482 -3.3719 0
M  V30 5974 C 574.298 0.2024 -4.50446 0
M  V30 5975 C 572.96 -0.0678318 -4.81152 0
M  V30 5976 C 575.312 -0.46895 -5.19086 0
M  V30 5977 C 572.64 -1.01627 -5.77831 0
M  V30 5978 C 574.992 -1.4058 -6.16782 0
M  V30 5979 C 573.656 -1.68436 -6.45899 0
M  V30 5980 H 572.926 0.212532 -0.709867 0
M  V30 5981 H 575.573 -0.158947 -1.90839 0
M  V30 5982 H 573.878 2.0006 -3.36873 0
M  V30 5983 H 575.575 1.70767 -3.62822 0
M  V30 5984 H 572.165 0.423208 -4.26505 0
M  V30 5985 H 576.349 -0.273307 -4.95547 0
M  V30 5986 H 571.605 -1.2392 -5.9871 0
M  V30 5987 H 575.779 -1.93188 -6.69068 0
M  V30 5988 H 573.406 -2.42088 -7.20623 0
M  V30 5989 N 574.981 1.5647 0.188427 0
M  V30 5990 C 576.397 1.50204 0.539532 0
M  V30 5991 C 576.597 0.78644 1.85519 0
M  V30 5992 O 575.653 0.339714 2.50204 0
M  V30 5993 C 576.966 2.94893 0.588103 0
M  V30 5994 C 578.514 3.05602 0.67648 0
M  V30 5995 C 578.989 4.51716 0.756101 0
M  V30 5996 N 580.48 4.55894 0.819451 0
M  V30 5997 C 581.215 5.66272 0.90134 0
M  V30 5998 N 580.711 6.86323 0.945118 0
M  V30 5999 N 582.504 5.54201 0.939043 0
M  V30 6000 H 574.655 2.01406 -0.674493 0
M  V30 6001 H 576.918 0.916828 -0.241103 0
M  V30 6002 H 576.624 3.50334 -0.309633 0
M  V30 6003 H 576.498 3.4861 1.44051 0
M  V30 6004 H 578.885 2.50206 1.56465 0
M  V30 6005 H 578.966 2.54999 -0.202262 0
M  V30 6006 H 578.61 5.07739 -0.12774 0
M  V30 6007 H 578.54 5.00058 1.65074 0
M  V30 6008 H 581.031 3.69452 0.794594 0
M  V30 6009 H 581.344 7.66194 1.0083 0
M  V30 6010 H 579.689 6.88968 0.913683 0
M  V30 6011 H 582.88 4.59333 0.901725 0
M  V30 6012 H 583.053 6.40247 0.999402 0
M  V30 6013 N 576.459 -0.456382 1.50847 0
M  V30 6014 C 577.875 -0.791345 1.386 0
M  V30 6015 C 578.075 -1.9633 0.453498 0
M  V30 6016 O 577.131 -2.52308 -0.0984353 0
M  V30 6017 C 578.444 -1.08959 2.80265 0
M  V30 6018 C 579.992 -1.19517 2.89283 0
M  V30 6019 C 580.467 -1.52647 4.31814 0
M  V30 6020 N 581.958 -1.59609 4.34832 0
M  V30 6021 C 582.693 -1.86777 5.42127 0
M  V30 6022 N 582.189 -2.11866 6.59609 0
M  V30 6023 N 583.982 -1.88402 5.29586 0
M  V30 6024 H 576.133 0.315746 2.1004 0
M  V30 6025 H 578.396 0.0787916 0.94472 0
M  V30 6026 H 578.102 -0.301355 3.50407 0
M  V30 6027 H 577.976 -2.02211 3.18419 0
M  V30 6028 H 580.363 -1.97406 2.19351 0
M  V30 6029 H 580.444 -0.242111 2.54652 0
M  V30 6030 H 580.088 -0.752922 5.02288 0
M  V30 6031 H 580.018 -2.49127 4.63943 0
M  V30 6032 H 582.509 -1.42201 3.50125 0
M  V30 6033 H 582.822 -2.31912 7.37182 0
M  V30 6034 H 581.167 -2.09228 6.62758 0
M  V30 6035 H 584.358 -1.68307 4.36795 0
M  V30 6036 H 584.531 -2.09238 6.13289 0
M  V30 6037 N 577.937 -1.40673 -0.710563 0
M  V30 6038 C 578.884 -1.41336 -1.82463 0
M  V30 6039 C 579.854 -0.269648 -1.63897 0
M  V30 6040 O 581.039 -0.468463 -1.8496 0
M  V30 6041 C 578.179 -1.28665 -3.20218 0
M  V30 6042 C 577.292 -2.52784 -3.5032 0
M  V30 6043 C 576.427 -2.32517 -4.77608 0
M  V30 6044 C 575.466 -3.52187 -5.0063 0
M  V30 6045 N 574.603 -3.31084 -6.19135 0
M  V30 6046 H 579.443 -2.36558 -1.8123 0
M  V30 6047 H 576.98 -1.17483 -0.885226 0
M  V30 6048 H 578.938 -1.19324 -3.99772 0
M  V30 6049 H 577.568 -0.370602 -3.20666 0
M  V30 6050 H 576.62 -2.72634 -2.65283 0
M  V30 6051 H 577.932 -3.41845 -3.63241 0
M  V30 6052 H 577.086 -2.20558 -5.65189 0
M  V30 6053 H 575.825 -1.40889 -4.66906 0
M  V30 6054 H 574.83 -3.64617 -4.11502 0
M  V30 6055 H 576.055 -4.44749 -5.13201 0
M  V30 6056 H 574.001 -2.42143 -6.09674 0
M  V30 6057 H 573.918 -4.13713 -6.32754 0
M  V30 6058 H 575.186 -3.22868 -7.0949 0
M  V30 6059 N 579.415 0.9433 -1.26252 0
M  V30 6060 C 580.378 2.02326 -1.07689 0
M  V30 6061 C 581.378 1.60779 -0.0259174 0
M  V30 6062 O 582.568 1.72108 -0.269134 0
M  V30 6063 C 579.7 3.34886 -0.63752 0
M  V30 6064 H 580.893 2.20225 -2.0357 0
M  V30 6065 H 578.446 1.12197 -1.08819 0
M  V30 6066 H 579.181 3.22684 0.323377 0
M  V30 6067 H 578.966 3.66393 -1.39637 0
M  V30 6068 H 580.456 4.14231 -0.529418 0
M  V30 6069 N 580.893 1.08022 1.14757 0
M  V30 6070 C 582.14 0.807509 1.85703 0
M  V30 6071 C 582.468 -0.666617 1.8272 0
M  V30 6072 O 581.723 -1.50562 1.25018 0
M  V30 6073 C 582.022 1.26964 3.34088 0
M  V30 6074 C 581.688 2.7509 3.57262 0
M  V30 6075 C 580.35 3.15547 3.63296 0
M  V30 6076 C 582.702 3.70667 3.66409 0
M  V30 6077 C 580.03 4.50384 3.75994 0
M  V30 6078 C 582.382 5.05274 3.80632 0
M  V30 6079 C 581.046 5.45342 3.84913 0
M  V30 6080 H 580.316 0.295488 0.679535 0
M  V30 6081 H 582.963 1.35245 1.35577 0
M  V30 6082 H 581.268 0.644216 3.86467 0
M  V30 6083 H 582.965 1.03544 3.87401 0
M  V30 6084 H 579.555 2.42775 3.53212 0
M  V30 6085 H 583.739 3.40533 3.61041 0
M  V30 6086 H 578.995 4.80886 3.77569 0
M  V30 6087 H 583.169 5.79201 3.86652 0
M  V30 6088 H 580.796 6.49823 3.94505 0
M  V30 6089 N 582.371 -1.3172 0.865308 0
M  V30 6090 C 583.301 -2.31109 0.333302 0
M  V30 6091 C 584.282 -1.60148 -0.573301 0
M  V30 6092 O 585.467 -1.87882 -0.491305 0
M  V30 6093 C 582.597 -3.44104 -0.470078 0
M  V30 6094 C 581.551 -4.26623 0.343021 0
M  V30 6095 C 580.877 -5.31482 -0.585756 0
M  V30 6096 C 582.177 -4.98001 1.57456 0
M  V30 6097 H 583.871 -2.75855 1.1638 0
M  V30 6098 H 581.417 -1.3262 0.561069 0
M  V30 6099 H 583.37 -4.12682 -0.852752 0
M  V30 6100 H 582.094 -2.98112 -1.33404 0
M  V30 6101 H 580.753 -3.59707 0.707583 0
M  V30 6102 H 580.401 -4.81741 -1.44686 0
M  V30 6103 H 580.101 -5.87582 -0.0456494 0
M  V30 6104 H 581.625 -6.0292 -0.965375 0
M  V30 6105 H 583.039 -5.59201 1.26359 0
M  V30 6106 H 581.436 -5.63876 2.05339 0
M  V30 6107 H 582.506 -4.25253 2.32997 0
M  V30 6108 N 583.85 -0.624285 -1.44708 0
M  V30 6109 C 584.8 0.106466 -2.27751 0
M  V30 6110 C 585.784 0.822703 -1.38277 0
M  V30 6111 O 586.976 0.709939 -1.62138 0
M  V30 6112 C 584.105 1.092 -3.25469 0
M  V30 6113 C 583.191 0.375737 -4.22432 0
M  V30 6114 N 583.582 -0.591881 -5.02325 0
M  V30 6115 C 581.88 0.621093 -4.41654 0
M  V30 6116 C 582.581 -1.01443 -5.72786 0
M  V30 6117 N 581.557 -0.354651 -5.42442 0
M  V30 6118 H 585.359 -0.636464 -2.86926 0
M  V30 6119 H 582.873 -0.44925 -1.56062 0
M  V30 6120 H 584.87 1.63006 -3.83712 0
M  V30 6121 H 583.529 1.8353 -2.67856 0
M  V30 6122 H 584.541 -0.969389 -5.08747 0
M  V30 6123 H 581.218 1.34779 -3.95147 0
M  V30 6124 H 582.608 -1.81345 -6.46965 0
M  V30 6125 N 585.328 1.53329 -0.364422 0
M  V30 6126 C 586.574 2.02222 0.21855 0
M  V30 6127 C 586.929 1.24702 1.46517 0
M  V30 6128 O 586.222 0.331969 1.88702 0
M  V30 6129 C 586.416 3.52911 0.564661 0
M  V30 6130 C 586.245 4.45023 -0.646862 0
M  V30 6131 C 585.015 4.91838 -1.15858 0
M  V30 6132 C 587.213 4.91581 -1.51172 0
M  V30 6133 N 585.195 5.67955 -2.33025 0
M  V30 6134 C 586.566 5.66028 -2.53006 0
M  V30 6135 C 588.621 4.73656 -1.53473 0
M  V30 6136 C 587.324 6.24457 -3.56996 0
M  V30 6137 C 589.35 5.3295 -2.56356 0
M  V30 6138 C 588.712 6.07282 -3.56914 0
M  V30 6139 H 584.811 0.780832 0.0427199 0
M  V30 6140 H 587.395 1.87937 -0.508704 0
M  V30 6141 H 585.566 3.6736 1.26099 0
M  V30 6142 H 587.298 3.88528 1.13262 0
M  V30 6143 H 584.053 4.68043 -0.723393 0
M  V30 6144 H 584.477 6.10675 -2.92241 0
M  V30 6145 H 589.119 4.15714 -0.770842 0
M  V30 6146 H 586.837 6.81496 -4.34268 0
M  V30 6147 H 590.423 5.20976 -2.58989 0
M  V30 6148 H 589.303 6.52345 -4.35218 0
M  V30 6149 N 586.806 0.0935595 1.57322 0
M  V30 6150 C 588.036 -0.578095 1.98347 0
M  V30 6151 C 588.444 -1.62357 0.971441 0
M  V30 6152 O 587.787 -1.83639 -0.0473959 0
M  V30 6153 C 587.849 -1.28525 3.3574 0
M  V30 6154 C 587.513 -0.390714 4.55327 0
M  V30 6155 C 588.51 0.360522 5.18648 0
M  V30 6156 C 586.195 -0.309221 5.01347 0
M  V30 6157 C 588.189 1.18125 6.26359 0
M  V30 6158 C 585.876 0.515157 6.08925 0
M  V30 6159 C 586.874 1.25904 6.71295 0
M  V30 6160 O 586.562 2.06978 7.76798 0
M  V30 6161 H 586.294 -0.159767 0.656849 0
M  V30 6162 H 588.848 0.169058 2.04703 0
M  V30 6163 H 587.078 -2.07894 3.26063 0
M  V30 6164 H 588.767 -1.85128 3.61223 0
M  V30 6165 H 589.533 0.307285 4.84026 0
M  V30 6166 H 585.412 -0.877881 4.52564 0
M  V30 6167 H 588.956 1.76236 6.74971 0
M  V30 6168 H 584.853 0.56988 6.42979 0
M  V30 6169 H 585.621 1.99644 7.93779 0
M  V30 6170 N 588.284 -1.56567 -0.180126 0
M  V30 6171 C 589.512 -1.85618 -0.913972 0
M  V30 6172 C 589.927 -0.677892 -1.7621 0
M  V30 6173 O 589.284 0.353171 -1.7905 0
M  V30 6174 C 589.335 -3.13619 -1.79793 0
M  V30 6175 O 589.056 -4.26906 -0.98402 0
M  V30 6176 C 590.557 -3.55954 -2.64219 0
M  V30 6177 H 587.777 -0.616043 -0.265954 0
M  V30 6178 H 590.321 -2.03681 -0.182872 0
M  V30 6179 H 588.476 -2.97409 -2.48247 0
M  V30 6180 H 588.89 -4.9989 -1.58776 0
M  V30 6181 H 590.364 -4.48444 -3.21873 0
M  V30 6182 H 590.841 -2.79653 -3.38661 0
M  V30 6183 H 591.447 -3.74746 -2.01111 0
M  V30 6184 N 589.762 0.448376 -1.51087 0
M  V30 6185 C 591.01 1.19635 -1.62886 0
M  V30 6186 C 591.331 1.91977 -0.342024 0
M  V30 6187 O 590.601 1.85094 0.641636 0
M  V30 6188 H 589.181 0.444598 -0.600285 0
M  V30 6189 H 591.843 0.515138 -1.87969 0
M  V30 6190 H 590.939 1.93194 -2.45117 0
M  V30 6191 N 591.24 1.41047 0.703093 0
M  V30 6192 C 592.15 1.44645 1.84703 0
M  V30 6193 C 593.166 0.337778 1.7069 0
M  V30 6194 O 594.342 0.584327 1.92737 0
M  V30 6195 C 591.407 1.31928 3.20618 0
M  V30 6196 C 590.468 2.53047 3.46794 0
M  V30 6197 C 589.701 2.40927 4.76224 0
M  V30 6198 O 589.924 1.42978 5.5219 0
M  V30 6199 O 588.858 3.30543 5.03016 0
M  V30 6200 H 592.684 2.41139 1.84624 0
M  V30 6201 H 590.269 1.22504 0.855167 0
M  V30 6202 H 592.151 1.27092 4.01778 0
M  V30 6203 H 590.826 0.385469 3.21397 0
M  V30 6204 H 589.733 2.6346 2.65593 0
M  V30 6205 H 591.066 3.45231 3.50822 0
M  V30 6206 N 592.718 -0.936591 1.26751 0
M  V30 6207 C 593.966 -1.67998 1.12343 0
M  V30 6208 C 594.287 -1.92137 -0.332938 0
M  V30 6209 O 593.557 -1.52132 -1.23421 0
M  V30 6210 H 592.137 -0.622609 0.412756 0
M  V30 6211 H 594.799 -1.12509 1.59147 0
M  V30 6212 H 593.895 -2.65185 1.64571 0
M  V30 6213 N 594.196 -1.08629 -1.14182 0
M  V30 6214 C 595.129 -0.662329 -2.18377 0
M  V30 6215 C 596.107 0.327054 -1.59277 0
M  V30 6216 O 597.291 0.230376 -1.87087 0
M  V30 6217 C 594.418 0.0254765 -3.3869 0
M  V30 6218 C 593.464 -0.924414 -4.16361 0
M  V30 6219 S 594.297 -2.43226 -4.77076 0
M  V30 6220 C 595.453 -1.75663 -6.00744 0
M  V30 6221 H 595.686 -1.54501 -2.54001 0
M  V30 6222 H 593.219 -0.901484 -1.2535 0
M  V30 6223 H 595.177 0.416032 -4.08386 0
M  V30 6224 H 593.838 0.884689 -3.01384 0
M  V30 6225 H 593.031 -0.390099 -5.02488 0
M  V30 6226 H 592.633 -1.25598 -3.5228 0
M  V30 6227 H 594.925 -1.07589 -6.68903 0
M  V30 6228 H 595.868 -2.59673 -6.58768 0
M  V30 6229 H 596.276 -1.22903 -5.50958 0
M  V30 6230 N 595.674 1.31259 -0.872281 0
M  V30 6231 C 596.951 1.91362 -0.404943 0
M  V30 6232 C 597.331 1.79362 1.11321 0
M  V30 6233 O 596.679 1.20277 1.94283 0
M  V30 6234 C 596.889 3.3749 -0.888893 0
M  V30 6235 C 598.237 4.14593 -0.916384 0
M  V30 6236 O 599.261 3.46282 -0.834701 0
M  V30 6237 O 598.12 5.3661 -1.03498 0
M  V30 6238 H 595.214 0.818016 -0.121569 0
M  V30 6239 H 597.76 1.39912 -0.960346 0
M  V30 6240 H 596.532 3.40249 -1.93251 0
M  V30 6241 H 596.155 3.96375 -0.311932 0
M  V30 6242 N 597.152 0.631951 1.44375 0
M  V30 6243 C 598.062 -0.073674 2.34484 0
M  V30 6244 C 599.078 -0.834825 1.52665 0
M  V30 6245 O 600.254 -0.786902 1.85391 0
M  V30 6246 C 597.319 -1.04247 3.30656 0
M  V30 6247 C 596.38 -0.280602 4.28382 0
M  V30 6248 C 595.613 -1.20325 5.19959 0
M  V30 6249 O 595.836 -2.44199 5.15484 0
M  V30 6250 O 594.77 -0.687128 5.97965 0
M  V30 6251 H 598.596 0.667477 2.96274 0
M  V30 6252 H 596.181 0.392144 1.44162 0
M  V30 6253 H 598.063 -1.59981 3.89851 0
M  V30 6254 H 596.738 -1.76422 2.71398 0
M  V30 6255 H 595.645 0.319804 3.72731 0
M  V30 6256 H 596.978 0.401144 4.90563 0
M  V30 6257 N 598.631 -1.53133 0.372548 0
M  V30 6258 C 599.564 -2.22328 -0.514361 0
M  V30 6259 C 600.542 -1.21776 -1.07747 0
M  V30 6260 O 601.726 -1.50704 -1.13228 0
M  V30 6261 C 598.853 -2.92343 -1.71035 0
M  V30 6262 C 597.899 -4.07026 -1.27405 0
M  V30 6263 S 598.732 -5.34821 -0.269526 0
M  V30 6264 C 599.888 -6.08352 -1.47168 0
M  V30 6265 H 600.121 -2.9721 0.0732683 0
M  V30 6266 H 597.654 -1.53603 0.156673 0
M  V30 6267 H 599.612 -3.33296 -2.39634 0
M  V30 6268 H 598.273 -2.17173 -2.26925 0
M  V30 6269 H 597.466 -4.55056 -2.16656 0
M  V30 6270 H 597.068 -3.68001 -0.66719 0
M  V30 6271 H 599.36 -6.33507 -2.40157 0
M  V30 6272 H 600.303 -7.0053 -1.03263 0
M  V30 6273 H 600.711 -5.38893 -1.6809 0
M  V30 6274 N 600.109 -0.101901 -1.5727 0
M  V30 6275 C 601.019 0.868647 -2.17926 0
M  V30 6276 C 602.035 1.30527 -1.1506 0
M  V30 6277 O 603.211 1.37178 -1.47459 0
M  V30 6278 C 600.276 2.10727 -2.75309 0
M  V30 6279 C 599.337 1.7242 -3.93154 0
M  V30 6280 C 598.57 2.90377 -4.47791 0
M  V30 6281 O 598.793 4.05305 -4.01353 0
M  V30 6282 O 597.727 2.6845 -5.38719 0
M  V30 6283 H 601.553 0.382544 -3.01281 0
M  V30 6284 H 599.138 0.122812 -1.48894 0
M  V30 6285 H 601.02 2.83303 -3.11958 0
M  V30 6286 H 599.695 2.58376 -1.94996 0
M  V30 6287 H 598.602 0.970039 -3.61305 0
M  V30 6288 H 599.935 1.29528 -4.74851 0
M  V30 6289 N 601.587 1.56661 0.17182 0
M  V30 6290 C 602.834 1.81965 0.888529 0
M  V30 6291 C 603.162 0.6789 1.82267 0
M  V30 6292 O 602.417 -0.333875 1.92831 0
M  V30 6293 C 602.716 3.13435 1.71736 0
M  V30 6294 C 602.382 4.41159 0.932184 0
M  V30 6295 C 601.044 4.75851 0.715481 0
M  V30 6296 C 603.396 5.19803 0.381387 0
M  V30 6297 C 600.724 5.86666 -0.063126 0
M  V30 6298 C 603.076 6.31433 -0.384129 0
M  V30 6299 C 601.74 6.64692 -0.611637 0
M  V30 6300 H 601.01 0.665859 0.325136 0
M  V30 6301 H 603.657 1.90884 0.153495 0
M  V30 6302 H 601.962 2.99857 2.52177 0
M  V30 6303 H 603.659 3.30224 2.27493 0
M  V30 6304 H 600.249 4.13947 1.11112 0
M  V30 6305 H 604.433 4.93396 0.536148 0
M  V30 6306 H 599.689 6.10892 -0.249136 0
M  V30 6307 H 603.863 6.91577 -0.818185 0
M  V30 6308 H 601.49 7.50398 -1.21684 0
M  V30 6309 N 603.065 -0.440357 1.51323 0
M  V30 6310 C 604.293 -1.21255 1.67645 0
M  V30 6311 C 604.708 -1.85088 0.37252 0
M  V30 6312 O 604.065 -1.70582 -0.648683 0
M  V30 6313 C 604.116 -2.29881 2.78993 0
M  V30 6314 O 603.837 -1.68659 4.04334 0
M  V30 6315 C 605.338 -3.20214 3.06558 0
M  V30 6316 H 602.558 -0.36558 0.562666 0
M  V30 6317 H 605.102 -0.52214 1.97722 0
M  V30 6318 H 603.257 -2.94643 2.51524 0
M  V30 6319 H 603.671 -2.40426 4.6615 0
M  V30 6320 H 605.145 -3.92575 3.88058 0
M  V30 6321 H 605.622 -3.80794 2.18844 0
M  V30 6322 H 606.228 -2.61156 3.35675 0
M  V30 6323 N 604.543 -1.41418 -0.695603 0
M  V30 6324 C 605.453 -1.45622 -1.83933 0
M  V30 6325 C 606.469 -0.346825 -1.70508 0
M  V30 6326 O 607.645 -0.59454 -1.92424 0
M  V30 6327 C 604.71 -1.33627 -3.19914 0
M  V30 6328 C 603.771 -2.54882 -3.45447 0
M  V30 6329 C 603.004 -2.43449 -4.7494 0
M  V30 6330 O 603.227 -1.45905 -5.51424 0
M  V30 6331 O 602.161 -3.33206 -5.01256 0
M  V30 6332 H 605.987 -2.42114 -1.83342 0
M  V30 6333 H 603.572 -1.22956 -0.848658 0
M  V30 6334 H 605.454 -1.29221 -4.01098 0
M  V30 6335 H 604.129 -0.402508 -3.21188 0
M  V30 6336 H 603.036 -2.64865 -2.64192 0
M  V30 6337 H 604.369 -3.47087 -3.48987 0
M  V30 6338 N 606.021 0.929856 -1.27246 0
M  V30 6339 C 606.984 2.01172 -1.09829 0
M  V30 6340 C 607.984 1.60743 -0.0429687 0
M  V30 6341 O 609.174 1.71813 -0.287373 0
M  V30 6342 C 606.306 3.34191 -0.673003 0
M  V30 6343 H 607.499 2.18054 -2.05895 0
M  V30 6344 H 605.052 1.11036 -1.10003 0
M  V30 6345 H 605.787 3.23009 0.289134 0
M  V30 6346 H 605.572 3.64892 -1.43515 0
M  V30 6347 H 607.062 4.13646 -0.573323 0
M  V30 6348 N 607.499 1.09233 1.13605 0
M  V30 6349 C 608.409 0.741939 2.22559 0
M  V30 6350 C 609.425 -0.255236 1.72118 0
M  V30 6351 O 610.601 -0.0970747 2.01166 0
M  V30 6352 C 607.666 0.165595 3.46304 0
M  V30 6353 C 606.727 1.21846 4.11645 0
M  V30 6354 C 605.96 0.669526 5.29484 0
M  V30 6355 O 606.183 -0.508228 5.68131 0
M  V30 6356 O 605.117 1.42361 5.84822 0
M  V30 6357 H 608.943 1.65107 2.54899 0
M  V30 6358 H 606.528 0.866584 1.21699 0
M  V30 6359 H 608.41 -0.152592 4.21124 0
M  V30 6360 H 607.085 -0.716573 3.15669 0
M  V30 6361 H 605.992 1.58931 3.38662 0
M  V30 6362 H 607.325 2.07321 4.46407 0
M  V30 6363 N 608.977 -1.30795 0.87923 0
M  V30 6364 C 610.202 -2.01063 0.508769 0
M  V30 6365 C 610.627 -1.65508 -0.893803 0
M  V30 6366 O 609.985 -0.868616 -1.59138 0
M  V30 6367 C 610.033 -3.54054 0.683991 0
M  V30 6368 O 609.137 -4.11498 -0.272654 0
M  V30 6369 H 608.478 -0.632786 0.201191 0
M  V30 6370 H 611.008 -1.66776 1.18519 0
M  V30 6371 H 611.018 -4.03845 0.580798 0
M  V30 6372 H 609.693 -3.79271 1.70665 0
M  V30 6373 H 608.27 -3.72695 -0.12364 0
M  V30 6374 N 610.455 -0.639598 -1.44038 0
M  V30 6375 C 611.403 0.0723409 -2.32487 0
M  V30 6376 C 612.397 0.827129 -1.47834 0
M  V30 6377 O 613.603 0.73907 -1.64127 0
M  V30 6378 H 609.978 0.0421696 -0.750817 0
M  V30 6379 H 611.949 -0.691593 -2.90275 0
M  V30 6380 C 610.698 1.03452 -3.31953 0
M  V30 6381 H 610.021 0.46315 -3.97108 0
M  V30 6382 H 611.461 1.502 -3.96505 0
M  V30 6383 C 609.92 2.12392 -2.61518 0
M  V30 6384 O 610.45 3.2059 -2.42044 0
M  V30 6385 N 608.656 1.88563 -2.21116 0
M  V30 6386 H 608.203 1.00577 -2.37154 0
M  V30 6387 H 608.161 2.61651 -1.74316 0
M  V30 6388 N 611.933 1.52934 -0.380664 0
M  V30 6389 C 612.866 2.22597 0.502564 0
M  V30 6390 C 613.844 1.22345 1.071 0
M  V30 6391 O 615.028 1.51302 1.12428 0
M  V30 6392 C 612.155 2.93246 1.69482 0
M  V30 6393 C 611.201 4.07696 1.25244 0
M  V30 6394 S 612.034 5.34957 0.241159 0
M  V30 6395 C 613.19 6.09124 1.4394 0
M  V30 6396 H 613.423 2.97167 -0.089029 0
M  V30 6397 H 610.956 1.53518 -0.164817 0
M  V30 6398 H 612.914 3.34562 2.37863 0
M  V30 6399 H 611.575 2.18373 2.2577 0
M  V30 6400 H 610.768 4.56199 2.1424 0
M  V30 6401 H 610.37 3.68349 0.647664 0
M  V30 6402 H 612.662 6.34771 2.36794 0
M  V30 6403 H 613.605 7.01068 0.995464 0
M  V30 6404 H 614.013 5.39777 1.65229 0
M  V30 6405 N 613.412 0.11024 1.57214 0
M  V30 6406 C 614.36 -0.860586 2.16094 0
M  V30 6407 C 615.354 -1.28156 1.1078 0
M  V30 6408 O 616.56 -1.25433 1.29099 0
M  V30 6409 H 612.935 -0.295606 0.691463 0
M  V30 6410 H 614.906 -0.33942 2.96463 0
M  V30 6411 C 613.655 -2.10421 2.768 0
M  V30 6412 H 612.978 -1.7892 3.5753 0
M  V30 6413 H 614.418 -2.76375 3.21547 0
M  V30 6414 C 612.877 -2.88823 1.73444 0
M  V30 6415 O 613.407 -3.839 1.18251 0
M  V30 6416 N 611.613 -2.52649 1.43586 0
M  V30 6417 H 611.16 -1.754 1.8866 0
M  V30 6418 H 611.118 -3.05403 0.746735 0
M  V30 6419 N 614.89 -1.56749 -0.16351 0
M  V30 6420 C 616.167 -1.73321 -0.906599 0
M  V30 6421 C 616.547 -0.673779 -2.00059 0
M  V30 6422 O 615.895 0.310121 -2.26386 0
M  V30 6423 C 616.105 -3.168 -1.46419 0
M  V30 6424 C 617.453 -3.77993 -1.93407 0
M  V30 6425 O 618.477 -3.20127 -1.56196 0
M  V30 6426 O 617.336 -4.79615 -2.61976 0
M  V30 6427 H 614.43 -0.708073 -0.427272 0
M  V30 6428 H 616.976 -1.69029 -0.150727 0
M  V30 6429 H 615.748 -3.85396 -0.677189 0
M  V30 6430 H 615.371 -3.2545 -2.28403 0
M  V30 6431 N 616.368 0.432326 -1.51554 0
M  V30 6432 C 617.298 1.53242 -1.76179 0
M  V30 6433 C 618.279 1.58717 -0.611801 0
M  V30 6434 O 619.464 1.74364 -0.855033 0
M  V30 6435 C 616.594 2.91278 -1.89141 0
M  V30 6436 C 615.548 3.00663 -3.04608 0
M  V30 6437 C 614.874 4.40728 -3.02759 0
M  V30 6438 C 616.174 2.74281 -4.44485 0
M  V30 6439 H 617.868 1.32886 -2.68294 0
M  V30 6440 H 615.414 0.637841 -1.29103 0
M  V30 6441 H 617.367 3.68203 -2.04951 0
M  V30 6442 H 616.091 3.12877 -0.936785 0
M  V30 6443 H 614.75 2.26179 -2.88511 0
M  V30 6444 H 614.398 4.59301 -2.05065 0
M  V30 6445 H 614.098 4.47936 -3.80299 0
M  V30 6446 H 615.622 5.19619 -3.20669 0
M  V30 6447 H 617.036 3.40936 -4.60907 0
M  V30 6448 H 615.433 2.92893 -5.23769 0
M  V30 6449 H 616.503 1.69856 -4.54177 0
M  V30 6450 N 617.846 1.41785 0.688094 0
M  V30 6451 C 619.092 1.41753 1.4503 0
M  V30 6452 C 619.425 0.0290745 1.94178 0
M  V30 6453 O 618.7 -0.944456 1.7003 0
M  V30 6454 C 618.983 2.43069 2.65686 0
M  V30 6455 C 618.836 3.91053 2.22256 0
M  V30 6456 C 620.155 2.41543 3.67893 0
M  V30 6457 H 617.274 0.516202 0.526027 0
M  V30 6458 H 619.916 1.73111 0.783105 0
M  V30 6459 H 618.066 2.1646 3.2261 0
M  V30 6460 H 619.738 4.28594 1.70602 0
M  V30 6461 H 617.981 4.05559 1.53963 0
M  V30 6462 H 618.652 4.57501 3.08863 0
M  V30 6463 H 621.128 2.65175 3.20658 0
M  V30 6464 H 620.004 3.14434 4.49914 0
M  V30 6465 H 620.265 1.43666 4.18106 0
M  V30 6466 N 619.324 -0.923095 1.27737 0
M  V30 6467 C 620.549 -1.71054 1.17283 0
M  V30 6468 C 620.974 -1.86208 -0.266153 0
M  V30 6469 O 620.332 -1.36545 -1.1927 0
M  V30 6470 C 620.38 -3.0854 1.86642 0
M  V30 6471 O 619.484 -3.95528 1.16752 0
M  V30 6472 H 618.825 -0.524136 0.407649 0
M  V30 6473 H 621.355 -1.15487 1.6889 0
M  V30 6474 H 621.365 -3.58828 1.94182 0
M  V30 6475 H 620.04 -2.96828 2.91317 0
M  V30 6476 H 618.617 -3.53967 1.17312 0
M  V30 6477 N 620.802 -1.09834 -1.13024 0
M  V30 6478 C 621.712 -0.753731 -2.22162 0
M  V30 6479 C 622.728 0.246105 -1.72251 0
M  V30 6480 O 623.904 0.0864051 -2.01215 0
M  V30 6481 C 620.969 -0.183958 -3.46212 0
M  V30 6482 C 620.03 -1.24028 -4.10993 0
M  V30 6483 C 619.263 -0.697597 -5.29121 0
M  V30 6484 O 619.486 0.478092 -5.68393 0
M  V30 6485 O 618.42 -1.4546 -5.84059 0
M  V30 6486 H 622.246 -1.66456 -2.5402 0
M  V30 6487 H 619.831 -0.873026 -1.21238 0
M  V30 6488 H 621.713 0.130257 -4.21199 0
M  V30 6489 H 620.388 0.699823 -3.16045 0
M  V30 6490 H 619.295 -1.60725 -3.37814 0
M  V30 6491 H 620.628 -2.09685 -4.45301 0
M  V30 6492 N 622.28 1.30327 -0.886154 0
M  V30 6493 C 623.51 1.99964 -0.519421 0
M  V30 6494 C 623.918 1.66593 0.89686 0
M  V30 6495 O 623.261 0.899886 1.60149 0
M  V30 6496 C 623.323 3.54187 -0.615795 0
M  V30 6497 C 622.987 4.11078 -1.9966 0
M  V30 6498 C 623.984 4.26985 -2.96614 0
M  V30 6499 C 621.669 4.46429 -2.30231 0
M  V30 6500 C 623.663 4.77456 -4.22273 0
M  V30 6501 C 621.35 4.966 -3.56135 0
M  V30 6502 C 622.348 5.12066 -4.5197 0
M  V30 6503 O 622.036 5.61154 -5.7564 0
M  V30 6504 H 621.768 0.645979 -0.199217 0
M  V30 6505 H 624.322 1.67154 -1.19368 0
M  V30 6506 H 622.552 3.86528 0.115448 0
M  V30 6507 H 624.241 4.05065 -0.26017 0
M  V30 6508 H 625.007 3.99975 -2.74308 0
M  V30 6509 H 620.886 4.33658 -1.56404 0
M  V30 6510 H 624.43 4.89444 -4.97082 0
M  V30 6511 H 620.327 5.23045 -3.78277 0
M  V30 6512 H 621.095 5.79494 -5.78039 0
M  V30 6513 N 623.758 0.647228 1.43697 0
M  V30 6514 C 624.69 -0.0866232 2.29036 0
M  V30 6515 C 625.703 -0.793051 1.42178 0
M  V30 6516 O 626.892 -0.651807 1.66174 0
M  V30 6517 C 623.992 -1.14552 3.18953 0
M  V30 6518 C 623.165 -0.518422 4.34317 0
M  V30 6519 C 622.224 -1.4734 5.05151 0
M  V30 6520 O 621.25 -0.984312 5.60625 0
M  V30 6521 N 622.452 -2.8075 5.08094 0
M  V30 6522 H 625.217 0.645834 2.92659 0
M  V30 6523 H 622.778 0.489567 1.54321 0
M  V30 6524 H 624.77 -1.78505 3.63205 0
M  V30 6525 H 623.34 -1.78001 2.56971 0
M  V30 6526 H 622.56 0.300079 3.93056 0
M  V30 6527 H 623.848 -0.080401 5.08736 0
M  V30 6528 H 623.246 -3.23052 4.64386 0
M  V30 6529 H 621.803 -3.40022 5.56083 0
M  V30 6530 N 625.236 -1.5273 0.388769 0
M  V30 6531 C 626.168 -2.24081 -0.481704 0
M  V30 6532 C 627.181 -1.26307 -1.02715 0
M  V30 6533 O 628.37 -1.52386 -0.929565 0
M  V30 6534 C 625.47 -2.94315 -1.68024 0
M  V30 6535 C 624.643 -4.18791 -1.26226 0
M  V30 6536 C 623.702 -4.72028 -2.32542 0
M  V30 6537 O 622.728 -5.35129 -1.93972 0
M  V30 6538 N 623.93 -4.51838 -3.64448 0
M  V30 6539 H 626.695 -2.9942 0.129591 0
M  V30 6540 H 624.256 -1.60465 0.2151 0
M  V30 6541 H 626.248 -3.26831 -2.38671 0
M  V30 6542 H 624.818 -2.22287 -2.19789 0
M  V30 6543 H 624.038 -3.92318 -0.384703 0
M  V30 6544 H 625.326 -4.99668 -0.959647 0
M  V30 6545 H 624.724 -4.01468 -3.98547 0
M  V30 6546 H 623.281 -4.88845 -4.31131 0
M  V30 6547 N 626.714 -0.118576 -1.57153 0
M  V30 6548 C 627.944 0.546466 -1.99242 0
M  V30 6549 C 628.352 1.60791 -0.997148 0
M  V30 6550 O 627.695 1.83691 0.0181745 0
M  V30 6551 C 627.757 1.23167 -3.37743 0
M  V30 6552 C 627.421 0.318226 -4.55891 0
M  V30 6553 C 628.418 -0.442988 -5.18009 0
M  V30 6554 C 626.103 0.229421 -5.01776 0
M  V30 6555 C 628.097 -1.28074 -6.244 0
M  V30 6556 C 625.784 -0.611966 -6.08028 0
M  V30 6557 C 626.782 -1.36568 -6.69207 0
M  V30 6558 O 626.47 -2.1931 -7.73407 0
M  V30 6559 H 626.202 0.149297 -0.659307 0
M  V30 6560 H 628.756 -0.201603 -2.04408 0
M  V30 6561 H 626.986 2.0268 -3.29329 0
M  V30 6562 H 628.675 1.79358 -3.64123 0
M  V30 6563 H 629.441 -0.38425 -4.83475 0
M  V30 6564 H 625.32 0.805771 -4.53903 0
M  V30 6565 H 628.864 -1.86952 -6.72082 0
M  V30 6566 H 624.761 -0.6721 -6.41991 0
M  V30 6567 H 625.529 -2.12247 -7.90502 0
M  V30 6568 N 628.193 1.56834 0.155195 0
M  V30 6569 C 629.125 1.94235 1.21677 0
M  V30 6570 C 630.138 0.83724 1.39621 0
M  V30 6571 O 631.327 1.11567 1.39338 0
M  V30 6572 C 628.427 2.19402 2.58294 0
M  V30 6573 C 627.6 3.50671 2.61436 0
M  V30 6574 C 626.659 3.64475 3.79532 0
M  V30 6575 O 625.685 4.36945 3.64784 0
M  V30 6576 N 626.887 3.00526 4.96653 0
M  V30 6577 H 629.652 2.85901 0.898932 0
M  V30 6578 H 627.213 1.58185 0.34483 0
M  V30 6579 H 629.205 2.25886 3.35794 0
M  V30 6580 H 627.775 1.34042 2.82403 0
M  V30 6581 H 626.995 3.55702 1.69912 0
M  V30 6582 H 628.283 4.3702 2.60559 0
M  V30 6583 H 627.681 2.41549 5.11538 0
M  V30 6584 H 626.238 3.12583 5.71958 0
M  V30 6585 N 629.671 -0.424282 1.51781 0
M  V30 6586 C 630.948 -1.18464 1.55646 0
M  V30 6587 C 631.328 -2.08529 0.328438 0
M  V30 6588 O 630.676 -2.17969 -0.685693 0
M  V30 6589 C 630.886 -1.97514 2.87731 0
M  V30 6590 C 632.234 -2.54106 3.40169 0
M  V30 6591 O 633.258 -2.07711 2.89369 0
M  V30 6592 O 632.117 -3.38759 4.28841 0
M  V30 6593 H 629.211 -0.540055 0.626314 0
M  V30 6594 H 631.757 -0.432291 1.64102 0
M  V30 6595 H 630.529 -1.31444 3.68562 0
M  V30 6596 H 630.152 -2.79787 2.82498 0
M  V30 6597 N 631.149 -1.42148 -0.680565 0
M  V30 6598 C 632.112 -1.4488 -1.77602 0
M  V30 6599 C 633.112 -0.337209 -1.57224 0
M  V30 6600 O 634.302 -0.597778 -1.63622 0
M  V30 6601 C 631.434 -1.27483 -3.16166 0
M  V30 6602 H 632.627 -2.42412 -1.76568 0
M  V30 6603 H 630.18 -1.28511 -0.889645 0
M  V30 6604 H 630.915 -0.30851 -3.22829 0
M  V30 6605 H 630.7 -2.08037 -3.3236 0
M  V30 6606 H 632.19 -1.32265 -3.96101 0
M  V30 6607 N 632.627 0.916307 -1.28225 0
M  V30 6608 C 633.855 1.69901 -1.18073 0
M  V30 6609 C 634.27 1.86988 0.260968 0
M  V30 6610 O 633.627 1.39505 1.17663 0
M  V30 6611 C 633.678 3.09254 -1.87201 0
M  V30 6612 O 633.399 2.92959 -3.2574 0
M  V30 6613 C 634.9 4.0362 -1.83319 0
M  V30 6614 H 632.12 0.531181 -0.409985 0
M  V30 6615 H 634.664 1.14703 -1.69303 0
M  V30 6616 H 632.819 3.61277 -1.39848 0
M  V30 6617 H 633.233 3.81139 -3.60324 0
M  V30 6618 H 634.707 4.98873 -2.36282 0
M  V30 6619 H 635.184 4.3176 -0.805007 0
M  V30 6620 H 635.79 3.57524 -2.3034 0
M  V30 6621 N 634.105 1.10431 1.1244 0
M  V30 6622 C 635.068 0.756542 2.16354 0
M  V30 6623 C 636.068 -0.21899 1.59302 0
M  V30 6624 O 637.258 0.00415969 1.742 0
M  V30 6625 C 634.39 0.120612 3.40687 0
M  V30 6626 H 635.583 1.67696 2.48632 0
M  V30 6627 H 633.136 0.904832 1.27446 0
M  V30 6628 H 633.871 -0.810536 3.14008 0
M  V30 6629 H 633.656 0.822693 3.83372 0
M  V30 6630 H 635.146 -0.106945 4.17463 0
M  V30 6631 N 635.583 -1.29855 0.893053 0
M  V30 6632 C 636.493 -2.31661 0.370157 0
M  V30 6633 C 637.509 -1.65677 -0.531723 0
M  V30 6634 O 638.685 -1.9691 -0.422902 0
M  V30 6635 C 635.75 -3.44388 -0.399741 0
M  V30 6636 C 634.811 -4.2598 0.532861 0
M  V30 6637 C 634.044 -5.33324 -0.200388 0
M  V30 6638 O 634.267 -5.52305 -1.42531 0
M  V30 6639 O 633.201 -6.00188 0.453668 0
M  V30 6640 H 637.027 -2.78354 1.2146 0
M  V30 6641 H 634.612 -1.34171 0.657153 0
M  V30 6642 H 636.494 -4.13037 -0.835358 0
M  V30 6643 H 635.169 -2.99815 -1.22035 0
M  V30 6644 H 634.076 -3.59998 1.01746 0
M  V30 6645 H 635.409 -4.74178 1.3197 0
M  V30 6646 N 637.061 -0.65484 -1.43351 0
M  V30 6647 C 637.971 0.0363603 -2.34572 0
M  V30 6648 C 638.987 0.810432 -1.53974 0
M  V30 6649 O 640.163 0.757308 -1.86619 0
M  V30 6650 C 637.228 0.989733 -3.32273 0
M  V30 6651 C 636.289 0.212414 -4.28774 0
M  V30 6652 C 635.522 1.12038 -5.21808 0
M  V30 6653 O 635.745 2.35967 -5.19303 0
M  V30 6654 O 634.679 0.59191 -5.98982 0
M  V30 6655 H 638.505 -0.714527 -2.95175 0
M  V30 6656 H 636.09 -0.415029 -1.4352 0
M  V30 6657 H 637.972 1.53759 -3.92347 0
M  V30 6658 H 636.647 1.72082 -2.74171 0
M  V30 6659 H 635.554 -0.379062 -3.72175 0
M  V30 6660 H 636.887 -0.479138 -4.89862 0
M  V30 6661 N 638.539 1.52521 -0.396863 0
M  V30 6662 C 639.449 2.30403 0.44178 0
M  V30 6663 C 640.465 1.37625 1.06468 0
M  V30 6664 O 641.641 1.70697 1.06886 0
M  V30 6665 C 638.706 3.1013 1.54986 0
M  V30 6666 C 637.767 4.18628 0.951279 0
M  V30 6667 C 637 4.94543 2.00655 0
M  V30 6668 O 637.223 4.70629 3.22281 0
M  V30 6669 O 636.157 5.797 1.61962 0
M  V30 6670 H 639.983 3.03087 -0.192892 0
M  V30 6671 H 637.568 1.48537 -0.16038 0
M  V30 6672 H 639.45 3.59816 2.19341 0
M  V30 6673 H 638.125 2.40251 2.16935 0
M  V30 6674 H 637.032 3.73119 0.270773 0
M  V30 6675 H 638.365 4.90763 0.375887 0
M  V30 6676 N 640.017 0.126909 1.57088 0
M  V30 6677 C 640.927 -0.833867 2.1928 0
M  V30 6678 C 641.943 -1.2868 1.17122 0
M  V30 6679 O 643.119 -1.34815 1.49622 0
M  V30 6680 C 640.184 -2.0632 2.78627 0
M  V30 6681 C 639.245 -1.66143 3.95847 0
M  V30 6682 C 638.478 -2.83217 4.52354 0
M  V30 6683 O 638.701 -3.98868 4.0775 0
M  V30 6684 O 637.635 -2.59846 5.42922 0
M  V30 6685 H 641.461 -0.334564 3.01852 0
M  V30 6686 H 639.046 -0.0991091 1.49071 0
M  V30 6687 H 640.928 -2.78304 3.16425 0
M  V30 6688 H 639.603 -2.55242 1.99082 0
M  V30 6689 H 638.51 -0.912435 3.62802 0
M  V30 6690 H 639.843 -1.21957 4.76852 0
M  V30 6691 N 641.495 -1.56914 -0.146875 0
M  V30 6692 C 642.772 -1.74273 -0.888165 0
M  V30 6693 C 643.152 -0.69496 -1.99333 0
M  V30 6694 O 642.5 0.286093 -2.26702 0
M  V30 6695 C 642.71 -3.18336 -1.43051 0
M  V30 6696 C 644.058 -3.80024 -1.89387 0
M  V30 6697 O 645.082 -3.21765 -1.52792 0
M  V30 6698 O 643.941 -4.82367 -2.56874 0
M  V30 6699 H 641.035 -0.712565 -0.419738 0
M  V30 6700 H 643.581 -1.6918 -0.132791 0
M  V30 6701 H 642.353 -3.86092 -0.636274 0
M  V30 6702 H 641.976 -3.27854 -2.24938 0
M  V30 6703 N 642.974 0.416227 -1.52004 0
M  V30 6704 C 644.221 1.16383 -1.65714 0
M  V30 6705 C 644.549 1.9068 -0.383594 0
M  V30 6706 O 643.804 1.85174 0.633185 0
M  V30 6707 C 644.103 2.18923 -2.82502 0
M  V30 6708 C 643.769 1.61485 -4.20991 0
M  V30 6709 C 642.431 1.45545 -4.58661 0
M  V30 6710 C 644.783 1.19468 -5.07323 0
M  V30 6711 C 642.111 0.860937 -5.80349 0
M  V30 6712 C 644.463 0.614386 -6.29609 0
M  V30 6713 C 643.127 0.442056 -6.66035 0
M  V30 6714 H 642.397 0.425875 -0.606392 0
M  V30 6715 H 645.044 0.45199 -1.8609 0
M  V30 6716 H 643.349 2.96225 -2.56433 0
M  V30 6717 H 645.046 2.76628 -2.90307 0
M  V30 6718 H 641.636 1.74873 -3.91302 0
M  V30 6719 H 645.82 1.30596 -4.78809 0
M  V30 6720 H 641.076 0.715372 -6.072 0
M  V30 6721 H 645.25 0.280393 -6.95835 0
M  V30 6722 H 642.877 -0.0207218 -7.60197 0
M  V30 6723 N 644.452 1.42507 0.673017 0
M  V30 6724 C 645.7 1.42789 1.43023 0
M  V30 6725 C 646.021 0.0459738 1.94946 0
M  V30 6726 O 645.291 -0.915765 1.73178 0
M  V30 6727 H 643.871 0.525657 0.530748 0
M  V30 6728 H 646.533 1.77944 0.795113 0
M  V30 6729 H 645.629 2.12872 2.28237 0
M  V30 6730 N 645.93 -0.909495 1.28709 0
M  V30 6731 C 646.84 -2.04558 1.14861 0
M  V30 6732 C 647.856 -1.73842 0.0741621 0
M  V30 6733 O 649.032 -1.99383 0.2843 0
M  V30 6734 C 646.097 -3.36957 0.816148 0
M  V30 6735 C 645.158 -3.81255 1.97341 0
M  V30 6736 C 644.391 -5.07335 1.65671 0
M  V30 6737 O 644.614 -5.67514 0.573053 0
M  V30 6738 O 643.548 -5.47449 2.50167 0
M  V30 6739 H 647.374 -2.19161 2.10243 0
M  V30 6740 H 644.959 -1.03159 1.08068 0
M  V30 6741 H 646.841 -4.16436 0.644873 0
M  V30 6742 H 645.516 -3.2352 -0.107983 0
M  V30 6743 H 644.423 -3.02584 2.19986 0
M  V30 6744 H 645.756 -3.99261 2.87839 0
M  V30 6745 N 647.408 -1.11026 -1.11852 0
M  V30 6746 C 648.318 -0.777252 -2.2135 0
M  V30 6747 C 649.334 0.227821 -1.72502 0
M  V30 6748 O 650.51 0.0650587 -2.01295 0
M  V30 6749 C 647.575 -0.220668 -3.45997 0
M  V30 6750 C 646.636 -1.2838 -4.09655 0
M  V30 6751 C 645.869 -0.753678 -5.28352 0
M  V30 6752 O 646.092 0.417779 -5.68868 0
M  V30 6753 O 645.026 -1.51647 -5.82483 0
M  V30 6754 H 648.852 -1.69141 -2.5224 0
M  V30 6755 H 646.437 -0.885836 -1.20305 0
M  V30 6756 H 648.319 0.0855756 -4.21313 0
M  V30 6757 H 646.994 0.666262 -3.16769 0
M  V30 6758 H 645.901 -1.64299 -3.3609 0
M  V30 6759 H 647.234 -2.14396 -4.43052 0
M  V30 6760 N 648.886 1.2938 -0.899927 0
M  V30 6761 C 649.849 2.25983 -0.382677 0
M  V30 6762 C 650.849 1.53366 0.483259 0
M  V30 6763 O 652.039 1.71798 0.28828 0
M  V30 6764 C 649.171 3.37878 0.452915 0
M  V30 6765 H 650.364 2.73252 -1.23586 0
M  V30 6766 H 647.917 1.40825 -0.678088 0
M  V30 6767 H 648.652 2.95949 1.32608 0
M  V30 6768 H 648.437 3.91742 -0.167562 0
M  V30 6769 H 649.927 4.09746 0.806107 0
M  V30 6770 N 650.364 0.662433 1.43002 0
M  V30 6771 C 651.274 -0.0239199 2.34588 0
M  V30 6772 C 652.29 -0.802255 1.54402 0
M  V30 6773 O 653.466 -0.747401 1.87018 0
M  V30 6774 C 650.531 -0.972098 3.32793 0
M  V30 6775 C 649.592 -0.189673 4.28881 0
M  V30 6776 C 648.825 -1.09269 5.22395 0
M  V30 6777 O 649.048 -2.33209 5.20547 0
M  V30 6778 O 647.982 -0.560136 5.99288 0
M  V30 6779 H 651.808 0.730171 2.94792 0
M  V30 6780 H 649.393 0.422635 1.43297 0
M  V30 6781 H 651.275 -1.51676 3.93157 0
M  V30 6782 H 649.95 -1.70626 2.75079 0
M  V30 6783 H 648.857 0.398794 3.71968 0
M  V30 6784 H 650.19 0.50511 4.89601 0
M  V30 6785 N 651.842 -1.52309 0.404946 0
M  V30 6786 C 652.752 -2.30634 -0.429555 0
M  V30 6787 C 653.768 -1.38187 -1.05737 0
M  V30 6788 O 654.944 -1.71261 -1.05979 0
M  V30 6789 C 652.009 -3.10947 -1.53339 0
M  V30 6790 C 651.07 -4.19126 -0.929065 0
M  V30 6791 C 650.303 -4.95601 -1.9803 0
M  V30 6792 O 650.526 -4.72331 -3.1978 0
M  V30 6793 O 649.46 -5.80551 -1.58886 0
M  V30 6794 H 653.286 -3.0298 0.208963 0
M  V30 6795 H 650.871 -1.4845 0.168255 0
M  V30 6796 H 652.753 -3.60974 -2.1743 0
M  V30 6797 H 651.428 -2.41399 -2.15658 0
M  V30 6798 H 650.335 -3.73257 -0.250982 0
M  V30 6799 H 651.668 -4.90955 -0.349855 0
M  V30 6800 N 653.32 -0.135238 -1.57019 0
M  V30 6801 C 654.23 0.822226 -2.19719 0
M  V30 6802 C 655.246 1.28057 -1.17802 0
M  V30 6803 O 656.422 1.3402 -1.50335 0
M  V30 6804 C 653.487 2.0484 -2.79717 0
M  V30 6805 C 652.548 1.64042 -3.96723 0
M  V30 6806 C 651.781 2.80814 -4.53849 0
M  V30 6807 O 652.004 3.967 -4.0986 0
M  V30 6808 O 650.938 2.56963 -5.44292 0
M  V30 6809 H 654.764 0.318552 -3.02025 0
M  V30 6810 H 652.349 0.0912021 -1.49121 0
M  V30 6811 H 654.231 2.76622 -3.17897 0
M  V30 6812 H 652.906 2.54182 -2.00432 0
M  V30 6813 H 651.813 0.893182 -3.63281 0
M  V30 6814 H 653.146 1.19426 -4.77492 0
M  V30 6815 N 654.798 1.5699 0.138552 0
M  V30 6816 C 655.761 1.97984 1.15478 0
M  V30 6817 C 656.761 0.867416 1.35398 0
M  V30 6818 O 657.951 1.13387 1.32246 0
M  V30 6819 C 655.083 2.3031 2.51337 0
M  V30 6820 H 656.276 2.88953 0.802896 0
M  V30 6821 H 653.829 1.51555 0.382189 0
M  V30 6822 H 654.564 1.42159 2.91481 0
M  V30 6823 H 654.349 3.11425 2.38237 0
M  V30 6824 H 655.839 2.62834 3.24512 0
M  V30 6825 O 656.315 -0.283142 1.58999 0
M  V30 6826 H 657.006 -0.92904 1.69966 0
M  V30 END ATOM
M  V30 BEGIN BOND
M  V30 END BOND
M  V30 END CTAB
M  END
$$$$
