drugbank_target|P07602 Prosaposin (DB01966)
 OpenBabel12092119493D

  0  0  0     0  0            999 V3000
M  V30 BEGIN CTAB
M  V30 COUNTS 8130 8206 0 0 0
M  V30 BEGIN ATOM
M  V30 1 H -0.908 1.98254 -0.117106 0
M  V30 2 N 0 1.576 0 0
M  V30 3 C 0.933 2.03868 1.02534 0
M  V30 4 C 1.911 0.928543 1.3348 0
M  V30 5 O 3.095 1.19667 1.45644 0
M  V30 6 C 0.222 2.43627 2.35294 0
M  V30 7 C -0.732 3.65373 2.2001 0
M  V30 8 S 0.101 5.13292 1.52614 0
M  V30 9 C 1.257 5.56322 2.86805 0
M  V30 10 H 1.49 2.90518 0.631377 0
M  V30 11 H -0.977 1.52953 0.210867 0
M  V30 12 H 0.981 2.67203 3.11629 0
M  V30 13 H -0.358 1.57376 2.7183 0
M  V30 14 H -1.165 3.90944 3.18086 0
M  V30 15 H -1.563 3.418 1.51819 0
M  V30 16 H 0.729 5.58782 3.83104 0
M  V30 17 H 1.672 6.56266 2.65933 0
M  V30 18 H 2.08 4.83886 2.90714 0
M  V30 19 N 1.4781 -0.272755 1.55222 0
M  V30 20 C 2.7081 -1.02107 1.79604 0
M  V30 21 C 3.1161 -1.80419 0.569693 0
M  V30 22 O 2.4591 -1.77566 -0.470743 0
M  V30 23 C 2.5211 -2.02675 2.96922 0
M  V30 24 C 2.1851 -1.43299 4.33952 0
M  V30 25 C 3.1821 -0.84853 5.12929 0
M  V30 26 C 0.8671 -1.46012 4.8061 0
M  V30 27 C 2.8611 -0.299109 6.36698 0
M  V30 28 C 0.5481 -0.906833 6.04334 0
M  V30 29 C 1.5461 -0.32733 6.82215 0
M  V30 30 O 1.2341 0.217479 8.03606 0
M  V30 31 H 0.9661 -0.307322 0.602104 0
M  V30 32 H 3.5201 -0.308862 2.03065 0
M  V30 33 H 1.7501 -2.77656 2.69155 0
M  V30 34 H 3.4391 -2.63637 3.08626 0
M  V30 35 H 4.2051 -0.820265 4.78013 0
M  V30 36 H 0.0841 -1.90056 4.2 0
M  V30 37 H 3.6281 0.153852 6.9743 0
M  V30 38 H -0.4749 -0.932339 6.38731 0
M  V30 39 H 0.2931 0.106863 8.1843 0
M  V30 40 N 2.9562 -1.48159 -0.537278 0
M  V30 41 C 3.9192 -1.61665 -1.62472 0
M  V30 42 C 4.9192 -0.490395 -1.5314 0
M  V30 43 O 6.1092 -0.755998 -1.5694 0
M  V30 44 C 3.2412 -1.57997 -3.02076 0
M  V30 45 H 4.4342 -2.58621 -1.51839 0
M  V30 46 H 1.9872 -1.36647 -0.758771 0
M  V30 47 H 2.7222 -0.624913 -3.18222 0
M  V30 48 H 2.5072 -2.39755 -3.10258 0
M  V30 49 H 3.9972 -1.70627 -3.81151 0
M  V30 50 N 4.4343 0.785586 -1.36625 0
M  V30 51 C 5.3643 1.91259 -1.33949 0
M  V30 52 C 6.3453 1.68795 -0.210325 0
M  V30 53 O 7.5303 1.89854 -0.408561 0
M  V30 54 C 4.6603 3.28339 -1.13186 0
M  V30 55 C 3.6143 3.65335 -2.22967 0
M  V30 56 C 2.9403 5.00806 -1.87342 0
M  V30 57 C 4.2403 3.7352 -3.65075 0
M  V30 58 H 5.9343 1.93755 -2.28253 0
M  V30 59 H 3.4803 0.930788 -1.09874 0
M  V30 60 H 5.4333 4.06804 -1.09948 0
M  V30 61 H 4.1573 3.2624 -0.153332 0
M  V30 62 H 2.8163 2.89169 -2.25337 0
M  V30 63 H 2.4643 4.95233 -0.880545 0
M  V30 64 H 2.1643 5.26529 -2.60846 0
M  V30 65 H 3.6883 5.81687 -1.85667 0
M  V30 66 H 5.1023 4.42168 -3.64911 0
M  V30 67 H 3.4993 4.10731 -4.37516 0
M  V30 68 H 4.5693 2.74527 -3.99703 0
M  V30 69 N 5.9124 1.20967 1.01018 0
M  V30 70 C 7.1594 1.02374 1.74716 0
M  V30 71 C 7.4874 -0.443375 1.89379 0
M  V30 72 O 6.7424 -1.34535 1.42123 0
M  V30 73 C 7.0414 1.65997 3.16512 0
M  V30 74 C 6.7074 3.15831 3.2181 0
M  V30 75 C 5.3694 3.56719 3.22963 0
M  V30 76 C 7.7214 4.11816 3.19464 0
M  V30 77 C 5.0494 4.92107 3.19449 0
M  V30 78 C 7.4014 5.47158 3.17491 0
M  V30 79 C 6.0654 5.87451 3.16951 0
M  V30 80 H 5.3354 0.374614 0.639332 0
M  V30 81 H 7.9824 1.50485 1.18434 0
M  V30 82 H 6.2874 1.10166 3.75993 0
M  V30 83 H 7.9844 1.49119 3.72242 0
M  V30 84 H 4.5744 2.83263 3.21652 0
M  V30 85 H 8.7584 3.81257 3.17737 0
M  V30 86 H 4.0144 5.22579 3.17366 0
M  V30 87 H 8.1884 6.21274 3.14629 0
M  V30 88 H 5.8154 6.92329 3.13983 0
M  V30 89 N 7.3905 -1.2043 1.01659 0
M  V30 90 C 8.3205 -2.25466 0.607226 0
M  V30 91 C 9.3015 -1.65853 -0.377716 0
M  V30 92 O 10.4865 -1.92409 -0.263149 0
M  V30 93 C 7.6165 -3.47256 -0.0552949 0
M  V30 94 C 6.5705 -4.19462 0.850632 0
M  V30 95 C 5.8965 -5.34673 0.0538859 0
M  V30 96 C 7.1965 -4.75603 2.15868 0
M  V30 97 H 8.8905 -2.59962 1.48526 0
M  V30 98 H 6.4365 -1.2496 0.715605 0
M  V30 99 H 8.3895 -4.19917 -0.353233 0
M  V30 100 H 7.1135 -3.11924 -0.968045 0
M  V30 101 H 5.7725 -3.48667 1.13257 0
M  V30 102 H 5.4205 -4.95585 -0.860514 0
M  V30 103 H 5.1205 -5.83913 0.657192 0
M  V30 104 H 6.6445 -6.10138 -0.237598 0
M  V30 105 H 8.0585 -5.40083 1.92311 0
M  V30 106 H 6.4555 -5.3528 2.71284 0
M  V30 107 H 7.5255 -3.94346 2.82169 0
M  V30 108 N 8.8686 -0.792821 -1.36206 0
M  V30 109 C 9.7986 -0.207853 -2.32573 0
M  V30 110 C 10.7796 0.659055 -1.56813 0
M  V30 111 O 11.9646 0.592176 -1.84951 0
M  V30 112 C 9.0946 0.655449 -3.41059 0
M  V30 113 C 8.0486 -0.111842 -4.27854 0
M  V30 114 C 7.3746 0.872274 -5.27537 0
M  V30 115 C 8.6746 -1.30299 -5.05786 0
M  V30 116 H 10.3686 -1.01294 -2.81744 0
M  V30 117 H 7.9146 -0.48854 -1.3546 0
M  V30 118 H 9.8676 1.07464 -4.07467 0
M  V30 119 H 8.5916 1.49328 -2.90463 0
M  V30 120 H 7.2506 -0.512053 -3.63006 0
M  V30 121 H 6.8986 1.70523 -4.73214 0
M  V30 122 H 6.5986 0.363291 -5.86476 0
M  V30 123 H 8.1226 1.28996 -5.96818 0
M  V30 124 H 9.5366 -0.959379 -5.65216 0
M  V30 125 H 7.9336 -1.7455 -5.74154 0
M  V30 126 H 9.0036 -2.09663 -4.37229 0
M  V30 127 N 10.3467 1.47872 -0.545128 0
M  V30 128 C 11.3097 2.28337 0.198717 0
M  V30 129 C 12.3097 1.36255 0.853888 0
M  V30 130 O 13.4997 1.59003 0.711606 0
M  V30 131 C 10.6317 3.15585 1.28915 0
M  V30 132 H 11.8247 2.95567 -0.507941 0
M  V30 133 H 9.3777 1.53362 -0.301616 0
M  V30 134 H 10.1127 2.53019 2.02859 0
M  V30 135 H 9.8977 3.83337 0.824309 0
M  V30 136 H 11.3877 3.76243 1.81194 0
M  V30 137 N 11.8248 0.280983 1.55075 0
M  V30 138 C 13.0498 -0.340154 2.04592 0
M  V30 139 C 13.4748 -1.48246 1.15779 0
M  V30 140 O 12.8328 -1.80614 0.15761 0
M  V30 141 C 12.8808 -0.793104 3.5177 0
M  V30 142 O 11.9848 -1.89981 3.66034 0
M  V30 143 H 11.3258 -0.0694289 0.66036 0
M  V30 144 H 13.8558 0.416993 2.00306 0
M  V30 145 H 13.8658 -1.08729 3.93245 0
M  V30 146 H 12.5408 0.0426163 4.15878 0
M  V30 147 H 11.1178 -1.60771 3.36463 0
M  V30 148 N 13.3029 -1.57598 0.00835791 0
M  V30 149 C 14.2329 -2.1198 -0.979113 0
M  V30 150 C 15.2139 -1.03091 -1.35301 0
M  V30 151 O 16.3989 -1.30818 -1.43528 0
M  V30 152 C 13.5289 -2.62995 -2.26828 0
M  V30 153 C 12.4829 -3.76485 -2.03576 0
M  V30 154 C 11.8089 -4.13846 -3.38579 0
M  V30 155 C 13.1089 -5.0342 -1.39161 0
M  V30 156 H 14.8029 -2.94738 -0.526281 0
M  V30 157 H 12.3489 -1.41783 -0.251704 0
M  V30 158 H 14.3019 -2.99669 -2.96271 0
M  V30 159 H 13.0259 -1.7737 -2.7424 0
M  V30 160 H 11.6849 -3.40217 -1.36557 0
M  V30 161 H 11.3329 -3.25232 -3.83709 0
M  V30 162 H 11.0329 -4.90312 -3.23834 0
M  V30 163 H 12.5569 -4.53086 -4.09323 0
M  V30 164 H 13.9709 -5.37812 -1.98573 0
M  V30 165 H 12.3679 -5.84746 -1.34878 0
M  V30 166 H 13.4379 -4.83548 -0.361868 0
M  V30 167 N 14.781 0.264519 -1.55364 0
M  V30 168 C 15.711 1.33121 -1.91836 0
M  V30 169 C 16.692 1.51101 -0.781192 0
M  V30 170 O 17.877 1.64003 -1.04003 0
M  V30 171 C 15.007 2.68921 -2.19769 0
M  V30 172 C 13.961 2.65661 -3.35571 0
M  V30 173 C 13.287 4.05093 -3.49004 0
M  V30 174 C 14.587 2.24187 -4.71739 0
M  V30 175 H 16.281 1.02844 -2.81182 0
M  V30 176 H 13.827 0.493286 -1.35287 0
M  V30 177 H 15.78 3.43663 -2.43872 0
M  V30 178 H 14.504 3.00799 -1.27231 0
M  V30 179 H 13.163 1.93377 -3.1145 0
M  V30 180 H 12.811 4.34206 -2.53917 0
M  V30 181 H 12.511 4.03804 -4.26868 0
M  V30 182 H 14.035 4.81561 -3.75408 0
M  V30 183 H 15.449 2.88654 -4.9533 0
M  V30 184 H 13.846 2.34044 -5.52579 0
M  V30 185 H 14.916 1.19327 -4.69988 0
M  V30 186 N 16.2591 1.48442 0.529413 0
M  V30 187 C 17.5071 1.56179 1.28267 0
M  V30 188 C 17.8281 0.237721 1.93546 0
M  V30 189 O 17.0981 -0.740779 1.81354 0
M  V30 190 H 15.6781 0.575367 0.476405 0
M  V30 191 H 18.3401 1.84909 0.61602 0
M  V30 192 H 17.4361 2.34312 2.06165 0
M  V30 193 N 17.7372 -0.778329 1.37039 0
M  V30 194 C 18.7002 -1.87301 1.32102 0
M  V30 195 C 19.7002 -1.59198 0.226405 0
M  V30 196 O 20.8902 -1.67403 0.481861 0
M  V30 197 C 18.0222 -3.24309 1.05055 0
M  V30 198 H 19.2152 -1.93093 2.29467 0
M  V30 199 H 16.7682 -0.977358 1.21973 0
M  V30 200 H 17.5032 -3.24196 0.0819373 0
M  V30 201 H 17.2882 -3.46098 1.84279 0
M  V30 202 H 18.7782 -4.04382 1.04234 0
M  V30 203 N 19.2153 -1.21501 -1.00376 0
M  V30 204 C 20.1783 -0.976927 -2.07337 0
M  V30 205 C 21.1783 0.0525322 -1.60714 0
M  V30 206 O 22.3683 -0.184869 -1.73216 0
M  V30 207 C 19.5003 -0.473423 -3.37597 0
M  V30 208 H 20.6933 -1.92587 -2.29892 0
M  V30 209 H 18.2463 -1.03217 -1.17371 0
M  V30 210 H 18.9813 0.480379 -3.20722 0
M  V30 211 H 18.7663 -1.216 -3.72768 0
M  V30 212 H 20.2563 -0.32675 -4.1632 0
M  V30 213 N 20.6934 1.19889 -1.02296 0
M  V30 214 C 21.6234 2.25141 -0.619174 0
M  V30 215 C 22.6044 1.66051 0.368915 0
M  V30 216 O 23.7894 1.92546 0.252941 0
M  V30 217 C 20.9194 3.4728 0.0368783 0
M  V30 218 C 19.8734 4.19005 -0.872865 0
M  V30 219 C 19.1994 5.34637 -0.0822402 0
M  V30 220 C 20.4994 4.74452 -2.18387 0
M  V30 221 H 22.1934 2.59171 -1.49903 0
M  V30 222 H 19.7394 1.24579 -0.722222 0
M  V30 223 H 21.6924 4.20098 0.330958 0
M  V30 224 H 20.4164 3.12433 0.95149 0
M  V30 225 H 19.0754 3.48061 -1.15105 0
M  V30 226 H 18.7234 4.96034 0.83422 0
M  V30 227 H 18.4234 5.83557 -0.688149 0
M  V30 228 H 19.9474 6.10255 0.205238 0
M  V30 229 H 21.3614 5.39055 -1.95172 0
M  V30 230 H 19.7584 5.33834 -2.74119 0
M  V30 231 H 20.8284 3.92844 -2.84257 0
M  V30 232 N 22.1715 0.800033 1.35784 0
M  V30 233 C 23.1345 0.211565 2.28221 0
M  V30 234 C 24.1345 -0.59728 1.49296 0
M  V30 235 O 25.3245 -0.416721 1.69142 0
M  V30 236 C 22.4565 -0.705846 3.33513 0
M  V30 237 H 23.6495 1.02677 2.81776 0
M  V30 238 H 21.2025 0.570211 1.45528 0
M  V30 239 H 21.9375 -1.54498 2.85133 0
M  V30 240 H 21.7225 -0.127655 3.91892 0
M  V30 241 H 23.2125 -1.11211 4.02519 0
M  V30 242 N 23.6496 -1.47581 0.552962 0
M  V30 243 C 24.8976 -2.02082 0.0272703 0
M  V30 244 C 25.2186 -1.4301 -1.32563 0
M  V30 245 O 24.4886 -0.603745 -1.86365 0
M  V30 246 H 23.0686 -0.746966 0.00709182 0
M  V30 247 H 25.7306 -1.81033 0.722008 0
M  V30 248 H 24.8266 -3.12034 -0.0639951 0
M  V30 249 N 25.1277 -0.289203 -1.54924 0
M  V30 250 C 26.5387 0.205791 -1.85562 0
M  V30 251 C 26.8897 1.54351 -1.2112 0
M  V30 252 O 26.0147 2.10435 -0.504601 0
M  V30 253 C 26.6097 0.380177 -3.3666 0
M  V30 254 C 25.1687 0.819395 -3.67373 0
M  V30 255 C 24.3157 -0.079159 -2.77187 0
M  V30 256 H 27.2667 -0.510577 -1.50262 0
M  V30 257 H 27.2877 1.21659 -3.60526 0
M  V30 258 H 26.7997 -0.593589 -3.83534 0
M  V30 259 H 24.9007 1.80413 -3.26009 0
M  V30 260 H 25.0137 0.646957 -4.74712 0
M  V30 261 H 23.3777 0.439565 -2.50878 0
M  V30 262 H 24.1607 -1.04906 -3.26878 0
M  V30 263 N 26.6058 1.57591 -0.0167156 0
M  V30 264 C 27.8518 1.91567 0.665582 0
M  V30 265 C 28.1848 0.892298 1.72487 0
M  V30 266 O 27.4598 -0.0867127 1.94307 0
M  V30 267 C 27.7428 3.36069 1.29342 0
M  V30 268 C 27.5958 4.49135 0.244541 0
M  V30 269 C 28.9148 3.803 2.21495 0
M  V30 270 H 26.0338 0.69666 0.240488 0
M  V30 271 H 28.6758 1.89866 -0.0714356 0
M  V30 272 H 26.8258 3.3765 1.92158 0
M  V30 273 H 28.4978 4.59689 -0.385228 0
M  V30 274 H 26.7408 4.3165 -0.431379 0
M  V30 275 H 27.4118 5.47242 0.723207 0
M  V30 276 H 29.8878 3.80377 1.68678 0
M  V30 277 H 28.7638 4.82127 2.62382 0
M  V30 278 H 29.0248 3.15104 3.101 0
M  V30 279 N 28.0839 -0.256276 1.55502 0
M  V30 280 C 29.0139 -1.32102 1.92539 0
M  V30 281 C 29.9949 -1.50684 0.789194 0
M  V30 282 O 31.1799 -1.63449 1.04872 0
M  V30 283 C 28.3099 -2.67752 2.21192 0
M  V30 284 C 27.2639 -2.63878 3.36975 0
M  V30 285 C 26.5899 -4.03236 3.51147 0
M  V30 286 C 27.8899 -2.21682 4.72921 0
M  V30 287 H 29.5839 -1.01351 2.81724 0
M  V30 288 H 27.1299 -0.486105 1.35547 0
M  V30 289 H 29.0829 -3.42365 2.45691 0
M  V30 290 H 27.8069 -3.0012 1.28824 0
M  V30 291 H 26.4659 -1.91722 3.12471 0
M  V30 292 H 26.1139 -4.32854 2.56216 0
M  V30 293 H 25.8139 -4.01535 4.29003 0
M  V30 294 H 27.3379 -4.79563 3.77957 0
M  V30 295 H 28.7519 -2.86023 4.96854 0
M  V30 296 H 27.1489 -2.3111 5.53812 0
M  V30 297 H 28.2189 -1.16833 4.70615 0
M  V30 298 N 29.562 -1.4872 -0.521534 0
M  V30 299 C 30.81 -1.56857 -1.27437 0
M  V30 300 C 31.131 -0.247982 -1.93417 0
M  V30 301 O 30.401 0.731151 -1.81744 0
M  V30 302 H 28.981 -0.577885 -0.473347 0
M  V30 303 H 31.643 -1.85233 -0.606205 0
M  V30 304 H 30.739 -2.35402 -2.0492 0
M  V30 305 N 31.0401 0.771051 -1.3745 0
M  V30 306 C 31.9701 1.89827 -1.3597 0
M  V30 307 C 32.9511 1.68562 -0.228216 0
M  V30 308 O 34.1361 1.8941 -0.428675 0
M  V30 309 C 31.2661 3.2712 -1.16662 0
M  V30 310 C 30.2201 3.6295 -2.2683 0
M  V30 311 C 29.5461 4.98791 -1.92644 0
M  V30 312 C 30.8461 3.69627 -3.69017 0
M  V30 313 H 32.5401 1.91323 -2.30295 0
M  V30 314 H 30.0861 0.919082 -1.10855 0
M  V30 315 H 32.0391 4.05615 -1.14256 0
M  V30 316 H 30.7631 3.26059 -0.187926 0
M  V30 317 H 29.4221 2.86763 -2.28392 0
M  V30 318 H 29.0701 4.94271 -0.933021 0
M  V30 319 H 28.7701 5.23733 -2.66416 0
M  V30 320 H 30.2941 5.79685 -1.91826 0
M  V30 321 H 31.7081 4.38273 -3.69581 0
M  V30 322 H 30.1051 4.06067 -4.41848 0
M  V30 323 H 31.1751 2.70273 -4.02592 0
M  V30 324 N 32.5182 1.22032 0.997298 0
M  V30 325 C 33.4652 0.986467 2.08656 0
M  V30 326 C 34.4352 -0.0902671 1.65855 0
M  V30 327 O 35.6202 0.0584294 1.90711 0
M  V30 328 C 32.7602 0.565569 3.40434 0
M  V30 329 C 31.8732 1.71259 3.96604 0
M  V30 330 C 31.0082 1.24011 5.16522 0
M  V30 331 C 30.0472 2.35896 5.64818 0
M  V30 332 N 29.1842 1.89726 6.7598 0
M  V30 333 H 34.0242 1.91892 2.27994 0
M  V30 334 H 31.5612 0.956199 1.11782 0
M  V30 335 H 33.5192 0.302738 4.161 0
M  V30 336 H 32.1492 -0.329879 3.2111 0
M  V30 337 H 31.2012 2.08986 3.17851 0
M  V30 338 H 32.5132 2.55436 4.28432 0
M  V30 339 H 31.6672 0.934395 5.99461 0
M  V30 340 H 30.4062 0.368487 4.86306 0
M  V30 341 H 29.4112 2.67261 4.8047 0
M  V30 342 H 30.6362 3.23567 5.97061 0
M  V30 343 H 28.5822 1.0492 6.47555 0
M  V30 344 H 28.4992 2.67471 7.07103 0
M  V30 345 H 29.7672 1.62211 7.62435 0
M  V30 346 N 33.9963 -1.19345 1.0293 0
M  V30 347 C 34.9063 -2.26245 0.620515 0
M  V30 348 C 35.9223 -1.70486 -0.347928 0
M  V30 349 O 37.0983 -2.00347 -0.205704 0
M  V30 350 C 34.1633 -3.46693 -0.0218957 0
M  V30 351 C 33.2243 -4.17632 0.994102 0
M  V30 352 C 32.4573 -5.32329 0.382253 0
M  V30 353 O 32.6803 -5.64552 -0.814676 0
M  V30 354 O 31.6143 -5.91664 1.10531 0
M  V30 355 H 35.4403 -2.63453 1.51083 0
M  V30 356 H 33.0253 -1.26207 0.799513 0
M  V30 357 H 34.9073 -4.19683 -0.380072 0
M  V30 358 H 33.5823 -3.11333 -0.886209 0
M  V30 359 H 32.4893 -3.4676 1.40387 0
M  V30 360 H 33.8223 -4.56964 1.8288 0
M  V30 361 N 35.4744 -0.807222 -1.35358 0
M  V30 362 C 36.7144 -0.393534 -2.00576 0
M  V30 363 C 37.0784 1.0203 -1.62647 0
M  V30 364 O 38.2794 1.53603 -2.20589 0
M  V30 365 C 36.5504 -0.572017 -3.52793 0
M  V30 366 S 38.1094 -0.248845 -4.38094 0
M  V30 367 H 34.9274 -0.149425 -0.695121 0
M  V30 368 H 37.5294 -1.04961 -1.64935 0
M  V30 369 H 36.2334 -1.60097 -3.77885 0
M  V30 370 H 35.7644 0.099359 -3.93275 0
M  V30 371 H 37.7794 0.943253 -4.87152 0
M  V30 372 N 36.9525 1.47285 -0.560781 0
M  V30 373 C 38.1805 2.06855 -0.0430262 0
M  V30 374 C 38.5955 1.41291 1.25229 0
M  V30 375 O 37.9525 0.510648 1.7521 0
M  V30 376 C 38.0035 3.61178 0.152518 0
M  V30 377 O 37.7245 4.24285 -1.0915 0
M  V30 378 C 39.2255 4.37624 0.707145 0
M  V30 379 H 36.4455 0.669319 -0.0474652 0
M  V30 380 H 38.9895 1.89237 -0.77521 0
M  V30 381 H 37.1445 3.78298 0.834843 0
M  V30 382 H 37.5585 5.16868 -0.891482 0
M  V30 383 H 39.0325 5.46271 0.793244 0
M  V30 384 H 39.5095 4.04152 1.71923 0
M  V30 385 H 40.1155 4.25257 0.0604027 0
M  V30 386 N 38.4306 0.297415 1.54768 0
M  V30 387 C 39.8466 -0.0560823 1.59501 0
M  V30 388 C 40.0466 -1.52725 1.31444 0
M  V30 389 O 39.1026 -2.27947 1.08611 0
M  V30 390 C 40.4156 0.338631 2.98787 0
M  V30 391 C 41.9636 0.287097 3.11681 0
M  V30 392 C 42.4386 0.656579 4.53269 0
M  V30 393 N 43.9296 0.608977 4.59179 0
M  V30 394 C 44.6646 0.867385 5.66802 0
M  V30 395 N 44.1606 1.19157 6.82476 0
M  V30 396 N 45.9536 0.794687 5.56454 0
M  V30 397 H 38.1046 1.25624 1.71267 0
M  V30 398 H 40.3676 0.509057 0.799728 0
M  V30 399 H 40.0736 1.36263 3.2423 0
M  V30 400 H 39.9476 -0.309508 3.75928 0
M  V30 401 H 42.3346 -0.727649 2.85988 0
M  V30 402 H 42.4156 0.969809 2.36703 0
M  V30 403 H 42.0596 1.66912 4.7969 0
M  V30 404 H 41.9896 -0.0481649 5.26578 0
M  V30 405 H 44.4806 0.369198 3.76092 0
M  V30 406 H 44.7936 1.37482 7.60473 0
M  V30 407 H 43.1386 1.22958 6.84037 0
M  V30 408 H 46.3296 0.541098 4.64962 0
M  V30 409 H 46.5026 0.999445 6.40246 0
M  V30 410 N 39.9087 -1.5758 0.0250728 0
M  V30 411 C 41.1567 -1.91255 -0.653151 0
M  V30 412 C 41.4777 -0.901691 -1.729 0
M  V30 413 O 40.7477 0.0573785 -1.95816 0
M  V30 414 H 39.3277 -0.705942 -0.244243 0
M  V30 415 H 41.9897 -1.94767 0.0719209 0
M  V30 416 H 41.0857 -2.91752 -1.10847 0
M  V30 417 N 41.3868 0.248026 -1.55636 0
M  V30 418 C 42.6118 0.998028 -1.81808 0
M  V30 419 C 43.0368 1.78207 -0.601979 0
M  V30 420 O 42.3948 1.75653 0.448961 0
M  V30 421 C 42.4428 1.9125 -3.05705 0
M  V30 422 O 41.5468 3.00406 -2.82542 0
M  V30 423 H 40.8878 0.284045 -0.600179 0
M  V30 424 H 43.4178 0.269357 -2.02819 0
M  V30 425 H 43.4278 2.32737 -3.35108 0
M  V30 426 H 42.1028 1.33602 -3.93857 0
M  V30 427 H 40.6798 2.63056 -2.64303 0
M  V30 428 N 42.8649 1.48995 0.513639 0
M  V30 429 C 43.8279 1.64229 1.59879 0
M  V30 430 C 44.8279 0.514696 1.5234 0
M  V30 431 O 46.0179 0.78087 1.55718 0
M  V30 432 C 43.1499 1.62783 2.99524 0
M  V30 433 H 44.3429 2.61004 1.47705 0
M  V30 434 H 41.8959 1.37837 0.736936 0
M  V30 435 H 42.6309 0.675461 3.17188 0
M  V30 436 H 42.4159 2.4466 3.06404 0
M  V30 437 H 43.9059 1.76669 3.78388 0
M  V30 438 N 44.343 -0.763751 1.37857 0
M  V30 439 C 45.589 -1.52483 1.33704 0
M  V30 440 C 45.922 -1.94051 -0.0759612 0
M  V30 441 O 45.197 -1.64675 -1.03501 0
M  V30 442 C 45.48 -2.78441 2.28348 0
M  V30 443 C 45.333 -2.43075 3.78463 0
M  V30 444 C 46.652 -3.80415 2.21298 0
M  V30 445 H 43.771 -0.553169 0.487005 0
M  V30 446 H 46.413 -0.875562 1.68624 0
M  V30 447 H 44.563 -3.33842 1.987 0
M  V30 448 H 46.235 -1.93527 4.18742 0
M  V30 449 H 44.478 -1.75666 3.96641 0
M  V30 450 H 45.149 -3.33149 4.40132 0
M  V30 451 H 47.625 -3.34527 2.47449 0
M  V30 452 H 46.501 -4.66257 2.89647 0
M  V30 453 H 46.762 -4.25262 1.20849 0
M  V30 454 N 45.8211 -1.22559 -0.990812 0
M  V30 455 C 47.0671 -1.06303 -1.73411 0
M  V30 456 C 47.4221 0.397442 -1.8825 0
M  V30 457 O 46.7151 1.29062 -1.41611 0
M  V30 458 C 46.9091 -1.71011 -3.13831 0
M  V30 459 C 46.7381 -3.232 -3.12685 0
M  V30 460 C 45.5081 -3.92314 -3.18461 0
M  V30 461 C 47.7061 -4.20107 -2.96673 0
M  V30 462 N 45.6881 -5.31571 -3.07091 0
M  V30 463 C 47.0591 -5.46208 -2.93354 0
M  V30 464 C 49.1141 -4.10973 -2.8108 0
M  V30 465 C 47.8171 -6.64225 -2.76039 0
M  V30 466 C 49.8431 -5.28642 -2.65126 0
M  V30 467 C 49.2051 -6.53663 -2.62496 0
M  V30 468 H 45.3041 -0.443441 -0.644115 0
M  V30 469 H 47.8881 -1.55131 -1.17654 0
M  V30 470 H 46.0591 -1.2473 -3.67827 0
M  V30 471 H 47.7911 -1.47828 -3.76735 0
M  V30 472 H 44.5461 -3.43326 -3.26227 0
M  V30 473 H 44.9701 -6.0455 -3.0471 0
M  V30 474 H 49.6121 -3.15098 -2.8191 0
M  V30 475 H 47.3301 -7.60246 -2.73954 0
M  V30 476 H 50.9161 -5.23407 -2.54039 0
M  V30 477 H 49.7961 -7.43182 -2.50302 0
M  V30 478 N 47.2992 1.18797 -1.03562 0
M  V30 479 C 48.5392 1.90346 -0.744832 0
M  V30 480 C 48.9032 1.78231 0.713972 0
M  V30 481 O 50.1042 2.44441 1.11813 0
M  V30 482 C 48.3752 3.36942 -1.19184 0
M  V30 483 S 49.9342 4.26638 -1.02593 0
M  V30 484 H 46.7522 0.657343 -0.270963 0
M  V30 485 H 49.3542 1.43579 -1.32685 0
M  V30 486 H 48.0582 3.43287 -2.24905 0
M  V30 487 H 47.5892 3.88745 -0.603397 0
M  V30 488 H 49.6042 4.96164 0.0596033 0
M  V30 489 N 48.7773 0.814389 1.34928 0
M  V30 490 C 49.7093 0.187834 2.28429 0
M  V30 491 C 50.7223 -0.617374 1.5064 0
M  V30 492 O 51.9113 -0.448454 1.72775 0
M  V30 493 C 49.0113 -0.755962 3.30361 0
M  V30 494 C 48.1843 0.00456686 4.374 0
M  V30 495 C 47.2433 -0.858876 5.19143 0
M  V30 496 O 46.2693 -0.306968 5.68372 0
M  V30 497 N 47.4713 -2.17988 5.38016 0
M  V30 498 H 50.2363 0.991105 2.82838 0
M  V30 499 H 47.7973 0.670561 1.4736 0
M  V30 500 H 49.7893 -1.338 3.81942 0
M  V30 501 H 48.3593 -1.46001 2.7641 0
M  V30 502 H 47.5793 0.767865 3.86649 0
M  V30 503 H 48.8673 0.528422 5.06049 0
M  V30 504 H 48.2653 -2.65212 4.99679 0
M  V30 505 H 46.8223 -2.71098 5.92747 0
M  V30 506 N 50.2554 -1.46986 0.568584 0
M  V30 507 C 51.2034 -2.31858 -0.185649 0
M  V30 508 C 52.1974 -1.43624 -0.898249 0
M  V30 509 O 53.4034 -1.60327 -0.818242 0
M  V30 510 H 49.7784 -0.747866 -0.0787399 0
M  V30 511 H 51.7494 -2.93303 0.549191 0
M  V30 512 C 50.4984 -3.26513 -1.19519 0
M  V30 513 H 49.8214 -3.94377 -0.656285 0
M  V30 514 H 51.2614 -3.88707 -1.6936 0
M  V30 515 C 49.7204 -2.50847 -2.24894 0
M  V30 516 O 50.2504 -2.26119 -3.32014 0
M  V30 517 N 48.4564 -2.11656 -1.99124 0
M  V30 518 H 48.0034 -2.31966 -1.12024 0
M  V30 519 H 47.9614 -1.61347 -2.69842 0
M  V30 520 N 51.7335 -0.305618 -1.54608 0
M  V30 521 C 52.9795 0.302746 -2.00528 0
M  V30 522 C 53.3125 1.53184 -1.19367 0
M  V30 523 O 52.5875 1.92598 -0.271321 0
M  V30 524 C 52.8705 0.654756 -3.54097 0
M  V30 525 C 52.7235 -0.583793 -4.45995 0
M  V30 526 C 54.0425 1.47947 -4.14487 0
M  V30 527 H 51.1615 0.108564 -0.72896 0
M  V30 528 H 53.8035 -0.418634 -1.85331 0
M  V30 529 H 51.9535 1.26935 -3.67178 0
M  V30 530 H 53.6255 -1.22224 -4.44814 0
M  V30 531 H 51.8685 -1.21615 -4.16404 0
M  V30 532 H 52.5395 -0.293287 -5.5122 0
M  V30 533 H 55.0155 0.96013 -4.04871 0
M  V30 534 H 53.8915 1.69454 -5.22088 0
M  V30 535 H 54.1525 2.47011 -3.66658 0
M  V30 536 N 53.2116 1.57565 -0.0334293 0
M  V30 537 C 54.1586 2.10478 0.946981 0
M  V30 538 C 55.1286 1.00787 1.32027 0
M  V30 539 O 56.3136 1.28232 1.41284 0
M  V30 540 C 53.4536 2.63994 2.22263 0
M  V30 541 C 52.5666 3.87709 1.90541 0
M  V30 542 C 51.7016 4.29604 3.12433 0
M  V30 543 C 50.7406 5.46065 2.76549 0
M  V30 544 N 49.8776 5.83096 3.9108 0
M  V30 545 H 54.7176 2.93963 0.488846 0
M  V30 546 H 52.2546 1.45296 0.22969 0
M  V30 547 H 54.2126 2.93114 2.96884 0
M  V30 548 H 52.8426 1.83333 2.65685 0
M  V30 549 H 51.8946 3.65291 1.06144 0
M  V30 550 H 53.2066 4.72403 1.60116 0
M  V30 551 H 52.3606 4.60182 3.9537 0
M  V30 552 H 51.0996 3.43685 3.46023 0
M  V30 553 H 50.1046 5.15176 1.92026 0
M  V30 554 H 51.3296 6.33685 2.44171 0
M  V30 555 H 49.2756 5.00132 4.24504 0
M  V30 556 H 49.1926 6.6244 3.64293 0
M  V30 557 H 50.4606 6.18282 4.74708 0
M  V30 558 N 54.6897 -0.239769 1.55765 0
M  V30 559 C 55.9177 -0.98417 1.81994 0
M  V30 560 C 56.3327 -1.7867 0.610124 0
M  V30 561 O 55.6897 -1.77571 -0.421271 0
M  V30 562 C 55.7407 -1.91635 3.06526 0
M  V30 563 O 55.4617 -1.14629 4.22838 0
M  V30 564 C 56.9627 -2.77616 3.45607 0
M  V30 565 H 54.1827 -0.28928 0.605441 0
M  V30 566 H 56.7267 -0.260499 2.02834 0
M  V30 567 H 54.8817 -2.5942 2.87715 0
M  V30 568 H 55.2957 -1.77745 4.93464 0
M  V30 569 H 56.7697 -3.38759 4.35828 0
M  V30 570 H 57.2467 -3.4909 2.6652 0
M  V30 571 H 57.8527 -2.15271 3.66795 0
M  V30 572 N 56.1678 -1.49265 -0.50573 0
M  V30 573 C 57.1308 -1.65075 -1.59006 0
M  V30 574 C 58.1308 -0.522768 -1.52065 0
M  V30 575 O 59.3208 -0.789117 -1.55302 0
M  V30 576 C 56.4528 -1.64369 -2.98656 0
M  V30 577 H 57.6458 -2.61784 -1.46319 0
M  V30 578 H 55.1988 -1.38226 -0.729616 0
M  V30 579 H 55.9338 -0.692272 -3.16825 0
M  V30 580 H 55.7188 -2.46282 -3.05103 0
M  V30 581 H 57.2088 -1.78674 -3.77446 0
M  V30 582 N 57.6459 0.756429 -1.3826 0
M  V30 583 C 58.8709 1.55077 -1.37717 0
M  V30 584 C 59.2959 1.88073 0.03164 0
M  V30 585 O 58.6539 1.50364 1.01293 0
M  V30 586 C 58.7019 2.8283 -2.23695 0
M  V30 587 O 57.8059 3.77862 -1.6521 0
M  V30 588 H 57.1469 0.469152 -0.469885 0
M  V30 589 H 59.6769 0.935019 -1.81985 0
M  V30 590 H 59.6869 3.31783 -2.37453 0
M  V30 591 H 58.3619 2.58144 -3.2609 0
M  V30 592 H 56.9389 3.36555 -1.60578 0
M  V30 593 N 59.124 1.23083 0.984299 0
M  V30 594 C 60.401 0.9689 1.69917 0
M  V30 595 C 60.781 -0.513604 2.04757 0
M  V30 596 O 60.129 -1.48383 1.73767 0
M  V30 597 C 60.339 1.87518 2.94343 0
M  V30 598 C 61.687 2.13636 3.6694 0
M  V30 599 O 62.711 1.85036 3.04368 0
M  V30 600 O 61.57 2.62119 4.79537 0
M  V30 601 H 58.664 0.365095 0.742048 0
M  V30 602 H 61.21 1.34107 1.03987 0
M  V30 603 H 59.982 2.87756 2.65164 0
M  V30 604 H 59.605 1.50514 3.6801 0
M  V30 605 N 60.6021 -1.18246 1.0419 0
M  V30 606 C 61.8421 -1.89948 0.754916 0
M  V30 607 C 62.2061 -1.78608 -0.70451 0
M  V30 608 O 63.4071 -2.4503 -1.10516 0
M  V30 609 C 61.6781 -3.36305 1.20969 0
M  V30 610 S 63.2371 -4.26088 1.04854 0
M  V30 611 H 60.0551 -0.655897 0.274446 0
M  V30 612 H 62.6571 -1.42873 1.33445 0
M  V30 613 H 61.3611 -3.42089 2.26722 0
M  V30 614 H 60.8921 -3.8842 0.624004 0
M  V30 615 H 62.9071 -4.96189 -0.0332896 0
M  V30 616 N 62.0802 -0.821533 -1.34494 0
M  V30 617 C 63.3282 -0.408139 -1.97936 0
M  V30 618 C 63.6492 1.03193 -1.65457 0
M  V30 619 O 62.9192 1.71622 -0.944595 0
M  V30 620 H 61.4992 -0.147928 -0.732206 0
M  V30 621 H 64.1612 -1.05067 -1.64155 0
M  V30 622 H 63.2572 -0.52601 -3.07635 0
M  V30 623 N 63.5583 1.46682 -0.576371 0
M  V30 624 C 64.5213 2.28707 0.150239 0
M  V30 625 C 65.5213 1.38035 0.824794 0
M  V30 626 O 66.7113 1.60476 0.677719 0
M  V30 627 C 63.8433 3.18248 1.22192 0
M  V30 628 H 65.0363 2.94423 -0.570521 0
M  V30 629 H 62.5893 1.52688 -0.334078 0
M  V30 630 H 63.3243 2.57265 1.97447 0
M  V30 631 H 63.1093 3.85 0.742812 0
M  V30 632 H 64.5993 3.80001 1.73172 0
M  V30 633 N 65.0364 0.313813 1.54444 0
M  V30 634 C 66.2824 -0.292108 2.00685 0
M  V30 635 C 66.6154 -1.52548 1.20177 0
M  V30 636 O 65.8904 -1.92452 0.281531 0
M  V30 637 C 66.1734 -0.635968 3.5444 0
M  V30 638 C 66.0264 0.607437 4.4568 0
M  V30 639 C 67.3454 -1.45747 4.15266 0
M  V30 640 H 64.4644 -0.104697 0.729526 0
M  V30 641 H 67.1064 0.428457 1.85106 0
M  V30 642 H 65.2564 -1.24986 3.67846 0
M  V30 643 H 66.9284 1.24581 4.44159 0
M  V30 644 H 65.1714 1.23822 4.15753 0
M  V30 645 H 65.8424 0.322515 5.51057 0
M  V30 646 H 68.3184 -0.938645 4.05375 0
M  V30 647 H 67.1944 -1.66683 5.2298 0
M  V30 648 H 67.4554 -2.45063 3.67963 0
M  V30 649 N 66.5145 -1.57545 0.0417849 0
M  V30 650 C 67.4615 -2.10977 -0.935805 0
M  V30 651 C 68.4315 -1.01486 -1.31491 0
M  V30 652 O 69.6165 -1.2898 -1.40602 0
M  V30 653 C 66.7565 -2.65169 -2.2086 0
M  V30 654 C 65.8695 -3.88714 -1.88482 0
M  V30 655 C 65.0045 -4.31254 -3.1015 0
M  V30 656 C 64.0435 -5.47524 -2.7365 0
M  V30 657 N 63.1805 -5.85162 -3.87982 0
M  V30 658 H 68.0205 -2.94218 -0.473249 0
M  V30 659 H 65.5575 -1.45415 -0.221981 0
M  V30 660 H 67.5155 -2.94685 -2.95325 0
M  V30 661 H 66.1455 -1.8474 -2.64709 0
M  V30 662 H 65.1975 -3.65849 -1.04205 0
M  V30 663 H 66.5095 -4.73245 -1.57608 0
M  V30 664 H 65.6635 -4.62273 -3.92923 0
M  V30 665 H 64.4025 -3.45516 -3.44195 0
M  V30 666 H 63.4075 -5.16187 -1.89291 0
M  V30 667 H 64.6325 -6.34971 -2.40807 0
M  V30 668 H 62.5785 -5.02377 -4.21846 0
M  V30 669 H 62.4955 -6.64362 -3.60775 0
M  V30 670 H 63.7635 -6.20791 -4.71422 0
M  V30 671 N 67.9926 0.231505 -1.5589 0
M  V30 672 C 68.9426 1.29007 -1.87993 0
M  V30 673 C 69.9266 1.42764 -0.742102 0
M  V30 674 O 71.1186 1.45747 -1.00433 0
M  V30 675 C 68.2476 2.6425 -2.1915 0
M  V30 676 C 67.3336 2.54435 -3.39299 0
M  V30 677 N 67.7246 2.14262 -4.58176 0
M  V30 678 C 66.0226 2.85416 -3.42715 0
M  V30 679 C 66.7236 2.15455 -5.40328 0
M  V30 680 N 65.6996 2.55558 -4.79783 0
M  V30 681 H 69.5016 0.970213 -2.77424 0
M  V30 682 H 67.0156 0.440097 -1.56323 0
M  V30 683 H 69.0126 3.40665 -2.40319 0
M  V30 684 H 67.6726 2.9709 -1.31025 0
M  V30 685 H 68.6836 1.85554 -4.83518 0
M  V30 686 H 65.3606 3.22693 -2.64906 0
M  V30 687 H 66.7506 1.86605 -6.45467 0
M  V30 688 N 69.4707 1.49531 0.497807 0
M  V30 689 C 70.7107 1.60799 1.26187 0
M  V30 690 C 71.0747 0.289627 1.89803 0
M  V30 691 O 72.2757 0.277512 2.67364 0
M  V30 692 C 70.5467 2.73729 2.29798 0
M  V30 693 S 72.1057 3.04968 3.155 0
M  V30 694 H 68.9237 0.567145 0.428798 0
M  V30 695 H 71.5257 1.87204 0.563477 0
M  V30 696 H 70.2297 3.68036 1.81597 0
M  V30 697 H 69.7607 2.49328 3.04301 0
M  V30 698 H 71.7757 2.46735 4.30507 0
M  V30 699 N 70.9488 -0.749086 1.3866 0
M  V30 700 C 71.8788 -1.8764 1.38973 0
M  V30 701 C 72.8598 -1.68178 0.255004 0
M  V30 702 O 74.0448 -1.88704 0.458754 0
M  V30 703 C 71.1748 -3.25222 1.21851 0
M  V30 704 C 70.1288 -3.59295 2.32575 0
M  V30 705 C 69.4548 -4.95663 2.00555 0
M  V30 706 C 70.7548 -3.63709 3.7485 0
M  V30 707 H 72.4488 -1.87635 2.3331 0
M  V30 708 H 69.9948 -0.901329 1.12303 0
M  V30 709 H 71.9478 -4.03746 1.20695 0
M  V30 710 H 70.6718 -3.25719 0.239775 0
M  V30 711 H 69.3308 -2.83093 2.32925 0
M  V30 712 H 68.9788 -4.92724 1.01154 0
M  V30 713 H 68.6788 -5.19429 2.74714 0
M  V30 714 H 70.2028 -5.7656 2.01024 0
M  V30 715 H 71.6168 -4.32338 3.76506 0
M  V30 716 H 70.0138 -3.98986 4.48252 0
M  V30 717 H 71.0838 -2.63834 4.06841 0
M  V30 718 N 72.4269 -1.23603 -0.977757 0
M  V30 719 C 73.3589 -0.977369 -2.07317 0
M  V30 720 C 74.3719 0.0495845 -1.62724 0
M  V30 721 O 75.5609 -0.186261 -1.77526 0
M  V30 722 C 72.6609 -0.451216 -3.35883 0
M  V30 723 C 71.8339 -1.53896 -4.09432 0
M  V30 724 C 70.8929 -1.01721 -5.16274 0
M  V30 725 O 69.9189 -1.70676 -5.43009 0
M  V30 726 N 71.1209 0.153594 -5.80297 0
M  V30 727 H 73.8859 -1.92047 -2.30082 0
M  V30 728 H 71.4469 -1.14497 -1.14465 0
M  V30 729 H 73.4389 -0.0871574 -4.04606 0
M  V30 730 H 72.0089 0.397368 -3.10064 0
M  V30 731 H 71.2289 -2.07566 -3.35127 0
M  V30 732 H 72.5169 -2.27037 -4.55337 0
M  V30 733 H 71.9149 0.730323 -5.60966 0
M  V30 734 H 70.4719 0.458892 -6.50183 0
M  V30 735 N 73.905 1.17692 -1.04816 0
M  V30 736 C 75.133 1.91786 -0.776254 0
M  V30 737 C 75.548 1.76604 0.667577 0
M  V30 738 O 74.905 1.10067 1.45573 0
M  V30 739 C 74.956 3.42967 -1.14263 0
M  V30 740 O 74.677 3.57678 -2.52978 0
M  V30 741 C 76.178 4.34144 -0.896311 0
M  V30 742 H 73.398 0.608624 -0.282519 0
M  V30 743 H 75.942 1.49268 -1.39783 0
M  V30 744 H 74.097 3.83245 -0.565874 0
M  V30 745 H 74.511 4.51319 -2.67229 0
M  V30 746 H 75.985 5.38744 -1.20244 0
M  V30 747 H 76.462 4.38876 0.168636 0
M  V30 748 H 77.068 3.99574 -1.45672 0
M  V30 749 N 75.3831 0.828654 1.34056 0
M  V30 750 C 76.6291 0.42008 1.98402 0
M  V30 751 C 76.9621 -1.01564 1.65525 0
M  V30 752 O 76.2371 -1.70834 0.929831 0
M  V30 753 C 76.5201 0.62927 3.54559 0
M  V30 754 C 76.3731 2.11152 3.97159 0
M  V30 755 C 77.6921 0.0688756 4.40046 0
M  V30 756 H 74.8111 0.154104 0.720709 0
M  V30 757 H 77.4531 1.04228 1.5886 0
M  V30 758 H 75.6031 0.0996418 3.88372 0
M  V30 759 H 77.2751 2.70522 3.73651 0
M  V30 760 H 75.5181 2.59985 3.47261 0
M  V30 761 H 76.1891 2.20868 5.05887 0
M  V30 762 H 78.6651 0.521458 4.1282 0
M  V30 763 H 77.5411 0.245006 5.48353 0
M  V30 764 H 77.8021 -1.0266 4.30015 0
M  V30 765 N 76.8612 -1.46375 0.584142 0
M  V30 766 C 78.1072 -2.03248 0.0787103 0
M  V30 767 C 78.4622 -1.44737 -1.26763 0
M  V30 768 O 77.7552 -0.603625 -1.81843 0
M  V30 769 C 77.9492 -3.57373 -0.0439342 0
M  V30 770 C 77.7782 -4.30831 1.28897 0
M  V30 771 C 76.5482 -4.69683 1.8635 0
M  V30 772 C 78.7462 -4.64278 2.21248 0
M  V30 773 N 76.7282 -5.27898 3.13365 0
M  V30 774 C 78.0992 -5.23078 3.32851 0
M  V30 775 C 80.1542 -4.46209 2.20911 0
M  V30 776 C 78.8572 -5.65715 4.44251 0
M  V30 777 C 80.8832 -4.89864 3.31341 0
M  V30 778 C 80.2452 -5.48736 4.41665 0
M  V30 779 H 76.3442 -0.778714 0.0716144 0
M  V30 780 H 78.9282 -1.78509 0.777355 0
M  V30 781 H 77.0992 -3.81823 -0.711749 0
M  V30 782 H 78.8312 -4.00892 -0.553881 0
M  V30 783 H 75.5862 -4.52488 1.39826 0
M  V30 784 H 76.0102 -5.61525 3.78178 0
M  V30 785 H 80.6522 -4.00027 1.36888 0
M  V30 786 H 78.3702 -6.10875 5.29015 0
M  V30 787 H 81.9562 -4.77634 3.322 0
M  V30 788 H 80.8362 -5.81898 5.25704 0
M  V30 789 N 78.3393 -0.321999 -1.54275 0
M  V30 790 C 79.2873 0.560206 -2.25753 0
M  V30 791 C 80.2813 1.11984 -1.27106 0
M  V30 792 O 81.4873 1.06806 -1.44888 0
M  V30 793 H 77.8623 0.199304 -0.725108 0
M  V30 794 H 79.8333 -0.0649365 -2.98329 0
M  V30 795 C 78.5823 1.71023 -3.02731 0
M  V30 796 H 77.9053 1.28885 -3.78456 0
M  V30 797 H 79.3453 2.30314 -3.55993 0
M  V30 798 C 77.8043 2.62692 -2.10938 0
M  V30 799 O 78.3343 3.64364 -1.6912 0
M  V30 800 N 76.5403 2.30891 -1.76459 0
M  V30 801 H 76.0873 1.48253 -2.10663 0
M  V30 802 H 76.0453 2.92487 -1.1532 0
M  V30 803 N 79.8174 1.5752 -0.0501392 0
M  V30 804 C 80.7644 2.1147 0.924603 0
M  V30 805 C 81.7344 1.02182 1.30951 0
M  V30 806 O 82.9194 1.29723 1.39916 0
M  V30 807 C 80.0594 2.66337 2.19451 0
M  V30 808 C 79.1724 3.89708 1.86418 0
M  V30 809 C 78.3074 4.32893 3.07859 0
M  V30 810 C 77.3464 5.48967 2.70742 0
M  V30 811 N 76.4834 5.87211 3.84874 0
M  V30 812 H 81.3234 2.94465 0.457639 0
M  V30 813 H 78.8604 1.45531 0.214266 0
M  V30 814 H 80.8184 2.96247 2.93758 0
M  V30 815 H 79.4484 1.86141 2.63726 0
M  V30 816 H 78.5004 3.66396 1.02264 0
M  V30 817 H 79.8124 4.74074 1.55096 0
M  V30 818 H 78.9664 4.6435 3.90466 0
M  V30 819 H 77.7054 3.47336 3.42358 0
M  V30 820 H 76.7104 5.17183 1.86551 0
M  V30 821 H 77.9354 6.3624 2.37436 0
M  V30 822 H 75.8814 5.04607 4.19175 0
M  V30 823 H 75.7984 6.66266 3.57247 0
M  V30 824 H 77.0664 6.23282 4.68123 0
M  V30 825 N 81.2955 -0.223234 1.56011 0
M  V30 826 C 82.7065 -0.790368 1.69145 0
M  V30 827 C 83.0575 -1.85055 0.651845 0
M  V30 828 O 82.1825 -2.15498 -0.197359 0
M  V30 829 C 82.7775 -1.4404 3.06656 0
M  V30 830 C 81.3365 -1.95494 3.2165 0
M  V30 831 C 80.4835 -0.814506 2.65068 0
M  V30 832 H 83.4345 0.00139011 1.587 0
M  V30 833 H 83.4555 -2.30916 3.0242 0
M  V30 834 H 82.9675 -0.668543 3.82298 0
M  V30 835 H 81.0685 -2.75487 2.50874 0
M  V30 836 H 81.1815 -2.13607 4.28846 0
M  V30 837 H 79.5455 -1.22137 2.23505 0
M  V30 838 H 80.3285 -0.0553515 3.43255 0
M  V30 839 N 82.7736 -1.49793 -0.48987 0
M  V30 840 C 84.0016 -1.63568 -1.26701 0
M  V30 841 C 84.4166 -0.311465 -1.86213 0
M  V30 842 O 83.7736 0.704416 -1.68357 0
M  V30 843 C 83.8246 -2.71284 -2.38929 0
M  V30 844 O 83.5456 -3.9857 -1.81861 0
M  V30 845 C 85.0466 -2.95864 -3.3012 0
M  V30 846 H 82.2666 -0.550342 -0.383881 0
M  V30 847 H 84.8106 -1.95898 -0.586864 0
M  V30 848 H 82.9656 -2.417 -3.02753 0
M  V30 849 H 83.3796 -4.57993 -2.55622 0
M  V30 850 H 84.8536 -3.74941 -4.05121 0
M  V30 851 H 85.3306 -2.06206 -3.87783 0
M  V30 852 H 85.9366 -3.26907 -2.72051 0
M  V30 853 N 84.2517 0.741722 -1.39055 0
M  V30 854 C 85.4977 1.50336 -1.36113 0
M  V30 855 C 85.8307 1.94148 0.0450796 0
M  V30 856 O 85.1057 1.66301 1.00868 0
M  V30 857 C 85.3887 2.74773 -2.32749 0
M  V30 858 C 85.2417 2.37023 -3.82283 0
M  V30 859 C 86.5607 3.76846 -2.27322 0
M  V30 860 H 83.6797 0.545351 -0.495743 0
M  V30 861 H 86.3217 0.848624 -1.69995 0
M  V30 862 H 84.4717 3.30639 -2.03986 0
M  V30 863 H 86.1437 1.8684 -4.21768 0
M  V30 864 H 84.3867 1.69334 -3.99385 0
M  V30 865 H 85.0577 3.26104 -4.45376 0
M  V30 866 H 87.5337 3.30548 -2.5274 0
M  V30 867 H 86.4097 4.6159 -2.97028 0
M  V30 868 H 86.6707 4.23286 -1.27599 0
M  V30 869 N 85.7298 1.2412 0.971189 0
M  V30 870 C 86.6768 1.0305 2.06517 0
M  V30 871 C 87.6468 -0.0550666 1.66009 0
M  V30 872 O 88.8318 0.0988688 1.90544 0
M  V30 873 C 85.9718 0.637653 3.39158 0
M  V30 874 C 85.0848 1.79633 3.92882 0
M  V30 875 C 84.2198 1.34939 5.13775 0
M  V30 876 C 83.2588 2.47823 5.59687 0
M  V30 877 N 82.3958 2.04022 6.71803 0
M  V30 878 H 87.2358 1.96685 2.23873 0
M  V30 879 H 84.7728 0.979694 1.09729 0
M  V30 880 H 86.7308 0.390931 4.15364 0
M  V30 881 H 85.3608 -0.261693 3.21737 0
M  V30 882 H 84.4128 2.15681 3.13346 0
M  V30 883 H 85.7248 2.64466 4.22918 0
M  V30 884 H 84.8788 1.06134 5.97345 0
M  V30 885 H 83.6178 0.471557 4.85415 0
M  V30 886 H 82.6228 2.77392 4.74693 0
M  V30 887 H 83.8478 3.36158 5.90063 0
M  V30 888 H 81.7938 1.18632 6.45184 0
M  V30 889 H 81.7108 2.82409 7.01271 0
M  V30 890 H 82.9788 1.78347 7.58823 0
M  V30 891 N 87.2079 -1.17134 1.05439 0
M  V30 892 C 88.4329 -1.91913 0.786396 0
M  V30 893 C 88.8579 -1.7643 -0.652234 0
M  V30 894 O 88.2159 -1.08372 -1.45345 0
M  V30 895 C 88.2639 -3.40921 1.17497 0
M  V30 896 O 87.3679 -4.11244 0.308589 0
M  V30 897 H 86.7089 -0.598215 0.288158 0
M  V30 898 H 89.2389 -1.48457 1.4079 0
M  V30 899 H 89.2489 -3.91668 1.14281 0
M  V30 900 H 87.9239 -3.5151 2.22292 0
M  V30 901 H 86.5009 -3.70731 0.40157 0
M  V30 902 N 88.686 -0.835752 -1.33615 0
M  V30 903 C 89.616 -0.281739 -2.31794 0
M  V30 904 C 90.597 0.608833 -1.58831 0
M  V30 905 O 91.782 0.533035 -1.86741 0
M  V30 906 C 88.912 0.546612 -3.42971 0
M  V30 907 C 87.866 -0.247904 -4.27281 0
M  V30 908 C 87.192 0.704001 -5.30045 0
M  V30 909 C 88.492 -1.46324 -5.01385 0
M  V30 910 H 90.186 -1.10206 -2.78379 0
M  V30 911 H 87.732 -0.531388 -1.33837 0
M  V30 912 H 89.685 0.944467 -4.1068 0
M  V30 913 H 88.409 1.40011 -2.95067 0
M  V30 914 H 87.068 -0.627281 -3.61194 0
M  V30 915 H 86.716 1.55381 -4.78399 0
M  V30 916 H 86.416 0.176524 -5.87335 0
M  V30 917 H 87.94 1.09944 -6.0062 0
M  V30 918 H 89.354 -1.13871 -5.61877 0
M  V30 919 H 87.751 -1.92728 -5.6831 0
M  V30 920 H 88.821 -2.23467 -4.30338 0
M  V30 921 N 90.1641 1.46063 -0.591896 0
M  V30 922 C 91.5751 1.85944 -0.167822 0
M  V30 923 C 91.9261 1.49429 1.27143 0
M  V30 924 O 91.0511 0.913515 1.96173 0
M  V30 925 C 91.6461 3.37489 -0.297794 0
M  V30 926 C 90.2051 3.76332 0.0714732 0
M  V30 927 C 89.3521 2.7006 -0.629509 0
M  V30 928 H 92.3031 1.37087 -0.799555 0
M  V30 929 H 92.3241 3.77532 0.474349 0
M  V30 930 H 91.8361 3.64034 -1.3454 0
M  V30 931 H 89.9371 3.55405 1.11886 0
M  V30 932 H 90.0501 4.78088 -0.311245 0
M  V30 933 H 88.4141 2.54607 -0.0687867 0
M  V30 934 H 89.1971 2.99444 -1.67894 0
M  V30 935 N 91.6422 0.330177 1.54103 0
M  V30 936 C 92.8822 -0.270916 2.02597 0
M  V30 937 C 93.2462 -1.48826 1.21304 0
M  V30 938 O 94.4472 -2.16266 1.59633 0
M  V30 939 C 92.7182 -0.590328 3.52491 0
M  V30 940 S 94.2772 -1.17014 4.2291 0
M  V30 941 H 91.0952 -0.0815379 0.706309 0
M  V30 942 H 93.6972 0.464835 1.89893 0
M  V30 943 H 92.4012 0.303691 4.09275 0
M  V30 944 H 91.9322 -1.3561 3.69288 0
M  V30 945 H 93.9472 -2.45662 4.3112 0
M  V30 946 N 93.1203 -1.57491 0.0584922 0
M  V30 947 C 94.3973 -1.84346 -0.653918 0
M  V30 948 C 94.7773 -0.948355 -1.88599 0
M  V30 949 O 94.1253 -0.0112403 -2.28497 0
M  V30 950 C 94.3353 -3.34239 -1.00425 0
M  V30 951 C 95.6833 -4.01431 -1.38342 0
M  V30 952 O 96.7073 -3.38907 -1.09637 0
M  V30 953 O 95.5663 -5.11683 -1.91943 0
M  V30 954 H 92.6603 -0.761112 -0.323478 0
M  V30 955 H 95.2063 -1.6947 0.0884125 0
M  V30 956 H 93.9783 -3.91089 -0.128625 0
M  V30 957 H 93.6013 -3.54329 -1.80378 0
M  V30 958 N 94.5984 0.214957 -1.56127 0
M  V30 959 C 95.8474 0.936451 -1.78643 0
M  V30 960 C 96.1604 1.85237 -0.628229 0
M  V30 961 O 97.3664 2.613 -0.737186 0
M  V30 962 C 95.8224 1.7154 -3.16389 0
M  V30 963 C 95.4304 0.845299 -4.39953 0
M  V30 964 C 97.1744 2.42772 -3.48227 0
M  V30 965 C 95.0814 1.62198 -5.68723 0
M  V30 966 H 94.0114 0.353401 -0.666051 0
M  V30 967 H 96.6624 0.190169 -1.82512 0
M  V30 968 H 95.0444 2.50484 -3.06715 0
M  V30 969 H 96.2184 0.0959353 -4.607 0
M  V30 970 H 94.5334 0.244789 -4.1568 0
M  V30 971 H 97.1304 3.01394 -4.41663 0
M  V30 972 H 97.4734 3.15984 -2.71035 0
M  V30 973 H 98.0064 1.70813 -3.5926 0
M  V30 974 H 94.7454 0.933011 -6.48826 0
M  V30 975 H 94.2654 2.34579 -5.52026 0
M  V30 976 H 95.9444 2.18095 -6.09133 0
M  V30 977 N 96.0765 1.50051 0.48192 0
M  V30 978 C 97.3165 1.62128 1.24474 0
M  V30 979 C 97.6805 0.309742 1.89485 0
M  V30 980 O 98.8815 0.305854 2.67054 0
M  V30 981 C 97.1525 2.76151 2.26882 0
M  V30 982 S 98.7115 3.08297 3.12247 0
M  V30 983 H 95.5295 0.571661 0.422759 0
M  V30 984 H 98.1315 1.87791 0.54359 0
M  V30 985 H 96.8355 3.69942 1.77683 0
M  V30 986 H 96.3665 2.52541 3.0164 0
M  V30 987 H 98.3815 2.51287 4.27866 0
M  V30 988 N 97.5546 -0.734337 1.39446 0
M  V30 989 C 98.5016 -1.84835 1.38219 0
M  V30 990 C 99.4716 -1.64331 0.24179 0
M  V30 991 O 100.657 -1.85728 0.437002 0
M  V30 992 C 97.7966 -3.22355 1.23212 0
M  V30 993 C 96.9096 -3.5456 2.46801 0
M  V30 994 C 96.0446 -4.81485 2.24377 0
M  V30 995 C 95.0836 -5.06536 3.43639 0
M  V30 996 N 94.2206 -6.24665 3.20528 0
M  V30 997 H 99.0606 -1.85219 2.33448 0
M  V30 998 H 96.5976 -0.905039 1.15963 0
M  V30 999 H 98.5556 -4.0174 1.12522 0
M  V30 1000 H 97.1856 -3.21248 0.316121 0
M  V30 1001 H 96.2376 -2.69872 2.68092 0
M  V30 1002 H 97.5496 -3.6899 3.3563 0
M  V30 1003 H 96.7036 -5.68852 2.10933 0
M  V30 1004 H 95.4426 -4.6923 1.32944 0
M  V30 1005 H 94.4476 -4.17632 3.5758 0
M  V30 1006 H 95.6726 -5.20676 4.35974 0
M  V30 1007 H 93.6186 -6.13696 2.3176 0
M  V30 1008 H 93.5356 -6.39685 4.02913 0
M  V30 1009 H 94.8036 -7.14868 3.10779 0
M  V30 1010 N 99.0327 -1.24633 -0.964593 0
M  V30 1011 C 100.31 -0.995809 -1.68354 0
M  V30 1012 C 100.69 0.480964 -2.05548 0
M  V30 1013 O 100.038 1.45599 -1.76105 0
M  V30 1014 C 100.248 -1.92177 -2.91323 0
M  V30 1015 C 101.596 -2.19446 -3.63495 0
M  V30 1016 O 102.62 -1.89855 -3.01386 0
M  V30 1017 O 101.479 -2.69714 -4.75307 0
M  V30 1018 H 98.5727 -0.376854 -0.736146 0
M  V30 1019 H 101.119 -1.35745 -1.0184 0
M  V30 1020 H 99.8907 -2.91938 -2.60553 0
M  V30 1021 H 99.5137 -1.56349 -3.65569 0
M  V30 1022 N 100.511 1.16574 -1.06058 0
M  V30 1023 C 101.757 1.87324 -0.777022 0
M  V30 1024 C 102.09 1.81351 0.694645 0
M  V30 1025 O 101.365 1.22753 1.50871 0
M  V30 1026 C 101.648 3.36991 -1.26922 0
M  V30 1027 C 101.501 3.51667 -2.80447 0
M  V30 1028 C 102.82 4.3131 -0.87521 0
M  V30 1029 H 99.9388 0.680191 -0.28374 0
M  V30 1030 H 102.581 1.37036 -1.3161 0
M  V30 1031 H 100.731 3.79949 -0.81063 0
M  V30 1032 H 102.403 3.17664 -3.34495 0
M  V30 1033 H 100.646 2.93656 -3.19294 0
M  V30 1034 H 101.317 4.56766 -3.0995 0
M  V30 1035 H 103.793 3.9624 -1.27014 0
M  V30 1036 H 102.669 5.34545 -1.2471 0
M  V30 1037 H 102.93 4.41552 0.220071 0
M  V30 1038 N 101.989 0.842826 1.3317 0
M  V30 1039 C 103.235 0.441099 1.97945 0
M  V30 1040 C 103.568 -0.998024 1.66593 0
M  V30 1041 O 102.843 -1.69839 0.947898 0
M  V30 1042 C 103.126 0.666841 3.53872 0
M  V30 1043 C 102.979 2.15352 3.94897 0
M  V30 1044 C 104.298 0.115544 4.39948 0
M  V30 1045 H 101.417 0.161739 0.719034 0
M  V30 1046 H 104.059 1.05907 1.57746 0
M  V30 1047 H 102.209 0.140828 3.88245 0
M  V30 1048 H 103.881 2.7447 3.70761 0
M  V30 1049 H 102.124 2.63653 3.44484 0
M  V30 1050 H 102.795 2.26221 5.03516 0
M  V30 1051 H 105.271 0.565213 4.12243 0
M  V30 1052 H 104.147 0.303152 5.48062 0
M  V30 1053 H 104.408 -0.980935 4.3108 0
M  V30 1054 N 103.467 -1.45747 0.599634 0
M  V30 1055 C 104.695 -2.06668 0.0978551 0
M  V30 1056 C 105.11 -1.44562 -1.21439 0
M  V30 1057 O 104.467 -0.556923 -1.73795 0
M  V30 1058 C 104.518 -3.61456 -0.0567044 0
M  V30 1059 O 104.239 -4.21242 1.20361 0
M  V30 1060 C 105.74 -4.39345 -0.590869 0
M  V30 1061 H 102.96 -0.667825 0.0651943 0
M  V30 1062 H 105.504 -1.87115 0.82511 0
M  V30 1063 H 103.659 -3.80378 -0.734251 0
M  V30 1064 H 104.073 -5.14323 1.02821 0
M  V30 1065 H 105.547 -5.48182 -0.648131 0
M  V30 1066 H 106.024 -4.08568 -1.61147 0
M  V30 1067 H 106.63 -4.25268 0.0523679 0
M  V30 1068 N 104.945 -0.338344 -1.53925 0
M  V30 1069 C 105.908 0.508299 -2.23493 0
M  V30 1070 C 106.908 1.03175 -1.23335 0
M  V30 1071 O 108.098 0.921826 -1.47811 0
M  V30 1072 C 105.23 1.70754 -2.95052 0
M  V30 1073 H 106.423 -0.100058 -2.99733 0
M  V30 1074 H 103.976 -0.0896198 -1.56043 0
M  V30 1075 H 104.711 2.35474 -2.22986 0
M  V30 1076 H 104.496 1.33946 -3.68512 0
M  V30 1077 H 105.986 2.30818 -3.48013 0
M  V30 1078 N 106.423 1.57458 -0.0668435 0
M  V30 1079 C 107.386 2.11323 0.887422 0
M  V30 1080 C 108.386 1.03618 1.22964 0
M  V30 1081 O 109.576 1.29626 1.16373 0
M  V30 1082 C 106.708 2.61048 2.19242 0
M  V30 1083 H 107.901 2.96942 0.420194 0
M  V30 1084 H 105.454 1.55239 0.181793 0
M  V30 1085 H 106.189 1.78868 2.70512 0
M  V30 1086 H 105.974 3.39769 1.95702 0
M  V30 1087 H 107.464 3.02814 2.87565 0
M  V30 1088 N 107.901 -0.206675 1.56239 0
M  V30 1089 C 109.149 -0.927007 1.79586 0
M  V30 1090 C 109.47 -1.8427 0.637929 0
M  V30 1091 O 108.74 -1.92849 -0.344398 0
M  V30 1092 H 107.32 -0.345292 0.662407 0
M  V30 1093 H 109.982 -0.21496 1.93711 0
M  V30 1094 H 109.078 -1.52501 2.72305 0
M  V30 1095 N 109.379 -1.50304 -0.473955 0
M  V30 1096 C 110.656 -1.51667 -1.23518 0
M  V30 1097 C 111.036 -0.259701 -2.09496 0
M  V30 1098 O 110.384 0.756986 -2.15597 0
M  V30 1099 C 110.594 -2.81082 -2.06868 0
M  V30 1100 C 111.942 -3.31631 -2.65153 0
M  V30 1101 O 112.966 -2.82384 -2.17113 0
M  V30 1102 O 111.825 -4.17471 -3.52675 0
M  V30 1103 H 108.919 -0.60822 -0.560355 0
M  V30 1104 H 111.465 -1.62592 -0.486011 0
M  V30 1105 H 110.237 -3.64041 -1.4349 0
M  V30 1106 H 109.86 -2.73146 -2.88924 0
M  V30 1107 N 110.857 0.726932 -1.39834 0
M  V30 1108 C 111.79 1.8501 -1.33592 0
M  V30 1109 C 112.768 1.61262 -0.208191 0
M  V30 1110 O 113.952 1.84422 -0.389981 0
M  V30 1111 C 111.079 3.21143 -1.07633 0
M  V30 1112 C 110.125 3.63737 -2.22705 0
M  V30 1113 S 110.958 3.72167 -3.85035 0
M  V30 1114 C 112.114 5.11077 -3.61318 0
M  V30 1115 H 112.347 1.90022 -2.28646 0
M  V30 1116 H 109.88 0.892595 -1.25985 0
M  V30 1117 H 111.838 3.99747 -0.933415 0
M  V30 1118 H 110.499 3.13776 -0.142526 0
M  V30 1119 H 109.692 4.62551 -2.00155 0
M  V30 1120 H 109.294 2.9236 -2.33242 0
M  V30 1121 H 111.586 5.97656 -3.19083 0
M  V30 1122 H 112.529 5.38658 -4.59623 0
M  V30 1123 H 112.937 4.81135 -2.95245 0
M  V30 1124 N 112.336 1.25143 0.95797 0
M  V30 1125 C 113.266 1.07711 2.07173 0
M  V30 1126 C 114.247 -0.0128462 1.70095 0
M  V30 1127 O 115.432 0.156061 1.93572 0
M  V30 1128 C 112.562 0.691503 3.40346 0
M  V30 1129 C 111.516 1.73132 3.9142 0
M  V30 1130 C 110.842 1.20049 5.21049 0
M  V30 1131 C 112.142 3.1294 4.1817 0
M  V30 1132 H 113.836 2.00873 2.22014 0
M  V30 1133 H 111.382 0.967191 1.06684 0
M  V30 1134 H 113.335 0.556505 4.17709 0
M  V30 1135 H 112.059 -0.275819 3.25433 0
M  V30 1136 H 110.718 1.8547 3.16222 0
M  V30 1137 H 110.366 0.223499 5.02503 0
M  V30 1138 H 110.066 1.89545 5.56189 0
M  V30 1139 H 111.59 1.07782 6.01012 0
M  V30 1140 H 113.004 3.03775 4.86203 0
M  V30 1141 H 111.401 3.79875 4.64559 0
M  V30 1142 H 112.471 3.6025 3.24573 0
M  V30 1143 N 113.814 -1.1601 1.06675 0
M  V30 1144 C 114.761 -2.20525 0.680967 0
M  V30 1145 C 115.731 -1.62904 -0.324283 0
M  V30 1146 O 116.916 -1.89615 -0.212294 0
M  V30 1147 C 114.056 -3.45013 0.0776551 0
M  V30 1148 C 113.169 -4.16863 1.13355 0
M  V30 1149 C 112.304 -5.2888 0.49597 0
M  V30 1150 C 111.343 -5.92537 1.53513 0
M  V30 1151 N 110.48 -6.96038 0.920631 0
M  V30 1152 H 115.32 -2.52876 1.57663 0
M  V30 1153 H 112.857 -1.24199 0.788223 0
M  V30 1154 H 114.815 -4.16193 -0.289704 0
M  V30 1155 H 113.445 -3.132 -0.781393 0
M  V30 1156 H 112.497 -3.44248 1.61857 0
M  V30 1157 H 113.809 -4.60294 1.92174 0
M  V30 1158 H 112.963 -6.06653 0.0758604 0
M  V30 1159 H 111.702 -4.86622 -0.324062 0
M  V30 1160 H 110.707 -5.13482 1.9651 0
M  V30 1161 H 111.932 -6.36873 2.35733 0
M  V30 1162 H 109.878 -6.55888 0.12138 0
M  V30 1163 H 109.795 -7.3786 1.64616 0
M  V30 1164 H 111.063 -7.77725 0.525795 0
M  V30 1165 N 115.292 -0.849877 -1.32721 0
M  V30 1166 C 116.569 -0.372405 -1.92022 0
M  V30 1167 C 116.949 1.1435 -1.77447 0
M  V30 1168 O 116.297 1.96296 -1.16962 0
M  V30 1169 C 116.507 -0.831482 -3.3895 0
M  V30 1170 C 117.855 -0.845882 -4.16089 0
M  V30 1171 O 118.879 -0.775806 -3.47649 0
M  V30 1172 O 117.738 -0.943753 -5.38289 0
M  V30 1173 H 114.832 -0.107667 -0.819961 0
M  V30 1174 H 117.378 -0.93646 -1.41522 0
M  V30 1175 H 116.15 -1.87448 -3.4348 0
M  V30 1176 H 115.773 -0.24461 -3.96847 0
M  V30 1177 N 116.77 1.45427 -0.607355 0
M  V30 1178 C 117.718 2.32269 0.12411 0
M  V30 1179 C 118.712 1.45955 0.859854 0
M  V30 1180 O 119.918 1.6244 0.775447 0
M  V30 1181 H 116.293 0.749691 0.0588839 0
M  V30 1182 H 118.264 2.91743 -0.626762 0
M  V30 1183 C 117.013 3.29567 1.1082 0
M  V30 1184 H 116.336 3.95978 0.551492 0
M  V30 1185 H 117.776 3.93061 1.58995 0
M  V30 1186 C 116.235 2.56722 2.18164 0
M  V30 1187 O 116.765 2.34842 3.25902 0
M  V30 1188 N 114.971 2.16861 1.93442 0
M  V30 1189 H 114.518 2.34855 1.05834 0
M  V30 1190 H 114.476 1.68444 2.65469 0
M  V30 1191 N 118.248 0.346503 1.53744 0
M  V30 1192 C 119.211 -0.496439 2.23759 0
M  V30 1193 C 120.211 -1.0252 1.2388 0
M  V30 1194 O 121.401 -0.913974 1.48297 0
M  V30 1195 C 118.533 -1.69187 2.95954 0
M  V30 1196 H 119.726 0.115952 2.99676 0
M  V30 1197 H 117.279 0.0978939 1.55993 0
M  V30 1198 H 118.014 -2.34288 2.24231 0
M  V30 1199 H 117.799 -1.31989 3.69217 0
M  V30 1200 H 119.289 -2.28969 3.49232 0
M  V30 1201 N 119.726 -1.57421 0.075193 0
M  V30 1202 C 120.954 -1.97946 -0.602076 0
M  V30 1203 C 121.369 -0.953674 -1.62943 0
M  V30 1204 O 120.726 0.0592551 -1.82404 0
M  V30 1205 C 120.777 -3.38546 -1.26762 0
M  V30 1206 O 120.498 -4.37195 -0.281376 0
M  V30 1207 C 121.999 -3.93966 -2.03239 0
M  V30 1208 H 119.219 -0.650918 -0.162931 0
M  V30 1209 H 121.763 -2.03959 0.148601 0
M  V30 1210 H 119.918 -3.33609 -1.96936 0
M  V30 1211 H 120.332 -5.18975 -0.759267 0
M  V30 1212 H 121.806 -4.94555 -2.45193 0
M  V30 1213 H 122.283 -3.30693 -2.8903 0
M  V30 1214 H 122.889 -4.02315 -1.37924 0
M  V30 1215 N 121.204 0.198386 -1.56346 0
M  V30 1216 C 122.114 1.2664 -1.97483 0
M  V30 1217 C 123.13 1.49989 -0.882002 0
M  V30 1218 O 124.306 1.62668 -1.18748 0
M  V30 1219 C 121.371 2.59141 -2.30319 0
M  V30 1220 C 120.432 2.43892 -3.53292 0
M  V30 1221 C 119.665 3.70074 -3.84553 0
M  V30 1222 O 119.888 4.74101 -3.1715 0
M  V30 1223 O 118.822 3.658 -4.7799 0
M  V30 1224 H 122.648 0.947304 -2.88548 0
M  V30 1225 H 120.233 0.403123 -1.43859 0
M  V30 1226 H 122.115 3.37352 -2.5253 0
M  V30 1227 H 120.79 2.90684 -1.42423 0
M  V30 1228 H 119.697 1.63803 -3.36332 0
M  V30 1229 H 121.03 2.17282 -4.41644 0
M  V30 1230 N 122.682 1.50554 0.465978 0
M  V30 1231 C 123.592 1.72585 1.58907 0
M  V30 1232 C 124.608 0.60911 1.6299 0
M  V30 1233 O 125.784 0.88804 1.80765 0
M  V30 1234 C 122.849 1.81995 2.95091 0
M  V30 1235 C 121.91 3.05751 3.01355 0
M  V30 1236 C 121.143 3.14702 4.31043 0
M  V30 1237 O 121.366 2.30313 5.21835 0
M  V30 1238 O 120.3 4.07468 4.43005 0
M  V30 1239 H 124.126 2.67799 1.43239 0
M  V30 1240 H 121.711 1.34711 0.646013 0
M  V30 1241 H 123.593 1.90335 3.75966 0
M  V30 1242 H 122.268 0.899659 3.10947 0
M  V30 1243 H 121.175 3.02908 2.19539 0
M  V30 1244 H 122.508 3.97375 2.90437 0
M  V30 1245 N 124.16 -0.719506 1.40217 0
M  V30 1246 C 125.07 -1.86378 1.42479 0
M  V30 1247 C 126.086 -1.71073 0.317834 0
M  V30 1248 O 127.262 -1.93406 0.561794 0
M  V30 1249 C 124.327 -3.22136 1.28178 0
M  V30 1250 C 123.388 -3.49723 2.48982 0
M  V30 1251 C 122.621 -4.79004 2.35353 0
M  V30 1252 O 122.844 -5.53821 1.36524 0
M  V30 1253 O 121.778 -5.06839 3.2465 0
M  V30 1254 H 125.604 -1.87425 2.38968 0
M  V30 1255 H 123.189 -0.869405 1.21498 0
M  V30 1256 H 125.071 -4.03234 1.22395 0
M  V30 1257 H 123.746 -3.21825 0.347934 0
M  V30 1258 H 122.653 -2.6865 2.60342 0
M  V30 1259 H 123.986 -3.54828 3.41113 0
M  V30 1260 N 125.638 -1.25649 -0.95132 0
M  V30 1261 C 126.887 -1.09988 -1.69073 0
M  V30 1262 C 127.2 0.358355 -1.92289 0
M  V30 1263 O 128.406 0.635466 -2.63958 0
M  V30 1264 C 126.862 -1.92012 -3.044 0
M  V30 1265 C 126.47 -3.42347 -2.88968 0
M  V30 1266 C 128.214 -1.8493 -3.82101 0
M  V30 1267 C 126.121 -4.16655 -4.19705 0
M  V30 1268 H 125.051 -0.407993 -0.63408 0
M  V30 1269 H 127.702 -1.49873 -1.05879 0
M  V30 1270 H 126.084 -1.44952 -3.68517 0
M  V30 1271 H 127.258 -3.97104 -2.33762 0
M  V30 1272 H 125.573 -3.50557 -2.24719 0
M  V30 1273 H 128.17 -2.37739 -4.78941 0
M  V30 1274 H 128.513 -0.817883 -4.08187 0
M  V30 1275 H 129.046 -2.29758 -3.2474 0
M  V30 1276 H 125.785 -5.20224 -3.98807 0
M  V30 1277 H 125.305 -3.66681 -4.74663 0
M  V30 1278 H 126.984 -4.24551 -4.88227 0
M  V30 1279 N 127.117 1.15442 -1.07289 0
M  V30 1280 C 128.047 2.22312 -0.714107 0
M  V30 1281 C 129.028 1.67467 0.298155 0
M  V30 1282 O 130.213 1.93445 0.171048 0
M  V30 1283 C 127.343 3.47124 -0.110448 0
M  V30 1284 C 126.297 4.14926 -1.04979 0
M  V30 1285 C 125.623 5.33807 -0.308924 0
M  V30 1286 C 126.923 4.64762 -2.38314 0
M  V30 1287 H 128.617 2.5258 -1.6076 0
M  V30 1288 H 126.163 1.21404 -0.77441 0
M  V30 1289 H 128.116 4.21124 0.152482 0
M  V30 1290 H 126.84 3.16187 0.81812 0
M  V30 1291 H 125.499 3.42866 -1.29764 0
M  V30 1292 H 125.147 4.99126 0.623084 0
M  V30 1293 H 124.847 5.80113 -0.935036 0
M  V30 1294 H 126.371 6.10576 -0.0537771 0
M  V30 1295 H 127.785 5.30292 -2.1786 0
M  V30 1296 H 126.182 5.21728 -2.96514 0
M  V30 1297 H 127.252 3.80434 -3.00663 0
M  V30 1298 N 128.595 0.856903 1.32268 0
M  V30 1299 C 129.841 0.462069 1.97466 0
M  V30 1300 C 130.174 -0.980298 1.67642 0
M  V30 1301 O 129.449 -1.68824 0.965858 0
M  V30 1302 C 129.732 0.704336 3.53145 0
M  V30 1303 C 129.585 2.19529 3.9259 0
M  V30 1304 C 130.904 0.1622 4.39801 0
M  V30 1305 H 128.023 0.169357 0.717278 0
M  V30 1306 H 130.665 1.07574 1.56614 0
M  V30 1307 H 128.815 0.181999 3.88073 0
M  V30 1308 H 130.487 2.78387 3.67829 0
M  V30 1309 H 128.73 2.67292 3.41668 0
M  V30 1310 H 129.401 2.31549 5.01088 0
M  V30 1311 H 131.877 0.608905 4.11621 0
M  V30 1312 H 130.753 0.361265 5.4771 0
M  V30 1313 H 131.014 -0.935158 4.32096 0
M  V30 1314 N 130.073 -1.45103 0.615059 0
M  V30 1315 C 131.303 -2.06254 0.119596 0
M  V30 1316 C 131.711 -1.4591 -1.20445 0
M  V30 1317 O 131.054 -0.570384 -1.7462 0
M  V30 1318 C 131.116 -3.59396 -0.0865591 0
M  V30 1319 C 130.78 -4.42116 1.15683 0
M  V30 1320 C 131.777 -4.7662 2.07676 0
M  V30 1321 C 129.462 -4.82749 1.38775 0
M  V30 1322 C 131.456 -5.50622 3.21082 0
M  V30 1323 C 129.143 -5.56504 2.52481 0
M  V30 1324 C 130.141 -5.90358 3.43463 0
M  V30 1325 O 129.829 -6.62615 4.55189 0
M  V30 1326 H 129.561 -0.672423 0.0694512 0
M  V30 1327 H 132.115 -1.87219 0.844885 0
M  V30 1328 H 130.345 -3.76859 -0.866823 0
M  V30 1329 H 132.034 -4.02365 -0.534555 0
M  V30 1330 H 132.8 -4.4578 1.91063 0
M  V30 1331 H 128.679 -4.55829 0.688545 0
M  V30 1332 H 132.223 -5.76965 3.92119 0
M  V30 1333 H 128.12 -5.86759 2.69043 0
M  V30 1334 H 128.888 -6.81071 4.53966 0
M  V30 1335 N 131.551 -0.354651 -1.53558 0
M  V30 1336 C 132.481 0.489091 -2.2832 0
M  V30 1337 C 133.462 1.09324 -1.30316 0
M  V30 1338 O 134.647 1.11255 -1.59173 0
M  V30 1339 C 131.777 1.63456 -3.0643 0
M  V30 1340 C 130.731 1.1582 -4.12031 0
M  V30 1341 C 130.057 2.39305 -4.7816 0
M  V30 1342 C 131.357 0.250731 -5.21698 0
M  V30 1343 H 133.051 -0.134614 -2.99097 0
M  V30 1344 H 130.597 -0.0661826 -1.43848 0
M  V30 1345 H 132.55 2.23136 -3.57475 0
M  V30 1346 H 131.274 2.28533 -2.33325 0
M  V30 1347 H 129.933 0.584146 -3.61916 0
M  V30 1348 H 129.581 3.02814 -4.01637 0
M  V30 1349 H 129.281 2.08109 -5.49513 0
M  V30 1350 H 130.805 2.99691 -5.31994 0
M  V30 1351 H 132.219 0.754695 -5.68311 0
M  V30 1352 H 130.616 0.0301468 -6.00092 0
M  V30 1353 H 131.686 -0.710125 -4.79672 0
M  V30 1354 N 133.029 1.57378 -0.0835403 0
M  V30 1355 C 133.939 2.16897 0.894021 0
M  V30 1356 C 134.955 1.13528 1.31861 0
M  V30 1357 O 136.131 1.45848 1.3889 0
M  V30 1358 C 133.196 2.72831 2.13925 0
M  V30 1359 C 132.257 3.91115 1.76997 0
M  V30 1360 C 131.49 4.44371 2.95584 0
M  V30 1361 O 131.713 3.96596 4.09961 0
M  V30 1362 O 130.647 5.35549 2.74719 0
M  V30 1363 H 134.473 3.00814 0.417679 0
M  V30 1364 H 132.058 1.48741 0.140181 0
M  V30 1365 H 133.94 3.0863 2.86924 0
M  V30 1366 H 132.615 1.91967 2.60635 0
M  V30 1367 H 131.522 3.60148 1.01214 0
M  V30 1368 H 132.855 4.73307 1.3506 0
M  V30 1369 N 134.507 -0.190092 1.56449 0
M  V30 1370 C 135.454 -1.23557 1.94942 0
M  V30 1371 C 136.424 -1.44972 0.810696 0
M  V30 1372 O 137.609 -1.58023 1.06927 0
M  V30 1373 C 134.749 -2.57416 2.2985 0
M  V30 1374 C 133.862 -2.43537 3.5681 0
M  V30 1375 C 132.997 -3.70134 3.81017 0
M  V30 1376 C 132.036 -3.51109 5.01387 0
M  V30 1377 N 131.173 -4.6973 5.21822 0
M  V30 1378 H 136.013 -0.900304 2.84075 0
M  V30 1379 H 133.55 -0.43318 1.40577 0
M  V30 1380 H 135.508 -3.35409 2.48106 0
M  V30 1381 H 134.138 -2.88975 1.43852 0
M  V30 1382 H 133.19 -1.56816 3.46573 0
M  V30 1383 H 134.502 -2.25415 4.4496 0
M  V30 1384 H 133.656 -4.56566 3.9954 0
M  V30 1385 H 132.395 -3.91215 2.91207 0
M  V30 1386 H 131.4 -2.63063 4.82782 0
M  V30 1387 H 132.625 -3.31468 5.9271 0
M  V30 1388 H 130.571 -4.91065 4.34961 0
M  V30 1389 H 130.488 -4.54452 6.0416 0
M  V30 1390 H 131.756 -5.57499 5.44808 0
M  V30 1391 N 135.985 -1.50799 -0.457987 0
M  V30 1392 C 137.213 -1.66218 -1.23203 0
M  V30 1393 C 137.628 -0.350894 -1.85511 0
M  V30 1394 O 136.985 0.668546 -1.69814 0
M  V30 1395 C 137.036 -2.76291 -2.33121 0
M  V30 1396 O 136.757 -4.02338 -1.73366 0
M  V30 1397 C 138.258 -3.028 -3.2377 0
M  V30 1398 H 135.478 -0.558361 -0.372121 0
M  V30 1399 H 138.022 -1.97099 -0.545179 0
M  V30 1400 H 136.177 -2.48068 -2.97558 0
M  V30 1401 H 136.591 -4.63312 -2.4585 0
M  V30 1402 H 138.065 -3.8345 -3.97077 0
M  V30 1403 H 138.542 -2.14385 -3.83322 0
M  V30 1404 H 139.148 -3.32604 -2.65056 0
M  V30 1405 N 137.463 0.71206 -1.40597 0
M  V30 1406 C 138.703 1.48438 -1.40519 0
M  V30 1407 C 139.067 1.91998 -0.00767611 0
M  V30 1408 O 140.268 2.6854 0.118239 0
M  V30 1409 C 138.539 2.67514 -2.37004 0
M  V30 1410 S 140.098 3.56875 -2.55315 0
M  V30 1411 H 136.916 0.507457 -0.498005 0
M  V30 1412 H 139.518 0.832355 -1.76896 0
M  V30 1413 H 138.222 2.33689 -3.37368 0
M  V30 1414 H 137.753 3.37625 -2.01923 0
M  V30 1415 H 139.768 4.62081 -1.8082 0
M  V30 1416 N 138.941 1.26152 0.944643 0
M  V30 1417 C 140.218 1.02247 1.66748 0
M  V30 1418 C 140.598 -0.448202 2.06287 0
M  V30 1419 O 139.946 -1.42779 1.78399 0
M  V30 1420 C 140.156 1.96788 2.88228 0
M  V30 1421 C 141.504 2.25201 3.59958 0
M  V30 1422 O 142.528 1.94626 2.98327 0
M  V30 1423 O 141.387 2.77242 4.70956 0
M  V30 1424 H 138.481 0.388517 0.730057 0
M  V30 1425 H 141.027 1.37348 0.99668 0
M  V30 1426 H 139.799 2.96047 2.55875 0
M  V30 1427 H 139.422 1.62145 3.63035 0
M  V30 1428 N 140.419 -1.14872 1.07899 0
M  V30 1429 C 141.665 -1.86289 0.81657 0
M  V30 1430 C 142.02 -1.8107 -0.65049 0
M  V30 1431 O 141.313 -1.22684 -1.47171 0
M  V30 1432 C 141.507 -3.34223 1.26609 0
M  V30 1433 C 141.336 -3.53846 2.77531 0
M  V30 1434 C 140.106 -3.68995 3.45212 0
M  V30 1435 C 142.304 -3.51201 3.75716 0
M  V30 1436 N 140.286 -3.76725 4.84718 0
M  V30 1437 C 141.657 -3.65112 5.01092 0
M  V30 1438 C 143.712 -3.34507 3.68794 0
M  V30 1439 C 142.415 -3.64056 6.20368 0
M  V30 1440 C 144.441 -3.34752 4.8754 0
M  V30 1441 C 143.803 -3.49199 6.11751 0
M  V30 1442 H 139.902 -0.698579 0.351443 0
M  V30 1443 H 142.486 -1.37713 1.37634 0
M  V30 1444 H 140.657 -3.81402 0.73395 0
M  V30 1445 H 142.389 -3.93377 0.95062 0
M  V30 1446 H 139.144 -3.70006 2.95622 0
M  V30 1447 H 139.568 -3.8432 5.5734 0
M  V30 1448 H 144.21 -3.22253 2.73702 0
M  V30 1449 H 141.928 -3.75087 7.15776 0
M  V30 1450 H 145.514 -3.23055 4.83866 0
M  V30 1451 H 144.394 -3.49328 7.02097 0
M  V30 1452 N 141.898 -0.863906 -1.31812 0
M  V30 1453 C 142.828 -0.330843 -2.31144 0
M  V30 1454 C 143.809 0.575005 -1.60087 0
M  V30 1455 O 144.994 0.493304 -1.8783 0
M  V30 1456 C 142.124 0.47374 -3.44054 0
M  V30 1457 C 141.078 -0.338481 -4.26659 0
M  V30 1458 C 140.404 0.591412 -5.31419 0
M  V30 1459 C 141.704 -1.56926 -4.98168 0
M  V30 1460 H 143.398 -1.16086 -2.75979 0
M  V30 1461 H 140.944 -0.559657 -1.32679 0
M  V30 1462 H 142.897 0.857143 -4.12591 0
M  V30 1463 H 141.621 1.33721 -2.9797 0
M  V30 1464 H 140.28 -0.703754 -3.59782 0
M  V30 1465 H 139.928 1.45199 -4.81587 0
M  V30 1466 H 139.628 0.0519022 -5.87577 0
M  V30 1467 H 141.152 0.97179 -6.02817 0
M  V30 1468 H 142.566 -1.25764 -5.59336 0
M  V30 1469 H 140.963 -2.04739 -5.64094 0
M  V30 1470 H 142.033 -2.32544 -4.25501 0
M  V30 1471 N 143.376 1.44774 -0.622745 0
M  V30 1472 C 144.787 1.85546 -0.207226 0
M  V30 1473 C 145.138 1.52093 1.23944 0
M  V30 1474 O 144.263 0.95492 1.94191 0
M  V30 1475 C 144.858 3.36781 -0.369313 0
M  V30 1476 C 143.417 3.76399 -0.00836847 0
M  V30 1477 C 142.564 2.68664 -0.686651 0
M  V30 1478 H 145.515 1.3536 -0.828454 0
M  V30 1479 H 145.536 3.78453 0.394162 0
M  V30 1480 H 145.048 3.61098 -1.42231 0
M  V30 1481 H 143.149 3.57698 1.04322 0
M  V30 1482 H 143.262 4.7732 -0.412584 0
M  V30 1483 H 141.626 2.54404 -0.122777 0
M  V30 1484 H 142.409 2.95815 -1.74208 0
M  V30 1485 N 144.854 0.36279 1.53368 0
M  V30 1486 C 145.801 -0.485008 2.25646 0
M  V30 1487 C 146.771 -1.07982 1.2621 0
M  V30 1488 O 147.956 -1.11284 1.54986 0
M  V30 1489 C 145.096 -1.62023 3.04701 0
M  V30 1490 C 144.209 -1.05086 4.19024 0
M  V30 1491 C 143.344 -2.15496 4.85525 0
M  V30 1492 C 142.383 -1.5601 5.91884 0
M  V30 1493 N 141.52 -2.60241 6.52088 0
M  V30 1494 H 146.36 0.137864 2.97681 0
M  V30 1495 H 143.897 0.0798061 1.46883 0
M  V30 1496 H 145.855 -2.28887 3.48807 0
M  V30 1497 H 144.485 -2.2138 2.34927 0
M  V30 1498 H 143.537 -0.27259 3.79422 0
M  V30 1499 H 144.849 -0.575926 4.95464 0
M  V30 1500 H 144.003 -2.90186 5.32801 0
M  V30 1501 H 142.742 -2.66341 4.08551 0
M  V30 1502 H 141.747 -0.798338 5.43973 0
M  V30 1503 H 142.972 -1.05994 6.70777 0
M  V30 1504 H 140.918 -3.10304 5.77968 0
M  V30 1505 H 140.835 -2.17426 7.24059 0
M  V30 1506 H 142.103 -3.34641 7.04014 0
M  V30 1507 N 146.332 -1.57332 0.0918853 0
M  V30 1508 C 147.743 -1.81496 -0.437739 0
M  V30 1509 C 148.094 -1.00727 -1.6837 0
M  V30 1510 O 147.219 -0.235694 -2.15113 0
M  V30 1511 C 147.814 -3.29197 -0.800939 0
M  V30 1512 C 146.373 -3.54136 -1.27532 0
M  V30 1513 C 145.52 -2.75979 -0.270392 0
M  V30 1514 H 148.471 -1.55494 0.317366 0
M  V30 1515 H 148.492 -3.42344 -1.66074 0
M  V30 1516 H 148.004 -3.87955 0.106078 0
M  V30 1517 H 146.105 -3.00705 -2.20016 0
M  V30 1518 H 146.218 -4.62792 -1.23938 0
M  V30 1519 H 144.582 -2.43349 -0.751872 0
M  V30 1520 H 145.365 -3.37484 0.629248 0
M  V30 1521 N 147.81 0.181792 -1.56548 0
M  V30 1522 C 148.758 1.24461 -1.965 0
M  V30 1523 C 149.752 1.464 -0.852261 0
M  V30 1524 O 150.958 1.47103 -1.03733 0
M  V30 1525 H 147.333 0.418138 -0.625031 0
M  V30 1526 H 149.304 0.880714 -2.85107 0
M  V30 1527 C 148.053 2.57891 -2.33212 0
M  V30 1528 H 147.376 2.41829 -3.18369 0
M  V30 1529 H 148.816 3.3097 -2.65019 0
M  V30 1530 C 147.275 3.15871 -1.17163 0
M  V30 1531 O 147.805 3.9913 -0.453708 0
M  V30 1532 N 146.011 2.74808 -0.944936 0
M  V30 1533 H 145.558 2.07205 -1.53049 0
M  V30 1534 H 145.516 3.13939 -0.170286 0
M  V30 1535 N 149.288 1.51039 0.449983 0
M  V30 1536 C 150.221 1.66105 1.56474 0
M  V30 1537 C 151.199 0.508776 1.54435 0
M  V30 1538 O 152.383 0.731005 1.73749 0
M  V30 1539 C 149.51 1.66304 2.9506 0
M  V30 1540 C 148.556 2.87346 3.15174 0
M  V30 1541 S 149.389 4.4835 2.92818 0
M  V30 1542 C 150.545 4.51274 4.33708 0
M  V30 1543 H 150.778 2.60397 1.43459 0
M  V30 1544 H 148.311 1.40565 0.638805 0
M  V30 1545 H 150.269 1.67103 3.74949 0
M  V30 1546 H 148.93 0.732108 3.05449 0
M  V30 1547 H 148.123 2.83849 4.16468 0
M  V30 1548 H 147.725 2.84223 2.43091 0
M  V30 1549 H 150.017 4.26136 5.26701 0
M  V30 1550 H 150.96 5.53017 4.42242 0
M  V30 1551 H 151.368 3.80738 4.16772 0
M  V30 1552 N 150.766 -0.704594 1.40972 0
M  V30 1553 C 151.991 -1.49858 1.43378 0
M  V30 1554 C 152.416 -1.88061 0.038184 0
M  V30 1555 O 151.774 -1.5402 -0.956425 0
M  V30 1556 C 151.822 -2.74333 2.34038 0
M  V30 1557 O 150.926 -3.7147 1.7912 0
M  V30 1558 H 150.267 -0.45139 0.486974 0
M  V30 1559 H 152.797 -0.866832 1.8533 0
M  V30 1560 H 152.807 -3.22741 2.49604 0
M  V30 1561 H 151.482 -2.45863 3.35446 0
M  V30 1562 H 150.059 -3.30363 1.72958 0
M  V30 1563 N 152.244 -1.26651 -0.937939 0
M  V30 1564 C 153.207 -1.08546 -2.01867 0
M  V30 1565 C 154.207 -0.0327327 -1.60767 0
M  V30 1566 O 155.397 -0.276427 -1.71993 0
M  V30 1567 C 152.529 -0.651711 -3.34613 0
M  V30 1568 H 153.722 -2.04502 -2.1936 0
M  V30 1569 H 151.275 -1.09294 -1.11734 0
M  V30 1570 H 152.01 0.309696 -3.22818 0
M  V30 1571 H 151.795 -1.41189 -3.65798 0
M  V30 1572 H 153.285 -0.546973 -4.14002 0
M  V30 1573 N 153.722 1.14298 -1.08507 0
M  V30 1574 C 154.947 1.8976 -0.837001 0
M  V30 1575 C 155.372 1.78097 0.605228 0
M  V30 1576 O 154.73 1.12188 1.4242 0
M  V30 1577 C 154.778 3.37685 -1.26495 0
M  V30 1578 O 153.882 4.10281 -0.417514 0
M  V30 1579 H 153.223 0.590365 -0.303917 0
M  V30 1580 H 155.753 1.44672 -1.44676 0
M  V30 1581 H 155.763 3.88501 -1.24625 0
M  V30 1582 H 154.438 3.45492 -2.31534 0
M  V30 1583 H 153.015 3.69536 -0.499722 0
M  V30 1584 N 155.201 0.870884 1.31352 0
M  V30 1585 C 156.441 0.488783 1.9847 0
M  V30 1586 C 156.805 -0.941536 1.67329 0
M  V30 1587 O 158.006 -1.42903 2.27667 0
M  V30 1588 C 156.277 0.739688 3.49662 0
M  V30 1589 S 157.836 0.457582 4.36408 0
M  V30 1590 H 154.654 0.18242 0.6872 0
M  V30 1591 H 157.256 1.12711 1.59739 0
M  V30 1592 H 155.96 1.77944 3.69816 0
M  V30 1593 H 155.491 0.0883905 3.93301 0
M  V30 1594 H 157.506 -0.709752 4.91098 0
M  V30 1595 N 156.679 -1.44442 0.630414 0
M  V30 1596 C 157.626 -2.30678 -0.0749355 0
M  V30 1597 C 158.596 -1.4344 -0.837502 0
M  V30 1598 O 159.781 -1.72343 -0.818684 0
M  V30 1599 C 156.921 -3.28706 -1.05103 0
M  V30 1600 C 156.034 -4.31046 -0.286954 0
M  V30 1601 C 155.169 -5.16167 -1.2548 0
M  V30 1602 C 154.208 -6.10216 -0.479843 0
M  V30 1603 N 153.345 -6.88039 -1.39811 0
M  V30 1604 H 158.185 -2.90454 0.666386 0
M  V30 1605 H 155.722 -1.43107 0.340404 0
M  V30 1606 H 157.68 -3.84027 -1.63031 0
M  V30 1607 H 156.31 -2.70632 -1.75949 0
M  V30 1608 H 155.362 -3.78203 0.408243 0
M  V30 1609 H 156.674 -4.97794 0.316657 0
M  V30 1610 H 155.828 -5.76002 -1.90544 0
M  V30 1611 H 154.567 -4.49491 -1.89233 0
M  V30 1612 H 153.572 -5.49491 0.184295 0
M  V30 1613 H 154.797 -6.78928 0.152965 0
M  V30 1614 H 152.743 -6.24032 -2.02287 0
M  V30 1615 H 152.66 -7.51223 -0.848508 0
M  V30 1616 H 153.928 -7.52397 -2.03762 0
M  V30 1617 N 158.157 -0.370918 -1.53173 0
M  V30 1618 C 159.067 0.480823 -2.2962 0
M  V30 1619 C 160.083 1.08789 -1.35798 0
M  V30 1620 O 161.259 1.09768 -1.68858 0
M  V30 1621 C 158.324 1.60227 -3.07454 0
M  V30 1622 C 157.385 1.0222 -4.16953 0
M  V30 1623 C 156.618 2.0902 -4.91066 0
M  V30 1624 O 156.841 3.30222 -4.65091 0
M  V30 1625 O 155.775 1.71778 -5.76867 0
M  V30 1626 H 159.601 -0.141421 -3.03371 0
M  V30 1627 H 157.186 -0.135146 -1.48787 0
M  V30 1628 H 159.068 2.25417 -3.56041 0
M  V30 1629 H 157.743 2.20982 -2.36535 0
M  V30 1630 H 156.65 0.334064 -3.72605 0
M  V30 1631 H 157.983 0.459131 -4.90054 0
M  V30 1632 N 159.635 1.57281 -0.100228 0
M  V30 1633 C 160.884 1.93713 0.561984 0
M  V30 1634 C 161.197 0.984492 1.69018 0
M  V30 1635 O 162.403 1.24273 2.41389 0
M  V30 1636 C 160.859 3.4421 1.05106 0
M  V30 1637 C 160.467 4.47975 -0.0476628 0
M  V30 1638 C 162.211 3.89595 1.68571 0
M  V30 1639 C 160.118 5.89631 0.457055 0
M  V30 1640 H 159.048 0.723082 0.2137 0
M  V30 1641 H 161.699 1.82644 -0.177057 0
M  V30 1642 H 160.081 3.50449 1.84395 0
M  V30 1643 H 161.255 4.53385 -0.823333 0
M  V30 1644 H 159.57 4.1223 -0.587816 0
M  V30 1645 H 162.167 4.92832 2.07414 0
M  V30 1646 H 162.51 3.28526 2.55688 0
M  V30 1647 H 163.043 3.86078 0.958562 0
M  V30 1648 H 159.782 6.54411 -0.377616 0
M  V30 1649 H 159.302 5.87681 1.19962 0
M  V30 1650 H 160.981 6.40363 0.92437 0
M  V30 1651 N 161.113 -0.173488 1.56642 0
M  V30 1652 C 162.359 -0.891784 1.8214 0
M  V30 1653 C 162.692 -1.8199 0.677736 0
M  V30 1654 O 161.967 -1.91842 -0.320446 0
M  V30 1655 C 162.25 -1.68933 3.18015 0
M  V30 1656 C 162.103 -0.784487 4.42906 0
M  V30 1657 C 163.422 -2.65748 3.50808 0
M  V30 1658 H 160.541 -0.322761 0.662567 0
M  V30 1659 H 163.183 -0.158095 1.89341 0
M  V30 1660 H 161.333 -2.31482 3.12007 0
M  V30 1661 H 163.005 -0.172046 4.60979 0
M  V30 1662 H 161.248 -0.0924117 4.33702 0
M  V30 1663 H 161.919 -1.37799 5.34524 0
M  V30 1664 H 164.395 -2.13327 3.57255 0
M  V30 1665 H 163.271 -3.18619 4.4696 0
M  V30 1666 H 163.532 -3.45842 2.75401 0
M  V30 1667 N 162.591 -1.51276 -0.441967 0
M  V30 1668 C 163.868 -1.54252 -1.20273 0
M  V30 1669 C 164.248 -0.30408 -2.08898 0
M  V30 1670 O 163.596 0.711084 -2.17154 0
M  V30 1671 C 163.806 -2.85406 -2.00859 0
M  V30 1672 C 165.154 -3.37181 -2.58059 0
M  V30 1673 O 166.178 -2.86925 -2.11074 0
M  V30 1674 O 165.037 -4.24858 -3.43741 0
M  V30 1675 H 162.131 -0.619969 -0.547328 0
M  V30 1676 H 164.677 -1.63586 -0.451413 0
M  V30 1677 H 163.449 -3.67003 -1.35736 0
M  V30 1678 H 163.072 -2.79213 -2.83065 0
M  V30 1679 N 164.069 0.697108 -1.41344 0
M  V30 1680 C 165.294 1.49096 -1.44171 0
M  V30 1681 C 165.719 1.88038 -0.0481568 0
M  V30 1682 O 165.077 1.54525 0.948243 0
M  V30 1683 C 165.125 2.73088 -2.3549 0
M  V30 1684 O 164.229 3.70514 -1.81088 0
M  V30 1685 H 163.57 0.448801 -0.489361 0
M  V30 1686 H 166.1 0.856992 -1.85787 0
M  V30 1687 H 166.11 3.21413 -2.51312 0
M  V30 1688 H 164.785 2.44081 -3.36745 0
M  V30 1689 H 163.362 3.29441 -1.74708 0
M  V30 1690 N 165.547 1.27147 0.931209 0
M  V30 1691 C 166.777 1.15914 1.71019 0
M  V30 1692 C 167.185 -0.287112 1.87009 0
M  V30 1693 O 166.528 -1.20761 1.38429 0
M  V30 1694 C 166.59 1.76647 3.13107 0
M  V30 1695 C 166.254 3.25807 3.20467 0
M  V30 1696 C 167.251 4.22489 3.02983 0
M  V30 1697 C 164.936 3.66452 3.43538 0
M  V30 1698 C 166.93 5.57794 3.08454 0
M  V30 1699 C 164.617 5.01888 3.48643 0
M  V30 1700 C 165.615 5.97369 3.31119 0
M  V30 1701 O 165.303 7.30337 3.35952 0
M  V30 1702 H 165.035 0.404062 0.54195 0
M  V30 1703 H 167.589 1.68457 1.17521 0
M  V30 1704 H 165.819 1.18578 3.68071 0
M  V30 1705 H 167.508 1.60179 3.72958 0
M  V30 1706 H 168.274 3.92425 2.85004 0
M  V30 1707 H 164.153 2.92611 3.5623 0
M  V30 1708 H 167.697 6.32298 2.94694 0
M  V30 1709 H 163.594 5.31609 3.66145 0
M  V30 1710 H 164.362 7.38739 3.5243 0
M  V30 1711 N 167.025 -1.13721 1.09112 0
M  V30 1712 C 167.955 -2.21148 0.749385 0
M  V30 1713 C 168.936 -1.6792 -0.271475 0
M  V30 1714 O 170.121 -1.93693 -0.140251 0
M  V30 1715 C 167.251 -3.46905 0.165659 0
M  V30 1716 C 166.205 -4.13203 1.11567 0
M  V30 1717 C 165.531 -5.33248 0.393809 0
M  V30 1718 C 166.831 -4.60912 2.45678 0
M  V30 1719 H 168.525 -2.4999 1.64758 0
M  V30 1720 H 166.071 -1.20156 0.793626 0
M  V30 1721 H 168.024 -4.21313 -0.085466 0
M  V30 1722 H 166.748 -3.17449 -0.767714 0
M  V30 1723 H 165.407 -3.40758 1.35202 0
M  V30 1724 H 165.055 -5.00054 -0.543599 0
M  V30 1725 H 164.755 -5.78552 1.02721 0
M  V30 1726 H 166.279 -6.10413 0.150908 0
M  V30 1727 H 167.693 -5.26759 2.26269 0
M  V30 1728 H 166.09 -5.16944 3.04776 0
M  V30 1729 H 167.16 -3.75603 3.06677 0
M  V30 1730 N 168.503 -0.877838 -1.30888 0
M  V30 1731 C 169.914 -0.544193 -1.78593 0
M  V30 1732 C 170.265 0.939301 -1.72254 0
M  V30 1733 O 169.39 1.7337 -1.29505 0
M  V30 1734 C 169.985 -0.98105 -3.24285 0
M  V30 1735 C 168.544 -0.698935 -3.69854 0
M  V30 1736 C 167.691 -1.168 -2.51502 0
M  V30 1737 H 170.642 -1.06278 -1.17859 0
M  V30 1738 H 170.663 -0.307009 -3.79259 0
M  V30 1739 H 170.175 -2.06079 -3.28866 0
M  V30 1740 H 168.276 0.369112 -3.70767 0
M  V30 1741 H 168.389 -1.28148 -4.61644 0
M  V30 1742 H 166.753 -0.587535 -2.47831 0
M  V30 1743 H 167.536 -2.25533 -2.58824 0
M  V30 1744 N 169.982 1.44106 -0.638065 0
M  V30 1745 C 171.228 2.02277 -0.145546 0
M  V30 1746 C 171.561 1.50125 1.23191 0
M  V30 1747 O 170.836 0.688133 1.8192 0
M  V30 1748 C 171.119 3.59829 -0.139791 0
M  V30 1749 C 170.972 4.22247 -1.55008 0
M  V30 1750 C 172.291 4.36873 0.531966 0
M  V30 1751 H 169.41 0.734992 -0.0543632 0
M  V30 1752 H 172.052 1.71592 -0.815863 0
M  V30 1753 H 170.202 3.86102 0.431007 0
M  V30 1754 H 171.874 4.07057 -2.1703 0
M  V30 1755 H 170.117 3.79476 -2.10191 0
M  V30 1756 H 170.788 5.31284 -1.49804 0
M  V30 1757 H 173.264 4.16074 0.0464781 0
M  V30 1758 H 172.14 5.4657 0.505206 0
M  V30 1759 H 172.401 4.11995 1.60352 0
M  V30 1760 N 171.46 0.379036 1.52974 0
M  V30 1761 C 172.709 -0.207612 2.00629 0
M  V30 1762 C 173.022 -1.48758 1.27006 0
M  V30 1763 O 174.228 -2.15365 1.65318 0
M  V30 1764 C 172.684 -0.42053 3.57435 0
M  V30 1765 C 172.292 0.845587 4.39948 0
M  V30 1766 C 174.036 -0.964102 4.13407 0
M  V30 1767 C 171.943 0.601513 5.88333 0
M  V30 1768 H 170.873 -0.0813591 0.749598 0
M  V30 1769 H 173.524 0.499853 1.76561 0
M  V30 1770 H 171.906 -1.18959 3.7771 0
M  V30 1771 H 173.08 1.61848 4.31442 0
M  V30 1772 H 171.395 1.31336 3.95145 0
M  V30 1773 H 173.992 -1.16225 5.21916 0
M  V30 1774 H 174.335 -1.93019 3.68849 0
M  V30 1775 H 174.868 -0.25487 3.96983 0
M  V30 1776 H 171.607 1.53831 6.37194 0
M  V30 1777 H 171.127 -0.132628 5.99653 0
M  V30 1778 H 172.806 0.232134 6.46583 0
M  V30 1779 N 172.938 -1.57226 0.108567 0
M  V30 1780 C 173.868 -2.17778 -0.84232 0
M  V30 1781 C 174.849 -1.11487 -1.2847 0
M  V30 1782 O 176.034 -1.39681 -1.34918 0
M  V30 1783 C 173.164 -2.76888 -2.09644 0
M  V30 1784 C 172.118 -3.88669 -1.79221 0
M  V30 1785 C 171.444 -4.34541 -3.11574 0
M  V30 1786 C 172.744 -5.11251 -1.06864 0
M  V30 1787 H 174.438 -2.97489 -0.337774 0
M  V30 1788 H 171.984 -1.43097 -0.161025 0
M  V30 1789 H 173.937 -3.17904 -2.76614 0
M  V30 1790 H 172.661 -1.94451 -2.62405 0
M  V30 1791 H 171.32 -3.48213 -1.14644 0
M  V30 1792 H 170.968 -3.48977 -3.62249 0
M  V30 1793 H 170.668 -5.09914 -2.91996 0
M  V30 1794 H 172.192 -4.782 -3.7968 0
M  V30 1795 H 173.606 -5.49352 -1.63968 0
M  V30 1796 H 172.003 -5.9214 -0.974178 0
M  V30 1797 H 173.073 -4.8487 -0.0536168 0
M  V30 1798 N 174.416 0.165178 -1.56732 0
M  V30 1799 C 175.693 0.908443 -1.73224 0
M  V30 1800 C 176.073 2.0013 -0.67165 0
M  V30 1801 O 175.421 2.26353 0.31253 0
M  V30 1802 C 175.631 1.46756 -3.16644 0
M  V30 1803 C 176.979 1.93809 -3.77787 0
M  V30 1804 O 178.003 1.56537 -3.1996 0
M  V30 1805 O 176.862 2.62486 -4.79336 0
M  V30 1806 H 173.956 0.428025 -0.707618 0
M  V30 1807 H 176.502 0.152526 -1.69013 0
M  V30 1808 H 175.274 0.68129 -3.85323 0
M  V30 1809 H 174.897 2.28749 -3.25207 0
M  V30 1810 N 175.894 1.51508 0.433938 0
M  V30 1811 C 177.143 1.63578 1.18005 0
M  V30 1812 C 177.456 0.359514 1.92268 0
M  V30 1813 O 178.662 0.359632 2.69108 0
M  V30 1814 C 177.118 2.88901 2.14626 0
M  V30 1815 C 176.726 4.23544 1.45995 0
M  V30 1816 C 178.47 3.10328 2.89649 0
M  V30 1817 C 176.377 5.40014 2.4112 0
M  V30 1818 H 175.307 0.609277 0.444182 0
M  V30 1819 H 177.958 1.77978 0.446773 0
M  V30 1820 H 176.34 2.68142 2.91403 0
M  V30 1821 H 177.514 4.54696 0.747532 0
M  V30 1822 H 175.829 4.08021 0.831115 0
M  V30 1823 H 178.426 3.94518 3.60915 0
M  V30 1824 H 178.769 2.23544 3.51189 0
M  V30 1825 H 179.302 3.31443 2.19978 0
M  V30 1826 H 176.041 6.29068 1.84264 0
M  V30 1827 H 175.561 5.13233 3.10406 0
M  V30 1828 H 177.24 5.72099 3.02177 0
M  V30 1829 N 177.372 -0.689602 1.41712 0
M  V30 1830 C 178.621 -1.44534 1.40686 0
M  V30 1831 C 178.934 -1.95588 0.0213352 0
M  V30 1832 O 180.14 -2.71271 -0.111534 0
M  V30 1833 C 178.596 -2.61387 2.47396 0
M  V30 1834 C 178.204 -2.17094 3.91885 0
M  V30 1835 C 179.948 -3.38986 2.55517 0
M  V30 1836 C 177.855 -3.3094 4.90135 0
M  V30 1837 H 176.785 -0.542925 0.52321 0
M  V30 1838 H 179.436 -0.748054 1.6756 0
M  V30 1839 H 177.818 -3.33412 2.13664 0
M  V30 1840 H 178.992 -1.52318 4.34897 0
M  V30 1841 H 177.307 -1.52473 3.8748 0
M  V30 1842 H 179.904 -4.23747 3.26102 0
M  V30 1843 H 180.247 -3.84578 1.59391 0
M  V30 1844 H 180.78 -2.74021 2.8837 0
M  V30 1845 H 177.519 -2.90355 5.87685 0
M  V30 1846 H 177.039 -3.94546 4.51767 0
M  V30 1847 H 178.718 -3.9663 5.11169 0
M  V30 1848 N 178.85 -1.27639 -0.924453 0
M  V30 1849 C 179.797 -1.10644 -2.0255 0
M  V30 1850 C 180.767 -0.00658438 -1.66099 0
M  V30 1851 O 181.952 -0.16952 -1.90045 0
M  V30 1852 C 179.092 -0.76309 -3.36557 0
M  V30 1853 C 178.205 -1.94091 -3.85944 0
M  V30 1854 C 177.34 -1.53914 -5.08413 0
M  V30 1855 C 176.379 -2.68425 -5.50104 0
M  V30 1856 N 175.516 -2.28815 -6.63768 0
M  V30 1857 H 180.356 -2.04858 -2.16419 0
M  V30 1858 H 177.893 -1.01974 -1.06017 0
M  V30 1859 H 179.851 -0.544822 -4.13627 0
M  V30 1860 H 178.481 0.142102 -3.22487 0
M  V30 1861 H 177.533 -2.27162 -3.05125 0
M  V30 1862 H 178.845 -2.7998 -4.12811 0
M  V30 1863 H 177.999 -1.28231 -5.92994 0
M  V30 1864 H 176.738 -0.651391 -4.8333 0
M  V30 1865 H 175.743 -2.94819 -4.64071 0
M  V30 1866 H 176.968 -3.57826 -5.7718 0
M  V30 1867 H 174.914 -1.42495 -6.40337 0
M  V30 1868 H 174.831 -3.08242 -6.90306 0
M  V30 1869 H 176.099 -2.06387 -7.51681 0
M  V30 1870 N 180.328 1.1314 -1.09713 0
M  V30 1871 C 181.576 1.84119 -0.833338 0
M  V30 1872 C 181.897 1.84097 0.642904 0
M  V30 1873 O 181.167 1.29881 1.46655 0
M  V30 1874 H 179.747 0.681766 -0.305293 0
M  V30 1875 H 182.409 1.37038 -1.38588 0
M  V30 1876 H 181.505 2.88543 -1.18951 0
M  V30 1877 N 181.806 0.884767 1.30421 0
M  V30 1878 C 182.716 0.355398 2.31892 0
M  V30 1879 C 183.732 -0.542261 1.65335 0
M  V30 1880 O 184.908 -0.435432 1.96637 0
M  V30 1881 C 181.973 -0.421661 3.44126 0
M  V30 1882 C 181.034 0.505727 4.26311 0
M  V30 1883 C 180.267 -0.234343 5.33185 0
M  V30 1884 O 180.49 -1.46045 5.51386 0
M  V30 1885 O 179.424 0.415443 6.00465 0
M  V30 1886 H 183.25 1.19685 2.79122 0
M  V30 1887 H 180.835 0.648596 1.34587 0
M  V30 1888 H 182.717 -0.861641 4.12497 0
M  V30 1889 H 181.392 -1.23942 2.99032 0
M  V30 1890 H 180.299 0.994513 3.60639 0
M  V30 1891 H 181.632 1.28948 4.75009 0
M  V30 1892 N 183.284 -1.43765 0.645699 0
M  V30 1893 C 184.217 -2.2798 -0.100072 0
M  V30 1894 C 185.195 -1.39391 -0.837194 0
M  V30 1895 O 186.379 -1.68833 -0.838306 0
M  V30 1896 C 183.506 -3.18643 -1.14823 0
M  V30 1897 C 182.552 -4.2344 -0.510009 0
M  V30 1898 S 183.385 -5.30761 0.710824 0
M  V30 1899 C 184.541 -6.24992 -0.33699 0
M  V30 1900 H 184.774 -2.90884 0.614322 0
M  V30 1901 H 182.307 -1.48166 0.434304 0
M  V30 1902 H 184.265 -3.71424 -1.74799 0
M  V30 1903 H 182.926 -2.54932 -1.8349 0
M  V30 1904 H 182.119 -4.86948 -1.29991 0
M  V30 1905 H 181.721 -3.73997 0.0154577 0
M  V30 1906 H 184.013 -6.66691 -1.20537 0
M  V30 1907 H 184.956 -7.07612 0.262879 0
M  V30 1908 H 185.364 -5.60517 -0.669425 0
M  V30 1909 N 184.763 -0.387143 -1.52771 0
M  V30 1910 C 185.988 0.198407 -2.06449 0
M  V30 1911 C 186.413 1.39918 -1.25716 0
M  V30 1912 O 185.771 1.79099 -0.281657 0
M  V30 1913 C 185.819 0.548893 -3.56398 0
M  V30 1914 O 184.923 1.64315 -3.78252 0
M  V30 1915 H 184.264 0.0237731 -0.663574 0
M  V30 1916 H 186.794 -0.553989 -1.96957 0
M  V30 1917 H 186.804 0.813812 -3.99801 0
M  V30 1918 H 185.479 -0.329005 -4.14597 0
M  V30 1919 H 184.056 1.37211 -3.46738 0
M  V30 1920 N 186.241 1.57166 -0.116904 0
M  V30 1921 C 187.657 1.5779 0.239693 0
M  V30 1922 C 187.857 1.1295 1.66867 0
M  V30 1923 O 186.913 0.81592 2.38954 0
M  V30 1924 C 188.226 3.00699 0.00828202 0
M  V30 1925 C 189.774 3.12912 0.0743438 0
M  V30 1926 C 190.249 4.57817 -0.129348 0
M  V30 1927 N 191.74 4.63139 -0.075247 0
M  V30 1928 C 192.475 5.73023 -0.207788 0
M  V30 1929 N 191.971 6.91665 -0.396382 0
M  V30 1930 N 193.764 5.61906 -0.14751 0
M  V30 1931 H 185.915 1.84615 -1.05029 0
M  V30 1932 H 188.178 0.85311 -0.41341 0
M  V30 1933 H 187.884 3.37784 -0.979531 0
M  V30 1934 H 187.758 3.69848 0.741077 0
M  V30 1935 H 190.145 2.75686 1.05268 0
M  V30 1936 H 190.226 2.4631 -0.690297 0
M  V30 1937 H 189.87 4.95742 -1.10465 0
M  V30 1938 H 189.8 5.22507 0.655253 0
M  V30 1939 H 192.291 3.7784 0.0670898 0
M  V30 1940 H 192.604 7.71255 -0.488437 0
M  V30 1941 H 190.949 6.93654 -0.432329 0
M  V30 1942 H 194.14 4.681 -0.00115036 0
M  V30 1943 H 194.313 6.47501 -0.254247 0
M  V30 1944 N 187.719 -0.156864 1.56817 0
M  V30 1945 C 189.13 -0.717916 1.72345 0
M  V30 1946 C 189.481 -1.82124 0.729747 0
M  V30 1947 O 188.606 -2.16141 -0.105781 0
M  V30 1948 C 189.201 -1.30904 3.12489 0
M  V30 1949 C 187.76 -1.81676 3.29653 0
M  V30 1950 C 186.907 -0.701349 2.68284 0
M  V30 1951 H 189.858 0.0686989 1.58551 0
M  V30 1952 H 189.879 -2.17882 3.11942 0
M  V30 1953 H 189.391 -0.505796 3.8479 0
M  V30 1954 H 187.492 -2.64598 2.62333 0
M  V30 1955 H 187.605 -1.95226 4.3752 0
M  V30 1956 H 185.969 -1.12548 2.28484 0
M  V30 1957 H 186.752 0.0902846 3.43181 0
M  V30 1958 N 189.197 -1.51736 -0.425897 0
M  V30 1959 C 190.445 -1.64644 -1.17204 0
M  V30 1960 C 190.766 -0.370486 -1.91448 0
M  V30 1961 O 190.036 0.614088 -1.86026 0
M  V30 1962 H 188.616 -0.606819 -0.435638 0
M  V30 1963 H 191.278 -1.88713 -0.487177 0
M  V30 1964 H 190.374 -2.47958 -1.89534 0
M  V30 1965 N 190.675 0.682077 -1.42076 0
M  V30 1966 C 191.585 1.82535 -1.47371 0
M  V30 1967 C 192.601 1.7017 -0.363079 0
M  V30 1968 O 193.777 1.91848 -0.612875 0
M  V30 1969 C 190.842 3.18624 -1.36674 0
M  V30 1970 C 189.903 3.42999 -2.58167 0
M  V30 1971 C 189.136 4.72595 -2.4797 0
M  V30 1972 O 189.359 5.50006 -1.5116 0
M  V30 1973 O 188.293 4.98054 -3.37974 0
M  V30 1974 H 192.119 1.81023 -2.43853 0
M  V30 1975 H 189.704 0.836887 -1.2376 0
M  V30 1976 H 191.586 3.99847 -1.33043 0
M  V30 1977 H 190.261 3.20789 -0.433138 0
M  V30 1978 H 189.168 2.61653 -2.67373 0
M  V30 1979 H 190.501 3.45659 -3.50401 0
M  V30 1980 N 192.153 1.28127 0.917671 0
M  V30 1981 C 193.399 1.15223 1.66888 0
M  V30 1982 C 193.732 -0.299293 1.9188 0
M  V30 1983 O 193.007 -1.21805 1.51637 0
M  V30 1984 C 193.29 1.94706 3.02922 0
M  V30 1985 C 193.143 3.47898 2.85109 0
M  V30 1986 C 194.462 1.75939 4.03402 0
M  V30 1987 H 191.581 0.419946 0.605652 0
M  V30 1988 H 194.223 1.57398 1.06423 0
M  V30 1989 H 192.373 1.58864 3.54534 0
M  V30 1990 H 194.045 3.93624 2.40537 0
M  V30 1991 H 192.288 3.7373 2.20246 0
M  V30 1992 H 192.959 3.98765 3.81694 0
M  V30 1993 H 195.435 2.07209 3.60837 0
M  V30 1994 H 194.311 2.33931 4.96556 0
M  V30 1995 H 194.572 0.709877 4.36364 0
M  V30 1996 N 193.631 -1.12557 1.10312 0
M  V30 1997 C 194.871 -1.8568 0.854543 0
M  V30 1998 C 195.235 -1.82091 -0.608843 0
M  V30 1999 O 196.436 -2.50544 -0.973717 0
M  V30 2000 C 194.707 -3.2942 1.38626 0
M  V30 2001 S 196.266 -4.19931 1.27293 0
M  V30 2002 H 193.084 -0.640427 0.308827 0
M  V30 2003 H 195.686 -1.35599 1.40831 0
M  V30 2004 H 194.39 -3.2959 2.44537 0
M  V30 2005 H 193.921 -3.84566 0.82902 0
M  V30 2006 H 195.936 -4.95668 0.229776 0
M  V30 2007 N 195.109 -0.891671 -1.2995 0
M  V30 2008 C 196.334 -0.527932 -2.00568 0
M  V30 2009 C 196.759 0.877969 -1.66353 0
M  V30 2010 O 196.117 1.58301 -0.883762 0
M  V30 2011 C 196.165 -0.717745 -3.53385 0
M  V30 2012 O 195.269 0.233376 -4.11739 0
M  V30 2013 H 194.61 -0.20722 -0.630837 0
M  V30 2014 H 197.14 -1.20105 -1.65638 0
M  V30 2015 H 197.15 -0.619307 -4.03272 0
M  V30 2016 H 195.825 -1.74276 -3.77625 0
M  V30 2017 H 194.402 0.0880706 -3.72796 0
M  V30 2018 N 196.587 1.43421 -0.653314 0
M  V30 2019 C 197.55 2.29182 0.0287951 0
M  V30 2020 C 198.55 1.42213 0.750465 0
M  V30 2021 O 199.74 1.63843 0.591701 0
M  V30 2022 C 196.872 3.24278 1.05151 0
M  V30 2023 H 198.065 2.90985 -0.725786 0
M  V30 2024 H 195.618 1.50702 -0.414545 0
M  V30 2025 H 196.353 2.6737 1.83532 0
M  V30 2026 H 196.138 3.88396 0.537687 0
M  V30 2027 H 197.628 3.88647 1.52786 0
M  V30 2028 N 198.065 0.39524 1.52563 0
M  V30 2029 C 198.995 -0.428384 2.29537 0
M  V30 2030 C 199.976 -1.05831 1.33169 0
M  V30 2031 O 201.161 -1.06995 1.62067 0
M  V30 2032 C 198.291 -1.55274 3.10656 0
M  V30 2033 C 197.245 -1.04855 4.14957 0
M  V30 2034 C 196.571 -2.26543 4.84337 0
M  V30 2035 C 197.871 -0.112324 5.22179 0
M  V30 2036 H 199.565 0.213867 2.98635 0
M  V30 2037 H 197.111 0.104298 1.43622 0
M  V30 2038 H 199.064 -2.1358 3.63265 0
M  V30 2039 H 197.788 -2.22266 2.39302 0
M  V30 2040 H 196.447 -0.487985 3.63338 0
M  V30 2041 H 196.095 -2.92059 4.09525 0
M  V30 2042 H 195.795 -1.93466 5.54837 0
M  V30 2043 H 197.319 -2.85481 5.39753 0
M  V30 2044 H 198.733 -0.603752 5.70112 0
M  V30 2045 H 197.13 0.128968 5.99961 0
M  V30 2046 H 198.2 0.837052 4.77621 0
M  V30 2047 N 199.544 -1.57102 0.125237 0
M  V30 2048 C 200.492 -2.16905 -0.839927 0
M  V30 2049 C 201.486 -1.11998 -1.27094 0
M  V30 2050 O 202.692 -1.3029 -1.24195 0
M  V30 2051 H 199.067 -0.694252 -0.288995 0
M  V30 2052 H 201.038 -2.96774 -0.311115 0
M  V30 2053 C 199.787 -2.78795 -2.07771 0
M  V30 2054 H 199.11 -3.59221 -1.755 0
M  V30 2055 H 200.55 -3.2417 -2.73295 0
M  V30 2056 C 199.009 -1.76193 -2.87155 0
M  V30 2057 O 199.539 -1.21909 -3.82755 0
M  V30 2058 N 197.745 -1.45991 -2.51267 0
M  V30 2059 H 197.292 -1.90325 -1.73592 0
M  V30 2060 H 197.25 -0.775844 -3.04677 0
M  V30 2061 N 201.022 0.148545 -1.56898 0
M  V30 2062 C 201.952 1.18524 -2.01182 0
M  V30 2063 C 202.933 1.4489 -0.891123 0
M  V30 2064 O 204.118 1.55836 -1.15882 0
M  V30 2065 C 201.248 2.51879 -2.39112 0
M  V30 2066 C 200.202 2.40038 -3.54353 0
M  V30 2067 C 199.528 3.78089 -3.78091 0
M  V30 2068 C 200.828 1.88577 -4.87069 0
M  V30 2069 H 202.522 0.817029 -2.88036 0
M  V30 2070 H 200.068 0.391575 -1.38574 0
M  V30 2071 H 202.021 3.24627 -2.68692 0
M  V30 2072 H 200.745 2.90532 -1.49193 0
M  V30 2073 H 199.404 1.69742 -3.24936 0
M  V30 2074 H 199.052 4.14175 -2.85426 0
M  V30 2075 H 198.752 3.71028 -4.55645 0
M  V30 2076 H 200.276 4.52387 -4.10095 0
M  V30 2077 H 201.69 2.51117 -5.15377 0
M  V30 2078 H 200.087 1.9241 -5.68417 0
M  V30 2079 H 201.157 0.84136 -4.77545 0
M  V30 2080 N 202.5 1.5196 0.417844 0
M  V30 2081 C 203.74 1.67262 1.17486 0
M  V30 2082 C 204.104 0.38983 1.88001 0
M  V30 2083 O 205.305 0.418845 2.65517 0
M  V30 2084 C 203.576 2.85526 2.14965 0
M  V30 2085 S 205.135 3.21263 2.98891 0
M  V30 2086 H 201.953 0.589077 0.398132 0
M  V30 2087 H 204.555 1.89927 0.463452 0
M  V30 2088 H 203.259 3.77145 1.61833 0
M  V30 2089 H 202.79 2.65107 2.90657 0
M  V30 2090 H 204.805 2.69208 4.16823 0
M  V30 2091 N 203.978 -0.674533 1.42435 0
M  V30 2092 C 204.888 -1.81751 1.48337 0
M  V30 2093 C 205.904 -1.69975 0.372099 0
M  V30 2094 O 207.08 -1.91521 0.62304 0
M  V30 2095 C 204.145 -3.17895 1.38361 0
M  V30 2096 C 203.206 -3.41625 2.59982 0
M  V30 2097 C 202.439 -4.71274 2.50473 0
M  V30 2098 O 202.662 -5.49197 1.54075 0
M  V30 2099 O 201.596 -4.96254 3.4061 0
M  V30 2100 H 205.422 -1.79728 2.44809 0
M  V30 2101 H 203.007 -0.830312 1.24202 0
M  V30 2102 H 204.889 -3.99136 1.35161 0
M  V30 2103 H 203.564 -3.20555 0.450144 0
M  V30 2104 H 202.471 -2.60231 2.68757 0
M  V30 2105 H 203.804 -3.43796 3.52229 0
M  V30 2106 N 205.456 -1.28612 -0.910864 0
M  V30 2107 C 206.681 -1.1891 -1.69927 0
M  V30 2108 C 207.106 0.248372 -1.86453 0
M  V30 2109 O 206.464 1.17961 -1.37676 0
M  V30 2110 C 206.512 -1.89578 -3.06745 0
M  V30 2111 O 205.616 -1.20521 -3.94396 0
M  V30 2112 H 204.957 -0.412632 -0.520222 0
M  V30 2113 H 207.487 -1.69985 -1.1387 0
M  V30 2114 H 207.497 -1.97597 -3.56958 0
M  V30 2115 H 206.172 -2.94136 -2.94035 0
M  V30 2116 H 204.749 -1.20684 -3.52831 0
M  V30 2117 N 206.934 1.1197 -1.10907 0
M  V30 2118 C 207.864 2.19928 -0.784473 0
M  V30 2119 C 208.845 1.6833 0.244726 0
M  V30 2120 O 210.03 1.93892 0.109418 0
M  V30 2121 C 207.16 3.46597 -0.220827 0
M  V30 2122 C 206.114 4.11376 -1.18127 0
M  V30 2123 C 205.44 5.32554 -0.478594 0
M  V30 2124 C 206.74 4.56945 -2.52979 0
M  V30 2125 H 208.434 2.47337 -1.68715 0
M  V30 2126 H 205.98 1.18879 -0.812642 0
M  V30 2127 H 207.933 4.21396 0.0184278 0
M  V30 2128 H 206.657 3.1863 0.717113 0
M  V30 2129 H 205.316 3.38564 -1.40606 0
M  V30 2130 H 204.964 5.00856 0.463976 0
M  V30 2131 H 204.664 5.76844 -1.11912 0
M  V30 2132 H 206.188 6.10096 -0.248 0
M  V30 2133 H 207.602 5.23093 -2.3462 0
M  V30 2134 H 205.999 5.1203 -3.12962 0
M  V30 2135 H 207.069 3.70676 -3.12614 0
M  V30 2136 N 208.412 0.89855 1.29475 0
M  V30 2137 C 209.344 0.332726 2.26772 0
M  V30 2138 C 210.357 -0.520323 1.54261 0
M  V30 2139 O 211.546 -0.337668 1.75277 0
M  V30 2140 C 208.646 -0.544334 3.345 0
M  V30 2141 C 207.819 0.282728 4.36485 0
M  V30 2142 C 206.878 -0.526982 5.23555 0
M  V30 2143 O 205.904 0.0551165 5.69173 0
M  V30 2144 N 207.106 -1.83331 5.5079 0
M  V30 2145 H 209.871 1.16897 2.75962 0
M  V30 2146 H 207.432 0.762919 1.42798 0
M  V30 2147 H 209.424 -1.09239 3.89678 0
M  V30 2148 H 207.994 -1.28127 2.85136 0
M  V30 2149 H 207.214 1.01221 3.80983 0
M  V30 2150 H 208.502 0.84918 5.01664 0
M  V30 2151 H 207.9 -2.32898 5.15534 0
M  V30 2152 H 206.457 -2.32852 6.08788 0
M  V30 2153 N 209.89 -1.43072 0.660911 0
M  V30 2154 C 210.837 -2.30785 -0.0259884 0
M  V30 2155 C 211.807 -1.45184 -0.806888 0
M  V30 2156 O 212.992 -1.74041 -0.781943 0
M  V30 2157 C 210.132 -3.30861 -0.981067 0
M  V30 2158 C 209.245 -4.31558 -0.195458 0
M  V30 2159 C 208.38 -5.18712 -1.14503 0
M  V30 2160 C 207.419 -6.11097 -0.350299 0
M  V30 2161 N 206.556 -6.90849 -1.25186 0
M  V30 2162 H 211.396 -2.88975 0.727846 0
M  V30 2163 H 208.933 -1.42353 0.370682 0
M  V30 2164 H 210.891 -3.87399 -1.54849 0
M  V30 2165 H 209.521 -2.74304 -1.70169 0
M  V30 2166 H 208.573 -3.77252 0.488374 0
M  V30 2167 H 209.885 -4.9701 0.422176 0
M  V30 2168 H 209.039 -5.79914 -1.78284 0
M  V30 2169 H 207.778 -4.53404 -1.79656 0
M  V30 2170 H 206.783 -5.48976 0.300808 0
M  V30 2171 H 208.008 -6.7845 0.296941 0
M  V30 2172 H 205.954 -6.28182 -1.89005 0
M  V30 2173 H 205.871 -7.52854 -0.688971 0
M  V30 2174 H 207.139 -7.5655 -1.87757 0
M  V30 2175 N 211.368 -0.403325 -1.52352 0
M  V30 2176 C 212.318 0.442244 -2.2367 0
M  V30 2177 C 213.302 1.01823 -1.24583 0
M  V30 2178 O 214.494 0.942005 -1.49851 0
M  V30 2179 C 211.623 1.5615 -3.05732 0
M  V30 2180 C 210.709 0.996575 -4.12225 0
M  V30 2181 N 211.1 0.157804 -5.05554 0
M  V30 2182 C 209.398 1.26767 -4.27605 0
M  V30 2183 C 210.099 -0.155853 -5.81491 0
M  V30 2184 N 209.075 0.451775 -5.41719 0
M  V30 2185 H 212.877 -0.204964 -2.93184 0
M  V30 2186 H 210.391 -0.213418 -1.60992 0
M  V30 2187 H 212.388 2.17981 -3.55373 0
M  V30 2188 H 211.048 2.21139 -2.37755 0
M  V30 2189 H 212.059 -0.206049 -5.1749 0
M  V30 2190 H 208.736 1.91757 -3.70858 0
M  V30 2191 H 210.126 -0.836329 -6.66675 0
M  V30 2192 N 212.846 1.57033 -0.133567 0
M  V30 2193 C 213.776 2.1909 0.807567 0
M  V30 2194 C 214.757 1.13517 1.26681 0
M  V30 2195 O 215.942 1.41809 1.32679 0
M  V30 2196 C 213.072 2.80188 2.05212 0
M  V30 2197 C 212.026 3.91471 1.73015 0
M  V30 2198 C 211.352 4.39443 3.04622 0
M  V30 2199 C 212.652 5.12886 0.987168 0
M  V30 2200 H 214.346 2.97988 0.290403 0
M  V30 2201 H 211.892 1.43335 0.138239 0
M  V30 2202 H 213.845 3.22264 2.71521 0
M  V30 2203 H 212.569 1.98601 2.59278 0
M  V30 2204 H 211.228 3.49993 1.0909 0
M  V30 2205 H 210.876 3.54695 3.56651 0
M  V30 2206 H 210.576 5.14495 2.83847 0
M  V30 2207 H 212.1 4.8418 3.72024 0
M  V30 2208 H 213.514 5.51891 1.55208 0
M  V30 2209 H 211.911 5.93615 0.87985 0
M  V30 2210 H 212.981 4.84894 -0.0235286 0
M  V30 2211 N 214.325 -0.140222 1.56975 0
M  V30 2212 C 215.288 -1.15689 1.97861 0
M  V30 2213 C 216.288 -1.3549 0.865974 0
M  V30 2214 O 217.478 -1.32367 1.13246 0
M  V30 2215 C 214.61 -2.51582 2.30042 0
M  V30 2216 H 215.803 -0.805971 2.88867 0
M  V30 2217 H 213.356 -0.383801 1.51515 0
M  V30 2218 H 214.091 -2.91632 1.41849 0
M  V30 2219 H 213.876 -2.38569 3.11171 0
M  V30 2220 H 215.366 -3.24792 2.62488 0
M  V30 2221 N 215.803 -1.52179 -0.40978 0
M  V30 2222 C 216.713 -1.78364 -1.52392 0
M  V30 2223 C 217.729 -0.669183 -1.60617 0
M  V30 2224 O 218.905 -0.954518 -1.77344 0
M  V30 2225 C 215.97 -1.92822 -2.88133 0
M  V30 2226 C 215.031 -3.16725 -2.898 0
M  V30 2227 C 214.264 -3.30483 -4.19067 0
M  V30 2228 O 214.487 -2.49522 -5.12928 0
M  V30 2229 O 213.421 -4.2363 -4.27576 0
M  V30 2230 H 217.247 -2.72931 -1.33201 0
M  V30 2231 H 214.832 -1.37016 -0.59557 0
M  V30 2232 H 216.714 -2.04157 -3.68643 0
M  V30 2233 H 215.389 -1.01444 -3.07393 0
M  V30 2234 H 214.296 -3.10848 -2.08146 0
M  V30 2235 H 215.629 -4.07881 -2.75489 0
M  V30 2236 N 217.281 0.66697 -1.42791 0
M  V30 2237 C 218.211 1.79218 -1.49677 0
M  V30 2238 C 219.192 1.66405 -0.352623 0
M  V30 2239 O 220.377 1.85708 -0.567993 0
M  V30 2240 C 217.507 3.17565 -1.40605 0
M  V30 2241 C 216.461 3.45124 -2.53127 0
M  V30 2242 C 215.787 4.83127 -2.29112 0
M  V30 2243 C 217.087 3.41236 -3.95418 0
M  V30 2244 H 218.781 1.73713 -2.43853 0
M  V30 2245 H 216.327 0.83432 -1.17367 0
M  V30 2246 H 218.28 3.96022 -1.44029 0
M  V30 2247 H 217.004 3.23767 -0.429271 0
M  V30 2248 H 215.663 2.69031 -2.49034 0
M  V30 2249 H 215.311 4.85988 -1.29709 0
M  V30 2250 H 215.011 5.02528 -3.04531 0
M  V30 2251 H 216.535 5.63859 -2.34297 0
M  V30 2252 H 217.949 4.09651 -4.01073 0
M  V30 2253 H 216.346 3.72173 -4.70752 0
M  V30 2254 H 217.416 2.39665 -4.21532 0
M  V30 2255 N 218.759 1.29093 0.90403 0
M  V30 2256 C 219.707 1.13727 2.02901 0
M  V30 2257 C 220.701 0.0539853 1.69314 0
M  V30 2258 O 221.907 0.213469 1.7873 0
M  V30 2259 H 218.282 0.35117 0.664969 0
M  V30 2260 H 220.253 2.08982 2.13001 0
M  V30 2261 C 219.002 0.826066 3.37745 0
M  V30 2262 H 218.325 1.65164 3.64089 0
M  V30 2263 H 219.765 0.758559 4.17159 0
M  V30 2264 C 218.224 -0.470541 3.33598 0
M  V30 2265 O 218.754 -1.49792 3.72727 0
M  V30 2266 N 216.96 -0.474812 2.86695 0
M  V30 2267 H 216.507 0.361692 2.55048 0
M  V30 2268 H 216.465 -1.34236 2.84303 0
M  V30 2269 N 220.237 -1.11381 1.11499 0
M  V30 2270 C 221.187 -2.15555 0.74298 0
M  V30 2271 C 222.171 -1.58894 -0.253276 0
M  V30 2272 O 223.363 -1.76897 -0.0602918 0
M  V30 2273 C 220.492 -3.42782 0.188481 0
M  V30 2274 C 219.578 -4.064 1.21244 0
M  V30 2275 N 219.969 -4.44864 2.40685 0
M  V30 2276 C 218.267 -4.3333 1.05552 0
M  V30 2277 C 218.968 -4.94715 3.05994 0
M  V30 2278 N 217.944 -4.90909 2.33472 0
M  V30 2279 H 221.746 -2.43074 1.65203 0
M  V30 2280 H 219.26 -1.28401 0.994329 0
M  V30 2281 H 221.257 -4.16789 -0.0961693 0
M  V30 2282 H 219.917 -3.16727 -0.715149 0
M  V30 2283 H 220.928 -4.36876 2.78136 0
M  V30 2284 H 217.605 -4.1698 0.208372 0
M  V30 2285 H 218.995 -5.34103 4.07656 0
M  V30 2286 N 221.715 -0.905404 -1.28997 0
M  V30 2287 C 222.647 -0.344748 -2.26592 0
M  V30 2288 C 223.66 0.512135 -1.54535 0
M  V30 2289 O 224.849 0.328368 -1.75454 0
M  V30 2290 C 221.949 0.526587 -3.34784 0
M  V30 2291 C 221.122 -0.305871 -4.36329 0
M  V30 2292 C 220.181 0.499209 -5.23827 0
M  V30 2293 O 219.207 -0.0853004 -5.69136 0
M  V30 2294 N 220.409 1.80408 -5.51755 0
M  V30 2295 H 223.174 -1.18359 -2.75338 0
M  V30 2296 H 220.735 -0.770481 -1.42391 0
M  V30 2297 H 222.727 1.07171 -3.90252 0
M  V30 2298 H 221.297 1.26613 -2.85811 0
M  V30 2299 H 220.517 -1.0324 -3.80441 0
M  V30 2300 H 221.805 -0.875773 -5.01206 0
M  V30 2301 H 221.203 2.3016 -5.16762 0
M  V30 2302 H 219.76 2.29621 -6.10014 0
M  V30 2303 N 223.193 1.4272 -0.668489 0
M  V30 2304 C 224.14 2.30796 0.0137489 0
M  V30 2305 C 225.11 1.4561 0.799177 0
M  V30 2306 O 226.295 1.74453 0.772702 0
M  V30 2307 C 223.435 3.31377 0.963507 0
M  V30 2308 C 222.548 4.31655 0.172569 0
M  V30 2309 C 221.683 5.19312 1.1175 0
M  V30 2310 C 220.722 6.11274 0.317886 0
M  V30 2311 N 219.859 6.91504 1.2152 0
M  V30 2312 H 224.699 2.88585 -0.743161 0
M  V30 2313 H 222.236 1.42154 -0.378226 0
M  V30 2314 H 224.194 3.88214 1.52792 0
M  V30 2315 H 222.824 2.75202 1.68712 0
M  V30 2316 H 221.876 3.76988 -0.508374 0
M  V30 2317 H 223.188 4.96779 -0.448527 0
M  V30 2318 H 222.342 5.80851 1.75206 0
M  V30 2319 H 221.081 4.5435 1.77249 0
M  V30 2320 H 220.086 5.48809 -0.329918 0
M  V30 2321 H 221.311 6.78283 -0.332917 0
M  V30 2322 H 219.257 6.29176 1.85671 0
M  V30 2323 H 219.174 7.53209 0.649036 0
M  V30 2324 H 220.442 7.57535 1.83742 0
M  V30 2325 N 224.671 0.411399 1.52136 0
M  V30 2326 C 225.603 -0.448386 2.24771 0
M  V30 2327 C 226.616 -1.00828 1.27818 0
M  V30 2328 O 227.805 -0.906841 1.53749 0
M  V30 2329 C 224.905 -1.63636 2.96777 0
M  V30 2330 C 224.078 -1.19995 4.20618 0
M  V30 2331 C 223.137 -2.25509 4.75428 0
M  V30 2332 O 222.163 -1.86007 5.3795 0
M  V30 2333 N 223.365 -3.577 4.57199 0
M  V30 2334 H 226.13 0.174025 2.99194 0
M  V30 2335 H 223.691 0.238897 1.60128 0
M  V30 2336 H 225.683 -2.33793 3.30338 0
M  V30 2337 H 224.253 -2.16465 2.25526 0
M  V30 2338 H 223.473 -0.326421 3.92846 0
M  V30 2339 H 224.761 -0.885365 5.01038 0
M  V30 2340 H 224.159 -3.92543 4.07341 0
M  V30 2341 H 222.716 -4.23827 4.95191 0
M  V30 2342 N 226.149 -1.5696 0.141893 0
M  V30 2343 C 227.079 -2.19516 -0.795936 0
M  V30 2344 C 228.06 -1.14187 -1.26077 0
M  V30 2345 O 229.245 -1.42511 -1.31925 0
M  V30 2346 C 226.375 -2.81272 -2.03723 0
M  V30 2347 C 225.329 -3.92384 -1.70936 0
M  V30 2348 C 224.655 -4.41052 -3.02287 0
M  V30 2349 C 225.955 -5.13403 -0.959954 0
M  V30 2350 H 227.649 -2.98138 -0.274596 0
M  V30 2351 H 225.195 -1.43406 -0.130636 0
M  V30 2352 H 227.148 -3.237 -2.69808 0
M  V30 2353 H 225.872 -1.99973 -2.58221 0
M  V30 2354 H 224.531 -3.50566 -1.07232 0
M  V30 2355 H 224.179 -3.56582 -3.54765 0
M  V30 2356 H 223.879 -5.15993 -2.81114 0
M  V30 2357 H 225.403 -4.86146 -3.69451 0
M  V30 2358 H 226.817 -5.52706 -1.52279 0
M  V30 2359 H 225.214 -5.94073 -0.848357 0
M  V30 2360 H 226.284 -4.84875 0.0492434 0
M  V30 2361 N 227.627 0.131896 -1.57047 0
M  V30 2362 C 228.537 1.1815 -2.02676 0
M  V30 2363 C 229.553 1.46113 -0.944824 0
M  V30 2364 O 230.729 1.57485 -1.25541 0
M  V30 2365 C 227.794 2.49139 -2.41103 0
M  V30 2366 C 226.855 2.28688 -3.63318 0
M  V30 2367 C 226.088 3.53431 -3.99903 0
M  V30 2368 O 226.311 4.60223 -3.36973 0
M  V30 2369 O 225.245 3.45198 -4.93074 0
M  V30 2370 H 229.071 0.824069 -2.92306 0
M  V30 2371 H 226.656 0.341745 -1.45439 0
M  V30 2372 H 228.538 3.26338 -2.66611 0
M  V30 2373 H 227.213 2.84382 -1.54624 0
M  V30 2374 H 226.12 1.4939 -3.42977 0
M  V30 2375 H 227.453 1.98355 -4.50462 0
M  V30 2376 N 229.106 1.52395 0.401703 0
M  V30 2377 C 230.331 1.70972 1.17403 0
M  V30 2378 C 230.756 0.421615 1.83314 0
M  V30 2379 O 230.114 -0.621564 1.70312 0
M  V30 2380 C 230.162 2.85151 2.20728 0
M  V30 2381 O 229.266 2.51238 3.27037 0
M  V30 2382 H 228.607 0.568927 0.342372 0
M  V30 2383 H 231.137 1.99131 0.469891 0
M  V30 2384 H 231.147 3.10279 2.64936 0
M  V30 2385 H 229.822 3.78603 1.7214 0
M  V30 2386 H 228.399 2.36808 2.88057 0
M  V30 2387 N 230.584 -0.659388 1.43143 0
M  V30 2388 C 231.532 -1.79374 1.4808 0
M  V30 2389 C 232.526 -1.65639 0.354988 0
M  V30 2390 O 233.732 -1.7206 0.528704 0
M  V30 2391 H 230.107 -0.591705 0.4641 0
M  V30 2392 H 232.078 -1.72329 2.43609 0
M  V30 2393 C 230.827 -3.17606 1.41499 0
M  V30 2394 H 230.15 -3.28809 2.27431 0
M  V30 2395 H 231.59 -3.96951 1.49015 0
M  V30 2396 C 230.049 -3.36642 0.131765 0
M  V30 2397 O 230.579 -3.93461 -0.809386 0
M  V30 2398 N 228.785 -2.90567 0.0439396 0
M  V30 2399 H 228.332 -2.44513 0.810619 0
M  V30 2400 H 228.29 -3.03681 -0.813969 0
M  V30 2401 N 232.062 -1.29571 -0.897171 0
M  V30 2402 C 233.009 -1.14916 -2.00158 0
M  V30 2403 C 233.979 -0.0418149 -1.66047 0
M  V30 2404 O 235.164 -0.209793 -1.89643 0
M  V30 2405 C 232.304 -0.834307 -3.34863 0
M  V30 2406 C 231.417 -2.02234 -3.8174 0
M  V30 2407 C 230.552 -1.64664 -5.05034 0
M  V30 2408 C 229.591 -2.80033 -5.44286 0
M  V30 2409 N 228.728 -2.42843 -6.58765 0
M  V30 2410 H 233.568 -2.09403 -2.12025 0
M  V30 2411 H 231.105 -1.042 -1.0383 0
M  V30 2412 H 233.063 -0.632436 -4.12379 0
M  V30 2413 H 231.693 0.0736656 -3.22716 0
M  V30 2414 H 230.745 -2.33583 -3.00238 0
M  V30 2415 H 232.057 -2.88673 -4.06779 0
M  V30 2416 H 231.211 -1.4078 -5.9014 0
M  V30 2417 H 229.95 -0.753766 -4.8184 0
M  V30 2418 H 228.955 -3.04596 -4.57713 0
M  V30 2419 H 230.18 -3.69989 -5.6946 0
M  V30 2420 H 228.126 -1.56046 -6.3717 0
M  V30 2421 H 228.043 -3.22815 -6.83613 0
M  V30 2422 H 229.311 -2.22285 -7.47134 0
M  V30 2423 N 233.54 1.10788 -1.12088 0
M  V30 2424 C 234.789 1.82036 -0.868659 0
M  V30 2425 C 235.102 1.85929 0.607426 0
M  V30 2426 O 236.308 2.53346 0.97613 0
M  V30 2427 C 234.764 3.26951 -1.50435 0
M  V30 2428 C 234.372 3.31367 -3.01496 0
M  V30 2429 C 236.116 4.03053 -1.33225 0
M  V30 2430 C 234.023 4.7072 -3.58017 0
M  V30 2431 H 232.953 0.682108 -0.321318 0
M  V30 2432 H 235.604 1.24618 -1.34694 0
M  V30 2433 H 233.986 3.84343 -0.953735 0
M  V30 2434 H 235.16 2.83819 -3.6302 0
M  V30 2435 H 233.475 2.6875 -3.18061 0
M  V30 2436 H 236.072 5.05981 -1.72878 0
M  V30 2437 H 236.415 4.15387 -0.275529 0
M  V30 2438 H 236.948 3.52066 -1.85188 0
M  V30 2439 H 233.687 4.63585 -4.63432 0
M  V30 2440 H 233.207 5.1865 -3.01268 0
M  V30 2441 H 234.886 5.39685 -3.56859 0
M  V30 2442 N 235.018 0.912232 1.28515 0
M  V30 2443 C 236.429 0.591352 1.77087 0
M  V30 2444 C 236.78 -0.8933 1.74684 0
M  V30 2445 O 235.905 -1.69876 1.34056 0
M  V30 2446 C 236.5 1.06668 3.2157 0
M  V30 2447 C 235.059 0.79675 3.67871 0
M  V30 2448 C 234.206 1.23427 2.48316 0
M  V30 2449 H 237.157 1.09365 1.15 0
M  V30 2450 H 237.178 0.407455 3.78312 0
M  V30 2451 H 236.69 2.14726 3.23287 0
M  V30 2452 H 234.791 -0.270679 3.71616 0
M  V30 2453 H 234.904 1.40343 4.58084 0
M  V30 2454 H 233.268 0.653036 2.46186 0
M  V30 2455 H 234.051 2.32316 2.52753 0
M  V30 2456 N 236.496 -1.42363 0.676048 0
M  V30 2457 C 237.406 -2.346 -0.00153389 0
M  V30 2458 C 238.422 -1.5516 -0.787485 0
M  V30 2459 O 239.598 -1.87723 -0.729521 0
M  V30 2460 C 236.663 -3.33705 -0.940298 0
M  V30 2461 C 235.724 -4.29042 -0.148739 0
M  V30 2462 C 234.957 -5.23413 -1.04279 0
M  V30 2463 O 235.18 -5.22749 -2.28232 0
M  V30 2464 O 234.114 -5.99795 -0.502925 0
M  V30 2465 H 237.94 -2.94082 0.758268 0
M  V30 2466 H 235.525 -1.42888 0.436289 0
M  V30 2467 H 237.407 -3.94586 -1.47917 0
M  V30 2468 H 236.082 -2.76695 -1.67993 0
M  V30 2469 H 234.989 -3.71571 0.43427 0
M  V30 2470 H 236.322 -4.89097 0.551805 0
M  V30 2471 N 237.974 -0.419461 -1.51915 0
M  V30 2472 C 238.904 0.391813 -2.30189 0
M  V30 2473 C 239.885 1.03699 -1.34836 0
M  V30 2474 O 241.07 1.04403 -1.63748 0
M  V30 2475 C 238.2 1.50312 -3.13087 0
M  V30 2476 C 237.154 0.9824 -4.16573 0
M  V30 2477 C 236.48 2.18809 -4.8788 0
M  V30 2478 C 237.78 0.0292356 -5.22292 0
M  V30 2479 H 239.474 -0.26135 -2.98257 0
M  V30 2480 H 237.02 -0.127134 -1.43438 0
M  V30 2481 H 238.973 2.07773 -3.66617 0
M  V30 2482 H 237.697 2.18431 -2.42807 0
M  V30 2483 H 236.356 0.430119 -3.64068 0
M  V30 2484 H 236.004 2.85507 -4.14119 0
M  V30 2485 H 235.704 1.84615 -5.57845 0
M  V30 2486 H 237.228 2.76858 -5.44226 0
M  V30 2487 H 238.642 0.512976 -5.71 0
M  V30 2488 H 237.039 -0.2244 -5.9968 0
M  V30 2489 H 238.109 -0.912931 -4.76228 0
M  V30 2490 N 239.452 1.56882 -0.150215 0
M  V30 2491 C 240.729 1.87844 0.545327 0
M  V30 2492 C 241.109 1.0567 1.82749 0
M  V30 2493 O 240.457 0.144442 2.28043 0
M  V30 2494 C 240.667 3.39526 0.80767 0
M  V30 2495 C 242.015 4.08814 1.14703 0
M  V30 2496 O 243.039 3.44723 0.896917 0
M  V30 2497 O 241.898 5.22004 1.61784 0
M  V30 2498 H 238.992 0.778677 0.278553 0
M  V30 2499 H 241.538 1.68666 -0.187068 0
M  V30 2500 H 240.31 3.91173 -0.0996096 0
M  V30 2501 H 239.933 3.64243 1.59413 0
M  V30 2502 N 240.93 -0.123565 1.57115 0
M  V30 2503 C 241.863 -1.18202 1.95201 0
M  V30 2504 C 242.841 -1.40349 0.821031 0
M  V30 2505 O 244.025 -1.54578 1.07879 0
M  V30 2506 C 241.152 -2.53671 2.24429 0
M  V30 2507 C 240.198 -2.4798 3.46999 0
M  V30 2508 S 241.031 -1.92389 4.99747 0
M  V30 2509 C 242.187 -3.2954 5.32123 0
M  V30 2510 H 242.42 -0.857212 2.84674 0
M  V30 2511 H 239.953 -0.33014 1.50829 0
M  V30 2512 H 241.911 -3.3162 2.41947 0
M  V30 2513 H 240.572 -2.83332 1.35579 0
M  V30 2514 H 239.765 -3.47758 3.64801 0
M  V30 2515 H 239.367 -1.7815 3.28844 0
M  V30 2516 H 241.659 -4.25736 5.27025 0
M  V30 2517 H 242.602 -3.16569 6.33395 0
M  V30 2518 H 243.01 -3.27758 4.59603 0
M  V30 2519 N 242.408 -1.52605 -0.393616 0
M  V30 2520 C 243.636 -1.71294 -1.16043 0
M  V30 2521 C 244.051 -0.429259 -1.83855 0
M  V30 2522 O 243.408 0.595921 -1.72496 0
M  V30 2523 C 243.459 -2.8593 -2.21193 0
M  V30 2524 O 243.18 -4.09329 -1.56146 0
M  V30 2525 C 244.681 -3.16259 -3.10636 0
M  V30 2526 H 241.901 -0.573641 -0.348104 0
M  V30 2527 H 244.445 -1.99234 -0.461092 0
M  V30 2528 H 242.6 -2.60465 -2.86769 0
M  V30 2529 H 243.014 -4.73323 -2.25978 0
M  V30 2530 H 244.488 -3.99946 -3.80456 0
M  V30 2531 H 244.965 -2.3045 -3.73884 0
M  V30 2532 H 245.571 -3.43547 -2.50711 0
M  V30 2533 N 243.887 0.651787 -1.4349 0
M  V30 2534 C 244.797 1.79368 -1.5121 0
M  V30 2535 C 245.813 1.69361 -0.399093 0
M  V30 2536 O 246.989 1.90505 -0.653431 0
M  V30 2537 C 244.054 3.15653 -1.43401 0
M  V30 2538 C 243.115 3.37446 -2.65384 0
M  V30 2539 C 242.348 4.67229 -2.57939 0
M  V30 2540 O 242.571 5.46676 -1.62792 0
M  V30 2541 O 241.505 4.90773 -3.48462 0
M  V30 2542 H 245.331 1.7581 -2.47638 0
M  V30 2543 H 242.916 0.810447 -1.25507 0
M  V30 2544 H 244.798 3.96935 -1.41494 0
M  V30 2545 H 243.473 3.19798 -0.501085 0
M  V30 2546 H 242.38 2.55923 -2.72863 0
M  V30 2547 H 243.713 3.38148 -3.57654 0
M  V30 2548 N 245.365 1.30045 0.890287 0
M  V30 2549 C 246.611 1.18737 1.64406 0
M  V30 2550 C 246.944 -0.258525 1.92472 0
M  V30 2551 O 246.219 -1.18562 1.54186 0
M  V30 2552 C 246.502 2.01087 2.98724 0
M  V30 2553 C 246.355 3.53867 2.77665 0
M  V30 2554 C 247.674 1.84457 3.9958 0
M  V30 2555 H 244.793 0.432698 0.596608 0
M  V30 2556 H 247.435 1.5962 1.0306 0
M  V30 2557 H 245.585 1.66349 3.51084 0
M  V30 2558 H 247.257 3.98637 2.32133 0
M  V30 2559 H 245.5 3.78318 2.12269 0
M  V30 2560 H 246.171 4.06772 3.7315 0
M  V30 2561 H 248.647 2.14817 3.56361 0
M  V30 2562 H 247.523 2.44411 4.91482 0
M  V30 2563 H 247.784 0.802276 4.3476 0
M  V30 2564 N 246.843 -1.10192 1.12674 0
M  V30 2565 C 248.089 -1.82475 0.884915 0
M  V30 2566 C 248.422 -1.85093 -0.58773 0
M  V30 2567 O 247.697 -1.3134 -1.43457 0
M  V30 2568 C 247.98 -3.29018 1.46353 0
M  V30 2569 C 247.833 -3.34718 3.00473 0
M  V30 2570 C 249.152 -4.25473 1.12519 0
M  V30 2571 H 246.271 -0.662492 0.322915 0
M  V30 2572 H 248.913 -1.2913 1.39375 0
M  V30 2573 H 247.063 -3.74576 1.03077 0
M  V30 2574 H 248.735 -2.97622 3.52447 0
M  V30 2575 H 246.978 -2.74541 3.35872 0
M  V30 2576 H 247.649 -4.37918 3.36053 0
M  V30 2577 H 250.125 -3.88161 1.499 0
M  V30 2578 H 249.001 -5.26365 1.55663 0
M  V30 2579 H 249.262 -4.42084 0.0377407 0
M  V30 2580 N 248.321 -0.919034 -1.28029 0
M  V30 2581 C 249.284 -0.416182 -2.2539 0
M  V30 2582 C 250.284 0.460438 -1.54067 0
M  V30 2583 O 251.474 0.262744 -1.72207 0
M  V30 2584 C 248.606 0.402707 -3.38513 0
M  V30 2585 H 249.799 -1.27629 -2.71387 0
M  V30 2586 H 247.352 -0.698919 -1.39803 0
M  V30 2587 H 248.087 1.282 -2.97885 0
M  V30 2588 H 247.872 -0.225698 -3.9145 0
M  V30 2589 H 249.362 0.745191 -4.10897 0
M  V30 2590 N 249.799 1.42003 -0.683588 0
M  V30 2591 C 251.21 1.84501 -0.285736 0
M  V30 2592 C 251.561 1.57213 1.17382 0
M  V30 2593 O 250.686 1.03642 1.89966 0
M  V30 2594 C 251.281 3.34912 -0.511821 0
M  V30 2595 C 249.84 3.76025 -0.168005 0
M  V30 2596 C 248.987 2.6551 -0.799983 0
M  V30 2597 H 251.938 1.31724 -0.885119 0
M  V30 2598 H 251.959 3.79784 0.233292 0
M  V30 2599 H 251.471 3.54741 -1.57418 0
M  V30 2600 H 249.572 3.61801 0.890567 0
M  V30 2601 H 249.685 4.75141 -0.614661 0
M  V30 2602 H 248.049 2.53654 -0.230568 0
M  V30 2603 H 248.832 2.8816 -1.86597 0
M  V30 2604 N 251.277 0.427512 1.51691 0
M  V30 2605 C 252.524 -0.142229 2.02 0
M  V30 2606 C 252.852 -1.43566 1.31221 0
M  V30 2607 O 252.107 -1.91298 0.412744 0
M  V30 2608 C 252.406 -0.418249 3.54944 0
M  V30 2609 C 252.072 0.788187 4.43958 0
M  V30 2610 C 250.734 1.11906 4.68007 0
M  V30 2611 C 253.086 1.59347 4.96244 0
M  V30 2612 C 250.414 2.25608 5.41588 0
M  V30 2613 C 252.766 2.7214 5.71072 0
M  V30 2614 C 251.43 3.05692 5.93387 0
M  V30 2615 H 250.7 -0.0520451 0.73917 0
M  V30 2616 H 253.347 0.572697 1.82736 0
M  V30 2617 H 251.652 -1.21496 3.72486 0
M  V30 2618 H 253.349 -0.872339 3.91397 0
M  V30 2619 H 249.939 0.520344 4.2543 0
M  V30 2620 H 254.123 1.35106 4.77556 0
M  V30 2621 H 249.379 2.51929 5.57083 0
M  V30 2622 H 253.553 3.34914 6.10578 0
M  V30 2623 H 251.18 3.9391 6.50184 0
M  V30 2624 N 252.755 -1.56801 0.158532 0
M  V30 2625 C 253.688 -2.13148 -0.815065 0
M  V30 2626 C 254.666 -1.0581 -1.23462 0
M  V30 2627 O 255.85 -1.3371 -1.32868 0
M  V30 2628 C 252.977 -2.6606 -2.09594 0
M  V30 2629 C 252.023 -3.85651 -1.82141 0
M  V30 2630 S 252.856 -5.26041 -1.00207 0
M  V30 2631 C 254.012 -5.8235 -2.29389 0
M  V30 2632 H 254.245 -2.95396 -0.335937 0
M  V30 2633 H 251.778 -1.54299 -0.0559391 0
M  V30 2634 H 253.736 -2.97195 -2.8317 0
M  V30 2635 H 252.397 -1.83921 -2.54621 0
M  V30 2636 H 251.59 -4.20958 -2.77147 0
M  V30 2637 H 251.192 -3.55338 -1.16667 0
M  V30 2638 H 253.484 -5.94485 -3.24952 0
M  V30 2639 H 254.427 -6.79688 -1.9857 0
M  V30 2640 H 254.835 -5.10675 -2.40564 0
M  V30 2641 N 254.233 0.115231 -1.57178 0
M  V30 2642 C 255.196 1.12526 -1.99676 0
M  V30 2643 C 256.196 1.34095 -0.88742 0
M  V30 2644 O 257.386 1.30548 -1.15337 0
M  V30 2645 C 254.518 2.4789 -2.34015 0
M  V30 2646 H 255.711 0.759912 -2.90113 0
M  V30 2647 H 253.264 0.359648 -1.52106 0
M  V30 2648 H 253.999 2.89339 -1.4647 0
M  V30 2649 H 253.784 2.33588 -3.14927 0
M  V30 2650 H 255.274 3.20575 -2.67622 0
M  V30 2651 N 255.711 1.52812 0.385517 0
M  V30 2652 C 256.659 1.78482 1.49155 0
M  V30 2653 C 257.653 0.652914 1.56312 0
M  V30 2654 O 258.859 0.835464 1.59436 0
M  V30 2655 H 255.234 0.5648 0.496493 0
M  V30 2656 H 257.205 2.71095 1.24699 0
M  V30 2657 C 255.954 1.97378 2.86247 0
M  V30 2658 H 255.277 2.83907 2.81491 0
M  V30 2659 H 256.717 2.19327 3.62866 0
M  V30 2660 C 255.176 0.74728 3.28508 0
M  V30 2661 O 255.706 -0.0736232 4.01633 0
M  V30 2662 N 253.912 0.576396 2.84826 0
M  V30 2663 H 253.459 1.24555 2.25486 0
M  V30 2664 H 253.417 -0.24288 3.1346 0
M  V30 2665 N 257.189 -0.644168 1.43834 0
M  V30 2666 C 258.438 -1.39985 1.45214 0
M  V30 2667 C 258.751 -1.95421 0.0835494 0
M  V30 2668 O 259.957 -2.71488 -0.0251748 0
M  V30 2669 C 258.413 -2.53384 2.55587 0
M  V30 2670 C 258.021 -2.04517 3.98594 0
M  V30 2671 C 259.765 -3.30685 2.66172 0
M  V30 2672 C 257.672 -3.1518 5.00416 0
M  V30 2673 H 256.602 -0.526005 0.540218 0
M  V30 2674 H 259.253 -0.694367 1.69855 0
M  V30 2675 H 257.635 -3.26446 2.24163 0
M  V30 2676 H 258.809 -1.38405 4.39523 0
M  V30 2677 H 257.124 -1.40068 3.92135 0
M  V30 2678 H 259.721 -4.13158 3.39418 0
M  V30 2679 H 260.064 -3.79312 1.71546 0
M  V30 2680 H 260.597 -2.64708 2.96942 0
M  V30 2681 H 257.336 -2.71511 5.96625 0
M  V30 2682 H 256.856 -3.79974 4.64091 0
M  V30 2683 H 258.535 -3.80166 5.23529 0
M  V30 2684 N 258.668 -1.30515 -0.883378 0
M  V30 2685 C 260.079 -1.17509 -1.45081 0
M  V30 2686 C 260.43 0.223605 -1.94922 0
M  V30 2687 O 259.555 1.12041 -1.85137 0
M  V30 2688 C 260.15 -2.12715 -2.63701 0
M  V30 2689 C 258.709 -2.03682 -3.16529 0
M  V30 2690 C 257.856 -2.02706 -1.89224 0
M  V30 2691 H 260.807 -1.42762 -0.693165 0
M  V30 2692 H 260.828 -1.70891 -3.39965 0
M  V30 2693 H 260.34 -3.14505 -2.27395 0
M  V30 2694 H 258.441 -1.05039 -3.57488 0
M  V30 2695 H 258.554 -2.92146 -3.7972 0
M  V30 2696 H 256.918 -1.4753 -2.07622 0
M  V30 2697 H 257.701 -3.06229 -1.55174 0
M  V30 2698 N 260.146 1.09593 -1.13257 0
M  V30 2699 C 261.076 2.18214 -0.830946 0
M  V30 2700 C 262.057 1.68812 0.208966 0
M  V30 2701 O 263.242 1.9408 0.0682666 0
M  V30 2702 C 260.372 3.46051 -0.294296 0
M  V30 2703 C 259.326 4.08778 -1.26826 0
M  V30 2704 C 258.652 5.31419 -0.591449 0
M  V30 2705 C 259.952 4.51476 -2.62615 0
M  V30 2706 H 261.646 2.43703 -1.73923 0
M  V30 2707 H 259.192 1.17128 -0.837675 0
M  V30 2708 H 261.145 4.2134 -0.0709606 0
M  V30 2709 H 259.869 3.20079 0.649366 0
M  V30 2710 H 258.528 3.35505 -1.47756 0
M  V30 2711 H 258.176 5.01727 0.357633 0
M  V30 2712 H 257.876 5.74341 -1.24123 0
M  V30 2713 H 259.4 6.09433 -0.377355 0
M  V30 2714 H 260.814 5.17999 -2.45663 0
M  V30 2715 H 259.211 5.05277 -3.23752 0
M  V30 2716 H 260.281 3.63962 -3.20406 0
M  V30 2717 N 261.624 0.925811 1.2754 0
M  V30 2718 C 262.554 0.440748 2.29303 0
M  V30 2719 C 263.535 -0.497971 1.62648 0
M  V30 2720 O 264.72 -0.403126 1.8997 0
M  V30 2721 C 261.85 -0.309048 3.45922 0
M  V30 2722 C 260.804 0.54166 4.24559 0
M  V30 2723 C 260.13 -0.337191 5.33636 0
M  V30 2724 C 261.43 1.80516 4.90114 0
M  V30 2725 H 263.124 1.29121 2.70126 0
M  V30 2726 H 260.67 0.622323 1.29858 0
M  V30 2727 H 262.623 -0.659315 4.1621 0
M  V30 2728 H 261.347 -1.19352 3.04011 0
M  V30 2729 H 260.006 0.874609 3.56014 0
M  V30 2730 H 259.654 -1.22056 4.87966 0
M  V30 2731 H 259.354 0.228497 5.87156 0
M  V30 2732 H 260.878 -0.683072 6.06767 0
M  V30 2733 H 262.292 1.52307 5.52698 0
M  V30 2734 H 260.689 2.3142 5.53683 0
M  V30 2735 H 261.759 2.52581 4.13921 0
M  V30 2736 N 263.102 -1.41638 0.69111 0
M  V30 2737 C 264.032 -2.3347 0.037248 0
M  V30 2738 C 265.013 -1.51575 -0.771947 0
M  V30 2739 O 266.198 -1.80126 -0.72582 0
M  V30 2740 C 263.328 -3.35354 -0.903064 0
M  V30 2741 C 262.282 -4.27526 -0.201288 0
M  V30 2742 C 261.608 -5.19747 -1.25565 0
M  V30 2743 C 262.908 -5.13959 0.929689 0
M  V30 2744 H 264.602 -2.88397 0.804227 0
M  V30 2745 H 262.148 -1.38669 0.388189 0
M  V30 2746 H 264.101 -3.98519 -1.36969 0
M  V30 2747 H 262.825 -2.78767 -1.70166 0
M  V30 2748 H 261.484 -3.65779 0.245265 0
M  V30 2749 H 261.132 -4.59479 -2.04666 0
M  V30 2750 H 260.832 -5.8225 -0.791128 0
M  V30 2751 H 262.356 -5.85789 -1.72288 0
M  V30 2752 H 263.77 -5.70718 0.543546 0
M  V30 2753 H 262.167 -5.85379 1.32103 0
M  V30 2754 H 263.237 -4.51389 1.77133 0
M  V30 2755 N 264.58 -0.43555 -1.51462 0
M  V30 2756 C 265.81 0.130053 -2.0619 0
M  V30 2757 C 266.218 1.37164 -1.30317 0
M  V30 2758 O 265.561 1.80225 -0.355598 0
M  V30 2759 C 265.623 0.519418 -3.55728 0
M  V30 2760 C 265.287 -0.615119 -4.52841 0
M  V30 2761 C 266.284 -1.48671 -4.9819 0
M  V30 2762 C 263.969 -0.795341 -4.95963 0
M  V30 2763 C 265.963 -2.52324 -5.8533 0
M  V30 2764 C 263.65 -1.83514 -5.82894 0
M  V30 2765 C 264.648 -2.69748 -6.27475 0
M  V30 2766 O 264.336 -3.71944 -7.1268 0
M  V30 2767 H 264.068 0.0121612 -0.675891 0
M  V30 2768 H 266.622 -0.6129 -1.96043 0
M  V30 2769 H 264.852 1.31505 -3.63653 0
M  V30 2770 H 266.541 1.01597 -3.92979 0
M  V30 2771 H 267.307 -1.359 -4.65571 0
M  V30 2772 H 263.186 -0.133713 -4.60806 0
M  V30 2773 H 266.73 -3.19665 -6.20048 0
M  V30 2774 H 262.627 -1.96306 -6.14926 0
M  V30 2775 H 263.395 -3.68503 -7.30854 0
M  V30 2776 N 266.058 1.56714 -0.166846 0
M  V30 2777 C 267.469 1.83378 0.350646 0
M  V30 2778 C 267.82 1.08646 1.63372 0
M  V30 2779 O 266.945 0.338058 2.13743 0
M  V30 2780 C 267.54 3.32643 0.642963 0
M  V30 2781 C 266.099 3.59818 1.10491 0
M  V30 2782 C 265.246 2.76954 0.138411 0
M  V30 2783 H 268.197 1.53803 -0.391193 0
M  V30 2784 H 268.218 3.49878 1.49551 0
M  V30 2785 H 267.73 3.87007 -0.291055 0
M  V30 2786 H 265.831 3.1086 2.05418 0
M  V30 2787 H 265.944 4.68178 1.01716 0
M  V30 2788 H 264.308 2.4666 0.634911 0
M  V30 2789 H 265.091 3.34097 -0.789549 0
M  V30 2790 N 267.536 -0.106894 1.57237 0
M  V30 2791 C 268.468 -1.15646 1.97885 0
M  V30 2792 C 269.481 -1.36981 0.879779 0
M  V30 2793 O 270.67 -1.35841 1.15799 0
M  V30 2794 C 267.77 -2.51425 2.27241 0
M  V30 2795 C 266.943 -2.50529 3.58545 0
M  V30 2796 C 266.002 -3.68145 3.75973 0
M  V30 2797 O 265.028 -3.51176 4.47956 0
M  V30 2798 N 266.23 -4.87177 3.15656 0
M  V30 2799 H 268.995 -0.81059 2.8853 0
M  V30 2800 H 266.556 -0.296024 1.59171 0
M  V30 2801 H 268.548 -3.28689 2.36105 0
M  V30 2802 H 267.118 -2.78147 1.42663 0
M  V30 2803 H 266.338 -1.58894 3.60758 0
M  V30 2804 H 267.626 -2.46997 4.44826 0
M  V30 2805 H 267.024 -5.03868 2.57165 0
M  V30 2806 H 265.581 -5.62075 3.30023 0
M  V30 2807 N 269.014 -1.53014 -0.377408 0
M  V30 2808 C 270.291 -1.59215 -1.13622 0
M  V30 2809 C 270.671 -0.392407 -2.07421 0
M  V30 2810 O 270.019 0.618342 -2.19975 0
M  V30 2811 C 270.229 -2.93669 -1.88573 0
M  V30 2812 C 271.577 -3.47822 -2.43526 0
M  V30 2813 O 272.601 -2.9562 -1.98715 0
M  V30 2814 O 271.46 -4.39055 -3.25412 0
M  V30 2815 H 268.554 -0.642625 -0.52054 0
M  V30 2816 H 271.1 -1.65353 -0.381625 0
M  V30 2817 H 269.872 -3.7243 -1.20048 0
M  V30 2818 H 269.495 -2.90968 -2.70968 0
M  V30 2819 N 270.492 0.636531 -1.44174 0
M  V30 2820 C 271.74 1.39343 -1.46383 0
M  V30 2821 C 272.061 1.94766 -0.0955715 0
M  V30 2822 O 271.331 1.75452 0.871395 0
M  V30 2823 H 269.911 0.517199 -0.538994 0
M  V30 2824 H 272.573 0.74957 -1.7991 0
M  V30 2825 H 271.669 2.22746 -2.18611 0
M  V30 2826 N 271.97 1.30982 0.876444 0
M  V30 2827 C 273.381 1.18277 1.44456 0
M  V30 2828 C 273.732 -0.213265 1.95037 0
M  V30 2829 O 272.857 -1.11057 1.85729 0
M  V30 2830 C 273.452 2.1411 2.62569 0
M  V30 2831 C 272.011 2.05358 3.15444 0
M  V30 2832 C 271.158 2.03706 1.88146 0
M  V30 2833 H 274.109 1.43127 0.685584 0
M  V30 2834 H 274.13 1.72692 3.39054 0
M  V30 2835 H 273.642 3.15706 2.25724 0
M  V30 2836 H 271.743 1.06934 3.56926 0
M  V30 2837 H 271.856 2.94156 3.78166 0
M  V30 2838 H 270.22 1.48629 2.06837 0
M  V30 2839 H 271.003 3.07047 1.53547 0
M  V30 2840 N 273.449 -1.08991 1.13837 0
M  V30 2841 C 274.865 -1.33312 0.877506 0
M  V30 2842 C 275.065 -1.95587 -0.48456 0
M  V30 2843 O 274.121 -2.20509 -1.23013 0
M  V30 2844 C 275.434 -2.24045 2.0056 0
M  V30 2845 C 276.982 -2.37542 2.03821 0
M  V30 2846 C 277.457 -3.31614 3.15905 0
M  V30 2847 N 278.948 -3.39189 3.15445 0
M  V30 2848 C 279.683 -4.11992 3.98811 0
M  V30 2849 N 279.179 -4.87553 4.92203 0
M  V30 2850 N 280.972 -4.07762 3.86894 0
M  V30 2851 H 273.123 -0.669456 2.01574 0
M  V30 2852 H 275.386 -0.357482 0.878015 0
M  V30 2853 H 275.092 -1.85521 2.98789 0
M  V30 2854 H 274.966 -3.24466 1.92359 0
M  V30 2855 H 277.353 -2.75327 1.06202 0
M  V30 2856 H 277.434 -1.36884 2.16093 0
M  V30 2857 H 277.078 -2.94551 4.13766 0
M  V30 2858 H 277.008 -4.32186 3.0087 0
M  V30 2859 H 279.499 -2.85314 2.47799 0
M  V30 2860 H 279.812 -5.40549 5.52292 0
M  V30 2861 H 278.157 -4.86627 4.96205 0
M  V30 2862 H 281.348 -3.47833 3.13257 0
M  V30 2863 H 281.521 -4.64238 4.52092 0
M  V30 2864 N 274.927 -0.932562 -1.27047 0
M  V30 2865 C 276.152 -0.591474 -1.98787 0
M  V30 2866 C 276.577 0.824601 -1.69062 0
M  V30 2867 O 275.935 1.5541 -0.933677 0
M  V30 2868 C 275.983 -0.829808 -3.50922 0
M  V30 2869 O 275.087 0.102266 -4.12273 0
M  V30 2870 H 274.428 -0.227185 -0.623926 0
M  V30 2871 H 276.958 -1.25314 -1.61733 0
M  V30 2872 H 276.968 -0.747292 -4.01098 0
M  V30 2873 H 275.643 -1.86201 -3.7189 0
M  V30 2874 H 274.22 -0.0305761 -3.72887 0
M  V30 2875 N 276.405 1.4127 -0.698611 0
M  V30 2876 C 277.352 2.30773 -0.0352094 0
M  V30 2877 C 278.322 1.47273 0.768111 0
M  V30 2878 O 279.507 1.76053 0.735524 0
M  V30 2879 C 276.647 3.33346 0.893 0
M  V30 2880 C 275.76 4.31924 0.0809695 0
M  V30 2881 C 274.895 5.21566 1.0071 0
M  V30 2882 C 273.934 6.11811 0.188155 0
M  V30 2883 N 273.071 6.93926 1.06825 0
M  V30 2884 H 277.911 2.86943 -0.804207 0
M  V30 2885 H 275.448 1.4132 -0.408294 0
M  V30 2886 H 277.406 3.91368 1.44523 0
M  V30 2887 H 276.036 2.78719 1.62836 0
M  V30 2888 H 275.088 3.75825 -0.588224 0
M  V30 2889 H 276.4 4.95716 -0.553801 0
M  V30 2890 H 275.554 5.84437 1.62845 0
M  V30 2891 H 274.293 4.58008 1.67572 0
M  V30 2892 H 273.298 5.47986 -0.446254 0
M  V30 2893 H 274.523 6.77425 -0.476716 0
M  V30 2894 H 272.469 6.32973 1.72283 0
M  V30 2895 H 272.386 7.54416 0.489123 0
M  V30 2896 H 273.654 7.61262 1.67632 0
M  V30 2897 N 277.883 0.443576 1.51229 0
M  V30 2898 C 279.294 -0.0180867 1.86691 0
M  V30 2899 C 279.645 -1.41384 1.36033 0
M  V30 2900 O 278.77 -2.04291 0.713722 0
M  V30 2901 C 279.365 -0.039597 3.38777 0
M  V30 2902 C 277.924 -0.445692 3.73752 0
M  V30 2903 C 277.071 0.357584 2.74985 0
M  V30 2904 H 280.022 0.659138 1.44364 0
M  V30 2905 H 280.043 -0.847761 3.70936 0
M  V30 2906 H 279.555 0.976382 3.75617 0
M  V30 2907 H 277.656 -1.46704 3.42503 0
M  V30 2908 H 277.769 -0.166155 4.78812 0
M  V30 2909 H 276.133 -0.184973 2.54027 0
M  V30 2910 H 276.916 1.37256 3.14668 0
M  V30 2911 N 279.361 -1.56624 0.175154 0
M  V30 2912 C 280.293 -2.15333 -0.785128 0
M  V30 2913 C 281.306 -1.1099 -1.19101 0
M  V30 2914 O 282.495 -1.38162 -1.13019 0
M  V30 2915 C 279.595 -2.68427 -2.06882 0
M  V30 2916 C 278.768 -3.97466 -1.8259 0
M  V30 2917 C 277.827 -4.35585 -2.95215 0
M  V30 2918 O 276.853 -5.03389 -2.65684 0
M  V30 2919 N 278.055 -3.97457 -4.23094 0
M  V30 2920 H 280.82 -2.98359 -0.283187 0
M  V30 2921 H 278.381 -1.61898 -0.00749817 0
M  V30 2922 H 280.373 -2.90924 -2.81328 0
M  V30 2923 H 278.943 -1.89968 -2.48256 0
M  V30 2924 H 278.163 -3.83307 -0.920287 0
M  V30 2925 H 279.451 -4.81736 -1.63733 0
M  V30 2926 H 278.849 -3.42878 -4.49945 0
M  V30 2927 H 277.406 -4.24947 -4.9423 0
M  V30 2928 N 280.839 0.0985539 -1.57292 0
M  V30 2929 C 282.25 0.653457 -1.74891 0
M  V30 2930 C 282.601 1.7929 -0.796838 0
M  V30 2931 O 281.726 2.16385 0.0254886 0
M  V30 2932 C 282.321 1.19216 -3.17133 0
M  V30 2933 C 280.88 1.69316 -3.36168 0
M  V30 2934 C 280.027 0.601294 -2.70702 0
M  V30 2935 H 282.978 -0.127497 -1.58187 0
M  V30 2936 H 282.999 2.06154 -3.19814 0
M  V30 2937 H 282.511 0.362635 -3.86402 0
M  V30 2938 H 280.612 2.5468 -2.71972 0
M  V30 2939 H 280.725 1.78853 -4.44464 0
M  V30 2940 H 279.089 1.0399 -2.32504 0
M  V30 2941 H 279.872 -0.217592 -3.4261 0
M  V30 2942 N 282.317 1.53212 0.369288 0
M  V30 2943 C 283.264 1.79388 1.45219 0
M  V30 2944 C 284.234 0.638059 1.53356 0
M  V30 2945 O 285.419 0.879852 1.69302 0
M  V30 2946 C 282.559 1.98623 2.82211 0
M  V30 2947 C 281.672 3.26337 2.8307 0
M  V30 2948 C 280.807 3.35779 4.11614 0
M  V30 2949 C 279.846 4.5754 4.06601 0
M  V30 2950 N 278.983 4.64155 5.26787 0
M  V30 2951 H 283.823 2.71794 1.22198 0
M  V30 2952 H 281.36 1.34642 0.592444 0
M  V30 2953 H 283.318 2.07761 3.61789 0
M  V30 2954 H 281.948 1.09558 3.03639 0
M  V30 2955 H 281 3.26171 1.95747 0
M  V30 2956 H 282.312 4.15988 2.75237 0
M  V30 2957 H 281.466 3.44208 4.99606 0
M  V30 2958 H 280.205 2.44137 4.22195 0
M  V30 2959 H 279.21 4.49215 3.16996 0
M  V30 2960 H 280.435 5.50519 3.97625 0
M  V30 2961 H 278.381 3.75413 5.3796 0
M  V30 2962 H 278.298 5.47706 5.21109 0
M  V30 2963 H 279.566 4.76863 6.16621 0
M  V30 2964 N 283.795 -0.628877 1.44509 0
M  V30 2965 C 285.072 -1.38733 1.37886 0
M  V30 2966 C 285.452 -2.11065 0.0387008 0
M  V30 2967 O 284.8 -2.06476 -0.97878 0
M  V30 2968 C 285.01 -2.35188 2.57852 0
M  V30 2969 C 286.358 -2.9845 3.02014 0
M  V30 2970 O 287.382 -2.45513 2.58073 0
M  V30 2971 O 286.241 -3.94487 3.78209 0
M  V30 2972 H 283.335 -0.621015 0.54614 0
M  V30 2973 H 285.881 -0.653744 1.56602 0
M  V30 2974 H 284.653 -1.80855 3.46998 0
M  V30 2975 H 284.276 -3.1596 2.4136 0
M  V30 2976 N 285.273 -1.31445 -0.869486 0
M  V30 2977 C 286.221 -1.19067 -1.99814 0
M  V30 2978 C 287.215 -0.0988569 -1.69111 0
M  V30 2979 O 288.421 -0.260781 -1.78101 0
M  V30 2980 H 284.796 -0.368677 -0.655425 0
M  V30 2981 H 286.767 -2.14555 -2.07385 0
M  V30 2982 C 285.516 -0.915323 -3.35436 0
M  V30 2983 H 284.839 -1.74759 -3.59582 0
M  V30 2984 H 286.279 -0.868895 -4.15001 0
M  V30 2985 C 284.738 0.381928 -3.34728 0
M  V30 2986 O 285.268 1.39857 -3.76567 0
M  V30 2987 N 283.474 0.398633 -2.87853 0
M  V30 2988 H 283.021 -0.429186 -2.54 0
M  V30 2989 H 282.979 1.26651 -2.87762 0
M  V30 2990 N 286.751 1.08385 -1.14413 0
M  V30 2991 C 287.999 1.80419 -0.910679 0
M  V30 2992 C 288.32 1.86658 0.564243 0
M  V30 2993 O 287.59 1.35985 1.41014 0
M  V30 2994 H 286.17 0.668204 -0.333934 0
M  V30 2995 H 288.832 1.31037 -1.44275 0
M  V30 2996 H 287.928 2.83238 -1.31082 0
M  V30 2997 N 288.23 0.939286 1.26551 0
M  V30 2998 C 289.507 0.5038 1.89001 0
M  V30 2999 C 289.887 -1.01854 1.84903 0
M  V30 3000 O 289.235 -1.87773 1.30206 0
M  V30 3001 C 289.445 1.063 3.32417 0
M  V30 3002 C 290.793 1.13051 4.09273 0
M  V30 3003 O 291.817 1.01345 3.41479 0
M  V30 3004 O 290.676 1.31233 5.30509 0
M  V30 3005 H 287.77 0.163897 0.810597 0
M  V30 3006 H 290.316 1.03173 1.34735 0
M  V30 3007 H 289.088 2.10665 3.29752 0
M  V30 3008 H 288.711 0.517408 3.94219 0
M  V30 3009 N 289.708 -1.40897 0.706093 0
M  V30 3010 C 290.954 -2.01352 0.241889 0
M  V30 3011 C 291.287 -1.55832 -1.15888 0
M  V30 3012 O 290.562 -0.774145 -1.7843 0
M  V30 3013 C 290.845 -3.58752 0.311311 0
M  V30 3014 C 290.698 -4.1437 1.74978 0
M  V30 3015 C 292.017 -4.38914 -0.322922 0
M  V30 3016 H 289.136 -0.731562 0.0893687 0
M  V30 3017 H 291.778 -1.67504 0.896802 0
M  V30 3018 H 289.928 -3.87718 -0.246302 0
M  V30 3019 H 291.6 -3.96239 2.36205 0
M  V30 3020 H 289.843 -3.69016 2.28057 0
M  V30 3021 H 290.514 -5.23532 1.74981 0
M  V30 3022 H 292.99 -4.15822 0.152089 0
M  V30 3023 H 291.866 -5.48358 -0.243855 0
M  V30 3024 H 292.127 -4.19176 -1.40513 0
M  V30 3025 N 291.186 -0.45159 -1.50991 0
M  V30 3026 C 292.426 0.109066 -2.04109 0
M  V30 3027 C 292.79 1.38716 -1.32747 0
M  V30 3028 O 293.991 2.02896 -1.76314 0
M  V30 3029 C 292.262 0.308354 -3.56067 0
M  V30 3030 S 293.821 0.830369 -4.30872 0
M  V30 3031 H 290.639 0.0251531 -0.710555 0
M  V30 3032 H 293.241 -0.614264 -1.85599 0
M  V30 3033 H 291.945 -0.627962 -4.05567 0
M  V30 3034 H 291.476 1.05836 -3.78896 0
M  V30 3035 H 293.491 2.10626 -4.49279 0
M  V30 3036 N 292.664 1.56529 -0.183458 0
M  V30 3037 C 293.596 2.15747 0.773697 0
M  V30 3038 C 294.609 1.1162 1.1851 0
M  V30 3039 O 295.798 1.3876 1.12285 0
M  V30 3040 C 292.898 2.6952 2.05456 0
M  V30 3041 C 292.071 3.98429 1.8048 0
M  V30 3042 C 291.13 4.37145 2.92901 0
M  V30 3043 O 290.156 5.04791 2.6301 0
M  V30 3044 N 291.358 3.99695 4.2098 0
M  V30 3045 H 294.123 2.98505 0.26736 0
M  V30 3046 H 291.684 1.619 -0.0010878 0
M  V30 3047 H 293.676 2.92412 2.79781 0
M  V30 3048 H 292.246 1.91282 2.47245 0
M  V30 3049 H 291.466 3.8379 0.899947 0
M  V30 3050 H 292.754 4.82597 1.61175 0
M  V30 3051 H 292.152 3.4526 4.48121 0
M  V30 3052 H 290.709 4.27562 4.9197 0
M  V30 3053 N 294.142 -0.090211 1.57342 0
M  V30 3054 C 295.419 -0.824761 1.77361 0
M  V30 3055 C 295.799 -1.96698 0.76637 0
M  V30 3056 O 295.147 -2.27586 -0.204179 0
M  V30 3057 C 295.357 -1.31481 3.23286 0
M  V30 3058 C 296.705 -1.75563 3.86604 0
M  V30 3059 O 297.729 -1.41093 3.27065 0
M  V30 3060 O 296.588 -2.39317 4.91314 0
M  V30 3061 H 293.682 -0.393776 0.727234 0
M  V30 3062 H 296.228 -0.0717138 1.69548 0
M  V30 3063 H 295 -0.496671 3.88135 0
M  V30 3064 H 294.623 -2.12973 3.35751 0
M  V30 3065 N 295.62 -1.53406 -0.361157 0
M  V30 3066 C 296.86 -1.71507 -1.11197 0
M  V30 3067 C 297.224 -0.459337 -1.86425 0
M  V30 3068 O 298.425 -0.517102 -2.63779 0
M  V30 3069 C 296.696 -2.93307 -2.0422 0
M  V30 3070 S 298.255 -3.32135 -2.86761 0
M  V30 3071 H 295.073 -0.603448 -0.375995 0
M  V30 3072 H 297.675 -1.91516 -0.392642 0
M  V30 3073 H 296.379 -3.82891 -1.47724 0
M  V30 3074 H 295.91 -2.75712 -2.80618 0
M  V30 3075 H 297.925 -2.84493 -4.06544 0
M  V30 3076 N 297.098 0.621204 -1.44841 0
M  V30 3077 C 298.347 1.37658 -1.47422 0
M  V30 3078 C 298.66 1.95264 -0.114629 0
M  V30 3079 O 299.866 2.71494 -0.0180199 0
M  V30 3080 C 298.322 2.49285 -2.59586 0
M  V30 3081 C 297.93 1.98149 -4.01797 0
M  V30 3082 C 299.674 3.26409 -2.71399 0
M  V30 3083 C 297.581 3.07178 -5.05367 0
M  V30 3084 H 296.511 0.517344 -0.548517 0
M  V30 3085 H 299.162 0.667257 -1.70938 0
M  V30 3086 H 297.544 3.22839 -2.29328 0
M  V30 3087 H 298.718 1.31395 -4.41669 0
M  V30 3088 H 297.033 1.33812 -3.94314 0
M  V30 3089 H 299.63 4.07706 -3.45948 0
M  V30 3090 H 299.973 3.76535 -1.77559 0
M  V30 3091 H 300.506 2.5995 -3.01116 0
M  V30 3092 H 297.245 2.61985 -6.00869 0
M  V30 3093 H 296.765 3.72542 -4.70077 0
M  V30 3094 H 298.444 3.71789 -5.29511 0
M  V30 3095 N 298.576 1.31904 0.862503 0
M  V30 3096 C 299.508 1.16005 1.97675 0
M  V30 3097 C 300.521 0.0971234 1.6251 0
M  V30 3098 O 301.71 0.345337 1.75128 0
M  V30 3099 C 298.81 0.751791 3.30456 0
M  V30 3100 C 297.983 1.90133 3.93914 0
M  V30 3101 C 297.042 1.4779 5.05019 0
M  V30 3102 O 296.068 2.18872 5.25437 0
M  V30 3103 N 297.27 0.369491 5.79323 0
M  V30 3104 H 300.035 2.11982 2.11857 0
M  V30 3105 H 297.596 1.24337 1.03691 0
M  V30 3106 H 299.588 0.451084 4.02178 0
M  V30 3107 H 298.158 -0.116593 3.12382 0
M  V30 3108 H 297.378 2.36896 3.15078 0
M  V30 3109 H 298.666 2.67111 4.33047 0
M  V30 3110 H 298.064 -0.222299 5.65263 0
M  V30 3111 H 296.621 0.128354 6.51674 0
M  V30 3112 N 300.054 -1.07777 1.14986 0
M  V30 3113 C 300.987 -2.14228 0.786243 0
M  V30 3114 C 301.965 -1.60888 -0.235347 0
M  V30 3115 O 303.149 -1.88099 -0.122909 0
M  V30 3116 C 300.276 -3.38281 0.168433 0
M  V30 3117 C 299.322 -4.10387 1.16123 0
M  V30 3118 S 300.155 -4.62371 2.70135 0
M  V30 3119 C 301.311 -5.89704 2.09762 0
M  V30 3120 H 301.544 -2.44741 1.68787 0
M  V30 3121 H 299.077 -1.19984 0.971756 0
M  V30 3122 H 301.035 -4.10098 -0.181588 0
M  V30 3123 H 299.696 -3.05953 -0.710725 0
M  V30 3124 H 298.889 -4.99431 0.677086 0
M  V30 3125 H 298.491 -3.44513 1.45556 0
M  V30 3126 H 300.783 -6.61648 1.45701 0
M  V30 3127 H 301.726 -6.42824 2.96955 0
M  V30 3128 H 302.134 -5.4302 1.54239 0
M  V30 3129 N 301.532 -0.945985 -1.26051 0
M  V30 3130 C 302.778 -0.597002 -1.93814 0
M  V30 3131 C 303.111 0.862484 -1.73997 0
M  V30 3132 O 302.386 1.61769 -1.07986 0
M  V30 3133 C 302.669 -0.945937 -3.47454 0
M  V30 3134 C 302.522 -2.46052 -3.76535 0
M  V30 3135 C 303.841 -0.464785 -4.37639 0
M  V30 3136 H 300.96 -0.218366 -0.703907 0
M  V30 3137 H 303.602 -1.18107 -1.48831 0
M  V30 3138 H 301.752 -0.448902 -3.85898 0
M  V30 3139 H 303.424 -3.03065 -3.47778 0
M  V30 3140 H 301.667 -2.90194 -3.22444 0
M  V30 3141 H 302.338 -2.65517 -4.83947 0
M  V30 3142 H 304.814 -0.891016 -4.06448 0
M  V30 3143 H 303.69 -0.737712 -5.4392 0
M  V30 3144 H 303.951 0.635274 -4.37512 0
M  V30 3145 N 303.011 1.40521 -0.713556 0
M  V30 3146 C 304.239 2.05237 -0.261775 0
M  V30 3147 C 304.654 1.53755 1.09567 0
M  V30 3148 O 304.011 0.693268 1.6882 0
M  V30 3149 C 304.062 3.60763 -0.230706 0
M  V30 3150 O 303.783 4.10345 -1.53455 0
M  V30 3151 C 305.284 4.42651 0.239874 0
M  V30 3152 H 302.504 0.660533 -0.118057 0
M  V30 3153 H 305.048 1.79967 -0.971192 0
M  V30 3154 H 303.203 3.8501 0.429661 0
M  V30 3155 H 303.617 5.04526 -1.43366 0
M  V30 3156 H 305.091 5.51599 0.210468 0
M  V30 3157 H 305.568 4.20082 1.28171 0
M  V30 3158 H 306.174 4.23507 -0.390142 0
M  V30 3159 N 304.489 0.459591 1.5075 0
M  V30 3160 C 305.766 -0.160371 1.94941 0
M  V30 3161 C 306.146 -1.58048 1.39943 0
M  V30 3162 O 305.494 -2.206 0.595629 0
M  V30 3163 C 305.704 -0.115432 3.48809 0
M  V30 3164 C 307.052 -0.310026 4.23467 0
M  V30 3165 O 308.076 -0.192543 3.55679 0
M  V30 3166 O 306.935 -0.546031 5.43765 0
M  V30 3167 H 304.029 -0.117925 0.818549 0
M  V30 3168 H 306.575 0.519169 1.61563 0
M  V30 3169 H 305.347 0.87652 3.81357 0
M  V30 3170 H 304.97 -0.836928 3.88692 0
M  V30 3171 N 305.967 -1.56429 0.191757 0
M  V30 3172 C 307.216 -1.9666 -0.448088 0
M  V30 3173 C 307.529 -1.08136 -1.62991 0
M  V30 3174 O 308.735 -1.38135 -2.33733 0
M  V30 3175 C 307.191 -3.49753 -0.848585 0
M  V30 3176 C 306.799 -4.46935 0.308764 0
M  V30 3177 C 308.543 -3.9876 -1.4557 0
M  V30 3178 C 306.45 -5.91293 -0.112506 0
M  V30 3179 H 305.38 -0.734312 -0.171179 0
M  V30 3180 H 308.031 -1.81301 0.283242 0
M  V30 3181 H 306.413 -3.60604 -1.63649 0
M  V30 3182 H 307.587 -4.47813 1.08627 0
M  V30 3183 H 305.902 -4.08102 0.827158 0
M  V30 3184 H 308.499 -5.04086 -1.78328 0
M  V30 3185 H 308.842 -3.42875 -2.36099 0
M  V30 3186 H 309.375 -3.9101 -0.731836 0
M  V30 3187 H 306.114 -6.51097 0.758514 0
M  V30 3188 H 305.634 -5.93676 -0.854941 0
M  V30 3189 H 307.313 -6.44663 -0.549448 0
M  V30 3190 N 307.445 0.0818655 -1.57387 0
M  V30 3191 C 308.377 1.12484 -1.997 0
M  V30 3192 C 309.39 1.35564 -0.90146 0
M  V30 3193 O 310.579 1.33982 -1.17945 0
M  V30 3194 C 307.679 2.47778 -2.31213 0
M  V30 3195 C 306.852 2.44793 -3.62485 0
M  V30 3196 C 305.911 3.62117 -3.81782 0
M  V30 3197 O 304.937 3.44005 -4.53486 0
M  V30 3198 N 306.139 4.82094 -3.23367 0
M  V30 3199 H 308.904 0.764585 -2.89783 0
M  V30 3200 H 306.465 0.270664 -1.59621 0
M  V30 3201 H 308.457 3.24891 -2.41304 0
M  V30 3202 H 307.027 2.75843 -1.4707 0
M  V30 3203 H 306.247 1.53134 -3.6324 0
M  V30 3204 H 307.535 2.39889 -4.48699 0
M  V30 3205 H 306.933 4.99713 -2.65148 0
M  V30 3206 H 305.49 5.56753 -3.38923 0
M  V30 3207 N 308.923 1.53595 0.353017 0
M  V30 3208 C 310.151 1.74311 1.1146 0
M  V30 3209 C 310.566 0.477854 1.82653 0
M  V30 3210 O 309.923 -0.549977 1.74016 0
M  V30 3211 C 309.974 2.91694 2.13534 0
M  V30 3212 O 309.695 4.13325 1.45238 0
M  V30 3213 C 311.196 3.24384 3.02142 0
M  V30 3214 H 308.416 0.582669 0.332773 0
M  V30 3215 H 310.96 2.00386 0.408107 0
M  V30 3216 H 309.115 2.67977 2.79763 0
M  V30 3217 H 309.529 4.79148 2.13349 0
M  V30 3218 H 311.003 4.09893 3.69718 0
M  V30 3219 H 311.48 2.40282 3.67643 0
M  V30 3220 H 312.086 3.50073 2.41514 0
M  V30 3221 N 310.401 -0.613514 1.45168 0
M  V30 3222 C 311.364 -1.7065 1.53007 0
M  V30 3223 C 312.364 -1.5548 0.410184 0
M  V30 3224 O 313.554 -1.60656 0.673455 0
M  V30 3225 C 310.686 -3.09875 1.42093 0
M  V30 3226 H 311.879 -1.65068 2.50385 0
M  V30 3227 H 309.432 -0.828728 1.32521 0
M  V30 3228 H 310.167 -3.21039 0.458769 0
M  V30 3229 H 309.952 -3.22293 2.23315 0
M  V30 3230 H 311.442 -3.895 1.50598 0
M  V30 3231 N 311.879 -1.3236 -0.855495 0
M  V30 3232 C 313.125 -1.23054 -1.612 0
M  V30 3233 C 313.458 0.207404 -1.93089 0
M  V30 3234 O 312.733 1.14432 -1.57275 0
M  V30 3235 C 313.016 -2.08937 -2.93287 0
M  V30 3236 C 312.869 -3.61105 -2.68185 0
M  V30 3237 C 314.188 -1.94986 -3.94549 0
M  V30 3238 H 311.307 -0.448364 -0.584926 0
M  V30 3239 H 313.949 -1.62297 -0.987917 0
M  V30 3240 H 312.099 -1.75599 -3.46551 0
M  V30 3241 H 313.771 -4.04652 -2.21483 0
M  V30 3242 H 312.014 -3.83813 -2.02164 0
M  V30 3243 H 312.685 -4.16522 -3.62234 0
M  V30 3244 H 315.161 -2.24189 -3.5054 0
M  V30 3245 H 314.037 -2.57356 -4.84829 0
M  V30 3246 H 314.298 -0.917263 -4.3248 0
M  V30 3247 N 313.357 1.07166 -1.15556 0
M  V30 3248 C 314.773 1.31899 -0.898603 0
M  V30 3249 C 314.973 1.96333 0.453383 0
M  V30 3250 O 314.029 2.22438 1.19489 0
M  V30 3251 C 315.342 2.20826 -2.04099 0
M  V30 3252 C 316.89 2.34269 -2.07574 0
M  V30 3253 C 317.365 3.26546 -3.21141 0
M  V30 3254 N 318.856 3.34127 -3.20801 0
M  V30 3255 C 319.591 4.05595 -4.05315 0
M  V30 3256 N 319.087 4.79661 -4.99897 0
M  V30 3257 N 320.88 4.01555 -3.93332 0
M  V30 3258 H 313.031 0.637302 -2.02613 0
M  V30 3259 H 315.294 0.343468 -0.883591 0
M  V30 3260 H 315 1.80744 -3.01703 0
M  V30 3261 H 314.874 3.21364 -1.97496 0
M  V30 3262 H 317.261 2.73603 -1.10568 0
M  V30 3263 H 317.342 1.33429 -2.18244 0
M  V30 3264 H 316.986 2.87931 -4.184 0
M  V30 3265 H 316.916 4.27345 -3.07708 0
M  V30 3266 H 319.407 2.81336 -2.52306 0
M  V30 3267 H 319.72 5.31694 -5.60822 0
M  V30 3268 H 318.065 4.78671 -5.03884 0
M  V30 3269 H 321.256 3.42806 -3.18751 0
M  V30 3270 H 321.429 4.56987 -4.5942 0
M  V30 3271 N 314.835 0.952656 1.25548 0
M  V30 3272 C 316.063 0.623496 1.97282 0
M  V30 3273 C 316.478 -0.803987 1.70826 0
M  V30 3274 O 315.835 -1.53755 0.983147 0
M  V30 3275 C 315.886 0.870209 3.5087 0
M  V30 3276 O 315.607 2.24156 3.76412 0
M  V30 3277 C 317.108 0.553164 4.39835 0
M  V30 3278 H 314.328 0.233931 0.628902 0
M  V30 3279 H 316.872 1.27649 1.59768 0
M  V30 3280 H 315.027 0.263652 3.86502 0
M  V30 3281 H 315.441 2.31021 4.70882 0
M  V30 3282 H 316.915 0.776342 5.46513 0
M  V30 3283 H 317.392 -0.512215 4.36203 0
M  V30 3284 H 317.998 1.13896 4.09766 0
M  V30 3285 N 316.313 -1.40141 0.720998 0
M  V30 3286 C 317.261 -2.3252 0.0608547 0
M  V30 3287 C 318.255 -1.52326 -0.741152 0
M  V30 3288 O 319.461 -1.68089 -0.643911 0
M  V30 3289 H 315.836 -0.751999 0.000876664 0
M  V30 3290 H 317.807 -2.8584 0.856614 0
M  V30 3291 C 316.556 -3.37331 -0.842809 0
M  V30 3292 H 315.879 -3.99108 -0.235084 0
M  V30 3293 H 317.319 -4.04452 -1.27257 0
M  V30 3294 C 315.778 -2.73246 -1.97074 0
M  V30 3295 O 316.308 -2.59998 -3.06209 0
M  V30 3296 N 314.514 -2.31547 -1.75597 0
M  V30 3297 H 314.061 -2.42522 -0.868368 0
M  V30 3298 H 314.019 -1.89007 -2.51244 0
M  V30 3299 N 317.792 -0.46758 -1.50504 0
M  V30 3300 C 319.017 0.0886943 -2.0721 0
M  V30 3301 C 319.442 1.33057 -1.32956 0
M  V30 3302 O 318.8 1.77354 -0.376197 0
M  V30 3303 C 318.848 0.359202 -3.58806 0
M  V30 3304 O 317.952 1.44034 -3.8643 0
M  V30 3305 H 317.293 -0.0114349 -0.663902 0
M  V30 3306 H 319.823 -0.657613 -1.93744 0
M  V30 3307 H 319.833 0.600742 -4.03553 0
M  V30 3308 H 318.508 -0.548311 -4.1227 0
M  V30 3309 H 317.085 1.18638 -3.53524 0
M  V30 3310 N 319.27 1.56325 -0.20005 0
M  V30 3311 C 320.498 2.02105 0.442874 0
M  V30 3312 C 320.913 1.08014 1.5485 0
M  V30 3313 O 320.27 0.0858797 1.82298 0
M  V30 3314 C 320.321 3.47549 0.994583 0
M  V30 3315 O 320.042 4.38049 -0.0669322 0
M  V30 3316 C 321.543 4.0887 1.7129 0
M  V30 3317 H 318.763 0.661807 0.110691 0
M  V30 3318 H 321.307 2.02134 -0.310207 0
M  V30 3319 H 319.462 3.48204 1.69803 0
M  V30 3320 H 319.876 5.23368 0.344462 0
M  V30 3321 H 321.35 5.12475 2.05118 0
M  V30 3322 H 321.827 3.52615 2.61838 0
M  V30 3323 H 322.433 4.12002 1.05518 0
M  V30 3324 N 320.748 -0.0735177 1.57428 0
M  V30 3325 C 321.995 -0.772999 1.87166 0
M  V30 3326 C 322.323 -1.77665 0.791551 0
M  V30 3327 O 321.578 -1.94541 -0.212636 0
M  V30 3328 C 321.877 -1.51799 3.23561 0
M  V30 3329 C 321.543 -0.654484 4.46125 0
M  V30 3330 C 320.205 -0.416511 4.79394 0
M  V30 3331 C 322.557 -0.0555862 5.2117 0
M  V30 3332 C 319.885 0.429869 5.85123 0
M  V30 3333 C 322.237 0.778239 6.27795 0
M  V30 3334 C 320.901 1.0261 6.59566 0
M  V30 3335 H 320.171 -0.282861 0.684888 0
M  V30 3336 H 322.818 -0.0338272 1.9147 0
M  V30 3337 H 321.123 -2.32932 3.1504 0
M  V30 3338 H 322.82 -2.06397 3.43804 0
M  V30 3339 H 319.41 -0.850091 4.20085 0
M  V30 3340 H 323.594 -0.226558 4.95783 0
M  V30 3341 H 318.85 0.630665 6.08139 0
M  V30 3342 H 323.024 1.24906 6.85107 0
M  V30 3343 H 320.651 1.68371 7.4132 0
M  V30 3344 N 322.226 -1.5378 -0.344866 0
M  V30 3345 C 323.472 -1.71216 -1.08687 0
M  V30 3346 C 323.805 -0.473281 -1.88345 0
M  V30 3347 O 323.08 0.52968 -1.87149 0
M  V30 3348 C 323.363 -2.97486 -2.02914 0
M  V30 3349 C 323.216 -4.31579 -1.26727 0
M  V30 3350 C 324.535 -3.19422 -3.0275 0
M  V30 3351 H 321.654 -0.62301 -0.393735 0
M  V30 3352 H 324.296 -1.8645 -0.365563 0
M  V30 3353 H 322.446 -2.84629 -2.64421 0
M  V30 3354 H 324.118 -4.56284 -0.67845 0
M  V30 3355 H 322.361 -4.30049 -0.569273 0
M  V30 3356 H 323.032 -5.16106 -1.95803 0
M  V30 3357 H 325.508 -3.316 -2.51357 0
M  V30 3358 H 324.384 -4.09169 -3.65885 0
M  V30 3359 H 324.645 -2.35656 -3.74057 0
M  V30 3360 N 323.704 0.605807 -1.45491 0
M  V30 3361 C 324.636 1.73031 -1.5031 0
M  V30 3362 C 325.649 1.57968 -0.393687 0
M  V30 3363 O 326.838 1.65817 -0.660839 0
M  V30 3364 C 323.938 3.11049 -1.34543 0
M  V30 3365 C 323.111 3.52334 -2.59189 0
M  V30 3366 C 322.17 4.69323 -2.37954 0
M  V30 3367 O 321.196 4.7635 -3.11575 0
M  V30 3368 N 322.398 5.62705 -1.4263 0
M  V30 3369 H 325.163 1.6936 -2.4726 0
M  V30 3370 H 322.724 0.79114 -1.41254 0
M  V30 3371 H 324.716 3.87071 -1.18144 0
M  V30 3372 H 323.286 3.09217 -0.458623 0
M  V30 3373 H 322.506 2.66256 -2.90691 0
M  V30 3374 H 323.794 3.76677 -3.42041 0
M  V30 3375 H 323.192 5.59744 -0.818758 0
M  V30 3376 H 321.749 6.38252 -1.32202 0
M  V30 3377 N 325.182 1.32811 0.848464 0
M  V30 3378 C 326.145 1.22194 1.9391 0
M  V30 3379 C 327.145 0.143404 1.60159 0
M  V30 3380 O 328.335 0.394253 1.6968 0
M  V30 3381 C 325.467 0.88067 3.29328 0
M  V30 3382 H 326.66 2.19127 2.04752 0
M  V30 3383 H 324.213 1.16731 1.0394 0
M  V30 3384 H 324.948 -0.0865776 3.24184 0
M  V30 3385 H 324.733 1.66052 3.55203 0
M  V30 3386 H 326.223 0.830871 4.09251 0
M  V30 3387 N 326.66 -1.06551 1.16123 0
M  V30 3388 C 327.59 -2.15935 0.88851 0
M  V30 3389 C 328.571 -1.69306 -0.164135 0
M  V30 3390 O 329.756 -1.94193 -0.0167857 0
M  V30 3391 C 326.886 -3.45149 0.385942 0
M  V30 3392 C 325.84 -4.05271 1.3762 0
M  V30 3393 C 325.166 -5.29664 0.732137 0
M  V30 3394 C 326.466 -4.44355 2.74493 0
M  V30 3395 H 328.16 -2.39006 1.80323 0
M  V30 3396 H 325.706 -1.14866 0.868435 0
M  V30 3397 H 327.659 -4.21004 0.182647 0
M  V30 3398 H 326.383 -3.21689 -0.564274 0
M  V30 3399 H 325.042 -3.3147 1.56599 0
M  V30 3400 H 324.69 -5.02499 -0.224483 0
M  V30 3401 H 324.39 -5.70848 1.39307 0
M  V30 3402 H 325.914 -6.08218 0.538802 0
M  V30 3403 H 327.328 -5.11303 2.59311 0
M  V30 3404 H 325.725 -4.96515 3.37035 0
M  V30 3405 H 326.795 -3.55339 3.29943 0
M  V30 3406 N 328.138 -0.959301 -1.25041 0
M  V30 3407 C 329.384 -0.617525 -1.9317 0
M  V30 3408 C 329.717 0.843981 -1.74902 0
M  V30 3409 O 328.992 1.60615 -1.09696 0
M  V30 3410 C 329.275 -0.982736 -3.46431 0
M  V30 3411 C 329.128 -2.50032 -3.73904 0
M  V30 3412 C 330.447 -0.511176 -4.37121 0
M  V30 3413 H 327.566 -0.22582 -0.701552 0
M  V30 3414 H 330.208 -1.19679 -1.4757 0
M  V30 3415 H 328.358 -0.489806 -3.854 0
M  V30 3416 H 330.03 -3.06737 -3.44544 0
M  V30 3417 H 328.273 -2.93598 -3.19348 0
M  V30 3418 H 328.944 -2.70635 -4.81103 0
M  V30 3419 H 331.42 -0.934075 -4.0548 0
M  V30 3420 H 330.296 -0.795361 -5.43107 0
M  V30 3421 H 330.557 0.588834 -4.38161 0
M  V30 3422 N 329.616 1.39756 -0.72842 0
M  V30 3423 C 330.526 2.34444 -0.0855374 0
M  V30 3424 C 331.542 1.57976 0.729356 0
M  V30 3425 O 332.718 1.90301 0.659346 0
M  V30 3426 C 329.783 3.36965 0.815798 0
M  V30 3427 C 328.844 4.29299 -0.0105996 0
M  V30 3428 C 328.077 5.26923 0.84781 0
M  V30 3429 O 328.3 5.30859 2.08673 0
M  V30 3430 O 327.234 6.01249 0.279969 0
M  V30 3431 H 331.06 2.91065 -0.866892 0
M  V30 3432 H 328.645 1.4117 -0.48902 0
M  V30 3433 H 330.527 3.99804 1.33171 0
M  V30 3434 H 329.202 2.82739 1.57608 0
M  V30 3435 H 328.109 3.69703 -0.571877 0
M  V30 3436 H 329.442 4.86712 -0.73295 0
M  V30 3437 N 331.094 0.475555 1.50254 0
M  V30 3438 C 332.044 -0.335025 2.25525 0
M  V30 3439 C 333.028 -0.957625 1.29299 0
M  V30 3440 O 334.22 -0.869436 1.54175 0
M  V30 3441 C 331.349 -1.41385 3.12834 0
M  V30 3442 C 330.435 -0.798762 4.1651 0
M  V30 3443 N 330.826 0.0835815 5.05731 0
M  V30 3444 C 329.124 -1.06221 4.33166 0
M  V30 3445 C 329.825 0.433113 5.80085 0
M  V30 3446 N 328.801 -0.1928 5.43258 0
M  V30 3447 H 332.603 0.344612 2.91873 0
M  V30 3448 H 330.117 0.289986 1.5979 0
M  V30 3449 H 332.114 -2.00777 3.65368 0
M  V30 3450 H 330.774 -2.09543 2.48036 0
M  V30 3451 H 331.785 0.452715 5.15918 0
M  V30 3452 H 328.462 -1.73844 3.79585 0
M  V30 3453 H 329.852 1.15346 6.61925 0
M  V30 3454 N 332.573 -1.56217 0.208337 0
M  V30 3455 C 333.819 -1.98242 -0.427552 0
M  V30 3456 C 334.152 -1.09554 -1.60348 0
M  V30 3457 O 333.427 -0.15035 -1.93918 0
M  V30 3458 C 333.71 -3.4931 -0.874907 0
M  V30 3459 C 333.563 -4.48773 0.303751 0
M  V30 3460 C 334.882 -4.04424 -1.73577 0
M  V30 3461 H 332.001 -0.720744 -0.153936 0
M  V30 3462 H 334.643 -1.87586 0.30192 0
M  V30 3463 H 332.793 -3.58522 -1.49648 0
M  V30 3464 H 334.465 -4.51586 0.941682 0
M  V30 3465 H 332.708 -4.23194 0.953375 0
M  V30 3466 H 333.379 -5.51976 -0.0519883 0
M  V30 3467 H 335.855 -3.98075 -1.21143 0
M  V30 3468 H 334.731 -5.1047 -2.01771 0
M  V30 3469 H 334.992 -3.50494 -2.69456 0
M  V30 3470 N 334.051 0.0651679 -1.57465 0
M  V30 3471 C 334.998 1.07675 -2.04144 0
M  V30 3472 C 335.968 1.38071 -0.923335 0
M  V30 3473 O 337.153 1.49026 -1.19146 0
M  V30 3474 C 334.293 2.38337 -2.49579 0
M  V30 3475 C 333.406 2.14413 -3.75035 0
M  V30 3476 C 332.541 3.38686 -4.09225 0
M  V30 3477 C 331.58 3.10156 -5.27702 0
M  V30 3478 N 330.717 4.26778 -5.57499 0
M  V30 3479 H 335.557 0.671716 -2.90331 0
M  V30 3480 H 333.094 0.3201 -1.43575 0
M  V30 3481 H 335.052 3.14632 -2.73975 0
M  V30 3482 H 333.682 2.7663 -1.6636 0
M  V30 3483 H 332.734 1.2878 -3.57939 0
M  V30 3484 H 334.046 1.89344 -4.61466 0
M  V30 3485 H 333.2 4.23373 -4.34558 0
M  V30 3486 H 331.939 3.66837 -3.21374 0
M  V30 3487 H 330.944 2.23866 -5.02159 0
M  V30 3488 H 332.169 2.8332 -6.17176 0
M  V30 3489 H 330.115 4.54948 -4.72608 0
M  V30 3490 H 330.032 4.05005 -6.38362 0
M  V30 3491 H 331.3 5.12443 -5.87386 0
M  V30 3492 N 335.529 1.53961 0.336706 0
M  V30 3493 C 336.439 1.85432 1.43708 0
M  V30 3494 C 337.455 0.745053 1.57242 0
M  V30 3495 O 338.631 1.03804 1.72588 0
M  V30 3496 C 335.696 2.06349 2.78605 0
M  V30 3497 C 334.757 3.30191 2.74358 0
M  V30 3498 C 333.99 3.50101 4.02822 0
M  V30 3499 O 334.213 2.7371 5.00439 0
M  V30 3500 O 333.147 4.43547 4.06878 0
M  V30 3501 H 336.973 2.78975 1.20028 0
M  V30 3502 H 334.558 1.39701 0.52952 0
M  V30 3503 H 336.44 2.21513 3.58483 0
M  V30 3504 H 335.115 1.15995 3.02203 0
M  V30 3505 H 334.022 3.20425 1.93078 0
M  V30 3506 H 335.355 4.2056 2.55715 0
M  V30 3507 N 337.007 -0.598083 1.45811 0
M  V30 3508 C 337.917 -1.73632 1.57763 0
M  V30 3509 C 338.933 -1.67763 0.461676 0
M  V30 3510 O 340.109 -1.87949 0.723685 0
M  V30 3511 C 337.174 -3.10114 1.55018 0
M  V30 3512 C 336.235 -3.27364 2.77726 0
M  V30 3513 C 335.468 -4.57334 2.75102 0
M  V30 3514 O 335.691 -5.40258 1.8297 0
M  V30 3515 O 334.625 -4.77502 3.66437 0
M  V30 3516 H 338.451 -1.66498 2.53992 0
M  V30 3517 H 336.036 -0.763308 1.28429 0
M  V30 3518 H 337.918 -3.9141 1.56129 0
M  V30 3519 H 336.593 -3.17718 0.619431 0
M  V30 3520 H 335.5 -2.45619 2.82174 0
M  V30 3521 H 336.833 -3.24641 3.69958 0
M  V30 3522 N 338.485 -1.33259 -0.841409 0
M  V30 3523 C 339.725 -1.25902 -1.61022 0
M  V30 3524 C 340.089 0.173325 -1.91216 0
M  V30 3525 O 341.29 0.370824 -2.6623 0
M  V30 3526 C 339.561 -2.10735 -2.88662 0
M  V30 3527 S 341.12 -2.20541 -3.79351 0
M  V30 3528 H 337.938 -0.447958 -0.552137 0
M  V30 3529 H 340.54 -1.68263 -0.995382 0
M  V30 3530 H 339.244 -3.1384 -2.64448 0
M  V30 3531 H 338.775 -1.69201 -3.55154 0
M  V30 3532 H 340.79 -1.36462 -4.77067 0
M  V30 3533 N 339.963 1.05934 -1.16686 0
M  V30 3534 C 341.24 1.75643 -0.860747 0
M  V30 3535 C 341.62 2.01144 0.640641 0
M  V30 3536 O 340.968 1.64147 1.58959 0
M  V30 3537 C 341.178 3.05493 -1.68745 0
M  V30 3538 C 342.526 3.79581 -1.90271 0
M  V30 3539 O 343.55 3.15344 -1.65641 0
M  V30 3540 O 342.409 4.9499 -2.31618 0
M  V30 3541 H 339.503 0.763426 -0.317977 0
M  V30 3542 H 342.049 1.1217 -1.27342 0
M  V30 3543 H 340.821 2.8264 -2.70611 0
M  V30 3544 H 340.444 3.76702 -1.27206 0
M  V30 3545 N 341.441 0.965919 1.2453 0
M  V30 3546 C 342.857 0.67216 1.44756 0
M  V30 3547 C 343.057 -0.766609 1.86347 0
M  V30 3548 O 342.113 -1.5407 2.00047 0
M  V30 3549 C 343.426 1.65473 2.51076 0
M  V30 3550 C 344.974 1.66716 2.64905 0
M  V30 3551 C 345.449 2.63766 3.74421 0
M  V30 3552 N 346.94 2.62198 3.81846 0
M  V30 3553 C 347.675 3.33966 4.66106 0
M  V30 3554 N 347.171 4.15245 5.54566 0
M  V30 3555 N 348.964 3.22799 4.60171 0
M  V30 3556 H 341.115 1.89553 0.958293 0
M  V30 3557 H 343.378 0.815979 0.482579 0
M  V30 3558 H 343.084 2.68296 2.27399 0
M  V30 3559 H 342.958 1.4261 3.49202 0
M  V30 3560 H 345.345 0.646057 2.87941 0
M  V30 3561 H 345.426 1.93642 1.67142 0
M  V30 3562 H 345.07 3.6601 3.52135 0
M  V30 3563 H 345 2.34121 4.71694 0
M  V30 3564 H 347.491 2.032 3.18619 0
M  V30 3565 H 347.804 4.66898 6.15814 0
M  V30 3566 H 346.149 4.1934 5.54237 0
M  V30 3567 H 349.34 2.58764 3.90075 0
M  V30 3568 H 349.513 3.78994 5.25612 0
M  V30 3569 N 342.919 -1.39368 0.735821 0
M  V30 3570 C 343.849 -2.33234 0.111506 0
M  V30 3571 C 344.83 -1.53954 -0.723334 0
M  V30 3572 O 346.015 -1.82344 -0.668147 0
M  V30 3573 C 343.145 -3.38057 -0.795917 0
M  V30 3574 C 342.099 -4.2795 -0.065172 0
M  V30 3575 C 341.425 -5.23479 -1.08967 0
M  V30 3576 C 342.725 -5.10741 1.09273 0
M  V30 3577 H 344.419 -2.85692 0.895571 0
M  V30 3578 H 341.965 -1.37364 0.432109 0
M  V30 3579 H 343.918 -4.02675 -1.24221 0
M  V30 3580 H 342.642 -2.8404 -1.61211 0
M  V30 3581 H 341.301 -3.64813 0.361511 0
M  V30 3582 H 340.949 -4.65758 -1.89944 0
M  V30 3583 H 340.649 -5.84472 -0.605489 0
M  V30 3584 H 342.173 -5.90974 -1.53565 0
M  V30 3585 H 343.587 -5.68699 0.724841 0
M  V30 3586 H 341.984 -5.8088 1.50659 0
M  V30 3587 H 343.054 -4.45525 1.91404 0
M  V30 3588 N 344.397 -0.483516 -1.5 0
M  V30 3589 C 345.645 0.067027 -2.01989 0
M  V30 3590 C 345.966 1.3909 -1.36671 0
M  V30 3591 O 345.236 1.88978 -0.516152 0
M  V30 3592 H 343.816 0.0277606 -0.746484 0
M  V30 3593 H 346.478 -0.636773 -1.84204 0
M  V30 3594 H 345.574 0.209484 -3.11396 0
M  V30 3595 N 345.875 1.56104 -0.216619 0
M  V30 3596 C 347.286 1.844 0.292128 0
M  V30 3597 C 347.637 1.13788 1.59833 0
M  V30 3598 O 346.762 0.405888 2.12559 0
M  V30 3599 C 347.357 3.3452 0.53681 0
M  V30 3600 C 345.916 3.63151 0.989876 0
M  V30 3601 C 345.063 2.77255 0.0502302 0
M  V30 3602 H 348.014 1.52481 -0.439926 0
M  V30 3603 H 348.035 3.54459 1.38345 0
M  V30 3604 H 347.547 3.85885 -0.414031 0
M  V30 3605 H 345.648 3.17238 1.95425 0
M  V30 3606 H 345.761 4.71177 0.867698 0
M  V30 3607 H 344.125 2.48555 0.556117 0
M  V30 3608 H 344.908 3.31416 -0.89544 0
M  V30 3609 N 347.353 -0.0568162 1.57498 0
M  V30 3610 C 348.601 -0.751617 1.87604 0
M  V30 3611 C 348.922 -1.77351 0.81066 0
M  V30 3612 O 348.192 -1.95254 -0.159018 0
M  V30 3613 H 346.772 -0.280583 0.692302 0
M  V30 3614 H 349.434 -0.0293483 1.94878 0
M  V30 3615 H 348.53 -1.25852 2.856 0
M  V30 3616 N 348.832 -1.54138 -0.328536 0
M  V30 3617 C 349.765 -1.78014 -1.4278 0
M  V30 3618 C 350.743 -0.629889 -1.49904 0
M  V30 3619 O 351.927 -0.866763 -1.6739 0
M  V30 3620 C 349.054 -1.89225 -2.80912 0
M  V30 3621 C 348.1 -3.11483 -2.91343 0
M  V30 3622 S 348.933 -4.70201 -2.56263 0
M  V30 3623 C 350.089 -4.84312 -3.96476 0
M  V30 3624 H 350.322 -2.70974 -1.22313 0
M  V30 3625 H 347.855 -1.45197 -0.525084 0
M  V30 3626 H 349.813 -1.9637 -3.60485 0
M  V30 3627 H 348.474 -0.972518 -2.98665 0
M  V30 3628 H 347.667 -3.16046 -3.92595 0
M  V30 3629 H 347.269 -3.02642 -2.19736 0
M  V30 3630 H 349.561 -4.66643 -4.91173 0
M  V30 3631 H 350.504 -5.86411 -3.96898 0
M  V30 3632 H 350.912 -4.12652 -3.85199 0
M  V30 3633 N 350.31 0.590341 -1.46126 0
M  V30 3634 C 351.273 1.68194 -1.55703 0
M  V30 3635 C 352.273 1.54808 -0.434868 0
M  V30 3636 O 353.463 1.59564 -0.698928 0
M  V30 3637 C 350.595 3.07575 -1.47005 0
M  V30 3638 H 351.788 1.61064 -2.52979 0
M  V30 3639 H 349.341 0.807541 -1.33823 0
M  V30 3640 H 350.076 3.20268 -0.509785 0
M  V30 3641 H 349.861 3.187 -2.28414 0
M  V30 3642 H 351.351 3.87055 -1.56776 0
M  V30 3643 N 351.788 1.33704 0.83433 0
M  V30 3644 C 353.065 1.16011 1.57483 0
M  V30 3645 C 353.445 -0.27176 2.09343 0
M  V30 3646 O 352.793 -1.27146 1.89858 0
M  V30 3647 C 353.003 2.20507 2.70514 0
M  V30 3648 C 354.351 2.54898 3.39577 0
M  V30 3649 O 355.375 2.19209 2.80759 0
M  V30 3650 O 354.234 3.16158 4.45765 0
M  V30 3651 H 351.328 0.448992 0.694503 0
M  V30 3652 H 353.874 1.453 0.876691 0
M  V30 3653 H 352.646 3.16667 2.29865 0
M  V30 3654 H 352.269 1.92329 3.47987 0
M  V30 3655 N 353.266 -1.05314 1.17247 0
M  V30 3656 C 354.515 -1.77685 0.954521 0
M  V30 3657 C 354.828 -1.88616 -0.518025 0
M  V30 3658 O 356.034 -2.57714 -0.854144 0
M  V30 3659 C 354.49 -3.19402 1.65863 0
M  V30 3660 C 354.098 -3.16605 3.16963 0
M  V30 3661 C 355.842 -3.96237 1.52303 0
M  V30 3662 C 353.749 -4.53103 3.80068 0
M  V30 3663 H 352.679 -0.666 0.353496 0
M  V30 3664 H 355.33 -1.1805 1.40486 0
M  V30 3665 H 353.712 -3.79355 1.13602 0
M  V30 3666 H 354.886 -2.66176 3.76148 0
M  V30 3667 H 353.201 -2.53268 3.30521 0
M  V30 3668 H 355.798 -4.97157 1.96822 0
M  V30 3669 H 356.141 -4.136 0.473401 0
M  V30 3670 H 356.674 -3.42829 2.01775 0
M  V30 3671 H 353.413 -4.40946 4.85023 0
M  V30 3672 H 352.933 -5.03686 3.2567 0
M  V30 3673 H 354.612 -5.22045 3.82202 0
M  V30 3674 N 354.744 -0.972509 -1.24016 0
M  V30 3675 C 355.984 -0.644951 -1.93958 0
M  V30 3676 C 356.348 0.80559 -1.74282 0
M  V30 3677 O 357.549 1.2436 -2.38302 0
M  V30 3678 C 355.82 -1.01521 -3.42678 0
M  V30 3679 S 357.379 -0.802927 -4.31391 0
M  V30 3680 H 354.197 -0.236452 -0.670531 0
M  V30 3681 H 356.799 -1.25048 -1.50277 0
M  V30 3682 H 355.503 -2.06769 -3.54506 0
M  V30 3683 H 355.034 -0.400648 -3.91355 0
M  V30 3684 H 357.049 0.317256 -4.95185 0
M  V30 3685 N 356.222 1.38976 -0.743202 0
M  V30 3686 C 357.169 2.30544 -0.10861 0
M  V30 3687 C 358.139 1.49642 0.720869 0
M  V30 3688 O 359.324 1.78304 0.679142 0
M  V30 3689 C 356.464 3.36018 0.786496 0
M  V30 3690 C 355.577 4.31963 -0.0564849 0
M  V30 3691 C 354.712 5.24506 0.840657 0
M  V30 3692 C 353.751 6.121 -0.00658363 0
M  V30 3693 N 352.888 6.96973 0.846943 0
M  V30 3694 H 357.728 2.8424 -0.895088 0
M  V30 3695 H 355.265 1.3995 -0.453048 0
M  V30 3696 H 357.223 3.95768 1.31999 0
M  V30 3697 H 355.853 2.83758 1.53887 0
M  V30 3698 H 354.905 3.73763 -0.707492 0
M  V30 3699 H 356.217 4.93703 -0.711229 0
M  V30 3700 H 355.371 5.89322 1.4417 0
M  V30 3701 H 354.11 4.63107 1.52916 0
M  V30 3702 H 353.115 5.46289 -0.620366 0
M  V30 3703 H 354.34 6.75565 -0.691992 0
M  V30 3704 H 352.286 6.38133 1.52059 0
M  V30 3705 H 352.203 7.5559 0.248864 0
M  V30 3706 H 353.471 7.6621 1.43328 0
M  V30 3707 N 357.7 0.491464 1.49741 0
M  V30 3708 C 358.648 -0.305837 2.30581 0
M  V30 3709 C 359.642 -0.971642 1.38764 0
M  V30 3710 O 360.848 -0.90042 1.5586 0
M  V30 3711 H 357.223 -0.117482 0.742767 0
M  V30 3712 H 359.194 0.396093 2.95759 0
M  V30 3713 C 357.943 -1.36319 3.19863 0
M  V30 3714 H 357.266 -0.860258 3.90435 0
M  V30 3715 H 358.706 -1.89323 3.79385 0
M  V30 3716 C 357.165 -2.37621 2.38826 0
M  V30 3717 O 357.695 -3.43311 2.08567 0
M  V30 3718 N 355.901 -2.09849 2.01026 0
M  V30 3719 H 355.448 -1.23922 2.25834 0
M  V30 3720 H 355.406 -2.77859 1.47112 0
M  V30 3721 N 359.178 -1.55987 0.224894 0
M  V30 3722 C 360.408 -2.02489 -0.41007 0
M  V30 3723 C 360.816 -1.10391 -1.53657 0
M  V30 3724 O 360.159 -0.106458 -1.83391 0
M  V30 3725 C 360.221 -3.45319 -0.999757 0
M  V30 3726 C 359.885 -4.56999 -0.00827976 0
M  V30 3727 C 360.882 -5.13812 0.793314 0
M  V30 3728 C 358.567 -5.02176 0.111442 0
M  V30 3729 C 360.561 -6.14276 1.7013 0
M  V30 3730 C 358.248 -6.02477 1.02296 0
M  V30 3731 C 359.246 -6.58403 1.81643 0
M  V30 3732 O 358.934 -7.56751 2.71262 0
M  V30 3733 H 358.666 -0.667915 -0.104235 0
M  V30 3734 H 361.22 -2.0257 0.339782 0
M  V30 3735 H 359.45 -3.42318 -1.79876 0
M  V30 3736 H 361.139 -3.7545 -1.54248 0
M  V30 3737 H 361.905 -4.79756 0.711288 0
M  V30 3738 H 357.784 -4.58323 -0.49605 0
M  V30 3739 H 361.328 -6.57854 2.32107 0
M  V30 3740 H 357.225 -6.35954 1.10599 0
M  V30 3741 H 357.993 -7.74286 2.65375 0
M  V30 3742 N 360.656 0.0484629 -1.57525 0
M  V30 3743 C 361.905 0.742065 -1.87553 0
M  V30 3744 C 362.218 1.77545 -0.820802 0
M  V30 3745 O 363.424 2.52027 -1.00967 0
M  V30 3746 C 361.88 1.37081 -3.32771 0
M  V30 3747 C 361.488 0.374786 -4.4643 0
M  V30 3748 C 363.232 2.04542 -3.71972 0
M  V30 3749 C 361.139 1.01077 -5.82698 0
M  V30 3750 H 360.069 0.280903 -0.699721 0
M  V30 3751 H 362.72 -0.00411877 -1.835 0
M  V30 3752 H 361.102 2.16605 -3.31509 0
M  V30 3753 H 362.276 -0.392331 -4.59127 0
M  V30 3754 H 360.591 -0.196653 -4.15935 0
M  V30 3755 H 363.188 2.52943 -4.71088 0
M  V30 3756 H 363.531 2.85515 -3.02964 0
M  V30 3757 H 364.064 1.31819 -3.75325 0
M  V30 3758 H 360.803 0.240878 -6.55057 0
M  V30 3759 H 360.323 1.74819 -5.73758 0
M  V30 3760 H 362.002 1.52383 -6.28799 0
M  V30 3761 N 362.134 1.5431 0.320358 0
M  V30 3762 C 363.359 1.76954 1.08175 0
M  V30 3763 C 363.784 0.518193 1.80821 0
M  V30 3764 O 363.142 -0.530411 1.73368 0
M  V30 3765 C 363.19 2.96451 2.05303 0
M  V30 3766 O 362.294 2.68221 3.13259 0
M  V30 3767 H 361.635 0.586275 0.311733 0
M  V30 3768 H 364.165 2.01342 0.363676 0
M  V30 3769 H 364.175 3.23887 2.48116 0
M  V30 3770 H 362.85 3.87196 1.51829 0
M  V30 3771 H 361.427 2.51744 2.75099 0
M  V30 3772 N 363.613 -0.582584 1.46437 0
M  V30 3773 C 364.545 -1.70618 1.53043 0
M  V30 3774 C 365.558 -1.57322 0.418769 0
M  V30 3775 O 366.747 -1.64744 0.687136 0
M  V30 3776 C 363.847 -3.08869 1.39474 0
M  V30 3777 C 363.02 -3.48166 2.64762 0
M  V30 3778 C 362.079 -4.65478 2.4539 0
M  V30 3779 O 361.105 -4.71333 3.19114 0
M  V30 3780 N 362.307 -5.60365 1.51564 0
M  V30 3781 H 365.072 -1.65405 2.49923 0
M  V30 3782 H 362.633 -0.768567 1.42494 0
M  V30 3783 H 364.625 -3.85143 1.24287 0
M  V30 3784 H 363.195 -3.08449 0.507758 0
M  V30 3785 H 362.415 -2.61598 2.9489 0
M  V30 3786 H 363.703 -3.71188 3.4799 0
M  V30 3787 H 363.101 -5.5837 0.907705 0
M  V30 3788 H 361.658 -6.36068 1.4234 0
M  V30 3789 N 365.091 -1.34144 -0.827227 0
M  V30 3790 C 366.321 -1.29138 -1.61267 0
M  V30 3791 C 366.729 0.137597 -1.88699 0
M  V30 3792 O 366.072 1.09379 -1.47587 0
M  V30 3793 C 366.134 -2.0097 -2.9808 0
M  V30 3794 C 365.798 -3.50242 -2.93563 0
M  V30 3795 C 366.795 -4.4523 -2.68452 0
M  V30 3796 C 364.48 -3.92592 -3.13331 0
M  V30 3797 C 366.474 -5.80542 -2.63154 0
M  V30 3798 C 364.161 -5.28005 -3.07658 0
M  V30 3799 C 365.159 -6.21792 -2.82602 0
M  V30 3800 O 364.847 -7.54723 -2.76853 0
M  V30 3801 H 364.579 -0.445851 -0.508127 0
M  V30 3802 H 367.133 -1.77263 -1.03763 0
M  V30 3803 H 365.363 -1.47451 -3.57484 0
M  V30 3804 H 367.052 -1.89309 -3.5905 0
M  V30 3805 H 367.818 -4.13832 -2.52919 0
M  V30 3806 H 363.697 -3.19994 -3.31851 0
M  V30 3807 H 367.241 -6.53717 -2.43516 0
M  V30 3808 H 363.138 -5.59023 -3.22743 0
M  V30 3809 H 363.906 -7.64409 -2.92611 0
M  V30 3810 N 366.569 1.04691 -1.17803 0
M  V30 3811 C 367.794 1.81984 -0.994813 0
M  V30 3812 C 368.219 1.82586 0.452112 0
M  V30 3813 O 367.577 1.23854 1.324 0
M  V30 3814 C 367.625 3.2575 -1.54659 0
M  V30 3815 O 366.729 4.05267 -0.763728 0
M  V30 3816 H 366.07 0.562483 -0.352857 0
M  V30 3817 H 368.6 1.3189 -1.56417 0
M  V30 3818 H 368.61 3.76541 -1.57102 0
M  V30 3819 H 367.285 3.24627 -2.59981 0
M  V30 3820 H 365.862 3.63972 -0.811108 0
M  V30 3821 N 368.047 0.979072 1.23499 0
M  V30 3822 C 368.957 0.526431 2.28617 0
M  V30 3823 C 369.973 -0.418126 1.68901 0
M  V30 3824 O 371.149 -0.288372 1.99325 0
M  V30 3825 C 368.214 -0.165235 3.46306 0
M  V30 3826 C 367.275 0.82056 4.21385 0
M  V30 3827 C 366.508 0.161807 5.33455 0
M  V30 3828 O 366.731 -1.04742 5.60701 0
M  V30 3829 O 365.665 0.859708 5.95729 0
M  V30 3830 H 369.491 1.4006 2.69475 0
M  V30 3831 H 367.076 0.746643 1.29405 0
M  V30 3832 H 368.958 -0.553287 4.17752 0
M  V30 3833 H 367.633 -1.01419 3.07402 0
M  V30 3834 H 366.54 1.25929 3.52268 0
M  V30 3835 H 367.873 1.63828 4.64135 0
M  V30 3836 N 369.525 -1.3858 0.750561 0
M  V30 3837 C 370.774 -1.99424 0.302172 0
M  V30 3838 C 371.087 -1.60254 -1.12152 0
M  V30 3839 O 372.293 -2.14046 -1.67023 0
M  V30 3840 C 370.749 -3.56558 0.489307 0
M  V30 3841 C 370.357 -4.04682 1.92189 0
M  V30 3842 C 372.101 -4.24374 0.103478 0
M  V30 3843 C 370.008 -5.54446 2.05775 0
M  V30 3844 H 368.938 -0.746046 0.10923 0
M  V30 3845 H 371.589 -1.58383 0.92667 0
M  V30 3846 H 369.971 -3.95472 -0.204329 0
M  V30 3847 H 371.145 -3.77065 2.64875 0
M  V30 3848 H 369.46 -3.4958 2.26236 0
M  V30 3849 H 372.057 -5.34384 0.183787 0
M  V30 3850 H 372.4 -4.05468 -0.943481 0
M  V30 3851 H 372.933 -3.90688 0.748854 0
M  V30 3852 H 369.672 -5.78252 3.08714 0
M  V30 3853 H 369.192 -5.83816 1.37546 0
M  V30 3854 H 370.871 -6.20099 1.84626 0
M  V30 3855 N 371.003 -0.499398 -1.49478 0
M  V30 3856 C 371.966 0.268838 -2.27618 0
M  V30 3857 C 372.966 0.895383 -1.33565 0
M  V30 3858 O 374.156 0.760164 -1.56739 0
M  V30 3859 C 371.288 1.38559 -3.11471 0
M  V30 3860 H 372.481 -0.416812 -2.96989 0
M  V30 3861 H 370.034 -0.254313 -1.54217 0
M  V30 3862 H 370.769 2.10544 -2.46661 0
M  V30 3863 H 370.554 0.941797 -3.80621 0
M  V30 3864 H 372.044 1.92678 -3.70493 0
M  V30 3865 N 372.481 1.55866 -0.233164 0
M  V30 3866 C 373.73 1.97779 0.39579 0
M  V30 3867 C 374.043 1.12419 1.60066 0
M  V30 3868 O 375.249 1.44283 2.29988 0
M  V30 3869 C 373.705 3.5188 0.755556 0
M  V30 3870 C 373.313 4.45959 -0.427152 0
M  V30 3871 C 375.057 4.02479 1.34946 0
M  V30 3872 C 372.964 5.91383 -0.0443043 0
M  V30 3873 H 371.894 0.738592 0.15165 0
M  V30 3874 H 374.545 1.80486 -0.331212 0
M  V30 3875 H 372.927 3.64816 1.5403 0
M  V30 3876 H 374.101 4.44776 -1.20462 0
M  V30 3877 H 372.416 4.05765 -0.935068 0
M  V30 3878 H 375.013 5.08637 1.649 0
M  V30 3879 H 375.356 3.49014 2.26925 0
M  V30 3880 H 375.889 3.92813 0.62791 0
M  V30 3881 H 372.628 6.48857 -0.930874 0
M  V30 3882 H 372.148 5.95734 0.697238 0
M  V30 3883 H 373.827 6.45893 0.378334 0
M  V30 3884 N 373.959 -0.0401083 1.57549 0
M  V30 3885 C 374.891 -1.07149 2.02612 0
M  V30 3886 C 375.904 -1.33126 0.937085 0
M  V30 3887 O 377.093 -1.30808 1.21456 0
M  V30 3888 C 374.193 -2.41561 2.37701 0
M  V30 3889 C 373.366 -2.35096 3.68848 0
M  V30 3890 C 372.425 -3.51867 3.91249 0
M  V30 3891 O 371.451 -3.3186 4.62447 0
M  V30 3892 N 372.653 -4.73351 3.36035 0
M  V30 3893 H 375.418 -0.687485 2.91708 0
M  V30 3894 H 372.979 -0.228248 1.60283 0
M  V30 3895 H 374.971 -3.18379 2.49833 0
M  V30 3896 H 373.541 -2.71846 1.54332 0
M  V30 3897 H 372.761 -1.4345 3.67173 0
M  V30 3898 H 374.049 -2.27908 4.54901 0
M  V30 3899 H 373.447 -4.92507 2.78304 0
M  V30 3900 H 372.004 -5.47572 3.53565 0
M  V30 3901 N 375.437 -1.54477 -0.31217 0
M  V30 3902 C 376.37 -1.79519 -1.40884 0
M  V30 3903 C 377.348 -0.645753 -1.49227 0
M  V30 3904 O 378.532 -0.884468 -1.66461 0
M  V30 3905 C 375.659 -1.92194 -2.78889 0
M  V30 3906 C 374.705 -3.14555 -2.88023 0
M  V30 3907 S 375.538 -4.72893 -2.51262 0
M  V30 3908 C 376.694 -4.8849 -3.91317 0
M  V30 3909 H 376.927 -2.72256 -1.19432 0
M  V30 3910 H 374.46 -1.45746 -0.509654 0
M  V30 3911 H 376.418 -2.00182 -3.58382 0
M  V30 3912 H 375.079 -1.00414 -2.97617 0
M  V30 3913 H 374.272 -3.20193 -3.89221 0
M  V30 3914 H 373.874 -3.04955 -2.16514 0
M  V30 3915 H 376.166 -4.71826 -4.86196 0
M  V30 3916 H 377.109 -5.90588 -3.90656 0
M  V30 3917 H 377.517 -4.16715 -3.80801 0
M  V30 3918 N 376.915 0.57481 -1.46744 0
M  V30 3919 C 377.848 1.69827 -1.52427 0
M  V30 3920 C 378.826 1.58151 -0.377744 0
M  V30 3921 O 380.01 1.79257 -0.58303 0
M  V30 3922 C 377.137 3.07943 -1.41027 0
M  V30 3923 C 376.183 3.38116 -2.59961 0
M  V30 3924 S 377.016 3.29313 -4.22272 0
M  V30 3925 C 378.172 4.69953 -4.13394 0
M  V30 3926 H 378.405 1.64748 -2.47478 0
M  V30 3927 H 375.938 0.754203 -1.34726 0
M  V30 3928 H 377.896 3.87619 -1.35137 0
M  V30 3929 H 376.557 3.10504 -0.473909 0
M  V30 3930 H 375.75 4.38762 -2.47999 0
M  V30 3931 H 375.352 2.66024 -2.62882 0
M  V30 3932 H 377.644 5.60517 -3.80562 0
M  V30 3933 H 378.587 4.86972 -5.14066 0
M  V30 3934 H 378.995 4.47174 -3.44522 0
M  V30 3935 N 378.394 1.34581 0.820102 0
M  V30 3936 C 379.327 1.20735 1.93644 0
M  V30 3937 C 380.305 0.0983343 1.62302 0
M  V30 3938 O 381.489 0.263997 1.86642 0
M  V30 3939 C 378.616 0.856037 3.27704 0
M  V30 3940 C 377.662 1.97521 3.78005 0
M  V30 3941 S 378.495 3.58906 3.97425 0
M  V30 3942 C 379.651 3.25822 5.34407 0
M  V30 3943 H 379.884 2.15231 2.05093 0
M  V30 3944 H 377.417 1.1964 0.97599 0
M  V30 3945 H 379.375 0.660133 4.05157 0
M  V30 3946 H 378.036 -0.0706253 3.14021 0
M  V30 3947 H 377.229 1.68321 4.75062 0
M  V30 3948 H 376.831 2.12875 3.07507 0
M  V30 3949 H 379.123 2.77812 6.17922 0
M  V30 3950 H 380.066 4.22029 5.68592 0
M  V30 3951 H 380.474 2.61932 5.00052 0
M  V30 3952 N 379.872 -1.04064 1.18357 0
M  V30 3953 C 380.822 -2.10393 0.878561 0
M  V30 3954 C 381.806 -1.60183 -0.151713 0
M  V30 3955 O 382.998 -1.76923 0.0523303 0
M  V30 3956 C 380.127 -3.4089 0.406096 0
M  V30 3957 C 379.213 -3.97866 1.46844 0
M  V30 3958 N 379.604 -4.28657 2.68489 0
M  V30 3959 C 377.902 -4.2574 1.32896 0
M  V30 3960 C 378.603 -4.74253 3.36836 0
M  V30 3961 N 377.579 -4.75068 2.64219 0
M  V30 3962 H 381.381 -2.32076 1.80327 0
M  V30 3963 H 378.895 -1.21818 1.07397 0
M  V30 3964 H 380.892 -4.16557 0.169088 0
M  V30 3965 H 379.552 -3.20633 -0.512275 0
M  V30 3966 H 380.563 -4.18304 3.05356 0
M  V30 3967 H 377.24 -4.1481 0.473134 0
M  V30 3968 H 378.63 -5.07096 4.40798 0
M  V30 3969 N 381.35 -0.985608 -1.22978 0
M  V30 3970 C 382.283 -0.47487 -2.23204 0
M  V30 3971 C 383.261 0.460865 -1.55932 0
M  V30 3972 O 384.445 0.388105 -1.84461 0
M  V30 3973 C 381.572 0.312427 -3.37256 0
M  V30 3974 C 380.618 -0.568219 -4.22698 0
M  V30 3975 S 381.451 -2.01919 -4.95973 0
M  V30 3976 C 382.607 -1.24118 -6.1347 0
M  V30 3977 H 382.84 -1.32419 -2.66181 0
M  V30 3978 H 380.373 -0.792005 -1.32539 0
M  V30 3979 H 382.331 0.760645 -4.03391 0
M  V30 3980 H 380.992 1.13693 -2.92801 0
M  V30 3981 H 380.185 0.0371657 -5.03986 0
M  V30 3982 H 379.787 -0.952897 -3.61657 0
M  V30 3983 H 382.079 -0.505121 -6.75614 0
M  V30 3984 H 383.022 -2.02907 -6.78406 0
M  V30 3985 H 383.43 -0.757669 -5.59392 0
M  V30 3986 N 382.828 1.3818 -0.7579 0
M  V30 3987 C 383.76 2.2901 -0.0932177 0
M  V30 3988 C 384.773 1.47958 0.679136 0
M  V30 3989 O 385.962 1.70773 0.519514 0
M  V30 3990 C 383.062 3.26953 0.89192 0
M  V30 3991 C 382.235 4.37045 0.176303 0
M  V30 3992 C 381.294 5.15148 1.07281 0
M  V30 3993 O 380.32 5.66616 0.541728 0
M  V30 3994 N 381.522 5.28542 2.40049 0
M  V30 3995 H 384.287 2.86694 -0.873303 0
M  V30 3996 H 381.848 1.50007 -0.609054 0
M  V30 3997 H 383.84 3.76083 1.49479 0
M  V30 3998 H 382.41 2.70136 1.57306 0
M  V30 3999 H 381.63 3.89493 -0.607328 0
M  V30 4000 H 382.918 5.07801 -0.318718 0
M  V30 4001 H 382.316 4.88285 2.85647 0
M  V30 4002 H 380.873 5.8103 2.95376 0
M  V30 4003 N 384.306 0.507319 1.49211 0
M  V30 4004 C 385.717 0.0611118 1.866 0
M  V30 4005 C 386.068 -1.35488 1.41907 0
M  V30 4006 O 385.193 -2.0108 0.799726 0
M  V30 4007 C 385.788 0.104125 3.3864 0
M  V30 4008 C 384.347 -0.28677 3.75306 0
M  V30 4009 C 383.494 0.473893 2.73221 0
M  V30 4010 H 386.445 0.719775 1.41439 0
M  V30 4011 H 386.466 -0.689672 3.74198 0
M  V30 4012 H 385.978 1.13482 3.71138 0
M  V30 4013 H 384.079 -1.32046 3.48417 0
M  V30 4014 H 384.192 0.0370745 4.79086 0
M  V30 4015 H 382.556 -0.0770644 2.54583 0
M  V30 4016 H 383.339 1.50478 3.08563 0
M  V30 4017 N 385.784 -1.5574 0.241426 0
M  V30 4018 C 386.731 -2.21149 -0.660432 0
M  V30 4019 C 387.701 -1.17356 -1.17545 0
M  V30 4020 O 388.886 -1.45784 -1.23093 0
M  V30 4021 C 386.026 -2.91059 -1.85414 0
M  V30 4022 C 385.139 -4.09495 -1.37616 0
M  V30 4023 C 384.274 -4.67135 -2.529 0
M  V30 4024 C 383.313 -5.77831 -2.01936 0
M  V30 4025 N 382.45 -6.29677 -3.10566 0
M  V30 4026 H 387.29 -2.97845 -0.095955 0
M  V30 4027 H 384.827 -1.47057 -0.0356024 0
M  V30 4028 H 386.785 -3.29788 -2.5553 0
M  V30 4029 H 385.415 -2.16846 -2.39118 0
M  V30 4030 H 384.467 -3.76117 -0.569235 0
M  V30 4031 H 385.779 -4.89423 -0.962618 0
M  V30 4032 H 384.933 -5.08409 -3.31067 0
M  V30 4033 H 383.672 -3.86411 -2.97553 0
M  V30 4034 H 382.677 -5.36039 -1.22238 0
M  V30 4035 H 383.902 -6.60402 -1.58259 0
M  V30 4036 H 381.848 -5.5186 -3.54664 0
M  V30 4037 H 381.765 -7.04783 -2.73526 0
M  V30 4038 H 383.033 -6.75609 -3.88809 0
M  V30 4039 N 387.262 0.0317525 -1.57568 0
M  V30 4040 C 388.172 1.05021 -2.0978 0
M  V30 4041 C 389.188 1.39809 -1.03583 0
M  V30 4042 O 390.364 1.49182 -1.35302 0
M  V30 4043 C 387.429 2.33301 -2.56459 0
M  V30 4044 C 386.49 2.0512 -3.77127 0
M  V30 4045 C 385.723 3.27283 -4.2157 0
M  V30 4046 O 385.946 4.37861 -3.65559 0
M  V30 4047 O 384.88 3.13141 -5.14029 0
M  V30 4048 H 388.706 0.636505 -2.96955 0
M  V30 4049 H 386.291 0.248559 -1.47318 0
M  V30 4050 H 388.173 3.08722 -2.86825 0
M  V30 4051 H 386.848 2.73973 -1.72397 0
M  V30 4052 H 385.755 1.27276 -3.51784 0
M  V30 4053 H 387.088 1.69305 -4.62165 0
M  V30 4054 N 388.74 1.54641 0.303973 0
M  V30 4055 C 389.989 1.7299 1.03717 0
M  V30 4056 C 390.302 0.521168 1.88529 0
M  V30 4057 O 391.508 0.586408 2.65092 0
M  V30 4058 C 389.964 3.06051 1.89369 0
M  V30 4059 C 389.572 4.34393 1.09574 0
M  V30 4060 C 391.316 3.3376 2.62306 0
M  V30 4061 C 389.223 5.58506 1.94486 0
M  V30 4062 H 388.153 0.64473 0.390947 0
M  V30 4063 H 390.804 1.81124 0.294328 0
M  V30 4064 H 389.186 2.91874 2.67629 0
M  V30 4065 H 390.36 4.59396 0.359485 0
M  V30 4066 H 388.675 4.13597 0.482324 0
M  V30 4067 H 391.272 4.23687 3.26181 0
M  V30 4068 H 391.615 2.52503 3.3098 0
M  V30 4069 H 392.148 3.48894 1.91097 0
M  V30 4070 H 388.887 6.42422 1.30287 0
M  V30 4071 H 388.407 5.37694 2.65792 0
M  V30 4072 H 390.086 5.95651 2.52605 0
M  V30 4073 N 390.218 -0.567019 1.47046 0
M  V30 4074 C 391.458 -1.3355 1.54738 0
M  V30 4075 C 391.822 -1.90947 0.200772 0
M  V30 4076 O 393.023 -2.68367 0.152489 0
M  V30 4077 C 391.294 -2.42317 2.62712 0
M  V30 4078 S 392.853 -3.29383 2.89918 0
M  V30 4079 H 389.671 -0.454788 0.546525 0
M  V30 4080 H 392.273 -0.650191 1.84371 0
M  V30 4081 H 390.977 -1.98568 3.59164 0
M  V30 4082 H 390.508 -3.15601 2.34861 0
M  V30 4083 H 392.523 -4.41548 2.26384 0
M  V30 4084 N 391.696 -1.35014 -0.812953 0
M  V30 4085 C 392.659 -1.27292 -1.90602 0
M  V30 4086 C 393.659 -0.185817 -1.59723 0
M  V30 4087 O 394.849 -0.439102 -1.68575 0
M  V30 4088 C 391.981 -0.967676 -3.26877 0
M  V30 4089 H 393.174 -2.24479 -1.9887 0
M  V30 4090 H 390.727 -1.19446 -1.00808 0
M  V30 4091 H 391.462 0.0005954 -3.243 0
M  V30 4092 H 391.247 -1.75412 -3.50675 0
M  V30 4093 H 392.737 -0.939085 -4.06904 0
M  V30 4094 N 393.175 1.03435 -1.18907 0
M  V30 4095 C 394.105 2.13503 -0.945448 0
M  V30 4096 C 395.086 1.69682 0.119189 0
M  V30 4097 O 396.271 1.94169 -0.034707 0
M  V30 4098 C 393.401 3.44004 -0.477316 0
M  V30 4099 C 392.355 4.0148 -1.48316 0
M  V30 4100 C 391.681 5.27537 -0.872311 0
M  V30 4101 C 392.981 4.36921 -2.86177 0
M  V30 4102 H 394.675 2.34141 -1.86597 0
M  V30 4103 H 392.221 1.12523 -0.898584 0
M  V30 4104 H 394.174 4.20372 -0.294204 0
M  V30 4105 H 392.898 3.23072 0.478786 0
M  V30 4106 H 391.557 3.27201 -1.65332 0
M  V30 4107 H 391.205 5.02917 0.0911752 0
M  V30 4108 H 390.905 5.66954 -1.54393 0
M  V30 4109 H 392.429 6.06576 -0.699871 0
M  V30 4110 H 393.843 5.04248 -2.72776 0
M  V30 4111 H 392.24 4.87405 -3.50081 0
M  V30 4112 H 393.31 3.46466 -3.39248 0
M  V30 4113 N 394.653 0.992116 1.22453 0
M  V30 4114 C 395.899 0.668523 1.91464 0
M  V30 4115 C 396.232 -0.797313 1.77078 0
M  V30 4116 O 395.507 -1.5765 1.13916 0
M  V30 4117 C 395.79 1.07424 3.43703 0
M  V30 4118 C 395.643 2.59857 3.67143 0
M  V30 4119 C 396.962 0.626891 4.35612 0
M  V30 4120 H 394.081 0.244341 0.695318 0
M  V30 4121 H 396.723 1.2355 1.44345 0
M  V30 4122 H 394.873 0.591816 3.83966 0
M  V30 4123 H 396.545 3.15764 3.3629 0
M  V30 4124 H 394.788 3.01961 3.11451 0
M  V30 4125 H 395.459 2.83296 4.73759 0
M  V30 4126 H 397.935 1.04125 4.02861 0
M  V30 4127 H 396.811 0.939076 5.40807 0
M  V30 4128 H 397.072 -0.472457 4.39568 0
M  V30 4129 N 396.131 -1.37776 0.765217 0
M  V30 4130 C 397.379 -1.99454 0.325943 0
M  V30 4131 C 397.7 -1.61049 -1.09947 0
M  V30 4132 O 396.97 -0.872821 -1.75381 0
M  V30 4133 H 395.55 -0.737697 0.117525 0
M  V30 4134 H 398.212 -1.68359 0.981895 0
M  V30 4135 H 397.308 -3.09547 0.398353 0
M  V30 4136 N 397.609 -0.515225 -1.4894 0
M  V30 4137 C 398.856 0.024215 -2.02486 0
M  V30 4138 C 399.184 1.35671 -1.39368 0
M  V30 4139 O 398.439 1.88566 -0.523574 0
M  V30 4140 C 398.738 0.210595 -3.56779 0
M  V30 4141 C 398.404 -1.04569 -4.38607 0
M  V30 4142 C 397.066 -1.39002 -4.60686 0
M  V30 4143 C 399.418 -1.88008 -4.86109 0
M  V30 4144 C 396.746 -2.568 -5.27514 0
M  V30 4145 C 399.098 -3.04972 -5.54234 0
M  V30 4146 C 397.762 -3.39768 -5.74555 0
M  V30 4147 H 397.032 0.00886088 -0.740947 0
M  V30 4148 H 399.679 -0.678263 -1.79086 0
M  V30 4149 H 397.984 0.99572 -3.78936 0
M  V30 4150 H 399.681 0.642659 -3.95817 0
M  V30 4151 H 396.271 -0.767497 -4.21672 0
M  V30 4152 H 400.455 -1.62719 -4.68867 0
M  V30 4153 H 395.711 -2.8398 -5.41447 0
M  V30 4154 H 399.885 -3.69943 -5.90013 0
M  V30 4155 H 397.512 -4.31148 -6.26112 0
M  V30 4156 N 399.087 1.5561 -0.249682 0
M  V30 4157 C 400.327 2.00916 0.37579 0
M  V30 4158 C 400.691 1.13409 1.54927 0
M  V30 4159 O 401.892 1.48183 2.24266 0
M  V30 4160 C 400.163 3.48949 0.772633 0
M  V30 4161 S 401.722 4.16261 1.38824 0
M  V30 4162 H 398.54 0.70112 0.118117 0
M  V30 4163 H 401.142 1.92052 -0.365567 0
M  V30 4164 H 399.846 4.103 -0.090683 0
M  V30 4165 H 399.377 3.61745 1.5461 0
M  V30 4166 H 401.392 4.17778 2.67724 0
M  V30 4167 N 400.565 -0.0233959 1.57583 0
M  V30 4168 C 401.842 -0.748794 1.807 0
M  V30 4169 C 402.222 -1.9327 0.849106 0
M  V30 4170 O 401.57 -2.28247 -0.107468 0
M  V30 4171 C 401.78 -1.17651 3.28571 0
M  V30 4172 C 403.128 -1.59008 3.93702 0
M  V30 4173 O 404.152 -1.27094 3.32755 0
M  V30 4174 O 403.011 -2.18264 5.01022 0
M  V30 4175 H 400.105 -0.362578 0.743281 0
M  V30 4176 H 402.651 0.000261958 1.697 0
M  V30 4177 H 401.423 -0.331603 3.89892 0
M  V30 4178 H 401.046 -1.98541 3.44481 0
M  V30 4179 N 402.043 -1.548 -0.295768 0
M  V30 4180 C 402.953 -1.89177 -1.38742 0
M  V30 4181 C 403.969 -0.786481 -1.55211 0
M  V30 4182 O 405.145 -1.08344 -1.69775 0
M  V30 4183 C 402.21 -2.13663 -2.73036 0
M  V30 4184 C 401.271 -3.37349 -2.65508 0
M  V30 4185 C 400.504 -3.60658 -3.93398 0
M  V30 4186 O 400.727 -2.86882 -4.93006 0
M  V30 4187 O 399.661 -4.54179 -3.94975 0
M  V30 4188 H 403.487 -2.82059 -1.12589 0
M  V30 4189 H 401.072 -1.41056 -0.492295 0
M  V30 4190 H 402.954 -2.3094 -3.52484 0
M  V30 4191 H 401.629 -1.23967 -2.99022 0
M  V30 4192 H 400.536 -3.25431 -1.84514 0
M  V30 4193 H 401.869 -4.27192 -2.44474 0
M  V30 4194 N 403.521 0.559213 -1.47345 0
M  V30 4195 C 404.767 1.31843 -1.54095 0
M  V30 4196 C 405.1 1.93149 -0.201726 0
M  V30 4197 O 404.375 1.77759 0.789428 0
M  V30 4198 C 404.658 2.43006 -2.65744 0
M  V30 4199 C 404.511 1.86581 -4.09277 0
M  V30 4200 C 405.83 3.44943 -2.73318 0
M  V30 4201 H 402.949 0.478012 -0.560957 0
M  V30 4202 H 405.591 0.625977 -1.79392 0
M  V30 4203 H 403.741 3.02072 -2.44305 0
M  V30 4204 H 405.413 1.31792 -4.42073 0
M  V30 4205 H 403.656 1.17268 -4.17649 0
M  V30 4206 H 404.327 2.66933 -4.83168 0
M  V30 4207 H 406.803 2.95793 -2.92653 0
M  V30 4208 H 405.679 4.20153 -3.53218 0
M  V30 4209 H 405.94 4.03665 -1.80296 0
M  V30 4210 N 404.999 1.35443 0.805782 0
M  V30 4211 C 405.946 1.28431 1.91766 0
M  V30 4212 C 406.916 0.156102 1.65365 0
M  V30 4213 O 408.101 0.339936 1.87747 0
M  V30 4214 C 405.241 1.06301 3.2832 0
M  V30 4215 C 404.354 2.2805 3.66902 0
M  V30 4216 C 403.489 1.99064 4.92491 0
M  V30 4217 C 402.528 3.16863 5.23703 0
M  V30 4218 N 401.665 2.87647 6.40471 0
M  V30 4219 H 406.505 2.23511 1.97096 0
M  V30 4220 H 404.042 1.11105 0.964054 0
M  V30 4221 H 406 0.915012 4.07042 0
M  V30 4222 H 404.63 0.148822 3.22457 0
M  V30 4223 H 403.682 2.53711 2.83434 0
M  V30 4224 H 404.994 3.1601 3.85927 0
M  V30 4225 H 404.148 1.81099 5.7904 0
M  V30 4226 H 402.887 1.0839 4.75503 0
M  V30 4227 H 401.892 3.35404 4.35642 0
M  V30 4228 H 403.117 4.08339 5.4262 0
M  V30 4229 H 401.063 1.99568 6.24907 0
M  V30 4230 H 400.98 3.69141 6.59751 0
M  V30 4231 H 402.248 2.73226 7.30047 0
M  V30 4232 N 406.477 -1.02803 1.19454 0
M  V30 4233 C 407.387 -2.14575 0.948408 0
M  V30 4234 C 408.403 -1.73757 -0.091871 0
M  V30 4235 O 409.579 -2.01185 0.0929654 0
M  V30 4236 C 406.644 -3.43202 0.491265 0
M  V30 4237 C 405.705 -3.98328 1.60103 0
M  V30 4238 C 404.938 -5.20816 1.16561 0
M  V30 4239 O 405.161 -5.70392 0.0295238 0
M  V30 4240 O 404.095 -5.68801 1.96849 0
M  V30 4241 H 407.921 -2.38202 1.88397 0
M  V30 4242 H 405.506 -1.12989 0.977433 0
M  V30 4243 H 407.388 -4.20687 0.245015 0
M  V30 4244 H 406.063 -3.21018 -0.415851 0
M  V30 4245 H 404.97 -3.22174 1.90144 0
M  V30 4246 H 406.303 -4.24879 2.48473 0
M  V30 4247 N 407.956 -0.998596 -1.21925 0
M  V30 4248 C 408.889 -0.498517 -2.22688 0
M  V30 4249 C 409.867 0.444301 -1.56412 0
M  V30 4250 O 411.051 0.368518 -1.84863 0
M  V30 4251 C 408.178 0.276639 -3.37568 0
M  V30 4252 C 407.224 -0.61302 -4.22071 0
M  V30 4253 S 408.057 -2.07168 -4.93803 0
M  V30 4254 C 409.213 -1.30617 -6.12119 0
M  V30 4255 H 409.446 -1.35234 -2.64762 0
M  V30 4256 H 406.979 -0.806018 -1.31692 0
M  V30 4257 H 408.937 0.717817 -4.04175 0
M  V30 4258 H 407.598 1.10581 -2.93991 0
M  V30 4259 H 406.791 -0.0162909 -5.03997 0
M  V30 4260 H 406.393 -0.991202 -3.60626 0
M  V30 4261 H 408.685 -0.57675 -6.75041 0
M  V30 4262 H 409.628 -2.10091 -6.76215 0
M  V30 4263 H 410.036 -0.816957 -5.58557 0
M  V30 4264 N 409.434 1.37368 -0.772513 0
M  V30 4265 C 410.845 1.8231 -0.402493 0
M  V30 4266 C 411.196 1.6436 1.07146 0
M  V30 4267 O 410.321 1.15514 1.82991 0
M  V30 4268 C 410.916 3.30979 -0.723776 0
M  V30 4269 C 409.475 3.74195 -0.406802 0
M  V30 4270 C 408.622 2.59885 -0.967218 0
M  V30 4271 H 411.573 1.25829 -0.967099 0
M  V30 4272 H 411.594 3.80499 -0.00870832 0
M  V30 4273 H 411.106 3.44011 -1.7966 0
M  V30 4274 H 409.207 3.66732 0.658673 0
M  V30 4275 H 409.32 4.7027 -0.915588 0
M  V30 4276 H 407.684 2.51674 -0.391416 0
M  V30 4277 H 408.467 2.7571 -2.04546 0
M  V30 4278 N 410.912 0.523116 1.48665 0
M  V30 4279 C 411.845 -0.290518 2.26343 0
M  V30 4280 C 412.823 -0.950913 1.31895 0
M  V30 4281 O 414.007 -0.976662 1.61225 0
M  V30 4282 C 411.134 -1.41088 3.07915 0
M  V30 4283 C 410.18 -0.862597 4.17686 0
M  V30 4284 S 411.013 0.264135 5.34848 0
M  V30 4285 C 412.169 -0.858864 6.19979 0
M  V30 4286 H 412.402 0.368726 2.95005 0
M  V30 4287 H 409.935 0.30878 1.51281 0
M  V30 4288 H 411.893 -2.0527 3.55492 0
M  V30 4289 H 410.554 -2.04182 2.38681 0
M  V30 4290 H 409.747 -1.70287 4.74361 0
M  V30 4291 H 409.349 -0.297595 3.72814 0
M  V30 4292 H 411.641 -1.7591 6.54264 0
M  V30 4293 H 412.584 -0.330244 7.07329 0
M  V30 4294 H 412.992 -1.13617 5.52948 0
M  V30 4295 N 412.39 -1.55475 0.257931 0
M  V30 4296 C 413.322 -2.19192 -0.669881 0
M  V30 4297 C 414.335 -1.17148 -1.1305 0
M  V30 4298 O 415.524 -1.43959 -1.05537 0
M  V30 4299 C 412.624 -2.79016 -1.92363 0
M  V30 4300 C 411.797 -4.06586 -1.61265 0
M  V30 4301 C 410.856 -4.50622 -2.7171 0
M  V30 4302 O 409.882 -5.16765 -2.38627 0
M  V30 4303 N 411.084 -4.19325 -4.01431 0
M  V30 4304 H 413.849 -2.99441 -0.124635 0
M  V30 4305 H 411.41 -1.6171 0.0783311 0
M  V30 4306 H 413.402 -3.05427 -2.65511 0
M  V30 4307 H 411.972 -2.0286 -2.37837 0
M  V30 4308 H 411.192 -3.87646 -0.715811 0
M  V30 4309 H 412.48 -4.89737 -1.37967 0
M  V30 4310 H 411.878 -3.66247 -4.31138 0
M  V30 4311 H 410.435 -4.50547 -4.7101 0
M  V30 4312 N 413.868 0.0150385 -1.57593 0
M  V30 4313 C 415.096 0.714395 -1.94175 0
M  V30 4314 C 415.511 1.68135 -0.858841 0
M  V30 4315 O 414.868 1.81766 0.163567 0
M  V30 4316 C 414.919 1.45933 -3.30735 0
M  V30 4317 O 414.64 0.531167 -4.34868 0
M  V30 4318 C 416.141 2.25456 -3.81686 0
M  V30 4319 H 413.361 0.199923 -0.640525 0
M  V30 4320 H 415.905 -0.0316096 -2.04476 0
M  V30 4321 H 414.06 2.15709 -3.21789 0
M  V30 4322 H 414.474 1.05509 -5.13778 0
M  V30 4323 H 415.948 2.731 -4.79709 0
M  V30 4324 H 416.425 3.07485 -3.13607 0
M  V30 4325 H 417.031 1.60727 -3.9376 0
M  V30 4326 N 415.346 1.54954 0.287554 0
M  V30 4327 C 416.276 1.89839 1.35954 0
M  V30 4328 C 417.257 0.758675 1.52244 0
M  V30 4329 O 418.442 1.01557 1.65529 0
M  V30 4330 C 415.572 2.15753 2.72154 0
M  V30 4331 C 414.526 3.3159 2.70614 0
M  V30 4332 C 413.852 3.42952 4.10229 0
M  V30 4333 C 415.152 4.68359 2.31165 0
M  V30 4334 H 416.846 2.79625 1.07007 0
M  V30 4335 H 414.392 1.3454 0.513316 0
M  V30 4336 H 416.345 2.38743 3.47246 0
M  V30 4337 H 415.069 1.22752 3.02654 0
M  V30 4338 H 413.728 3.08545 1.97979 0
M  V30 4339 H 413.376 2.47443 4.37928 0
M  V30 4340 H 413.076 4.20826 4.10097 0
M  V30 4341 H 414.6 3.68218 4.87081 0
M  V30 4342 H 416.014 4.9099 2.95976 0
M  V30 4343 H 414.411 5.49044 2.42221 0
M  V30 4344 H 415.481 4.68165 1.26291 0
M  V30 4345 N 416.824 -0.551391 1.4764 0
M  V30 4346 C 418.07 -1.31024 1.54792 0
M  V30 4347 C 418.403 -1.9304 0.211967 0
M  V30 4348 O 417.678 -1.78175 -0.77999 0
M  V30 4349 C 417.961 -2.41593 2.67029 0
M  V30 4350 C 417.814 -1.84408 4.10261 0
M  V30 4351 C 419.133 -3.43488 2.75143 0
M  V30 4352 H 416.252 -0.475031 0.563485 0
M  V30 4353 H 418.894 -0.616454 1.79722 0
M  V30 4354 H 417.044 -3.00772 2.45904 0
M  V30 4355 H 418.716 -1.29445 4.42766 0
M  V30 4356 H 416.959 -1.15051 4.18265 0
M  V30 4357 H 417.63 -2.64367 4.84576 0
M  V30 4358 H 420.106 -2.94236 2.94218 0
M  V30 4359 H 418.982 -4.18274 3.55441 0
M  V30 4360 H 419.243 -4.02703 1.82435 0
M  V30 4361 N 418.302 -1.35869 -0.798587 0
M  V30 4362 C 419.713 -1.26498 -1.37314 0
M  V30 4363 C 420.064 0.0991899 -1.95949 0
M  V30 4364 O 419.189 1.0004 -1.91888 0
M  V30 4365 C 419.784 -2.29054 -2.49639 0
M  V30 4366 C 418.343 -2.234 -3.02935 0
M  V30 4367 C 417.49 -2.14329 -1.75949 0
M  V30 4368 H 420.441 -1.46881 -0.600971 0
M  V30 4369 H 420.462 -1.92166 -3.28409 0
M  V30 4370 H 419.974 -3.2833 -2.06933 0
M  V30 4371 H 418.075 -1.27562 -3.50084 0
M  V30 4372 H 418.188 -3.15703 -3.60372 0
M  V30 4373 H 416.552 -1.60435 -1.9782 0
M  V30 4374 H 417.335 -3.15477 -1.35384 0
M  V30 4375 N 419.78 1.02168 -1.19998 0
M  V30 4376 C 420.743 2.08765 -0.94604 0
M  V30 4377 C 421.743 1.60618 0.0763846 0
M  V30 4378 O 422.933 1.73472 -0.159135 0
M  V30 4379 C 420.065 3.38262 -0.423255 0
M  V30 4380 H 421.258 2.32726 -1.89153 0
M  V30 4381 H 418.811 1.1889 -1.01464 0
M  V30 4382 H 419.546 3.19974 0.527938 0
M  V30 4383 H 419.331 3.74532 -1.16053 0
M  V30 4384 H 420.821 4.16759 -0.264911 0
M  V30 4385 N 421.258 1.00505 1.21394 0
M  V30 4386 C 422.205 0.565496 2.23765 0
M  V30 4387 C 423.175 -0.408466 1.60999 0
M  V30 4388 O 424.36 -0.310503 1.88257 0
M  V30 4389 C 421.5 -0.101667 3.4495 0
M  V30 4390 C 420.613 0.915479 4.22188 0
M  V30 4391 C 419.748 0.220574 5.30742 0
M  V30 4392 C 418.787 1.22527 5.99711 0
M  V30 4393 N 417.924 0.557831 6.9988 0
M  V30 4394 H 422.764 1.44314 2.60725 0
M  V30 4395 H 420.301 0.722643 1.28126 0
M  V30 4396 H 422.259 -0.505504 4.14126 0
M  V30 4397 H 420.889 -0.94303 3.08718 0
M  V30 4398 H 419.941 1.43756 3.52191 0
M  V30 4399 H 421.253 1.68005 4.69655 0
M  V30 4400 H 420.407 -0.239368 6.06228 0
M  V30 4401 H 419.146 -0.576401 4.84282 0
M  V30 4402 H 418.151 1.69571 5.22997 0
M  V30 4403 H 419.376 2.02332 6.48258 0
M  V30 4404 H 417.322 -0.219486 6.55633 0
M  V30 4405 H 417.239 1.26065 7.45415 0
M  V30 4406 H 418.507 0.121095 7.79406 0
M  V30 4407 N 422.737 -1.36956 0.779787 0
M  V30 4408 C 423.983 -1.99787 0.348281 0
M  V30 4409 C 424.316 -1.61756 -1.07465 0
M  V30 4410 O 423.591 -0.867639 -1.74075 0
M  V30 4411 C 423.874 -3.56597 0.50104 0
M  V30 4412 C 423.727 -4.04513 1.96697 0
M  V30 4413 C 425.046 -4.40008 -0.0898097 0
M  V30 4414 H 422.165 -0.725796 0.128022 0
M  V30 4415 H 424.807 -1.62514 0.984331 0
M  V30 4416 H 422.957 -3.88479 -0.0404347 0
M  V30 4417 H 424.629 -3.83161 2.56876 0
M  V30 4418 H 422.872 -3.56408 2.47297 0
M  V30 4419 H 423.543 -5.1352 2.02486 0
M  V30 4420 H 426.019 -4.14431 0.372293 0
M  V30 4421 H 424.895 -5.4888 0.0471605 0
M  V30 4422 H 425.156 -4.26035 -1.18096 0
M  V30 4423 N 424.215 -0.530993 -1.48385 0
M  V30 4424 C 425.178 0.220497 -2.28137 0
M  V30 4425 C 426.178 0.866851 -1.35434 0
M  V30 4426 O 427.368 0.726746 -1.58316 0
M  V30 4427 C 424.5 1.31921 -3.1434 0
M  V30 4428 H 425.693 -0.479714 -2.96038 0
M  V30 4429 H 423.246 -0.286968 -1.53643 0
M  V30 4430 H 423.981 2.05264 -2.51072 0
M  V30 4431 H 423.766 0.86085 -3.82533 0
M  V30 4432 H 425.256 1.84776 -3.74497 0
M  V30 4433 N 425.693 1.55336 -0.266172 0
M  V30 4434 C 426.918 2.04258 0.359661 0
M  V30 4435 C 427.343 1.14359 1.49344 0
M  V30 4436 O 426.701 0.140369 1.80756 0
M  V30 4437 C 426.749 3.50997 0.826635 0
M  V30 4438 O 425.853 3.64204 1.93466 0
M  V30 4439 H 425.194 0.659668 0.075727 0
M  V30 4440 H 427.724 2.00694 -0.39786 0
M  V30 4441 H 427.734 3.9219 1.12477 0
M  V30 4442 H 426.409 4.159 -0.00293032 0
M  V30 4443 H 424.986 3.34913 1.63974 0
M  V30 4444 N 427.171 -0.0066808 1.57599 0
M  V30 4445 C 428.118 -1.00024 2.08 0
M  V30 4446 C 429.088 -1.34549 0.973943 0
M  V30 4447 O 430.273 -1.44502 1.24595 0
M  V30 4448 C 427.413 -2.2891 2.58252 0
M  V30 4449 C 426.526 -2.00346 3.82734 0
M  V30 4450 C 425.661 -3.23265 4.21513 0
M  V30 4451 C 424.7 -2.90357 5.3885 0
M  V30 4452 N 423.837 -4.05793 5.72954 0
M  V30 4453 H 428.677 -0.563499 2.92624 0
M  V30 4454 H 426.214 -0.266592 1.44664 0
M  V30 4455 H 428.172 -3.04247 2.85464 0
M  V30 4456 H 426.802 -2.70265 1.76512 0
M  V30 4457 H 425.854 -1.15406 3.62471 0
M  V30 4458 H 427.166 -1.72086 4.68175 0
M  V30 4459 H 426.32 -4.06953 4.49971 0
M  V30 4460 H 425.059 -3.54657 3.34768 0
M  V30 4461 H 424.064 -2.05075 5.10122 0
M  V30 4462 H 425.289 -2.60219 6.27266 0
M  V30 4463 H 423.235 -4.37094 4.89167 0
M  V30 4464 H 423.152 -3.81034 6.52954 0
M  V30 4465 H 424.42 -4.90289 6.06001 0
M  V30 4466 N 428.649 -1.55105 -0.279332 0
M  V30 4467 C 429.597 -1.88333 -1.36505 0
M  V30 4468 C 430.591 -0.759043 -1.51443 0
M  V30 4469 O 431.797 -0.943312 -1.53302 0
M  V30 4470 H 428.172 -0.59766 -0.456406 0
M  V30 4471 H 430.143 -2.79041 -1.05728 0
M  V30 4472 C 428.892 -2.16628 -2.7197 0
M  V30 4473 H 428.215 -3.02624 -2.61264 0
M  V30 4474 H 429.655 -2.43803 -3.46895 0
M  V30 4475 C 428.114 -0.971807 -3.22579 0
M  V30 4476 O 428.644 -0.203228 -4.01186 0
M  V30 4477 N 426.85 -0.771238 -2.80179 0
M  V30 4478 H 426.397 -1.39792 -2.1637 0
M  V30 4479 H 426.355 0.0263667 -3.14389 0
M  V30 4480 N 430.127 0.543554 -1.4793 0
M  V30 4481 C 431.373 1.30201 -1.55485 0
M  V30 4482 C 431.706 1.92925 -0.222201 0
M  V30 4483 O 430.981 1.78586 0.77053 0
M  V30 4484 C 431.264 2.40174 -2.68307 0
M  V30 4485 C 431.117 1.8223 -4.11233 0
M  V30 4486 C 432.436 3.42024 -2.76961 0
M  V30 4487 H 429.555 0.472036 -0.565996 0
M  V30 4488 H 432.197 0.606914 -1.80046 0
M  V30 4489 H 430.347 2.99463 -2.47495 0
M  V30 4490 H 432.019 1.27096 -4.43446 0
M  V30 4491 H 430.262 1.12832 -4.18869 0
M  V30 4492 H 430.933 2.61793 -4.85972 0
M  V30 4493 H 433.409 2.92672 -2.95774 0
M  V30 4494 H 432.285 4.16383 -3.57654 0
M  V30 4495 H 432.546 4.0173 -1.84568 0
M  V30 4496 N 431.605 1.3629 0.791371 0
M  V30 4497 C 432.854 1.29742 1.54434 0
M  V30 4498 C 433.167 -0.121729 1.95221 0
M  V30 4499 O 434.373 -0.309579 2.69729 0
M  V30 4500 C 432.829 2.27623 2.78776 0
M  V30 4501 C 432.437 3.74963 2.45166 0
M  V30 4502 C 434.181 2.30047 3.56761 0
M  V30 4503 C 432.088 4.64626 3.65891 0
M  V30 4504 H 431.018 0.482113 0.579727 0
M  V30 4505 H 433.669 1.61642 0.868565 0
M  V30 4506 H 432.051 1.88714 3.48142 0
M  V30 4507 H 433.225 4.22596 1.83709 0
M  V30 4508 H 431.54 3.75295 1.80396 0
M  V30 4509 H 434.137 2.94247 4.46456 0
M  V30 4510 H 434.48 1.30846 3.95203 0
M  V30 4511 H 435.013 2.67563 2.94372 0
M  V30 4512 H 431.752 5.64883 3.32547 0
M  V30 4513 H 431.272 4.2171 4.26521 0
M  V30 4514 H 432.951 4.80801 4.32943 0
M  V30 4515 N 433.083 -1.0153 1.20538 0
M  V30 4516 C 434.494 -1.56598 1.01657 0
M  V30 4517 C 434.845 -1.91505 -0.426668 0
M  V30 4518 O 433.97 -1.72375 -1.30827 0
M  V30 4519 C 434.565 -2.84542 1.83905 0
M  V30 4520 C 433.124 -3.36133 1.69386 0
M  V30 4521 C 432.271 -2.09427 1.81757 0
M  V30 4522 H 435.222 -0.838974 1.34711 0
M  V30 4523 H 435.243 -3.56004 1.34319 0
M  V30 4524 H 434.755 -2.59105 2.8894 0
M  V30 4525 H 432.856 -3.66528 0.669933 0
M  V30 4526 H 432.969 -4.08248 2.50739 0
M  V30 4527 H 431.333 -2.21941 1.24957 0
M  V30 4528 H 432.116 -1.86414 2.88279 0
M  V30 4529 N 434.561 -1.01147 -1.20859 0
M  V30 4530 C 435.524 -0.582224 -2.21682 0
M  V30 4531 C 436.524 0.344887 -1.57058 0
M  V30 4532 O 437.714 0.134281 -1.73682 0
M  V30 4533 C 434.846 0.150496 -3.40568 0
M  V30 4534 H 436.039 -1.47408 -2.61172 0
M  V30 4535 H 433.592 -0.800695 -1.34233 0
M  V30 4536 H 434.327 1.0575 -3.06574 0
M  V30 4537 H 434.112 -0.515444 -3.88697 0
M  V30 4538 H 435.602 0.438344 -4.15293 0
M  V30 4539 N 436.039 1.36541 -0.78704 0
M  V30 4540 C 436.969 2.32659 -0.197992 0
M  V30 4541 C 437.95 1.56533 0.665697 0
M  V30 4542 O 439.135 1.84698 0.60001 0
M  V30 4543 C 436.265 3.40778 0.669901 0
M  V30 4544 C 435.219 4.27897 -0.0937039 0
M  V30 4545 C 434.545 5.27163 0.894629 0
M  V30 4546 C 435.845 5.06334 -1.28154 0
M  V30 4547 H 437.539 2.82171 -1.00099 0
M  V30 4548 H 435.085 1.35665 -0.482793 0
M  V30 4549 H 437.038 4.07008 1.09191 0
M  V30 4550 H 435.762 2.89827 1.50558 0
M  V30 4551 H 434.421 3.6322 -0.49666 0
M  V30 4552 H 434.069 4.72486 1.72527 0
M  V30 4553 H 433.769 5.86317 0.388149 0
M  V30 4554 H 435.293 5.96266 1.31525 0
M  V30 4555 H 436.707 5.65617 -0.93541 0
M  V30 4556 H 435.104 5.74888 -1.72115 0
M  V30 4557 H 436.174 4.38114 -2.07807 0
M  V30 4558 N 437.518 0.538854 1.48102 0
M  V30 4559 C 438.428 -0.222648 2.33541 0
M  V30 4560 C 439.444 -0.930225 1.47047 0
M  V30 4561 O 440.62 -0.903211 1.80011 0
M  V30 4562 C 437.685 -1.25064 3.23357 0
M  V30 4563 C 436.746 -0.552469 4.2573 0
M  V30 4564 C 435.979 -1.53149 5.11254 0
M  V30 4565 O 436.202 -2.76487 4.9891 0
M  V30 4566 O 435.136 -1.06602 5.92385 0
M  V30 4567 H 438.962 0.477707 2.99919 0
M  V30 4568 H 436.547 0.299669 1.46364 0
M  V30 4569 H 438.429 -1.8445 3.78888 0
M  V30 4570 H 437.104 -1.93325 2.59629 0
M  V30 4571 H 436.011 0.082114 3.7401 0
M  V30 4572 H 437.344 0.0883526 4.92121 0
M  V30 4573 N 438.996 -1.55193 0.274407 0
M  V30 4574 C 439.926 -2.25471 -0.607032 0
M  V30 4575 C 440.907 -1.24461 -1.15946 0
M  V30 4576 O 442.092 -1.53179 -1.19373 0
M  V30 4577 C 439.222 -2.97526 -1.79153 0
M  V30 4578 C 438.176 -4.05459 -1.37067 0
M  V30 4579 C 437.502 -4.65084 -2.6382 0
M  V30 4580 C 438.802 -5.19691 -0.521389 0
M  V30 4581 H 440.496 -2.99393 -0.0209343 0
M  V30 4582 H 438.042 -1.43997 -0.00862866 0
M  V30 4583 H 439.995 -3.45402 -2.41404 0
M  V30 4584 H 438.719 -2.21138 -2.40344 0
M  V30 4585 H 437.378 -3.58393 -0.771355 0
M  V30 4586 H 437.026 -3.85365 -3.23268 0
M  V30 4587 H 436.726 -5.37961 -2.36372 0
M  V30 4588 H 438.25 -5.15708 -3.26921 0
M  V30 4589 H 439.664 -5.63623 -1.04889 0
M  V30 4590 H 438.061 -5.99126 -0.341825 0
M  V30 4591 H 439.131 -4.82713 0.46 0
M  V30 4592 N 440.474 -0.00167713 -1.576 0
M  V30 4593 C 441.72 0.683832 -1.90923 0
M  V30 4594 C 442.053 1.7333 -0.875799 0
M  V30 4595 O 441.328 1.94215 0.10525 0
M  V30 4596 C 441.611 1.32543 -3.3482 0
M  V30 4597 C 441.464 0.287387 -4.48881 0
M  V30 4598 C 442.783 2.25114 -3.78169 0
M  V30 4599 H 439.902 0.247125 -0.694333 0
M  V30 4600 H 442.544 -0.0533149 -1.89925 0
M  V30 4601 H 440.694 1.95372 -3.35801 0
M  V30 4602 H 442.366 -0.341346 -4.60035 0
M  V30 4603 H 440.609 -0.39017 -4.32042 0
M  V30 4604 H 441.28 0.775393 -5.46527 0
M  V30 4605 H 443.756 1.723 -3.7875 0
M  V30 4606 H 442.632 2.66971 -4.79602 0
M  V30 4607 H 442.893 3.13092 -3.12131 0
M  V30 4608 N 441.952 1.55251 0.271103 0
M  V30 4609 C 442.862 1.9136 1.35714 0
M  V30 4610 C 443.878 0.811075 1.5394 0
M  V30 4611 O 445.054 1.11031 1.6803 0
M  V30 4612 C 442.119 2.1798 2.69603 0
M  V30 4613 C 441.18 3.4153 2.60107 0
M  V30 4614 C 440.413 3.66871 3.8761 0
M  V30 4615 O 440.636 2.94689 4.8838 0
M  V30 4616 O 439.57 4.60405 3.87699 0
M  V30 4617 H 443.396 2.83815 1.08088 0
M  V30 4618 H 440.981 1.41821 0.469792 0
M  V30 4619 H 442.863 2.36518 3.48765 0
M  V30 4620 H 441.538 1.28708 2.97012 0
M  V30 4621 H 440.445 3.28325 1.79314 0
M  V30 4622 H 441.778 4.31027 2.37647 0
M  V30 4623 N 443.43 -0.535701 1.48216 0
M  V30 4624 C 444.841 -1.11769 1.49548 0
M  V30 4625 C 445.192 -1.94442 0.26207 0
M  V30 4626 O 444.317 -2.06987 -0.631287 0
M  V30 4627 C 444.912 -2.03367 2.70975 0
M  V30 4628 C 443.471 -2.56795 2.75196 0
M  V30 4629 C 442.618 -1.33631 2.42977 0
M  V30 4630 H 445.569 -0.321232 1.55415 0
M  V30 4631 H 445.59 -2.87569 2.49167 0
M  V30 4632 H 445.102 -1.43169 3.60727 0
M  V30 4633 H 443.203 -3.20731 1.89638 0
M  V30 4634 H 443.316 -2.9632 3.76472 0
M  V30 4635 H 441.68 -1.6502 1.94012 0
M  V30 4636 H 442.463 -0.75194 3.34964 0
M  V30 4637 N 444.908 -1.36708 -0.784132 0
M  V30 4638 C 446.157 -1.30559 -1.53744 0
M  V30 4639 C 446.47 0.111374 -1.95283 0
M  V30 4640 O 447.676 0.29527 -2.6989 0
M  V30 4641 C 446.132 -2.29098 -2.77565 0
M  V30 4642 C 445.74 -3.76258 -2.43174 0
M  V30 4643 C 447.484 -2.31936 -3.55536 0
M  V30 4644 C 445.391 -4.6656 -3.63422 0
M  V30 4645 H 444.321 -0.48518 -0.577162 0
M  V30 4646 H 446.972 -1.62101 -0.859981 0
M  V30 4647 H 445.354 -1.90557 -3.47137 0
M  V30 4648 H 446.528 -4.23565 -1.81465 0
M  V30 4649 H 444.843 -3.76246 -1.78403 0
M  V30 4650 H 447.44 -2.9661 -4.44889 0
M  V30 4651 H 447.783 -1.3294 -3.94503 0
M  V30 4652 H 448.316 -2.6912 -2.92949 0
M  V30 4653 H 445.055 -5.66638 -3.29547 0
M  V30 4654 H 444.575 -4.23966 -4.24279 0
M  V30 4655 H 446.254 -4.8309 -4.30387 0
M  V30 4656 N 446.386 1.0089 -1.21074 0
M  V30 4657 C 447.333 2.09588 -0.966512 0
M  V30 4658 C 448.303 1.65761 0.106089 0
M  V30 4659 O 449.488 1.90758 -0.0402287 0
M  V30 4660 C 446.628 3.40958 -0.533058 0
M  V30 4661 C 445.741 3.9822 -1.67467 0
M  V30 4662 C 444.876 5.17682 -1.19076 0
M  V30 4663 C 443.915 5.67043 -2.30496 0
M  V30 4664 N 443.052 6.77759 -1.83267 0
M  V30 4665 H 447.892 2.29815 -1.89708 0
M  V30 4666 H 445.429 1.12689 -0.945489 0
M  V30 4667 H 447.387 4.1637 -0.263019 0
M  V30 4668 H 446.017 3.20781 0.360505 0
M  V30 4669 H 445.069 3.1983 -2.05944 0
M  V30 4670 H 446.381 4.3085 -2.51336 0
M  V30 4671 H 445.535 6.00326 -0.877151 0
M  V30 4672 H 444.274 4.86635 -0.322066 0
M  V30 4673 H 443.279 4.82999 -2.62664 0
M  V30 4674 H 444.504 6.00121 -3.17855 0
M  V30 4675 H 442.45 6.48527 -0.987356 0
M  V30 4676 H 442.367 7.09624 -2.60711 0
M  V30 4677 H 443.635 7.63949 -1.54928 0
M  V30 4678 N 447.864 1.01787 1.20321 0
M  V30 4679 C 448.811 0.589197 2.23153 0
M  V30 4680 C 449.781 -0.391367 1.61423 0
M  V30 4681 O 450.966 -0.290518 1.88575 0
M  V30 4682 C 448.106 -0.0650747 3.45039 0
M  V30 4683 C 447.219 0.960207 4.21194 0
M  V30 4684 C 446.354 0.276854 5.30478 0
M  V30 4685 C 445.393 1.2888 5.98378 0
M  V30 4686 N 444.53 0.632031 6.99249 0
M  V30 4687 H 449.37 1.47071 2.59179 0
M  V30 4688 H 446.907 0.736192 1.27352 0
M  V30 4689 H 448.865 -0.461552 4.14639 0
M  V30 4690 H 447.495 -0.910233 3.09701 0
M  V30 4691 H 446.547 1.47484 3.50646 0
M  V30 4692 H 447.859 1.72977 4.67847 0
M  V30 4693 H 447.013 -0.175056 6.06447 0
M  V30 4694 H 445.752 -0.525004 4.84866 0
M  V30 4695 H 444.757 1.75109 5.21169 0
M  V30 4696 H 445.982 2.09196 6.46076 0
M  V30 4697 H 443.928 -0.149935 6.55829 0
M  V30 4698 H 443.845 1.33964 7.44036 0
M  V30 4699 H 445.113 0.203755 7.79234 0
M  V30 4700 N 449.342 -1.36122 0.79427 0
M  V30 4701 C 450.292 -2.27373 0.169017 0
M  V30 4702 C 451.276 -1.4719 -0.649913 0
M  V30 4703 O 452.468 -1.69518 -0.50919 0
M  V30 4704 C 449.597 -3.36264 -0.691455 0
M  V30 4705 C 448.683 -4.2388 0.13653 0
M  V30 4706 N 449.074 -4.91519 1.19345 0
M  V30 4707 C 447.372 -4.45921 -0.0838499 0
M  V30 4708 C 448.073 -5.56369 1.6979 0
M  V30 4709 N 447.049 -5.34204 1.00634 0
M  V30 4710 H 450.851 -2.77154 0.977897 0
M  V30 4711 H 448.365 -1.49504 0.634208 0
M  V30 4712 H 450.362 -4.00572 -1.15534 0
M  V30 4713 H 449.022 -2.88037 -1.49883 0
M  V30 4714 H 450.033 -4.9334 1.57594 0
M  V30 4715 H 446.71 -4.08518 -0.861341 0
M  V30 4716 H 448.1 -6.20368 2.58055 0
M  V30 4717 N 450.82 -0.546701 -1.47814 0
M  V30 4718 C 451.73 0.21026 -2.33656 0
M  V30 4719 C 452.746 0.922413 -1.47538 0
M  V30 4720 O 453.922 0.893652 -1.80488 0
M  V30 4721 C 450.987 1.23348 -3.24016 0
M  V30 4722 C 450.048 0.529883 -4.26017 0
M  V30 4723 C 449.281 1.50435 -5.12059 0
M  V30 4724 O 449.504 2.73837 -5.00369 0
M  V30 4725 O 448.438 1.03459 -5.92942 0
M  V30 4726 H 452.264 -0.493605 -2.99662 0
M  V30 4727 H 449.849 -0.307427 -1.46203 0
M  V30 4728 H 451.731 1.82438 -3.79861 0
M  V30 4729 H 450.406 1.91945 -2.60651 0
M  V30 4730 H 449.313 -0.101948 -3.73961 0
M  V30 4731 H 450.646 -0.11445 -4.92067 0
M  V30 4732 N 452.299 1.55045 -0.282633 0
M  V30 4733 C 453.545 2.00056 0.332481 0
M  V30 4734 C 453.878 1.1708 1.54939 0
M  V30 4735 O 453.153 0.2427 1.9298 0
M  V30 4736 C 453.436 3.53086 0.70725 0
M  V30 4737 C 453.289 4.46813 -0.517521 0
M  V30 4738 C 454.608 4.12245 1.54084 0
M  V30 4739 H 451.727 0.727268 0.119373 0
M  V30 4740 H 454.369 1.85932 -0.391076 0
M  V30 4741 H 452.519 3.65253 1.32372 0
M  V30 4742 H 454.191 4.46579 -1.15607 0
M  V30 4743 H 452.434 4.18163 -1.1542 0
M  V30 4744 H 453.105 5.51595 -0.211426 0
M  V30 4745 H 455.581 4.03401 1.02013 0
M  V30 4746 H 454.457 5.19515 1.77186 0
M  V30 4747 H 454.718 3.62951 2.52427 0
M  V30 4748 N 453.777 0.010035 1.57597 0
M  V30 4749 C 455.188 -0.531426 1.78977 0
M  V30 4750 C 455.539 -1.73375 0.918454 0
M  V30 4751 O 454.664 -2.16047 0.123635 0
M  V30 4752 C 455.259 -0.97086 3.24592 0
M  V30 4753 C 453.818 -1.45756 3.47033 0
M  V30 4754 C 452.965 -0.413384 2.74201 0
M  V30 4755 H 455.916 0.236166 1.56933 0
M  V30 4756 H 455.937 -1.83633 3.33255 0
M  V30 4757 H 455.449 -0.0955893 3.87982 0
M  V30 4758 H 453.55 -2.35339 2.88871 0
M  V30 4759 H 453.663 -1.4781 4.55729 0
M  V30 4760 H 452.027 -0.877266 2.39115 0
M  V30 4761 H 452.81 0.453092 3.40297 0
M  V30 4762 N 455.255 -1.55392 -0.262866 0
M  V30 4763 C 456.218 -1.88181 -1.30846 0
M  V30 4764 C 457.218 -0.757079 -1.41862 0
M  V30 4765 O 458.408 -1.02519 -1.40838 0
M  V30 4766 C 455.54 -2.09609 -2.68844 0
M  V30 4767 H 456.733 -2.81659 -1.02997 0
M  V30 4768 H 454.286 -1.48039 -0.501414 0
M  V30 4769 H 455.021 -1.18547 -3.01856 0
M  V30 4770 H 454.806 -2.91508 -2.62231 0
M  V30 4771 H 456.296 -2.36215 -3.44372 0
M  V30 4772 N 456.733 0.527833 -1.48498 0
M  V30 4773 C 457.68 1.6322 -1.6318 0
M  V30 4774 C 458.65 1.59199 -0.473815 0
M  V30 4775 O 459.835 1.77591 -0.697563 0
M  V30 4776 C 456.975 3.01474 -1.67951 0
M  V30 4777 C 456.088 3.15713 -2.94871 0
M  V30 4778 C 455.223 4.44539 -2.90789 0
M  V30 4779 C 454.262 4.52315 -4.12404 0
M  V30 4780 N 453.399 5.72533 -4.06387 0
M  V30 4781 H 458.239 1.50011 -2.57489 0
M  V30 4782 H 455.776 0.730298 -1.27691 0
M  V30 4783 H 457.734 3.81572 -1.68698 0
M  V30 4784 H 456.364 3.1345 -0.771306 0
M  V30 4785 H 455.416 2.28854 -3.03859 0
M  V30 4786 H 456.728 3.1732 -3.8485 0
M  V30 4787 H 455.882 5.3293 -2.89949 0
M  V30 4788 H 454.621 4.45457 -1.98542 0
M  V30 4789 H 453.626 3.62331 -4.13517 0
M  V30 4790 H 454.851 4.53134 -5.05812 0
M  V30 4791 H 452.797 5.74344 -3.16962 0
M  V30 4792 H 452.714 5.75643 -4.90073 0
M  V30 4793 H 453.982 6.63204 -4.0961 0
M  V30 4794 N 458.211 1.37122 0.776871 0
M  V30 4795 C 459.436 1.354 1.57104 0
M  V30 4796 C 459.861 -0.0595562 1.88006 0
M  V30 4797 O 459.219 -1.03514 1.48844 0
M  V30 4798 C 459.267 2.19472 2.8612 0
M  V30 4799 O 458.371 1.59582 3.80273 0
M  V30 4800 H 457.712 0.462869 0.476076 0
M  V30 4801 H 460.242 1.80577 0.961932 0
M  V30 4802 H 460.252 2.32502 3.35271 0
M  V30 4803 H 458.927 3.22222 2.62956 0
M  V30 4804 H 457.504 1.55564 3.38902 0
M  V30 4805 N 459.689 -1.00246 1.21608 0
M  V30 4806 C 460.966 -1.71336 0.943568 0
M  V30 4807 C 461.346 -2.03972 -0.543943 0
M  V30 4808 O 460.694 -1.71545 -1.50946 0
M  V30 4809 C 460.904 -2.97094 1.83128 0
M  V30 4810 C 462.252 -3.70071 2.08165 0
M  V30 4811 O 463.276 -3.07081 1.80498 0
M  V30 4812 O 462.135 -4.83376 2.54971 0
M  V30 4813 H 459.229 -0.747386 0.354039 0
M  V30 4814 H 461.775 -1.05967 1.32549 0
M  V30 4815 H 460.547 -2.69407 2.83788 0
M  V30 4816 H 460.17 -3.70204 1.45034 0
M  V30 4817 N 461.167 -1.02423 -1.1978 0
M  V30 4818 C 462.413 -0.719051 -1.89625 0
M  V30 4819 C 462.746 0.750083 -1.7913 0
M  V30 4820 O 462.021 1.54574 -1.18056 0
M  V30 4821 C 462.304 -1.16499 -3.40735 0
M  V30 4822 C 462.157 -2.695 -3.60125 0
M  V30 4823 C 463.476 -0.742166 -4.33797 0
M  V30 4824 H 460.595 -0.26269 -0.688595 0
M  V30 4825 H 463.237 -1.27333 -1.41018 0
M  V30 4826 H 461.387 -0.69341 -3.82262 0
M  V30 4827 H 463.059 -3.24569 -3.278 0
M  V30 4828 H 461.302 -3.10113 -3.03336 0
M  V30 4829 H 461.973 -2.95757 -4.66081 0
M  V30 4830 H 464.449 -1.1477 -3.99959 0
M  V30 4831 H 463.325 -1.08213 -5.38127 0
M  V30 4832 H 463.586 0.355747 -4.40666 0
M  V30 4833 N 462.645 1.35699 -0.801477 0
M  V30 4834 C 463.875 2.02862 -0.3912 0
M  V30 4835 C 464.283 1.60552 1.00099 0
M  V30 4836 O 463.626 0.796215 1.65548 0
M  V30 4837 C 463.688 3.57386 -0.389299 0
M  V30 4838 C 463.352 4.22943 -1.73113 0
M  V30 4839 C 464.349 4.44984 -2.68859 0
M  V30 4840 C 462.034 4.60167 -2.01373 0
M  V30 4841 C 464.028 5.03345 -3.91053 0
M  V30 4842 C 461.715 5.18243 -3.23832 0
M  V30 4843 C 462.713 5.39773 -4.1849 0
M  V30 4844 O 462.401 5.96626 -5.38788 0
M  V30 4845 H 462.133 0.657341 -0.157732 0
M  V30 4846 H 464.687 1.74407 -1.08496 0
M  V30 4847 H 462.917 3.85011 0.361031 0
M  V30 4848 H 464.606 4.059 -0.0020365 0
M  V30 4849 H 465.372 4.1661 -2.48316 0
M  V30 4850 H 461.251 4.42726 -1.28508 0
M  V30 4851 H 464.795 5.20065 -4.64949 0
M  V30 4852 H 460.692 5.46044 -3.44248 0
M  V30 4853 H 461.46 6.15082 -5.40015 0
M  V30 4854 N 464.123 0.554532 1.47522 0
M  V30 4855 C 465.363 0.0317994 2.04375 0
M  V30 4856 C 465.727 -1.29242 1.41988 0
M  V30 4857 O 466.928 -1.90269 1.89872 0
M  V30 4858 C 465.199 -0.0623344 3.57346 0
M  V30 4859 S 466.758 -0.531578 4.35568 0
M  V30 4860 H 463.576 0.0238553 0.7106 0
M  V30 4861 H 466.178 0.74066 1.80927 0
M  V30 4862 H 464.882 0.905857 4.00278 0
M  V30 4863 H 464.413 -0.794831 3.85287 0
M  V30 4864 H 466.428 -1.79175 4.62721 0
M  V30 4865 N 465.601 -1.54893 0.290851 0
M  V30 4866 C 466.511 -2.26812 -0.59945 0
M  V30 4867 C 467.527 -1.29963 -1.15696 0
M  V30 4868 O 468.703 -1.62928 -1.18391 0
M  V30 4869 C 465.768 -2.98716 -1.75982 0
M  V30 4870 C 464.829 -4.1108 -1.2374 0
M  V30 4871 C 464.062 -4.79546 -2.34246 0
M  V30 4872 O 464.285 -4.47309 -3.53936 0
M  V30 4873 O 463.219 -5.67165 -2.01512 0
M  V30 4874 H 467.045 -3.03696 -0.0163561 0
M  V30 4875 H 464.63 -1.49289 0.0576755 0
M  V30 4876 H 466.512 -3.43851 -2.43607 0
M  V30 4877 H 465.187 -2.24737 -2.3297 0
M  V30 4878 H 464.094 -3.70367 -0.527163 0
M  V30 4879 H 465.427 -4.87007 -0.71307 0
M  V30 4880 N 467.08 -0.0183926 -1.57589 0
M  V30 4881 C 468.326 0.663543 -1.91638 0
M  V30 4882 C 468.659 1.72392 -0.894134 0
M  V30 4883 O 467.934 1.94316 0.0846449 0
M  V30 4884 C 468.217 1.28984 -3.36207 0
M  V30 4885 C 468.07 0.239761 -4.49161 0
M  V30 4886 C 469.389 2.2109 -3.80536 0
M  V30 4887 H 466.508 0.239746 -0.696915 0
M  V30 4888 H 469.15 -0.073456 -1.89858 0
M  V30 4889 H 467.3 1.91799 -3.37854 0
M  V30 4890 H 468.972 -0.390119 -4.59647 0
M  V30 4891 H 467.215 -0.435972 -4.31604 0
M  V30 4892 H 467.886 0.717383 -5.47319 0
M  V30 4893 H 470.362 1.68273 -3.80557 0
M  V30 4894 H 469.238 2.61869 -4.82406 0
M  V30 4895 H 469.499 3.09764 -3.15434 0
M  V30 4896 N 468.558 1.5553 0.254621 0
M  V30 4897 C 469.798 1.7876 0.991179 0
M  V30 4898 C 470.162 0.586669 1.82817 0
M  V30 4899 O 471.363 0.697585 2.5959 0
M  V30 4900 C 469.634 3.06679 1.83529 0
M  V30 4901 S 471.193 3.511 2.632 0
M  V30 4902 H 468.011 0.627916 0.333531 0
M  V30 4903 H 470.613 1.93766 0.259778 0
M  V30 4904 H 469.317 3.92158 1.20996 0
M  V30 4905 H 468.848 2.94388 2.60958 0
M  V30 4906 H 470.863 3.11823 3.8598 0
M  V30 4907 N 470.036 -0.519951 1.48776 0
M  V30 4908 C 470.946 -1.65025 1.66745 0
M  V30 4909 C 471.962 -1.6508 0.549954 0
M  V30 4910 O 473.138 -1.83848 0.822295 0
M  V30 4911 C 470.203 -3.0146 1.71238 0
M  V30 4912 C 469.264 -3.12182 2.94688 0
M  V30 4913 C 468.497 -4.42109 2.98958 0
M  V30 4914 O 468.72 -5.29799 2.1135 0
M  V30 4915 O 467.654 -4.57406 3.91233 0
M  V30 4916 H 471.48 -1.52801 2.62461 0
M  V30 4917 H 469.065 -0.694157 1.32294 0
M  V30 4918 H 470.947 -3.82584 1.76657 0
M  V30 4919 H 469.622 -3.13988 0.786975 0
M  V30 4920 H 468.529 -2.30316 2.94797 0
M  V30 4921 H 469.862 -3.04574 3.86646 0
M  V30 4922 N 471.514 -1.37532 -0.769588 0
M  V30 4923 C 472.761 -1.3286 -1.52822 0
M  V30 4924 C 473.089 0.0862597 -1.94309 0
M  V30 4925 O 472.344 1.05995 -1.6451 0
M  V30 4926 C 472.643 -2.21558 -2.8044 0
M  V30 4927 C 472.309 -3.69796 -2.57996 0
M  V30 4928 C 470.971 -4.10194 -2.51583 0
M  V30 4929 C 473.323 -4.63699 -2.37976 0
M  V30 4930 C 470.651 -5.42608 -2.23144 0
M  V30 4931 C 473.003 -5.96353 -2.1106 0
M  V30 4932 C 471.667 -6.35853 -2.03093 0
M  V30 4933 H 470.937 -0.486168 -0.559215 0
M  V30 4934 H 473.584 -1.69757 -0.886277 0
M  V30 4935 H 471.889 -1.77663 -3.49204 0
M  V30 4936 H 473.586 -2.15256 -3.38328 0
M  V30 4937 H 470.176 -3.37759 -2.63851 0
M  V30 4938 H 474.36 -4.33346 -2.41919 0
M  V30 4939 H 469.616 -5.72173 -2.15472 0
M  V30 4940 H 473.79 -6.68667 -1.94568 0
M  V30 4941 H 471.417 -7.38382 -1.8082 0
M  V30 4942 N 472.992 0.995999 -1.22138 0
M  V30 4943 C 473.922 2.10387 -1.01289 0
M  V30 4944 C 474.903 1.69975 0.0651454 0
M  V30 4945 O 476.088 1.9396 -0.0964628 0
M  V30 4946 C 473.218 3.42312 -0.586517 0
M  V30 4947 C 472.172 3.96558 -1.61014 0
M  V30 4948 C 471.498 5.24494 -1.0397 0
M  V30 4949 C 472.798 4.27595 -2.99933 0
M  V30 4950 H 474.492 2.28086 -1.93951 0
M  V30 4951 H 472.038 1.09607 -0.933928 0
M  V30 4952 H 473.991 4.19223 -0.427793 0
M  V30 4953 H 472.715 3.24431 0.375761 0
M  V30 4954 H 471.374 3.21776 -1.75658 0
M  V30 4955 H 471.022 5.02953 -0.0688703 0
M  V30 4956 H 470.722 5.61755 -1.72352 0
M  V30 4957 H 472.246 6.04042 -0.892494 0
M  V30 4958 H 473.66 4.95315 -2.8868 0
M  V30 4959 H 472.057 4.76021 -3.6541 0
M  V30 4960 H 473.127 3.35498 -3.50099 0
M  V30 4961 N 474.47 1.03057 1.19235 0
M  V30 4962 C 475.716 0.729098 1.89241 0
M  V30 4963 C 476.049 -0.740573 1.79525 0
M  V30 4964 O 475.324 -1.53946 1.18874 0
M  V30 4965 C 475.607 1.18304 3.40112 0
M  V30 4966 C 475.46 2.71406 3.5869 0
M  V30 4967 C 476.779 0.765161 4.33397 0
M  V30 4968 H 473.898 0.266338 0.687192 0
M  V30 4969 H 476.54 1.28079 1.40341 0
M  V30 4970 H 474.69 0.713672 3.81889 0
M  V30 4971 H 476.362 3.26303 3.26074 0
M  V30 4972 H 474.605 3.11717 3.01687 0
M  V30 4973 H 475.276 2.98225 4.64506 0
M  V30 4974 H 477.752 1.16889 3.99345 0
M  V30 4975 H 476.628 1.11065 5.37546 0
M  V30 4976 H 476.889 -0.332372 4.40849 0
M  V30 4977 N 475.948 -1.35272 0.808662 0
M  V30 4978 C 476.895 -2.29764 0.218482 0
M  V30 4979 C 477.865 -1.52911 -0.648652 0
M  V30 4980 O 479.05 -1.81341 -0.593297 0
M  V30 4981 C 476.19 -3.39388 -0.625282 0
M  V30 4982 C 475.303 -4.31202 0.262516 0
M  V30 4983 C 474.438 -5.27919 -0.589451 0
M  V30 4984 C 473.477 -6.11371 0.298617 0
M  V30 4985 N 472.614 -7.0022 -0.513443 0
M  V30 4986 H 477.454 -2.79645 1.02968 0
M  V30 4987 H 474.991 -1.37629 0.519303 0
M  V30 4988 H 476.949 -4.01615 -1.12966 0
M  V30 4989 H 475.579 -2.90777 -1.40173 0
M  V30 4990 H 474.631 -3.69962 0.885013 0
M  V30 4991 H 475.943 -4.89748 0.945971 0
M  V30 4992 H 475.097 -5.95529 -1.15888 0
M  V30 4993 H 473.836 -4.69875 -1.30647 0
M  V30 4994 H 472.841 -5.42707 0.880301 0
M  V30 4995 H 474.066 -6.71494 1.01352 0
M  V30 4996 H 472.012 -6.44662 -1.21439 0
M  V30 4997 H 471.929 -7.55917 0.111922 0
M  V30 4998 H 473.197 -7.72175 -1.06608 0
M  V30 4999 N 477.426 -0.562348 -1.47226 0
M  V30 5000 C 478.336 0.185466 -2.33866 0
M  V30 5001 C 479.352 0.906713 -1.48508 0
M  V30 5002 O 480.528 0.874458 -1.81425 0
M  V30 5003 C 477.593 1.19904 -3.25306 0
M  V30 5004 C 476.654 0.484669 -4.26555 0
M  V30 5005 C 475.887 1.44996 -5.13626 0
M  V30 5006 O 476.11 2.68515 -5.03245 0
M  V30 5007 O 475.044 0.971642 -5.94006 0
M  V30 5008 H 478.87 -0.525361 -2.99121 0
M  V30 5009 H 476.455 -0.322916 -1.45868 0
M  V30 5010 H 478.337 1.78399 -3.81774 0
M  V30 5011 H 477.012 1.8917 -2.62672 0
M  V30 5012 H 475.919 -0.141605 -3.73832 0
M  V30 5013 H 477.252 -0.166634 -4.91918 0
M  V30 5014 N 478.904 1.54736 -0.299062 0
M  V30 5015 C 480.15 2.00397 0.311244 0
M  V30 5016 C 480.483 1.18716 1.53688 0
M  V30 5017 O 479.758 0.263154 1.92712 0
M  V30 5018 C 480.041 3.53817 0.669761 0
M  V30 5019 C 479.894 4.46239 -0.564882 0
M  V30 5020 C 481.213 4.13856 1.49702 0
M  V30 5021 H 478.332 0.728493 0.111653 0
M  V30 5022 H 480.974 1.85506 -0.410774 0
M  V30 5023 H 479.124 3.66637 1.28491 0
M  V30 5024 H 480.796 4.45328 -1.20337 0
M  V30 5025 H 479.039 4.16916 -1.19849 0
M  V30 5026 H 479.71 5.5134 -0.269918 0
M  V30 5027 H 482.186 4.04461 0.977284 0
M  V30 5028 H 481.062 5.21365 1.71666 0
M  V30 5029 H 481.323 3.65608 2.48563 0
M  V30 5030 N 480.382 0.0267497 1.57577 0
M  V30 5031 C 481.61 -0.662661 1.96001 0
M  V30 5032 C 482.025 -1.65799 0.903117 0
M  V30 5033 O 481.382 -1.82135 -0.115317 0
M  V30 5034 C 481.433 -1.37112 3.34488 0
M  V30 5035 O 481.154 -0.415683 4.36123 0
M  V30 5036 C 482.655 -2.15257 3.8753 0
M  V30 5037 H 479.875 -0.18287 0.6456 0
M  V30 5038 H 482.419 0.0858116 2.0432 0
M  V30 5039 H 480.574 -2.07101 3.27395 0
M  V30 5040 H 480.988 -0.918496 5.16395 0
M  V30 5041 H 482.462 -2.60285 4.86781 0
M  V30 5042 H 482.939 -2.99063 3.21649 0
M  V30 5043 H 483.545 -1.50231 3.97883 0
M  V30 5044 N 481.861 -1.55662 -0.24637 0
M  V30 5045 C 482.808 -1.90361 -1.30504 0
M  V30 5046 C 483.778 -0.757905 -1.47801 0
M  V30 5047 O 484.963 -1.01161 -1.61775 0
M  V30 5048 C 482.103 -2.2042 -2.65535 0
M  V30 5049 C 481.216 -3.47799 -2.56242 0
M  V30 5050 C 480.351 -3.67426 -3.8363 0
M  V30 5051 C 479.39 -4.88403 -3.68956 0
M  V30 5052 N 478.527 -5.04548 -4.88237 0
M  V30 5053 H 483.367 -2.80645 -1.00213 0
M  V30 5054 H 480.904 -1.38924 -0.483577 0
M  V30 5055 H 482.862 -2.35853 -3.44135 0
M  V30 5056 H 481.492 -1.3334 -2.93973 0
M  V30 5057 H 480.544 -3.40694 -1.69208 0
M  V30 5058 H 481.856 -4.36544 -2.4131 0
M  V30 5059 H 481.01 -3.82821 -4.70673 0
M  V30 5060 H 479.749 -2.76914 -4.01459 0
M  V30 5061 H 478.754 -4.72984 -2.80296 0
M  V30 5062 H 479.979 -5.80375 -3.52621 0
M  V30 5063 H 477.925 -4.16974 -5.06427 0
M  V30 5064 H 477.842 -5.87384 -4.75937 0
M  V30 5065 H 479.11 -5.24355 -5.76777 0
M  V30 5066 N 483.339 0.512053 -1.4905 0
M  V30 5067 C 484.269 1.62365 -1.67809 0
M  V30 5068 C 485.25 1.61737 -0.526809 0
M  V30 5069 O 486.435 1.78651 -0.761404 0
M  V30 5070 C 483.565 3.00895 -1.73435 0
M  V30 5071 C 482.519 3.16387 -2.88242 0
M  V30 5072 C 481.845 4.56157 -2.78971 0
M  V30 5073 C 483.145 2.97457 -4.29321 0
M  V30 5074 H 484.839 1.46921 -2.60873 0
M  V30 5075 H 482.385 0.705379 -1.2554 0
M  V30 5076 H 484.338 3.78549 -1.85145 0
M  V30 5077 H 483.062 3.17403 -0.769619 0
M  V30 5078 H 481.721 2.41155 -2.76116 0
M  V30 5079 H 481.369 4.69525 -1.8043 0
M  V30 5080 H 481.069 4.67465 -3.5602 0
M  V30 5081 H 482.593 5.35886 -2.92675 0
M  V30 5082 H 484.007 3.64888 -4.42187 0
M  V30 5083 H 482.404 3.20245 -5.07507 0
M  V30 5084 H 483.474 1.93692 -4.44535 0
M  V30 5085 N 484.817 1.37938 0.762283 0
M  V30 5086 C 486.066 1.32989 1.51647 0
M  V30 5087 C 486.379 -0.0802922 1.95435 0
M  V30 5088 O 487.585 -0.252295 2.70325 0
M  V30 5089 C 486.041 2.33485 2.73885 0
M  V30 5090 C 485.649 3.80079 2.37157 0
M  V30 5091 C 487.393 2.37563 3.51801 0
M  V30 5092 C 485.3 4.72283 3.55954 0
M  V30 5093 H 484.23 0.494301 0.56937 0
M  V30 5094 H 486.881 1.63448 0.834083 0
M  V30 5095 H 485.263 1.96056 3.44061 0
M  V30 5096 H 486.437 4.26398 1.74704 0
M  V30 5097 H 484.752 3.79037 1.72395 0
M  V30 5098 H 487.349 3.0365 4.40114 0
M  V30 5099 H 487.692 1.39199 3.92338 0
M  V30 5100 H 488.225 2.73747 2.8863 0
M  V30 5101 H 484.964 5.7181 3.2049 0
M  V30 5102 H 484.484 4.30663 4.1748 0
M  V30 5103 H 486.163 4.89876 4.22647 0
M  V30 5104 N 486.295 -0.989507 1.22664 0
M  V30 5105 C 487.572 -1.70326 0.961688 0
M  V30 5106 C 487.952 -2.04537 -0.522279 0
M  V30 5107 O 487.3 -1.73136 -1.49118 0
M  V30 5108 C 487.51 -2.95135 1.86269 0
M  V30 5109 C 488.858 -3.67842 2.12078 0
M  V30 5110 O 489.882 -3.0515 1.83745 0
M  V30 5111 O 488.741 -4.80644 2.60083 0
M  V30 5112 H 485.835 -0.743589 0.361946 0
M  V30 5113 H 488.381 -1.04555 1.33665 0
M  V30 5114 H 487.153 -2.66382 2.8663 0
M  V30 5115 H 486.776 -3.68645 1.48952 0
M  V30 5116 N 487.773 -1.03688 -1.18687 0
M  V30 5117 C 488.721 -0.618292 -2.24232 0
M  V30 5118 C 489.715 0.353045 -1.6568 0
M  V30 5119 O 490.921 0.220749 -1.78641 0
M  V30 5120 H 487.296 -0.181711 -0.729716 0
M  V30 5121 H 489.267 -1.51893 -2.56848 0
M  V30 5122 C 488.016 0.00677342 -3.47699 0
M  V30 5123 H 487.339 -0.731692 -3.93047 0
M  V30 5124 H 488.779 0.262492 -4.23187 0
M  V30 5125 C 487.238 1.25572 -3.12623 0
M  V30 5126 O 487.768 2.34691 -3.26011 0
M  V30 5127 N 485.974 1.14755 -2.66982 0
M  V30 5128 H 485.521 0.259601 -2.56289 0
M  V30 5129 H 485.479 1.98412 -2.43885 0
M  V30 5130 N 489.251 1.34841 -0.815825 0
M  V30 5131 C 490.199 2.31549 -0.220888 0
M  V30 5132 C 491.193 1.5707 0.634457 0
M  V30 5133 O 492.399 1.72125 0.526589 0
M  V30 5134 H 488.774 0.750153 -0.0526782 0
M  V30 5135 H 490.745 2.7926 -1.05149 0
M  V30 5136 C 489.494 3.42335 0.608427 0
M  V30 5137 H 488.817 3.9978 -0.0404121 0
M  V30 5138 H 490.257 4.12258 0.990931 0
M  V30 5139 C 488.716 2.86173 1.77782 0
M  V30 5140 O 489.246 2.80474 2.87571 0
M  V30 5141 N 487.452 2.43093 1.59229 0
M  V30 5142 H 486.999 2.47928 0.699237 0
M  V30 5143 H 486.957 2.05866 2.37627 0
M  V30 5144 N 490.729 0.570148 1.46925 0
M  V30 5145 C 491.676 -0.170257 2.30171 0
M  V30 5146 C 492.646 -0.896099 1.39855 0
M  V30 5147 O 493.831 -0.889248 1.68811 0
M  V30 5148 C 490.971 -1.18605 3.24079 0
M  V30 5149 C 490.084 -0.464947 4.29491 0
M  V30 5150 C 489.219 -1.46716 5.10537 0
M  V30 5151 C 488.258 -0.731758 6.0771 0
M  V30 5152 N 487.395 -1.68142 6.81669 0
M  V30 5153 H 492.235 0.545713 2.92961 0
M  V30 5154 H 489.772 0.280938 1.44392 0
M  V30 5155 H 491.73 -1.78771 3.76957 0
M  V30 5156 H 490.36 -1.86989 2.63125 0
M  V30 5157 H 489.412 0.251506 3.79568 0
M  V30 5158 H 490.724 0.110548 4.98677 0
M  V30 5159 H 489.878 -2.14199 5.6763 0
M  V30 5160 H 488.617 -2.07658 4.41282 0
M  V30 5161 H 487.622 -0.0430787 5.49783 0
M  V30 5162 H 488.847 -0.127904 6.7898 0
M  V30 5163 H 486.793 -2.27918 6.15134 0
M  V30 5164 H 486.71 -1.15841 7.47072 0
M  V30 5165 H 487.978 -2.347 7.43328 0
M  V30 5166 N 492.207 -1.54576 0.307264 0
M  V30 5167 C 493.435 -2.04675 -0.302597 0
M  V30 5168 C 493.85 -1.18425 -1.47041 0
M  V30 5169 O 493.207 -0.211257 -1.81273 0
M  V30 5170 C 493.258 -3.53575 -0.752801 0
M  V30 5171 O 492.979 -4.36547 0.368536 0
M  V30 5172 C 494.48 -4.19699 -1.42717 0
M  V30 5173 H 491.7 -0.66786 -0.0648374 0
M  V30 5174 H 494.244 -1.99516 0.448716 0
M  V30 5175 H 492.399 -3.59074 -1.45412 0
M  V30 5176 H 492.813 -5.24497 0.0168937 0
M  V30 5177 H 494.287 -5.25388 -1.69327 0
M  V30 5178 H 494.764 -3.69815 -2.36925 0
M  V30 5179 H 495.37 -4.18293 -0.768856 0
M  V30 5180 N 493.685 -0.035106 -1.57561 0
M  V30 5181 C 494.595 0.960295 -2.14046 0
M  V30 5182 C 495.611 1.3529 -1.0942 0
M  V30 5183 O 496.787 1.43309 -1.41508 0
M  V30 5184 C 493.852 2.22214 -2.66124 0
M  V30 5185 C 492.913 1.8894 -3.85487 0
M  V30 5186 C 492.146 3.09109 -4.35072 0
M  V30 5187 O 492.369 4.21963 -3.83802 0
M  V30 5188 O 491.303 2.91058 -5.26848 0
M  V30 5189 H 495.129 0.509983 -2.99387 0
M  V30 5190 H 492.714 0.185853 -1.48239 0
M  V30 5191 H 494.596 2.96279 -2.99661 0
M  V30 5192 H 493.271 2.66414 -1.83862 0
M  V30 5193 H 492.178 1.12241 -3.56865 0
M  V30 5194 H 493.511 1.49551 -4.6893 0
M  V30 5195 N 495.163 1.55791 0.238111 0
M  V30 5196 C 496.11 1.9105 1.29493 0
M  V30 5197 C 497.08 0.765733 1.47397 0
M  V30 5198 O 498.265 1.02017 1.61236 0
M  V30 5199 C 495.405 2.21826 2.64362 0
M  V30 5200 C 494.518 3.49153 2.54394 0
M  V30 5201 C 493.653 3.69455 3.81676 0
M  V30 5202 C 492.692 4.90353 3.66361 0
M  V30 5203 N 491.829 5.07131 4.85554 0
M  V30 5204 H 496.669 2.81172 0.987233 0
M  V30 5205 H 494.206 1.39179 0.476203 0
M  V30 5206 H 496.164 2.37675 3.4288 0
M  V30 5207 H 494.794 1.34897 2.93262 0
M  V30 5208 H 493.846 3.41587 1.67399 0
M  V30 5209 H 495.158 4.37818 2.38991 0
M  V30 5210 H 494.312 3.85311 4.68636 0
M  V30 5211 H 493.051 2.7904 3.99985 0
M  V30 5212 H 492.056 4.74464 2.77784 0
M  V30 5213 H 493.281 5.82237 3.49538 0
M  V30 5214 H 491.227 4.19654 5.04209 0
M  V30 5215 H 491.144 5.89899 4.72816 0
M  V30 5216 H 492.412 5.27407 5.73988 0
M  V30 5217 N 496.642 -0.504142 1.49319 0
M  V30 5218 C 497.552 -1.63248 1.68486 0
M  V30 5219 C 498.568 -1.64488 0.567432 0
M  V30 5220 O 499.744 -1.82966 0.841749 0
M  V30 5221 C 496.809 -2.99627 1.74426 0
M  V30 5222 C 495.87 -3.09039 2.97982 0
M  V30 5223 C 495.103 -4.38913 3.0363 0
M  V30 5224 O 495.326 -5.27528 2.16958 0
M  V30 5225 O 494.26 -4.53231 3.96062 0
M  V30 5226 H 498.086 -1.50008 2.64067 0
M  V30 5227 H 495.671 -0.680086 1.33023 0
M  V30 5228 H 497.553 -3.80689 1.80705 0
M  V30 5229 H 496.228 -3.13136 0.820233 0
M  V30 5230 H 495.135 -2.27177 2.97223 0
M  V30 5231 H 496.468 -3.00456 3.89855 0
M  V30 5232 N 498.12 -1.38341 -0.754957 0
M  V30 5233 C 499.369 -1.33791 -1.5094 0
M  V30 5234 C 499.682 0.0699267 -1.95475 0
M  V30 5235 O 500.888 0.237956 -2.70455 0
M  V30 5236 C 499.344 -2.34934 -2.72643 0
M  V30 5237 C 498.952 -3.81332 -2.35138 0
M  V30 5238 C 500.696 -2.39425 -3.50536 0
M  V30 5239 C 498.603 -4.74164 -3.53444 0
M  V30 5240 H 497.533 -0.497314 -0.566741 0
M  V30 5241 H 500.184 -1.63888 -0.825403 0
M  V30 5242 H 498.566 -1.97878 -3.43017 0
M  V30 5243 H 499.74 -4.27319 -1.7244 0
M  V30 5244 H 498.055 -3.79946 -1.70382 0
M  V30 5245 H 500.652 -3.0598 -4.38498 0
M  V30 5246 H 500.995 -1.41278 -3.91594 0
M  V30 5247 H 501.528 -2.75274 -2.87174 0
M  V30 5248 H 498.267 -5.73501 -3.17453 0
M  V30 5249 H 497.787 -4.3287 -4.15191 0
M  V30 5250 H 499.466 -4.92111 -4.20043 0
M  V30 5251 N 499.598 0.982988 -1.23187 0
M  V30 5252 C 500.528 2.09301 -1.03515 0
M  V30 5253 C 501.509 1.70035 0.0471136 0
M  V30 5254 O 502.694 1.93847 -0.117029 0
M  V30 5255 C 499.824 3.4167 -0.622791 0
M  V30 5256 C 498.778 3.94828 -1.65211 0
M  V30 5257 C 498.104 5.23362 -1.09527 0
M  V30 5258 C 499.404 4.2439 -3.04451 0
M  V30 5259 H 501.098 2.26016 -1.96359 0
M  V30 5260 H 498.644 1.08611 -0.945501 0
M  V30 5261 H 500.597 4.18746 -0.472233 0
M  V30 5262 H 499.321 3.24811 0.341329 0
M  V30 5263 H 497.98 3.19895 -1.79061 0
M  V30 5264 H 497.628 5.02852 -0.122211 0
M  V30 5265 H 497.328 5.59895 -1.783 0
M  V30 5266 H 498.852 6.03062 -0.956511 0
M  V30 5267 H 500.266 4.92225 -2.93917 0
M  V30 5268 H 498.663 4.72118 -3.70438 0
M  V30 5269 H 499.733 3.31765 -3.53638 0
M  V30 5270 N 501.076 1.04316 1.18135 0
M  V30 5271 C 502.353 0.662166 1.84051 0
M  V30 5272 C 502.733 -0.858169 1.9287 0
M  V30 5273 O 502.081 -1.76062 1.45652 0
M  V30 5274 C 502.291 1.3409 3.22212 0
M  V30 5275 C 503.639 1.4733 3.9822 0
M  V30 5276 O 504.663 1.29921 3.31661 0
M  V30 5277 O 503.522 1.75722 5.17479 0
M  V30 5278 H 500.616 0.232005 0.79379 0
M  V30 5279 H 503.162 1.1422 1.25506 0
M  V30 5280 H 501.934 2.37853 3.10711 0
M  V30 5281 H 501.557 0.849649 3.88416 0
M  V30 5282 N 502.554 -1.34406 0.822964 0
M  V30 5283 C 503.517 -2.2783 0.250271 0
M  V30 5284 C 504.517 -1.50288 -0.571854 0
M  V30 5285 O 505.707 -1.69825 -0.387952 0
M  V30 5286 C 502.839 -3.34663 -0.649137 0
M  V30 5287 H 504.032 -2.79992 1.07444 0
M  V30 5288 H 501.585 -1.44539 0.594829 0
M  V30 5289 H 502.32 -2.87714 -1.49637 0
M  V30 5290 H 502.105 -3.92052 -0.0611199 0
M  V30 5291 H 503.595 -4.04349 -1.04363 0
M  V30 5292 N 504.032 -0.577932 -1.46621 0
M  V30 5293 C 505.279 -0.0616879 -2.02406 0
M  V30 5294 C 505.607 1.29638 -1.44997 0
M  V30 5295 O 504.862 1.86176 -0.60308 0
M  V30 5296 C 505.161 0.0590832 -3.57351 0
M  V30 5297 C 504.827 -1.23077 -4.33777 0
M  V30 5298 C 503.489 -1.58416 -4.54376 0
M  V30 5299 C 505.841 -2.08457 -4.77698 0
M  V30 5300 C 503.169 -2.78943 -5.16147 0
M  V30 5301 C 505.521 -3.28204 -5.408 0
M  V30 5302 C 504.185 -3.63832 -5.59627 0
M  V30 5303 H 503.455 -0.0225732 -0.740656 0
M  V30 5304 H 506.102 -0.753609 -1.76048 0
M  V30 5305 H 504.407 0.834104 -3.82818 0
M  V30 5306 H 506.104 0.474202 -3.98186 0
M  V30 5307 H 502.694 -0.945652 -4.18038 0
M  V30 5308 H 506.878 -1.82459 -4.61544 0
M  V30 5309 H 502.134 -3.06689 -5.28916 0
M  V30 5310 H 506.308 -3.94634 -5.73792 0
M  V30 5311 H 503.935 -4.57315 -6.07262 0
M  V30 5312 N 505.51 1.54411 -0.315457 0
M  V30 5313 C 506.787 1.92562 0.343398 0
M  V30 5314 C 507.167 1.24423 1.70535 0
M  V30 5315 O 506.515 0.385051 2.25232 0
M  V30 5316 C 506.725 3.46168 0.443687 0
M  V30 5317 C 508.073 4.18659 0.707783 0
M  V30 5318 O 509.097 3.52281 0.52693 0
M  V30 5319 O 507.956 5.36198 1.05612 0
M  V30 5320 H 505.05 0.80379 0.194552 0
M  V30 5321 H 507.596 1.65738 -0.364577 0
M  V30 5322 H 506.368 3.8792 -0.513172 0
M  V30 5323 H 505.991 3.79073 1.19956 0
M  V30 5324 N 506.988 0.0434614 1.5754 0
M  V30 5325 C 507.935 -0.93356 2.11077 0
M  V30 5326 C 508.905 -1.31383 1.01626 0
M  V30 5327 O 510.09 -1.40465 1.29129 0
M  V30 5328 C 507.23 -2.20578 2.65404 0
M  V30 5329 C 506.343 -1.88068 3.88914 0
M  V30 5330 C 505.478 -3.09691 4.31584 0
M  V30 5331 C 504.517 -2.73067 5.47815 0
M  V30 5332 N 503.654 -3.87359 5.85574 0
M  V30 5333 H 508.494 -0.470118 2.94268 0
M  V30 5334 H 506.031 -0.220434 1.45439 0
M  V30 5335 H 507.989 -2.95011 2.94999 0
M  V30 5336 H 506.619 -2.64513 1.85021 0
M  V30 5337 H 505.671 -1.03816 3.6596 0
M  V30 5338 H 506.983 -1.57104 4.73413 0
M  V30 5339 H 506.137 -3.92431 4.62691 0
M  V30 5340 H 504.876 -3.43827 3.45882 0
M  V30 5341 H 503.881 -1.88742 5.16388 0
M  V30 5342 H 505.106 -2.40131 6.35227 0
M  V30 5343 H 503.052 -4.21311 5.02825 0
M  V30 5344 H 502.969 -3.60068 6.64746 0
M  V30 5345 H 504.237 -4.70761 6.21292 0
M  V30 5346 N 508.466 -1.55915 -0.229846 0
M  V30 5347 C 509.399 -1.86734 -1.3117 0
M  V30 5348 C 510.377 -0.723947 -1.45595 0
M  V30 5349 O 511.561 -0.971462 -1.61539 0
M  V30 5350 C 508.688 -2.06707 -2.68309 0
M  V30 5351 C 507.734 -3.2938 -2.70944 0
M  V30 5352 S 508.567 -4.85547 -2.25842 0
M  V30 5353 C 509.723 -5.08546 -3.64873 0
M  V30 5354 H 509.956 -2.78204 -1.04832 0
M  V30 5355 H 507.489 -1.48243 -0.431681 0
M  V30 5356 H 509.447 -2.18898 -3.47267 0
M  V30 5357 H 508.108 -1.16049 -2.91876 0
M  V30 5358 H 507.301 -3.40374 -3.71701 0
M  V30 5359 H 506.903 -3.16004 -2.00044 0
M  V30 5360 H 509.195 -4.96935 -4.60502 0
M  V30 5361 H 510.138 -6.10465 -3.58801 0
M  V30 5362 H 510.546 -4.36314 -3.58176 0
M  V30 5363 N 509.944 0.496216 -1.49584 0
M  V30 5364 C 511.184 1.26015 -1.60933 0
M  V30 5365 C 511.548 1.89772 -0.291646 0
M  V30 5366 O 512.749 2.67334 -0.280357 0
M  V30 5367 C 511.02 2.29506 -2.73974 0
M  V30 5368 S 512.579 3.15175 -3.05303 0
M  V30 5369 H 509.397 0.428194 -0.567601 0
M  V30 5370 H 511.999 0.561484 -1.87263 0
M  V30 5371 H 510.703 1.81205 -3.68229 0
M  V30 5372 H 510.234 3.04036 -2.49651 0
M  V30 5373 H 512.249 4.30244 -2.47193 0
M  V30 5374 N 511.423 1.38739 0.74761 0
M  V30 5375 C 512.648 1.38702 1.54197 0
M  V30 5376 C 513.073 -0.019664 1.8809 0
M  V30 5377 O 512.431 -1.00333 1.51006 0
M  V30 5378 C 512.479 2.25492 2.814 0
M  V30 5379 O 511.583 1.67613 3.76802 0
M  V30 5380 H 510.924 0.472863 0.466151 0
M  V30 5381 H 513.454 1.82577 0.923413 0
M  V30 5382 H 513.464 2.39561 3.30264 0
M  V30 5383 H 512.139 3.27727 2.56062 0
M  V30 5384 H 510.716 1.62718 3.35526 0
M  V30 5385 N 512.901 -0.976442 1.23707 0
M  V30 5386 C 513.848 -2.06952 1.02174 0
M  V30 5387 C 514.818 -1.65984 -0.0621034 0
M  V30 5388 O 516.003 -1.90584 0.0907906 0
M  V30 5389 C 513.143 -3.39425 0.62327 0
M  V30 5390 C 512.256 -3.9364 1.77966 0
M  V30 5391 C 511.391 -5.14343 1.3276 0
M  V30 5392 C 510.43 -5.60733 2.45449 0
M  V30 5393 N 509.567 -6.72662 2.01172 0
M  V30 5394 H 514.407 -2.24704 1.95734 0
M  V30 5395 H 511.944 -1.10143 0.975034 0
M  V30 5396 H 513.902 -4.15526 0.37332 0
M  V30 5397 H 512.532 -3.21624 -0.275329 0
M  V30 5398 H 511.584 -3.14258 2.14351 0
M  V30 5399 H 512.896 -4.24035 2.62671 0
M  V30 5400 H 512.05 -5.97789 1.03601 0
M  V30 5401 H 510.789 -4.8561 0.450975 0
M  V30 5402 H 509.794 -4.75865 2.75378 0
M  V30 5403 H 511.019 -5.91483 3.33654 0
M  V30 5404 H 508.965 -6.45681 1.15895 0
M  V30 5405 H 508.882 -7.02462 2.79434 0
M  V30 5406 H 510.15 -7.59572 1.75129 0
M  V30 5407 N 514.379 -1.04941 -1.1758 0
M  V30 5408 C 515.309 -0.669172 -2.23706 0
M  V30 5409 C 516.29 0.331835 -1.66832 0
M  V30 5410 O 517.475 0.209988 -1.93061 0
M  V30 5411 C 514.605 -0.0404889 -3.47276 0
M  V30 5412 C 513.559 -0.965983 -4.16957 0
M  V30 5413 C 512.885 -0.201312 -5.34321 0
M  V30 5414 C 514.185 -2.28902 -4.69469 0
M  V30 5415 H 515.879 -1.55639 -2.55767 0
M  V30 5416 H 513.425 -0.749793 -1.22939 0
M  V30 5417 H 515.378 0.237298 -4.20731 0
M  V30 5418 H 514.102 0.881658 -3.14475 0
M  V30 5419 H 512.761 -1.22829 -3.45411 0
M  V30 5420 H 512.409 0.723519 -4.97769 0
M  V30 5421 H 512.109 -0.817968 -5.81879 0
M  V30 5422 H 513.633 0.0692499 -6.10561 0
M  V30 5423 H 515.047 -2.07132 -5.34574 0
M  V30 5424 H 513.444 -2.85942 -5.27596 0
M  V30 5425 H 514.514 -2.92937 -3.86414 0
M  V30 5426 N 515.857 1.33968 -0.830081 0
M  V30 5427 C 517.268 1.80439 -0.479455 0
M  V30 5428 C 517.619 1.68756 1.00079 0
M  V30 5429 O 516.744 1.23171 1.77927 0
M  V30 5430 C 517.339 3.27611 -0.863505 0
M  V30 5431 C 515.898 3.72133 -0.565145 0
M  V30 5432 C 515.045 2.55549 -1.07657 0
M  V30 5433 H 517.996 1.21614 -1.0196 0
M  V30 5434 H 518.017 3.8012 -0.170083 0
M  V30 5435 H 517.529 3.36082 -1.94089 0
M  V30 5436 H 515.63 3.69196 0.502536 0
M  V30 5437 H 515.743 4.65963 -1.11422 0
M  V30 5438 H 514.107 2.49788 -0.497807 0
M  V30 5439 H 514.89 2.66786 -2.16055 0
M  V30 5440 N 517.335 0.585699 1.46312 0
M  V30 5441 C 518.282 -0.145835 2.30339 0
M  V30 5442 C 519.252 -0.881215 1.40797 0
M  V30 5443 O 520.437 -0.871293 1.69744 0
M  V30 5444 C 517.577 -1.15161 3.25318 0
M  V30 5445 C 516.69 -0.419367 4.2996 0
M  V30 5446 C 515.825 -1.41293 5.12064 0
M  V30 5447 C 514.864 -0.667261 6.08452 0
M  V30 5448 N 514.001 -1.60903 6.83414 0
M  V30 5449 H 518.841 0.576755 2.92365 0
M  V30 5450 H 516.378 0.296237 1.44086 0
M  V30 5451 H 518.336 -1.74763 3.78832 0
M  V30 5452 H 516.966 -1.84188 2.65094 0
M  V30 5453 H 516.018 0.291751 3.7928 0
M  V30 5454 H 517.33 0.163433 4.98532 0
M  V30 5455 H 516.484 -2.08167 5.6987 0
M  V30 5456 H 515.223 -2.02966 4.43459 0
M  V30 5457 H 514.228 0.0152356 5.49798 0
M  V30 5458 H 515.453 -0.0558817 6.79077 0
M  V30 5459 H 513.399 -2.21381 6.17516 0
M  V30 5460 H 513.316 -1.07911 7.48259 0
M  V30 5461 H 514.584 -2.26802 7.45775 0
M  V30 5462 N 518.813 -1.54241 0.323641 0
M  V30 5463 C 520.038 -2.05452 -0.283605 0
M  V30 5464 C 520.463 -1.19823 -1.44997 0
M  V30 5465 O 519.821 -0.207358 -1.8011 0
M  V30 5466 C 519.869 -3.53823 -0.695795 0
M  V30 5467 O 518.973 -3.71134 -1.79815 0
M  V30 5468 H 518.314 -0.662024 -0.0511917 0
M  V30 5469 H 520.844 -1.99079 0.472073 0
M  V30 5470 H 520.854 -3.96094 -0.978434 0
M  V30 5471 H 519.529 -4.15602 0.157287 0
M  V30 5472 H 518.106 -3.40768 -1.51431 0
M  V30 5473 N 520.291 -0.0518155 -1.57515 0
M  V30 5474 C 521.221 0.920283 -2.146 0
M  V30 5475 C 522.202 1.32406 -1.06783 0
M  V30 5476 O 523.387 1.39866 -1.34726 0
M  V30 5477 C 520.517 2.1949 -2.6915 0
M  V30 5478 C 519.471 1.93116 -3.81956 0
M  V30 5479 C 518.797 3.27037 -4.23026 0
M  V30 5480 C 520.097 1.25225 -5.07066 0
M  V30 5481 H 521.791 0.444801 -2.96077 0
M  V30 5482 H 519.337 0.212508 -1.42423 0
M  V30 5483 H 521.29 2.87894 -3.07725 0
M  V30 5484 H 520.014 2.69244 -1.84865 0
M  V30 5485 H 518.673 1.27123 -3.43854 0
M  V30 5486 H 518.321 3.74595 -3.3569 0
M  V30 5487 H 518.021 3.10189 -4.99056 0
M  V30 5488 H 519.545 3.96673 -4.64202 0
M  V30 5489 H 520.959 1.83666 -5.43083 0
M  V30 5490 H 519.356 1.18702 -5.88243 0
M  V30 5491 H 520.426 0.228382 -4.84362 0
M  V30 5492 N 521.769 1.56035 0.221574 0
M  V30 5493 C 522.994 1.83476 0.967026 0
M  V30 5494 C 523.419 0.632139 1.7716 0
M  V30 5495 O 522.777 -0.419082 1.7639 0
M  V30 5496 C 522.825 3.08907 1.86034 0
M  V30 5497 O 521.929 2.876 2.95567 0
M  V30 5498 H 521.27 0.604913 0.273817 0
M  V30 5499 H 523.8 2.03247 0.234893 0
M  V30 5500 H 523.81 3.3901 2.27016 0
M  V30 5501 H 522.485 3.96068 1.26898 0
M  V30 5502 H 521.062 2.6873 2.58532 0
M  V30 5503 N 523.247 -0.488276 1.49845 0
M  V30 5504 C 524.157 -1.61451 1.70207 0
M  V30 5505 C 525.173 -1.63877 0.584846 0
M  V30 5506 O 526.349 -1.82063 0.861107 0
M  V30 5507 C 523.414 -2.9776 1.77594 0
M  V30 5508 C 522.475 -3.05861 3.01243 0
M  V30 5509 C 521.708 -4.35668 3.08268 0
M  V30 5510 O 521.931 -5.25197 2.22541 0
M  V30 5511 O 520.865 -4.49005 4.00847 0
M  V30 5512 H 524.691 -1.47199 2.65643 0
M  V30 5513 H 522.276 -0.665939 1.33737 0
M  V30 5514 H 524.158 -3.7875 1.84732 0
M  V30 5515 H 522.833 -3.12248 0.8534 0
M  V30 5516 H 521.74 -2.24012 2.99616 0
M  V30 5517 H 523.073 -2.96304 3.9302 0
M  V30 5518 N 524.725 -1.39134 -0.740242 0
M  V30 5519 C 525.635 -1.39697 -1.88473 0
M  V30 5520 C 526.651 -0.292403 -1.71526 0
M  V30 5521 O 527.827 -0.533021 -1.94219 0
M  V30 5522 C 524.892 -1.23382 -3.24003 0
M  V30 5523 C 523.953 -2.43763 -3.53381 0
M  V30 5524 C 523.186 -2.28216 -4.82445 0
M  V30 5525 O 523.409 -1.28288 -5.55786 0
M  V30 5526 O 522.343 -3.1709 -5.11603 0
M  V30 5527 H 526.169 -2.36159 -1.90952 0
M  V30 5528 H 523.754 -1.20194 -0.887346 0
M  V30 5529 H 525.636 -1.16395 -4.05006 0
M  V30 5530 H 524.311 -0.300121 -3.22306 0
M  V30 5531 H 523.218 -2.56325 -2.72485 0
M  V30 5532 H 524.551 -3.35808 -3.59852 0
M  V30 5533 N 526.204 0.969867 -1.24223 0
M  V30 5534 C 527.444 1.72754 -1.0925 0
M  V30 5535 C 527.808 1.88541 0.362787 0
M  V30 5536 O 529.009 2.61217 0.633969 0
M  V30 5537 C 527.28 3.08204 -1.80957 0
M  V30 5538 S 528.839 3.99418 -1.81688 0
M  V30 5539 H 525.657 0.593981 -0.390778 0
M  V30 5540 H 528.259 1.15792 -1.5752 0
M  V30 5541 H 526.963 2.94372 -2.85961 0
M  V30 5542 H 526.494 3.70232 -1.33012 0
M  V30 5543 H 528.509 4.8828 -0.883001 0
M  V30 5544 N 527.682 1.05563 1.17022 0
M  V30 5545 C 528.614 0.617888 2.20714 0
M  V30 5546 C 529.627 -0.320303 1.59618 0
M  V30 5547 O 530.816 -0.112449 1.78145 0
M  V30 5548 C 527.916 -0.115333 3.38704 0
M  V30 5549 C 527.089 0.834493 4.29366 0
M  V30 5550 C 526.148 0.141855 5.26009 0
M  V30 5551 O 525.174 0.777151 5.6387 0
M  V30 5552 N 526.376 -1.11934 5.69606 0
M  V30 5553 H 529.141 1.50981 2.58892 0
M  V30 5554 H 526.702 0.938008 1.31958 0
M  V30 5555 H 528.694 -0.588918 4.00392 0
M  V30 5556 H 527.264 -0.908967 2.99093 0
M  V30 5557 H 526.484 1.48762 3.65053 0
M  V30 5558 H 527.772 1.4791 4.86827 0
M  V30 5559 H 527.17 -1.65574 5.40927 0
M  V30 5560 H 525.727 -1.53692 6.33421 0
M  V30 5561 N 529.16 -1.33526 0.837174 0
M  V30 5562 C 530.07 -2.33023 0.271568 0
M  V30 5563 C 531.086 -1.63272 -0.601514 0
M  V30 5564 O 532.262 -1.94939 -0.506038 0
M  V30 5565 C 529.327 -3.42382 -0.545448 0
M  V30 5566 C 528.388 -4.27857 0.351709 0
M  V30 5567 C 527.621 -5.31994 -0.426409 0
M  V30 5568 O 527.844 -5.45763 -1.65828 0
M  V30 5569 O 526.778 -6.01572 0.1987 0
M  V30 5570 H 530.604 -2.83256 1.09545 0
M  V30 5571 H 528.189 -1.36837 0.599655 0
M  V30 5572 H 530.071 -4.09122 -1.00979 0
M  V30 5573 H 528.746 -2.94369 -1.34641 0
M  V30 5574 H 527.653 -3.6399 0.863853 0
M  V30 5575 H 528.986 -4.79349 1.1174 0
M  V30 5576 N 530.638 -0.59345 -1.46 0
M  V30 5577 C 531.884 -0.0832754 -2.02629 0
M  V30 5578 C 532.217 1.27749 -1.46266 0
M  V30 5579 O 531.492 1.8395 -0.631866 0
M  V30 5580 C 531.775 -0.0290756 -3.60088 0
M  V30 5581 C 531.628 -1.41951 -4.26814 0
M  V30 5582 C 532.947 0.666055 -4.35031 0
M  V30 5583 H 530.066 -0.031736 -0.736316 0
M  V30 5584 H 532.708 -0.762711 -1.74019 0
M  V30 5585 H 530.858 0.549532 -3.84594 0
M  V30 5586 H 532.53 -2.04411 -4.13538 0
M  V30 5587 H 530.773 -1.98422 -3.8576 0
M  V30 5588 H 531.444 -1.33395 -5.3564 0
M  V30 5589 H 533.92 0.174401 -4.15734 0
M  V30 5590 H 532.796 0.673041 -5.44758 0
M  V30 5591 H 533.057 1.72946 -4.06869 0
M  V30 5592 N 532.116 1.54067 -0.331816 0
M  V30 5593 C 533.362 2.01012 0.268667 0
M  V30 5594 C 533.695 1.2195 1.51136 0
M  V30 5595 O 532.97 0.303972 1.9211 0
M  V30 5596 C 533.253 3.55158 0.59456 0
M  V30 5597 C 533.106 4.4494 -0.659409 0
M  V30 5598 C 534.425 4.16939 1.4089 0
M  V30 5599 H 531.544 0.730698 0.0961756 0
M  V30 5600 H 534.186 1.84593 -0.450031 0
M  V30 5601 H 532.336 3.6928 1.20685 0
M  V30 5602 H 534.008 4.42675 -1.29756 0
M  V30 5603 H 532.251 4.1428 -1.28665 0
M  V30 5604 H 532.922 5.50643 -0.386804 0
M  V30 5605 H 535.398 4.06443 0.891272 0
M  V30 5606 H 534.274 5.24889 1.60569 0
M  V30 5607 H 534.535 3.70798 2.40752 0
M  V30 5608 N 533.594 0.0601682 1.57485 0
M  V30 5609 C 534.871 -0.651956 1.84415 0
M  V30 5610 C 535.251 -1.88498 0.950361 0
M  V30 5611 O 534.599 -2.28496 0.0136719 0
M  V30 5612 C 534.809 -1.00069 3.34346 0
M  V30 5613 C 536.157 -1.37915 4.01578 0
M  V30 5614 O 537.181 -1.09277 3.39024 0
M  V30 5615 O 536.04 -1.91399 5.11887 0
M  V30 5616 H 533.134 -0.322668 0.761455 0
M  V30 5617 H 535.68 0.0902159 1.6946 0
M  V30 5618 H 534.452 -0.124463 3.91102 0
M  V30 5619 H 534.075 -1.80001 3.54521 0
M  V30 5620 N 535.072 -1.5615 -0.213296 0
M  V30 5621 C 536.3 -1.83638 -0.953139 0
M  V30 5622 C 536.715 -0.640362 -1.77609 0
M  V30 5623 O 536.072 0.391071 -1.78261 0
M  V30 5624 C 536.123 -3.09735 -1.86405 0
M  V30 5625 O 535.844 -4.24723 -1.07435 0
M  V30 5626 C 537.345 -3.5027 -2.71709 0
M  V30 5627 H 534.565 -0.610263 -0.278962 0
M  V30 5628 H 537.109 -2.03247 -0.226035 0
M  V30 5629 H 535.264 -2.92077 -2.545 0
M  V30 5630 H 535.678 -4.9641 -1.69343 0
M  V30 5631 H 537.152 -4.41515 -3.31313 0
M  V30 5632 H 537.629 -2.72406 -3.44516 0
M  V30 5633 H 538.235 -3.70396 -2.09015 0
M  V30 5634 N 536.55 0.480323 -1.50102 0
M  V30 5635 C 537.78 1.25475 -1.64133 0
M  V30 5636 C 538.188 1.8647 -0.320272 0
M  V30 5637 O 537.531 1.69561 0.70673 0
M  V30 5638 C 537.593 2.40996 -2.6676 0
M  V30 5639 C 537.257 2.00711 -4.10565 0
M  V30 5640 C 538.254 1.53492 -4.96725 0
M  V30 5641 C 535.939 2.09714 -4.56427 0
M  V30 5642 C 537.933 1.15806 -6.26792 0
M  V30 5643 C 535.62 1.7164 -5.86501 0
M  V30 5644 C 536.618 1.24763 -6.71508 0
M  V30 5645 O 536.306 0.872122 -7.99155 0
M  V30 5646 H 536.038 0.385983 -0.554971 0
M  V30 5647 H 538.592 0.580848 -1.97016 0
M  V30 5648 H 536.822 3.11528 -2.291 0
M  V30 5649 H 538.511 3.02981 -2.70106 0
M  V30 5650 H 539.277 1.45966 -4.62514 0
M  V30 5651 H 535.156 2.4515 -3.90413 0
M  V30 5652 H 538.7 0.791465 -6.93096 0
M  V30 5653 H 534.597 1.78822 -6.20236 0
M  V30 5654 H 535.365 1.00178 -8.12346 0
M  V30 5655 N 538.028 1.39524 0.732853 0
M  V30 5656 C 539.276 1.36594 1.48951 0
M  V30 5657 C 539.597 -0.0367507 1.94965 0
M  V30 5658 O 538.867 -0.988391 1.69138 0
M  V30 5659 H 537.447 0.502673 0.552566 0
M  V30 5660 H 540.109 1.74411 0.869869 0
M  V30 5661 H 539.205 2.03 2.3706 0
M  V30 5662 N 539.506 -0.963266 1.24736 0
M  V30 5663 C 540.731 -1.74699 1.11781 0
M  V30 5664 C 541.156 -1.85267 -0.325258 0
M  V30 5665 O 540.514 -1.32681 -1.23553 0
M  V30 5666 C 540.562 -3.14322 1.76731 0
M  V30 5667 O 539.666 -3.99043 1.04109 0
M  V30 5668 H 539.007 -0.53684 0.390767 0
M  V30 5669 H 541.537 -1.20801 1.65131 0
M  V30 5670 H 541.547 -3.64824 1.82668 0
M  V30 5671 H 540.222 -3.05946 2.81726 0
M  V30 5672 H 538.799 -3.5752 1.05991 0
M  V30 5673 N 540.985 -1.06182 -1.16461 0
M  V30 5674 C 542.21 -0.798599 -1.91408 0
M  V30 5675 C 542.635 0.640987 -1.76842 0
M  V30 5676 O 541.993 1.44652 -1.09296 0
M  V30 5677 C 542.041 -1.19665 -3.40165 0
M  V30 5678 O 541.145 -0.334768 -4.11039 0
M  V30 5679 H 540.486 -0.291961 -0.596368 0
M  V30 5680 H 543.016 -1.41732 -1.47557 0
M  V30 5681 H 543.026 -1.16772 -3.90933 0
M  V30 5682 H 541.701 -2.24526 -3.50087 0
M  V30 5683 H 540.278 -0.425168 -3.70468 0
M  V30 5684 N 542.463 1.3308 -0.844243 0
M  V30 5685 C 543.712 1.96868 -0.438833 0
M  V30 5686 C 544.025 1.67599 1.00846 0
M  V30 5687 O 545.231 2.25043 1.51881 0
M  V30 5688 C 543.687 3.5234 -0.73377 0
M  V30 5689 C 543.295 3.90481 -2.1961 0
M  V30 5690 C 545.039 4.22653 -0.395574 0
M  V30 5691 C 542.946 5.38954 -2.43481 0
M  V30 5692 H 541.876 0.736749 -0.160364 0
M  V30 5693 H 544.527 1.51623 -1.03358 0
M  V30 5694 H 542.909 3.95941 -0.068589 0
M  V30 5695 H 544.083 3.57922 -2.90221 0
M  V30 5696 H 542.398 3.33165 -2.4978 0
M  V30 5697 H 544.995 5.31848 -0.551477 0
M  V30 5698 H 545.338 4.11004 0.661921 0
M  V30 5699 H 545.871 3.84601 -1.01621 0
M  V30 5700 H 542.61 5.55612 -3.47816 0
M  V30 5701 H 542.13 5.72954 -1.77437 0
M  V30 5702 H 543.809 6.05907 -2.26905 0
M  V30 5703 N 543.941 0.601185 1.45683 0
M  V30 5704 C 544.871 -0.108824 2.33246 0
M  V30 5705 C 545.852 -0.865223 1.46451 0
M  V30 5706 O 547.037 -0.83704 1.75235 0
M  V30 5707 C 544.167 -1.11101 3.2905 0
M  V30 5708 C 543.121 -0.468244 4.25431 0
M  V30 5709 C 542.447 -1.57822 5.10878 0
M  V30 5710 C 543.747 0.606469 5.18767 0
M  V30 5711 H 545.441 0.622306 2.92861 0
M  V30 5712 H 542.987 0.300714 1.40825 0
M  V30 5713 H 544.94 -1.61622 3.89174 0
M  V30 5714 H 543.664 -1.87265 2.67581 0
M  V30 5715 H 542.323 0.0160484 3.66596 0
M  V30 5716 H 541.971 -2.32998 4.45781 0
M  V30 5717 H 541.671 -1.15369 5.76163 0
M  V30 5718 H 543.195 -2.08583 5.73869 0
M  V30 5719 H 544.609 0.185589 5.73 0
M  V30 5720 H 543.006 0.952381 5.92494 0
M  V30 5721 H 544.076 1.48559 4.61582 0
M  V30 5722 N 545.419 -1.53889 0.339982 0
M  V30 5723 C 546.644 -2.05741 -0.261798 0
M  V30 5724 C 547.069 -1.21354 -1.43718 0
M  V30 5725 O 546.427 -0.22645 -1.7988 0
M  V30 5726 C 546.475 -3.54542 -0.658228 0
M  V30 5727 O 545.579 -3.7302 -1.75869 0
M  V30 5728 H 544.92 -0.662529 -0.0441672 0
M  V30 5729 H 547.45 -1.98568 0.493161 0
M  V30 5730 H 547.46 -3.9711 -0.936368 0
M  V30 5731 H 546.135 -4.15412 0.201358 0
M  V30 5732 H 544.712 -3.42355 -1.47809 0
M  V30 5733 N 546.897 -0.0685191 -1.57451 0
M  V30 5734 C 548.146 0.600898 -1.92541 0
M  V30 5735 C 548.459 1.70967 -0.950239 0
M  V30 5736 O 549.665 2.43844 -1.19384 0
M  V30 5737 C 548.121 1.12019 -3.42023 0
M  V30 5738 C 547.729 0.0426028 -4.4798 0
M  V30 5739 C 549.473 1.76386 -3.86119 0
M  V30 5740 C 547.38 0.575759 -5.88591 0
M  V30 5741 H 546.31 0.228225 -0.71863 0
M  V30 5742 H 548.961 -0.140223 -1.82963 0
M  V30 5743 H 547.343 1.91418 -3.46663 0
M  V30 5744 H 548.517 -0.73182 -4.54952 0
M  V30 5745 H 546.832 -0.504642 -4.13331 0
M  V30 5746 H 549.429 2.17302 -4.88553 0
M  V30 5747 H 549.772 2.62255 -3.23308 0
M  V30 5748 H 550.305 1.03615 -3.84069 0
M  V30 5749 H 547.044 -0.245691 -6.55039 0
M  V30 5750 H 546.564 1.31778 -5.85145 0
M  V30 5751 H 548.243 1.0532 -6.3837 0
M  V30 5752 N 548.375 1.56261 0.205012 0
M  V30 5753 C 549.305 1.96779 1.257 0
M  V30 5754 C 550.286 0.838309 1.48008 0
M  V30 5755 O 551.471 1.10189 1.59913 0
M  V30 5756 C 548.601 2.29876 2.60335 0
M  V30 5757 C 547.555 3.45469 2.52656 0
M  V30 5758 C 546.881 3.64215 3.91473 0
M  V30 5759 C 548.181 4.79954 2.06014 0
M  V30 5760 H 549.875 2.84904 0.920338 0
M  V30 5761 H 547.421 1.37072 0.441277 0
M  V30 5762 H 549.374 2.56814 3.34102 0
M  V30 5763 H 548.098 1.38622 2.95722 0
M  V30 5764 H 546.757 3.18605 1.81345 0
M  V30 5765 H 546.405 2.70309 4.24196 0
M  V30 5766 H 546.105 4.41973 3.87213 0
M  V30 5767 H 547.629 3.93519 4.66878 0
M  V30 5768 H 549.043 5.05989 2.69533 0
M  V30 5769 H 547.44 5.61111 2.12777 0
M  V30 5770 H 548.51 4.74201 1.01297 0
M  V30 5771 N 549.853 -0.472356 1.50355 0
M  V30 5772 C 550.783 -1.57859 1.72055 0
M  V30 5773 C 551.764 -1.60283 0.569505 0
M  V30 5774 O 552.949 -1.7657 0.808503 0
M  V30 5775 C 550.079 -2.96191 1.81351 0
M  V30 5776 C 549.033 -3.08633 2.96529 0
M  V30 5777 C 548.359 -4.486 2.90968 0
M  V30 5778 C 549.659 -2.85969 4.37057 0
M  V30 5779 H 551.353 -1.39953 2.64676 0
M  V30 5780 H 548.899 -0.671846 1.27367 0
M  V30 5781 H 550.852 -3.73507 1.95117 0
M  V30 5782 H 549.576 -3.15251 0.853502 0
M  V30 5783 H 548.235 -2.33749 2.82413 0
M  V30 5784 H 547.883 -4.64577 1.92815 0
M  V30 5785 H 547.583 -4.57861 3.68289 0
M  V30 5786 H 549.107 -5.27938 3.0678 0
M  V30 5787 H 550.521 -3.53036 4.51706 0
M  V30 5788 H 548.918 -3.06677 5.15819 0
M  V30 5789 H 549.988 -1.81838 4.49514 0
M  V30 5790 N 551.331 -1.39911 -0.725443 0
M  V30 5791 C 552.241 -1.41688 -1.8698 0
M  V30 5792 C 553.257 -0.310579 -1.71206 0
M  V30 5793 O 554.433 -0.55359 -1.93642 0
M  V30 5794 C 551.498 -1.26811 -3.22676 0
M  V30 5795 C 550.559 -2.47497 -3.50776 0
M  V30 5796 C 549.792 -2.3332 -4.79997 0
M  V30 5797 O 550.015 -1.34175 -5.54394 0
M  V30 5798 O 548.949 -3.22498 -5.08211 0
M  V30 5799 H 552.775 -2.38171 -1.88436 0
M  V30 5800 H 550.36 -1.21128 -0.874548 0
M  V30 5801 H 552.242 -1.20684 -4.03749 0
M  V30 5802 H 550.917 -0.334289 -3.21969 0
M  V30 5803 H 549.824 -2.59201 -2.69751 0
M  V30 5804 H 551.157 -3.39606 -3.5627 0
M  V30 5805 N 552.809 0.956637 -1.25245 0
M  V30 5806 C 553.719 2.0868 -1.0719 0
M  V30 5807 C 554.735 1.73997 -0.00959074 0
M  V30 5808 O 555.911 2.00301 -0.210104 0
M  V30 5809 C 552.976 3.39754 -0.690526 0
M  V30 5810 C 552.037 3.88316 -1.83055 0
M  V30 5811 C 551.27 5.13134 -1.46728 0
M  V30 5812 O 551.493 5.6925 -0.362029 0
M  V30 5813 O 550.427 5.56356 -2.29677 0
M  V30 5814 H 554.253 2.26813 -2.01965 0
M  V30 5815 H 551.838 1.07098 -1.04165 0
M  V30 5816 H 553.72 4.18543 -0.489871 0
M  V30 5817 H 552.395 3.22896 0.227981 0
M  V30 5818 H 551.302 3.1054 -2.08604 0
M  V30 5819 H 552.635 4.09669 -2.72822 0
M  V30 5820 N 554.287 1.06798 1.15896 0
M  V30 5821 C 555.533 0.788934 1.86825 0
M  V30 5822 C 555.866 -0.683084 1.8179 0
M  V30 5823 O 555.141 -1.50086 1.23711 0
M  V30 5824 C 555.424 1.29065 3.36176 0
M  V30 5825 C 555.277 2.8268 3.49874 0
M  V30 5826 C 556.596 0.902655 4.30744 0
M  V30 5827 H 553.715 0.288066 0.678371 0
M  V30 5828 H 556.357 1.32479 1.36195 0
M  V30 5829 H 554.507 0.834806 3.79425 0
M  V30 5830 H 556.179 3.36511 3.15528 0
M  V30 5831 H 554.422 3.21157 2.91617 0
M  V30 5832 H 555.093 3.12852 4.54783 0
M  V30 5833 H 557.569 1.29535 3.95424 0
M  V30 5834 H 556.445 1.28111 5.3374 0
M  V30 5835 H 556.706 -0.191951 4.41683 0
M  V30 5836 N 555.766 -1.3263 0.851289 0
M  V30 5837 C 556.991 -2.02097 0.466006 0
M  V30 5838 C 557.416 -1.63574 -0.928709 0
M  V30 5839 O 556.774 -0.834665 -1.60944 0
M  V30 5840 C 556.822 -3.55425 0.608737 0
M  V30 5841 O 555.926 -4.10827 -0.359878 0
M  V30 5842 H 555.267 -0.636911 0.187724 0
M  V30 5843 H 557.797 -1.69253 1.14955 0
M  V30 5844 H 557.807 -4.04986 0.495006 0
M  V30 5845 H 556.482 -3.82806 1.62581 0
M  V30 5846 H 555.059 -3.72349 -0.202666 0
M  V30 5847 N 557.244 -0.608902 -1.45362 0
M  V30 5848 C 558.655 -0.189511 -1.85736 0
M  V30 5849 C 559.006 1.2539 -1.50903 0
M  V30 5850 O 558.131 1.95094 -0.936347 0
M  V30 5851 C 558.726 -0.33716 -3.37118 0
M  V30 5852 C 557.285 0.0275487 -3.7639 0
M  V30 5853 C 556.432 -0.660983 -2.69307 0
M  V30 5854 H 559.383 -0.815499 -1.36144 0
M  V30 5855 H 559.404 0.430257 -3.7806 0
M  V30 5856 H 558.916 -1.38779 -3.62439 0
M  V30 5857 H 557.017 1.0773 -3.56686 0
M  V30 5858 H 557.13 -0.367018 -4.77692 0
M  V30 5859 H 555.494 -0.0984958 -2.54509 0
M  V30 5860 H 556.277 -1.71377 -2.97464 0
M  V30 5861 N 558.722 1.53707 -0.348139 0
M  V30 5862 C 559.632 2.28881 0.514857 0
M  V30 5863 C 560.648 1.34168 1.10793 0
M  V30 5864 O 561.824 1.6721 1.12262 0
M  V30 5865 C 558.889 3.05042 1.64774 0
M  V30 5866 C 557.95 4.15389 1.08398 0
M  V30 5867 C 557.183 4.87909 2.16287 0
M  V30 5868 O 557.406 4.60137 3.3709 0
M  V30 5869 O 556.34 5.74254 1.80323 0
M  V30 5870 H 560.166 3.03547 -0.0963699 0
M  V30 5871 H 557.751 1.48972 -0.113043 0
M  V30 5872 H 559.633 3.52656 2.30677 0
M  V30 5873 H 558.308 2.33228 2.24469 0
M  V30 5874 H 557.215 3.72068 0.389341 0
M  V30 5875 H 558.548 4.89318 0.531829 0
M  V30 5876 N 560.2 0.0768682 1.57412 0
M  V30 5877 C 561.13 -0.886026 2.16037 0
M  V30 5878 C 562.111 -1.30691 1.08876 0
M  V30 5879 O 563.296 -1.37705 1.36934 0
M  V30 5880 C 560.426 -2.1518 2.72608 0
M  V30 5881 C 559.38 -1.87015 3.8498 0
M  V30 5882 C 558.706 -3.20266 4.28175 0
M  V30 5883 C 560.006 -1.17143 5.08994 0
M  V30 5884 H 561.7 -0.397642 2.96748 0
M  V30 5885 H 559.246 -0.189823 1.42743 0
M  V30 5886 H 561.199 -2.82962 3.12266 0
M  V30 5887 H 559.923 -2.66269 1.89125 0
M  V30 5888 H 558.582 -1.21636 3.45833 0
M  V30 5889 H 558.23 -3.69207 3.41607 0
M  V30 5890 H 557.93 -3.0221 5.03927 0
M  V30 5891 H 559.454 -3.89237 4.70454 0
M  V30 5892 H 560.868 -1.75003 5.45937 0
M  V30 5893 H 559.265 -1.09328 5.90057 0
M  V30 5894 H 560.335 -0.151295 4.84664 0
M  V30 5895 N 561.678 -1.56367 -0.196722 0
M  V30 5896 C 562.924 -1.80796 -0.918725 0
M  V30 5897 C 563.257 -0.650645 -1.82976 0
M  V30 5898 O 562.532 0.348889 -1.91345 0
M  V30 5899 C 562.815 -3.15472 -1.73636 0
M  V30 5900 C 562.668 -4.41693 -0.85015 0
M  V30 5901 C 563.987 -3.46824 -2.70927 0
M  V30 5902 H 561.106 -0.657702 -0.332561 0
M  V30 5903 H 563.748 -1.89086 -0.186186 0
M  V30 5904 H 561.898 -3.08536 -2.36088 0
M  V30 5905 H 563.57 -4.60673 -0.240459 0
M  V30 5906 H 561.813 -4.33517 -0.156785 0
M  V30 5907 H 562.484 -5.32419 -1.45719 0
M  V30 5908 H 564.96 -3.54049 -2.18607 0
M  V30 5909 H 563.836 -4.4218 -3.25219 0
M  V30 5910 H 564.097 -2.70236 -3.49893 0
M  V30 5911 N 563.156 0.464375 -1.50603 0
M  V30 5912 C 564.396 1.22573 -1.6357 0
M  V30 5913 C 564.76 1.89111 -0.331834 0
M  V30 5914 O 565.961 2.66679 -0.336999 0
M  V30 5915 C 564.232 2.23643 -2.7878 0
M  V30 5916 S 565.791 3.08628 -3.1192 0
M  V30 5917 H 562.609 0.416058 -0.576556 0
M  V30 5918 H 565.211 0.521637 -1.88412 0
M  V30 5919 H 563.915 1.73354 -3.7199 0
M  V30 5920 H 563.446 2.98672 -2.56044 0
M  V30 5921 H 565.461 4.24904 -2.56264 0
M  V30 5922 N 564.634 1.40294 0.718013 0
M  V30 5923 C 565.859 1.41941 1.5122 0
M  V30 5924 C 566.284 0.0202371 1.88089 0
M  V30 5925 O 565.642 -0.971078 1.53101 0
M  V30 5926 C 565.69 2.3141 2.76554 0
M  V30 5927 O 564.794 1.75567 3.73162 0
M  V30 5928 H 564.135 0.482644 0.456016 0
M  V30 5929 H 566.665 1.84494 0.884478 0
M  V30 5930 H 566.675 2.46513 3.25108 0
M  V30 5931 H 565.35 3.33085 2.49053 0
M  V30 5932 H 563.927 1.69798 3.31999 0
M  V30 5933 N 566.112 -0.949982 1.2575 0
M  V30 5934 C 567.045 -2.047 1.00862 0
M  V30 5935 C 568.023 -1.62475 -0.0636982 0
M  V30 5936 O 569.207 -1.88343 0.0769153 0
M  V30 5937 C 566.334 -3.34597 0.525613 0
M  V30 5938 C 565.38 -3.95788 1.58916 0
M  V30 5939 S 566.213 -4.31175 3.17567 0
M  V30 5940 C 567.369 -5.64183 2.71013 0
M  V30 5941 H 567.602 -2.25497 1.93749 0
M  V30 5942 H 565.135 -1.09022 1.09332 0
M  V30 5943 H 567.093 -4.09716 0.25359 0
M  V30 5944 H 565.754 -3.11758 -0.382828 0
M  V30 5945 H 564.947 -4.89457 1.20201 0
M  V30 5946 H 564.549 -3.27168 1.81211 0
M  V30 5947 H 566.841 -6.42504 2.14928 0
M  V30 5948 H 567.784 -6.07774 3.6334 0
M  V30 5949 H 568.192 -5.2364 2.1086 0
M  V30 5950 N 567.59 -1.07411 -1.15328 0
M  V30 5951 C 568.52 -0.716472 -2.22236 0
M  V30 5952 C 569.501 0.296373 -1.67498 0
M  V30 5953 O 570.686 0.168989 -1.93463 0
M  V30 5954 C 567.816 -0.114142 -3.47112 0
M  V30 5955 C 566.77 -1.05421 -4.14814 0
M  V30 5956 C 566.096 -0.314604 -5.33774 0
M  V30 5957 C 567.396 -2.38808 -4.64508 0
M  V30 5958 H 569.09 -1.61029 -2.52408 0
M  V30 5959 H 566.636 -0.775702 -1.21321 0
M  V30 5960 H 568.589 0.148001 -4.2114 0
M  V30 5961 H 567.313 0.814755 -3.16274 0
M  V30 5962 H 565.972 -1.30128 -3.42728 0
M  V30 5963 H 565.62 0.617772 -4.99192 0
M  V30 5964 H 565.32 -0.941209 -5.80013 0
M  V30 5965 H 566.844 -0.0602747 -6.1057 0
M  V30 5966 H 568.258 -2.18424 -5.3006 0
M  V30 5967 H 566.655 -2.97069 -5.21412 0
M  V30 5968 H 567.725 -3.01067 -3.80114 0
M  V30 5969 N 569.068 1.32177 -0.85831 0
M  V30 5970 C 570.018 2.26307 -0.277307 0
M  V30 5971 C 571.002 1.50123 0.578946 0
M  V30 5972 O 572.194 1.71754 0.427731 0
M  V30 5973 C 569.323 3.39181 0.530232 0
M  V30 5974 C 568.409 4.22746 -0.338613 0
M  V30 5975 N 568.8 4.85265 -1.4266 0
M  V30 5976 C 567.098 4.45813 -0.129 0
M  V30 5977 C 567.799 5.47634 -1.96142 0
M  V30 5978 N 566.775 5.28794 -1.26007 0
M  V30 5979 H 570.577 2.72173 -1.10902 0
M  V30 5980 H 568.091 1.46308 -0.704816 0
M  V30 5981 H 570.088 4.05628 0.962904 0
M  V30 5982 H 568.748 2.9486 1.35969 0
M  V30 5983 H 569.759 4.85259 -1.80953 0
M  V30 5984 H 566.436 4.12163 0.665451 0
M  V30 5985 H 567.826 6.0735 -2.8736 0
M  V30 5986 N 570.547 0.616602 1.45037 0
M  V30 5987 C 571.477 -0.0840787 2.33349 0
M  V30 5988 C 572.458 -0.849641 1.4736 0
M  V30 5989 O 573.643 -0.818407 1.76113 0
M  V30 5990 C 570.773 -1.07604 3.3021 0
M  V30 5991 C 569.727 -0.423096 4.25904 0
M  V30 5992 C 569.053 -1.52394 5.12523 0
M  V30 5993 C 570.353 0.661457 5.18095 0
M  V30 5994 H 572.047 0.653333 2.92185 0
M  V30 5995 H 569.593 0.315634 1.40498 0
M  V30 5996 H 571.546 -1.57485 3.90866 0
M  V30 5997 H 570.27 -1.84416 2.69552 0
M  V30 5998 H 568.929 0.05493 3.66559 0
M  V30 5999 H 568.577 -2.28257 4.48227 0
M  V30 6000 H 568.277 -1.09251 5.77354 0
M  V30 6001 H 569.801 -2.02485 5.76049 0
M  V30 6002 H 571.215 0.246353 5.7277 0
M  V30 6003 H 569.612 1.01517 5.91451 0
M  V30 6004 H 570.682 1.53446 4.59981 0
M  V30 6005 N 572.025 -1.5352 0.356285 0
M  V30 6006 C 573.265 -2.03027 -0.23649 0
M  V30 6007 C 573.629 -1.23813 -1.46746 0
M  V30 6008 O 574.83 -1.63281 -2.13525 0
M  V30 6009 C 573.101 -3.53442 -0.530415 0
M  V30 6010 S 574.66 -4.24836 -1.09819 0
M  V30 6011 H 571.478 -0.707591 -0.0695378 0
M  V30 6012 H 574.08 -1.89077 0.496999 0
M  V30 6013 H 572.784 -4.087 0.373114 0
M  V30 6014 H 572.315 -3.71536 -1.29323 0
M  V30 6015 H 574.33 -4.35228 -2.38309 0
M  V30 6016 N 573.503 -0.0852151 -1.57369 0
M  V30 6017 C 574.728 0.592872 -1.98746 0
M  V30 6018 C 575.153 1.61538 -0.963689 0
M  V30 6019 O 574.511 1.81168 0.069071 0
M  V30 6020 C 574.559 1.22599 -3.39119 0
M  V30 6021 O 573.663 2.34185 -3.39457 0
M  V30 6022 H 573.004 0.151314 -0.646529 0
M  V30 6023 H 575.534 -0.163703 -2.03944 0
M  V30 6024 H 575.544 1.56965 -3.76598 0
M  V30 6025 H 574.219 0.476831 -4.13158 0
M  V30 6026 H 572.796 2.01512 -3.13763 0
M  V30 6027 N 574.981 1.5647 0.188427 0
M  V30 6028 C 576.229 1.80655 0.905986 0
M  V30 6029 C 576.55 0.659391 1.83513 0
M  V30 6030 O 575.82 -0.321868 1.93238 0
M  V30 6031 H 574.4 0.666391 0.337538 0
M  V30 6032 H 577.062 1.93949 0.192339 0
M  V30 6033 H 576.158 2.74066 1.49313 0
M  V30 6034 N 576.459 -0.456382 1.50847 0
M  V30 6035 C 577.687 -1.23026 1.66349 0
M  V30 6036 C 578.102 -1.85473 0.352868 0
M  V30 6037 O 577.459 -1.69885 -0.666739 0
M  V30 6038 C 577.51 -2.32827 2.76539 0
M  V30 6039 O 577.231 -1.72938 4.02522 0
M  V30 6040 C 578.732 -3.23448 3.03144 0
M  V30 6041 H 575.952 -0.371527 0.558756 0
M  V30 6042 H 578.496 -0.543082 1.97157 0
M  V30 6043 H 576.651 -2.97294 2.48384 0
M  V30 6044 H 577.065 -2.45357 4.63573 0
M  V30 6045 H 578.539 -3.96669 3.83872 0
M  V30 6046 H 579.016 -3.83094 2.14793 0
M  V30 6047 H 579.622 -2.64702 3.32886 0
M  V30 6048 N 577.937 -1.40673 -0.710563 0
M  V30 6049 C 579.353 -1.22813 -1.01928 0
M  V30 6050 C 579.553 -0.10687 -2.01216 0
M  V30 6051 O 578.609 0.533614 -2.46797 0
M  V30 6052 C 579.922 -2.57178 -1.5582 0
M  V30 6053 C 581.47 -2.64233 -1.67779 0
M  V30 6054 C 581.945 -3.98879 -2.25076 0
M  V30 6055 N 583.436 -4.00647 -2.32456 0
M  V30 6056 C 584.171 -5.01621 -2.77784 0
M  V30 6057 N 583.667 -6.12989 -3.22826 0
M  V30 6058 N 585.46 -4.88988 -2.77213 0
M  V30 6059 H 577.611 -2.12335 -0.05253 0
M  V30 6060 H 579.874 -0.9441 -0.085898 0
M  V30 6061 H 579.58 -3.39903 -0.903249 0
M  V30 6062 H 579.454 -2.78618 -2.54267 0
M  V30 6063 H 581.841 -1.81876 -2.3239 0
M  V30 6064 H 581.922 -2.46619 -0.679178 0
M  V30 6065 H 581.566 -4.81678 -1.61086 0
M  V30 6066 H 581.496 -4.13826 -3.25661 0
M  V30 6067 H 583.987 -3.20231 -2.0065 0
M  V30 6068 H 584.3 -6.85921 -3.55995 0
M  V30 6069 H 582.645 -6.16547 -3.20773 0
M  V30 6070 H 585.836 -4.01075 -2.41363 0
M  V30 6071 H 586.009 -5.67822 -3.12221 0
M  V30 6072 N 579.415 0.9433 -1.26252 0
M  V30 6073 C 580.345 2.05902 -1.10122 0
M  V30 6074 C 581.326 1.70099 -0.00700552 0
M  V30 6075 O 582.511 1.93377 -0.178641 0
M  V30 6076 C 579.641 3.39516 -0.731175 0
M  V30 6077 C 578.595 3.89372 -1.77688 0
M  V30 6078 C 577.921 5.19613 -1.26122 0
M  V30 6079 C 579.221 4.14489 -3.17799 0
M  V30 6080 H 580.915 2.19655 -2.03451 0
M  V30 6081 H 578.461 1.05548 -0.979576 0
M  V30 6082 H 580.414 4.17031 -0.605215 0
M  V30 6083 H 579.138 3.25733 0.23782 0
M  V30 6084 H 577.797 3.14036 -1.89148 0
M  V30 6085 H 577.445 5.02208 -0.282128 0
M  V30 6086 H 577.145 5.53939 -1.96023 0
M  V30 6087 H 578.669 5.99713 -1.14789 0
M  V30 6088 H 580.083 4.82625 -3.09428 0
M  V30 6089 H 578.48 4.60094 -3.85271 0
M  V30 6090 H 579.55 3.20347 -3.64014 0
M  V30 6091 N 580.893 1.08022 1.14757 0
M  V30 6092 C 582.304 0.829144 1.67279 0
M  V30 6093 C 582.655 -0.644721 1.85305 0
M  V30 6094 O 581.78 -1.49838 1.56133 0
M  V30 6095 C 582.375 1.49855 3.03857 0
M  V30 6096 C 580.934 1.29482 3.53428 0
M  V30 6097 C 580.081 1.56386 2.28995 0
M  V30 6098 H 583.032 1.24134 0.988762 0
M  V30 6099 H 583.053 0.923572 3.69121 0
M  V30 6100 H 582.565 2.57123 2.90705 0
M  V30 6101 H 580.666 0.242669 3.71809 0
M  V30 6102 H 580.779 2.01974 4.34446 0
M  V30 6103 H 579.143 0.985217 2.34874 0
M  V30 6104 H 579.926 2.64851 2.18423 0
M  V30 6105 N 582.371 -1.3172 0.865308 0
M  V30 6106 C 583.334 -2.26918 0.322627 0
M  V30 6107 C 584.334 -1.52031 -0.523751 0
M  V30 6108 O 585.524 -1.70973 -0.333727 0
M  V30 6109 C 582.656 -3.36558 -0.542338 0
M  V30 6110 H 583.849 -2.76432 1.16298 0
M  V30 6111 H 581.402 -1.42573 0.640512 0
M  V30 6112 H 582.137 -2.92329 -1.40407 0
M  V30 6113 H 581.922 -3.92048 0.0636395 0
M  V30 6114 H 583.412 -4.07465 -0.91446 0
M  V30 6115 N 583.85 -0.624285 -1.44708 0
M  V30 6116 C 584.779 0.0717025 -2.3339 0
M  V30 6117 C 585.76 0.841814 -1.47809 0
M  V30 6118 O 586.946 0.809056 -1.76544 0
M  V30 6119 C 584.076 1.05852 -3.30776 0
M  V30 6120 C 583.029 0.400503 -4.26122 0
M  V30 6121 C 582.356 1.49674 -5.13324 0
M  V30 6122 C 583.656 -0.688924 -5.17737 0
M  V30 6123 H 585.35 -0.668819 -2.91834 0
M  V30 6124 H 582.896 -0.32308 -1.40329 0
M  V30 6125 H 584.849 1.5541 -3.91696 0
M  V30 6126 H 583.572 1.82984 -2.70526 0
M  V30 6127 H 582.231 -0.0743687 -3.66525 0
M  V30 6128 H 581.88 2.25877 -4.49431 0
M  V30 6129 H 581.58 1.06188 -5.77926 0
M  V30 6130 H 583.104 1.99427 -5.77115 0
M  V30 6131 H 584.518 -0.276724 -5.72632 0
M  V30 6132 H 582.915 -1.04652 -5.90904 0
M  V30 6133 H 583.985 -1.55884 -4.5916 0
M  V30 6134 N 585.328 1.53329 -0.364422 0
M  V30 6135 C 586.556 2.05657 0.226424 0
M  V30 6136 C 586.971 1.23801 1.42544 0
M  V30 6137 O 586.328 0.27839 1.80364 0
M  V30 6138 C 586.379 3.56125 0.621056 0
M  V30 6139 O 586.1 4.34879 -0.530304 0
M  V30 6140 C 587.601 4.24706 1.27041 0
M  V30 6141 H 584.821 0.669806 0.0400056 0
M  V30 6142 H 587.365 1.97714 -0.522456 0
M  V30 6143 H 585.52 3.64223 1.31985 0
M  V30 6144 H 585.934 5.24073 -0.211546 0
M  V30 6145 H 587.408 5.3131 1.49711 0
M  V30 6146 H 587.885 3.78354 2.23036 0
M  V30 6147 H 588.491 4.20858 0.613079 0
M  V30 6148 N 586.806 0.0935595 1.57322 0
M  V30 6149 C 588.052 -0.571355 1.94585 0
M  V30 6150 C 588.385 -1.67929 0.975366 0
M  V30 6151 O 587.66 -1.94498 0.00816206 0
M  V30 6152 C 587.943 -1.12797 3.41978 0
M  V30 6153 C 587.796 -0.0251881 4.49793 0
M  V30 6154 C 589.115 -2.02682 3.90651 0
M  V30 6155 H 586.234 -0.206223 0.70756 0
M  V30 6156 H 588.876 0.163956 1.89291 0
M  V30 6157 H 587.026 -1.75461 3.4662 0
M  V30 6158 H 588.698 0.608979 4.57263 0
M  V30 6159 H 586.941 0.641399 4.29032 0
M  V30 6160 H 587.612 -0.455433 5.50118 0
M  V30 6161 H 590.088 -1.49925 3.88152 0
M  V30 6162 H 588.964 -2.38555 4.94351 0
M  V30 6163 H 589.225 -2.94362 3.29854 0
M  V30 6164 N 588.284 -1.56567 -0.180126 0
M  V30 6165 C 589.234 -1.92132 -1.22756 0
M  V30 6166 C 590.218 -0.788639 -1.40247 0
M  V30 6167 O 591.41 -1.05171 -1.42366 0
M  V30 6168 C 588.539 -2.27719 -2.56902 0
M  V30 6169 C 587.625 -3.47481 -2.43142 0
M  V30 6170 N 588.016 -4.64973 -1.99082 0
M  V30 6171 C 586.314 -3.51914 -2.73994 0
M  V30 6172 C 587.015 -5.47119 -1.97574 0
M  V30 6173 N 585.991 -4.87925 -2.39645 0
M  V30 6174 H 589.793 -2.80464 -0.878478 0
M  V30 6175 H 587.307 -1.57686 -0.388463 0
M  V30 6176 H 589.304 -2.51389 -3.32579 0
M  V30 6177 H 587.964 -1.40722 -2.92621 0
M  V30 6178 H 588.975 -4.89358 -1.69557 0
M  V30 6179 H 585.652 -2.75372 -3.13809 0
M  V30 6180 H 587.042 -6.51254 -1.65282 0
M  V30 6181 N 589.762 0.448376 -1.51087 0
M  V30 6182 C 591.008 1.20049 -1.6345 0
M  V30 6183 C 591.341 1.91121 -0.344444 0
M  V30 6184 O 590.616 1.83125 0.655396 0
M  V30 6185 C 590.899 2.22624 -2.83038 0
M  V30 6186 C 590.752 1.55708 -4.21989 0
M  V30 6187 C 592.071 3.23718 -2.98152 0
M  V30 6188 H 589.19 0.435085 -0.59487 0
M  V30 6189 H 591.832 0.491183 -1.83541 0
M  V30 6190 H 589.982 2.83117 -2.66039 0
M  V30 6191 H 591.654 0.986367 -4.50631 0
M  V30 6192 H 589.897 0.859647 -4.25197 0
M  V30 6193 H 590.568 2.30357 -5.01637 0
M  V30 6194 H 593.044 2.73269 -3.13788 0
M  V30 6195 H 591.92 3.92795 -3.83411 0
M  V30 6196 H 592.181 3.89179 -2.09743 0
M  V30 6197 N 591.24 1.41047 0.703093 0
M  V30 6198 C 592.468 1.4334 1.49202 0
M  V30 6199 C 592.883 0.0365596 1.88765 0
M  V30 6200 O 592.24 -0.942419 1.56284 0
M  V30 6201 C 592.291 2.33538 2.75939 0
M  V30 6202 O 592.012 3.67786 2.38045 0
M  V30 6203 C 593.513 2.44555 3.6974 0
M  V30 6204 H 590.733 0.488472 0.460039 0
M  V30 6205 H 593.277 1.85245 0.86629 0
M  V30 6206 H 591.432 1.94962 3.34766 0
M  V30 6207 H 591.846 4.15816 3.19683 0
M  V30 6208 H 593.32 3.11849 4.55471 0
M  V30 6209 H 593.797 1.47447 4.1371 0
M  V30 6210 H 594.403 2.83735 3.16819 0
M  V30 6211 N 592.718 -0.936591 1.26751 0
M  V30 6212 C 593.65 -2.03991 1.045 0
M  V30 6213 C 594.663 -1.628 0.00394261 0
M  V30 6214 O 595.852 -1.76817 0.244526 0
M  V30 6215 C 592.952 -3.34218 0.561403 0
M  V30 6216 C 592.125 -4.04151 1.67274 0
M  V30 6217 C 591.184 -5.12651 1.1864 0
M  V30 6218 O 590.21 -5.37104 1.88437 0
M  V30 6219 N 591.412 -5.80488 0.037278 0
M  V30 6220 H 594.177 -2.23644 1.99508 0
M  V30 6221 H 591.738 -1.10638 1.18198 0
M  V30 6222 H 593.73 -4.04101 0.220136 0
M  V30 6223 H 592.3 -3.11203 -0.295211 0
M  V30 6224 H 591.52 -3.28121 2.18472 0
M  V30 6225 H 592.808 -4.47626 2.41885 0
M  V30 6226 H 592.206 -5.63064 -0.545494 0
M  V30 6227 H 590.763 -6.5134 -0.244877 0
M  V30 6228 N 594.196 -1.08629 -1.14182 0
M  V30 6229 C 595.607 -0.838003 -1.66836 0
M  V30 6230 C 595.958 0.634885 -1.85644 0
M  V30 6231 O 595.083 1.49008 -1.56926 0
M  V30 6232 C 595.678 -1.51465 -3.03058 0
M  V30 6233 C 594.237 -1.31355 -3.52736 0
M  V30 6234 C 593.384 -1.57599 -2.28162 0
M  V30 6235 H 596.335 -1.24656 -0.982165 0
M  V30 6236 H 596.356 -0.943134 -3.68626 0
M  V30 6237 H 595.868 -2.58661 -2.89337 0
M  V30 6238 H 593.969 -0.262384 -3.71675 0
M  V30 6239 H 594.082 -2.04275 -4.33369 0
M  V30 6240 H 592.446 -0.997659 -2.34348 0
M  V30 6241 H 593.229 -2.66006 -2.17015 0
M  V30 6242 N 595.674 1.31259 -0.872281 0
M  V30 6243 C 596.621 2.28459 -0.327857 0
M  V30 6244 C 597.591 1.55831 0.574957 0
M  V30 6245 O 598.776 1.83965 0.506101 0
M  V30 6246 C 595.916 3.41985 0.462644 0
M  V30 6247 C 595.029 4.29458 -0.467949 0
M  V30 6248 C 594.164 5.30131 0.336903 0
M  V30 6249 C 593.203 6.0925 -0.58997 0
M  V30 6250 N 592.34 7.01872 0.178775 0
M  V30 6251 H 597.18 2.74414 -1.16193 0
M  V30 6252 H 594.717 1.34994 -0.584376 0
M  V30 6253 H 596.675 4.06547 0.936759 0
M  V30 6254 H 595.305 2.97134 1.2614 0
M  V30 6255 H 594.357 3.65318 -1.06052 0
M  V30 6256 H 595.669 4.84677 -1.17856 0
M  V30 6257 H 594.823 6.0038 0.873427 0
M  V30 6258 H 593.562 4.75573 1.08079 0
M  V30 6259 H 592.567 5.37889 -1.13823 0
M  V30 6260 H 593.792 6.65894 -1.33275 0
M  V30 6261 H 591.738 6.49721 0.905435 0
M  V30 6262 H 591.655 7.54522 -0.472452 0
M  V30 6263 H 592.923 7.76382 0.696454 0
M  V30 6264 N 597.152 0.631951 1.44375 0
M  V30 6265 C 598.429 0.067646 1.95483 0
M  V30 6266 C 598.809 -1.40683 1.57389 0
M  V30 6267 O 598.157 -2.12167 0.848375 0
M  V30 6268 C 598.367 0.291392 3.47781 0
M  V30 6269 C 599.715 0.185028 4.24197 0
M  V30 6270 O 600.739 0.222803 3.55503 0
M  V30 6271 O 599.598 0.0906642 5.46425 0
M  V30 6272 H 596.692 -0.0218379 0.826712 0
M  V30 6273 H 599.238 0.703711 1.54421 0
M  V30 6274 H 598.01 1.31449 3.68561 0
M  V30 6275 H 597.633 -0.378772 3.95792 0
M  V30 6276 N 598.631 -1.53133 0.372548 0
M  V30 6277 C 599.879 -2.00958 -0.214534 0
M  V30 6278 C 600.2 -1.26135 -1.48711 0
M  V30 6279 O 599.47 -0.376597 -1.92246 0
M  V30 6280 H 598.05 -0.742456 -0.0822664 0
M  V30 6281 H 600.712 -1.88367 0.500385 0
M  V30 6282 H 599.808 -3.09031 -0.436605 0
M  V30 6283 N 600.109 -0.101901 -1.5727 0
M  V30 6284 C 601.357 0.559091 -1.94213 0
M  V30 6285 C 601.678 1.68297 -0.984948 0
M  V30 6286 O 600.948 1.95863 -0.0381975 0
M  V30 6287 H 599.528 0.20952 -0.717015 0
M  V30 6288 H 602.19 -0.166831 -1.94185 0
M  V30 6289 H 601.286 0.96485 -2.96811 0
M  V30 6290 N 601.587 1.56661 0.17182 0
M  V30 6291 C 602.834 1.81965 0.888529 0
M  V30 6292 C 603.162 0.6789 1.82267 0
M  V30 6293 O 602.417 -0.333875 1.92831 0
M  V30 6294 C 602.716 3.13435 1.71736 0
M  V30 6295 C 602.382 4.41159 0.932184 0
M  V30 6296 C 601.044 4.75851 0.715481 0
M  V30 6297 C 603.396 5.19803 0.381387 0
M  V30 6298 C 600.724 5.86666 -0.063126 0
M  V30 6299 C 603.076 6.31433 -0.384129 0
M  V30 6300 C 601.74 6.64692 -0.611637 0
M  V30 6301 H 601.01 0.665859 0.325136 0
M  V30 6302 H 603.657 1.90884 0.153495 0
M  V30 6303 H 601.962 2.99857 2.52177 0
M  V30 6304 H 603.659 3.30224 2.27493 0
M  V30 6305 H 600.249 4.13947 1.11112 0
M  V30 6306 H 604.433 4.93396 0.536148 0
M  V30 6307 H 599.689 6.10892 -0.249136 0
M  V30 6308 H 603.863 6.91577 -0.818185 0
M  V30 6309 H 601.49 7.50398 -1.21684 0
M  V30 6310 N 603.065 -0.440357 1.51323 0
M  V30 6311 C 604.305 -1.19956 1.65499 0
M  V30 6312 C 604.669 -1.88559 0.361878 0
M  V30 6313 O 605.87 -2.66109 0.379383 0
M  V30 6314 C 604.141 -2.1918 2.82303 0
M  V30 6315 S 605.7 -3.03627 3.1679 0
M  V30 6316 H 602.518 -0.406833 0.583102 0
M  V30 6317 H 605.12 -0.491596 1.89218 0
M  V30 6318 H 603.824 -1.67414 3.74701 0
M  V30 6319 H 603.355 -2.94561 2.60763 0
M  V30 6320 H 605.37 -4.20773 2.62991 0
M  V30 6321 N 604.543 -1.41418 -0.695603 0
M  V30 6322 C 605.453 -1.45622 -1.83933 0
M  V30 6323 C 606.469 -0.346825 -1.70508 0
M  V30 6324 O 607.645 -0.59454 -1.92424 0
M  V30 6325 C 604.71 -1.33627 -3.19914 0
M  V30 6326 C 603.771 -2.54882 -3.45447 0
M  V30 6327 C 603.004 -2.43449 -4.7494 0
M  V30 6328 O 603.227 -1.45905 -5.51424 0
M  V30 6329 O 602.161 -3.33206 -5.01256 0
M  V30 6330 H 605.987 -2.42114 -1.83342 0
M  V30 6331 H 603.572 -1.22956 -0.848658 0
M  V30 6332 H 605.454 -1.29221 -4.01098 0
M  V30 6333 H 604.129 -0.402508 -3.21188 0
M  V30 6334 H 603.036 -2.64865 -2.64192 0
M  V30 6335 H 604.369 -3.47087 -3.48987 0
M  V30 6336 N 606.021 0.929856 -1.27246 0
M  V30 6337 C 607.267 1.6798 -1.13625 0
M  V30 6338 C 607.6 1.91586 0.317589 0
M  V30 6339 O 606.875 1.50467 1.23247 0
M  V30 6340 C 607.158 3.04766 -1.91806 0
M  V30 6341 C 607.011 2.88415 -3.45162 0
M  V30 6342 C 608.33 4.05063 -1.72082 0
M  V30 6343 H 605.449 0.609632 -0.414147 0
M  V30 6344 H 608.091 1.0792 -1.56376 0
M  V30 6345 H 606.241 3.56034 -1.55474 0
M  V30 6346 H 607.913 2.44282 -3.91311 0
M  V30 6347 H 606.156 2.23802 -3.71611 0
M  V30 6348 H 606.827 3.85482 -3.95105 0
M  V30 6349 H 609.303 3.62798 -2.03757 0
M  V30 6350 H 608.179 4.98765 -2.29182 0
M  V30 6351 H 608.44 4.37021 -0.668206 0
M  V30 6352 N 607.499 1.09233 1.13605 0
M  V30 6353 C 608.739 0.836786 1.86487 0
M  V30 6354 C 609.103 -0.626191 1.81502 0
M  V30 6355 O 610.304 -0.99758 2.49603 0
M  V30 6356 C 608.575 1.35476 3.30728 0
M  V30 6357 S 610.134 1.2328 4.21126 0
M  V30 6358 H 606.952 0.302702 0.643345 0
M  V30 6359 H 609.554 1.3953 1.36936 0
M  V30 6360 H 608.258 2.41381 3.31909 0
M  V30 6361 H 607.789 0.792286 3.85339 0
M  V30 6362 H 609.804 0.182468 4.95864 0
M  V30 6363 N 608.977 -1.30795 0.87923 0
M  V30 6364 C 609.924 -2.28282 0.339968 0
M  V30 6365 C 610.894 -1.56134 -0.566685 0
M  V30 6366 O 612.079 -1.84231 -0.496338 0
M  V30 6367 C 609.219 -3.42225 -0.444501 0
M  V30 6368 C 608.332 -4.29204 0.490717 0
M  V30 6369 C 607.467 -5.30302 -0.308784 0
M  V30 6370 C 606.506 -6.08929 0.622272 0
M  V30 6371 N 605.643 -7.01957 -0.14155 0
M  V30 6372 H 610.483 -2.73794 1.17647 0
M  V30 6373 H 608.02 -1.34682 0.591527 0
M  V30 6374 H 609.978 -4.07038 -0.915186 0
M  V30 6375 H 608.608 -2.97799 -1.24562 0
M  V30 6376 H 607.66 -3.6475 1.07988 0
M  V30 6377 H 608.972 -4.84045 1.20425 0
M  V30 6378 H 608.126 -6.00835 -0.841575 0
M  V30 6379 H 606.865 -4.7614 -1.05556 0
M  V30 6380 H 605.87 -5.37278 1.16674 0
M  V30 6381 H 607.095 -6.65178 1.36804 0
M  V30 6382 H 605.041 -6.50192 -0.870966 0
M  V30 6383 H 604.958 -7.54261 0.51246 0
M  V30 6384 H 606.226 -7.76741 -0.655271 0
M  V30 6385 N 610.455 -0.639598 -1.44038 0
M  V30 6386 C 611.402 0.0602458 -2.30721 0
M  V30 6387 C 612.372 0.828352 -1.43971 0
M  V30 6388 O 613.557 0.807693 -1.72861 0
M  V30 6389 C 610.697 1.03008 -3.29368 0
M  V30 6390 C 609.81 0.259502 -4.3122 0
M  V30 6391 C 608.945 1.22191 -5.16955 0
M  V30 6392 C 607.984 0.440978 -6.10509 0
M  V30 6393 N 607.121 1.35428 -6.88915 0
M  V30 6394 H 611.961 -0.684867 -2.90023 0
M  V30 6395 H 609.498 -0.349509 -1.42888 0
M  V30 6396 H 611.456 1.60583 -3.85057 0
M  V30 6397 H 610.086 1.74222 -2.71747 0
M  V30 6398 H 609.138 -0.432317 -3.77935 0
M  V30 6399 H 610.45 -0.348347 -4.97582 0
M  V30 6400 H 609.604 1.86873 -5.77203 0
M  V30 6401 H 608.343 1.86367 -4.50687 0
M  V30 6402 H 607.348 -0.219279 -5.49363 0
M  V30 6403 H 608.573 -0.196192 -6.78817 0
M  V30 6404 H 606.519 1.9831 -6.25307 0
M  V30 6405 H 606.436 0.800657 -7.51748 0
M  V30 6406 H 607.704 1.98967 -7.53679 0
M  V30 6407 N 611.933 1.52934 -0.380664 0
M  V30 6408 C 612.863 2.29118 0.450268 0
M  V30 6409 C 613.844 1.32153 1.07096 0
M  V30 6410 O 615.029 1.61038 1.08537 0
M  V30 6411 C 612.159 3.09161 1.58231 0
M  V30 6412 C 611.113 4.13938 1.0881 0
M  V30 6413 C 610.439 4.82153 2.31155 0
M  V30 6414 C 611.739 5.22048 0.162146 0
M  V30 6415 H 613.433 2.98826 -0.185361 0
M  V30 6416 H 610.979 1.43715 -0.0905886 0
M  V30 6417 H 612.932 3.61211 2.17036 0
M  V30 6418 H 611.656 2.3717 2.2454 0
M  V30 6419 H 610.315 3.62855 0.522633 0
M  V30 6420 H 609.963 4.06719 2.95953 0
M  V30 6421 H 609.663 5.52966 1.98752 0
M  V30 6422 H 611.187 5.37004 2.90618 0
M  V30 6423 H 612.601 5.6951 0.658126 0
M  V30 6424 H 610.998 6.00057 -0.0717122 0
M  V30 6425 H 612.068 4.78398 -0.791438 0
M  V30 6426 N 613.412 0.11024 1.57214 0
M  V30 6427 C 614.658 -0.550684 1.9518 0
M  V30 6428 C 614.991 -1.66885 0.993122 0
M  V30 6429 O 614.266 -1.94479 0.0287907 0
M  V30 6430 C 614.549 -1.09163 3.43155 0
M  V30 6431 C 614.402 0.0225198 4.49794 0
M  V30 6432 C 615.721 -1.98527 3.92778 0
M  V30 6433 H 612.84 -0.198706 0.709708 0
M  V30 6434 H 615.482 0.184024 1.89107 0
M  V30 6435 H 613.632 -1.71775 3.48462 0
M  V30 6436 H 615.304 0.657443 4.56591 0
M  V30 6437 H 613.547 0.686868 4.28328 0
M  V30 6438 H 614.218 -0.39706 5.5057 0
M  V30 6439 H 616.694 -1.458 3.8972 0
M  V30 6440 H 615.57 -2.33298 4.96853 0
M  V30 6441 H 615.831 -2.90846 3.32958 0
M  V30 6442 N 614.89 -1.56749 -0.16351 0
M  V30 6443 C 616.138 -1.82074 -0.87713 0
M  V30 6444 C 616.459 -0.688503 -1.82441 0
M  V30 6445 O 615.729 0.291085 -1.93725 0
M  V30 6446 H 614.309 -0.671677 -0.326893 0
M  V30 6447 H 616.971 -1.9423 -0.161459 0
M  V30 6448 H 616.067 -2.76407 -1.44934 0
M  V30 6449 N 616.368 0.432326 -1.51554 0
M  V30 6450 C 617.598 1.2019 -1.68042 0
M  V30 6451 C 618.006 1.85356 -0.379434 0
M  V30 6452 O 617.349 1.71724 0.652427 0
M  V30 6453 C 617.411 2.32387 -2.74292 0
M  V30 6454 C 617.075 1.87548 -4.16743 0
M  V30 6455 C 618.072 1.37611 -5.01357 0
M  V30 6456 C 615.757 1.95087 -4.62868 0
M  V30 6457 C 617.751 0.958069 -6.30159 0
M  V30 6458 C 615.438 1.52894 -5.91664 0
M  V30 6459 C 616.436 1.03336 -6.75137 0
M  V30 6460 O 616.124 0.617435 -8.01525 0
M  V30 6461 H 615.856 0.368132 -0.56697 0
M  V30 6462 H 618.41 0.517875 -1.98764 0
M  V30 6463 H 616.64 3.04082 -2.38895 0
M  V30 6464 H 618.329 2.94235 -2.79608 0
M  V30 6465 H 619.095 1.31178 -4.66923 0
M  V30 6466 H 614.974 2.32606 -3.98015 0
M  V30 6467 H 618.518 0.570562 -6.95263 0
M  V30 6468 H 614.415 1.58999 -6.25611 0
M  V30 6469 H 615.183 0.742835 -8.15122 0
M  V30 6470 N 617.846 1.41785 0.688094 0
M  V30 6471 C 618.776 1.47 1.8142 0
M  V30 6472 C 619.757 0.327881 1.6691 0
M  V30 6473 O 620.942 0.540362 1.86531 0
M  V30 6474 C 618.072 1.35876 3.19617 0
M  V30 6475 C 617.026 2.47976 3.48844 0
M  V30 6476 C 616.352 2.21915 4.86475 0
M  V30 6477 C 617.652 3.90309 3.47068 0
M  V30 6478 H 619.346 2.41247 1.77314 0
M  V30 6479 H 616.892 1.16116 0.851651 0
M  V30 6480 H 618.845 1.38134 3.98117 0
M  V30 6481 H 617.569 0.38116 3.24368 0
M  V30 6482 H 616.228 2.45013 2.72698 0
M  V30 6483 H 615.876 1.2248 4.8786 0
M  V30 6484 H 615.576 2.97037 5.06994 0
M  V30 6485 H 617.1 2.25901 5.67275 0
M  V30 6486 H 618.514 3.94947 4.1556 0
M  V30 6487 H 616.911 4.65175 3.7912 0
M  V30 6488 H 617.981 4.17927 2.45896 0
M  V30 6489 N 619.324 -0.923095 1.27737 0
M  V30 6490 C 620.601 -1.64989 1.05062 0
M  V30 6491 C 620.981 -2.07018 -0.413124 0
M  V30 6492 O 620.329 -1.80797 -1.39731 0
M  V30 6493 C 620.539 -2.84847 2.01652 0
M  V30 6494 C 621.887 -3.56083 2.31279 0
M  V30 6495 O 622.911 -2.94981 1.99662 0
M  V30 6496 O 621.77 -4.66182 2.85196 0
M  V30 6497 H 618.864 -0.723357 0.400853 0
M  V30 6498 H 621.41 -0.973224 1.3902 0
M  V30 6499 H 620.182 -2.50814 3.00347 0
M  V30 6500 H 619.805 -3.60231 1.68284 0
M  V30 6501 N 620.802 -1.09834 -1.13024 0
M  V30 6502 C 622.218 -0.828875 -1.36388 0
M  V30 6503 C 622.418 0.554756 -1.93713 0
M  V30 6504 O 621.474 1.30882 -2.15931 0
M  V30 6505 C 622.787 -1.92352 -2.3113 0
M  V30 6506 C 624.335 -1.95124 -2.44735 0
M  V30 6507 C 624.81 -3.03745 -3.42787 0
M  V30 6508 N 626.301 -3.03012 -3.5034 0
M  V30 6509 C 627.036 -3.83699 -4.26101 0
M  V30 6510 N 626.532 -4.74306 -5.04981 0
M  V30 6511 N 628.325 -3.71942 -4.21445 0
M  V30 6512 H 620.476 -1.99029 -0.74169 0
M  V30 6513 H 622.739 -0.864557 -0.388903 0
M  V30 6514 H 622.445 -2.91906 -1.96172 0
M  V30 6515 H 622.319 -1.80536 -3.3119 0
M  V30 6516 H 624.706 -0.962069 -2.78977 0
M  V30 6517 H 624.787 -2.11018 -1.44586 0
M  V30 6518 H 624.431 -4.02878 -3.09276 0
M  V30 6519 H 624.361 -2.85094 -4.42752 0
M  V30 6520 H 626.852 -2.37352 -2.94062 0
M  V30 6521 H 627.165 -5.32446 -5.60108 0
M  V30 6522 H 625.51 -4.78339 -5.04199 0
M  V30 6523 H 628.701 -3.00513 -3.589 0
M  V30 6524 H 628.874 -4.35062 -4.80235 0
M  V30 6525 N 622.28 1.30327 -0.886154 0
M  V30 6526 C 623.228 2.30052 -0.343317 0
M  V30 6527 C 624.222 1.60212 0.550305 0
M  V30 6528 O 625.428 1.74674 0.434609 0
M  V30 6529 H 621.803 0.746306 -0.0923681 0
M  V30 6530 H 623.774 2.73294 -1.19804 0
M  V30 6531 C 622.523 3.45079 0.426107 0
M  V30 6532 H 621.846 3.99003 -0.25227 0
M  V30 6533 H 623.286 4.16931 0.771009 0
M  V30 6534 C 621.745 2.95195 1.62363 0
M  V30 6535 O 622.275 2.95323 2.723 0
M  V30 6536 N 620.481 2.51192 1.4612 0
M  V30 6537 H 620.028 2.51286 0.566832 0
M  V30 6538 H 619.986 2.18173 2.2638 0
M  V30 6539 N 623.758 0.647228 1.43697 0
M  V30 6540 C 624.688 -0.0345631 2.33474 0
M  V30 6541 C 625.669 -0.818193 1.4913 0
M  V30 6542 O 626.854 -0.780867 1.77809 0
M  V30 6543 C 623.984 -1.00576 3.32418 0
M  V30 6544 C 622.938 -0.33266 4.26705 0
M  V30 6545 C 622.264 -1.41489 5.1564 0
M  V30 6546 C 623.564 0.771204 5.16575 0
M  V30 6547 H 625.258 0.715163 2.90733 0
M  V30 6548 H 622.804 0.345364 1.39797 0
M  V30 6549 H 624.757 -1.49159 3.94119 0
M  V30 6550 H 623.481 -1.78657 2.73403 0
M  V30 6551 H 622.14 0.13267 3.6636 0
M  V30 6552 H 621.788 -2.18698 4.52968 0
M  V30 6553 H 621.488 -0.969799 5.79542 0
M  V30 6554 H 623.012 -1.9022 5.80214 0
M  V30 6555 H 624.426 0.36779 5.72119 0
M  V30 6556 H 622.823 1.1404 5.89165 0
M  V30 6557 H 623.893 1.63169 4.56622 0
M  V30 6558 N 625.236 -1.5273 0.388769 0
M  V30 6559 C 626.146 -2.30165 -0.453993 0
M  V30 6560 C 627.162 -1.37058 -1.07197 0
M  V30 6561 O 628.338 -1.70127 -1.0779 0
M  V30 6562 C 625.403 -3.09303 -1.56628 0
M  V30 6563 C 624.464 -4.18117 -0.973467 0
M  V30 6564 C 623.697 -4.93472 -2.03275 0
M  V30 6565 O 623.92 -4.68913 -3.24772 0
M  V30 6566 O 622.854 -5.78833 -1.65034 0
M  V30 6567 H 626.68 -3.03185 0.176816 0
M  V30 6568 H 624.265 -1.4862 0.152501 0
M  V30 6569 H 626.147 -3.58648 -2.21246 0
M  V30 6570 H 624.822 -2.39098 -2.18206 0
M  V30 6571 H 623.729 -3.7297 -0.290556 0
M  V30 6572 H 625.062 -4.90556 -0.401908 0
M  V30 6573 N 626.714 -0.118576 -1.57153 0
M  V30 6574 C 627.661 0.831789 -2.1529 0
M  V30 6575 C 628.631 1.26385 -1.07778 0
M  V30 6576 O 629.816 1.34144 -1.35684 0
M  V30 6577 C 626.956 2.07664 -2.75626 0
M  V30 6578 C 626.069 1.69298 -3.97444 0
M  V30 6579 C 625.204 2.88747 -4.45868 0
M  V30 6580 C 624.243 2.46619 -5.60219 0
M  V30 6581 N 623.38 3.5898 -6.03389 0
M  V30 6582 H 628.22 0.329183 -2.96176 0
M  V30 6583 H 625.757 0.150792 -1.46325 0
M  V30 6584 H 627.715 2.80601 -3.08738 0
M  V30 6585 H 626.345 2.55384 -1.97431 0
M  V30 6586 H 625.397 0.862374 -3.70496 0
M  V30 6587 H 626.709 1.34338 -4.80369 0
M  V30 6588 H 625.863 3.69909 -4.80887 0
M  V30 6589 H 624.602 3.26933 -3.61892 0
M  V30 6590 H 623.607 1.63889 -5.24805 0
M  V30 6591 H 624.832 2.0955 -6.45961 0
M  V30 6592 H 622.778 3.9684 -5.22354 0
M  V30 6593 H 622.695 3.27942 -6.81168 0
M  V30 6594 H 623.963 4.40583 -6.43045 0
M  V30 6595 N 628.193 1.56834 0.155195 0
M  V30 6596 C 629.141 1.98584 1.21107 0
M  V30 6597 C 630.135 0.876987 1.44932 0
M  V30 6598 O 631.341 1.06215 1.45322 0
M  V30 6599 H 627.716 0.632039 0.407469 0
M  V30 6600 H 629.687 2.86561 0.832195 0
M  V30 6601 C 628.436 2.37555 2.53895 0
M  V30 6602 H 627.759 3.22428 2.3639 0
M  V30 6603 H 629.199 2.70598 3.26424 0
M  V30 6604 C 627.658 1.22507 3.13837 0
M  V30 6605 O 628.188 0.521388 3.98302 0
M  V30 6606 N 626.394 0.991444 2.73164 0
M  V30 6607 H 625.941 1.56544 2.04577 0
M  V30 6608 H 625.899 0.223546 3.13604 0
M  V30 6609 N 629.671 -0.424282 1.51781 0
M  V30 6610 C 630.896 -1.19928 1.6921 0
M  V30 6611 C 631.321 -1.8392 0.394355 0
M  V30 6612 O 630.679 -1.69371 -0.646778 0
M  V30 6613 C 630.727 -2.24937 2.81843 0
M  V30 6614 O 629.831 -3.3073 2.46356 0
M  V30 6615 H 629.172 -0.35078 0.563781 0
M  V30 6616 H 631.702 -0.499401 1.98412 0
M  V30 6617 H 631.712 -2.69512 3.06312 0
M  V30 6618 H 630.387 -1.77742 3.76006 0
M  V30 6619 H 628.964 -2.9154 2.32505 0
M  V30 6620 N 631.149 -1.42148 -0.680565 0
M  V30 6621 C 632.377 -1.45696 -1.46902 0
M  V30 6622 C 632.792 -0.0665858 -1.88683 0
M  V30 6623 O 632.149 0.917436 -1.57764 0
M  V30 6624 C 632.2 -2.37898 -2.72188 0
M  V30 6625 O 631.921 -3.71526 -2.32163 0
M  V30 6626 C 633.422 -2.50407 -3.65802 0
M  V30 6627 H 630.642 -0.495729 -0.45221 0
M  V30 6628 H 633.186 -1.866 -0.836709 0
M  V30 6629 H 631.341 -2.00263 -3.31622 0
M  V30 6630 H 631.755 -4.20849 -3.13027 0
M  V30 6631 H 633.229 -3.19056 -4.50452 0
M  V30 6632 H 633.706 -1.5401 -4.11312 0
M  V30 6633 H 634.312 -2.8874 -3.12265 0
M  V30 6634 N 632.627 0.916307 -1.28225 0
M  V30 6635 C 633.574 2.01841 -1.11932 0
M  V30 6636 C 634.544 1.66091 -0.0171604 0
M  V30 6637 O 635.729 1.89934 -0.181617 0
M  V30 6638 C 632.869 3.36065 -0.784504 0
M  V30 6639 C 631.982 3.847 -1.96544 0
M  V30 6640 C 631.117 5.07423 -1.57149 0
M  V30 6641 C 630.156 5.48384 -2.71922 0
M  V30 6642 N 629.293 6.62298 -2.33037 0
M  V30 6643 H 634.133 2.1511 -2.06232 0
M  V30 6644 H 631.67 1.05366 -1.02647 0
M  V30 6645 H 633.628 4.13272 -0.571148 0
M  V30 6646 H 632.258 3.22571 0.121565 0
M  V30 6647 H 631.31 3.03673 -2.291 0
M  V30 6648 H 632.622 4.1102 -2.82603 0
M  V30 6649 H 631.776 5.92165 -1.32004 0
M  V30 6650 H 630.515 4.82906 -0.682153 0
M  V30 6651 H 629.52 4.62184 -2.97768 0
M  V30 6652 H 630.745 5.7489 -3.61494 0
M  V30 6653 H 628.691 6.39416 -1.4657 0
M  V30 6654 H 628.608 6.8833 -3.12631 0
M  V30 6655 H 629.876 7.50352 -2.11169 0
M  V30 6656 N 634.105 1.10431 1.1244 0
M  V30 6657 C 635.037 0.710945 2.17895 0
M  V30 6658 C 636.05 -0.252315 1.60833 0
M  V30 6659 O 637.239 -0.03679 1.78462 0
M  V30 6660 C 634.339 0.0284262 3.38888 0
M  V30 6661 C 633.512 1.01585 4.2544 0
M  V30 6662 C 632.571 0.364826 5.24934 0
M  V30 6663 O 631.597 1.01561 5.60066 0
M  V30 6664 N 632.799 -0.87674 5.73841 0
M  V30 6665 H 635.564 1.61826 2.52255 0
M  V30 6666 H 633.125 0.993132 1.27861 0
M  V30 6667 H 635.117 -0.418568 4.0253 0
M  V30 6668 H 633.687 -0.781294 3.02679 0
M  V30 6669 H 632.907 1.64111 3.58415 0
M  V30 6670 H 634.195 1.68425 4.80115 0
M  V30 6671 H 633.593 -1.42483 5.47462 0
M  V30 6672 H 632.15 -1.26688 6.39369 0
M  V30 6673 N 635.583 -1.29855 0.893053 0
M  V30 6674 C 636.493 -2.31661 0.370157 0
M  V30 6675 C 637.509 -1.65677 -0.531723 0
M  V30 6676 O 638.685 -1.9691 -0.422902 0
M  V30 6677 C 635.75 -3.44388 -0.399741 0
M  V30 6678 C 634.811 -4.2598 0.532861 0
M  V30 6679 C 634.044 -5.33324 -0.200388 0
M  V30 6680 O 634.267 -5.52305 -1.42531 0
M  V30 6681 O 633.201 -6.00188 0.453668 0
M  V30 6682 H 637.027 -2.78354 1.2146 0
M  V30 6683 H 634.612 -1.34171 0.657153 0
M  V30 6684 H 636.494 -4.13037 -0.835358 0
M  V30 6685 H 635.169 -2.99815 -1.22035 0
M  V30 6686 H 634.076 -3.59998 1.01746 0
M  V30 6687 H 635.409 -4.74178 1.3197 0
M  V30 6688 N 637.061 -0.65484 -1.43351 0
M  V30 6689 C 638.31 -0.166215 -2.01014 0
M  V30 6690 C 638.623 1.22764 -1.52278 0
M  V30 6691 O 639.829 1.81156 -2.02224 0
M  V30 6692 C 638.285 -0.246341 -3.59056 0
M  V30 6693 C 637.893 -1.64299 -4.16785 0
M  V30 6694 C 639.637 0.184597 -4.24098 0
M  V30 6695 C 637.544 -1.67695 -5.67126 0
M  V30 6696 H 636.474 -0.0583769 -0.751737 0
M  V30 6697 H 639.125 -0.817111 -1.64303 0
M  V30 6698 H 637.507 0.472092 -3.93176 0
M  V30 6699 H 638.681 -2.3869 -3.94162 0
M  V30 6700 H 636.996 -2.02004 -3.6412 0
M  V30 6701 H 639.593 0.179088 -5.344 0
M  V30 6702 H 639.936 1.21632 -3.98135 0
M  V30 6703 H 640.469 -0.482141 -3.94867 0
M  V30 6704 H 637.208 -2.68783 -5.9786 0
M  V30 6705 H 636.728 -0.976313 -5.91801 0
M  V30 6706 H 638.407 -1.42142 -6.31193 0
M  V30 6707 N 638.539 1.52521 -0.396863 0
M  V30 6708 C 639.469 2.29582 0.425941 0
M  V30 6709 C 640.45 1.33281 1.05689 0
M  V30 6710 O 641.635 1.62181 1.06823 0
M  V30 6711 C 638.765 3.10821 1.54943 0
M  V30 6712 C 637.719 4.15069 1.04413 0
M  V30 6713 C 637.045 4.84578 2.26028 0
M  V30 6714 C 638.345 5.22191 0.106767 0
M  V30 6715 H 640.039 2.98612 -0.217045 0
M  V30 6716 H 637.585 1.43611 -0.105826 0
M  V30 6717 H 639.538 3.63492 2.13193 0
M  V30 6718 H 638.262 2.39538 2.22011 0
M  V30 6719 H 636.921 3.63389 0.484118 0
M  V30 6720 H 636.569 4.09835 2.91623 0
M  V30 6721 H 636.269 5.55043 1.92876 0
M  V30 6722 H 637.793 5.40056 2.84906 0
M  V30 6723 H 639.207 5.70176 0.597685 0
M  V30 6724 H 637.604 5.99947 -0.135352 0
M  V30 6725 H 638.674 4.77531 -0.842134 0
M  V30 6726 N 640.017 0.126909 1.57088 0
M  V30 6727 C 640.98 -0.806097 2.14557 0
M  V30 6728 C 641.98 -1.18918 1.08236 0
M  V30 6729 O 643.17 -1.11339 1.33975 0
M  V30 6730 C 640.302 -2.09116 2.69227 0
M  V30 6731 H 641.495 -0.306522 2.98329 0
M  V30 6732 H 639.048 -0.122393 1.5582 0
M  V30 6733 H 639.783 -2.63486 1.89065 0
M  V30 6734 H 639.568 -1.82588 3.46993 0
M  V30 6735 H 641.058 -2.75794 3.13572 0
M  V30 6736 N 641.495 -1.56914 -0.146875 0
M  V30 6737 C 642.458 -1.97368 -1.16526 0
M  V30 6738 C 643.458 -0.860223 -1.35856 0
M  V30 6739 O 644.648 -1.12684 -1.32846 0
M  V30 6740 C 641.78 -2.28974 -2.52555 0
M  V30 6741 H 642.973 -2.88523 -0.818209 0
M  V30 6742 H 640.526 -1.5135 -0.390221 0
M  V30 6743 H 641.261 -1.40611 -2.92231 0
M  V30 6744 H 641.046 -3.10157 -2.39886 0
M  V30 6745 H 642.536 -2.61109 -3.25902 0
M  V30 6746 N 642.974 0.416227 -1.52004 0
M  V30 6747 C 643.904 1.51365 -1.77795 0
M  V30 6748 C 644.885 1.58059 -0.628601 0
M  V30 6749 O 646.07 1.73447 -0.873478 0
M  V30 6750 C 643.2 2.89256 -1.92219 0
M  V30 6751 C 642.154 2.97415 -3.0778 0
M  V30 6752 C 641.48 4.37492 -3.07417 0
M  V30 6753 C 642.78 2.69551 -4.47369 0
M  V30 6754 H 644.474 1.30033 -2.69688 0
M  V30 6755 H 642.02 0.624112 -1.29772 0
M  V30 6756 H 643.973 3.66008 -2.08845 0
M  V30 6757 H 642.697 3.11866 -0.969917 0
M  V30 6758 H 641.356 2.23107 -2.90893 0
M  V30 6759 H 641.004 4.571 -2.09925 0
M  V30 6760 H 640.704 4.43877 -3.85029 0
M  V30 6761 H 642.228 5.16188 -3.26162 0
M  V30 6762 H 643.642 3.36028 -4.64497 0
M  V30 6763 H 642.039 2.87321 -5.26846 0
M  V30 6764 H 643.109 1.65029 -4.55953 0
M  V30 6765 N 644.452 1.42507 0.673017 0
M  V30 6766 C 645.362 1.4853 1.81593 0
M  V30 6767 C 646.378 0.373907 1.69935 0
M  V30 6768 O 647.554 0.625078 1.91454 0
M  V30 6769 C 644.619 1.387 3.17747 0
M  V30 6770 C 643.68 2.60346 3.41348 0
M  V30 6771 C 642.913 2.50975 4.71007 0
M  V30 6772 O 643.136 1.54659 5.49033 0
M  V30 6773 O 642.07 3.41138 4.95892 0
M  V30 6774 H 645.896 2.45001 1.79467 0
M  V30 6775 H 643.481 1.2429 0.82899 0
M  V30 6776 H 645.363 1.35586 3.98992 0
M  V30 6777 H 644.038 0.453555 3.20507 0
M  V30 6778 H 642.945 2.69034 2.59945 0
M  V30 6779 H 644.278 3.52595 3.43421 0
M  V30 6780 N 645.93 -0.909495 1.28709 0
M  V30 6781 C 646.877 -2.01245 1.13 0
M  V30 6782 C 647.847 -1.6608 0.0259684 0
M  V30 6783 O 649.032 -1.89835 0.191687 0
M  V30 6784 C 646.172 -3.35644 0.802315 0
M  V30 6785 C 645.285 -3.83653 1.98582 0
M  V30 6786 C 644.42 -5.06582 1.59837 0
M  V30 6787 C 643.459 -5.46934 2.74827 0
M  V30 6788 N 642.596 -6.61053 2.36546 0
M  V30 6789 H 647.436 -2.14013 2.0737 0
M  V30 6790 H 644.973 -1.0482 1.03205 0
M  V30 6791 H 646.931 -4.12963 0.593057 0
M  V30 6792 H 645.561 -3.22631 -0.104457 0
M  V30 6793 H 644.613 -3.02454 2.30708 0
M  V30 6794 H 645.925 -4.09515 2.84779 0
M  V30 6795 H 645.079 -5.91457 1.35143 0
M  V30 6796 H 643.818 -4.82537 0.707753 0
M  V30 6797 H 642.823 -4.60599 3.00215 0
M  V30 6798 H 644.048 -5.72965 3.64538 0
M  V30 6799 H 641.994 -6.3863 1.49959 0
M  V30 6800 H 641.911 -6.86662 3.16277 0
M  V30 6801 H 643.179 -7.49221 2.15146 0
M  V30 6802 N 647.408 -1.11026 -1.11852 0
M  V30 6803 C 648.656 -0.854769 -1.83134 0
M  V30 6804 C 648.977 0.621375 -1.84835 0
M  V30 6805 O 648.247 1.45129 -1.31584 0
M  V30 6806 H 646.827 -0.313229 -0.678157 0
M  V30 6807 H 649.489 -1.40178 -1.35411 0
M  V30 6808 H 648.585 -1.22311 -2.87135 0
M  V30 6809 N 648.886 1.2938 -0.899927 0
M  V30 6810 C 650.126 1.97332 -0.532871 0
M  V30 6811 C 650.49 1.69385 0.904029 0
M  V30 6812 O 651.691 2.30793 1.37797 0
M  V30 6813 C 649.962 3.47927 -0.817393 0
M  V30 6814 S 651.521 4.3528 -0.55468 0
M  V30 6815 H 648.339 0.682966 -0.197683 0
M  V30 6816 H 650.941 1.57189 -1.16241 0
M  V30 6817 H 649.645 3.65761 -1.86138 0
M  V30 6818 H 649.176 3.93006 -0.175978 0
M  V30 6819 H 651.191 4.92557 0.600182 0
M  V30 6820 N 650.364 0.662433 1.43002 0
M  V30 6821 C 651.589 0.186003 2.06564 0
M  V30 6822 C 652.014 -1.14314 1.49379 0
M  V30 6823 O 651.372 -1.70824 0.607346 0
M  V30 6824 C 651.42 0.118269 3.60406 0
M  V30 6825 O 650.524 -0.916859 4.02079 0
M  V30 6826 H 649.865 0.0990981 0.656563 0
M  V30 6827 H 652.395 0.907958 1.8335 0
M  V30 6828 H 652.405 -0.0619981 4.07953 0
M  V30 6829 H 651.08 1.08849 4.01403 0
M  V30 6830 H 649.657 -0.708635 3.66105 0
M  V30 6831 N 651.842 -1.52309 0.404946 0
M  V30 6832 C 653.089 -2.01767 -0.1722 0
M  V30 6833 C 653.417 -1.29075 -1.45498 0
M  V30 6834 O 652.672 -0.3843 -1.9189 0
M  V30 6835 C 652.971 -3.54284 -0.470895 0
M  V30 6836 C 652.637 -4.45079 0.722194 0
M  V30 6837 C 651.299 -4.69617 1.04946 0
M  V30 6838 C 653.651 -4.98555 1.51962 0
M  V30 6839 C 650.979 -5.44878 2.17543 0
M  V30 6840 C 653.331 -5.75049 2.63632 0
M  V30 6841 C 651.995 -5.9786 2.9685 0
M  V30 6842 H 651.265 -0.738316 -0.0630125 0
M  V30 6843 H 653.912 -1.83566 0.545506 0
M  V30 6844 H 652.217 -3.70642 -1.27012 0
M  V30 6845 H 653.914 -3.90058 -0.930346 0
M  V30 6846 H 650.504 -4.26155 0.457131 0
M  V30 6847 H 654.688 -4.79509 1.28002 0
M  V30 6848 H 649.944 -5.60762 2.43631 0
M  V30 6849 H 654.118 -6.15483 3.25813 0
M  V30 6850 H 651.745 -6.5596 3.84215 0
M  V30 6851 N 653.32 -0.135238 -1.57019 0
M  V30 6852 C 654.25 0.805235 -2.19176 0
M  V30 6853 C 655.231 1.2656 -1.13651 0
M  V30 6854 O 656.416 1.32528 -1.4195 0
M  V30 6855 C 653.546 2.04914 -2.80406 0
M  V30 6856 C 652.5 1.72598 -3.91655 0
M  V30 6857 C 651.826 3.04154 -4.39766 0
M  V30 6858 C 653.126 0.981709 -5.12991 0
M  V30 6859 H 654.82 0.287232 -2.98019 0
M  V30 6860 H 652.366 0.136714 -1.4335 0
M  V30 6861 H 654.319 2.71178 -3.22553 0
M  V30 6862 H 653.043 2.59067 -1.98877 0
M  V30 6863 H 651.702 1.08717 -3.50109 0
M  V30 6864 H 651.35 3.56274 -3.55075 0
M  V30 6865 H 651.05 2.83299 -5.14796 0
M  V30 6866 H 652.574 3.71509 -4.84576 0
M  V30 6867 H 653.988 1.5462 -5.52056 0
M  V30 6868 H 652.385 0.873533 -5.93708 0
M  V30 6869 H 653.455 -0.0286887 -4.84892 0
M  V30 6870 N 654.798 1.5699 0.138552 0
M  V30 6871 C 656.209 1.73171 0.697754 0
M  V30 6872 C 656.56 0.750952 1.8126 0
M  V30 6873 O 655.685 -0.080549 2.1625 0
M  V30 6874 C 656.28 3.13996 1.27248 0
M  V30 6875 C 654.839 3.3175 1.77816 0
M  V30 6876 C 653.986 2.69084 0.669991 0
M  V30 6877 H 656.937 1.5846 -0.0871979 0
M  V30 6878 H 656.958 3.14463 2.14227 0
M  V30 6879 H 656.47 3.85354 0.460855 0
M  V30 6880 H 654.571 2.65403 2.61519 0
M  V30 6881 H 654.684 4.39768 1.90107 0
M  V30 6882 H 653.048 2.29782 1.09874 0
M  V30 6883 H 653.831 3.43053 -0.130329 0
M  V30 6884 N 656.276 -0.40816 1.52223 0
M  V30 6885 C 657.553 -1.16807 1.56893 0
M  V30 6886 C 657.933 -2.08169 0.350537 0
M  V30 6887 O 657.281 -2.18684 -0.662536 0
M  V30 6888 C 657.491 -1.94451 2.8981 0
M  V30 6889 C 658.839 -2.50484 3.42845 0
M  V30 6890 O 659.863 -2.0463 2.91556 0
M  V30 6891 O 658.722 -3.34192 4.3241 0
M  V30 6892 H 655.816 -0.533382 0.632007 0
M  V30 6893 H 658.362 -0.414862 1.64551 0
M  V30 6894 H 657.134 -1.27527 3.69936 0
M  V30 6895 H 656.757 -2.76775 2.85449 0
M  V30 6896 N 657.755 -1.42862 -0.66545 0
M  V30 6897 C 659.166 -1.3901 -1.24632 0
M  V30 6898 C 659.517 -0.0880285 -1.96002 0
M  V30 6899 O 658.642 0.812947 -2.0055 0
M  V30 6900 C 659.237 -2.51806 -2.2667 0
M  V30 6901 C 657.796 -2.51257 -2.80262 0
M  V30 6902 C 656.943 -2.30124 -1.5472 0
M  V30 6903 H 659.894 -1.5194 -0.458237 0
M  V30 6904 H 659.915 -2.22593 -3.08598 0
M  V30 6905 H 659.427 -3.46558 -1.74697 0
M  V30 6906 H 657.528 -1.60349 -3.36332 0
M  V30 6907 H 657.641 -3.48614 -3.28641 0
M  V30 6908 H 656.005 -1.7856 -1.81627 0
M  V30 6909 H 656.788 -3.26945 -1.04699 0
M  V30 6910 N 659.233 0.902656 -1.29189 0
M  V30 6911 C 660.463 1.68394 -1.19695 0
M  V30 6912 C 660.871 1.87602 0.245384 0
M  V30 6913 O 660.214 1.41084 1.17648 0
M  V30 6914 C 660.276 3.09094 -1.83578 0
M  V30 6915 C 659.94 3.1313 -3.32864 0
M  V30 6916 C 660.937 2.93497 -4.29134 0
M  V30 6917 C 658.622 3.3529 -3.74013 0
M  V30 6918 C 660.616 2.95953 -5.64527 0
M  V30 6919 C 658.303 3.37377 -5.09529 0
M  V30 6920 C 659.301 3.1773 -6.04596 0
M  V30 6921 O 658.989 3.196 -7.37639 0
M  V30 6922 H 658.721 0.532815 -0.416034 0
M  V30 6923 H 661.275 1.1374 -1.71033 0
M  V30 6924 H 659.505 3.65338 -1.26747 0
M  V30 6925 H 661.194 3.69297 -1.68447 0
M  V30 6926 H 661.96 2.76192 -3.98677 0
M  V30 6927 H 657.839 3.49623 -3.00474 0
M  V30 6928 H 661.383 2.80536 -6.38706 0
M  V30 6929 H 657.28 3.54213 -5.39633 0
M  V30 6930 H 658.048 3.35887 -7.46406 0
M  V30 6931 N 660.711 1.11618 1.11262 0
M  V30 6932 C 661.643 0.734015 2.17129 0
M  V30 6933 C 662.656 -0.235243 1.61091 0
M  V30 6934 O 663.845 -0.0178597 1.78491 0
M  V30 6935 C 660.945 0.0643682 3.38839 0
M  V30 6936 C 660.118 1.06092 4.24339 0
M  V30 6937 C 659.177 0.420482 5.24517 0
M  V30 6938 O 658.203 1.07495 5.58957 0
M  V30 6939 N 659.405 -0.815828 5.74739 0
M  V30 6940 H 662.17 1.64492 2.50524 0
M  V30 6941 H 659.731 1.00664 1.26801 0
M  V30 6942 H 661.723 -0.375851 4.02951 0
M  V30 6943 H 660.293 -0.749147 3.03491 0
M  V30 6944 H 659.513 1.67903 3.56654 0
M  V30 6945 H 660.801 1.73507 4.78302 0
M  V30 6946 H 660.199 -1.36668 5.48943 0
M  V30 6947 H 658.756 -1.199 6.40677 0
M  V30 6948 N 662.189 -1.289 0.906776 0
M  V30 6949 C 663.136 -2.2751 0.388313 0
M  V30 6950 C 664.106 -1.57301 -0.533439 0
M  V30 6951 O 665.291 -1.85243 -0.457148 0
M  V30 6952 C 662.431 -3.43091 -0.37181 0
M  V30 6953 C 661.544 -4.28066 0.581647 0
M  V30 6954 C 660.679 -5.30837 -0.19623 0
M  V30 6955 C 659.718 -6.07472 0.751294 0
M  V30 6956 N 658.855 -7.021 0.00737727 0
M  V30 6957 H 663.695 -2.71237 1.23428 0
M  V30 6958 H 661.232 -1.33397 0.619962 0
M  V30 6959 H 663.19 -4.08888 -0.828641 0
M  V30 6960 H 661.82 -3.00374 -1.18218 0
M  V30 6961 H 660.872 -3.62378 1.157 0
M  V30 6962 H 662.184 -4.81382 1.30665 0
M  V30 6963 H 661.338 -6.02485 -0.71394 0
M  V30 6964 H 660.077 -4.78272 -0.954324 0
M  V30 6965 H 659.082 -5.34682 1.28044 0
M  V30 6966 H 660.307 -6.62126 1.50883 0
M  V30 6967 H 658.253 -6.51894 -0.732854 0
M  V30 6968 H 658.17 -7.53004 0.672334 0
M  V30 6969 H 659.438 -7.77956 -0.490365 0
M  V30 6970 N 663.667 -0.670007 -1.42649 0
M  V30 6971 C 664.599 0.0501746 -2.29145 0
M  V30 6972 C 665.612 0.770331 -1.43422 0
M  V30 6973 O 666.801 0.625288 -1.6719 0
M  V30 6974 C 663.901 1.09463 -3.20735 0
M  V30 6975 C 663.074 0.44926 -4.35087 0
M  V30 6976 C 662.133 1.39285 -5.07431 0
M  V30 6977 O 661.159 0.894997 -5.6212 0
M  V30 6978 N 662.361 2.72631 -5.12496 0
M  V30 6979 H 665.126 -0.692312 -2.91594 0
M  V30 6980 H 662.687 -0.514056 -1.53522 0
M  V30 6981 H 664.679 1.72705 -3.65999 0
M  V30 6982 H 663.249 1.73891 -2.59771 0
M  V30 6983 H 662.469 -0.362573 -3.92529 0
M  V30 6984 H 663.757 -0.000544776 -5.088 0
M  V30 6985 H 663.155 3.15623 -4.69467 0
M  V30 6986 H 661.712 3.31132 -5.61422 0
M  V30 6987 N 665.145 1.52092 -0.413018 0
M  V30 6988 C 666.385 2.03765 0.160975 0
M  V30 6989 C 666.749 1.29174 1.4205 0
M  V30 6990 O 667.95 1.71093 2.07318 0
M  V30 6991 C 666.221 3.55167 0.398871 0
M  V30 6992 S 667.78 4.28619 0.939755 0
M  V30 6993 H 664.598 0.709685 0.0432281 0
M  V30 6994 H 667.2 1.87102 -0.566831 0
M  V30 6995 H 665.904 4.07034 -0.524544 0
M  V30 6996 H 665.435 3.7608 1.15444 0
M  V30 6997 H 667.45 4.43773 2.21991 0
M  V30 6998 N 666.623 0.143563 1.56945 0
M  V30 6999 C 667.9 -0.553285 1.87612 0
M  V30 7000 C 668.28 -1.83195 1.04894 0
M  V30 7001 O 667.628 -2.28102 0.134773 0
M  V30 7002 C 667.838 -0.822055 3.3918 0
M  V30 7003 C 669.186 -1.16435 4.08324 0
M  V30 7004 O 670.21 -0.911522 3.4434 0
M  V30 7005 O 669.069 -1.63996 5.21313 0
M  V30 7006 H 666.163 -0.281851 0.777489 0
M  V30 7007 H 668.709 0.179916 1.68744 0
M  V30 7008 H 667.481 0.0830265 3.91212 0
M  V30 7009 H 667.104 -1.60956 3.63564 0
M  V30 7010 N 668.101 -1.57061 -0.130224 0
M  V30 7011 C 669.033 -1.96147 -1.18571 0
M  V30 7012 C 670.046 -0.859347 -1.38272 0
M  V30 7013 O 671.235 -1.13769 -1.37545 0
M  V30 7014 C 668.335 -2.23484 -2.54771 0
M  V30 7015 C 667.508 -3.54786 -2.55824 0
M  V30 7016 C 666.567 -3.70467 -3.73686 0
M  V30 7017 O 665.593 -4.42693 -3.57787 0
M  V30 7018 N 666.795 -3.08389 -4.91809 0
M  V30 7019 H 669.56 -2.87295 -0.853333 0
M  V30 7020 H 667.121 -1.58714 -0.319621 0
M  V30 7021 H 669.113 -2.312 -3.32158 0
M  V30 7022 H 667.683 -1.38518 -2.80235 0
M  V30 7023 H 666.903 -3.5836 -1.64232 0
M  V30 7024 H 668.191 -4.4111 -2.53573 0
M  V30 7025 H 667.589 -2.49656 -5.0763 0
M  V30 7026 H 666.146 -3.21642 -5.66912 0
M  V30 7027 N 669.579 0.400081 -1.52437 0
M  V30 7028 C 670.826 1.14619 -1.6694 0
M  V30 7029 C 671.154 1.90262 -0.403797 0
M  V30 7030 O 670.409 1.85835 0.61351 0
M  V30 7031 C 670.708 2.15914 -2.84808 0
M  V30 7032 C 670.374 1.57011 -4.2268 0
M  V30 7033 C 669.036 1.40672 -4.60179 0
M  V30 7034 C 671.388 1.14081 -5.08562 0
M  V30 7035 C 668.716 0.799335 -5.81229 0
M  V30 7036 C 671.068 0.547573 -6.30226 0
M  V30 7037 C 669.732 0.371389 -6.66466 0
M  V30 7038 H 669.002 0.419419 -0.610875 0
M  V30 7039 H 671.649 0.432227 -1.86558 0
M  V30 7040 H 669.954 2.93488 -2.59561 0
M  V30 7041 H 671.651 2.73533 -2.93225 0
M  V30 7042 H 668.241 1.70713 -3.93135 0
M  V30 7043 H 672.425 1.2551 -4.80168 0
M  V30 7044 H 667.681 0.65093 -6.07925 0
M  V30 7045 H 671.855 0.206575 -6.96094 0
M  V30 7046 H 669.482 -0.10135 -7.60132 0
M  V30 7047 N 671.057 1.43213 0.657864 0
M  V30 7048 C 672.303 1.44798 1.41991 0
M  V30 7049 C 672.636 0.070256 1.94073 0
M  V30 7050 O 671.911 -0.908177 1.71995 0
M  V30 7051 C 672.194 2.4865 2.60471 0
M  V30 7052 C 672.047 3.95679 2.13911 0
M  V30 7053 C 673.366 2.49292 3.62686 0
M  V30 7054 H 670.485 0.527244 0.514959 0
M  V30 7055 H 673.127 1.74733 0.74621 0
M  V30 7056 H 671.277 2.23254 3.17946 0
M  V30 7057 H 672.949 4.32116 1.61472 0
M  V30 7058 H 671.192 4.08733 1.45325 0
M  V30 7059 H 671.863 4.6395 2.99089 0
M  V30 7060 H 674.339 2.71917 3.14961 0
M  V30 7061 H 673.215 3.23907 4.43143 0
M  V30 7062 H 673.476 1.52502 4.14964 0
M  V30 7063 N 672.536 -0.895792 1.29666 0
M  V30 7064 C 673.499 -1.98189 1.15124 0
M  V30 7065 C 674.499 -1.60572 0.0855717 0
M  V30 7066 O 675.689 -1.70991 0.332826 0
M  V30 7067 C 672.821 -3.32289 0.761372 0
M  V30 7068 H 674.014 -2.12518 2.11603 0
M  V30 7069 H 671.567 -1.0808 1.12908 0
M  V30 7070 H 672.302 -3.23662 -0.203393 0
M  V30 7071 H 672.087 -3.60958 1.53139 0
M  V30 7072 H 673.577 -4.1198 0.682792 0
M  V30 7073 N 674.014 -1.12206 -1.10668 0
M  V30 7074 C 674.924 -0.800686 -2.20513 0
M  V30 7075 C 675.94 0.209512 -1.72734 0
M  V30 7076 O 677.116 0.043705 -2.01353 0
M  V30 7077 C 674.181 -0.257353 -3.45744 0
M  V30 7078 C 673.242 -1.32718 -4.0827 0
M  V30 7079 C 672.475 -0.809674 -5.27522 0
M  V30 7080 O 672.698 0.35742 -5.69279 0
M  V30 7081 O 671.632 -1.57816 -5.80842 0
M  V30 7082 H 675.458 -1.71807 -2.50432 0
M  V30 7083 H 673.043 -0.898546 -1.19359 0
M  V30 7084 H 674.925 0.0408849 -4.2138 0
M  V30 7085 H 673.6 0.632627 -3.17458 0
M  V30 7086 H 672.507 -1.67855 -3.34329 0
M  V30 7087 H 673.84 -2.19083 -4.40753 0
M  V30 7088 N 675.492 1.28418 -0.913599 0
M  V30 7089 C 676.722 1.98817 -0.56172 0
M  V30 7090 C 677.13 1.68457 0.861321 0
M  V30 7091 O 676.473 0.933653 1.58204 0
M  V30 7092 C 676.535 3.52801 -0.690785 0
M  V30 7093 C 676.199 4.0675 -2.08334 0
M  V30 7094 C 677.196 4.20597 -3.05604 0
M  V30 7095 C 674.881 4.41445 -2.39648 0
M  V30 7096 C 676.875 4.68392 -4.32305 0
M  V30 7097 C 674.562 4.88934 -3.66588 0
M  V30 7098 C 675.56 5.02364 -4.6273 0
M  V30 7099 O 675.248 5.48817 -5.87414 0
M  V30 7100 H 674.98 0.641608 -0.212874 0
M  V30 7101 H 677.534 1.64584 -1.22887 0
M  V30 7102 H 675.764 3.86686 0.0334336 0
M  V30 7103 H 677.453 4.04422 -0.346031 0
M  V30 7104 H 678.219 3.94067 -2.8273 0
M  V30 7105 H 674.098 4.30242 -1.65567 0
M  V30 7106 H 677.642 4.7879 -5.07352 0
M  V30 7107 H 673.539 5.14904 -3.89287 0
M  V30 7108 H 674.307 5.67103 -5.90201 0
M  V30 7109 N 676.97 0.677563 1.42291 0
M  V30 7110 C 677.88 0.000962654 2.346 0
M  V30 7111 C 678.896 -0.785833 1.55244 0
M  V30 7112 O 680.072 -0.727523 1.87801 0
M  V30 7113 C 677.137 -0.936746 3.33805 0
M  V30 7114 C 676.198 -0.144173 4.29058 0
M  V30 7115 C 675.431 -1.03722 5.23524 0
M  V30 7116 O 675.654 -2.27675 5.22992 0
M  V30 7117 O 674.588 -0.496542 5.99848 0
M  V30 7118 H 678.414 0.761397 2.94001 0
M  V30 7119 H 675.999 0.43781 1.42841 0
M  V30 7120 H 677.881 -1.47497 3.94744 0
M  V30 7121 H 676.556 -1.67698 2.76874 0
M  V30 7122 H 675.463 0.438224 3.71524 0
M  V30 7123 H 676.796 0.55701 4.89038 0
M  V30 7124 N 678.448 -1.51871 0.421078 0
M  V30 7125 C 679.859 -1.86644 -0.0457991 0
M  V30 7126 C 680.21 -1.33919 -1.43388 0
M  V30 7127 O 679.335 -0.683316 -2.05328 0
M  V30 7128 C 679.93 -3.38681 -0.0898844 0
M  V30 7129 C 678.489 -3.73049 -0.501127 0
M  V30 7130 C 677.636 -2.75485 0.316723 0
M  V30 7131 H 680.587 -1.45327 0.637635 0
M  V30 7132 H 680.608 -3.69636 -0.902734 0
M  V30 7133 H 680.12 -3.77025 0.920513 0
M  V30 7134 H 678.221 -3.40288 -1.51773 0
M  V30 7135 H 678.334 -4.78512 -0.237217 0
M  V30 7136 H 676.698 -2.53725 -0.222663 0
M  V30 7137 H 677.481 -3.16671 1.32569 0
M  V30 7138 N 679.926 -0.151884 -1.56866 0
M  V30 7139 C 681.172 0.498742 -1.96572 0
M  V30 7140 C 681.505 1.64194 -1.03702 0
M  V30 7141 O 680.78 1.94334 -0.0803432 0
M  V30 7142 C 681.063 1.00027 -3.45929 0
M  V30 7143 C 680.916 -0.141767 -4.49577 0
M  V30 7144 C 682.235 1.88044 -3.97904 0
M  V30 7145 H 679.354 0.17982 -0.714726 0
M  V30 7146 H 681.996 -0.234097 -1.88552 0
M  V30 7147 H 680.146 1.62476 -3.52894 0
M  V30 7148 H 681.818 -0.778269 -4.54687 0
M  V30 7149 H 680.061 -0.80019 -4.26356 0
M  V30 7150 H 680.732 0.250947 -5.51429 0
M  V30 7151 H 683.208 1.35416 -3.93449 0
M  V30 7152 H 682.084 2.20043 -5.02864 0
M  V30 7153 H 682.345 2.81916 -3.40552 0
M  V30 7154 N 681.404 1.57128 0.121893 0
M  V30 7155 C 682.334 2.03165 1.15092 0
M  V30 7156 C 683.315 0.915587 1.43356 0
M  V30 7157 O 684.5 1.1851 1.53847 0
M  V30 7158 C 681.63 2.43352 2.47784 0
M  V30 7159 C 680.584 3.58376 2.33989 0
M  V30 7160 C 679.91 3.84454 3.71617 0
M  V30 7161 C 681.21 4.90199 1.80283 0
M  V30 7162 H 682.904 2.89382 0.768023 0
M  V30 7163 H 680.45 1.39218 0.367998 0
M  V30 7164 H 682.403 2.74163 3.20019 0
M  V30 7165 H 681.127 1.54103 2.87958 0
M  V30 7166 H 679.786 3.2777 1.64202 0
M  V30 7167 H 679.434 2.92414 4.09271 0
M  V30 7168 H 679.134 4.61877 3.6324 0
M  V30 7169 H 680.658 4.17714 4.45362 0
M  V30 7170 H 682.072 5.19565 2.42333 0
M  V30 7171 H 680.469 5.71601 1.82735 0
M  V30 7172 H 681.539 4.78904 0.760184 0
M  V30 7173 N 682.882 -0.391992 1.52647 0
M  V30 7174 C 684.131 -1.13449 1.6677 0
M  V30 7175 C 684.444 -1.91203 0.412399 0
M  V30 7176 O 685.65 -2.68013 0.433707 0
M  V30 7177 C 684.106 -2.06577 2.9471 0
M  V30 7178 C 683.714 -1.3426 4.27409 0
M  V30 7179 C 685.458 -2.80981 3.18198 0
M  V30 7180 C 683.365 -2.26136 5.46458 0
M  V30 7181 H 682.295 -0.427211 0.621295 0
M  V30 7182 H 684.946 -0.397522 1.79142 0
M  V30 7183 H 683.328 -2.83898 2.76076 0
M  V30 7184 H 684.502 -0.621856 4.56585 0
M  V30 7185 H 682.817 -0.718279 4.10158 0
M  V30 7186 H 685.414 -3.49898 4.04321 0
M  V30 7187 H 685.757 -3.44891 2.33144 0
M  V30 7188 H 686.29 -2.10754 3.37383 0
M  V30 7189 H 683.029 -1.66846 6.33911 0
M  V30 7190 H 682.549 -2.96134 5.21598 0
M  V30 7191 H 684.228 -2.86286 5.80215 0
M  V30 7192 N 684.36 -1.4356 -0.65026 0
M  V30 7193 C 685.27 -1.514 -1.79207 0
M  V30 7194 C 686.286 -0.400895 -1.69319 0
M  V30 7195 O 687.462 -0.655458 -1.90436 0
M  V30 7196 C 684.527 -1.43737 -3.155 0
M  V30 7197 C 683.588 -2.65743 -3.37163 0
M  V30 7198 C 682.821 -2.58436 -4.66954 0
M  V30 7199 O 683.044 -1.63374 -5.46503 0
M  V30 7200 O 681.978 -3.48984 -4.90402 0
M  V30 7201 H 685.804 -2.47825 -1.75547 0
M  V30 7202 H 683.389 -1.25594 -0.809111 0
M  V30 7203 H 685.271 -1.41916 -3.96784 0
M  V30 7204 H 683.946 -0.504488 -3.19745 0
M  V30 7205 H 682.853 -2.73136 -2.55632 0
M  V30 7206 H 684.186 -3.58014 -3.37768 0
M  V30 7207 N 685.838 0.888903 -1.30139 0
M  V30 7208 C 687.087 1.63507 -1.18103 0
M  V30 7209 C 687.4 1.93808 0.264141 0
M  V30 7210 O 688.606 2.66744 0.505966 0
M  V30 7211 C 687.062 2.94673 -2.0663 0
M  V30 7212 C 686.67 2.71926 -3.56034 0
M  V30 7213 C 688.414 3.72626 -2.03346 0
M  V30 7214 C 686.321 3.98884 -4.3663 0
M  V30 7215 H 685.251 0.613426 -0.438435 0
M  V30 7216 H 687.902 0.984427 -1.54859 0
M  V30 7217 H 686.284 3.61009 -1.62754 0
M  V30 7218 H 687.458 2.14116 -4.08033 0
M  V30 7219 H 685.773 2.07353 -3.61101 0
M  V30 7220 H 688.37 4.66775 -2.60816 0
M  V30 7221 H 688.713 4.03712 -1.016 0
M  V30 7222 H 689.246 3.13147 -2.45324 0
M  V30 7223 H 685.985 3.72959 -5.39056 0
M  V30 7224 H 685.505 4.56214 -3.89396 0
M  V30 7225 H 687.184 4.66938 -4.47859 0
M  V30 7226 N 687.317 1.12792 1.10072 0
M  V30 7227 C 688.247 0.821688 2.18565 0
M  V30 7228 C 689.228 -0.21612 1.68721 0
M  V30 7229 O 690.413 -0.0764932 1.94049 0
M  V30 7230 C 687.543 0.279624 3.46172 0
M  V30 7231 C 686.497 1.25092 4.09312 0
M  V30 7232 C 685.823 0.568916 5.31665 0
M  V30 7233 C 687.123 2.60699 4.52585 0
M  V30 7234 H 688.817 1.72888 2.44438 0
M  V30 7235 H 686.363 0.832702 1.17482 0
M  V30 7236 H 688.316 0.053099 4.21367 0
M  V30 7237 H 687.04 -0.662929 3.19801 0
M  V30 7238 H 685.699 1.46332 3.36129 0
M  V30 7239 H 685.347 -0.378898 5.01571 0
M  V30 7240 H 685.047 1.21687 5.74862 0
M  V30 7241 H 686.571 0.351517 6.09587 0
M  V30 7242 H 687.985 2.43465 5.19035 0
M  V30 7243 H 686.382 3.21608 5.06644 0
M  V30 7244 H 687.452 3.1886 3.65317 0
M  V30 7245 N 688.795 -1.27931 0.920396 0
M  V30 7246 C 690.041 -1.94977 0.557832 0
M  V30 7247 C 690.374 -1.72224 -0.897365 0
M  V30 7248 O 689.649 -1.04705 -1.63912 0
M  V30 7249 C 689.932 -3.49289 0.875741 0
M  V30 7250 C 689.785 -3.81416 2.38416 0
M  V30 7251 C 691.104 -4.38486 0.376517 0
M  V30 7252 H 688.223 -0.708164 0.20414 0
M  V30 7253 H 690.865 -1.5118 1.15085 0
M  V30 7254 H 689.015 -3.86724 0.371062 0
M  V30 7255 H 690.687 -3.53813 2.95997 0
M  V30 7256 H 688.93 -3.28225 2.83639 0
M  V30 7257 H 689.601 -4.89198 2.55713 0
M  V30 7258 H 692.077 -4.08161 0.808945 0
M  V30 7259 H 690.953 -5.45296 0.627976 0
M  V30 7260 H 691.214 -4.36143 -0.723293 0
M  V30 7261 N 690.273 -0.685099 -1.4193 0
M  V30 7262 C 691.183 -0.013404 -2.34596 0
M  V30 7263 C 692.199 0.777589 -1.55658 0
M  V30 7264 O 693.375 0.717553 -1.88184 0
M  V30 7265 C 690.44 0.919031 -3.34297 0
M  V30 7266 C 689.501 0.121417 -4.29128 0
M  V30 7267 C 688.734 1.00944 -5.24067 0
M  V30 7268 O 688.957 2.24898 -5.24192 0
M  V30 7269 O 687.891 0.464724 -6.00103 0
M  V30 7270 H 691.717 -0.776978 -2.93593 0
M  V30 7271 H 689.302 -0.445379 -1.42607 0
M  V30 7272 H 691.184 1.45402 -3.9552 0
M  V30 7273 H 689.859 1.66228 -2.77759 0
M  V30 7274 H 688.766 -0.45792 -3.71287 0
M  V30 7275 H 690.099 -0.582937 -4.88736 0
M  V30 7276 N 691.751 1.51645 -0.429126 0
M  V30 7277 C 692.997 2.02314 0.140286 0
M  V30 7278 C 693.33 1.31314 1.43074 0
M  V30 7279 O 692.605 0.425531 1.89788 0
M  V30 7280 C 692.888 3.5822 0.36749 0
M  V30 7281 C 692.741 4.39846 -0.941039 0
M  V30 7282 C 694.06 4.25055 1.14089 0
M  V30 7283 H 691.179 0.735335 0.0495112 0
M  V30 7284 H 693.821 1.81358 -0.566514 0
M  V30 7285 H 691.971 3.76207 0.969556 0
M  V30 7286 H 693.643 4.33527 -1.57646 0
M  V30 7287 H 691.886 4.05259 -1.54751 0
M  V30 7288 H 692.557 5.47069 -0.73621 0
M  V30 7289 H 695.033 4.11288 0.630986 0
M  V30 7290 H 693.909 5.34038 1.26863 0
M  V30 7291 H 694.17 3.85358 2.16683 0
M  V30 7292 N 693.229 0.160201 1.56784 0
M  V30 7293 C 694.162 -0.812797 2.13234 0
M  V30 7294 C 695.14 -1.2335 1.05942 0
M  V30 7295 O 696.324 -1.32725 1.33852 0
M  V30 7296 C 693.451 -2.09311 2.66283 0
M  V30 7297 C 692.497 -1.8173 3.85845 0
M  V30 7298 S 693.33 -0.996473 5.26147 0
M  V30 7299 C 694.486 -2.28769 5.82594 0
M  V30 7300 H 694.719 -0.332794 2.95432 0
M  V30 7301 H 692.252 -0.0542971 1.54304 0
M  V30 7302 H 694.21 -2.82854 2.97496 0
M  V30 7303 H 692.871 -2.54425 1.84192 0
M  V30 7304 H 692.064 -2.76699 4.21253 0
M  V30 7305 H 691.666 -1.16289 3.55462 0
M  V30 7306 H 693.958 -3.24319 5.9483 0
M  V30 7307 H 694.901 -1.97846 6.79899 0
M  V30 7308 H 695.309 -2.40021 5.10931 0
M  V30 7309 N 694.707 -1.5719 -0.113559 0
M  V30 7310 C 695.984 -1.76117 -0.850999 0
M  V30 7311 C 696.364 -0.737085 -1.97814 0
M  V30 7312 O 695.712 0.237942 -2.27258 0
M  V30 7313 C 695.922 -3.21298 -1.36266 0
M  V30 7314 C 697.27 -3.83955 -1.81283 0
M  V30 7315 O 698.294 -3.24934 -1.45933 0
M  V30 7316 O 697.153 -4.87707 -2.46585 0
M  V30 7317 H 694.247 -0.721308 -0.404529 0
M  V30 7318 H 696.793 -1.69423 -0.0968756 0
M  V30 7319 H 695.565 -3.87355 -0.554235 0
M  V30 7320 H 695.188 -3.32552 -2.17933 0
M  V30 7321 N 696.185 0.383891 -1.52853 0
M  V30 7322 C 697.596 0.961591 -1.60032 0
M  V30 7323 C 697.947 1.90819 -0.456333 0
M  V30 7324 O 697.072 2.12288 0.419873 0
M  V30 7325 C 697.667 1.75078 -2.90057 0
M  V30 7326 C 696.226 2.2781 -2.99632 0
M  V30 7327 C 695.373 1.08512 -2.55187 0
M  V30 7328 H 698.324 0.163269 -1.57858 0
M  V30 7329 H 698.345 2.61046 -2.7683 0
M  V30 7330 H 697.857 1.06157 -3.73299 0
M  V30 7331 H 695.958 3.00028 -2.20939 0
M  V30 7332 H 696.071 2.56947 -4.0437 0
M  V30 7333 H 694.435 1.44667 -2.09627 0
M  V30 7334 H 695.218 0.41118 -3.40829 0
M  V30 7335 N 697.663 1.43903 0.642637 0
M  V30 7336 C 698.888 1.49758 1.43483 0
M  V30 7337 C 699.313 0.119911 1.87717 0
M  V30 7338 O 698.671 -0.888558 1.58033 0
M  V30 7339 C 698.719 2.45744 2.63898 0
M  V30 7340 O 697.823 1.95101 3.63331 0
M  V30 7341 H 697.164 0.506138 0.429791 0
M  V30 7342 H 699.694 1.88923 0.785438 0
M  V30 7343 H 699.704 2.63399 3.11584 0
M  V30 7344 H 698.379 3.45818 2.31046 0
M  V30 7345 H 696.956 1.87158 3.22531 0
M  V30 7346 N 699.141 -0.881989 1.30609 0
M  V30 7347 C 700.388 -1.63405 1.19604 0
M  V30 7348 C 700.716 -1.92905 -0.248574 0
M  V30 7349 O 699.971 -1.55062 -1.19391 0
M  V30 7350 C 700.27 -2.97999 1.97311 0
M  V30 7351 C 699.936 -2.88039 3.46907 0
M  V30 7352 C 698.598 -2.85029 3.877 0
M  V30 7353 C 700.95 -2.75948 4.42156 0
M  V30 7354 C 698.278 -2.67772 5.2203 0
M  V30 7355 C 700.63 -2.60228 5.76597 0
M  V30 7356 C 699.294 -2.55595 6.16626 0
M  V30 7357 H 698.564 -0.597941 0.437662 0
M  V30 7358 H 701.211 -1.02524 1.61744 0
M  V30 7359 H 699.516 -3.62847 1.47815 0
M  V30 7360 H 701.213 -3.55156 1.86186 0
M  V30 7361 H 697.803 -2.91192 3.14492 0
M  V30 7362 H 701.987 -2.77337 4.1158 0
M  V30 7363 H 697.243 -2.62601 5.52133 0
M  V30 7364 H 701.417 -2.49847 6.50038 0
M  V30 7365 H 699.044 -2.41981 7.20659 0
M  V30 7366 N 700.619 -1.13374 -1.09472 0
M  V30 7367 C 701.865 -0.896516 -1.81908 0
M  V30 7368 C 702.198 0.575933 -1.85463 0
M  V30 7369 O 701.473 1.42618 -1.32251 0
M  V30 7370 C 701.756 -1.48445 -3.28079 0
M  V30 7371 C 701.609 -3.02598 -3.32798 0
M  V30 7372 C 702.928 -1.15226 -4.24748 0
M  V30 7373 H 700.047 -0.327127 -0.660422 0
M  V30 7374 H 702.689 -1.40195 -1.2824 0
M  V30 7375 H 700.839 -1.0546 -3.73912 0
M  V30 7376 H 702.511 -3.54335 -2.95372 0
M  V30 7377 H 700.754 -3.37613 -2.72397 0
M  V30 7378 H 701.425 -3.38835 -4.3577 0
M  V30 7379 H 703.901 -1.52369 -3.87199 0
M  V30 7380 H 702.777 -1.59012 -5.25363 0
M  V30 7381 H 703.038 -0.0658891 -4.42051 0
M  V30 7382 N 702.098 1.27442 -0.927168 0
M  V30 7383 C 703.338 1.96157 -0.574608 0
M  V30 7384 C 703.702 1.71265 0.867897 0
M  V30 7385 O 704.903 2.33664 1.3287 0
M  V30 7386 C 703.174 3.46115 -0.891009 0
M  V30 7387 S 704.733 4.34006 -0.646885 0
M  V30 7388 H 701.551 0.678619 -0.212125 0
M  V30 7389 H 704.153 1.54688 -1.19549 0
M  V30 7390 H 702.857 3.6173 -1.93854 0
M  V30 7391 H 702.388 3.92545 -0.259301 0
M  V30 7392 H 704.403 4.93719 0.495568 0
M  V30 7393 N 703.576 0.692616 1.41565 0
M  V30 7394 C 704.506 0.0397325 2.33466 0
M  V30 7395 C 705.487 -0.770334 1.51657 0
M  V30 7396 O 706.672 -0.723903 1.80203 0
M  V30 7397 C 703.802 -0.899495 3.3545 0
M  V30 7398 C 702.756 -0.196738 4.27548 0
M  V30 7399 C 702.082 -1.25012 5.19881 0
M  V30 7400 C 703.382 0.935158 5.1386 0
M  V30 7401 H 705.076 0.807296 2.88311 0
M  V30 7402 H 702.622 0.389665 1.38628 0
M  V30 7403 H 704.575 -1.36545 3.98665 0
M  V30 7404 H 703.299 -1.69869 2.78948 0
M  V30 7405 H 701.958 0.249158 3.65752 0
M  V30 7406 H 701.606 -2.04177 4.59696 0
M  V30 7407 H 701.306 -0.784931 5.82334 0
M  V30 7408 H 702.83 -1.71665 5.85972 0
M  V30 7409 H 704.244 0.549619 5.70659 0
M  V30 7410 H 702.641 1.32726 5.85238 0
M  V30 7411 H 703.711 1.77613 4.512 0
M  V30 7412 N 705.054 -1.51416 0.437162 0
M  V30 7413 C 706.001 -2.27743 -0.374374 0
M  V30 7414 C 706.971 -1.31327 -1.01698 0
M  V30 7415 O 708.156 -1.60229 -1.03592 0
M  V30 7416 C 705.296 -3.12241 -1.46969 0
M  V30 7417 C 704.409 -4.23651 -0.845236 0
M  V30 7418 C 703.544 -4.95458 -1.91559 0
M  V30 7419 C 702.583 -5.98789 -1.26956 0
M  V30 7420 N 701.72 -6.64005 -2.28126 0
M  V30 7421 H 706.56 -2.96654 0.282892 0
M  V30 7422 H 704.097 -1.46319 0.151352 0
M  V30 7423 H 706.055 -3.59556 -2.11602 0
M  V30 7424 H 704.685 -2.45445 -2.09659 0
M  V30 7425 H 703.737 -3.803 -0.0872059 0
M  V30 7426 H 705.049 -4.97683 -0.333582 0
M  V30 7427 H 704.203 -5.46321 -2.63854 0
M  V30 7428 H 702.942 -4.21055 -2.46097 0
M  V30 7429 H 701.947 -5.47219 -0.53207 0
M  V30 7430 H 703.172 -6.75149 -0.731509 0
M  V30 7431 H 701.118 -5.92415 -2.81745 0
M  V30 7432 H 701.035 -7.33802 -1.81852 0
M  V30 7433 H 702.303 -7.19498 -2.99905 0
M  V30 7434 N 706.532 -0.168513 -1.56696 0
M  V30 7435 C 707.781 0.477233 -1.95973 0
M  V30 7436 C 708.094 1.64578 -1.05704 0
M  V30 7437 O 709.3 2.35758 -1.3465 0
M  V30 7438 C 707.756 0.900413 -3.48455 0
M  V30 7439 C 707.364 -0.242382 -4.47344 0
M  V30 7440 C 709.108 1.51474 -3.96555 0
M  V30 7441 C 707.015 0.200272 -5.91061 0
M  V30 7442 H 705.945 0.182061 -0.73169 0
M  V30 7443 H 708.596 -0.256297 -1.81701 0
M  V30 7444 H 706.978 1.68984 -3.58135 0
M  V30 7445 H 708.152 -1.01967 -4.49377 0
M  V30 7446 H 706.467 -0.766484 -4.09285 0
M  V30 7447 H 709.064 1.85792 -5.01384 0
M  V30 7448 H 709.407 2.41163 -3.39332 0
M  V30 7449 H 709.94 0.789802 -3.89881 0
M  V30 7450 H 706.679 -0.661775 -6.52151 0
M  V30 7451 H 706.199 0.942979 -5.92341 0
M  V30 7452 H 707.878 0.645088 -6.43776 0
M  V30 7453 N 708.01 1.57248 0.105221 0
M  V30 7454 C 709.258 1.85204 0.808951 0
M  V30 7455 C 709.579 0.75574 1.7976 0
M  V30 7456 O 708.849 -0.218984 1.94672 0
M  V30 7457 H 707.429 0.683346 0.301739 0
M  V30 7458 H 710.091 1.94695 0.0892605 0
M  V30 7459 H 709.187 2.81595 1.34575 0
M  V30 7460 N 709.488 -0.375779 1.53054 0
M  V30 7461 C 710.451 -1.44254 1.7811 0
M  V30 7462 C 711.451 -1.47018 0.651328 0
M  V30 7463 O 712.641 -1.47957 0.919472 0
M  V30 7464 C 709.773 -2.8345 1.89391 0
M  V30 7465 H 710.966 -1.23316 2.73374 0
M  V30 7466 H 708.519 -0.608312 1.43977 0
M  V30 7467 H 709.254 -3.09716 0.961589 0
M  V30 7468 H 709.039 -2.82844 2.71555 0
M  V30 7469 H 710.529 -3.60722 2.10404 0
M  V30 7470 N 710.966 -1.44241 -0.634997 0
M  V30 7471 C 712.206 -1.48339 -1.40623 0
M  V30 7472 C 712.57 -0.111479 -1.91676 0
M  V30 7473 O 713.771 -0.0271345 -2.68786 0
M  V30 7474 C 712.042 -2.51122 -2.54308 0
M  V30 7475 S 713.601 -2.74237 -3.42548 0
M  V30 7476 H 710.419 -0.524715 -0.479787 0
M  V30 7477 H 713.021 -1.81138 -0.735489 0
M  V30 7478 H 711.725 -3.49511 -2.15106 0
M  V30 7479 H 711.256 -2.19883 -3.26213 0
M  V30 7480 H 713.271 -2.0554 -4.51628 0
M  V30 7481 N 712.444 0.87505 -1.31075 0
M  V30 7482 C 713.855 1.4433 -1.18431 0
M  V30 7483 C 714.206 1.9506 0.211189 0
M  V30 7484 O 713.331 1.85847 1.10859 0
M  V30 7485 C 713.926 2.62341 -2.14389 0
M  V30 7486 C 712.485 3.15225 -2.05694 0
M  V30 7487 C 711.632 1.87929 -2.03907 0
M  V30 7488 H 714.583 0.684061 -1.432 0
M  V30 7489 H 714.604 3.3887 -1.73053 0
M  V30 7490 H 714.116 2.25388 -3.15946 0
M  V30 7491 H 712.217 3.56812 -1.07314 0
M  V30 7492 H 712.33 3.77853 -2.94558 0
M  V30 7493 H 710.694 2.06679 -1.48849 0
M  V30 7494 H 711.477 1.53221 -3.07211 0
M  V30 7495 N 713.922 1.13953 1.08869 0
M  V30 7496 C 715.147 0.928559 1.85452 0
M  V30 7497 C 715.572 -0.517642 1.80837 0
M  V30 7498 O 714.93 -1.36779 1.19001 0
M  V30 7499 C 714.978 1.42814 3.31114 0
M  V30 7500 O 714.082 0.617129 4.07756 0
M  V30 7501 H 713.423 0.33235 0.574839 0
M  V30 7502 H 715.953 1.5156 1.37443 0
M  V30 7503 H 715.963 1.43425 3.8196 0
M  V30 7504 H 714.638 2.48109 3.33788 0
M  V30 7505 H 713.215 0.679365 3.66659 0
M  V30 7506 N 715.4 -1.26948 0.933913 0
M  V30 7507 C 716.363 -2.24889 0.442457 0
M  V30 7508 C 717.363 -1.54594 -0.442426 0
M  V30 7509 O 718.553 -1.72502 -0.242629 0
M  V30 7510 C 715.685 -3.3896 -0.363173 0
M  V30 7511 H 716.878 -2.69879 1.30787 0
M  V30 7512 H 714.431 -1.38978 0.715187 0
M  V30 7513 H 715.166 -2.99361 -1.24714 0
M  V30 7514 H 714.951 -3.9116 0.271366 0
M  V30 7515 H 716.441 -4.11739 -0.697186 0
M  V30 7516 N 716.879 -0.700114 -1.41195 0
M  V30 7517 C 717.829 -0.0144098 -2.27995 0
M  V30 7518 C 718.813 0.748249 -1.42443 0
M  V30 7519 O 720.005 0.622995 -1.65674 0
M  V30 7520 C 717.134 0.917938 -3.308 0
M  V30 7521 C 716.22 0.151286 -4.2383 0
M  V30 7522 N 716.611 -0.85732 -4.98481 0
M  V30 7523 C 714.909 0.386108 -4.44326 0
M  V30 7524 C 715.61 -1.31663 -5.66604 0
M  V30 7525 N 714.586 -0.641689 -5.39799 0
M  V30 7526 H 718.388 -0.787662 -2.83149 0
M  V30 7527 H 715.902 -0.531344 -1.53462 0
M  V30 7528 H 717.899 1.42437 -3.91813 0
M  V30 7529 H 716.559 1.69074 -2.77208 0
M  V30 7530 H 717.57 -1.2377 -5.02893 0
M  V30 7531 H 714.247 1.13644 -4.01735 0
M  V30 7532 H 715.637 -2.15384 -6.36443 0
M  V30 7533 N 718.357 1.51182 -0.445186 0
M  V30 7534 C 719.304 2.27939 0.362291 0
M  V30 7535 C 720.274 1.31864 1.01 0
M  V30 7536 O 721.459 1.60776 1.02741 0
M  V30 7537 C 718.599 3.13016 1.45311 0
M  V30 7538 C 717.712 4.24093 0.822757 0
M  V30 7539 C 716.847 4.96467 1.88928 0
M  V30 7540 C 715.886 5.99454 1.23778 0
M  V30 7541 N 715.023 6.65206 2.24602 0
M  V30 7542 H 719.863 2.965 -0.29862 0
M  V30 7543 H 717.4 1.46237 -0.15911 0
M  V30 7544 H 719.358 3.60673 2.09692 0
M  V30 7545 H 717.988 2.46553 2.08354 0
M  V30 7546 H 717.04 3.80341 0.0670364 0
M  V30 7547 H 718.352 4.97853 0.307184 0
M  V30 7548 H 717.506 5.47712 2.60953 0
M  V30 7549 H 716.245 4.22355 2.4386 0
M  V30 7550 H 715.25 5.47494 0.503042 0
M  V30 7551 H 716.475 6.75527 0.695694 0
M  V30 7552 H 714.421 5.93901 2.78599 0
M  V30 7553 H 714.338 7.34756 1.77958 0
M  V30 7554 H 715.606 7.21078 2.96085 0
M  V30 7555 N 719.835 0.176821 1.56605 0
M  V30 7556 C 721.246 -0.338963 1.83597 0
M  V30 7557 C 721.597 -1.62677 1.09684 0
M  V30 7558 O 720.722 -2.13524 0.351661 0
M  V30 7559 C 721.317 -0.62177 3.33046 0
M  V30 7560 C 719.876 -1.08198 3.60514 0
M  V30 7561 C 719.023 -0.120774 2.77037 0
M  V30 7562 H 721.974 0.400978 1.53551 0
M  V30 7563 H 721.995 -1.47321 3.50823 0
M  V30 7564 H 721.507 0.315692 3.86814 0
M  V30 7565 H 719.608 -2.03435 3.12162 0
M  V30 7566 H 719.721 -0.987329 4.68816 0
M  V30 7567 H 718.085 -0.619192 2.47059 0
M  V30 7568 H 718.868 0.810806 3.33588 0
M  V30 7569 N 721.313 -1.57302 -0.09688 0
M  V30 7570 C 722.243 -2.0497 -1.11846 0
M  V30 7571 C 723.224 -0.938278 -1.41882 0
M  V30 7572 O 724.409 -1.20943 -1.51942 0
M  V30 7573 C 721.539 -2.47264 -2.43881 0
M  V30 7574 C 720.493 -3.62053 -2.28257 0
M  V30 7575 C 719.819 -3.90318 -3.65453 0
M  V30 7576 C 721.119 -4.93005 -1.72461 0
M  V30 7577 H 722.813 -2.90567 -0.721888 0
M  V30 7578 H 720.359 -1.39786 -0.345803 0
M  V30 7579 H 722.312 -2.7922 -3.15617 0
M  V30 7580 H 721.036 -1.58664 -2.8547 0
M  V30 7581 H 719.695 -3.30341 -1.58967 0
M  V30 7582 H 719.343 -2.98889 -4.04567 0
M  V30 7583 H 719.043 -4.67597 -3.55846 0
M  V30 7584 H 720.567 -4.24747 -4.3866 0
M  V30 7585 H 721.981 -5.23354 -2.34036 0
M  V30 7586 H 720.378 -5.74436 -1.73618 0
M  V30 7587 H 721.448 -4.80053 -0.683898 0
M  V30 7588 N 722.791 0.367657 -1.53252 0
M  V30 7589 C 723.721 1.45632 -1.8252 0
M  V30 7590 C 724.702 1.55979 -0.678568 0
M  V30 7591 O 725.887 1.70581 -0.928217 0
M  V30 7592 C 723.017 2.82994 -2.01325 0
M  V30 7593 C 721.971 2.87473 -3.17086 0
M  V30 7594 C 721.297 4.2749 -3.21179 0
M  V30 7595 C 722.597 2.55182 -4.55719 0
M  V30 7596 H 724.291 1.21387 -2.73689 0
M  V30 7597 H 721.837 0.58251 -1.31692 0
M  V30 7598 H 723.79 3.59179 -2.20383 0
M  V30 7599 H 722.514 3.08622 -1.06864 0
M  V30 7600 H 721.173 2.13739 -2.97844 0
M  V30 7601 H 720.821 4.5019 -2.24361 0
M  V30 7602 H 720.521 4.31403 -3.98955 0
M  V30 7603 H 722.045 5.0555 -3.42419 0
M  V30 7604 H 723.459 3.21081 -4.74953 0
M  V30 7605 H 721.856 2.70414 -5.3572 0
M  V30 7606 H 722.926 1.5044 -4.60973 0
M  V30 7607 N 724.269 1.44576 0.627338 0
M  V30 7608 C 725.517 1.47267 1.38408 0
M  V30 7609 C 725.838 0.107971 1.94701 0
M  V30 7610 O 725.108 -0.860206 1.76004 0
M  V30 7611 H 723.688 0.542276 0.513756 0
M  V30 7612 H 726.35 1.80383 0.738099 0
M  V30 7613 H 725.446 2.20025 2.21349 0
M  V30 7614 N 725.747 -0.868086 1.31537 0
M  V30 7615 C 726.975 -1.65402 1.24298 0
M  V30 7616 C 727.39 -1.87827 -0.191389 0
M  V30 7617 O 726.747 -1.43776 -1.12404 0
M  V30 7618 C 726.798 -3.02093 1.9855 0
M  V30 7619 O 726.519 -2.80668 3.36388 0
M  V30 7620 C 728.02 -3.96538 1.98173 0
M  V30 7621 H 725.24 -0.515598 0.429417 0
M  V30 7622 H 727.784 -1.0834 1.73444 0
M  V30 7623 H 725.939 -3.55838 1.53161 0
M  V30 7624 H 726.353 -3.67504 3.74221 0
M  V30 7625 H 727.827 -4.8976 2.54635 0
M  V30 7626 H 728.304 -4.28474 0.964697 0
M  V30 7627 H 728.91 -3.48729 2.4345 0
M  V30 7628 N 727.225 -1.14528 -1.08264 0
M  V30 7629 C 728.135 -0.84728 -2.18765 0
M  V30 7630 C 729.151 0.172826 -1.7314 0
M  V30 7631 O 730.327 0.000985336 -2.014 0
M  V30 7632 C 727.392 -0.330633 -3.4512 0
M  V30 7633 C 726.453 -1.41348 -4.05363 0
M  V30 7634 C 725.686 -0.921387 -5.25686 0
M  V30 7635 O 725.909 0.236587 -5.69909 0
M  V30 7636 O 724.843 -1.70101 -5.77364 0
M  V30 7637 H 728.669 -1.7708 -2.46731 0
M  V30 7638 H 726.254 -0.923661 -1.17426 0
M  V30 7639 H 728.136 -0.0485053 -4.21372 0
M  V30 7640 H 726.811 0.565147 -3.18728 0
M  V30 7641 H 725.718 -1.74908 -3.30693 0
M  V30 7642 H 727.051 -2.28383 -4.36007 0
M  V30 7643 N 728.703 1.26451 -0.940633 0
M  V30 7644 C 729.65 2.264 -0.448497 0
M  V30 7645 C 730.62 1.5866 0.491546 0
M  V30 7646 O 731.805 1.86389 0.407874 0
M  V30 7647 C 728.945 3.43956 0.280715 0
M  V30 7648 C 728.058 4.26374 -0.694937 0
M  V30 7649 C 727.193 5.31171 0.0554186 0
M  V30 7650 C 726.232 6.05266 -0.912091 0
M  V30 7651 N 725.369 7.01833 -0.193524 0
M  V30 7652 H 730.209 2.67869 -1.30576 0
M  V30 7653 H 727.746 1.31707 -0.655112 0
M  V30 7654 H 729.704 4.10941 0.71994 0
M  V30 7655 H 728.334 3.03403 1.10212 0
M  V30 7656 H 727.386 3.59183 -1.25267 0
M  V30 7657 H 728.698 4.77748 -1.43382 0
M  V30 7658 H 727.852 6.04166 0.553951 0
M  V30 7659 H 726.591 4.80634 0.827183 0
M  V30 7660 H 725.596 5.31099 -1.42175 0
M  V30 7661 H 726.821 6.57893 -1.68385 0
M  V30 7662 H 724.767 6.53607 0.559758 0
M  V30 7663 H 724.684 7.50957 -0.871744 0
M  V30 7664 H 725.952 7.78983 0.283932 0
M  V30 7665 N 730.181 0.707592 1.40822 0
M  V30 7666 C 731.421 0.247986 2.0289 0
M  V30 7667 C 731.785 -1.13484 1.54872 0
M  V30 7668 O 732.986 -1.69098 2.08948 0
M  V30 7669 C 731.257 0.316326 3.55997 0
M  V30 7670 S 732.816 -0.0674698 4.38748 0
M  V30 7671 H 729.634 0.09895 0.704081 0
M  V30 7672 H 732.236 0.928039 1.72069 0
M  V30 7673 H 730.94 1.32453 3.88438 0
M  V30 7674 H 730.471 -0.382474 3.91536 0
M  V30 7675 H 732.486 -1.29182 4.79089 0
M  V30 7676 N 731.66 -1.50943 0.453197 0
M  V30 7677 C 732.909 -2.01402 -0.10951 0
M  V30 7678 C 733.222 -1.3411 -1.42386 0
M  V30 7679 O 734.428 -1.75626 -2.07045 0
M  V30 7680 C 732.884 -3.5906 -0.245693 0
M  V30 7681 C 732.492 -4.353 1.05916 0
M  V30 7682 C 734.236 -4.17617 -0.761318 0
M  V30 7683 C 732.143 -5.84699 0.887752 0
M  V30 7684 H 731.073 -0.752674 -0.0447013 0
M  V30 7685 H 733.724 -1.73913 0.585375 0
M  V30 7686 H 732.106 -3.83062 -1.00395 0
M  V30 7687 H 733.28 -4.23034 1.82698 0
M  V30 7688 H 731.595 -3.88269 1.50452 0
M  V30 7689 H 734.192 -5.26963 -0.906306 0
M  V30 7690 H 734.535 -3.77824 -1.74799 0
M  V30 7691 H 735.068 -3.97753 -0.0609416 0
M  V30 7692 H 731.807 -6.28933 1.84726 0
M  V30 7693 H 731.327 -5.99587 0.160006 0
M  V30 7694 H 733.006 -6.44682 0.547223 0
M  V30 7695 N 733.138 -0.185124 -1.56509 0
M  V30 7696 C 734.384 0.450356 -1.98352 0
M  V30 7697 C 734.739 1.59923 -1.06969 0
M  V30 7698 O 734.032 1.91272 -0.112084 0
M  V30 7699 C 734.226 0.967977 -3.44042 0
M  V30 7700 C 734.055 -0.129208 -4.49514 0
M  V30 7701 C 732.825 -0.58351 -5.0192 0
M  V30 7702 C 735.023 -0.93459 -5.05737 0
M  V30 7703 N 733.005 -1.65956 -5.91043 0
M  V30 7704 C 734.376 -1.86026 -5.91434 0
M  V30 7705 C 736.431 -0.978125 -4.88198 0
M  V30 7706 C 735.134 -2.82582 -6.61468 0
M  V30 7707 C 737.16 -1.93169 -5.58963 0
M  V30 7708 C 736.522 -2.84481 -6.44399 0
M  V30 7709 H 732.621 0.132504 -0.770692 0
M  V30 7710 H 735.205 -0.288523 -1.9255 0
M  V30 7711 H 733.376 1.67633 -3.50362 0
M  V30 7712 H 735.108 1.57323 -3.72869 0
M  V30 7713 H 731.863 -0.178676 -4.73263 0
M  V30 7714 H 732.287 -2.19848 -6.40309 0
M  V30 7715 H 736.929 -0.286169 -4.2183 0
M  V30 7716 H 734.647 -3.52758 -7.2704 0
M  V30 7717 H 738.233 -1.97166 -5.47373 0
M  V30 7718 H 737.113 -3.57065 -6.98194 0
M  V30 7719 N 734.616 1.57351 0.0885366 0
M  V30 7720 C 735.864 1.86051 0.789262 0
M  V30 7721 C 736.185 0.774763 1.78948 0
M  V30 7722 O 735.455 -0.198324 1.94894 0
M  V30 7723 H 734.035 0.686508 0.294475 0
M  V30 7724 H 736.697 1.94779 0.0686055 0
M  V30 7725 H 735.793 2.83007 1.31581 0
M  V30 7726 N 736.094 -0.359525 1.53444 0
M  V30 7727 C 737.505 -0.936009 1.61542 0
M  V30 7728 C 737.856 -1.90069 0.486633 0
M  V30 7729 O 736.981 -2.12929 -0.386047 0
M  V30 7730 C 737.576 -1.70441 2.92806 0
M  V30 7731 C 736.135 -2.23015 3.03218 0
M  V30 7732 C 735.282 -1.04438 2.56881 0
M  V30 7733 H 738.233 -0.138134 1.58098 0
M  V30 7734 H 738.254 -2.56609 2.80948 0
M  V30 7735 H 737.766 -1.00205 3.74941 0
M  V30 7736 H 735.867 -2.96475 2.25684 0
M  V30 7737 H 735.98 -2.50481 4.08407 0
M  V30 7738 H 734.344 -1.41314 2.11902 0
M  V30 7739 H 735.127 -0.356905 3.4144 0
M  V30 7740 N 737.572 -1.44907 -0.619662 0
M  V30 7741 C 738.797 -1.52021 -1.41083 0
M  V30 7742 C 739.222 -0.14976 -1.87503 0
M  V30 7743 O 738.58 0.863303 -1.59426 0
M  V30 7744 C 738.628 -2.49911 -2.59955 0
M  V30 7745 O 737.732 -2.00857 -3.60181 0
M  V30 7746 H 737.073 -0.512912 -0.421684 0
M  V30 7747 H 739.603 -1.90149 -0.755282 0
M  V30 7748 H 739.613 -2.68323 -3.07354 0
M  V30 7749 H 738.288 -3.4945 -2.25516 0
M  V30 7750 H 736.865 -1.92265 -3.19513 0
M  V30 7751 N 739.05 0.861098 -1.31996 0
M  V30 7752 C 740.28 1.64501 -1.24992 0
M  V30 7753 C 740.688 1.88288 0.185576 0
M  V30 7754 O 740.031 1.44756 1.131 0
M  V30 7755 C 740.093 3.03098 -1.93319 0
M  V30 7756 C 739.757 3.02381 -3.42658 0
M  V30 7757 C 740.754 2.79696 -4.38254 0
M  V30 7758 C 738.439 3.23221 -3.84491 0
M  V30 7759 C 740.433 2.77843 -5.73657 0
M  V30 7760 C 738.12 3.20996 -5.20005 0
M  V30 7761 C 739.118 2.98335 -6.14398 0
M  V30 7762 O 738.806 2.95971 -7.47433 0
M  V30 7763 H 738.538 0.519309 -0.432775 0
M  V30 7764 H 741.092 1.08241 -1.74565 0
M  V30 7765 H 739.322 3.61121 -1.38306 0
M  V30 7766 H 741.011 3.63751 -1.8011 0
M  V30 7767 H 741.777 2.63368 -4.07262 0
M  V30 7768 H 737.656 3.39887 -3.11445 0
M  V30 7769 H 741.2 2.60074 -6.47308 0
M  V30 7770 H 737.097 3.36865 -5.50629 0
M  V30 7771 H 737.865 3.1197 -7.56714 0
M  V30 7772 N 740.528 1.15101 1.07655 0
M  V30 7773 C 741.774 0.935313 1.8062 0
M  V30 7774 C 742.129 -0.532052 1.84897 0
M  V30 7775 O 741.422 -1.3893 1.31943 0
M  V30 7776 C 741.616 1.47954 3.25337 0
M  V30 7777 C 741.445 2.99829 3.35161 0
M  V30 7778 C 740.215 3.68348 3.45902 0
M  V30 7779 C 742.413 3.97638 3.26173 0
M  V30 7780 N 740.395 5.08062 3.44596 0
M  V30 7781 C 741.766 5.23651 3.31949 0
M  V30 7782 C 743.821 3.89651 3.09962 0
M  V30 7783 C 742.524 6.42609 3.23182 0
M  V30 7784 C 744.55 5.08164 3.02528 0
M  V30 7785 C 743.912 6.3305 3.08913 0
M  V30 7786 H 740.011 0.395876 0.674393 0
M  V30 7787 H 742.595 1.4625 1.28526 0
M  V30 7788 H 740.766 0.979022 3.75859 0
M  V30 7789 H 742.498 1.20298 3.86407 0
M  V30 7790 H 739.253 3.18928 3.50117 0
M  V30 7791 H 739.677 5.81023 3.47479 0
M  V30 7792 H 744.319 2.93966 3.03881 0
M  V30 7793 H 742.037 7.38531 3.28022 0
M  V30 7794 H 745.623 5.03742 2.91093 0
M  V30 7795 H 744.503 7.23214 3.03201 0
M  V30 7796 N 742.006 -1.2595 0.947325 0
M  V30 7797 C 743.246 -1.95218 0.605743 0
M  V30 7798 C 743.61 -1.72624 -0.84054 0
M  V30 7799 O 744.811 -2.35748 -1.29136 0
M  V30 7800 C 743.082 -3.44654 0.94596 0
M  V30 7801 S 744.641 -4.32922 0.715849 0
M  V30 7802 H 741.459 -0.675159 0.222894 0
M  V30 7803 H 744.061 -1.52766 1.21995 0
M  V30 7804 H 742.765 -3.586 1.99585 0
M  V30 7805 H 742.296 -3.92082 0.321718 0
M  V30 7806 H 744.311 -4.94445 -0.416959 0
M  V30 7807 N 743.484 -0.715051 -1.40445 0
M  V30 7808 C 744.416 -0.0227516 -2.29189 0
M  V30 7809 C 745.429 0.724313 -1.458 0
M  V30 7810 O 746.618 0.571781 -1.69094 0
M  V30 7811 C 743.718 0.992038 -3.24055 0
M  V30 7812 C 742.891 0.310613 -4.36296 0
M  V30 7813 C 741.95 1.23071 -5.11605 0
M  V30 7814 O 740.976 0.71571 -5.64682 0
M  V30 7815 N 742.178 2.56188 -5.2091 0
M  V30 7816 H 744.943 -0.78473 -2.89244 0
M  V30 7817 H 742.504 -0.562637 -1.51809 0
M  V30 7818 H 744.496 1.60973 -3.71308 0
M  V30 7819 H 743.066 1.65538 -2.65171 0
M  V30 7820 H 742.286 -0.487269 -3.91177 0
M  V30 7821 H 743.574 -0.162415 -5.08541 0
M  V30 7822 H 742.972 3.00527 -4.7927 0
M  V30 7823 H 741.529 3.13103 -5.71673 0
M  V30 7824 N 744.962 1.50701 -0.461195 0
M  V30 7825 C 745.91 2.29918 0.352231 0
M  V30 7826 C 746.904 1.36778 0.999403 0
M  V30 7827 O 748.11 1.54015 0.931639 0
M  V30 7828 H 744.485 0.740249 0.132423 0
M  V30 7829 H 746.456 2.96497 -0.336424 0
M  V30 7830 C 745.205 3.17052 1.42736 0
M  V30 7831 H 744.528 3.88623 0.938747 0
M  V30 7832 H 745.968 3.75493 1.96928 0
M  V30 7833 C 744.427 2.3399 2.42384 0
M  V30 7834 O 744.957 2.01608 3.47444 0
M  V30 7835 N 743.163 1.96758 2.13857 0
M  V30 7836 H 742.71 2.23292 1.28447 0
M  V30 7837 H 742.668 1.41484 2.80766 0
M  V30 7838 N 746.441 0.193421 1.56409 0
M  V30 7839 C 747.669 -0.451438 2.01915 0
M  V30 7840 C 748.084 -1.55306 1.07357 0
M  V30 7841 O 747.441 -1.82333 0.0781512 0
M  V30 7842 C 747.492 -1.00931 3.47124 0
M  V30 7843 O 747.213 0.0483623 4.38073 0
M  V30 7844 C 748.714 -1.73021 4.0814 0
M  V30 7845 H 745.934 -0.113495 0.661332 0
M  V30 7846 H 748.478 0.301636 2.02263 0
M  V30 7847 H 746.633 -1.71277 3.47481 0
M  V30 7848 H 747.047 -0.366644 5.23217 0
M  V30 7849 H 748.521 -2.07289 5.11601 0
M  V30 7850 H 748.998 -2.6333 3.51502 0
M  V30 7851 H 749.604 -1.07264 4.11551 0
M  V30 7852 N 747.919 -1.57396 -0.0801906 0
M  V30 7853 C 748.829 -2.06451 -1.11423 0
M  V30 7854 C 749.845 -0.992352 -1.42928 0
M  V30 7855 O 751.021 -1.30651 -1.53272 0
M  V30 7856 C 748.086 -2.49164 -2.41077 0
M  V30 7857 C 747.147 -3.70641 -2.16619 0
M  V30 7858 C 746.38 -4.11307 -3.40092 0
M  V30 7859 O 746.603 -3.51922 -4.48895 0
M  V30 7860 O 745.537 -5.04157 -3.288 0
M  V30 7861 H 749.363 -2.94857 -0.727519 0
M  V30 7862 H 746.948 -1.46484 -0.293743 0
M  V30 7863 H 748.83 -2.77196 -3.17396 0
M  V30 7864 H 747.505 -1.6389 -2.79145 0
M  V30 7865 H 746.412 -3.47703 -1.38033 0
M  V30 7866 H 747.745 -4.5674 -1.83437 0
M  V30 7867 N 749.397 0.351382 -1.53633 0
M  V30 7868 C 750.625 1.11275 -1.74429 0
M  V30 7869 C 751.04 1.82602 -0.479798 0
M  V30 7870 O 750.397 1.74074 0.548125 0
M  V30 7871 C 750.448 2.13223 -2.91921 0
M  V30 7872 O 750.169 1.44798 -4.13479 0
M  V30 7873 C 751.67 3.01797 -3.24706 0
M  V30 7874 H 748.89 0.332153 -0.583023 0
M  V30 7875 H 751.434 0.405974 -2.0043 0
M  V30 7876 H 749.589 2.79477 -2.68274 0
M  V30 7877 H 750.003 2.12839 -4.79374 0
M  V30 7878 H 751.477 3.69282 -4.10286 0
M  V30 7879 H 751.954 3.67387 -2.40673 0
M  V30 7880 H 752.56 2.41141 -3.5033 0
M  V30 7881 N 750.875 1.45233 0.611969 0
M  V30 7882 C 751.838 1.53189 1.70487 0
M  V30 7883 C 752.838 0.411839 1.55437 0
M  V30 7884 O 754.028 0.675164 1.60584 0
M  V30 7885 C 751.16 1.42422 3.09723 0
M  V30 7886 H 752.353 2.5056 1.64802 0
M  V30 7887 H 749.906 1.32609 0.827318 0
M  V30 7888 H 750.641 0.462185 3.2099 0
M  V30 7889 H 750.426 2.23658 3.22055 0
M  V30 7890 H 751.916 1.51012 3.89339 0
M  V30 7891 N 752.353 -0.854086 1.3245 0
M  V30 7892 C 753.316 -1.94427 1.21371 0
M  V30 7893 C 754.316 -1.60219 0.136613 0
M  V30 7894 O 755.506 -1.69846 0.387057 0
M  V30 7895 C 752.638 -3.29698 0.866701 0
M  V30 7896 H 753.831 -2.05679 2.18257 0
M  V30 7897 H 751.384 -1.04434 1.1629 0
M  V30 7898 H 752.119 -3.24145 -0.100319 0
M  V30 7899 H 751.904 -3.55903 1.64545 0
M  V30 7900 H 753.394 -4.09599 0.813515 0
M  V30 7901 N 753.831 -1.1567 -1.07043 0
M  V30 7902 C 754.763 -0.814095 -2.14255 0
M  V30 7903 C 755.776 0.175293 -1.61854 0
M  V30 7904 O 756.965 -0.0483984 -1.78434 0
M  V30 7905 C 754.065 -0.190082 -3.38367 0
M  V30 7906 C 753.238 -1.21768 -4.20109 0
M  V30 7907 C 752.297 -0.614863 -5.22595 0
M  V30 7908 O 751.323 -1.28167 -5.54583 0
M  V30 7909 N 752.525 0.601955 -5.77371 0
M  V30 7910 H 755.29 -1.73677 -2.44247 0
M  V30 7911 H 752.851 -1.05301 -1.22977 0
M  V30 7912 H 754.843 0.22604 -4.04068 0
M  V30 7913 H 753.413 0.635992 -3.06062 0
M  V30 7914 H 752.633 -1.81025 -3.50177 0
M  V30 7915 H 753.921 -1.9114 -4.71533 0
M  V30 7916 H 753.319 1.162 -5.53637 0
M  V30 7917 H 751.876 0.96039 -6.44686 0
M  V30 7918 N 755.309 1.25446 -0.953992 0
M  V30 7919 C 756.549 1.94894 -0.616087 0
M  V30 7920 C 756.913 1.73067 0.831374 0
M  V30 7921 O 758.114 2.3643 1.27884 0
M  V30 7922 C 756.385 3.44147 -0.964225 0
M  V30 7923 S 757.944 4.32536 -0.738798 0
M  V30 7924 H 754.762 0.673967 -0.226472 0
M  V30 7925 H 757.364 1.52117 -1.22803 0
M  V30 7926 H 756.068 3.57537 -2.01484 0
M  V30 7927 H 755.599 3.91906 -0.342507 0
M  V30 7928 H 757.614 4.94659 0.390732 0
M  V30 7929 N 756.787 0.722489 1.40064 0
M  V30 7930 C 757.735 0.063329 2.32514 0
M  V30 7931 C 758.729 -0.73953 1.52405 0
M  V30 7932 O 759.935 -0.642122 1.68157 0
M  V30 7933 H 756.31 0.00167692 0.751998 0
M  V30 7934 H 758.281 0.859656 2.85749 0
M  V30 7935 C 757.03 -0.839219 3.3742 0
M  V30 7936 H 756.353 -0.230836 3.99133 0
M  V30 7937 H 757.793 -1.26827 4.04587 0
M  V30 7938 C 756.252 -1.96783 2.73456 0
M  V30 7939 O 756.782 -3.05933 2.60323 0
M  V30 7940 N 754.988 -1.75351 2.31734 0
M  V30 7941 H 754.535 -0.865787 2.42615 0
M  V30 7942 H 754.493 -2.51043 1.89275 0
M  V30 7943 N 758.265 -1.50454 0.469181 0
M  V30 7944 C 759.228 -2.2703 -0.314643 0
M  V30 7945 C 760.228 -1.31734 -0.922111 0
M  V30 7946 O 761.418 -1.55176 -0.791588 0
M  V30 7947 C 758.55 -3.08616 -1.44806 0
M  V30 7948 H 759.743 -2.97769 0.356892 0
M  V30 7949 H 757.296 -1.54698 0.223191 0
M  V30 7950 H 758.031 -2.42369 -2.1547 0
M  V30 7951 H 757.816 -3.78647 -1.01829 0
M  V30 7952 H 759.306 -3.66536 -2.00103 0
M  V30 7953 N 759.743 -0.201713 -1.56304 0
M  V30 7954 C 760.989 0.435952 -1.98059 0
M  V30 7955 C 761.322 1.60811 -1.08873 0
M  V30 7956 O 760.597 1.9398 -0.142128 0
M  V30 7957 C 760.88 0.889706 -3.48936 0
M  V30 7958 C 760.733 -0.284725 -4.48898 0
M  V30 7959 C 762.052 1.7529 -4.03685 0
M  V30 7960 H 759.171 0.15699 -0.720085 0
M  V30 7961 H 761.813 -0.293965 -1.87712 0
M  V30 7962 H 759.963 1.51166 -3.57884 0
M  V30 7963 H 761.635 -0.922531 -4.51981 0
M  V30 7964 H 759.878 -0.935427 -4.23594 0
M  V30 7965 H 760.549 0.0753865 -5.51949 0
M  V30 7966 H 763.025 1.2283 -3.97558 0
M  V30 7967 H 761.901 2.03933 -5.0961 0
M  V30 7968 H 762.162 2.70939 -3.49348 0
M  V30 7969 N 761.222 1.57436 0.0718424 0
M  V30 7970 C 762.132 2.07039 1.10326 0
M  V30 7971 C 763.148 0.999918 1.424 0
M  V30 7972 O 764.324 1.31462 1.52577 0
M  V30 7973 C 761.389 2.50439 2.39752 0
M  V30 7974 C 760.45 3.71784 2.14651 0
M  V30 7975 C 759.683 4.13104 3.37906 0
M  V30 7976 O 759.906 3.54298 4.47023 0
M  V30 7977 O 758.84 5.05894 3.26121 0
M  V30 7978 H 762.666 2.95239 0.711872 0
M  V30 7979 H 760.251 1.46638 0.28597 0
M  V30 7980 H 762.133 2.78876 3.15921 0
M  V30 7981 H 760.808 1.65368 2.78271 0
M  V30 7982 H 759.715 3.48431 1.36187 0
M  V30 7983 H 761.048 4.57707 1.81012 0
M  V30 7984 N 762.7 -0.34323 1.53817 0
M  V30 7985 C 763.65 -1.42217 1.78208 0
M  V30 7986 C 764.634 -1.4774 0.637304 0
M  V30 7987 O 765.826 -1.52605 0.896705 0
M  V30 7988 C 762.955 -2.79354 1.9954 0
M  V30 7989 C 762.041 -2.78222 3.20084 0
M  V30 7990 N 762.432 -2.46719 4.41547 0
M  V30 7991 C 760.73 -3.09368 3.21259 0
M  V30 7992 C 761.431 -2.53828 5.23399 0
M  V30 7993 N 760.407 -2.89464 4.60121 0
M  V30 7994 H 764.209 -1.16759 2.69712 0
M  V30 7995 H 761.723 -0.551592 1.52746 0
M  V30 7996 H 763.72 -3.57095 2.15148 0
M  V30 7997 H 762.38 -3.05759 1.09278 0
M  V30 7998 H 763.391 -2.19912 4.68891 0
M  V30 7999 H 760.068 -3.40942 2.40966 0
M  V30 8000 H 761.458 -2.32629 6.30344 0
M  V30 8001 N 764.178 -1.45556 -0.604258 0
M  V30 8002 C 765.418 -1.51289 -1.37445 0
M  V30 8003 C 765.782 -0.152112 -1.91397 0
M  V30 8004 O 766.983 -0.0841419 -2.68668 0
M  V30 8005 C 765.254 -2.5646 -2.48924 0
M  V30 8006 S 766.813 -2.81442 -3.36654 0
M  V30 8007 H 763.631 -0.534774 -0.468549 0
M  V30 8008 H 766.233 -1.82657 -0.696902 0
M  V30 8009 H 764.937 -3.53995 -2.07644 0
M  V30 8010 H 764.468 -2.26753 -3.21476 0
M  V30 8011 H 766.483 -2.15074 -4.47166 0
M  V30 8012 N 765.656 0.84705 -1.32902 0
M  V30 8013 C 766.603 1.95624 -1.22473 0
M  V30 8014 C 767.573 1.65767 -0.105178 0
M  V30 8015 O 768.758 1.88704 -0.282042 0
M  V30 8016 C 765.898 3.31434 -0.961542 0
M  V30 8017 C 765.011 3.73741 -2.1666 0
M  V30 8018 C 764.146 4.98379 -1.83825 0
M  V30 8019 C 763.185 5.33199 -3.00609 0
M  V30 8020 N 762.322 6.49014 -2.67816 0
M  V30 8021 H 767.162 2.03875 -2.17345 0
M  V30 8022 H 764.699 0.997764 -1.08088 0
M  V30 8023 H 766.657 4.09663 -0.789411 0
M  V30 8024 H 765.287 3.22762 -0.0495938 0
M  V30 8025 H 764.339 2.91102 -2.44875 0
M  V30 8026 H 765.651 3.95462 -3.03993 0
M  V30 8027 H 764.805 5.84336 -1.63208 0
M  V30 8028 H 763.544 4.78611 -0.937172 0
M  V30 8029 H 762.549 4.4575 -3.21849 0
M  V30 8030 H 763.774 5.5492 -3.9146 0
M  V30 8031 H 761.72 6.30748 -1.80258 0
M  V30 8032 H 761.637 6.7079 -3.48679 0
M  V30 8033 H 762.905 7.38103 -2.50647 0
M  V30 8034 N 767.134 1.16236 1.06428 0
M  V30 8035 C 768.55 0.906983 1.31324 0
M  V30 8036 C 768.75 -0.440872 1.96618 0
M  V30 8037 O 767.806 -1.1807 2.23194 0
M  V30 8038 C 769.119 2.05501 2.19522 0
M  V30 8039 C 770.667 2.09061 2.32943 0
M  V30 8040 C 771.142 3.23214 3.24495 0
M  V30 8041 N 772.633 3.22922 3.32078 0
M  V30 8042 C 773.368 4.07889 4.03006 0
M  V30 8043 N 772.864 5.02941 4.76469 0
M  V30 8044 N 774.657 3.95881 3.99043 0
M  V30 8045 H 766.808 2.03015 0.624388 0
M  V30 8046 H 769.071 0.88576 0.337835 0
M  V30 8047 H 768.777 3.02847 1.78819 0
M  V30 8048 H 768.651 1.99538 3.201 0
M  V30 8049 H 771.038 1.12308 2.72893 0
M  V30 8050 H 771.119 2.19089 1.32037 0
M  V30 8051 H 770.763 4.20225 2.85261 0
M  V30 8052 H 770.693 3.10423 4.25377 0
M  V30 8053 H 773.184 2.54093 2.79724 0
M  V30 8054 H 773.497 5.64196 5.28112 0
M  V30 8055 H 771.842 5.06922 4.75453 0
M  V30 8056 H 775.033 3.20927 3.40769 0
M  V30 8057 H 775.206 4.62321 4.54052 0
M  V30 8058 N 768.612 -1.24939 0.960631 0
M  V30 8059 C 769.562 -2.23388 0.456266 0
M  V30 8060 C 770.546 -1.54249 -0.45782 0
M  V30 8061 O 771.738 -1.7461 -0.289894 0
M  V30 8062 C 768.867 -3.42321 -0.259024 0
M  V30 8063 C 767.953 -4.18718 0.673478 0
M  V30 8064 N 768.344 -4.72394 1.8077 0
M  V30 8065 C 766.642 -4.43378 0.482859 0
M  V30 8066 C 767.343 -5.30316 2.3904 0
M  V30 8067 N 766.319 -5.17109 1.67629 0
M  V30 8068 H 770.121 -2.62499 1.32179 0
M  V30 8069 H 767.635 -1.40245 0.818851 0
M  V30 8070 H 769.632 -4.11997 -0.637527 0
M  V30 8071 H 768.292 -3.04732 -1.12108 0
M  V30 8072 H 769.303 -4.69345 2.18942 0
M  V30 8073 H 765.98 -4.16147 -0.335821 0
M  V30 8074 H 767.37 -5.82594 3.34715 0
M  V30 8075 N 770.09 -0.729906 -1.39679 0
M  V30 8076 C 771.336 -0.27603 -2.00913 0
M  V30 8077 C 771.669 1.13227 -1.57776 0
M  V30 8078 O 770.944 1.7709 -0.804319 0
M  V30 8079 C 771.227 -0.372157 -3.58172 0
M  V30 8080 C 771.08 -1.81986 -4.11341 0
M  V30 8081 C 772.399 0.248378 -4.39399 0
M  V30 8082 H 769.518 -0.101773 -0.729939 0
M  V30 8083 H 772.16 -0.925104 -1.65957 0
M  V30 8084 H 770.31 0.180459 -3.88081 0
M  V30 8085 H 771.982 -2.42896 -3.92172 0
M  V30 8086 H 770.225 -2.34287 -3.65092 0
M  V30 8087 H 770.896 -1.83842 -5.20486 0
M  V30 8088 H 773.372 -0.222645 -4.15504 0
M  V30 8089 H 772.248 0.150746 -5.48693 0
M  V30 8090 H 772.509 1.33378 -4.21501 0
M  V30 8091 N 771.568 1.50203 -0.477153 0
M  V30 8092 C 772.814 2.03286 0.0679442 0
M  V30 8093 C 773.169 1.35227 1.36863 0
M  V30 8094 O 772.462 0.471029 1.8572 0
M  V30 8095 C 772.656 3.56127 0.301325 0
M  V30 8096 C 772.485 4.38999 -0.975188 0
M  V30 8097 C 771.255 4.81889 -1.52022 0
M  V30 8098 C 773.453 4.79013 -1.8722 0
M  V30 8099 N 771.435 5.49105 -2.74513 0
M  V30 8100 C 772.806 5.45701 -2.94296 0
M  V30 8101 C 774.861 4.60967 -1.88185 0
M  V30 8102 C 773.564 5.96255 -4.02333 0
M  V30 8103 C 775.59 5.12466 -2.95183 0
M  V30 8104 C 774.952 5.79134 -4.00977 0
M  V30 8105 H 771.051 0.78185 -0.015318 0
M  V30 8106 H 773.635 1.83646 -0.64671 0
M  V30 8107 H 771.806 3.75702 0.985021 0
M  V30 8108 H 773.538 3.95859 0.841304 0
M  V30 8109 H 770.293 4.61387 -1.06858 0
M  V30 8110 H 770.717 5.87315 -3.36734 0
M  V30 8111 H 775.359 4.0885 -1.07708 0
M  V30 8112 H 773.077 6.47406 -4.83623 0
M  V30 8113 H 776.663 5.00329 -2.96921 0
M  V30 8114 H 775.543 6.18265 -4.82409 0
M  V30 8115 N 773.046 0.209999 1.56195 0
M  V30 8116 C 773.994 -0.721416 2.2113 0
M  V30 8117 C 774.988 -1.20852 1.18706 0
M  V30 8118 O 776.194 -1.16968 1.36815 0
M  V30 8119 H 772.569 -0.251033 0.708863 0
M  V30 8120 H 774.54 -0.150193 2.98022 0
M  V30 8121 C 773.289 -1.92392 2.89621 0
M  V30 8122 H 772.612 -1.5582 3.68185 0
M  V30 8123 H 774.052 -2.55367 3.38473 0
M  V30 8124 C 772.511 -2.77208 1.91461 0
M  V30 8125 O 773.041 -3.75603 1.42426 0
M  V30 8126 N 771.247 -2.43006 1.59363 0
M  V30 8127 H 770.794 -1.63047 1.99433 0
M  V30 8128 H 770.752 -3.00036 0.939449 0
M  V30 8129 O 774.563 -1.61333 0.0733639 0
M  V30 8130 H 775.254 -1.86233 -0.532616 0
M  V30 END ATOM
M  V30 BEGIN BOND
M  V30 END BOND
M  V30 END CTAB
M  END
$$$$
