drugbank_target|P07658 Formate dehydrogenase H (DB02345)
 OpenBabel12092119543D

  0  0  0     0  0            999 V3000
M  V30 BEGIN CTAB
M  V30 COUNTS 11036 11158 0 0 0
M  V30 BEGIN ATOM
M  V30 1 H -0.908 1.98254 -0.117106 0
M  V30 2 N 0 1.576 0 0
M  V30 3 C 0.933 2.03868 1.02534 0
M  V30 4 C 1.911 0.928543 1.3348 0
M  V30 5 O 3.095 1.19667 1.45644 0
M  V30 6 C 0.222 2.43627 2.35294 0
M  V30 7 C -0.732 3.65373 2.2001 0
M  V30 8 S 0.101 5.13292 1.52614 0
M  V30 9 C 1.257 5.56322 2.86805 0
M  V30 10 H 1.49 2.90518 0.631377 0
M  V30 11 H -0.977 1.52953 0.210867 0
M  V30 12 H 0.981 2.67203 3.11629 0
M  V30 13 H -0.358 1.57376 2.7183 0
M  V30 14 H -1.165 3.90944 3.18086 0
M  V30 15 H -1.563 3.418 1.51819 0
M  V30 16 H 0.729 5.58782 3.83104 0
M  V30 17 H 1.672 6.56266 2.65933 0
M  V30 18 H 2.08 4.83886 2.90714 0
M  V30 19 N 1.4781 -0.272755 1.55222 0
M  V30 20 C 2.4251 -1.33716 1.88119 0
M  V30 21 C 3.3951 -1.49066 0.73271 0
M  V30 22 O 4.5801 -1.63469 0.984002 0
M  V30 23 C 1.7201 -2.69238 2.15882 0
M  V30 24 C 0.8331 -2.62108 3.43399 0
M  V30 25 C -0.0319 -3.89811 3.60861 0
M  V30 26 C -0.9929 -3.77193 4.8207 0
M  V30 27 N -1.8559 -4.9673 4.96189 0
M  V30 28 H 2.9841 -1.04962 2.78903 0
M  V30 29 H 0.5211 -0.507088 1.38083 0
M  V30 30 H 2.4791 -3.48089 2.29978 0
M  V30 31 H 1.1091 -2.96194 1.28331 0
M  V30 32 H 0.1611 -1.74967 3.37773 0
M  V30 33 H 1.4731 -2.48685 4.32386 0
M  V30 34 H 0.6271 -4.77103 3.74777 0
M  V30 35 H -0.6339 -4.06102 2.7006 0
M  V30 36 H -1.6289 -2.88284 4.68159 0
M  V30 37 H -0.4039 -3.62421 5.74307 0
M  V30 38 H -2.4579 -5.13431 4.08319 0
M  V30 39 H -2.5409 -4.85839 5.79221 0
M  V30 40 H -1.2729 -5.85594 5.1449 0
M  V30 41 N 2.9562 -1.48159 -0.537278 0
M  V30 42 C 3.9032 -1.62138 -1.64256 0
M  V30 43 C 4.8732 -0.463668 -1.59497 0
M  V30 44 O 6.0582 -0.686241 -1.78032 0
M  V30 45 C 3.1982 -1.66028 -3.02537 0
M  V30 46 C 2.3112 -2.92855 -3.17585 0
M  V30 47 C 1.4462 -2.87952 -4.46382 0
M  V30 48 C 0.4852 -4.09516 -4.54932 0
M  V30 49 N -0.3778 -4.02733 -5.75109 0
M  V30 50 H 4.4622 -2.56529 -1.51647 0
M  V30 51 H 1.9992 -1.27224 -0.738414 0
M  V30 52 H 3.9572 -1.66265 -3.82638 0
M  V30 53 H 2.5872 -0.751331 -3.13934 0
M  V30 54 H 1.6392 -3.02395 -2.30784 0
M  V30 55 H 2.9512 -3.82822 -3.19764 0
M  V30 56 H 2.1052 -2.8655 -5.34765 0
M  V30 57 H 0.8442 -1.95702 -4.46712 0
M  V30 58 H -0.1508 -4.11201 -3.64957 0
M  V30 59 H 1.0742 -5.02917 -4.56346 0
M  V30 60 H -0.9798 -3.13299 -5.76351 0
M  V30 61 H -1.0628 -4.86397 -5.78752 0
M  V30 62 H 0.2052 -4.05379 -6.65799 0
M  V30 63 N 4.4343 0.785586 -1.36625 0
M  V30 64 C 5.6803 1.54591 -1.31261 0
M  V30 65 C 6.0133 1.93906 0.106823 0
M  V30 66 O 5.2883 1.63007 1.06108 0
M  V30 67 C 5.5713 2.82038 -2.23889 0
M  V30 68 C 5.4243 2.49066 -3.74548 0
M  V30 69 C 6.7433 3.83887 -2.15217 0
M  V30 70 H 3.8623 0.560846 -0.478143 0
M  V30 71 H 6.5043 0.902278 -1.67209 0
M  V30 72 H 4.6543 3.36961 -1.93363 0
M  V30 73 H 6.3263 2.00164 -4.15611 0
M  V30 74 H 4.5693 1.81954 -3.93796 0
M  V30 75 H 5.2403 3.40109 -4.34776 0
M  V30 76 H 7.7163 3.38421 -2.42096 0
M  V30 77 H 6.5923 4.70806 -2.82193 0
M  V30 78 H 6.8533 4.27131 -1.14068 0
M  V30 79 N 5.9124 1.20967 1.01018 0
M  V30 80 C 7.1584 1.02526 1.74975 0
M  V30 81 C 7.4914 -0.4408 1.89131 0
M  V30 82 O 6.7664 -1.32718 1.42184 0
M  V30 83 C 7.0494 1.71699 3.1653 0
M  V30 84 C 6.9024 3.25791 3.10129 0
M  V30 85 C 8.2214 1.45531 4.15342 0
M  V30 86 H 5.3404 0.373863 0.635134 0
M  V30 87 H 7.9824 1.49071 1.17805 0
M  V30 88 H 6.1324 1.32128 3.65341 0
M  V30 89 H 7.8044 3.74697 2.69072 0
M  V30 90 H 6.0474 3.56363 2.47362 0
M  V30 91 H 6.7184 3.69353 4.10222 0
M  V30 92 H 9.1944 1.79872 3.75213 0
M  V30 93 H 8.0704 1.96453 5.1254 0
M  V30 94 H 8.3314 0.384237 4.40427 0
M  V30 95 N 7.3905 -1.2043 1.01659 0
M  V30 96 C 8.6185 -1.93777 0.725132 0
M  V30 97 C 9.0335 -1.74772 -0.714166 0
M  V30 98 O 8.3905 -1.06169 -1.4844 0
M  V30 99 C 8.4415 -3.45876 1.05129 0
M  V30 100 O 8.1625 -3.6426 2.43406 0
M  V30 101 C 9.6635 -4.36368 0.780891 0
M  V30 102 H 6.8835 -0.615901 0.266284 0
M  V30 103 H 9.4275 -1.52922 1.35776 0
M  V30 104 H 7.5825 -3.8461 0.464065 0
M  V30 105 H 7.9965 -4.58246 2.55169 0
M  V30 106 H 9.4705 -5.41743 1.05918 0
M  V30 107 H 9.9475 -4.38275 -0.284937 0
M  V30 108 H 10.5535 -4.03296 1.35027 0
M  V30 109 N 8.8686 -0.792821 -1.36206 0
M  V30 110 C 10.1146 -0.36733 -1.99446 0
M  V30 111 C 10.4476 1.05917 -1.62774 0
M  V30 112 O 9.7226 1.7324 -0.88421 0
M  V30 113 C 10.0056 -0.535044 -3.56103 0
M  V30 114 C 9.8586 -2.00548 -4.02617 0
M  V30 115 C 11.1776 0.0478191 -4.40074 0
M  V30 116 H 8.2966 -0.134941 -0.724541 0
M  V30 117 H 10.9386 -0.999794 -1.61568 0
M  V30 118 H 9.0886 0.00336329 -3.885 0
M  V30 119 H 10.7606 -2.60521 -3.80692 0
M  V30 120 H 9.0036 -2.50686 -3.54032 0
M  V30 121 H 9.6746 -2.07377 -5.11565 0
M  V30 122 H 12.1506 -0.411822 -4.14057 0
M  V30 123 H 11.0266 -0.0995336 -5.4881 0
M  V30 124 H 11.2876 1.14025 -4.27142 0
M  V30 125 N 10.3467 1.47872 -0.545128 0
M  V30 126 C 11.5867 2.04391 -0.0187854 0
M  V30 127 C 11.9507 1.41162 1.30144 0
M  V30 128 O 13.1517 1.88656 1.91474 0
M  V30 129 C 11.4227 3.57299 0.0850867 0
M  V30 130 S 12.9817 4.35221 0.559302 0
M  V30 131 H 9.7997 0.710737 -0.0193301 0
M  V30 132 H 12.4017 1.81395 -0.729125 0
M  V30 133 H 11.1057 4.00847 -0.880351 0
M  V30 134 H 10.6367 3.84773 0.819348 0
M  V30 135 H 12.6517 4.61571 1.82118 0
M  V30 136 N 11.8248 0.280983 1.55075 0
M  V30 137 C 13.2358 -0.215629 1.85451 0
M  V30 138 C 13.5868 -1.54991 1.203 0
M  V30 139 O 12.7118 -2.10699 0.493435 0
M  V30 140 C 13.3068 -0.398026 3.36454 0
M  V30 141 C 11.8658 -0.838866 3.66933 0
M  V30 142 C 11.0128 0.064458 2.77225 0
M  V30 143 H 13.9638 0.502601 1.50531 0
M  V30 144 H 13.9848 -1.23569 3.59876 0
M  V30 145 H 13.4968 0.573241 3.83843 0
M  V30 146 H 11.5978 -1.8214 3.25048 0
M  V30 147 H 11.7108 -0.672123 4.74362 0
M  V30 148 H 10.0748 -0.452863 2.50642 0
M  V30 149 H 10.8578 1.03172 3.2743 0
M  V30 150 N 13.3029 -1.57598 0.00835791 0
M  V30 151 C 14.5329 -1.94931 -0.684496 0
M  V30 152 C 14.9409 -0.882233 -1.67372 0
M  V30 153 O 14.2839 0.146621 -1.83114 0
M  V30 154 C 14.3459 -3.283 -1.4649 0
M  V30 155 C 14.0099 -4.52548 -0.63634 0
M  V30 156 C 15.0069 -5.19839 0.0795586 0
M  V30 157 C 12.6919 -4.98942 -0.579849 0
M  V30 158 C 14.6859 -6.3183 0.840843 0
M  V30 159 C 12.3729 -6.10819 0.185155 0
M  V30 160 C 13.3709 -6.77121 0.894227 0
M  V30 161 O 13.0589 -7.86853 1.64673 0
M  V30 162 H 12.7909 -0.647249 -0.19505 0
M  V30 163 H 15.3449 -2.05318 0.0581272 0
M  V30 164 H 13.5749 -3.14345 -2.2522 0
M  V30 165 H 15.2639 -3.50685 -2.04389 0
M  V30 166 H 16.0299 -4.84979 0.0451202 0
M  V30 167 H 11.9089 -4.47155 -1.1213 0
M  V30 168 H 15.4529 -6.83513 1.39483 0
M  V30 169 H 11.3499 -6.4512 0.221384 0
M  V30 170 H 12.1179 -8.03412 1.56432 0
M  V30 171 N 14.781 0.264519 -1.55364 0
M  V30 172 C 16.021 1.00254 -1.78125 0
M  V30 173 C 16.385 1.83187 -0.575017 0
M  V30 174 O 17.586 2.60029 -0.681042 0
M  V30 175 C 15.857 1.85478 -3.05504 0
M  V30 176 S 17.416 2.6543 -3.49417 0
M  V30 177 H 14.234 0.337522 -0.625779 0
M  V30 178 H 16.836 0.272111 -1.93597 0
M  V30 179 H 15.54 1.23491 -3.9138 0
M  V30 180 H 15.071 2.62827 -2.92721 0
M  V30 181 H 17.086 3.87958 -3.09359 0
M  V30 182 N 16.2591 1.48442 0.529413 0
M  V30 183 C 17.2221 1.62524 1.61612 0
M  V30 184 C 18.2221 0.498509 1.52877 0
M  V30 185 O 19.4121 0.76431 1.56537 0
M  V30 186 C 16.5441 1.59597 3.01233 0
M  V30 187 H 17.7371 2.59423 1.50465 0
M  V30 188 H 15.2901 1.37047 0.751514 0
M  V30 189 H 16.0251 0.641781 3.17886 0
M  V30 190 H 15.8101 2.41397 3.08982 0
M  V30 191 H 17.3001 1.72646 3.80241 0
M  V30 192 N 17.7372 -0.778329 1.37039 0
M  V30 193 C 18.9622 -1.57248 1.35233 0
M  V30 194 C 19.3872 -1.87999 -0.0615568 0
M  V30 195 O 18.7452 -1.48734 -1.03672 0
M  V30 196 C 18.7932 -2.86353 2.19167 0
M  V30 197 O 17.8972 -3.80442 1.59178 0
M  V30 198 H 17.2382 -0.476569 0.462362 0
M  V30 199 H 19.7682 -0.963853 1.80474 0
M  V30 200 H 19.7782 -3.35519 2.32145 0
M  V30 201 H 18.4532 -2.63299 3.21942 0
M  V30 202 H 17.0302 -3.39067 1.55203 0
M  V30 203 N 19.2153 -1.21501 -1.00376 0
M  V30 204 C 20.4633 -1.03095 -1.73827 0
M  V30 205 C 20.7843 0.436341 -1.90055 0
M  V30 206 O 20.0543 1.31466 -1.45236 0
M  V30 207 H 18.6343 -0.378487 -0.644016 0
M  V30 208 H 21.2963 -1.52831 -1.20949 0
M  V30 209 H 20.3923 -1.49991 -2.73695 0
M  V30 210 N 20.6934 1.19889 -1.02296 0
M  V30 211 C 21.9334 1.91125 -0.724602 0
M  V30 212 C 22.2974 1.77464 0.732835 0
M  V30 213 O 23.4984 2.43241 1.144 0
M  V30 214 C 21.7694 3.38187 -1.15604 0
M  V30 215 S 23.3284 4.27702 -0.980621 0
M  V30 216 H 20.1464 0.66018 -0.263976 0
M  V30 217 H 22.7484 1.44978 -1.31155 0
M  V30 218 H 21.4524 3.45653 -2.21251 0
M  V30 219 H 20.9834 3.89363 -0.562131 0
M  V30 220 H 22.9984 4.96073 0.112225 0
M  V30 221 N 22.1715 0.800033 1.35784 0
M  V30 222 C 23.1185 0.203848 2.29898 0
M  V30 223 C 24.0885 -0.658375 1.52495 0
M  V30 224 O 25.2735 -0.604832 1.8096 0
M  V30 225 C 22.4135 -0.64688 3.38983 0
M  V30 226 C 21.5265 0.235054 4.3136 0
M  V30 227 C 20.6615 -0.623054 5.27533 0
M  V30 228 C 19.7005 0.259682 6.11549 0
M  V30 229 N 18.8375 -0.558019 6.99879 0
M  V30 230 H 23.6775 1.01186 2.80295 0
M  V30 231 H 21.2145 0.51053 1.37957 0
M  V30 232 H 23.1725 -1.15521 4.00887 0
M  V30 233 H 21.8025 -1.42021 2.89879 0
M  V30 234 H 20.8545 0.861438 3.70518 0
M  V30 235 H 22.1665 0.914768 4.9034 0
M  V30 236 H 21.3205 -1.19678 5.94779 0
M  V30 237 H 20.0595 -1.33636 4.69034 0
M  V30 238 H 19.0645 0.845726 5.43256 0
M  V30 239 H 20.2895 0.970748 6.72126 0
M  V30 240 H 18.2355 -1.25542 6.43875 0
M  V30 241 H 18.1525 0.0637872 7.55973 0
M  V30 242 H 19.4205 -1.11523 7.71481 0
M  V30 243 N 23.6496 -1.47581 0.552962 0
M  V30 244 C 24.8986 -2.01684 0.0251995 0
M  V30 245 C 25.2116 -1.43317 -1.33115 0
M  V30 246 O 26.4176 -1.89057 -1.94858 0
M  V30 247 C 24.8736 -3.599 -0.00542052 0
M  V30 248 C 24.4816 -4.27257 1.34742 0
M  V30 249 C 26.2256 -4.21768 -0.4808 0
M  V30 250 C 24.1326 -5.77467 1.27614 0
M  V30 251 H 23.0626 -0.753979 0.00565033 0
M  V30 252 H 25.7136 -1.69616 0.70018 0
M  V30 253 H 24.0956 -3.88911 -0.745961 0
M  V30 254 H 25.2696 -4.09893 2.10534 0
M  V30 255 H 23.5846 -3.77358 1.76039 0
M  V30 256 H 26.1816 -5.31838 -0.55246 0
M  V30 257 H 26.5246 -3.88651 -1.49184 0
M  V30 258 H 27.0576 -3.97273 0.204752 0
M  V30 259 H 23.7966 -6.15196 2.26304 0
M  V30 260 H 23.3166 -5.9718 0.55996 0
M  V30 261 H 24.9956 -6.3959 0.976421 0
M  V30 262 N 25.1277 -0.289203 -1.54924 0
M  V30 263 C 26.0757 0.607966 -2.24514 0
M  V30 264 C 27.0697 1.14655 -1.24702 0
M  V30 265 O 28.2757 1.09856 -1.4259 0
M  V30 266 H 24.6507 0.21464 -0.720718 0
M  V30 267 H 26.6217 -0.00164182 -2.984 0
M  V30 268 C 25.3707 1.77406 -2.99036 0
M  V30 269 H 24.6937 1.36884 -3.75637 0
M  V30 270 H 26.1337 2.37814 -3.51028 0
M  V30 271 C 24.5927 2.67107 -2.05318 0
M  V30 272 O 25.1227 3.6787 -1.61353 0
M  V30 273 N 23.3287 2.34582 -1.71521 0
M  V30 274 H 22.8757 1.52688 -2.07471 0
M  V30 275 H 22.8337 2.94867 -1.0909 0
M  V30 276 N 26.6058 1.57591 -0.0167156 0
M  V30 277 C 27.5358 2.12496 0.967858 0
M  V30 278 C 28.5168 1.03807 1.34752 0
M  V30 279 O 29.7018 1.31577 1.42833 0
M  V30 280 C 26.8318 2.64194 2.25431 0
M  V30 281 C 25.7858 3.77559 2.01576 0
M  V30 282 C 25.1118 4.15636 3.36379 0
M  V30 283 C 26.4118 5.04151 1.36489 0
M  V30 284 H 28.1058 2.95013 0.510643 0
M  V30 285 H 25.6518 1.41915 0.244181 0
M  V30 286 H 27.6048 3.01236 2.94678 0
M  V30 287 H 26.3288 1.78821 2.73296 0
M  V30 288 H 24.9878 3.40937 1.34751 0
M  V30 289 H 24.6358 3.27263 3.81979 0
M  V30 290 H 24.3358 4.92022 3.21229 0
M  V30 291 H 25.8598 4.5525 4.06915 0
M  V30 292 H 27.2738 5.38857 1.95718 0
M  V30 293 H 25.6708 5.85453 1.31776 0
M  V30 294 H 26.7408 4.83733 0.336219 0
M  V30 295 N 28.0839 -0.256276 1.55502 0
M  V30 296 C 29.3299 -0.987079 1.77157 0
M  V30 297 C 29.6629 -1.85327 0.580315 0
M  V30 298 O 28.9379 -1.89874 -0.421686 0
M  V30 299 C 29.2209 -1.85553 3.08613 0
M  V30 300 C 29.0739 -1.01816 4.38125 0
M  V30 301 C 30.3929 -2.8397 3.36228 0
M  V30 302 H 27.5119 -0.357428 0.644526 0
M  V30 303 H 30.1539 -0.258239 1.88237 0
M  V30 304 H 28.3039 -2.47695 2.99298 0
M  V30 305 H 29.9759 -0.416159 4.59419 0
M  V30 306 H 28.2189 -0.322178 4.32602 0
M  V30 307 H 28.8899 -1.65939 5.26468 0
M  V30 308 H 31.3659 -2.31964 3.45445 0
M  V30 309 H 30.2419 -3.41864 4.29442 0
M  V30 310 H 30.5029 -3.59955 2.56681 0
M  V30 311 N 29.562 -1.4872 -0.521534 0
M  V30 312 C 30.808 -1.574 -1.27879 0
M  V30 313 C 31.141 -0.250817 -1.92573 0
M  V30 314 O 30.416 0.743934 -1.79711 0
M  V30 315 C 30.699 -2.71843 -2.36164 0
M  V30 316 C 30.552 -4.13893 -1.76105 0
M  V30 317 C 31.871 -2.82008 -3.37875 0
M  V30 318 H 28.99 -0.572941 -0.463581 0
M  V30 319 H 31.632 -1.80927 -0.580119 0
M  V30 320 H 29.782 -2.51914 -2.95756 0
M  V30 321 H 31.454 -4.45284 -1.20499 0
M  V30 322 H 29.697 -4.20498 -1.06601 0
M  V30 323 H 30.368 -4.89804 -2.5455 0
M  V30 324 H 32.844 -3.00086 -2.88249 0
M  V30 325 H 31.72 -3.63796 -4.11028 0
M  V30 326 H 31.981 -1.90511 -3.98946 0
M  V30 327 N 31.0401 0.771051 -1.3745 0
M  V30 328 C 32.3171 1.519 -1.23231 0
M  V30 329 C 32.6971 2.10383 0.173809 0
M  V30 330 O 32.0451 1.95583 1.18151 0
M  V30 331 C 32.2551 2.59933 -2.32886 0
M  V30 332 C 33.6031 3.27316 -2.70461 0
M  V30 333 O 34.6271 2.70228 -2.32068 0
M  V30 334 O 33.4861 4.30531 -3.36608 0
M  V30 335 H 30.5801 0.672803 -0.480901 0
M  V30 336 H 33.1261 0.807957 -1.49232 0
M  V30 337 H 31.8981 2.14842 -3.27045 0
M  V30 338 H 31.5211 3.38637 -2.08353 0
M  V30 339 N 32.5182 1.22032 0.997298 0
M  V30 340 C 33.4662 0.983634 2.10778 0
M  V30 341 C 34.4602 -0.0717564 1.69248 0
M  V30 342 O 35.6662 0.080304 1.79821 0
M  V30 343 H 32.0412 0.300877 0.689186 0
M  V30 344 H 34.0122 1.92606 2.27916 0
M  V30 345 C 32.7612 0.57326 3.42942 0
M  V30 346 H 32.0842 1.37702 3.75338 0
M  V30 347 H 33.5242 0.447031 4.21637 0
M  V30 348 C 31.9832 -0.7167 3.29188 0
M  V30 349 O 32.5132 -1.77027 3.60589 0
M  V30 350 N 30.7192 -0.686167 2.82383 0
M  V30 351 H 30.2662 0.171507 2.57028 0
M  V30 352 H 30.2242 -1.54955 2.73562 0
M  V30 353 N 33.9963 -1.19345 1.0293 0
M  V30 354 C 35.2443 -1.88665 0.724574 0
M  V30 355 C 35.5653 -1.80036 -0.749144 0
M  V30 356 O 34.8353 -1.2111 -1.53978 0
M  V30 357 H 33.4153 -0.698406 0.265025 0
M  V30 358 H 36.0773 -1.44885 1.30362 0
M  V30 359 H 35.1733 -2.94987 1.01926 0
M  V30 360 N 35.4744 -0.807222 -1.35358 0
M  V30 361 C 36.4214 -0.216037 -2.29787 0
M  V30 362 C 37.3914 0.650278 -1.52842 0
M  V30 363 O 38.5764 0.595227 -1.81278 0
M  V30 364 C 35.7164 0.628893 -3.39321 0
M  V30 365 C 34.8294 -0.257927 -4.31229 0
M  V30 366 C 33.9644 0.595069 -5.27856 0
M  V30 367 C 33.0034 -0.292111 -6.11403 0
M  V30 368 N 32.1404 0.520895 -7.00165 0
M  V30 369 H 36.9804 -1.02671 -2.79755 0
M  V30 370 H 34.5174 -0.517839 -1.37684 0
M  V30 371 H 36.4754 1.13393 -4.01494 0
M  V30 372 H 35.1054 1.40482 -2.90628 0
M  V30 373 H 34.1574 -0.881076 -3.70056 0
M  V30 374 H 35.4694 -0.940759 -4.89848 0
M  V30 375 H 34.6234 1.16522 -5.95405 0
M  V30 376 H 33.3624 1.31146 -4.69736 0
M  V30 377 H 32.3674 -0.874525 -5.428 0
M  V30 378 H 33.5924 -1.00638 -6.71602 0
M  V30 379 H 31.5384 1.22125 -6.44532 0
M  V30 380 H 31.4554 -0.103877 -7.55929 0
M  V30 381 H 32.7234 1.0743 -7.72062 0
M  V30 382 N 36.9525 1.47285 -0.560781 0
M  V30 383 C 38.2015 2.01668 -0.035895 0
M  V30 384 C 38.5145 1.44021 1.32353 0
M  V30 385 O 39.7205 1.90088 1.93853 0
M  V30 386 C 38.1765 3.59897 -0.0136659 0
M  V30 387 C 37.7845 4.26536 -1.37006 0
M  V30 388 C 39.5285 4.22017 0.458425 0
M  V30 389 C 37.4355 5.76782 -1.30675 0
M  V30 390 H 36.3655 0.753938 -0.00964879 0
M  V30 391 H 39.0165 1.69243 -0.709166 0
M  V30 392 H 37.3985 3.89301 0.725325 0
M  V30 393 H 38.5725 4.0877 -2.12705 0
M  V30 394 H 36.8875 3.76419 -1.78038 0
M  V30 395 H 39.4845 5.32124 0.524247 0
M  V30 396 H 39.8275 3.89437 1.4712 0
M  V30 397 H 40.3605 3.97159 -0.225818 0
M  V30 398 H 37.0995 6.13988 -2.29564 0
M  V30 399 H 36.6195 5.96875 -0.591622 0
M  V30 400 H 38.2985 6.39063 -1.01033 0
M  V30 401 N 38.4306 0.297415 1.54768 0
M  V30 402 C 39.6766 -0.313376 2.00364 0
M  V30 403 C 40.0096 -1.53815 1.18553 0
M  V30 404 O 39.2846 -1.92739 0.261103 0
M  V30 405 C 39.5676 -0.673525 3.53745 0
M  V30 406 C 39.4206 0.560133 4.46299 0
M  V30 407 C 40.7396 -1.50143 4.13697 0
M  V30 408 H 37.8586 -0.112428 0.728374 0
M  V30 409 H 40.5006 0.4088 1.8555 0
M  V30 410 H 38.6506 -1.28881 3.665 0
M  V30 411 H 40.3226 1.19863 4.45455 0
M  V30 412 H 38.5656 1.19405 4.17043 0
M  V30 413 H 39.2366 0.26405 5.51368 0
M  V30 414 H 41.7126 -0.981588 4.04356 0
M  V30 415 H 40.5886 -1.72221 5.21182 0
M  V30 416 H 40.8496 -2.48952 3.65343 0
M  V30 417 N 39.9087 -1.5758 0.0250728 0
M  V30 418 C 41.3247 -1.56124 -0.331282 0
M  V30 419 C 41.5247 -1.03029 -1.73169 0
M  V30 420 O 40.5807 -0.675215 -2.43305 0
M  V30 421 C 41.8937 -3.00139 -0.183584 0
M  V30 422 C 43.4417 -3.11946 -0.256654 0
M  V30 423 C 43.9167 -4.57793 -0.137792 0
M  V30 424 N 45.4077 -4.6279 -0.194904 0
M  V30 425 C 46.1427 -5.7326 -0.126655 0
M  V30 426 N 45.6387 -6.928 -0.00755288 0
M  V30 427 N 47.4317 -5.61811 -0.180348 0
M  V30 428 H 39.5827 -1.90424 0.94087 0
M  V30 429 H 41.8457 -0.875761 0.362968 0
M  V30 430 H 41.5517 -3.4292 0.780927 0
M  V30 431 H 41.4257 -3.64899 -0.955448 0
M  V30 432 H 43.8127 -2.69079 -1.21162 0
M  V30 433 H 43.8937 -2.49915 0.545517 0
M  V30 434 H 43.5377 -5.01339 0.813739 0
M  V30 435 H 43.4677 -5.17798 -0.958775 0
M  V30 436 H 45.9587 -3.76807 -0.287267 0
M  V30 437 H 46.2717 -7.72791 0.0379428 0
M  V30 438 H 44.6167 -6.94995 0.0271731 0
M  V30 439 H 47.8077 -4.6731 -0.271767 0
M  V30 440 H 47.9807 -6.47882 -0.123697 0
M  V30 441 N 41.3868 0.248026 -1.55636 0
M  V30 442 C 42.3498 1.29044 -1.89421 0
M  V30 443 C 43.3498 1.41134 -0.770581 0
M  V30 444 O 44.5398 1.39854 -1.03858 0
M  V30 445 C 41.6718 2.66831 -2.12165 0
M  V30 446 H 42.8648 1.00305 -2.82629 0
M  V30 447 H 40.4178 0.487265 -1.48511 0
M  V30 448 H 41.1528 3.00711 -1.21422 0
M  V30 449 H 40.9378 2.59438 -2.93997 0
M  V30 450 H 42.4278 3.42103 -2.3949 0
M  V30 451 N 42.8649 1.48995 0.513639 0
M  V30 452 C 43.7749 1.67443 1.64317 0
M  V30 453 C 44.7909 0.556947 1.64846 0
M  V30 454 O 45.9669 0.830082 1.83498 0
M  V30 455 C 43.0319 1.72515 3.00732 0
M  V30 456 C 42.0929 2.96009 3.1093 0
M  V30 457 C 41.3259 3.00829 4.40837 0
M  V30 458 O 41.5489 2.13594 5.28898 0
M  V30 459 O 40.4829 3.93168 4.55744 0
M  V30 460 H 44.3089 2.63106 1.51687 0
M  V30 461 H 41.8939 1.32588 0.688543 0
M  V30 462 H 43.7759 1.78277 3.81831 0
M  V30 463 H 42.4509 0.800278 3.13651 0
M  V30 464 H 41.3579 2.9577 2.29065 0
M  V30 465 H 42.6909 3.87934 3.02933 0
M  V30 466 N 44.343 -0.763751 1.37857 0
M  V30 467 C 45.306 -1.85889 1.34081 0
M  V30 468 C 46.306 -1.58949 0.243277 0
M  V30 469 O 47.496 -1.66882 0.499589 0
M  V30 470 C 44.628 -3.23176 1.08489 0
M  V30 471 H 45.821 -1.90648 2.31502 0
M  V30 472 H 43.374 -0.964367 1.23003 0
M  V30 473 H 44.109 -3.24091 0.116318 0
M  V30 474 H 43.894 -3.44124 1.8794 0
M  V30 475 H 45.384 -4.03254 1.08517 0
M  V30 476 N 45.8211 -1.22559 -0.990812 0
M  V30 477 C 46.7841 -0.998863 -2.0629 0
M  V30 478 C 47.7841 0.0354834 -1.60761 0
M  V30 479 O 48.9741 -0.203231 -1.7301 0
M  V30 480 C 46.1061 -0.509203 -3.37076 0
M  V30 481 H 47.2991 -1.95014 -2.27837 0
M  V30 482 H 44.8521 -1.04456 -1.16269 0
M  V30 483 H 45.5871 0.446335 -3.21214 0
M  V30 484 H 45.3721 -1.25547 -3.71457 0
M  V30 485 H 46.8621 -0.370888 -4.1595 0
M  V30 486 N 47.2992 1.18797 -1.03562 0
M  V30 487 C 48.2312 2.21731 -0.580337 0
M  V30 488 C 49.2442 1.59051 0.347349 0
M  V30 489 O 50.4332 1.77929 0.142669 0
M  V30 490 C 47.5332 3.38459 0.172805 0
M  V30 491 C 46.7062 4.3072 -0.761496 0
M  V30 492 C 45.7652 5.26174 -0.0525547 0
M  V30 493 O 44.7912 5.65108 -0.681333 0
M  V30 494 N 45.9932 5.67624 1.21586 0
M  V30 495 H 48.7582 2.61417 -1.46565 0
M  V30 496 H 46.3192 1.33531 -0.915476 0
M  V30 497 H 48.3112 3.99335 0.656793 0
M  V30 498 H 46.8812 2.97507 0.959602 0
M  V30 499 H 46.1012 3.67525 -1.42544 0
M  V30 500 H 47.3892 4.89267 -1.39626 0
M  V30 501 H 46.7872 5.38038 1.74732 0
M  V30 502 H 45.3442 6.30721 1.64421 0
M  V30 503 N 48.7773 0.814389 1.34928 0
M  V30 504 C 50.0253 0.397636 1.9815 0
M  V30 505 C 50.3463 -1.04069 1.64908 0
M  V30 506 O 49.6163 -1.72121 0.93548 0
M  V30 507 H 48.1963 0.144043 0.732981 0
M  V30 508 H 50.8583 1.04195 1.6471 0
M  V30 509 H 49.9543 0.509688 3.0791 0
M  V30 510 N 50.2554 -1.46986 0.568584 0
M  V30 511 C 51.2024 -2.30153 -0.172707 0
M  V30 512 C 52.1724 -1.39759 -0.897586 0
M  V30 513 O 53.3574 -1.68716 -0.891044 0
M  V30 514 C 50.4974 -3.23952 -1.1895 0
M  V30 515 C 49.6104 -4.29441 -0.469517 0
M  V30 516 C 48.7454 -5.1038 -1.47259 0
M  V30 517 C 47.7844 -6.07632 -0.738225 0
M  V30 518 N 46.9214 -6.8149 -1.68868 0
M  V30 519 H 51.7614 -2.93019 0.542596 0
M  V30 520 H 49.2984 -1.44422 0.279401 0
M  V30 521 H 51.2564 -3.76767 -1.79173 0
M  V30 522 H 49.8864 -2.62926 -1.87269 0
M  V30 523 H 48.9384 -3.79594 0.247467 0
M  V30 524 H 50.2504 -4.98689 0.105241 0
M  V30 525 H 49.4044 -5.67402 -2.14803 0
M  V30 526 H 48.1434 -4.4106 -2.08128 0
M  V30 527 H 47.1484 -5.49778 -0.0489293 0
M  V30 528 H 48.3734 -6.78966 -0.135129 0
M  V30 529 H 46.3194 -6.14891 -2.28573 0
M  V30 530 H 46.2364 -7.46948 -1.16636 0
M  V30 531 H 47.5044 -7.43078 -2.3549 0
M  V30 532 N 51.7335 -0.305618 -1.54608 0
M  V30 533 C 52.9615 0.304775 -2.04643 0
M  V30 534 C 53.3765 1.47167 -1.18268 0
M  V30 535 O 52.7335 1.81296 -0.209328 0
M  V30 536 C 52.7845 0.756564 -3.53495 0
M  V30 537 O 52.5055 -0.36389 -4.36586 0
M  V30 538 C 54.0065 1.43163 -4.19546 0
M  V30 539 H 51.2265 0.0655481 -0.667791 0
M  V30 540 H 53.7705 -0.446592 -1.99564 0
M  V30 541 H 51.9255 1.45794 -3.58919 0
M  V30 542 H 52.3395 -0.0113121 -5.24499 0
M  V30 543 H 53.8135 1.69886 -5.25207 0
M  V30 544 H 54.2905 2.37318 -3.69563 0
M  V30 545 H 54.8965 0.773307 -4.18211 0
M  V30 546 N 53.2116 1.57565 -0.0334293 0
M  V30 547 C 54.1596 2.1164 0.96496 0
M  V30 548 C 55.1536 1.04398 1.33407 0
M  V30 549 O 56.3596 1.22828 1.3158 0
M  V30 550 H 52.7346 0.676222 0.32898 0
M  V30 551 H 54.7056 2.94455 0.483614 0
M  V30 552 C 53.4546 2.66207 2.23672 0
M  V30 553 H 52.7776 3.48378 1.96145 0
M  V30 554 H 54.2176 3.07685 2.9173 0
M  V30 555 C 52.6766 1.59151 2.96939 0
M  V30 556 O 53.2066 0.993858 3.89211 0
M  V30 557 N 51.4126 1.31093 2.59351 0
M  V30 558 H 50.9596 1.7988 1.84393 0
M  V30 559 H 50.9176 0.596889 3.08682 0
M  V30 560 N 54.6897 -0.239769 1.55765 0
M  V30 561 C 55.6217 -1.32001 1.87372 0
M  V30 562 C 56.6347 -1.43944 0.760522 0
M  V30 563 O 57.8237 -1.45167 1.0387 0
M  V30 564 C 54.9237 -2.69779 2.05115 0
M  V30 565 C 54.0967 -2.80014 3.36022 0
M  V30 566 C 53.1557 -3.98684 3.4342 0
M  V30 567 O 52.1817 -3.87877 4.16582 0
M  V30 568 N 53.3837 -5.12176 2.73232 0
M  V30 569 H 56.1487 -1.0522 2.80622 0
M  V30 570 H 53.7097 -0.429857 1.56089 0
M  V30 571 H 55.7017 -3.47517 2.07399 0
M  V30 572 H 54.2717 -2.89237 1.18577 0
M  V30 573 H 53.4917 -1.88896 3.45994 0
M  V30 574 H 54.7797 -2.83808 4.22292 0
M  V30 575 H 54.1777 -5.2385 2.13536 0
M  V30 576 H 52.7347 -5.88022 2.81199 0
M  V30 577 N 56.1678 -1.49265 -0.50573 0
M  V30 578 C 57.4158 -1.582 -1.25766 0
M  V30 579 C 57.7368 -0.268482 -1.93143 0
M  V30 580 O 57.0068 0.711833 -1.8251 0
M  V30 581 H 55.5868 -0.582873 -0.467191 0
M  V30 582 H 58.2488 -1.85865 -0.586525 0
M  V30 583 H 57.3448 -2.37563 -2.02412 0
M  V30 584 N 57.6459 0.756429 -1.3826 0
M  V30 585 C 58.8739 1.54565 -1.3754 0
M  V30 586 C 59.2889 1.88767 0.0355331 0
M  V30 587 O 58.6459 1.52572 1.0014 0
M  V30 588 C 58.6969 2.84654 -2.22833 0
M  V30 589 O 58.4179 2.51912 -3.5843 0
M  V30 590 C 59.9189 3.78807 -2.30261 0
M  V30 591 H 57.1389 0.478353 -0.470553 0
M  V30 592 H 59.6829 0.936381 -1.81803 0
M  V30 593 H 57.8379 3.41965 -1.8204 0
M  V30 594 H 58.2519 3.35325 -4.03308 0
M  V30 595 H 59.7259 4.67045 -2.94233 0
M  V30 596 H 60.2029 4.19038 -1.31545 0
M  V30 597 H 60.8089 3.2742 -2.71433 0
M  V30 598 N 59.124 1.23083 0.984299 0
M  V30 599 C 60.054 1.03292 2.09411 0
M  V30 600 C 61.035 -0.048923 1.7003 0
M  V30 601 O 62.22 0.114967 1.93859 0
M  V30 602 C 59.35 0.619155 3.41736 0
M  V30 603 C 58.304 1.64791 3.95004 0
M  V30 604 C 57.63 1.0897 5.23478 0
M  V30 605 C 58.93 3.03999 4.24714 0
M  V30 606 H 60.624 1.96119 2.26225 0
M  V30 607 H 58.17 0.944344 1.08711 0
M  V30 608 H 60.123 0.467777 4.18796 0
M  V30 609 H 58.847 -0.344786 3.24775 0
M  V30 610 H 57.506 1.78721 3.20085 0
M  V30 611 H 57.154 0.11686 5.02864 0
M  V30 612 H 56.854 1.77704 5.60085 0
M  V30 613 H 58.378 0.950093 6.03163 0
M  V30 614 H 59.792 2.93393 4.92538 0
M  V30 615 H 58.189 3.69936 4.72512 0
M  V30 616 H 59.259 3.53285 3.32142 0
M  V30 617 N 60.6021 -1.18246 1.0419 0
M  V30 618 C 61.8421 -1.89948 0.754916 0
M  V30 619 C 62.2061 -1.78608 -0.70451 0
M  V30 620 O 63.4071 -2.4503 -1.10516 0
M  V30 621 C 61.6781 -3.36305 1.20969 0
M  V30 622 S 63.2371 -4.26088 1.04854 0
M  V30 623 H 60.0551 -0.655897 0.274446 0
M  V30 624 H 62.6571 -1.42873 1.33445 0
M  V30 625 H 61.3611 -3.42089 2.26722 0
M  V30 626 H 60.8921 -3.8842 0.624004 0
M  V30 627 H 62.9071 -4.96189 -0.0332896 0
M  V30 628 N 62.0802 -0.821533 -1.34494 0
M  V30 629 C 63.0102 -0.257138 -2.3208 0
M  V30 630 C 63.9912 0.625645 -1.58176 0
M  V30 631 O 65.1762 0.552811 -1.86166 0
M  V30 632 C 62.3062 0.582958 -3.42372 0
M  V30 633 C 61.2602 -0.202571 -4.2752 0
M  V30 634 C 60.5862 0.760179 -5.29269 0
M  V30 635 C 61.8862 -1.40998 -5.02908 0
M  V30 636 H 63.5802 -1.07247 -2.79532 0
M  V30 637 H 61.1262 -0.517163 -1.34393 0
M  V30 638 H 63.0792 0.987972 -4.09655 0
M  V30 639 H 61.8032 1.43133 -2.93565 0
M  V30 640 H 60.4622 -0.588936 -3.61838 0
M  V30 641 H 60.1102 1.60447 -4.76724 0
M  V30 642 H 59.8102 0.238809 -5.87115 0
M  V30 643 H 61.3342 1.16308 -5.9942 0
M  V30 644 H 62.7482 -1.07905 -5.63054 0
M  V30 645 H 61.1452 -1.86689 -5.70322 0
M  V30 646 H 62.2152 -2.1889 -4.32684 0
M  V30 647 N 63.5583 1.46682 -0.576371 0
M  V30 648 C 64.5053 2.30241 0.160499 0
M  V30 649 C 65.4753 1.40233 0.890162 0
M  V30 650 O 66.6603 1.69186 0.882084 0
M  V30 651 C 63.8003 3.24578 1.1723 0
M  V30 652 C 62.9133 4.29684 0.446736 0
M  V30 653 C 62.0483 5.11154 1.44551 0
M  V30 654 C 61.0873 6.08015 0.70599 0
M  V30 655 N 60.2243 6.82376 1.65251 0
M  V30 656 H 65.0643 2.92727 -0.558127 0
M  V30 657 H 62.6013 1.44272 -0.287056 0
M  V30 658 H 64.5593 3.77711 1.77172 0
M  V30 659 H 63.1893 2.63916 1.85872 0
M  V30 660 H 62.2413 3.79458 -0.267594 0
M  V30 661 H 63.5533 4.98626 -0.131686 0
M  V30 662 H 62.7073 5.68533 2.11791 0
M  V30 663 H 61.4463 4.42158 2.05786 0
M  V30 664 H 60.4513 5.49796 0.0197725 0
M  V30 665 H 61.6763 6.79028 0.09912 0
M  V30 666 H 59.6223 6.16094 2.25308 0
M  V30 667 H 59.5393 7.47556 1.12673 0
M  V30 668 H 60.8073 7.44316 2.31546 0
M  V30 669 N 65.0364 0.313813 1.54444 0
M  V30 670 C 66.2844 -0.291099 1.99993 0
M  V30 671 C 66.6054 -1.53418 1.20366 0
M  V30 672 O 65.8754 -1.93544 0.302927 0
M  V30 673 H 64.4554 -0.110552 0.738774 0
M  V30 674 H 67.1174 0.428106 1.9014 0
M  V30 675 H 66.2134 -0.554268 3.07139 0
M  V30 676 N 66.5145 -1.57545 0.0417849 0
M  V30 677 C 67.7445 -1.96339 -0.642995 0
M  V30 678 C 68.1525 -0.917536 -1.65463 0
M  V30 679 O 67.4955 0.107747 -1.83384 0
M  V30 680 C 67.5575 -3.31333 -1.39494 0
M  V30 681 C 67.2215 -4.53796 -0.540204 0
M  V30 682 C 68.2185 -5.19553 0.189806 0
M  V30 683 C 65.9035 -5.0006 -0.473886 0
M  V30 684 C 67.8975 -6.29904 0.974674 0
M  V30 685 C 65.5845 -6.10289 0.314677 0
M  V30 686 C 66.5825 -6.75072 1.03765 0
M  V30 687 O 66.2705 -7.83183 1.81327 0
M  V30 688 H 66.0025 -0.651241 -0.181277 0
M  V30 689 H 68.5565 -2.05148 0.101665 0
M  V30 690 H 66.7865 -3.19052 -2.18502 0
M  V30 691 H 68.4755 -3.54942 -1.96904 0
M  V30 692 H 69.2415 -4.84774 0.147981 0
M  V30 693 H 65.1205 -4.49433 -1.0262 0
M  V30 694 H 68.6645 -6.80401 1.5395 0
M  V30 695 H 64.5615 -6.44506 0.358174 0
M  V30 696 H 65.3295 -7.99913 1.73438 0
M  V30 697 N 67.9926 0.231505 -1.5589 0
M  V30 698 C 69.2226 0.973092 -1.82248 0
M  V30 699 C 69.6306 1.78845 -0.617328 0
M  V30 700 O 68.9736 1.78752 0.423499 0
M  V30 701 C 69.0356 1.94732 -3.02192 0
M  V30 702 C 68.6996 1.31743 -4.37599 0
M  V30 703 C 69.6966 0.712238 -5.14998 0
M  V30 704 C 67.3816 1.33218 -4.84312 0
M  V30 705 C 69.3756 0.130195 -6.37267 0
M  V30 706 C 67.0626 0.746286 -6.06526 0
M  V30 707 C 68.0606 0.146337 -6.82843 0
M  V30 708 O 67.7486 -0.430465 -8.02747 0
M  V30 709 H 67.4806 0.29125 -0.61004 0
M  V30 710 H 70.0346 0.254915 -2.03812 0
M  V30 711 H 68.2646 2.70422 -2.76422 0
M  V30 712 H 69.9536 2.55362 -3.15508 0
M  V30 713 H 70.7196 0.69324 -4.8002 0
M  V30 714 H 66.5986 1.78854 -4.24891 0
M  V30 715 H 70.1426 -0.33871 -6.96777 0
M  V30 716 H 66.0396 0.762663 -6.40979 0
M  V30 717 H 66.8076 -0.323818 -8.17859 0
M  V30 718 N 69.4707 1.49531 0.497807 0
M  V30 719 C 70.7187 1.58865 1.24926 0
M  V30 720 C 71.0397 0.278721 1.92998 0
M  V30 721 O 70.3097 -0.702144 1.82885 0
M  V30 722 H 68.8897 0.585343 0.464094 0
M  V30 723 H 71.5517 1.86174 0.57666 0
M  V30 724 H 70.6477 2.38633 2.01149 0
M  V30 725 N 70.9488 -0.749086 1.3866 0
M  V30 726 C 72.1948 -1.50959 1.36319 0
M  V30 727 C 72.5498 -1.92347 -0.0452451 0
M  V30 728 O 71.8428 -1.6289 -1.00884 0
M  V30 729 C 72.0368 -2.7712 2.25697 0
M  V30 730 C 71.8658 -2.48067 3.7509 0
M  V30 731 C 70.6358 -2.41062 4.44091 0
M  V30 732 C 72.8338 -2.14544 4.67414 0
M  V30 733 N 70.8158 -2.04331 5.78897 0
M  V30 734 C 72.1868 -1.88141 5.90765 0
M  V30 735 C 74.2418 -2.00892 4.55573 0
M  V30 736 C 72.9448 -1.49463 7.036 0
M  V30 737 C 74.9708 -1.63616 5.68317 0
M  V30 738 C 74.3328 -1.38088 6.90732 0
M  V30 739 H 70.4318 -0.551804 0.554108 0
M  V30 740 H 73.0158 -0.871886 1.74087 0
M  V30 741 H 71.1868 -3.38693 1.9011 0
M  V30 742 H 72.9188 -3.4321 2.1445 0
M  V30 743 H 69.6738 -2.57685 3.9736 0
M  V30 744 H 70.0978 -1.88598 6.502 0
M  V30 745 H 74.7398 -2.19301 3.61479 0
M  V30 746 H 72.4578 -1.29794 7.97608 0
M  V30 747 H 76.0438 -1.53678 5.61137 0
M  V30 748 H 74.9238 -1.09674 7.76493 0
M  V30 749 N 72.4269 -1.23603 -0.977757 0
M  V30 750 C 73.7039 -0.977897 -1.69401 0
M  V30 751 C 74.0839 0.502738 -2.05026 0
M  V30 752 O 73.4319 1.47459 -1.74551 0
M  V30 753 C 73.6419 -1.89077 -2.93345 0
M  V30 754 C 74.9899 -2.15579 -3.65802 0
M  V30 755 O 76.0139 -1.86648 -3.03383 0
M  V30 756 O 74.8729 -2.64658 -4.78141 0
M  V30 757 H 71.9669 -0.369025 -0.740101 0
M  V30 758 H 74.5129 -1.34657 -1.03274 0
M  V30 759 H 73.2849 -2.89158 -2.63634 0
M  V30 760 H 72.9079 -1.52463 -3.67207 0
M  V30 761 N 73.905 1.17692 -1.04816 0
M  V30 762 C 75.152 1.87859 -0.75599 0
M  V30 763 C 75.48 1.80812 0.716752 0
M  V30 764 O 74.735 1.20819 1.53952 0
M  V30 765 C 75.034 3.37462 -1.17703 0
M  V30 766 C 74.7 3.64713 -2.65133 0
M  V30 767 C 73.362 3.71859 -3.05408 0
M  V30 768 C 75.714 3.76492 -3.60421 0
M  V30 769 C 73.042 3.88271 -4.39843 0
M  V30 770 C 75.394 3.94421 -4.94585 0
M  V30 771 C 74.058 3.99806 -5.3452 0
M  V30 772 H 73.328 0.687425 -0.276636 0
M  V30 773 H 75.975 1.39255 -1.31455 0
M  V30 774 H 74.28 3.88097 -0.537395 0
M  V30 775 H 75.977 3.90109 -0.928218 0
M  V30 776 H 72.567 3.59772 -2.32942 0
M  V30 777 H 76.751 3.70295 -3.30447 0
M  V30 778 H 72.007 3.90687 -4.70291 0
M  V30 779 H 76.181 4.02477 -5.68318 0
M  V30 780 H 73.808 4.12276 -6.38696 0
M  V30 781 N 75.3831 0.828654 1.34056 0
M  V30 782 C 76.6321 0.415828 1.97367 0
M  V30 783 C 76.9451 -1.02796 1.6641 0
M  V30 784 O 78.1511 -1.54497 2.23255 0
M  V30 785 C 76.6071 0.692601 3.53173 0
M  V30 786 C 76.2151 2.15038 3.93017 0
M  V30 787 C 77.9591 0.346222 4.23086 0
M  V30 788 C 75.8661 2.37174 5.41758 0
M  V30 789 H 74.7961 0.151755 0.738571 0
M  V30 790 H 77.4471 1.01581 1.52819 0
M  V30 791 H 75.8291 0.0223764 3.95994 0
M  V30 792 H 77.0031 2.86024 3.61285 0
M  V30 793 H 75.3181 2.45875 3.36057 0
M  V30 794 H 77.9151 0.48937 5.32456 0
M  V30 795 H 78.2581 -0.709842 4.10204 0
M  V30 796 H 78.7911 0.971258 3.85761 0
M  V30 797 H 75.5301 3.41308 5.59633 0
M  V30 798 H 75.0501 1.70738 5.74986 0
M  V30 799 H 76.7291 2.19818 6.08514 0
M  V30 800 N 76.8612 -1.46375 0.584142 0
M  V30 801 C 77.8092 -2.32042 -0.161047 0
M  V30 802 C 78.8032 -1.44569 -0.882966 0
M  V30 803 O 80.0092 -1.61186 -0.801191 0
M  V30 804 H 76.3842 -0.748659 -0.0708033 0
M  V30 805 H 78.3552 -2.92704 0.580269 0
M  V30 806 C 77.1042 -3.27762 -1.1605 0
M  V30 807 H 76.4272 -3.95051 -0.614419 0
M  V30 808 H 77.8672 -3.90481 -1.65228 0
M  V30 809 C 76.3262 -2.53218 -2.22221 0
M  V30 810 O 76.8562 -2.29628 -3.29597 0
M  V30 811 N 75.0622 -2.13756 -1.96868 0
M  V30 812 H 74.6092 -2.33142 -1.09557 0
M  V30 813 H 74.5672 -1.642 -2.68115 0
M  V30 814 N 78.3393 -0.321999 -1.54275 0
M  V30 815 C 79.6163 0.335232 -1.92706 0
M  V30 816 C 79.9963 1.70006 -1.25145 0
M  V30 817 O 79.3443 2.25067 -0.394596 0
M  V30 818 C 79.5543 0.429008 -3.46353 0
M  V30 819 C 80.9023 0.690029 -4.18956 0
M  V30 820 O 81.9263 0.511992 -3.52501 0
M  V30 821 O 80.7853 1.03338 -5.36641 0
M  V30 822 H 77.8793 0.191143 -0.804608 0
M  V30 823 H 80.4253 -0.3716 -1.65581 0
M  V30 824 H 79.1973 -0.529611 -3.87699 0
M  V30 825 H 78.8203 1.18348 -3.79578 0
M  V30 826 N 79.8174 1.5752 -0.0501392 0
M  V30 827 C 81.0454 1.96963 0.633492 0
M  V30 828 C 81.4604 0.927631 1.6444 0
M  V30 829 O 80.8174 -0.0882665 1.82286 0
M  V30 830 C 80.8684 3.36487 1.32132 0
M  V30 831 O 80.5894 4.36693 0.350894 0
M  V30 832 C 82.0904 3.90682 2.09481 0
M  V30 833 H 79.3104 0.648244 0.173266 0
M  V30 834 H 81.8544 2.0417 -0.116134 0
M  V30 835 H 80.0094 3.30434 2.02218 0
M  V30 836 H 80.4234 5.17702 0.841735 0
M  V30 837 H 81.8974 4.90591 2.5303 0
M  V30 838 H 82.3744 3.26053 2.94255 0
M  V30 839 H 82.9804 4.00069 1.44307 0
M  V30 840 N 81.2955 -0.223234 1.56011 0
M  V30 841 C 82.2275 -1.30006 1.88762 0
M  V30 842 C 83.2405 -1.43129 0.775746 0
M  V30 843 O 84.4295 -1.44057 1.05403 0
M  V30 844 C 81.5295 -2.67589 2.07965 0
M  V30 845 C 80.7025 -2.76434 3.38973 0
M  V30 846 C 79.7615 -3.95019 3.47629 0
M  V30 847 O 78.7875 -3.83436 4.20672 0
M  V30 848 N 79.9895 -5.09249 2.78649 0
M  V30 849 H 82.7545 -1.02238 2.81722 0
M  V30 850 H 80.3155 -0.413278 1.56536 0
M  V30 851 H 82.3075 -3.45297 2.11073 0
M  V30 852 H 80.8775 -2.87964 1.21638 0
M  V30 853 H 80.0975 -1.85216 3.47978 0
M  V30 854 H 81.3855 -2.79313 4.25278 0
M  V30 855 H 80.7835 -5.21556 2.19081 0
M  V30 856 H 79.3405 -5.85007 2.8742 0
M  V30 857 N 82.7736 -1.49793 -0.48987 0
M  V30 858 C 84.0226 -1.59085 -1.23995 0
M  V30 859 C 84.3356 -0.287907 -1.9347 0
M  V30 860 O 85.5416 -0.259506 -2.70257 0
M  V30 861 C 83.9976 -2.80736 -2.252 0
M  V30 862 C 83.6056 -4.17833 -1.61614 0
M  V30 863 C 85.3496 -2.99364 -3.00967 0
M  V30 864 C 83.2566 -5.30693 -2.60996 0
M  V30 865 H 82.1866 -0.592372 -0.466488 0
M  V30 866 H 84.8376 -1.76197 -0.51252 0
M  V30 867 H 83.2196 -2.57142 -3.01154 0
M  V30 868 H 84.3936 -4.51608 -0.915774 0
M  V30 869 H 82.7086 -4.04656 -0.981977 0
M  V30 870 H 85.3056 -3.80851 -3.75308 0
M  V30 871 H 85.6486 -2.10356 -3.59244 0
M  V30 872 H 86.1816 -3.2305 -2.32128 0
M  V30 873 H 82.9206 -6.21796 -2.07485 0
M  V30 874 H 82.4406 -5.01359 -3.2924 0
M  V30 875 H 84.1196 -5.6049 -3.23202 0
M  V30 876 N 84.2517 0.741722 -1.39055 0
M  V30 877 C 85.1817 1.869 -1.39966 0
M  V30 878 C 86.1627 1.6804 -0.26392 0
M  V30 879 O 87.3477 1.88458 -0.468755 0
M  V30 880 C 84.4777 3.24572 -1.23574 0
M  V30 881 C 83.4317 3.58056 -2.34477 0
M  V30 882 C 82.7577 4.94593 -2.0318 0
M  V30 883 C 84.0577 3.61716 -3.76774 0
M  V30 884 H 85.7517 1.86395 -2.34302 0
M  V30 885 H 83.2977 0.895361 -1.1278 0
M  V30 886 H 85.2507 4.031 -1.22834 0
M  V30 887 H 83.9747 3.25587 -0.257045 0
M  V30 888 H 82.6337 2.81854 -2.34423 0
M  V30 889 H 82.2817 4.92181 -1.03765 0
M  V30 890 H 81.9817 5.17964 -2.77465 0
M  V30 891 H 83.5057 5.75486 -2.04079 0
M  V30 892 H 84.9197 4.30335 -3.78794 0
M  V30 893 H 83.3167 3.96603 -4.50362 0
M  V30 894 H 84.3867 2.61672 -4.08235 0
M  V30 895 N 85.7298 1.2412 0.971189 0
M  V30 896 C 86.9578 1.10575 1.74874 0
M  V30 897 C 87.3728 -0.342017 1.85676 0
M  V30 898 O 86.7298 -1.23617 1.34258 0
M  V30 899 C 86.7808 1.73579 3.171 0
M  V30 900 O 86.5018 3.12695 3.06844 0
M  V30 901 C 88.0028 1.65598 4.11208 0
M  V30 902 H 85.2228 0.386504 0.548503 0
M  V30 903 H 87.7668 1.64156 1.21955 0
M  V30 904 H 85.9218 1.24009 3.67016 0
M  V30 905 H 86.3358 3.43412 3.96445 0
M  V30 906 H 87.8098 2.1437 5.08674 0
M  V30 907 H 88.2868 0.616532 4.34851 0
M  V30 908 H 88.8928 2.14578 3.67201 0
M  V30 909 N 87.2079 -1.17134 1.05439 0
M  V30 910 C 88.6189 -1.69084 0.791676 0
M  V30 911 C 88.9699 -1.83822 -0.685839 0
M  V30 912 O 88.0949 -1.52757 -1.53278 0
M  V30 913 C 88.6899 -3.07119 1.4305 0
M  V30 914 C 87.2489 -3.56225 1.21577 0
M  V30 915 C 86.3959 -2.32421 1.51247 0
M  V30 916 H 89.3469 -1.01617 1.219 0
M  V30 917 H 89.3679 -3.71087 0.84112 0
M  V30 918 H 88.8799 -2.9636 2.50584 0
M  V30 919 H 86.9809 -3.72257 0.159787 0
M  V30 920 H 87.0939 -4.38837 1.92246 0
M  V30 921 H 85.4579 -2.3701 0.932653 0
M  V30 922 H 86.2409 -2.24268 2.5992 0
M  V30 923 N 88.686 -0.835752 -1.33615 0
M  V30 924 C 90.102 -0.523139 -1.50783 0
M  V30 925 C 90.302 0.950171 -1.77691 0
M  V30 926 O 89.358 1.73411 -1.83534 0
M  V30 927 C 90.671 -1.39378 -2.66448 0
M  V30 928 C 92.219 -1.39223 -2.80332 0
M  V30 929 C 92.694 -2.24765 -3.99055 0
M  V30 930 N 94.185 -2.22458 -4.06284 0
M  V30 931 C 94.92 -2.85386 -4.97336 0
M  V30 932 N 94.416 -3.57354 -5.93523 0
M  V30 933 N 96.209 -2.74872 -4.90308 0
M  V30 934 H 88.36 -1.78952 -1.14411 0
M  V30 935 H 90.623 -0.763297 -0.562212 0
M  V30 936 H 90.329 -2.44061 -2.53234 0
M  V30 937 H 90.203 -1.0676 -3.61776 0
M  V30 938 H 92.59 -0.353136 -2.92979 0
M  V30 939 H 92.671 -1.75846 -1.85773 0
M  V30 940 H 92.315 -3.28732 -3.87167 0
M  V30 941 H 92.245 -1.85485 -4.92852 0
M  V30 942 H 94.736 -1.70119 -3.37443 0
M  V30 943 H 95.049 -4.02584 -6.59656 0
M  V30 944 H 93.394 -3.61461 -5.93608 0
M  V30 945 H 96.585 -2.18213 -4.14126 0
M  V30 946 H 96.758 -3.24199 -5.61069 0
M  V30 947 N 90.1641 1.46063 -0.591896 0
M  V30 948 C 91.0941 2.33172 0.123673 0
M  V30 949 C 92.0751 1.45897 0.87453 0
M  V30 950 O 93.2601 1.74698 0.848181 0
M  V30 951 C 90.3901 3.28336 1.13194 0
M  V30 952 C 89.3441 4.25124 0.495324 0
M  V30 953 C 88.6701 5.09863 1.61071 0
M  V30 954 C 89.9701 5.19143 -0.573425 0
M  V30 955 H 91.6641 2.93252 -0.603646 0
M  V30 956 H 89.2101 1.41014 -0.291741 0
M  V30 957 H 91.1631 3.88137 1.64097 0
M  V30 958 H 89.8871 2.66383 1.88965 0
M  V30 959 H 88.5461 3.66599 0.00729452 0
M  V30 960 H 88.1941 4.44288 2.35832 0
M  V30 961 H 87.8941 5.75417 1.19035 0
M  V30 962 H 89.4181 5.72529 2.12233 0
M  V30 963 H 90.8321 5.73106 -0.1491 0
M  V30 964 H 89.2291 5.93089 -0.914636 0
M  V30 965 H 90.2991 4.62519 -1.45617 0
M  V30 966 N 91.6422 0.330177 1.54103 0
M  V30 967 C 92.5892 -0.532762 2.24567 0
M  V30 968 C 93.5592 -1.10635 1.23892 0
M  V30 969 O 94.7442 -1.14546 1.5259 0
M  V30 970 C 91.8842 -1.6845 3.01195 0
M  V30 971 C 90.9972 -1.13951 4.167 0
M  V30 972 C 90.1322 -2.25746 4.80845 0
M  V30 973 C 89.1712 -1.6853 5.88442 0
M  V30 974 N 88.3082 -2.74014 6.46421 0
M  V30 975 H 93.1482 0.0746905 2.97906 0
M  V30 976 H 90.6852 0.048632 1.4702 0
M  V30 977 H 92.6432 -2.36234 3.43874 0
M  V30 978 H 91.2732 -2.26314 2.30178 0
M  V30 979 H 90.3252 -0.35301 3.78758 0
M  V30 980 H 91.6372 -0.680892 4.94131 0
M  V30 981 H 90.7912 -3.01422 5.26526 0
M  V30 982 H 89.5302 -2.74947 4.0281 0
M  V30 983 H 88.5352 -0.913543 5.42157 0
M  V30 984 H 89.7602 -1.20198 6.68378 0
M  V30 985 H 87.7062 -3.22494 5.71256 0
M  V30 986 H 87.6232 -2.32735 7.19285 0
M  V30 987 H 88.8912 -3.49499 6.96757 0
M  V30 988 N 93.1203 -1.57491 0.0584922 0
M  V30 989 C 94.3483 -1.97296 -0.623037 0
M  V30 990 C 94.7633 -0.936338 -1.63946 0
M  V30 991 O 94.1203 0.0785981 -1.82331 0
M  V30 992 C 94.1713 -3.37183 -1.30345 0
M  V30 993 O 93.8923 -4.36872 -0.32773 0
M  V30 994 C 95.3933 -3.91788 -2.07406 0
M  V30 995 H 92.6133 -0.649153 -0.169826 0
M  V30 996 H 95.1573 -2.04106 0.12696 0
M  V30 997 H 93.3123 -3.31502 -2.00463 0
M  V30 998 H 93.7263 -5.18141 -0.814269 0
M  V30 999 H 95.2003 -4.91926 -2.50425 0
M  V30 1000 H 95.6773 -3.27609 -2.92521 0
M  V30 1001 H 96.2833 -4.00829 -1.42184 0
M  V30 1002 N 94.5984 0.214957 -1.56127 0
M  V30 1003 C 96.0094 0.781386 -1.69562 0
M  V30 1004 C 96.3604 1.84707 -0.66165 0
M  V30 1005 O 95.4854 2.156 0.185927 0
M  V30 1006 C 96.0804 1.42411 -3.07416 0
M  V30 1007 C 94.6394 1.93786 -3.22683 0
M  V30 1008 C 93.7864 0.800438 -2.65496 0
M  V30 1009 H 96.7374 -0.00980633 -1.58697 0
M  V30 1010 H 96.7584 2.29309 -3.0364 0
M  V30 1011 H 96.2704 0.64826 -3.82648 0
M  V30 1012 H 94.3714 2.74152 -2.52332 0
M  V30 1013 H 94.4844 2.1133 -4.29973 0
M  V30 1014 H 92.8484 1.2095 -2.2415 0
M  V30 1015 H 93.6314 0.0371471 -3.4328 0
M  V30 1016 N 96.0765 1.50051 0.48192 0
M  V30 1017 C 97.0095 1.62749 1.59963 0
M  V30 1018 C 97.9875 0.475903 1.5548 0
M  V30 1019 O 99.1715 0.693986 1.7526 0
M  V30 1020 C 96.2985 1.60008 2.98522 0
M  V30 1021 C 95.3445 2.80596 3.21198 0
M  V30 1022 S 96.1775 4.42038 3.02262 0
M  V30 1023 C 97.3335 4.41973 4.43182 0
M  V30 1024 H 97.5665 2.57296 1.4895 0
M  V30 1025 H 95.0995 1.39179 0.668477 0
M  V30 1026 H 97.0575 1.59112 3.78409 0
M  V30 1027 H 95.7185 0.667153 3.06933 0
M  V30 1028 H 94.9115 2.74952 4.22395 0
M  V30 1029 H 94.5135 2.79003 2.49065 0
M  V30 1030 H 96.8055 4.14868 5.35622 0
M  V30 1031 H 97.7485 5.43512 4.53873 0
M  V30 1032 H 98.1565 3.71812 4.24755 0
M  V30 1033 N 97.5546 -0.734337 1.39446 0
M  V30 1034 C 98.8036 -1.48937 1.36017 0
M  V30 1035 C 99.1166 -1.95557 -0.0409005 0
M  V30 1036 O 100.323 -2.70779 -0.19778 0
M  V30 1037 C 98.7786 -2.69125 2.38955 0
M  V30 1038 C 98.3866 -2.29452 3.8478 0
M  V30 1039 C 100.131 -3.46944 2.44603 0
M  V30 1040 C 98.0376 -3.46366 4.79358 0
M  V30 1041 H 96.9676 -0.559296 0.505672 0
M  V30 1042 H 99.6186 -0.800983 1.65095 0
M  V30 1043 H 98.0006 -3.40041 2.02948 0
M  V30 1044 H 99.1746 -1.66077 4.29831 0
M  V30 1045 H 97.4896 -1.64723 3.82433 0
M  V30 1046 H 100.087 -4.33907 3.12456 0
M  V30 1047 H 100.43 -3.89454 1.47076 0
M  V30 1048 H 100.963 -2.83056 2.79507 0
M  V30 1049 H 97.7016 -3.08905 5.78151 0
M  V30 1050 H 97.2216 -4.08719 4.38986 0
M  V30 1051 H 98.9006 -4.12691 4.98292 0
M  V30 1052 N 99.0327 -1.24633 -0.964593 0
M  V30 1053 C 100.449 -1.01239 -1.2338 0
M  V30 1054 C 100.649 0.2769 -1.99588 0
M  V30 1055 O 99.7047 0.992241 -2.32187 0
M  V30 1056 C 101.018 -2.22937 -2.01791 0
M  V30 1057 C 102.566 -2.27594 -2.14872 0
M  V30 1058 C 103.041 -3.48921 -2.96678 0
M  V30 1059 N 104.532 -3.49257 -3.04259 0
M  V30 1060 C 105.267 -4.39795 -3.67924 0
M  V30 1061 N 104.763 -5.40591 -4.33281 0
M  V30 1062 N 106.556 -4.275 -3.64966 0
M  V30 1063 H 98.7067 -2.0748 -0.454502 0
M  V30 1064 H 100.97 -0.910647 -0.26349 0
M  V30 1065 H 100.676 -3.16587 -1.53184 0
M  V30 1066 H 100.55 -2.25306 -3.02518 0
M  V30 1067 H 102.937 -1.34473 -2.6268 0
M  V30 1068 H 103.018 -2.2925 -1.13482 0
M  V30 1069 H 102.662 -4.42359 -2.49562 0
M  V30 1070 H 102.592 -3.4451 -3.98272 0
M  V30 1071 H 105.083 -2.76337 -2.57771 0
M  V30 1072 H 105.396 -6.05904 -4.79687 0
M  V30 1073 H 103.741 -5.44475 -4.3194 0
M  V30 1074 H 106.932 -3.47987 -3.13086 0
M  V30 1075 H 107.105 -4.98258 -4.14298 0
M  V30 1076 N 100.511 1.16574 -1.06058 0
M  V30 1077 C 101.927 1.3904 -0.783585 0
M  V30 1078 C 102.127 1.91784 0.618145 0
M  V30 1079 O 101.183 2.11511 1.37911 0
M  V30 1080 C 102.496 2.37329 -1.84649 0
M  V30 1081 C 104.044 2.51018 -1.86973 0
M  V30 1082 C 104.519 3.52588 -2.92311 0
M  V30 1083 N 106.01 3.60113 -2.91329 0
M  V30 1084 C 106.745 4.38486 -3.69482 0
M  V30 1085 N 106.241 5.20302 -4.57447 0
M  V30 1086 N 108.034 4.33446 -3.57885 0
M  V30 1087 H 100.185 0.806725 -1.96483 0
M  V30 1088 H 102.448 0.417117 -0.851303 0
M  V30 1089 H 102.154 2.05663 -2.85299 0
M  V30 1090 H 102.028 3.36946 -1.6955 0
M  V30 1091 H 104.415 2.81989 -0.869827 0
M  V30 1092 H 104.496 1.51445 -2.0615 0
M  V30 1093 H 104.14 3.22354 -3.92492 0
M  V30 1094 H 104.07 4.51886 -2.70383 0
M  V30 1095 H 106.561 3.01707 -2.27555 0
M  V30 1096 H 106.874 5.77311 -5.13743 0
M  V30 1097 H 105.219 5.19653 -4.61503 0
M  V30 1098 H 108.41 3.68586 -2.88551 0
M  V30 1099 H 108.583 4.94279 -4.19037 0
M  V30 1100 N 101.989 0.842826 1.3317 0
M  V30 1101 C 102.921 0.236245 2.27979 0
M  V30 1102 C 103.934 -0.585282 1.51915 0
M  V30 1103 O 105.123 -0.411705 1.73687 0
M  V30 1104 C 102.223 -0.685717 3.3189 0
M  V30 1105 C 101.396 0.0973448 4.37292 0
M  V30 1106 C 100.455 -0.748565 5.20848 0
M  V30 1107 O 99.4809 -0.186339 5.68895 0
M  V30 1108 N 100.683 -2.06527 5.42519 0
M  V30 1109 H 103.448 1.05088 2.80672 0
M  V30 1110 H 101.009 0.701667 1.45905 0
M  V30 1111 H 103.001 -1.25669 3.84694 0
M  V30 1112 H 101.571 -1.40105 2.79445 0
M  V30 1113 H 100.791 0.849706 3.84933 0
M  V30 1114 H 102.079 0.635643 5.04814 0
M  V30 1115 H 101.477 -2.54554 5.05192 0
M  V30 1116 H 100.034 -2.58464 5.98364 0
M  V30 1117 N 103.467 -1.45747 0.599634 0
M  V30 1118 C 104.883 -1.57424 0.26264 0
M  V30 1119 C 105.083 -1.59222 -1.23493 0
M  V30 1120 O 104.139 -1.51825 -2.01756 0
M  V30 1121 C 105.452 -2.86061 0.926795 0
M  V30 1122 C 107 -2.99722 0.901967 0
M  V30 1123 C 107.475 -4.31119 1.54598 0
M  V30 1124 N 108.966 -4.37858 1.5111 0
M  V30 1125 C 109.701 -5.3818 1.97863 0
M  V30 1126 N 109.197 -6.45083 2.52666 0
M  V30 1127 N 110.99 -5.29487 1.88679 0
M  V30 1128 H 103.141 -1.42823 1.57211 0
M  V30 1129 H 105.404 -0.68235 0.658105 0
M  V30 1130 H 105.11 -2.90605 1.98095 0
M  V30 1131 H 104.984 -3.74563 0.445238 0
M  V30 1132 H 107.371 -2.9475 -0.143617 0
M  V30 1133 H 107.452 -2.12652 1.42171 0
M  V30 1134 H 107.096 -4.36849 2.59085 0
M  V30 1135 H 107.026 -5.16992 1.00132 0
M  V30 1136 H 109.517 -3.61209 1.11068 0
M  V30 1137 H 109.83 -7.17869 2.86155 0
M  V30 1138 H 108.175 -6.45856 2.56701 0
M  V30 1139 H 111.366 -4.44877 1.4561 0
M  V30 1140 H 111.539 -6.07524 2.25429 0
M  V30 1141 N 104.945 -0.338344 -1.53925 0
M  V30 1142 C 106.193 0.259245 -2.0043 0
M  V30 1143 C 106.514 1.51484 -1.22791 0
M  V30 1144 O 105.784 1.93037 -0.33368 0
M  V30 1145 H 104.364 0.0987845 -0.740439 0
M  V30 1146 H 107.026 -0.458302 -1.89435 0
M  V30 1147 H 106.122 0.505334 -3.07982 0
M  V30 1148 N 106.423 1.57458 -0.0668435 0
M  V30 1149 C 107.671 1.92919 0.602214 0
M  V30 1150 C 107.992 0.947215 1.70449 0
M  V30 1151 O 107.262 -0.00544117 1.95899 0
M  V30 1152 H 105.842 0.71217 0.22544 0
M  V30 1153 H 108.504 1.94508 -0.123535 0
M  V30 1154 H 107.6 2.94589 1.03073 0
M  V30 1155 N 107.901 -0.206675 1.56239 0
M  V30 1156 C 108.848 -1.25617 1.93621 0
M  V30 1157 C 109.818 -1.45824 0.795274 0
M  V30 1158 O 111.003 -1.59148 1.05245 0
M  V30 1159 C 108.143 -2.59839 2.27107 0
M  V30 1160 C 107.256 -2.47308 3.54207 0
M  V30 1161 C 106.391 -3.74155 3.7707 0
M  V30 1162 C 105.43 -3.56407 4.97635 0
M  V30 1163 N 104.567 -4.75238 5.1681 0
M  V30 1164 H 109.407 -0.930383 2.83104 0
M  V30 1165 H 106.944 -0.448065 1.4011 0
M  V30 1166 H 108.902 -3.38021 2.44535 0
M  V30 1167 H 107.532 -2.90485 1.40778 0
M  V30 1168 H 106.584 -1.60483 3.4489 0
M  V30 1169 H 107.896 -2.30122 4.42544 0
M  V30 1170 H 107.05 -4.60778 3.94675 0
M  V30 1171 H 105.789 -3.94282 2.87042 0
M  V30 1172 H 104.794 -2.68168 4.79964 0
M  V30 1173 H 106.019 -3.37736 5.89161 0
M  V30 1174 H 103.965 -4.95651 4.29728 0
M  V30 1175 H 103.882 -4.60835 5.99306 0
M  V30 1176 H 105.15 -5.63246 5.38864 0
M  V30 1177 N 109.379 -1.50304 -0.473955 0
M  V30 1178 C 110.309 -1.71886 -1.58042 0
M  V30 1179 C 111.29 -0.567799 -1.60344 0
M  V30 1180 O 112.475 -0.806623 -1.76656 0
M  V30 1181 C 109.605 -1.81036 -2.96384 0
M  V30 1182 C 108.559 -2.962 -3.08949 0
M  V30 1183 C 107.885 -2.9049 -4.48909 0
M  V30 1184 C 109.185 -4.36752 -2.86434 0
M  V30 1185 H 110.879 -2.64527 -1.40234 0
M  V30 1186 H 108.425 -1.27295 -0.673201 0
M  V30 1187 H 110.378 -1.94719 -3.73714 0
M  V30 1188 H 109.102 -0.850147 -3.15341 0
M  V30 1189 H 107.761 -2.82164 -2.3405 0
M  V30 1190 H 107.409 -1.92321 -4.64781 0
M  V30 1191 H 107.109 -3.67802 -4.58253 0
M  V30 1192 H 108.633 -3.06218 -5.28264 0
M  V30 1193 H 110.047 -4.5133 -3.53517 0
M  V30 1194 H 108.444 -5.15493 -3.07225 0
M  V30 1195 H 109.514 -4.49321 -1.82316 0
M  V30 1196 N 110.857 0.726932 -1.39834 0
M  V30 1197 C 111.767 1.87131 -1.41489 0
M  V30 1198 C 112.783 1.71239 -0.308757 0
M  V30 1199 O 113.959 1.93701 -0.551529 0
M  V30 1200 C 111.024 3.22811 -1.26468 0
M  V30 1201 C 110.085 3.51039 -2.47124 0
M  V30 1202 C 109.318 4.80245 -2.3281 0
M  V30 1203 O 109.541 5.54537 -1.33585 0
M  V30 1204 O 108.475 5.08554 -3.21957 0
M  V30 1205 H 112.301 1.8869 -2.3797 0
M  V30 1206 H 109.886 0.875837 -1.21035 0
M  V30 1207 H 111.768 4.03877 -1.20255 0
M  V30 1208 H 110.443 3.22005 -0.330862 0
M  V30 1209 H 109.35 2.70027 -2.58914 0
M  V30 1210 H 110.683 3.56632 -3.39227 0
M  V30 1211 N 112.336 1.25143 0.95797 0
M  V30 1212 C 113.747 1.08851 1.51685 0
M  V30 1213 C 114.098 -0.33687 1.93286 0
M  V30 1214 O 113.223 -1.22644 1.7829 0
M  V30 1215 C 113.818 1.96978 2.75654 0
M  V30 1216 C 112.377 1.84881 3.27866 0
M  V30 1217 C 111.524 1.91329 2.0072 0
M  V30 1218 H 114.475 1.38478 0.77522 0
M  V30 1219 H 114.496 1.5078 3.4935 0
M  V30 1220 H 114.008 3.00712 2.45345 0
M  V30 1221 H 112.109 0.840182 3.63004 0
M  V30 1222 H 112.222 2.6951 3.96107 0
M  V30 1223 H 110.586 1.35174 2.15871 0
M  V30 1224 H 111.369 2.96661 1.72764 0
M  V30 1225 N 113.814 -1.1601 1.06675 0
M  V30 1226 C 115.06 -1.86909 0.786945 0
M  V30 1227 C 115.393 -1.81717 -0.685018 0
M  V30 1228 O 114.668 -1.23551 -1.50218 0
M  V30 1229 C 114.951 -3.36313 1.28707 0
M  V30 1230 C 114.804 -3.50175 2.82308 0
M  V30 1231 C 116.123 -4.3084 0.898071 0
M  V30 1232 H 113.242 -0.678677 0.287343 0
M  V30 1233 H 115.884 -1.36336 1.32334 0
M  V30 1234 H 114.034 -3.79513 0.830768 0
M  V30 1235 H 115.706 -3.15886 3.36175 0
M  V30 1236 H 113.949 -2.91959 3.20847 0
M  V30 1237 H 114.62 -4.55116 3.12368 0
M  V30 1238 H 117.096 -3.95561 1.29114 0
M  V30 1239 H 115.972 -5.33876 1.27543 0
M  V30 1240 H 116.233 -4.41662 -0.196651 0
M  V30 1241 N 115.292 -0.849877 -1.32721 0
M  V30 1242 C 116.517 -0.463856 -2.02146 0
M  V30 1243 C 116.942 0.930449 -1.63476 0
M  V30 1244 O 116.3 1.61033 -0.832952 0
M  V30 1245 C 116.348 -0.604955 -3.55489 0
M  V30 1246 O 115.452 0.36425 -4.10788 0
M  V30 1247 H 114.793 -0.187046 -0.637111 0
M  V30 1248 H 117.323 -1.14775 -1.69375 0
M  V30 1249 H 117.333 -0.490696 -4.05038 0
M  V30 1250 H 116.008 -1.62174 -3.82978 0
M  V30 1251 H 114.585 0.206628 -3.72327 0
M  V30 1252 N 116.77 1.45427 -0.607355 0
M  V30 1253 C 118.016 2.03097 -0.111035 0
M  V30 1254 C 118.371 1.46735 1.24445 0
M  V30 1255 O 117.664 0.632478 1.8086 0
M  V30 1256 C 117.858 3.57398 -0.0129263 0
M  V30 1257 C 117.687 4.28726 -1.35735 0
M  V30 1258 C 116.457 4.66659 -1.93798 0
M  V30 1259 C 118.655 4.60699 -2.28607 0
M  V30 1260 N 116.637 5.22845 -3.21723 0
M  V30 1261 C 118.008 5.17716 -3.41131 0
M  V30 1262 C 120.063 4.42638 -2.27982 0
M  V30 1263 C 118.766 5.58576 -4.53194 0
M  V30 1264 C 120.792 4.84531 -3.39093 0
M  V30 1265 C 120.154 5.4164 -4.50339 0
M  V30 1266 H 116.253 0.777476 -0.083994 0
M  V30 1267 H 118.837 1.77249 -0.805655 0
M  V30 1268 H 117.008 3.82907 0.650914 0
M  V30 1269 H 118.74 4.01722 0.490033 0
M  V30 1270 H 115.495 4.50207 -1.47007 0
M  V30 1271 H 115.919 5.55438 -3.87063 0
M  V30 1272 H 120.561 3.97798 -1.43235 0
M  V30 1273 H 118.279 6.02382 -5.38667 0
M  V30 1274 H 121.865 4.72289 -3.39757 0
M  V30 1275 H 120.745 5.73461 -5.34895 0
M  V30 1276 N 118.248 0.346503 1.53744 0
M  V30 1277 C 119.525 -0.304532 1.93215 0
M  V30 1278 C 119.905 -1.67993 1.27834 0
M  V30 1279 O 119.253 -2.24411 0.430352 0
M  V30 1280 C 119.463 -0.373852 3.46992 0
M  V30 1281 C 120.811 -0.62329 4.2 0
M  V30 1282 O 121.835 -0.455847 3.53271 0
M  V30 1283 O 120.694 -0.947879 5.38217 0
M  V30 1284 H 117.788 -0.178318 0.807547 0
M  V30 1285 H 120.334 0.397895 1.64969 0
M  V30 1286 H 119.106 0.591224 3.86808 0
M  V30 1287 H 118.729 -1.12294 3.81413 0
M  V30 1288 N 119.726 -1.57421 0.075193 0
M  V30 1289 C 120.636 -2.1642 -0.905511 0
M  V30 1290 C 121.652 -1.12828 -1.32461 0
M  V30 1291 O 122.828 -1.45109 -1.39661 0
M  V30 1292 C 119.893 -2.71693 -2.15369 0
M  V30 1293 C 118.954 -3.90171 -1.79068 0
M  V30 1294 C 118.187 -4.42798 -2.97936 0
M  V30 1295 O 118.41 -3.94416 -4.12058 0
M  V30 1296 O 117.344 -5.34085 -2.77555 0
M  V30 1297 H 121.17 -3.00588 -0.433626 0
M  V30 1298 H 118.755 -1.48664 -0.148067 0
M  V30 1299 H 120.637 -3.07104 -2.88557 0
M  V30 1300 H 119.312 -1.90582 -2.61649 0
M  V30 1301 H 118.219 -3.59606 -1.03122 0
M  V30 1302 H 119.552 -4.72584 -1.37569 0
M  V30 1303 N 121.204 0.198386 -1.56346 0
M  V30 1304 C 122.167 1.22952 -1.93431 0
M  V30 1305 C 123.167 1.38611 -0.815092 0
M  V30 1306 O 124.357 1.36479 -1.08255 0
M  V30 1307 C 121.489 2.59946 -2.20546 0
M  V30 1308 H 122.682 0.912626 -2.85677 0
M  V30 1309 H 120.235 0.43977 -1.49986 0
M  V30 1310 H 120.97 2.96696 -1.30927 0
M  V30 1311 H 120.755 2.49953 -3.02102 0
M  V30 1312 H 122.245 3.3431 -2.50253 0
M  V30 1313 N 122.682 1.50554 0.465978 0
M  V30 1314 C 123.612 1.72722 1.57128 0
M  V30 1315 C 124.593 0.576294 1.6004 0
M  V30 1316 O 125.778 0.81598 1.76225 0
M  V30 1317 C 122.908 1.82605 2.95419 0
M  V30 1318 C 121.862 2.97835 3.07373 0
M  V30 1319 C 121.188 2.92867 4.47363 0
M  V30 1320 C 122.488 4.38265 2.84114 0
M  V30 1321 H 124.182 2.65267 1.38829 0
M  V30 1322 H 121.728 1.2765 0.666441 0
M  V30 1323 H 123.681 1.96698 3.72677 0
M  V30 1324 H 122.405 0.866858 3.14886 0
M  V30 1325 H 121.064 2.83401 2.3255 0
M  V30 1326 H 120.712 1.94783 4.63755 0
M  V30 1327 H 120.412 3.70227 4.56296 0
M  V30 1328 H 121.936 3.09015 5.26633 0
M  V30 1329 H 123.35 4.53198 3.51118 0
M  V30 1330 H 121.747 5.17115 3.04487 0
M  V30 1331 H 122.817 4.50281 1.7993 0
M  V30 1332 N 124.16 -0.719506 1.40217 0
M  V30 1333 C 125.108 -1.85493 1.40339 0
M  V30 1334 C 126.102 -1.66995 0.284415 0
M  V30 1335 O 127.308 -1.74148 0.455252 0
M  V30 1336 H 123.683 -0.610857 0.438586 0
M  V30 1337 H 125.654 -1.82506 2.36081 0
M  V30 1338 C 124.403 -3.23321 1.27901 0
M  V30 1339 H 123.726 -3.38159 2.1328 0
M  V30 1340 H 125.166 -4.02914 1.32045 0
M  V30 1341 C 123.625 -3.36898 -0.0111355 0
M  V30 1342 O 124.155 -3.89674 -0.975538 0
M  V30 1343 N 122.361 -2.90492 -0.0793393 0
M  V30 1344 H 121.908 -2.47731 0.706183 0
M  V30 1345 H 121.866 -2.99955 -0.942038 0
M  V30 1346 N 125.638 -1.25649 -0.95132 0
M  V30 1347 C 126.868 -1.13179 -1.72841 0
M  V30 1348 C 127.276 0.316827 -1.86528 0
M  V30 1349 O 126.619 1.22948 -1.3649 0
M  V30 1350 C 126.681 -1.71644 -3.15878 0
M  V30 1351 C 126.345 -3.20667 -3.25609 0
M  V30 1352 C 127.342 -4.17616 -3.09666 0
M  V30 1353 C 125.027 -3.6094 -3.49324 0
M  V30 1354 C 127.021 -5.52817 -3.17289 0
M  V30 1355 C 124.708 -4.96278 -3.56584 0
M  V30 1356 C 125.706 -5.92025 -3.40581 0
M  V30 1357 O 125.394 -7.24899 -3.47528 0
M  V30 1358 H 125.126 -0.395389 -0.54831 0
M  V30 1359 H 127.68 -1.66566 -1.20187 0
M  V30 1360 H 125.91 -1.12707 -3.69911 0
M  V30 1361 H 127.599 -1.54225 -3.75459 0
M  V30 1362 H 128.365 -3.87842 -2.91211 0
M  V30 1363 H 124.244 -2.86907 -3.6084 0
M  V30 1364 H 127.788 -6.2753 -3.04716 0
M  V30 1365 H 123.685 -5.25716 -3.74556 0
M  V30 1366 H 124.453 -7.33039 -3.64138 0
M  V30 1367 N 127.117 1.15442 -1.07289 0
M  V30 1368 C 128.363 1.86489 -0.796846 0
M  V30 1369 C 128.696 1.82078 0.675371 0
M  V30 1370 O 127.971 1.24346 1.4956 0
M  V30 1371 C 128.254 3.35626 -1.30489 0
M  V30 1372 C 128.107 3.48673 -2.84161 0
M  V30 1373 C 129.426 4.30357 -0.920907 0
M  V30 1374 H 126.545 0.677144 -0.290939 0
M  V30 1375 H 129.187 1.35633 -1.33056 0
M  V30 1376 H 127.337 3.79068 -0.850883 0
M  V30 1377 H 129.009 3.14099 -3.37846 0
M  V30 1378 H 127.252 2.90253 -3.22391 0
M  V30 1379 H 127.923 4.53453 -3.14777 0
M  V30 1380 H 130.399 3.94871 -1.3121 0
M  V30 1381 H 129.275 5.33193 -1.30372 0
M  V30 1382 H 129.536 4.4176 0.173226 0
M  V30 1383 N 128.595 0.856903 1.32268 0
M  V30 1384 C 129.558 0.308171 2.27119 0
M  V30 1385 C 130.558 -0.533421 1.51695 0
M  V30 1386 O 131.748 -0.344607 1.70757 0
M  V30 1387 C 128.88 -0.563757 3.36206 0
M  V30 1388 H 130.073 1.14535 2.77167 0
M  V30 1389 H 127.626 0.631421 1.42978 0
M  V30 1390 H 128.361 -1.42266 2.91429 0
M  V30 1391 H 128.146 0.0386749 3.92081 0
M  V30 1392 H 129.636 -0.940386 4.06874 0
M  V30 1393 N 130.073 -1.45103 0.615059 0
M  V30 1394 C 130.983 -2.34382 -0.101034 0
M  V30 1395 C 131.999 -1.51681 -0.852585 0
M  V30 1396 O 133.175 -1.8446 -0.808484 0
M  V30 1397 C 130.24 -3.29417 -1.08099 0
M  V30 1398 C 129.301 -4.28025 -0.330577 0
M  V30 1399 C 128.534 -5.1852 -1.26385 0
M  V30 1400 O 128.757 -5.12598 -2.50198 0
M  V30 1401 O 127.691 -5.97122 -0.756866 0
M  V30 1402 H 131.517 -2.97033 0.632855 0
M  V30 1403 H 129.102 -1.4461 0.375293 0
M  V30 1404 H 130.984 -3.87958 -1.6452 0
M  V30 1405 H 129.659 -2.69321 -1.79577 0
M  V30 1406 H 128.566 -3.73078 0.276283 0
M  V30 1407 H 129.899 -4.90997 0.343866 0
M  V30 1408 N 131.551 -0.354651 -1.53558 0
M  V30 1409 C 132.967 -0.00315426 -1.596 0
M  V30 1410 C 133.167 1.47741 -1.37021 0
M  V30 1411 O 132.223 2.23759 -1.16996 0
M  V30 1412 C 133.536 -0.44929 -2.97325 0
M  V30 1413 C 135.084 -0.402578 -3.104 0
M  V30 1414 C 135.559 -0.824355 -4.5052 0
M  V30 1415 N 137.05 -0.778979 -4.56603 0
M  V30 1416 C 137.785 -1.07715 -5.63192 0
M  V30 1417 N 137.281 -1.44405 -6.77583 0
M  V30 1418 N 139.074 -1.00066 -5.53121 0
M  V30 1419 H 131.225 -1.31893 -1.66487 0
M  V30 1420 H 133.488 -0.538388 -0.780284 0
M  V30 1421 H 133.194 -1.48202 -3.1895 0
M  V30 1422 H 133.068 0.169772 -3.76818 0
M  V30 1423 H 135.455 0.621004 -2.88492 0
M  V30 1424 H 135.536 -1.05699 -2.32941 0
M  V30 1425 H 135.18 -1.846 -4.73165 0
M  V30 1426 H 135.11 -0.147304 -5.26394 0
M  V30 1427 H 137.601 -0.508528 -3.74463 0
M  V30 1428 H 137.914 -1.65612 -7.54846 0
M  V30 1429 H 136.259 -1.4826 -6.79002 0
M  V30 1430 H 139.45 -0.713293 -4.62633 0
M  V30 1431 H 139.623 -1.23638 -6.36096 0
M  V30 1432 N 133.029 1.57378 -0.0835403 0
M  V30 1433 C 133.959 2.1641 0.87686 0
M  V30 1434 C 134.94 1.09429 1.30228 0
M  V30 1435 O 136.125 1.37516 1.37124 0
M  V30 1436 C 133.255 2.73517 2.14022 0
M  V30 1437 C 132.209 3.85769 1.85381 0
M  V30 1438 C 131.535 4.29529 3.18448 0
M  V30 1439 C 132.835 5.09486 1.14984 0
M  V30 1440 H 134.529 2.96914 0.385059 0
M  V30 1441 H 132.075 1.42823 0.18377 0
M  V30 1442 H 134.028 3.13463 2.81636 0
M  V30 1443 H 132.752 1.90252 2.65465 0
M  V30 1444 H 131.411 3.46345 1.20169 0
M  V30 1445 H 131.059 3.43169 3.67755 0
M  V30 1446 H 130.759 5.05204 3.00071 0
M  V30 1447 H 132.283 4.72099 3.8724 0
M  V30 1448 H 133.697 5.46674 1.72687 0
M  V30 1449 H 132.094 5.90515 1.06826 0
M  V30 1450 H 133.164 4.84724 0.130749 0
M  V30 1451 N 134.507 -0.190092 1.56449 0
M  V30 1452 C 135.732 -0.929864 1.85387 0
M  V30 1453 C 136.157 -1.7585 0.667704 0
M  V30 1454 O 135.515 -1.77198 -0.383459 0
M  V30 1455 C 135.563 -1.79773 3.12593 0
M  V30 1456 O 134.667 -2.89713 2.93496 0
M  V30 1457 H 134.008 -0.261574 0.610307 0
M  V30 1458 H 136.538 -0.193896 2.03679 0
M  V30 1459 H 136.548 -2.20139 3.43515 0
M  V30 1460 H 135.223 -1.18892 3.98544 0
M  V30 1461 H 133.8 -2.53065 2.73884 0
M  V30 1462 N 135.985 -1.50799 -0.457987 0
M  V30 1463 C 136.948 -1.7005 -1.53674 0
M  V30 1464 C 137.948 -0.570881 -1.50325 0
M  V30 1465 O 139.138 -0.838126 -1.52712 0
M  V30 1466 C 136.27 -1.73788 -2.93276 0
M  V30 1467 H 137.463 -2.66306 -1.37917 0
M  V30 1468 H 135.016 -1.40477 -0.685271 0
M  V30 1469 H 135.751 -0.792717 -3.14462 0
M  V30 1470 H 135.536 -2.55864 -2.97113 0
M  V30 1471 H 137.026 -1.90591 -3.71571 0
M  V30 1472 N 137.463 0.71206 -1.40597 0
M  V30 1473 C 138.712 1.46754 -1.38369 0
M  V30 1474 C 139.025 1.95598 0.0097839 0
M  V30 1475 O 140.231 2.71059 0.154677 0
M  V30 1476 C 138.687 2.65289 -2.43207 0
M  V30 1477 C 138.295 2.23301 -3.88382 0
M  V30 1478 C 140.039 3.43008 -2.50091 0
M  V30 1479 C 137.946 3.38696 -4.84808 0
M  V30 1480 H 136.876 0.55118 -0.514506 0
M  V30 1481 H 139.527 0.774616 -1.66349 0
M  V30 1482 H 137.909 3.36769 -2.08332 0
M  V30 1483 H 139.083 1.59218 -4.32419 0
M  V30 1484 H 137.398 1.58618 -3.85006 0
M  V30 1485 H 139.995 4.28881 -3.1932 0
M  V30 1486 H 140.338 3.87065 -1.53253 0
M  V30 1487 H 140.871 2.78574 -2.83974 0
M  V30 1488 H 137.61 2.99668 -5.82992 0
M  V30 1489 H 137.13 4.01683 -4.45433 0
M  V30 1490 H 138.809 4.04712 -5.04794 0
M  V30 1491 N 138.941 1.26152 0.944643 0
M  V30 1492 C 139.888 1.07408 2.04285 0
M  V30 1493 C 140.858 -0.0198413 1.66088 0
M  V30 1494 O 142.043 0.139264 1.90291 0
M  V30 1495 C 139.183 0.70945 3.37729 0
M  V30 1496 C 138.296 1.87926 3.88983 0
M  V30 1497 C 137.431 1.45807 5.10797 0
M  V30 1498 C 136.47 2.5964 5.54305 0
M  V30 1499 N 135.607 2.18226 6.67324 0
M  V30 1500 H 140.447 2.01389 2.1965 0
M  V30 1501 H 137.984 1.00275 1.07626 0
M  V30 1502 H 139.942 0.478948 4.14442 0
M  V30 1503 H 138.572 -0.193389 3.2222 0
M  V30 1504 H 137.624 2.22279 3.08701 0
M  V30 1505 H 138.936 2.73377 4.17213 0
M  V30 1506 H 138.09 1.18781 5.94959 0
M  V30 1507 H 136.829 0.574414 4.84305 0
M  V30 1508 H 135.834 2.87399 4.68702 0
M  V30 1509 H 137.059 3.48599 5.828 0
M  V30 1510 H 135.005 1.3229 6.42523 0
M  V30 1511 H 134.922 2.97221 6.95123 0
M  V30 1512 H 136.19 1.94403 7.54869 0
M  V30 1513 N 140.419 -1.14872 1.07899 0
M  V30 1514 C 141.329 -2.2341 0.715915 0
M  V30 1515 C 142.345 -1.71808 -0.275306 0
M  V30 1516 O 143.521 -2.01039 -0.120545 0
M  V30 1517 C 140.586 -3.46474 0.125168 0
M  V30 1518 C 139.647 -4.13039 1.17034 0
M  V30 1519 C 138.88 -5.30229 0.607688 0
M  V30 1520 O 139.103 -5.675 -0.574497 0
M  V30 1521 O 138.037 -5.86444 1.35526 0
M  V30 1522 H 141.863 -2.56808 1.62121 0
M  V30 1523 H 139.448 -1.22702 0.852322 0
M  V30 1524 H 141.33 -4.20917 -0.201729 0
M  V30 1525 H 140.005 -3.14811 -0.753364 0
M  V30 1526 H 138.912 -3.40493 1.54968 0
M  V30 1527 H 140.245 -4.48796 2.02097 0
M  V30 1528 N 141.898 -0.863906 -1.31812 0
M  V30 1529 C 142.845 -0.313303 -2.28664 0
M  V30 1530 C 143.815 0.584868 -1.55462 0
M  V30 1531 O 145 0.517805 -1.83639 0
M  V30 1532 C 142.14 0.48441 -3.41683 0
M  V30 1533 C 141.253 -0.440594 -4.29747 0
M  V30 1534 C 140.388 0.370652 -5.29905 0
M  V30 1535 C 139.427 -0.551164 -6.09613 0
M  V30 1536 N 138.564 0.223462 -7.01744 0
M  V30 1537 H 143.404 -1.14444 -2.75148 0
M  V30 1538 H 140.941 -0.575769 -1.35364 0
M  V30 1539 H 142.899 0.962627 -4.05943 0
M  V30 1540 H 141.529 1.28029 -2.96325 0
M  V30 1541 H 140.581 -1.03724 -3.65986 0
M  V30 1542 H 141.893 -1.14767 -4.85417 0
M  V30 1543 H 141.047 0.911638 -5.99812 0
M  V30 1544 H 139.786 1.11105 -4.74876 0
M  V30 1545 H 138.791 -1.10396 -5.38603 0
M  V30 1546 H 140.016 -1.29032 -6.66729 0
M  V30 1547 H 137.962 0.946787 -6.49132 0
M  V30 1548 H 137.879 -0.424399 -7.54808 0
M  V30 1549 H 139.147 0.745876 -7.75923 0
M  V30 1550 N 143.376 1.44774 -0.622745 0
M  V30 1551 C 144.606 2.06187 -0.130532 0
M  V30 1552 C 145.014 1.46547 1.19669 0
M  V30 1553 O 144.357 0.579636 1.74316 0
M  V30 1554 C 144.419 3.59437 0.0674983 0
M  V30 1555 C 144.083 4.41496 -1.18026 0
M  V30 1556 C 145.08 4.75512 -2.102 0
M  V30 1557 C 142.765 4.82007 -1.41333 0
M  V30 1558 C 144.759 5.48912 -3.23998 0
M  V30 1559 C 142.446 5.55157 -2.55429 0
M  V30 1560 C 143.444 5.88528 -3.46589 0
M  V30 1561 O 143.132 6.60191 -4.58697 0
M  V30 1562 H 142.864 0.672045 -0.0730162 0
M  V30 1563 H 145.418 1.86768 -0.854802 0
M  V30 1564 H 143.648 3.77314 0.846825 0
M  V30 1565 H 145.337 4.02642 0.513209 0
M  V30 1566 H 146.103 4.4476 -1.93425 0
M  V30 1567 H 141.982 4.55457 -0.712709 0
M  V30 1568 H 145.526 5.74877 -3.95174 0
M  V30 1569 H 141.423 5.85324 -2.72151 0
M  V30 1570 H 142.191 6.78654 -4.57571 0
M  V30 1571 N 144.854 0.36279 1.53368 0
M  V30 1572 C 146.102 -0.227326 2.00817 0
M  V30 1573 C 146.423 -1.49511 1.25186 0
M  V30 1574 O 145.693 -1.92482 0.364348 0
M  V30 1575 H 144.273 -0.0869923 0.741917 0
M  V30 1576 H 146.935 0.488381 1.88682 0
M  V30 1577 H 146.031 -0.456273 3.08747 0
M  V30 1578 N 146.332 -1.57332 0.0918853 0
M  V30 1579 C 147.743 -1.81496 -0.437739 0
M  V30 1580 C 148.094 -1.00727 -1.6837 0
M  V30 1581 O 147.219 -0.235694 -2.15113 0
M  V30 1582 C 147.814 -3.29197 -0.800939 0
M  V30 1583 C 146.373 -3.54136 -1.27532 0
M  V30 1584 C 145.52 -2.75979 -0.270392 0
M  V30 1585 H 148.471 -1.55494 0.317366 0
M  V30 1586 H 148.492 -3.42344 -1.66074 0
M  V30 1587 H 148.004 -3.87955 0.106078 0
M  V30 1588 H 146.105 -3.00705 -2.20016 0
M  V30 1589 H 146.218 -4.62792 -1.23938 0
M  V30 1590 H 144.582 -2.43349 -0.751872 0
M  V30 1591 H 145.365 -3.37484 0.629248 0
M  V30 1592 N 147.81 0.181792 -1.56548 0
M  V30 1593 C 149.087 0.926765 -1.72251 0
M  V30 1594 C 149.467 2.00831 -0.650386 0
M  V30 1595 O 148.815 2.26008 0.336521 0
M  V30 1596 C 149.025 1.50106 -3.1507 0
M  V30 1597 C 150.373 1.97805 -3.75711 0
M  V30 1598 O 151.397 1.59922 -3.18282 0
M  V30 1599 O 150.256 2.67555 -4.76525 0
M  V30 1600 H 147.35 0.435506 -0.703039 0
M  V30 1601 H 149.896 0.170443 -1.68842 0
M  V30 1602 H 148.668 0.72212 -3.84579 0
M  V30 1603 H 148.291 2.32186 -3.22763 0
M  V30 1604 N 149.288 1.51039 0.449983 0
M  V30 1605 C 150.251 1.70863 1.5277 0
M  V30 1606 C 151.251 0.578846 1.5002 0
M  V30 1607 O 152.441 0.846213 1.52266 0
M  V30 1608 C 149.573 1.75341 2.9235 0
M  V30 1609 H 150.766 2.67034 1.36502 0
M  V30 1610 H 148.319 1.40838 0.677812 0
M  V30 1611 H 149.054 0.809383 3.14037 0
M  V30 1612 H 148.839 2.57436 2.95752 0
M  V30 1613 H 150.329 1.92559 3.70555 0
M  V30 1614 N 150.766 -0.704594 1.40972 0
M  V30 1615 C 152.015 -1.46018 1.39146 0
M  V30 1616 C 152.328 -1.956 0.000589254 0
M  V30 1617 O 153.534 -2.71137 -0.1403 0
M  V30 1618 C 151.99 -2.63996 2.4461 0
M  V30 1619 C 151.598 -2.21238 3.89561 0
M  V30 1620 C 153.342 -3.41677 2.51907 0
M  V30 1621 C 151.249 -3.3612 4.86598 0
M  V30 1622 H 150.179 -0.548444 0.517422 0
M  V30 1623 H 152.83 -0.765784 1.66757 0
M  V30 1624 H 151.212 -3.3566 2.10115 0
M  V30 1625 H 152.386 -1.56923 4.33257 0
M  V30 1626 H 150.701 -1.56574 3.85841 0
M  V30 1627 H 153.298 -4.27182 3.2159 0
M  V30 1628 H 153.641 -3.86247 1.55303 0
M  V30 1629 H 154.174 -2.77064 2.85448 0
M  V30 1630 H 150.913 -2.96572 5.84573 0
M  V30 1631 H 150.433 -3.99315 4.47557 0
M  V30 1632 H 152.112 -4.02029 5.06934 0
M  V30 1633 N 152.244 -1.26651 -0.937939 0
M  V30 1634 C 153.176 -1.04283 -2.04102 0
M  V30 1635 C 154.189 -0.00221014 -1.628 0
M  V30 1636 O 155.378 -0.242645 -1.76843 0
M  V30 1637 C 152.478 -0.557846 -3.34277 0
M  V30 1638 C 151.651 -1.66843 -4.04329 0
M  V30 1639 C 150.71 -1.18095 -5.12777 0
M  V30 1640 O 149.736 -1.87865 -5.37304 0
M  V30 1641 N 150.938 -0.0311006 -5.80492 0
M  V30 1642 H 153.703 -1.9927 -2.23856 0
M  V30 1643 H 151.264 -1.1808 -1.10764 0
M  V30 1644 H 153.256 -0.215836 -4.04124 0
M  V30 1645 H 151.826 0.298523 -3.11171 0
M  V30 1646 H 151.046 -2.18123 -3.28353 0
M  V30 1647 H 152.334 -2.41408 -4.47883 0
M  V30 1648 H 151.732 0.551486 -5.63005 0
M  V30 1649 H 150.289 0.251809 -6.51313 0
M  V30 1650 N 153.722 1.14298 -1.08507 0
M  V30 1651 C 154.95 1.89219 -0.836876 0
M  V30 1652 C 155.365 1.78638 0.611054 0
M  V30 1653 O 154.722 1.14643 1.41998 0
M  V30 1654 C 154.773 3.39158 -1.25116 0
M  V30 1655 O 154.494 3.49449 -2.64229 0
M  V30 1656 C 155.995 4.31073 -1.03398 0
M  V30 1657 H 153.215 0.599328 -0.301739 0
M  V30 1658 H 155.759 1.44746 -1.44461 0
M  V30 1659 H 153.914 3.81251 -0.687514 0
M  V30 1660 H 154.328 4.42589 -2.81452 0
M  V30 1661 H 155.802 5.34646 -1.37323 0
M  V30 1662 H 156.279 4.3919 0.0289259 0
M  V30 1663 H 156.885 3.94738 -1.58311 0
M  V30 1664 N 155.201 0.870884 1.31352 0
M  V30 1665 C 156.429 0.49677 2.00848 0
M  V30 1666 C 156.844 -0.910998 1.65367 0
M  V30 1667 O 156.201 -1.59696 0.883374 0
M  V30 1668 C 156.252 0.645308 3.55694 0
M  V30 1669 O 155.973 1.99764 3.89905 0
M  V30 1670 C 157.474 0.272326 4.42463 0
M  V30 1671 H 154.694 0.193462 0.642506 0
M  V30 1672 H 157.238 1.1723 1.67563 0
M  V30 1673 H 155.393 0.0173176 3.87396 0
M  V30 1674 H 155.807 2.00607 4.84621 0
M  V30 1675 H 157.281 0.427208 5.50344 0
M  V30 1676 H 157.758 -0.788587 4.32062 0
M  V30 1677 H 158.364 0.876054 4.1618 0
M  V30 1678 N 156.679 -1.44442 0.630414 0
M  V30 1679 C 157.927 -2.01653 0.134351 0
M  V30 1680 C 158.248 -1.49836 -1.24796 0
M  V30 1681 O 157.518 -0.701684 -1.82902 0
M  V30 1682 H 156.098 -0.74554 0.0466769 0
M  V30 1683 H 158.76 -1.76952 0.816955 0
M  V30 1684 H 157.856 -3.11935 0.101498 0
M  V30 1685 N 158.157 -0.370918 -1.53173 0
M  V30 1686 C 159.382 0.220293 -2.06227 0
M  V30 1687 C 159.807 1.41243 -1.24225 0
M  V30 1688 O 159.165 1.79387 -0.262645 0
M  V30 1689 C 159.213 0.586663 -3.55796 0
M  V30 1690 O 158.317 1.68317 -3.76488 0
M  V30 1691 H 157.658 0.0308099 -0.663285 0
M  V30 1692 H 160.188 -0.533068 -1.97534 0
M  V30 1693 H 160.198 0.85617 -3.98916 0
M  V30 1694 H 158.873 -0.285013 -4.14922 0
M  V30 1695 H 157.45 1.40881 -3.45264 0
M  V30 1696 N 159.635 1.57281 -0.100228 0
M  V30 1697 C 160.86 1.99302 0.573881 0
M  V30 1698 C 161.285 0.979059 1.60611 0
M  V30 1699 O 160.643 -0.0517803 1.81226 0
M  V30 1700 C 160.691 3.40274 1.19358 0
M  V30 1701 O 159.795 3.41676 2.30935 0
M  V30 1702 H 159.136 0.647944 0.145138 0
M  V30 1703 H 161.666 2.03779 -0.183156 0
M  V30 1704 H 161.676 3.78078 1.53365 0
M  V30 1705 H 160.351 4.13594 0.437385 0
M  V30 1706 H 158.928 3.15672 1.98509 0
M  V30 1707 N 161.113 -0.173488 1.56642 0
M  V30 1708 C 162.529 -0.525174 1.50712 0
M  V30 1709 C 162.729 -1.8476 0.804107 0
M  V30 1710 O 161.785 -2.49869 0.363574 0
M  V30 1711 C 163.098 -0.559937 2.95441 0
M  V30 1712 C 164.646 -0.647288 3.06234 0
M  V30 1713 C 165.121 -0.712963 4.52417 0
M  V30 1714 N 166.612 -0.775911 4.56655 0
M  V30 1715 C 167.347 -0.847264 5.67106 0
M  V30 1716 N 166.843 -0.879585 6.87194 0
M  V30 1717 N 168.636 -0.886117 5.55071 0
M  V30 1718 H 160.787 0.693681 2.00753 0
M  V30 1719 H 163.05 0.249841 0.914485 0
M  V30 1720 H 162.756 0.343049 3.50023 0
M  V30 1721 H 162.63 -1.40718 3.49969 0
M  V30 1722 H 165.017 -1.5407 2.51687 0
M  V30 1723 H 165.098 0.226586 2.54794 0
M  V30 1724 H 164.742 0.176183 5.07594 0
M  V30 1725 H 164.672 -1.60295 5.0161 0
M  V30 1726 H 167.163 -0.759304 3.70193 0
M  V30 1727 H 167.476 -0.935144 7.67121 0
M  V30 1728 H 165.821 -0.847898 6.89808 0
M  V30 1729 H 169.012 -0.857853 4.60172 0
M  V30 1730 H 169.185 -0.938263 6.41171 0
M  V30 1731 N 162.591 -1.51276 -0.441967 0
M  V30 1732 C 163.839 -1.63392 -1.18943 0
M  V30 1733 C 164.16 -0.350159 -1.9183 0
M  V30 1734 O 163.43 0.633784 -1.85364 0
M  V30 1735 H 162.01 -0.602164 -0.442049 0
M  V30 1736 H 164.672 -1.88186 -0.507165 0
M  V30 1737 H 163.768 -2.45934 -1.92154 0
M  V30 1738 N 164.069 0.697108 -1.41344 0
M  V30 1739 C 165.297 1.48593 -1.43972 0
M  V30 1740 C 165.712 1.88747 -0.0445612 0
M  V30 1741 O 165.069 1.56682 0.935785 0
M  V30 1742 C 165.12 2.74946 -2.34706 0
M  V30 1743 O 164.841 2.36484 -3.68791 0
M  V30 1744 C 166.342 3.687 -2.46121 0
M  V30 1745 H 163.562 0.457964 -0.490418 0
M  V30 1746 H 166.106 0.858429 -1.8561 0
M  V30 1747 H 164.261 3.33937 -1.9638 0
M  V30 1748 H 164.675 3.17918 -4.17167 0
M  V30 1749 H 166.149 4.54145 -3.13777 0
M  V30 1750 H 166.626 4.13081 -1.49199 0
M  V30 1751 H 167.232 3.15613 -2.85076 0
M  V30 1752 N 165.547 1.27147 0.931209 0
M  V30 1753 C 166.795 1.13055 1.6752 0
M  V30 1754 C 167.116 -0.324791 1.92276 0
M  V30 1755 O 166.386 -1.22775 1.52654 0
M  V30 1756 H 164.966 0.415391 0.620854 0
M  V30 1757 H 167.628 1.59623 1.11833 0
M  V30 1758 H 166.724 1.65694 2.64485 0
M  V30 1759 N 167.025 -1.13721 1.09112 0
M  V30 1760 C 167.973 -2.21103 0.722219 0
M  V30 1761 C 168.967 -1.67147 -0.275374 0
M  V30 1762 O 170.173 -1.79477 -0.137176 0
M  V30 1763 H 166.548 -0.720445 0.215553 0
M  V30 1764 H 168.519 -2.49483 1.63709 0
M  V30 1765 C 167.268 -3.47352 0.15543 0
M  V30 1766 H 166.591 -3.89206 0.914246 0
M  V30 1767 H 168.031 -4.2395 -0.0647967 0
M  V30 1768 C 166.49 -3.1814 -1.10852 0
M  V30 1769 O 167.02 -3.36604 -2.19227 0
M  V30 1770 N 165.226 -2.72045 -1.02176 0
M  V30 1771 H 164.773 -2.57221 -0.139764 0
M  V30 1772 H 164.731 -2.52875 -1.8682 0
M  V30 1773 N 168.503 -0.877838 -1.30888 0
M  V30 1774 C 169.413 -0.343096 -2.32078 0
M  V30 1775 C 170.429 0.551022 -1.65045 0
M  V30 1776 O 171.605 0.445854 -1.96403 0
M  V30 1777 C 168.67 0.439905 -3.43898 0
M  V30 1778 C 167.731 -0.483111 -4.26573 0
M  V30 1779 C 166.964 0.262616 -5.33053 0
M  V30 1780 O 167.187 1.48967 -5.50604 0
M  V30 1781 O 166.121 -0.383593 -6.00676 0
M  V30 1782 H 169.947 -1.18203 -2.79753 0
M  V30 1783 H 167.532 -0.64145 -1.34929 0
M  V30 1784 H 169.414 0.883504 -4.12034 0
M  V30 1785 H 168.089 1.25526 -2.98371 0
M  V30 1786 H 166.996 -0.975374 -3.61161 0
M  V30 1787 H 168.329 -1.26427 -4.75686 0
M  V30 1788 N 169.982 1.44106 -0.638065 0
M  V30 1789 C 171.21 2.06336 -0.152615 0
M  V30 1790 C 171.625 1.47731 1.17563 0
M  V30 1791 O 170.982 0.602806 1.72257 0
M  V30 1792 C 171.033 3.61479 -0.0391491 0
M  V30 1793 O 170.754 4.17903 -1.31487 0
M  V30 1794 C 172.255 4.40757 0.474176 0
M  V30 1795 H 169.475 0.665862 -0.0828776 0
M  V30 1796 H 172.019 1.84862 -0.87443 0
M  V30 1797 H 170.174 3.82191 0.633142 0
M  V30 1798 H 170.588 5.11416 -1.16421 0
M  V30 1799 H 172.062 5.49707 0.502562 0
M  V30 1800 H 172.539 4.12697 1.50258 0
M  V30 1801 H 173.145 4.24979 -0.165102 0
M  V30 1802 N 171.46 0.379036 1.52974 0
M  V30 1803 C 172.408 -0.476033 2.27677 0
M  V30 1804 C 173.402 -1.0719 1.31174 0
M  V30 1805 O 174.608 -1.01355 1.48752 0
M  V30 1806 H 170.983 -0.172255 0.732006 0
M  V30 1807 H 172.954 0.175615 2.97883 0
M  V30 1808 C 171.703 -1.5967 3.0887 0
M  V30 1809 H 171.026 -1.1475 3.82978 0
M  V30 1810 H 172.466 -2.16943 3.64296 0
M  V30 1811 C 170.925 -2.54682 2.20542 0
M  V30 1812 O 171.455 -3.57836 1.82527 0
M  V30 1813 N 169.661 -2.24183 1.84907 0
M  V30 1814 H 169.208 -1.40333 2.1602 0
M  V30 1815 H 169.166 -2.88006 1.26096 0
M  V30 1816 N 172.938 -1.57226 0.108567 0
M  V30 1817 C 174.168 -1.9889 -0.559142 0
M  V30 1818 C 174.576 -0.986889 -1.61422 0
M  V30 1819 O 173.919 0.0298705 -1.83676 0
M  V30 1820 C 173.981 -3.36952 -1.25315 0
M  V30 1821 C 173.645 -4.55679 -0.347248 0
M  V30 1822 C 174.642 -5.18281 0.409996 0
M  V30 1823 C 172.327 -5.0162 -0.261367 0
M  V30 1824 C 174.321 -6.25203 1.24096 0
M  V30 1825 C 172.008 -6.08405 0.573238 0
M  V30 1826 C 173.006 -6.70063 1.32304 0
M  V30 1827 O 172.694 -7.74788 2.14381 0
M  V30 1828 H 172.426 -0.658343 -0.153492 0
M  V30 1829 H 174.98 -2.04532 0.188584 0
M  V30 1830 H 173.21 -3.28032 -2.04773 0
M  V30 1831 H 174.899 -3.62974 -1.81673 0
M  V30 1832 H 175.665 -4.8371 0.353457 0
M  V30 1833 H 171.544 -4.53381 -0.834656 0
M  V30 1834 H 175.088 -6.73259 1.82669 0
M  V30 1835 H 170.985 -6.42406 0.631208 0
M  V30 1836 H 171.753 -7.91837 2.07209 0
M  V30 1837 N 174.416 0.165178 -1.56732 0
M  V30 1838 C 175.662 0.882112 -1.82611 0
M  V30 1839 C 175.995 1.81628 -0.687378 0
M  V30 1840 O 175.27 1.92009 0.310267 0
M  V30 1841 C 175.553 1.67245 -3.18906 0
M  V30 1842 C 175.406 0.760987 -4.43316 0
M  V30 1843 C 176.725 2.63884 -3.52212 0
M  V30 1844 H 173.844 0.319242 -0.664269 0
M  V30 1845 H 176.486 0.148052 -1.89422 0
M  V30 1846 H 174.636 2.29824 -3.1323 0
M  V30 1847 H 176.308 0.147596 -4.61064 0
M  V30 1848 H 174.551 0.0694102 -4.33744 0
M  V30 1849 H 175.222 1.34962 -5.35247 0
M  V30 1850 H 177.698 2.11429 -3.58381 0
M  V30 1851 H 176.574 3.16245 -4.48643 0
M  V30 1852 H 176.835 3.44377 -2.77231 0
M  V30 1853 N 175.894 1.51508 0.433938 0
M  V30 1854 C 176.827 1.67756 1.54704 0
M  V30 1855 C 177.805 0.525127 1.53887 0
M  V30 1856 O 178.989 0.749393 1.72963 0
M  V30 1857 C 176.116 1.69424 2.9328 0
M  V30 1858 C 175.162 2.90673 3.12108 0
M  V30 1859 S 175.995 4.51431 2.88046 0
M  V30 1860 C 177.151 4.55849 4.28897 0
M  V30 1861 H 177.384 2.61904 1.40689 0
M  V30 1862 H 174.917 1.41235 0.62386 0
M  V30 1863 H 176.875 1.7107 3.73156 0
M  V30 1864 H 175.536 0.764464 3.04655 0
M  V30 1865 H 174.729 2.88251 4.13434 0
M  V30 1866 H 174.331 2.86786 2.40062 0
M  V30 1867 H 176.623 4.31699 5.22152 0
M  V30 1868 H 177.566 5.57676 4.36351 0
M  V30 1869 H 177.974 3.85137 4.12711 0
M  V30 1870 N 177.372 -0.689602 1.41712 0
M  V30 1871 C 178.304 -1.815 1.39966 0
M  V30 1872 C 179.317 -1.59995 0.300917 0
M  V30 1873 O 180.506 -1.69387 0.563039 0
M  V30 1874 C 177.606 -3.18364 1.16179 0
M  V30 1875 C 176.779 -3.66847 2.38206 0
M  V30 1876 C 175.838 -4.82398 2.10186 0
M  V30 1877 O 174.864 -4.93706 2.83272 0
M  V30 1878 N 176.066 -5.70064 1.0958 0
M  V30 1879 H 178.831 -1.83488 2.36965 0
M  V30 1880 H 176.392 -0.872149 1.36401 0
M  V30 1881 H 178.384 -3.93301 0.953756 0
M  V30 1882 H 176.954 -3.11365 0.27756 0
M  V30 1883 H 176.174 -2.82751 2.74673 0
M  V30 1884 H 177.462 -3.95978 3.19498 0
M  V30 1885 H 176.86 -5.63565 0.491019 0
M  V30 1886 H 175.417 -6.44874 0.947656 0
M  V30 1887 N 178.85 -1.27639 -0.924453 0
M  V30 1888 C 179.797 -1.10644 -2.0255 0
M  V30 1889 C 180.767 -0.00658438 -1.66099 0
M  V30 1890 O 181.952 -0.16952 -1.90045 0
M  V30 1891 C 179.092 -0.76309 -3.36557 0
M  V30 1892 C 178.205 -1.94091 -3.85944 0
M  V30 1893 C 177.34 -1.53914 -5.08413 0
M  V30 1894 C 176.379 -2.68425 -5.50104 0
M  V30 1895 N 175.516 -2.28815 -6.63768 0
M  V30 1896 H 180.356 -2.04858 -2.16419 0
M  V30 1897 H 177.893 -1.01974 -1.06017 0
M  V30 1898 H 179.851 -0.544822 -4.13627 0
M  V30 1899 H 178.481 0.142102 -3.22487 0
M  V30 1900 H 177.533 -2.27162 -3.05125 0
M  V30 1901 H 178.845 -2.7998 -4.12811 0
M  V30 1902 H 177.999 -1.28231 -5.92994 0
M  V30 1903 H 176.738 -0.651391 -4.8333 0
M  V30 1904 H 175.743 -2.94819 -4.64071 0
M  V30 1905 H 176.968 -3.57826 -5.7718 0
M  V30 1906 H 174.914 -1.42495 -6.40337 0
M  V30 1907 H 174.831 -3.08242 -6.90306 0
M  V30 1908 H 176.099 -2.06387 -7.51681 0
M  V30 1909 N 180.328 1.1314 -1.09713 0
M  V30 1910 C 181.575 1.84484 -0.834987 0
M  V30 1911 C 181.903 1.83689 0.639418 0
M  V30 1912 O 181.158 1.2724 1.4869 0
M  V30 1913 C 181.457 3.32167 -1.3191 0
M  V30 1914 C 181.123 3.53139 -2.80363 0
M  V30 1915 C 179.785 3.58571 -3.20905 0
M  V30 1916 C 182.137 3.60866 -3.76065 0
M  V30 1917 C 179.465 3.69267 -4.55916 0
M  V30 1918 C 181.817 3.73089 -5.10869 0
M  V30 1919 C 180.481 3.76775 -5.50996 0
M  V30 1920 H 179.751 0.675073 -0.305544 0
M  V30 1921 H 182.398 1.33554 -1.37243 0
M  V30 1922 H 180.703 3.85469 -0.701517 0
M  V30 1923 H 182.4 3.85821 -1.09284 0
M  V30 1924 H 178.99 3.49569 -2.47991 0
M  V30 1925 H 183.174 3.55946 -3.45855 0
M  V30 1926 H 178.43 3.70388 -4.86438 0
M  V30 1927 H 182.604 3.78011 -5.84877 0
M  V30 1928 H 180.231 3.84815 -6.55608 0
M  V30 1929 N 181.806 0.884767 1.30421 0
M  V30 1930 C 182.769 0.356277 2.26414 0
M  V30 1931 C 183.769 -0.501124 1.52792 0
M  V30 1932 O 184.959 -0.30831 1.7145 0
M  V30 1933 C 182.091 -0.492316 3.37326 0
M  V30 1934 H 183.284 1.20389 2.74675 0
M  V30 1935 H 180.837 0.661607 1.41607 0
M  V30 1936 H 181.572 -1.36052 2.94381 0
M  V30 1937 H 181.357 0.121832 3.91911 0
M  V30 1938 H 182.847 -0.853871 4.08777 0
M  V30 1939 N 183.284 -1.43765 0.645699 0
M  V30 1940 C 184.7 -1.56509 0.312591 0
M  V30 1941 C 184.9 -1.6307 -1.18365 0
M  V30 1942 O 183.956 -1.58167 -1.96824 0
M  V30 1943 C 185.269 -2.82968 1.01733 0
M  V30 1944 C 186.817 -2.96701 0.996865 0
M  V30 1945 C 187.292 -4.25982 1.68236 0
M  V30 1946 N 188.783 -4.32829 1.64964 0
M  V30 1947 C 189.518 -5.31613 2.14885 0
M  V30 1948 N 189.014 -6.36718 2.73061 0
M  V30 1949 N 190.807 -5.23217 2.05428 0
M  V30 1950 H 182.958 -1.3775 1.61675 0
M  V30 1951 H 185.221 -0.661067 0.679481 0
M  V30 1952 H 184.927 -2.84156 2.0724 0
M  V30 1953 H 184.801 -3.72957 0.564177 0
M  V30 1954 H 187.188 -2.95058 -0.0497719 0
M  V30 1955 H 187.269 -2.08022 1.48865 0
M  V30 1956 H 186.913 -4.28386 2.72852 0
M  V30 1957 H 186.843 -5.13545 1.16529 0
M  V30 1958 H 189.334 -3.57493 1.22503 0
M  V30 1959 H 189.647 -7.08401 3.08848 0
M  V30 1960 H 187.992 -6.37362 2.77118 0
M  V30 1961 H 191.183 -4.40019 1.59689 0
M  V30 1962 H 191.356 -6.00045 2.44643 0
M  V30 1963 N 184.763 -0.387143 -1.52771 0
M  V30 1964 C 185.726 0.436939 -2.24997 0
M  V30 1965 C 186.726 0.991991 -1.26555 0
M  V30 1966 O 187.916 0.874335 -1.50669 0
M  V30 1967 C 185.048 1.61281 -3.00335 0
M  V30 1968 H 186.241 -0.195365 -2.99263 0
M  V30 1969 H 183.794 -0.139218 -1.55679 0
M  V30 1970 H 184.529 2.2826 -2.30364 0
M  V30 1971 H 184.314 1.22154 -3.72587 0
M  V30 1972 H 185.804 2.19629 -3.5518 0
M  V30 1973 N 186.241 1.57166 -0.116904 0
M  V30 1974 C 187.487 1.95412 0.542405 0
M  V30 1975 C 187.82 1.00019 1.66463 0
M  V30 1976 O 187.095 0.0370346 1.94465 0
M  V30 1977 C 187.378 3.43615 1.07708 0
M  V30 1978 C 187.231 4.49781 -0.0415868 0
M  V30 1979 C 188.55 3.93616 1.96861 0
M  V30 1980 H 185.669 0.710543 0.195696 0
M  V30 1981 H 188.311 1.89027 -0.192038 0
M  V30 1982 H 186.461 3.49187 1.70296 0
M  V30 1983 H 188.133 4.56308 -0.676793 0
M  V30 1984 H 186.376 4.28033 -0.705019 0
M  V30 1985 H 187.047 5.50733 0.373717 0
M  V30 1986 H 189.523 3.90335 1.44146 0
M  V30 1987 H 188.399 4.97838 2.3119 0
M  V30 1988 H 188.66 3.34188 2.89432 0
M  V30 1989 N 187.719 -0.156864 1.56817 0
M  V30 1990 C 188.968 -0.869504 1.81996 0
M  V30 1991 C 189.281 -1.82777 0.696545 0
M  V30 1992 O 190.487 -2.58384 0.833658 0
M  V30 1993 C 188.943 -1.59679 3.22538 0
M  V30 1994 C 188.551 -0.681431 4.42787 0
M  V30 1995 C 190.295 -2.2968 3.56997 0
M  V30 1996 C 188.202 -1.40978 5.74351 0
M  V30 1997 H 187.132 -0.328438 0.678708 0
M  V30 1998 H 189.783 -0.1223 1.83092 0
M  V30 1999 H 188.165 -2.38927 3.158 0
M  V30 2000 H 189.339 0.0751166 4.60739 0
M  V30 2001 H 187.654 -0.0903431 4.16302 0
M  V30 2002 H 190.251 -2.84794 4.52544 0
M  V30 2003 H 190.594 -3.05707 2.82576 0
M  V30 2004 H 191.127 -1.57361 3.65352 0
M  V30 2005 H 187.866 -0.691561 6.51842 0
M  V30 2006 H 187.386 -2.13929 5.60352 0
M  V30 2007 H 189.065 -1.95337 6.16808 0
M  V30 2008 N 189.197 -1.51736 -0.425897 0
M  V30 2009 C 190.445 -1.64644 -1.17204 0
M  V30 2010 C 190.766 -0.370486 -1.91448 0
M  V30 2011 O 190.036 0.614088 -1.86026 0
M  V30 2012 H 188.616 -0.606819 -0.435638 0
M  V30 2013 H 191.278 -1.88713 -0.487177 0
M  V30 2014 H 190.374 -2.47958 -1.89534 0
M  V30 2015 N 190.675 0.682077 -1.42076 0
M  V30 2016 C 191.903 1.47057 -1.4554 0
M  V30 2017 C 192.318 1.8869 -0.0645779 0
M  V30 2018 O 191.675 1.57666 0.919115 0
M  V30 2019 C 191.726 2.72442 -2.37609 0
M  V30 2020 O 191.447 2.32559 -3.71279 0
M  V30 2021 C 192.948 3.66069 -2.50017 0
M  V30 2022 H 190.168 0.452737 -0.495248 0
M  V30 2023 H 192.712 0.838695 -1.8651 0
M  V30 2024 H 190.867 3.31835 -1.9991 0
M  V30 2025 H 191.281 3.13475 -4.20516 0
M  V30 2026 H 192.755 4.50792 -3.18576 0
M  V30 2027 H 193.232 4.11476 -1.53572 0
M  V30 2028 H 193.838 3.12572 -2.88407 0
M  V30 2029 N 192.153 1.28127 0.917671 0
M  V30 2030 C 193.101 1.11569 2.04096 0
M  V30 2031 C 194.095 0.0360242 1.69362 0
M  V30 2032 O 195.301 0.194501 1.78946 0
M  V30 2033 H 191.676 0.344097 0.668656 0
M  V30 2034 H 193.647 2.06711 2.15205 0
M  V30 2035 C 192.396 0.790197 3.38602 0
M  V30 2036 H 191.719 1.61293 3.6582 0
M  V30 2037 H 193.159 0.714271 4.1794 0
M  V30 2038 C 191.618 -0.505897 3.3308 0
M  V30 2039 O 192.148 -1.53736 3.71117 0
M  V30 2040 N 190.354 -0.505193 2.86175 0
M  V30 2041 H 189.901 0.334621 2.55417 0
M  V30 2042 H 189.859 -1.37243 2.82863 0
M  V30 2043 N 193.631 -1.12557 1.10312 0
M  V30 2044 C 194.579 -2.20325 0.745629 0
M  V30 2045 C 195.573 -1.67429 -0.25763 0
M  V30 2046 O 196.779 -1.79612 -0.118132 0
M  V30 2047 H 193.154 -0.718118 0.223182 0
M  V30 2048 H 195.125 -2.47733 1.66346 0
M  V30 2049 C 193.874 -3.47168 0.192262 0
M  V30 2050 H 193.197 -3.88215 0.955475 0
M  V30 2051 H 194.637 -4.23995 -0.0198274 0
M  V30 2052 C 193.096 -3.19298 -1.07472 0
M  V30 2053 O 193.626 -3.3891 -2.15645 0
M  V30 2054 N 191.832 -2.73113 -0.992847 0
M  V30 2055 H 191.379 -2.57354 -0.112474 0
M  V30 2056 H 191.337 -2.54842 -1.84127 0
M  V30 2057 N 195.109 -0.891671 -1.2995 0
M  V30 2058 C 196.355 -0.514261 -1.96171 0
M  V30 2059 C 196.688 0.935506 -1.70182 0
M  V30 2060 O 195.963 1.66204 -1.01028 0
M  V30 2061 C 196.246 -0.797719 -3.51153 0
M  V30 2062 C 196.099 -2.2986 -3.86632 0
M  V30 2063 C 197.418 -0.278749 -4.39216 0
M  V30 2064 H 194.537 -0.188314 -0.712535 0
M  V30 2065 H 197.179 -1.11689 -1.53706 0
M  V30 2066 H 195.329 -0.284826 -3.87455 0
M  V30 2067 H 197.001 -2.88042 -3.60319 0
M  V30 2068 H 195.244 -2.76257 -3.34462 0
M  V30 2069 H 195.915 -2.44753 -4.94773 0
M  V30 2070 H 198.391 -0.717825 -4.09862 0
M  V30 2071 H 197.267 -0.506353 -5.46559 0
M  V30 2072 H 197.528 0.820266 -4.34424 0
M  V30 2073 N 196.587 1.43421 -0.653314 0
M  V30 2074 C 197.864 1.95361 -0.0966581 0
M  V30 2075 C 198.244 1.59461 1.38331 0
M  V30 2076 O 197.592 0.879777 2.10884 0
M  V30 2077 C 197.802 3.47311 -0.342988 0
M  V30 2078 C 199.15 4.23875 -0.24798 0
M  V30 2079 O 200.174 3.55133 -0.275553 0
M  V30 2080 O 199.033 5.4623 -0.171771 0
M  V30 2081 H 196.127 0.826945 0.00956291 0
M  V30 2082 H 198.673 1.5336 -0.726558 0
M  V30 2083 H 197.445 3.66569 -1.36906 0
M  V30 2084 H 197.068 3.9631 0.319975 0
M  V30 2085 N 198.065 0.39524 1.52563 0
M  V30 2086 C 199.305 -0.184744 2.03563 0
M  V30 2087 C 199.669 -1.43548 1.27507 0
M  V30 2088 O 200.87 -2.093 1.68662 0
M  V30 2089 C 199.141 -0.440294 3.54678 0
M  V30 2090 S 200.7 -0.989712 4.27493 0
M  V30 2091 H 197.518 -0.0515075 0.709132 0
M  V30 2092 H 200.12 0.544957 1.87751 0
M  V30 2093 H 198.824 0.477005 4.07618 0
M  V30 2094 H 198.355 -1.19825 3.74707 0
M  V30 2095 H 200.37 -2.27155 4.41152 0
M  V30 2096 N 199.544 -1.57102 0.125237 0
M  V30 2097 C 200.784 -1.97294 -0.534259 0
M  V30 2098 C 201.148 -1.0074 -1.63449 0
M  V30 2099 O 202.349 -1.29893 -2.35332 0
M  V30 2100 C 200.62 -3.41705 -1.04748 0
M  V30 2101 S 202.179 -4.03913 -1.71463 0
M  V30 2102 H 198.997 -0.689517 -0.173458 0
M  V30 2103 H 201.599 -1.94349 0.211797 0
M  V30 2104 H 200.303 -4.09723 -0.235649 0
M  V30 2105 H 199.834 -3.48315 -1.82867 0
M  V30 2106 H 201.849 -3.95182 -3.00077 0
M  V30 2107 N 201.022 0.148545 -1.56898 0
M  V30 2108 C 201.985 1.16736 -1.97244 0
M  V30 2109 C 202.985 1.35947 -0.858777 0
M  V30 2110 O 204.175 1.32966 -1.12542 0
M  V30 2111 C 201.307 2.52798 -2.28705 0
M  V30 2112 H 202.5 0.821279 -2.88435 0
M  V30 2113 H 200.053 0.391831 -1.51309 0
M  V30 2114 H 200.788 2.92381 -1.403 0
M  V30 2115 H 200.573 2.40216 -3.09901 0
M  V30 2116 H 202.063 3.26179 -2.60762 0
M  V30 2117 N 202.5 1.5196 0.417844 0
M  V30 2118 C 203.916 1.40569 0.755816 0
M  V30 2119 C 204.116 0.503316 1.95113 0
M  V30 2120 O 203.172 -0.0341925 2.52477 0
M  V30 2121 C 204.485 2.82947 1.01791 0
M  V30 2122 C 206.033 2.92231 1.12116 0
M  V30 2123 C 206.508 4.35559 1.41608 0
M  V30 2124 N 207.999 4.38753 1.48491 0
M  V30 2125 C 208.734 5.46705 1.7292 0
M  V30 2126 N 208.23 6.64788 1.95011 0
M  V30 2127 N 210.023 5.34209 1.74863 0
M  V30 2128 H 202.174 2.09168 -0.369098 0
M  V30 2129 H 204.437 0.942409 -0.102809 0
M  V30 2130 H 204.143 3.5106 0.212081 0
M  V30 2131 H 204.017 3.23462 1.94042 0
M  V30 2132 H 206.404 2.24304 1.9176 0
M  V30 2133 H 206.485 2.55185 0.177225 0
M  V30 2134 H 206.129 5.04042 0.624848 0
M  V30 2135 H 206.059 4.70133 2.37239 0
M  V30 2136 H 208.55 3.5363 1.33244 0
M  V30 2137 H 208.863 7.42845 2.13076 0
M  V30 2138 H 207.208 6.67869 1.92293 0
M  V30 2139 H 210.399 4.40937 1.57137 0
M  V30 2140 H 210.572 6.18415 1.93563 0
M  V30 2141 N 203.978 -0.674533 1.42435 0
M  V30 2142 C 205.224 -1.43671 1.43131 0
M  V30 2143 C 205.557 -1.94142 0.0476021 0
M  V30 2144 O 204.832 -1.70924 -0.928188 0
M  V30 2145 C 205.115 -2.63355 2.45594 0
M  V30 2146 C 204.968 -2.18514 3.93156 0
M  V30 2147 C 206.287 -3.65571 2.45043 0
M  V30 2148 H 203.406 -0.521077 0.521198 0
M  V30 2149 H 206.048 -0.766551 1.7385 0
M  V30 2150 H 204.198 -3.2053 2.19528 0
M  V30 2151 H 205.87 -1.66504 4.30202 0
M  V30 2152 H 204.113 -1.50086 4.07009 0
M  V30 2153 H 204.784 -3.04484 4.60428 0
M  V30 2154 H 207.26 -3.18113 2.68223 0
M  V30 2155 H 206.136 -4.46893 3.18713 0
M  V30 2156 H 206.397 -4.16716 1.47649 0
M  V30 2157 N 205.456 -1.28612 -0.910864 0
M  V30 2158 C 206.696 -1.1719 -1.67469 0
M  V30 2159 C 207.06 0.274441 -1.90028 0
M  V30 2160 O 208.261 0.511425 -2.6389 0
M  V30 2161 C 206.532 -1.95137 -2.99427 0
M  V30 2162 Se 208.091 -2.00122 -3.90508 0
M  V30 2163 H 204.909 -0.41806 -0.575106 0
M  V30 2164 H 207.511 -1.6275 -1.08317 0
M  V30 2165 H 206.215 -2.99381 -2.80712 0
M  V30 2166 H 205.746 -1.50137 -3.63624 0
M  V30 2167 H 207.761 -1.10981 -4.8363 0
M  V30 2168 N 206.934 1.1197 -1.10907 0
M  V30 2169 C 207.884 2.15946 -0.731538 0
M  V30 2170 C 208.868 1.58758 0.261699 0
M  V30 2171 O 210.06 1.76863 0.0696722 0
M  V30 2172 C 207.189 3.42877 -0.170299 0
M  V30 2173 C 206.275 4.07037 -1.19087 0
M  V30 2174 N 206.666 4.46135 -2.38322 0
M  V30 2175 C 204.964 4.33884 -1.03252 0
M  V30 2176 C 205.665 4.96331 -3.03366 0
M  V30 2177 N 204.641 4.9214 -2.30865 0
M  V30 2178 H 208.443 2.43947 -1.63912 0
M  V30 2179 H 205.957 1.28927 -0.987505 0
M  V30 2180 H 207.954 4.16732 0.118271 0
M  V30 2181 H 206.614 3.16343 0.731935 0
M  V30 2182 H 207.625 4.38345 -2.75815 0
M  V30 2183 H 204.302 4.17084 -0.186256 0
M  V30 2184 H 205.692 5.36257 -4.04818 0
M  V30 2185 N 208.412 0.89855 1.29475 0
M  V30 2186 C 209.66 0.522847 1.9522 0
M  V30 2187 C 209.981 -0.93371 1.71192 0
M  V30 2188 O 209.251 -1.65823 1.04305 0
M  V30 2189 H 207.831 0.190366 0.722336 0
M  V30 2190 H 210.493 1.14459 1.5775 0
M  V30 2191 H 209.589 0.704476 3.04045 0
M  V30 2192 N 209.89 -1.43072 0.660911 0
M  V30 2193 C 211.301 -1.84932 0.256348 0
M  V30 2194 C 211.652 -1.55325 -1.19868 0
M  V30 2195 O 210.777 -1.00607 -1.91591 0
M  V30 2196 C 211.372 -3.35684 0.458475 0
M  V30 2197 C 209.931 -3.76245 0.108161 0
M  V30 2198 C 209.078 -2.66749 0.757641 0
M  V30 2199 H 212.029 -1.33116 0.864051 0
M  V30 2200 H 212.05 -3.79365 -0.293683 0
M  V30 2201 H 211.562 -3.572 1.51755 0
M  V30 2202 H 209.663 -3.60338 -0.948014 0
M  V30 2203 H 209.776 -4.76058 0.538992 0
M  V30 2204 H 208.14 -2.53989 0.190185 0
M  V30 2205 H 208.923 -2.91092 1.81989 0
M  V30 2206 N 211.368 -0.403325 -1.52352 0
M  V30 2207 C 212.593 0.176499 -2.06648 0
M  V30 2208 C 213.018 1.38577 -1.27193 0
M  V30 2209 O 212.376 1.7879 -0.300637 0
M  V30 2210 C 212.424 0.511061 -3.5696 0
M  V30 2211 O 211.528 1.60294 -3.79973 0
M  V30 2212 H 210.869 0.0167337 -0.663789 0
M  V30 2213 H 213.399 -0.574848 -1.96359 0
M  V30 2214 H 213.409 0.771362 -4.00642 0
M  V30 2215 H 212.084 -0.37296 -4.14224 0
M  V30 2216 H 210.661 1.33526 -3.48174 0
M  V30 2217 N 212.846 1.57033 -0.133567 0
M  V30 2218 C 214.092 1.95976 0.521649 0
M  V30 2219 C 214.425 1.01779 1.65393 0
M  V30 2220 O 213.7 0.0576581 1.94415 0
M  V30 2221 C 213.983 3.44738 1.04057 0
M  V30 2222 C 213.836 4.49711 -0.0892897 0
M  V30 2223 C 215.155 3.95682 1.92675 0
M  V30 2224 H 212.274 0.712579 0.188149 0
M  V30 2225 H 214.916 1.88813 -0.212076 0
M  V30 2226 H 213.066 3.50973 1.66583 0
M  V30 2227 H 214.738 4.55565 -0.725152 0
M  V30 2228 H 212.981 4.27261 -0.750378 0
M  V30 2229 H 213.652 5.51099 0.315284 0
M  V30 2230 H 216.128 3.91841 1.39998 0
M  V30 2231 H 215.004 5.00262 2.25897 0
M  V30 2232 H 215.265 3.37239 2.85872 0
M  V30 2233 N 214.325 -0.140222 1.56975 0
M  V30 2234 C 215.288 -1.15689 1.97861 0
M  V30 2235 C 216.288 -1.3549 0.865974 0
M  V30 2236 O 217.478 -1.32367 1.13246 0
M  V30 2237 C 214.61 -2.51582 2.30042 0
M  V30 2238 H 215.803 -0.805971 2.88867 0
M  V30 2239 H 213.356 -0.383801 1.51515 0
M  V30 2240 H 214.091 -2.91632 1.41849 0
M  V30 2241 H 213.876 -2.38569 3.11171 0
M  V30 2242 H 215.366 -3.24792 2.62488 0
M  V30 2243 N 215.803 -1.52179 -0.40978 0
M  V30 2244 C 217.051 -1.65878 -1.15451 0
M  V30 2245 C 217.372 -0.390771 -1.91044 0
M  V30 2246 O 216.642 0.594323 -1.86667 0
M  V30 2247 H 215.222 -0.611405 -0.429177 0
M  V30 2248 H 217.884 -1.89219 -0.467134 0
M  V30 2249 H 216.98 -2.49954 -1.86894 0
M  V30 2250 N 217.281 0.66697 -1.42791 0
M  V30 2251 C 218.211 1.79218 -1.49677 0
M  V30 2252 C 219.192 1.66405 -0.352623 0
M  V30 2253 O 220.377 1.85708 -0.567993 0
M  V30 2254 C 217.507 3.17565 -1.40605 0
M  V30 2255 C 216.461 3.45124 -2.53127 0
M  V30 2256 C 215.787 4.83127 -2.29112 0
M  V30 2257 C 217.087 3.41236 -3.95418 0
M  V30 2258 H 218.781 1.73713 -2.43853 0
M  V30 2259 H 216.327 0.83432 -1.17367 0
M  V30 2260 H 218.28 3.96022 -1.44029 0
M  V30 2261 H 217.004 3.23767 -0.429271 0
M  V30 2262 H 215.663 2.69031 -2.49034 0
M  V30 2263 H 215.311 4.85988 -1.29709 0
M  V30 2264 H 215.011 5.02528 -3.04531 0
M  V30 2265 H 216.535 5.63859 -2.34297 0
M  V30 2266 H 217.949 4.09651 -4.01073 0
M  V30 2267 H 216.346 3.72173 -4.70752 0
M  V30 2268 H 217.416 2.39665 -4.21532 0
M  V30 2269 N 218.759 1.29093 0.90403 0
M  V30 2270 C 219.709 1.10482 1.99443 0
M  V30 2271 C 220.693 0.0255401 1.6088 0
M  V30 2272 O 221.885 0.24677 1.75271 0
M  V30 2273 C 219.014 0.778882 3.34348 0
M  V30 2274 C 218.1 1.89749 3.79284 0
M  V30 2275 N 218.491 3.14045 3.96497 0
M  V30 2276 C 216.789 1.78955 4.08523 0
M  V30 2277 C 217.49 3.86996 4.34292 0
M  V30 2278 N 216.466 3.14909 4.43095 0
M  V30 2279 H 220.268 2.04778 2.10815 0
M  V30 2280 H 217.782 1.20155 1.09255 0
M  V30 2281 H 219.779 0.62661 4.12164 0
M  V30 2282 H 218.439 -0.156205 3.24324 0
M  V30 2283 H 219.45 3.49548 3.82148 0
M  V30 2284 H 216.127 0.926886 4.07081 0
M  V30 2285 H 217.517 4.93941 4.55491 0
M  V30 2286 N 220.237 -1.11381 1.11499 0
M  V30 2287 C 221.169 -2.17207 0.731704 0
M  V30 2288 C 222.182 -1.61066 -0.236957 0
M  V30 2289 O 223.371 -1.78489 -0.0197591 0
M  V30 2290 C 220.471 -3.38846 0.0607624 0
M  V30 2291 C 219.644 -4.24451 1.0564 0
M  V30 2292 C 218.703 -5.24562 0.4149 0
M  V30 2293 O 217.729 -5.59071 1.069 0
M  V30 2294 N 218.931 -5.74651 -0.821943 0
M  V30 2295 H 221.696 -2.50699 1.64225 0
M  V30 2296 H 219.257 -1.26908 1.00529 0
M  V30 2297 H 221.249 -4.02911 -0.380139 0
M  V30 2298 H 219.819 -3.03411 -0.752376 0
M  V30 2299 H 219.039 -3.56833 1.67524 0
M  V30 2300 H 220.327 -4.78486 1.72998 0
M  V30 2301 H 219.725 -5.48797 -1.37252 0
M  V30 2302 H 218.282 -6.40549 -1.20582 0
M  V30 2303 N 221.715 -0.905404 -1.28997 0
M  V30 2304 C 222.94 -0.549175 -1.99997 0
M  V30 2305 C 223.365 0.860276 -1.67275 0
M  V30 2306 O 222.723 1.57355 -0.900502 0
M  V30 2307 C 222.771 -0.755185 -3.52604 0
M  V30 2308 O 221.875 0.189692 -4.11964 0
M  V30 2309 H 221.216 -0.213899 -0.628604 0
M  V30 2310 H 223.746 -1.21856 -1.64354 0
M  V30 2311 H 223.756 -0.662045 -4.02593 0
M  V30 2312 H 222.431 -1.78271 -3.75755 0
M  V30 2313 H 221.008 0.0485257 -3.72868 0
M  V30 2314 N 223.193 1.4272 -0.668489 0
M  V30 2315 C 224.439 2.01923 -0.188419 0
M  V30 2316 C 224.772 1.52704 1.19979 0
M  V30 2317 O 224.047 0.726566 1.8042 0
M  V30 2318 C 224.33 3.59451 -0.216085 0
M  V30 2319 C 224.183 4.18864 -1.6393 0
M  V30 2320 C 225.502 4.37903 0.439179 0
M  V30 2321 H 222.621 0.733674 -0.0699412 0
M  V30 2322 H 225.263 1.69822 -0.852076 0
M  V30 2323 H 223.413 3.86929 0.349012 0
M  V30 2324 H 225.085 4.02362 -2.25616 0
M  V30 2325 H 223.328 3.74933 -2.18193 0
M  V30 2326 H 223.999 5.27987 -1.61039 0
M  V30 2327 H 226.475 4.16079 -0.0417878 0
M  V30 2328 H 225.351 5.47519 0.389157 0
M  V30 2329 H 225.612 4.15303 1.51577 0
M  V30 2330 N 224.671 0.411399 1.52136 0
M  V30 2331 C 225.919 -0.163322 2.01439 0
M  V30 2332 C 226.24 -1.45453 1.29879 0
M  V30 2333 O 225.51 -1.91225 0.4254 0
M  V30 2334 H 224.09 -0.0633447 0.744309 0
M  V30 2335 H 226.752 0.548161 1.87033 0
M  V30 2336 H 225.848 -0.357817 3.10042 0
M  V30 2337 N 226.149 -1.5696 0.141893 0
M  V30 2338 C 227.097 -2.17784 -0.816874 0
M  V30 2339 C 228.091 -1.1334 -1.25899 0
M  V30 2340 O 229.297 -1.316 -1.22806 0
M  V30 2341 H 225.672 -0.697278 -0.281615 0
M  V30 2342 H 227.643 -2.97087 -0.279621 0
M  V30 2343 C 226.392 -2.80983 -2.04802 0
M  V30 2344 H 225.715 -3.61062 -1.7168 0
M  V30 2345 H 227.155 -3.2705 -2.69841 0
M  V30 2346 C 225.614 -1.79228 -2.8527 0
M  V30 2347 O 226.144 -1.25962 -3.8144 0
M  V30 2348 N 224.35 -1.48647 -2.49704 0
M  V30 2349 H 223.897 -1.92155 -1.71564 0
M  V30 2350 H 223.855 -0.808115 -3.03837 0
M  V30 2351 N 227.627 0.131896 -1.57047 0
M  V30 2352 C 228.875 0.840269 -1.83804 0
M  V30 2353 C 229.196 1.81017 -0.72512 0
M  V30 2354 O 228.466 1.94272 0.251995 0
M  V30 2355 H 227.046 0.313294 -0.678127 0
M  V30 2356 H 229.708 0.122294 -1.94516 0
M  V30 2357 H 228.804 1.39335 -2.79271 0
M  V30 2358 N 229.106 1.52395 0.401703 0
M  V30 2359 C 230.069 1.75636 1.47257 0
M  V30 2360 C 231.069 0.62628 1.48103 0
M  V30 2361 O 232.259 0.894227 1.49497 0
M  V30 2362 C 229.391 1.84553 2.86624 0
M  V30 2363 H 230.584 2.71241 1.27938 0
M  V30 2364 H 228.137 1.42923 0.632662 0
M  V30 2365 H 228.872 0.908882 3.11303 0
M  V30 2366 H 228.657 2.66715 2.87412 0
M  V30 2367 H 230.147 2.04251 3.64241 0
M  V30 2368 N 230.584 -0.659388 1.43143 0
M  V30 2369 C 231.517 -1.78425 1.42267 0
M  V30 2370 C 232.495 -1.60085 0.284894 0
M  V30 2371 O 233.679 -1.82351 0.477527 0
M  V30 2372 C 230.806 -3.15642 1.22833 0
M  V30 2373 C 229.852 -3.52698 2.39806 0
M  V30 2374 S 230.685 -3.53372 4.02353 0
M  V30 2375 C 231.841 -4.93256 3.85291 0
M  V30 2376 H 232.074 -1.78897 2.37452 0
M  V30 2377 H 229.607 -0.831469 1.301 0
M  V30 2378 H 231.565 -3.94838 1.12308 0
M  V30 2379 H 230.226 -3.12739 0.29207 0
M  V30 2380 H 229.419 -4.52475 2.21996 0
M  V30 2381 H 229.021 -2.80899 2.46925 0
M  V30 2382 H 231.313 -5.81751 3.47235 0
M  V30 2383 H 232.256 -5.16115 4.84799 0
M  V30 2384 H 232.664 -4.665 3.17865 0
M  V30 2385 N 232.062 -1.29571 -0.897171 0
M  V30 2386 C 233.287 -1.20705 -1.68656 0
M  V30 2387 C 233.712 0.228582 -1.86706 0
M  V30 2388 O 233.07 1.16494 -1.3892 0
M  V30 2389 C 233.118 -1.9282 -3.04717 0
M  V30 2390 O 232.222 -1.24697 -3.93096 0
M  V30 2391 H 231.563 -0.418126 -0.515816 0
M  V30 2392 H 234.093 -1.71183 -1.12061 0
M  V30 2393 H 234.103 -2.01372 -3.54843 0
M  V30 2394 H 232.778 -2.97239 -2.90899 0
M  V30 2395 H 231.355 -1.2442 -3.51531 0
M  V30 2396 N 233.54 1.10788 -1.12088 0
M  V30 2397 C 234.488 2.19111 -0.780587 0
M  V30 2398 C 235.482 1.67818 0.230961 0
M  V30 2399 O 236.688 1.79777 0.0895427 0
M  V30 2400 H 233.063 0.714477 -0.234578 0
M  V30 2401 H 235.034 2.45055 -1.70266 0
M  V30 2402 C 233.783 3.46818 -0.24747 0
M  V30 2403 H 233.106 3.86646 -1.01712 0
M  V30 2404 H 234.546 4.23973 -0.0476291 0
M  V30 2405 C 233.005 3.20968 1.02378 0
M  V30 2406 O 233.535 3.42298 2.10226 0
M  V30 2407 N 231.741 2.74658 0.949271 0
M  V30 2408 H 231.288 2.57501 0.0715173 0
M  V30 2409 H 231.246 2.57739 1.80049 0
M  V30 2410 N 235.018 0.912232 1.28515 0
M  V30 2411 C 235.981 0.404223 2.25607 0
M  V30 2412 C 236.981 -0.468602 1.53821 0
M  V30 2413 O 238.171 -0.271873 1.72065 0
M  V30 2414 C 235.303 -0.420653 3.38295 0
M  V30 2415 H 236.496 1.26188 2.7206 0
M  V30 2416 H 234.049 0.691495 1.40171 0
M  V30 2417 H 234.784 -1.29777 2.97201 0
M  V30 2418 H 234.569 0.204935 3.91564 0
M  V30 2419 H 236.059 -0.766971 4.10496 0
M  V30 2420 N 236.496 -1.42363 0.676048 0
M  V30 2421 C 237.745 -2.00745 0.196037 0
M  V30 2422 C 238.058 -1.54083 -1.20489 0
M  V30 2423 O 239.264 -2.04891 -1.78134 0
M  V30 2424 C 237.72 -3.58651 0.299616 0
M  V30 2425 C 237.328 -4.143 1.70468 0
M  V30 2426 C 239.072 -4.24326 -0.121619 0
M  V30 2427 C 236.979 -5.64574 1.76096 0
M  V30 2428 H 235.909 -0.750787 0.0695301 0
M  V30 2429 H 238.56 -1.63072 0.841412 0
M  V30 2430 H 236.942 -3.93833 -0.413673 0
M  V30 2431 H 238.116 -3.90575 2.44515 0
M  V30 2432 H 236.431 -3.61081 2.07387 0
M  V30 2433 H 239.028 -5.34607 -0.0997362 0
M  V30 2434 H 239.371 -3.99897 -1.15708 0
M  V30 2435 H 239.904 -3.94108 0.540706 0
M  V30 2436 H 236.643 -5.93804 2.77628 0
M  V30 2437 H 236.163 -5.90286 1.06406 0
M  V30 2438 H 237.842 -6.29013 1.51496 0
M  V30 2439 N 237.974 -0.419461 -1.51915 0
M  V30 2440 C 238.922 0.415502 -2.28859 0
M  V30 2441 C 239.916 1.03674 -1.3397 0
M  V30 2442 O 241.122 0.973757 -1.51387 0
M  V30 2443 H 237.497 0.152786 -0.736315 0
M  V30 2444 H 239.468 -0.254531 -2.97312 0
M  V30 2445 C 238.217 1.51425 -3.12995 0
M  V30 2446 H 237.54 1.04556 -3.85886 0
M  V30 2447 H 238.98 2.07208 -3.6992 0
M  V30 2448 C 237.439 2.48745 -2.27217 0
M  V30 2449 O 237.969 3.52871 -1.9195 0
M  V30 2450 N 236.175 2.19202 -1.90785 0
M  V30 2451 H 235.722 1.34556 -2.19664 0
M  V30 2452 H 235.68 2.84561 -1.33687 0
M  V30 2453 N 239.452 1.56882 -0.150215 0
M  V30 2454 C 240.362 2.20494 0.801222 0
M  V30 2455 C 241.378 1.19019 1.26927 0
M  V30 2456 O 242.554 1.51607 1.32579 0
M  V30 2457 C 239.619 2.81659 2.02161 0
M  V30 2458 C 238.68 3.9827 1.60249 0
M  V30 2459 C 237.913 4.56508 2.7647 0
M  V30 2460 O 238.136 4.13627 3.92771 0
M  V30 2461 O 237.07 5.46719 2.51757 0
M  V30 2462 H 240.896 3.02315 0.289717 0
M  V30 2463 H 238.481 1.49202 0.0769684 0
M  V30 2464 H 240.363 3.20522 2.73576 0
M  V30 2465 H 239.038 2.02849 2.52258 0
M  V30 2466 H 237.945 3.64117 0.858477 0
M  V30 2467 H 239.278 4.78609 1.14864 0
M  V30 2468 N 240.93 -0.123565 1.57115 0
M  V30 2469 C 242.179 -0.830704 1.83799 0
M  V30 2470 C 242.492 -1.81259 0.735158 0
M  V30 2471 O 243.698 -2.56558 0.888278 0
M  V30 2472 C 242.154 -1.52802 3.25852 0
M  V30 2473 C 241.762 -0.587356 4.44133 0
M  V30 2474 C 243.506 -2.22056 3.61789 0
M  V30 2475 C 241.413 -1.28764 5.77212 0
M  V30 2476 H 240.343 -0.313967 0.685522 0
M  V30 2477 H 242.994 -0.0834359 1.8331 0
M  V30 2478 H 241.376 -2.32175 3.20797 0
M  V30 2479 H 242.55 0.172829 4.60476 0
M  V30 2480 H 240.865 -0.00201892 4.164 0
M  V30 2481 H 243.462 -2.75131 4.58483 0
M  V30 2482 H 243.805 -2.99644 2.88997 0
M  V30 2483 H 244.338 -1.49576 3.68608 0
M  V30 2484 H 241.077 -0.55314 6.53162 0
M  V30 2485 H 240.597 -2.01995 5.64764 0
M  V30 2486 H 242.276 -1.8221 6.20813 0
M  V30 2487 N 242.408 -1.52605 -0.393616 0
M  V30 2488 C 243.685 -1.58001 -1.15304 0
M  V30 2489 C 244.065 -0.370385 -2.07825 0
M  V30 2490 O 243.413 0.641638 -2.19306 0
M  V30 2491 C 243.623 -2.91652 -1.91677 0
M  V30 2492 C 244.971 -3.4522 -2.47201 0
M  V30 2493 O 245.995 -2.93495 -2.01839 0
M  V30 2494 O 244.854 -4.35579 -3.3005 0
M  V30 2495 H 241.948 -0.637068 -0.527327 0
M  V30 2496 H 244.494 -1.64939 -0.399141 0
M  V30 2497 H 243.266 -3.71136 -1.23992 0
M  V30 2498 H 242.889 -2.88077 -2.74039 0
M  V30 2499 N 243.887 0.651787 -1.4349 0
M  V30 2500 C 244.835 1.78586 -1.49029 0
M  V30 2501 C 245.829 1.65448 -0.363767 0
M  V30 2502 O 247.035 1.71777 -0.537821 0
M  V30 2503 H 243.41 0.589236 -0.467231 0
M  V30 2504 H 245.381 1.71035 -2.44519 0
M  V30 2505 C 244.13 3.16851 -1.43181 0
M  V30 2506 H 243.453 3.27598 -2.29171 0
M  V30 2507 H 244.893 3.96156 -1.51118 0
M  V30 2508 C 243.352 3.36568 -0.149616 0
M  V30 2509 O 243.882 3.93885 0.788509 0
M  V30 2510 N 242.088 2.90539 -0.0593484 0
M  V30 2511 H 241.635 2.4408 -0.823575 0
M  V30 2512 H 241.593 3.04108 0.797853 0
M  V30 2513 N 245.365 1.30045 0.890287 0
M  V30 2514 C 246.593 1.21472 1.67487 0
M  V30 2515 C 247.008 -0.223241 1.87476 0
M  V30 2516 O 246.365 -1.14828 1.41847 0
M  V30 2517 C 246.416 1.93394 3.05419 0
M  V30 2518 O 246.137 3.31576 2.86337 0
M  V30 2519 C 247.638 1.91414 3.99844 0
M  V30 2520 H 244.858 0.420604 0.522813 0
M  V30 2521 H 247.402 1.7158 1.11268 0
M  V30 2522 H 245.557 1.47099 3.58386 0
M  V30 2523 H 245.971 3.67929 3.73802 0
M  V30 2524 H 247.445 2.46285 4.94012 0
M  V30 2525 H 247.922 0.891833 4.3005 0
M  V30 2526 H 248.528 2.37496 3.52811 0
M  V30 2527 N 246.843 -1.10192 1.12674 0
M  V30 2528 C 248.12 -1.78717 0.794965 0
M  V30 2529 C 248.5 -1.98628 -0.714853 0
M  V30 2530 O 247.848 -1.58135 -1.64941 0
M  V30 2531 C 248.058 -3.11546 1.5729 0
M  V30 2532 C 249.406 -3.86382 1.76052 0
M  V30 2533 O 250.43 -3.21274 1.53823 0
M  V30 2534 O 249.289 -5.03246 2.13087 0
M  V30 2535 H 246.383 -0.774702 0.289423 0
M  V30 2536 H 248.929 -1.16819 1.23091 0
M  V30 2537 H 247.701 -2.92489 2.59935 0
M  V30 2538 H 247.324 -3.81164 1.13137 0
M  V30 2539 N 248.321 -0.919034 -1.28029 0
M  V30 2540 C 249.251 -0.428581 -2.29533 0
M  V30 2541 C 250.232 0.50659 -1.62381 0
M  V30 2542 O 251.417 0.413195 -1.89753 0
M  V30 2543 C 248.547 0.327388 -3.45753 0
M  V30 2544 C 247.501 -0.519137 -4.2484 0
M  V30 2545 C 246.827 0.365486 -5.33449 0
M  V30 2546 C 248.127 -1.77914 -4.91064 0
M  V30 2547 H 249.821 -1.27687 -2.70807 0
M  V30 2548 H 247.367 -0.615428 -1.30186 0
M  V30 2549 H 249.32 0.681378 -4.15855 0
M  V30 2550 H 248.044 1.20963 -3.03374 0
M  V30 2551 H 246.703 -0.855717 -3.56473 0
M  V30 2552 H 246.351 1.24642 -4.87312 0
M  V30 2553 H 246.051 -0.197356 -5.87268 0
M  V30 2554 H 247.575 0.715241 -6.06396 0
M  V30 2555 H 248.989 -1.49374 -5.53498 0
M  V30 2556 H 247.386 -2.2848 -5.54903 0
M  V30 2557 H 248.456 -2.50382 -4.15255 0
M  V30 2558 N 249.799 1.42003 -0.683588 0
M  V30 2559 C 251.045 2.01712 -0.209825 0
M  V30 2560 C 251.378 1.53968 1.18353 0
M  V30 2561 O 250.653 0.745661 1.79639 0
M  V30 2562 C 250.936 3.59202 -0.254197 0
M  V30 2563 C 250.789 4.17102 -1.68363 0
M  V30 2564 C 252.108 4.38344 0.392709 0
M  V30 2565 H 249.227 0.732891 -0.0777189 0
M  V30 2566 H 251.869 1.68909 -0.87004 0
M  V30 2567 H 250.019 3.87278 0.307954 0
M  V30 2568 H 251.691 3.99946 -2.29871 0
M  V30 2569 H 249.934 3.72597 -2.22157 0
M  V30 2570 H 250.605 5.26249 -1.6663 0
M  V30 2571 H 253.081 4.16011 -0.0859162 0
M  V30 2572 H 251.957 5.47901 0.331063 0
M  V30 2573 H 252.218 4.16887 1.47164 0
M  V30 2574 N 251.277 0.427512 1.51691 0
M  V30 2575 C 252.524 -0.142229 2.02 0
M  V30 2576 C 252.852 -1.43566 1.31221 0
M  V30 2577 O 252.107 -1.91298 0.412744 0
M  V30 2578 C 252.406 -0.418249 3.54944 0
M  V30 2579 C 252.072 0.788187 4.43958 0
M  V30 2580 C 250.734 1.11906 4.68007 0
M  V30 2581 C 253.086 1.59347 4.96244 0
M  V30 2582 C 250.414 2.25608 5.41588 0
M  V30 2583 C 252.766 2.7214 5.71072 0
M  V30 2584 C 251.43 3.05692 5.93387 0
M  V30 2585 H 250.7 -0.0520451 0.73917 0
M  V30 2586 H 253.347 0.572697 1.82736 0
M  V30 2587 H 251.652 -1.21496 3.72486 0
M  V30 2588 H 253.349 -0.872339 3.91397 0
M  V30 2589 H 249.939 0.520344 4.2543 0
M  V30 2590 H 254.123 1.35106 4.77556 0
M  V30 2591 H 249.379 2.51929 5.57083 0
M  V30 2592 H 253.553 3.34914 6.10578 0
M  V30 2593 H 251.18 3.9391 6.50184 0
M  V30 2594 N 252.755 -1.56801 0.158532 0
M  V30 2595 C 254.001 -1.96781 -0.490405 0
M  V30 2596 C 254.334 -1.04397 -1.63753 0
M  V30 2597 O 253.609 -0.0885805 -1.94298 0
M  V30 2598 C 253.892 -3.4635 -0.985594 0
M  V30 2599 C 253.745 -4.49512 0.160824 0
M  V30 2600 C 255.064 -3.98697 -1.86355 0
M  V30 2601 H 252.183 -0.715482 -0.176788 0
M  V30 2602 H 254.825 -1.88451 0.242088 0
M  V30 2603 H 252.975 -3.53579 -1.60978 0
M  V30 2604 H 254.647 -4.54353 0.797537 0
M  V30 2605 H 252.89 -4.26013 0.818256 0
M  V30 2606 H 253.561 -5.51531 -0.227569 0
M  V30 2607 H 256.037 -3.94019 -1.33746 0
M  V30 2608 H 254.913 -5.03792 -2.17909 0
M  V30 2609 H 255.174 -3.41744 -2.8047 0
M  V30 2610 N 254.233 0.115231 -1.57178 0
M  V30 2611 C 255.48 0.822351 -1.8505 0
M  V30 2612 C 255.808 1.79701 -0.744168 0
M  V30 2613 O 255.063 1.93909 0.26414 0
M  V30 2614 C 255.362 1.60324 -3.19423 0
M  V30 2615 C 255.028 0.772536 -4.44233 0
M  V30 2616 C 253.69 0.543468 -4.78121 0
M  V30 2617 C 256.042 0.193746 -5.2084 0
M  V30 2618 C 253.37 -0.274583 -5.86057 0
M  V30 2619 C 255.722 -0.611517 -6.29637 0
M  V30 2620 C 254.386 -0.850867 -6.62055 0
M  V30 2621 H 253.656 0.30092 -0.677147 0
M  V30 2622 H 256.303 0.0845802 -1.91313 0
M  V30 2623 H 254.608 2.41203 -3.08753 0
M  V30 2624 H 256.305 2.1544 -3.38211 0
M  V30 2625 H 252.895 0.96117 -4.17683 0
M  V30 2626 H 257.079 0.357926 -4.95008 0
M  V30 2627 H 252.335 -0.469206 -6.09597 0
M  V30 2628 H 256.509 -1.06697 -6.88178 0
M  V30 2629 H 254.136 -1.48657 -7.45523 0
M  V30 2630 N 255.711 1.52812 0.385517 0
M  V30 2631 C 256.959 1.67694 1.12797 0
M  V30 2632 C 257.28 0.421115 1.90399 0
M  V30 2633 O 256.55 -0.564551 1.87589 0
M  V30 2634 H 255.13 0.618155 0.419396 0
M  V30 2635 H 257.792 1.89938 0.436972 0
M  V30 2636 H 256.888 2.52896 1.82894 0
M  V30 2637 N 257.189 -0.644168 1.43834 0
M  V30 2638 C 258.419 -1.42939 1.49171 0
M  V30 2639 C 258.827 -1.88874 0.111048 0
M  V30 2640 O 258.17 -1.60656 -0.8908 0
M  V30 2641 C 258.232 -2.69151 2.38324 0
M  V30 2642 C 257.896 -2.45097 3.85715 0
M  V30 2643 C 258.893 -2.07747 4.76589 0
M  V30 2644 C 256.578 -2.59141 4.30292 0
M  V30 2645 C 258.572 -1.8475 6.10038 0
M  V30 2646 C 256.259 -2.35759 5.63792 0
M  V30 2647 C 257.257 -1.9862 6.53482 0
M  V30 2648 O 256.945 -1.75489 7.84512 0
M  V30 2649 H 256.677 -0.445271 0.508635 0
M  V30 2650 H 259.231 -0.79621 1.8934 0
M  V30 2651 H 257.461 -3.3506 1.93058 0
M  V30 2652 H 259.15 -3.31123 2.3476 0
M  V30 2653 H 259.916 -1.96465 4.43426 0
M  V30 2654 H 255.795 -2.87022 3.60749 0
M  V30 2655 H 259.339 -1.55686 6.80006 0
M  V30 2656 H 255.236 -2.46646 5.9652 0
M  V30 2657 H 256.004 -1.89841 7.9618 0
M  V30 2658 N 258.668 -1.30515 -0.883378 0
M  V30 2659 C 259.616 -1.16941 -2.01066 0
M  V30 2660 C 260.61 -0.0809148 -1.69207 0
M  V30 2661 O 261.816 -0.241877 -1.78367 0
M  V30 2662 H 258.191 -0.361705 -0.659298 0
M  V30 2663 H 260.162 -2.12344 -2.09649 0
M  V30 2664 C 258.911 -0.879694 -3.36388 0
M  V30 2665 H 258.234 -1.70936 -3.61415 0
M  V30 2666 H 259.674 -0.82483 -4.159 0
M  V30 2667 C 258.133 0.417409 -3.34304 0
M  V30 2668 O 258.663 1.43843 -3.75063 0
M  V30 2669 N 256.869 0.429141 -2.87414 0
M  V30 2670 H 256.416 -0.402222 -2.5444 0
M  V30 2671 H 256.374 1.29696 -2.86403 0
M  V30 2672 N 260.146 1.09593 -1.13257 0
M  V30 2673 C 261.557 1.63229 -0.906274 0
M  V30 2674 C 261.908 1.8811 0.557578 0
M  V30 2675 O 261.033 1.62953 1.42391 0
M  V30 2676 C 261.628 2.96535 -1.63867 0
M  V30 2677 C 260.187 3.47003 -1.45828 0
M  V30 2678 C 259.334 2.2145 -1.66898 0
M  V30 2679 H 262.285 0.92978 -1.28611 0
M  V30 2680 H 262.306 3.64411 -1.09476 0
M  V30 2681 H 261.818 2.78394 -2.70404 0
M  V30 2682 H 259.919 3.70272 -0.415848 0
M  V30 2683 H 260.032 4.24551 -2.2202 0
M  V30 2684 H 258.396 2.30022 -1.09371 0
M  V30 2685 H 259.179 2.0583 -2.74752 0
M  V30 2686 N 261.624 0.925811 1.2754 0
M  V30 2687 C 262.587 0.428129 2.25166 0
M  V30 2688 C 263.587 -0.452261 1.54309 0
M  V30 2689 O 264.777 -0.253608 1.72344 0
M  V30 2690 C 261.909 -0.384749 3.38722 0
M  V30 2691 H 263.102 1.29066 2.70706 0
M  V30 2692 H 260.655 0.706323 1.3943 0
M  V30 2693 H 261.39 -1.26618 2.98561 0
M  V30 2694 H 261.175 0.246454 3.91325 0
M  V30 2695 H 262.665 -0.723389 4.11287 0
M  V30 2696 N 263.102 -1.41638 0.69111 0
M  V30 2697 C 264.379 -1.95036 0.148421 0
M  V30 2698 C 264.759 -1.63072 -1.34055 0
M  V30 2699 O 264.107 -0.93538 -2.08478 0
M  V30 2700 C 264.317 -3.46279 0.434951 0
M  V30 2701 C 265.665 -4.23069 0.360275 0
M  V30 2702 O 266.689 -3.54277 0.369613 0
M  V30 2703 O 265.548 -5.45583 0.316534 0
M  V30 2704 H 262.642 -0.826908 0.0123654 0
M  V30 2705 H 265.188 -1.5138 0.766963 0
M  V30 2706 H 263.96 -3.6281 1.46576 0
M  V30 2707 H 263.583 -3.97019 -0.214787 0
M  V30 2708 N 264.58 -0.43555 -1.51462 0
M  V30 2709 C 265.805 0.132627 -2.06976 0
M  V30 2710 C 266.23 1.35848 -1.30104 0
M  V30 2711 O 265.588 1.78112 -0.338493 0
M  V30 2712 C 265.636 0.43523 -3.57964 0
M  V30 2713 O 264.74 1.52198 -3.83288 0
M  V30 2714 H 264.081 0.00265 -0.663995 0
M  V30 2715 H 266.611 -0.616369 -1.95095 0
M  V30 2716 H 266.621 0.686206 -4.02188 0
M  V30 2717 H 265.296 -0.460739 -4.1334 0
M  V30 2718 H 263.873 1.2611 -3.50928 0
M  V30 2719 N 266.058 1.56714 -0.166846 0
M  V30 2720 C 267.008 2.14338 0.777382 0
M  V30 2721 C 267.992 1.07642 1.19591 0
M  V30 2722 O 269.184 1.33775 1.15902 0
M  V30 2723 C 266.313 2.78417 2.00846 0
M  V30 2724 C 265.399 3.92264 1.61212 0
M  V30 2725 N 265.79 4.97268 0.925104 0
M  V30 2726 C 264.088 4.03342 1.90346 0
M  V30 2727 C 264.789 5.77093 0.730627 0
M  V30 2728 N 263.765 5.2854 1.27067 0
M  V30 2729 H 267.567 2.9289 0.243466 0
M  V30 2730 H 265.081 1.62364 0.0339954 0
M  V30 2731 H 267.078 3.18073 2.69509 0
M  V30 2732 H 265.738 2.01344 2.54736 0
M  V30 2733 H 266.749 5.14601 0.583646 0
M  V30 2734 H 263.426 3.37368 2.45946 0
M  V30 2735 H 264.816 6.71638 0.187668 0
M  V30 2736 N 267.536 -0.106894 1.57237 0
M  V30 2737 C 268.947 -0.662723 1.74542 0
M  V30 2738 C 269.298 -1.7971 0.787319 0
M  V30 2739 O 268.423 -2.16368 -0.0369636 0
M  V30 2740 C 269.018 -1.20896 3.16496 0
M  V30 2741 C 267.577 -1.71096 3.35266 0
M  V30 2742 C 266.724 -0.615642 2.7038 0
M  V30 2743 H 269.675 0.119106 1.58252 0
M  V30 2744 H 269.696 -2.07847 3.18716 0
M  V30 2745 H 269.208 -0.383122 3.86204 0
M  V30 2746 H 267.309 -2.56119 2.70618 0
M  V30 2747 H 267.422 -1.81208 4.43509 0
M  V30 2748 H 265.786 -1.05222 2.31949 0
M  V30 2749 H 266.569 0.199419 3.4272 0
M  V30 2750 N 269.014 -1.53014 -0.377408 0
M  V30 2751 C 270.263 -1.67845 -1.11853 0
M  V30 2752 C 270.576 -0.430625 -1.90801 0
M  V30 2753 O 271.782 -0.459261 -2.67587 0
M  V30 2754 C 270.238 -2.96668 -2.03756 0
M  V30 2755 C 269.846 -4.28671 -1.30175 0
M  V30 2756 C 271.59 -3.20865 -2.77932 0
M  V30 2757 C 269.497 -5.48591 -2.20911 0
M  V30 2758 H 268.427 -0.625343 -0.421263 0
M  V30 2759 H 271.078 -1.79514 -0.380409 0
M  V30 2760 H 269.46 -2.78773 -2.8125 0
M  V30 2761 H 270.634 -4.57157 -0.578259 0
M  V30 2762 H 268.949 -4.10825 -0.679108 0
M  V30 2763 H 271.546 -4.07642 -3.46024 0
M  V30 2764 H 271.889 -2.36424 -3.4265 0
M  V30 2765 H 272.422 -3.39379 -2.07525 0
M  V30 2766 H 269.161 -6.35474 -1.6079 0
M  V30 2767 H 268.681 -5.244 -2.91144 0
M  V30 2768 H 270.36 -5.8292 -2.80736 0
M  V30 2769 N 270.492 0.636531 -1.44174 0
M  V30 2770 C 271.738 1.39826 -1.4689 0
M  V30 2771 C 272.071 1.93947 -0.0990585 0
M  V30 2772 O 271.346 1.73325 0.882544 0
M  V30 2773 C 271.629 2.56751 -2.5249 0
M  V30 2774 C 271.482 2.08014 -3.98811 0
M  V30 2775 C 272.801 3.58946 -2.54649 0
M  V30 2776 H 269.92 0.507075 -0.53483 0
M  V30 2777 H 272.562 0.720188 -1.75822 0
M  V30 2778 H 270.712 3.14597 -2.2795 0
M  V30 2779 H 272.384 1.5504 -4.34466 0
M  V30 2780 H 270.627 1.39242 -4.10846 0
M  V30 2781 H 271.298 2.92169 -4.68339 0
M  V30 2782 H 273.774 3.1089 -2.76563 0
M  V30 2783 H 272.65 4.38286 -3.3045 0
M  V30 2784 H 272.911 4.12655 -1.58646 0
M  V30 2785 N 271.97 1.30982 0.876444 0
M  V30 2786 C 272.933 1.18054 1.96459 0
M  V30 2787 C 273.933 0.109399 1.60427 0
M  V30 2788 O 275.123 0.358173 1.70478 0
M  V30 2789 C 272.255 0.810616 3.31122 0
M  V30 2790 H 273.448 2.14735 2.09354 0
M  V30 2791 H 271.001 1.145 1.06392 0
M  V30 2792 H 271.736 -0.155322 3.23928 0
M  V30 2793 H 271.521 1.58481 3.58645 0
M  V30 2794 H 273.011 0.743876 4.10921 0
M  V30 2795 N 273.449 -1.08991 1.13837 0
M  V30 2796 C 274.397 -2.17841 0.815347 0
M  V30 2797 C 275.391 -1.68164 -0.204233 0
M  V30 2798 O 276.597 -1.79897 -0.0609304 0
M  V30 2799 H 272.972 -0.710654 0.245915 0
M  V30 2800 H 274.943 -2.42315 1.74143 0
M  V30 2801 C 273.692 -3.46381 0.302614 0
M  V30 2802 H 273.015 -3.84979 1.0785 0
M  V30 2803 H 274.455 -4.23844 0.115074 0
M  V30 2804 C 272.914 -3.22556 -0.972591 0
M  V30 2805 O 273.444 -3.45599 -2.04754 0
M  V30 2806 N 271.65 -2.76134 -0.905455 0
M  V30 2807 H 271.197 -2.57582 -0.0305421 0
M  V30 2808 H 271.155 -2.60571 -1.75926 0
M  V30 2809 N 274.927 -0.932562 -1.27047 0
M  V30 2810 C 275.877 -0.406392 -2.24349 0
M  V30 2811 C 276.861 0.492066 -1.53191 0
M  V30 2812 O 278.053 0.328717 -1.73921 0
M  V30 2813 C 275.182 0.335214 -3.41659 0
M  V30 2814 C 274.268 -0.58004 -4.20115 0
M  V30 2815 N 274.659 -1.70203 -4.76303 0
M  V30 2816 C 272.957 -0.383974 -4.44344 0
M  V30 2817 C 273.658 -2.27167 -5.35509 0
M  V30 2818 N 272.634 -1.56068 -5.20715 0
M  V30 2819 H 276.436 -1.26299 -2.65378 0
M  V30 2820 H 273.95 -0.787408 -1.42034 0
M  V30 2821 H 275.947 0.729142 -4.10474 0
M  V30 2822 H 274.607 1.18868 -3.0216 0
M  V30 2823 H 275.618 -2.08433 -4.74106 0
M  V30 2824 H 272.295 0.428436 -4.15296 0
M  V30 2825 H 273.685 -3.21654 -5.89905 0
M  V30 2826 N 276.405 1.4127 -0.698611 0
M  V30 2827 C 277.651 2.01478 -0.231207 0
M  V30 2828 C 277.984 1.55215 1.16713 0
M  V30 2829 O 277.259 0.764672 1.78838 0
M  V30 2830 C 277.542 3.58912 -0.292281 0
M  V30 2831 C 277.395 4.15293 -1.72778 0
M  V30 2832 C 278.714 4.38736 0.346194 0
M  V30 2833 H 275.833 0.732025 -0.0854878 0
M  V30 2834 H 278.475 1.67977 -0.887906 0
M  V30 2835 H 276.625 3.87582 0.26686 0
M  V30 2836 H 278.297 3.97486 -2.341 0
M  V30 2837 H 276.54 3.7022 -2.26096 0
M  V30 2838 H 277.211 5.24452 -1.72202 0
M  V30 2839 H 279.687 4.15897 -0.130035 0
M  V30 2840 H 278.563 5.48221 0.272932 0
M  V30 2841 H 278.824 4.18425 1.42734 0
M  V30 2842 N 277.883 0.443576 1.51229 0
M  V30 2843 C 279.132 -0.122332 2.01329 0
M  V30 2844 C 279.445 -1.43237 1.33201 0
M  V30 2845 O 280.651 -2.0816 1.74304 0
M  V30 2846 C 279.107 -0.268551 3.58897 0
M  V30 2847 C 278.715 1.03142 4.35965 0
M  V30 2848 C 280.459 -0.787894 4.17124 0
M  V30 2849 C 278.366 0.850504 5.85252 0
M  V30 2850 H 277.296 -0.0494929 0.752374 0
M  V30 2851 H 279.947 0.574289 1.74282 0
M  V30 2852 H 278.329 -1.02832 3.82415 0
M  V30 2853 H 279.503 1.80001 4.24189 0
M  V30 2854 H 277.818 1.47977 3.89219 0
M  V30 2855 H 280.415 -0.939841 5.26375 0
M  V30 2856 H 280.758 -1.77201 3.76703 0
M  V30 2857 H 281.291 -0.0862669 3.97706 0
M  V30 2858 H 278.03 1.80718 6.30096 0
M  V30 2859 H 277.55 0.121825 5.99676 0
M  V30 2860 H 279.229 0.506163 6.45017 0
M  V30 2861 N 279.361 -1.56624 0.175154 0
M  V30 2862 C 280.309 -2.19468 -0.770495 0
M  V30 2863 C 281.303 -1.15985 -1.23466 0
M  V30 2864 O 282.509 -1.34176 -1.19987 0
M  V30 2865 H 278.884 -0.703095 -0.266761 0
M  V30 2866 H 280.855 -2.97613 -0.216542 0
M  V30 2867 C 279.604 -2.85264 -1.98796 0
M  V30 2868 H 278.927 -3.64623 -1.63983 0
M  V30 2869 H 280.367 -3.327 -2.62843 0
M  V30 2870 C 278.826 -1.85239 -2.81404 0
M  V30 2871 O 279.356 -1.34024 -3.78682 0
M  V30 2872 N 277.562 -1.53911 -2.46495 0
M  V30 2873 H 277.109 -1.95751 -1.67449 0
M  V30 2874 H 277.067 -0.872382 -3.02054 0
M  V30 2875 N 280.839 0.0985539 -1.57292 0
M  V30 2876 C 281.802 1.10402 -2.00858 0
M  V30 2877 C 282.802 1.33146 -0.901593 0
M  V30 2878 O 283.992 1.29318 -1.16716 0
M  V30 2879 C 281.124 2.45394 -2.36632 0
M  V30 2880 H 282.317 0.729099 -2.90902 0
M  V30 2881 H 279.87 0.343495 -1.52479 0
M  V30 2882 H 280.605 2.87769 -1.49531 0
M  V30 2883 H 280.39 2.30235 -3.17387 0
M  V30 2884 H 281.88 3.17718 -2.71007 0
M  V30 2885 N 282.317 1.53212 0.369288 0
M  V30 2886 C 283.264 1.79388 1.45219 0
M  V30 2887 C 284.234 0.638059 1.53356 0
M  V30 2888 O 285.419 0.879852 1.69302 0
M  V30 2889 C 282.559 1.98623 2.82211 0
M  V30 2890 C 281.672 3.26337 2.8307 0
M  V30 2891 C 280.807 3.35779 4.11614 0
M  V30 2892 C 279.846 4.5754 4.06601 0
M  V30 2893 N 278.983 4.64155 5.26787 0
M  V30 2894 H 283.823 2.71794 1.22198 0
M  V30 2895 H 281.36 1.34642 0.592444 0
M  V30 2896 H 283.318 2.07761 3.61789 0
M  V30 2897 H 281.948 1.09558 3.03639 0
M  V30 2898 H 281 3.26171 1.95747 0
M  V30 2899 H 282.312 4.15988 2.75237 0
M  V30 2900 H 281.466 3.44208 4.99606 0
M  V30 2901 H 280.205 2.44137 4.22195 0
M  V30 2902 H 279.21 4.49215 3.16996 0
M  V30 2903 H 280.435 5.50519 3.97625 0
M  V30 2904 H 278.381 3.75413 5.3796 0
M  V30 2905 H 278.298 5.47706 5.21109 0
M  V30 2906 H 279.566 4.76863 6.16621 0
M  V30 2907 N 283.795 -0.628877 1.44509 0
M  V30 2908 C 285.211 -0.947305 1.28446 0
M  V30 2909 C 285.411 -2.00275 0.221872 0
M  V30 2910 O 284.467 -2.49447 -0.391471 0
M  V30 2911 C 285.78 -1.40843 2.65676 0
M  V30 2912 C 287.328 -1.52379 2.73404 0
M  V30 2913 C 287.803 -2.01875 4.11109 0
M  V30 2914 N 289.294 -2.09142 4.13296 0
M  V30 2915 C 290.029 -2.48615 5.16699 0
M  V30 2916 N 289.525 -2.87209 6.30462 0
M  V30 2917 N 291.318 -2.48768 5.04054 0
M  V30 2918 H 283.469 0.0690977 2.12288 0
M  V30 2919 H 285.732 -0.0317164 0.947469 0
M  V30 2920 H 285.438 -0.707206 3.44516 0
M  V30 2921 H 285.312 -2.37902 2.92716 0
M  V30 2922 H 287.699 -2.21598 1.9488 0
M  V30 2923 H 287.78 -0.536898 2.50102 0
M  V30 2924 H 287.424 -1.3325 4.90109 0
M  V30 2925 H 287.354 -3.0144 4.31789 0
M  V30 2926 H 289.845 -1.81991 3.31191 0
M  V30 2927 H 290.158 -3.16149 7.05174 0
M  V30 2928 H 288.503 -2.84955 6.33897 0
M  V30 2929 H 291.694 -2.18009 4.14234 0
M  V30 2930 H 291.867 -2.79207 5.84763 0
M  V30 2931 N 285.273 -1.31445 -0.869486 0
M  V30 2932 C 286.221 -1.19067 -1.99814 0
M  V30 2933 C 287.215 -0.0988569 -1.69111 0
M  V30 2934 O 288.421 -0.260781 -1.78101 0
M  V30 2935 H 284.796 -0.368677 -0.655425 0
M  V30 2936 H 286.767 -2.14555 -2.07385 0
M  V30 2937 C 285.516 -0.915323 -3.35436 0
M  V30 2938 H 284.839 -1.74759 -3.59582 0
M  V30 2939 H 286.279 -0.868895 -4.15001 0
M  V30 2940 C 284.738 0.381928 -3.34728 0
M  V30 2941 O 285.268 1.39857 -3.76567 0
M  V30 2942 N 283.474 0.398633 -2.87853 0
M  V30 2943 H 283.021 -0.429186 -2.54 0
M  V30 2944 H 282.979 1.26651 -2.87762 0
M  V30 2945 N 286.751 1.08385 -1.14413 0
M  V30 2946 C 287.999 1.80419 -0.910679 0
M  V30 2947 C 288.32 1.86658 0.564243 0
M  V30 2948 O 287.59 1.35985 1.41014 0
M  V30 2949 H 286.17 0.668204 -0.333934 0
M  V30 2950 H 288.832 1.31037 -1.44275 0
M  V30 2951 H 287.928 2.83238 -1.31082 0
M  V30 2952 N 288.23 0.939286 1.26551 0
M  V30 2953 C 289.193 0.451987 2.24699 0
M  V30 2954 C 290.193 -0.435869 1.5478 0
M  V30 2955 O 291.383 -0.235314 1.72603 0
M  V30 2956 C 288.515 -0.348801 3.39111 0
M  V30 2957 H 289.708 1.3193 2.69322 0
M  V30 2958 H 287.261 0.721072 1.38673 0
M  V30 2959 H 287.996 -1.23444 2.99887 0
M  V30 2960 H 287.781 0.287945 3.91041 0
M  V30 2961 H 289.271 -0.679726 4.12031 0
M  V30 2962 N 289.708 -1.40897 0.706093 0
M  V30 2963 C 290.655 -2.30751 0.0474474 0
M  V30 2964 C 291.625 -1.47678 -0.76029 0
M  V30 2965 O 292.81 -1.76441 -0.726177 0
M  V30 2966 C 289.95 -3.33815 -0.875309 0
M  V30 2967 C 289.063 -4.31961 -0.0580623 0
M  V30 2968 C 288.198 -5.22093 -0.979425 0
M  V30 2969 C 287.237 -6.11902 -0.155706 0
M  V30 2970 N 286.374 -6.94482 -1.03144 0
M  V30 2971 H 291.214 -2.86513 0.819413 0
M  V30 2972 H 288.751 -1.41102 0.415783 0
M  V30 2973 H 290.709 -3.92129 -1.42446 0
M  V30 2974 H 289.339 -2.79579 -1.61356 0
M  V30 2975 H 288.391 -3.75507 0.608147 0
M  V30 2976 H 289.703 -4.95415 0.580082 0
M  V30 2977 H 288.857 -5.85292 -1.59744 0
M  V30 2978 H 287.596 -4.5889 -1.65141 0
M  V30 2979 H 286.601 -5.47742 0.475309 0
M  V30 2980 H 287.826 -6.77162 0.512635 0
M  V30 2981 H 285.772 -6.33877 -1.68924 0
M  V30 2982 H 285.689 -7.54665 -0.449108 0
M  V30 2983 H 286.957 -7.6214 -1.63593 0
M  V30 2984 N 291.186 -0.45159 -1.50991 0
M  V30 2985 C 292.435 0.111653 -2.01391 0
M  V30 2986 C 292.748 1.42529 -1.33959 0
M  V30 2987 O 293.954 2.07232 -1.75405 0
M  V30 2988 C 292.41 0.249514 -3.59034 0
M  V30 2989 C 292.018 -1.05453 -4.35412 0
M  V30 2990 C 293.762 0.765762 -4.17536 0
M  V30 2991 C 291.669 -0.881529 -5.84793 0
M  V30 2992 H 290.599 0.0455022 -0.752626 0
M  V30 2993 H 293.25 -0.583524 -1.73975 0
M  V30 2994 H 291.632 1.00803 -3.82955 0
M  V30 2995 H 292.806 -1.82248 -4.23229 0
M  V30 2996 H 291.121 -1.50039 -3.88429 0
M  V30 2997 H 293.718 0.911913 -5.26866 0
M  V30 2998 H 294.061 1.75201 -3.77638 0
M  V30 2999 H 294.594 0.0651744 -3.97747 0
M  V30 3000 H 291.333 -1.84057 -6.29129 0
M  V30 3001 H 290.853 -0.153625 -5.99603 0
M  V30 3002 H 292.532 -0.540363 -6.4474 0
M  V30 3003 N 292.664 1.56529 -0.183458 0
M  V30 3004 C 293.913 1.96419 0.458511 0
M  V30 3005 C 294.226 1.0727 1.63562 0
M  V30 3006 O 295.432 1.36893 2.34462 0
M  V30 3007 C 293.888 3.49298 0.867122 0
M  V30 3008 C 293.496 4.47092 -0.285057 0
M  V30 3009 C 295.24 3.97983 1.47683 0
M  V30 3010 C 293.147 5.91225 0.143862 0
M  V30 3011 H 292.077 0.733394 0.175071 0
M  V30 3012 H 294.728 1.81448 -0.273624 0
M  V30 3013 H 293.11 3.59731 1.65559 0
M  V30 3014 H 294.284 4.48383 -1.0625 0
M  V30 3015 H 292.599 4.08535 -0.805503 0
M  V30 3016 H 295.196 5.03134 1.80999 0
M  V30 3017 H 295.539 3.41618 2.37914 0
M  V30 3018 H 296.072 3.90617 0.752562 0
M  V30 3019 H 292.811 6.5149 -0.723974 0
M  V30 3020 H 292.331 5.93214 0.886413 0
M  V30 3021 H 294.01 6.44362 0.583628 0
M  V30 3022 N 294.142 -0.090211 1.57342 0
M  V30 3023 C 295.388 -0.793982 1.86611 0
M  V30 3024 C 295.721 -1.78142 0.773252 0
M  V30 3025 O 294.996 -1.93271 -0.218304 0
M  V30 3026 C 295.279 -1.51839 3.26523 0
M  V30 3027 C 295.132 -0.548609 4.46442 0
M  V30 3028 C 296.451 -2.46779 3.64401 0
M  V30 3029 H 293.57 -0.287186 0.678744 0
M  V30 3030 H 296.212 -0.0575076 1.89913 0
M  V30 3031 H 294.362 -2.14617 3.23839 0
M  V30 3032 H 296.034 0.0725513 4.61243 0
M  V30 3033 H 294.277 0.137614 4.33582 0
M  V30 3034 H 294.948 -1.09271 5.41076 0
M  V30 3035 H 297.424 -1.94089 3.68061 0
M  V30 3036 H 296.3 -2.94479 4.63221 0
M  V30 3037 H 296.561 -3.30758 2.93346 0
M  V30 3038 N 295.62 -1.53406 -0.361157 0
M  V30 3039 C 296.86 -1.71507 -1.11197 0
M  V30 3040 C 297.224 -0.459337 -1.86425 0
M  V30 3041 O 298.425 -0.517102 -2.63779 0
M  V30 3042 C 296.696 -2.93307 -2.0422 0
M  V30 3043 S 298.255 -3.32135 -2.86761 0
M  V30 3044 H 295.073 -0.603448 -0.375995 0
M  V30 3045 H 297.675 -1.91516 -0.392642 0
M  V30 3046 H 296.379 -3.82891 -1.47724 0
M  V30 3047 H 295.91 -2.75712 -2.80618 0
M  V30 3048 H 297.925 -2.84493 -4.06544 0
M  V30 3049 N 297.098 0.621204 -1.44841 0
M  V30 3050 C 298.375 1.38 -1.38619 0
M  V30 3051 C 298.755 2.11041 -0.0498935 0
M  V30 3052 O 298.103 2.06992 0.967816 0
M  V30 3053 C 298.313 2.33817 -2.59096 0
M  V30 3054 C 299.661 2.96844 -3.03593 0
M  V30 3055 O 300.685 2.44141 -2.59371 0
M  V30 3056 O 299.544 3.92476 -3.80296 0
M  V30 3057 H 296.638 0.61811 -0.549426 0
M  V30 3058 H 299.184 0.645429 -1.56947 0
M  V30 3059 H 297.956 1.79012 -3.47952 0
M  V30 3060 H 297.579 3.14676 -2.43032 0
M  V30 3061 N 298.576 1.31904 0.862503 0
M  V30 3062 C 299.987 1.19803 1.43193 0
M  V30 3063 C 300.338 -0.192567 1.95253 0
M  V30 3064 O 299.463 -1.09081 1.86896 0
M  V30 3065 C 300.058 2.16883 2.60283 0
M  V30 3066 C 298.617 2.08692 3.13248 0
M  V30 3067 C 297.764 2.05691 1.85975 0
M  V30 3068 H 300.715 1.43846 0.670365 0
M  V30 3069 H 300.736 1.76278 3.37204 0
M  V30 3070 H 300.248 3.18083 2.22363 0
M  V30 3071 H 298.349 1.10713 3.55771 0
M  V30 3072 H 298.462 2.9815 3.75025 0
M  V30 3073 H 296.826 1.50814 2.05249 0
M  V30 3074 H 297.609 3.08659 1.50282 0
M  V30 3075 N 300.054 -1.07777 1.14986 0
M  V30 3076 C 301.47 -1.32373 0.891596 0
M  V30 3077 C 301.67 -1.9609 -0.463788 0
M  V30 3078 O 300.726 -2.21801 -1.20667 0
M  V30 3079 C 302.039 -2.21905 2.02925 0
M  V30 3080 C 303.587 -2.35367 2.06329 0
M  V30 3081 C 304.062 -3.28245 3.19405 0
M  V30 3082 N 305.553 -3.35824 3.19024 0
M  V30 3083 C 306.288 -4.07739 4.03158 0
M  V30 3084 N 305.784 -4.82306 4.97346 0
M  V30 3085 N 307.577 -4.03635 3.91197 0
M  V30 3086 H 299.728 -0.648039 2.02273 0
M  V30 3087 H 301.991 -0.348149 0.881757 0
M  V30 3088 H 301.697 -1.82342 3.0074 0
M  V30 3089 H 301.571 -3.22407 1.95789 0
M  V30 3090 H 303.958 -2.74186 1.09116 0
M  V30 3091 H 304.039 -1.34585 2.17533 0
M  V30 3092 H 303.683 -2.90146 4.16867 0
M  V30 3093 H 303.613 -4.28971 3.05437 0
M  V30 3094 H 306.104 -2.8267 2.50811 0
M  V30 3095 H 306.417 -5.34661 5.57994 0
M  V30 3096 H 304.762 -4.81337 5.01338 0
M  V30 3097 H 307.953 -3.44491 3.16928 0
M  V30 3098 H 308.126 -4.59417 4.5699 0
M  V30 3099 N 301.532 -0.945985 -1.26051 0
M  V30 3100 C 302.479 -0.45809 -2.26208 0
M  V30 3101 C 303.449 0.484816 -1.58867 0
M  V30 3102 O 304.634 0.399969 -1.86561 0
M  V30 3103 C 301.774 0.266131 -3.44072 0
M  V30 3104 C 300.887 -0.713005 -4.26075 0
M  V30 3105 C 300.022 0.0329013 -5.3119 0
M  V30 3106 C 299.061 -0.93774 -6.04874 0
M  V30 3107 N 298.198 -0.223274 -7.01745 0
M  V30 3108 H 303.038 -1.3171 -2.67313 0
M  V30 3109 H 300.575 -0.66069 -1.31428 0
M  V30 3110 H 302.533 0.702514 -4.11243 0
M  V30 3111 H 301.163 1.08925 -3.03867 0
M  V30 3112 H 300.215 -1.26789 -3.58648 0
M  V30 3113 H 301.527 -1.45406 -4.77136 0
M  V30 3114 H 300.681 0.528335 -6.04395 0
M  V30 3115 H 299.42 0.806801 -4.8098 0
M  V30 3116 H 298.425 -1.44425 -5.30492 0
M  V30 3117 H 299.65 -1.71172 -6.57173 0
M  V30 3118 H 297.596 0.532046 -6.53839 0
M  V30 3119 H 297.513 -0.90357 -7.50581 0
M  V30 3120 H 298.781 0.250907 -7.79096 0
M  V30 3121 N 303.011 1.40521 -0.713556 0
M  V30 3122 C 304.26 2.00155 -0.249192 0
M  V30 3123 C 304.573 1.57224 1.16362 0
M  V30 3124 O 305.779 2.09542 1.72639 0
M  V30 3125 C 304.235 3.5773 -0.3946 0
M  V30 3126 C 303.843 4.09635 -1.81392 0
M  V30 3127 C 305.587 4.24499 0.00907364 0
M  V30 3128 C 303.494 5.59707 -1.91003 0
M  V30 3129 H 302.424 0.74868 -0.0894114 0
M  V30 3130 H 305.075 1.60784 -0.884352 0
M  V30 3131 H 303.457 3.94792 0.30911 0
M  V30 3132 H 304.631 3.83955 -2.54785 0
M  V30 3133 H 302.946 3.55456 -2.16888 0
M  V30 3134 H 305.543 5.34683 -0.0420404 0
M  V30 3135 H 305.886 4.02824 1.05065 0
M  V30 3136 H 306.419 3.92536 -0.645007 0
M  V30 3137 H 303.158 5.86234 -2.93275 0
M  V30 3138 H 302.678 5.87258 -1.22019 0
M  V30 3139 H 304.357 6.24776 -1.6812 0
M  V30 3140 N 304.489 0.459591 1.5075 0
M  V30 3141 C 305.399 -0.34613 2.32033 0
M  V30 3142 C 306.415 -1.00686 1.41909 0
M  V30 3143 O 307.591 -0.997361 1.7497 0
M  V30 3144 C 304.656 -1.42029 3.16273 0
M  V30 3145 C 303.717 -0.777362 4.22203 0
M  V30 3146 C 302.95 -1.80034 5.02418 0
M  V30 3147 O 303.173 -3.02544 4.83553 0
M  V30 3148 O 302.107 -1.37853 5.85901 0
M  V30 3149 H 305.933 0.318054 3.0203 0
M  V30 3150 H 303.518 0.221663 1.47746 0
M  V30 3151 H 305.4 -2.04275 3.68578 0
M  V30 3152 H 304.075 -2.06815 2.49016 0
M  V30 3153 H 302.982 -0.116256 3.73919 0
M  V30 3154 H 304.315 -0.172634 4.91897 0
M  V30 3155 N 305.967 -1.56429 0.191757 0
M  V30 3156 C 307.195 -2.01867 -0.453586 0
M  V30 3157 C 307.61 -1.07191 -1.5542 0
M  V30 3158 O 306.967 -0.0762108 -1.82341 0
M  V30 3159 C 307.018 -3.47017 -1.013 0
M  V30 3160 O 306.739 -4.38078 0.0437005 0
M  V30 3161 C 308.24 -4.07956 -1.73456 0
M  V30 3162 H 305.46 -0.661211 -0.114199 0
M  V30 3163 H 308.004 -2.02295 0.299483 0
M  V30 3164 H 306.159 -3.47298 -1.71647 0
M  V30 3165 H 306.573 -5.23178 -0.372212 0
M  V30 3166 H 308.047 -5.1138 -2.07833 0
M  V30 3167 H 308.524 -3.51222 -2.63704 0
M  V30 3168 H 309.13 -4.11437 -1.07702 0
M  V30 3169 N 307.445 0.0818655 -1.57387 0
M  V30 3170 C 308.408 1.08265 -2.02018 0
M  V30 3171 C 309.408 1.32183 -0.915664 0
M  V30 3172 O 310.598 1.28073 -1.18081 0
M  V30 3173 C 307.73 2.42871 -2.39221 0
M  V30 3174 H 308.923 0.698204 -2.91659 0
M  V30 3175 H 306.476 0.327303 -1.52835 0
M  V30 3176 H 307.211 2.86167 -1.52575 0
M  V30 3177 H 306.996 2.26855 -3.19811 0
M  V30 3178 H 308.486 3.14826 -2.74362 0
M  V30 3179 N 308.923 1.53595 0.353017 0
M  V30 3180 C 310.339 1.43648 0.695516 0
M  V30 3181 C 310.539 0.585617 1.92802 0
M  V30 3182 O 309.595 0.0729223 2.52395 0
M  V30 3183 C 310.908 2.8701 0.896991 0
M  V30 3184 C 312.456 2.96723 0.996209 0
M  V30 3185 C 312.931 4.41173 1.23007 0
M  V30 3186 N 314.422 4.44657 1.29749 0
M  V30 3187 C 315.157 5.53547 1.49577 0
M  V30 3188 N 314.653 6.72461 1.66639 0
M  V30 3189 N 316.446 5.41145 1.52048 0
M  V30 3190 H 308.597 2.07415 -0.457481 0
M  V30 3191 H 310.86 0.9372 -0.142687 0
M  V30 3192 H 310.566 3.51644 0.0629938 0
M  V30 3193 H 310.44 3.31401 1.80148 0
M  V30 3194 H 312.827 2.32235 1.82074 0
M  V30 3195 H 312.908 2.55707 0.0688331 0
M  V30 3196 H 312.552 5.06238 0.410505 0
M  V30 3197 H 312.482 4.79772 2.17086 0
M  V30 3198 H 314.973 3.58963 1.18126 0
M  V30 3199 H 315.286 7.51214 1.81378 0
M  V30 3200 H 313.631 6.75423 1.63794 0
M  V30 3201 H 316.822 4.47205 1.38294 0
M  V30 3202 H 316.995 6.26068 1.67159 0
M  V30 3203 N 310.401 -0.613514 1.45168 0
M  V30 3204 C 311.65 -1.36874 1.4815 0
M  V30 3205 C 311.963 -1.952 0.124982 0
M  V30 3206 O 313.169 -2.71481 0.0324176 0
M  V30 3207 C 311.625 -2.47905 2.60904 0
M  V30 3208 C 311.233 -1.96016 4.02842 0
M  V30 3209 C 312.977 -3.24965 2.73126 0
M  V30 3210 C 310.884 -3.04494 5.06988 0
M  V30 3211 H 309.814 -0.514428 0.551253 0
M  V30 3212 H 312.465 -0.658182 1.7129 0
M  V30 3213 H 310.847 -3.21618 2.31037 0
M  V30 3214 H 312.021 -1.29051 4.4236 0
M  V30 3215 H 310.336 -1.31719 3.95018 0
M  V30 3216 H 312.933 -4.05865 3.48106 0
M  V30 3217 H 313.276 -3.75588 1.79553 0
M  V30 3218 H 313.809 -2.5835 3.0249 0
M  V30 3219 H 310.548 -2.58795 6.0225 0
M  V30 3220 H 310.068 -3.70044 4.72046 0
M  V30 3221 H 311.747 -3.68976 5.31475 0
M  V30 3222 N 311.879 -1.3236 -0.855495 0
M  V30 3223 C 312.842 -1.21164 -1.94556 0
M  V30 3224 C 313.842 -0.134908 -1.60233 0
M  V30 3225 O 315.032 -0.385249 -1.69887 0
M  V30 3226 C 312.164 -0.863192 -3.29791 0
M  V30 3227 H 313.357 -2.18038 -2.05911 0
M  V30 3228 H 310.91 -1.16179 -1.04557 0
M  V30 3229 H 311.645 0.103769 -3.24134 0
M  V30 3230 H 311.43 -1.64166 -3.56078 0
M  V30 3231 H 312.92 -0.809156 -4.09686 0
M  V30 3232 N 313.357 1.07166 -1.15556 0
M  V30 3233 C 314.634 1.76546 -0.842069 0
M  V30 3234 C 315.014 2.00453 0.661939 0
M  V30 3235 O 314.362 1.62452 1.60691 0
M  V30 3236 C 314.572 3.07266 -1.65495 0
M  V30 3237 C 315.92 3.81578 -1.86234 0
M  V30 3238 O 316.944 3.17083 -1.62287 0
M  V30 3239 O 315.803 4.97419 -2.26355 0
M  V30 3240 H 312.897 0.766756 -0.309862 0
M  V30 3241 H 315.443 1.13514 -1.26145 0
M  V30 3242 H 314.215 2.85494 -2.67598 0
M  V30 3243 H 313.838 3.7803 -1.23203 0
M  V30 3244 N 314.835 0.952656 1.25548 0
M  V30 3245 C 315.768 0.415525 2.24385 0
M  V30 3246 C 316.746 -0.502046 1.54655 0
M  V30 3247 O 317.93 -0.436875 1.83368 0
M  V30 3248 C 315.057 -0.401734 3.36309 0
M  V30 3249 C 314.103 0.455949 4.24056 0
M  V30 3250 S 314.936 1.88698 5.01152 0
M  V30 3251 C 316.092 1.07809 6.16545 0
M  V30 3252 H 316.325 1.25315 2.69599 0
M  V30 3253 H 313.858 0.756587 1.34592 0
M  V30 3254 H 315.816 -0.867329 4.01233 0
M  V30 3255 H 314.477 -1.21416 2.89684 0
M  V30 3256 H 313.67 -0.170776 5.03711 0
M  V30 3257 H 313.272 0.856675 3.64056 0
M  V30 3258 H 315.564 0.325816 6.76716 0
M  V30 3259 H 316.507 1.84849 6.83547 0
M  V30 3260 H 316.915 0.60909 5.61204 0
M  V30 3261 N 316.313 -1.40141 0.720998 0
M  V30 3262 C 317.263 -2.27949 0.0482544 0
M  V30 3263 C 318.247 -1.43538 -0.727021 0
M  V30 3264 O 319.439 -1.6658 -0.598332 0
M  V30 3265 C 316.568 -3.32126 -0.868729 0
M  V30 3266 C 315.654 -4.24008 -0.0883515 0
M  V30 3267 N 316.045 -4.97154 0.931226 0
M  V30 3268 C 314.343 -4.4485 -0.320105 0
M  V30 3269 C 315.044 -5.64587 1.4006 0
M  V30 3270 N 314.02 -5.38787 0.721752 0
M  V30 3271 H 317.822 -2.81948 0.829609 0
M  V30 3272 H 315.336 -1.52656 0.554067 0
M  V30 3273 H 317.333 -3.93884 -1.36605 0
M  V30 3274 H 315.993 -2.79687 -1.6494 0
M  V30 3275 H 317.004 -5.01 1.31222 0
M  V30 3276 H 313.681 -4.03378 -1.07668 0
M  V30 3277 H 315.071 -6.33175 2.24808 0
M  V30 3278 N 317.792 -0.46758 -1.50504 0
M  V30 3279 C 319.041 0.0902868 -2.01498 0
M  V30 3280 C 319.354 1.411 -1.35463 0
M  V30 3281 O 320.56 2.0536 -1.77594 0
M  V30 3282 C 319.016 0.21142 -3.59278 0
M  V30 3283 C 318.624 -1.10065 -4.34269 0
M  V30 3284 C 320.368 0.721433 -4.18325 0
M  V30 3285 C 318.275 -0.943505 -5.83825 0
M  V30 3286 H 317.205 0.037517 -0.753066 0
M  V30 3287 H 319.856 -0.601943 -1.73346 0
M  V30 3288 H 318.238 0.967352 -3.84003 0
M  V30 3289 H 319.412 -1.86726 -4.21272 0
M  V30 3290 H 317.727 -1.5415 -3.86816 0
M  V30 3291 H 320.324 0.85598 -5.27804 0
M  V30 3292 H 320.667 1.71186 -3.79475 0
M  V30 3293 H 321.2 0.0229843 -3.97793 0
M  V30 3294 H 317.939 -1.90719 -6.27141 0
M  V30 3295 H 317.459 -0.217213 -5.99407 0
M  V30 3296 H 319.138 -0.608715 -6.4413 0
M  V30 3297 N 319.27 1.56325 -0.20005 0
M  V30 3298 C 320.233 2.18084 0.705132 0
M  V30 3299 C 321.233 1.13666 1.1374 0
M  V30 3300 O 322.423 1.39023 1.04968 0
M  V30 3301 C 319.555 2.78689 1.96329 0
M  V30 3302 H 320.748 2.99435 0.167023 0
M  V30 3303 H 318.301 1.56221 0.0495725 0
M  V30 3304 H 319.036 2.0115 2.5438 0
M  V30 3305 H 318.821 3.55133 1.66202 0
M  V30 3306 H 320.311 3.26096 2.60866 0
M  V30 3307 N 320.748 -0.0735177 1.57428 0
M  V30 3308 C 321.678 -1.0879 2.06608 0
M  V30 3309 C 322.659 -1.40473 0.959237 0
M  V30 3310 O 323.844 -1.5013 1.23185 0
M  V30 3311 C 320.974 -2.40183 2.50857 0
M  V30 3312 C 319.928 -2.22858 3.65402 0
M  V30 3313 C 319.254 -3.59619 3.957 0
M  V30 3314 C 320.554 -1.65123 4.95511 0
M  V30 3315 H 322.248 -0.678673 2.91607 0
M  V30 3316 H 319.794 -0.325013 1.40284 0
M  V30 3317 H 321.747 -3.11437 2.83874 0
M  V30 3318 H 320.471 -2.83083 1.62885 0
M  V30 3319 H 319.13 -1.54045 3.32664 0
M  V30 3320 H 318.778 -4.00086 3.04861 0
M  V30 3321 H 318.478 -3.48866 4.72828 0
M  V30 3322 H 320.002 -4.32306 4.31212 0
M  V30 3323 H 321.416 -2.26241 5.26771 0
M  V30 3324 H 319.813 -1.65071 5.7695 0
M  V30 3325 H 320.883 -0.612559 4.81015 0
M  V30 3326 N 322.226 -1.5378 -0.344866 0
M  V30 3327 C 323.173 -1.81676 -1.42346 0
M  V30 3328 C 324.143 -0.662376 -1.52321 0
M  V30 3329 O 325.328 -0.906675 -1.67881 0
M  V30 3330 C 322.468 -2.03087 -2.79015 0
M  V30 3331 C 321.581 -3.30799 -2.77842 0
M  V30 3332 C 320.716 -3.42285 -4.0622 0
M  V30 3333 C 319.755 -4.6395 -3.9927 0
M  V30 3334 N 318.892 -4.72477 -5.19336 0
M  V30 3335 H 323.732 -2.73703 -1.17858 0
M  V30 3336 H 321.269 -1.35568 -0.570949 0
M  V30 3337 H 323.227 -2.1349 -3.58438 0
M  V30 3338 H 321.857 -1.14375 -3.01858 0
M  V30 3339 H 320.909 -3.29244 -1.90533 0
M  V30 3340 H 322.221 -4.20314 -2.68584 0
M  V30 3341 H 321.375 -3.52113 -4.94066 0
M  V30 3342 H 320.114 -2.50823 -4.18258 0
M  V30 3343 H 319.119 -4.54201 -3.09809 0
M  V30 3344 H 320.344 -5.56775 -3.88817 0
M  V30 3345 H 318.29 -3.83924 -5.3192 0
M  V30 3346 H 318.207 -5.55927 -5.12329 0
M  V30 3347 H 319.475 -4.86613 -6.08957 0
M  V30 3348 N 323.704 0.605807 -1.45491 0
M  V30 3349 C 324.652 1.73754 -1.54636 0
M  V30 3350 C 325.646 1.64207 -0.416219 0
M  V30 3351 O 326.852 1.69979 -0.592199 0
M  V30 3352 H 323.227 0.574073 -0.485741 0
M  V30 3353 H 325.198 1.63169 -2.49837 0
M  V30 3354 C 323.947 3.12135 -1.53189 0
M  V30 3355 H 323.27 3.20141 -2.39478 0
M  V30 3356 H 324.71 3.91147 -1.63645 0
M  V30 3357 C 323.169 3.35921 -0.256616 0
M  V30 3358 O 323.699 3.96194 0.662798 0
M  V30 3359 N 321.905 2.90204 -0.151751 0
M  V30 3360 H 321.452 2.41336 -0.90081 0
M  V30 3361 H 321.41 3.06492 0.700699 0
M  V30 3362 N 325.182 1.32811 0.848464 0
M  V30 3363 C 326.43 1.23479 1.59991 0
M  V30 3364 C 326.751 -0.201853 1.93952 0
M  V30 3365 O 326.021 -1.12818 1.60153 0
M  V30 3366 H 324.601 0.454034 0.593179 0
M  V30 3367 H 327.263 1.66412 1.01455 0
M  V30 3368 H 326.359 1.82178 2.53412 0
M  V30 3369 N 326.66 -1.06551 1.16123 0
M  V30 3370 C 327.885 -1.83544 0.965735 0
M  V30 3371 C 328.31 -1.81843 -0.481102 0
M  V30 3372 O 327.668 -1.21732 -1.34354 0
M  V30 3373 C 327.716 -3.28169 1.49457 0
M  V30 3374 O 326.82 -4.0643 0.699157 0
M  V30 3375 H 326.161 -0.568026 0.343864 0
M  V30 3376 H 328.691 -1.34362 1.54299 0
M  V30 3377 H 328.701 -3.78992 1.51092 0
M  V30 3378 H 327.376 -3.28722 2.54784 0
M  V30 3379 H 325.953 -3.65216 0.7531 0
M  V30 3380 N 328.138 -0.959301 -1.25041 0
M  V30 3381 C 329.086 -0.474437 -2.2771 0
M  V30 3382 C 330.08 0.457697 -1.631 0
M  V30 3383 O 331.286 0.333912 -1.76876 0
M  V30 3384 H 327.661 -0.134936 -0.739795 0
M  V30 3385 H 329.632 -1.35251 -2.65988 0
M  V30 3386 C 328.381 0.227884 -3.46952 0
M  V30 3387 H 327.704 -0.480248 -3.96905 0
M  V30 3388 H 329.144 0.531091 -4.20661 0
M  V30 3389 C 327.603 1.452 -3.04004 0
M  V30 3390 O 328.133 2.54949 -3.10426 0
M  V30 3391 N 326.339 1.31502 -2.59144 0
M  V30 3392 H 325.886 0.422065 -2.54119 0
M  V30 3393 H 325.844 2.13521 -2.30773 0
M  V30 3394 N 329.616 1.39756 -0.72842 0
M  V30 3395 C 330.865 1.99879 -0.270407 0
M  V30 3396 C 331.178 1.58449 1.14688 0
M  V30 3397 O 332.384 2.11362 1.70407 0
M  V30 3398 C 330.84 3.57292 -0.43252 0
M  V30 3399 C 330.448 4.07688 -1.85727 0
M  V30 3400 C 332.192 4.24485 -0.0359507 0
M  V30 3401 C 330.099 5.5765 -1.96928 0
M  V30 3402 H 329.029 0.747689 -0.0973472 0
M  V30 3403 H 331.68 1.59837 -0.901355 0
M  V30 3404 H 330.062 3.95097 0.267219 0
M  V30 3405 H 331.236 3.81231 -2.58843 0
M  V30 3406 H 329.551 3.53135 -2.20646 0
M  V30 3407 H 332.148 5.34609 -0.0987484 0
M  V30 3408 H 332.491 4.03915 1.00787 0
M  V30 3409 H 333.024 3.9183 -0.686604 0
M  V30 3410 H 329.763 5.8309 -2.99476 0
M  V30 3411 H 329.283 5.8593 -1.28241 0
M  V30 3412 H 330.962 6.22957 -1.74737 0
M  V30 3413 N 331.094 0.475555 1.50254 0
M  V30 3414 C 332.057 -0.305016 2.27161 0
M  V30 3415 C 333.057 -0.916519 1.32123 0
M  V30 3416 O 334.247 -0.785003 1.5551 0
M  V30 3417 C 331.379 -1.43496 3.09227 0
M  V30 3418 H 332.572 0.369511 2.97615 0
M  V30 3419 H 330.125 0.229747 1.54602 0
M  V30 3420 H 330.86 -2.14441 2.43281 0
M  V30 3421 H 330.645 -1.00223 3.79075 0
M  V30 3422 H 332.135 -1.98548 3.67381 0
M  V30 3423 N 332.573 -1.56217 0.208337 0
M  V30 3424 C 333.503 -2.22694 -0.702116 0
M  V30 3425 C 334.484 -1.19432 -1.2112 0
M  V30 3426 O 335.669 -1.47978 -1.25762 0
M  V30 3427 C 332.799 -2.8966 -1.9161 0
M  V30 3428 C 331.753 -3.9928 -1.5414 0
M  V30 3429 C 331.079 -4.53476 -2.83308 0
M  V30 3430 C 332.379 -5.17012 -0.741339 0
M  V30 3431 H 334.073 -2.99034 -0.147898 0
M  V30 3432 H 331.619 -1.43831 -0.0696951 0
M  V30 3433 H 333.572 -3.34852 -2.55836 0
M  V30 3434 H 332.296 -2.10746 -2.49507 0
M  V30 3435 H 330.955 -3.54799 -0.922668 0
M  V30 3436 H 330.603 -3.71308 -3.39322 0
M  V30 3437 H 330.303 -5.27451 -2.58976 0
M  V30 3438 H 331.827 -5.01378 -3.485 0
M  V30 3439 H 333.241 -5.58667 -1.28699 0
M  V30 3440 H 331.638 -5.97137 -0.595627 0
M  V30 3441 H 332.708 -4.8423 0.254851 0
M  V30 3442 N 334.051 0.0651679 -1.57465 0
M  V30 3443 C 334.981 1.07693 -2.07182 0
M  V30 3444 C 335.962 1.39962 -0.966673 0
M  V30 3445 O 337.147 1.49475 -1.2398 0
M  V30 3446 C 334.277 2.3885 -2.52127 0
M  V30 3447 C 333.231 2.20917 -3.66579 0
M  V30 3448 C 332.557 3.57515 -3.97601 0
M  V30 3449 C 333.857 1.62493 -4.9638 0
M  V30 3450 H 335.551 0.663199 -2.91962 0
M  V30 3451 H 333.097 0.317569 -1.40455 0
M  V30 3452 H 335.05 3.09928 -2.85522 0
M  V30 3453 H 333.774 2.82215 -1.64384 0
M  V30 3454 H 332.433 1.52279 -3.33477 0
M  V30 3455 H 332.081 3.98463 -3.06979 0
M  V30 3456 H 331.781 3.46353 -4.74672 0
M  V30 3457 H 333.305 4.30013 -4.33499 0
M  V30 3458 H 334.719 2.23445 -5.27963 0
M  V30 3459 H 333.116 1.62009 -5.77818 0
M  V30 3460 H 334.186 0.587041 -4.81333 0
M  V30 3461 N 335.529 1.53961 0.336706 0
M  V30 3462 C 336.477 1.83136 1.43401 0
M  V30 3463 C 337.471 0.702313 1.54156 0
M  V30 3464 O 338.677 0.885765 1.56698 0
M  V30 3465 H 335.052 0.580309 0.478273 0
M  V30 3466 H 337.023 2.74925 1.16012 0
M  V30 3467 C 335.772 2.06385 2.79822 0
M  V30 3468 H 335.095 2.92718 2.72316 0
M  V30 3469 H 336.535 2.30761 3.55704 0
M  V30 3470 C 334.994 0.851414 3.25964 0
M  V30 3471 O 335.524 0.0541904 4.01663 0
M  V30 3472 N 333.73 0.66672 2.82848 0
M  V30 3473 H 333.277 1.31665 2.21409 0
M  V30 3474 H 333.235 -0.143032 3.14074 0
M  V30 3475 N 337.007 -0.598083 1.45811 0
M  V30 3476 C 337.97 -1.69018 1.54808 0
M  V30 3477 C 338.97 -1.55037 0.426652 0
M  V30 3478 O 340.16 -1.59932 0.690456 0
M  V30 3479 C 337.292 -3.0835 1.45371 0
M  V30 3480 H 338.485 -1.62403 2.52121 0
M  V30 3481 H 336.038 -0.814626 1.33392 0
M  V30 3482 H 336.773 -3.20534 0.492793 0
M  V30 3483 H 336.558 -3.19907 2.26721 0
M  V30 3484 H 338.048 -3.8788 1.54721 0
M  V30 3485 N 338.485 -1.33259 -0.841409 0
M  V30 3486 C 339.418 -1.1764 -1.95541 0
M  V30 3487 C 340.396 -0.072501 -1.62438 0
M  V30 3488 O 341.58 -0.23427 -1.87039 0
M  V30 3489 C 338.707 -0.803794 -3.29024 0
M  V30 3490 C 337.753 -1.91482 -3.81099 0
M  V30 3491 S 338.586 -3.52538 -4.03085 0
M  V30 3492 C 339.742 -3.17279 -5.39523 0
M  V30 3493 H 339.975 -2.11941 -2.08491 0
M  V30 3494 H 337.508 -1.18072 -0.9949 0
M  V30 3495 H 339.466 -0.595592 -4.06156 0
M  V30 3496 H 338.127 0.120574 -3.13868 0
M  V30 3497 H 337.32 -1.60742 -4.7768 0
M  V30 3498 H 336.922 -2.07956 -3.10854 0
M  V30 3499 H 339.214 -2.67946 -6.22263 0
M  V30 3500 H 340.157 -4.1293 -5.75234 0
M  V30 3501 H 340.565 -2.53943 -5.04156 0
M  V30 3502 N 339.963 1.05934 -1.16686 0
M  V30 3503 C 341.211 1.78447 -0.948744 0
M  V30 3504 C 341.532 1.87813 0.524523 0
M  V30 3505 O 340.802 1.38945 1.38098 0
M  V30 3506 H 339.382 0.660971 -0.348033 0
M  V30 3507 H 342.044 1.27947 -1.47022 0
M  V30 3508 H 341.14 2.80394 -1.37061 0
M  V30 3509 N 341.441 0.965919 1.2453 0
M  V30 3510 C 342.391 0.465731 2.23193 0
M  V30 3511 C 343.375 -0.451277 1.54442 0
M  V30 3512 O 344.567 -0.282489 1.74731 0
M  V30 3513 C 341.696 -0.244511 3.42428 0
M  V30 3514 C 340.782 0.691222 4.18429 0
M  V30 3515 N 341.173 1.82771 4.71623 0
M  V30 3516 C 339.471 0.501649 4.4317 0
M  V30 3517 C 340.172 2.41285 5.29298 0
M  V30 3518 N 339.148 1.69819 5.16394 0
M  V30 3519 H 342.95 1.33291 2.61937 0
M  V30 3520 H 340.464 0.824789 1.39896 0
M  V30 3521 H 342.461 -0.620056 4.12263 0
M  V30 3522 H 341.121 -1.10815 3.05205 0
M  V30 3523 H 342.132 2.20929 4.68413 0
M  V30 3524 H 338.809 -0.318177 4.16286 0
M  V30 3525 H 340.199 3.37181 5.8117 0
M  V30 3526 N 342.919 -1.39368 0.735821 0
M  V30 3527 C 344.165 -2.00794 0.284544 0
M  V30 3528 C 344.498 -1.58255 -1.12557 0
M  V30 3529 O 343.773 -0.811819 -1.76748 0
M  V30 3530 C 344.056 -3.58011 0.387337 0
M  V30 3531 C 343.909 -4.10566 1.83728 0
M  V30 3532 C 345.228 -4.395 -0.22975 0
M  V30 3533 H 342.347 -0.729501 0.104866 0
M  V30 3534 H 344.989 -1.65564 0.93213 0
M  V30 3535 H 343.139 -3.88154 -0.164006 0
M  V30 3536 H 344.811 -3.91139 2.44556 0
M  V30 3537 H 343.054 -3.64095 2.35833 0
M  V30 3538 H 343.725 -5.19702 1.86047 0
M  V30 3539 H 346.201 -4.15406 0.240257 0
M  V30 3540 H 345.077 -5.48752 -0.127485 0
M  V30 3541 H 345.338 -4.22062 -1.3159 0
M  V30 3542 N 344.397 -0.483516 -1.5 0
M  V30 3543 C 345.646 0.0689102 -2.01582 0
M  V30 3544 C 345.959 1.39655 -1.36952 0
M  V30 3545 O 347.165 2.03465 -1.79762 0
M  V30 3546 C 345.621 0.173302 -3.59483 0
M  V30 3547 C 345.229 -1.14665 -4.33077 0
M  V30 3548 C 346.973 0.677024 -4.19066 0
M  V30 3549 C 344.88 -1.00537 -5.82792 0
M  V30 3550 H 343.81 0.0295277 -0.753422 0
M  V30 3551 H 346.461 -0.620295 -1.72698 0
M  V30 3552 H 344.843 0.926569 -3.85007 0
M  V30 3553 H 346.017 -1.91184 -4.19268 0
M  V30 3554 H 344.332 -1.58244 -3.85159 0
M  V30 3555 H 346.929 0.799952 -5.28682 0
M  V30 3556 H 347.272 1.67151 -3.81269 0
M  V30 3557 H 347.805 -0.0192083 -3.97795 0
M  V30 3558 H 344.544 -1.9736 -6.25083 0
M  V30 3559 H 344.064 -0.280776 -5.99142 0
M  V30 3560 H 345.743 -0.677 -6.43448 0
M  V30 3561 N 345.875 1.56104 -0.216619 0
M  V30 3562 C 347.124 1.97348 0.416744 0
M  V30 3563 C 347.437 1.10715 1.6125 0
M  V30 3564 O 348.643 1.41836 2.31506 0
M  V30 3565 C 347.099 3.51059 0.792835 0
M  V30 3566 C 346.707 4.46387 -0.379828 0
M  V30 3567 C 348.451 4.01026 1.39208 0
M  V30 3568 C 346.358 5.91397 0.0184223 0
M  V30 3569 H 345.288 0.736942 0.159475 0
M  V30 3570 H 347.939 1.80827 -0.31205 0
M  V30 3571 H 346.321 3.63162 1.57891 0
M  V30 3572 H 347.495 4.46029 -1.15737 0
M  V30 3573 H 345.81 4.06734 -0.891979 0
M  V30 3574 H 348.407 5.0686 1.70286 0
M  V30 3575 H 348.75 3.46587 2.30614 0
M  V30 3576 H 349.283 3.92125 0.669537 0
M  V30 3577 H 346.022 6.49807 -0.862002 0
M  V30 3578 H 345.542 5.94961 0.760384 0
M  V30 3579 H 347.221 6.45455 0.446818 0
M  V30 3580 N 347.353 -0.0568162 1.57498 0
M  V30 3581 C 348.263 -1.08346 2.08083 0
M  V30 3582 C 349.279 -1.41439 1.01346 0
M  V30 3583 O 350.455 -1.51316 1.32912 0
M  V30 3584 C 347.52 -2.37352 2.52715 0
M  V30 3585 C 346.581 -2.11093 3.73816 0
M  V30 3586 C 345.814 -3.33949 4.1631 0
M  V30 3587 O 346.037 -4.43622 3.58547 0
M  V30 3588 O 344.971 -3.21279 5.08983 0
M  V30 3589 H 348.797 -0.683667 2.95905 0
M  V30 3590 H 346.382 -0.271965 1.46904 0
M  V30 3591 H 348.264 -3.13246 2.81877 0
M  V30 3592 H 346.939 -2.76681 1.68016 0
M  V30 3593 H 345.846 -1.32856 3.49714 0
M  V30 3594 H 347.179 -1.76637 4.59413 0
M  V30 3595 N 348.832 -1.54138 -0.328536 0
M  V30 3596 C 349.742 -1.86192 -1.42723 0
M  V30 3597 C 350.758 -0.753382 -1.56844 0
M  V30 3598 O 351.934 -1.04718 -1.72035 0
M  V30 3599 C 348.999 -2.07824 -2.77507 0
M  V30 3600 C 348.06 -3.31641 -2.72603 0
M  V30 3601 C 347.293 -3.52232 -4.00959 0
M  V30 3602 O 347.516 -2.7636 -4.9898 0
M  V30 3603 O 346.45 -4.45699 -4.0452 0
M  V30 3604 H 350.276 -2.79608 -1.18547 0
M  V30 3605 H 347.861 -1.3998 -0.522104 0
M  V30 3606 H 349.743 -2.23411 -3.57303 0
M  V30 3607 H 348.418 -1.17596 -3.01584 0
M  V30 3608 H 347.325 -3.21444 -1.91376 0
M  V30 3609 H 348.658 -4.2191 -2.53481 0
M  V30 3610 N 350.31 0.590341 -1.46126 0
M  V30 3611 C 351.258 1.72105 -1.5647 0
M  V30 3612 C 352.252 1.63756 -0.433612 0
M  V30 3613 O 353.458 1.69342 -0.610194 0
M  V30 3614 H 349.833 0.568889 -0.491802 0
M  V30 3615 H 351.804 1.6051 -2.51553 0
M  V30 3616 C 350.553 3.10493 -1.56491 0
M  V30 3617 H 349.876 3.17583 -2.4286 0
M  V30 3618 H 351.316 3.8939 -1.67785 0
M  V30 3619 C 349.775 3.3563 -0.292231 0
M  V30 3620 O 350.305 3.96875 0.620739 0
M  V30 3621 N 348.511 2.90026 -0.182523 0
M  V30 3622 H 348.058 2.40367 -0.926356 0
M  V30 3623 H 348.016 3.07218 0.668152 0
M  V30 3624 N 351.788 1.33704 0.83433 0
M  V30 3625 C 352.718 1.26967 1.95963 0
M  V30 3626 C 353.699 0.149337 1.69443 0
M  V30 3627 O 354.884 0.339852 1.91203 0
M  V30 3628 C 352.014 1.01275 3.32206 0
M  V30 3629 C 350.968 2.09652 3.73136 0
M  V30 3630 C 350.294 1.69166 5.07235 0
M  V30 3631 C 351.594 3.51372 3.86439 0
M  V30 3632 H 353.288 2.2112 2.01857 0
M  V30 3633 H 350.834 1.06447 0.969793 0
M  V30 3634 H 352.787 0.952106 4.10503 0
M  V30 3635 H 351.511 0.0356203 3.26581 0
M  V30 3636 H 350.17 2.14766 2.97104 0
M  V30 3637 H 349.818 0.701437 4.98085 0
M  V30 3638 H 349.518 2.41694 5.35591 0
M  V30 3639 H 351.042 1.64576 5.88003 0
M  V30 3640 H 352.456 3.48734 4.55036 0
M  V30 3641 H 350.853 4.22425 4.26236 0
M  V30 3642 H 351.923 3.89546 2.88759 0
M  V30 3643 N 353.266 -1.05314 1.17247 0
M  V30 3644 C 354.496 -1.81707 0.983166 0
M  V30 3645 C 354.904 -1.83222 -0.471822 0
M  V30 3646 O 354.247 -1.25721 -1.3394 0
M  V30 3647 C 354.309 -3.29134 1.44606 0
M  V30 3648 C 353.973 -3.51304 2.92292 0
M  V30 3649 C 354.97 -3.4353 3.90235 0
M  V30 3650 C 352.655 -3.78306 3.30439 0
M  V30 3651 C 354.649 -3.62442 5.24323 0
M  V30 3652 C 352.336 -3.96866 4.64694 0
M  V30 3653 C 353.334 -3.88933 5.61445 0
M  V30 3654 O 353.022 -4.06976 6.93272 0
M  V30 3655 H 352.754 -0.579476 0.348114 0
M  V30 3656 H 355.308 -1.33705 1.55924 0
M  V30 3657 H 353.538 -3.78046 0.813537 0
M  V30 3658 H 355.227 -3.87049 1.22262 0
M  V30 3659 H 355.993 -3.22648 3.62109 0
M  V30 3660 H 351.872 -3.83585 2.55702 0
M  V30 3661 H 355.416 -3.56165 5.99827 0
M  V30 3662 H 351.313 -4.1724 4.92525 0
M  V30 3663 H 352.081 -4.24209 6.99992 0
M  V30 3664 N 354.744 -0.972509 -1.24016 0
M  V30 3665 C 356.021 -0.553733 -1.87598 0
M  V30 3666 C 356.401 0.969158 -1.87538 0
M  V30 3667 O 355.749 1.84255 -1.35139 0
M  V30 3668 C 355.959 -1.15076 -3.29482 0
M  V30 3669 C 357.307 -1.23862 -4.06132 0
M  V30 3670 O 358.331 -1.10363 -3.38672 0
M  V30 3671 O 357.19 -1.45252 -5.26844 0
M  V30 3672 H 354.284 -0.185331 -0.805966 0
M  V30 3673 H 356.83 -1.06709 -1.31952 0
M  V30 3674 H 355.602 -2.19333 -3.2405 0
M  V30 3675 H 355.225 -0.621746 -3.92709 0
M  V30 3676 N 356.222 1.38976 -0.743202 0
M  V30 3677 C 357.169 2.30544 -0.10861 0
M  V30 3678 C 358.139 1.49642 0.720869 0
M  V30 3679 O 359.324 1.78304 0.679142 0
M  V30 3680 C 356.464 3.36018 0.786496 0
M  V30 3681 C 355.577 4.31963 -0.0564849 0
M  V30 3682 C 354.712 5.24506 0.840657 0
M  V30 3683 C 353.751 6.121 -0.00658363 0
M  V30 3684 N 352.888 6.96973 0.846943 0
M  V30 3685 H 357.728 2.8424 -0.895088 0
M  V30 3686 H 355.265 1.3995 -0.453048 0
M  V30 3687 H 357.223 3.95768 1.31999 0
M  V30 3688 H 355.853 2.83758 1.53887 0
M  V30 3689 H 354.905 3.73763 -0.707492 0
M  V30 3690 H 356.217 4.93703 -0.711229 0
M  V30 3691 H 355.371 5.89322 1.4417 0
M  V30 3692 H 354.11 4.63107 1.52916 0
M  V30 3693 H 353.115 5.46289 -0.620366 0
M  V30 3694 H 354.34 6.75565 -0.691992 0
M  V30 3695 H 352.286 6.38133 1.52059 0
M  V30 3696 H 352.203 7.5559 0.248864 0
M  V30 3697 H 353.471 7.6621 1.43328 0
M  V30 3698 N 357.7 0.491464 1.49741 0
M  V30 3699 C 358.663 -0.280906 2.27472 0
M  V30 3700 C 359.663 -0.902454 1.33088 0
M  V30 3701 O 360.853 -0.768465 1.56334 0
M  V30 3702 C 357.985 -1.40209 3.10732 0
M  V30 3703 H 359.178 0.401056 2.97206 0
M  V30 3704 H 356.731 0.246131 1.5435 0
M  V30 3705 H 357.466 -2.11849 2.45541 0
M  V30 3706 H 357.251 -0.961969 3.80117 0
M  V30 3707 H 358.741 -1.9464 3.69466 0
M  V30 3708 N 359.178 -1.55987 0.224894 0
M  V30 3709 C 360.425 -1.9839 -0.4059 0
M  V30 3710 C 360.753 -1.11261 -1.59535 0
M  V30 3711 O 360.008 -0.158314 -1.95059 0
M  V30 3712 C 360.307 -3.46394 -0.880106 0
M  V30 3713 C 359.973 -4.5046 0.19918 0
M  V30 3714 C 358.635 -4.7864 0.495661 0
M  V30 3715 C 360.987 -5.12855 0.928939 0
M  V30 3716 C 358.315 -5.66497 1.52636 0
M  V30 3717 C 360.667 -6.01828 1.949 0
M  V30 3718 C 359.331 -6.28351 2.25236 0
M  V30 3719 H 358.601 -0.725961 -0.148529 0
M  V30 3720 H 361.248 -1.88668 0.328113 0
M  V30 3721 H 359.553 -3.53337 -1.69294 0
M  V30 3722 H 361.25 -3.76577 -1.37808 0
M  V30 3723 H 357.84 -4.28579 -0.0420526 0
M  V30 3724 H 362.024 -4.9115 0.713129 0
M  V30 3725 H 357.28 -5.8531 1.76698 0
M  V30 3726 H 361.454 -6.49225 2.51951 0
M  V30 3727 H 359.081 -6.96226 3.05244 0
M  V30 3728 N 360.656 0.0484629 -1.57525 0
M  V30 3729 C 361.902 0.744226 -1.88651 0
M  V30 3730 C 362.235 1.76029 -0.820212 0
M  V30 3731 O 361.51 1.93782 0.166985 0
M  V30 3732 C 361.793 1.43128 -3.30434 0
M  V30 3733 C 361.646 0.43005 -4.47739 0
M  V30 3734 C 362.965 2.37031 -3.70816 0
M  V30 3735 H 360.084 0.269089 -0.68612 0
M  V30 3736 H 362.726 0.00713532 -1.89999 0
M  V30 3737 H 360.876 2.05956 -3.29415 0
M  V30 3738 H 362.548 -0.194816 -4.60888 0
M  V30 3739 H 360.791 -0.252522 -4.33064 0
M  V30 3740 H 361.462 0.948874 -5.43783 0
M  V30 3741 H 363.938 1.84263 -3.73077 0
M  V30 3742 H 362.814 2.82094 -4.70865 0
M  V30 3743 H 363.075 3.22864 -3.02012 0
M  V30 3744 N 362.134 1.5431 0.320358 0
M  V30 3745 C 363.097 1.83195 1.3774 0
M  V30 3746 C 364.097 0.703906 1.44575 0
M  V30 3747 O 365.287 0.972214 1.44546 0
M  V30 3748 C 362.419 1.99487 2.76438 0
M  V30 3749 H 363.612 2.77642 1.1338 0
M  V30 3750 H 361.165 1.46076 0.556012 0
M  V30 3751 H 361.9 1.07262 3.06048 0
M  V30 3752 H 361.685 2.81575 2.7287 0
M  V30 3753 H 363.175 2.23271 3.52902 0
M  V30 3754 N 363.613 -0.582584 1.46437 0
M  V30 3755 C 364.838 -1.37168 1.55563 0
M  V30 3756 C 365.263 -1.87061 0.19743 0
M  V30 3757 O 364.621 -1.61572 -0.822451 0
M  V30 3758 C 364.669 -2.53511 2.56446 0
M  V30 3759 O 363.773 -3.54953 2.09958 0
M  V30 3760 H 363.114 -0.408494 0.523477 0
M  V30 3761 H 365.644 -0.706646 1.9201 0
M  V30 3762 H 365.654 -3.00426 2.76058 0
M  V30 3763 H 364.329 -2.16549 3.55076 0
M  V30 3764 H 362.906 -3.14516 2.00334 0
M  V30 3765 N 365.091 -1.34144 -0.827227 0
M  V30 3766 C 366.507 -1.13732 -1.11969 0
M  V30 3767 C 366.707 0.0640463 -2.01398 0
M  V30 3768 O 365.763 0.740856 -2.41387 0
M  V30 3769 C 367.076 -2.43047 -1.77055 0
M  V30 3770 C 368.624 -2.49063 -1.89569 0
M  V30 3771 C 369.099 -3.78369 -2.58072 0
M  V30 3772 N 370.59 -3.79505 -2.65575 0
M  V30 3773 C 371.325 -4.76274 -3.19297 0
M  V30 3774 N 370.821 -5.83424 -3.73616 0
M  V30 3775 N 372.614 -4.63735 -3.17658 0
M  V30 3776 H 364.765 -2.11126 -0.232296 0
M  V30 3777 H 367.028 -0.933424 -0.165602 0
M  V30 3778 H 366.734 -3.31025 -1.18807 0
M  V30 3779 H 366.608 -2.56066 -2.76966 0
M  V30 3780 H 368.995 -1.61527 -2.46968 0
M  V30 3781 H 369.076 -2.39975 -0.885745 0
M  V30 3782 H 368.72 -4.66293 -2.01329 0
M  V30 3783 H 368.65 -3.84737 -3.59562 0
M  V30 3784 H 371.141 -3.02074 -2.27068 0
M  V30 3785 H 371.454 -6.53282 -4.12846 0
M  V30 3786 H 369.799 -5.87143 -3.71871 0
M  V30 3787 H 372.99 -3.79177 -2.74486 0
M  V30 3788 H 373.163 -5.39318 -3.59221 0
M  V30 3789 N 366.569 1.04691 -1.17803 0
M  V30 3790 C 367.797 1.81446 -0.99423 0
M  V30 3791 C 368.212 1.83174 0.457459 0
M  V30 3792 O 367.569 1.26265 1.31771 0
M  V30 3793 C 367.62 3.27334 -1.5341 0
M  V30 3794 O 367.341 3.25798 -2.92895 0
M  V30 3795 C 368.842 4.20759 -1.39559 0
M  V30 3796 H 366.062 0.571599 -0.351447 0
M  V30 3797 H 368.606 1.31982 -1.56208 0
M  V30 3798 H 366.761 3.74052 -1.00815 0
M  V30 3799 H 367.175 4.17144 -3.17949 0
M  V30 3800 H 368.649 5.21084 -1.82141 0
M  V30 3801 H 369.126 4.37856 -0.343394 0
M  V30 3802 H 369.732 3.79901 -1.91195 0
M  V30 3803 N 368.047 0.979072 1.23499 0
M  V30 3804 C 368.957 0.526431 2.28617 0
M  V30 3805 C 369.973 -0.418126 1.68901 0
M  V30 3806 O 371.149 -0.288372 1.99325 0
M  V30 3807 C 368.214 -0.165235 3.46306 0
M  V30 3808 C 367.275 0.82056 4.21385 0
M  V30 3809 C 366.508 0.161807 5.33455 0
M  V30 3810 O 366.731 -1.04742 5.60701 0
M  V30 3811 O 365.665 0.859708 5.95729 0
M  V30 3812 H 369.491 1.4006 2.69475 0
M  V30 3813 H 367.076 0.746643 1.29405 0
M  V30 3814 H 368.958 -0.553287 4.17752 0
M  V30 3815 H 367.633 -1.01419 3.07402 0
M  V30 3816 H 366.54 1.25929 3.52268 0
M  V30 3817 H 367.873 1.63828 4.64135 0
M  V30 3818 N 369.525 -1.3858 0.750561 0
M  V30 3819 C 370.773 -1.99789 0.30477 0
M  V30 3820 C 371.094 -1.59874 -1.11649 0
M  V30 3821 O 370.364 -0.85417 -1.76297 0
M  V30 3822 H 368.944 -0.738902 0.109694 0
M  V30 3823 H 371.606 -1.69391 0.963983 0
M  V30 3824 H 370.702 -3.09952 0.365499 0
M  V30 3825 N 371.003 -0.499398 -1.49478 0
M  V30 3826 C 372.25 0.0456899 -2.02448 0
M  V30 3827 C 372.578 1.37142 -1.37921 0
M  V30 3828 O 371.833 1.89111 -0.503544 0
M  V30 3829 C 372.132 0.248424 -3.56536 0
M  V30 3830 C 371.798 -0.999107 -4.39692 0
M  V30 3831 C 370.46 -1.34108 -4.62135 0
M  V30 3832 C 372.812 -1.82842 -4.88076 0
M  V30 3833 C 370.14 -2.51191 -5.30208 0
M  V30 3834 C 372.492 -2.99076 -5.57437 0
M  V30 3835 C 371.156 -3.33655 -5.78127 0
M  V30 3836 H 370.426 0.0167191 -0.740811 0
M  V30 3837 H 373.073 -0.65923 -1.79795 0
M  V30 3838 H 371.378 1.03586 -3.77859 0
M  V30 3839 H 373.075 0.684605 -3.95113 0
M  V30 3840 H 369.665 -0.722729 -4.22463 0
M  V30 3841 H 373.849 -1.57737 -4.70566 0
M  V30 3842 H 369.105 -2.78221 -5.44429 0
M  V30 3843 H 373.279 -3.63664 -5.93904 0
M  V30 3844 H 370.906 -4.24483 -6.30649 0
M  V30 3845 N 372.481 1.55866 -0.233164 0
M  V30 3846 C 373.391 2.24431 0.683217 0
M  V30 3847 C 374.407 1.2558 1.2044 0
M  V30 3848 O 375.583 1.58422 1.24356 0
M  V30 3849 C 372.648 2.91979 1.86947 0
M  V30 3850 C 371.709 4.06204 1.38912 0
M  V30 3851 C 370.942 4.70522 2.51883 0
M  V30 3852 O 371.165 4.33865 3.70293 0
M  V30 3853 O 370.099 5.59296 2.22423 0
M  V30 3854 H 373.925 3.03426 0.129059 0
M  V30 3855 H 371.51 1.494 -0.0022283 0
M  V30 3856 H 373.392 3.34573 2.56201 0
M  V30 3857 H 372.067 2.15935 2.41151 0
M  V30 3858 H 370.974 3.68155 0.664259 0
M  V30 3859 H 372.307 4.84025 0.893328 0
M  V30 3860 N 373.959 -0.0401083 1.57549 0
M  V30 3861 C 374.869 -1.06133 2.0922 0
M  V30 3862 C 375.885 -1.40356 1.0284 0
M  V30 3863 O 377.061 -1.49897 1.34509 0
M  V30 3864 C 374.126 -2.34658 2.55218 0
M  V30 3865 C 373.187 -2.07117 3.76033 0
M  V30 3866 C 372.42 -3.29514 4.19829 0
M  V30 3867 O 372.643 -4.39794 3.63232 0
M  V30 3868 O 371.577 -3.15863 5.12362 0
M  V30 3869 H 375.403 -0.652244 2.96613 0
M  V30 3870 H 372.988 -0.256368 1.47184 0
M  V30 3871 H 374.87 -3.10239 2.85184 0
M  V30 3872 H 373.545 -2.74883 1.70941 0
M  V30 3873 H 372.452 -1.29139 3.51104 0
M  V30 3874 H 373.785 -1.71754 4.61261 0
M  V30 3875 N 375.437 -1.54477 -0.31217 0
M  V30 3876 C 376.667 -1.76948 -1.06645 0
M  V30 3877 C 377.075 -0.523593 -1.81811 0
M  V30 3878 O 376.418 0.51578 -1.76311 0
M  V30 3879 C 376.48 -2.91668 -2.10166 0
M  V30 3880 C 376.144 -4.30165 -1.54296 0
M  V30 3881 C 377.141 -5.10603 -0.978793 0
M  V30 3882 C 374.826 -4.76738 -1.58196 0
M  V30 3883 C 376.82 -6.3573 -0.461048 0
M  V30 3884 C 374.507 -6.01831 -1.06034 0
M  V30 3885 C 375.505 -6.81161 -0.500844 0
M  V30 3886 O 375.193 -8.03899 0.0128958 0
M  V30 3887 H 374.925 -0.594088 -0.322546 0
M  V30 3888 H 377.479 -2.02213 -0.360441 0
M  V30 3889 H 375.709 -2.62001 -2.84416 0
M  V30 3890 H 377.398 -3.01817 -2.71406 0
M  V30 3891 H 378.164 -4.75771 -0.941651 0
M  V30 3892 H 374.043 -4.15027 -2.00683 0
M  V30 3893 H 377.587 -6.97596 -0.0236894 0
M  V30 3894 H 373.484 -6.36152 -1.09459 0
M  V30 3895 H 374.252 -8.18437 -0.101457 0
M  V30 3896 N 376.915 0.57481 -1.46744 0
M  V30 3897 C 378.331 0.898981 -1.31873 0
M  V30 3898 C 378.531 1.99313 -0.29605 0
M  V30 3899 O 377.587 2.50728 0.298621 0
M  V30 3900 C 378.9 1.30886 -2.7072 0
M  V30 3901 C 380.448 1.42127 -2.78871 0
M  V30 3902 C 380.923 1.86478 -4.18318 0
M  V30 3903 N 382.414 1.93658 -4.20774 0
M  V30 3904 C 383.149 2.29267 -5.2557 0
M  V30 3905 N 382.645 2.63612 -6.40688 0
M  V30 3906 N 384.438 2.29889 -5.1294 0
M  V30 3907 H 376.589 -0.147839 -2.11885 0
M  V30 3908 H 378.852 -0.00347013 -0.947994 0
M  V30 3909 H 378.558 0.578853 -3.46904 0
M  V30 3910 H 378.432 2.26874 -3.01343 0
M  V30 3911 H 380.819 2.14213 -2.0297 0
M  V30 3912 H 380.9 0.443705 -2.51922 0
M  V30 3913 H 380.544 1.14968 -4.94717 0
M  V30 3914 H 380.474 2.85207 -4.42679 0
M  V30 3915 H 382.965 1.69574 -3.37718 0
M  V30 3916 H 383.278 2.89759 -7.16421 0
M  V30 3917 H 381.623 2.61232 -6.44036 0
M  V30 3918 H 384.814 2.02485 -4.22039 0
M  V30 3919 H 384.987 2.57312 -5.94722 0
M  V30 3920 N 378.394 1.34581 0.820102 0
M  V30 3921 C 379.341 1.2639 1.93117 0
M  V30 3922 C 380.311 0.138554 1.65521 0
M  V30 3923 O 381.496 0.320004 1.88097 0
M  V30 3924 C 378.636 1.02812 3.29429 0
M  V30 3925 C 377.749 2.24146 3.693 0
M  V30 3926 C 376.884 1.93829 4.94574 0
M  V30 3927 C 375.923 3.1129 5.27034 0
M  V30 3928 N 375.06 2.80838 6.43486 0
M  V30 3929 H 379.9 2.21408 1.99455 0
M  V30 3930 H 377.437 1.10077 0.975784 0
M  V30 3931 H 379.395 0.871788 4.0799 0
M  V30 3932 H 378.025 0.114612 3.22596 0
M  V30 3933 H 377.077 2.50691 2.86109 0
M  V30 3934 H 378.389 3.11899 3.89257 0
M  V30 3935 H 377.543 1.74948 5.80929 0
M  V30 3936 H 376.282 1.03341 4.76626 0
M  V30 3937 H 375.287 3.30764 4.39175 0
M  V30 3938 H 376.512 4.02561 5.4692 0
M  V30 3939 H 374.458 1.92929 6.26988 0
M  V30 3940 H 374.375 3.62123 6.63629 0
M  V30 3941 H 375.643 2.65467 7.32903 0
M  V30 3942 N 379.872 -1.04064 1.18357 0
M  V30 3943 C 381.121 -1.76662 0.973313 0
M  V30 3944 C 381.434 -1.89154 -0.497991 0
M  V30 3945 O 382.64 -2.58606 -0.826762 0
M  V30 3946 C 381.096 -3.17624 1.69242 0
M  V30 3947 C 380.704 -3.13225 3.20303 0
M  V30 3948 C 382.448 -3.946 1.56497 0
M  V30 3949 C 380.355 -4.49046 3.84853 0
M  V30 3950 H 379.285 -0.662214 0.36054 0
M  V30 3951 H 381.936 -1.16553 1.41731 0
M  V30 3952 H 380.318 -3.78129 1.1762 0
M  V30 3953 H 381.492 -2.62172 3.78949 0
M  V30 3954 H 379.807 -2.49749 3.33189 0
M  V30 3955 H 382.404 -4.95042 2.02084 0
M  V30 3956 H 382.747 -4.13074 0.517243 0
M  V30 3957 H 383.28 -3.4067 2.05399 0
M  V30 3958 H 380.019 -4.35777 4.89672 0
M  V30 3959 H 379.539 -5.00203 3.30994 0
M  V30 3960 H 381.218 -5.17961 3.87718 0
M  V30 3961 N 381.35 -0.985608 -1.22978 0
M  V30 3962 C 382.596 -0.65836 -1.91816 0
M  V30 3963 C 382.929 0.806692 -1.76653 0
M  V30 3964 O 382.204 1.58252 -1.13078 0
M  V30 3965 C 382.487 -1.056 -3.44268 0
M  V30 3966 C 382.34 -2.57906 -3.68516 0
M  V30 3967 C 383.659 -0.603781 -4.35939 0
M  V30 3968 H 380.778 -0.24065 -0.696604 0
M  V30 3969 H 383.42 -1.22783 -1.44998 0
M  V30 3970 H 381.57 -0.571445 -3.84274 0
M  V30 3971 H 383.242 -3.13976 -3.3796 0
M  V30 3972 H 381.485 -3.00305 -3.13048 0
M  V30 3973 H 382.156 -2.80779 -4.75255 0
M  V30 3974 H 384.632 -1.01987 -4.03408 0
M  V30 3975 H 383.508 -0.910383 -5.41298 0
M  V30 3976 H 383.769 0.495761 -4.39312 0
M  V30 3977 N 382.828 1.3818 -0.7579 0
M  V30 3978 C 383.738 2.3421 -0.135247 0
M  V30 3979 C 384.754 1.59487 0.695683 0
M  V30 3980 O 385.93 1.91657 0.618832 0
M  V30 3981 C 382.995 3.3862 0.744139 0
M  V30 3982 C 382.056 4.2918 -0.101658 0
M  V30 3983 C 381.289 5.28603 0.735851 0
M  V30 3984 O 381.512 5.35166 1.97366 0
M  V30 3985 O 380.446 6.01707 0.152372 0
M  V30 3986 H 384.272 2.8916 -0.928436 0
M  V30 3987 H 381.857 1.40101 -0.518855 0
M  V30 3988 H 383.739 4.02539 1.2466 0
M  V30 3989 H 382.414 2.86019 1.51575 0
M  V30 3990 H 381.321 3.68407 -0.650167 0
M  V30 3991 H 382.654 4.85048 -0.836024 0
M  V30 3992 N 384.306 0.507319 1.49211 0
M  V30 3993 C 385.554 -0.0348839 2.0207 0
M  V30 3994 C 385.875 -1.36898 1.38866 0
M  V30 3995 O 385.145 -1.88133 0.546151 0
M  V30 3996 H 383.725 -0.0158812 0.746831 0
M  V30 3997 H 386.387 0.665998 1.83168 0
M  V30 3998 H 385.483 -0.159917 3.1169 0
M  V30 3999 N 385.784 -1.5574 0.241426 0
M  V30 4000 C 387.014 -2.02913 -0.38857 0
M  V30 4001 C 387.422 -1.12014 -1.52478 0
M  V30 4002 O 386.765 -0.125903 -1.83268 0
M  V30 4003 C 386.827 -3.4636 -0.963075 0
M  V30 4004 C 386.491 -4.56982 0.0401916 0
M  V30 4005 C 387.488 -5.12941 0.847766 0
M  V30 4006 C 385.173 -5.0203 0.164699 0
M  V30 4007 C 387.167 -6.12437 1.76636 0
M  V30 4008 C 384.854 -6.01358 1.0868 0
M  V30 4009 C 385.852 -6.5644 1.88616 0
M  V30 4010 O 385.54 -7.53831 2.79273 0
M  V30 4011 H 385.272 -0.668983 -0.0971452 0
M  V30 4012 H 387.826 -2.02198 0.361248 0
M  V30 4013 H 386.056 -3.44206 -1.76235 0
M  V30 4014 H 387.745 -3.77065 -1.50257 0
M  V30 4015 H 388.511 -4.78974 0.762133 0
M  V30 4016 H 384.39 -4.58824 -0.447411 0
M  V30 4017 H 387.934 -6.55355 2.39071 0
M  V30 4018 H 383.831 -6.34746 1.17338 0
M  V30 4019 H 384.599 -7.71428 2.73572 0
M  V30 4020 N 387.262 0.0317525 -1.57568 0
M  V30 4021 C 388.49 0.734949 -1.93407 0
M  V30 4022 C 388.905 1.69036 -0.84096 0
M  V30 4023 O 388.262 1.81582 0.182836 0
M  V30 4024 C 388.313 1.49432 -3.29169 0
M  V30 4025 O 388.034 0.577261 -4.3428 0
M  V30 4026 C 389.535 2.29492 -3.79273 0
M  V30 4027 H 386.755 0.206706 -0.638368 0
M  V30 4028 H 389.299 -0.00992046 -2.04498 0
M  V30 4029 H 387.454 2.1911 -3.19483 0
M  V30 4030 H 387.868 1.10952 -5.1263 0
M  V30 4031 H 389.342 2.78172 -4.76785 0
M  V30 4032 H 389.819 3.10794 -3.10328 0
M  V30 4033 H 390.425 1.64894 -3.92033 0
M  V30 4034 N 388.74 1.54641 0.303973 0
M  V30 4035 C 390.151 1.64811 0.877163 0
M  V30 4036 C 390.502 0.554838 1.88191 0
M  V30 4037 O 389.627 -0.309033 2.14182 0
M  V30 4038 C 390.222 2.9876 1.59775 0
M  V30 4039 C 388.781 3.11061 2.11938 0
M  V30 4040 C 387.928 2.60479 0.951097 0
M  V30 4041 H 390.879 1.58493 0.0810486 0
M  V30 4042 H 390.9 2.90017 2.46314 0
M  V30 4043 H 390.412 3.7831 0.866226 0
M  V30 4044 H 388.513 2.36225 2.88146 0
M  V30 4045 H 388.626 4.17171 2.35595 0
M  V30 4046 H 386.99 2.16859 1.33583 0
M  V30 4047 H 387.773 3.42504 0.233581 0
M  V30 4048 N 390.218 -0.567019 1.47046 0
M  V30 4049 C 391.128 -1.70247 1.6141 0
M  V30 4050 C 392.144 -1.66746 0.497157 0
M  V30 4051 O 393.32 -1.86371 0.763389 0
M  V30 4052 C 390.385 -3.06756 1.61561 0
M  V30 4053 C 389.446 -3.21399 2.84607 0
M  V30 4054 C 388.679 -4.51396 2.84741 0
M  V30 4055 O 388.902 -5.36255 1.94388 0
M  V30 4056 O 387.836 -4.69621 3.76483 0
M  V30 4057 H 391.662 -1.61073 2.57467 0
M  V30 4058 H 389.247 -0.735894 1.30019 0
M  V30 4059 H 391.129 -3.8801 1.64396 0
M  V30 4060 H 389.804 -3.16333 0.686684 0
M  V30 4061 H 388.711 -2.39579 2.8732 0
M  V30 4062 H 390.044 -3.16721 3.76761 0
M  V30 4063 N 391.696 -1.35014 -0.812953 0
M  V30 4064 C 392.921 -1.31187 -1.60639 0
M  V30 4065 C 393.346 0.109382 -1.87782 0
M  V30 4066 O 392.704 1.07424 -1.46047 0
M  V30 4067 C 392.752 -2.11809 -2.91838 0
M  V30 4068 O 391.856 -1.49444 -3.8437 0
M  V30 4069 H 391.197 -0.450084 -0.488181 0
M  V30 4070 H 393.727 -1.77963 -1.00947 0
M  V30 4071 H 393.737 -2.23531 -3.41318 0
M  V30 4072 H 392.412 -3.15137 -2.71407 0
M  V30 4073 H 390.989 -1.46524 -3.42907 0
M  V30 4074 N 393.175 1.03435 -1.18907 0
M  V30 4075 C 394.421 1.77005 -0.989798 0
M  V30 4076 C 394.754 1.88205 0.478816 0
M  V30 4077 O 394.029 1.39481 1.35556 0
M  V30 4078 C 394.312 3.19925 -1.65287 0
M  V30 4079 C 394.165 3.1663 -3.19477 0
M  V30 4080 C 395.484 4.18189 -1.37134 0
M  V30 4081 H 392.603 0.642538 -0.360991 0
M  V30 4082 H 395.245 1.20784 -1.46667 0
M  V30 4083 H 393.395 3.67929 -1.24741 0
M  V30 4084 H 395.067 2.76567 -3.692 0
M  V30 4085 H 393.31 2.54491 -3.51307 0
M  V30 4086 H 393.981 4.1758 -3.61013 0
M  V30 4087 H 396.457 3.78761 -1.72276 0
M  V30 4088 H 395.333 5.16394 -1.86087 0
M  V30 4089 H 395.594 4.41112 -0.295424 0
M  V30 4090 N 394.653 0.992116 1.22453 0
M  V30 4091 C 395.563 0.55065 2.28046 0
M  V30 4092 C 396.579 -0.400189 1.69335 0
M  V30 4093 O 397.755 -0.267215 1.99619 0
M  V30 4094 C 394.82 -0.128496 3.46462 0
M  V30 4095 C 393.881 0.865208 4.20491 0
M  V30 4096 C 393.114 0.218377 5.33253 0
M  V30 4097 O 393.337 -0.987894 5.6178 0
M  V30 4098 O 392.271 0.922845 5.94783 0
M  V30 4099 H 396.097 1.4291 2.67975 0
M  V30 4100 H 393.682 0.760326 1.28606 0
M  V30 4101 H 395.564 -0.508947 4.18315 0
M  V30 4102 H 394.239 -0.981526 3.0846 0
M  V30 4103 H 393.146 1.29658 3.50913 0
M  V30 4104 H 394.479 1.68741 4.62371 0
M  V30 4105 N 396.131 -1.37776 0.765217 0
M  V30 4106 C 397.408 -1.93975 0.251596 0
M  V30 4107 C 397.788 -1.69949 -1.25222 0
M  V30 4108 O 397.136 -1.04457 -2.03226 0
M  V30 4109 C 397.346 -3.43487 0.617895 0
M  V30 4110 C 398.694 -4.20564 0.584029 0
M  V30 4111 O 399.718 -3.5182 0.556888 0
M  V30 4112 O 398.577 -5.43138 0.605291 0
M  V30 4113 H 395.671 -0.82509 0.0561806 0
M  V30 4114 H 398.217 -1.47101 0.846128 0
M  V30 4115 H 396.989 -3.5453 1.65602 0
M  V30 4116 H 396.612 -3.976 -0.00403411 0
M  V30 4117 N 397.609 -0.515225 -1.4894 0
M  V30 4118 C 398.858 0.0261361 -2.01683 0
M  V30 4119 C 399.171 1.36719 -1.39883 0
M  V30 4120 O 400.377 1.99606 -1.84037 0
M  V30 4121 C 398.833 0.0970111 -3.59769 0
M  V30 4122 C 398.441 -1.23825 -4.30548 0
M  V30 4123 C 400.185 0.587981 -4.20408 0
M  V30 4124 C 398.092 -1.12877 -5.80528 0
M  V30 4125 H 397.022 0.0135398 -0.753878 0
M  V30 4126 H 399.673 -0.656787 -1.71343 0
M  V30 4127 H 398.055 0.844694 -3.86886 0
M  V30 4128 H 399.229 -2.00034 -4.15118 0
M  V30 4129 H 397.544 -1.66379 -3.81716 0
M  V30 4130 H 400.141 0.68763 -5.3026 0
M  V30 4131 H 400.484 1.59026 -3.84729 0
M  V30 4132 H 401.017 -0.103582 -3.97665 0
M  V30 4133 H 397.756 -2.10575 -6.20756 0
M  V30 4134 H 397.276 -0.407799 -5.98412 0
M  V30 4135 H 398.955 -0.813332 -6.41868 0
M  V30 4136 N 399.087 1.5561 -0.249682 0
M  V30 4137 C 400.315 2.03411 0.378352 0
M  V30 4138 C 400.73 1.12886 1.51335 0
M  V30 4139 O 400.087 0.143833 1.81932 0
M  V30 4140 C 400.138 3.50537 0.88351 0
M  V30 4141 O 399.859 4.37614 -0.20626 0
M  V30 4142 C 401.36 4.14113 1.58195 0
M  V30 4143 H 398.58 0.664994 0.08958 0
M  V30 4144 H 401.124 2.01044 -0.374357 0
M  V30 4145 H 399.279 3.5343 1.58639 0
M  V30 4146 H 399.693 5.24199 0.177782 0
M  V30 4147 H 401.167 5.18741 1.8871 0
M  V30 4148 H 401.644 3.60767 2.50487 0
M  V30 4149 H 402.25 4.15151 0.923573 0
M  V30 4150 N 400.565 -0.0233959 1.57583 0
M  V30 4151 C 401.813 -0.711654 1.89156 0
M  V30 4152 C 402.134 -1.75591 0.848096 0
M  V30 4153 O 401.404 -1.95547 -0.117566 0
M  V30 4154 H 399.984 -0.265835 0.698098 0
M  V30 4155 H 402.646 0.0119948 1.94896 0
M  V30 4156 H 401.742 -1.19766 2.88206 0
M  V30 4157 N 402.043 -1.548 -0.295768 0
M  V30 4158 C 403.289 -1.74588 -1.03184 0
M  V30 4159 C 403.622 -0.532962 -1.86744 0
M  V30 4160 O 402.897 0.469872 -1.88739 0
M  V30 4161 C 403.18 -3.03791 -1.93347 0
M  V30 4162 C 403.033 -4.35392 -1.12933 0
M  V30 4163 C 404.352 -3.28892 -2.92435 0
M  V30 4164 H 401.471 -0.635221 -0.373715 0
M  V30 4165 H 404.113 -1.87519 -0.30606 0
M  V30 4166 H 402.263 -2.92898 -2.55232 0
M  V30 4167 H 403.935 -4.58211 -0.532943 0
M  V30 4168 H 402.178 -4.31642 -0.432168 0
M  V30 4169 H 402.849 -5.22074 -1.79284 0
M  V30 4170 H 405.325 -3.39429 -2.4068 0
M  V30 4171 H 404.201 -4.20603 -3.52682 0
M  V30 4172 H 404.462 -2.47437 -3.6637 0
M  V30 4173 N 403.521 0.559213 -1.47345 0
M  V30 4174 C 404.746 1.34676 -1.57725 0
M  V30 4175 C 405.171 1.86723 -0.227164 0
M  V30 4176 O 404.529 1.6286 0.796642 0
M  V30 4177 C 404.577 2.49399 -2.60447 0
M  V30 4178 O 403.681 3.51567 -2.15578 0
M  V30 4179 H 403.022 0.400115 -0.52991 0
M  V30 4180 H 405.552 0.676009 -1.93109 0
M  V30 4181 H 405.562 2.95996 -2.80803 0
M  V30 4182 H 404.237 2.10873 -3.58477 0
M  V30 4183 H 402.814 3.11289 -2.05313 0
M  V30 4184 N 404.999 1.35443 0.805782 0
M  V30 4185 C 405.962 1.28301 1.89925 0
M  V30 4186 C 406.962 0.194285 1.59622 0
M  V30 4187 O 408.152 0.448036 1.6834 0
M  V30 4188 C 405.284 0.984997 3.2636 0
M  V30 4189 H 406.477 2.2553 1.97677 0
M  V30 4190 H 404.03 1.19979 1.00173 0
M  V30 4191 H 404.765 0.016603 3.24296 0
M  V30 4192 H 404.55 1.77269 3.4974 0
M  V30 4193 H 406.04 0.960651 4.064 0
M  V30 4194 N 406.477 -1.02803 1.19454 0
M  V30 4195 C 407.702 -1.80378 1.02364 0
M  V30 4196 C 408.127 -1.83282 -0.423007 0
M  V30 4197 O 407.485 -1.25945 -1.30413 0
M  V30 4198 C 407.533 -3.23248 1.59821 0
M  V30 4199 O 406.637 -4.04 0.828105 0
M  V30 4200 H 405.978 -0.556799 0.361761 0
M  V30 4201 H 408.508 -1.29385 1.58495 0
M  V30 4202 H 408.518 -3.73994 1.63073 0
M  V30 4203 H 407.193 -3.2045 2.65113 0
M  V30 4204 H 405.77 -3.62635 0.86891 0
M  V30 4205 N 407.956 -0.998596 -1.21925 0
M  V30 4206 C 408.866 -0.562736 -2.27751 0
M  V30 4207 C 409.882 0.391203 -1.69545 0
M  V30 4208 O 411.058 0.256625 -1.99758 0
M  V30 4209 C 408.123 0.11012 -3.46525 0
M  V30 4210 C 407.184 -0.887495 -4.20026 0
M  V30 4211 C 406.417 -0.246654 -5.3313 0
M  V30 4212 O 406.64 0.958088 -5.62296 0
M  V30 4213 O 405.574 -0.954374 -5.94286 0
M  V30 4214 H 409.4 -1.44329 -2.67213 0
M  V30 4215 H 406.985 -0.767135 -1.28201 0
M  V30 4216 H 408.867 0.486756 -4.18579 0
M  V30 4217 H 407.542 0.965154 -3.08976 0
M  V30 4218 H 406.449 -1.31517 -3.5022 0
M  V30 4219 H 407.782 -1.71191 -4.6147 0
M  V30 4220 N 409.434 1.37368 -0.772513 0
M  V30 4221 C 410.683 1.98918 -0.333861 0
M  V30 4222 C 410.996 1.62017 1.09589 0
M  V30 4223 O 412.202 2.16676 1.63596 0
M  V30 4224 C 410.658 3.55735 -0.545971 0
M  V30 4225 C 410.266 4.01573 -1.98603 0
M  V30 4226 C 412.01 4.24156 -0.170979 0
M  V30 4227 C 409.917 5.51102 -2.1457 0
M  V30 4228 H 408.847 0.744214 -0.121085 0
M  V30 4229 H 411.498 1.56888 -0.95175 0
M  V30 4230 H 409.88 3.95748 0.141387 0
M  V30 4231 H 411.054 3.72803 -2.7084 0
M  V30 4232 H 409.369 3.45937 -2.31769 0
M  V30 4233 H 411.966 5.34024 -0.26878 0
M  V30 4234 H 412.309 4.06917 0.878855 0
M  V30 4235 H 412.842 3.89447 -0.810914 0
M  V30 4236 H 409.581 5.73268 -3.17875 0
M  V30 4237 H 409.101 5.81554 -1.46817 0
M  V30 4238 H 410.78 6.17083 -1.94468 0
M  V30 4239 N 410.912 0.523116 1.48665 0
M  V30 4240 C 412.328 0.180511 1.58576 0
M  V30 4241 C 412.528 -1.31597 1.52592 0
M  V30 4242 O 411.584 -2.0937 1.4114 0
M  V30 4243 C 412.897 0.776949 2.90489 0
M  V30 4244 C 414.445 0.745058 3.04003 0
M  V30 4245 C 414.92 1.31995 4.38567 0
M  V30 4246 N 416.411 1.28162 4.45117 0
M  V30 4247 C 417.146 1.6964 5.47731 0
M  V30 4248 N 416.642 2.18816 6.57337 0
M  V30 4249 N 418.435 1.6092 5.38573 0
M  V30 4250 H 410.586 1.4958 1.50797 0
M  V30 4251 H 412.849 0.621772 0.715614 0
M  V30 4252 H 412.555 1.82732 3.00503 0
M  V30 4253 H 412.429 0.25007 3.7637 0
M  V30 4254 H 414.816 -0.296532 2.93606 0
M  V30 4255 H 414.897 1.30933 2.1975 0
M  V30 4256 H 414.541 2.36043 4.49718 0
M  V30 4257 H 414.471 0.731418 5.21496 0
M  V30 4258 H 416.962 0.92155 3.66491 0
M  V30 4259 H 417.275 2.48478 7.31764 0
M  V30 4260 H 415.62 2.22805 6.58318 0
M  V30 4261 H 418.811 1.22304 4.5184 0
M  V30 4262 H 418.984 1.93567 6.18414 0
M  V30 4263 N 412.39 -1.55475 0.257931 0
M  V30 4264 C 413.322 -2.19192 -0.669881 0
M  V30 4265 C 414.335 -1.17148 -1.1305 0
M  V30 4266 O 415.524 -1.43959 -1.05537 0
M  V30 4267 C 412.624 -2.79016 -1.92363 0
M  V30 4268 C 411.797 -4.06586 -1.61265 0
M  V30 4269 C 410.856 -4.50622 -2.7171 0
M  V30 4270 O 409.882 -5.16765 -2.38627 0
M  V30 4271 N 411.084 -4.19325 -4.01431 0
M  V30 4272 H 413.849 -2.99441 -0.124635 0
M  V30 4273 H 411.41 -1.6171 0.0783311 0
M  V30 4274 H 413.402 -3.05427 -2.65511 0
M  V30 4275 H 411.972 -2.0286 -2.37837 0
M  V30 4276 H 411.192 -3.87646 -0.715811 0
M  V30 4277 H 412.48 -4.89737 -1.37967 0
M  V30 4278 H 411.878 -3.66247 -4.31138 0
M  V30 4279 H 410.435 -4.50547 -4.7101 0
M  V30 4280 N 413.868 0.0150385 -1.57593 0
M  V30 4281 C 414.831 0.995996 -2.06428 0
M  V30 4282 C 415.831 1.2818 -0.970903 0
M  V30 4283 O 417.021 1.22949 -1.23406 0
M  V30 4284 C 414.153 2.32506 -2.49307 0
M  V30 4285 H 415.346 0.573873 -2.94358 0
M  V30 4286 H 412.899 0.262186 -1.54085 0
M  V30 4287 H 413.634 2.79438 -1.64575 0
M  V30 4288 H 413.419 2.13087 -3.29145 0
M  V30 4289 H 414.909 3.02906 -2.87468 0
M  V30 4290 N 415.346 1.54954 0.287554 0
M  V30 4291 C 416.309 1.86076 1.33823 0
M  V30 4292 C 417.309 0.734414 1.43049 0
M  V30 4293 O 418.499 1.00266 1.42452 0
M  V30 4294 C 415.631 2.05305 2.72144 0
M  V30 4295 H 416.824 2.79984 1.07465 0
M  V30 4296 H 414.377 1.47223 0.524902 0
M  V30 4297 H 415.112 1.1373 3.03704 0
M  V30 4298 H 414.897 2.873 2.66836 0
M  V30 4299 H 416.387 2.30706 3.48087 0
M  V30 4300 N 416.824 -0.551391 1.4764 0
M  V30 4301 C 418.24 -0.877887 1.33287 0
M  V30 4302 C 418.44 -1.98817 0.327721 0
M  V30 4303 O 417.496 -2.51171 -0.258695 0
M  V30 4304 C 418.809 -1.26563 2.72768 0
M  V30 4305 C 420.357 -1.37673 2.81097 0
M  V30 4306 C 420.832 -1.79799 4.21232 0
M  V30 4307 N 422.323 -1.8694 4.23802 0
M  V30 4308 C 423.058 -2.20876 5.29151 0
M  V30 4309 N 422.554 -2.53386 6.448 0
M  V30 4310 N 424.347 -2.217 5.16532 0
M  V30 4311 H 416.498 0.18153 2.11623 0
M  V30 4312 H 418.761 0.0185514 0.947818 0
M  V30 4313 H 418.467 -0.523591 3.47781 0
M  V30 4314 H 418.341 -2.22052 3.04915 0
M  V30 4315 H 420.728 -2.10956 2.06353 0
M  V30 4316 H 420.809 -0.40357 2.52596 0
M  V30 4317 H 420.453 -1.07083 4.96483 0
M  V30 4318 H 420.383 -2.78128 4.4716 0
M  V30 4319 H 422.874 -1.64179 3.40373 0
M  V30 4320 H 423.187 -2.78325 7.20941 0
M  V30 4321 H 421.532 -2.50953 6.48111 0
M  V30 4322 H 424.723 -1.95745 4.25207 0
M  V30 4323 H 424.896 -2.47818 5.98741 0
M  V30 4324 N 418.302 -1.35869 -0.798587 0
M  V30 4325 C 419.235 -1.23801 -1.91699 0
M  V30 4326 C 420.213 -0.124143 -1.62125 0
M  V30 4327 O 421.397 -0.293656 -1.86199 0
M  V30 4328 C 418.524 -0.908063 -3.263 0
M  V30 4329 C 417.57 -2.0351 -3.74815 0
M  V30 4330 S 418.403 -3.65183 -3.91665 0
M  V30 4331 C 419.559 -3.34283 -5.29156 0
M  V30 4332 H 419.792 -2.18466 -2.01643 0
M  V30 4333 H 417.325 -1.21178 -0.956833 0
M  V30 4334 H 419.283 -0.724506 -4.04056 0
M  V30 4335 H 417.944 0.0206584 -3.14093 0
M  V30 4336 H 417.137 -1.75858 -4.72324 0
M  V30 4337 H 416.739 -2.1774 -3.04081 0
M  V30 4338 H 419.031 -2.87607 -6.13424 0
M  V30 4339 H 419.974 -4.31022 -5.61806 0
M  V30 4340 H 420.382 -2.69854 -4.95822 0
M  V30 4341 N 419.78 1.02168 -1.19998 0
M  V30 4342 C 421.01 1.79036 -1.031 0
M  V30 4343 C 421.418 1.84409 0.423078 0
M  V30 4344 O 420.761 1.29228 1.30559 0
M  V30 4345 C 420.823 3.25185 -1.53281 0
M  V30 4346 C 420.487 3.43431 -3.01503 0
M  V30 4347 C 421.484 3.33063 -3.99206 0
M  V30 4348 C 419.169 3.69412 -3.40353 0
M  V30 4349 C 421.163 3.48413 -5.33748 0
M  V30 4350 C 418.85 3.84406 -4.75053 0
M  V30 4351 C 419.848 3.7391 -5.71559 0
M  V30 4352 O 419.536 3.88452 -7.03818 0
M  V30 4353 H 419.268 0.570043 -0.363355 0
M  V30 4354 H 421.822 1.29524 -1.59414 0
M  V30 4355 H 420.052 3.75756 -0.913483 0
M  V30 4356 H 421.741 3.83671 -1.32481 0
M  V30 4357 H 422.507 3.12934 -3.70537 0
M  V30 4358 H 418.386 3.76671 -2.65782 0
M  V30 4359 H 421.93 3.40137 -6.09059 0
M  V30 4360 H 417.827 4.04035 -5.03415 0
M  V30 4361 H 418.595 4.055 -7.10993 0
M  V30 4362 N 421.258 1.00505 1.21394 0
M  V30 4363 C 422.221 0.570459 2.21987 0
M  V30 4364 C 423.221 -0.353211 1.56873 0
M  V30 4365 O 424.411 -0.14349 1.73608 0
M  V30 4366 C 421.543 -0.168555 3.40483 0
M  V30 4367 H 422.736 1.46021 2.6195 0
M  V30 4368 H 420.289 0.793565 1.34656 0
M  V30 4369 H 421.024 -1.07374 3.06009 0
M  V30 4370 H 420.809 0.494823 3.88965 0
M  V30 4371 H 422.299 -0.460362 4.15055 0
M  V30 4372 N 422.737 -1.36956 0.779787 0
M  V30 4373 C 423.669 -2.28833 0.129639 0
M  V30 4374 C 424.682 -1.4902 -0.655511 0
M  V30 4375 O 425.871 -1.71578 -0.492279 0
M  V30 4376 C 422.971 -3.2833 -0.839792 0
M  V30 4377 C 422.144 -4.3727 -0.10675 0
M  V30 4378 C 421.203 -5.16789 -0.990717 0
M  V30 4379 O 420.229 -5.67406 -0.451516 0
M  V30 4380 N 421.431 -5.32294 -2.3161 0
M  V30 4381 H 424.196 -2.85268 0.918803 0
M  V30 4382 H 421.757 -1.49019 0.632841 0
M  V30 4383 H 423.749 -3.78413 -1.43477 0
M  V30 4384 H 422.319 -2.72605 -1.52988 0
M  V30 4385 H 421.539 -3.88478 0.669216 0
M  V30 4386 H 422.827 -5.07229 0.399464 0
M  V30 4387 H 422.225 -4.92768 -2.77843 0
M  V30 4388 H 420.782 -5.85656 -2.86095 0
M  V30 4389 N 424.215 -0.530993 -1.48385 0
M  V30 4390 C 425.178 0.220497 -2.28137 0
M  V30 4391 C 426.178 0.866851 -1.35434 0
M  V30 4392 O 427.368 0.726746 -1.58316 0
M  V30 4393 C 424.5 1.31921 -3.1434 0
M  V30 4394 H 425.693 -0.479714 -2.96038 0
M  V30 4395 H 423.246 -0.286968 -1.53643 0
M  V30 4396 H 423.981 2.05264 -2.51072 0
M  V30 4397 H 423.766 0.86085 -3.82533 0
M  V30 4398 H 425.256 1.84776 -3.74497 0
M  V30 4399 N 425.693 1.55336 -0.266172 0
M  V30 4400 C 426.64 2.22172 0.625165 0
M  V30 4401 C 427.61 1.19211 1.15663 0
M  V30 4402 O 428.795 1.47723 1.20758 0
M  V30 4403 C 425.935 2.93972 1.8076 0
M  V30 4404 C 425.048 4.11632 1.31084 0
M  V30 4405 C 424.183 4.71099 2.45436 0
M  V30 4406 C 423.222 5.8097 1.92718 0
M  V30 4407 N 422.359 6.34538 3.00509 0
M  V30 4408 H 427.199 2.9796 0.0485582 0
M  V30 4409 H 424.736 1.47095 0.0122024 0
M  V30 4410 H 426.694 3.33811 2.50251 0
M  V30 4411 H 425.324 2.20623 2.35638 0
M  V30 4412 H 424.376 3.76975 0.509326 0
M  V30 4413 H 425.688 4.90893 0.884633 0
M  V30 4414 H 424.842 5.13612 3.22936 0
M  V30 4415 H 423.581 3.91096 2.91368 0
M  V30 4416 H 422.586 5.37916 1.13695 0
M  V30 4417 H 423.811 6.62836 1.47733 0
M  V30 4418 H 421.757 5.57433 3.45839 0
M  V30 4419 H 421.674 7.09046 2.62279 0
M  V30 4420 H 422.942 6.81709 3.78011 0
M  V30 4421 N 427.171 -0.0066808 1.57599 0
M  V30 4422 C 428.396 -0.707738 1.94951 0
M  V30 4423 C 428.821 -1.66882 0.867868 0
M  V30 4424 O 428.179 -1.80457 -0.17458 0
M  V30 4425 C 428.227 -1.42162 3.31394 0
M  V30 4426 O 427.331 -2.53578 3.25226 0
M  V30 4427 H 426.672 -0.188752 0.636607 0
M  V30 4428 H 429.202 0.0445193 2.04552 0
M  V30 4429 H 429.212 -1.78655 3.66806 0
M  V30 4430 H 427.887 -0.716903 4.09675 0
M  V30 4431 H 426.464 -2.19463 3.01481 0
M  V30 4432 N 428.649 -1.55105 -0.279332 0
M  V30 4433 C 429.612 -1.86783 -1.32834 0
M  V30 4434 C 430.612 -0.74199 -1.42657 0
M  V30 4435 O 431.802 -1.0102 -1.41918 0
M  V30 4436 C 428.934 -2.06746 -2.71052 0
M  V30 4437 H 430.127 -2.8055 -1.05979 0
M  V30 4438 H 427.68 -1.47499 -0.517087 0
M  V30 4439 H 428.415 -1.15339 -3.03097 0
M  V30 4440 H 428.2 -2.88711 -2.65309 0
M  V30 4441 H 429.69 -2.32549 -3.46858 0
M  V30 4442 N 430.127 0.543554 -1.4793 0
M  V30 4443 C 431.09 1.63156 -1.60975 0
M  V30 4444 C 432.09 1.53346 -0.483899 0
M  V30 4445 O 433.28 1.5726 -0.749339 0
M  V30 4446 C 430.412 3.02743 -1.56716 0
M  V30 4447 H 431.605 1.52934 -2.57975 0
M  V30 4448 H 429.158 0.764557 -1.36324 0
M  V30 4449 H 429.893 3.18484 -0.611418 0
M  V30 4450 H 429.678 3.11272 -2.38438 0
M  V30 4451 H 431.168 3.81871 -1.6901 0
M  V30 4452 N 431.605 1.3629 0.791371 0
M  V30 4453 C 432.854 1.29742 1.54434 0
M  V30 4454 C 433.167 -0.121729 1.95221 0
M  V30 4455 O 434.373 -0.309579 2.69729 0
M  V30 4456 C 432.829 2.27623 2.78776 0
M  V30 4457 C 432.437 3.74963 2.45166 0
M  V30 4458 C 434.181 2.30047 3.56761 0
M  V30 4459 C 432.088 4.64626 3.65891 0
M  V30 4460 H 431.018 0.482113 0.579727 0
M  V30 4461 H 433.669 1.61642 0.868565 0
M  V30 4462 H 432.051 1.88714 3.48142 0
M  V30 4463 H 433.225 4.22596 1.83709 0
M  V30 4464 H 431.54 3.75295 1.80396 0
M  V30 4465 H 434.137 2.94247 4.46456 0
M  V30 4466 H 434.48 1.30846 3.95203 0
M  V30 4467 H 435.013 2.67563 2.94372 0
M  V30 4468 H 431.752 5.64883 3.32547 0
M  V30 4469 H 431.272 4.2171 4.26521 0
M  V30 4470 H 432.951 4.80801 4.32943 0
M  V30 4471 N 433.083 -1.0153 1.20538 0
M  V30 4472 C 434.013 -2.11972 0.979295 0
M  V30 4473 C 434.994 -1.6985 -0.0921787 0
M  V30 4474 O 436.179 -1.94089 0.0655932 0
M  V30 4475 C 433.309 -3.43201 0.531984 0
M  V30 4476 C 432.263 -3.9907 1.54685 0
M  V30 4477 C 431.589 -5.26082 0.956127 0
M  V30 4478 C 432.889 -4.32313 2.93092 0
M  V30 4479 H 434.583 -2.31143 1.90298 0
M  V30 4480 H 432.129 -1.11079 0.916372 0
M  V30 4481 H 434.082 -4.1985 0.361044 0
M  V30 4482 H 432.806 -3.23792 -0.427327 0
M  V30 4483 H 431.465 -3.2453 1.70517 0
M  V30 4484 H 431.113 -5.02999 -0.0111538 0
M  V30 4485 H 430.813 -5.64426 1.63393 0
M  V30 4486 H 432.337 -6.05386 0.796284 0
M  V30 4487 H 433.751 -4.99845 2.80763 0
M  V30 4488 H 432.148 -4.81774 3.57791 0
M  V30 4489 H 433.218 -3.41025 3.44717 0
M  V30 4490 N 434.561 -1.01147 -1.20859 0
M  V30 4491 C 435.807 -0.708598 -1.90658 0
M  V30 4492 C 436.162 0.753069 -1.7705 0
M  V30 4493 O 435.455 1.53952 -1.14059 0
M  V30 4494 C 435.649 -1.0727 -3.40922 0
M  V30 4495 C 435.478 -2.56821 -3.69152 0
M  V30 4496 C 434.248 -3.23524 -3.8815 0
M  V30 4497 C 436.446 -3.54997 -3.72131 0
M  V30 4498 N 434.428 -4.62359 -4.03853 0
M  V30 4499 C 435.799 -4.79371 -3.93196 0
M  V30 4500 C 437.854 -3.49042 -3.55069 0
M  V30 4501 C 436.557 -5.98512 -3.98969 0
M  V30 4502 C 438.583 -4.67579 -3.6211 0
M  V30 4503 C 437.945 -5.9076 -3.83643 0
M  V30 4504 H 434.044 -0.31088 -0.71755 0
M  V30 4505 H 436.628 -1.29526 -1.45366 0
M  V30 4506 H 434.799 -0.51443 -3.84978 0
M  V30 4507 H 436.531 -0.723891 -3.98173 0
M  V30 4508 H 433.286 -2.73958 -3.86321 0
M  V30 4509 H 433.71 -5.34427 -4.15592 0
M  V30 4510 H 438.352 -2.54808 -3.37391 0
M  V30 4511 H 436.07 -6.93132 -4.15444 0
M  V30 4512 H 439.656 -4.64581 -3.50222 0
M  V30 4513 H 438.536 -6.8095 -3.88944 0
M  V30 4514 N 436.039 1.36541 -0.78704 0
M  V30 4515 C 437.287 1.98911 -0.357633 0
M  V30 4516 C 437.608 1.62778 1.07371 0
M  V30 4517 O 436.878 0.900612 1.73971 0
M  V30 4518 H 435.458 0.735734 -0.129246 0
M  V30 4519 H 438.12 1.66776 -1.00855 0
M  V30 4520 H 437.216 3.08874 -0.447549 0
M  V30 4521 N 437.518 0.538854 1.48102 0
M  V30 4522 C 438.451 -0.266495 2.26639 0
M  V30 4523 C 439.429 -0.93687 1.32897 0
M  V30 4524 O 440.613 -0.959507 1.62252 0
M  V30 4525 C 437.74 -1.37814 3.09394 0
M  V30 4526 C 436.786 -0.818247 4.18577 0
M  V30 4527 S 437.619 0.320848 5.34538 0
M  V30 4528 C 438.775 -0.793059 6.20855 0
M  V30 4529 H 439.008 0.399994 2.94597 0
M  V30 4530 H 436.541 0.324808 1.50945 0
M  V30 4531 H 438.499 -2.01488 3.57649 0
M  V30 4532 H 437.16 -2.01639 2.40833 0
M  V30 4533 H 436.353 -1.65247 4.7614 0
M  V30 4534 H 435.955 -0.258036 3.73109 0
M  V30 4535 H 438.247 -1.68961 6.56093 0
M  V30 4536 H 439.19 -0.255204 7.0764 0
M  V30 4537 H 439.598 -1.07746 5.54122 0
M  V30 4538 N 438.996 -1.55193 0.274407 0
M  V30 4539 C 440.244 -1.99187 -0.341902 0
M  V30 4540 C 440.565 -1.16422 -1.56431 0
M  V30 4541 O 439.835 -0.253573 -1.94252 0
M  V30 4542 H 438.415 -0.735721 -0.129317 0
M  V30 4543 H 441.077 -1.91168 0.379578 0
M  V30 4544 H 440.173 -3.05629 -0.632253 0
M  V30 4545 N 440.474 -0.00167713 -1.576 0
M  V30 4546 C 441.72 0.683832 -1.90923 0
M  V30 4547 C 442.053 1.7333 -0.875799 0
M  V30 4548 O 441.328 1.94215 0.10525 0
M  V30 4549 C 441.611 1.32543 -3.3482 0
M  V30 4550 C 441.464 0.287387 -4.48881 0
M  V30 4551 C 442.783 2.25114 -3.78169 0
M  V30 4552 H 439.902 0.247125 -0.694333 0
M  V30 4553 H 442.544 -0.0533149 -1.89925 0
M  V30 4554 H 440.694 1.95372 -3.35801 0
M  V30 4555 H 442.366 -0.341346 -4.60035 0
M  V30 4556 H 440.609 -0.39017 -4.32042 0
M  V30 4557 H 441.28 0.775393 -5.46527 0
M  V30 4558 H 443.756 1.723 -3.7875 0
M  V30 4559 H 442.632 2.66971 -4.79602 0
M  V30 4560 H 442.893 3.13092 -3.12131 0
M  V30 4561 N 441.952 1.55251 0.271103 0
M  V30 4562 C 443.18 1.79974 1.02064 0
M  V30 4563 C 443.595 0.574003 1.79863 0
M  V30 4564 O 442.952 -0.456962 1.76686 0
M  V30 4565 C 443.003 3.02603 1.97772 0
M  V30 4566 O 442.724 4.20443 1.23124 0
M  V30 4567 C 444.225 3.39944 2.84522 0
M  V30 4568 H 441.445 0.599489 0.301419 0
M  V30 4569 H 443.989 2.02268 0.301313 0
M  V30 4570 H 442.144 2.8243 2.65165 0
M  V30 4571 H 442.558 4.89783 1.87651 0
M  V30 4572 H 444.032 4.28915 3.47471 0
M  V30 4573 H 444.509 2.59432 3.54389 0
M  V30 4574 H 445.115 3.62383 2.22618 0
M  V30 4575 N 443.43 -0.535701 1.48216 0
M  V30 4576 C 444.362 -1.65662 1.58394 0
M  V30 4577 C 445.375 -1.5591 0.468607 0
M  V30 4578 O 446.564 -1.62475 0.7392 0
M  V30 4579 C 443.664 -3.04276 1.4923 0
M  V30 4580 C 442.837 -3.39567 2.75705 0
M  V30 4581 C 441.896 -4.57436 2.60075 0
M  V30 4582 O 440.922 -4.60942 3.33948 0
M  V30 4583 N 442.124 -5.55259 1.69315 0
M  V30 4584 H 444.889 -1.5737 2.55058 0
M  V30 4585 H 442.45 -0.722845 1.44867 0
M  V30 4586 H 444.442 -3.80994 1.36477 0
M  V30 4587 H 443.012 -3.06677 0.605632 0
M  V30 4588 H 442.232 -2.52083 3.03064 0
M  V30 4589 H 443.52 -3.59929 3.59623 0
M  V30 4590 H 442.918 -5.552 1.08489 0
M  V30 4591 H 441.475 -6.31218 1.62504 0
M  V30 4592 N 444.908 -1.36708 -0.784132 0
M  V30 4593 C 446.155 -1.31231 -1.54222 0
M  V30 4594 C 446.483 0.106864 -1.94206 0
M  V30 4595 O 445.738 1.07734 -1.63376 0
M  V30 4596 C 446.037 -2.18571 -2.82774 0
M  V30 4597 C 445.703 -3.67039 -2.61903 0
M  V30 4598 C 444.365 -4.07503 -2.55919 0
M  V30 4599 C 446.717 -4.61149 -2.4288 0
M  V30 4600 C 444.045 -5.40211 -2.28886 0
M  V30 4601 C 446.397 -5.94081 -2.17373 0
M  V30 4602 C 445.061 -6.33664 -2.09825 0
M  V30 4603 H 444.331 -0.48021 -0.56434 0
M  V30 4604 H 446.978 -1.68807 -0.904233 0
M  V30 4605 H 445.283 -1.73949 -3.51068 0
M  V30 4606 H 446.98 -2.11655 -3.40592 0
M  V30 4607 H 443.57 -3.34941 -2.67418 0
M  V30 4608 H 447.754 -4.30756 -2.46501 0
M  V30 4609 H 443.01 -5.69855 -2.21529 0
M  V30 4610 H 447.184 -6.66566 -2.01649 0
M  V30 4611 H 444.811 -7.36423 -1.88641 0
M  V30 4612 N 446.386 1.0089 -1.21074 0
M  V30 4613 C 447.616 1.77933 -1.04993 0
M  V30 4614 C 448.024 1.84847 0.403495 0
M  V30 4615 O 447.367 1.30606 1.29181 0
M  V30 4616 C 447.429 3.23541 -1.56722 0
M  V30 4617 C 447.093 3.40214 -3.05129 0
M  V30 4618 C 448.09 3.2881 -4.02716 0
M  V30 4619 C 445.775 3.65781 -3.44252 0
M  V30 4620 C 447.769 3.42732 -5.37414 0
M  V30 4621 C 445.456 3.79346 -4.79103 0
M  V30 4622 C 446.454 3.67827 -5.75493 0
M  V30 4623 O 446.142 3.80965 -7.07899 0
M  V30 4624 H 445.874 0.566157 -0.369381 0
M  V30 4625 H 448.428 1.27826 -1.60779 0
M  V30 4626 H 446.658 3.74766 -0.953285 0
M  V30 4627 H 448.347 3.82245 -1.36543 0
M  V30 4628 H 449.113 3.08986 -3.73835 0
M  V30 4629 H 444.992 3.73831 -2.69762 0
M  V30 4630 H 448.536 3.33658 -6.12632 0
M  V30 4631 H 444.433 3.98672 -5.07672 0
M  V30 4632 H 445.201 3.97937 -7.15254 0
M  V30 4633 N 447.864 1.01787 1.20321 0
M  V30 4634 C 448.796 0.547357 2.22568 0
M  V30 4635 C 449.809 -0.370922 1.58518 0
M  V30 4636 O 450.998 -0.169067 1.77698 0
M  V30 4637 C 448.098 -0.223031 3.38165 0
M  V30 4638 C 447.271 0.697472 4.31803 0
M  V30 4639 C 446.33 -0.025562 5.26194 0
M  V30 4640 O 445.356 0.597367 5.66057 0
M  V30 4641 N 446.558 -1.29999 5.65757 0
M  V30 4642 H 449.323 1.42668 2.63564 0
M  V30 4643 H 446.884 0.895552 1.34876 0
M  V30 4644 H 448.876 -0.716002 3.98316 0
M  V30 4645 H 447.446 -1.00366 2.9605 0
M  V30 4646 H 446.666 1.37073 3.69601 0
M  V30 4647 H 447.954 1.32347 4.91286 0
M  V30 4648 H 447.352 -1.827 5.35385 0
M  V30 4649 H 445.909 -1.73766 6.28211 0
M  V30 4650 N 449.342 -1.36122 0.79427 0
M  V30 4651 C 450.59 -1.98718 0.368177 0
M  V30 4652 C 450.911 -1.63345 -1.06506 0
M  V30 4653 O 450.181 -0.909825 -1.73491 0
M  V30 4654 H 448.761 -0.735038 0.133146 0
M  V30 4655 H 451.423 -1.66239 1.01739 0
M  V30 4656 H 450.519 -3.08633 0.463923 0
M  V30 4657 N 450.82 -0.546701 -1.47814 0
M  V30 4658 C 452.066 -0.0187684 -2.02791 0
M  V30 4659 C 452.399 1.32338 -1.42128 0
M  V30 4660 O 451.674 1.85867 -0.573023 0
M  V30 4661 C 451.957 0.0854985 -3.59998 0
M  V30 4662 C 451.81 -1.283 -4.31114 0
M  V30 4663 C 453.129 0.80412 -4.32691 0
M  V30 4664 H 450.248 -0.0082946 -0.736953 0
M  V30 4665 H 452.89 -0.706962 -1.76358 0
M  V30 4666 H 451.04 0.671609 -3.82651 0
M  V30 4667 H 452.712 -1.91151 -4.19832 0
M  V30 4668 H 450.955 -1.86049 -3.91878 0
M  V30 4669 H 451.626 -1.16287 -5.39612 0
M  V30 4670 H 454.102 0.306576 -4.14969 0
M  V30 4671 H 452.978 0.846011 -5.42341 0
M  V30 4672 H 453.239 1.85802 -4.01161 0
M  V30 4673 N 452.299 1.55045 -0.282633 0
M  V30 4674 C 453.209 2.26491 0.61147 0
M  V30 4675 C 454.225 1.29348 1.16384 0
M  V30 4676 O 455.401 1.62298 1.19253 0
M  V30 4677 C 452.466 2.97779 1.77563 0
M  V30 4678 C 451.527 4.10418 1.25919 0
M  V30 4679 C 450.76 4.78297 2.36786 0
M  V30 4680 O 450.983 4.45426 3.56303 0
M  V30 4681 O 449.917 5.66089 2.04517 0
M  V30 4682 H 453.743 3.03683 0.0324615 0
M  V30 4683 H 451.328 1.49317 -0.0497576 0
M  V30 4684 H 453.21 3.42554 2.45427 0
M  V30 4685 H 451.885 2.23498 2.34159 0
M  V30 4686 H 450.792 3.70082 0.546797 0
M  V30 4687 H 452.125 4.86622 0.738887 0
M  V30 4688 N 453.777 0.010035 1.57597 0
M  V30 4689 C 455.005 -0.683413 1.95287 0
M  V30 4690 C 455.42 -1.66747 0.885481 0
M  V30 4691 O 454.777 -1.82003 -0.134629 0
M  V30 4692 C 454.828 -1.40652 3.33015 0
M  V30 4693 O 454.549 -0.461916 4.35658 0
M  V30 4694 C 456.05 -2.19356 3.85225 0
M  V30 4695 H 453.27 -0.189708 0.643624 0
M  V30 4696 H 455.814 0.0641359 2.04399 0
M  V30 4697 H 453.969 -2.10562 3.2518 0
M  V30 4698 H 454.383 -0.973215 5.15392 0
M  V30 4699 H 455.857 -2.65433 4.83993 0
M  V30 4700 H 456.334 -3.02457 3.18459 0
M  V30 4701 H 456.94 -1.54442 3.96267 0
M  V30 4702 N 455.255 -1.55392 -0.262866 0
M  V30 4703 C 456.501 -1.76737 -0.99458 0
M  V30 4704 C 456.834 -0.572453 -1.85571 0
M  V30 4705 O 456.109 0.429732 -1.89693 0
M  V30 4706 C 456.392 -3.07824 -1.8686 0
M  V30 4707 C 456.245 -4.3769 -1.03672 0
M  V30 4708 C 457.564 -3.35021 -2.85393 0
M  V30 4709 H 454.683 -0.643005 -0.360157 0
M  V30 4710 H 457.325 -1.88126 -0.266216 0
M  V30 4711 H 455.475 -2.98245 -2.48962 0
M  V30 4712 H 457.147 -4.59238 -0.43563 0
M  V30 4713 H 455.39 -4.32461 -0.340513 0
M  V30 4714 H 456.061 -5.25759 -1.6817 0
M  V30 4715 H 458.537 -3.44458 -2.33426 0
M  V30 4716 H 457.413 -4.27989 -3.43681 0
M  V30 4717 H 457.674 -2.55153 -3.61039 0
M  V30 4718 N 456.733 0.527833 -1.48498 0
M  V30 4719 C 458.149 0.856571 -1.34666 0
M  V30 4720 C 458.349 1.98271 -0.35931 0
M  V30 4721 O 457.405 2.51551 0.218703 0
M  V30 4722 C 458.718 1.22207 -2.74747 0
M  V30 4723 C 460.266 1.33183 -2.83251 0
M  V30 4724 C 460.741 1.73075 -4.24039 0
M  V30 4725 N 462.232 1.80174 -4.26722 0
M  V30 4726 C 462.967 2.1243 -5.32598 0
M  V30 4727 N 462.463 2.43096 -6.4875 0
M  V30 4728 N 464.256 2.13454 -5.19994 0
M  V30 4729 H 456.407 -0.215174 -2.11307 0
M  V30 4730 H 458.67 -0.0336281 -0.947403 0
M  V30 4731 H 458.376 0.468195 -3.4857 0
M  V30 4732 H 458.25 2.17173 -3.08409 0
M  V30 4733 H 460.637 2.07647 -2.09683 0
M  V30 4734 H 460.718 0.363333 -2.53206 0
M  V30 4735 H 460.362 0.991712 -4.98124 0
M  V30 4736 H 460.292 2.70979 -4.51529 0
M  V30 4737 H 462.783 1.58744 -3.42942 0
M  V30 4738 H 463.096 2.6682 -7.25277 0
M  V30 4739 H 461.441 2.40611 -6.52021 0
M  V30 4740 H 464.632 1.88956 -4.28268 0
M  V30 4741 H 464.805 2.38261 -6.02608 0
M  V30 4742 N 458.211 1.37122 0.776871 0
M  V30 4743 C 459.436 1.354 1.57104 0
M  V30 4744 C 459.861 -0.0595562 1.88006 0
M  V30 4745 O 459.219 -1.03514 1.48844 0
M  V30 4746 C 459.267 2.19472 2.8612 0
M  V30 4747 O 458.371 1.59582 3.80273 0
M  V30 4748 H 457.712 0.462869 0.476076 0
M  V30 4749 H 460.242 1.80577 0.961932 0
M  V30 4750 H 460.252 2.32502 3.35271 0
M  V30 4751 H 458.927 3.22222 2.62956 0
M  V30 4752 H 457.504 1.55564 3.38902 0
M  V30 4753 N 459.689 -1.00246 1.21608 0
M  V30 4754 C 460.619 -2.10921 1.00172 0
M  V30 4755 C 461.6 -1.69938 -0.0741587 0
M  V30 4756 O 462.785 -1.94009 0.0861753 0
M  V30 4757 C 459.915 -3.42618 0.568355 0
M  V30 4758 C 458.869 -3.97407 1.58909 0
M  V30 4759 C 458.195 -5.25038 1.01187 0
M  V30 4760 C 459.495 -4.2918 2.97661 0
M  V30 4761 H 461.189 -2.29112 1.92739 0
M  V30 4762 H 458.735 -1.10101 0.928102 0
M  V30 4763 H 460.688 -4.19444 0.405555 0
M  V30 4764 H 459.412 -3.24227 -0.392961 0
M  V30 4765 H 458.071 -3.22703 1.73949 0
M  V30 4766 H 457.719 -5.02982 0.0421965 0
M  V30 4767 H 457.419 -5.62661 1.6937 0
M  V30 4768 H 458.943 -6.04507 0.860448 0
M  V30 4769 H 460.357 -4.96839 2.86049 0
M  V30 4770 H 458.754 -4.77952 3.6288 0
M  V30 4771 H 459.824 -3.3735 3.48315 0
M  V30 4772 N 461.167 -1.02423 -1.1978 0
M  V30 4773 C 462.395 -0.737456 -1.93311 0
M  V30 4774 C 462.81 0.703023 -1.75223 0
M  V30 4775 O 462.167 1.47761 -1.07112 0
M  V30 4776 C 462.218 -1.0733 -3.45199 0
M  V30 4777 O 461.939 -2.4572 -3.62702 0
M  V30 4778 C 463.44 -0.80866 -4.35862 0
M  V30 4779 H 460.66 -0.2702 -0.614193 0
M  V30 4780 H 463.204 -1.36747 -1.52054 0
M  V30 4781 H 461.359 -0.488545 -3.84307 0
M  V30 4782 H 461.773 -2.58081 -4.56612 0
M  V30 4783 H 463.247 -1.09365 -5.41057 0
M  V30 4784 H 463.724 0.257025 -4.38447 0
M  V30 4785 H 464.33 -1.37592 -4.02428 0
M  V30 4786 N 462.645 1.35699 -0.801477 0
M  V30 4787 C 463.87 2.03687 -0.390678 0
M  V30 4788 C 464.295 1.60015 0.988778 0
M  V30 4789 O 463.653 0.774357 1.63931 0
M  V30 4790 C 463.701 3.57439 -0.476404 0
M  V30 4791 O 462.805 4.09208 0.512106 0
M  V30 4792 H 462.146 0.64344 -0.163956 0
M  V30 4793 H 464.676 1.73403 -1.08594 0
M  V30 4794 H 464.686 4.06544 -0.344357 0
M  V30 4795 H 463.361 3.88576 -1.48262 0
M  V30 4796 H 461.938 3.7134 0.340721 0
M  V30 4797 N 464.123 0.554532 1.47522 0
M  V30 4798 C 465.053 -0.182974 2.32782 0
M  V30 4799 C 466.034 -0.911377 1.43624 0
M  V30 4800 O 467.219 -0.892366 1.72483 0
M  V30 4801 C 464.349 -1.21513 3.25349 0
M  V30 4802 C 463.303 -0.603355 4.23726 0
M  V30 4803 C 462.629 -1.73995 5.05598 0
M  V30 4804 C 463.929 0.441121 5.20434 0
M  V30 4805 H 465.623 0.52882 2.94693 0
M  V30 4806 H 463.169 0.255759 1.41711 0
M  V30 4807 H 465.122 -1.73922 3.83835 0
M  V30 4808 H 463.846 -1.95683 2.61487 0
M  V30 4809 H 462.505 -0.10059 3.66462 0
M  V30 4810 H 462.153 -2.47063 4.38143 0
M  V30 4811 H 461.853 -1.3364 5.72201 0
M  V30 4812 H 463.377 -2.26735 5.66942 0
M  V30 4813 H 464.791 0.00319931 5.733 0
M  V30 4814 H 463.188 0.763402 5.95224 0
M  V30 4815 H 464.258 1.33799 4.66075 0
M  V30 4816 N 465.601 -1.54893 0.290851 0
M  V30 4817 C 466.564 -2.21824 -0.576784 0
M  V30 4818 C 467.564 -1.20104 -1.06919 0
M  V30 4819 O 468.754 -1.44906 -0.966843 0
M  V30 4820 C 465.886 -2.89662 -1.79747 0
M  V30 4821 H 467.079 -2.99899 0.00784051 0
M  V30 4822 H 464.632 -1.56245 0.0415934 0
M  V30 4823 H 465.367 -2.15639 -2.42219 0
M  V30 4824 H 465.152 -3.64219 -1.45214 0
M  V30 4825 H 466.642 -3.4075 -2.4141 0
M  V30 4826 N 467.08 -0.0183926 -1.57589 0
M  V30 4827 C 468.013 1.00148 -2.0505 0
M  V30 4828 C 468.991 1.32387 -0.944058 0
M  V30 4829 O 470.175 1.44237 -1.21358 0
M  V30 4830 C 467.302 2.32435 -2.46357 0
M  V30 4831 C 466.348 2.15731 -3.67916 0
M  V30 4832 S 467.181 1.46613 -5.15039 0
M  V30 4833 C 468.337 2.80293 -5.59631 0
M  V30 4834 H 468.57 0.597429 -2.91235 0
M  V30 4835 H 466.103 0.193002 -1.53189 0
M  V30 4836 H 468.061 3.0849 -2.70822 0
M  V30 4837 H 466.722 2.69975 -1.60537 0
M  V30 4838 H 465.915 3.13502 -3.9463 0
M  V30 4839 H 465.517 1.4782 -3.43548 0
M  V30 4840 H 467.809 3.76557 -5.63215 0
M  V30 4841 H 468.752 2.58256 -6.59325 0
M  V30 4842 H 469.16 2.85047 -4.87246 0
M  V30 4843 N 468.558 1.5553 0.254621 0
M  V30 4844 C 469.488 1.9268 1.31897 0
M  V30 4845 C 470.469 0.790797 1.506 0
M  V30 4846 O 471.654 1.05045 1.63337 0
M  V30 4847 C 468.784 2.21477 2.67517 0
M  V30 4848 C 467.738 3.37256 2.63519 0
M  V30 4849 C 467.064 3.51576 4.02862 0
M  V30 4850 C 468.364 4.73157 2.21179 0
M  V30 4851 H 470.058 2.81832 1.01051 0
M  V30 4852 H 467.604 1.35599 0.484662 0
M  V30 4853 H 469.557 2.46055 3.42104 0
M  V30 4854 H 468.281 1.29144 2.99982 0
M  V30 4855 H 466.94 3.12675 1.9139 0
M  V30 4856 H 466.588 2.56676 4.32581 0
M  V30 4857 H 466.288 4.2943 4.01078 0
M  V30 4858 H 467.812 3.78467 4.79161 0
M  V30 4859 H 469.226 4.97158 2.85494 0
M  V30 4860 H 467.623 5.54058 2.30521 0
M  V30 4861 H 468.693 4.70739 1.16332 0
M  V30 4862 N 470.036 -0.519951 1.48776 0
M  V30 4863 C 471.264 -1.29971 1.60982 0
M  V30 4864 C 471.679 -1.86803 0.273885 0
M  V30 4865 O 471.036 -1.66904 -0.738193 0
M  V30 4866 C 471.087 -2.44346 2.66415 0
M  V30 4867 O 470.808 -1.89855 3.94825 0
M  V30 4868 C 472.309 -3.36014 2.89153 0
M  V30 4869 H 469.529 -0.394891 0.542496 0
M  V30 4870 H 472.073 -0.626214 1.94676 0
M  V30 4871 H 470.228 -3.07562 2.35552 0
M  V30 4872 H 470.642 -2.64798 4.5275 0
M  V30 4873 H 472.116 -4.12593 3.66703 0
M  V30 4874 H 472.593 -3.91859 1.98351 0
M  V30 4875 H 473.199 -2.78582 3.21359 0
M  V30 4876 N 471.514 -1.37532 -0.769588 0
M  V30 4877 C 472.762 -1.32597 -1.5252 0
M  V30 4878 C 473.083 0.0884294 -1.94799 0
M  V30 4879 O 472.353 1.03289 -1.66458 0
M  V30 4880 H 470.933 -0.487846 -0.565699 0
M  V30 4881 H 473.595 -1.72044 -0.915806 0
M  V30 4882 H 472.691 -1.96643 -2.42359 0
M  V30 4883 N 472.992 0.995999 -1.22138 0
M  V30 4884 C 473.94 2.10673 -0.985876 0
M  V30 4885 C 474.934 1.69255 0.0699553 0
M  V30 4886 O 476.14 1.79812 -0.0822176 0
M  V30 4887 H 472.515 0.688865 -0.30161 0
M  V30 4888 H 474.486 2.27711 -1.92848 0
M  V30 4889 C 473.235 3.42881 -0.576909 0
M  V30 4890 H 472.558 3.75191 -1.38101 0
M  V30 4891 H 473.998 4.21589 -0.451518 0
M  V30 4892 C 472.457 3.29265 0.713196 0
M  V30 4893 O 472.987 3.60777 1.76643 0
M  V30 4894 N 471.193 2.82456 0.683162 0
M  V30 4895 H 470.74 2.5701 -0.174242 0
M  V30 4896 H 470.698 2.73727 1.54663 0
M  V30 4897 N 474.47 1.03057 1.19235 0
M  V30 4898 C 475.4 0.633497 2.24742 0
M  V30 4899 C 476.381 -0.358335 1.66283 0
M  V30 4900 O 477.566 -0.240676 1.92703 0
M  V30 4901 C 474.696 -0.0147648 3.47297 0
M  V30 4902 C 473.65 0.899527 4.18441 0
M  V30 4903 C 472.976 0.116281 5.34574 0
M  V30 4904 C 474.276 2.21404 4.73051 0
M  V30 4905 H 475.97 1.5155 2.58211 0
M  V30 4906 H 473.516 0.73014 1.24117 0
M  V30 4907 H 475.469 -0.304202 4.20301 0
M  V30 4908 H 474.193 -0.931577 3.13032 0
M  V30 4909 H 472.852 1.17319 3.47321 0
M  V30 4910 H 472.5 -0.802619 4.96555 0
M  V30 4911 H 472.2 0.725293 5.83107 0
M  V30 4912 H 473.724 -0.166376 6.10373 0
M  V30 4913 H 475.138 1.98601 5.37802 0
M  V30 4914 H 473.535 2.77512 5.32078 0
M  V30 4915 H 474.605 2.86752 3.91026 0
M  V30 4916 N 475.948 -1.35272 0.808662 0
M  V30 4917 C 477.196 -1.98316 0.389233 0
M  V30 4918 C 477.517 -1.64465 -1.04767 0
M  V30 4919 O 476.787 -0.928175 -1.72516 0
M  V30 4920 H 475.367 -0.733585 0.140935 0
M  V30 4921 H 478.029 -1.6515 1.03496 0
M  V30 4922 H 477.125 -3.08123 0.496631 0
M  V30 4923 N 477.426 -0.562348 -1.47226 0
M  V30 4924 C 478.373 0.182461 -2.30078 0
M  V30 4925 C 479.343 0.903503 -1.39377 0
M  V30 4926 O 480.528 0.898188 -1.68337 0
M  V30 4927 C 477.668 1.20322 -3.23445 0
M  V30 4928 C 476.781 0.487717 -4.29238 0
M  V30 4929 C 475.916 1.49422 -5.09752 0
M  V30 4930 C 474.955 0.763976 -6.07314 0
M  V30 4931 N 474.092 1.71755 -6.80768 0
M  V30 4932 H 478.932 -0.530169 -2.93246 0
M  V30 4933 H 476.469 -0.273276 -1.44539 0
M  V30 4934 H 478.427 1.80768 -3.76004 0
M  V30 4935 H 477.057 1.88382 -2.6213 0
M  V30 4936 H 476.109 -0.231374 -3.79696 0
M  V30 4937 H 477.421 -0.0841003 -4.98729 0
M  V30 4938 H 476.575 2.17206 -5.66486 0
M  V30 4939 H 475.314 2.09995 -4.40174 0
M  V30 4940 H 474.319 0.0722344 -5.49753 0
M  V30 4941 H 475.544 0.16391 -6.78902 0
M  V30 4942 H 473.49 2.31177 -6.13916 0
M  V30 4943 H 473.407 1.19802 -7.46447 0
M  V30 4944 H 474.675 2.38638 -7.42073 0
M  V30 4945 N 478.904 1.54736 -0.299062 0
M  V30 4946 C 480.315 1.8569 0.193971 0
M  V30 4947 C 480.666 1.22101 1.53577 0
M  V30 4948 O 479.791 0.51799 2.10109 0
M  V30 4949 C 480.386 3.36895 0.358733 0
M  V30 4950 C 478.945 3.67887 0.795986 0
M  V30 4951 C 478.092 2.77131 -0.096807 0
M  V30 4952 H 481.043 1.49934 -0.520134 0
M  V30 4953 H 481.064 3.61294 1.19361 0
M  V30 4954 H 480.576 3.83148 -0.617998 0
M  V30 4955 H 478.677 3.27151 1.78334 0
M  V30 4956 H 478.79 4.75114 0.616718 0
M  V30 4957 H 477.154 2.51153 0.423581 0
M  V30 4958 H 477.937 3.26204 -1.06986 0
M  V30 4959 N 480.382 0.0267497 1.57577 0
M  V30 4960 C 481.332 -0.965003 2.06571 0
M  V30 4961 C 482.316 -1.28694 0.965746 0
M  V30 4962 O 483.508 -1.27345 1.22932 0
M  V30 4963 C 480.637 -2.24821 2.59443 0
M  V30 4964 C 479.723 -1.95474 3.76365 0
M  V30 4965 N 480.114 -1.36387 4.87065 0
M  V30 4966 C 478.412 -2.25478 3.84806 0
M  V30 4967 C 479.113 -1.24119 5.68304 0
M  V30 4968 N 478.089 -1.7359 5.15138 0
M  V30 4969 H 481.891 -0.503095 2.89562 0
M  V30 4970 H 479.405 -0.178322 1.61418 0
M  V30 4971 H 481.402 -2.9674 2.92833 0
M  V30 4972 H 480.062 -2.7164 1.77881 0
M  V30 4973 H 481.073 -1.03919 5.07367 0
M  V30 4974 H 477.75 -2.74987 3.14147 0
M  V30 4975 H 479.14 -0.784504 6.67304 0
M  V30 4976 N 481.861 -1.55662 -0.24637 0
M  V30 4977 C 482.824 -1.89558 -1.28842 0
M  V30 4978 C 483.824 -0.772082 -1.41052 0
M  V30 4979 O 485.014 -1.04007 -1.39743 0
M  V30 4980 C 482.146 -2.12449 -2.66605 0
M  V30 4981 H 483.339 -2.82735 -1.00004 0
M  V30 4982 H 480.892 -1.48562 -0.485684 0
M  V30 4983 H 481.627 -1.21742 -3.00582 0
M  V30 4984 H 481.412 -2.94273 -2.59125 0
M  V30 4985 H 482.902 -2.39854 -3.41847 0
M  V30 4986 N 483.339 0.512053 -1.4905 0
M  V30 4987 C 484.587 1.26436 -1.57665 0
M  V30 4988 C 484.908 1.93255 -0.260293 0
M  V30 4989 O 484.178 1.82206 0.719564 0
M  V30 4990 H 482.758 0.469658 -0.580888 0
M  V30 4991 H 485.42 0.594398 -1.85615 0
M  V30 4992 H 484.516 2.03417 -2.36702 0
M  V30 4993 N 484.817 1.37938 0.762283 0
M  V30 4994 C 486.063 1.33866 1.52341 0
M  V30 4995 C 486.396 -0.0738961 1.94059 0
M  V30 4996 O 485.671 -1.03326 1.64785 0
M  V30 4997 C 485.954 2.28644 2.78197 0
M  V30 4998 C 485.807 3.78722 2.42672 0
M  V30 4999 C 487.126 2.21702 3.80179 0
M  V30 5000 H 484.245 0.487593 0.55265 0
M  V30 5001 H 486.887 1.68717 0.873767 0
M  V30 5002 H 485.037 1.99055 3.33631 0
M  V30 5003 H 486.709 4.18948 1.93081 0
M  V30 5004 H 484.952 3.96827 1.75244 0
M  V30 5005 H 485.623 4.40486 3.3268 0
M  V30 5006 H 488.099 2.47805 3.34263 0
M  V30 5007 H 486.975 2.90143 4.65949 0
M  V30 5008 H 487.236 1.21301 4.25133 0
M  V30 5009 N 486.295 -0.989507 1.22664 0
M  V30 5010 C 487.243 -2.10148 0.997035 0
M  V30 5011 C 488.237 -1.6929 -0.0609783 0
M  V30 5012 O 489.443 -1.79766 0.0917523 0
M  V30 5013 H 485.818 -0.687256 0.305259 0
M  V30 5014 H 487.789 -2.26685 1.94053 0
M  V30 5015 C 486.538 -3.4257 0.595085 0
M  V30 5016 H 485.861 -3.74453 1.40089 0
M  V30 5017 H 487.301 -4.21344 0.473869 0
M  V30 5018 C 485.76 -3.29638 -0.695725 0
M  V30 5019 O 486.29 -3.61709 -1.74727 0
M  V30 5020 N 484.496 -2.82814 -0.668173 0
M  V30 5021 H 484.043 -2.56914 0.18787 0
M  V30 5022 H 484.001 -2.74544 -1.5321 0
M  V30 5023 N 487.773 -1.03688 -1.18687 0
M  V30 5024 C 489.184 -0.766488 -1.70241 0
M  V30 5025 C 489.535 0.713052 -1.82784 0
M  V30 5026 O 488.66 1.55529 -1.50465 0
M  V30 5027 C 489.255 -1.38475 -3.09209 0
M  V30 5028 C 487.814 -1.16276 -3.5799 0
M  V30 5029 C 486.961 -1.4778 -2.34641 0
M  V30 5030 H 489.912 -1.20378 -1.03415 0
M  V30 5031 H 489.933 -0.785939 -3.72295 0
M  V30 5032 H 489.445 -2.46157 -3.00048 0
M  V30 5033 H 487.546 -0.104508 -3.72453 0
M  V30 5034 H 487.659 -1.8571 -4.41643 0
M  V30 5035 H 486.023 -0.897366 -2.38368 0
M  V30 5036 H 486.806 -2.56562 -2.28102 0
M  V30 5037 N 489.251 1.34841 -0.815825 0
M  V30 5038 C 490.497 1.98793 -0.401129 0
M  V30 5039 C 490.83 1.64548 1.03139 0
M  V30 5040 O 490.105 0.913487 1.71714 0
M  V30 5041 C 490.388 3.55143 -0.595409 0
M  V30 5042 C 490.241 3.99155 -2.07352 0
M  V30 5043 C 491.56 4.40092 -0.0268823 0
M  V30 5044 H 488.679 0.722146 -0.14722 0
M  V30 5045 H 491.321 1.59847 -1.02707 0
M  V30 5046 H 489.471 3.8845 -0.0625779 0
M  V30 5047 H 491.143 3.76216 -2.66945 0
M  V30 5048 H 489.386 3.49726 -2.56659 0
M  V30 5049 H 490.057 5.07971 -2.1603 0
M  V30 5050 H 492.533 4.13298 -0.482042 0
M  V30 5051 H 491.409 5.48562 -0.19267 0
M  V30 5052 H 491.67 4.29016 1.06759 0
M  V30 5053 N 490.729 0.570148 1.46925 0
M  V30 5054 C 492.145 0.23087 1.57921 0
M  V30 5055 C 492.345 -1.26676 1.56702 0
M  V30 5056 O 491.401 -2.04774 1.47729 0
M  V30 5057 C 492.714 0.868973 2.8787 0
M  V30 5058 C 494.262 0.841397 3.01479 0
M  V30 5059 C 494.737 1.45881 4.34146 0
M  V30 5060 N 496.228 1.42258 4.40814 0
M  V30 5061 C 496.963 1.8698 5.42057 0
M  V30 5062 N 496.459 2.39618 6.50042 0
M  V30 5063 N 498.252 1.77972 5.33181 0
M  V30 5064 H 490.403 1.54301 1.45962 0
M  V30 5065 H 492.666 0.644224 0.69547 0
M  V30 5066 H 492.372 1.922 2.94537 0
M  V30 5067 H 492.246 0.369682 3.75384 0
M  V30 5068 H 494.633 -0.202973 2.94401 0
M  V30 5069 H 494.714 1.37858 2.15474 0
M  V30 5070 H 494.358 2.50231 4.4198 0
M  V30 5071 H 494.288 0.896958 5.18905 0
M  V30 5072 H 496.779 1.03768 3.63374 0
M  V30 5073 H 497.092 2.71633 7.23488 0
M  V30 5074 H 495.437 2.43636 6.50897 0
M  V30 5075 H 498.628 1.36617 4.4772 0
M  V30 5076 H 498.801 2.13143 6.11943 0
M  V30 5077 N 492.207 -1.54576 0.307264 0
M  V30 5078 C 493.455 -1.99867 -0.299574 0
M  V30 5079 C 493.776 -1.19714 -1.53927 0
M  V30 5080 O 493.046 -0.29472 -1.9367 0
M  V30 5081 H 491.626 -0.738299 -0.113683 0
M  V30 5082 H 494.288 -1.9032 0.420042 0
M  V30 5083 H 493.384 -3.06901 -0.567283 0
M  V30 5084 N 493.685 -0.035106 -1.57561 0
M  V30 5085 C 494.617 0.973604 -2.07494 0
M  V30 5086 C 495.63 1.28504 -0.999534 0
M  V30 5087 O 496.819 1.24864 -1.27559 0
M  V30 5088 C 493.919 2.29945 -2.48955 0
M  V30 5089 C 493.092 2.1723 -3.79644 0
M  V30 5090 C 492.151 3.328 -4.07592 0
M  V30 5091 O 491.177 3.09418 -4.77754 0
M  V30 5092 N 492.379 4.56779 -3.58236 0
M  V30 5093 H 495.144 0.547525 -2.94656 0
M  V30 5094 H 492.705 0.151515 -1.61189 0
M  V30 5095 H 494.697 3.06097 -2.64739 0
M  V30 5096 H 493.267 2.64173 -1.67126 0
M  V30 5097 H 492.487 1.25768 -3.73599 0
M  V30 5098 H 493.775 2.05945 -4.65257 0
M  V30 5099 H 493.173 4.78668 -3.01485 0
M  V30 5100 H 491.73 5.30079 -3.79288 0
M  V30 5101 N 495.163 1.55791 0.238111 0
M  V30 5102 C 496.111 1.91885 1.31464 0
M  V30 5103 C 497.105 0.798929 1.49377 0
M  V30 5104 O 498.311 0.983626 1.50747 0
M  V30 5105 H 494.686 0.609551 0.440399 0
M  V30 5106 H 496.657 2.81747 0.982925 0
M  V30 5107 C 495.406 2.23763 2.6613 0
M  V30 5108 H 494.729 3.09444 2.53149 0
M  V30 5109 H 496.169 2.52915 3.40309 0
M  V30 5110 C 494.628 1.05699 3.1989 0
M  V30 5111 O 495.158 0.309524 4.00506 0
M  V30 5112 N 493.364 0.845251 2.78036 0
M  V30 5113 H 492.911 1.4548 2.12588 0
M  V30 5114 H 492.869 0.0569973 3.14348 0
M  V30 5115 N 496.642 -0.504142 1.49319 0
M  V30 5116 C 497.59 -1.62689 1.66238 0
M  V30 5117 C 498.584 -1.6095 0.528349 0
M  V30 5118 O 499.79 -1.65496 0.707887 0
M  V30 5119 H 496.165 -0.539247 0.524134 0
M  V30 5120 H 498.136 -1.45571 2.60484 0
M  V30 5121 C 496.885 -3.00841 1.74328 0
M  V30 5122 H 496.208 -3.02884 2.60963 0
M  V30 5123 H 497.648 -3.78945 1.90202 0
M  V30 5124 C 496.107 -3.33355 0.487416 0
M  V30 5125 O 496.637 -3.99819 -0.388294 0
M  V30 5126 N 494.843 -2.88469 0.351306 0
M  V30 5127 H 494.39 -2.34557 1.06492 0
M  V30 5128 H 494.348 -3.10591 -0.487899 0
M  V30 5129 N 498.12 -1.38341 -0.754957 0
M  V30 5130 C 499.366 -1.34672 -1.51628 0
M  V30 5131 C 499.699 0.0636036 -1.94096 0
M  V30 5132 O 498.974 1.0245 -1.6533 0
M  V30 5133 C 499.257 -2.30116 -2.76981 0
M  V30 5134 C 499.11 -3.80003 -2.4066 0
M  V30 5135 C 500.429 -2.23715 -3.78998 0
M  V30 5136 H 497.548 -0.490517 -0.550056 0
M  V30 5137 H 500.19 -1.69178 -0.864807 0
M  V30 5138 H 498.34 -2.00821 -3.3257 0
M  V30 5139 H 500.012 -4.19966 -1.90856 0
M  V30 5140 H 498.255 -3.97751 -1.73137 0
M  V30 5141 H 498.926 -4.42244 -3.30339 0
M  V30 5142 H 501.402 -2.49574 -3.32945 0
M  V30 5143 H 500.278 -2.9261 -4.64403 0
M  V30 5144 H 500.539 -1.23554 -4.24484 0
M  V30 5145 N 499.598 0.982988 -1.23187 0
M  V30 5146 C 500.53 2.07729 -0.968572 0
M  V30 5147 C 501.543 1.62702 0.0564821 0
M  V30 5148 O 502.732 1.77603 -0.178733 0
M  V30 5149 C 499.832 3.36071 -0.436974 0
M  V30 5150 C 499.005 4.10081 -1.52159 0
M  V30 5151 C 498.064 5.16701 -0.99532 0
M  V30 5152 O 497.09 5.43727 -1.68373 0
M  V30 5153 N 498.292 5.80226 0.178192 0
M  V30 5154 H 501.057 2.30894 -1.9107 0
M  V30 5155 H 498.618 1.14949 -1.1401 0
M  V30 5156 H 500.61 4.04639 -0.0700051 0
M  V30 5157 H 499.18 3.09893 0.410509 0
M  V30 5158 H 498.4 3.36004 -2.06144 0
M  V30 5159 H 499.688 4.56295 -2.25105 0
M  V30 5160 H 499.086 5.60651 0.754096 0
M  V30 5161 H 497.643 6.49982 0.486449 0
M  V30 5162 N 501.076 1.04316 1.18135 0
M  V30 5163 C 502.324 0.746542 1.87806 0
M  V30 5164 C 502.645 -0.728082 1.80898 0
M  V30 5165 O 501.915 -1.52554 1.22899 0
M  V30 5166 H 500.495 0.273157 0.695265 0
M  V30 5167 H 503.157 1.32044 1.43354 0
M  V30 5168 H 502.253 1.05362 2.93778 0
M  V30 5169 N 502.554 -1.34406 0.822964 0
M  V30 5170 C 503.517 -2.2783 0.250271 0
M  V30 5171 C 504.517 -1.50288 -0.571854 0
M  V30 5172 O 505.707 -1.69825 -0.387952 0
M  V30 5173 C 502.839 -3.34663 -0.649137 0
M  V30 5174 H 504.032 -2.79992 1.07444 0
M  V30 5175 H 501.585 -1.44539 0.594829 0
M  V30 5176 H 502.32 -2.87714 -1.49637 0
M  V30 5177 H 502.105 -3.92052 -0.0611199 0
M  V30 5178 H 503.595 -4.04349 -1.04363 0
M  V30 5179 N 504.032 -0.577932 -1.46621 0
M  V30 5180 C 505.272 -0.0643097 -2.04299 0
M  V30 5181 C 505.636 1.26967 -1.44026 0
M  V30 5182 O 506.837 1.87224 -1.92875 0
M  V30 5183 C 505.108 0.00547588 -3.574 0
M  V30 5184 S 506.667 0.462216 -4.36359 0
M  V30 5185 H 503.485 -0.0351573 -0.71013 0
M  V30 5186 H 506.087 -0.76935 -1.79725 0
M  V30 5187 H 504.791 -0.969423 -3.98786 0
M  V30 5188 H 504.322 0.733435 -3.86503 0
M  V30 5189 H 506.337 1.71791 -4.65513 0
M  V30 5190 N 505.51 1.54411 -0.315457 0
M  V30 5191 C 506.787 1.92562 0.343398 0
M  V30 5192 C 507.167 1.24423 1.70535 0
M  V30 5193 O 506.515 0.385051 2.25232 0
M  V30 5194 C 506.725 3.46168 0.443687 0
M  V30 5195 C 508.073 4.18659 0.707783 0
M  V30 5196 O 509.097 3.52281 0.52693 0
M  V30 5197 O 507.956 5.36198 1.05612 0
M  V30 5198 H 505.05 0.80379 0.194552 0
M  V30 5199 H 507.596 1.65738 -0.364577 0
M  V30 5200 H 506.368 3.8792 -0.513172 0
M  V30 5201 H 505.991 3.79073 1.19956 0
M  V30 5202 N 506.988 0.0434614 1.5754 0
M  V30 5203 C 507.921 -0.968729 2.06618 0
M  V30 5204 C 508.899 -1.30868 0.965 0
M  V30 5205 O 510.083 -1.42288 1.23638 0
M  V30 5206 C 507.21 -2.28486 2.50023 0
M  V30 5207 C 506.256 -2.09851 3.71302 0
M  V30 5208 S 507.089 -1.38401 5.17306 0
M  V30 5209 C 508.245 -2.71354 5.64019 0
M  V30 5210 H 508.478 -0.551021 2.92149 0
M  V30 5211 H 506.011 -0.168607 1.53477 0
M  V30 5212 H 507.969 -3.04142 2.75695 0
M  V30 5213 H 506.63 -2.67387 1.64812 0
M  V30 5214 H 505.823 -3.07184 3.99567 0
M  V30 5215 H 505.425 -1.42336 3.45856 0
M  V30 5216 H 507.717 -3.67549 5.69134 0
M  V30 5217 H 508.66 -2.47734 6.6335 0
M  V30 5218 H 509.068 -2.77259 4.91719 0
M  V30 5219 N 508.466 -1.55915 -0.229846 0
M  V30 5220 C 509.714 -1.7819 -0.953565 0
M  V30 5221 C 510.035 -0.610504 -1.85197 0
M  V30 5222 O 509.305 0.372988 -1.92316 0
M  V30 5223 H 507.885 -0.657208 -0.355087 0
M  V30 5224 H 510.547 -1.9337 -0.243693 0
M  V30 5225 H 509.643 -2.70011 -1.56527 0
M  V30 5226 N 509.944 0.496216 -1.49584 0
M  V30 5227 C 510.907 1.57952 -1.66084 0
M  V30 5228 C 511.907 1.51729 -0.53244 0
M  V30 5229 O 513.097 1.54796 -0.79899 0
M  V30 5230 C 510.229 2.97604 -1.66268 0
M  V30 5231 H 511.422 1.44649 -2.6271 0
M  V30 5232 H 508.975 0.7208 -1.38687 0
M  V30 5233 H 509.71 3.16378 -0.712432 0
M  V30 5234 H 509.495 3.03528 -2.4822 0
M  V30 5235 H 510.985 3.76301 -1.81073 0
M  V30 5236 N 511.423 1.38739 0.74761 0
M  V30 5237 C 512.353 1.39173 1.87492 0
M  V30 5238 C 513.334 0.256794 1.6815 0
M  V30 5239 O 514.519 0.460762 1.88655 0
M  V30 5240 C 511.649 1.22197 3.25093 0
M  V30 5241 C 510.603 2.32957 3.59047 0
M  V30 5242 C 509.929 2.01082 4.95449 0
M  V30 5243 C 511.229 3.75237 3.6331 0
M  V30 5244 H 512.923 2.3351 1.87386 0
M  V30 5245 H 510.469 1.12399 0.900134 0
M  V30 5246 H 512.422 1.21124 4.03617 0
M  V30 5247 H 511.146 0.243241 3.25693 0
M  V30 5248 H 509.805 2.33226 2.82845 0
M  V30 5249 H 509.453 1.01678 4.92616 0
M  V30 5250 H 509.153 2.75267 5.19136 0
M  V30 5251 H 510.677 2.01638 5.76346 0
M  V30 5252 H 512.091 3.76966 4.31937 0
M  V30 5253 H 510.488 4.48677 3.98509 0
M  V30 5254 H 511.558 4.07122 2.634 0
M  V30 5255 N 512.901 -0.976442 1.23707 0
M  V30 5256 C 514.312 -1.53284 1.06587 0
M  V30 5257 C 514.663 -1.92765 -0.365526 0
M  V30 5258 O 513.788 -1.7645 -1.25277 0
M  V30 5259 C 514.383 -2.78548 1.92864 0
M  V30 5260 C 512.942 -3.30574 1.79994 0
M  V30 5261 C 512.089 -2.03538 1.88328 0
M  V30 5262 H 515.04 -0.795692 1.37311 0
M  V30 5263 H 515.061 -3.5155 1.45577 0
M  V30 5264 H 514.573 -2.49782 2.97037 0
M  V30 5265 H 512.674 -3.64211 0.786202 0
M  V30 5266 H 512.787 -4.00065 2.636 0
M  V30 5267 H 511.151 -2.17853 1.31954 0
M  V30 5268 H 511.934 -1.77149 2.94063 0
M  V30 5269 N 514.379 -1.04941 -1.1758 0
M  V30 5270 C 515.656 -0.671918 -1.83697 0
M  V30 5271 C 516.036 0.847929 -1.93322 0
M  V30 5272 O 515.384 1.75287 -1.46583 0
M  V30 5273 C 515.594 -1.35797 -3.21497 0
M  V30 5274 C 516.942 -1.4944 -3.97433 0
M  V30 5275 O 517.966 -1.31678 -3.30967 0
M  V30 5276 O 516.825 -1.78463 -5.1654 0
M  V30 5277 H 513.919 -0.236212 -0.792548 0
M  V30 5278 H 516.465 -1.14884 -1.24899 0
M  V30 5279 H 515.237 -2.39498 -3.09446 0
M  V30 5280 H 514.86 -0.870236 -3.8796 0
M  V30 5281 N 515.857 1.33968 -0.830081 0
M  V30 5282 C 517.085 2.0228 -0.434773 0
M  V30 5283 C 517.5 1.62487 0.961419 0
M  V30 5284 O 516.857 0.833849 1.62337 0
M  V30 5285 C 516.908 3.5751 -0.535625 0
M  V30 5286 O 516.629 3.95864 -1.87679 0
M  V30 5287 C 518.13 4.43091 -0.136137 0
M  V30 5288 H 515.35 0.648151 -0.173613 0
M  V30 5289 H 517.894 1.71089 -1.12022 0
M  V30 5290 H 516.049 3.87266 0.101817 0
M  V30 5291 H 516.463 4.9056 -1.85609 0
M  V30 5292 H 517.937 5.51398 -0.257772 0
M  V30 5293 H 518.414 4.29433 0.921076 0
M  V30 5294 H 519.02 4.18677 -0.747662 0
M  V30 5295 N 517.335 0.585699 1.46312 0
M  V30 5296 C 518.565 0.0780166 2.06453 0
M  V30 5297 C 518.973 -1.2336 1.43454 0
M  V30 5298 O 518.316 -1.75734 0.535086 0
M  V30 5299 C 518.378 -0.158951 3.59148 0
M  V30 5300 C 518.042 1.06752 4.44357 0
M  V30 5301 C 519.039 1.98031 4.80708 0
M  V30 5302 C 516.724 1.2902 4.85447 0
M  V30 5303 C 518.718 3.09924 5.5698 0
M  V30 5304 C 516.405 2.41218 5.61478 0
M  V30 5305 C 517.403 3.31499 5.97158 0
M  V30 5306 O 517.091 4.41747 6.71651 0
M  V30 5307 H 516.823 0.0558894 0.673686 0
M  V30 5308 H 519.377 0.806994 1.88883 0
M  V30 5309 H 517.607 -0.942575 3.75037 0
M  V30 5310 H 519.296 -0.615513 4.01206 0
M  V30 5311 H 520.062 1.82043 4.49539 0
M  V30 5312 H 515.941 0.596567 4.57124 0
M  V30 5313 H 519.485 3.80415 5.84748 0
M  V30 5314 H 515.382 2.57167 5.9206 0
M  V30 5315 H 516.15 4.40152 6.90079 0
M  V30 5316 N 518.813 -1.54241 0.323641 0
M  V30 5317 C 520.224 -1.85975 -0.164405 0
M  V30 5318 C 520.575 -1.24529 -1.51615 0
M  V30 5319 O 519.7 -0.551351 -2.09258 0
M  V30 5320 C 520.295 -3.37424 -0.305091 0
M  V30 5321 C 518.854 -3.69107 -0.737358 0
M  V30 5322 C 518.001 -2.76942 0.140884 0
M  V30 5323 H 520.952 -1.49088 0.543922 0
M  V30 5324 H 520.973 -3.63147 -1.13598 0
M  V30 5325 H 520.485 -3.82116 0.678876 0
M  V30 5326 H 518.586 -3.29947 -1.73107 0
M  V30 5327 H 518.699 -4.76035 -0.541053 0
M  V30 5328 H 517.063 -2.51795 -0.383572 0
M  V30 5329 H 517.846 -3.24461 1.12162 0
M  V30 5330 N 520.291 -0.0518155 -1.57515 0
M  V30 5331 C 521.539 0.620595 -1.92336 0
M  V30 5332 C 521.86 1.71345 -0.930907 0
M  V30 5333 O 521.13 1.95885 0.0241341 0
M  V30 5334 H 519.71 0.232226 -0.709986 0
M  V30 5335 H 522.372 -0.104969 -1.94617 0
M  V30 5336 H 521.468 1.05879 -2.93592 0
M  V30 5337 N 521.769 1.56035 0.221574 0
M  V30 5338 C 522.999 1.82864 0.961468 0
M  V30 5339 C 523.407 0.628703 1.78449 0
M  V30 5340 O 522.75 -0.412109 1.79018 0
M  V30 5341 C 522.812 3.03425 1.92804 0
M  V30 5342 C 522.476 4.38429 1.28954 0
M  V30 5343 C 523.473 5.15441 0.679431 0
M  V30 5344 C 521.158 4.85151 1.30131 0
M  V30 5345 C 523.152 6.37337 0.0896148 0
M  V30 5346 C 520.839 6.06989 0.707651 0
M  V30 5347 C 521.837 6.82923 0.102855 0
M  V30 5348 O 521.525 8.02456 -0.48157 0
M  V30 5349 H 521.257 0.611883 0.28736 0
M  V30 5350 H 523.811 2.0397 0.241932 0
M  V30 5351 H 522.041 2.78138 2.68656 0
M  V30 5352 H 523.73 3.17127 2.53348 0
M  V30 5353 H 524.496 4.80452 0.662661 0
M  V30 5354 H 520.375 4.26021 1.76145 0
M  V30 5355 H 523.919 6.96547 -0.383069 0
M  V30 5356 H 519.816 6.41451 0.721834 0
M  V30 5357 H 520.584 8.17636 -0.375887 0
M  V30 5358 N 523.247 -0.488276 1.49845 0
M  V30 5359 C 524.179 -1.60539 1.63584 0
M  V30 5360 C 525.192 -1.5434 0.517972 0
M  V30 5361 O 526.381 -1.60041 0.790516 0
M  V30 5362 C 523.481 -2.99374 1.58835 0
M  V30 5363 C 522.654 -3.30624 2.86368 0
M  V30 5364 C 521.713 -4.4893 2.74496 0
M  V30 5365 O 520.739 -4.50085 3.48443 0
M  V30 5366 N 521.941 -5.49591 1.86894 0
M  V30 5367 H 524.706 -1.49176 2.59936 0
M  V30 5368 H 522.267 -0.67639 1.47094 0
M  V30 5369 H 524.259 -3.76459 1.48529 0
M  V30 5370 H 522.829 -3.04595 0.702892 0
M  V30 5371 H 522.049 -2.42314 3.1093 0
M  V30 5372 H 523.337 -3.48305 3.70892 0
M  V30 5373 H 522.735 -5.51467 1.26097 0
M  V30 5374 H 521.292 -6.25728 1.82503 0
M  V30 5375 N 524.725 -1.39134 -0.740242 0
M  V30 5376 C 525.955 -1.39132 -1.52728 0
M  V30 5377 C 526.363 0.0173133 -1.89192 0
M  V30 5378 O 525.706 0.997715 -1.54244 0
M  V30 5379 C 525.768 -2.1952 -2.84695 0
M  V30 5380 C 525.432 -3.68203 -2.70695 0
M  V30 5381 C 526.429 -4.61401 -2.39593 0
M  V30 5382 C 524.114 -4.11724 -2.8773 0
M  V30 5383 C 526.108 -5.96102 -2.25701 0
M  V30 5384 C 523.795 -5.46503 -2.73456 0
M  V30 5385 C 524.793 -6.38506 -2.42486 0
M  V30 5386 O 524.481 -7.70803 -2.28295 0
M  V30 5387 H 524.213 -0.477263 -0.478744 0
M  V30 5388 H 526.767 -1.83504 -0.922799 0
M  V30 5389 H 524.997 -1.69888 -3.47383 0
M  V30 5390 H 526.686 -2.1176 -3.46284 0
M  V30 5391 H 527.452 -4.29079 -2.26088 0
M  V30 5392 H 523.331 -3.4045 -3.10829 0
M  V30 5393 H 526.875 -6.6788 -2.0145 0
M  V30 5394 H 522.772 -5.78417 -2.86538 0
M  V30 5395 H 523.54 -7.8147 -2.43405 0
M  V30 5396 N 526.204 0.969867 -1.24223 0
M  V30 5397 C 527.45 1.7151 -1.08223 0
M  V30 5398 C 527.783 1.90478 0.37838 0
M  V30 5399 O 527.058 1.4647 1.27971 0
M  V30 5400 C 527.341 3.10714 -1.82013 0
M  V30 5401 C 527.194 2.9925 -3.35811 0
M  V30 5402 C 528.513 4.10332 -1.59108 0
M  V30 5403 H 525.632 0.622499 -0.394543 0
M  V30 5404 H 528.274 1.1284 -1.52863 0
M  V30 5405 H 526.424 3.608 -1.44068 0
M  V30 5406 H 528.096 2.56608 -3.83341 0
M  V30 5407 H 526.339 2.35512 -3.64303 0
M  V30 5408 H 527.01 3.97857 -3.82641 0
M  V30 5409 H 529.486 3.69097 -1.92111 0
M  V30 5410 H 528.362 5.05804 -2.13198 0
M  V30 5411 H 528.623 4.38926 -0.528832 0
M  V30 5412 N 527.682 1.05563 1.17022 0
M  V30 5413 C 528.629 0.659893 2.21165 0
M  V30 5414 C 529.599 -0.339813 1.62587 0
M  V30 5415 O 530.784 -0.230378 1.89404 0
M  V30 5416 C 527.924 0.0447297 3.45071 0
M  V30 5417 C 527.037 1.09372 4.17926 0
M  V30 5418 C 526.172 0.445481 5.29329 0
M  V30 5419 C 525.211 1.47852 5.93975 0
M  V30 5420 N 524.348 0.854172 6.96885 0
M  V30 5421 H 529.188 1.55243 2.54369 0
M  V30 5422 H 526.725 0.776336 1.24946 0
M  V30 5423 H 528.683 -0.329404 4.15898 0
M  V30 5424 H 527.313 -0.811244 3.1244 0
M  V30 5425 H 526.365 1.58564 3.45777 0
M  V30 5426 H 527.677 1.87773 4.62107 0
M  V30 5427 H 526.831 0.0179688 6.06697 0
M  V30 5428 H 525.57 -0.370481 4.86291 0
M  V30 5429 H 524.575 1.91601 5.15334 0
M  V30 5430 H 525.8 2.29645 6.39093 0
M  V30 5431 H 523.746 0.0587882 6.55974 0
M  V30 5432 H 523.663 1.57567 7.39397 0
M  V30 5433 H 524.931 0.451559 7.78191 0
M  V30 5434 N 529.16 -1.33526 0.837174 0
M  V30 5435 C 530.437 -1.92369 0.354065 0
M  V30 5436 C 530.817 -1.76348 -1.16038 0
M  V30 5437 O 530.165 -1.15083 -1.97403 0
M  V30 5438 C 530.375 -3.39728 0.799101 0
M  V30 5439 C 531.723 -4.16877 0.806139 0
M  V30 5440 O 532.747 -3.48373 0.742597 0
M  V30 5441 O 531.606 -5.39166 0.892345 0
M  V30 5442 H 528.7 -0.820952 0.0998378 0
M  V30 5443 H 531.246 -1.42409 0.922913 0
M  V30 5444 H 530.018 -3.45254 1.84162 0
M  V30 5445 H 529.641 -3.97062 0.206731 0
M  V30 5446 N 530.638 -0.59345 -1.46 0
M  V30 5447 C 532.049 -0.169801 -1.85926 0
M  V30 5448 C 532.4 1.26984 -1.49565 0
M  V30 5449 O 531.525 1.96076 -0.915602 0
M  V30 5450 C 532.12 -0.301385 -3.37457 0
M  V30 5451 C 530.679 0.0674684 -3.7634 0
M  V30 5452 C 529.826 -0.632383 -2.69993 0
M  V30 5453 H 532.777 -0.801014 -1.37002 0
M  V30 5454 H 532.798 0.470331 -3.77582 0
M  V30 5455 H 532.31 -1.34927 -3.63891 0
M  V30 5456 H 530.411 1.11507 -3.55523 0
M  V30 5457 H 530.524 -0.316332 -4.78055 0
M  V30 5458 H 528.888 -0.0714961 -2.546 0
M  V30 5459 H 529.671 -1.68212 -2.99265 0
M  V30 5460 N 532.116 1.54067 -0.331816 0
M  V30 5461 C 533.079 2.23275 0.517768 0
M  V30 5462 C 534.079 1.22897 1.03697 0
M  V30 5463 O 535.269 1.47419 0.928084 0
M  V30 5464 C 532.401 2.94326 1.72004 0
M  V30 5465 H 533.594 2.99773 -0.0873507 0
M  V30 5466 H 531.147 1.56079 -0.0830042 0
M  V30 5467 H 531.882 2.21986 2.36417 0
M  V30 5468 H 531.667 3.67941 1.35507 0
M  V30 5469 H 533.157 3.47031 2.32291 0
M  V30 5470 N 533.594 0.0601682 1.57485 0
M  V30 5471 C 534.542 -0.928899 2.13247 0
M  V30 5472 C 535.536 -1.31616 1.06647 0
M  V30 5473 O 536.742 -1.29476 1.25043 0
M  V30 5474 H 533.117 -0.317455 0.681708 0
M  V30 5475 H 535.088 -0.433566 2.95233 0
M  V30 5476 C 533.837 -2.19121 2.69965 0
M  V30 5477 H 533.16 -1.90204 3.51657 0
M  V30 5478 H 534.6 -2.86465 3.12592 0
M  V30 5479 C 533.059 -2.94195 1.64168 0
M  V30 5480 O 533.589 -3.87468 1.05978 0
M  V30 5481 N 531.795 -2.57089 1.35476 0
M  V30 5482 H 531.342 -1.81314 1.82984 0
M  V30 5483 H 531.3 -3.07624 0.649196 0
M  V30 5484 N 535.072 -1.5615 -0.213296 0
M  V30 5485 C 536.488 -1.49327 -0.56336 0
M  V30 5486 C 536.688 -0.756826 -1.86747 0
M  V30 5487 O 535.744 -0.299866 -2.50713 0
M  V30 5488 C 537.057 -2.9392 -0.634944 0
M  V30 5489 C 538.605 -3.04487 -0.725013 0
M  V30 5490 C 539.08 -4.50456 -0.82787 0
M  V30 5491 N 540.571 -4.54533 -0.891876 0
M  V30 5492 C 541.306 -5.64766 -0.991315 0
M  V30 5493 N 540.802 -6.84733 -1.05419 0
M  V30 5494 N 542.595 -5.52637 -1.02709 0
M  V30 5495 H 534.746 -2.02453 0.642366 0
M  V30 5496 H 537.009 -0.920548 0.226487 0
M  V30 5497 H 536.715 -3.50783 0.253859 0
M  V30 5498 H 536.589 -3.46274 -1.49579 0
M  V30 5499 H 538.976 -2.47685 -1.60425 0
M  V30 5500 H 539.057 -2.55289 0.161669 0
M  V30 5501 H 538.701 -5.07878 0.0469464 0
M  V30 5502 H 538.631 -4.97369 -1.73009 0
M  V30 5503 H 541.122 -3.68141 -0.85327 0
M  V30 5504 H 541.435 -7.64493 -1.13007 0
M  V30 5505 H 539.78 -6.87427 -1.02318 0
M  V30 5506 H 542.971 -4.5784 -0.974687 0
M  V30 5507 H 543.144 -6.38576 -1.10113 0
M  V30 5508 N 536.55 0.480323 -1.50102 0
M  V30 5509 C 537.46 1.60547 -1.71061 0
M  V30 5510 C 538.476 1.63564 -0.593529 0
M  V30 5511 O 539.652 1.81604 -0.870751 0
M  V30 5512 C 536.717 2.96814 -1.79171 0
M  V30 5513 C 535.778 3.04259 -3.02861 0
M  V30 5514 C 535.011 4.34027 -3.10574 0
M  V30 5515 O 535.234 5.24009 -2.25323 0
M  V30 5516 O 534.168 4.46873 -4.03223 0
M  V30 5517 H 537.994 1.45788 -2.6642 0
M  V30 5518 H 535.579 0.658838 -1.34088 0
M  V30 5519 H 537.461 3.77765 -1.86738 0
M  V30 5520 H 536.136 3.11791 -0.869947 0
M  V30 5521 H 535.043 2.22419 -3.008 0
M  V30 5522 H 536.376 2.94216 -3.94586 0
M  V30 5523 N 538.028 1.39524 0.732853 0
M  V30 5524 C 538.975 1.38416 1.84688 0
M  V30 5525 C 539.945 0.243539 1.64305 0
M  V30 5526 O 541.13 0.438979 1.85681 0
M  V30 5527 C 538.27 1.23555 3.22224 0
M  V30 5528 C 537.383 2.47179 3.54298 0
M  V30 5529 C 536.518 2.2489 4.81246 0
M  V30 5530 C 535.557 3.44178 5.0617 0
M  V30 5531 N 534.694 3.21192 6.24323 0
M  V30 5532 H 539.534 2.33645 1.84971 0
M  V30 5533 H 537.071 1.16059 0.903804 0
M  V30 5534 H 539.029 1.12949 4.0162 0
M  V30 5535 H 537.659 0.31954 3.21215 0
M  V30 5536 H 536.711 2.68379 2.69587 0
M  V30 5537 H 538.023 3.36022 3.68633 0
M  V30 5538 H 537.177 2.11538 5.68627 0
M  V30 5539 H 535.916 1.33443 4.69089 0
M  V30 5540 H 534.921 3.58025 4.17251 0
M  V30 5541 H 536.146 4.36528 5.20212 0
M  V30 5542 H 534.092 2.32413 6.1345 0
M  V30 5543 H 534.009 4.03594 6.39256 0
M  V30 5544 H 535.277 3.1154 7.14537 0
M  V30 5545 N 539.506 -0.963266 1.24736 0
M  V30 5546 C 540.753 -1.7068 1.0897 0
M  V30 5547 C 541.081 -1.90934 -0.370751 0
M  V30 5548 O 540.336 -1.47155 -1.29011 0
M  V30 5549 C 540.635 -3.09944 1.7796 0
M  V30 5550 C 540.301 -3.09518 3.27887 0
M  V30 5551 C 538.963 -3.09109 3.68789 0
M  V30 5552 C 541.315 -3.03509 4.23712 0
M  V30 5553 C 538.643 -3.00429 5.03944 0
M  V30 5554 C 540.995 -2.96371 5.5888 0
M  V30 5555 C 539.659 -2.94293 5.99123 0
M  V30 5556 H 538.929 -0.624564 0.398749 0
M  V30 5557 H 541.576 -1.12603 1.54896 0
M  V30 5558 H 539.881 -3.71513 1.2444 0
M  V30 5559 H 541.578 -3.66278 1.63222 0
M  V30 5560 H 538.168 -3.10603 2.95337 0
M  V30 5561 H 542.352 -3.0295 3.93109 0
M  V30 5562 H 537.608 -2.97183 5.34314 0
M  V30 5563 H 541.782 -2.90681 6.32833 0
M  V30 5564 H 539.409 -2.87322 7.03811 0
M  V30 5565 N 540.985 -1.06182 -1.16461 0
M  V30 5566 C 541.948 -0.675723 -2.19013 0
M  V30 5567 C 542.948 0.277963 -1.58379 0
M  V30 5568 O 544.138 0.0604962 -1.74095 0
M  V30 5569 C 541.27 0.00591459 -3.40899 0
M  V30 5570 H 542.463 -1.58353 -2.54685 0
M  V30 5571 H 540.016 -0.856908 -1.30716 0
M  V30 5572 H 540.751 0.92652 -3.10783 0
M  V30 5573 H 540.536 -0.67984 -3.86161 0
M  V30 5574 H 542.026 0.26181 -4.16778 0
M  V30 5575 N 542.463 1.3308 -0.844243 0
M  V30 5576 C 543.41 2.29104 -0.279323 0
M  V30 5577 C 544.38 1.54577 0.607882 0
M  V30 5578 O 545.565 1.8285 0.545009 0
M  V30 5579 C 542.705 3.40927 0.53508 0
M  V30 5580 C 541.818 4.30354 -0.376749 0
M  V30 5581 C 540.953 5.29297 0.449276 0
M  V30 5582 C 539.992 6.10365 -0.460606 0
M  V30 5583 N 539.129 7.01335 0.327612 0
M  V30 5584 H 543.969 2.76817 -1.10346 0
M  V30 5585 H 541.506 1.36203 -0.555611 0
M  V30 5586 H 543.464 4.04469 1.02278 0
M  V30 5587 H 542.094 2.94391 1.32414 0
M  V30 5588 H 541.146 3.67485 -0.982791 0
M  V30 5589 H 542.458 4.87067 -1.07549 0
M  V30 5590 H 541.612 5.98392 1.00058 0
M  V30 5591 H 540.351 4.73174 1.18143 0
M  V30 5592 H 539.356 5.40182 -1.02388 0
M  V30 5593 H 540.581 6.68571 -1.1912 0
M  V30 5594 H 538.527 6.47655 1.04305 0
M  V30 5595 H 538.444 7.55355 -0.3123 0
M  V30 5596 H 539.712 7.74731 0.86098 0
M  V30 5597 N 543.941 0.601185 1.45683 0
M  V30 5598 C 544.904 -0.111398 2.28929 0
M  V30 5599 C 545.904 -0.801246 1.39416 0
M  V30 5600 O 547.094 -0.650383 1.61603 0
M  V30 5601 C 544.226 -1.16773 3.20276 0
M  V30 5602 H 545.419 0.620412 2.93413 0
M  V30 5603 H 542.972 0.359946 1.52099 0
M  V30 5604 H 543.707 -1.93051 2.60579 0
M  V30 5605 H 543.492 -0.677358 3.86205 0
M  V30 5606 H 544.982 -1.66698 3.82886 0
M  V30 5607 N 545.419 -1.53889 0.339982 0
M  V30 5608 C 546.665 -2.01849 -0.250694 0
M  V30 5609 C 547.02 -1.22356 -1.48482 0
M  V30 5610 O 546.313 -0.301906 -1.89206 0
M  V30 5611 C 546.507 -3.51968 -0.620735 0
M  V30 5612 C 546.336 -4.45996 0.575981 0
M  V30 5613 C 545.106 -4.93619 1.08019 0
M  V30 5614 C 547.304 -4.93923 1.43332 0
M  V30 5615 N 545.286 -5.7159 2.2396 0
M  V30 5616 C 546.657 -5.69982 2.43969 0
M  V30 5617 C 548.712 -4.76038 1.45918 0
M  V30 5618 C 547.415 -6.30057 3.47016 0
M  V30 5619 C 549.441 -5.36961 2.47845 0
M  V30 5620 C 548.803 -6.12884 3.47208 0
M  V30 5621 H 544.902 -0.780054 -0.0551368 0
M  V30 5622 H 547.486 -1.88722 0.478741 0
M  V30 5623 H 545.657 -3.65308 -1.31928 0
M  V30 5624 H 547.389 -3.86677 -1.19429 0
M  V30 5625 H 544.144 -4.69134 0.64884 0
M  V30 5626 H 544.568 -6.15247 2.82489 0
M  V30 5627 H 549.21 -4.16887 0.704608 0
M  V30 5628 H 546.928 -6.88319 4.23371 0
M  V30 5629 H 550.514 -5.2503 2.50668 0
M  V30 5630 H 549.394 -6.59187 4.24785 0
M  V30 5631 N 546.897 -0.0685191 -1.57451 0
M  V30 5632 C 548.145 0.60016 -1.92983 0
M  V30 5633 C 548.466 1.70348 -0.949028 0
M  V30 5634 O 547.736 1.959 0.00335647 0
M  V30 5635 H 546.316 0.224682 -0.712409 0
M  V30 5636 H 548.978 -0.125605 -1.94495 0
M  V30 5637 H 548.074 1.02759 -2.94698 0
M  V30 5638 N 548.375 1.56261 0.205012 0
M  V30 5639 C 549.621 1.80306 0.9283 0
M  V30 5640 C 549.954 0.640932 1.83319 0
M  V30 5641 O 549.229 -0.359032 1.91158 0
M  V30 5642 C 549.512 3.14547 1.75306 0
M  V30 5643 C 549.365 4.41236 0.873562 0
M  V30 5644 C 550.684 3.45382 2.72762 0
M  V30 5645 H 547.803 0.655929 0.336044 0
M  V30 5646 H 550.445 1.88984 0.196211 0
M  V30 5647 H 548.595 3.0728 2.37721 0
M  V30 5648 H 550.267 4.60539 0.264887 0
M  V30 5649 H 548.51 4.33427 0.179773 0
M  V30 5650 H 549.181 5.31639 1.48541 0
M  V30 5651 H 551.657 3.52884 2.20481 0
M  V30 5652 H 550.533 4.40449 3.2756 0
M  V30 5653 H 550.794 2.68377 3.51321 0
M  V30 5654 N 549.853 -0.472356 1.50355 0
M  V30 5655 C 550.763 -1.59637 1.7191 0
M  V30 5656 C 551.779 -1.63247 0.602195 0
M  V30 5657 O 552.955 -1.81139 0.880369 0
M  V30 5658 C 550.02 -2.9586 1.80742 0
M  V30 5659 C 549.081 -3.02649 3.04471 0
M  V30 5660 C 548.314 -4.32374 3.12872 0
M  V30 5661 O 548.537 -5.22807 2.28099 0
M  V30 5662 O 547.471 -4.44728 4.05587 0
M  V30 5663 H 551.297 -1.44373 2.67189 0
M  V30 5664 H 548.882 -0.651717 1.34436 0
M  V30 5665 H 550.764 -3.7677 1.88739 0
M  V30 5666 H 549.439 -3.11325 0.88647 0
M  V30 5667 H 548.346 -2.20821 3.01975 0
M  V30 5668 H 549.679 -2.92119 3.9614 0
M  V30 5669 N 551.331 -1.39911 -0.725443 0
M  V30 5670 C 552.556 -1.41137 -1.5197 0
M  V30 5671 C 552.981 -0.010262 -1.88097 0
M  V30 5672 O 552.339 0.979184 -1.52583 0
M  V30 5673 C 552.387 -2.2994 -2.77777 0
M  V30 5674 O 551.491 -1.73586 -3.74088 0
M  V30 5675 H 550.832 -0.480219 -0.458569 0
M  V30 5676 H 553.362 -1.84023 -0.894249 0
M  V30 5677 H 553.372 -2.44785 -3.26411 0
M  V30 5678 H 552.047 -3.31759 -2.50816 0
M  V30 5679 H 550.624 -1.68035 -3.32894 0
M  V30 5680 N 552.809 0.956637 -1.25245 0
M  V30 5681 C 553.739 2.07058 -1.07931 0
M  V30 5682 C 554.72 1.70096 0.0110361 0
M  V30 5683 O 555.905 1.93555 -0.158121 0
M  V30 5684 C 553.035 3.40272 -0.695124 0
M  V30 5685 C 551.989 3.91235 -1.73549 0
M  V30 5686 C 551.315 5.20921 -1.20604 0
M  V30 5687 C 552.615 4.17837 -3.13385 0
M  V30 5688 H 554.309 2.218 -2.01109 0
M  V30 5689 H 551.855 1.06581 -0.968326 0
M  V30 5690 H 553.808 4.1765 -0.560949 0
M  V30 5691 H 552.532 3.25462 0.272355 0
M  V30 5692 H 551.191 3.16025 -1.85807 0
M  V30 5693 H 550.839 5.02479 -0.228846 0
M  V30 5694 H 550.539 5.55987 -1.90136 0
M  V30 5695 H 552.063 6.00897 -1.08421 0
M  V30 5696 H 553.477 4.8588 -3.04292 0
M  V30 5697 H 551.874 4.64154 -3.80369 0
M  V30 5698 H 552.944 3.2419 -3.60595 0
M  V30 5699 N 554.287 1.06798 1.15896 0
M  V30 5700 C 555.698 0.811355 1.68149 0
M  V30 5701 C 556.049 -0.664339 1.8461 0
M  V30 5702 O 555.174 -1.51485 1.54535 0
M  V30 5703 C 555.769 1.46624 3.05429 0
M  V30 5704 C 554.328 1.25726 3.54781 0
M  V30 5705 C 553.475 1.53949 2.3064 0
M  V30 5706 H 556.426 1.23078 1.00187 0
M  V30 5707 H 556.447 0.88437 3.7008 0
M  V30 5708 H 555.959 2.54025 2.93416 0
M  V30 5709 H 554.06 0.20322 3.72045 0
M  V30 5710 H 554.173 1.97354 4.36564 0
M  V30 5711 H 552.537 0.96025 2.35905 0
M  V30 5712 H 553.32 2.6252 2.2122 0
M  V30 5713 N 555.766 -1.3263 0.851289 0
M  V30 5714 C 556.729 -2.27247 0.298541 0
M  V30 5715 C 557.729 -1.51467 -0.539847 0
M  V30 5716 O 558.919 -1.7061 -0.351843 0
M  V30 5717 C 556.051 -3.35964 -0.578004 0
M  V30 5718 H 557.244 -2.7765 1.13359 0
M  V30 5719 H 554.797 -1.43245 0.625354 0
M  V30 5720 H 555.532 -2.90823 -1.435 0
M  V30 5721 H 555.317 -3.92094 0.0220539 0
M  V30 5722 H 556.807 -4.06472 -0.957626 0
M  V30 5723 N 557.244 -0.608902 -1.45362 0
M  V30 5724 C 558.194 0.130616 -2.27626 0
M  V30 5725 C 559.178 0.837323 -1.37396 0
M  V30 5726 O 560.37 0.727096 -1.61376 0
M  V30 5727 C 557.499 1.12646 -3.24293 0
M  V30 5728 C 556.585 0.42052 -4.2201 0
M  V30 5729 N 556.976 -0.538569 -5.02925 0
M  V30 5730 C 555.274 0.667901 -4.40971 0
M  V30 5731 C 555.975 -0.953625 -5.7383 0
M  V30 5732 N 554.951 -0.297097 -5.42788 0
M  V30 5733 H 558.753 -0.605996 -2.87585 0
M  V30 5734 H 556.267 -0.432672 -1.5653 0
M  V30 5735 H 558.264 1.67066 -3.81961 0
M  V30 5736 H 556.924 1.86361 -2.65894 0
M  V30 5737 H 557.935 -0.915375 -5.09746 0
M  V30 5738 H 554.612 1.38963 -3.93695 0
M  V30 5739 H 556.002 -1.74473 -6.48852 0
M  V30 5740 N 558.722 1.53707 -0.348139 0
M  V30 5741 C 559.95 2.05406 0.248224 0
M  V30 5742 C 560.365 1.22282 1.43849 0
M  V30 5743 O 559.722 0.259244 1.80649 0
M  V30 5744 C 559.773 3.55446 0.658793 0
M  V30 5745 O 559.494 4.35417 -0.484149 0
M  V30 5746 C 560.995 4.23335 1.31539 0
M  V30 5747 H 558.215 0.669344 0.0471075 0
M  V30 5748 H 560.759 1.98257 -0.501456 0
M  V30 5749 H 558.914 3.62803 1.35841 0
M  V30 5750 H 559.328 5.24268 -0.155949 0
M  V30 5751 H 560.802 5.29692 1.55338 0
M  V30 5752 H 561.279 3.75967 2.27036 0
M  V30 5753 H 561.885 4.20184 0.657683 0
M  V30 5754 N 560.2 0.0768682 1.57412 0
M  V30 5755 C 561.448 -0.589918 1.93299 0
M  V30 5756 C 561.769 -1.69842 0.958049 0
M  V30 5757 O 561.039 -1.95899 0.00703261 0
M  V30 5758 H 559.619 -0.220901 0.713591 0
M  V30 5759 H 562.281 0.135917 1.94425 0
M  V30 5760 H 561.377 -1.01195 2.95239 0
M  V30 5761 N 561.678 -1.56367 -0.196722 0
M  V30 5762 C 562.908 -1.84371 -0.932254 0
M  V30 5763 C 563.316 -0.657013 -1.77426 0
M  V30 5764 O 562.659 0.383576 -1.79651 0
M  V30 5765 C 562.721 -3.06454 -1.87952 0
M  V30 5766 C 562.385 -4.40425 -1.21962 0
M  V30 5767 C 563.382 -5.16457 -0.597343 0
M  V30 5768 C 561.067 -4.8716 -1.22396 0
M  V30 5769 C 563.061 -6.37399 0.0117913 0
M  V30 5770 C 560.748 -6.08038 -0.610995 0
M  V30 5771 C 561.746 -6.83 0.00580487 0
M  V30 5772 O 561.434 -8.01589 0.609173 0
M  V30 5773 H 561.166 -0.616377 -0.277589 0
M  V30 5774 H 563.72 -2.04329 -0.209452 0
M  V30 5775 H 561.95 -2.82377 -2.64197 0
M  V30 5776 H 563.639 -3.21118 -2.48271 0
M  V30 5777 H 564.405 -4.81445 -0.586142 0
M  V30 5778 H 560.284 -4.2877 -1.69345 0
M  V30 5779 H 563.828 -6.9585 0.493836 0
M  V30 5780 H 559.725 -6.42519 -0.619693 0
M  V30 5781 H 560.493 -8.16935 0.505919 0
M  V30 5782 N 563.156 0.464375 -1.50603 0
M  V30 5783 C 564.572 0.798684 -1.38178 0
M  V30 5784 C 564.772 1.96568 -0.44308 0
M  V30 5785 O 563.828 2.52252 0.111814 0
M  V30 5786 C 565.141 1.10444 -2.79683 0
M  V30 5787 C 566.689 1.2105 -2.88645 0
M  V30 5788 C 567.164 1.54934 -4.30998 0
M  V30 5789 N 568.655 1.61913 -4.3398 0
M  V30 5790 C 569.39 1.8965 -5.41129 0
M  V30 5791 N 568.886 2.15361 -6.58477 0
M  V30 5792 N 570.679 1.91207 -5.28579 0
M  V30 5793 H 562.83 -0.304603 -2.10204 0
M  V30 5794 H 565.093 -0.0737804 -0.945125 0
M  V30 5795 H 564.799 0.319934 -3.50242 0
M  V30 5796 H 564.673 2.03896 -3.17342 0
M  V30 5797 H 567.06 1.98567 -2.18301 0
M  V30 5798 H 567.141 0.255613 -2.5452 0
M  V30 5799 H 566.785 0.779549 -5.01882 0
M  V30 5800 H 566.715 2.51584 -4.62615 0
M  V30 5801 H 569.206 1.44055 -3.49366 0
M  V30 5802 H 569.519 2.35818 -7.35941 0
M  V30 5803 H 567.864 2.1274 -6.6164 0
M  V30 5804 H 571.055 1.70622 -4.35897 0
M  V30 5805 H 571.228 2.12488 -6.12171 0
M  V30 5806 N 564.634 1.40294 0.718013 0
M  V30 5807 C 565.883 1.37746 1.4734 0
M  V30 5808 C 566.196 -0.0180754 1.95592 0
M  V30 5809 O 567.402 -0.166166 2.70991 0
M  V30 5810 C 565.858 2.4208 2.66318 0
M  V30 5811 C 565.466 3.87432 2.24945 0
M  V30 5812 C 567.21 2.48635 3.44065 0
M  V30 5813 C 565.117 4.83368 3.40748 0
M  V30 5814 H 564.047 0.512165 0.553356 0
M  V30 5815 H 566.698 1.66019 0.781661 0
M  V30 5816 H 565.08 2.06903 3.3765 0
M  V30 5817 H 566.254 4.3174 1.6105 0
M  V30 5818 H 564.569 3.8433 1.60249 0
M  V30 5819 H 567.166 3.17499 4.30231 0
M  V30 5820 H 567.509 1.51611 3.87711 0
M  V30 5821 H 568.042 2.82791 2.79775 0
M  V30 5822 H 564.781 5.81716 3.02136 0
M  V30 5823 H 564.301 4.43726 4.03568 0
M  V30 5824 H 565.98 5.03074 4.06848 0
M  V30 5825 N 566.112 -0.949982 1.2575 0
M  V30 5826 C 567.337 -1.73503 1.13628 0
M  V30 5827 C 567.762 -1.85601 -0.30559 0
M  V30 5828 O 567.12 -1.33984 -1.22139 0
M  V30 5829 C 567.168 -3.1243 1.80055 0
M  V30 5830 O 566.272 -3.97916 1.08336 0
M  V30 5831 H 565.613 -0.532665 0.396439 0
M  V30 5832 H 568.143 -1.19043 1.66403 0
M  V30 5833 H 568.153 -3.62866 1.86527 0
M  V30 5834 H 566.828 -3.02941 2.84956 0
M  V30 5835 H 565.405 -3.56375 1.09777 0
M  V30 5836 N 567.59 -1.07411 -1.15328 0
M  V30 5837 C 568.5 -0.706438 -2.23711 0
M  V30 5838 C 569.516 0.282586 -1.7169 0
M  V30 5839 O 570.692 0.129066 -2.00986 0
M  V30 5840 C 567.757 -0.11048 -3.46524 0
M  V30 5841 C 566.818 -1.15282 -4.13532 0
M  V30 5842 C 566.051 -0.585205 -5.30482 0
M  V30 5843 O 566.274 0.598549 -5.67251 0
M  V30 5844 O 565.208 -1.33039 -5.87013 0
M  V30 5845 H 569.034 -1.61031 -2.57493 0
M  V30 5846 H 566.619 -0.847113 -1.23062 0
M  V30 5847 H 568.501 0.21957 -4.20828 0
M  V30 5848 H 567.176 0.766703 -3.14489 0
M  V30 5849 H 566.083 -1.53523 -3.41147 0
M  V30 5850 H 567.416 -2.00192 -4.49649 0
M  V30 5851 N 569.068 1.32177 -0.85831 0
M  V30 5852 C 569.998 2.31282 -0.321041 0
M  V30 5853 C 570.979 1.59841 0.581786 0
M  V30 5854 O 572.164 1.87619 0.501262 0
M  V30 5855 C 569.294 3.4385 0.48832 0
M  V30 5856 C 568.248 4.26799 -0.320391 0
M  V30 5857 C 567.574 5.31164 0.613934 0
M  V30 5858 C 568.874 4.98829 -1.54813 0
M  V30 5859 H 570.568 2.76469 -1.14915 0
M  V30 5860 H 568.114 1.32916 -0.554028 0
M  V30 5861 H 570.067 4.12224 0.874626 0
M  V30 5862 H 568.791 2.97401 1.34983 0
M  V30 5863 H 567.45 3.60077 -0.688497 0
M  V30 5864 H 567.098 4.80967 1.47239 0
M  V30 5865 H 566.798 5.8755 0.0768097 0
M  V30 5866 H 568.322 6.024 0.997336 0
M  V30 5867 H 569.736 5.59864 -1.23392 0
M  V30 5868 H 568.133 5.64957 -2.02346 0
M  V30 5869 H 569.203 4.26483 -2.30739 0
M  V30 5870 N 570.547 0.616602 1.45037 0
M  V30 5871 C 571.958 0.199359 1.85633 0
M  V30 5872 C 572.309 -1.24588 1.51566 0
M  V30 5873 O 571.434 -1.94594 0.94668 0
M  V30 5874 C 572.029 0.355033 3.36935 0
M  V30 5875 C 570.588 -0.00758748 3.76399 0
M  V30 5876 C 569.735 0.675256 2.68953 0
M  V30 5877 H 572.686 0.822708 1.3571 0
M  V30 5878 H 572.707 -0.410201 3.78282 0
M  V30 5879 H 572.219 1.40699 3.61698 0
M  V30 5880 H 570.32 -1.05837 3.57252 0
M  V30 5881 H 570.433 0.392346 4.77491 0
M  V30 5882 H 568.797 0.111992 2.54454 0
M  V30 5883 H 569.58 1.72952 2.96551 0
M  V30 5884 N 572.025 -1.5352 0.356285 0
M  V30 5885 C 572.975 -2.22204 -0.510815 0
M  V30 5886 C 573.959 -1.21393 -1.05605 0
M  V30 5887 O 575.151 -1.46883 -0.987639 0
M  V30 5888 C 572.28 -3.00786 -1.65478 0
M  V30 5889 C 571.366 -4.08965 -1.12287 0
M  V30 5890 N 571.757 -5.04829 -0.313191 0
M  V30 5891 C 570.055 -4.23505 -1.39856 0
M  V30 5892 C 570.756 -5.81695 -0.0230322 0
M  V30 5893 N 569.732 -5.40074 -0.618144 0
M  V30 5894 H 573.534 -2.93676 0.114711 0
M  V30 5895 H 571.048 -1.61572 0.163811 0
M  V30 5896 H 573.045 -3.48502 -2.28806 0
M  V30 5897 H 571.705 -2.30843 -2.28345 0
M  V30 5898 H 572.716 -5.17879 0.0468202 0
M  V30 5899 H 569.393 -3.64786 -2.0307 0
M  V30 5900 H 570.783 -6.68931 0.630927 0
M  V30 5901 N 573.503 -0.0852151 -1.57369 0
M  V30 5902 C 574.919 0.271436 -1.57275 0
M  V30 5903 C 575.119 1.69109 -1.09565 0
M  V30 5904 O 574.175 2.40549 -0.767611 0
M  V30 5905 C 575.488 0.0688638 -3.00621 0
M  V30 5906 C 577.036 0.137373 -3.12698 0
M  V30 5907 C 577.511 -0.0370832 -4.57985 0
M  V30 5908 N 579.002 0.0180794 -4.63196 0
M  V30 5909 C 579.737 -0.0922953 -5.73326 0
M  V30 5910 N 579.233 -0.256948 -6.92323 0
M  V30 5911 N 581.026 -0.0342702 -5.6209 0
M  V30 5912 H 573.177 -1.01288 -1.86693 0
M  V30 5913 H 575.44 -0.396138 -0.861266 0
M  V30 5914 H 575.146 -0.911277 -3.39689 0
M  V30 5915 H 575.02 0.815442 -3.6828 0
M  V30 5916 H 577.407 1.10801 -2.73509 0
M  V30 5917 H 577.488 -0.640532 -2.47651 0
M  V30 5918 H 577.132 -1.00455 -4.97867 0
M  V30 5919 H 577.062 0.760392 -5.21081 0
M  V30 5920 H 579.553 0.143202 -3.77629 0
M  V30 5921 H 579.866 -0.332949 -7.72082 0
M  V30 5922 H 578.211 -0.292487 -6.94384 0
M  V30 5923 H 581.402 0.0931605 -4.68007 0
M  V30 5924 H 581.575 -0.12374 -6.47882 0
M  V30 5925 N 574.981 1.5647 0.188427 0
M  V30 5926 C 575.944 1.9421 1.21718 0
M  V30 5927 C 576.944 0.823901 1.38089 0
M  V30 5928 O 578.134 1.09122 1.35787 0
M  V30 5929 C 575.266 2.22197 2.58537 0
M  V30 5930 H 576.459 2.86252 0.894418 0
M  V30 5931 H 574.012 1.50263 0.430211 0
M  V30 5932 H 574.747 1.32814 2.95856 0
M  V30 5933 H 574.532 3.03688 2.48025 0
M  V30 5934 H 576.022 2.52376 3.3271 0
M  V30 5935 N 576.459 -0.456382 1.50847 0
M  V30 5936 C 577.422 -1.53493 1.70213 0
M  V30 5937 C 578.422 -1.50264 0.572481 0
M  V30 5938 O 579.612 -1.52623 0.839751 0
M  V30 5939 C 576.744 -2.93091 1.741 0
M  V30 5940 H 577.937 -1.37633 2.66453 0
M  V30 5941 H 575.49 -0.683776 1.4055 0
M  V30 5942 H 576.225 -3.14378 0.796063 0
M  V30 5943 H 576.01 -2.9684 2.5618 0
M  V30 5944 H 577.5 -3.71368 1.90987 0
M  V30 5945 N 577.937 -1.40673 -0.710563 0
M  V30 5946 C 578.887 -1.37812 -1.81636 0
M  V30 5947 C 579.871 -0.254853 -1.58869 0
M  V30 5948 O 581.063 -0.494356 -1.69956 0
M  V30 5949 C 578.192 -1.24802 -3.19811 0
M  V30 5950 C 577.278 -2.41931 -3.48325 0
M  V30 5951 N 577.669 -3.67411 -3.47625 0
M  V30 5952 C 575.967 -2.35419 -3.78806 0
M  V30 5953 C 576.668 -4.45008 -3.74623 0
M  V30 5954 N 575.644 -3.74916 -3.93623 0
M  V30 5955 H 579.446 -2.32766 -1.79436 0
M  V30 5956 H 576.96 -1.34516 -0.909909 0
M  V30 5957 H 578.957 -1.20835 -3.99004 0
M  V30 5958 H 577.617 -0.308202 -3.23234 0
M  V30 5959 H 578.628 -4.00503 -3.28356 0
M  V30 5960 H 575.305 -1.4983 -3.89689 0
M  V30 5961 H 576.695 -5.53884 -3.80344 0
M  V30 5962 N 579.415 0.9433 -1.26252 0
M  V30 5963 C 580.663 1.68592 -1.11451 0
M  V30 5964 C 580.984 1.91957 0.343123 0
M  V30 5965 O 580.254 1.51475 1.24226 0
M  V30 5966 H 578.834 0.624789 -0.409448 0
M  V30 5967 H 581.496 1.13351 -1.58548 0
M  V30 5968 H 580.592 2.66054 -1.63162 0
M  V30 5969 N 580.893 1.08022 1.14757 0
M  V30 5970 C 581.803 0.718292 2.23333 0
M  V30 5971 C 582.819 -0.273477 1.71837 0
M  V30 5972 O 583.995 -0.118406 2.01052 0
M  V30 5973 C 581.06 0.128855 3.4646 0
M  V30 5974 C 580.121 1.17473 4.12915 0
M  V30 5975 C 579.354 0.61333 5.30164 0
M  V30 5976 O 579.577 -0.568458 5.6756 0
M  V30 5977 O 578.511 1.3615 5.86299 0
M  V30 5978 H 582.337 1.62394 2.56636 0
M  V30 5979 H 579.922 0.853628 1.22611 0
M  V30 5980 H 581.804 -0.197249 4.20938 0
M  V30 5981 H 580.479 -0.750014 3.14891 0
M  V30 5982 H 579.386 1.5533 3.40328 0
M  V30 5983 H 580.719 2.02574 4.48581 0
M  V30 5984 N 582.371 -1.3172 0.865308 0
M  V30 5985 C 583.617 -1.97168 0.474633 0
M  V30 5986 C 583.95 -1.68263 -0.969604 0
M  V30 5987 O 583.225 -0.976588 -1.68205 0
M  V30 5988 C 583.508 -3.52689 0.726808 0
M  V30 5989 C 583.361 -3.91185 2.22024 0
M  V30 5990 C 584.68 -4.39689 0.190201 0
M  V30 5991 H 581.799 -0.716185 0.17392 0
M  V30 5992 H 584.441 -1.55925 1.08569 0
M  V30 5993 H 582.591 -3.8795 0.206705 0
M  V30 5994 H 584.263 -3.66049 2.80724 0
M  V30 5995 H 582.506 -3.3996 2.69462 0
M  V30 5996 H 583.177 -4.99604 2.34735 0
M  V30 5997 H 585.653 -4.11225 0.635103 0
M  V30 5998 H 584.529 -5.47469 0.396132 0
M  V30 5999 H 584.79 -4.32683 -0.907625 0
M  V30 6000 N 583.85 -0.624285 -1.44708 0
M  V30 6001 C 585.266 -0.289322 -1.56956 0
M  V30 6002 C 585.466 1.20773 -1.61295 0
M  V30 6003 O 584.522 1.9915 -1.55227 0
M  V30 6004 C 585.835 -0.975215 -2.84447 0
M  V30 6005 C 587.383 -0.952709 -2.98148 0
M  V30 6006 C 587.858 -1.61893 -4.28433 0
M  V30 6007 N 589.349 -1.5852 -4.35231 0
M  V30 6008 C 590.084 -2.06969 -5.34744 0
M  V30 6009 N 589.58 -2.63579 -6.40701 0
M  V30 6010 N 591.373 -1.97638 -5.26209 0
M  V30 6011 H 583.524 -1.59612 -1.40135 0
M  V30 6012 H 585.787 -0.669592 -0.671081 0
M  V30 6013 H 585.493 -2.02999 -2.87201 0
M  V30 6014 H 585.367 -0.508749 -3.73753 0
M  V30 6015 H 587.754 0.093568 -2.94952 0
M  V30 6016 H 587.835 -1.4576 -2.10209 0
M  V30 6017 H 587.479 -2.66463 -4.32389 0
M  V30 6018 H 587.409 -1.08893 -5.15218 0
M  V30 6019 H 589.899 -1.17183 -3.59272 0
M  V30 6020 H 590.213 -2.98298 -7.12908 0
M  V30 6021 H 588.558 -2.67626 -6.41406 0
M  V30 6022 H 591.749 -1.5314 -4.42341 0
M  V30 6023 H 591.922 -2.35708 -6.03611 0
M  V30 6024 N 585.328 1.53329 -0.364422 0
M  V30 6025 C 586.291 2.24323 0.470292 0
M  V30 6026 C 587.291 1.25068 1.01067 0
M  V30 6027 O 588.481 1.49354 0.896605 0
M  V30 6028 C 585.613 2.97908 1.65722 0
M  V30 6029 H 586.806 2.9952 -0.150917 0
M  V30 6030 H 584.359 1.55868 -0.116092 0
M  V30 6031 H 585.094 2.2695 2.31655 0
M  V30 6032 H 584.879 3.70732 1.27671 0
M  V30 6033 H 586.369 3.5188 2.24878 0
M  V30 6034 N 586.806 0.0935595 1.57322 0
M  V30 6035 C 587.769 -0.851426 2.12799 0
M  V30 6036 C 588.769 -1.21187 1.0569 0
M  V30 6037 O 589.959 -1.14156 1.31583 0
M  V30 6038 C 587.091 -2.14779 2.64731 0
M  V30 6039 H 588.284 -0.369733 2.97612 0
M  V30 6040 H 585.837 -0.155417 1.55525 0
M  V30 6041 H 586.572 -2.67437 1.83434 0
M  V30 6042 H 586.357 -1.89907 3.43042 0
M  V30 6043 H 587.847 -2.82383 3.07651 0
M  V30 6044 N 588.284 -1.56567 -0.180126 0
M  V30 6045 C 589.514 -1.85349 -0.912647 0
M  V30 6046 C 589.922 -0.675795 -1.76719 0
M  V30 6047 O 589.265 0.3645 -1.80047 0
M  V30 6048 C 589.327 -3.08431 -1.84691 0
M  V30 6049 C 588.991 -4.41694 -1.17284 0
M  V30 6050 C 589.988 -5.17062 -0.542532 0
M  V30 6051 C 587.673 -4.8843 -1.17223 0
M  V30 6052 C 589.667 -6.37351 0.0793953 0
M  V30 6053 C 587.354 -6.08652 -0.54647 0
M  V30 6054 C 588.352 -6.82955 0.0782458 0
M  V30 6055 O 588.04 -8.00897 0.694158 0
M  V30 6056 H 587.772 -0.619286 -0.271036 0
M  V30 6057 H 590.326 -2.0454 -0.187768 0
M  V30 6058 H 588.556 -2.85163 -2.61188 0
M  V30 6059 H 590.245 -3.23733 -2.44851 0
M  V30 6060 H 591.011 -4.8204 -0.535045 0
M  V30 6061 H 586.89 -4.30542 -1.64788 0
M  V30 6062 H 590.434 -6.95287 0.567612 0
M  V30 6063 H 586.331 -6.4314 -0.55151 0
M  V30 6064 H 587.099 -8.16352 0.592537 0
M  V30 6065 N 589.762 0.448376 -1.51087 0
M  V30 6066 C 591.011 1.19561 -1.62444 0
M  V30 6067 C 591.324 1.92602 -0.341151 0
M  V30 6068 O 592.53 2.69439 -0.333936 0
M  V30 6069 C 590.986 2.17373 -2.8684 0
M  V30 6070 C 590.594 1.5003 -4.22131 0
M  V30 6071 C 592.338 2.92597 -3.0755 0
M  V30 6072 C 590.245 2.46262 -5.37689 0
M  V30 6073 H 589.175 0.449975 -0.605011 0
M  V30 6074 H 591.826 0.463735 -1.77544 0
M  V30 6075 H 590.208 2.93948 -2.65349 0
M  V30 6076 H 591.382 0.790886 -4.53962 0
M  V30 6077 H 589.697 0.870011 -4.0721 0
M  V30 6078 H 592.294 3.64663 -3.91056 0
M  V30 6079 H 592.637 3.53306 -2.20183 0
M  V30 6080 H 593.17 2.23131 -3.29329 0
M  V30 6081 H 589.909 1.90258 -6.27281 0
M  V30 6082 H 589.429 3.15289 -5.10248 0
M  V30 6083 H 591.108 3.07623 -5.6919 0
M  V30 6084 N 591.24 1.41047 0.703093 0
M  V30 6085 C 592.173 1.36713 1.82715 0
M  V30 6086 C 593.151 0.235533 1.60885 0
M  V30 6087 O 594.335 0.421227 1.83733 0
M  V30 6088 C 591.462 1.13069 3.1927 0
M  V30 6089 C 590.508 2.28846 3.59905 0
M  V30 6090 S 591.341 3.91297 3.65578 0
M  V30 6091 C 592.497 3.69941 5.04871 0
M  V30 6092 H 592.73 2.31838 1.86114 0
M  V30 6093 H 590.263 1.27481 0.871083 0
M  V30 6094 H 592.221 1.00113 3.98105 0
M  V30 6095 H 590.882 0.195763 3.13489 0
M  V30 6096 H 590.075 2.07977 4.59088 0
M  V30 6097 H 589.677 2.3817 2.88359 0
M  V30 6098 H 591.969 3.29181 5.92154 0
M  V30 6099 H 592.912 4.68699 5.30779 0
M  V30 6100 H 593.32 3.03369 4.76054 0
M  V30 6101 N 592.718 -0.936591 1.26751 0
M  V30 6102 C 593.966 -1.67998 1.12343 0
M  V30 6103 C 594.287 -1.92137 -0.332938 0
M  V30 6104 O 593.557 -1.52132 -1.23421 0
M  V30 6105 H 592.137 -0.622609 0.412756 0
M  V30 6106 H 594.799 -1.12509 1.59147 0
M  V30 6107 H 593.895 -2.65185 1.64571 0
M  V30 6108 N 594.196 -1.08629 -1.14182 0
M  V30 6109 C 595.106 -0.730126 -2.22949 0
M  V30 6110 C 596.122 0.26436 -1.7198 0
M  V30 6111 O 597.298 0.107742 -2.01112 0
M  V30 6112 C 594.363 -0.147227 -3.46387 0
M  V30 6113 C 593.424 -1.19662 -4.12286 0
M  V30 6114 C 592.657 -0.641437 -5.29831 0
M  V30 6115 O 592.88 0.538351 -5.67854 0
M  V30 6116 O 591.814 -1.39257 -5.85569 0
M  V30 6117 H 595.64 -1.63753 -2.55771 0
M  V30 6118 H 593.225 -0.860118 -1.22157 0
M  V30 6119 H 595.107 0.174923 -4.21037 0
M  V30 6120 H 593.782 0.733304 -3.15285 0
M  V30 6121 H 592.689 -1.57133 -3.395 0
M  V30 6122 H 594.022 -2.0495 -4.475 0
M  V30 6123 N 595.674 1.31259 -0.872281 0
M  V30 6124 C 596.951 1.91362 -0.404943 0
M  V30 6125 C 597.331 1.79362 1.11321 0
M  V30 6126 O 596.679 1.20277 1.94283 0
M  V30 6127 C 596.889 3.3749 -0.888893 0
M  V30 6128 C 598.237 4.14593 -0.916384 0
M  V30 6129 O 599.261 3.46282 -0.834701 0
M  V30 6130 O 598.12 5.3661 -1.03498 0
M  V30 6131 H 595.214 0.818016 -0.121569 0
M  V30 6132 H 597.76 1.39912 -0.960346 0
M  V30 6133 H 596.532 3.40249 -1.93251 0
M  V30 6134 H 596.155 3.96375 -0.311932 0
M  V30 6135 N 597.152 0.631951 1.44375 0
M  V30 6136 C 598.563 0.219036 1.85411 0
M  V30 6137 C 598.914 -1.22974 1.52879 0
M  V30 6138 O 598.039 -1.93579 0.967266 0
M  V30 6139 C 598.634 0.39075 3.36539 0
M  V30 6140 C 597.193 0.0323351 3.76386 0
M  V30 6141 C 596.34 0.703744 2.68221 0
M  V30 6142 H 599.291 0.837056 1.3483 0
M  V30 6143 H 599.312 -0.370056 3.78696 0
M  V30 6144 H 598.824 1.44527 3.60185 0
M  V30 6145 H 596.925 -1.02042 3.58355 0
M  V30 6146 H 597.038 0.442969 4.77048 0
M  V30 6147 H 595.402 0.138974 2.54321 0
M  V30 6148 H 596.185 1.76088 2.947 0
M  V30 6149 N 598.631 -1.53133 0.372548 0
M  V30 6150 C 599.561 -2.28876 -0.462412 0
M  V30 6151 C 600.542 -1.31583 -1.07796 0
M  V30 6152 O 601.727 -1.60461 -1.09389 0
M  V30 6153 C 598.857 -3.08317 -1.59868 0
M  V30 6154 C 597.811 -4.13355 -1.11003 0
M  V30 6155 C 597.137 -4.8092 -2.33708 0
M  V30 6156 C 598.437 -5.21955 -0.18983 0
M  V30 6157 H 600.131 -2.9892 0.169511 0
M  V30 6158 H 597.677 -1.43761 0.0829658 0
M  V30 6159 H 599.63 -3.60055 -2.18949 0
M  V30 6160 H 598.354 -2.35976 -2.25794 0
M  V30 6161 H 597.013 -3.62573 -0.541869 0
M  V30 6162 H 596.661 -4.05144 -2.98106 0
M  V30 6163 H 596.361 -5.51904 -2.01682 0
M  V30 6164 H 597.885 -5.35455 -2.93462 0
M  V30 6165 H 599.299 -5.69153 -0.688319 0
M  V30 6166 H 597.696 -6.00087 0.0398887 0
M  V30 6167 H 598.766 -4.78811 0.766057 0
M  V30 6168 N 600.109 -0.101901 -1.5727 0
M  V30 6169 C 601.041 0.884723 -2.11436 0
M  V30 6170 C 602.054 1.24149 -1.05314 0
M  V30 6171 O 603.243 1.19341 -1.3274 0
M  V30 6172 C 600.343 2.19179 -2.58484 0
M  V30 6173 C 599.516 2.00933 -3.88516 0
M  V30 6174 C 598.575 3.15213 -4.2134 0
M  V30 6175 O 597.601 2.88877 -4.90448 0
M  V30 6176 N 598.803 4.41174 -3.77288 0
M  V30 6177 H 601.568 0.422058 -2.96713 0
M  V30 6178 H 599.129 0.0830128 -1.61687 0
M  V30 6179 H 601.121 2.94593 -2.77484 0
M  V30 6180 H 599.691 2.56847 -1.7818 0
M  V30 6181 H 598.911 1.09809 -3.78597 0
M  V30 6182 H 600.199 1.86026 -4.73573 0
M  V30 6183 H 599.597 4.6545 -3.21516 0
M  V30 6184 H 598.154 5.13515 -4.01429 0
M  V30 6185 N 601.587 1.56661 0.17182 0
M  V30 6186 C 602.815 1.861 0.904115 0
M  V30 6187 C 603.23 0.687227 1.75848 0
M  V30 6188 O 602.587 -0.343671 1.79235 0
M  V30 6189 C 602.638 3.14568 1.78127 0
M  V30 6190 O 602.359 4.27422 0.961366 0
M  V30 6191 C 603.86 3.5735 2.62327 0
M  V30 6192 H 601.08 0.617445 0.262684 0
M  V30 6193 H 603.624 2.03775 0.172068 0
M  V30 6194 H 601.779 2.98721 2.46666 0
M  V30 6195 H 602.193 5.00725 1.56123 0
M  V30 6196 H 603.667 4.50144 3.1949 0
M  V30 6197 H 604.144 2.81445 3.37173 0
M  V30 6198 H 604.75 3.75807 1.99121 0
M  V30 6199 N 603.065 -0.440357 1.51323 0
M  V30 6200 C 604.342 -1.20109 1.5438 0
M  V30 6201 C 604.722 -2.08866 0.306303 0
M  V30 6202 O 604.07 -2.1723 -0.708773 0
M  V30 6203 C 604.28 -2.00555 2.8562 0
M  V30 6204 C 605.628 -2.577 3.37455 0
M  V30 6205 O 606.652 -2.10769 2.8715 0
M  V30 6206 O 605.511 -3.43289 4.25224 0
M  V30 6207 H 602.605 -0.546668 0.620551 0
M  V30 6208 H 605.151 -0.449672 1.63634 0
M  V30 6209 H 603.923 -1.35346 3.67147 0
M  V30 6210 H 603.546 -2.82768 2.79514 0
M  V30 6211 N 604.543 -1.41418 -0.695603 0
M  V30 6212 C 605.506 -1.42988 -1.79129 0
M  V30 6213 C 606.506 -0.320514 -1.57573 0
M  V30 6214 O 607.696 -0.58039 -1.64247 0
M  V30 6215 C 604.828 -1.24122 -3.175 0
M  V30 6216 H 606.021 -2.40526 -1.7913 0
M  V30 6217 H 603.574 -1.2756 -0.903225 0
M  V30 6218 H 604.309 -0.274253 -3.23138 0
M  V30 6219 H 604.094 -2.045 -3.34547 0
M  V30 6220 H 605.584 -1.28056 -3.97481 0
M  V30 6221 N 606.021 0.929856 -1.27246 0
M  V30 6222 C 606.931 2.0636 -1.11592 0
M  V30 6223 C 607.947 1.73938 -0.046496 0
M  V30 6224 O 609.123 1.9981 -0.252544 0
M  V30 6225 C 606.188 3.38213 -0.762437 0
M  V30 6226 C 605.249 3.84346 -1.9125 0
M  V30 6227 C 604.482 5.09906 -1.57579 0
M  V30 6228 O 604.705 5.68354 -0.482694 0
M  V30 6229 O 603.639 5.51359 -2.41426 0
M  V30 6230 H 607.465 2.22478 -2.0673 0
M  V30 6231 H 605.05 1.04865 -1.06413 0
M  V30 6232 H 606.932 4.1741 -0.57854 0
M  V30 6233 H 605.607 3.23307 0.159439 0
M  V30 6234 H 604.514 3.06045 -2.15144 0
M  V30 6235 H 605.847 4.0379 -2.81451 0
M  V30 6236 N 607.499 1.09233 1.13605 0
M  V30 6237 C 608.429 0.751738 2.21068 0
M  V30 6238 C 609.41 -0.269688 1.67948 0
M  V30 6239 O 610.595 -0.13819 1.93708 0
M  V30 6240 C 607.725 0.16935 3.46887 0
M  V30 6241 C 606.679 1.12007 4.13084 0
M  V30 6242 C 606.005 0.399483 5.33206 0
M  V30 6243 C 607.305 2.46168 4.6065 0
M  V30 6244 H 608.999 1.65024 2.49815 0
M  V30 6245 H 606.545 0.794905 1.20072 0
M  V30 6246 H 608.498 -0.0809824 4.21322 0
M  V30 6247 H 607.222 -0.764335 3.1753 0
M  V30 6248 H 605.881 1.35564 3.40614 0
M  V30 6249 H 605.529 -0.538277 5.00112 0
M  V30 6250 H 605.229 1.03337 5.78442 0
M  V30 6251 H 606.753 0.157403 6.10397 0
M  V30 6252 H 608.167 2.26829 5.26518 0
M  V30 6253 H 606.564 3.05326 5.1662 0
M  V30 6254 H 607.634 3.07076 3.75276 0
M  V30 6255 N 608.977 -1.30795 0.87923 0
M  V30 6256 C 610.202 -2.01063 0.508769 0
M  V30 6257 C 610.627 -1.65508 -0.893803 0
M  V30 6258 O 609.985 -0.868616 -1.59138 0
M  V30 6259 C 610.033 -3.54054 0.683991 0
M  V30 6260 O 609.137 -4.11498 -0.272654 0
M  V30 6261 H 608.478 -0.632786 0.201191 0
M  V30 6262 H 611.008 -1.66776 1.18519 0
M  V30 6263 H 611.018 -4.03845 0.580798 0
M  V30 6264 H 609.693 -3.79271 1.70665 0
M  V30 6265 H 608.27 -3.72695 -0.12364 0
M  V30 6266 N 610.455 -0.639598 -1.44038 0
M  V30 6267 C 611.418 0.0506628 -2.29144 0
M  V30 6268 C 612.418 0.764001 -1.41491 0
M  V30 6269 O 613.608 0.607309 -1.63271 0
M  V30 6270 C 610.74 1.0824 -3.2326 0
M  V30 6271 H 611.933 -0.697987 -2.91664 0
M  V30 6272 H 609.486 -0.400146 -1.51091 0
M  V30 6273 H 610.221 1.86075 -2.65606 0
M  V30 6274 H 610.006 0.574725 -3.87865 0
M  V30 6275 H 611.496 1.56487 -3.87171 0
M  V30 6276 N 611.933 1.52934 -0.380664 0
M  V30 6277 C 613.179 2.01765 0.20458 0
M  V30 6278 C 613.512 1.26696 1.47179 0
M  V30 6279 O 612.787 0.364936 1.91046 0
M  V30 6280 C 613.07 3.56869 0.481269 0
M  V30 6281 C 612.923 4.42617 -0.800629 0
M  V30 6282 C 614.242 4.2121 1.27554 0
M  V30 6283 H 611.361 0.733388 0.0728803 0
M  V30 6284 H 614.003 1.83068 -0.50853 0
M  V30 6285 H 612.153 3.72932 1.08875 0
M  V30 6286 H 613.825 4.38323 -1.43773 0
M  V30 6287 H 612.068 4.09977 -1.4178 0
M  V30 6288 H 612.739 5.49134 -0.561791 0
M  V30 6289 H 615.215 4.09072 0.761514 0
M  V30 6290 H 614.091 5.29732 1.43788 0
M  V30 6291 H 614.352 3.78269 2.28833 0
M  V30 6292 N 613.412 0.11024 1.57214 0
M  V30 6293 C 614.828 -0.24638 1.57687 0
M  V30 6294 C 615.028 -1.67344 1.12241 0
M  V30 6295 O 614.084 -2.39298 0.805783 0
M  V30 6296 C 615.397 -0.0210288 3.00693 0
M  V30 6297 C 616.945 -0.0876077 3.12877 0
M  V30 6298 C 617.42 0.10994 4.57868 0
M  V30 6299 N 618.911 0.0556135 4.63167 0
M  V30 6300 C 619.646 0.183495 5.73106 0
M  V30 6301 N 619.142 0.367058 6.91827 0
M  V30 6302 N 620.935 0.123689 5.61964 0
M  V30 6303 H 613.086 1.04246 1.85058 0
M  V30 6304 H 615.349 0.40979 0.854854 0
M  V30 6305 H 615.055 0.965203 3.38196 0
M  V30 6306 H 614.929 -0.756748 3.69531 0
M  V30 6307 H 617.316 -1.06436 2.75237 0
M  V30 6308 H 617.397 0.67985 2.466 0
M  V30 6309 H 617.041 1.08362 4.96206 0
M  V30 6310 H 616.971 -0.677397 5.22225 0
M  V30 6311 H 619.462 -0.0831062 3.77809 0
M  V30 6312 H 619.775 0.455739 7.71455 0
M  V30 6313 H 618.12 0.40292 6.93831 0
M  V30 6314 H 621.311 -0.0186928 4.68096 0
M  V30 6315 H 621.484 0.226797 6.47603 0
M  V30 6316 N 614.89 -1.56749 -0.16351 0
M  V30 6317 C 615.837 -1.97011 -1.2023 0
M  V30 6318 C 616.807 -0.835186 -1.43575 0
M  V30 6319 O 617.992 -1.09594 -1.56185 0
M  V30 6320 C 615.132 -2.34186 -2.53478 0
M  V30 6321 C 614.245 -3.60893 -2.37446 0
M  V30 6322 C 613.38 -3.87245 -3.63614 0
M  V30 6323 C 612.419 -5.07274 -3.42548 0
M  V30 6324 N 611.556 -5.29719 -4.60806 0
M  V30 6325 H 616.396 -2.85562 -0.851958 0
M  V30 6326 H 613.933 -1.41292 -0.409257 0
M  V30 6327 H 615.891 -2.53764 -3.31149 0
M  V30 6328 H 614.521 -1.48736 -2.86492 0
M  V30 6329 H 613.573 -3.49185 -1.50911 0
M  V30 6330 H 614.885 -4.48722 -2.1783 0
M  V30 6331 H 614.039 -4.07232 -4.49719 0
M  V30 6332 H 612.778 -2.97806 -3.86216 0
M  V30 6333 H 611.783 -4.87177 -2.5483 0
M  V30 6334 H 613.008 -5.98251 -3.2136 0
M  V30 6335 H 610.954 -4.43233 -4.83612 0
M  V30 6336 H 610.871 -6.11786 -4.44132 0
M  V30 6337 H 612.139 -5.54192 -5.48171 0
M  V30 6338 N 616.368 0.432326 -1.51554 0
M  V30 6339 C 617.331 1.50765 -1.72634 0
M  V30 6340 C 618.331 1.49334 -0.596314 0
M  V30 6341 O 619.521 1.51268 -0.863925 0
M  V30 6342 C 616.653 2.90284 -1.7874 0
M  V30 6343 H 617.846 1.33377 -2.68609 0
M  V30 6344 H 615.399 0.661329 -1.4162 0
M  V30 6345 H 616.134 3.13071 -0.845977 0
M  V30 6346 H 615.919 2.92727 -2.6087 0
M  V30 6347 H 617.409 3.68282 -1.96871 0
M  V30 6348 N 617.846 1.41785 0.688094 0
M  V30 6349 C 619.093 1.41544 1.44816 0
M  V30 6350 C 619.421 0.0271746 1.94481 0
M  V30 6351 O 618.676 -0.962235 1.7041 0
M  V30 6352 C 618.975 2.37532 2.67046 0
M  V30 6353 C 618.641 3.84209 2.35996 0
M  V30 6354 C 617.303 4.24165 2.27239 0
M  V30 6355 C 619.655 4.76785 2.10536 0
M  V30 6356 C 616.983 5.54695 1.91128 0
M  V30 6357 C 619.335 6.07644 1.75931 0
M  V30 6358 C 617.999 6.46613 1.65675 0
M  V30 6359 H 617.269 0.517945 0.529919 0
M  V30 6360 H 619.916 1.74635 0.785797 0
M  V30 6361 H 618.221 1.9772 3.38251 0
M  V30 6362 H 619.918 2.34615 3.25203 0
M  V30 6363 H 616.508 3.52567 2.4371 0
M  V30 6364 H 620.692 4.46714 2.16242 0
M  V30 6365 H 615.948 5.83762 1.81746 0
M  V30 6366 H 620.122 6.78874 1.55252 0
M  V30 6367 H 617.749 7.47668 1.37463 0
M  V30 6368 N 619.324 -0.923095 1.27737 0
M  V30 6369 C 620.234 -2.05765 1.12685 0
M  V30 6370 C 621.25 -1.73911 0.0557197 0
M  V30 6371 O 622.426 -1.99674 0.263137 0
M  V30 6372 C 619.491 -3.37804 0.780363 0
M  V30 6373 C 618.552 -3.83326 1.93286 0
M  V30 6374 C 617.785 -5.09064 1.60281 0
M  V30 6375 O 618.008 -5.6809 0.512828 0
M  V30 6376 O 616.942 -5.50071 2.44347 0
M  V30 6377 H 620.768 -2.21378 2.07907 0
M  V30 6378 H 618.353 -1.04299 1.06968 0
M  V30 6379 H 620.235 -4.17097 0.600668 0
M  V30 6380 H 618.91 -3.23387 -0.142291 0
M  V30 6381 H 617.817 -3.049 2.16764 0
M  V30 6382 H 619.15 -4.02292 2.83588 0
M  V30 6383 N 620.802 -1.09834 -1.13024 0
M  V30 6384 C 622.079 -0.749225 -1.80682 0
M  V30 6385 C 622.459 0.765171 -1.96744 0
M  V30 6386 O 621.807 1.68912 -1.53886 0
M  V30 6387 C 622.017 -1.49311 -3.15448 0
M  V30 6388 C 623.365 -1.66162 -3.90737 0
M  V30 6389 O 624.389 -1.45597 -3.25085 0
M  V30 6390 O 623.248 -2.00211 -5.08505 0
M  V30 6391 H 620.342 -0.269614 -0.781817 0
M  V30 6392 H 622.888 -1.20078 -1.19914 0
M  V30 6393 H 621.66 -2.52407 -2.99009 0
M  V30 6394 H 621.283 -1.034 -3.8392 0
M  V30 6395 N 622.28 1.30327 -0.886154 0
M  V30 6396 C 623.21 2.30549 -0.370028 0
M  V30 6397 C 624.191 1.61039 0.547751 0
M  V30 6398 O 625.376 1.8864 0.461353 0
M  V30 6399 C 622.506 3.44808 0.415275 0
M  V30 6400 C 621.46 4.26024 -0.41085 0
M  V30 6401 C 620.786 5.32347 0.501128 0
M  V30 6402 C 622.086 4.95433 -1.65359 0
M  V30 6403 H 623.78 2.73969 -1.20754 0
M  V30 6404 H 621.326 1.3171 -0.582097 0
M  V30 6405 H 623.279 4.13986 0.78699 0
M  V30 6406 H 622.003 3.00197 1.28644 0
M  V30 6407 H 620.662 3.58535 -0.764719 0
M  V30 6408 H 620.31 4.83982 1.37004 0
M  V30 6409 H 620.01 5.87581 -0.0478356 0
M  V30 6410 H 621.534 6.0438 0.869333 0
M  V30 6411 H 622.948 5.5712 -1.35239 0
M  V30 6412 H 621.345 5.60537 -2.14284 0
M  V30 6413 H 622.415 4.21493 -2.39733 0
M  V30 6414 N 623.758 0.647228 1.43697 0
M  V30 6415 C 624.668 -0.0487997 2.34549 0
M  V30 6416 C 625.684 -0.818586 1.53542 0
M  V30 6417 O 626.86 -0.767195 1.86215 0
M  V30 6418 C 623.925 -1.00734 3.31743 0
M  V30 6419 C 622.986 -0.23515 4.28655 0
M  V30 6420 C 622.219 -1.14803 5.21206 0
M  V30 6421 O 622.442 -2.38717 5.18045 0
M  V30 6422 O 621.376 -0.623667 5.9866 0
M  V30 6423 H 625.202 0.698863 2.9555 0
M  V30 6424 H 622.787 0.407412 1.43738 0
M  V30 6425 H 624.669 -1.55837 3.91526 0
M  V30 6426 H 623.344 -1.73534 2.73254 0
M  V30 6427 H 622.251 0.359319 3.7237 0
M  V30 6428 H 623.584 0.453152 4.9011 0
M  V30 6429 N 625.236 -1.5273 0.388769 0
M  V30 6430 C 626.166 -2.29353 -0.438111 0
M  V30 6431 C 627.147 -1.32719 -1.06394 0
M  V30 6432 O 628.332 -1.61612 -1.07681 0
M  V30 6433 C 625.462 -3.09995 -1.56589 0
M  V30 6434 C 624.416 -4.14509 -1.06613 0
M  V30 6435 C 623.742 -4.83372 -2.28594 0
M  V30 6436 C 625.042 -5.22127 -0.134459 0
M  V30 6437 H 626.736 -2.98723 0.201206 0
M  V30 6438 H 624.282 -1.43665 0.0982089 0
M  V30 6439 H 626.235 -3.62357 -2.15118 0
M  V30 6440 H 624.959 -2.38357 -2.23279 0
M  V30 6441 H 623.618 -3.63128 -0.503383 0
M  V30 6442 H 623.266 -4.08283 -2.93792 0
M  V30 6443 H 622.966 -5.54012 -1.95817 0
M  V30 6444 H 624.49 -5.38538 -2.87766 0
M  V30 6445 H 625.904 -5.69851 -0.627914 0
M  V30 6446 H 624.301 -6.00011 0.103534 0
M  V30 6447 H 625.371 -4.77971 0.816798 0
M  V30 6448 N 626.714 -0.118576 -1.57153 0
M  V30 6449 C 627.96 0.540326 -1.95469 0
M  V30 6450 C 628.293 1.66356 -1.00196 0
M  V30 6451 O 627.568 1.94461 -0.039104 0
M  V30 6452 C 627.851 1.07342 -3.43729 0
M  V30 6453 C 627.704 -0.0463732 -4.49776 0
M  V30 6454 C 629.023 1.96442 -3.93826 0
M  V30 6455 H 626.142 0.19494 -0.710751 0
M  V30 6456 H 628.784 -0.19405 -1.89006 0
M  V30 6457 H 626.934 1.69925 -3.49368 0
M  V30 6458 H 628.606 -0.681648 -4.56236 0
M  V30 6459 H 626.849 -0.709574 -4.27957 0
M  V30 6460 H 627.52 0.367856 -5.50773 0
M  V30 6461 H 629.996 1.43731 -3.90488 0
M  V30 6462 H 628.872 2.3066 -4.98084 0
M  V30 6463 H 629.133 2.89077 -3.34495 0
M  V30 6464 N 628.193 1.56834 0.155195 0
M  V30 6465 C 629.442 1.82088 0.867567 0
M  V30 6466 C 629.755 0.69849 1.82703 0
M  V30 6467 O 630.961 0.836407 2.58295 0
M  V30 6468 C 629.417 3.22707 1.59336 0
M  V30 6469 C 629.025 4.42859 0.676719 0
M  V30 6470 C 630.769 3.57242 2.293 0
M  V30 6471 C 628.676 5.74501 1.40367 0
M  V30 6472 H 627.606 0.679057 0.327715 0
M  V30 6473 H 630.257 1.83105 0.120351 0
M  V30 6474 H 628.639 3.16054 2.38591 0
M  V30 6475 H 629.813 4.60731 -0.0800196 0
M  V30 6476 H 628.128 4.16311 0.0859129 0
M  V30 6477 H 630.725 4.52847 2.84312 0
M  V30 6478 H 631.068 2.82901 3.05406 0
M  V30 6479 H 631.601 3.6552 1.56972 0
M  V30 6480 H 628.34 6.51915 0.684623 0
M  V30 6481 H 627.86 5.60579 2.13332 0
M  V30 6482 H 629.539 6.17016 1.94681 0
M  V30 6483 N 629.671 -0.424282 1.51781 0
M  V30 6484 C 630.917 -1.17434 1.6534 0
M  V30 6485 C 631.25 -1.90549 0.374806 0
M  V30 6486 O 630.525 -1.84145 -0.626179 0
M  V30 6487 C 630.808 -2.18093 2.86544 0
M  V30 6488 C 630.661 -1.48975 4.24413 0
M  V30 6489 C 631.98 -3.18934 3.03264 0
M  V30 6490 H 629.099 -0.425566 0.601716 0
M  V30 6491 H 631.741 -0.461921 1.84299 0
M  V30 6492 H 629.891 -2.78849 2.7051 0
M  V30 6493 H 631.563 -0.914551 4.52143 0
M  V30 6494 H 629.806 -0.791893 4.26511 0
M  V30 6495 H 630.477 -2.22347 5.05238 0
M  V30 6496 H 632.953 -2.68243 3.18096 0
M  V30 6497 H 631.829 -3.86645 3.89611 0
M  V30 6498 H 632.09 -3.85793 2.15908 0
M  V30 6499 N 631.149 -1.42148 -0.680565 0
M  V30 6500 C 632.081 -1.41119 -1.80605 0
M  V30 6501 C 633.094 -0.311099 -1.598 0
M  V30 6502 O 634.283 -0.573813 -1.69026 0
M  V30 6503 C 631.383 -1.18204 -3.17618 0
M  V30 6504 C 630.556 -2.40537 -3.65322 0
M  V30 6505 C 629.615 -2.13254 -4.8105 0
M  V30 6506 O 628.641 -2.8641 -4.91892 0
M  V30 6507 N 629.843 -1.13208 -5.69354 0
M  V30 6508 H 632.608 -2.38128 -1.81975 0
M  V30 6509 H 630.169 -1.36953 -0.863446 0
M  V30 6510 H 632.161 -0.97878 -3.92686 0
M  V30 6511 H 630.731 -0.29738 -3.11182 0
M  V30 6512 H 629.951 -2.76468 -2.80996 0
M  V30 6513 H 631.239 -3.22012 -3.93936 0
M  V30 6514 H 630.637 -0.526893 -5.63241 0
M  V30 6515 H 629.194 -0.988699 -6.44258 0
M  V30 6516 N 632.627 0.916307 -1.28225 0
M  V30 6517 C 633.904 1.64429 -1.05936 0
M  V30 6518 C 634.284 2.07234 0.402139 0
M  V30 6519 O 633.632 1.81535 1.3877 0
M  V30 6520 C 633.842 2.83773 -2.03159 0
M  V30 6521 C 635.19 3.54852 -2.33164 0
M  V30 6522 O 636.214 2.93918 -2.01223 0
M  V30 6523 O 635.073 4.64663 -2.87664 0
M  V30 6524 H 632.167 0.721221 -0.404683 0
M  V30 6525 H 634.713 0.965838 -1.39534 0
M  V30 6526 H 633.485 2.49217 -3.01673 0
M  V30 6527 H 633.108 3.59333 -1.70192 0
M  V30 6528 N 634.105 1.10431 1.1244 0
M  V30 6529 C 635.354 0.841539 1.83306 0
M  V30 6530 C 635.667 -0.634961 1.85007 0
M  V30 6531 O 636.873 -1.01363 2.51869 0
M  V30 6532 C 635.329 1.45565 3.29149 0
M  V30 6533 C 634.937 2.96544 3.35806 0
M  V30 6534 C 636.681 1.27227 4.04986 0
M  V30 6535 C 634.588 3.5099 4.75983 0
M  V30 6536 H 633.518 0.311156 0.686803 0
M  V30 6537 H 636.169 1.32829 1.26604 0
M  V30 6538 H 634.551 0.896574 3.85717 0
M  V30 6539 H 635.725 3.58766 2.89177 0
M  V30 6540 H 634.04 3.14036 2.73442 0
M  V30 6541 H 636.637 1.65348 5.08492 0
M  V30 6542 H 636.98 0.213834 4.1575 0
M  V30 6543 H 637.513 1.79941 3.54776 0
M  V30 6544 H 634.252 4.56499 4.70413 0
M  V30 6545 H 633.772 2.93535 5.23065 0
M  V30 6546 H 635.451 3.48808 5.44924 0
M  V30 6547 N 635.583 -1.29855 0.893053 0
M  V30 6548 C 636.83 -1.95826 0.515585 0
M  V30 6549 C 637.158 -1.70451 -0.936842 0
M  V30 6550 O 636.413 -1.00657 -1.67829 0
M  V30 6551 C 636.712 -3.49515 0.746588 0
M  V30 6552 C 636.378 -3.94955 2.17535 0
M  V30 6553 C 635.04 -4.07073 2.56603 0
M  V30 6554 C 637.392 -4.18536 3.10607 0
M  V30 6555 C 634.72 -4.40138 3.87938 0
M  V30 6556 C 637.072 -4.53073 4.41484 0
M  V30 6557 C 635.736 -4.634 4.80434 0
M  V30 6558 H 635.006 -0.71658 0.188666 0
M  V30 6559 H 637.653 -1.54574 1.13045 0
M  V30 6560 H 635.958 -3.9177 0.0487551 0
M  V30 6561 H 637.655 -3.98644 0.434009 0
M  V30 6562 H 634.245 -3.86035 1.86212 0
M  V30 6563 H 638.429 -4.08646 2.81641 0
M  V30 6564 H 633.685 -4.46335 4.17846 0
M  V30 6565 H 637.859 -4.70269 5.13634 0
M  V30 6566 H 635.486 -4.88775 5.82239 0
M  V30 6567 N 637.061 -0.65484 -1.43351 0
M  V30 6568 C 637.994 0.0855537 -2.2804 0
M  V30 6569 C 638.972 0.828301 -1.39921 0
M  V30 6570 O 640.156 0.827539 -1.69364 0
M  V30 6571 C 637.283 1.12792 -3.19368 0
M  V30 6572 C 636.329 0.483037 -4.23756 0
M  V30 6573 S 637.162 -0.744605 -5.30298 0
M  V30 6574 C 638.318 0.297187 -6.25194 0
M  V30 6575 H 638.551 -0.632831 -2.90487 0
M  V30 6576 H 636.084 -0.44373 -1.47886 0
M  V30 6577 H 638.042 1.7243 -3.72529 0
M  V30 6578 H 636.703 1.81863 -2.56095 0
M  V30 6579 H 635.896 1.26888 -4.87766 0
M  V30 6580 H 635.498 -0.0392713 -3.73979 0
M  V30 6581 H 637.79 1.1629 -6.67445 0
M  V30 6582 H 638.733 -0.30793 -7.0743 0
M  V30 6583 H 639.141 0.633721 -5.60932 0
M  V30 6584 N 638.539 1.52521 -0.396863 0
M  V30 6585 C 639.767 2.06091 0.18275 0
M  V30 6586 C 640.182 1.26796 1.39886 0
M  V30 6587 O 639.539 0.316585 1.79733 0
M  V30 6588 C 639.59 3.57362 0.545377 0
M  V30 6589 O 639.311 4.33656 -0.622428 0
M  V30 6590 C 640.812 4.27305 1.18004 0
M  V30 6591 H 638.032 0.670504 0.025789 0
M  V30 6592 H 640.576 1.96561 -0.564276 0
M  V30 6593 H 638.731 3.66941 1.2423 0
M  V30 6594 H 639.145 5.23507 -0.322662 0
M  V30 6595 H 640.619 5.34366 1.38408 0
M  V30 6596 H 641.096 3.83 2.1496 0
M  V30 6597 H 641.702 4.22064 0.523671 0
M  V30 6598 N 640.017 0.126909 1.57088 0
M  V30 6599 C 640.964 -0.82036 2.15728 0
M  V30 6600 C 641.934 -1.25811 1.08447 0
M  V30 6601 O 643.119 -1.33422 1.36393 0
M  V30 6602 C 640.259 -2.06199 2.76724 0
M  V30 6603 C 639.372 -1.67188 3.98337 0
M  V30 6604 C 638.507 -2.86378 4.47393 0
M  V30 6605 C 637.546 -2.43644 5.61519 0
M  V30 6606 N 636.683 -3.55775 6.05284 0
M  V30 6607 H 641.523 -0.313472 2.96347 0
M  V30 6608 H 639.06 -0.14303 1.46403 0
M  V30 6609 H 641.018 -2.78959 3.10222 0
M  V30 6610 H 639.648 -2.54333 1.98782 0
M  V30 6611 H 638.7 -0.842714 3.70948 0
M  V30 6612 H 640.012 -1.31789 4.81075 0
M  V30 6613 H 639.166 -3.67353 4.82842 0
M  V30 6614 H 637.905 -3.25009 3.63621 0
M  V30 6615 H 636.91 -1.61104 5.25667 0
M  V30 6616 H 638.135 -2.06122 6.47063 0
M  V30 6617 H 636.081 -3.94065 5.24451 0
M  V30 6618 H 635.998 -3.24325 6.82898 0
M  V30 6619 H 637.266 -4.37166 6.45373 0
M  V30 6620 N 641.495 -1.56914 -0.146875 0
M  V30 6621 C 642.723 -1.87515 -0.874394 0
M  V30 6622 C 643.138 -0.715116 -1.74733 0
M  V30 6623 O 642.495 0.315113 -1.79759 0
M  V30 6624 C 642.546 -3.17362 -1.731 0
M  V30 6625 O 642.267 -4.28897 -0.893245 0
M  V30 6626 C 643.768 -3.61479 -2.56609 0
M  V30 6627 H 640.988 -0.621546 -0.252827 0
M  V30 6628 H 643.532 -2.04023 -0.139627 0
M  V30 6629 H 641.687 -3.02608 -2.41883 0
M  V30 6630 H 642.101 -5.03146 -1.48137 0
M  V30 6631 H 643.575 -4.5517 -3.12289 0
M  V30 6632 H 644.052 -2.86773 -3.32653 0
M  V30 6633 H 644.658 -3.78927 -1.93117 0
M  V30 6634 N 642.974 0.416227 -1.52004 0
M  V30 6635 C 643.937 1.48926 -1.74223 0
M  V30 6636 C 644.937 1.48693 -0.612119 0
M  V30 6637 O 646.127 1.50343 -0.879921 0
M  V30 6638 C 643.259 2.88372 -1.81809 0
M  V30 6639 H 644.452 1.3052 -2.70008 0
M  V30 6640 H 642.005 0.646271 -1.42313 0
M  V30 6641 H 642.74 3.12157 -0.879135 0
M  V30 6642 H 642.525 2.89944 -2.6396 0
M  V30 6643 H 644.015 3.66173 -2.00766 0
M  V30 6644 N 644.452 1.42507 0.673017 0
M  V30 6645 C 645.677 1.4668 1.46627 0
M  V30 6646 C 646.102 0.080066 1.8793 0
M  V30 6647 O 645.46 -0.921879 1.56112 0
M  V30 6648 C 645.508 2.40091 2.69051 0
M  V30 6649 O 644.612 1.8735 3.67387 0
M  V30 6650 H 643.953 0.496908 0.44043 0
M  V30 6651 H 646.483 1.87215 0.825334 0
M  V30 6652 H 646.493 2.56731 3.17101 0
M  V30 6653 H 645.168 3.4084 2.3833 0
M  V30 6654 H 643.745 1.80274 3.26429 0
M  V30 6655 N 645.93 -0.909495 1.28709 0
M  V30 6656 C 646.893 -1.99399 1.13016 0
M  V30 6657 C 647.893 -1.60654 0.068536 0
M  V30 6658 O 649.083 -1.71334 0.314671 0
M  V30 6659 C 646.215 -3.33078 0.726085 0
M  V30 6660 H 647.408 -2.14751 2.09338 0
M  V30 6661 H 644.961 -1.09272 1.11756 0
M  V30 6662 H 645.696 -3.23428 -0.23771 0
M  V30 6663 H 645.481 -3.62562 1.49302 0
M  V30 6664 H 646.971 -4.12681 0.639058 0
M  V30 6665 N 647.408 -1.11026 -1.11852 0
M  V30 6666 C 648.371 -0.768006 -2.1595 0
M  V30 6667 C 649.371 0.210538 -1.59416 0
M  V30 6668 O 650.561 -0.0133978 -1.74195 0
M  V30 6669 C 647.693 -0.138678 -3.40618 0
M  V30 6670 H 648.886 -1.69012 -2.4774 0
M  V30 6671 H 646.439 -0.911578 -1.26964 0
M  V30 6672 H 647.174 0.793872 -3.14433 0
M  V30 6673 H 646.959 -0.843012 -3.8293 0
M  V30 6674 H 648.449 0.0848039 -4.17514 0
M  V30 6675 N 648.886 1.2938 -0.899927 0
M  V30 6676 C 650.163 1.9046 -0.445443 0
M  V30 6677 C 650.543 1.81683 1.07492 0
M  V30 6678 O 649.891 1.24371 1.91688 0
M  V30 6679 C 650.101 3.35529 -0.960279 0
M  V30 6680 C 651.449 4.12556 -1.00412 0
M  V30 6681 O 652.473 3.44434 -0.907965 0
M  V30 6682 O 651.332 5.34294 -1.14857 0
M  V30 6683 H 648.426 0.815253 -0.138893 0
M  V30 6684 H 650.972 1.37844 -0.989808 0
M  V30 6685 H 649.744 3.36074 -2.00425 0
M  V30 6686 H 649.367 3.95624 -0.395939 0
M  V30 6687 N 650.364 0.662433 1.43002 0
M  V30 6688 C 651.61 0.179857 2.02001 0
M  V30 6689 C 651.943 -1.20625 1.52195 0
M  V30 6690 O 651.218 -1.80726 0.718911 0
M  V30 6691 C 651.501 0.200845 3.59539 0
M  V30 6692 C 651.354 1.62153 4.19555 0
M  V30 6693 C 652.673 -0.457738 4.37713 0
M  V30 6694 H 649.792 0.0668305 0.733964 0
M  V30 6695 H 652.434 0.84487 1.70182 0
M  V30 6696 H 650.584 -0.365411 3.86778 0
M  V30 6697 H 652.256 2.23908 4.03315 0
M  V30 6698 H 650.499 2.16601 3.75854 0
M  V30 6699 H 651.17 1.58799 5.28665 0
M  V30 6700 H 653.646 0.0241495 4.16093 0
M  V30 6701 H 652.522 -0.412363 5.47349 0
M  V30 6702 H 652.783 -1.53336 4.14657 0
M  V30 6703 N 651.842 -1.52309 0.404946 0
M  V30 6704 C 653.091 -2.00952 -0.173529 0
M  V30 6705 C 653.404 -1.29512 -1.46581 0
M  V30 6706 O 654.61 -1.6895 -2.12528 0
M  V30 6707 C 653.066 -3.58097 -0.359801 0
M  V30 6708 C 652.674 -4.38449 0.920138 0
M  V30 6709 C 654.418 -4.14984 -0.893794 0
M  V30 6710 C 652.325 -5.87227 0.701285 0
M  V30 6711 H 651.255 -0.750871 -0.0686244 0
M  V30 6712 H 653.906 -1.75687 0.529749 0
M  V30 6713 H 652.288 -3.79675 -1.12531 0
M  V30 6714 H 653.462 -4.28633 1.69147 0
M  V30 6715 H 651.777 -3.92859 1.38024 0
M  V30 6716 H 654.374 -5.23813 -1.0735 0
M  V30 6717 H 654.717 -3.72072 -1.8673 0
M  V30 6718 H 655.25 -3.97358 -0.187453 0
M  V30 6719 H 651.989 -6.34491 1.64624 0
M  V30 6720 H 651.509 -5.99792 -0.0308288 0
M  V30 6721 H 653.188 -6.46096 0.341846 0
M  V30 6722 N 653.32 -0.135238 -1.57019 0
M  V30 6723 C 654.25 0.805235 -2.19176 0
M  V30 6724 C 655.231 1.2656 -1.13651 0
M  V30 6725 O 656.416 1.32528 -1.4195 0
M  V30 6726 C 653.546 2.04914 -2.80406 0
M  V30 6727 C 652.5 1.72598 -3.91655 0
M  V30 6728 C 651.826 3.04154 -4.39766 0
M  V30 6729 C 653.126 0.981709 -5.12991 0
M  V30 6730 H 654.82 0.287232 -2.98019 0
M  V30 6731 H 652.366 0.136714 -1.4335 0
M  V30 6732 H 654.319 2.71178 -3.22553 0
M  V30 6733 H 653.043 2.59067 -1.98877 0
M  V30 6734 H 651.702 1.08717 -3.50109 0
M  V30 6735 H 651.35 3.56274 -3.55075 0
M  V30 6736 H 651.05 2.83299 -5.14796 0
M  V30 6737 H 652.574 3.71509 -4.84576 0
M  V30 6738 H 653.988 1.5462 -5.52056 0
M  V30 6739 H 652.385 0.873533 -5.93708 0
M  V30 6740 H 653.455 -0.0286887 -4.84892 0
M  V30 6741 N 654.798 1.5699 0.138552 0
M  V30 6742 C 656.209 1.73171 0.697754 0
M  V30 6743 C 656.56 0.750952 1.8126 0
M  V30 6744 O 655.685 -0.080549 2.1625 0
M  V30 6745 C 656.28 3.13996 1.27248 0
M  V30 6746 C 654.839 3.3175 1.77816 0
M  V30 6747 C 653.986 2.69084 0.669991 0
M  V30 6748 H 656.937 1.5846 -0.0871979 0
M  V30 6749 H 656.958 3.14463 2.14227 0
M  V30 6750 H 656.47 3.85354 0.460855 0
M  V30 6751 H 654.571 2.65403 2.61519 0
M  V30 6752 H 654.684 4.39768 1.90107 0
M  V30 6753 H 653.048 2.29782 1.09874 0
M  V30 6754 H 653.831 3.43053 -0.130329 0
M  V30 6755 N 656.276 -0.40816 1.52223 0
M  V30 6756 C 657.501 -1.18127 1.70472 0
M  V30 6757 C 657.926 -1.83491 0.41384 0
M  V30 6758 O 657.284 -1.70047 -0.628778 0
M  V30 6759 C 657.332 -2.21935 2.84213 0
M  V30 6760 O 656.436 -3.28099 2.4985 0
M  V30 6761 H 655.777 -0.344781 0.56747 0
M  V30 6762 H 658.307 -0.478328 1.9893 0
M  V30 6763 H 658.317 -2.66248 3.09153 0
M  V30 6764 H 656.992 -1.73744 3.7787 0
M  V30 6765 H 655.569 -2.89058 2.35584 0
M  V30 6766 N 657.755 -1.42862 -0.66545 0
M  V30 6767 C 658.983 -1.47246 -1.45349 0
M  V30 6768 C 659.398 -0.0865944 -1.88601 0
M  V30 6769 O 658.755 0.900652 -1.58728 0
M  V30 6770 C 658.806 -2.40772 -2.6965 0
M  V30 6771 O 658.527 -3.73968 -2.2821 0
M  V30 6772 C 660.028 -2.54272 -3.63126 0
M  V30 6773 H 657.248 -0.500497 -0.446927 0
M  V30 6774 H 659.792 -1.87477 -0.816871 0
M  V30 6775 H 657.947 -2.0377 -3.29479 0
M  V30 6776 H 658.361 -4.24146 -3.08546 0
M  V30 6777 H 659.835 -3.23815 -4.47043 0
M  V30 6778 H 660.312 -1.58364 -4.09656 0
M  V30 6779 H 660.918 -2.92036 -3.09185 0
M  V30 6780 N 659.233 0.902656 -1.29189 0
M  V30 6781 C 660.458 1.69167 -1.19989 0
M  V30 6782 C 660.883 1.86607 0.236495 0
M  V30 6783 O 660.241 1.38425 1.17082 0
M  V30 6784 C 660.289 3.05532 -1.91527 0
M  V30 6785 O 659.393 3.93621 -1.2303 0
M  V30 6786 H 658.734 0.517584 -0.415936 0
M  V30 6787 H 661.264 1.12785 -1.70706 0
M  V30 6788 H 661.274 3.55693 -1.99866 0
M  V30 6789 H 659.949 2.92156 -2.96003 0
M  V30 6790 H 658.526 3.52055 -1.22928 0
M  V30 6791 N 660.711 1.11618 1.11262 0
M  V30 6792 C 661.957 0.877377 1.83504 0
M  V30 6793 C 662.312 -0.590606 1.83111 0
M  V30 6794 O 661.605 -1.43057 1.27456 0
M  V30 6795 C 661.799 1.37529 3.2988 0
M  V30 6796 C 661.628 2.89014 3.4453 0
M  V30 6797 C 660.398 3.57157 3.57445 0
M  V30 6798 C 662.596 3.8706 3.38658 0
M  V30 6799 N 660.578 4.96842 3.60585 0
M  V30 6800 C 661.949 5.12825 3.4844 0
M  V30 6801 C 664.004 3.79593 3.22201 0
M  V30 6802 C 662.707 6.32002 3.43462 0
M  V30 6803 C 664.733 4.98282 3.18542 0
M  V30 6804 C 664.095 6.22901 3.28897 0
M  V30 6805 H 660.194 0.37422 0.686646 0
M  V30 6806 H 662.778 1.42087 1.33114 0
M  V30 6807 H 660.949 0.85895 3.78783 0
M  V30 6808 H 662.681 1.07944 3.90039 0
M  V30 6809 H 659.436 3.07628 3.60086 0
M  V30 6810 H 659.86 5.69674 3.65788 0
M  V30 6811 H 664.502 2.84149 3.1308 0
M  V30 6812 H 662.22 7.27721 3.51352 0
M  V30 6813 H 665.806 4.94226 3.06972 0
M  V30 6814 H 664.686 7.13202 3.26056 0
M  V30 6815 N 662.189 -1.289 0.906776 0
M  V30 6816 C 663.437 -1.94883 0.535266 0
M  V30 6817 C 663.758 -1.71784 -0.922791 0
M  V30 6818 O 663.028 -1.05359 -1.65156 0
M  V30 6819 H 661.608 -0.721109 0.194962 0
M  V30 6820 H 664.27 -1.57018 1.15461 0
M  V30 6821 H 663.366 -3.03591 0.723821 0
M  V30 6822 N 663.667 -0.670007 -1.42649 0
M  V30 6823 C 664.577 0.0114788 -2.34597 0
M  V30 6824 C 665.593 0.794055 -1.54825 0
M  V30 6825 O 666.769 0.737472 -1.87412 0
M  V30 6826 C 663.834 0.954436 -3.33304 0
M  V30 6827 C 662.895 0.166925 -4.28975 0
M  V30 6828 C 662.128 1.06497 -5.22967 0
M  V30 6829 O 662.351 2.30446 -5.21777 0
M  V30 6830 O 661.285 0.528347 -5.99577 0
M  V30 6831 H 665.111 -0.745794 -2.944 0
M  V30 6832 H 662.696 -0.430228 -1.43071 0
M  V30 6833 H 664.578 1.49589 -3.93956 0
M  V30 6834 H 663.253 1.69164 -2.7598 0
M  V30 6835 H 662.16 -0.418515 -3.71752 0
M  V30 6836 H 663.493 -0.531067 -4.89327 0
M  V30 6837 N 665.145 1.52092 -0.413018 0
M  V30 6838 C 666.095 2.23947 0.427993 0
M  V30 6839 C 667.079 1.25229 1.01027 0
M  V30 6840 O 668.271 1.50448 0.932444 0
M  V30 6841 C 665.4 3.0672 1.542 0
M  V30 6842 C 664.486 4.12851 0.970307 0
M  V30 6843 N 664.877 5.05644 0.125611 0
M  V30 6844 C 663.175 4.28404 1.24042 0
M  V30 6845 C 663.876 5.8138 -0.192876 0
M  V30 6846 N 662.852 5.41996 0.417273 0
M  V30 6847 H 666.654 2.93048 -0.223628 0
M  V30 6848 H 664.168 1.60852 -0.223664 0
M  V30 6849 H 666.165 3.56754 2.15714 0
M  V30 6850 H 664.825 2.39159 2.19621 0
M  V30 6851 H 665.836 5.17348 -0.238995 0
M  V30 6852 H 662.513 3.72071 1.89391 0
M  V30 6853 H 663.903 6.66129 -0.878762 0
M  V30 6854 N 666.623 0.143563 1.56945 0
M  V30 6855 C 667.533 -0.810562 2.20152 0
M  V30 6856 C 668.549 -1.27431 1.1848 0
M  V30 6857 O 669.725 -1.33221 1.51044 0
M  V30 6858 C 666.79 -2.03353 2.80799 0
M  V30 6859 C 665.851 -1.61936 3.97587 0
M  V30 6860 C 665.084 -2.78403 4.55332 0
M  V30 6861 O 665.307 -3.94521 4.11958 0
M  V30 6862 O 664.241 -2.54073 5.45647 0
M  V30 6863 H 668.067 -0.30253 3.02189 0
M  V30 6864 H 665.652 -0.0832925 1.49168 0
M  V30 6865 H 667.534 -2.74932 3.19359 0
M  V30 6866 H 666.209 -2.53116 2.01777 0
M  V30 6867 H 665.116 -0.873904 3.6375 0
M  V30 6868 H 666.449 -1.16892 4.78118 0
M  V30 6869 N 668.101 -1.57061 -0.130224 0
M  V30 6870 C 669.349 -1.83893 -0.838313 0
M  V30 6871 C 669.67 -0.727046 -1.80939 0
M  V30 6872 O 668.94 0.249927 -1.94299 0
M  V30 6873 H 667.52 -0.67846 -0.312573 0
M  V30 6874 H 670.182 -1.94529 -0.120224 0
M  V30 6875 H 669.278 -2.79419 -1.39038 0
M  V30 6876 N 669.579 0.400081 -1.52437 0
M  V30 6877 C 670.825 1.14788 -1.67187 0
M  V30 6878 C 671.158 1.89928 -0.405074 0
M  V30 6879 O 670.433 1.85118 0.596804 0
M  V30 6880 C 670.716 2.13507 -2.89977 0
M  V30 6881 C 670.569 1.42204 -4.2673 0
M  V30 6882 C 671.888 3.14069 -3.083 0
M  V30 6883 H 669.007 0.415939 -0.608411 0
M  V30 6884 H 671.649 0.432542 -1.85011 0
M  V30 6885 H 669.799 2.7451 -2.74912 0
M  V30 6886 H 671.471 0.842503 -4.53541 0
M  V30 6887 H 669.714 0.723939 -4.27717 0
M  V30 6888 H 670.385 2.14281 -5.08712 0
M  V30 6889 H 672.861 2.63148 -3.22323 0
M  V30 6890 H 671.737 3.80398 -3.95713 0
M  V30 6891 H 671.998 3.82309 -2.22018 0
M  V30 6892 N 671.057 1.43213 0.657864 0
M  V30 6893 C 672.304 1.44584 1.41781 0
M  V30 6894 C 672.632 0.0684208 1.9438 0
M  V30 6895 O 671.887 -0.925872 1.72413 0
M  V30 6896 C 672.186 2.43143 2.61947 0
M  V30 6897 C 671.852 3.89128 2.27794 0
M  V30 6898 C 670.514 4.28889 2.18191 0
M  V30 6899 C 672.866 4.81144 2.00375 0
M  V30 6900 C 670.194 5.58625 1.79319 0
M  V30 6901 C 672.546 6.11239 1.63003 0
M  V30 6902 C 671.21 6.49981 1.51922 0
M  V30 6903 H 670.48 0.529069 0.518813 0
M  V30 6904 H 673.127 1.76263 0.748577 0
M  V30 6905 H 671.432 2.04851 3.33981 0
M  V30 6906 H 673.129 2.4146 3.20153 0
M  V30 6907 H 669.719 3.57657 2.36176 0
M  V30 6908 H 673.903 4.512 2.06718 0
M  V30 6909 H 669.159 5.87486 1.69323 0
M  V30 6910 H 673.333 6.82014 1.40817 0
M  V30 6911 H 670.96 7.50416 1.21572 0
M  V30 6912 N 672.536 -0.895792 1.29666 0
M  V30 6913 C 673.764 -1.68001 1.20761 0
M  V30 6914 C 674.179 -1.87379 -0.231187 0
M  V30 6915 O 673.536 -1.41359 -1.15429 0
M  V30 6916 C 673.587 -3.06236 1.92098 0
M  V30 6917 O 673.308 -2.8774 3.30359 0
M  V30 6918 C 674.809 -4.00652 1.89717 0
M  V30 6919 H 672.029 -0.524591 0.418384 0
M  V30 6920 H 674.573 -1.11995 1.71106 0
M  V30 6921 H 672.728 -3.59007 1.45578 0
M  V30 6922 H 673.142 -3.75359 3.66342 0
M  V30 6923 H 674.616 -4.95051 2.44189 0
M  V30 6924 H 675.093 -4.30424 0.873595 0
M  V30 6925 H 675.699 -3.53815 2.35998 0
M  V30 6926 N 674.014 -1.12206 -1.10668 0
M  V30 6927 C 674.977 -0.790867 -2.15123 0
M  V30 6928 C 675.977 0.193618 -1.5963 0
M  V30 6929 O 677.167 -0.0318728 -1.74171 0
M  V30 6930 C 674.299 -0.174797 -3.40452 0
M  V30 6931 H 675.492 -1.7163 -2.45933 0
M  V30 6932 H 673.045 -0.924993 -1.2599 0
M  V30 6933 H 673.78 0.760478 -3.15257 0
M  V30 6934 H 673.565 -0.88358 -3.82015 0
M  V30 6935 H 675.055 0.0405162 -4.1758 0
M  V30 6936 N 675.492 1.28418 -0.913599 0
M  V30 6937 C 676.455 2.25564 -0.406624 0
M  V30 6938 C 677.455 1.5387 0.466965 0
M  V30 6939 O 678.645 1.72094 0.270042 0
M  V30 6940 C 675.777 3.38339 0.417053 0
M  V30 6941 H 676.97 2.71926 -1.26477 0
M  V30 6942 H 674.523 1.40098 -0.692986 0
M  V30 6943 H 675.258 2.97339 1.29461 0
M  V30 6944 H 675.043 3.91542 -0.209102 0
M  V30 6945 H 676.533 4.10578 0.762602 0
M  V30 6946 N 676.97 0.677563 1.42291 0
M  V30 6947 C 678.247 0.129803 1.95169 0
M  V30 6948 C 678.627 -1.35605 1.61786 0
M  V30 6949 O 677.975 -2.09361 0.915444 0
M  V30 6950 C 678.185 0.401889 3.46678 0
M  V30 6951 C 679.533 0.319889 4.23393 0
M  V30 6952 O 680.557 0.33579 3.54614 0
M  V30 6953 O 679.416 0.264459 5.4586 0
M  V30 6954 H 676.51 0.00447433 0.826988 0
M  V30 6955 H 679.056 0.752483 1.52105 0
M  V30 6956 H 677.828 1.43108 3.64192 0
M  V30 6957 H 677.451 -0.252662 3.96796 0
M  V30 6958 N 678.448 -1.51871 0.421078 0
M  V30 6959 C 679.864 -1.59435 0.0725398 0
M  V30 6960 C 680.064 -1.43315 -1.41644 0
M  V30 6961 O 679.12 -1.26614 -2.18461 0
M  V30 6962 C 680.433 -2.9509 0.578132 0
M  V30 6963 C 681.981 -3.08356 0.537149 0
M  V30 6964 C 682.456 -4.4651 1.01945 0
M  V30 6965 N 683.947 -4.52784 0.976758 0
M  V30 6966 C 684.682 -5.57976 1.32099 0
M  V30 6967 N 684.178 -6.70664 1.73727 0
M  V30 6968 N 685.971 -5.48248 1.2402 0
M  V30 6969 H 678.122 -1.60595 1.39007 0
M  V30 6970 H 680.385 -0.756138 0.571803 0
M  V30 6971 H 680.091 -3.12205 1.61929 0
M  V30 6972 H 679.965 -3.772 -0.00578374 0
M  V30 6973 H 682.352 -2.90919 -0.494991 0
M  V30 6974 H 682.433 -2.28125 1.15727 0
M  V30 6975 H 682.077 -4.64692 2.04997 0
M  V30 6976 H 682.007 -5.25256 0.376023 0
M  V30 6977 H 684.498 -3.71898 0.670851 0
M  V30 6978 H 684.811 -7.46932 1.98274 0
M  V30 6979 H 683.156 -6.71914 1.77641 0
M  V30 6980 H 686.347 -4.59095 0.913756 0
M  V30 6981 H 686.52 -6.30119 1.51176 0
M  V30 6982 N 679.926 -0.151884 -1.56866 0
M  V30 6983 C 681.174 0.497021 -1.95893 0
M  V30 6984 C 681.495 1.65078 -1.03799 0
M  V30 6985 O 680.765 1.95642 -0.10049 0
M  V30 6986 H 679.345 0.186603 -0.723318 0
M  V30 6987 H 682.007 -0.228525 -1.93556 0
M  V30 6988 H 681.103 0.869933 -2.99731 0
M  V30 6989 N 681.404 1.57128 0.121893 0
M  V30 6990 C 682.651 1.847 0.830188 0
M  V30 6991 C 682.979 0.736543 1.80015 0
M  V30 6992 O 682.234 -0.272358 1.93796 0
M  V30 6993 C 682.533 3.1874 1.61677 0
M  V30 6994 C 682.199 4.43901 0.791361 0
M  V30 6995 C 680.861 4.77887 0.563731 0
M  V30 6996 C 683.213 5.20753 0.215823 0
M  V30 6997 C 680.541 5.86168 -0.249737 0
M  V30 6998 C 682.893 6.29891 -0.584821 0
M  V30 6999 C 681.557 6.6241 -0.822794 0
M  V30 7000 H 680.827 0.675866 0.303787 0
M  V30 7001 H 683.474 1.91276 0.0926894 0
M  V30 7002 H 681.779 3.07728 2.42509 0
M  V30 7003 H 683.476 3.37295 2.16872 0
M  V30 7004 H 680.066 4.17272 0.978867 0
M  V30 7005 H 684.25 4.94851 0.378907 0
M  V30 7006 H 679.506 6.0979 -0.44336 0
M  V30 7007 H 683.68 6.88624 -1.03779 0
M  V30 7008 H 681.307 7.46147 -1.45496 0
M  V30 7009 N 682.882 -0.391992 1.52647 0
M  V30 7010 C 683.814 -1.49811 1.73463 0
M  V30 7011 C 684.827 -1.50734 0.615078 0
M  V30 7012 O 686.016 -1.5469 0.890696 0
M  V30 7013 C 683.116 -2.88667 1.77552 0
M  V30 7014 C 682.289 -3.11743 3.06815 0
M  V30 7015 C 681.348 -4.30564 3.02491 0
M  V30 7016 O 680.374 -4.27014 3.76361 0
M  V30 7017 N 681.576 -5.36593 2.21468 0
M  V30 7018 H 684.341 -1.32343 2.68897 0
M  V30 7019 H 681.902 -0.581475 1.51098 0
M  V30 7020 H 683.894 -3.66251 1.7217 0
M  V30 7021 H 682.464 -2.99508 0.895181 0
M  V30 7022 H 681.684 -2.2205 3.25711 0
M  V30 7023 H 682.972 -3.24013 3.92292 0
M  V30 7024 H 682.37 -5.42332 1.60913 0
M  V30 7025 H 680.927 -6.12855 2.21928 0
M  V30 7026 N 684.36 -1.4356 -0.65026 0
M  V30 7027 C 685.776 -1.27025 -0.966269 0
M  V30 7028 C 685.976 -0.192117 -2.00582 0
M  V30 7029 O 685.032 0.428459 -2.48838 0
M  V30 7030 C 686.345 -2.63556 -1.44772 0
M  V30 7031 C 687.893 -2.71111 -1.56421 0
M  V30 7032 C 688.368 -4.08067 -2.07956 0
M  V30 7033 N 689.859 -4.10146 -2.15254 0
M  V30 7034 C 690.594 -5.12952 -2.56258 0
M  V30 7035 N 690.09 -6.26129 -2.96537 0
M  V30 7036 N 691.883 -5.00306 -2.56224 0
M  V30 7037 H 684.034 -2.12367 0.0375758 0
M  V30 7038 H 686.297 -0.946894 -0.0457782 0
M  V30 7039 H 686.003 -3.43429 -0.758271 0
M  V30 7040 H 685.877 -2.89152 -2.42221 0
M  V30 7041 H 688.264 -1.91569 -2.24467 0
M  V30 7042 H 688.345 -2.49277 -0.573967 0
M  V30 7043 H 687.989 -4.88077 -1.40511 0
M  V30 7044 H 687.919 -4.27266 -3.07817 0
M  V30 7045 H 690.41 -3.28453 -1.86887 0
M  V30 7046 H 690.723 -7.00403 -3.26582 0
M  V30 7047 H 689.068 -6.29597 -2.94334 0
M  V30 7048 H 692.259 -4.10952 -2.24135 0
M  V30 7049 H 692.432 -5.80553 -2.87857 0
M  V30 7050 N 685.838 0.888903 -1.30139 0
M  V30 7051 C 687.085 1.64037 -1.18736 0
M  V30 7052 C 687.413 1.92771 0.258801 0
M  V30 7053 O 686.668 1.54427 1.20212 0
M  V30 7054 C 686.967 2.99041 -1.95728 0
M  V30 7055 C 686.633 2.89874 -3.45375 0
M  V30 7056 C 685.295 2.87082 -3.86183 0
M  V30 7057 C 687.647 2.78289 -4.40687 0
M  V30 7058 C 684.975 2.70536 -5.20603 0
M  V30 7059 C 687.327 2.63282 -5.75209 0
M  V30 7060 C 685.991 2.58861 -6.15262 0
M  V30 7061 H 685.261 0.600253 -0.434485 0
M  V30 7062 H 687.908 1.0338 -1.61198 0
M  V30 7063 H 686.213 3.63626 -1.45888 0
M  V30 7064 H 687.91 3.56139 -1.843 0
M  V30 7065 H 684.5 2.92856 -3.12943 0
M  V30 7066 H 688.684 2.79516 -4.10103 0
M  V30 7067 H 683.94 2.65526 -5.50732 0
M  V30 7068 H 688.114 2.5329 -6.48704 0
M  V30 7069 H 685.741 2.45799 -7.19366 0
M  V30 7070 N 687.317 1.12792 1.10072 0
M  V30 7071 C 688.564 0.885545 1.82111 0
M  V30 7072 C 688.892 -0.588519 1.85383 0
M  V30 7073 O 688.147 -1.45124 1.31292 0
M  V30 7074 C 688.446 1.4102 3.28403 0
M  V30 7075 C 688.112 2.89995 3.45273 0
M  V30 7076 C 686.774 3.30671 3.49585 0
M  V30 7077 C 689.126 3.85874 3.50358 0
M  V30 7078 C 686.454 4.65925 3.56553 0
M  V30 7079 C 688.806 5.20963 3.58859 0
M  V30 7080 C 687.47 5.61177 3.61437 0
M  V30 7081 H 686.74 0.324044 0.666391 0
M  V30 7082 H 689.387 1.40874 1.29718 0
M  V30 7083 H 687.692 0.807551 3.83387 0
M  V30 7084 H 689.389 1.19882 3.82661 0
M  V30 7085 H 685.979 2.57537 3.42597 0
M  V30 7086 H 690.163 3.5554 3.46273 0
M  V30 7087 H 685.419 4.96468 3.56833 0
M  V30 7088 H 689.593 5.95079 3.61738 0
M  V30 7089 H 687.22 6.6597 3.66589 0
M  V30 7090 N 688.795 -1.27931 0.920396 0
M  V30 7091 C 689.742 -2.27085 0.412422 0
M  V30 7092 C 690.712 -1.57858 -0.516725 0
M  V30 7093 O 691.897 -1.85717 -0.437475 0
M  V30 7094 C 689.037 -3.43466 -0.335399 0
M  V30 7095 C 688.15 -4.27425 0.627017 0
M  V30 7096 C 687.285 -5.31016 -0.139916 0
M  V30 7097 C 686.324 -6.06641 0.815683 0
M  V30 7098 N 685.461 -7.02052 0.0818439 0
M  V30 7099 H 690.301 -2.69913 1.26298 0
M  V30 7100 H 687.838 -1.32732 0.634076 0
M  V30 7101 H 689.796 -4.09744 -0.785226 0
M  V30 7102 H 688.426 -3.01611 -1.15025 0
M  V30 7103 H 687.478 -3.6113 1.19537 0
M  V30 7104 H 688.79 -4.79969 1.35763 0
M  V30 7105 H 687.944 -6.03208 -0.649998 0
M  V30 7106 H 686.683 -4.79257 -0.903543 0
M  V30 7107 H 685.688 -5.33294 1.33708 0
M  V30 7108 H 686.913 -6.60489 1.57897 0
M  V30 7109 H 684.859 -6.52634 -0.663671 0
M  V30 7110 H 684.776 -7.52249 0.752163 0
M  V30 7111 H 686.044 -7.78432 -0.407825 0
M  V30 7112 N 690.273 -0.685099 -1.4193 0
M  V30 7113 C 691.236 -0.0222632 -2.29189 0
M  V30 7114 C 692.236 0.7186 -1.4385 0
M  V30 7115 O 693.426 0.555058 -1.6512 0
M  V30 7116 C 690.558 0.979013 -3.2654 0
M  V30 7117 H 691.751 -0.790424 -2.89296 0
M  V30 7118 H 689.304 -0.448012 -1.49742 0
M  V30 7119 H 690.039 1.77531 -2.71392 0
M  V30 7120 H 689.824 0.451037 -3.89497 0
M  V30 7121 H 691.314 1.44091 -3.91954 0
M  V30 7122 N 691.751 1.51645 -0.429126 0
M  V30 7123 C 692.997 2.02314 0.140286 0
M  V30 7124 C 693.33 1.31314 1.43074 0
M  V30 7125 O 692.605 0.425531 1.89788 0
M  V30 7126 C 692.888 3.5822 0.36749 0
M  V30 7127 C 692.741 4.39846 -0.941039 0
M  V30 7128 C 694.06 4.25055 1.14089 0
M  V30 7129 H 691.179 0.735335 0.0495112 0
M  V30 7130 H 693.821 1.81358 -0.566514 0
M  V30 7131 H 691.971 3.76207 0.969556 0
M  V30 7132 H 693.643 4.33527 -1.57646 0
M  V30 7133 H 691.886 4.05259 -1.54751 0
M  V30 7134 H 692.557 5.47069 -0.73621 0
M  V30 7135 H 695.033 4.11288 0.630986 0
M  V30 7136 H 693.909 5.34038 1.26863 0
M  V30 7137 H 694.17 3.85358 2.16683 0
M  V30 7138 N 693.229 0.160201 1.56784 0
M  V30 7139 C 694.139 -0.787167 2.21 0
M  V30 7140 C 695.155 -1.26167 1.19825 0
M  V30 7141 O 696.331 -1.31611 1.52448 0
M  V30 7142 C 693.396 -2.00364 2.8294 0
M  V30 7143 C 692.457 -1.5771 3.99282 0
M  V30 7144 C 691.69 -2.73558 4.58259 0
M  V30 7145 O 691.913 -3.90129 4.16119 0
M  V30 7146 O 690.847 -2.48271 5.48311 0
M  V30 7147 H 694.673 -0.270462 3.02493 0
M  V30 7148 H 692.258 -0.0674666 1.49248 0
M  V30 7149 H 694.14 -2.71529 3.22257 0
M  V30 7150 H 692.815 -2.50961 2.04451 0
M  V30 7151 H 691.722 -0.835274 3.64656 0
M  V30 7152 H 693.055 -1.11815 4.79331 0
M  V30 7153 N 694.707 -1.5719 -0.113559 0
M  V30 7154 C 696.118 -1.74259 -0.670116 0
M  V30 7155 C 696.469 -0.779694 -1.80042 0
M  V30 7156 O 695.594 0.0461353 -2.16351 0
M  V30 7157 C 696.189 -3.15981 -1.22236 0
M  V30 7158 C 694.748 -3.34537 -1.72516 0
M  V30 7159 C 693.895 -2.70116 -0.627098 0
M  V30 7160 H 696.846 -1.58301 0.112396 0
M  V30 7161 H 696.867 -3.17832 -2.09197 0
M  V30 7162 H 696.379 -3.86038 -0.39949 0
M  V30 7163 H 694.48 -2.6953 -2.57263 0
M  V30 7164 H 694.593 -4.42737 -1.83086 0
M  V30 7165 H 692.957 -2.31501 -1.06204 0
M  V30 7166 H 693.74 -3.42802 0.184889 0
M  V30 7167 N 696.185 0.383891 -1.52853 0
M  V30 7168 C 697.132 1.46924 -1.77995 0
M  V30 7169 C 698.102 1.53958 -0.623396 0
M  V30 7170 O 699.287 1.70134 -0.863657 0
M  V30 7171 C 696.427 2.84093 -1.95921 0
M  V30 7172 C 695.54 2.86171 -3.23621 0
M  V30 7173 C 694.675 4.14799 -3.31836 0
M  V30 7174 C 693.714 4.10948 -4.53639 0
M  V30 7175 N 692.851 5.31192 -4.59107 0
M  V30 7176 H 697.691 1.24786 -2.70615 0
M  V30 7177 H 695.228 0.605265 -1.34071 0
M  V30 7178 H 697.186 3.63755 -2.04299 0
M  V30 7179 H 695.816 3.04671 -1.06656 0
M  V30 7180 H 694.868 1.9885 -3.24288 0
M  V30 7181 H 696.18 2.79194 -4.13343 0
M  V30 7182 H 695.334 5.02867 -3.39425 0
M  V30 7183 H 694.073 4.24505 -2.40097 0
M  V30 7184 H 693.078 3.21268 -4.46169 0
M  V30 7185 H 694.303 4.0286 -5.467 0
M  V30 7186 H 692.249 5.41518 -3.70262 0
M  V30 7187 H 692.166 5.26311 -5.42708 0
M  V30 7188 H 693.434 6.21143 -4.70958 0
M  V30 7189 N 697.663 1.43903 0.642637 0
M  V30 7190 C 698.909 1.47291 1.40275 0
M  V30 7191 C 699.264 0.0996024 1.92142 0
M  V30 7192 O 698.557 -0.883423 1.70018 0
M  V30 7193 C 698.751 2.45907 2.59354 0
M  V30 7194 C 698.58 3.92691 2.19143 0
M  V30 7195 C 697.35 4.6097 2.06966 0
M  V30 7196 C 699.548 4.82231 1.78768 0
M  V30 7197 N 697.53 5.9263 1.60196 0
M  V30 7198 C 698.901 6.03246 1.43159 0
M  V30 7199 C 700.956 4.69397 1.66045 0
M  V30 7200 C 699.659 7.12851 0.961014 0
M  V30 7201 C 701.685 5.79016 1.20392 0
M  V30 7202 C 701.047 6.99164 0.857271 0
M  V30 7203 H 697.146 0.594055 0.50855 0
M  V30 7204 H 699.73 1.80153 0.738434 0
M  V30 7205 H 697.901 2.15054 3.23429 0
M  V30 7206 H 699.633 2.39665 3.26102 0
M  V30 7207 H 696.388 4.15622 2.27058 0
M  V30 7208 H 696.812 6.62547 1.39143 0
M  V30 7209 H 701.454 3.76954 1.91482 0
M  V30 7210 H 699.172 8.05113 0.694148 0
M  V30 7211 H 702.758 5.71109 1.11023 0
M  V30 7212 H 701.638 7.82544 0.509408 0
M  V30 7213 N 699.141 -0.881989 1.30609 0
M  V30 7214 C 700.418 -1.61563 1.10258 0
M  V30 7215 C 700.798 -2.08228 -0.347053 0
M  V30 7216 O 700.146 -1.85151 -1.33908 0
M  V30 7217 C 700.356 -2.78287 2.10612 0
M  V30 7218 C 701.704 -3.48545 2.4249 0
M  V30 7219 O 702.728 -2.88479 2.08945 0
M  V30 7220 O 701.587 -4.56873 2.99883 0
M  V30 7221 H 698.681 -0.710238 0.423663 0
M  V30 7222 H 701.227 -0.928503 1.42045 0
M  V30 7223 H 699.999 -2.41131 3.08174 0
M  V30 7224 H 699.622 -3.54695 1.79659 0
M  V30 7225 N 700.619 -1.13374 -1.09472 0
M  V30 7226 C 701.549 -0.833268 -2.18126 0
M  V30 7227 C 702.53 0.207169 -1.68834 0
M  V30 7228 O 703.715 0.0662012 -1.94087 0
M  V30 7229 C 700.845 -0.297979 -3.46019 0
M  V30 7230 C 699.799 -1.27261 -4.08642 0
M  V30 7231 C 699.125 -0.597104 -5.31356 0
M  V30 7232 C 700.425 -2.63095 -4.51197 0
M  V30 7233 H 702.119 -1.74182 -2.43518 0
M  V30 7234 H 699.665 -0.838921 -1.17039 0
M  V30 7235 H 701.618 -0.0754444 -4.21332 0
M  V30 7236 H 700.342 0.645959 -3.20148 0
M  V30 7237 H 699.001 -1.48113 -3.35348 0
M  V30 7238 H 698.649 0.352293 -5.01765 0
M  V30 7239 H 698.349 -1.24734 -5.74208 0
M  V30 7240 H 699.873 -0.38384 -6.09392 0
M  V30 7241 H 701.287 -2.46214 -5.17737 0
M  V30 7242 H 699.684 -3.2429 -5.04932 0
M  V30 7243 H 700.754 -3.20793 -3.6362 0
M  V30 7244 N 702.098 1.27442 -0.927168 0
M  V30 7245 C 703.045 2.26863 -0.424459 0
M  V30 7246 C 704.015 1.5813 0.508346 0
M  V30 7247 O 705.2 1.85946 0.42762 0
M  V30 7248 C 702.34 3.43639 0.31718 0
M  V30 7249 C 701.453 4.27087 -0.649675 0
M  V30 7250 C 700.588 5.31082 0.111753 0
M  V30 7251 C 699.627 6.062 -0.847843 0
M  V30 7252 N 698.764 7.01999 -0.119074 0
M  V30 7253 H 703.604 2.69239 -1.27728 0
M  V30 7254 H 701.141 1.32394 -0.641106 0
M  V30 7255 H 703.099 4.10155 0.763486 0
M  V30 7256 H 701.729 3.02217 1.13424 0
M  V30 7257 H 700.781 3.60491 -1.21451 0
M  V30 7258 H 702.093 4.79242 -1.38307 0
M  V30 7259 H 701.247 6.03544 0.618 0
M  V30 7260 H 699.986 4.7973 0.878114 0
M  V30 7261 H 698.991 5.32577 -1.36534 0
M  V30 7262 H 700.216 6.59642 -1.61398 0
M  V30 7263 H 698.162 6.52977 0.629051 0
M  V30 7264 H 698.079 7.5184 -0.792046 0
M  V30 7265 H 699.347 7.78638 0.366537 0
M  V30 7266 N 703.576 0.692616 1.41565 0
M  V30 7267 C 704.804 0.231279 2.05603 0
M  V30 7268 C 705.219 -1.11837 1.52111 0
M  V30 7269 O 704.576 -1.6983 0.66813 0
M  V30 7270 C 704.627 0.177125 3.61066 0
M  V30 7271 O 704.348 1.47346 4.12578 0
M  V30 7272 C 705.849 -0.30556 4.42246 0
M  V30 7273 H 703.069 0.108238 0.662213 0
M  V30 7274 H 705.613 0.944369 1.81389 0
M  V30 7275 H 703.768 -0.486769 3.8433 0
M  V30 7276 H 704.182 1.35861 5.06599 0
M  V30 7277 H 705.656 -0.29233 5.51225 0
M  V30 7278 H 706.133 -1.34393 4.18133 0
M  V30 7279 H 706.739 0.327229 4.24039 0
M  V30 7280 N 705.054 -1.51416 0.437162 0
M  V30 7281 C 706.331 -1.94682 -0.189292 0
M  V30 7282 C 706.711 -1.37581 -1.60108 0
M  V30 7283 O 706.059 -0.562815 -2.2146 0
M  V30 7284 C 706.269 -3.48599 -0.167201 0
M  V30 7285 C 707.617 -4.2296 -0.372856 0
M  V30 7286 O 708.641 -3.55354 -0.245323 0
M  V30 7287 O 707.5 -5.42895 -0.626693 0
M  V30 7288 H 704.594 -0.816708 -0.130063 0
M  V30 7289 H 707.14 -1.62316 0.495128 0
M  V30 7290 H 705.912 -3.82616 0.81981 0
M  V30 7291 H 705.535 -3.87406 -0.894537 0
M  V30 7292 N 706.532 -0.168513 -1.56696 0
M  V30 7293 C 707.778 0.471368 -1.97863 0
M  V30 7294 C 708.133 1.61049 -1.05267 0
M  V30 7295 O 707.426 1.9138 -0.0917908 0
M  V30 7296 C 707.62 1.00441 -3.42996 0
M  V30 7297 C 707.449 -0.081524 -4.49626 0
M  V30 7298 C 706.219 -0.530242 -5.0251 0
M  V30 7299 C 708.417 -0.880897 -5.067 0
M  V30 7300 N 706.399 -1.59678 -5.9277 0
M  V30 7301 C 707.77 -1.79742 -5.93374 0
M  V30 7302 C 709.825 -0.92629 -4.89208 0
M  V30 7303 C 708.528 -2.7555 -6.64428 0
M  V30 7304 C 710.554 -1.8723 -5.6098 0
M  V30 7305 C 709.916 -2.77631 -6.4738 0
M  V30 7306 H 706.015 0.140671 -0.769244 0
M  V30 7307 H 708.599 -0.268084 -1.92846 0
M  V30 7308 H 706.77 1.71339 -3.48565 0
M  V30 7309 H 708.502 1.61269 -3.7118 0
M  V30 7310 H 705.257 -0.12847 -4.73426 0
M  V30 7311 H 705.681 -2.13045 -6.42605 0
M  V30 7312 H 710.323 -0.241412 -4.2211 0
M  V30 7313 H 708.041 -3.45027 -7.30741 0
M  V30 7314 H 711.627 -1.91349 -5.49433 0
M  V30 7315 H 710.507 -3.4964 -7.01941 0
M  V30 7316 N 708.01 1.57248 0.105221 0
M  V30 7317 C 708.942 1.98008 1.15436 0
M  V30 7318 C 709.955 0.881236 1.36887 0
M  V30 7319 O 711.144 1.15943 1.35718 0
M  V30 7320 C 708.244 2.27509 2.51183 0
M  V30 7321 C 707.417 3.58811 2.50147 0
M  V30 7322 C 706.476 3.76365 3.67745 0
M  V30 7323 O 705.502 4.48329 3.50699 0
M  V30 7324 N 706.704 3.16174 4.86841 0
M  V30 7325 H 709.469 2.88616 0.807519 0
M  V30 7326 H 707.03 1.59202 0.29433 0
M  V30 7327 H 709.022 2.36455 3.28438 0
M  V30 7328 H 707.592 1.42959 2.77995 0
M  V30 7329 H 706.812 3.60927 1.5851 0
M  V30 7330 H 708.1 4.45088 2.46524 0
M  V30 7331 H 707.498 2.57701 5.03594 0
M  V30 7332 H 706.055 3.30621 5.61723 0
M  V30 7333 N 709.488 -0.375779 1.53054 0
M  V30 7334 C 710.737 -1.11674 1.67964 0
M  V30 7335 C 711.05 -1.90755 0.432655 0
M  V30 7336 O 712.256 -2.67538 0.462109 0
M  V30 7337 C 710.712 -2.0344 2.96884 0
M  V30 7338 C 710.32 -1.29719 4.28809 0
M  V30 7339 C 712.064 -2.7759 3.2116 0
M  V30 7340 C 709.971 -2.20327 5.48826 0
M  V30 7341 H 708.901 -0.420597 0.625791 0
M  V30 7342 H 711.552 -0.378499 1.79554 0
M  V30 7343 H 709.934 -2.80953 2.79072 0
M  V30 7344 H 711.108 -0.573394 4.57219 0
M  V30 7345 H 709.423 -0.674735 4.10897 0
M  V30 7346 H 712.02 -3.4559 4.0801 0
M  V30 7347 H 712.363 -3.42399 2.36789 0
M  V30 7348 H 712.896 -2.07164 3.396 0
M  V30 7349 H 709.635 -1.60113 6.35645 0
M  V30 7350 H 709.155 -2.90585 5.2471 0
M  V30 7351 H 710.834 -2.80116 5.83219 0
M  V30 7352 N 710.966 -1.44241 -0.634997 0
M  V30 7353 C 712.215 -1.46102 -1.39058 0
M  V30 7354 C 712.528 -0.0959909 -1.95364 0
M  V30 7355 O 713.734 0.00788751 -2.71499 0
M  V30 7356 C 712.19 -2.57195 -2.51751 0
M  V30 7357 C 711.798 -3.99888 -2.01974 0
M  V30 7358 C 713.542 -2.68272 -3.28984 0
M  V30 7359 C 711.449 -5.02412 -3.11987 0
M  V30 7360 H 710.379 -0.543556 -0.522554 0
M  V30 7361 H 713.03 -1.70294 -0.683538 0
M  V30 7362 H 711.412 -2.26237 -3.25012 0
M  V30 7363 H 712.586 -4.40396 -1.35604 0
M  V30 7364 H 710.901 -3.93019 -1.37568 0
M  V30 7365 H 713.498 -3.42042 -4.10988 0
M  V30 7366 H 713.841 -1.73957 -3.78212 0
M  V30 7367 H 714.374 -2.98622 -2.62812 0
M  V30 7368 H 711.113 -5.98342 -2.67707 0
M  V30 7369 H 710.633 -4.66501 -3.77011 0
M  V30 7370 H 712.312 -5.25939 -3.76825 0
M  V30 7371 N 712.444 0.87505 -1.31075 0
M  V30 7372 C 713.669 1.66583 -1.23551 0
M  V30 7373 C 714.094 1.87067 0.19686 0
M  V30 7374 O 713.452 1.40877 1.1412 0
M  V30 7375 C 713.5 3.01401 -1.97965 0
M  V30 7376 O 712.604 3.90923 -1.31351 0
M  V30 7377 H 711.945 0.508645 -0.426821 0
M  V30 7378 H 714.475 1.09139 -1.7306 0
M  V30 7379 H 714.485 3.51374 -2.07366 0
M  V30 7380 H 713.16 2.85812 -3.02133 0
M  V30 7381 H 711.737 3.49369 -1.30368 0
M  V30 7382 N 713.922 1.13953 1.08869 0
M  V30 7383 C 714.832 0.835666 2.19212 0
M  V30 7384 C 715.848 -0.182005 1.73045 0
M  V30 7385 O 717.024 -0.0116661 2.01397 0
M  V30 7386 C 714.089 0.312325 3.4529 0
M  V30 7387 C 713.15 1.39196 4.06107 0
M  V30 7388 C 712.383 0.893496 5.26168 0
M  V30 7389 O 712.606 -0.266807 5.69776 0
M  V30 7390 O 711.54 1.67037 5.78258 0
M  V30 7391 H 715.366 1.75769 2.47667 0
M  V30 7392 H 712.951 0.917421 1.17914 0
M  V30 7393 H 714.833 0.0261582 4.21392 0
M  V30 7394 H 713.508 -0.582042 3.18424 0
M  V30 7395 H 712.415 1.73152 3.31616 0
M  V30 7396 H 713.748 2.26068 4.37212 0
M  V30 7397 N 715.4 -1.26948 0.933913 0
M  V30 7398 C 716.649 -1.93378 0.573409 0
M  V30 7399 C 716.962 -1.74148 -0.890614 0
M  V30 7400 O 718.168 -2.34971 -1.36017 0
M  V30 7401 C 716.624 -3.46449 0.974747 0
M  V30 7402 C 716.232 -3.74425 2.45988 0
M  V30 7403 C 717.976 -4.18924 0.685791 0
M  V30 7404 C 715.883 -5.209 2.8003 0
M  V30 7405 H 714.813 -0.723952 0.210736 0
M  V30 7406 H 717.464 -1.44143 1.13557 0
M  V30 7407 H 715.846 -3.94528 0.341181 0
M  V30 7408 H 717.02 -3.37079 3.14188 0
M  V30 7409 H 715.335 -3.15167 2.72138 0
M  V30 7410 H 717.932 -5.26786 0.916546 0
M  V30 7411 H 718.275 -4.14587 -0.377217 0
M  V30 7412 H 718.808 -3.76687 1.27874 0
M  V30 7413 H 715.547 -5.30332 3.85264 0
M  V30 7414 H 715.067 -5.59369 2.16485 0
M  V30 7415 H 716.746 -5.88837 2.68105 0
M  V30 7416 N 716.879 -0.700114 -1.41195 0
M  V30 7417 C 717.842 -0.0465706 -2.29153 0
M  V30 7418 C 718.842 0.703302 -1.44604 0
M  V30 7419 O 720.032 0.537513 -1.657 0
M  V30 7420 C 717.164 0.944324 -3.2756 0
M  V30 7421 H 718.357 -0.821064 -2.88442 0
M  V30 7422 H 715.91 -0.463869 -1.49258 0
M  V30 7423 H 716.645 1.74642 -2.73259 0
M  V30 7424 H 716.43 0.409701 -3.89954 0
M  V30 7425 H 717.92 1.39925 -3.9346 0
M  V30 7426 N 718.357 1.51182 -0.445186 0
M  V30 7427 C 719.585 2.06568 0.117091 0
M  V30 7428 C 720 1.31182 1.35781 0
M  V30 7429 O 719.357 0.373605 1.78635 0
M  V30 7430 C 719.408 3.58917 0.431408 0
M  V30 7431 O 719.129 4.31456 -0.760078 0
M  V30 7432 C 720.63 4.30843 1.0435 0
M  V30 7433 H 717.85 0.670985 0.00444436 0
M  V30 7434 H 720.394 1.94666 -0.626525 0
M  V30 7435 H 718.549 3.70708 1.12493 0
M  V30 7436 H 718.963 5.22215 -0.489048 0
M  V30 7437 H 720.437 5.38499 1.21337 0
M  V30 7438 H 720.914 3.89644 2.02667 0
M  V30 7439 H 721.52 4.23516 0.38913 0
M  V30 7440 N 719.835 0.176821 1.56605 0
M  V30 7441 C 721.251 -0.179278 1.5859 0
M  V30 7442 C 721.451 -1.62433 1.19238 0
M  V30 7443 O 720.507 -2.35665 0.906552 0
M  V30 7444 C 721.82 0.106524 3.00511 0
M  V30 7445 C 723.368 0.0451731 3.12967 0
M  V30 7446 C 723.843 0.304038 4.5699 0
M  V30 7447 N 725.334 0.252008 4.62514 0
M  V30 7448 C 726.069 0.426404 5.71812 0
M  V30 7449 N 725.565 0.660155 6.89648 0
M  V30 7450 N 727.358 0.361926 5.60934 0
M  V30 7451 H 719.509 1.12001 1.8047 0
M  V30 7452 H 721.772 0.445679 0.836704 0
M  V30 7453 H 721.478 1.10778 3.33798 0
M  V30 7454 H 721.352 -0.599337 3.72408 0
M  V30 7455 H 723.739 -0.946662 2.79504 0
M  V30 7456 H 723.82 0.78383 2.43495 0
M  V30 7457 H 723.464 1.29311 4.91163 0
M  V30 7458 H 723.394 -0.455294 5.24628 0
M  V30 7459 H 725.885 0.0772102 3.77821 0
M  V30 7460 H 726.198 0.782529 7.68828 0
M  V30 7461 H 724.543 0.696835 6.91498 0
M  V30 7462 H 727.734 0.17986 4.67754 0
M  V30 7463 H 727.907 0.501263 6.46058 0
M  V30 7464 N 721.313 -1.57302 -0.09688 0
M  V30 7465 C 722.246 -1.97179 -1.14872 0
M  V30 7466 C 723.224 -0.844734 -1.38935 0
M  V30 7467 O 724.408 -1.10487 -1.52725 0
M  V30 7468 C 721.535 -2.28703 -2.49826 0
M  V30 7469 C 720.581 -3.51158 -2.42054 0
M  V30 7470 S 721.414 -5.0294 -1.83879 0
M  V30 7471 C 722.57 -5.37639 -3.2046 0
M  V30 7472 H 722.803 -2.86088 -0.808771 0
M  V30 7473 H 720.336 -1.51368 -0.304492 0
M  V30 7474 H 722.294 -2.47541 -3.27466 0
M  V30 7475 H 720.955 -1.40368 -2.8099 0
M  V30 7476 H 720.148 -3.70651 -3.41517 0
M  V30 7477 H 719.75 -3.31821 -1.72543 0
M  V30 7478 H 722.042 -5.34175 -4.16729 0
M  V30 7479 H 722.985 -6.38677 -3.05773 0
M  V30 7480 H 723.393 -4.651 -3.19909 0
M  V30 7481 N 722.791 0.367657 -1.53252 0
M  V30 7482 C 724.039 1.10832 -1.68999 0
M  V30 7483 C 724.36 1.89894 -0.443306 0
M  V30 7484 O 723.63 1.88235 0.54262 0
M  V30 7485 H 722.21 0.412153 -0.623008 0
M  V30 7486 H 724.872 0.414775 -1.90435 0
M  V30 7487 H 723.968 1.7993 -2.55013 0
M  V30 7488 N 724.269 1.44576 0.627338 0
M  V30 7489 C 725.499 1.50829 1.41189 0
M  V30 7490 C 725.907 0.133083 1.88731 0
M  V30 7491 O 725.25 -0.87199 1.61685 0
M  V30 7492 C 725.312 2.41449 2.66351 0
M  V30 7493 C 724.976 3.88549 2.40579 0
M  V30 7494 C 725.973 4.78981 2.0217 0
M  V30 7495 C 723.658 4.33287 2.54102 0
M  V30 7496 C 725.652 6.12153 1.77618 0
M  V30 7497 C 723.339 5.66505 2.29163 0
M  V30 7498 C 724.337 6.55756 1.9098 0
M  V30 7499 O 724.025 7.86506 1.66321 0
M  V30 7500 H 723.757 0.513797 0.439304 0
M  V30 7501 H 726.311 1.90256 0.774059 0
M  V30 7502 H 724.541 1.96955 3.32784 0
M  V30 7503 H 726.23 2.38608 3.28361 0
M  V30 7504 H 726.996 4.45689 1.91277 0
M  V30 7505 H 722.875 3.64074 2.82792 0
M  V30 7506 H 726.419 6.81776 1.47739 0
M  V30 7507 H 722.316 5.99358 2.39668 0
M  V30 7508 H 723.084 7.98341 1.80536 0
M  V30 7509 N 725.747 -0.868086 1.31537 0
M  V30 7510 C 727.158 -1.437 1.19195 0
M  V30 7511 C 727.509 -1.95169 -0.200842 0
M  V30 7512 O 726.634 -1.86432 -1.09872 0
M  V30 7513 C 727.229 -2.612 2.15778 0
M  V30 7514 C 725.788 -3.1413 2.07363 0
M  V30 7515 C 724.935 -1.86845 2.049 0
M  V30 7516 H 727.886 -0.676457 1.43561 0
M  V30 7517 H 727.907 -3.37948 1.74847 0
M  V30 7518 H 727.419 -2.23709 3.17137 0
M  V30 7519 H 725.52 -3.56238 1.09204 0
M  V30 7520 H 725.633 -3.76285 2.96557 0
M  V30 7521 H 723.997 -2.05886 1.49943 0
M  V30 7522 H 724.78 -1.51589 3.08019 0
M  V30 7523 N 727.225 -1.14528 -1.08264 0
M  V30 7524 C 728.158 -0.777154 -2.14559 0
M  V30 7525 C 729.136 0.242165 -1.60787 0
M  V30 7526 O 730.32 0.130882 -1.88045 0
M  V30 7527 C 727.447 -0.154092 -3.38349 0
M  V30 7528 C 726.493 -1.14382 -4.10876 0
M  V30 7529 S 727.326 -2.68173 -4.63512 0
M  V30 7530 C 728.482 -2.0726 -5.90588 0
M  V30 7531 H 728.715 -1.67748 -2.45454 0
M  V30 7532 H 726.248 -0.966661 -1.20395 0
M  V30 7533 H 728.206 0.19897 -4.10018 0
M  V30 7534 H 726.867 0.723688 -3.05649 0
M  V30 7535 H 726.06 -0.655908 -4.99714 0
M  V30 7536 H 725.662 -1.44095 -3.45127 0
M  V30 7537 H 727.954 -1.42895 -6.62259 0
M  V30 7538 H 728.897 -2.94227 -6.44078 0
M  V30 7539 H 729.305 -1.51935 -5.43669 0
M  V30 7540 N 728.703 1.26451 -0.940633 0
M  V30 7541 C 729.653 2.24086 -0.420669 0
M  V30 7542 C 730.637 1.53501 0.482301 0
M  V30 7543 O 731.829 1.74127 0.317636 0
M  V30 7544 C 728.958 3.41866 0.313452 0
M  V30 7545 C 728.044 4.19737 -0.606779 0
M  V30 7546 N 728.435 4.7521 -1.73232 0
M  V30 7547 C 726.733 4.44091 -0.41226 0
M  V30 7548 C 727.434 5.34052 -2.30572 0
M  V30 7549 N 726.41 5.1971 -1.59381 0
M  V30 7550 H 730.212 2.64569 -1.27986 0
M  V30 7551 H 727.726 1.4153 -0.796436 0
M  V30 7552 H 729.723 4.1093 0.702991 0
M  V30 7553 H 728.383 3.0291 1.16942 0
M  V30 7554 H 729.394 4.72769 -2.11447 0
M  V30 7555 H 726.071 4.1556 0.401984 0
M  V30 7556 H 727.461 5.87845 -3.25404 0
M  V30 7557 N 730.181 0.707592 1.40822 0
M  V30 7558 C 731.411 0.252706 2.05049 0
M  V30 7559 C 731.819 -1.10758 1.53393 0
M  V30 7560 O 731.162 -1.70567 0.682097 0
M  V30 7561 C 731.224 0.146001 3.59203 0
M  V30 7562 C 730.888 1.44027 4.33711 0
M  V30 7563 C 731.885 2.38058 4.62195 0
M  V30 7564 C 729.57 1.69698 4.72766 0
M  V30 7565 C 731.564 3.56013 5.28709 0
M  V30 7566 C 729.251 2.87936 5.39014 0
M  V30 7567 C 730.249 3.80915 5.66915 0
M  V30 7568 O 729.937 4.9708 6.31796 0
M  V30 7569 H 729.669 0.112784 0.666525 0
M  V30 7570 H 732.223 0.96417 1.81364 0
M  V30 7571 H 730.453 -0.621338 3.81676 0
M  V30 7572 H 732.142 -0.273275 4.04979 0
M  V30 7573 H 732.908 2.19487 4.32493 0
M  V30 7574 H 728.787 0.981835 4.50423 0
M  V30 7575 H 732.331 4.28604 5.50404 0
M  V30 7576 H 728.228 3.06419 5.68135 0
M  V30 7577 H 728.996 4.97053 6.50293 0
M  V30 7578 N 731.66 -1.50943 0.453197 0
M  V30 7579 C 732.608 -2.29728 -0.364419 0
M  V30 7580 C 733.602 -1.36246 -1.00664 0
M  V30 7581 O 734.808 -1.53518 -0.939794 0
M  V30 7582 H 731.183 -0.739536 -0.136347 0
M  V30 7583 H 733.154 -2.96672 0.320696 0
M  V30 7584 C 731.903 -3.1629 -1.44415 0
M  V30 7585 H 731.226 -3.88119 -0.959343 0
M  V30 7586 H 732.666 -3.74444 -1.98917 0
M  V30 7587 C 731.125 -2.32702 -2.43622 0
M  V30 7588 O 731.655 -1.99763 -3.48508 0
M  V30 7589 N 729.861 -1.95621 -2.14897 0
M  V30 7590 H 729.408 -2.22607 -1.29629 0
M  V30 7591 H 729.366 -1.39993 -2.81513 0
M  V30 7592 N 733.138 -0.185124 -1.56509 0
M  V30 7593 C 734.086 0.756505 -2.19954 0
M  V30 7594 C 735.08 1.22725 -1.16769 0
M  V30 7595 O 736.286 1.1913 -1.34937 0
M  V30 7596 H 732.661 0.262279 -0.704779 0
M  V30 7597 H 734.632 0.197587 -2.97745 0
M  V30 7598 C 733.381 1.96975 -2.86524 0
M  V30 7599 H 732.704 1.61658 -3.65659 0
M  V30 7600 H 734.144 2.60719 -3.34367 0
M  V30 7601 C 732.603 2.80219 -1.87027 0
M  V30 7602 O 733.133 3.77821 -1.36433 0
M  V30 7603 N 731.339 2.4551 -1.55477 0
M  V30 7604 H 730.886 1.66199 -1.96813 0
M  V30 7605 H 730.844 3.01493 -0.891597 0
M  V30 7606 N 734.616 1.57351 0.0885366 0
M  V30 7607 C 735.844 1.90631 0.804196 0
M  V30 7608 C 736.259 0.779474 1.71958 0
M  V30 7609 O 735.616 -0.248179 1.80805 0
M  V30 7610 C 735.667 3.23568 1.61202 0
M  V30 7611 O 735.388 4.31917 0.733447 0
M  V30 7612 C 736.889 3.70753 2.43016 0
M  V30 7613 H 734.109 0.630501 0.229585 0
M  V30 7614 H 736.653 2.044 0.0638092 0
M  V30 7615 H 734.808 3.11377 2.30485 0
M  V30 7616 H 735.222 5.08297 1.29361 0
M  V30 7617 H 736.696 4.66447 2.9518 0
M  V30 7618 H 737.173 2.98922 3.2178 0
M  V30 7619 H 737.779 3.85834 1.7892 0
M  V30 7620 N 736.094 -0.359525 1.53444 0
M  V30 7621 C 737.026 -1.46098 1.76602 0
M  V30 7622 C 738.039 -1.49395 0.646912 0
M  V30 7623 O 739.228 -1.52765 0.923307 0
M  V30 7624 C 736.328 -2.84836 1.83635 0
M  V30 7625 C 735.501 -3.05164 3.13358 0
M  V30 7626 C 734.56 -4.24051 3.11556 0
M  V30 7627 O 733.586 -4.18935 3.85334 0
M  V30 7628 N 734.788 -5.31775 2.328 0
M  V30 7629 H 737.553 -1.2661 2.71643 0
M  V30 7630 H 735.114 -0.549294 1.52297 0
M  V30 7631 H 737.106 -3.62516 1.799 0
M  V30 7632 H 735.676 -2.97542 0.958509 0
M  V30 7633 H 734.896 -2.15091 3.30348 0
M  V30 7634 H 736.184 -3.15619 3.99076 0
M  V30 7635 H 735.582 -5.38796 1.7238 0
M  V30 7636 H 734.139 -6.0801 2.34877 0
M  V30 7637 N 737.572 -1.44907 -0.619662 0
M  V30 7638 C 738.482 -1.55168 -1.75955 0
M  V30 7639 C 739.498 -0.43672 -1.6843 0
M  V30 7640 O 740.674 -0.695704 -1.89002 0
M  V30 7641 C 737.739 -1.50397 -3.12381 0
M  V30 7642 C 736.8 -2.72835 -3.31451 0
M  V30 7643 C 736.033 -2.68283 -4.61368 0
M  V30 7644 O 736.256 -1.74929 -5.42914 0
M  V30 7645 O 735.19 -3.59308 -4.82889 0
M  V30 7646 H 739.016 -2.51493 -1.7025 0
M  V30 7647 H 736.601 -1.27282 -0.782289 0
M  V30 7648 H 738.483 -1.50301 -3.93685 0
M  V30 7649 H 737.158 -0.572197 -3.18603 0
M  V30 7650 H 736.065 -2.78496 -2.49781 0
M  V30 7651 H 737.398 -3.65098 -3.30098 0
M  V30 7652 N 739.05 0.861098 -1.31996 0
M  V30 7653 C 740.299 1.60965 -1.21545 0
M  V30 7654 C 740.612 1.94325 0.222972 0
M  V30 7655 O 741.818 2.67757 0.449272 0
M  V30 7656 C 740.274 2.90223 -2.12834 0
M  V30 7657 C 739.882 2.64313 -3.61722 0
M  V30 7658 C 741.626 3.68229 -2.11205 0
M  V30 7659 C 739.533 3.89532 -4.44993 0
M  V30 7660 H 738.463 0.603988 -0.451348 0
M  V30 7661 H 741.114 0.951358 -1.56912 0
M  V30 7662 H 739.496 3.57475 -1.70375 0
M  V30 7663 H 740.67 2.05413 -4.12483 0
M  V30 7664 H 738.985 1.99647 -3.65418 0
M  V30 7665 H 741.582 4.61138 -2.70658 0
M  V30 7666 H 741.925 4.01466 -1.1014 0
M  V30 7667 H 742.458 3.07873 -2.51911 0
M  V30 7668 H 739.197 3.61441 -5.46846 0
M  V30 7669 H 738.717 4.47851 -3.98985 0
M  V30 7670 H 740.396 4.57334 -4.57663 0
M  V30 7671 N 740.528 1.15101 1.07655 0
M  V30 7672 C 741.774 0.935313 1.8062 0
M  V30 7673 C 742.129 -0.532052 1.84897 0
M  V30 7674 O 741.422 -1.3893 1.31943 0
M  V30 7675 C 741.616 1.47954 3.25337 0
M  V30 7676 C 741.445 2.99829 3.35161 0
M  V30 7677 C 740.215 3.68348 3.45902 0
M  V30 7678 C 742.413 3.97638 3.26173 0
M  V30 7679 N 740.395 5.08062 3.44596 0
M  V30 7680 C 741.766 5.23651 3.31949 0
M  V30 7681 C 743.821 3.89651 3.09962 0
M  V30 7682 C 742.524 6.42609 3.23182 0
M  V30 7683 C 744.55 5.08164 3.02528 0
M  V30 7684 C 743.912 6.3305 3.08913 0
M  V30 7685 H 740.011 0.395876 0.674393 0
M  V30 7686 H 742.595 1.4625 1.28526 0
M  V30 7687 H 740.766 0.979022 3.75859 0
M  V30 7688 H 742.498 1.20298 3.86407 0
M  V30 7689 H 739.253 3.18928 3.50117 0
M  V30 7690 H 739.677 5.81023 3.47479 0
M  V30 7691 H 744.319 2.93966 3.03881 0
M  V30 7692 H 742.037 7.38531 3.28022 0
M  V30 7693 H 745.623 5.03742 2.91093 0
M  V30 7694 H 744.503 7.23214 3.03201 0
M  V30 7695 N 742.006 -1.2595 0.947325 0
M  V30 7696 C 743.283 -1.88676 0.515824 0
M  V30 7697 C 743.663 -1.85547 -1.00675 0
M  V30 7698 O 743.011 -1.31399 -1.8694 0
M  V30 7699 C 743.221 -3.31734 1.08415 0
M  V30 7700 C 744.569 -4.08545 1.15654 0
M  V30 7701 O 745.593 -3.40826 1.03517 0
M  V30 7702 O 744.452 -5.29663 1.34608 0
M  V30 7703 H 741.546 -0.809537 0.169055 0
M  V30 7704 H 744.092 -1.34075 1.04029 0
M  V30 7705 H 742.864 -3.28404 2.1276 0
M  V30 7706 H 742.487 -3.93882 0.542499 0
M  V30 7707 N 743.484 -0.715051 -1.40445 0
M  V30 7708 C 744.394 -0.0631624 -2.34515 0
M  V30 7709 C 745.41 0.744397 -1.57273 0
M  V30 7710 O 746.586 0.677475 -1.89663 0
M  V30 7711 C 743.651 0.847915 -3.36172 0
M  V30 7712 C 742.712 0.0303655 -4.29289 0
M  V30 7713 C 741.945 0.898051 -5.2609 0
M  V30 7714 O 742.168 2.13729 -5.28844 0
M  V30 7715 O 741.102 0.337328 -6.00954 0
M  V30 7716 H 744.928 -0.839078 -2.91879 0
M  V30 7717 H 742.513 -0.475527 -1.4163 0
M  V30 7718 H 744.395 1.3698 -3.98515 0
M  V30 7719 H 743.07 1.60299 -2.81222 0
M  V30 7720 H 741.977 -0.536573 -3.70232 0
M  V30 7721 H 743.31 -0.686474 -4.87389 0
M  V30 7722 N 744.962 1.50701 -0.461195 0
M  V30 7723 C 745.892 2.31182 0.328184 0
M  V30 7724 C 746.873 1.37644 0.999408 0
M  V30 7725 O 748.058 1.66565 0.99848 0
M  V30 7726 C 745.188 3.17113 1.41621 0
M  V30 7727 C 744.142 4.19124 0.867148 0
M  V30 7728 C 743.468 4.93728 2.05272 0
M  V30 7729 C 744.768 5.22174 -0.114808 0
M  V30 7730 H 746.462 2.97423 -0.343501 0
M  V30 7731 H 744.008 1.43033 -0.166641 0
M  V30 7732 H 745.961 3.72208 1.97584 0
M  V30 7733 H 744.685 2.48739 2.11652 0
M  V30 7734 H 743.344 3.65116 0.329557 0
M  V30 7735 H 742.992 4.21835 2.73978 0
M  V30 7736 H 742.692 5.62724 1.69161 0
M  V30 7737 H 744.216 5.51654 2.61744 0
M  V30 7738 H 745.63 5.72198 0.355316 0
M  V30 7739 H 744.027 5.98833 -0.389689 0
M  V30 7740 H 745.097 4.7353 -1.04391 0
M  V30 7741 N 746.441 0.193421 1.56409 0
M  V30 7742 C 747.857 -0.162447 1.58771 0
M  V30 7743 C 748.057 -1.6116 1.20954 0
M  V30 7744 O 747.113 -2.3469 0.931497 0
M  V30 7745 C 748.426 0.138391 3.00381 0
M  V30 7746 C 749.974 0.0783649 3.12902 0
M  V30 7747 C 750.449 0.352491 4.56642 0
M  V30 7748 N 751.94 0.30105 4.62221 0
M  V30 7749 C 752.675 0.487028 5.71328 0
M  V30 7750 N 752.171 0.733265 6.88909 0
M  V30 7751 N 753.964 0.4214 5.60518 0
M  V30 7752 H 746.115 1.13909 1.79272 0
M  V30 7753 H 748.378 0.454528 0.83193 0
M  V30 7754 H 748.084 1.14312 3.32604 0
M  V30 7755 H 747.958 -0.559804 3.73023 0
M  V30 7756 H 750.345 -0.916963 2.80492 0
M  V30 7757 H 750.426 0.809611 2.4265 0
M  V30 7758 H 750.07 1.34513 4.89764 0
M  V30 7759 H 750 -0.399624 5.25081 0
M  V30 7760 H 752.491 0.117279 3.77718 0
M  V30 7761 H 752.804 0.86403 7.67955 0
M  V30 7762 H 751.149 0.770138 6.9072 0
M  V30 7763 H 754.34 0.229461 4.67537 0
M  V30 7764 H 754.513 0.569758 6.4549 0
M  V30 7765 N 747.919 -1.57396 -0.0801906 0
M  V30 7766 C 748.869 -1.9955 -1.10289 0
M  V30 7767 C 749.853 -0.876234 -1.34948 0
M  V30 7768 O 751.045 -1.14012 -1.35389 0
M  V30 7769 C 748.174 -2.43596 -2.419 0
M  V30 7770 C 747.26 -3.6224 -2.20551 0
M  V30 7771 N 747.651 -4.76693 -1.69109 0
M  V30 7772 C 745.949 -3.68627 -2.51059 0
M  V30 7773 C 746.65 -5.58577 -1.62379 0
M  V30 7774 N 745.626 -5.02178 -2.0813 0
M  V30 7775 H 749.428 -2.85483 -0.698335 0
M  V30 7776 H 746.942 -1.59837 -0.287395 0
M  V30 7777 H 748.939 -2.72031 -3.15919 0
M  V30 7778 H 747.599 -1.59047 -2.8308 0
M  V30 7779 H 748.61 -4.9915 -1.38092 0
M  V30 7780 H 745.287 -2.94772 -2.95661 0
M  V30 7781 H 746.677 -6.60447 -1.2353 0
M  V30 7782 N 749.397 0.351382 -1.53633 0
M  V30 7783 C 750.327 1.43688 -1.84055 0
M  V30 7784 C 751.308 1.55251 -0.695073 0
M  V30 7785 O 752.493 1.69587 -0.946257 0
M  V30 7786 C 749.623 2.80843 -2.04315 0
M  V30 7787 C 748.577 2.84094 -3.20117 0
M  V30 7788 C 747.903 4.2406 -3.25696 0
M  V30 7789 C 749.203 2.50334 -4.58399 0
M  V30 7790 H 750.897 1.18478 -2.74961 0
M  V30 7791 H 748.443 0.568509 -1.32303 0
M  V30 7792 H 750.396 3.56821 -2.2418 0
M  V30 7793 H 749.12 3.07471 -1.10132 0
M  V30 7794 H 747.779 2.10568 -3.00094 0
M  V30 7795 H 747.427 4.47785 -2.29123 0
M  V30 7796 H 747.127 4.27147 -4.03509 0
M  V30 7797 H 748.651 5.0189 -3.47762 0
M  V30 7798 H 750.065 3.16025 -4.78332 0
M  V30 7799 H 748.462 2.64717 -5.38558 0
M  V30 7800 H 749.532 1.45542 -4.62543 0
M  V30 7801 N 750.875 1.45233 0.611969 0
M  V30 7802 C 752.115 1.50558 1.38245 0
M  V30 7803 C 752.479 0.141959 1.91474 0
M  V30 7804 O 753.68 0.0698926 2.68709 0
M  V30 7805 C 751.951 2.55136 2.50281 0
M  V30 7806 S 753.51 2.79652 3.38142 0
M  V30 7807 H 750.328 0.532281 0.471378 0
M  V30 7808 H 752.93 1.82285 0.706578 0
M  V30 7809 H 751.634 3.52888 2.09518 0
M  V30 7810 H 751.165 2.25045 3.22674 0
M  V30 7811 H 753.18 2.12699 4.48301 0
M  V30 7812 N 752.353 -0.854086 1.3245 0
M  V30 7813 C 753.764 -1.42427 1.20712 0
M  V30 7814 C 754.115 -1.95371 -0.18013 0
M  V30 7815 O 753.24 -1.87587 -1.07889 0
M  V30 7816 C 753.835 -2.58897 2.18536 0
M  V30 7817 C 752.394 -3.11913 2.10683 0
M  V30 7818 C 751.541 -1.84661 2.06871 0
M  V30 7819 H 754.492 -0.661192 1.4427 0
M  V30 7820 H 754.513 -3.36074 1.78422 0
M  V30 7821 H 754.025 -2.20333 3.19492 0
M  V30 7822 H 752.126 -3.55059 1.12977 0
M  V30 7823 H 752.239 -3.73119 3.00532 0
M  V30 7824 H 750.603 -2.04285 1.52118 0
M  V30 7825 H 751.386 -1.48314 3.09609 0
M  V30 7826 N 753.831 -1.1567 -1.07043 0
M  V30 7827 C 755.108 -0.843948 -1.76456 0
M  V30 7828 C 755.488 0.659806 -2.00524 0
M  V30 7829 O 754.836 1.60518 -1.62623 0
M  V30 7830 C 755.046 -1.65822 -3.0709 0
M  V30 7831 C 756.394 -1.8664 -3.8138 0
M  V30 7832 O 757.418 -1.62624 -3.1691 0
M  V30 7833 O 756.277 -2.26884 -4.97178 0
M  V30 7834 H 753.371 -0.310677 -0.766426 0
M  V30 7835 H 755.917 -1.26266 -1.1338 0
M  V30 7836 H 754.689 -2.67902 -2.85209 0
M  V30 7837 H 754.312 -1.23605 -3.77899 0
M  V30 7838 N 755.309 1.25446 -0.953992 0
M  V30 7839 C 756.556 1.93143 -0.608429 0
M  V30 7840 C 756.884 1.74727 0.854451 0
M  V30 7841 O 756.139 1.0855 1.62836 0
M  V30 7842 C 756.438 3.45555 -0.912496 0
M  V30 7843 C 756.104 3.84126 -2.36131 0
M  V30 7844 C 754.766 3.94367 -2.75732 0
M  V30 7845 C 757.118 4.0324 -3.30223 0
M  V30 7846 C 754.446 4.21127 -4.08496 0
M  V30 7847 C 756.798 4.31493 -4.62598 0
M  V30 7848 C 755.462 4.3995 -5.01996 0
M  V30 7849 H 754.732 0.706762 -0.22264 0
M  V30 7850 H 757.379 1.49005 -1.20291 0
M  V30 7851 H 755.684 3.91091 -0.235618 0
M  V30 7852 H 757.381 3.9612 -0.623714 0
M  V30 7853 H 753.971 3.76711 -2.04418 0
M  V30 7854 H 758.155 3.94744 -3.00817 0
M  V30 7855 H 753.411 4.2589 -4.38665 0
M  V30 7856 H 757.585 4.45227 -5.35486 0
M  V30 7857 H 755.212 4.60439 -6.04896 0
M  V30 7858 N 756.787 0.722489 1.40064 0
M  V30 7859 C 758.017 0.274439 2.04769 0
M  V30 7860 C 758.425 -1.09125 1.54559 0
M  V30 7861 O 757.768 -1.69834 0.700149 0
M  V30 7862 C 757.83 0.184091 3.59028 0
M  V30 7863 C 757.494 1.48619 4.32159 0
M  V30 7864 C 758.491 2.42947 4.59644 0
M  V30 7865 C 756.176 1.74703 4.7094 0
M  V30 7866 C 758.17 3.616 5.24904 0
M  V30 7867 C 755.857 2.93636 5.3593 0
M  V30 7868 C 756.855 3.86907 5.62843 0
M  V30 7869 O 756.543 5.03753 6.26489 0
M  V30 7870 H 756.275 0.119847 0.665292 0
M  V30 7871 H 758.829 0.983352 1.80331 0
M  V30 7872 H 757.059 -0.580821 3.82313 0
M  V30 7873 H 758.748 -0.230306 4.05246 0
M  V30 7874 H 759.514 2.24062 4.30141 0
M  V30 7875 H 755.393 1.02955 4.49356 0
M  V30 7876 H 758.937 4.34418 5.45827 0
M  V30 7877 H 754.834 3.12428 5.64853 0
M  V30 7878 H 755.602 5.03922 6.44984 0
M  V30 7879 N 758.265 -1.50454 0.469181 0
M  V30 7880 C 759.513 -2.01916 -0.0862982 0
M  V30 7881 C 759.834 -1.35337 -1.40388 0
M  V30 7882 O 759.104 -0.498096 -1.89462 0
M  V30 7883 H 757.684 -0.746185 -0.0348825 0
M  V30 7884 H 760.346 -1.84804 0.619167 0
M  V30 7885 H 759.442 -3.11182 -0.239189 0
M  V30 7886 N 759.743 -0.201713 -1.56304 0
M  V30 7887 C 760.706 0.702811 -2.18159 0
M  V30 7888 C 761.706 1.13619 -1.13787 0
M  V30 7889 O 762.896 1.0482 -1.39134 0
M  V30 7890 C 760.028 1.96032 -2.78898 0
M  V30 7891 H 761.221 0.163836 -2.99452 0
M  V30 7892 H 758.774 0.04791 -1.56227 0
M  V30 7893 H 759.509 2.54165 -2.01421 0
M  V30 7894 H 759.294 1.65824 -3.55309 0
M  V30 7895 H 760.784 2.60519 -3.26373 0
M  V30 7896 N 761.222 1.57436 0.0718424 0
M  V30 7897 C 762.45 1.91474 0.783932 0
M  V30 7898 C 762.865 0.797669 1.71122 0
M  V30 7899 O 762.222 -0.228989 1.81058 0
M  V30 7900 C 762.273 3.25259 1.57761 0
M  V30 7901 O 761.994 4.3267 0.687596 0
M  V30 7902 C 763.495 3.7331 2.3907 0
M  V30 7903 H 760.715 0.632901 0.222885 0
M  V30 7904 H 763.259 2.04457 0.0421262 0
M  V30 7905 H 761.414 3.13804 2.27169 0
M  V30 7906 H 761.828 5.09641 1.23962 0
M  V30 7907 H 763.302 4.69551 2.90216 0
M  V30 7908 H 763.779 3.02318 3.18591 0
M  V30 7909 H 764.385 3.8771 1.74818 0
M  V30 7910 N 762.7 -0.34323 1.53817 0
M  V30 7911 C 763.93 -1.10188 1.74763 0
M  V30 7912 C 764.338 -1.82829 0.486856 0
M  V30 7913 O 763.681 -1.75236 -0.551198 0
M  V30 7914 C 763.743 -2.16 2.87375 0
M  V30 7915 C 763.407 -1.62931 4.26969 0
M  V30 7916 C 764.404 -1.08147 5.08528 0
M  V30 7917 C 762.089 -1.67769 4.73454 0
M  V30 7918 C 764.083 -0.589039 6.34672 0
M  V30 7919 C 761.77 -1.18138 5.99572 0
M  V30 7920 C 762.768 -0.637979 6.80014 0
M  V30 7921 O 762.456 -0.149073 8.03762 0
M  V30 7922 H 762.188 -0.33445 0.587469 0
M  V30 7923 H 764.742 -0.401109 2.01445 0
M  V30 7924 H 762.972 -2.89637 2.56218 0
M  V30 7925 H 764.661 -2.77432 2.96287 0
M  V30 7926 H 765.427 -1.03732 4.73777 0
M  V30 7927 H 761.306 -2.09004 4.10899 0
M  V30 7928 H 764.85 -0.164233 6.97407 0
M  V30 7929 H 760.747 -1.22254 6.33817 0
M  V30 7930 H 761.515 -0.266332 8.18067 0
M  V30 7931 N 764.178 -1.45556 -0.604258 0
M  V30 7932 C 765.088 -1.57025 -1.74299 0
M  V30 7933 C 766.104 -0.45456 -1.67958 0
M  V30 7934 O 767.28 -0.715711 -1.88254 0
M  V30 7935 C 764.345 -1.53702 -3.10768 0
M  V30 7936 C 763.406 -2.76335 -3.28538 0
M  V30 7937 C 762.639 -2.73161 -4.58496 0
M  V30 7938 O 762.862 -1.80678 -5.41028 0
M  V30 7939 O 761.796 -3.64409 -4.79051 0
M  V30 7940 H 765.622 -2.53284 -1.67573 0
M  V30 7941 H 763.207 -1.28104 -0.768745 0
M  V30 7942 H 765.089 -1.54468 -3.92068 0
M  V30 7943 H 763.764 -0.605957 -3.17978 0
M  V30 7944 H 762.671 -2.8113 -2.46813 0
M  V30 7945 H 764.004 -3.68578 -3.26207 0
M  V30 7946 N 765.656 0.84705 -1.32902 0
M  V30 7947 C 766.603 1.95624 -1.22473 0
M  V30 7948 C 767.573 1.65767 -0.105178 0
M  V30 7949 O 768.758 1.88704 -0.282042 0
M  V30 7950 C 765.898 3.31434 -0.961542 0
M  V30 7951 C 765.011 3.73741 -2.1666 0
M  V30 7952 C 764.146 4.98379 -1.83825 0
M  V30 7953 C 763.185 5.33199 -3.00609 0
M  V30 7954 N 762.322 6.49014 -2.67816 0
M  V30 7955 H 767.162 2.03875 -2.17345 0
M  V30 7956 H 764.699 0.997764 -1.08088 0
M  V30 7957 H 766.657 4.09663 -0.789411 0
M  V30 7958 H 765.287 3.22762 -0.0495938 0
M  V30 7959 H 764.339 2.91102 -2.44875 0
M  V30 7960 H 765.651 3.95462 -3.03993 0
M  V30 7961 H 764.805 5.84336 -1.63208 0
M  V30 7962 H 763.544 4.78611 -0.937172 0
M  V30 7963 H 762.549 4.4575 -3.21849 0
M  V30 7964 H 763.774 5.5492 -3.9146 0
M  V30 7965 H 761.72 6.30748 -1.80258 0
M  V30 7966 H 761.637 6.7079 -3.48679 0
M  V30 7967 H 762.905 7.38103 -2.50647 0
M  V30 7968 N 767.134 1.16236 1.06428 0
M  V30 7969 C 768.067 0.81119 2.13295 0
M  V30 7970 C 769.045 -0.216555 1.61151 0
M  V30 7971 O 770.229 -0.100949 1.88229 0
M  V30 7972 C 767.356 0.207901 3.38061 0
M  V30 7973 C 766.402 1.20904 4.09004 0
M  V30 7974 S 767.235 2.75513 4.59187 0
M  V30 7975 C 768.391 2.1663 5.87216 0
M  V30 7976 H 768.624 1.71632 2.42755 0
M  V30 7977 H 766.157 0.985693 1.18842 0
M  V30 7978 H 768.115 -0.133715 4.10282 0
M  V30 7979 H 766.776 -0.67497 3.06762 0
M  V30 7980 H 765.969 0.735326 4.98607 0
M  V30 7981 H 765.571 1.49567 3.42791 0
M  V30 7982 H 767.863 1.53413 6.59902 0
M  V30 7983 H 768.806 3.04437 6.39315 0
M  V30 7984 H 769.214 1.60565 5.41183 0
M  V30 7985 N 768.612 -1.24939 0.960631 0
M  V30 7986 C 769.86 -1.92437 0.617441 0
M  V30 7987 C 770.181 -1.75543 -0.849101 0
M  V30 7988 O 769.451 -1.12269 -1.60538 0
M  V30 7989 H 768.031 -0.712192 0.225371 0
M  V30 7990 H 770.693 -1.5198 1.22017 0
M  V30 7991 H 769.789 -3.00247 0.851933 0
M  V30 7992 N 770.09 -0.729906 -1.39679 0
M  V30 7993 C 771 -0.0880322 -2.34435 0
M  V30 7994 C 772.016 0.727674 -1.58053 0
M  V30 7995 O 773.192 0.657321 -1.90371 0
M  V30 7996 C 770.257 0.812211 -3.37052 0
M  V30 7997 C 769.318 -0.0151681 -4.29297 0
M  V30 7998 C 768.551 0.842202 -5.27013 0
M  V30 7999 O 768.774 2.08108 -5.31081 0
M  V30 8000 O 767.708 0.27357 -6.01278 0
M  V30 8001 H 771.534 -0.869989 -2.90972 0
M  V30 8002 H 769.119 -0.490522 -1.41118 0
M  V30 8003 H 771.001 1.32745 -3.99946 0
M  V30 8004 H 769.676 1.57307 -2.82907 0
M  V30 8005 H 768.583 -0.575811 -3.69642 0
M  V30 8006 H 769.916 -0.738129 -4.86634 0
M  V30 8007 N 771.568 1.50203 -0.477153 0
M  V30 8008 C 772.498 2.31517 0.303646 0
M  V30 8009 C 773.479 1.38696 0.984753 0
M  V30 8010 O 774.664 1.67615 0.980758 0
M  V30 8011 C 771.794 3.18598 1.38249 0
M  V30 8012 C 770.748 4.2002 0.822645 0
M  V30 8013 C 770.074 4.95878 2.00024 0
M  V30 8014 C 771.374 5.22023 -0.170185 0
M  V30 8015 H 773.068 2.97042 -0.375027 0
M  V30 8016 H 770.614 1.42848 -0.181802 0
M  V30 8017 H 772.567 3.74282 1.93625 0
M  V30 8018 H 771.291 2.5097 2.09002 0
M  V30 8019 H 769.95 3.65445 0.290813 0
M  V30 8020 H 769.598 4.24717 2.69489 0
M  V30 8021 H 769.298 5.64487 1.63183 0
M  V30 8022 H 770.822 5.54399 2.55878 0
M  V30 8023 H 772.236 5.72543 0.294606 0
M  V30 8024 H 770.633 5.98386 -0.453181 0
M  V30 8025 H 771.703 4.72396 -1.09408 0
M  V30 8026 N 773.046 0.209999 1.56195 0
M  V30 8027 C 774.294 -0.423974 1.97603 0
M  V30 8028 C 774.615 -1.61112 1.09854 0
M  V30 8029 O 773.885 -1.95134 0.173032 0
M  V30 8030 H 772.465 -0.159629 0.729745 0
M  V30 8031 H 775.127 0.300205 1.92574 0
M  V30 8032 H 774.223 -0.75809 3.02753 0
M  V30 8033 N 774.524 -1.57472 -0.0634922 0
M  V30 8034 C 775.771 -1.87654 -0.761066 0
M  V30 8035 C 776.099 -0.802847 -1.77157 0
M  V30 8036 O 775.354 0.200244 -1.94673 0
M  V30 8037 C 775.653 -3.24521 -1.49736 0
M  V30 8038 C 775.319 -4.46532 -0.626065 0
M  V30 8039 C 773.981 -4.7965 -0.385978 0
M  V30 8040 C 776.333 -5.21195 -0.0224001 0
M  V30 8041 C 773.661 -5.84837 0.467118 0
M  V30 8042 C 776.013 -6.27286 0.818198 0
M  V30 8043 C 774.677 -6.58899 1.06808 0
M  V30 8044 H 773.947 -0.686675 -0.278494 0
M  V30 8045 H 776.594 -1.91488 -0.0216348 0
M  V30 8046 H 774.899 -3.16516 -2.30921 0
M  V30 8047 H 776.596 -3.45111 -2.04204 0
M  V30 8048 H 773.186 -4.20618 -0.823325 0
M  V30 8049 H 777.37 -4.95917 -0.194985 0
M  V30 8050 H 772.626 -6.07725 0.669375 0
M  V30 8051 H 776.8 -6.84298 1.29265 0
M  V30 8052 H 774.427 -7.40233 1.73088 0
M  V30 8053 N 776.003 0.335068 -1.53997 0
M  V30 8054 C 777.252 1.07182 -1.70865 0
M  V30 8055 C 777.565 1.89541 -0.483078 0
M  V30 8056 O 778.771 2.66219 -0.532879 0
M  V30 8057 C 777.227 1.95497 -3.02174 0
M  V30 8058 C 776.835 1.18304 -4.32097 0
M  V30 8059 C 778.579 2.68978 -3.28407 0
M  V30 8060 C 776.486 2.05699 -5.54474 0
M  V30 8061 H 775.416 0.403857 -0.636722 0
M  V30 8062 H 778.067 0.33076 -1.80494 0
M  V30 8063 H 776.449 2.73456 -2.86423 0
M  V30 8064 H 777.623 0.451969 -4.58578 0
M  V30 8065 H 775.938 0.565556 -4.12541 0
M  V30 8066 H 778.535 3.34651 -4.17029 0
M  V30 8067 H 778.878 3.36 -2.45784 0
M  V30 8068 H 779.411 1.98087 -3.44973 0
M  V30 8069 H 776.15 1.43204 -6.39666 0
M  V30 8070 H 775.67 2.76572 -5.32229 0
M  V30 8071 H 777.349 2.64554 -5.90441 0
M  V30 8072 N 777.481 1.45874 0.596531 0
M  V30 8073 C 778.413 1.51408 1.7207 0
M  V30 8074 C 779.426 0.403738 1.57714 0
M  V30 8075 O 780.615 0.671384 1.65393 0
M  V30 8076 C 777.715 1.3652 3.10186 0
M  V30 8077 C 776.888 2.61428 3.50677 0
M  V30 8078 C 775.947 2.40937 4.67799 0
M  V30 8079 O 774.973 3.14602 4.74357 0
M  V30 8080 N 776.175 1.4621 5.61785 0
M  V30 8081 H 778.94 2.48333 1.67782 0
M  V30 8082 H 776.501 1.41755 0.782129 0
M  V30 8083 H 778.493 1.20606 3.86311 0
M  V30 8084 H 777.063 0.478302 3.08919 0
M  V30 8085 H 776.283 2.92381 2.644 0
M  V30 8086 H 777.571 3.44432 3.74491 0
M  V30 8087 H 776.969 0.854382 5.59211 0
M  V30 8088 H 775.526 1.36264 6.37397 0
M  V30 8089 N 778.959 -0.83999 1.33349 0
M  V30 8090 C 780.205 -1.59724 1.25936 0
M  V30 8091 C 780.56 -1.91616 -0.173563 0
M  V30 8092 O 779.853 -1.55791 -1.11534 0
M  V30 8093 C 780.047 -2.91571 2.06691 0
M  V30 8094 C 779.876 -2.72556 3.57691 0
M  V30 8095 C 778.646 -2.70174 4.27006 0
M  V30 8096 C 780.844 -2.45272 4.52047 0
M  V30 8097 N 778.826 -2.42525 5.63964 0
M  V30 8098 C 780.197 -2.27163 5.76885 0
M  V30 8099 C 782.252 -2.30859 4.41144 0
M  V30 8100 C 780.955 -1.96105 6.92052 0
M  V30 8101 C 782.981 -2.01194 5.56125 0
M  V30 8102 C 782.343 -1.83897 6.79972 0
M  V30 8103 H 778.442 -0.587568 0.516031 0
M  V30 8104 H 781.026 -0.986169 1.67877 0
M  V30 8105 H 779.197 -3.5063 1.67073 0
M  V30 8106 H 780.929 -3.56762 1.91057 0
M  V30 8107 H 777.684 -2.8364 3.7927 0
M  V30 8108 H 778.108 -2.31588 6.36157 0
M  V30 8109 H 782.75 -2.42946 3.46031 0
M  V30 8110 H 780.468 -1.82756 7.87163 0
M  V30 8111 H 784.054 -1.90799 5.49624 0
M  V30 8112 H 782.934 -1.61271 7.67438 0
M  V30 8113 N 780.437 -1.16799 -1.0581 0
M  V30 8114 C 781.848 -0.95945 -1.60161 0
M  V30 8115 C 782.199 0.49543 -1.89842 0
M  V30 8116 O 781.324 1.36957 -1.67546 0
M  V30 8117 C 781.919 -1.73527 -2.90987 0
M  V30 8118 C 780.478 -1.57158 -3.42021 0
M  V30 8119 C 779.625 -1.74089 -2.15843 0
M  V30 8120 H 782.576 -1.31598 -0.886992 0
M  V30 8121 H 782.597 -1.21397 -3.60615 0
M  V30 8122 H 782.109 -2.79411 -2.69353 0
M  V30 8123 H 780.21 -0.537361 -3.68705 0
M  V30 8124 H 780.323 -2.35858 -4.17022 0
M  V30 8125 H 778.687 -1.16874 -2.26302 0
M  V30 8126 H 779.47 -2.81371 -1.96686 0
M  V30 8127 N 781.915 1.24427 -0.967243 0
M  V30 8128 C 783.155 1.9423 -0.636723 0
M  V30 8129 C 783.519 1.73939 0.812971 0
M  V30 8130 O 784.72 2.37773 1.25369 0
M  V30 8131 C 782.991 3.43105 -1.00067 0
M  V30 8132 S 784.55 4.31728 -0.784633 0
M  V30 8133 H 781.368 0.671527 -0.233607 0
M  V30 8134 H 783.97 1.50806 -1.2441 0
M  V30 8135 H 782.674 3.5538 -2.05264 0
M  V30 8136 H 782.205 3.91521 -0.384054 0
M  V30 8137 H 784.22 4.95046 0.338244 0
M  V30 8138 N 783.393 0.737304 1.3929 0
M  V30 8139 C 784.809 0.413132 1.5416 0
M  V30 8140 C 785.009 -1.07574 1.70382 0
M  V30 8141 O 784.065 -1.86185 1.70562 0
M  V30 8142 C 785.378 1.19817 2.75798 0
M  V30 8143 C 786.926 1.18662 2.89635 0
M  V30 8144 C 787.401 1.95427 4.14213 0
M  V30 8145 N 788.892 1.92605 4.21257 0
M  V30 8146 C 789.627 2.48808 5.16606 0
M  V30 8147 N 789.123 3.13659 6.1773 0
M  V30 8148 N 790.916 2.38829 5.08839 0
M  V30 8149 H 783.067 1.70243 1.27008 0
M  V30 8150 H 785.33 0.720802 0.61575 0
M  V30 8151 H 785.036 2.25179 2.70161 0
M  V30 8152 H 784.91 0.804144 3.68529 0
M  V30 8153 H 787.297 0.141112 2.94762 0
M  V30 8154 H 787.378 1.62003 1.97961 0
M  V30 8155 H 787.022 2.9998 4.09847 0
M  V30 8156 H 786.952 1.4949 5.04936 0
M  V30 8157 H 789.443 1.45362 3.48824 0
M  V30 8158 H 789.756 3.54006 6.8695 0
M  V30 8159 H 788.101 3.17749 6.1811 0
M  V30 8160 H 791.292 1.87806 4.28773 0
M  V30 8161 H 791.465 2.82929 5.82971 0
M  V30 8162 N 784.871 -1.49948 0.485112 0
M  V30 8163 C 786.148 -1.95186 -0.12726 0
M  V30 8164 C 786.528 -1.42605 -1.5565 0
M  V30 8165 O 785.876 -0.632986 -2.19558 0
M  V30 8166 C 786.086 -3.48955 -0.0562117 0
M  V30 8167 C 787.434 -4.23932 -0.238106 0
M  V30 8168 O 788.458 -3.55955 -0.132145 0
M  V30 8169 O 787.317 -5.44614 -0.453658 0
M  V30 8170 H 784.411 -0.820433 -0.104014 0
M  V30 8171 H 786.957 -1.60659 0.546517 0
M  V30 8172 H 785.729 -3.79814 0.941122 0
M  V30 8173 H 785.352 -3.90056 -0.770834 0
M  V30 8174 N 786.349 -0.21828 -1.56081 0
M  V30 8175 C 787.577 0.419258 -2.02608 0
M  V30 8176 C 787.992 1.53578 -1.09814 0
M  V30 8177 O 787.349 1.82185 -0.107149 0
M  V30 8178 C 787.4 0.953955 -3.48686 0
M  V30 8179 O 787.121 -0.11805 -4.37941 0
M  V30 8180 C 788.622 1.66506 -4.10841 0
M  V30 8181 H 785.842 0.10296 -0.663054 0
M  V30 8182 H 788.386 -0.333776 -2.01758 0
M  V30 8183 H 786.541 1.65727 -3.50162 0
M  V30 8184 H 786.955 0.283359 -5.23734 0
M  V30 8185 H 788.429 1.99123 -5.14834 0
M  V30 8186 H 788.906 2.57705 -3.55647 0
M  V30 8187 H 789.512 1.00703 -4.13206 0
M  V30 8188 N 787.827 1.57504 0.0551401 0
M  V30 8189 C 789.052 1.92682 0.767352 0
M  V30 8190 C 789.477 0.81614 1.69472 0
M  V30 8191 O 788.835 -0.229989 1.79835 0
M  V30 8192 C 788.883 3.26866 1.52286 0
M  V30 8193 O 787.987 3.17274 2.63459 0
M  V30 8194 H 787.328 0.630502 0.208238 0
M  V30 8195 H 789.858 2.04592 0.0184026 0
M  V30 8196 H 789.868 3.61138 1.8985 0
M  V30 8197 H 788.543 4.07276 0.842541 0
M  V30 8198 H 787.12 2.94589 2.2863 0
M  V30 8199 N 789.305 -0.326896 1.54172 0
M  V30 8200 C 790.582 -1.08326 1.62864 0
M  V30 8201 C 790.962 -2.06018 0.46039 0
M  V30 8202 O 790.31 -2.21889 -0.545685 0
M  V30 8203 C 790.52 -1.78816 2.9971 0
M  V30 8204 C 791.868 -2.31958 3.55641 0
M  V30 8205 O 792.892 -1.88888 3.01993 0
M  V30 8206 O 791.751 -3.10801 4.49517 0
M  V30 8207 H 788.845 -0.499131 0.659392 0
M  V30 8208 H 791.391 -0.327054 1.66519 0
M  V30 8209 H 790.163 -1.07739 3.76176 0
M  V30 8210 H 789.786 -2.61255 2.99719 0
M  V30 8211 N 790.784 -1.46188 -0.588786 0
M  V30 8212 C 791.747 -1.55882 -1.68029 0
M  V30 8213 C 792.747 -0.436515 -1.54762 0
M  V30 8214 O 793.937 -0.700626 -1.59489 0
M  V30 8215 C 791.069 -1.47332 -3.07418 0
M  V30 8216 H 792.262 -2.5315 -1.60795 0
M  V30 8217 H 789.815 -1.33908 -0.806116 0
M  V30 8218 H 790.55 -0.513193 -3.20214 0
M  V30 8219 H 790.335 -2.28753 -3.18456 0
M  V30 8220 H 791.825 -1.57187 -3.86887 0
M  V30 8221 N 792.262 0.832906 -1.33792 0
M  V30 8222 C 793.539 1.57359 -1.16178 0
M  V30 8223 C 793.919 2.09372 0.269532 0
M  V30 8224 O 793.267 1.89993 1.26944 0
M  V30 8225 C 793.477 2.70279 -2.20795 0
M  V30 8226 C 794.825 3.39305 -2.55259 0
M  V30 8227 O 795.849 2.80526 -2.19508 0
M  V30 8228 O 794.708 4.45428 -3.16632 0
M  V30 8229 H 791.802 0.694025 -0.449731 0
M  V30 8230 H 794.348 0.875144 -1.45394 0
M  V30 8231 H 793.12 2.29527 -3.16911 0
M  V30 8232 H 792.743 3.47782 -1.927 0
M  V30 8233 N 793.74 1.17359 1.05189 0
M  V30 8234 C 794.672 0.848078 2.12933 0
M  V30 8235 C 795.685 -0.149521 1.62112 0
M  V30 8236 O 796.874 0.0767797 1.78335 0
M  V30 8237 C 793.974 0.243889 3.38021 0
M  V30 8238 C 793.147 1.28436 4.18118 0
M  V30 8239 C 792.206 0.697926 5.21551 0
M  V30 8240 O 791.232 1.36973 5.52473 0
M  V30 8241 N 792.434 -0.510024 5.78255 0
M  V30 8242 H 795.199 1.7754 2.41453 0
M  V30 8243 H 792.76 1.07244 1.21286 0
M  V30 8244 H 794.752 -0.161727 4.04377 0
M  V30 8245 H 793.322 -0.58722 3.07035 0
M  V30 8246 H 792.542 1.86573 3.47252 0
M  V30 8247 H 793.83 1.98617 4.68432 0
M  V30 8248 H 793.228 -1.07378 5.55416 0
M  V30 8249 H 791.785 -0.857705 6.46132 0
M  V30 8250 N 795.218 -1.23913 0.973828 0
M  V30 8251 C 796.466 -1.91771 0.637817 0
M  V30 8252 C 796.787 -1.76434 -0.830435 0
M  V30 8253 O 796.057 -1.13965 -1.59339 0
M  V30 8254 H 794.637 -0.709761 0.232912 0
M  V30 8255 H 797.299 -1.50677 1.23622 0
M  V30 8256 H 796.395 -2.99327 0.883731 0
M  V30 8257 N 796.696 -0.74468 -1.38897 0
M  V30 8258 C 797.924 -0.307428 -2.04603 0
M  V30 8259 C 798.339 1.06115 -1.56157 0
M  V30 8260 O 797.696 1.67233 -0.730701 0
M  V30 8261 C 797.747 -0.31101 -3.6016 0
M  V30 8262 O 797.468 -1.62557 -4.06825 0
M  V30 8263 C 798.969 0.141213 -4.43075 0
M  V30 8264 H 796.189 -0.132741 -0.657739 0
M  V30 8265 H 798.733 -1.01104 -1.77759 0
M  V30 8266 H 796.888 0.343792 -3.85872 0
M  V30 8267 H 797.302 -1.54569 -5.01207 0
M  V30 8268 H 798.776 0.0875449 -5.51931 0
M  V30 8269 H 799.253 1.18782 -4.22833 0
M  V30 8270 H 799.859 -0.484383 -4.22533 0
M  V30 8271 N 798.174 1.49689 -0.493057 0
M  V30 8272 C 799.399 2.07331 0.0535114 0
M  V30 8273 C 799.824 1.35196 1.30781 0
M  V30 8274 O 799.182 0.406246 1.7669 0
M  V30 8275 C 799.23 3.59364 0.29825 0
M  V30 8276 O 798.334 3.88819 1.37454 0
M  V30 8277 H 797.675 0.663612 -0.0227018 0
M  V30 8278 H 800.205 1.926 -0.690402 0
M  V30 8279 H 800.215 4.04515 0.532159 0
M  V30 8280 H 798.89 4.1128 -0.618207 0
M  V30 8281 H 797.467 3.55487 1.12621 0
M  V30 8282 N 799.652 0.226554 1.55963 0
M  V30 8283 C 800.882 -0.407915 2.02533 0
M  V30 8284 C 801.29 -1.53539 1.10554 0
M  V30 8285 O 800.633 -1.8338 0.108409 0
M  V30 8286 C 800.695 -0.996081 3.45425 0
M  V30 8287 C 800.359 -0.00341651 4.57 0
M  V30 8288 C 801.356 0.798782 5.13727 0
M  V30 8289 C 799.041 0.116786 5.02164 0
M  V30 8290 C 801.035 1.70784 6.14094 0
M  V30 8291 C 798.722 1.02937 6.02368 0
M  V30 8292 C 799.72 1.82344 6.5821 0
M  V30 8293 O 799.408 2.72067 7.56462 0
M  V30 8294 H 799.14 -0.103524 0.668026 0
M  V30 8295 H 801.694 0.341937 2.02534 0
M  V30 8296 H 799.924 -1.79512 3.42509 0
M  V30 8297 H 801.613 -1.53848 3.75614 0
M  V30 8298 H 802.379 0.716393 4.7968 0
M  V30 8299 H 798.258 -0.491172 4.58376 0
M  V30 8300 H 801.802 2.32807 6.57607 0
M  V30 8301 H 797.699 1.11276 6.35836 0
M  V30 8302 H 798.467 2.66199 7.74003 0
M  V30 8303 N 801.13 -1.57531 -0.0467866 0
M  V30 8304 C 802.06 -2.08425 -1.05268 0
M  V30 8305 C 803.041 -0.982941 -1.38825 0
M  V30 8306 O 804.226 -1.25716 -1.48018 0
M  V30 8307 C 801.356 -2.54897 -2.35891 0
M  V30 8308 C 800.31 -3.69132 -2.16623 0
M  V30 8309 C 799.636 -4.01747 -3.52851 0
M  V30 8310 C 800.936 -4.98243 -1.56689 0
M  V30 8311 H 802.63 -2.92716 -0.62908 0
M  V30 8312 H 800.176 -1.40816 -0.301156 0
M  V30 8313 H 802.129 -2.8912 -3.06574 0
M  V30 8314 H 800.853 -1.67666 -2.80278 0
M  V30 8315 H 799.512 -3.35231 -1.48377 0
M  V30 8316 H 799.16 -3.11608 -3.94853 0
M  V30 8317 H 798.86 -4.78681 -3.4079 0
M  V30 8318 H 800.384 -4.38487 -4.24925 0
M  V30 8319 H 801.798 -5.30535 -2.17268 0
M  V30 8320 H 800.195 -5.79669 -1.55255 0
M  V30 8321 H 801.265 -4.81986 -0.530827 0
M  V30 8322 N 802.608 0.318715 -1.54344 0
M  V30 8323 C 803.855 1.05608 -1.72781 0
M  V30 8324 C 804.183 1.87854 -0.504083 0
M  V30 8325 O 803.438 1.88826 0.51414 0
M  V30 8326 C 803.737 2.00514 -2.95853 0
M  V30 8327 C 803.403 1.34385 -4.30409 0
M  V30 8328 C 802.065 1.16081 -4.66989 0
M  V30 8329 C 804.417 0.869627 -5.13894 0
M  V30 8330 C 801.745 0.490114 -5.84649 0
M  V30 8331 C 804.097 0.212735 -6.32242 0
M  V30 8332 C 802.761 0.0175882 -6.67498 0
M  V30 8333 H 802.031 0.386449 -0.632249 0
M  V30 8334 H 804.678 0.332729 -1.88587 0
M  V30 8335 H 802.983 2.79317 -2.74753 0
M  V30 8336 H 804.68 2.57605 -3.07312 0
M  V30 8337 H 801.27 1.49634 -4.01631 0
M  V30 8338 H 805.454 0.998809 -4.86146 0
M  V30 8339 H 800.71 0.327767 -6.10521 0
M  V30 8340 H 804.884 -0.162699 -6.9621 0
M  V30 8341 H 802.511 -0.504137 -7.58527 0
M  V30 8342 N 804.086 1.46499 0.581025 0
M  V30 8343 C 805.033 1.5719 1.68997 0
M  V30 8344 C 806.003 0.416114 1.60803 0
M  V30 8345 O 807.188 0.633086 1.79991 0
M  V30 8346 C 804.328 1.56973 3.07333 0
M  V30 8347 C 803.441 2.83298 3.26139 0
M  V30 8348 C 802.576 2.74574 4.54734 0
M  V30 8349 C 801.615 3.9583 4.66889 0
M  V30 8350 N 800.752 3.85482 5.86811 0
M  V30 8351 H 805.592 2.51914 1.59196 0
M  V30 8352 H 803.129 1.24975 0.775857 0
M  V30 8353 H 805.087 1.54832 3.87405 0
M  V30 8354 H 803.717 0.657803 3.16027 0
M  V30 8355 H 802.769 2.95411 2.3966 0
M  V30 8356 H 804.081 3.7316 3.30988 0
M  V30 8357 H 803.235 2.70548 5.43036 0
M  V30 8358 H 801.974 1.82354 4.52325 0
M  V30 8359 H 800.979 4.00186 3.77003 0
M  V30 8360 H 802.204 4.89148 4.71075 0
M  V30 8361 H 800.15 2.96051 5.85397 0
M  V30 8362 H 800.067 4.69002 5.92936 0
M  V30 8363 H 801.335 3.85434 6.7754 0
M  V30 8364 N 805.565 -0.825799 1.34232 0
M  V30 8365 C 806.475 -1.9684 1.27638 0
M  V30 8366 C 807.491 -1.73018 0.184569 0
M  V30 8367 O 808.667 -1.97172 0.410525 0
M  V30 8368 C 805.732 -3.31084 1.02879 0
M  V30 8369 C 804.793 -3.67933 2.21188 0
M  V30 8370 C 804.026 -4.95772 1.976 0
M  V30 8371 O 804.249 -5.62721 0.93281 0
M  V30 8372 O 803.183 -5.30431 2.84477 0
M  V30 8373 H 807.009 -2.05346 2.23756 0
M  V30 8374 H 804.594 -0.960772 1.1441 0
M  V30 8375 H 806.476 -4.11492 0.908406 0
M  V30 8376 H 805.151 -3.23552 0.0979821 0
M  V30 8377 H 804.058 -2.87981 2.38784 0
M  V30 8378 H 805.391 -3.80147 3.12648 0
M  V30 8379 N 807.043 -1.17915 -1.04565 0
M  V30 8380 C 807.99 -0.901605 -2.12461 0
M  V30 8381 C 808.96 0.157011 -1.65356 0
M  V30 8382 O 810.145 0.0184494 -1.90791 0
M  V30 8383 C 807.285 -0.42796 -3.42436 0
M  V30 8384 C 806.398 -1.55142 -4.03181 0
M  V30 8385 C 805.533 -1.03101 -5.21098 0
M  V30 8386 C 804.572 -2.1295 -5.73863 0
M  V30 8387 N 803.709 -1.62339 -6.83074 0
M  V30 8388 H 808.549 -1.82551 -2.3554 0
M  V30 8389 H 806.086 -0.910389 -1.15544 0
M  V30 8390 H 808.044 -0.134859 -4.16982 0
M  V30 8391 H 806.674 0.458977 -3.1952 0
M  V30 8392 H 805.726 -1.96011 -3.26012 0
M  V30 8393 H 807.038 -2.37968 -4.38375 0
M  V30 8394 H 806.192 -0.692132 -6.02739 0
M  V30 8395 H 804.931 -0.17227 -4.87396 0
M  V30 8396 H 803.936 -2.47687 -4.90847 0
M  V30 8397 H 805.161 -2.9925 -6.09611 0
M  V30 8398 H 803.107 -0.787464 -6.51256 0
M  V30 8399 H 803.024 -2.38767 -7.17305 0
M  V30 8400 H 804.292 -1.31363 -7.68351 0
M  V30 8401 N 808.521 1.23394 -0.980386 0
M  V30 8402 C 809.768 1.91809 -0.649261 0
M  V30 8403 C 810.096 1.765 0.817197 0
M  V30 8404 O 809.351 1.11979 1.60497 0
M  V30 8405 C 809.65 3.43542 -0.985588 0
M  V30 8406 C 809.316 3.79031 -2.44225 0
M  V30 8407 C 807.978 3.88429 -2.84035 0
M  V30 8408 C 810.33 3.96145 -3.38702 0
M  V30 8409 C 807.658 4.12368 -4.17336 0
M  V30 8410 C 810.01 4.21583 -4.71646 0
M  V30 8411 C 808.674 4.29203 -5.11215 0
M  V30 8412 H 807.944 0.70188 -0.237581 0
M  V30 8413 H 810.591 1.4642 -1.23424 0
M  V30 8414 H 808.896 3.90503 -0.318521 0
M  V30 8415 H 810.593 3.94708 -0.707596 0
M  V30 8416 H 807.183 3.7229 -2.12362 0
M  V30 8417 H 811.367 3.88274 -3.09123 0
M  V30 8418 H 806.623 4.1649 -4.47601 0
M  V30 8419 H 810.797 4.33769 -5.4481 0
M  V30 8420 H 808.424 4.47505 -6.14527 0
M  V30 8421 N 809.999 0.752036 1.385 0
M  V30 8422 C 811.276 0.233075 1.94206 0
M  V30 8423 C 811.656 -1.26838 1.68746 0
M  V30 8424 O 811.004 -2.04214 1.02513 0
M  V30 8425 C 811.214 0.58509 3.44061 0
M  V30 8426 C 812.562 0.543871 4.21102 0
M  V30 8427 O 813.586 0.523291 3.52335 0
M  V30 8428 O 812.445 0.553436 5.4369 0
M  V30 8429 H 809.539 0.0483049 0.825588 0
M  V30 8430 H 812.085 0.832053 1.47902 0
M  V30 8431 H 810.857 1.62212 3.56094 0
M  V30 8432 H 810.48 -0.0419738 3.97578 0
M  V30 8433 N 811.477 -1.49425 0.500989 0
M  V30 8434 C 812.705 -2.06861 -0.0403443 0
M  V30 8435 C 813.12 -1.36132 -1.30819 0
M  V30 8436 O 812.477 -0.439647 -1.77125 0
M  V30 8437 C 812.528 -3.6027 -0.297902 0
M  V30 8438 O 812.249 -4.28338 0.919686 0
M  V30 8439 C 813.75 -4.34419 -0.882876 0
M  V30 8440 H 810.97 -0.670688 0.0204619 0
M  V30 8441 H 813.514 -1.92207 0.698342 0
M  V30 8442 H 811.669 -3.74627 -0.98657 0
M  V30 8443 H 812.083 -5.2004 0.682528 0
M  V30 8444 H 813.557 -5.42631 -1.01268 0
M  V30 8445 H 814.034 -3.96898 -1.88066 0
M  V30 8446 H 814.64 -4.24669 -0.231677 0
M  V30 8447 N 812.955 -0.234822 -1.55841 0
M  V30 8448 C 814.366 0.270588 -1.84729 0
M  V30 8449 C 814.717 1.58494 -1.15646 0
M  V30 8450 O 813.842 2.12071 -0.430667 0
M  V30 8451 C 814.437 0.497733 -3.35124 0
M  V30 8452 C 812.996 0.947428 -3.64281 0
M  V30 8453 C 812.143 0.01787 -2.77294 0
M  V30 8454 H 815.094 -0.457691 -1.51957 0
M  V30 8455 H 815.115 1.34199 -3.56049 0
M  V30 8456 H 814.627 -0.459037 -3.85376 0
M  V30 8457 H 812.728 1.91709 -3.19497 0
M  V30 8458 H 812.841 0.812651 -4.72158 0
M  V30 8459 H 811.205 0.527071 -2.49187 0
M  V30 8460 H 811.988 -0.934056 -3.30349 0
M  V30 8461 N 814.433 1.57553 0.0384317 0
M  V30 8462 C 815.381 2.07021 1.06043 0
M  V30 8463 C 816.375 0.982078 1.38028 0
M  V30 8464 O 817.581 1.16702 1.37042 0
M  V30 8465 H 813.956 0.660522 0.359464 0
M  V30 8466 H 815.927 2.91944 0.617339 0
M  V30 8467 C 814.676 2.55734 2.35574 0
M  V30 8468 H 813.999 3.39074 2.11822 0
M  V30 8469 H 815.439 2.94066 3.05452 0
M  V30 8470 C 813.898 1.45449 3.03885 0
M  V30 8471 O 814.428 0.815402 3.93337 0
M  V30 8472 N 812.634 1.19134 2.65058 0
M  V30 8473 H 812.181 1.71288 1.92401 0
M  V30 8474 H 812.139 0.455554 3.11082 0
M  V30 8475 N 815.911 -0.310526 1.54511 0
M  V30 8476 C 817.159 -1.04484 1.72996 0
M  V30 8477 C 817.48 -1.88118 0.513479 0
M  V30 8478 O 816.75 -1.90119 -0.472384 0
M  V30 8479 H 815.33 -0.388747 0.637875 0
M  V30 8480 H 817.992 -0.343811 1.91844 0
M  V30 8481 H 817.088 -1.70341 2.61515 0
M  V30 8482 N 817.389 -1.46805 -0.573248 0
M  V30 8483 C 818.319 -1.60951 -1.69165 0
M  V30 8484 C 819.3 -0.45948 -1.63777 0
M  V30 8485 O 820.485 -0.68688 -1.81647 0
M  V30 8486 C 817.615 -1.60844 -3.07809 0
M  V30 8487 C 816.569 -2.74913 -3.28035 0
M  V30 8488 C 815.895 -2.59871 -4.67302 0
M  V30 8489 C 817.195 -4.16654 -3.14955 0
M  V30 8490 H 818.889 -2.54574 -1.57582 0
M  V30 8491 H 816.435 -1.22516 -0.756686 0
M  V30 8492 H 818.388 -1.69334 -3.85881 0
M  V30 8493 H 817.112 -0.637714 -3.20314 0
M  V30 8494 H 815.771 -2.65908 -2.52366 0
M  V30 8495 H 815.419 -1.60861 -4.76585 0
M  V30 8496 H 815.119 -3.36386 -4.81786 0
M  V30 8497 H 816.643 -2.70265 -5.4753 0
M  V30 8498 H 818.057 -4.26721 -3.82861 0
M  V30 8499 H 816.454 -4.93831 -3.40956 0
M  V30 8500 H 817.524 -4.36146 -2.11908 0
M  V30 8501 N 818.867 0.818669 -1.34668 0
M  V30 8502 C 819.83 1.9114 -1.26483 0
M  V30 8503 C 820.83 1.598 -0.179044 0
M  V30 8504 O 822.02 1.6876 -0.431952 0
M  V30 8505 C 819.152 3.27285 -0.95381 0
M  V30 8506 H 820.345 1.9982 -2.23634 0
M  V30 8507 H 817.898 1.01314 -1.19018 0
M  V30 8508 H 818.633 3.24297 0.0143428 0
M  V30 8509 H 818.418 3.51416 -1.73924 0
M  V30 8510 H 819.908 4.07299 -0.921827 0
M  V30 8511 N 820.346 1.18468 1.03938 0
M  V30 8512 C 821.278 0.870615 2.12021 0
M  V30 8513 C 822.291 -0.132318 1.62261 0
M  V30 8514 O 823.48 0.0956901 1.78243 0
M  V30 8515 C 820.58 0.279727 3.37744 0
M  V30 8516 C 819.753 1.32863 4.16733 0
M  V30 8517 C 818.812 0.753204 5.20781 0
M  V30 8518 O 817.838 1.42825 5.5099 0
M  V30 8519 N 819.04 -0.448664 5.78764 0
M  V30 8520 H 821.805 1.80091 2.39556 0
M  V30 8521 H 819.366 1.08524 1.20142 0
M  V30 8522 H 821.358 -0.118829 4.04526 0
M  V30 8523 H 819.928 -0.554621 3.07641 0
M  V30 8524 H 819.148 1.90245 3.45254 0
M  V30 8525 H 820.436 2.03574 4.66299 0
M  V30 8526 H 819.834 -1.01481 5.56523 0
M  V30 8527 H 818.391 -0.789125 6.47005 0
M  V30 8528 N 821.824 -1.22873 0.986916 0
M  V30 8529 C 823.071 -1.91462 0.659424 0
M  V30 8530 C 823.399 -1.76931 -0.807825 0
M  V30 8531 O 822.654 -1.12829 -1.59901 0
M  V30 8532 C 822.953 -3.43014 1.00379 0
M  V30 8533 C 822.619 -3.77731 2.46232 0
M  V30 8534 C 821.281 -3.86918 2.86091 0
M  V30 8535 C 823.633 -3.94343 3.40798 0
M  V30 8536 C 820.961 -4.10149 4.19518 0
M  V30 8537 C 823.313 -4.19076 4.73875 0
M  V30 8538 C 821.977 -4.26486 5.13484 0
M  V30 8539 H 821.247 -0.700611 0.2413 0
M  V30 8540 H 823.894 -1.45763 1.24199 0
M  V30 8541 H 822.199 -3.90329 0.339226 0
M  V30 8542 H 823.896 -3.94327 0.728518 0
M  V30 8543 H 820.486 -3.71159 2.14334 0
M  V30 8544 H 824.67 -3.86629 3.11178 0
M  V30 8545 H 819.926 -4.1411 4.49803 0
M  V30 8546 H 824.1 -4.30873 5.47102 0
M  V30 8547 H 821.727 -4.4424 6.16891 0
M  V30 8548 N 823.302 -0.75937 -1.38099 0
M  V30 8549 C 824.549 -0.318113 -1.99986 0
M  V30 8550 C 824.877 1.10184 -1.6028 0
M  V30 8551 O 824.132 1.77015 -0.834524 0
M  V30 8552 C 824.431 -0.394999 -3.55211 0
M  V30 8553 C 824.097 -1.77143 -4.14646 0
M  V30 8554 C 822.759 -2.14811 -4.30592 0
M  V30 8555 C 825.111 -2.67407 -4.47373 0
M  V30 8556 C 822.439 -3.42203 -4.76565 0
M  V30 8557 C 824.791 -3.94196 -4.94765 0
M  V30 8558 C 823.455 -4.31925 -5.08918 0
M  V30 8559 H 822.725 -0.116406 -0.7318 0
M  V30 8560 H 825.372 -0.97098 -1.65058 0
M  V30 8561 H 823.677 0.341426 -3.9031 0
M  V30 8562 H 825.374 -0.0350722 -4.00985 0
M  V30 8563 H 821.964 -1.46864 -4.02652 0
M  V30 8564 H 826.148 -2.39569 -4.3465 0
M  V30 8565 H 821.404 -3.71346 -4.85708 0
M  V30 8566 H 825.578 -4.64276 -5.19057 0
M  V30 8567 H 823.205 -5.30699 -5.443 0
M  V30 8568 N 824.78 1.49157 -0.508906 0
M  V30 8569 C 826.008 2.06879 0.0293734 0
M  V30 8570 C 826.423 1.36823 1.30095 0
M  V30 8571 O 825.78 0.449034 1.7689 0
M  V30 8572 C 825.831 3.60423 0.278791 0
M  V30 8573 O 825.552 4.27844 -0.942389 0
M  V30 8574 C 827.053 4.34881 0.859825 0
M  V30 8575 H 824.273 0.67057 -0.0240184 0
M  V30 8576 H 826.817 1.91834 -0.708526 0
M  V30 8577 H 824.972 3.75145 0.966689 0
M  V30 8578 H 825.386 5.19671 -0.710097 0
M  V30 8579 H 826.86 5.43161 0.983884 0
M  V30 8580 H 827.337 3.9789 1.85958 0
M  V30 8581 H 827.943 4.24785 0.209152 0
M  V30 8582 N 826.258 0.243083 1.55714 0
M  V30 8583 C 827.498 -0.384303 2.00755 0
M  V30 8584 C 827.862 -1.55406 1.12752 0
M  V30 8585 O 829.063 -2.24892 1.47231 0
M  V30 8586 C 827.334 -0.787419 3.48618 0
M  V30 8587 S 828.893 -1.40587 4.15669 0
M  V30 8588 H 825.711 -0.121088 0.700613 0
M  V30 8589 H 828.313 0.357423 1.92205 0
M  V30 8590 H 827.017 0.0732892 4.10335 0
M  V30 8591 H 826.548 -1.56142 3.61086 0
M  V30 8592 H 828.563 -2.69493 4.16639 0
M  V30 8593 N 827.736 -1.57571 -0.0300757 0
M  V30 8594 C 829.013 -1.80381 -0.756447 0
M  V30 8595 C 829.393 -0.840906 -1.93628 0
M  V30 8596 O 828.741 0.117143 -2.282 0
M  V30 8597 C 828.951 -3.2807 -1.19043 0
M  V30 8598 C 830.299 -3.93025 -1.60676 0
M  V30 8599 O 831.323 -3.32213 -1.28503 0
M  V30 8600 O 830.182 -5.00092 -2.20386 0
M  V30 8601 H 827.276 -0.741737 -0.365725 0
M  V30 8602 H 829.822 -1.69699 -0.00693177 0
M  V30 8603 H 828.594 -3.89748 -0.348128 0
M  V30 8604 H 828.217 -3.43637 -1.99999 0
M  V30 8605 N 829.214 0.302327 -1.54673 0
M  V30 8606 C 830.46 1.03532 -1.75079 0
M  V30 8607 C 830.815 1.84972 -0.52943 0
M  V30 8608 O 830.108 1.85537 0.478169 0
M  V30 8609 C 830.302 1.97365 -2.97963 0
M  V30 8610 C 830.131 1.25154 -4.31934 0
M  V30 8611 C 828.901 0.979243 -4.95721 0
M  V30 8612 C 831.099 0.656653 -5.10091 0
M  V30 8613 N 829.081 0.227265 -6.13479 0
M  V30 8614 C 830.452 0.0373759 -6.19989 0
M  V30 8615 C 832.507 0.561571 -4.94723 0
M  V30 8616 C 831.21 -0.667782 -7.16194 0
M  V30 8617 C 833.236 -0.12993 -5.91257 0
M  V30 8618 C 832.598 -0.738063 -7.00523 0
M  V30 8619 H 828.697 0.361824 -0.693258 0
M  V30 8620 H 831.281 0.314091 -1.9215 0
M  V30 8621 H 829.452 2.66739 -2.8232 0
M  V30 8622 H 831.184 2.63806 -3.06902 0
M  V30 8623 H 827.939 1.27706 -4.56057 0
M  V30 8624 H 828.363 -0.135199 -6.76865 0
M  V30 8625 H 833.005 1.01744 -4.10375 0
M  V30 8626 H 830.723 -1.13542 -8.00084 0
M  V30 8627 H 834.309 -0.203423 -5.81444 0
M  V30 8628 H 833.189 -1.26463 -7.73936 0
M  V30 8629 N 830.692 1.47107 0.565454 0
M  V30 8630 C 831.938 1.53535 1.32495 0
M  V30 8631 C 832.271 0.193537 1.93233 0
M  V30 8632 O 831.546 -0.796956 1.77423 0
M  V30 8633 C 831.829 2.64712 2.4413 0
M  V30 8634 C 831.682 4.08482 1.88314 0
M  V30 8635 C 833.001 2.71853 3.46098 0
M  V30 8636 H 830.12 0.558926 0.480386 0
M  V30 8637 H 832.762 1.79125 0.633575 0
M  V30 8638 H 830.912 2.43023 3.03104 0
M  V30 8639 H 832.584 4.4151 1.33665 0
M  V30 8640 H 830.827 4.17148 1.19037 0
M  V30 8641 H 831.498 4.82032 2.68978 0
M  V30 8642 H 833.974 2.91397 2.97031 0
M  V30 8643 H 832.85 3.51433 4.21646 0
M  V30 8644 H 833.111 1.78584 4.04426 0
M  V30 8645 N 832.17 -0.811516 1.35101 0
M  V30 8646 C 833.133 -1.90467 1.27495 0
M  V30 8647 C 834.133 -1.59703 0.187516 0
M  V30 8648 O 835.323 -1.68528 0.440896 0
M  V30 8649 C 832.455 -3.26774 0.971154 0
M  V30 8650 H 833.648 -1.98631 2.2469 0
M  V30 8651 H 831.201 -1.00681 1.19553 0
M  V30 8652 H 831.936 -3.243 0.0028557 0
M  V30 8653 H 831.721 -3.50488 1.75785 0
M  V30 8654 H 833.211 -4.06804 0.943414 0
M  V30 8655 N 833.648 -1.19017 -1.03309 0
M  V30 8656 C 835.059 -0.993206 -1.5809 0
M  V30 8657 C 835.41 0.45505 -1.9085 0
M  V30 8658 O 834.535 1.33372 -1.70414 0
M  V30 8659 C 835.13 -1.79661 -2.87241 0
M  V30 8660 C 833.689 -1.64377 -3.38611 0
M  V30 8661 C 832.836 -1.78628 -2.12102 0
M  V30 8662 H 835.787 -1.3345 -0.858879 0
M  V30 8663 H 835.808 -1.29019 -3.57958 0
M  V30 8664 H 835.32 -2.85061 -2.63366 0
M  V30 8665 H 833.421 -0.615447 -3.67482 0
M  V30 8666 H 833.534 -2.44651 -4.11926 0
M  V30 8667 H 831.898 -1.21648 -2.23772 0
M  V30 8668 H 832.681 -2.8548 -1.90673 0
M  V30 8669 N 835.127 1.22348 -0.993418 0
M  V30 8670 C 836.376 1.90422 -0.665019 0
M  V30 8671 C 836.689 1.78199 0.806512 0
M  V30 8672 O 837.895 2.41193 1.24652 0
M  V30 8673 C 836.351 3.41403 -1.13893 0
M  V30 8674 C 835.959 3.62262 -2.63572 0
M  V30 8675 C 837.703 4.15175 -0.884884 0
M  V30 8676 C 835.61 5.06947 -3.04564 0
M  V30 8677 H 834.54 0.713073 -0.245037 0
M  V30 8678 H 837.191 1.3856 -1.20305 0
M  V30 8679 H 835.573 3.9245 -0.529027 0
M  V30 8680 H 836.747 3.21705 -3.29913 0
M  V30 8681 H 835.062 3.01824 -2.86865 0
M  V30 8682 H 837.659 5.21813 -1.16684 0
M  V30 8683 H 838.002 4.15915 0.178982 0
M  V30 8684 H 838.535 3.70157 -1.45701 0
M  V30 8685 H 835.274 5.11346 -4.10128 0
M  V30 8686 H 834.794 5.48404 -2.42927 0
M  V30 8687 H 836.473 5.75374 -2.95894 0
M  V30 8688 N 836.605 0.766683 1.37694 0
M  V30 8689 C 837.882 0.25366 1.93948 0
M  V30 8690 C 838.262 -1.25041 1.70082 0
M  V30 8691 O 837.61 -2.03115 1.04674 0
M  V30 8692 C 837.82 0.621549 3.43421 0
M  V30 8693 C 839.168 0.588504 4.20502 0
M  V30 8694 O 840.192 0.560632 3.5176 0
M  V30 8695 O 839.051 0.61107 5.43073 0
M  V30 8696 H 836.145 0.0570586 0.825029 0
M  V30 8697 H 838.691 0.847693 1.47011 0
M  V30 8698 H 837.463 1.65979 3.54354 0
M  V30 8699 H 837.086 0.000197027 3.976 0
M  V30 8700 N 838.083 -1.48885 0.516809 0
M  V30 8701 C 839.03 -2.29408 -0.253125 0
M  V30 8702 C 840 -1.36533 -0.945935 0
M  V30 8703 O 841.185 -1.65495 -0.949527 0
M  V30 8704 C 838.325 -3.19592 -1.30211 0
M  V30 8705 C 837.438 -4.27535 -0.61948 0
M  V30 8706 C 836.573 -5.04916 -1.65026 0
M  V30 8707 C 835.612 -6.04677 -0.950368 0
M  V30 8708 N 834.749 -6.75164 -1.92608 0
M  V30 8709 H 839.589 -2.94738 0.439744 0
M  V30 8710 H 837.126 -1.45311 0.2287 0
M  V30 8711 H 839.084 -3.70267 -1.92245 0
M  V30 8712 H 837.714 -2.56213 -1.96353 0
M  V30 8713 H 836.766 -3.80228 0.114505 0
M  V30 8714 H 838.078 -4.98752 -0.0693016 0
M  V30 8715 H 837.232 -5.59539 -2.34523 0
M  V30 8716 H 835.971 -4.33508 -2.23432 0
M  V30 8717 H 834.976 -5.4927 -0.241252 0
M  V30 8718 H 836.201 -6.78077 -0.372599 0
M  V30 8719 H 834.147 -6.06517 -2.49946 0
M  V30 8720 H 834.064 -7.4241 -1.42699 0
M  V30 8721 H 835.332 -7.34384 -2.61345 0
M  V30 8722 N 839.561 -0.251338 -1.55583 0
M  V30 8723 C 840.491 0.640437 -2.24545 0
M  V30 8724 C 841.472 1.17781 -1.22726 0
M  V30 8725 O 842.657 1.21633 -1.5139 0
M  V30 8726 C 839.787 1.8355 -2.94834 0
M  V30 8727 C 838.741 1.4307 -4.03379 0
M  V30 8728 C 838.067 2.70695 -4.61116 0
M  V30 8729 C 839.367 0.59848 -5.1886 0
M  V30 8730 H 841.061 0.0653772 -2.99329 0
M  V30 8731 H 838.607 0.0300042 -1.43969 0
M  V30 8732 H 840.56 2.46505 -3.4178 0
M  V30 8733 H 839.284 2.43601 -2.17546 0
M  V30 8734 H 837.943 0.824474 -3.57209 0
M  V30 8735 H 837.591 3.28954 -3.80524 0
M  V30 8736 H 837.291 2.44332 -5.34393 0
M  V30 8737 H 838.815 3.34541 -5.10798 0
M  V30 8738 H 840.229 1.13244 -5.62004 0
M  V30 8739 H 838.626 0.430728 -5.98552 0
M  V30 8740 H 839.696 -0.38829 -4.83343 0
M  V30 8741 N 841.039 1.57585 0.0217189 0
M  V30 8742 C 842.267 1.93871 0.722619 0
M  V30 8743 C 842.682 0.851706 1.68498 0
M  V30 8744 O 842.039 -0.17127 1.81695 0
M  V30 8745 C 842.09 3.30114 1.47333 0
M  V30 8746 O 841.811 4.34639 0.549597 0
M  V30 8747 C 843.312 3.80727 2.27072 0
M  V30 8748 H 840.532 0.639671 0.202637 0
M  V30 8749 H 843.076 2.04487 -0.0229414 0
M  V30 8750 H 841.231 3.20872 2.17071 0
M  V30 8751 H 841.645 5.13326 1.07686 0
M  V30 8752 H 843.119 4.78547 2.75131 0
M  V30 8753 H 843.596 3.12301 3.08812 0
M  V30 8754 H 844.202 3.93075 1.62395 0
M  V30 8755 N 842.517 -0.29412 1.54831 0
M  V30 8756 C 843.794 -1.04847 1.65126 0
M  V30 8757 C 844.174 -2.04996 0.503986 0
M  V30 8758 O 843.522 -2.22996 -0.498496 0
M  V30 8759 C 843.732 -1.72418 3.03435 0
M  V30 8760 C 845.08 -2.24362 3.60481 0
M  V30 8761 O 846.104 -1.8244 3.05932 0
M  V30 8762 O 844.963 -3.01196 4.56008 0
M  V30 8763 H 842.057 -0.485032 0.669831 0
M  V30 8764 H 844.603 -0.291659 1.67175 0
M  V30 8765 H 843.375 -0.997351 3.78376 0
M  V30 8766 H 842.998 -2.54839 3.05193 0
M  V30 8767 N 843.995 -1.47404 -0.557645 0
M  V30 8768 C 844.905 -1.62491 -1.69216 0
M  V30 8769 C 845.921 -0.507764 -1.66426 0
M  V30 8770 O 847.097 -0.775241 -1.85882 0
M  V30 8771 C 844.162 -1.63511 -3.05721 0
M  V30 8772 C 843.223 -2.86648 -3.1958 0
M  V30 8773 C 842.456 -2.87609 -4.49574 0
M  V30 8774 O 842.679 -1.97799 -5.35006 0
M  V30 8775 O 841.613 -3.79465 -4.67215 0
M  V30 8776 H 845.439 -2.58487 -1.59431 0
M  V30 8777 H 843.024 -1.30485 -0.7276 0
M  V30 8778 H 844.906 -1.66863 -3.86956 0
M  V30 8779 H 843.581 -0.706812 -3.15889 0
M  V30 8780 H 842.488 -2.8884 -2.37744 0
M  V30 8781 H 843.821 -3.7877 -3.14316 0
M  V30 8782 N 845.473 0.80434 -1.35529 0
M  V30 8783 C 846.703 1.59052 -1.31856 0
M  V30 8784 C 847.111 1.88905 0.105549 0
M  V30 8785 O 846.454 1.49422 1.06858 0
M  V30 8786 C 846.516 2.94626 -2.06 0
M  V30 8787 C 846.18 2.87576 -3.55175 0
M  V30 8788 C 847.177 2.60856 -4.49722 0
M  V30 8789 C 844.862 3.06623 -3.97854 0
M  V30 8790 C 846.856 2.53262 -5.84925 0
M  V30 8791 C 844.543 2.98652 -5.33151 0
M  V30 8792 C 845.541 2.72007 -6.26499 0
M  V30 8793 O 845.229 2.64003 -7.59314 0
M  V30 8794 H 844.961 0.500486 -0.454411 0
M  V30 8795 H 847.515 1.0074 -1.78999 0
M  V30 8796 H 845.745 3.5493 -1.53498 0
M  V30 8797 H 847.434 3.55785 -1.95376 0
M  V30 8798 H 848.2 2.45858 -4.18066 0
M  V30 8799 H 844.079 3.26372 -3.2558 0
M  V30 8800 H 847.623 2.32386 -6.57756 0
M  V30 8801 H 843.52 3.13208 -5.64421 0
M  V30 8802 H 844.288 2.79595 -7.69265 0
M  V30 8803 N 846.951 1.19563 1.02676 0
M  V30 8804 C 848.362 1.00158 1.57561 0
M  V30 8805 C 848.713 -0.444922 1.91089 0
M  V30 8806 O 847.838 -1.32466 1.71119 0
M  V30 8807 C 848.433 1.81181 2.86284 0
M  V30 8808 C 846.992 1.66171 3.37734 0
M  V30 8809 C 846.139 1.7975 2.11152 0
M  V30 8810 H 849.09 1.33904 0.85179 0
M  V30 8811 H 849.111 1.30916 3.57269 0
M  V30 8812 H 848.623 2.86454 2.6185 0
M  V30 8813 H 846.724 0.634927 3.6715 0
M  V30 8814 H 846.837 2.46832 4.10622 0
M  V30 8815 H 845.201 1.22833 2.23123 0
M  V30 8816 H 845.984 2.86487 1.89157 0
M  V30 8817 N 848.429 -1.21819 0.999893 0
M  V30 8818 C 849.362 -2.22635 0.500887 0
M  V30 8819 C 850.34 -1.56459 -0.442636 0
M  V30 8820 O 851.524 -1.84902 -0.366551 0
M  V30 8821 C 848.651 -3.37598 -0.273046 0
M  V30 8822 C 847.697 -4.22006 0.617511 0
M  V30 8823 S 848.53 -4.93583 2.07693 0
M  V30 8824 C 849.686 -6.1198 1.31269 0
M  V30 8825 H 849.919 -2.64618 1.35516 0
M  V30 8826 H 847.452 -1.31606 0.807419 0
M  V30 8827 H 849.41 -4.04251 -0.713515 0
M  V30 8828 H 848.071 -2.94108 -1.10268 0
M  V30 8829 H 847.264 -5.03995 0.0216543 0
M  V30 8830 H 846.866 -3.6052 0.99504 0
M  V30 8831 H 849.158 -6.74979 0.583933 0
M  V30 8832 H 850.101 -6.75991 2.10811 0
M  V30 8833 H 850.509 -5.5847 0.822901 0
M  V30 8834 N 849.908 -0.773975 -1.37286 0
M  V30 8835 C 851.154 -0.339809 -1.99933 0
M  V30 8836 C 851.487 1.0815 -1.61299 0
M  V30 8837 O 850.762 1.74442 -0.860252 0
M  V30 8838 C 851.045 -0.485919 -3.56806 0
M  V30 8839 C 850.898 -1.9498 -4.05343 0
M  V30 8840 C 852.217 0.108461 -4.39966 0
M  V30 8841 H 849.336 -0.124944 -0.726332 0
M  V30 8842 H 851.978 -0.977433 -1.6293 0
M  V30 8843 H 850.128 0.0569023 -3.88458 0
M  V30 8844 H 851.8 -2.5525 -3.84246 0
M  V30 8845 H 850.043 -2.45784 -3.57453 0
M  V30 8846 H 850.714 -2.00308 -5.14374 0
M  V30 8847 H 853.19 -0.354722 -4.14585 0
M  V30 8848 H 852.066 -0.0238926 -5.48895 0
M  V30 8849 H 852.327 1.19901 -4.25531 0
M  V30 8850 N 851.386 1.48609 -0.524698 0
M  V30 8851 C 852.316 2.32366 0.229837 0
M  V30 8852 C 853.297 1.41759 0.940129 0
M  V30 8853 O 854.482 1.7065 0.926936 0
M  V30 8854 C 851.612 3.22835 1.28043 0
M  V30 8855 C 850.566 4.22424 0.688603 0
M  V30 8856 C 849.892 5.0199 1.84146 0
M  V30 8857 C 851.192 5.21217 -0.336176 0
M  V30 8858 H 852.886 2.95698 -0.469339 0
M  V30 8859 H 850.432 1.42197 -0.227156 0
M  V30 8860 H 852.385 3.80253 1.8162 0
M  V30 8861 H 851.109 2.57492 2.00912 0
M  V30 8862 H 849.768 3.66185 0.174402 0
M  V30 8863 H 849.416 4.33076 2.5584 0
M  V30 8864 H 849.116 5.69392 1.45142 0
M  V30 8865 H 850.64 5.62259 2.38111 0
M  V30 8866 H 852.054 5.7319 0.112307 0
M  V30 8867 H 850.451 5.96642 -0.643324 0
M  V30 8868 H 851.521 4.68676 -1.24381 0
M  V30 8869 N 852.864 0.259585 1.55447 0
M  V30 8870 C 854.089 -0.368317 2.04103 0
M  V30 8871 C 854.514 -1.49827 1.13725 0
M  V30 8872 O 853.872 -1.80814 0.132705 0
M  V30 8873 C 853.92 -0.841506 3.50644 0
M  V30 8874 O 853.024 -1.95008 3.63381 0
M  V30 8875 H 852.365 -0.0785227 0.659341 0
M  V30 8876 H 854.895 0.389349 2.00861 0
M  V30 8877 H 854.905 -1.14138 3.9171 0
M  V30 8878 H 853.58 -0.0147001 4.15897 0
M  V30 8879 H 852.157 -1.65393 3.34215 0
M  V30 8880 N 854.342 -1.57594 -0.0133615 0
M  V30 8881 C 855.57 -1.94251 -0.712328 0
M  V30 8882 C 855.985 -0.86063 -1.68043 0
M  V30 8883 O 855.342 0.161632 -1.81783 0
M  V30 8884 C 855.393 -3.30891 -1.45581 0
M  V30 8885 O 855.114 -4.34924 -0.526539 0
M  V30 8886 C 856.615 -3.81926 -2.2505 0
M  V30 8887 H 853.835 -0.640737 -0.199241 0
M  V30 8888 H 856.379 -2.04472 0.0337855 0
M  V30 8889 H 854.534 -3.22019 -2.15366 0
M  V30 8890 H 854.948 -5.1389 -1.04962 0
M  V30 8891 H 856.422 -4.79999 -2.72589 0
M  V30 8892 H 856.899 -3.13934 -3.07152 0
M  V30 8893 H 857.505 -3.93931 -1.60308 0
M  V30 8894 N 855.82 0.285905 -1.54985 0
M  V30 8895 C 857.066 1.02071 -1.75241 0
M  V30 8896 C 857.399 1.864 -0.544842 0
M  V30 8897 O 856.674 1.89034 0.457844 0
M  V30 8898 C 856.957 1.91409 -3.05016 0
M  V30 8899 C 856.81 1.10158 -4.36102 0
M  V30 8900 C 858.129 2.90335 -3.30747 0
M  V30 8901 H 855.248 0.369663 -0.637588 0
M  V30 8902 H 857.89 0.294114 -1.8771 0
M  V30 8903 H 856.04 2.53362 -2.94517 0
M  V30 8904 H 857.712 0.503756 -4.58541 0
M  V30 8905 H 855.955 0.404675 -4.31908 0
M  V30 8906 H 856.626 1.75956 -5.23205 0
M  V30 8907 H 859.102 2.38514 -3.40955 0
M  V30 8908 H 857.978 3.49997 -4.2284 0
M  V30 8909 H 858.239 3.64787 -2.49765 0
M  V30 8910 N 857.298 1.47698 0.54982 0
M  V30 8911 C 858.714 1.3338 0.876468 0
M  V30 8912 C 858.914 0.329837 1.98782 0
M  V30 8913 O 857.97 -0.256022 2.51199 0
M  V30 8914 C 859.283 2.72903 1.26272 0
M  V30 8915 C 860.831 2.81243 1.37373 0
M  V30 8916 C 861.306 4.21423 1.79351 0
M  V30 8917 N 862.797 4.24 1.86489 0
M  V30 8918 C 863.532 5.29386 2.20313 0
M  V30 8919 N 863.028 6.4507 2.527 0
M  V30 8920 N 864.821 5.16768 2.2115 0
M  V30 8921 H 856.972 2.11603 -0.183781 0
M  V30 8922 H 859.235 0.947798 -0.0195601 0
M  V30 8923 H 858.941 3.47836 0.519889 0
M  V30 8924 H 858.815 3.05151 2.21727 0
M  V30 8925 H 861.202 2.06577 2.10737 0
M  V30 8926 H 861.283 2.52639 0.400882 0
M  V30 8927 H 860.927 4.96597 1.06555 0
M  V30 8928 H 860.857 4.47456 2.77652 0
M  V30 8929 H 863.348 3.40547 1.63817 0
M  V30 8930 H 863.661 7.21236 2.77557 0
M  V30 8931 H 862.006 6.48377 2.50263 0
M  V30 8932 H 865.197 4.25416 1.95293 0
M  V30 8933 H 865.37 5.99004 2.4718 0
M  V30 8934 N 858.776 -0.797141 1.35954 0
M  V30 8935 C 859.686 -1.94088 1.31784 0
M  V30 8936 C 860.702 -1.72588 0.221227 0
M  V30 8937 O 861.878 -1.96256 0.452255 0
M  V30 8938 C 858.943 -3.28828 1.09878 0
M  V30 8939 C 858.004 -3.63158 2.28942 0
M  V30 8940 C 857.237 -4.91469 2.08072 0
M  V30 8941 O 857.46 -5.60616 1.05196 0
M  V30 8942 O 856.394 -5.24277 2.95664 0
M  V30 8943 H 860.22 -2.00554 2.28061 0
M  V30 8944 H 857.805 -0.936288 1.16422 0
M  V30 8945 H 859.687 -4.09473 0.995485 0
M  V30 8946 H 858.362 -3.23271 0.16659 0
M  V30 8947 H 857.269 -2.82851 2.44839 0
M  V30 8948 H 858.602 -3.7343 3.20641 0
M  V30 8949 N 860.254 -1.20106 -1.0204 0
M  V30 8950 C 861.5 -1.01039 -1.75838 0
M  V30 8951 C 861.833 0.456819 -1.88751 0
M  V30 8952 O 861.108 1.33919 -1.41053 0
M  V30 8953 C 861.391 -1.69009 -3.17975 0
M  V30 8954 C 861.244 -3.2315 -3.1288 0
M  V30 8955 C 862.563 -1.42005 -4.16561 0
M  V30 8956 H 859.682 -0.368465 -0.638281 0
M  V30 8957 H 862.324 -1.48066 -1.19064 0
M  V30 8958 H 860.474 -1.29026 -3.66449 0
M  V30 8959 H 862.146 -3.72402 -2.72239 0
M  V30 8960 H 860.389 -3.54253 -2.50374 0
M  V30 8961 H 861.06 -3.65862 -4.13339 0
M  V30 8962 H 863.536 -1.76685 -3.76725 0
M  V30 8963 H 862.412 -1.92101 -5.14187 0
M  V30 8964 H 862.673 -0.346884 -4.40737 0
M  V30 8965 N 861.732 1.21287 -1.00634 0
M  V30 8966 C 862.98 1.90013 -0.688438 0
M  V30 8967 C 863.301 1.78573 0.783365 0
M  V30 8968 O 862.571 1.1815 1.56261 0
M  V30 8969 H 861.151 0.703336 -0.251648 0
M  V30 8970 H 863.813 1.47346 -1.27574 0
M  V30 8971 H 862.909 2.96879 -0.962781 0
M  V30 8972 N 863.21 0.781244 1.36873 0
M  V30 8973 C 864.16 0.147313 2.27524 0
M  V30 8974 C 865.144 -0.663928 1.46563 0
M  V30 8975 O 866.336 -0.525343 1.69024 0
M  V30 8976 C 863.465 -0.723511 3.35589 0
M  V30 8977 C 862.551 0.0960763 4.23991 0
M  V30 8978 N 862.942 1.14649 4.92635 0
M  V30 8979 C 861.24 -0.126397 4.45821 0
M  V30 8980 C 861.941 1.64474 5.57964 0
M  V30 8981 N 860.917 0.955316 5.3514 0
M  V30 8982 H 864.719 0.951406 2.78075 0
M  V30 8983 H 862.233 0.619913 1.50103 0
M  V30 8984 H 864.23 -1.19351 3.99451 0
M  V30 8985 H 862.89 -1.52624 2.86594 0
M  V30 8986 H 863.901 1.5288 4.94821 0
M  V30 8987 H 860.578 -0.900284 4.07678 0
M  V30 8988 H 861.968 2.52124 6.22803 0
M  V30 8989 N 864.689 -1.48329 0.532571 0
M  V30 8990 C 865.919 -2.066 0.00353785 0
M  V30 8991 C 866.327 -1.38913 -1.28451 0
M  V30 8992 O 865.67 -0.471385 -1.77549 0
M  V30 8993 C 865.732 -3.58342 -0.288324 0
M  V30 8994 C 865.396 -4.47917 0.906631 0
M  V30 8995 C 866.393 -4.87534 1.80572 0
M  V30 8996 C 864.078 -4.89783 1.11436 0
M  V30 8997 C 866.072 -5.6779 2.89642 0
M  V30 8998 C 863.759 -5.69809 2.20819 0
M  V30 8999 C 864.757 -6.08721 3.09755 0
M  V30 9000 O 864.445 -6.8714 4.17246 0
M  V30 9001 H 864.177 -0.675263 0.0315661 0
M  V30 9002 H 866.731 -1.91669 0.738375 0
M  V30 9003 H 864.961 -3.71395 -1.07717 0
M  V30 9004 H 866.65 -3.98726 -0.759752 0
M  V30 9005 H 867.416 -4.5581 1.65719 0
M  V30 9006 H 863.295 -4.58977 0.431382 0
M  V30 9007 H 866.839 -5.98082 3.59087 0
M  V30 9008 H 862.736 -6.00947 2.35655 0
M  V30 9009 H 863.504 -7.05498 4.14988 0
M  V30 9010 N 866.167 -0.267825 -1.55308 0
M  V30 9011 C 867.392 0.357487 -2.04296 0
M  V30 9012 C 867.817 1.49222 -1.14518 0
M  V30 9013 O 867.175 1.80741 -0.142292 0
M  V30 9014 C 867.223 0.822899 -3.51085 0
M  V30 9015 O 866.327 1.93078 -3.6441 0
M  V30 9016 H 865.668 0.075025 -0.659748 0
M  V30 9017 H 868.198 -0.399996 -2.00652 0
M  V30 9018 H 868.208 1.12059 -3.92309 0
M  V30 9019 H 866.883 -0.0073562 -4.15899 0
M  V30 9020 H 865.46 1.63618 -3.35087 0
M  V30 9021 N 867.645 1.57599 0.00500368 0
M  V30 9022 C 868.885 1.92205 0.695456 0
M  V30 9023 C 869.249 0.868894 1.71214 0
M  V30 9024 O 870.45 1.10004 2.4526 0
M  V30 9025 C 868.721 3.31882 1.32625 0
M  V30 9026 S 870.28 3.88364 2.04252 0
M  V30 9027 H 867.098 0.672826 0.22984 0
M  V30 9028 H 869.7 1.95435 -0.0504824 0
M  V30 9029 H 868.404 4.06375 0.573396 0
M  V30 9030 H 867.935 3.32013 2.11023 0
M  V30 9031 H 869.95 3.69035 3.31704 0
M  V30 9032 N 869.123 -0.277682 1.55134 0
M  V30 9033 C 870.539 -0.624625 1.46869 0
M  V30 9034 C 870.739 -1.89717 0.678958 0
M  V30 9035 O 869.795 -2.51739 0.195939 0
M  V30 9036 C 871.108 -0.755937 2.91043 0
M  V30 9037 C 872.656 -0.850299 3.01229 0
M  V30 9038 C 873.131 -1.01343 4.46647 0
M  V30 9039 N 874.622 -1.07906 4.50456 0
M  V30 9040 C 875.357 -1.224 5.60184 0
M  V30 9041 N 874.853 -1.33642 6.79788 0
M  V30 9042 N 876.646 -1.25473 5.47917 0
M  V30 9043 H 868.797 0.558102 2.04937 0
M  V30 9044 H 871.06 0.188228 0.929125 0
M  V30 9045 H 870.766 0.108593 3.51532 0
M  V30 9046 H 870.64 -1.6377 3.39793 0
M  V30 9047 H 873.027 -1.7053 2.40839 0
M  V30 9048 H 873.108 0.0559681 2.55739 0
M  V30 9049 H 872.752 -0.163102 5.07638 0
M  V30 9050 H 872.682 -1.93427 4.89789 0
M  V30 9051 H 875.173 -1.00477 3.64298 0
M  V30 9052 H 875.486 -1.44522 7.59166 0
M  V30 9053 H 873.831 -1.30655 6.82608 0
M  V30 9054 H 877.022 -1.16317 4.53418 0
M  V30 9055 H 877.195 -1.36424 6.33476 0
M  V30 9056 N 870.601 -1.47988 -0.541979 0
M  V30 9057 C 871.826 -1.59286 -1.32826 0
M  V30 9058 C 872.251 -0.24894 -1.86445 0
M  V30 9059 O 871.609 0.777581 -1.63778 0
M  V30 9060 C 871.657 -2.6334 -2.46343 0
M  V30 9061 O 870.761 -2.19667 -3.49028 0
M  V30 9062 H 870.102 -0.534543 -0.393903 0
M  V30 9063 H 872.632 -1.93885 -0.653427 0
M  V30 9064 H 872.642 -2.84238 -2.92699 0
M  V30 9065 H 871.317 -3.60913 -2.06675 0
M  V30 9066 H 869.894 -2.08932 -3.08872 0
M  V30 9067 N 872.079 0.78992 -1.36375 0
M  V30 9068 C 873.012 1.90907 -1.25019 0
M  V30 9069 C 873.99 1.62043 -0.134463 0
M  V30 9070 O 875.174 1.86008 -0.305506 0
M  V30 9071 C 872.301 3.25716 -0.928822 0
M  V30 9072 C 871.347 3.73511 -2.05892 0
M  V30 9073 S 872.18 3.89332 -3.6767 0
M  V30 9074 C 873.336 5.27017 -3.37645 0
M  V30 9075 H 873.569 2.00247 -2.19746 0
M  V30 9076 H 871.102 0.949097 -1.21785 0
M  V30 9077 H 873.06 4.03586 -0.750219 0
M  V30 9078 H 871.721 3.141 0.000658424 0
M  V30 9079 H 870.914 4.71195 -1.78862 0
M  V30 9080 H 870.516 3.02688 -2.19672 0
M  V30 9081 H 872.808 6.1158 -2.91507 0
M  V30 9082 H 873.751 5.5905 -4.3459 0
M  V30 9083 H 874.159 4.94093 -2.73006 0
M  V30 9084 N 873.557 1.20646 1.01402 0
M  V30 9085 C 874.785 1.04389 1.78635 0
M  V30 9086 C 875.2 -0.406771 1.84366 0
M  V30 9087 O 874.557 -1.28239 1.2985 0
M  V30 9088 C 874.608 1.62378 3.22979 0
M  V30 9089 O 874.329 3.01768 3.17597 0
M  V30 9090 C 875.83 1.5111 4.1675 0
M  V30 9091 H 873.05 0.367077 0.56169 0
M  V30 9092 H 875.594 1.59789 1.27624 0
M  V30 9093 H 873.749 1.11092 3.7113 0
M  V30 9094 H 874.163 3.29331 4.08217 0
M  V30 9095 H 875.637 1.96441 5.15863 0
M  V30 9096 H 876.114 0.464011 4.36742 0
M  V30 9097 H 876.72 2.01599 3.74483 0
M  V30 9098 N 875.035 -1.20752 1.01276 0
M  V30 9099 C 876.283 -1.89645 0.698505 0
M  V30 9100 C 876.604 -1.78986 -0.773883 0
M  V30 9101 O 875.874 -1.18977 -1.55632 0
M  V30 9102 H 874.454 -0.701992 0.255375 0
M  V30 9103 H 877.116 -1.46668 1.28353 0
M  V30 9104 H 876.212 -2.96364 0.978512 0
M  V30 9105 N 876.513 -0.788492 -1.36457 0
M  V30 9106 C 877.461 -0.174192 -2.31947 0
M  V30 9107 C 878.455 0.665974 -1.5576 0
M  V30 9108 O 879.661 0.561161 -1.71029 0
M  V30 9109 H 876.036 -0.0375538 -0.751062 0
M  V30 9110 H 878.007 -0.995011 -2.81322 0
M  V30 9111 C 876.756 0.677276 -3.4104 0
M  V30 9112 H 876.079 0.0401418 -3.9978 0
M  V30 9113 H 877.519 1.07379 -4.10178 0
M  V30 9114 C 875.978 1.83512 -2.82533 0
M  V30 9115 O 876.508 2.93164 -2.74623 0
M  V30 9116 N 874.714 1.64095 -2.39836 0
M  V30 9117 H 874.261 0.749046 -2.46469 0
M  V30 9118 H 874.219 2.41726 -2.01037 0
M  V30 9119 N 877.991 1.48044 -0.54043 0
M  V30 9120 C 879.231 2.04396 -0.012296 0
M  V30 9121 C 879.595 1.40748 1.30591 0
M  V30 9122 O 880.796 1.88048 1.92072 0
M  V30 9123 C 879.067 3.5727 0.0964302 0
M  V30 9124 S 880.626 4.35041 0.573117 0
M  V30 9125 H 877.444 0.710795 -0.0170735 0
M  V30 9126 H 880.046 1.81625 -0.723362 0
M  V30 9127 H 878.75 4.01124 -0.86762 0
M  V30 9128 H 878.281 3.84511 0.83156 0
M  V30 9129 H 880.296 4.6099 1.83583 0
M  V30 9130 N 879.47 0.276058 1.55163 0
M  V30 9131 C 880.433 -0.597924 2.21263 0
M  V30 9132 C 881.433 -1.0806 1.19078 0
M  V30 9133 O 882.623 -0.980626 1.43977 0
M  V30 9134 C 879.755 -1.82503 2.87933 0
M  V30 9135 H 880.948 -0.0207769 2.99893 0
M  V30 9136 H 878.501 0.0266823 1.56277 0
M  V30 9137 H 879.236 -2.44266 2.13318 0
M  V30 9138 H 879.021 -1.48683 3.62816 0
M  V30 9139 H 880.511 -2.44651 3.38431 0
M  V30 9140 N 880.948 -1.576 0.00335426 0
M  V30 9141 C 881.911 -2.07576 -0.971838 0
M  V30 9142 C 882.911 -0.985796 -1.27038 0
M  V30 9143 O 884.101 -1.24833 -1.21501 0
M  V30 9144 C 881.233 -2.52003 -2.29581 0
M  V30 9145 H 882.426 -2.95008 -0.539481 0
M  V30 9146 H 879.979 -1.54381 -0.244186 0
M  V30 9147 H 880.714 -1.67825 -2.77498 0
M  V30 9148 H 880.499 -3.31609 -2.09231 0
M  V30 9149 H 881.989 -2.90983 -2.99531 0
M  V30 9150 N 882.426 0.269451 -1.5528 0
M  V30 9151 C 883.356 1.33729 -1.91413 0
M  V30 9152 C 884.337 1.51348 -0.776391 0
M  V30 9153 O 885.522 1.64332 -1.03482 0
M  V30 9154 C 882.652 2.69618 -2.18914 0
M  V30 9155 C 881.606 2.66725 -3.34726 0
M  V30 9156 C 880.932 4.06199 -3.47716 0
M  V30 9157 C 882.232 2.25684 -4.71025 0
M  V30 9158 H 883.926 1.03736 -2.80854 0
M  V30 9159 H 881.472 0.497579 -1.3513 0
M  V30 9160 H 883.425 3.44436 -2.42779 0
M  V30 9161 H 882.149 3.01201 -1.26275 0
M  V30 9162 H 880.808 1.94365 -3.10834 0
M  V30 9163 H 880.456 4.3501 -2.52537 0
M  V30 9164 H 880.156 4.05157 -4.25583 0
M  V30 9165 H 881.68 4.8275 -3.73877 0
M  V30 9166 H 883.094 2.90225 -4.94411 0
M  V30 9167 H 881.491 2.35797 -5.51833 0
M  V30 9168 H 882.561 1.20819 -4.69607 0
M  V30 9169 N 883.904 1.48273 0.534124 0
M  V30 9170 C 884.867 1.6201 1.62127 0
M  V30 9171 C 885.867 0.493653 1.53035 0
M  V30 9172 O 887.057 0.759337 1.56779 0
M  V30 9173 C 884.189 1.5864 3.01739 0
M  V30 9174 H 885.382 2.58944 1.51288 0
M  V30 9175 H 882.935 1.36808 0.755861 0
M  V30 9176 H 883.67 0.631685 3.18088 0
M  V30 9177 H 883.455 2.40415 3.09747 0
M  V30 9178 H 884.945 1.71438 3.80787 0
M  V30 9179 N 885.382 -0.782676 1.36792 0
M  V30 9180 C 886.345 -1.8772 1.31507 0
M  V30 9181 C 887.345 -1.59269 0.221349 0
M  V30 9182 O 888.535 -1.67555 0.476544 0
M  V30 9183 C 885.667 -3.24641 1.04025 0
M  V30 9184 H 886.86 -1.9382 2.28853 0
M  V30 9185 H 884.413 -0.981226 1.21662 0
M  V30 9186 H 885.148 -3.24221 0.0716439 0
M  V30 9187 H 884.933 -3.46681 1.8318 0
M  V30 9188 H 886.423 -4.04711 1.02949 0
M  V30 9189 N 886.86 -1.21182 -1.00761 0
M  V30 9190 C 887.79 -0.992773 -2.11344 0
M  V30 9191 C 888.771 0.0813618 -1.69905 0
M  V30 9192 O 889.956 -0.0779503 -1.94043 0
M  V30 9193 C 887.086 -0.553826 -3.42856 0
M  V30 9194 C 886.04 -1.57223 -3.98077 0
M  V30 9195 C 885.366 -0.989605 -5.25463 0
M  V30 9196 C 886.666 -2.95839 -4.30438 0
M  V30 9197 H 888.36 -1.91766 -2.29927 0
M  V30 9198 H 885.906 -0.923426 -1.10494 0
M  V30 9199 H 887.859 -0.387771 -4.19612 0
M  V30 9200 H 886.583 0.406702 -3.24058 0
M  V30 9201 H 885.242 -1.7258 -3.23437 0
M  V30 9202 H 884.89 -0.0208743 -5.02996 0
M  V30 9203 H 884.59 -1.66984 -5.63374 0
M  V30 9204 H 886.114 -0.834815 -6.04866 0
M  V30 9205 H 887.528 -2.8394 -4.98047 0
M  V30 9206 H 885.925 -3.60851 -4.79486 0
M  V30 9207 H 886.995 -3.46882 -3.38823 0
M  V30 9208 N 888.338 1.20213 -1.01915 0
M  V30 9209 C 889.301 2.21307 -0.596327 0
M  V30 9210 C 890.301 1.57274 0.334879 0
M  V30 9211 O 891.491 1.73764 0.12322 0
M  V30 9212 C 888.623 3.40657 0.128808 0
M  V30 9213 H 889.816 2.60228 -1.49068 0
M  V30 9214 H 887.369 1.33721 -0.809226 0
M  V30 9215 H 888.104 3.07241 1.03796 0
M  V30 9216 H 887.889 3.88361 -0.540183 0
M  V30 9217 H 889.379 4.15564 0.411892 0
M  V30 9218 N 889.816 0.795718 1.36037 0
M  V30 9219 C 891.093 0.294743 1.93367 0
M  V30 9220 C 891.473 -1.21406 1.72696 0
M  V30 9221 O 890.821 -2.00849 1.08959 0
M  V30 9222 C 891.031 0.694254 3.42025 0
M  V30 9223 C 892.379 0.677566 4.19159 0
M  V30 9224 O 893.403 0.635119 3.50492 0
M  V30 9225 O 892.262 0.726127 5.41655 0
M  V30 9226 H 889.356 0.0745459 0.823633 0
M  V30 9227 H 891.902 0.878685 1.4518 0
M  V30 9228 H 890.674 1.73458 3.50753 0
M  V30 9229 H 890.297 0.0845338 3.9751 0
M  V30 9230 N 891.294 -1.47756 0.548274 0
M  V30 9231 C 892.204 -2.33678 -0.207773 0
M  V30 9232 C 893.22 -1.47636 -0.920843 0
M  V30 9233 O 894.396 -1.80583 -0.89173 0
M  V30 9234 C 891.461 -3.24147 -1.23003 0
M  V30 9235 C 890.522 -4.26073 -0.52535 0
M  V30 9236 C 889.755 -5.12219 -1.4989 0
M  V30 9237 O 889.978 -5.0066 -2.73305 0
M  V30 9238 O 888.912 -5.93051 -1.02828 0
M  V30 9239 H 892.738 -2.99609 0.496794 0
M  V30 9240 H 890.323 -1.4617 0.308982 0
M  V30 9241 H 892.205 -3.80055 -1.82034 0
M  V30 9242 H 890.88 -2.60855 -1.91668 0
M  V30 9243 H 889.787 -3.7395 0.105927 0
M  V30 9244 H 891.12 -4.92054 0.119686 0
M  V30 9245 N 892.772 -0.284283 -1.55015 0
M  V30 9246 C 894.183 0.211681 -1.85496 0
M  V30 9247 C 894.534 1.54735 -1.2063 0
M  V30 9248 O 893.659 2.10594 -0.497918 0
M  V30 9249 C 894.254 0.390864 -3.36538 0
M  V30 9250 C 892.813 0.831055 -3.67111 0
M  V30 9251 C 891.96 -0.0703581 -2.77211 0
M  V30 9252 H 894.911 -0.505803 -1.50424 0
M  V30 9253 H 894.932 1.22803 -3.60138 0
M  V30 9254 H 894.444 -0.581409 -3.8372 0
M  V30 9255 H 892.545 1.81447 -3.25434 0
M  V30 9256 H 892.658 0.662026 -4.74504 0
M  V30 9257 H 891.022 0.447528 -2.50737 0
M  V30 9258 H 891.805 -1.03868 -3.2721 0
M  V30 9259 N 894.251 1.57596 -0.0117121 0
M  V30 9260 C 895.499 1.90694 0.669342 0
M  V30 9261 C 895.82 0.886999 1.73659 0
M  V30 9262 O 895.09 -0.0739779 1.9576 0
M  V30 9263 H 893.67 0.703846 0.250219 0
M  V30 9264 H 896.332 1.94821 -0.0554057 0
M  V30 9265 H 895.428 2.90802 1.13316 0
M  V30 9266 N 895.729 -0.261212 1.5542 0
M  V30 9267 C 896.959 -1.00769 1.80358 0
M  V30 9268 C 897.367 -1.79991 0.583085 0
M  V30 9269 O 896.71 -1.77911 -0.457534 0
M  V30 9270 C 896.772 -2.00463 2.9842 0
M  V30 9271 C 896.436 -1.4007 4.35005 0
M  V30 9272 C 897.433 -0.810388 5.13545 0
M  V30 9273 C 895.118 -1.42436 4.81682 0
M  V30 9274 C 897.112 -0.251784 6.36903 0
M  V30 9275 C 894.799 -0.861897 6.04991 0
M  V30 9276 C 895.797 -0.276622 6.8244 0
M  V30 9277 O 895.485 0.277194 8.03422 0
M  V30 9278 H 895.217 -0.302839 0.604371 0
M  V30 9279 H 897.771 -0.293763 2.03288 0
M  V30 9280 H 896.001 -2.75648 2.71211 0
M  V30 9281 H 897.69 -2.61336 3.10577 0
M  V30 9282 H 898.456 -0.784719 4.7861 0
M  V30 9283 H 894.335 -1.8693 4.214 0
M  V30 9284 H 897.879 0.205678 6.97297 0
M  V30 9285 H 893.776 -0.884846 6.39407 0
M  V30 9286 H 894.544 0.167682 8.18328 0
M  V30 9287 N 897.207 -1.48554 -0.526253 0
M  V30 9288 C 898.17 -1.62868 -1.61266 0
M  V30 9289 C 899.17 -0.501762 -1.52771 0
M  V30 9290 O 900.36 -0.76764 -1.56374 0
M  V30 9291 C 897.492 -1.60238 -3.00893 0
M  V30 9292 H 898.685 -2.59742 -1.49913 0
M  V30 9293 H 896.238 -1.37207 -0.748595 0
M  V30 9294 H 896.973 -0.648545 -3.17749 0
M  V30 9295 H 896.758 -2.42054 -3.08468 0
M  V30 9296 H 898.248 -1.73455 -3.79872 0
M  V30 9297 N 898.685 0.775411 -1.37205 0
M  V30 9298 C 899.617 1.89761 -1.28544 0
M  V30 9299 C 900.63 1.61542 -0.201996 0
M  V30 9300 O 901.819 1.72528 -0.457848 0
M  V30 9301 C 898.919 3.24904 -0.963885 0
M  V30 9302 C 898.092 3.80796 -2.15205 0
M  V30 9303 C 897.151 4.94407 -1.80135 0
M  V30 9304 O 896.177 5.10185 -2.52388 0
M  V30 9305 N 897.379 5.75722 -0.743298 0
M  V30 9306 H 900.144 1.97708 -2.25237 0
M  V30 9307 H 897.705 0.954348 -1.30782 0
M  V30 9308 H 899.697 3.9842 -0.710182 0
M  V30 9309 H 898.267 3.12483 -0.085632 0
M  V30 9310 H 897.487 2.99101 -2.56773 0
M  V30 9311 H 898.775 4.1487 -2.94552 0
M  V30 9312 H 898.173 5.65518 -0.143655 0
M  V30 9313 H 896.73 6.4948 -0.549446 0
M  V30 9314 N 900.163 1.21714 1.00117 0
M  V30 9315 C 901.412 1.03087 1.73367 0
M  V30 9316 C 901.725 -0.435532 1.90689 0
M  V30 9317 O 902.931 -0.741291 2.61184 0
M  V30 9318 C 901.387 1.79593 3.11888 0
M  V30 9319 C 900.995 3.30428 3.02525 0
M  V30 9320 C 902.739 1.69386 3.89241 0
M  V30 9321 C 900.646 3.99408 4.3615 0
M  V30 9322 H 899.576 0.382117 0.650002 0
M  V30 9323 H 902.227 1.45486 1.11831 0
M  V30 9324 H 900.609 1.29988 3.74058 0
M  V30 9325 H 901.783 3.87364 2.49571 0
M  V30 9326 H 900.098 3.4122 2.38659 0
M  V30 9327 H 902.695 2.18251 4.8813 0
M  V30 9328 H 903.038 0.652773 4.1115 0
M  V30 9329 H 903.571 2.16489 3.33733 0
M  V30 9330 H 900.31 5.03735 4.19442 0
M  V30 9331 H 899.83 3.47261 4.8905 0
M  V30 9332 H 901.509 4.04537 5.04934 0
M  V30 9333 N 901.641 -1.19671 1.02551 0
M  V30 9334 C 902.589 -2.24812 0.596867 0
M  V30 9335 C 903.583 -1.65336 -0.368839 0
M  V30 9336 O 904.789 -1.78422 -0.237786 0
M  V30 9337 H 901.164 -0.731417 0.174739 0
M  V30 9338 H 903.135 -2.58286 1.49435 0
M  V30 9339 C 901.884 -3.47677 -0.0399514 0
M  V30 9340 H 901.207 -3.93728 0.694153 0
M  V30 9341 H 902.647 -4.22917 -0.302861 0
M  V30 9342 C 901.106 -3.11411 -1.2855 0
M  V30 9343 O 901.636 -3.23757 -2.37791 0
M  V30 9344 N 899.842 -2.65875 -1.17297 0
M  V30 9345 H 899.389 -2.56029 -0.284045 0
M  V30 9346 H 899.347 -2.41981 -2.00731 0
M  V30 9347 N 903.119 -0.802921 -1.35613 0
M  V30 9348 C 904.347 -0.39393 -2.03115 0
M  V30 9349 C 904.762 0.993961 -1.60517 0
M  V30 9350 O 904.119 1.63984 -0.800973 0
M  V30 9351 C 904.17 -0.463486 -3.58516 0
M  V30 9352 O 903.891 -1.79666 -3.99565 0
M  V30 9353 C 905.392 -0.0468377 -4.43275 0
M  V30 9354 H 902.612 -0.160519 -0.651517 0
M  V30 9355 H 905.156 -1.08552 -1.73311 0
M  V30 9356 H 903.311 0.179821 -3.86982 0
M  V30 9357 H 903.725 -1.75688 -4.942 0
M  V30 9358 H 905.199 -0.146626 -5.51805 0
M  V30 9359 H 905.676 1.00741 -4.2749 0
M  V30 9360 H 906.282 -0.663158 -4.20098 0
M  V30 9361 N 904.597 1.47463 -0.556102 0
M  V30 9362 C 905.507 2.33785 0.195378 0
M  V30 9363 C 906.523 1.48123 0.913 0
M  V30 9364 O 907.699 1.81053 0.882141 0
M  V30 9365 C 904.764 3.24795 1.21282 0
M  V30 9366 C 903.825 4.26346 0.502747 0
M  V30 9367 C 903.058 5.13007 1.47172 0
M  V30 9368 O 903.281 5.02103 2.70646 0
M  V30 9369 O 902.215 5.93588 0.996814 0
M  V30 9370 H 906.041 2.99341 -0.512676 0
M  V30 9371 H 903.626 1.46004 -0.31673 0
M  V30 9372 H 905.508 3.81015 1.80016 0
M  V30 9373 H 904.183 2.61868 1.90282 0
M  V30 9374 H 903.09 3.73889 -0.125757 0
M  V30 9375 H 904.423 4.91984 -0.145779 0
M  V30 9376 N 906.075 0.2925 1.54862 0
M  V30 9377 C 907.352 -0.371946 1.92031 0
M  V30 9378 C 907.732 -1.72363 1.21878 0
M  V30 9379 O 907.08 -2.25779 0.351573 0
M  V30 9380 C 907.29 -0.495027 3.45471 0
M  V30 9381 C 908.638 -0.769855 4.17562 0
M  V30 9382 O 909.662 -0.579168 3.5146 0
M  V30 9383 O 908.521 -1.13561 5.34571 0
M  V30 9384 H 905.615 -0.206463 0.800813 0
M  V30 9385 H 908.161 0.339933 1.6626 0
M  V30 9386 H 906.933 0.455528 3.88639 0
M  V30 9387 H 906.556 -1.2557 3.7725 0
M  V30 9388 N 907.553 -1.57587 0.0200696 0
M  V30 9389 C 908.516 -2.08595 -0.949767 0
M  V30 9390 C 909.516 -0.999215 -1.25985 0
M  V30 9391 O 910.706 -1.26115 -1.2017 0
M  V30 9392 C 907.838 -2.54424 -2.26895 0
M  V30 9393 H 909.031 -2.95563 -0.508161 0
M  V30 9394 H 906.584 -1.54631 -0.227798 0
M  V30 9395 H 907.319 -1.70758 -2.75703 0
M  V30 9396 H 907.104 -3.3381 -2.05702 0
M  V30 9397 H 908.594 -2.94144 -2.96427 0
M  V30 9398 N 909.032 0.252966 -1.55557 0
M  V30 9399 C 909.979 1.3131 -1.89806 0
M  V30 9400 C 910.949 1.48121 -0.751633 0
M  V30 9401 O 912.134 1.62202 -1.00474 0
M  V30 9402 C 909.274 2.66467 -2.19293 0
M  V30 9403 C 908.387 2.57714 -3.46709 0
M  V30 9404 C 907.522 3.85184 -3.65796 0
M  V30 9405 C 906.561 3.71023 -4.86835 0
M  V30 9406 N 905.698 4.90371 -5.02474 0
M  V30 9407 H 910.538 1.01402 -2.80217 0
M  V30 9408 H 908.075 0.489462 -1.38718 0
M  V30 9409 H 910.033 3.45132 -2.34392 0
M  V30 9410 H 908.663 2.94536 -1.32093 0
M  V30 9411 H 907.715 1.70651 -3.39974 0
M  V30 9412 H 909.027 2.43158 -4.35517 0
M  V30 9413 H 908.181 4.72292 -3.80822 0
M  V30 9414 H 906.92 4.0263 -2.7521 0
M  V30 9415 H 905.925 2.82299 -4.71792 0
M  V30 9416 H 907.15 3.55078 -5.78875 0
M  V30 9417 H 905.096 5.0819 -4.14824 0
M  V30 9418 H 905.013 4.78423 -5.85361 0
M  V30 9419 H 906.281 5.78995 -5.21905 0
M  V30 9420 N 910.51 1.48831 0.518367 0
M  V30 9421 C 911.926 1.35209 0.847979 0
M  V30 9422 C 912.126 0.371927 1.98038 0
M  V30 9423 O 911.182 -0.202681 2.51685 0
M  V30 9424 C 912.495 2.7552 1.20455 0
M  V30 9425 C 914.043 2.84094 1.31377 0
M  V30 9426 C 914.518 4.25132 1.70372 0
M  V30 9427 N 916.009 4.27861 1.77453 0
M  V30 9428 C 916.744 5.3394 2.09035 0
M  V30 9429 N 916.24 6.50285 2.3896 0
M  V30 9430 N 918.033 5.21343 2.10139 0
M  V30 9431 H 910.184 2.11166 -0.228624 0
M  V30 9432 H 912.447 0.94717 -0.0396599 0
M  V30 9433 H 912.153 3.48861 0.445991 0
M  V30 9434 H 912.027 3.09785 2.15204 0
M  V30 9435 H 914.414 2.11001 2.06307 0
M  V30 9436 H 914.495 2.53433 0.347203 0
M  V30 9437 H 914.139 4.98745 0.959975 0
M  V30 9438 H 914.069 4.53245 2.68098 0
M  V30 9439 H 916.56 3.43945 1.56557 0
M  V30 9440 H 916.873 7.26961 2.62196 0
M  V30 9441 H 915.218 6.5354 2.36454 0
M  V30 9442 H 918.409 4.29462 1.86225 0
M  V30 9443 H 918.582 6.04112 2.34419 0
M  V30 9444 N 911.988 -0.768124 1.37614 0
M  V30 9445 C 912.918 -1.89537 1.36374 0
M  V30 9446 C 913.899 -1.68513 0.231803 0
M  V30 9447 O 915.084 -1.89318 0.432705 0
M  V30 9448 C 912.214 -3.26871 1.17358 0
M  V30 9449 C 911.168 -3.62466 2.27602 0
M  V30 9450 C 910.494 -4.9838 1.93705 0
M  V30 9451 C 911.794 -3.68841 3.69802 0
M  V30 9452 H 913.488 -1.90832 2.30702 0
M  V30 9453 H 911.034 -0.91672 1.11051 0
M  V30 9454 H 912.987 -4.05371 1.15119 0
M  V30 9455 H 911.711 -3.26018 0.194865 0
M  V30 9456 H 910.37 -2.86276 2.29002 0
M  V30 9457 H 910.018 -4.94071 0.943539 0
M  V30 9458 H 909.718 -5.23165 2.6753 0
M  V30 9459 H 911.242 -5.79276 1.93059 0
M  V30 9460 H 912.656 -4.37485 3.70513 0
M  V30 9461 H 911.053 -4.05126 4.42711 0
M  V30 9462 H 912.123 -2.69415 4.03167 0
M  V30 9463 N 913.466 -1.22244 -0.994698 0
M  V30 9464 C 914.714 -1.04384 -1.73056 0
M  V30 9465 C 915.035 0.422204 -1.90374 0
M  V30 9466 O 914.305 1.30383 -1.46209 0
M  V30 9467 H 912.885 -0.383263 -0.641185 0
M  V30 9468 H 915.547 -1.53725 -1.1981 0
M  V30 9469 H 914.643 -1.52021 -2.72573 0
M  V30 9470 N 914.944 1.19125 -1.03184 0
M  V30 9471 C 916.193 1.8821 -0.725264 0
M  V30 9472 C 916.506 1.80674 0.749411 0
M  V30 9473 O 917.712 2.45037 1.16915 0
M  V30 9474 C 916.168 3.37607 -1.24697 0
M  V30 9475 C 915.776 3.53693 -2.74964 0
M  V30 9476 C 917.52 4.12149 -1.01652 0
M  V30 9477 C 915.427 4.97001 -3.20538 0
M  V30 9478 H 914.357 0.704916 -0.267599 0
M  V30 9479 H 917.008 1.34663 -1.24652 0
M  V30 9480 H 915.39 3.90569 -0.653614 0
M  V30 9481 H 916.564 3.11046 -3.39981 0
M  V30 9482 H 914.879 2.92544 -2.96322 0
M  V30 9483 H 917.476 5.17837 -1.33226 0
M  V30 9484 H 917.819 4.16274 0.0465712 0
M  V30 9485 H 918.352 3.65334 -1.57403 0
M  V30 9486 H 915.091 4.9804 -4.26189 0
M  V30 9487 H 914.611 5.40398 -2.60251 0
M  V30 9488 H 916.29 5.65669 -3.14049 0
M  V30 9489 N 916.422 0.810101 1.35185 0
M  V30 9490 C 917.332 0.224565 2.33523 0
M  V30 9491 C 918.348 -0.634287 1.62027 0
M  V30 9492 O 919.524 -0.545211 1.9388 0
M  V30 9493 C 916.589 -0.614319 3.41214 0
M  V30 9494 C 915.65 0.265435 4.28479 0
M  V30 9495 C 914.883 -0.533506 5.31027 0
M  V30 9496 O 915.106 -1.7679 5.42311 0
M  V30 9497 O 914.04 0.0774573 6.0185 0
M  V30 9498 H 917.866 1.03815 2.85405 0
M  V30 9499 H 915.451 0.571964 1.38018 0
M  V30 9500 H 917.333 -1.09201 4.07005 0
M  V30 9501 H 916.008 -1.40545 2.91597 0
M  V30 9502 H 914.915 0.790343 3.65656 0
M  V30 9503 H 916.248 1.0206 4.81503 0
M  V30 9504 N 917.9 -1.47166 0.563914 0
M  V30 9505 C 919.177 -1.95586 -0.0236172 0
M  V30 9506 C 919.557 -1.50655 -1.47872 0
M  V30 9507 O 918.905 -0.748479 -2.15894 0
M  V30 9508 C 919.115 -3.48762 0.128841 0
M  V30 9509 C 920.463 -4.24598 -0.0130544 0
M  V30 9510 O 921.487 -3.56155 0.0567242 0
M  V30 9511 O 920.346 -5.46253 -0.164332 0
M  V30 9512 H 917.44 -0.824793 -0.0603789 0
M  V30 9513 H 919.986 -1.57536 0.63091 0
M  V30 9514 H 918.758 -3.74291 1.14113 0
M  V30 9515 H 918.381 -3.93594 -0.56299 0
M  V30 9516 N 919.378 -0.300708 -1.54705 0
M  V30 9517 C 920.288 0.584996 -2.27189 0
M  V30 9518 C 921.304 1.14866 -1.30697 0
M  V30 9519 O 922.48 1.17351 -1.63679 0
M  V30 9520 C 919.545 1.74076 -2.99831 0
M  V30 9521 C 918.606 1.2112 -4.1186 0
M  V30 9522 C 917.839 2.31188 -4.81028 0
M  V30 9523 O 918.062 3.5108 -4.49554 0
M  V30 9524 O 916.996 1.97897 -5.68437 0
M  V30 9525 H 920.822 -0.00298177 -3.037 0
M  V30 9526 H 918.407 -0.0671802 -1.49249 0
M  V30 9527 H 920.289 2.41413 -3.45395 0
M  V30 9528 H 918.964 2.31535 -2.26215 0
M  V30 9529 H 917.871 0.50357 -3.70695 0
M  V30 9530 H 919.204 0.682046 -4.87452 0
M  V30 9531 N 920.856 1.57574 -0.0284266 0
M  V30 9532 C 921.819 2.09096 0.938691 0
M  V30 9533 C 922.819 1.00588 1.25454 0
M  V30 9534 O 924.009 1.2675 1.19499 0
M  V30 9535 C 921.141 2.55624 2.25542 0
M  V30 9536 H 922.334 2.95829 0.49248 0
M  V30 9537 H 919.887 1.5475 0.219594 0
M  V30 9538 H 920.622 1.72218 2.74793 0
M  V30 9539 H 920.407 3.34896 2.03929 0
M  V30 9540 H 921.897 2.95712 2.94863 0
M  V30 9541 N 922.334 -0.244713 1.55689 0
M  V30 9542 C 923.264 -1.30667 1.93516 0
M  V30 9543 C 924.245 -1.50094 0.800371 0
M  V30 9544 O 925.43 -1.62665 1.06083 0
M  V30 9545 C 922.56 -2.66101 2.23176 0
M  V30 9546 C 921.514 -2.61366 3.38927 0
M  V30 9547 C 920.84 -4.00616 3.54134 0
M  V30 9548 C 922.14 -2.18161 4.74555 0
M  V30 9549 H 923.834 -0.992546 2.82469 0
M  V30 9550 H 921.38 -0.476018 1.35905 0
M  V30 9551 H 923.333 -3.4053 2.48228 0
M  V30 9552 H 922.057 -2.99154 1.31051 0
M  V30 9553 H 920.716 -1.89395 3.13887 0
M  V30 9554 H 920.364 -4.30938 2.59426 0
M  V30 9555 H 920.064 -3.98335 4.31975 0
M  V30 9556 H 921.588 -4.76741 3.8151 0
M  V30 9557 H 923.002 -2.82323 4.98965 0
M  V30 9558 H 921.399 -2.26988 5.55515 0
M  V30 9559 H 922.469 -1.13333 4.7147 0
M  V30 9560 N 923.813 -1.49104 -0.510467 0
M  V30 9561 C 925.059 -1.58346 -1.26705 0
M  V30 9562 C 925.392 -0.265121 -1.92382 0
M  V30 9563 O 924.667 0.730558 -1.80258 0
M  V30 9564 C 924.95 -2.7359 -2.34137 0
M  V30 9565 C 924.803 -4.1519 -1.73024 0
M  V30 9566 C 926.122 -2.84511 -3.3577 0
M  V30 9567 H 923.241 -0.57637 -0.459311 0
M  V30 9568 H 925.883 -1.81353 -0.566658 0
M  V30 9569 H 924.033 -2.54105 -2.93876 0
M  V30 9570 H 925.705 -4.46167 -1.17186 0
M  V30 9571 H 923.948 -4.21279 -1.03473 0
M  V30 9572 H 924.619 -4.91683 -2.50903 0
M  V30 9573 H 927.095 -3.0222 -2.86011 0
M  V30 9574 H 925.971 -3.6684 -4.08313 0
M  V30 9575 H 926.232 -1.93471 -3.97519 0
M  V30 9576 N 925.291 0.760815 -1.38019 0
M  V30 9577 C 926.537 1.52109 -1.35034 0
M  V30 9578 C 926.892 1.92302 0.0615509 0
M  V30 9579 O 926.185 1.62028 1.02261 0
M  V30 9580 C 926.379 2.79024 -2.23339 0
M  V30 9581 C 926.208 2.51238 -3.72974 0
M  V30 9582 C 924.978 2.44818 -4.42032 0
M  V30 9583 C 927.176 2.18499 -4.65578 0
M  V30 9584 N 925.158 2.09232 -5.77144 0
M  V30 9585 C 926.529 1.93143 -5.89148 0
M  V30 9586 C 928.584 2.04747 -4.53854 0
M  V30 9587 C 927.287 1.55423 -7.02308 0
M  V30 9588 C 929.313 1.68428 -5.66909 0
M  V30 9589 C 928.675 1.43939 -6.89537 0
M  V30 9590 H 924.774 0.556482 -0.54941 0
M  V30 9591 H 927.358 0.886614 -1.73341 0
M  V30 9592 H 925.529 3.40292 -1.87232 0
M  V30 9593 H 927.261 3.45016 -2.11533 0
M  V30 9594 H 924.016 2.61045 -3.95161 0
M  V30 9595 H 924.44 1.94104 -6.48577 0
M  V30 9596 H 929.082 2.22358 -3.59607 0
M  V30 9597 H 926.8 1.36551 -7.96479 0
M  V30 9598 H 930.386 1.5843 -5.59814 0
M  V30 9599 H 929.266 1.16253 -7.75535 0
M  V30 9600 N 926.769 1.22769 0.988202 0
M  V30 9601 C 928.015 1.05665 1.73097 0
M  V30 9602 C 928.348 -0.406615 1.89895 0
M  V30 9603 O 927.623 -1.30132 1.44554 0
M  V30 9604 C 927.906 1.77381 3.13382 0
M  V30 9605 C 927.759 3.31332 3.04203 0
M  V30 9606 C 929.078 1.52999 4.12649 0
M  V30 9607 H 926.197 0.385258 0.628288 0
M  V30 9608 H 928.839 1.51171 1.15097 0
M  V30 9609 H 926.989 1.38696 3.62899 0
M  V30 9610 H 928.661 3.79489 2.6227 0
M  V30 9611 H 926.904 3.60767 2.40894 0
M  V30 9612 H 927.575 3.76692 4.03493 0
M  V30 9613 H 930.051 1.86611 3.71908 0
M  V30 9614 H 928.927 2.05666 5.08913 0
M  V30 9615 H 929.188 0.463615 4.39662 0
M  V30 9616 N 928.247 -1.18576 1.03814 0
M  V30 9617 C 929.197 -2.20034 0.597409 0
M  V30 9618 C 930.181 -1.56849 -0.358796 0
M  V30 9619 O 931.373 -1.761 -0.178262 0
M  V30 9620 C 928.502 -3.43276 -0.0407965 0
M  V30 9621 C 927.588 -4.13588 0.938404 0
M  V30 9622 N 927.979 -4.59941 2.10447 0
M  V30 9623 C 926.277 -4.3941 0.763853 0
M  V30 9624 C 926.978 -5.1404 2.72282 0
M  V30 9625 N 925.954 -5.05401 2.00176 0
M  V30 9626 H 929.756 -2.53562 1.48606 0
M  V30 9627 H 927.27 -1.34753 0.906384 0
M  V30 9628 H 929.267 -4.15217 -0.374222 0
M  V30 9629 H 927.927 -3.11245 -0.925014 0
M  V30 9630 H 928.938 -4.54471 2.48347 0
M  V30 9631 H 925.615 -4.1744 -0.0704869 0
M  V30 9632 H 927.005 -5.60128 3.71088 0
M  V30 9633 N 929.725 -0.817259 -1.34754 0
M  V30 9634 C 930.95 -0.414423 -2.03217 0
M  V30 9635 C 931.375 0.970037 -1.61158 0
M  V30 9636 O 930.733 1.63016 -0.793436 0
M  V30 9637 C 930.781 -0.518087 -3.56859 0
M  V30 9638 O 929.885 0.464314 -4.09778 0
M  V30 9639 H 929.226 -0.171454 -0.641482 0
M  V30 9640 H 931.756 -1.10611 -1.72123 0
M  V30 9641 H 931.766 -0.391779 -4.06115 0
M  V30 9642 H 930.441 -1.52786 -3.86819 0
M  V30 9643 H 929.018 0.297361 -3.71712 0
M  V30 9644 N 931.203 1.46865 -0.571711 0
M  V30 9645 C 932.619 1.57897 -0.23255 0
M  V30 9646 C 932.819 1.56836 1.26509 0
M  V30 9647 O 931.875 1.47947 2.04617 0
M  V30 9648 C 933.188 2.87778 -0.872036 0
M  V30 9649 C 934.736 3.01389 -0.844605 0
M  V30 9650 C 935.211 4.33991 -1.46343 0
M  V30 9651 N 936.702 4.40662 -1.42727 0
M  V30 9652 C 937.437 5.41858 -1.87557 0
M  V30 9653 N 936.933 6.49787 -2.4031 0
M  V30 9654 N 938.726 5.32992 -1.7854 0
M  V30 9655 H 930.877 1.45798 -1.54457 0
M  V30 9656 H 933.14 0.694785 -0.644964 0
M  V30 9657 H 932.846 2.94332 -1.92513 0
M  V30 9658 H 932.72 3.75345 -0.373677 0
M  V30 9659 H 935.107 2.94423 0.19984 0
M  V30 9660 H 935.188 2.15327 -1.38087 0
M  V30 9661 H 934.832 4.41714 -2.50701 0
M  V30 9662 H 934.762 5.18809 -0.902479 0
M  V30 9663 H 937.253 3.63263 -1.04155 0
M  V30 9664 H 937.566 7.23199 -2.72403 0
M  V30 9665 H 935.911 6.50637 -2.44329 0
M  V30 9666 H 939.102 4.47575 -1.37093 0
M  V30 9667 H 939.275 6.11716 -2.13794 0
M  V30 9668 N 932.681 0.308908 1.54543 0
M  V30 9669 C 933.628 -0.563659 2.23811 0
M  V30 9670 C 934.598 -1.12332 1.22355 0
M  V30 9671 O 935.783 -1.16638 1.50997 0
M  V30 9672 C 932.923 -1.72585 2.98845 0
M  V30 9673 C 932.036 -1.19682 4.1509 0
M  V30 9674 C 931.171 -2.32351 4.77688 0
M  V30 9675 C 930.21 -1.76623 5.86064 0
M  V30 9676 N 929.347 -2.82896 6.42584 0
M  V30 9677 H 934.187 0.0336288 2.97981 0
M  V30 9678 H 931.724 0.0283666 1.47073 0
M  V30 9679 H 933.682 -2.40951 3.40586 0
M  V30 9680 H 932.312 -2.29464 2.27037 0
M  V30 9681 H 931.364 -0.405173 3.78236 0
M  V30 9682 H 932.676 -0.748923 4.93146 0
M  V30 9683 H 931.83 -3.0865 5.22322 0
M  V30 9684 H 930.569 -2.80472 3.98982 0
M  V30 9685 H 929.574 -0.988171 5.40847 0
M  V30 9686 H 930.799 -1.29398 6.66658 0
M  V30 9687 H 928.745 -3.30336 5.66758 0
M  V30 9688 H 928.662 -2.42626 7.16009 0
M  V30 9689 H 929.93 -3.59068 6.91875 0
M  V30 9690 N 934.159 -1.57557 0.0367827 0
M  V30 9691 C 935.407 -1.91735 -0.63892 0
M  V30 9692 C 935.728 -0.914515 -1.72226 0
M  V30 9693 O 934.998 0.0428248 -1.95853 0
M  V30 9694 H 933.578 -0.707738 -0.23899 0
M  V30 9695 H 936.24 -1.94708 0.0863931 0
M  V30 9696 H 935.336 -2.92568 -1.08676 0
M  V30 9697 N 935.637 0.236453 -1.55816 0
M  V30 9698 C 936.584 1.29289 -1.91188 0
M  V30 9699 C 937.554 1.47315 -0.767301 0
M  V30 9700 O 938.739 1.61128 -1.02189 0
M  V30 9701 C 935.879 2.64126 -2.22107 0
M  V30 9702 C 934.992 2.54022 -3.49423 0
M  V30 9703 C 934.127 3.81282 -3.69861 0
M  V30 9704 C 933.166 3.65839 -4.90743 0
M  V30 9705 N 932.303 4.85014 -5.07647 0
M  V30 9706 H 937.143 0.98424 -2.81277 0
M  V30 9707 H 934.68 0.474722 -1.39229 0
M  V30 9708 H 936.638 3.42626 -2.3804 0
M  V30 9709 H 935.268 2.93118 -1.35209 0
M  V30 9710 H 934.32 1.67036 -3.41765 0
M  V30 9711 H 935.632 2.38525 -4.38072 0
M  V30 9712 H 934.786 4.68226 -3.8581 0
M  V30 9713 H 933.525 3.99688 -2.79465 0
M  V30 9714 H 932.53 2.77279 -4.74759 0
M  V30 9715 H 933.755 3.48918 -5.82609 0
M  V30 9716 H 931.701 5.03762 -4.20191 0
M  V30 9717 H 931.618 4.72188 -5.90402 0
M  V30 9718 H 932.886 5.73427 -5.28017 0
M  V30 9719 N 937.115 1.49373 0.502552 0
M  V30 9720 C 938.364 1.58028 1.25339 0
M  V30 9721 C 938.677 0.271494 1.93707 0
M  V30 9722 O 939.883 0.236584 2.70467 0
M  V30 9723 C 938.339 2.78817 2.27572 0
M  V30 9724 C 937.947 4.16448 1.65151 0
M  V30 9725 C 939.691 2.96802 3.03494 0
M  V30 9726 C 937.598 5.28461 2.65486 0
M  V30 9727 H 936.528 0.588396 0.471494 0
M  V30 9728 H 939.179 1.75756 0.52744 0
M  V30 9729 H 937.561 2.5458 3.03323 0
M  V30 9730 H 938.735 4.50816 0.954029 0
M  V30 9731 H 937.05 4.03809 1.01625 0
M  V30 9732 H 939.647 3.77656 3.78524 0
M  V30 9733 H 939.99 2.07303 3.61014 0
M  V30 9734 H 940.523 3.21071 2.34858 0
M  V30 9735 H 937.262 6.20015 2.12749 0
M  V30 9736 H 936.782 4.9855 3.33479 0
M  V30 9737 H 938.461 5.5773 3.27943 0
M  V30 9738 N 938.594 -0.753485 1.38421 0
M  V30 9739 C 939.843 -1.50797 1.33952 0
M  V30 9740 C 940.156 -1.95482 -0.0678464 0
M  V30 9741 O 941.362 -2.7048 -0.235078 0
M  V30 9742 C 939.818 -2.72393 2.35224 0
M  V30 9743 C 939.426 -2.34733 3.81582 0
M  V30 9744 C 941.17 -3.50281 2.39798 0
M  V30 9745 C 939.077 -3.52939 4.7454 0
M  V30 9746 H 938.007 -0.566211 0.497916 0
M  V30 9747 H 940.658 -0.823659 1.63976 0
M  V30 9748 H 939.04 -3.42806 1.98243 0
M  V30 9749 H 940.214 -1.71985 4.27502 0
M  V30 9750 H 938.529 -1.69978 3.80127 0
M  V30 9751 H 941.126 -4.38172 3.06447 0
M  V30 9752 H 941.469 -3.91444 1.41695 0
M  V30 9753 H 942.002 -2.86881 2.75579 0
M  V30 9754 H 938.741 -3.16843 5.73839 0
M  V30 9755 H 938.261 -4.1473 4.33312 0
M  V30 9756 H 939.94 -4.19519 4.92557 0
M  V30 9757 N 940.072 -1.23292 -0.981677 0
M  V30 9758 C 941.3 -1.09088 -1.75805 0
M  V30 9759 C 941.715 0.357746 -1.8538 0
M  V30 9760 O 941.072 1.24751 -1.33205 0
M  V30 9761 C 941.123 -1.70885 -3.1856 0
M  V30 9762 O 940.844 -3.10082 -3.09484 0
M  V30 9763 C 942.345 -1.62106 -4.12597 0
M  V30 9764 H 939.565 -0.38184 -0.55176 0
M  V30 9765 H 942.109 -1.63116 -1.23342 0
M  V30 9766 H 940.264 -1.20893 -3.68054 0
M  V30 9767 H 940.678 -3.40039 -3.99342 0
M  V30 9768 H 942.152 -2.10049 -5.10474 0
M  V30 9769 H 942.629 -0.579642 -4.35358 0
M  V30 9770 H 943.235 -2.11457 -3.69007 0
M  V30 9771 N 941.55 1.18024 -1.04442 0
M  V30 9772 C 942.966 1.40107 -0.76435 0
M  V30 9773 C 943.166 1.90914 0.644516 0
M  V30 9774 O 942.222 2.0959 1.40813 0
M  V30 9775 C 943.535 2.39851 -1.81361 0
M  V30 9776 C 945.083 2.53571 -1.83496 0
M  V30 9777 C 945.558 3.56583 -2.87424 0
M  V30 9778 N 947.049 3.64094 -2.86339 0
M  V30 9779 C 947.784 4.43537 -3.63405 0
M  V30 9780 N 947.28 5.26557 -4.50233 0
M  V30 9781 N 949.073 4.38336 -3.51877 0
M  V30 9782 H 941.224 0.833726 -1.95353 0
M  V30 9783 H 943.487 0.42881 -0.845474 0
M  V30 9784 H 943.193 2.09576 -2.82438 0
M  V30 9785 H 943.067 3.39251 -1.6489 0
M  V30 9786 H 945.454 2.83161 -0.830883 0
M  V30 9787 H 945.535 1.54272 -2.04044 0
M  V30 9788 H 945.179 3.27733 -3.88012 0
M  V30 9789 H 945.109 4.55569 -2.6413 0
M  V30 9790 H 947.6 3.04814 -2.23376 0
M  V30 9791 H 947.913 5.84336 -5.05738 0
M  V30 9792 H 946.258 5.25964 -4.54298 0
M  V30 9793 H 949.449 3.72528 -2.83444 0
M  V30 9794 H 949.622 5.00007 -4.12186 0
M  V30 9795 N 943.028 0.824394 1.34319 0
M  V30 9796 C 943.991 0.252696 2.27803 0
M  V30 9797 C 944.991 -0.570254 1.50349 0
M  V30 9798 O 946.181 -0.386145 1.69866 0
M  V30 9799 C 943.313 -0.645575 3.34731 0
M  V30 9800 H 944.506 1.07742 2.79878 0
M  V30 9801 H 942.059 0.596367 1.44475 0
M  V30 9802 H 942.794 -1.4933 2.87873 0
M  V30 9803 H 942.579 -0.0569478 3.92059 0
M  V30 9804 H 944.069 -1.03933 4.0446 0
M  V30 9805 N 944.506 -1.46559 0.579492 0
M  V30 9806 C 945.438 -2.28383 -0.19337 0
M  V30 9807 C 946.451 -1.38324 -0.858511 0
M  V30 9808 O 947.64 -1.62952 -0.728615 0
M  V30 9809 C 944.74 -3.13262 -1.29306 0
M  V30 9810 C 943.913 -4.31426 -0.720459 0
M  V30 9811 C 942.972 -4.97728 -1.70744 0
M  V30 9812 O 941.998 -5.55423 -1.24476 0
M  V30 9813 N 943.2 -4.94445 -3.04146 0
M  V30 9814 H 945.965 -2.95353 0.508611 0
M  V30 9815 H 943.526 -1.56436 0.417046 0
M  V30 9816 H 945.518 -3.54483 -1.95254 0
M  V30 9817 H 944.088 -2.48388 -1.89795 0
M  V30 9818 H 943.308 -3.94028 0.116398 0
M  V30 9819 H 944.596 -5.07808 -0.31763 0
M  V30 9820 H 943.994 -4.4881 -3.44363 0
M  V30 9821 H 942.551 -5.39616 -3.65592 0
M  V30 9822 N 945.984 -0.3171 -1.54377 0
M  V30 9823 C 947.23 0.287836 -2.00747 0
M  V30 9824 C 947.563 1.52292 -1.20502 0
M  V30 9825 O 946.838 1.92391 -0.285626 0
M  V30 9826 C 947.121 0.628423 -3.54574 0
M  V30 9827 C 946.974 -0.616922 -4.45549 0
M  V30 9828 C 948.293 1.44862 -4.15575 0
M  V30 9829 H 945.412 0.103144 -0.729747 0
M  V30 9830 H 948.054 -0.432396 -1.85014 0
M  V30 9831 H 946.204 1.24203 -3.68111 0
M  V30 9832 H 947.876 -1.25526 -4.43893 0
M  V30 9833 H 946.119 -1.24706 -4.15489 0
M  V30 9834 H 946.79 -0.334243 -5.50987 0
M  V30 9835 H 949.266 0.930015 -4.05574 0
M  V30 9836 H 948.142 1.6557 -5.23333 0
M  V30 9837 H 948.403 2.44279 -3.68484 0
M  V30 9838 N 947.462 1.57535 -0.0451378 0
M  V30 9839 C 948.687 1.97172 0.64326 0
M  V30 9840 C 949.112 0.922266 1.63939 0
M  V30 9841 O 948.47 -0.115155 1.80934 0
M  V30 9842 C 948.518 3.35889 1.3119 0
M  V30 9843 O 947.622 3.33387 2.42748 0
M  V30 9844 H 946.963 0.642469 0.167719 0
M  V30 9845 H 949.493 2.04295 -0.111747 0
M  V30 9846 H 949.503 3.72481 1.66499 0
M  V30 9847 H 948.178 4.1181 0.581823 0
M  V30 9848 H 946.755 3.08533 2.09432 0
M  V30 9849 N 948.94 -0.228186 1.55939 0
M  V30 9850 C 950.217 -0.977492 1.69424 0
M  V30 9851 C 950.597 -2.02674 0.590479 0
M  V30 9852 O 949.945 -2.2491 -0.403467 0
M  V30 9853 C 950.155 -1.59394 3.10475 0
M  V30 9854 C 951.503 -2.08871 3.69673 0
M  V30 9855 O 952.527 -1.693 3.13394 0
M  V30 9856 O 951.386 -2.81584 4.68372 0
M  V30 9857 H 948.48 -0.456185 0.6898 0
M  V30 9858 H 951.026 -0.220492 1.68261 0
M  V30 9859 H 949.798 -0.835971 3.82266 0
M  V30 9860 H 949.421 -2.41665 3.15727 0
M  V30 9861 N 950.418 -1.49637 -0.494624 0
M  V30 9862 C 951.834 -1.36541 -0.826361 0
M  V30 9863 C 952.034 -0.403386 -1.97421 0
M  V30 9864 O 951.09 0.162614 -2.51976 0
M  V30 9865 C 952.403 -2.77401 -1.16057 0
M  V30 9866 C 953.951 -2.86148 -1.26841 0
M  V30 9867 C 954.426 -4.27789 -1.63587 0
M  V30 9868 N 955.917 -4.3063 -1.70624 0
M  V30 9869 C 956.652 -5.37198 -2.00514 0
M  V30 9870 N 956.148 -6.54004 -2.28584 0
M  V30 9871 N 957.941 -5.2462 -2.01818 0
M  V30 9872 H 950.092 -2.10776 0.26219 0
M  V30 9873 H 952.355 -0.946419 0.0547235 0
M  V30 9874 H 952.061 -3.49526 -0.390434 0
M  V30 9875 H 951.935 -3.1317 -2.10249 0
M  V30 9876 H 954.322 -2.14256 -2.02925 0
M  V30 9877 H 954.403 -2.53953 -0.30684 0
M  V30 9878 H 954.047 -5.00209 -0.880507 0
M  V30 9879 H 953.977 -4.57453 -2.60854 0
M  V30 9880 H 956.468 -3.46393 -1.51065 0
M  V30 9881 H 956.781 -7.31041 -2.50598 0
M  V30 9882 H 955.126 -6.57219 -2.26027 0
M  V30 9883 H 958.317 -4.32371 -1.79369 0
M  V30 9884 H 958.49 -6.07765 -2.24778 0
M  V30 9885 N 951.896 0.746133 -1.38819 0
M  V30 9886 C 953.307 1.32384 -1.31648 0
M  V30 9887 C 953.658 1.96185 0.0243086 0
M  V30 9888 O 952.783 1.95567 0.92641 0
M  V30 9889 C 953.378 2.40712 -2.38418 0
M  V30 9890 C 951.937 2.94185 -2.34803 0
M  V30 9891 C 951.084 1.67639 -2.20891 0
M  V30 9892 H 954.035 0.544457 -1.49068 0
M  V30 9893 H 954.056 3.20833 -2.04564 0
M  V30 9894 H 953.568 1.94247 -3.3599 0
M  V30 9895 H 951.669 3.44959 -1.40834 0
M  V30 9896 H 951.782 3.48057 -3.29231 0
M  V30 9897 H 950.146 1.9155 -1.67871 0
M  V30 9898 H 950.929 1.23242 -3.20416 0
M  V30 9899 N 953.375 1.23811 0.975125 0
M  V30 9900 C 954.323 1.02149 2.0897 0
M  V30 9901 C 955.317 -0.0412172 1.6935 0
M  V30 9902 O 956.523 0.112726 1.79647 0
M  V30 9903 H 952.898 0.313259 0.683647 0
M  V30 9904 H 954.869 1.96686 2.24404 0
M  V30 9905 C 953.618 0.635023 3.41852 0
M  V30 9906 H 952.941 1.44449 3.72793 0
M  V30 9907 H 954.381 0.52301 4.20762 0
M  V30 9908 C 952.84 -0.657207 3.30428 0
M  V30 9909 O 953.37 -1.70494 3.63723 0
M  V30 9910 N 951.576 -0.635122 2.83575 0
M  V30 9911 H 951.123 0.21784 2.56677 0
M  V30 9912 H 951.081 -1.49995 2.76313 0
M  V30 9913 N 954.853 -1.17469 1.05066 0
M  V30 9914 C 955.8 -2.21443 0.650512 0
M  V30 9915 C 956.77 -1.62441 -0.346702 0
M  V30 9916 O 957.955 -1.89305 -0.238404 0
M  V30 9917 C 955.095 -3.45087 0.0301014 0
M  V30 9918 C 954.208 -4.18385 1.07599 0
M  V30 9919 C 953.343 -5.29513 0.423038 0
M  V30 9920 C 952.382 -5.94596 1.45333 0
M  V30 9921 N 951.519 -6.97241 0.824623 0
M  V30 9922 H 956.359 -2.55025 1.54163 0
M  V30 9923 H 953.896 -1.25274 0.771032 0
M  V30 9924 H 955.854 -4.15754 -0.347032 0
M  V30 9925 H 954.484 -3.12093 -0.824481 0
M  V30 9926 H 953.536 -3.46446 1.57097 0
M  V30 9927 H 954.848 -4.62899 1.85813 0
M  V30 9928 H 954.002 -6.067 -0.00774975 0
M  V30 9929 H 952.741 -4.86129 -0.391092 0
M  V30 9930 H 951.746 -5.16142 1.89415 0
M  V30 9931 H 952.971 -6.40061 2.26934 0
M  V30 9932 H 950.917 -6.55993 0.0309804 0
M  V30 9933 H 950.834 -7.40059 1.54432 0
M  V30 9934 H 952.102 -7.78375 0.418567 0
M  V30 9935 N 956.331 -0.831506 -1.3388 0
M  V30 9936 C 957.579 -0.422837 -1.97627 0
M  V30 9937 C 957.9 1.01961 -1.6622 0
M  V30 9938 O 957.17 1.70916 -0.957323 0
M  V30 9939 H 955.75 -0.153365 -0.731087 0
M  V30 9940 H 958.412 -1.06284 -1.6337 0
M  V30 9941 H 957.508 -0.548858 -3.07236 0
M  V30 9942 N 957.809 1.4625 -0.587256 0
M  V30 9943 C 958.772 2.28812 0.133238 0
M  V30 9944 C 959.772 1.38645 0.814513 0
M  V30 9945 O 960.962 1.60975 0.665774 0
M  V30 9946 C 958.094 3.19147 1.19824 0
M  V30 9947 H 959.287 2.93991 -0.592386 0
M  V30 9948 H 956.84 1.52435 -0.345416 0
M  V30 9949 H 957.575 2.58725 1.95529 0
M  V30 9950 H 957.36 3.85541 0.71418 0
M  V30 9951 H 958.85 3.81278 1.70344 0
M  V30 9952 N 959.287 0.325282 1.54207 0
M  V30 9953 C 960.536 -0.27768 1.99779 0
M  V30 9954 C 960.849 -1.5311 1.21723 0
M  V30 9955 O 962.055 -2.21017 1.57682 0
M  V30 9956 C 960.511 -0.545329 3.55745 0
M  V30 9957 C 960.119 0.691143 4.42637 0
M  V30 9958 C 961.863 -1.10815 4.09781 0
M  V30 9959 C 959.77 0.395302 5.90077 0
M  V30 9960 H 958.7 -0.107536 0.746292 0
M  V30 9961 H 961.351 0.437773 1.78202 0
M  V30 9962 H 959.733 -1.32101 3.73317 0
M  V30 9963 H 960.907 1.46653 4.3684 0
M  V30 9964 H 959.222 1.1743 3.99499 0
M  V30 9965 H 961.819 -1.34414 5.1753 0
M  V30 9966 H 962.162 -2.05806 3.6187 0
M  V30 9967 H 962.695 -0.393608 3.95848 0
M  V30 9968 H 959.434 1.31443 6.42186 0
M  V30 9969 H 958.954 -0.34235 5.98822 0
M  V30 9970 H 960.633 0.00576877 6.47 0
M  V30 9971 N 960.765 -1.57509 0.0534917 0
M  V30 9972 C 961.995 -1.96812 -0.628386 0
M  V30 9973 C 962.403 -0.929808 -1.64776 0
M  V30 9974 O 961.746 0.0941155 -1.83459 0
M  V30 9975 C 961.808 -3.32361 -1.37027 0
M  V30 9976 C 961.472 -4.54185 -0.506465 0
M  V30 9977 C 962.469 -5.19398 0.228412 0
M  V30 9978 C 960.154 -5.00398 -0.43671 0
M  V30 9979 C 962.148 -6.29162 1.02146 0
M  V30 9980 C 959.835 -6.10039 0.360022 0
M  V30 9981 C 960.833 -6.74282 1.08779 0
M  V30 9982 O 960.521 -7.81814 1.87142 0
M  V30 9983 H 960.253 -0.65257 -0.176432 0
M  V30 9984 H 962.807 -2.05067 0.116908 0
M  V30 9985 H 961.037 -3.20667 -2.16125 0
M  V30 9986 H 962.726 -3.56395 -1.94261 0
M  V30 9987 H 963.492 -4.84651 0.184003 0
M  V30 9988 H 959.371 -4.50183 -0.992772 0
M  V30 9989 H 962.915 -6.79238 1.59002 0
M  V30 9990 H 958.812 -6.44222 0.406061 0
M  V30 9991 H 959.58 -7.98602 1.79378 0
M  V30 9992 N 962.243 0.219913 -1.56058 0
M  V30 9993 C 963.176 1.29978 -1.87566 0
M  V30 9994 C 964.154 1.45131 -0.733203 0
M  V30 9995 O 965.338 1.60917 -0.981729 0
M  V30 9996 C 962.465 2.66988 -2.08411 0
M  V30 9997 C 961.511 2.68842 -3.31099 0
M  V30 9998 S 962.344 2.22745 -4.86975 0
M  V30 9999 C 963.5 3.61627 -5.10859 0
M  V30 10000 H 963.733 1.03059 -2.78866 0
M  V30 10001 H 961.266 0.422233 -1.48514 0
M  V30 10002 H 963.224 3.45866 -2.21104 0
M  V30 10003 H 961.885 2.91131 -1.17905 0
M  V30 10004 H 961.078 3.69526 -3.42734 0
M  V30 10005 H 960.68 1.98028 -3.17271 0
M  V30 10006 H 962.972 4.57328 -4.99857 0
M  V30 10007 H 963.915 3.54906 -6.12737 0
M  V30 10008 H 964.323 3.55391 -4.38586 0
M  V30 10009 N 963.721 1.49897 0.486681 0
M  V30 10010 C 964.949 1.63837 1.26353 0
M  V30 10011 C 965.364 0.315428 1.86146 0
M  V30 10012 O 964.721 -0.700831 1.68507 0
M  V30 10013 C 964.772 2.71792 2.38351 0
M  V30 10014 O 964.493 3.98956 1.81013 0
M  V30 10015 C 965.994 2.96566 3.2949 0
M  V30 10016 H 963.214 0.551158 0.382709 0
M  V30 10017 H 965.758 1.96023 0.582694 0
M  V30 10018 H 963.913 2.42344 3.02238 0
M  V30 10019 H 964.327 4.58536 2.54647 0
M  V30 10020 H 965.801 3.75803 4.04322 0
M  V30 10021 H 966.278 2.07031 3.87343 0
M  V30 10022 H 966.884 3.27485 2.71355 0
M  V30 10023 N 965.199 -0.738761 1.39212 0
M  V30 10024 C 966.429 -1.5258 1.39295 0
M  V30 10025 C 966.837 -1.89194 -0.0153 0
M  V30 10026 O 966.18 -1.5435 -0.996073 0
M  V30 10027 C 966.242 -2.84462 2.19822 0
M  V30 10028 C 965.906 -2.70303 3.68491 0
M  V30 10029 C 966.903 -2.39102 4.61656 0
M  V30 10030 C 964.588 -2.87291 4.1203 0
M  V30 10031 C 966.582 -2.25066 5.96342 0
M  V30 10032 C 964.269 -2.72874 5.46793 0
M  V30 10033 C 965.267 -2.41807 6.38763 0
M  V30 10034 O 964.955 -2.27475 7.71045 0
M  V30 10035 H 964.687 -0.478236 0.477772 0
M  V30 10036 H 967.241 -0.920846 1.83602 0
M  V30 10037 H 965.471 -3.47202 1.70257 0
M  V30 10038 H 967.16 -3.46058 2.12129 0
M  V30 10039 H 967.926 -2.25632 4.2932 0
M  V30 10040 H 963.805 -3.10466 3.40781 0
M  V30 10041 H 967.349 -2.00739 6.68094 0
M  V30 10042 H 963.246 -2.85922 5.78722 0
M  V30 10043 H 964.014 -2.42574 7.81729 0
M  V30 10044 N 966.677 -1.24326 -0.968545 0
M  V30 10045 C 967.609 -0.992749 -2.06584 0
M  V30 10046 C 968.622 0.0374902 -1.62757 0
M  V30 10047 O 969.811 -0.199448 -1.77382 0
M  V30 10048 C 966.911 -0.476165 -3.35538 0
M  V30 10049 C 966.084 -1.56934 -4.08277 0
M  V30 10050 C 965.143 -1.05555 -5.15504 0
M  V30 10051 O 964.169 -1.74707 -5.41725 0
M  V30 10052 N 965.371 0.110465 -5.80395 0
M  V30 10053 H 968.136 -1.93752 -2.28649 0
M  V30 10054 H 965.697 -1.15344 -1.13611 0
M  V30 10055 H 967.689 -0.117223 -4.0453 0
M  V30 10056 H 966.259 0.374315 -3.10351 0
M  V30 10057 H 965.479 -2.10051 -3.33575 0
M  V30 10058 H 966.767 -2.30415 -4.53637 0
M  V30 10059 H 966.165 0.688614 -5.61493 0
M  V30 10060 H 964.722 0.41056 -6.50506 0
M  V30 10061 N 968.156 1.1691 -1.05688 0
M  V30 10062 C 969.402 1.87814 -0.780871 0
M  V30 10063 C 969.757 1.79796 0.684926 0
M  V30 10064 O 969.05 1.19853 1.49485 0
M  V30 10065 C 969.244 3.36578 -1.20207 0
M  V30 10066 C 969.073 3.59078 -2.70727 0
M  V30 10067 C 967.843 3.75515 -3.38107 0
M  V30 10068 C 970.041 3.58307 -3.68946 0
M  V30 10069 N 968.023 3.85906 -4.77441 0
M  V30 10070 C 969.394 3.74608 -4.94033 0
M  V30 10071 C 971.449 3.41484 -3.62343 0
M  V30 10072 C 970.152 3.75828 -6.13307 0
M  V30 10073 C 972.178 3.43995 -4.81063 0
M  V30 10074 C 971.54 3.60809 -6.04976 0
M  V30 10075 H 967.639 0.705158 -0.338047 0
M  V30 10076 H 970.223 1.40315 -1.34981 0
M  V30 10077 H 968.394 3.82734 -0.661031 0
M  V30 10078 H 970.126 3.95119 -0.875377 0
M  V30 10079 H 966.881 3.7558 -2.88508 0
M  V30 10080 H 967.305 3.94886 -5.49904 0
M  V30 10081 H 971.947 3.27417 -2.67503 0
M  V30 10082 H 969.665 3.88679 -7.08487 0
M  V30 10083 H 973.251 3.3223 -4.77613 0
M  V30 10084 H 972.131 3.62663 -6.95302 0
M  V30 10085 N 969.634 0.838594 1.33437 0
M  V30 10086 C 970.88 0.444042 1.98494 0
M  V30 10087 C 971.235 -0.985759 1.65229 0
M  V30 10088 O 970.528 -1.67972 0.921736 0
M  V30 10089 C 970.722 0.601425 3.52303 0
M  V30 10090 C 970.551 2.04497 4.00513 0
M  V30 10091 C 969.321 2.68015 4.28364 0
M  V30 10092 C 971.519 3.01367 4.16752 0
M  V30 10093 N 969.501 4.03448 4.62713 0
M  V30 10094 C 970.872 4.21745 4.54457 0
M  V30 10095 C 972.927 2.97776 3.99041 0
M  V30 10096 C 971.63 5.39009 4.76301 0
M  V30 10097 C 973.656 4.14269 4.22061 0
M  V30 10098 C 973.018 5.33402 4.60067 0
M  V30 10099 H 969.117 0.210906 0.753022 0
M  V30 10100 H 971.701 1.0866 1.61558 0
M  V30 10101 H 969.872 -0.0113326 3.88398 0
M  V30 10102 H 971.604 0.178343 4.04307 0
M  V30 10103 H 968.359 2.19153 4.19844 0
M  V30 10104 H 968.783 4.73264 4.84098 0
M  V30 10105 H 973.425 2.06801 3.68773 0
M  V30 10106 H 971.143 6.30529 5.0543 0
M  V30 10107 H 974.729 4.12908 4.09876 0
M  V30 10108 H 973.609 6.22045 4.77525 0
M  V30 10109 N 971.112 -1.45937 0.595003 0
M  V30 10110 C 972.361 -2.01529 0.0829531 0
M  V30 10111 C 972.674 -1.47071 -1.28955 0
M  V30 10112 O 973.88 -1.94561 -1.89363 0
M  V30 10113 C 972.336 -3.59767 0.0976597 0
M  V30 10114 C 971.944 -4.23223 1.46924 0
M  V30 10115 C 973.688 -4.22972 -0.359805 0
M  V30 10116 C 971.595 -5.73576 1.44101 0
M  V30 10117 H 970.525 -0.753508 0.0272425 0
M  V30 10118 H 973.176 -1.67541 0.748473 0
M  V30 10119 H 971.558 -3.90888 -0.634268 0
M  V30 10120 H 972.732 -4.03695 2.22187 0
M  V30 10121 H 971.047 -3.72161 1.86775 0
M  V30 10122 H 973.644 -5.33202 -0.39991 0
M  V30 10123 H 973.987 -3.92765 -1.37991 0
M  V30 10124 H 974.52 -3.96523 0.31845 0
M  V30 10125 H 971.259 -6.08462 2.43831 0
M  V30 10126 H 970.779 -5.95332 0.730767 0
M  V30 10127 H 972.458 -6.36531 1.1592 0
M  V30 10128 N 972.59 -0.333456 -1.54032 0
M  V30 10129 C 973.838 0.265608 -2.00347 0
M  V30 10130 C 974.159 1.51873 -1.2231 0
M  V30 10131 O 973.429 1.93142 -0.327549 0
M  V30 10132 H 972.009 0.101135 -0.740122 0
M  V30 10133 H 974.671 -0.452285 -1.8958 0
M  V30 10134 H 973.767 0.51511 -3.0782 0
M  V30 10135 N 974.068 1.57479 -0.061844 0
M  V30 10136 C 975.031 2.1104 0.894127 0
M  V30 10137 C 976.031 1.03227 1.23292 0
M  V30 10138 O 977.221 1.29256 1.16784 0
M  V30 10139 C 974.353 2.6035 2.20069 0
M  V30 10140 H 975.546 2.96807 0.429619 0
M  V30 10141 H 973.099 1.55181 0.18672 0
M  V30 10142 H 973.834 1.78008 2.71079 0
M  V30 10143 H 973.619 3.39146 1.9678 0
M  V30 10144 H 975.109 3.019 2.88525 0
M  V30 10145 N 975.546 -0.211634 1.56173 0
M  V30 10146 C 976.786 -0.941505 1.81425 0
M  V30 10147 C 977.15 -1.8113 0.636862 0
M  V30 10148 O 978.351 -2.57568 0.768907 0
M  V30 10149 C 976.622 -1.75002 3.11623 0
M  V30 10150 S 978.181 -2.53418 3.58225 0
M  V30 10151 H 974.999 -0.316088 0.636875 0
M  V30 10152 H 977.601 -0.206244 1.94409 0
M  V30 10153 H 976.305 -1.10136 3.95346 0
M  V30 10154 H 975.836 -2.5274 3.01473 0
M  V30 10155 H 977.851 -3.77234 3.22349 0
M  V30 10156 N 977.024 -1.50153 -0.478725 0
M  V30 10157 C 977.972 -1.68975 -1.59844 0
M  V30 10158 C 978.966 -0.555591 -1.6003 0
M  V30 10159 O 980.172 -0.735875 -1.64271 0
M  V30 10160 H 976.547 -0.533211 -0.530274 0
M  V30 10161 H 978.518 -2.62917 -1.41128 0
M  V30 10162 C 977.267 -1.79409 -2.97838 0
M  V30 10163 H 976.59 -2.66066 -2.98411 0
M  V30 10164 H 978.03 -1.96606 -3.75662 0
M  V30 10165 C 976.489 -0.543927 -3.3248 0
M  V30 10166 O 977.019 0.320376 -4.0042 0
M  V30 10167 N 975.225 -0.400217 -2.87831 0
M  V30 10168 H 974.772 -1.10458 -2.32716 0
M  V30 10169 H 974.73 0.435111 -3.11375 0
M  V30 10170 N 978.502 0.731368 -1.39602 0
M  V30 10171 C 979.412 1.87579 -1.40894 0
M  V30 10172 C 980.428 1.71336 -0.303319 0
M  V30 10173 O 981.604 1.93875 -0.545377 0
M  V30 10174 C 978.669 3.23211 -1.25442 0
M  V30 10175 C 977.73 3.51822 -2.46008 0
M  V30 10176 C 976.963 4.80982 -2.31284 0
M  V30 10177 O 977.186 5.54958 -1.31824 0
M  V30 10178 O 976.12 5.09574 -3.20341 0
M  V30 10179 H 979.946 1.89444 -2.3737 0
M  V30 10180 H 977.531 0.879675 -1.20756 0
M  V30 10181 H 979.413 4.04257 -1.18972 0
M  V30 10182 H 978.088 3.22108 -0.320637 0
M  V30 10183 H 976.995 2.70847 -2.58055 0
M  V30 10184 H 978.328 3.57707 -3.38093 0
M  V30 10185 N 979.98 1.24838 0.961938 0
M  V30 10186 C 980.91 1.07053 2.07514 0
M  V30 10187 C 981.891 -0.0182465 1.7009 0
M  V30 10188 O 983.076 0.149915 1.9362 0
M  V30 10189 C 980.206 0.680693 3.40564 0
M  V30 10190 C 979.16 1.71889 3.91967 0
M  V30 10191 C 978.486 1.18395 5.21428 0
M  V30 10192 C 979.786 3.1161 4.19161 0
M  V30 10193 H 981.48 2.00167 2.22651 0
M  V30 10194 H 979.026 0.963799 1.0699 0
M  V30 10195 H 980.979 0.54324 4.17884 0
M  V30 10196 H 979.703 -0.28615 3.25344 0
M  V30 10197 H 978.362 1.84465 3.16809 0
M  V30 10198 H 978.01 0.207543 5.02572 0
M  V30 10199 H 977.71 1.87778 5.56788 0
M  V30 10200 H 979.234 1.05873 6.01351 0
M  V30 10201 H 980.648 3.0223 4.87165 0
M  V30 10202 H 979.045 3.78398 4.65763 0
M  V30 10203 H 980.115 3.59218 3.25715 0
M  V30 10204 N 981.458 -1.16348 1.06306 0
M  V30 10205 C 982.704 -1.87158 0.781007 0
M  V30 10206 C 983.037 -1.81499 -0.690784 0
M  V30 10207 O 982.312 -1.23074 -1.50609 0
M  V30 10208 C 982.595 -3.3672 1.27639 0
M  V30 10209 C 982.448 -3.51069 2.81194 0
M  V30 10210 C 983.767 -4.31122 0.884388 0
M  V30 10211 H 980.886 -0.679586 0.285187 0
M  V30 10212 H 983.528 -1.36756 1.31901 0
M  V30 10213 H 981.678 -3.79775 0.818715 0
M  V30 10214 H 983.35 -3.16952 3.35171 0
M  V30 10215 H 981.593 -2.92976 3.19918 0
M  V30 10216 H 982.264 -4.56105 3.10921 0
M  V30 10217 H 984.74 -3.95969 1.27858 0
M  V30 10218 H 983.616 -5.34279 1.25847 0
M  V30 10219 H 983.877 -4.41598 -0.210673 0
M  V30 10220 N 982.937 -0.845659 -1.3299 0
M  V30 10221 C 984.165 -0.45835 -2.01759 0
M  V30 10222 C 984.58 0.94239 -1.63598 0
M  V30 10223 O 983.937 1.61353 -0.852738 0
M  V30 10224 C 983.988 -0.577311 -3.5686 0
M  V30 10225 O 983.709 -1.92287 -3.93646 0
M  V30 10226 C 985.21 -0.187839 -4.42902 0
M  V30 10227 H 982.43 -0.181165 -0.646081 0
M  V30 10228 H 984.974 -1.14011 -1.6977 0
M  V30 10229 H 983.129 0.0566146 -3.87359 0
M  V30 10230 H 983.543 -1.91322 -4.88361 0
M  V30 10231 H 985.017 -0.322105 -5.51059 0
M  V30 10232 H 985.494 0.870896 -4.30479 0
M  V30 10233 H 986.1 -0.796473 -4.17776 0
M  V30 10234 N 984.415 1.45619 -0.602734 0
M  V30 10235 C 985.325 2.34288 0.120902 0
M  V30 10236 C 986.341 1.50952 0.865414 0
M  V30 10237 O 987.517 1.83768 0.824094 0
M  V30 10238 C 984.582 3.28489 1.10888 0
M  V30 10239 C 983.643 4.2773 0.366853 0
M  V30 10240 C 982.876 5.17429 1.30776 0
M  V30 10241 O 983.099 5.10459 2.54535 0
M  V30 10242 O 982.033 5.96459 0.807464 0
M  V30 10243 H 985.859 2.97559 -0.60765 0
M  V30 10244 H 983.444 1.44922 -0.363019 0
M  V30 10245 H 985.326 3.86549 1.67803 0
M  V30 10246 H 984.001 2.67789 1.81854 0
M  V30 10247 H 982.908 3.73299 -0.244643 0
M  V30 10248 H 984.241 4.91271 -0.302226 0
M  V30 10249 N 985.893 0.34162 1.53853 0
M  V30 10250 C 986.841 -0.531412 2.26448 0
M  V30 10251 C 987.835 -1.10357 1.28521 0
M  V30 10252 O 989.041 -1.04953 1.46236 0
M  V30 10253 H 985.416 -0.190054 0.727588 0
M  V30 10254 H 987.387 0.102922 2.98222 0
M  V30 10255 C 986.136 -1.67154 3.04885 0
M  V30 10256 H 985.459 -1.24055 3.80066 0
M  V30 10257 H 986.899 -2.25762 3.58898 0
M  V30 10258 C 985.358 -2.59984 2.14266 0
M  V30 10259 O 985.888 -3.62181 1.73746 0
M  V30 10260 N 984.094 -2.28625 1.79385 0
M  V30 10261 H 983.641 -1.45559 2.12533 0
M  V30 10262 H 983.599 -2.90995 1.19035 0
M  V30 10263 N 987.371 -1.57444 0.0701946 0
M  V30 10264 C 988.301 -2.15659 -0.895176 0
M  V30 10265 C 989.282 -1.08321 -1.31151 0
M  V30 10266 O 990.467 -1.36349 -1.38284 0
M  V30 10267 C 987.597 -2.71693 -2.16334 0
M  V30 10268 C 986.551 -3.84183 -1.88645 0
M  V30 10269 C 985.877 -4.26814 -3.22078 0
M  V30 10270 C 987.177 -5.08493 -1.19299 0
M  V30 10271 H 988.871 -2.96576 -0.410217 0
M  V30 10272 H 986.417 -1.42662 -0.195872 0
M  V30 10273 H 988.37 -3.11064 -2.84284 0
M  V30 10274 H 987.094 -1.87994 -2.67069 0
M  V30 10275 H 985.753 -3.45314 -1.23101 0
M  V30 10276 H 985.401 -3.40039 -3.70651 0
M  V30 10277 H 985.101 -5.02642 -3.04344 0
M  V30 10278 H 986.625 -4.68799 -3.91228 0
M  V30 10279 H 988.039 -5.4519 -1.77316 0
M  V30 10280 H 986.436 -5.89588 -1.11828 0
M  V30 10281 H 987.506 -4.84595 -0.171839 0
M  V30 10282 N 988.849 0.203349 -1.56283 0
M  V30 10283 C 990.074 0.945548 -1.84592 0
M  V30 10284 C 990.499 1.7641 -0.652772 0
M  V30 10285 O 989.857 1.76867 0.398468 0
M  V30 10286 C 989.905 1.82416 -3.11057 0
M  V30 10287 O 989.009 2.92191 -2.9103 0
M  V30 10288 H 988.35 0.266739 -0.608068 0
M  V30 10289 H 990.88 0.211158 -2.03507 0
M  V30 10290 H 990.89 2.23044 -3.41636 0
M  V30 10291 H 989.565 1.22267 -3.97522 0
M  V30 10292 H 988.142 2.55378 -2.71728 0
M  V30 10293 N 990.327 1.50405 0.470755 0
M  V30 10294 C 991.738 1.54266 1.05162 0
M  V30 10295 C 992.089 0.346359 1.93119 0
M  V30 10296 O 991.214 -0.540699 2.09536 0
M  V30 10297 C 991.809 2.7956 1.91394 0
M  V30 10298 C 990.368 2.86101 2.44588 0
M  V30 10299 C 989.515 2.48557 1.22941 0
M  V30 10300 H 992.466 1.56665 0.253359 0
M  V30 10301 H 992.487 2.61434 2.76464 0
M  V30 10302 H 991.999 3.66611 1.27351 0
M  V30 10303 H 990.1 2.03403 3.12183 0
M  V30 10304 H 990.213 3.88999 2.79672 0
M  V30 10305 H 988.577 2.01003 1.56429 0
M  V30 10306 H 989.36 3.37916 0.605598 0
M  V30 10307 N 991.805 -0.723954 1.39988 0
M  V30 10308 C 993.054 -1.47922 1.3712 0
M  V30 10309 C 993.367 -1.95582 -0.0263665 0
M  V30 10310 O 994.573 -2.70918 -0.177652 0
M  V30 10311 C 993.029 -2.67342 2.40949 0
M  V30 10312 C 992.637 -2.26586 3.86475 0
M  V30 10313 C 994.381 -3.45116 2.47174 0
M  V30 10314 C 992.288 -3.42794 4.81919 0
M  V30 10315 H 991.218 -0.555522 0.509815 0
M  V30 10316 H 993.869 -0.788692 1.65686 0
M  V30 10317 H 992.251 -3.38524 2.0547 0
M  V30 10318 H 993.425 -1.62878 4.31054 0
M  V30 10319 H 991.74 -1.61876 3.83647 0
M  V30 10320 H 994.337 -4.31573 3.15672 0
M  V30 10321 H 994.68 -3.8835 1.49966 0
M  V30 10322 H 995.213 -2.80971 2.81602 0
M  V30 10323 H 991.952 -3.046 5.8043 0
M  V30 10324 H 991.472 -4.05445 4.42012 0
M  V30 10325 H 993.151 -4.08977 5.01345 0
M  V30 10326 N 993.283 -1.25346 -0.955304 0
M  V30 10327 C 994.511 -1.12793 -1.73451 0
M  V30 10328 C 994.926 0.318344 -1.86097 0
M  V30 10329 O 994.283 1.21897 -1.35821 0
M  V30 10330 C 994.334 -1.77603 -3.14864 0
M  V30 10331 O 994.055 -3.16577 -3.02837 0
M  V30 10332 C 995.556 -1.70821 -4.09066 0
M  V30 10333 H 992.776 -0.393457 -0.543537 0
M  V30 10334 H 995.32 -1.65696 -1.19855 0
M  V30 10335 H 993.475 -1.28673 -3.65407 0
M  V30 10336 H 993.889 -3.48433 -3.92039 0
M  V30 10337 H 995.363 -2.2083 -5.05903 0
M  V30 10338 H 995.84 -0.671858 -4.34031 0
M  V30 10339 H 996.446 -2.19237 -3.64438 0
M  V30 10340 N 994.761 1.15782 -1.06922 0
M  V30 10341 C 995.708 2.2038 -0.685659 0
M  V30 10342 C 996.678 1.62972 0.320816 0
M  V30 10343 O 997.863 1.8966 0.208258 0
M  V30 10344 C 995.003 3.44995 -0.084998 0
M  V30 10345 C 994.116 4.16621 -1.14242 0
M  V30 10346 C 993.251 5.28773 -0.507226 0
M  V30 10347 C 992.29 5.92209 -1.54774 0
M  V30 10348 N 991.427 6.9584 -0.935443 0
M  V30 10349 H 996.267 2.5254 -1.58201 0
M  V30 10350 H 993.804 1.24031 -0.790864 0
M  V30 10351 H 995.762 4.16254 0.280845 0
M  V30 10352 H 994.392 3.13365 0.774725 0
M  V30 10353 H 993.444 3.43903 -1.62589 0
M  V30 10354 H 994.756 4.59884 -1.93154 0
M  V30 10355 H 993.91 6.06635 -0.0887719 0
M  V30 10356 H 992.649 4.8669 0.313704 0
M  V30 10357 H 991.654 5.13063 -1.97602 0
M  V30 10358 H 992.879 6.3637 -2.37088 0
M  V30 10359 H 990.825 6.5586 -0.135339 0
M  V30 10360 H 990.742 7.37508 -1.66186 0
M  V30 10361 H 992.01 7.77611 -0.542346 0
M  V30 10362 N 996.239 0.8527 1.3254 0
M  V30 10363 C 997.467 0.469044 2.01513 0
M  V30 10364 C 997.882 -0.933701 1.64096 0
M  V30 10365 O 997.239 -1.60898 0.861283 0
M  V30 10366 C 997.29 0.596228 3.56549 0
M  V30 10367 O 997.011 1.94371 3.92621 0
M  V30 10368 C 998.512 0.211324 4.42796 0
M  V30 10369 H 995.732 0.184589 0.645111 0
M  V30 10370 H 998.276 1.1491 1.69163 0
M  V30 10371 H 996.431 -0.0360712 3.87383 0
M  V30 10372 H 996.845 1.93909 4.87339 0
M  V30 10373 H 998.319 0.351324 5.50881 0
M  V30 10374 H 998.796 -0.848055 4.30935 0
M  V30 10375 H 999.402 0.818617 4.17347 0
M  V30 10376 N 997.718 -1.45297 0.610449 0
M  V30 10377 C 999.129 -1.85715 0.191488 0
M  V30 10378 C 999.48 -1.51036 -1.25229 0
M  V30 10379 O 998.605 -0.938422 -1.94994 0
M  V30 10380 C 999.2 -3.37082 0.340747 0
M  V30 10381 C 997.759 -3.76393 -0.0235433 0
M  V30 10382 C 996.906 -2.69237 0.663849 0
M  V30 10383 H 999.857 -1.36058 0.816948 0
M  V30 10384 H 999.878 -3.78105 -0.426233 0
M  V30 10385 H 999.39 -3.62291 1.39164 0
M  V30 10386 H 997.491 -3.56801 -1.07351 0
M  V30 10387 H 997.604 -4.77653 0.372102 0
M  V30 10388 H 995.968 -2.54499 0.101204 0
M  V30 10389 H 996.751 -2.97281 1.71694 0
M  V30 10390 N 999.196 -0.349774 -1.5367 0
M  V30 10391 C 1000.11 0.512421 -2.28935 0
M  V30 10392 C 1001.12 1.1065 -1.34286 0
M  V30 10393 O 1002.3 1.12084 -1.67329 0
M  V30 10394 C 999.363 1.64449 -3.05217 0
M  V30 10395 C 998.424 1.07956 -4.15505 0
M  V30 10396 C 997.657 2.15768 -4.88139 0
M  V30 10397 O 997.88 3.366 -4.60496 0
M  V30 10398 O 996.814 1.79712 -5.74445 0
M  V30 10399 H 1000.64 -0.0996001 -3.03537 0
M  V30 10400 H 998.225 -0.114629 -1.4896 0
M  V30 10401 H 1000.11 2.30302 -3.52901 0
M  V30 10402 H 998.782 2.24221 -2.33467 0
M  V30 10403 H 997.689 0.385381 -3.7211 0
M  V30 10404 H 999.022 0.526621 -4.89375 0
M  V30 10405 N 1000.67 1.57404 -0.0785433 0
M  V30 10406 C 1001.9 1.97787 0.596995 0
M  V30 10407 C 1002.31 0.955904 1.63276 0
M  V30 10408 O 1001.65 -0.0649169 1.83585 0
M  V30 10409 C 1001.72 3.34499 1.31723 0
M  V30 10410 C 1001.38 4.54933 0.434144 0
M  V30 10411 C 1002.38 5.18969 -0.311015 0
M  V30 10412 C 1000.06 5.01029 0.357046 0
M  V30 10413 C 1002.06 6.27457 -1.12142 0
M  V30 10414 C 999.744 6.09389 -0.457029 0
M  V30 10415 C 1000.74 6.72466 -1.19493 0
M  V30 10416 O 1000.43 7.78738 -1.99556 0
M  V30 10417 H 1000.16 0.655294 0.166028 0
M  V30 10418 H 1002.72 2.04855 -0.149517 0
M  V30 10419 H 1000.95 3.24064 2.10996 0
M  V30 10420 H 1002.63 3.5944 1.88567 0
M  V30 10421 H 1003.4 4.84297 -0.261084 0
M  V30 10422 H 999.28 4.51706 0.921026 0
M  V30 10423 H 1002.82 6.76622 -1.69788 0
M  V30 10424 H 998.721 6.43494 -0.508499 0
M  V30 10425 H 999.489 7.95648 -1.9206 0
M  V30 10426 N 1002.15 -0.195058 1.56388 0
M  V30 10427 C 1003.1 -1.24175 1.94549 0
M  V30 10428 C 1004.07 -1.45229 0.806089 0
M  V30 10429 O 1005.25 -1.58362 1.06425 0
M  V30 10430 C 1002.39 -2.58145 2.29031 0
M  V30 10431 C 1001.51 -2.44669 3.56035 0
M  V30 10432 C 1000.64 -3.71342 3.7984 0
M  V30 10433 C 999.681 -3.52699 5.0027 0
M  V30 10434 N 998.818 -4.71385 5.20328 0
M  V30 10435 H 1003.66 -0.909319 2.83788 0
M  V30 10436 H 1001.19 -0.437641 1.40439 0
M  V30 10437 H 1003.15 -3.36195 2.4704 0
M  V30 10438 H 1001.78 -2.8943 1.42933 0
M  V30 10439 H 1000.83 -1.57916 3.46073 0
M  V30 10440 H 1002.15 -2.26827 4.44242 0
M  V30 10441 H 1001.3 -4.57832 3.98088 0
M  V30 10442 H 1000.04 -3.92138 2.89964 0
M  V30 10443 H 999.045 -2.64594 4.81944 0
M  V30 10444 H 1000.27 -3.33349 5.91655 0
M  V30 10445 H 998.216 -4.92444 4.33399 0
M  V30 10446 H 998.133 -4.56368 6.02714 0
M  V30 10447 H 999.401 -5.59226 5.43035 0
M  V30 10448 N 1003.63 -1.50653 -0.462772 0
M  V30 10449 C 1004.86 -1.65586 -1.23551 0
M  V30 10450 C 1005.27 -0.342012 -1.86083 0
M  V30 10451 O 1004.61 0.686893 -1.70374 0
M  V30 10452 C 1004.67 -2.69555 -2.37867 0
M  V30 10453 C 1004.34 -4.1288 -1.95906 0
M  V30 10454 C 1005.33 -4.98483 -1.47685 0
M  V30 10455 C 1003.02 -4.58843 -2.04373 0
M  V30 10456 C 1005.01 -6.281 -1.08484 0
M  V30 10457 C 1002.7 -5.88464 -1.64783 0
M  V30 10458 C 1003.7 -6.72918 -1.16918 0
M  V30 10459 O 1003.39 -8.00119 -0.778798 0
M  V30 10460 H 1003.12 -0.559438 -0.37948 0
M  V30 10461 H 1005.67 -1.9768 -0.557816 0
M  V30 10462 H 1003.9 -2.3272 -3.08834 0
M  V30 10463 H 1005.59 -2.73624 -2.99808 0
M  V30 10464 H 1006.36 -4.64186 -1.40558 0
M  V30 10465 H 1002.24 -3.93247 -2.40577 0
M  V30 10466 H 1005.78 -6.93972 -0.710524 0
M  V30 10467 H 1001.68 -6.22281 -1.71571 0
M  V30 10468 H 1002.44 -8.1346 -0.906911 0
M  V30 10469 N 1005.11 0.71652 -1.4037 0
M  V30 10470 C 1006.35 1.48883 -1.40047 0
M  V30 10471 C 1006.71 1.92 -0.00158027 0
M  V30 10472 O 1007.91 2.68501 0.126765 0
M  V30 10473 C 1006.18 2.68265 -2.36154 0
M  V30 10474 S 1007.74 3.57684 -2.5418 0
M  V30 10475 H 1004.56 0.509035 -0.496391 0
M  V30 10476 H 1007.16 0.837967 -1.76631 0
M  V30 10477 H 1005.87 2.34759 -3.36625 0
M  V30 10478 H 1005.4 3.38264 -2.0085 0
M  V30 10479 H 1007.41 4.62653 -1.79352 0
M  V30 10480 N 1006.59 1.25851 0.948643 0
M  V30 10481 C 1007.55 1.0683 2.0278 0
M  V30 10482 C 1008.55 0.0191016 1.60789 0
M  V30 10483 O 1009.74 0.261836 1.72221 0
M  V30 10484 C 1006.87 0.623318 3.35153 0
M  V30 10485 H 1008.06 2.02635 2.21086 0
M  V30 10486 H 1005.62 1.08343 1.12657 0
M  V30 10487 H 1006.35 -0.337053 3.22544 0
M  V30 10488 H 1006.14 1.38082 3.66982 0
M  V30 10489 H 1007.63 0.511854 4.14451 0
M  V30 10490 N 1008.06 -1.15214 1.07534 0
M  V30 10491 C 1009.31 -1.86319 0.800814 0
M  V30 10492 C 1009.64 -1.82221 -0.671494 0
M  V30 10493 O 1008.92 -1.24664 -1.49295 0
M  V30 10494 C 1009.2 -3.35347 1.31203 0
M  V30 10495 C 1009.05 -3.48067 2.84902 0
M  V30 10496 C 1010.37 -4.3016 0.930064 0
M  V30 10497 H 1007.49 -0.676523 0.292379 0
M  V30 10498 H 1010.13 -1.35349 1.33344 0
M  V30 10499 H 1008.28 -3.78886 0.858949 0
M  V30 10500 H 1009.96 -3.13379 3.38514 0
M  V30 10501 H 1008.2 -2.89566 3.23008 0
M  V30 10502 H 1008.87 -4.52782 3.15741 0
M  V30 10503 H 1011.35 -3.94591 1.3205 0
M  V30 10504 H 1010.22 -5.32914 1.31507 0
M  V30 10505 H 1010.48 -4.41796 -0.163824 0
M  V30 10506 N 1009.54 -0.859717 -1.32086 0
M  V30 10507 C 1010.96 -0.55025 -1.49815 0
M  V30 10508 C 1011.16 0.917966 -1.79376 0
M  V30 10509 O 1010.21 1.70073 -1.86632 0
M  V30 10510 C 1011.53 -1.44161 -2.6389 0
M  V30 10511 C 1013.08 -1.44257 -2.77775 0
M  V30 10512 C 1013.55 -2.31926 -3.94936 0
M  V30 10513 N 1015.04 -2.2975 -4.02206 0
M  V30 10514 C 1015.78 -2.9431 -4.92107 0
M  V30 10515 N 1015.27 -3.68001 -5.86981 0
M  V30 10516 N 1017.07 -2.83671 -4.8527 0
M  V30 10517 H 1009.22 -1.80987 -1.11164 0
M  V30 10518 H 1011.48 -0.773313 -0.548353 0
M  V30 10519 H 1011.19 -2.48588 -2.4879 0
M  V30 10520 H 1011.06 -1.13268 -3.59792 0
M  V30 10521 H 1013.45 -0.405923 -2.92295 0
M  V30 10522 H 1013.53 -1.79169 -1.82571 0
M  V30 10523 H 1013.17 -3.35661 -3.81174 0
M  V30 10524 H 1013.1 -1.94344 -4.89426 0
M  V30 10525 H 1015.59 -1.76177 -3.3432 0
M  V30 10526 H 1015.91 -4.14417 -6.52287 0
M  V30 10527 H 1014.25 -3.72109 -5.86992 0
M  V30 10528 H 1017.44 -2.25647 -4.10123 0
M  V30 10529 H 1017.61 -3.34267 -5.5513 0
M  V30 10530 N 1011.02 1.44971 -0.618145 0
M  V30 10531 C 1012.27 2.02458 -0.117656 0
M  V30 10532 C 1012.6 1.48413 1.25248 0
M  V30 10533 O 1011.87 0.662997 1.82851 0
M  V30 10534 C 1012.16 3.59987 -0.0901897 0
M  V30 10535 C 1012.01 4.24343 -1.49175 0
M  V30 10536 C 1013.33 4.36099 0.592121 0
M  V30 10537 H 1010.45 0.735672 -0.0442291 0
M  V30 10538 H 1013.09 1.727 -0.792138 0
M  V30 10539 H 1011.24 3.85471 0.484175 0
M  V30 10540 H 1012.91 4.10009 -2.114 0
M  V30 10541 H 1011.16 3.82337 -2.04941 0
M  V30 10542 H 1011.83 5.33298 -1.42468 0
M  V30 10543 H 1014.3 4.1597 0.103813 0
M  V30 10544 H 1013.18 5.45822 0.580481 0
M  V30 10545 H 1013.44 4.09746 1.66015 0
M  V30 10546 N 1012.5 0.357919 1.53482 0
M  V30 10547 C 1013.41 -0.500273 2.29204 0
M  V30 10548 C 1014.42 -1.09936 1.3487 0
M  V30 10549 O 1015.6 -1.11195 1.67921 0
M  V30 10550 C 1012.67 -1.62828 3.06085 0
M  V30 10551 C 1011.73 -1.05751 4.16071 0
M  V30 10552 C 1010.96 -2.13176 4.89277 0
M  V30 10553 O 1011.18 -3.34153 4.62274 0
M  V30 10554 O 1010.12 -1.76663 5.7539 0
M  V30 10555 H 1013.94 0.115696 3.0348 0
M  V30 10556 H 1011.53 0.122527 1.48897 0
M  V30 10557 H 1013.41 -2.28427 3.54117 0
M  V30 10558 H 1012.08 -2.22979 2.34653 0
M  V30 10559 H 1010.99 -0.365642 3.72309 0
M  V30 10560 H 1012.32 -0.500661 4.89647 0
M  V30 10561 N 1013.98 -1.5736 0.0868897 0
M  V30 10562 C 1015.39 -1.81356 -0.443499 0
M  V30 10563 C 1015.74 -1.00192 -1.68689 0
M  V30 10564 O 1014.86 -0.228863 -2.15186 0
M  V30 10565 C 1015.46 -3.28941 -0.811387 0
M  V30 10566 C 1014.02 -3.53729 -1.28656 0
M  V30 10567 C 1013.16 -2.75891 -0.279153 0
M  V30 10568 H 1016.12 -1.55594 0.312427 0
M  V30 10569 H 1016.14 -3.41815 -1.6716 0
M  V30 10570 H 1015.65 -3.87987 0.0937598 0
M  V30 10571 H 1013.75 -3.00005 -2.2097 0
M  V30 10572 H 1013.86 -4.62396 -1.25406 0
M  V30 10573 H 1012.23 -2.4311 -0.759595 0
M  V30 10574 H 1013.01 -3.37682 0.618529 0
M  V30 10575 N 1015.45 0.186762 -1.56489 0
M  V30 10576 C 1016.7 0.904077 -1.80303 0
M  V30 10577 C 1017.02 1.84073 -0.661538 0
M  V30 10578 O 1018.22 2.59928 -0.784197 0
M  V30 10579 C 1016.68 1.65806 -3.19432 0
M  V30 10580 C 1016.29 0.765807 -4.41406 0
M  V30 10581 C 1018.03 2.36451 -3.52549 0
M  V30 10582 C 1015.94 1.51913 -5.71556 0
M  V30 10583 H 1014.87 0.34133 -0.672317 0
M  V30 10584 H 1017.52 0.157218 -1.82825 0
M  V30 10585 H 1015.9 2.44911 -3.11183 0
M  V30 10586 H 1017.07 0.0128225 -4.60798 0
M  V30 10587 H 1015.39 0.169772 -4.16054 0
M  V30 10588 H 1017.99 2.93378 -4.47027 0
M  V30 10589 H 1018.33 3.11044 -2.7669 0
M  V30 10590 H 1018.86 1.64305 -3.62283 0
M  V30 10591 H 1015.6 0.815829 -6.50403 0
M  V30 10592 H 1015.12 2.24583 -5.56168 0
M  V30 10593 H 1016.8 2.07073 -6.12968 0
M  V30 10594 N 1016.93 1.50896 0.454776 0
M  V30 10595 C 1017.9 1.70377 1.53312 0
M  V30 10596 C 1018.9 0.57408 1.50203 0
M  V30 10597 O 1020.09 0.841374 1.52534 0
M  V30 10598 C 1017.22 1.74411 2.92905 0
M  V30 10599 H 1018.41 2.66599 1.37349 0
M  V30 10600 H 1015.96 1.40622 0.68228 0
M  V30 10601 H 1016.7 0.799408 3.14293 0
M  V30 10602 H 1016.48 2.56496 2.96568 0
M  V30 10603 H 1017.97 1.91382 3.71164 0
M  V30 10604 N 1018.41 -0.709066 1.40748 0
M  V30 10605 C 1019.69 -1.4626 1.29874 0
M  V30 10606 C 1020.07 -2.10949 -0.0799322 0
M  V30 10607 O 1019.42 -2.00651 -1.09323 0
M  V30 10608 C 1019.63 -2.49302 2.44232 0
M  V30 10609 C 1020.97 -3.14945 2.84771 0
M  V30 10610 O 1022 -2.59623 2.43873 0
M  V30 10611 O 1020.86 -4.15111 3.5545 0
M  V30 10612 H 1017.95 -0.650716 0.51039 0
M  V30 10613 H 1020.5 -0.740687 1.52682 0
M  V30 10614 H 1019.27 -2.00063 3.36289 0
M  V30 10615 H 1018.89 -3.29021 2.23229 0
M  V30 10616 N 1019.89 -1.26353 -0.941956 0
M  V30 10617 C 1020.82 -1.03634 -2.04432 0
M  V30 10618 C 1021.83 0.00295864 -1.628 0
M  V30 10619 O 1023.02 -0.237029 -1.76919 0
M  V30 10620 C 1020.12 -0.547231 -3.34453 0
M  V30 10621 C 1019.3 -1.65559 -4.04857 0
M  V30 10622 C 1018.36 -1.16466 -5.13149 0
M  V30 10623 O 1017.38 -1.86158 -5.37898 0
M  V30 10624 N 1018.58 -0.0126703 -5.80499 0
M  V30 10625 H 1021.35 -1.98558 -2.24488 0
M  V30 10626 H 1018.91 -1.17728 -1.11138 0
M  V30 10627 H 1020.9 -0.203004 -4.04191 0
M  V30 10628 H 1019.47 0.308401 -3.11075 0
M  V30 10629 H 1018.69 -2.17079 -3.29044 0
M  V30 10630 H 1019.98 -2.39985 -4.48647 0
M  V30 10631 H 1019.38 0.569358 -5.62828 0
M  V30 10632 H 1017.93 0.272486 -6.5123 0
M  V30 10633 N 1021.37 1.14642 -1.08144 0
M  V30 10634 C 1022.78 1.37604 -0.808537 0
M  V30 10635 C 1022.98 1.92868 0.583452 0
M  V30 10636 O 1022.04 2.13964 1.34073 0
M  V30 10637 C 1023.35 2.3396 -1.889 0
M  V30 10638 C 1024.9 2.47605 -1.9147 0
M  V30 10639 C 1025.38 3.47258 -2.98623 0
M  V30 10640 N 1026.87 3.548 -2.97777 0
M  V30 10641 C 1027.6 4.31751 -3.77331 0
M  V30 10642 N 1027.1 5.11966 -4.66757 0
M  V30 10643 N 1028.89 4.2692 -3.65645 0
M  V30 10644 H 1021.04 0.771154 -1.97906 0
M  V30 10645 H 1023.3 0.401694 -0.858688 0
M  V30 10646 H 1023.01 2.00484 -2.88962 0
M  V30 10647 H 1022.88 3.33833 -1.756 0
M  V30 10648 H 1025.27 2.80375 -0.920548 0
M  V30 10649 H 1025.35 1.47702 -2.08848 0
M  V30 10650 H 1025 3.15223 -3.98243 0
M  V30 10651 H 1024.93 4.46935 -2.7849 0
M  V30 10652 H 1027.42 2.97553 -2.3296 0
M  V30 10653 H 1027.73 5.67951 -5.24072 0
M  V30 10654 H 1026.08 5.11245 -4.70801 0
M  V30 10655 H 1029.27 3.63322 -2.95152 0
M  V30 10656 H 1029.44 4.8664 -4.27885 0
M  V30 10657 N 1022.85 0.866709 1.31628 0
M  V30 10658 C 1023.81 0.325041 2.26883 0
M  V30 10659 C 1024.81 -0.522133 1.52087 0
M  V30 10660 O 1026 -0.331908 1.71009 0
M  V30 10661 C 1023.13 -0.538756 3.36616 0
M  V30 10662 H 1024.32 1.16592 2.76308 0
M  V30 10663 H 1021.88 0.642029 1.42505 0
M  V30 10664 H 1022.61 -1.40096 2.92478 0
M  V30 10665 H 1022.4 0.0678115 3.92041 0
M  V30 10666 H 1023.89 -0.910123 4.07562 0
M  V30 10667 N 1024.32 -1.44642 0.625825 0
M  V30 10668 C 1025.29 -2.29085 -0.072526 0
M  V30 10669 C 1026.29 -1.40755 -0.777467 0
M  V30 10670 O 1027.48 -1.62684 -0.622861 0
M  V30 10671 C 1024.61 -3.22212 -1.1132 0
M  V30 10672 H 1025.8 -2.92317 0.670124 0
M  V30 10673 H 1023.35 -1.51466 0.38571 0
M  V30 10674 H 1024.09 -2.63819 -1.88601 0
M  V30 10675 H 1023.87 -3.87299 -0.611709 0
M  V30 10676 H 1025.36 -3.8566 -1.60175 0
M  V30 10677 N 1025.8 -0.366053 -1.5329 0
M  V30 10678 C 1026.71 0.488111 -2.29466 0
M  V30 10679 C 1027.73 1.09219 -1.35452 0
M  V30 10680 O 1028.9 1.10303 -1.68509 0
M  V30 10681 C 1025.97 1.61202 -3.06944 0
M  V30 10682 C 1025.03 1.03543 -4.16626 0
M  V30 10683 C 1024.26 2.10578 -4.904 0
M  V30 10684 O 1024.49 3.31697 -4.6404 0
M  V30 10685 O 1023.42 1.73609 -5.76319 0
M  V30 10686 H 1027.25 -0.131789 -3.03414 0
M  V30 10687 H 1024.83 -0.130421 -1.4883 0
M  V30 10688 H 1026.71 2.26546 -3.55324 0
M  V30 10689 H 1025.39 2.21732 -2.35832 0
M  V30 10690 H 1024.29 0.345892 -3.72498 0
M  V30 10691 H 1025.63 0.474687 -4.89906 0
M  V30 10692 N 1027.28 1.57312 -0.0952337 0
M  V30 10693 C 1028.21 2.11059 0.893678 0
M  V30 10694 C 1029.22 1.04787 1.24594 0
M  V30 10695 O 1030.41 1.32233 1.19903 0
M  V30 10696 C 1027.51 2.57552 2.20272 0
M  V30 10697 C 1026.69 3.87661 2.02578 0
M  V30 10698 C 1025.75 4.2 3.16996 0
M  V30 10699 O 1024.77 4.89219 2.90953 0
M  V30 10700 N 1025.97 3.75414 4.42769 0
M  V30 10701 H 1028.74 2.96532 0.434632 0
M  V30 10702 H 1026.3 1.6165 0.0898661 0
M  V30 10703 H 1028.29 2.76232 2.95766 0
M  V30 10704 H 1026.86 1.7709 2.576 0
M  V30 10705 H 1026.08 3.78128 1.11413 0
M  V30 10706 H 1027.37 4.7278 1.88032 0
M  V30 10707 H 1026.77 3.1954 4.66809 0
M  V30 10708 H 1025.32 3.99249 5.15212 0
M  V30 10709 N 1028.76 -0.17846 1.56586 0
M  V30 10710 C 1029.99 -0.910674 1.85446 0
M  V30 10711 C 1030.4 -1.76647 0.677675 0
M  V30 10712 O 1029.74 -1.80086 -0.362584 0
M  V30 10713 C 1029.8 -1.84363 3.08627 0
M  V30 10714 C 1029.46 -1.16814 4.41818 0
M  V30 10715 C 1030.46 -0.53703 5.17119 0
M  V30 10716 C 1028.15 -1.16703 4.88555 0
M  V30 10717 C 1030.14 0.0861778 6.37342 0
M  V30 10718 C 1027.83 -0.539992 6.0871 0
M  V30 10719 C 1028.83 0.0855135 6.82946 0
M  V30 10720 O 1028.51 0.70268 8.00823 0
M  V30 10721 H 1028.25 -0.270377 0.619574 0
M  V30 10722 H 1030.8 -0.185591 2.0456 0
M  V30 10723 H 1029.03 -2.60884 2.85441 0
M  V30 10724 H 1030.72 -2.44506 3.23993 0
M  V30 10725 H 1031.48 -0.529915 4.82096 0
M  V30 10726 H 1027.36 -1.64329 4.30717 0
M  V30 10727 H 1030.91 0.575011 6.95226 0
M  V30 10728 H 1026.8 -0.544666 6.43198 0
M  V30 10729 H 1027.57 0.601224 8.16289 0
M  V30 10730 N 1030.24 -1.51135 -0.446768 0
M  V30 10731 C 1031.48 -1.63578 -1.19875 0
M  V30 10732 C 1031.81 -0.346478 -1.91084 0
M  V30 10733 O 1031.09 0.653447 -1.83195 0
M  V30 10734 C 1031.37 -2.83275 -2.22323 0
M  V30 10735 C 1031.23 -4.22155 -1.55259 0
M  V30 10736 C 1032.54 -2.98496 -3.23401 0
M  V30 10737 H 1029.66 -0.595333 -0.434452 0
M  V30 10738 H 1032.31 -1.83593 -0.48923 0
M  V30 10739 H 1030.46 -2.6634 -2.82834 0
M  V30 10740 H 1032.13 -4.50736 -0.981571 0
M  V30 10741 H 1030.37 -4.25288 -0.855122 0
M  V30 10742 H 1031.04 -5.01882 -2.29823 0
M  V30 10743 H 1033.52 -3.14079 -2.72935 0
M  V30 10744 H 1032.39 -3.83828 -3.92386 0
M  V30 10745 H 1032.65 -2.10157 -3.88956 0
M  V30 10746 N 1031.71 0.701592 -1.41122 0
M  V30 10747 C 1032.96 1.45722 -1.39456 0
M  V30 10748 C 1033.28 1.95599 -0.00475228 0
M  V30 10749 O 1034.48 2.71166 0.134529 0
M  V30 10750 C 1032.94 2.63475 -2.45172 0
M  V30 10751 C 1032.55 2.20409 -3.90031 0
M  V30 10752 C 1034.29 3.4114 -2.52633 0
M  V30 10753 C 1032.2 3.35084 -4.87312 0
M  V30 10754 H 1031.13 0.547341 -0.518588 0
M  V30 10755 H 1033.78 0.762233 -1.6692 0
M  V30 10756 H 1032.16 3.35212 -2.10829 0
M  V30 10757 H 1033.33 1.56 -4.3359 0
M  V30 10758 H 1031.65 1.55752 -3.86174 0
M  V30 10759 H 1034.25 4.26496 -3.22498 0
M  V30 10760 H 1034.59 3.85915 -1.56125 0
M  V30 10761 H 1035.12 2.76456 -2.86037 0
M  V30 10762 H 1031.86 2.95327 -5.85203 0
M  V30 10763 H 1031.38 3.98362 -4.48406 0
M  V30 10764 H 1033.06 4.00949 -5.07788 0
M  V30 10765 N 1033.19 1.2685 0.935242 0
M  V30 10766 C 1034.47 1.03483 1.65984 0
M  V30 10767 C 1034.85 -0.432859 2.06614 0
M  V30 10768 O 1034.2 -1.4145 1.79455 0
M  V30 10769 C 1034.41 1.98924 2.86758 0
M  V30 10770 C 1035.75 2.2787 3.58274 0
M  V30 10771 O 1036.78 1.96838 2.96873 0
M  V30 10772 O 1035.64 2.80734 4.68882 0
M  V30 10773 H 1032.73 0.393932 0.72715 0
M  V30 10774 H 1035.28 1.38085 0.986445 0
M  V30 10775 H 1034.05 2.9794 2.53668 0
M  V30 10776 H 1033.67 1.64839 3.6182 0
M  V30 10777 N 1034.67 -1.14067 1.0875 0
M  V30 10778 C 1035.58 -2.22871 0.732498 0
M  V30 10779 C 1036.6 -1.72008 -0.26253 0
M  V30 10780 O 1037.77 -2.01123 -0.105601 0
M  V30 10781 C 1034.84 -3.46371 0.150913 0
M  V30 10782 C 1033.9 -4.12158 1.201 0
M  V30 10783 C 1033.13 -5.29763 0.647075 0
M  V30 10784 O 1033.35 -5.67911 -0.532307 0
M  V30 10785 O 1032.29 -5.8542 1.3988 0
M  V30 10786 H 1036.11 -2.55596 1.64025 0
M  V30 10787 H 1033.7 -1.22065 0.861417 0
M  V30 10788 H 1035.58 -4.21055 -0.170442 0
M  V30 10789 H 1034.26 -3.15362 -0.729948 0
M  V30 10790 H 1033.16 -3.39332 1.57494 0
M  V30 10791 H 1034.5 -4.47282 2.05426 0
M  V30 10792 N 1036.15 -0.873678 -1.31166 0
M  V30 10793 C 1037.38 -0.500317 -2.0045 0
M  V30 10794 C 1037.79 0.912716 -1.65729 0
M  V30 10795 O 1037.13 1.61001 -0.884563 0
M  V30 10796 C 1037.19 -0.58197 -3.54758 0
M  V30 10797 C 1036.86 -1.95728 -4.12964 0
M  V30 10798 C 1037.85 -2.92526 -4.29796 0
M  V30 10799 C 1035.54 -2.2596 -4.48606 0
M  V30 10800 C 1037.53 -4.17697 -4.81464 0
M  V30 10801 C 1035.22 -3.5138 -4.99976 0
M  V30 10802 C 1036.22 -4.47064 -5.16356 0
M  V30 10803 O 1035.9 -5.70259 -5.66621 0
M  V30 10804 H 1035.64 -0.193044 -0.64785 0
M  V30 10805 H 1038.19 -1.17768 -1.68285 0
M  V30 10806 H 1036.42 0.152326 -3.864 0
M  V30 10807 H 1038.11 -0.221506 -4.05295 0
M  V30 10808 H 1038.88 -2.70479 -4.02574 0
M  V30 10809 H 1034.75 -1.52258 -4.3513 0
M  V30 10810 H 1038.3 -4.92389 -4.94165 0
M  V30 10811 H 1034.2 -3.73269 -5.26631 0
M  V30 10812 H 1034.96 -5.72483 -5.84983 0
M  V30 10813 N 1037.63 1.44308 -0.633487 0
M  V30 10814 C 1038.57 2.32455 0.0821956 0
M  V30 10815 C 1039.57 1.47482 0.833388 0
M  V30 10816 O 1040.77 1.63812 0.746021 0
M  V30 10817 H 1037.15 0.750631 0.045352 0
M  V30 10818 H 1039.12 2.90566 -0.679282 0
M  V30 10819 C 1037.87 3.31512 1.04858 0
M  V30 10820 H 1037.19 3.96908 0.479979 0
M  V30 10821 H 1038.63 3.95865 1.51879 0
M  V30 10822 C 1037.09 2.60615 2.13498 0
M  V30 10823 O 1037.62 2.40682 3.21613 0
M  V30 10824 N 1035.83 2.20315 1.89499 0
M  V30 10825 H 1035.37 2.36726 1.01581 0
M  V30 10826 H 1035.33 1.73205 2.62388 0
M  V30 10827 N 1039.1 0.374177 1.53094 0
M  V30 10828 C 1040.05 -0.468226 2.26001 0
M  V30 10829 C 1041.02 -1.07041 1.27009 0
M  V30 10830 O 1042.21 -1.10129 1.55809 0
M  V30 10831 C 1039.35 -1.59754 3.05896 0
M  V30 10832 C 1038.46 -1.01969 4.19793 0
M  V30 10833 C 1037.59 -2.11882 4.87113 0
M  V30 10834 C 1036.63 -1.51607 5.93028 0
M  V30 10835 N 1035.77 -2.55388 6.54004 0
M  V30 10836 H 1040.61 0.159983 2.9757 0
M  V30 10837 H 1038.15 0.0907196 1.4682 0
M  V30 10838 H 1040.11 -2.26288 3.50499 0
M  V30 10839 H 1038.74 -2.19628 2.36565 0
M  V30 10840 H 1037.79 -0.244386 3.79614 0
M  V30 10841 H 1039.1 -0.539089 4.95878 0
M  V30 10842 H 1038.25 -2.86218 5.34943 0
M  V30 10843 H 1036.99 -2.63297 4.10519 0
M  V30 10844 H 1036 -0.757891 5.44551 0
M  V30 10845 H 1037.22 -1.01006 6.71546 0
M  V30 10846 H 1035.17 -3.06 5.80258 0
M  V30 10847 H 1035.09 -2.12039 7.25655 0
M  V30 10848 H 1036.35 -3.294 7.06481 0
M  V30 10849 N 1040.58 -1.57259 0.103575 0
M  V30 10850 C 1041.51 -2.17509 -0.84923 0
M  V30 10851 C 1042.49 -1.11079 -1.28824 0
M  V30 10852 O 1043.68 -1.39252 -1.35361 0
M  V30 10853 C 1040.81 -2.76221 -2.10522 0
M  V30 10854 C 1039.76 -3.88098 -1.80454 0
M  V30 10855 C 1039.09 -4.33549 -3.12952 0
M  V30 10856 C 1040.39 -5.10909 -1.08486 0
M  V30 10857 H 1042.08 -2.9738 -0.347217 0
M  V30 10858 H 1039.63 -1.43045 -0.165568 0
M  V30 10859 H 1041.58 -3.17024 -2.77621 0
M  V30 10860 H 1040.31 -1.93617 -2.63021 0
M  V30 10861 H 1038.96 -3.47847 -1.15749 0
M  V30 10862 H 1038.61 -3.47825 -3.63355 0
M  V30 10863 H 1038.31 -5.08984 -2.93614 0
M  V30 10864 H 1039.84 -4.76992 -3.81196 0
M  V30 10865 H 1041.25 -5.48828 -1.65711 0
M  V30 10866 H 1039.65 -5.91828 -0.992973 0
M  V30 10867 H 1040.72 -4.84851 -0.0690108 0
M  V30 10868 N 1042.06 0.170153 -1.56679 0
M  V30 10869 C 1043.01 1.21064 -1.965 0
M  V30 10870 C 1043.98 1.43928 -0.829092 0
M  V30 10871 O 1045.16 1.56649 -1.08931 0
M  V30 10872 C 1042.3 2.54468 -2.33109 0
M  V30 10873 C 1041.42 2.38974 -3.59883 0
M  V30 10874 C 1040.55 3.65252 -3.857 0
M  V30 10875 C 1039.59 3.44696 -5.05817 0
M  V30 10876 N 1038.73 4.63047 -5.27761 0
M  V30 10877 H 1043.57 0.864055 -2.85198 0
M  V30 10878 H 1041.1 0.415243 -1.41117 0
M  V30 10879 H 1043.06 3.32222 -2.52358 0
M  V30 10880 H 1041.69 2.8712 -1.4752 0
M  V30 10881 H 1040.74 1.5239 -3.48542 0
M  V30 10882 H 1042.06 2.19731 -4.47794 0
M  V30 10883 H 1041.21 4.51441 -4.05322 0
M  V30 10884 H 1039.95 3.87475 -2.96166 0
M  V30 10885 H 1038.95 2.56893 -4.86092 0
M  V30 10886 H 1040.18 3.23894 -5.96883 0
M  V30 10887 H 1038.12 4.85487 -4.41179 0
M  V30 10888 H 1038.04 4.46722 -6.09898 0
M  V30 10889 H 1039.31 5.50516 -5.51863 0
M  V30 10890 N 1043.54 1.5137 0.438746 0
M  V30 10891 C 1044.77 1.67774 1.21077 0
M  V30 10892 C 1045.18 0.374489 1.85049 0
M  V30 10893 O 1044.54 -0.646867 1.70651 0
M  V30 10894 C 1044.59 2.79238 2.29584 0
M  V30 10895 O 1044.31 4.04513 1.68228 0
M  V30 10896 C 1045.81 3.06898 3.19888 0
M  V30 10897 H 1043.03 0.563054 0.364981 0
M  V30 10898 H 1045.58 1.97777 0.520035 0
M  V30 10899 H 1043.73 2.51837 2.94375 0
M  V30 10900 H 1044.14 4.66405 2.3993 0
M  V30 10901 H 1045.62 3.88476 3.92162 0
M  V30 10902 H 1046.1 2.19249 3.80561 0
M  V30 10903 H 1046.7 3.35952 2.60799 0
M  V30 10904 N 1045.02 -0.694098 1.41492 0
M  V30 10905 C 1046.43 -1.00487 1.23994 0
M  V30 10906 C 1046.63 -2.01078 0.130346 0
M  V30 10907 O 1045.69 -2.47403 -0.504775 0
M  V30 10908 C 1047 -1.52808 2.58979 0
M  V30 10909 C 1048.55 -1.64684 2.66173 0
M  V30 10910 C 1049.02 -2.20406 4.01479 0
M  V30 10911 N 1050.52 -2.27765 4.03333 0
M  V30 10912 C 1051.25 -2.7191 5.04829 0
M  V30 10913 N 1050.75 -3.1565 6.16714 0
M  V30 10914 N 1052.54 -2.71487 4.9219 0
M  V30 10915 H 1044.69 -0.027746 2.12382 0
M  V30 10916 H 1046.95 -0.0748741 0.945039 0
M  V30 10917 H 1046.66 -0.863519 3.40934 0
M  V30 10918 H 1046.53 -2.50998 2.81566 0
M  V30 10919 H 1048.92 -2.30251 1.84576 0
M  V30 10920 H 1049 -0.65035 2.47395 0
M  V30 10921 H 1048.65 -1.55454 4.83525 0
M  V30 10922 H 1048.58 -3.2081 4.17599 0
M  V30 10923 H 1051.07 -1.96899 3.22551 0
M  V30 10924 H 1051.38 -3.47966 6.90029 0
M  V30 10925 H 1049.72 -3.13555 6.20248 0
M  V30 10926 H 1052.92 -2.36666 4.03865 0
M  V30 10927 H 1053.09 -3.05573 5.71427 0
M  V30 10928 N 1046.49 -1.27344 -0.928501 0
M  V30 10929 C 1047.42 -1.12517 -2.04602 0
M  V30 10930 C 1048.41 -0.0268563 -1.70079 0
M  V30 10931 O 1049.59 -0.201197 -1.93155 0
M  V30 10932 C 1046.72 -0.770749 -3.3864 0
M  V30 10933 C 1045.67 -1.8222 -3.87272 0
M  V30 10934 C 1045 -1.32178 -5.18105 0
M  V30 10935 C 1046.3 -3.22614 -4.10752 0
M  V30 10936 H 1047.99 -2.06 -2.17265 0
M  V30 10937 H 1045.54 -0.991827 -1.04397 0
M  V30 10938 H 1047.49 -0.653843 -4.16297 0
M  V30 10939 H 1046.22 0.19979 -3.25988 0
M  V30 10940 H 1044.88 -1.928 -3.11807 0
M  V30 10941 H 1044.52 -0.340719 -5.01845 0
M  V30 10942 H 1044.22 -2.02474 -5.51614 0
M  V30 10943 H 1045.75 -1.2178 -5.98333 0
M  V30 10944 H 1047.16 -3.1504 -4.78981 0
M  V30 10945 H 1045.56 -3.90614 -4.55566 0
M  V30 10946 H 1046.63 -3.67727 -3.16077 0
M  V30 10947 N 1047.97 1.13488 -1.09353 0
M  V30 10948 C 1049.39 1.36739 -0.823086 0
M  V30 10949 C 1049.59 1.93476 0.562963 0
M  V30 10950 O 1048.64 2.15374 1.31796 0
M  V30 10951 C 1049.96 2.31943 -1.91371 0
M  V30 10952 C 1051.51 2.4556 -1.94085 0
M  V30 10953 C 1051.98 3.44072 -3.02289 0
M  V30 10954 N 1053.47 3.51622 -3.01524 0
M  V30 10955 C 1054.21 4.27724 -3.8189 0
M  V30 10956 N 1053.7 5.06987 -4.72161 0
M  V30 10957 N 1055.5 4.23018 -3.70152 0
M  V30 10958 H 1047.65 0.75012 -1.98713 0
M  V30 10959 H 1049.91 0.392564 -0.862901 0
M  V30 10960 H 1049.62 1.97408 -2.91072 0
M  V30 10961 H 1049.49 3.31952 -1.79131 0
M  V30 10962 H 1051.88 2.79382 -0.950234 0
M  V30 10963 H 1051.96 1.45479 -2.10403 0
M  V30 10964 H 1051.6 3.10981 -4.01564 0
M  V30 10965 H 1051.53 4.43956 -2.83214 0
M  V30 10966 H 1054.02 2.95066 -2.36103 0
M  V30 10967 H 1054.34 5.6236 -5.30067 0
M  V30 10968 H 1052.68 5.06222 -4.76197 0
M  V30 10969 H 1055.87 3.60171 -2.98989 0
M  V30 10970 H 1056.04 4.82075 -4.33022 0
M  V30 10971 N 1049.45 0.880621 1.30701 0
M  V30 10972 C 1050.36 0.348034 2.32004 0
M  V30 10973 C 1051.38 -0.547508 1.65162 0
M  V30 10974 O 1052.55 -0.441673 1.96497 0
M  V30 10975 C 1049.62 -0.432585 3.43991 0
M  V30 10976 C 1048.68 0.492189 4.26469 0
M  V30 10977 C 1047.91 -0.25127 5.33108 0
M  V30 10978 O 1048.14 -1.47795 5.5092 0
M  V30 10979 O 1047.07 0.396376 6.00593 0
M  V30 10980 H 1050.9 1.18798 2.79501 0
M  V30 10981 H 1048.48 0.64432 1.34792 0
M  V30 10982 H 1050.36 -0.874733 4.12221 0
M  V30 10983 H 1049.04 -1.2489 2.98637 0
M  V30 10984 H 1047.94 0.983058 3.60953 0
M  V30 10985 H 1049.28 1.27439 4.75416 0
M  V30 10986 N 1050.93 -1.4397 0.641131 0
M  V30 10987 C 1051.89 -2.29149 -0.0482243 0
M  V30 10988 C 1052.89 -1.41572 -0.762495 0
M  V30 10989 O 1054.08 -1.63335 -0.605571 0
M  V30 10990 C 1051.21 -3.23375 -1.07896 0
M  V30 10991 H 1052.41 -2.9159 0.70109 0
M  V30 10992 H 1049.96 -1.51048 0.401754 0
M  V30 10993 H 1050.7 -2.65804 -1.85792 0
M  V30 10994 H 1050.48 -3.87926 -0.570597 0
M  V30 10995 H 1051.97 -3.87337 -1.56075 0
M  V30 10996 N 1052.41 -0.382291 -1.52893 0
M  V30 10997 C 1053.37 0.44408 -2.24857 0
M  V30 10998 C 1054.37 0.996004 -1.26239 0
M  V30 10999 O 1055.56 0.879114 -1.5039 0
M  V30 11000 C 1052.69 1.62234 -2.99822 0
M  V30 11001 H 1053.89 -0.185862 -2.99324 0
M  V30 11002 H 1051.44 -0.134275 -1.55722 0
M  V30 11003 H 1052.17 2.28991 -2.29638 0
M  V30 11004 H 1051.96 1.23336 -3.72197 0
M  V30 11005 H 1053.45 2.20756 -3.54481 0
M  V30 11006 N 1053.89 1.57202 -0.111913 0
M  V30 11007 C 1054.82 2.17957 0.837683 0
M  V30 11008 C 1055.8 1.1176 1.28233 0
M  V30 11009 O 1056.98 1.39967 1.34621 0
M  V30 11010 C 1054.11 2.77333 2.09054 0
M  V30 11011 C 1053.07 3.8905 1.78393 0
M  V30 11012 C 1052.39 4.35203 3.10649 0
M  V30 11013 C 1053.69 5.11477 1.05775 0
M  V30 11014 H 1055.39 2.9756 0.331441 0
M  V30 11015 H 1052.93 1.43131 0.157979 0
M  V30 11016 H 1054.88 3.18492 2.75936 0
M  V30 11017 H 1053.61 1.95009 2.6199 0
M  V30 11018 H 1052.27 3.48456 1.13903 0
M  V30 11019 H 1051.92 3.49747 3.61506 0
M  V30 11020 H 1051.62 5.10534 2.9091 0
M  V30 11021 H 1053.14 4.79007 3.78661 0
M  V30 11022 H 1054.55 5.497 1.62798 0
M  V30 11023 H 1052.95 5.92346 0.961573 0
M  V30 11024 H 1054.02 4.84881 0.043297 0
M  V30 11025 N 1055.36 -0.161842 1.56767 0
M  V30 11026 C 1056.33 -1.18404 1.96247 0
M  V30 11027 C 1057.33 -1.3667 0.84722 0
M  V30 11028 O 1058.52 -1.33915 1.11411 0
M  V30 11029 C 1055.65 -2.54728 2.26553 0
M  V30 11030 H 1056.84 -0.845703 2.87729 0
M  V30 11031 H 1054.39 -0.404645 1.50971 0
M  V30 11032 H 1055.13 -2.93559 1.37816 0
M  V30 11033 H 1054.91 -2.42834 3.07854 0
M  V30 11034 H 1056.4 -3.28378 2.57987 0
M  V30 11035 O 1056.88 -1.58561 -0.306714 0
M  V30 11036 H 1057.57 -1.68568 -0.954169 0
M  V30 END ATOM
M  V30 BEGIN BOND
M  V30 END BOND
M  V30 END CTAB
M  END
$$$$
