drugbank_target|P07686 Beta-hexosaminidase subunit beta (DB00205; DB02813; DB03747; DB03861)
 OpenBabel12092119483D

  0  0  0     0  0            999 V3000
M  V30 BEGIN CTAB
M  V30 COUNTS 8868 8995 0 0 0
M  V30 BEGIN ATOM
M  V30 1 H -0.908 1.98254 -0.117106 0
M  V30 2 N 0 1.576 0 0
M  V30 3 C 0.933 2.03868 1.02534 0
M  V30 4 C 1.911 0.928543 1.3348 0
M  V30 5 O 3.095 1.19667 1.45644 0
M  V30 6 C 0.222 2.43627 2.35294 0
M  V30 7 C -0.732 3.65373 2.2001 0
M  V30 8 S 0.101 5.13292 1.52614 0
M  V30 9 C 1.257 5.56322 2.86805 0
M  V30 10 H 1.49 2.90518 0.631377 0
M  V30 11 H -0.977 1.52953 0.210867 0
M  V30 12 H 0.981 2.67203 3.11629 0
M  V30 13 H -0.358 1.57376 2.7183 0
M  V30 14 H -1.165 3.90944 3.18086 0
M  V30 15 H -1.563 3.418 1.51819 0
M  V30 16 H 0.729 5.58782 3.83104 0
M  V30 17 H 1.672 6.56266 2.65933 0
M  V30 18 H 2.08 4.83886 2.90714 0
M  V30 19 N 1.4781 -0.272755 1.55222 0
M  V30 20 C 2.3881 -1.35918 1.91216 0
M  V30 21 C 3.4041 -1.54026 0.809436 0
M  V30 22 O 4.5801 -1.68148 1.10852 0
M  V30 23 C 1.6451 -2.69834 2.17693 0
M  V30 24 C 0.7061 -2.6047 3.41253 0
M  V30 25 C -0.0609 -3.88 3.66458 0
M  V30 26 O 0.1621 -4.88693 2.94169 0
M  V30 27 O -0.9039 -3.88189 4.59992 0
M  V30 28 H 2.9221 -1.0839 2.83699 0
M  V30 29 H 0.5071 -0.471301 1.41771 0
M  V30 30 H 2.3891 -3.49017 2.36147 0
M  V30 31 H 1.0641 -2.97148 1.28392 0
M  V30 32 H -0.0289 -1.79663 3.28134 0
M  V30 33 H 1.3041 -2.38106 4.30774 0
M  V30 34 N 2.9562 -1.48159 -0.537278 0
M  V30 35 C 3.8862 -1.65029 -1.6519 0
M  V30 36 C 4.8672 -0.499281 -1.62607 0
M  V30 37 O 6.0522 -0.730972 -1.79918 0
M  V30 38 C 3.1822 -1.68303 -3.03795 0
M  V30 39 C 2.1362 -2.8283 -3.21234 0
M  V30 40 C 1.4622 -2.71189 -4.60826 0
M  V30 41 C 2.7622 -4.24211 -3.04701 0
M  V30 42 H 4.4562 -2.58341 -1.51328 0
M  V30 43 H 2.0022 -1.24325 -0.726585 0
M  V30 44 H 3.9552 -1.78693 -3.81637 0
M  V30 45 H 2.6792 -0.715635 -3.18663 0
M  V30 46 H 1.3382 -2.71983 -2.45807 0
M  V30 47 H 0.9862 -1.72435 -4.7252 0
M  V30 48 H 0.6862 -3.48035 -4.7344 0
M  V30 49 H 2.2102 -2.83537 -5.40777 0
M  V30 50 H 3.6242 -4.3593 -3.72341 0
M  V30 51 H 2.0212 -5.01998 -3.28813 0
M  V30 52 H 3.0912 -4.41184 -2.01209 0
M  V30 53 N 4.4343 0.785586 -1.36625 0
M  V30 54 C 5.6743 1.55678 -1.32453 0
M  V30 55 C 6.0383 1.91769 0.0941089 0
M  V30 56 O 7.2393 2.67536 0.26042 0
M  V30 57 C 5.5103 2.79701 -2.22491 0
M  V30 58 S 7.0693 3.69907 -2.36038 0
M  V30 59 H 3.8873 0.533141 -0.470405 0
M  V30 60 H 6.4893 0.924953 -1.72235 0
M  V30 61 H 5.1933 2.51244 -3.24507 0
M  V30 62 H 4.7243 3.47854 -1.83742 0
M  V30 63 H 6.7393 4.71016 -1.56072 0
M  V30 64 N 5.9124 1.20967 1.01018 0
M  V30 65 C 7.1604 1.02172 1.74371 0
M  V30 66 C 7.4814 -0.446414 1.89821 0
M  V30 67 O 6.7514 -1.32234 1.44537 0
M  V30 68 H 5.3314 0.375066 0.646014 0
M  V30 69 H 7.9934 1.52187 1.21758 0
M  V30 70 H 7.0894 1.48538 2.74487 0
M  V30 71 N 7.3905 -1.2043 1.01659 0
M  V30 72 C 8.3205 -2.25466 0.607226 0
M  V30 73 C 9.3015 -1.65853 -0.377716 0
M  V30 74 O 10.4865 -1.92409 -0.263149 0
M  V30 75 C 7.6165 -3.47256 -0.0552949 0
M  V30 76 C 6.5705 -4.19462 0.850632 0
M  V30 77 C 5.8965 -5.34673 0.0538859 0
M  V30 78 C 7.1965 -4.75603 2.15868 0
M  V30 79 H 8.8905 -2.59962 1.48526 0
M  V30 80 H 6.4365 -1.2496 0.715605 0
M  V30 81 H 8.3895 -4.19917 -0.353233 0
M  V30 82 H 7.1135 -3.11924 -0.968045 0
M  V30 83 H 5.7725 -3.48667 1.13257 0
M  V30 84 H 5.4205 -4.95585 -0.860514 0
M  V30 85 H 5.1205 -5.83913 0.657192 0
M  V30 86 H 6.6445 -6.10138 -0.237598 0
M  V30 87 H 8.0585 -5.40083 1.92311 0
M  V30 88 H 6.4555 -5.3528 2.71284 0
M  V30 89 H 7.5255 -3.94346 2.82169 0
M  V30 90 N 8.8686 -0.792821 -1.36206 0
M  V30 91 C 10.1166 -0.366062 -1.98757 0
M  V30 92 C 10.4376 1.0668 -1.63231 0
M  V30 93 O 9.7076 1.73587 -0.907978 0
M  V30 94 H 8.2876 -0.132364 -0.735179 0
M  V30 95 H 10.9496 -1.01562 -1.66347 0
M  V30 96 H 10.0456 -0.460638 -3.08682 0
M  V30 97 N 10.3467 1.47872 -0.545128 0
M  V30 98 C 11.2767 2.32661 0.197793 0
M  V30 99 C 12.2577 1.43041 0.920504 0
M  V30 100 O 13.4427 1.71912 0.90333 0
M  V30 101 C 10.5727 3.24569 1.23582 0
M  V30 102 C 9.5267 4.23333 0.630323 0
M  V30 103 C 8.8527 5.0448 1.77211 0
M  V30 104 C 10.1527 5.20704 -0.407974 0
M  V30 105 H 11.8467 2.95024 -0.510045 0
M  V30 106 H 9.3927 1.4187 -0.246731 0
M  V30 107 H 11.3457 3.8272 1.76362 0
M  V30 108 H 10.0697 2.60236 1.97344 0
M  V30 109 H 8.7287 3.6639 0.123922 0
M  V30 110 H 8.3767 4.36561 2.49847 0
M  V30 111 H 8.0767 5.71339 1.37281 0
M  V30 112 H 9.6007 5.65487 2.3034 0
M  V30 113 H 11.0147 5.7329 0.033305 0
M  V30 114 H 9.4117 5.95699 -0.725486 0
M  V30 115 H 10.4817 4.66917 -1.30828 0
M  V30 116 N 11.8248 0.280983 1.55075 0
M  V30 117 C 13.2358 -0.215629 1.85451 0
M  V30 118 C 13.5868 -1.54991 1.203 0
M  V30 119 O 12.7118 -2.10699 0.493435 0
M  V30 120 C 13.3068 -0.398026 3.36454 0
M  V30 121 C 11.8658 -0.838866 3.66933 0
M  V30 122 C 11.0128 0.064458 2.77225 0
M  V30 123 H 13.9638 0.502601 1.50531 0
M  V30 124 H 13.9848 -1.23569 3.59876 0
M  V30 125 H 13.4968 0.573241 3.83843 0
M  V30 126 H 11.5978 -1.8214 3.25048 0
M  V30 127 H 11.7108 -0.672123 4.74362 0
M  V30 128 H 10.0748 -0.452863 2.50642 0
M  V30 129 H 10.8578 1.03172 3.2743 0
M  V30 130 N 13.3029 -1.57598 0.00835791 0
M  V30 131 C 14.7189 -1.55764 -0.347822 0
M  V30 132 C 14.9189 -1.01186 -1.74252 0
M  V30 133 O 13.9749 -0.649371 -2.44007 0
M  V30 134 C 15.2879 -2.99927 -0.215407 0
M  V30 135 C 16.8359 -3.11656 -0.289725 0
M  V30 136 C 17.3109 -4.57621 -0.18634 0
M  V30 137 N 18.8019 -4.62557 -0.243978 0
M  V30 138 C 19.5369 -5.73094 -0.18745 0
M  V30 139 N 19.0329 -6.92753 -0.0810331 0
M  V30 140 N 20.8259 -5.61588 -0.239925 0
M  V30 141 H 12.9769 -1.91411 0.92062 0
M  V30 142 H 15.2399 -0.879562 0.353659 0
M  V30 143 H 14.9459 -3.43729 0.744512 0
M  V30 144 H 14.8199 -3.63865 -0.994097 0
M  V30 145 H 17.2069 -2.67779 -1.24009 0
M  V30 146 H 17.2879 -2.5048 0.51898 0
M  V30 147 H 16.9319 -5.02174 0.760519 0
M  V30 148 H 16.8619 -5.16752 -1.01364 0
M  V30 149 H 19.3529 -3.76481 -0.327217 0
M  V30 150 H 19.6659 -7.72787 -0.0440241 0
M  V30 151 H 18.0109 -6.94984 -0.0465419 0
M  V30 152 H 21.2019 -4.66996 -0.321317 0
M  V30 153 H 21.3749 -6.47714 -0.192407 0
M  V30 154 N 14.781 0.264519 -1.55364 0
M  V30 155 C 16.192 0.834936 -1.6699 0
M  V30 156 C 16.543 1.86718 -0.602552 0
M  V30 157 O 15.668 2.14899 0.254425 0
M  V30 158 C 16.263 1.5212 -3.02729 0
M  V30 159 C 14.822 2.03954 -3.16354 0
M  V30 160 C 13.969 0.884498 -2.62815 0
M  V30 161 H 16.92 0.0406869 -1.58648 0
M  V30 162 H 16.941 2.38853 -2.96191 0
M  V30 163 H 16.453 0.769668 -3.80392 0
M  V30 164 H 14.554 2.82041 -2.43482 0
M  V30 165 H 14.667 2.24902 -4.23032 0
M  V30 166 H 13.031 1.2802 -2.20188 0
M  V30 167 H 13.814 0.14634 -3.42988 0
M  V30 168 N 16.2591 1.48442 0.529413 0
M  V30 169 C 17.6701 1.5002 1.11134 0
M  V30 170 C 18.0211 0.27031 1.94329 0
M  V30 171 O 17.1461 -0.622507 2.07253 0
M  V30 172 C 17.7411 2.71834 2.02217 0
M  V30 173 C 16.3001 2.76283 2.55627 0
M  V30 174 C 15.4471 2.43542 1.326 0
M  V30 175 H 18.3981 1.5555 0.314641 0
M  V30 176 H 18.4191 2.50384 2.8651 0
M  V30 177 H 17.9311 3.61331 1.41639 0
M  V30 178 H 16.0321 1.90995 3.19924 0
M  V30 179 H 16.1451 3.77725 2.94721 0
M  V30 180 H 14.5091 1.94709 1.64196 0
M  V30 181 H 15.2921 3.3528 0.737734 0
M  V30 182 N 17.7372 -0.778329 1.37039 0
M  V30 183 C 18.6702 -1.8984 1.26633 0
M  V30 184 C 19.6482 -1.61923 0.148197 0
M  V30 185 O 20.8322 -1.85742 0.321265 0
M  V30 186 C 17.9592 -3.24916 0.956403 0
M  V30 187 C 17.0052 -3.71752 2.09051 0
M  V30 188 S 17.8382 -3.86201 3.70957 0
M  V30 189 C 18.9942 -5.24135 3.42101 0
M  V30 190 H 19.2272 -1.98377 2.21436 0
M  V30 191 H 16.7602 -0.938738 1.22585 0
M  V30 192 H 18.7182 -4.02936 0.784409 0
M  V30 193 H 17.3792 -3.14089 0.0259713 0
M  V30 194 H 16.5722 -4.69661 1.8285 0
M  V30 195 H 16.1742 -3.00815 2.2223 0
M  V30 196 H 18.4662 -6.09086 2.96682 0
M  V30 197 H 19.4092 -5.55346 4.39314 0
M  V30 198 H 19.8172 -4.91761 2.77185 0
M  V30 199 N 19.2153 -1.21501 -1.00376 0
M  V30 200 C 20.1453 -0.999478 -2.11028 0
M  V30 201 C 21.1263 0.0759671 -1.6993 0
M  V30 202 O 22.3113 -0.0841106 -1.94018 0
M  V30 203 C 19.4413 -0.564709 -3.42678 0
M  V30 204 C 18.3953 -1.58486 -3.97576 0
M  V30 205 C 17.7213 -1.00628 -5.25146 0
M  V30 206 C 19.0213 -2.97204 -4.29496 0
M  V30 207 H 20.7153 -1.92495 -2.29317 0
M  V30 208 H 18.2613 -0.92693 -1.102 0
M  V30 209 H 20.2143 -0.401091 -4.19487 0
M  V30 210 H 18.9383 0.396411 -3.24185 0
M  V30 211 H 17.5973 -1.73606 -3.22888 0
M  V30 212 H 17.2453 -0.0368439 -5.02987 0
M  V30 213 H 16.9453 -1.68771 -5.62841 0
M  V30 214 H 18.4693 -0.854015 -6.04598 0
M  V30 215 H 19.8833 -2.8552 -4.97143 0
M  V30 216 H 18.2803 -3.62372 -4.78338 0
M  V30 217 H 19.3503 -3.47956 -3.3772 0
M  V30 218 N 20.6934 1.19889 -1.02296 0
M  V30 219 C 21.6234 2.25141 -0.619174 0
M  V30 220 C 22.6044 1.66051 0.368915 0
M  V30 221 O 23.7894 1.92546 0.252941 0
M  V30 222 C 20.9194 3.4728 0.0368783 0
M  V30 223 C 19.8734 4.19005 -0.872865 0
M  V30 224 C 19.1994 5.34637 -0.0822402 0
M  V30 225 C 20.4994 4.74452 -2.18387 0
M  V30 226 H 22.1934 2.59171 -1.49903 0
M  V30 227 H 19.7394 1.24579 -0.722222 0
M  V30 228 H 21.6924 4.20098 0.330958 0
M  V30 229 H 20.4164 3.12433 0.95149 0
M  V30 230 H 19.0754 3.48061 -1.15105 0
M  V30 231 H 18.7234 4.96034 0.83422 0
M  V30 232 H 18.4234 5.83557 -0.688149 0
M  V30 233 H 19.9474 6.10255 0.205238 0
M  V30 234 H 21.3614 5.39055 -1.95172 0
M  V30 235 H 19.7584 5.33834 -2.74119 0
M  V30 236 H 20.8284 3.92844 -2.84257 0
M  V30 237 N 22.1715 0.800033 1.35784 0
M  V30 238 C 23.1345 0.211565 2.28221 0
M  V30 239 C 24.1345 -0.59728 1.49296 0
M  V30 240 O 25.3245 -0.416721 1.69142 0
M  V30 241 C 22.4565 -0.705846 3.33513 0
M  V30 242 H 23.6495 1.02677 2.81776 0
M  V30 243 H 21.2025 0.570211 1.45528 0
M  V30 244 H 21.9375 -1.54498 2.85133 0
M  V30 245 H 21.7225 -0.127655 3.91892 0
M  V30 246 H 23.2125 -1.11211 4.02519 0
M  V30 247 N 23.6496 -1.47581 0.552962 0
M  V30 248 C 24.5796 -2.32762 -0.185451 0
M  V30 249 C 25.5606 -1.43527 -0.912905 0
M  V30 250 O 26.7456 -1.72388 -0.894201 0
M  V30 251 C 23.8756 -3.25219 -1.21859 0
M  V30 252 C 22.8296 -4.23661 -0.607864 0
M  V30 253 C 22.1556 -5.05413 -1.74533 0
M  V30 254 C 23.4556 -5.20481 0.435582 0
M  V30 255 H 25.1496 -2.94749 0.525684 0
M  V30 256 H 22.6956 -1.41738 0.254251 0
M  V30 257 H 24.6486 -3.8365 -1.7433 0
M  V30 258 H 23.3726 -2.61279 -1.95961 0
M  V30 259 H 22.0316 -3.66451 -0.104489 0
M  V30 260 H 21.6796 -4.3788 -2.47529 0
M  V30 261 H 21.3796 -5.72059 -1.34249 0
M  V30 262 H 22.9036 -5.66701 -2.27338 0
M  V30 263 H 24.3176 -5.733 -0.00290157 0
M  V30 264 H 22.7146 -5.95305 0.757067 0
M  V30 265 H 23.7846 -4.66217 1.33303 0
M  V30 266 N 25.1277 -0.289203 -1.54924 0
M  V30 267 C 26.0577 0.58549 -2.2604 0
M  V30 268 C 27.0387 1.14753 -1.25562 0
M  V30 269 O 28.2237 1.17906 -1.54311 0
M  V30 270 C 25.3537 1.76305 -2.99222 0
M  V30 271 C 24.3077 1.33191 -4.06748 0
M  V30 272 C 23.6337 2.5937 -4.6758 0
M  V30 273 C 24.9337 0.471775 -5.20165 0
M  V30 274 H 26.6277 -0.00763532 -2.99399 0
M  V30 275 H 24.1737 -0.00511229 -1.43999 0
M  V30 276 H 26.1267 2.38097 -3.47689 0
M  V30 277 H 24.8507 2.38223 -2.23422 0
M  V30 278 H 23.5097 0.737121 -3.59113 0
M  V30 279 H 23.1577 3.19576 -3.88433 0
M  V30 280 H 22.8577 2.31228 -5.40192 0
M  V30 281 H 24.3817 3.21985 -5.18804 0
M  V30 282 H 25.7957 0.995056 -5.64599 0
M  V30 283 H 24.1927 0.284639 -5.99425 0
M  V30 284 H 25.2627 -0.506041 -4.82252 0
M  V30 285 N 26.6058 1.57591 -0.0167156 0
M  V30 286 C 27.5358 2.12496 0.967858 0
M  V30 287 C 28.5168 1.03807 1.34752 0
M  V30 288 O 29.7018 1.31577 1.42833 0
M  V30 289 C 26.8318 2.64194 2.25431 0
M  V30 290 C 25.7858 3.77559 2.01576 0
M  V30 291 C 25.1118 4.15636 3.36379 0
M  V30 292 C 26.4118 5.04151 1.36489 0
M  V30 293 H 28.1058 2.95013 0.510643 0
M  V30 294 H 25.6518 1.41915 0.244181 0
M  V30 295 H 27.6048 3.01236 2.94678 0
M  V30 296 H 26.3288 1.78821 2.73296 0
M  V30 297 H 24.9878 3.40937 1.34751 0
M  V30 298 H 24.6358 3.27263 3.81979 0
M  V30 299 H 24.3358 4.92022 3.21229 0
M  V30 300 H 25.8598 4.5525 4.06915 0
M  V30 301 H 27.2738 5.38857 1.95718 0
M  V30 302 H 25.6708 5.85453 1.31776 0
M  V30 303 H 26.7408 4.83733 0.336219 0
M  V30 304 N 28.0839 -0.256276 1.55502 0
M  V30 305 C 29.0469 -1.30047 1.88734 0
M  V30 306 C 30.0469 -1.4154 0.763086 0
M  V30 307 O 31.2369 -1.40403 1.03115 0
M  V30 308 C 28.3689 -2.67953 2.10747 0
M  V30 309 H 29.5619 -1.01802 2.82093 0
M  V30 310 H 27.1149 -0.495134 1.4825 0
M  V30 311 H 27.8499 -3.01351 1.19825 0
M  V30 312 H 27.6349 -2.60993 2.92617 0
M  V30 313 H 29.1249 -3.43368 2.37673 0
M  V30 314 N 29.562 -1.4872 -0.521534 0
M  V30 315 C 30.79 -1.60843 -1.30142 0
M  V30 316 C 31.205 -0.271897 -1.86832 0
M  V30 317 O 30.562 0.739969 -1.66825 0
M  V30 318 C 30.613 -2.66155 -2.4463 0
M  V30 319 O 30.334 -3.94623 -1.90275 0
M  V30 320 C 31.835 -2.88795 -3.36322 0
M  V30 321 H 29.055 -0.542075 -0.395468 0
M  V30 322 H 31.599 -1.94609 -0.628285 0
M  V30 323 H 29.754 -2.35224 -3.07812 0
M  V30 324 H 30.168 -4.52468 -2.65279 0
M  V30 325 H 31.642 -3.66264 -4.12983 0
M  V30 326 H 32.119 -1.97934 -3.9207 0
M  V30 327 H 32.725 -3.21063 -2.78924 0
M  V30 328 N 31.0401 0.771051 -1.3745 0
M  V30 329 C 31.9701 1.89827 -1.3597 0
M  V30 330 C 32.9511 1.68562 -0.228216 0
M  V30 331 O 34.1361 1.8941 -0.428675 0
M  V30 332 C 31.2661 3.2712 -1.16662 0
M  V30 333 C 30.2201 3.6295 -2.2683 0
M  V30 334 C 29.5461 4.98791 -1.92644 0
M  V30 335 C 30.8461 3.69627 -3.69017 0
M  V30 336 H 32.5401 1.91323 -2.30295 0
M  V30 337 H 30.0861 0.919082 -1.10855 0
M  V30 338 H 32.0391 4.05615 -1.14256 0
M  V30 339 H 30.7631 3.26059 -0.187926 0
M  V30 340 H 29.4221 2.86763 -2.28392 0
M  V30 341 H 29.0701 4.94271 -0.933021 0
M  V30 342 H 28.7701 5.23733 -2.66416 0
M  V30 343 H 30.2941 5.79685 -1.91826 0
M  V30 344 H 31.7081 4.38273 -3.69581 0
M  V30 345 H 30.1051 4.06067 -4.41848 0
M  V30 346 H 31.1751 2.70273 -4.02592 0
M  V30 347 N 32.5182 1.22032 0.997298 0
M  V30 348 C 33.4482 1.01065 2.10495 0
M  V30 349 C 34.4292 -0.0669542 1.69968 0
M  V30 350 O 35.6142 0.0943987 1.9397 0
M  V30 351 C 32.7442 0.582874 3.42374 0
M  V30 352 C 31.6982 1.60592 3.96729 0
M  V30 353 C 31.0242 1.03412 5.24605 0
M  V30 354 C 32.3242 2.99478 4.27914 0
M  V30 355 H 34.0182 1.93708 2.28292 0
M  V30 356 H 31.5642 0.932761 1.09707 0
M  V30 357 H 33.5172 0.423332 4.19268 0
M  V30 358 H 32.2412 -0.379213 3.24391 0
M  V30 359 H 30.9002 1.75316 3.21963 0
M  V30 360 H 30.5482 0.063518 5.0296 0
M  V30 361 H 30.2482 1.71754 5.61938 0
M  V30 362 H 31.7722 0.886066 6.04137 0
M  V30 363 H 33.1862 2.88153 4.95622 0
M  V30 364 H 31.5832 3.64903 4.76409 0
M  V30 365 H 32.6532 3.49742 3.3587 0
M  V30 366 N 33.9963 -1.19345 1.0293 0
M  V30 367 C 34.9593 -2.20793 0.615069 0
M  V30 368 C 35.9593 -1.57553 -0.321533 0
M  V30 369 O 37.1493 -1.73862 -0.108483 0
M  V30 370 C 34.2813 -3.40754 -0.0999222 0
M  V30 371 H 35.4743 -2.58955 1.51269 0
M  V30 372 H 33.0273 -1.3303 0.820534 0
M  V30 373 H 33.7623 -3.0811 -1.01187 0
M  V30 374 H 33.5473 -3.87889 0.57309 0
M  V30 375 H 35.0373 -4.15898 -0.376645 0
M  V30 376 N 35.4744 -0.807222 -1.35358 0
M  V30 377 C 36.4374 -0.223665 -2.28106 0
M  V30 378 C 37.4374 0.589354 -1.4961 0
M  V30 379 O 38.6274 0.407745 -1.69361 0
M  V30 380 C 35.7594 0.688149 -3.33882 0
M  V30 381 H 36.9524 -1.04169 -2.81227 0
M  V30 382 H 34.5054 -0.577921 -1.45223 0
M  V30 383 H 35.2404 1.52984 -2.85948 0
M  V30 384 H 35.0254 0.10687 -3.91954 0
M  V30 385 H 36.5154 1.09075 -4.03104 0
M  V30 386 N 36.9525 1.47285 -0.560781 0
M  V30 387 C 37.8855 2.27009 0.232821 0
M  V30 388 C 38.8635 1.34273 0.917039 0
M  V30 389 O 40.0475 1.63659 0.935315 0
M  V30 390 C 37.1745 3.11406 1.33206 0
M  V30 391 C 36.2205 4.19746 0.756019 0
M  V30 392 S 37.0535 5.34003 -0.400165 0
M  V30 393 C 38.2095 6.21964 0.700805 0
M  V30 394 H 38.4425 2.93971 -0.443683 0
M  V30 395 H 35.9755 1.50446 -0.347181 0
M  V30 396 H 37.9335 3.60601 1.96156 0
M  V30 397 H 36.5945 2.438 1.98041 0
M  V30 398 H 35.7875 4.78541 1.5816 0
M  V30 399 H 35.3895 3.73451 0.202619 0
M  V30 400 H 37.6815 6.58529 1.59202 0
M  V30 401 H 38.6245 7.07941 0.150126 0
M  V30 402 H 39.0325 5.5566 0.995083 0
M  V30 403 N 38.4306 0.297415 1.54768 0
M  V30 404 C 39.3606 -0.573494 2.26348 0
M  V30 405 C 40.3416 -1.14085 1.26169 0
M  V30 406 O 41.5266 -1.17086 1.54934 0
M  V30 407 C 38.6566 -1.74716 3.00153 0
M  V30 408 C 37.6106 -1.31032 4.07449 0
M  V30 409 C 36.9366 -2.56887 4.68949 0
M  V30 410 C 38.2366 -0.444183 5.20408 0
M  V30 411 H 39.9306 0.0235131 2.99391 0
M  V30 412 H 37.4766 0.0127488 1.43994 0
M  V30 413 H 39.4296 -2.3625 3.48947 0
M  V30 414 H 38.1536 -2.37035 2.24682 0
M  V30 415 H 36.8126 -0.718066 3.59499 0
M  V30 416 H 36.4606 -3.17512 3.90122 0
M  V30 417 H 36.1606 -2.2836 5.41411 0
M  V30 418 H 37.6846 -3.19229 5.20505 0
M  V30 419 H 39.0986 -0.9651 5.65118 0
M  V30 420 H 37.4956 -0.252846 5.99567 0
M  V30 421 H 38.5656 0.531609 4.81977 0
M  V30 422 N 39.9087 -1.5758 0.0250728 0
M  V30 423 C 40.8717 -2.08896 -0.943139 0
M  V30 424 C 41.8717 -1.00321 -1.25668 0
M  V30 425 O 43.0617 -1.26495 -1.19769 0
M  V30 426 C 40.1937 -2.55143 -2.26086 0
M  V30 427 H 41.3867 -2.95723 -0.498775 0
M  V30 428 H 38.9397 -1.54703 -0.222888 0
M  V30 429 H 39.6747 -1.71633 -2.75159 0
M  V30 430 H 39.4597 -3.34461 -2.04641 0
M  V30 431 H 40.9497 -2.95083 -2.95492 0
M  V30 432 N 41.3868 0.248026 -1.55636 0
M  V30 433 C 42.3168 1.31079 -1.93237 0
M  V30 434 C 43.2978 1.50264 -0.797174 0
M  V30 435 O 44.4828 1.62891 -1.05737 0
M  V30 436 C 41.6128 2.66575 -2.22609 0
M  V30 437 C 40.5668 2.62087 -3.3837 0
M  V30 438 C 39.8928 4.01369 -3.53281 0
M  V30 439 C 41.1928 2.19171 -4.7409 0
M  V30 440 H 42.8868 0.998556 -2.82257 0
M  V30 441 H 40.4328 0.47891 -1.35803 0
M  V30 442 H 42.3858 3.41057 -2.47503 0
M  V30 443 H 41.1098 2.99432 -1.30414 0
M  V30 444 H 39.7688 1.90063 -3.13483 0
M  V30 445 H 39.4168 4.31489 -2.58508 0
M  V30 446 H 39.1168 3.99254 -4.31127 0
M  V30 447 H 40.6408 4.77552 -3.80495 0
M  V30 448 H 42.0548 2.83384 -4.98363 0
M  V30 449 H 40.4518 2.2817 -5.5503 0
M  V30 450 H 41.5218 1.14336 -4.71227 0
M  V30 451 N 42.8649 1.48995 0.513639 0
M  V30 452 C 43.7949 1.67636 1.62544 0
M  V30 453 C 44.7759 0.525087 1.61793 0
M  V30 454 O 45.9609 0.759502 1.78732 0
M  V30 455 C 43.0909 1.73114 3.01079 0
M  V30 456 C 42.0449 2.87905 3.16693 0
M  V30 457 C 41.3709 2.78486 4.56453 0
M  V30 458 C 42.6709 4.29005 2.97913 0
M  V30 459 H 44.3649 2.60716 1.47198 0
M  V30 460 H 41.9109 1.25465 0.706714 0
M  V30 461 H 43.8639 1.84742 3.78746 0
M  V30 462 H 42.5879 0.766241 3.17484 0
M  V30 463 H 41.2469 2.75859 2.41448 0
M  V30 464 H 40.8949 1.7993 4.69717 0
M  V30 465 H 40.5949 3.55523 4.67843 0
M  V30 466 H 42.1189 2.92104 5.36197 0
M  V30 467 H 43.5329 4.41798 3.65359 0
M  V30 468 H 41.9299 5.07166 3.20785 0
M  V30 469 H 42.9999 4.44329 1.94165 0
M  V30 470 N 44.343 -0.763751 1.37857 0
M  V30 471 C 45.571 -1.55293 1.36718 0
M  V30 472 C 45.986 -1.88745 -0.0455434 0
M  V30 473 O 45.343 -1.52039 -1.00947 0
M  V30 474 C 45.394 -2.85831 2.2132 0
M  V30 475 O 45.115 -2.5381 3.57089 0
M  V30 476 C 46.616 -3.80023 2.28249 0
M  V30 477 H 43.836 -0.480841 0.468009 0
M  V30 478 H 46.38 -0.946009 1.81303 0
M  V30 479 H 44.535 -3.42926 1.80223 0
M  V30 480 H 44.949 -3.37459 4.01524 0
M  V30 481 H 46.423 -4.68599 2.91752 0
M  V30 482 H 46.9 -4.1973 1.2932 0
M  V30 483 H 47.506 -3.28855 2.69693 0
M  V30 484 N 45.8211 -1.22559 -0.990812 0
M  V30 485 C 46.7531 -0.955325 -2.08342 0
M  V30 486 C 47.7661 0.0668408 -1.62663 0
M  V30 487 O 48.9551 -0.167421 -1.77713 0
M  V30 488 C 46.0551 -0.415566 -3.36342 0
M  V30 489 C 45.2281 -1.49544 -4.11042 0
M  V30 490 C 44.2871 -0.962399 -5.17324 0
M  V30 491 O 43.3131 -1.64907 -5.44788 0
M  V30 492 N 44.5151 0.215134 -5.80101 0
M  V30 493 H 47.2801 -1.89596 -2.32106 0
M  V30 494 H 44.8411 -1.13276 -1.15673 0
M  V30 495 H 46.8331 -0.0442386 -4.04676 0
M  V30 496 H 45.4031 0.430232 -3.09625 0
M  V30 497 H 44.6231 -2.04 -3.37309 0
M  V30 498 H 45.9111 -2.22195 -4.57719 0
M  V30 499 H 45.3091 0.789779 -5.6016 0
M  V30 500 H 43.8661 0.527826 -6.49659 0
M  V30 501 N 47.2992 1.18797 -1.03562 0
M  V30 502 C 48.5452 1.8893 -0.737113 0
M  V30 503 C 48.8782 1.79837 0.732956 0
M  V30 504 O 48.1532 1.19525 1.5344 0
M  V30 505 C 48.4362 3.39607 -1.19745 0
M  V30 506 C 48.2892 3.57537 -2.72924 0
M  V30 507 C 49.6082 4.33069 -0.783526 0
M  V30 508 H 46.7272 0.686057 -0.269249 0
M  V30 509 H 49.3692 1.39797 -1.28673 0
M  V30 510 H 47.5192 3.81583 -0.729855 0
M  V30 511 H 49.1912 3.24688 -3.27682 0
M  V30 512 H 47.4342 3.00363 -3.12993 0
M  V30 513 H 48.1052 4.63238 -3.00191 0
M  V30 514 H 50.5812 3.98846 -1.18581 0
M  V30 515 H 49.4572 5.3707 -1.13343 0
M  V30 516 H 49.7182 4.40986 0.313681 0
M  V30 517 N 48.7773 0.814389 1.34928 0
M  V30 518 C 49.7403 0.235759 2.27984 0
M  V30 519 C 50.7403 -0.581412 1.49921 0
M  V30 520 O 51.9303 -0.398758 1.69575 0
M  V30 521 C 49.0623 -0.670433 3.34242 0
M  V30 522 H 50.2553 1.05659 2.80671 0
M  V30 523 H 47.8083 0.585614 1.44915 0
M  V30 524 H 48.5433 -1.51466 2.86755 0
M  V30 525 H 48.3283 -0.0860822 3.92005 0
M  V30 526 H 49.8183 -1.06935 4.03676 0
M  V30 527 N 50.2554 -1.46986 0.568584 0
M  V30 528 C 51.1854 -2.32946 -0.160753 0
M  V30 529 C 52.1664 -1.44487 -0.897631 0
M  V30 530 O 53.3514 -1.73327 -0.875867 0
M  V30 531 C 50.4814 -3.26494 -1.18403 0
M  V30 532 C 49.4354 -4.24282 -0.562895 0
M  V30 533 C 48.7614 -5.07236 -1.69163 0
M  V30 534 C 50.0614 -5.19989 0.490761 0
M  V30 535 H 51.7554 -2.94175 0.556916 0
M  V30 536 H 49.3014 -1.4146 0.26927 0
M  V30 537 H 51.2544 -3.85477 -1.70251 0
M  V30 538 H 49.9784 -2.63343 -1.93179 0
M  V30 539 H 48.6374 -3.66541 -0.0656164 0
M  V30 540 H 48.2854 -4.4048 -2.42871 0
M  V30 541 H 47.9854 -5.7345 -1.28174 0
M  V30 542 H 49.5094 -5.6908 -2.21314 0
M  V30 543 H 50.9234 -5.73271 0.0579047 0
M  V30 544 H 49.3204 -5.94469 0.820165 0
M  V30 545 H 50.3904 -4.64777 1.3824 0
M  V30 546 N 51.7335 -0.305618 -1.54608 0
M  V30 547 C 52.9795 0.302746 -2.00528 0
M  V30 548 C 53.3125 1.53184 -1.19367 0
M  V30 549 O 52.5875 1.92598 -0.271321 0
M  V30 550 C 52.8705 0.654756 -3.54097 0
M  V30 551 C 52.7235 -0.583793 -4.45995 0
M  V30 552 C 54.0425 1.47947 -4.14487 0
M  V30 553 H 51.1615 0.108564 -0.72896 0
M  V30 554 H 53.8035 -0.418634 -1.85331 0
M  V30 555 H 51.9535 1.26935 -3.67178 0
M  V30 556 H 53.6255 -1.22224 -4.44814 0
M  V30 557 H 51.8685 -1.21615 -4.16404 0
M  V30 558 H 52.5395 -0.293287 -5.5122 0
M  V30 559 H 55.0155 0.96013 -4.04871 0
M  V30 560 H 53.8915 1.69454 -5.22088 0
M  V30 561 H 54.1525 2.47011 -3.66658 0
M  V30 562 N 53.2116 1.57565 -0.0334293 0
M  V30 563 C 54.4576 1.92262 0.645226 0
M  V30 564 C 54.7906 0.910543 1.71531 0
M  V30 565 O 54.0656 -0.066099 1.94388 0
M  V30 566 C 54.3486 3.37422 1.2577 0
M  V30 567 C 54.2016 4.49369 0.196891 0
M  V30 568 C 55.5206 3.82628 2.17449 0
M  V30 569 H 52.6396 0.699171 0.233085 0
M  V30 570 H 55.2816 1.89779 -0.0915694 0
M  V30 571 H 53.4316 3.39669 1.88566 0
M  V30 572 H 55.1036 4.59254 -0.433962 0
M  V30 573 H 53.3466 4.31168 -0.477137 0
M  V30 574 H 54.0176 5.47978 0.665124 0
M  V30 575 H 56.4936 3.82145 1.64634 0
M  V30 576 H 55.3696 4.84883 2.57254 0
M  V30 577 H 55.6306 3.18376 3.0674 0
M  V30 578 N 54.6897 -0.239769 1.55765 0
M  V30 579 C 55.6217 -1.32001 1.87372 0
M  V30 580 C 56.6347 -1.43944 0.760522 0
M  V30 581 O 57.8237 -1.45167 1.0387 0
M  V30 582 C 54.9237 -2.69779 2.05115 0
M  V30 583 C 54.0967 -2.80014 3.36022 0
M  V30 584 C 53.1557 -3.98684 3.4342 0
M  V30 585 O 52.1817 -3.87877 4.16582 0
M  V30 586 N 53.3837 -5.12176 2.73232 0
M  V30 587 H 56.1487 -1.0522 2.80622 0
M  V30 588 H 53.7097 -0.429857 1.56089 0
M  V30 589 H 55.7017 -3.47517 2.07399 0
M  V30 590 H 54.2717 -2.89237 1.18577 0
M  V30 591 H 53.4917 -1.88896 3.45994 0
M  V30 592 H 54.7797 -2.83808 4.22292 0
M  V30 593 H 54.1777 -5.2385 2.13536 0
M  V30 594 H 52.7347 -5.88022 2.81199 0
M  V30 595 N 56.1678 -1.49265 -0.50573 0
M  V30 596 C 57.4138 -1.58748 -1.26202 0
M  V30 597 C 57.7468 -0.271227 -1.92297 0
M  V30 598 O 57.0218 0.724831 -1.80489 0
M  V30 599 C 57.3048 -2.74332 -2.33268 0
M  V30 600 C 57.1578 -4.15737 -1.71705 0
M  V30 601 C 58.4768 -2.85576 -3.34865 0
M  V30 602 H 55.5958 -0.577826 -0.457478 0
M  V30 603 H 58.2378 -1.81532 -0.560897 0
M  V30 604 H 56.3878 -2.55036 -2.93068 0
M  V30 605 H 58.0598 -4.46537 -1.15769 0
M  V30 606 H 56.3028 -4.21605 -1.02135 0
M  V30 607 H 56.9738 -4.92477 -2.49341 0
M  V30 608 H 59.4498 -3.03127 -2.8505 0
M  V30 609 H 58.3258 -3.68135 -4.07146 0
M  V30 610 H 58.5868 -1.94732 -3.96903 0
M  V30 611 N 57.6459 0.756429 -1.3826 0
M  V30 612 C 58.6089 1.85176 -1.35065 0
M  V30 613 C 59.6089 1.58818 -0.251703 0
M  V30 614 O 60.7989 1.66615 -0.508433 0
M  V30 615 C 57.9309 3.22596 -1.10201 0
M  V30 616 H 59.1239 1.89417 -2.3251 0
M  V30 617 H 56.6769 0.95783 -1.23512 0
M  V30 618 H 57.4119 3.24025 -0.133504 0
M  V30 619 H 57.1969 3.43122 -1.89762 0
M  V30 620 H 58.6869 4.02673 -1.10654 0
M  V30 621 N 59.124 1.23083 0.984299 0
M  V30 622 C 60.034 1.02515 2.11016 0
M  V30 623 C 61.05 -0.0291702 1.73976 0
M  V30 624 O 62.226 0.165434 2.00719 0
M  V30 625 C 59.291 0.614673 3.41208 0
M  V30 626 C 58.352 1.74359 3.92297 0
M  V30 627 C 57.585 1.35261 5.16275 0
M  V30 628 O 57.808 0.235136 5.69915 0
M  V30 629 O 56.742 2.17227 5.61334 0
M  V30 630 H 60.568 1.96862 2.31255 0
M  V30 631 H 58.153 1.01753 1.09392 0
M  V30 632 H 60.035 0.396518 4.1953 0
M  V30 633 H 58.71 -0.299851 3.22308 0
M  V30 634 H 57.617 2.01635 3.1511 0
M  V30 635 H 58.95 2.63629 4.15645 0
M  V30 636 N 60.6021 -1.18246 1.0419 0
M  V30 637 C 61.5651 -2.20128 0.638452 0
M  V30 638 C 62.5651 -1.57885 -0.304805 0
M  V30 639 O 63.7551 -1.73967 -0.0900369 0
M  V30 640 C 60.8871 -3.4084 -0.0637751 0
M  V30 641 H 62.0801 -2.57336 1.54007 0
M  V30 642 H 59.6331 -1.32152 0.834598 0
M  V30 643 H 60.3681 -3.09166 -0.979136 0
M  V30 644 H 60.1531 -3.8726 0.614198 0
M  V30 645 H 61.6431 -4.16274 -0.332512 0
M  V30 646 N 62.0802 -0.821533 -1.34494 0
M  V30 647 C 63.0432 -0.247847 -2.27856 0
M  V30 648 C 64.0432 0.573453 -1.50227 0
M  V30 649 O 65.2332 0.389759 -1.69784 0
M  V30 650 C 62.3652 0.652698 -3.34593 0
M  V30 651 H 63.5582 -1.07146 -2.80107 0
M  V30 652 H 61.1112 -0.593291 -1.44602 0
M  V30 653 H 61.8462 1.49943 -2.87555 0
M  V30 654 H 61.6312 0.065292 -3.92046 0
M  V30 655 H 63.1212 1.04793 -4.04238 0
M  V30 656 N 63.5583 1.46682 -0.576371 0
M  V30 657 C 64.9743 1.57822 -0.237562 0
M  V30 658 C 65.1743 1.57237 1.26011 0
M  V30 659 O 64.2303 1.48596 2.04146 0
M  V30 660 C 65.5433 2.87499 -0.881168 0
M  V30 661 C 67.0913 3.01119 -0.85417 0
M  V30 662 C 67.5663 4.33524 -1.4772 0
M  V30 663 N 69.0573 4.40207 -1.44125 0
M  V30 664 C 69.7923 5.4126 -1.89276 0
M  V30 665 N 69.2883 6.49021 -2.42371 0
M  V30 666 N 71.0813 5.32422 -1.80231 0
M  V30 667 H 63.2323 1.45306 -1.54919 0
M  V30 668 H 65.4953 0.692733 -0.647167 0
M  V30 669 H 65.2013 2.9372 -1.93447 0
M  V30 670 H 65.0753 3.75224 -0.385592 0
M  V30 671 H 67.4623 2.94485 0.190491 0
M  V30 672 H 67.5433 2.14887 -1.3877 0
M  V30 673 H 67.1873 4.40916 -2.52103 0
M  V30 674 H 67.1173 5.1852 -0.918947 0
M  V30 675 H 69.6083 3.62931 -1.05307 0
M  V30 676 H 69.9213 7.2233 -2.74698 0
M  V30 677 H 68.2663 6.49858 -2.46393 0
M  V30 678 H 71.4573 4.47137 -1.38514 0
M  V30 679 H 71.6303 6.11034 -2.15735 0
M  V30 680 N 65.0364 0.313813 1.54444 0
M  V30 681 C 65.9994 -0.54379 2.22656 0
M  V30 682 C 66.9994 -1.05124 1.21678 0
M  V30 683 O 68.1894 -0.945225 1.46325 0
M  V30 684 C 65.3214 -1.75427 2.92298 0
M  V30 685 H 66.5144 0.0523599 2.99854 0
M  V30 686 H 64.0674 0.0647834 1.56166 0
M  V30 687 H 64.8024 -2.38991 2.19211 0
M  V30 688 H 64.5874 -1.39791 3.66334 0
M  V30 689 H 66.0774 -2.36325 3.44297 0
M  V30 690 N 66.5145 -1.57545 0.0417849 0
M  V30 691 C 67.9255 -1.80011 -0.495259 0
M  V30 692 C 68.2765 -0.953199 -1.71489 0
M  V30 693 O 67.4015 -0.167138 -2.15754 0
M  V30 694 C 67.9965 -3.26482 -0.905265 0
M  V30 695 C 66.5555 -3.499 -1.38734 0
M  V30 696 C 65.7025 -2.74979 -0.358056 0
M  V30 697 H 68.6535 -1.56425 0.267736 0
M  V30 698 H 68.6745 -3.36887 -1.76882 0
M  V30 699 H 68.1865 -3.88096 -0.017401 0
M  V30 700 H 66.2875 -2.93553 -2.29471 0
M  V30 701 H 66.4005 -4.58615 -1.38598 0
M  V30 702 H 64.7645 -2.40834 -0.828912 0
M  V30 703 H 65.5475 -3.39315 0.521561 0
M  V30 704 N 67.9926 0.231505 -1.5589 0
M  V30 705 C 69.2176 0.978689 -1.82856 0
M  V30 706 C 69.6426 1.77559 -0.620846 0
M  V30 707 O 69.0006 1.76119 0.430305 0
M  V30 708 C 69.0486 1.87997 -3.07716 0
M  V30 709 O 68.1526 2.97393 -2.85712 0
M  V30 710 H 67.4936 0.277663 -0.603158 0
M  V30 711 H 70.0236 0.24783 -2.03093 0
M  V30 712 H 70.0336 2.2917 -3.37558 0
M  V30 713 H 68.7086 1.29417 -3.95252 0
M  V30 714 H 67.2856 2.60238 -2.67078 0
M  V30 715 N 69.4707 1.49531 0.497807 0
M  V30 716 C 70.7167 1.59415 1.25358 0
M  V30 717 C 71.0497 0.281422 1.9215 0
M  V30 718 O 70.3247 -0.715249 1.80871 0
M  V30 719 C 70.6077 2.75566 2.3181 0
M  V30 720 C 70.4607 4.16642 1.69498 0
M  V30 721 C 71.7797 2.87347 3.33346 0
M  V30 722 H 68.8987 0.580244 0.454408 0
M  V30 723 H 71.5407 1.81827 0.551262 0
M  V30 724 H 69.6907 2.56587 2.91711 0
M  V30 725 H 71.3627 4.47145 1.13399 0
M  V30 726 H 69.6057 4.22141 0.998978 0
M  V30 727 H 70.2767 4.93792 2.46725 0
M  V30 728 H 72.7527 3.04634 2.83438 0
M  V30 729 H 71.6287 3.70289 4.05188 0
M  V30 730 H 71.8897 1.96834 3.95865 0
M  V30 731 N 70.9488 -0.749086 1.3866 0
M  V30 732 C 72.1738 -1.54344 1.38538 0
M  V30 733 C 72.5988 -1.88088 -0.0216655 0
M  V30 734 O 71.9568 -1.50899 -1.00494 0
M  V30 735 C 72.0048 -2.8164 2.25192 0
M  V30 736 O 71.1088 -3.7698 1.67212 0
M  V30 737 H 70.4498 -0.466654 0.472367 0
M  V30 738 H 72.9798 -0.925355 1.82478 0
M  V30 739 H 72.9898 -3.30519 2.3921 0
M  V30 740 H 71.6648 -2.56411 3.27454 0
M  V30 741 H 70.2418 -3.35699 1.6236 0
M  V30 742 N 72.4269 -1.23603 -0.977757 0
M  V30 743 C 73.3899 -1.02069 -2.05218 0
M  V30 744 C 74.3899 0.0184305 -1.60789 0
M  V30 745 O 75.5799 -0.221569 -1.72785 0
M  V30 746 C 72.7119 -0.544926 -3.36517 0
M  V30 747 H 73.9049 -1.9742 -2.25755 0
M  V30 748 H 71.4579 -1.05684 -1.15155 0
M  V30 749 H 72.1929 0.412241 -3.21669 0
M  V30 750 H 71.9779 -1.2948 -3.70105 0
M  V30 751 H 73.4679 -0.414985 -4.15533 0
M  V30 752 N 73.905 1.17692 -1.04816 0
M  V30 753 C 74.852 2.21581 -0.645797 0
M  V30 754 C 75.822 1.62367 0.350159 0
M  V30 755 O 77.007 1.89254 0.242433 0
M  V30 756 C 74.147 3.45092 -0.0227568 0
M  V30 757 C 73.26 4.18613 -1.06709 0
M  V30 758 C 72.395 5.29602 -0.411767 0
M  V30 759 C 71.434 5.94904 -1.44067 0
M  V30 760 N 70.571 6.97414 -0.809781 0
M  V30 761 H 75.411 2.55353 -1.5362 0
M  V30 762 H 72.948 1.25438 -0.768364 0
M  V30 763 H 74.906 4.15679 0.35588 0
M  V30 764 H 73.536 3.11917 0.831122 0
M  V30 765 H 72.588 3.46779 -1.5636 0
M  V30 766 H 73.9 4.63293 -1.84827 0
M  V30 767 H 73.054 6.06696 0.0206623 0
M  V30 768 H 71.793 4.86045 0.401438 0
M  V30 769 H 70.798 5.16544 -1.88316 0
M  V30 770 H 72.023 6.40542 -2.25571 0
M  V30 771 H 69.969 6.55998 -0.0170186 0
M  V30 772 H 69.886 7.40386 -1.52856 0
M  V30 773 H 71.154 7.78463 -0.401999 0
M  V30 774 N 75.3831 0.828654 1.34056 0
M  V30 775 C 76.7941 0.477534 1.8049 0
M  V30 776 C 77.1451 -1.00258 1.6865 0
M  V30 777 O 76.2701 -1.78057 1.22982 0
M  V30 778 C 76.8651 0.860018 3.27703 0
M  V30 779 C 75.4241 0.561185 3.72193 0
M  V30 780 C 74.5711 1.07385 2.55663 0
M  V30 781 H 77.5221 1.0183 1.21722 0
M  V30 782 H 77.5431 0.166038 3.80138 0
M  V30 783 H 77.0551 1.93731 3.36288 0
M  V30 784 H 75.1561 -0.506465 3.69142 0
M  V30 785 H 75.2691 1.10926 4.66082 0
M  V30 786 H 73.6331 0.495149 2.49841 0
M  V30 787 H 74.4161 2.15771 2.67016 0
M  V30 788 N 76.8612 -1.46375 0.584142 0
M  V30 789 C 78.1092 -2.01978 0.0701287 0
M  V30 790 C 78.4302 -1.4579 -1.295 0
M  V30 791 O 77.7002 -0.64314 -1.85042 0
M  V30 792 H 76.2802 -0.746648 0.0229345 0
M  V30 793 H 78.9422 -1.79461 0.760245 0
M  V30 794 H 78.0382 -3.121 0.0022064 0
M  V30 795 N 78.3393 -0.321999 -1.54275 0
M  V30 796 C 79.7503 0.166384 -1.85957 0
M  V30 797 C 80.1013 1.51747 -1.24367 0
M  V30 798 O 79.2263 2.09317 -0.549124 0
M  V30 799 C 79.8213 0.308681 -3.37391 0
M  V30 800 C 78.3803 0.741286 -3.69028 0
M  V30 801 C 77.5273 -0.137937 -2.76957 0
M  V30 802 H 80.4783 -0.542335 -1.49146 0
M  V30 803 H 80.4993 1.13984 -3.63026 0
M  V30 804 H 80.0113 -0.674809 -3.82188 0
M  V30 805 H 78.1123 1.73458 -3.29762 0
M  V30 806 H 78.2253 0.546118 -4.75977 0
M  V30 807 H 76.5893 0.386251 -2.51754 0
M  V30 808 H 77.3723 -1.11816 -3.2458 0
M  V30 809 N 79.8174 1.5752 -0.0501392 0
M  V30 810 C 80.7804 2.1037 0.909786 0
M  V30 811 C 81.7804 1.02308 1.24056 0
M  V30 812 O 82.9704 1.28385 1.17741 0
M  V30 813 C 80.1024 2.58708 2.21998 0
M  V30 814 H 81.2954 2.96479 0.451665 0
M  V30 815 H 78.8484 1.55038 0.198248 0
M  V30 816 H 79.5834 1.75989 2.72394 0
M  V30 817 H 79.3684 3.37675 1.99295 0
M  V30 818 H 80.8584 2.99747 2.9076 0
M  V30 819 N 81.2955 -0.223234 1.56011 0
M  V30 820 C 82.2255 -1.27988 1.95298 0
M  V30 821 C 83.2065 -1.48976 0.820979 0
M  V30 822 O 84.3915 -1.61188 1.08315 0
M  V30 823 C 81.5215 -2.63 2.26822 0
M  V30 824 C 80.4755 -2.56671 3.42497 0
M  V30 825 C 79.8015 -3.95697 3.59622 0
M  V30 826 C 81.1015 -2.11601 4.77517 0
M  V30 827 H 82.7955 -0.953525 2.8381 0
M  V30 828 H 80.3415 -0.457244 1.36548 0
M  V30 829 H 82.2945 -3.37077 2.52898 0
M  V30 830 H 81.0185 -2.9732 1.35161 0
M  V30 831 H 79.6775 -1.85051 3.16467 0
M  V30 832 H 79.3255 -4.27322 2.6534 0
M  V30 833 H 79.0255 -3.92345 4.37424 0
M  V30 834 H 80.5495 -4.71438 3.88044 0
M  V30 835 H 81.9635 -2.7542 5.02809 0
M  V30 836 H 80.3605 -2.19311 5.5859 0
M  V30 837 H 81.4305 -1.06824 4.72987 0
M  V30 838 N 82.7736 -1.49793 -0.48987 0
M  V30 839 C 84.0196 -1.61049 -1.24236 0
M  V30 840 C 84.3746 -0.298412 -1.90072 0
M  V30 841 O 83.6676 0.702262 -1.78266 0
M  V30 842 C 83.8616 -2.71488 -2.32441 0
M  V30 843 C 83.6906 -4.13308 -1.77218 0
M  V30 844 C 82.4606 -4.79955 -1.58023 0
M  V30 845 C 84.6586 -4.98176 -1.27772 0
M  V30 846 N 82.6406 -6.06052 -0.978465 0
M  V30 847 C 84.0116 -6.14843 -0.798 0
M  V30 848 C 86.0666 -4.84091 -1.16449 0
M  V30 849 C 84.7696 -7.18975 -0.216245 0
M  V30 850 C 86.7956 -5.88382 -0.596698 0
M  V30 851 C 86.1576 -7.04285 -0.127262 0
M  V30 852 H 82.2566 -0.643611 -0.444172 0
M  V30 853 H 84.8406 -1.86842 -0.54754 0
M  V30 854 H 83.0116 -2.47449 -2.99372 0
M  V30 855 H 84.7436 -2.72205 -2.99477 0
M  V30 856 H 81.4986 -4.36936 -1.82712 0
M  V30 857 H 81.9226 -6.73407 -0.696534 0
M  V30 858 H 86.5646 -3.94786 -1.5134 0
M  V30 859 H 84.2826 -8.0797 0.144903 0
M  V30 860 H 87.8686 -5.79545 -0.511716 0
M  V30 861 H 86.7486 -7.83606 0.30523 0
M  V30 862 N 84.2517 0.741722 -1.39055 0
M  V30 863 C 85.6627 1.31966 -1.32068 0
M  V30 864 C 86.0137 1.96192 0.0180797 0
M  V30 865 O 85.1387 1.95861 0.920196 0
M  V30 866 C 85.7337 2.39954 -2.39181 0
M  V30 867 C 84.2927 2.93438 -2.35735 0
M  V30 868 C 83.4397 1.66936 -2.21422 0
M  V30 869 H 86.3907 0.539721 -1.4924 0
M  V30 870 H 86.4117 3.20182 -2.05581 0
M  V30 871 H 85.9237 1.9318 -3.36605 0
M  V30 872 H 84.0247 3.4451 -1.41929 0
M  V30 873 H 84.1377 3.4701 -3.30335 0
M  V30 874 H 82.5017 1.91016 -1.68478 0
M  V30 875 H 83.2847 1.22224 -3.20806 0
M  V30 876 N 85.7298 1.2412 0.971189 0
M  V30 877 C 86.6598 1.05508 2.08304 0
M  V30 878 C 87.6408 -0.0308864 1.70072 0
M  V30 879 O 88.8258 0.135521 1.93727 0
M  V30 880 C 85.9558 0.655365 3.4106 0
M  V30 881 C 84.9098 1.68971 3.93234 0
M  V30 882 C 84.2358 1.14516 5.22293 0
M  V30 883 C 85.5358 3.08487 4.21465 0
M  V30 884 H 87.2298 1.98507 2.24132 0
M  V30 885 H 84.7758 0.955821 1.07704 0
M  V30 886 H 86.7288 0.51217 4.18276 0
M  V30 887 H 85.4528 -0.31032 3.25122 0
M  V30 888 H 84.1118 1.82106 3.18171 0
M  V30 889 H 83.7598 0.170189 5.02712 0
M  V30 890 H 83.4598 1.83635 5.58168 0
M  V30 891 H 84.9838 1.01401 6.02121 0
M  V30 892 H 86.3978 2.98601 4.89398 0
M  V30 893 H 84.7948 3.74926 4.68562 0
M  V30 894 H 85.8648 3.56787 3.28376 0
M  V30 895 N 87.2079 -1.17134 1.05439 0
M  V30 896 C 88.6189 -1.69084 0.791676 0
M  V30 897 C 88.9699 -1.83822 -0.685839 0
M  V30 898 O 88.0949 -1.52757 -1.53278 0
M  V30 899 C 88.6899 -3.07119 1.4305 0
M  V30 900 C 87.2489 -3.56225 1.21577 0
M  V30 901 C 86.3959 -2.32421 1.51247 0
M  V30 902 H 89.3469 -1.01617 1.219 0
M  V30 903 H 89.3679 -3.71087 0.84112 0
M  V30 904 H 88.8799 -2.9636 2.50584 0
M  V30 905 H 86.9809 -3.72257 0.159787 0
M  V30 906 H 87.0939 -4.38837 1.92246 0
M  V30 907 H 85.4579 -2.3701 0.932653 0
M  V30 908 H 86.2409 -2.24268 2.5992 0
M  V30 909 N 88.686 -0.835752 -1.33615 0
M  V30 910 C 89.616 -0.281739 -2.31794 0
M  V30 911 C 90.597 0.608833 -1.58831 0
M  V30 912 O 91.782 0.533035 -1.86741 0
M  V30 913 C 88.912 0.546612 -3.42971 0
M  V30 914 C 87.866 -0.247904 -4.27281 0
M  V30 915 C 87.192 0.704001 -5.30045 0
M  V30 916 C 88.492 -1.46324 -5.01385 0
M  V30 917 H 90.186 -1.10206 -2.78379 0
M  V30 918 H 87.732 -0.531388 -1.33837 0
M  V30 919 H 89.685 0.944467 -4.1068 0
M  V30 920 H 88.409 1.40011 -2.95067 0
M  V30 921 H 87.068 -0.627281 -3.61194 0
M  V30 922 H 86.716 1.55381 -4.78399 0
M  V30 923 H 86.416 0.176524 -5.87335 0
M  V30 924 H 87.94 1.09944 -6.0062 0
M  V30 925 H 89.354 -1.13871 -5.61877 0
M  V30 926 H 87.751 -1.92728 -5.6831 0
M  V30 927 H 88.821 -2.23467 -4.30338 0
M  V30 928 N 90.1641 1.46063 -0.591896 0
M  V30 929 C 91.3891 2.07226 -0.0850314 0
M  V30 930 C 91.8141 1.43625 1.21463 0
M  V30 931 O 91.1721 0.523305 1.73583 0
M  V30 932 C 91.2201 3.60554 0.0576567 0
M  V30 933 O 90.3241 3.97128 1.11188 0
M  V30 934 H 89.6651 0.660615 -0.0669568 0
M  V30 935 H 92.1951 1.8756 -0.81745 0
M  V30 936 H 92.2051 4.07165 0.2609 0
M  V30 937 H 90.8801 4.06235 -0.891416 0
M  V30 938 H 89.4571 3.62213 0.886356 0
M  V30 939 N 91.6422 0.330177 1.54103 0
M  V30 940 C 92.8882 -0.270806 2.00984 0
M  V30 941 C 93.2212 -1.51265 1.21789 0
M  V30 942 O 92.4962 -1.92142 0.301927 0
M  V30 943 C 92.7792 -0.598339 3.55094 0
M  V30 944 C 92.6322 0.654674 4.4501 0
M  V30 945 C 93.9512 -1.41334 4.16789 0
M  V30 946 H 91.0702 -0.0969531 0.730595 0
M  V30 947 H 93.7122 0.448066 1.84641 0
M  V30 948 H 91.8622 -1.21078 3.69151 0
M  V30 949 H 93.5342 1.29285 4.42813 0
M  V30 950 H 91.7772 1.28224 4.14416 0
M  V30 951 H 92.4482 0.380944 5.50684 0
M  V30 952 H 94.9242 -0.895597 4.06347 0
M  V30 953 H 93.8002 -1.61127 5.24718 0
M  V30 954 H 94.0612 -2.41146 3.70541 0
M  V30 955 N 93.1203 -1.57491 0.0584922 0
M  V30 956 C 94.0673 -2.11958 -0.913376 0
M  V30 957 C 95.0373 -1.02875 -1.30407 0
M  V30 958 O 96.2223 -1.30464 -1.39226 0
M  V30 959 C 93.3623 -2.67497 -2.18035 0
M  V30 960 C 92.4753 -3.90691 -1.84349 0
M  V30 961 C 91.6103 -4.3452 -3.05559 0
M  V30 962 C 90.6493 -5.50395 -2.67827 0
M  V30 963 N 89.7863 -5.89244 -3.81754 0
M  V30 964 H 94.6263 -2.94704 -0.442017 0
M  V30 965 H 92.1633 -1.45643 -0.206545 0
M  V30 966 H 94.1213 -2.978 -2.92183 0
M  V30 967 H 92.7513 -1.87537 -2.62735 0
M  V30 968 H 91.8033 -3.66934 -1.00319 0
M  V30 969 H 93.1153 -4.7489 -1.5258 0
M  V30 970 H 92.2693 -4.66414 -3.87998 0
M  V30 971 H 91.0083 -3.49147 -3.40511 0
M  V30 972 H 90.0133 -5.18165 -1.83806 0
M  V30 973 H 91.2383 -6.3749 -2.34059 0
M  V30 974 H 89.1843 -5.06823 -4.16493 0
M  V30 975 H 89.1013 -6.68151 -3.53708 0
M  V30 976 H 90.3693 -6.25756 -4.64811 0
M  V30 977 N 94.5984 0.214957 -1.56127 0
M  V30 978 C 95.5314 1.29382 -1.87977 0
M  V30 979 C 96.5094 1.44897 -0.737807 0
M  V30 980 O 97.6934 1.60605 -0.986833 0
M  V30 981 C 94.8204 2.66325 -2.09258 0
M  V30 982 C 93.8664 2.67789 -3.31951 0
M  V30 983 S 94.6994 2.21198 -4.8768 0
M  V30 984 C 95.8554 3.60003 -5.12004 0
M  V30 985 H 96.0884 1.02173 -2.79192 0
M  V30 986 H 93.6214 0.417516 -1.48648 0
M  V30 987 H 95.5794 3.45162 -2.22201 0
M  V30 988 H 94.2404 2.90755 -1.18829 0
M  V30 989 H 93.4334 3.68436 -3.43906 0
M  V30 990 H 93.0354 1.9702 -3.17898 0
M  V30 991 H 95.3274 4.55739 -5.01307 0
M  V30 992 H 96.2704 3.52959 -6.13861 0
M  V30 993 H 96.6784 3.53996 -4.39712 0
M  V30 994 N 96.0765 1.50051 0.48192 0
M  V30 995 C 97.3045 1.64237 1.25832 0
M  V30 996 C 97.7195 0.321336 1.86045 0
M  V30 997 O 97.0765 -0.695478 1.68729 0
M  V30 998 C 97.1275 2.72548 2.37487 0
M  V30 999 O 96.8485 3.99529 1.79745 0
M  V30 1000 C 98.3495 2.9761 3.28547 0
M  V30 1001 H 95.5695 0.55237 0.380957 0
M  V30 1002 H 98.1135 1.96207 0.576467 0
M  V30 1003 H 96.2685 2.43303 3.01467 0
M  V30 1004 H 96.6825 4.59342 2.5319 0
M  V30 1005 H 98.1565 3.77084 4.03127 0
M  V30 1006 H 98.6335 2.0826 3.86684 0
M  V30 1007 H 99.2395 3.28345 2.70314 0
M  V30 1008 N 97.5546 -0.734337 1.39446 0
M  V30 1009 C 98.9656 -1.31264 1.32766 0
M  V30 1010 C 99.3166 -1.96198 -0.00767497 0
M  V30 1011 O 98.4416 -1.96346 -0.909796 0
M  V30 1012 C 99.0366 -2.38682 2.4045 0
M  V30 1013 C 97.5956 -2.92184 2.37288 0
M  V30 1014 C 96.7426 -1.6576 2.22304 0
M  V30 1015 H 99.6936 -0.531799 1.49525 0
M  V30 1016 H 99.7146 -3.19087 2.07276 0
M  V30 1017 H 99.2266 -1.91392 3.37625 0
M  V30 1018 H 97.3276 -3.43752 1.43754 0
M  V30 1019 H 97.4406 -3.45253 3.3217 0
M  V30 1020 H 95.8046 -1.9012 1.69489 0
M  V30 1021 H 96.5876 -1.20521 3.21449 0
M  V30 1022 N 99.0327 -1.24633 -0.964593 0
M  V30 1023 C 99.9807 -1.03917 -2.08096 0
M  V30 1024 C 100.975 0.0268581 -1.69379 0
M  V30 1025 O 102.181 -0.127952 -1.79545 0
M  V30 1026 H 98.5557 -0.319044 -0.680966 0
M  V30 1027 H 100.527 -1.98581 -2.22729 0
M  V30 1028 C 99.2757 -0.663983 -3.41301 0
M  V30 1029 H 98.5987 -1.47605 -3.71555 0
M  V30 1030 H 100.039 -0.558663 -4.20303 0
M  V30 1031 C 98.4977 0.629169 -3.30973 0
M  V30 1032 O 99.0277 1.67404 -3.65156 0
M  V30 1033 N 97.2337 0.611057 -2.84103 0
M  V30 1034 H 96.7807 -0.239593 -2.56483 0
M  V30 1035 H 96.7387 1.47647 -2.77575 0
M  V30 1036 N 100.511 1.16574 -1.06058 0
M  V30 1037 C 101.441 2.23057 -0.690488 0
M  V30 1038 C 102.422 1.67141 0.315901 0
M  V30 1039 O 103.607 1.93253 0.191556 0
M  V30 1040 C 100.737 3.47222 -0.073625 0
M  V30 1041 C 99.6908 4.16016 -1.00573 0
M  V30 1042 C 99.0168 5.34104 -0.252289 0
M  V30 1043 C 100.317 4.67264 -2.33371 0
M  V30 1044 H 102.011 2.54271 -1.58072 0
M  V30 1045 H 99.5568 1.22218 -0.76149 0
M  V30 1046 H 101.51 4.20939 0.19714 0
M  V30 1047 H 100.234 3.15302 0.85161 0
M  V30 1048 H 98.8928 3.44223 -1.2612 0
M  V30 1049 H 98.5408 4.98437 0.675988 0
M  V30 1050 H 98.2408 5.81072 -0.873455 0
M  V30 1051 H 99.7648 6.10599 0.0109857 0
M  V30 1052 H 101.179 5.32573 -2.12223 0
M  V30 1053 H 99.5758 5.24843 -2.90963 0
M  V30 1054 H 100.646 3.83602 -2.96611 0
M  V30 1055 N 101.989 0.842826 1.3317 0
M  V30 1056 C 102.919 0.294028 2.31641 0
M  V30 1057 C 103.9 -0.600401 1.59151 0
M  V30 1058 O 105.085 -0.523124 1.87022 0
M  V30 1059 C 102.215 -0.528416 3.43257 0
M  V30 1060 C 101.169 0.27056 4.27144 0
M  V30 1061 C 100.495 -0.675881 5.30411 0
M  V30 1062 C 101.795 1.48981 5.00602 0
M  V30 1063 H 103.489 1.11681 2.77791 0
M  V30 1064 H 101.035 0.538478 1.33553 0
M  V30 1065 H 102.988 -0.922674 4.11175 0
M  V30 1066 H 101.712 -1.38445 2.95805 0
M  V30 1067 H 100.371 0.646427 3.60856 0
M  V30 1068 H 100.019 -1.52842 4.79216 0
M  V30 1069 H 99.7189 -0.145374 5.8742 0
M  V30 1070 H 101.243 -1.06757 6.01195 0
M  V30 1071 H 102.657 1.16849 5.61266 0
M  V30 1072 H 101.054 1.95739 5.6728 0
M  V30 1073 H 102.124 2.25746 4.29147 0
M  V30 1074 N 103.467 -1.45747 0.599634 0
M  V30 1075 C 104.417 -2.27538 -0.145107 0
M  V30 1076 C 105.401 -1.3686 -0.846055 0
M  V30 1077 O 106.593 -1.6091 -0.737357 0
M  V30 1078 C 103.722 -3.23569 -1.14708 0
M  V30 1079 C 102.808 -4.21734 -0.447383 0
M  V30 1080 N 103.199 -5.03257 0.506535 0
M  V30 1081 C 101.497 -4.40536 -0.695966 0
M  V30 1082 C 102.198 -5.74426 0.917068 0
M  V30 1083 N 101.174 -5.42966 0.26253 0
M  V30 1084 H 104.976 -2.87965 0.587672 0
M  V30 1085 H 102.49 -1.56803 0.422697 0
M  V30 1086 H 104.487 -3.8089 -1.69495 0
M  V30 1087 H 103.147 -2.64702 -1.8805 0
M  V30 1088 H 104.158 -5.10319 0.882899 0
M  V30 1089 H 100.835 -3.92802 -1.41467 0
M  V30 1090 H 102.225 -6.4995 1.70338 0
M  V30 1091 N 104.945 -0.338344 -1.53925 0
M  V30 1092 C 105.875 0.51328 -2.27789 0
M  V30 1093 C 106.856 1.107 -1.29149 0
M  V30 1094 O 108.041 1.12937 -1.57984 0
M  V30 1095 C 105.171 1.66697 -3.04679 0
M  V30 1096 C 104.125 1.20183 -4.1078 0
M  V30 1097 C 103.451 2.44363 -4.75595 0
M  V30 1098 C 104.751 0.30605 -5.21403 0
M  V30 1099 H 106.445 -0.102883 -2.99223 0
M  V30 1100 H 103.991 -0.0509219 -1.4391 0
M  V30 1101 H 105.944 2.26915 -3.55088 0
M  V30 1102 H 104.668 2.30995 -2.30887 0
M  V30 1103 H 103.327 0.622499 -3.61276 0
M  V30 1104 H 102.975 3.07057 -3.98403 0
M  V30 1105 H 102.675 2.13925 -5.47275 0
M  V30 1106 H 104.199 3.05317 -5.28786 0
M  V30 1107 H 105.613 0.814929 -5.67478 0
M  V30 1108 H 104.01 0.0937929 -6.00027 0
M  V30 1109 H 105.08 -0.65921 -4.80398 0
M  V30 1110 N 106.423 1.57458 -0.0668435 0
M  V30 1111 C 107.386 2.11323 0.887422 0
M  V30 1112 C 108.386 1.03618 1.22964 0
M  V30 1113 O 109.576 1.29626 1.16373 0
M  V30 1114 C 106.708 2.61048 2.19242 0
M  V30 1115 H 107.901 2.96942 0.420194 0
M  V30 1116 H 105.454 1.55239 0.181793 0
M  V30 1117 H 106.189 1.78868 2.70512 0
M  V30 1118 H 105.974 3.39769 1.95702 0
M  V30 1119 H 107.464 3.02814 2.87565 0
M  V30 1120 N 107.901 -0.206675 1.56239 0
M  V30 1121 C 109.312 -0.772383 1.69974 0
M  V30 1122 C 109.663 -1.84353 0.671436 0
M  V30 1123 O 108.788 -2.15695 -0.174491 0
M  V30 1124 C 109.383 -1.40779 3.08167 0
M  V30 1125 C 107.942 -1.92072 3.23706 0
M  V30 1126 C 107.089 -0.786347 2.65917 0
M  V30 1127 H 110.04 0.0182223 1.5869 0
M  V30 1128 H 110.061 -2.27696 3.04852 0
M  V30 1129 H 109.573 -0.627958 3.82986 0
M  V30 1130 H 107.674 -2.7281 2.53782 0
M  V30 1131 H 107.787 -2.09046 4.31087 0
M  V30 1132 H 106.151 -1.1976 2.24788 0
M  V30 1133 H 106.934 -0.0189416 3.43295 0
M  V30 1134 N 109.379 -1.50304 -0.473955 0
M  V30 1135 C 110.289 -1.7174 -1.5982 0
M  V30 1136 C 111.305 -0.600457 -1.63311 0
M  V30 1137 O 112.481 -0.878441 -1.81233 0
M  V30 1138 C 109.546 -1.80427 -2.96052 0
M  V30 1139 C 108.607 -3.04148 -3.02972 0
M  V30 1140 C 107.84 -3.12411 -4.32706 0
M  V30 1141 O 108.063 -2.27542 -5.23049 0
M  V30 1142 O 106.997 -4.05113 -4.45159 0
M  V30 1143 H 110.823 -2.67035 -1.44657 0
M  V30 1144 H 108.408 -1.34366 -0.653148 0
M  V30 1145 H 110.29 -1.88338 -3.7697 0
M  V30 1146 H 108.965 -0.883156 -3.11419 0
M  V30 1147 H 107.872 -3.0174 -2.21142 0
M  V30 1148 H 109.205 -3.95829 -2.92541 0
M  V30 1149 N 110.857 0.726932 -1.39834 0
M  V30 1150 C 111.805 1.86235 -1.39353 0
M  V30 1151 C 112.799 1.67144 -0.275555 0
M  V30 1152 O 114.005 1.74387 -0.44601 0
M  V30 1153 H 110.38 0.613174 -0.43534 0
M  V30 1154 H 112.351 1.83756 -2.35109 0
M  V30 1155 C 111.1 3.23995 -1.26185 0
M  V30 1156 H 110.423 3.39285 -2.11484 0
M  V30 1157 H 111.863 4.03609 -1.29907 0
M  V30 1158 C 110.322 3.36888 0.0290018 0
M  V30 1159 O 110.852 3.89152 0.99619 0
M  V30 1160 N 109.058 2.90446 0.0947437 0
M  V30 1161 H 108.605 2.48102 -0.693035 0
M  V30 1162 H 108.563 2.99451 0.957932 0
M  V30 1163 N 112.336 1.25143 0.95797 0
M  V30 1164 C 113.583 1.09692 1.70217 0
M  V30 1165 C 113.911 -0.362654 1.91089 0
M  V30 1166 O 113.166 -1.28386 1.47701 0
M  V30 1167 C 113.465 1.79272 3.09187 0
M  V30 1168 C 113.131 3.29196 3.08125 0
M  V30 1169 C 111.793 3.70096 3.07543 0
M  V30 1170 C 114.145 4.24995 3.0171 0
M  V30 1171 C 111.473 5.05213 2.9829 0
M  V30 1172 C 113.825 5.60132 2.93999 0
M  V30 1173 C 112.489 6.00365 2.9175 0
M  V30 1174 H 111.759 0.401393 0.622868 0
M  V30 1175 H 114.406 1.55372 1.11945 0
M  V30 1176 H 112.711 1.26014 3.70982 0
M  V30 1177 H 114.408 1.64773 3.65583 0
M  V30 1178 H 110.998 2.96651 3.09348 0
M  V30 1179 H 115.182 3.9439 3.01281 0
M  V30 1180 H 110.438 5.35569 2.94916 0
M  V30 1181 H 114.612 6.3406 2.87996 0
M  V30 1182 H 112.239 7.05023 2.84336 0
M  V30 1183 N 113.814 -1.1601 1.06675 0
M  V30 1184 C 115.044 -1.90251 0.805497 0
M  V30 1185 C 115.452 -1.77891 -0.64431 0
M  V30 1186 O 114.795 -1.12383 -1.45313 0
M  V30 1187 C 114.857 -3.41419 1.12576 0
M  V30 1188 C 114.521 -3.77564 2.57477 0
M  V30 1189 C 115.518 -3.79161 3.55715 0
M  V30 1190 C 113.203 -4.08079 2.92877 0
M  V30 1191 C 115.197 -4.10767 4.8739 0
M  V30 1192 C 112.884 -4.39351 4.24751 0
M  V30 1193 C 113.882 -4.40675 5.21818 0
M  V30 1194 O 113.57 -4.71202 6.51325 0
M  V30 1195 H 113.302 -0.610018 0.291297 0
M  V30 1196 H 115.856 -1.47958 1.4247 0
M  V30 1197 H 114.086 -3.84079 0.449503 0
M  V30 1198 H 115.775 -3.9694 0.84814 0
M  V30 1199 H 116.541 -3.55693 3.29708 0
M  V30 1200 H 112.42 -4.06211 2.17976 0
M  V30 1201 H 115.964 -4.11715 5.63148 0
M  V30 1202 H 111.861 -4.62285 4.50514 0
M  V30 1203 H 112.629 -4.88996 6.56373 0
M  V30 1204 N 115.292 -0.849877 -1.32721 0
M  V30 1205 C 116.541 -0.447175 -1.96681 0
M  V30 1206 C 116.854 1.00135 -1.68025 0
M  V30 1207 O 118.06 1.50926 -2.25685 0
M  V30 1208 C 116.516 -0.7487 -3.52026 0
M  V30 1209 C 116.124 -2.21264 -3.89546 0
M  V30 1210 C 117.868 -0.413487 -4.22481 0
M  V30 1211 C 115.775 -2.45763 -5.37917 0
M  V30 1212 H 114.705 -0.163486 -0.736063 0
M  V30 1213 H 117.356 -1.03999 -1.51183 0
M  V30 1214 H 115.738 -0.0853727 -3.95908 0
M  V30 1215 H 116.912 -2.91736 -3.56689 0
M  V30 1216 H 115.227 -2.5119 -3.32103 0
M  V30 1217 H 117.824 -0.574017 -5.3161 0
M  V30 1218 H 118.167 0.644492 -4.11281 0
M  V30 1219 H 118.7 -1.03251 -3.84167 0
M  V30 1220 H 115.439 -3.50168 -5.54132 0
M  V30 1221 H 114.959 -1.79864 -5.72197 0
M  V30 1222 H 116.638 -2.29471 -6.0494 0
M  V30 1223 N 116.77 1.45427 -0.607355 0
M  V30 1224 C 117.995 2.07124 -0.107006 0
M  V30 1225 C 118.42 1.44906 1.19933 0
M  V30 1226 O 117.778 0.541687 1.73019 0
M  V30 1227 C 117.826 3.60595 0.0194119 0
M  V30 1228 O 116.93 3.98285 1.0697 0
M  V30 1229 H 116.271 0.659868 -0.0739597 0
M  V30 1230 H 118.801 1.86683 -0.837297 0
M  V30 1231 H 118.811 4.07419 0.2177 0
M  V30 1232 H 117.486 4.05266 -0.934453 0
M  V30 1233 H 116.063 3.63133 0.847889 0
M  V30 1234 N 118.248 0.346503 1.53744 0
M  V30 1235 C 119.198 -0.524953 2.21874 0
M  V30 1236 C 120.182 -1.06376 1.20718 0
M  V30 1237 O 121.374 -0.996972 1.46251 0
M  V30 1238 C 118.503 -1.6739 2.99726 0
M  V30 1239 C 117.589 -1.14888 4.08242 0
M  V30 1240 N 117.98 -0.345329 5.0462 0
M  V30 1241 C 116.278 -1.4255 4.22606 0
M  V30 1242 C 116.979 -0.0600706 5.81669 0
M  V30 1243 N 115.955 -0.65252 5.39669 0
M  V30 1244 H 119.757 0.0960091 2.93743 0
M  V30 1245 H 117.271 0.15352 1.61673 0
M  V30 1246 H 119.268 -2.3102 3.47038 0
M  V30 1247 H 117.928 -2.29811 2.29384 0
M  V30 1248 H 118.939 0.0138439 5.17898 0
M  V30 1249 H 115.616 -2.05389 3.63486 0
M  V30 1250 H 117.006 0.588321 6.69319 0
M  V30 1251 N 119.726 -1.57421 0.075193 0
M  V30 1252 C 120.951 -1.98364 -0.605515 0
M  V30 1253 C 121.376 -0.953383 -1.62149 0
M  V30 1254 O 120.734 0.0806053 -1.81121 0
M  V30 1255 C 120.782 -3.38332 -1.24756 0
M  V30 1256 O 119.886 -3.37959 -2.36342 0
M  V30 1257 H 119.227 -0.645553 -0.155428 0
M  V30 1258 H 121.757 -2.04044 0.150714 0
M  V30 1259 H 121.767 -3.75591 -1.5936 0
M  V30 1260 H 120.442 -4.12846 -0.503129 0
M  V30 1261 H 119.019 -3.12474 -2.03506 0
M  V30 1262 N 121.204 0.198386 -1.56346 0
M  V30 1263 C 122.615 0.763358 -1.70381 0
M  V30 1264 C 122.966 1.83995 -0.681203 0
M  V30 1265 O 122.091 2.15785 0.16305 0
M  V30 1266 C 122.686 1.39143 -3.08909 0
M  V30 1267 C 121.245 1.90352 -3.2472 0
M  V30 1268 C 120.392 0.772233 -2.6633 0
M  V30 1269 H 123.343 -0.0266377 -1.58678 0
M  V30 1270 H 123.364 2.26076 -3.06055 0
M  V30 1271 H 122.876 0.607638 -3.83314 0
M  V30 1272 H 120.977 2.71461 -2.55225 0
M  V30 1273 H 121.09 2.06757 -4.3219 0
M  V30 1274 H 119.454 1.18566 -2.2542 0
M  V30 1275 H 120.237 0.00073556 -3.433 0
M  V30 1276 N 122.682 1.50554 0.465978 0
M  V30 1277 C 123.63 1.70324 1.58406 0
M  V30 1278 C 124.624 0.569139 1.59553 0
M  V30 1279 O 125.83 0.749776 1.63641 0
M  V30 1280 H 122.205 0.537688 0.525734 0
M  V30 1281 H 124.176 2.64104 1.38894 0
M  V30 1282 C 122.925 1.81928 2.96307 0
M  V30 1283 H 122.248 2.68586 2.96144 0
M  V30 1284 H 123.688 1.99784 3.73982 0
M  V30 1285 C 122.147 0.572095 3.32007 0
M  V30 1286 O 122.677 -0.286416 4.00678 0
M  V30 1287 N 120.883 0.424606 2.87481 0
M  V30 1288 H 120.43 1.12427 2.31771 0
M  V30 1289 H 120.388 -0.408697 3.11732 0
M  V30 1290 N 124.16 -0.719506 1.40217 0
M  V30 1291 C 125.385 -1.51371 1.4178 0
M  V30 1292 C 125.81 -1.88091 0.0182355 0
M  V30 1293 O 125.168 -1.52997 -0.972707 0
M  V30 1294 C 125.216 -2.768 2.31115 0
M  V30 1295 O 124.32 -3.73349 1.7517 0
M  V30 1296 H 123.661 -0.456529 0.482159 0
M  V30 1297 H 126.191 -0.88644 1.844 0
M  V30 1298 H 126.201 -3.25371 2.46167 0
M  V30 1299 H 124.876 -2.49407 3.3282 0
M  V30 1300 H 123.453 -3.32179 1.69444 0
M  V30 1301 N 125.638 -1.25649 -0.95132 0
M  V30 1302 C 126.866 -1.13343 -1.73092 0
M  V30 1303 C 127.281 0.312434 -1.86197 0
M  V30 1304 O 126.638 1.21465 -1.36207 0
M  V30 1305 C 126.689 -1.78602 -3.14299 0
M  V30 1306 O 126.41 -3.17537 -3.01831 0
M  V30 1307 C 127.911 -1.72119 -4.08522 0
M  V30 1308 H 125.131 -0.395181 -0.542285 0
M  V30 1309 H 127.675 -1.66076 -1.19328 0
M  V30 1310 H 125.83 -1.29832 -3.64996 0
M  V30 1311 H 126.244 -3.49676 -3.90931 0
M  V30 1312 H 127.718 -2.22435 -5.052 0
M  V30 1313 H 128.195 -0.685635 -4.33815 0
M  V30 1314 H 128.801 -2.20393 -3.63741 0
M  V30 1315 N 127.117 1.15442 -1.07289 0
M  V30 1316 C 128.08 2.18358 -0.696591 0
M  V30 1317 C 129.08 1.58637 0.262837 0
M  V30 1318 O 130.27 1.74145 0.0438809 0
M  V30 1319 C 127.402 3.4089 -0.0266151 0
M  V30 1320 H 128.595 2.53162 -1.60776 0
M  V30 1321 H 126.148 1.29893 -0.869342 0
M  V30 1322 H 126.883 3.11653 0.896822 0
M  V30 1323 H 126.668 3.85495 -0.716657 0
M  V30 1324 H 128.158 4.17009 0.222028 0
M  V30 1325 N 128.595 0.856903 1.32268 0
M  V30 1326 C 129.843 0.460474 1.96784 0
M  V30 1327 C 130.164 -0.987701 1.68135 0
M  V30 1328 O 129.434 -1.69058 0.989765 0
M  V30 1329 H 128.014 0.167289 0.728027 0
M  V30 1330 H 130.676 1.09383 1.61312 0
M  V30 1331 H 129.772 0.60739 3.06133 0
M  V30 1332 N 130.073 -1.45103 0.615059 0
M  V30 1333 C 131.484 -1.85654 0.197383 0
M  V30 1334 C 131.835 -1.51433 -1.24749 0
M  V30 1335 O 130.96 -0.944608 -1.94695 0
M  V30 1336 C 131.555 -3.36972 0.351448 0
M  V30 1337 C 130.114 -3.76398 -0.011593 0
M  V30 1338 C 129.261 -2.69024 0.672394 0
M  V30 1339 H 132.212 -1.35797 0.821263 0
M  V30 1340 H 132.233 -3.78239 -0.414227 0
M  V30 1341 H 131.745 -3.61847 1.40314 0
M  V30 1342 H 129.846 -3.5714 -1.06217 0
M  V30 1343 H 129.959 -4.77532 0.387265 0
M  V30 1344 H 128.323 -2.54465 0.109284 0
M  V30 1345 H 129.106 -2.96735 1.72636 0
M  V30 1346 N 131.551 -0.354651 -1.53558 0
M  V30 1347 C 132.776 0.242153 -2.05981 0
M  V30 1348 C 133.201 1.42553 -1.2272 0
M  V30 1349 O 132.559 1.79656 -0.243604 0
M  V30 1350 C 132.607 0.624367 -3.55154 0
M  V30 1351 O 131.711 1.72301 -3.74681 0
M  V30 1352 H 131.052 0.0378432 -0.662921 0
M  V30 1353 H 133.582 -0.512087 -1.98088 0
M  V30 1354 H 133.592 0.898433 -3.97985 0
M  V30 1355 H 132.267 -0.240989 -4.15201 0
M  V30 1356 H 130.844 1.44535 -3.4375 0
M  V30 1357 N 133.029 1.57378 -0.0835403 0
M  V30 1358 C 134.269 1.95808 0.586381 0
M  V30 1359 C 134.633 0.963706 1.66062 0
M  V30 1360 O 135.834 1.23608 2.38693 0
M  V30 1361 C 134.105 3.38808 1.13771 0
M  V30 1362 S 135.664 3.99225 1.82112 0
M  V30 1363 H 132.482 0.684675 0.191679 0
M  V30 1364 H 135.084 1.94843 -0.160194 0
M  V30 1365 H 133.788 4.08954 0.344197 0
M  V30 1366 H 133.319 3.43344 1.92038 0
M  V30 1367 H 135.334 3.87087 3.10449 0
M  V30 1368 N 134.507 -0.190092 1.56449 0
M  V30 1369 C 135.735 -0.925772 1.85033 0
M  V30 1370 C 136.15 -1.76638 0.666658 0
M  V30 1371 O 135.507 -1.78822 -0.364565 0
M  V30 1372 C 135.558 -1.81786 3.12468 0
M  V30 1373 O 135.279 -1.01118 4.26271 0
M  V30 1374 C 136.78 -2.6648 3.54265 0
M  V30 1375 H 134 -0.269872 0.614337 0
M  V30 1376 H 136.544 -0.195837 2.0356 0
M  V30 1377 H 134.699 -2.50136 2.95822 0
M  V30 1378 H 135.113 -1.61956 4.98869 0
M  V30 1379 H 136.587 -3.24722 4.46385 0
M  V30 1380 H 137.064 -3.40434 2.77491 0
M  V30 1381 H 137.67 -2.03493 3.73458 0
M  V30 1382 N 135.985 -1.50799 -0.457987 0
M  V30 1383 C 136.915 -1.73553 -1.5621 0
M  V30 1384 C 137.896 -0.584774 -1.59732 0
M  V30 1385 O 139.081 -0.825314 -1.7579 0
M  V30 1386 C 136.211 -1.84169 -2.94447 0
M  V30 1387 C 135.165 -2.99461 -3.0579 0
M  V30 1388 C 134.491 -2.95235 -4.45803 0
M  V30 1389 C 135.791 -4.39766 -2.81786 0
M  V30 1390 H 137.485 -2.66 -1.37421 0
M  V30 1391 H 135.031 -1.28002 -0.659662 0
M  V30 1392 H 136.984 -1.98672 -3.71628 0
M  V30 1393 H 135.708 -0.883545 -3.14422 0
M  V30 1394 H 134.367 -2.8463 -2.31044 0
M  V30 1395 H 134.015 -1.97239 -4.62715 0
M  V30 1396 H 133.715 -3.72642 -4.54326 0
M  V30 1397 H 135.239 -3.11803 -5.24987 0
M  V30 1398 H 136.653 -4.55054 -3.4871 0
M  V30 1399 H 135.05 -5.18722 -3.0174 0
M  V30 1400 H 136.12 -4.51229 -1.7754 0
M  V30 1401 N 137.463 0.71206 -1.40597 0
M  V30 1402 C 138.393 1.83889 -1.43899 0
M  V30 1403 C 139.374 1.67442 -0.299504 0
M  V30 1404 O 140.559 1.87421 -0.508624 0
M  V30 1405 C 137.689 3.21877 -1.30431 0
M  V30 1406 C 136.643 3.53002 -2.42019 0
M  V30 1407 C 135.969 4.90172 -2.13626 0
M  V30 1408 C 137.269 3.53643 -3.84362 0
M  V30 1409 H 138.963 1.81383 -2.38203 0
M  V30 1410 H 136.509 0.871237 -1.14654 0
M  V30 1411 H 138.462 4.00404 -1.31357 0
M  V30 1412 H 137.186 3.24968 -0.326049 0
M  V30 1413 H 135.845 2.76818 -2.40349 0
M  V30 1414 H 135.493 4.89869 -1.14182 0
M  V30 1415 H 135.193 5.11962 -2.88389 0
M  V30 1416 H 136.717 5.71028 -2.1624 0
M  V30 1417 H 138.131 4.22203 -3.87837 0
M  V30 1418 H 136.528 3.86961 -4.58673 0
M  V30 1419 H 137.598 2.52954 -4.13693 0
M  V30 1420 N 138.941 1.26152 0.944643 0
M  V30 1421 C 139.851 1.09176 2.07648 0
M  V30 1422 C 140.867 0.0261935 1.7398 0
M  V30 1423 O 142.043 0.229208 2.00091 0
M  V30 1424 C 139.108 0.722915 3.39079 0
M  V30 1425 C 138.169 1.86752 3.86552 0
M  V30 1426 C 137.402 1.51617 5.11711 0
M  V30 1427 O 137.625 0.416331 5.68879 0
M  V30 1428 O 136.559 2.34975 5.54139 0
M  V30 1429 H 140.385 2.0412 2.24875 0
M  V30 1430 H 137.97 1.05182 1.061 0
M  V30 1431 H 139.852 0.529787 4.18056 0
M  V30 1432 H 138.527 -0.197159 3.23099 0
M  V30 1433 H 137.434 2.11558 3.08535 0
M  V30 1434 H 138.767 2.76719 4.07047 0
M  V30 1435 N 140.419 -1.14872 1.07899 0
M  V30 1436 C 141.329 -2.2341 0.715915 0
M  V30 1437 C 142.345 -1.71808 -0.275306 0
M  V30 1438 O 143.521 -2.01039 -0.120545 0
M  V30 1439 C 140.586 -3.46474 0.125168 0
M  V30 1440 C 139.647 -4.13039 1.17034 0
M  V30 1441 C 138.88 -5.30229 0.607688 0
M  V30 1442 O 139.103 -5.675 -0.574497 0
M  V30 1443 O 138.037 -5.86444 1.35526 0
M  V30 1444 H 141.863 -2.56808 1.62121 0
M  V30 1445 H 139.448 -1.22702 0.852322 0
M  V30 1446 H 141.33 -4.20917 -0.201729 0
M  V30 1447 H 140.005 -3.14811 -0.753364 0
M  V30 1448 H 138.912 -3.40493 1.54968 0
M  V30 1449 H 140.245 -4.48796 2.02097 0
M  V30 1450 N 141.898 -0.863906 -1.31812 0
M  V30 1451 C 142.861 -0.320212 -2.26952 0
M  V30 1452 C 143.861 0.525369 -1.51975 0
M  V30 1453 O 145.051 0.335547 -1.70938 0
M  V30 1454 C 142.183 0.545919 -3.365 0
M  V30 1455 H 143.376 -1.16004 -2.76556 0
M  V30 1456 H 140.929 -0.638995 -1.42641 0
M  V30 1457 H 141.664 1.40718 -2.92179 0
M  V30 1458 H 141.449 -0.0594674 -3.92055 0
M  V30 1459 H 142.939 0.918796 -4.07367 0
M  V30 1460 N 143.376 1.44774 -0.622745 0
M  V30 1461 C 144.623 2.02121 -0.1239 0
M  V30 1462 C 144.951 1.48915 1.25118 0
M  V30 1463 O 144.206 0.660045 1.84233 0
M  V30 1464 C 144.505 3.57364 -0.0508323 0
M  V30 1465 C 144.171 4.29787 -1.36358 0
M  V30 1466 C 142.833 4.4929 -1.72314 0
M  V30 1467 C 145.185 4.71062 -2.23048 0
M  V30 1468 C 142.513 5.07325 -2.94682 0
M  V30 1469 C 144.865 5.30452 -3.44679 0
M  V30 1470 C 143.529 5.48175 -3.80868 0
M  V30 1471 H 142.799 0.739612 -0.0453381 0
M  V30 1472 H 145.446 1.73648 -0.807389 0
M  V30 1473 H 143.751 3.85202 0.715991 0
M  V30 1474 H 145.448 3.99456 0.351533 0
M  V30 1475 H 142.038 4.14932 -1.07375 0
M  V30 1476 H 146.222 4.55715 -1.96565 0
M  V30 1477 H 141.478 5.19235 -3.22809 0
M  V30 1478 H 145.652 5.61385 -4.12092 0
M  V30 1479 H 143.279 5.92912 -4.75773 0
M  V30 1480 N 144.854 0.36279 1.53368 0
M  V30 1481 C 146.27 0.0116182 1.59596 0
M  V30 1482 C 146.47 -1.47012 1.37803 0
M  V30 1483 O 145.526 -2.23136 1.18181 0
M  V30 1484 C 146.839 0.465052 2.97082 0
M  V30 1485 C 148.387 0.419033 3.10182 0
M  V30 1486 C 148.862 0.848235 4.50077 0
M  V30 1487 N 150.353 0.803183 4.56183 0
M  V30 1488 C 151.088 1.107 5.62613 0
M  V30 1489 N 150.584 1.47996 6.76808 0
M  V30 1490 N 152.377 1.02998 5.52583 0
M  V30 1491 H 144.528 1.32775 1.65785 0
M  V30 1492 H 146.791 0.542518 0.777417 0
M  V30 1493 H 146.497 1.49892 3.18159 0
M  V30 1494 H 146.371 -0.149786 3.76902 0
M  V30 1495 H 148.758 -0.605696 2.88817 0
M  V30 1496 H 148.839 1.06933 2.32377 0
M  V30 1497 H 148.483 1.87107 4.7218 0
M  V30 1498 H 148.413 0.175218 5.26308 0
M  V30 1499 H 150.904 0.52838 3.74188 0
M  V30 1500 H 151.217 1.69613 7.53957 0
M  V30 1501 H 149.562 1.51859 6.78206 0
M  V30 1502 H 152.753 0.737817 4.62249 0
M  V30 1503 H 152.926 1.2701 6.35431 0
M  V30 1504 N 146.332 -1.57332 0.0918853 0
M  V30 1505 C 147.748 -1.57389 -0.264766 0
M  V30 1506 C 147.948 -1.10281 -1.68643 0
M  V30 1507 O 147.004 -0.777801 -2.40222 0
M  V30 1508 C 148.317 -3.00648 -0.0561195 0
M  V30 1509 C 149.865 -3.12754 -0.124116 0
M  V30 1510 C 150.34 -4.57965 0.0564972 0
M  V30 1511 N 151.831 -4.632 0.00155611 0
M  V30 1512 C 152.566 -5.73281 0.116598 0
M  V30 1513 N 152.062 -6.92208 0.286294 0
M  V30 1514 N 153.855 -5.6207 0.0580973 0
M  V30 1515 H 146.006 -1.86262 1.02079 0
M  V30 1516 H 148.269 -0.859579 0.399786 0
M  V30 1517 H 147.975 -3.393 0.925669 0
M  V30 1518 H 147.849 -3.68623 -0.799823 0
M  V30 1519 H 150.236 -2.73976 -1.09641 0
M  V30 1520 H 150.317 -2.47377 0.651024 0
M  V30 1521 H 149.961 -4.97436 1.02564 0
M  V30 1522 H 149.891 -5.21399 -0.738297 0
M  V30 1523 H 152.382 -3.77686 -0.127192 0
M  V30 1524 H 152.695 -7.71934 0.365676 0
M  V30 1525 H 151.04 -6.94254 0.32192 0
M  V30 1526 H 154.231 -4.68043 -0.0733204 0
M  V30 1527 H 154.404 -6.47824 0.151203 0
M  V30 1528 N 147.81 0.181792 -1.56548 0
M  V30 1529 C 149.04 0.914618 -1.85252 0
M  V30 1530 C 149.448 1.76791 -0.673914 0
M  V30 1531 O 148.791 1.80009 0.366416 0
M  V30 1532 C 148.853 1.85019 -3.08234 0
M  V30 1533 C 148.517 1.17754 -4.41569 0
M  V30 1534 C 149.514 0.548035 -5.17003 0
M  V30 1535 C 147.199 1.17742 -4.88305 0
M  V30 1536 C 149.193 -0.0726128 -6.37359 0
M  V30 1537 C 146.88 0.552946 -6.08593 0
M  V30 1538 C 147.878 -0.070978 -6.82963 0
M  V30 1539 O 147.566 -0.685635 -8.00971 0
M  V30 1540 H 147.298 0.271695 -0.618998 0
M  V30 1541 H 149.852 0.189944 -2.0452 0
M  V30 1542 H 148.082 2.61491 -2.84885 0
M  V30 1543 H 149.771 2.45195 -3.23472 0
M  V30 1544 H 150.537 0.540174 -4.81982 0
M  V30 1545 H 146.416 1.65246 -4.30366 0
M  V30 1546 H 149.96 -0.560213 -6.95347 0
M  V30 1547 H 145.857 0.558354 -6.43081 0
M  V30 1548 H 146.625 -0.58385 -8.16415 0
M  V30 1549 N 149.288 1.51039 0.449983 0
M  V30 1550 C 150.238 1.67824 1.54335 0
M  V30 1551 C 151.222 0.5324 1.51836 0
M  V30 1552 O 152.414 0.787762 1.58503 0
M  V30 1553 C 149.543 1.7951 2.92628 0
M  V30 1554 C 148.629 2.99838 2.9993 0
M  V30 1555 N 149.02 4.23207 2.77001 0
M  V30 1556 C 147.318 2.98832 3.31082 0
M  V30 1557 C 148.019 5.04361 2.89818 0
M  V30 1558 N 146.995 4.38746 3.2094 0
M  V30 1559 H 150.797 2.60884 1.35339 0
M  V30 1560 H 148.311 1.48513 0.657085 0
M  V30 1561 H 150.308 1.89642 3.7127 0
M  V30 1562 H 148.968 0.876227 3.12654 0
M  V30 1563 H 149.979 4.5236 2.52172 0
M  V30 1564 H 146.656 2.16527 3.56963 0
M  V30 1565 H 148.046 6.12528 2.76151 0
M  V30 1566 N 150.766 -0.704594 1.40972 0
M  V30 1567 C 152.014 -1.46169 1.39568 0
M  V30 1568 C 152.335 -1.95 0.00253745 0
M  V30 1569 O 151.605 -1.71095 -0.954114 0
M  V30 1570 H 150.185 -0.542326 0.513704 0
M  V30 1571 H 152.847 -0.834553 1.76128 0
M  V30 1572 H 151.943 -2.32922 2.07735 0
M  V30 1573 N 152.244 -1.26651 -0.937939 0
M  V30 1574 C 153.474 -1.15006 -1.71631 0
M  V30 1575 C 153.882 0.297026 -1.86854 0
M  V30 1576 O 153.225 1.21493 -1.37786 0
M  V30 1577 C 153.287 -1.74984 -3.14039 0
M  V30 1578 C 152.951 -3.24103 -3.2219 0
M  V30 1579 C 153.948 -4.20877 -3.05219 0
M  V30 1580 C 151.633 -3.64625 -3.45476 0
M  V30 1581 C 153.627 -5.56151 -3.11408 0
M  V30 1582 C 151.314 -5.00032 -3.513 0
M  V30 1583 C 152.312 -5.95604 -3.34282 0
M  V30 1584 O 152 -7.28545 -3.3982 0
M  V30 1585 H 151.732 -0.401183 -0.544085 0
M  V30 1586 H 154.286 -1.67832 -1.18413 0
M  V30 1587 H 152.516 -1.16624 -3.68695 0
M  V30 1588 H 154.205 -1.58199 -3.73802 0
M  V30 1589 H 154.971 -3.90908 -2.87081 0
M  V30 1590 H 150.85 -2.90718 -3.57777 0
M  V30 1591 H 154.394 -6.30727 -2.98043 0
M  V30 1592 H 150.291 -5.29659 -3.68959 0
M  V30 1593 H 151.059 -7.3686 -3.56343 0
M  V30 1594 N 153.722 1.14298 -1.08507 0
M  V30 1595 C 154.971 1.84708 -0.810305 0
M  V30 1596 C 155.284 1.83903 0.666271 0
M  V30 1597 O 156.49 2.50112 1.05624 0
M  V30 1598 C 154.946 3.31572 -1.39957 0
M  V30 1599 C 154.554 3.40791 -2.90801 0
M  V30 1600 C 156.298 4.07087 -1.20334 0
M  V30 1601 C 154.205 4.81872 -3.4286 0
M  V30 1602 H 153.135 0.691985 -0.299454 0
M  V30 1603 H 155.786 1.28841 -1.30661 0
M  V30 1604 H 154.168 3.87183 -0.830976 0
M  V30 1605 H 155.342 2.95225 -3.53806 0
M  V30 1606 H 153.657 2.78732 -3.0935 0
M  V30 1607 H 156.254 5.11225 -1.56693 0
M  V30 1608 H 156.597 4.16054 -0.143237 0
M  V30 1609 H 157.13 3.57779 -1.73893 0
M  V30 1610 H 153.869 4.78094 -4.48449 0
M  V30 1611 H 153.389 5.27972 -2.84615 0
M  V30 1612 H 155.068 5.50765 -3.39509 0
M  V30 1613 N 155.201 0.870884 1.31352 0
M  V30 1614 C 156.448 0.482273 1.96673 0
M  V30 1615 C 156.776 -0.965638 1.68836 0
M  V30 1616 O 156.031 -1.69514 0.977937 0
M  V30 1617 C 156.33 0.687157 3.50732 0
M  V30 1618 C 155.996 2.108 3.9859 0
M  V30 1619 C 154.658 2.49656 4.1137 0
M  V30 1620 C 157.01 3.03459 4.23748 0
M  V30 1621 C 154.338 3.80412 4.46659 0
M  V30 1622 C 156.69 4.3373 4.60501 0
M  V30 1623 C 155.354 4.725 4.71487 0
M  V30 1624 H 154.624 0.176476 0.719679 0
M  V30 1625 H 157.271 1.10405 1.56471 0
M  V30 1626 H 155.576 -0.0177476 3.91796 0
M  V30 1627 H 157.273 0.366284 3.99324 0
M  V30 1628 H 153.863 1.79633 3.8914 0
M  V30 1629 H 158.047 2.74665 4.13368 0
M  V30 1630 H 153.303 4.1021 4.53362 0
M  V30 1631 H 157.477 5.05578 4.78919 0
M  V30 1632 H 155.104 5.73859 4.98588 0
M  V30 1633 N 156.679 -1.44442 0.630414 0
M  V30 1634 C 157.927 -2.01653 0.134351 0
M  V30 1635 C 158.248 -1.49836 -1.24796 0
M  V30 1636 O 157.518 -0.701684 -1.82902 0
M  V30 1637 H 156.098 -0.74554 0.0466769 0
M  V30 1638 H 158.76 -1.76952 0.816955 0
M  V30 1639 H 157.856 -3.11935 0.101498 0
M  V30 1640 N 158.157 -0.370918 -1.53173 0
M  V30 1641 C 159.404 0.217102 -2.01333 0
M  V30 1642 C 159.732 1.48338 -1.25802 0
M  V30 1643 O 158.987 1.92698 -0.34146 0
M  V30 1644 C 159.286 0.549696 -3.53147 0
M  V30 1645 C 158.952 -0.622872 -4.46577 0
M  V30 1646 C 157.614 -0.944595 -4.71838 0
M  V30 1647 C 159.966 -1.40819 -5.01816 0
M  V30 1648 C 157.294 -2.05351 -5.49589 0
M  V30 1649 C 159.646 -2.50757 -5.80778 0
M  V30 1650 C 158.31 -2.83458 -6.04324 0
M  V30 1651 H 157.58 0.0794431 -0.736729 0
M  V30 1652 H 160.227 -0.504481 -1.84736 0
M  V30 1653 H 158.532 1.35237 -3.6772 0
M  V30 1654 H 160.229 1.017 -3.87889 0
M  V30 1655 H 156.819 -0.36209 -4.27068 0
M  V30 1656 H 161.003 -1.17289 -4.82242 0
M  V30 1657 H 156.259 -2.3108 -5.6605 0
M  V30 1658 H 160.433 -3.12022 -6.22588 0
M  V30 1659 H 158.06 -3.69508 -6.64355 0
M  V30 1660 N 159.635 1.57281 -0.100228 0
M  V30 1661 C 160.865 1.98591 0.569681 0
M  V30 1662 C 161.273 0.978315 1.61943 0
M  V30 1663 O 160.616 -0.0396108 1.83657 0
M  V30 1664 C 160.678 3.36282 1.271 0
M  V30 1665 C 160.342 4.55488 0.371409 0
M  V30 1666 C 161.339 5.18491 -0.382504 0
M  V30 1667 C 159.024 5.01474 0.287965 0
M  V30 1668 C 161.018 6.25852 -1.20779 0
M  V30 1669 C 158.705 6.08701 -0.540965 0
M  V30 1670 C 159.703 6.70755 -1.28749 0
M  V30 1671 O 159.391 7.75914 -2.10269 0
M  V30 1672 H 159.123 0.65752 0.156982 0
M  V30 1673 H 161.677 2.0463 -0.177734 0
M  V30 1674 H 159.907 3.26941 2.0651 0
M  V30 1675 H 161.596 3.62005 1.83595 0
M  V30 1676 H 162.362 4.83891 -0.3278 0
M  V30 1677 H 158.241 4.52932 0.858689 0
M  V30 1678 H 161.785 6.74218 -1.79096 0
M  V30 1679 H 157.682 6.42732 -0.597131 0
M  V30 1680 H 158.45 7.92925 -2.03007 0
M  V30 1681 N 161.113 -0.173488 1.56642 0
M  V30 1682 C 162.06 -1.21482 1.96242 0
M  V30 1683 C 163.03 -1.44104 0.826027 0
M  V30 1684 O 164.215 -1.5688 1.08597 0
M  V30 1685 C 161.355 -2.54964 2.32567 0
M  V30 1686 C 160.468 -2.39739 3.59373 0
M  V30 1687 C 159.603 -3.66072 3.84921 0
M  V30 1688 C 158.642 -3.45771 5.05083 0
M  V30 1689 N 157.779 -4.64169 5.26775 0
M  V30 1690 H 162.619 -0.870123 2.85014 0
M  V30 1691 H 160.156 -0.418245 1.41029 0
M  V30 1692 H 162.114 -3.32758 2.5165 0
M  V30 1693 H 160.744 -2.87433 1.46908 0
M  V30 1694 H 159.796 -1.53131 3.48217 0
M  V30 1695 H 161.108 -2.20683 4.47326 0
M  V30 1696 H 160.262 -4.52303 4.0436 0
M  V30 1697 H 159.001 -3.88105 2.9534 0
M  V30 1698 H 158.006 -2.57927 4.85545 0
M  V30 1699 H 159.231 -3.25163 5.96193 0
M  V30 1700 H 157.177 -4.86425 4.40144 0
M  V30 1701 H 157.094 -4.48019 6.08946 0
M  V30 1702 H 158.362 -5.51689 5.5069 0
M  V30 1703 N 162.591 -1.51276 -0.441967 0
M  V30 1704 C 163.837 -1.6492 -1.1905 0
M  V30 1705 C 164.192 -0.358731 -1.89026 0
M  V30 1706 O 163.485 0.645193 -1.8041 0
M  V30 1707 C 163.679 -2.78746 -2.23686 0
M  V30 1708 C 163.508 -4.18737 -1.63979 0
M  V30 1709 C 162.278 -4.84739 -1.42674 0
M  V30 1710 C 164.476 -5.01988 -1.11858 0
M  V30 1711 N 162.458 -6.08858 -0.785159 0
M  V30 1712 C 163.829 -6.17071 -0.601989 0
M  V30 1713 C 165.884 -4.87551 -1.0099 0
M  V30 1714 C 164.587 -7.19299 0.0126012 0
M  V30 1715 C 166.613 -5.89983 -0.409206 0
M  V30 1716 C 165.975 -7.04333 0.0968651 0
M  V30 1717 H 162.074 -0.657416 -0.423471 0
M  V30 1718 H 164.658 -1.8849 -0.48782 0
M  V30 1719 H 162.829 -2.56848 -2.91348 0
M  V30 1720 H 164.561 -2.81595 -2.90666 0
M  V30 1721 H 161.316 -4.42528 -1.68719 0
M  V30 1722 H 161.74 -6.75282 -0.481942 0
M  V30 1723 H 166.382 -3.99401 -1.38703 0
M  V30 1724 H 164.1 -8.071 0.401879 0
M  V30 1725 H 167.686 -5.8088 -0.327079 0
M  V30 1726 H 166.566 -7.82238 0.554373 0
M  V30 1727 N 164.069 0.697108 -1.41344 0
M  V30 1728 C 165.019 1.80313 -1.39539 0
M  V30 1729 C 166.003 1.58618 -0.270001 0
M  V30 1730 O 167.195 1.69477 -0.510551 0
M  V30 1731 C 164.324 3.18606 -1.27848 0
M  V30 1732 C 163.41 3.46001 -2.45244 0
M  V30 1733 N 163.801 3.44103 -3.70711 0
M  V30 1734 C 162.099 3.76542 -2.39023 0
M  V30 1735 C 162.8 3.7036 -4.48563 0
M  V30 1736 N 161.776 3.90027 -3.78655 0
M  V30 1737 H 165.578 1.77207 -2.34468 0
M  V30 1738 H 163.092 0.897031 -1.35378 0
M  V30 1739 H 165.089 3.97833 -1.24637 0
M  V30 1740 H 163.749 3.22925 -0.339032 0
M  V30 1741 H 164.76 3.2452 -4.03618 0
M  V30 1742 H 161.437 3.88241 -1.53542 0
M  V30 1743 H 162.827 3.75042 -5.57488 0
M  V30 1744 N 165.547 1.27147 0.931209 0
M  V30 1745 C 166.497 1.06227 2.01742 0
M  V30 1746 C 167.481 -0.00859065 1.60898 0
M  V30 1747 O 168.673 0.209537 1.75755 0
M  V30 1748 C 165.802 0.707787 3.35924 0
M  V30 1749 C 164.888 1.81661 3.83223 0
M  V30 1750 N 165.279 3.05564 4.03069 0
M  V30 1751 C 163.577 1.70249 4.12227 0
M  V30 1752 C 164.278 3.77697 4.42403 0
M  V30 1753 N 163.254 3.0544 4.49675 0
M  V30 1754 H 167.056 2.00261 2.15111 0
M  V30 1755 H 164.57 1.1781 1.11779 0
M  V30 1756 H 166.567 0.539043 4.134 0
M  V30 1757 H 165.227 -0.224964 3.2392 0
M  V30 1758 H 166.238 3.41363 3.89476 0
M  V30 1759 H 162.915 0.840329 4.08956 0
M  V30 1760 H 164.305 4.84168 4.65866 0
M  V30 1761 N 167.025 -1.13721 1.09112 0
M  V30 1762 C 167.935 -2.22638 0.73957 0
M  V30 1763 C 168.951 -1.72091 -0.257068 0
M  V30 1764 O 170.127 -2.01155 -0.0992154 0
M  V30 1765 C 167.192 -3.46322 0.16191 0
M  V30 1766 C 166.253 -4.11775 1.21408 0
M  V30 1767 C 165.486 -5.29555 0.663891 0
M  V30 1768 O 165.709 -5.68077 -0.514274 0
M  V30 1769 O 164.643 -5.84973 1.41738 0
M  V30 1770 H 168.469 -2.55074 1.64836 0
M  V30 1771 H 166.054 -1.21791 0.865289 0
M  V30 1772 H 167.936 -4.21107 -0.157073 0
M  V30 1773 H 166.611 -3.15593 -0.719932 0
M  V30 1774 H 165.518 -3.3883 1.58571 0
M  V30 1775 H 166.851 -4.46627 2.06845 0
M  V30 1776 N 168.503 -0.877838 -1.30888 0
M  V30 1777 C 169.914 -0.544193 -1.78593 0
M  V30 1778 C 170.265 0.939301 -1.72254 0
M  V30 1779 O 169.39 1.7337 -1.29505 0
M  V30 1780 C 169.985 -0.98105 -3.24285 0
M  V30 1781 C 168.544 -0.698935 -3.69854 0
M  V30 1782 C 167.691 -1.168 -2.51502 0
M  V30 1783 H 170.642 -1.06278 -1.17859 0
M  V30 1784 H 170.663 -0.307009 -3.79259 0
M  V30 1785 H 170.175 -2.06079 -3.28866 0
M  V30 1786 H 168.276 0.369112 -3.70767 0
M  V30 1787 H 168.389 -1.28148 -4.61644 0
M  V30 1788 H 166.753 -0.587535 -2.47831 0
M  V30 1789 H 167.536 -2.25533 -2.58824 0
M  V30 1790 N 169.982 1.44106 -0.638065 0
M  V30 1791 C 170.945 2.29138 0.0531013 0
M  V30 1792 C 171.945 1.41409 0.765506 0
M  V30 1793 O 173.135 1.63206 0.609046 0
M  V30 1794 C 170.267 3.23144 1.08584 0
M  V30 1795 H 171.46 2.91739 -0.694883 0
M  V30 1796 H 169.013 1.51134 -0.398538 0
M  V30 1797 H 169.748 2.65408 1.86357 0
M  V30 1798 H 169.533 3.87804 0.578852 0
M  V30 1799 H 171.023 3.87004 1.56899 0
M  V30 1800 N 171.46 0.379036 1.52974 0
M  V30 1801 C 172.37 -0.468639 2.29872 0
M  V30 1802 C 173.386 -1.08067 1.36373 0
M  V30 1803 O 174.562 -1.08871 1.69438 0
M  V30 1804 C 171.627 -1.58594 3.083 0
M  V30 1805 C 170.688 -1.00007 4.17489 0
M  V30 1806 C 169.921 -2.06413 4.92168 0
M  V30 1807 O 170.144 -3.27751 4.66835 0
M  V30 1808 O 169.078 -1.68717 5.7777 0
M  V30 1809 H 172.904 0.157508 3.03291 0
M  V30 1810 H 170.489 0.143035 1.48714 0
M  V30 1811 H 172.371 -2.23525 3.57232 0
M  V30 1812 H 171.046 -2.19724 2.37703 0
M  V30 1813 H 169.953 -0.314299 3.72777 0
M  V30 1814 H 171.286 -0.433135 4.90291 0
M  V30 1815 N 172.938 -1.57226 0.108567 0
M  V30 1816 C 174.185 -1.94833 -0.551943 0
M  V30 1817 C 174.513 -0.991204 -1.67348 0
M  V30 1818 O 173.768 -0.0131878 -1.95696 0
M  V30 1819 C 174.067 -3.38911 -1.13463 0
M  V30 1820 C 173.733 -4.50696 -0.135509 0
M  V30 1821 C 172.395 -4.80998 0.139252 0
M  V30 1822 C 174.747 -5.18333 0.545957 0
M  V30 1823 C 172.075 -5.76259 1.10194 0
M  V30 1824 C 174.427 -6.14627 1.49721 0
M  V30 1825 C 173.091 -6.43327 1.78006 0
M  V30 1826 H 172.361 -0.712944 -0.20197 0
M  V30 1827 H 175.008 -1.90582 0.18726 0
M  V30 1828 H 173.313 -3.39805 -1.95037 0
M  V30 1829 H 175.01 -3.65317 -1.65362 0
M  V30 1830 H 171.6 -4.27087 -0.359846 0
M  V30 1831 H 175.784 -4.95087 0.346842 0
M  V30 1832 H 171.04 -5.96804 1.32795 0
M  V30 1833 H 175.214 -6.66126 2.03099 0
M  V30 1834 H 172.841 -7.1695 2.52759 0
M  V30 1835 N 174.416 0.165178 -1.56732 0
M  V30 1836 C 175.348 1.22911 -1.93457 0
M  V30 1837 C 176.361 1.40152 -0.828333 0
M  V30 1838 O 177.55 1.40046 -1.10677 0
M  V30 1839 C 174.65 2.59686 -2.17753 0
M  V30 1840 C 173.823 2.63663 -3.48999 0
M  V30 1841 C 172.882 3.81845 -3.62051 0
M  V30 1842 O 171.908 3.67559 -4.34613 0
M  V30 1843 N 173.11 4.98557 -2.97357 0
M  V30 1844 H 175.875 0.917118 -2.85323 0
M  V30 1845 H 173.436 0.354895 -1.57962 0
M  V30 1846 H 175.428 3.37225 -2.23743 0
M  V30 1847 H 173.998 2.83251 -1.32242 0
M  V30 1848 H 173.218 1.72173 -3.54612 0
M  V30 1849 H 174.506 2.63336 -4.35352 0
M  V30 1850 H 173.904 5.13065 -2.38287 0
M  V30 1851 H 172.461 5.73936 -3.08934 0
M  V30 1852 N 175.894 1.51508 0.433938 0
M  V30 1853 C 176.857 1.72473 1.50949 0
M  V30 1854 C 177.857 0.594725 1.49398 0
M  V30 1855 O 179.047 0.862315 1.5136 0
M  V30 1856 C 176.179 1.78431 2.90474 0
M  V30 1857 H 177.372 2.68467 1.33662 0
M  V30 1858 H 174.925 1.41549 0.662836 0
M  V30 1859 H 175.66 0.842645 3.13161 0
M  V30 1860 H 175.445 2.60558 2.93005 0
M  V30 1861 H 176.935 1.96479 3.68491 0
M  V30 1862 N 177.372 -0.689602 1.41712 0
M  V30 1863 C 178.319 -1.80345 1.44029 0
M  V30 1864 C 179.289 -1.63478 0.293948 0
M  V30 1865 O 180.474 -1.84244 0.495869 0
M  V30 1866 C 177.614 -3.18272 1.33405 0
M  V30 1867 C 176.727 -3.46529 2.57956 0
M  V30 1868 C 175.862 -4.74103 2.39582 0
M  V30 1869 C 174.901 -4.95347 3.5958 0
M  V30 1870 N 174.038 -6.14151 3.40239 0
M  V30 1871 H 178.878 -1.77698 2.39222 0
M  V30 1872 H 176.415 -0.867688 1.18784 0
M  V30 1873 H 178.373 -3.97956 1.25246 0
M  V30 1874 H 177.003 -3.2008 0.418164 0
M  V30 1875 H 176.055 -2.61207 2.76542 0
M  V30 1876 H 177.367 -3.58126 3.47199 0
M  V30 1877 H 176.521 -5.61853 2.28924 0
M  V30 1878 H 175.26 -4.64763 1.47805 0
M  V30 1879 H 174.265 -4.06044 3.70686 0
M  V30 1880 H 175.49 -5.06542 4.52318 0
M  V30 1881 H 173.436 -6.06013 2.51167 0
M  V30 1882 H 173.353 -6.26543 4.23061 0
M  V30 1883 H 174.621 -7.04619 3.33365 0
M  V30 1884 N 178.85 -1.27639 -0.924453 0
M  V30 1885 C 180.078 -1.16989 -1.70649 0
M  V30 1886 C 180.493 0.272869 -1.86818 0
M  V30 1887 O 179.85 1.18549 -1.38753 0
M  V30 1888 C 179.901 -1.85229 -3.10439 0
M  V30 1889 O 179.622 -3.23868 -2.95028 0
M  V30 1890 C 181.123 -1.80746 -4.04779 0
M  V30 1891 H 178.343 -0.406595 -0.53378 0
M  V30 1892 H 180.887 -1.68569 -1.15778 0
M  V30 1893 H 179.042 -1.37545 -3.6216 0
M  V30 1894 H 179.456 -3.57889 -3.83426 0
M  V30 1895 H 180.93 -2.33101 -5.00368 0
M  V30 1896 H 181.407 -0.777499 -4.32263 0
M  V30 1897 H 182.013 -2.28059 -3.58984 0
M  V30 1898 N 180.328 1.1314 -1.09713 0
M  V30 1899 C 181.26 2.18343 -0.697056 0
M  V30 1900 C 182.273 1.60669 0.262551 0
M  V30 1901 O 183.462 1.78435 0.0481527 0
M  V30 1902 C 180.562 3.38899 -0.00684728 0
M  V30 1903 C 179.735 4.26078 -0.988741 0
M  V30 1904 C 178.794 5.25155 -0.331394 0
M  V30 1905 O 177.82 5.60701 -0.979926 0
M  V30 1906 N 179.022 5.73271 0.913261 0
M  V30 1907 H 181.787 2.5328 -1.60216 0
M  V30 1908 H 179.348 1.28491 -0.984971 0
M  V30 1909 H 181.34 4.02255 0.444191 0
M  V30 1910 H 179.91 3.02175 0.800551 0
M  V30 1911 H 179.13 3.59453 -1.61826 0
M  V30 1912 H 180.418 4.81178 -1.65364 0
M  V30 1913 H 179.816 5.46544 1.45966 0
M  V30 1914 H 178.373 6.3855 1.30757 0
M  V30 1915 N 181.806 0.884767 1.30421 0
M  V30 1916 C 183.052 0.503851 1.96441 0
M  V30 1917 C 183.385 -0.944518 1.69684 0
M  V30 1918 O 182.66 -1.66737 1.00145 0
M  V30 1919 C 182.943 0.779085 3.51571 0
M  V30 1920 C 182.796 2.27807 3.87846 0
M  V30 1921 C 184.115 0.255452 4.39358 0
M  V30 1922 H 181.234 0.184533 0.713524 0
M  V30 1923 H 183.876 1.10872 1.54297 0
M  V30 1924 H 182.026 0.264274 3.876 0
M  V30 1925 H 183.698 2.86127 3.61841 0
M  V30 1926 H 181.941 2.74479 3.35922 0
M  V30 1927 H 182.612 2.42125 4.96064 0
M  V30 1928 H 185.088 0.696079 4.10236 0
M  V30 1929 H 183.964 0.477361 5.4682 0
M  V30 1930 H 184.225 -0.843293 4.33983 0
M  V30 1931 N 183.284 -1.43765 0.645699 0
M  V30 1932 C 184.216 -2.29027 -0.0890605 0
M  V30 1933 C 185.229 -1.42093 -0.794563 0
M  V30 1934 O 186.418 -1.66104 -0.653575 0
M  V30 1935 C 183.518 -3.18831 -1.14891 0
M  V30 1936 C 182.691 -4.34261 -0.523043 0
M  V30 1937 C 181.75 -5.04994 -1.47878 0
M  V30 1938 O 180.776 -5.6052 -0.990277 0
M  V30 1939 N 181.978 -5.07795 -2.81291 0
M  V30 1940 H 184.743 -2.92727 0.64272 0
M  V30 1941 H 182.304 -1.54373 0.487924 0
M  V30 1942 H 184.296 -3.63015 -1.78892 0
M  V30 1943 H 182.866 -2.56782 -1.78275 0
M  V30 1944 H 182.086 -3.93088 0.295896 0
M  V30 1945 H 183.374 -5.08728 -0.0858147 0
M  V30 1946 H 182.772 -4.64042 -3.23546 0
M  V30 1947 H 181.329 -5.55721 -3.40614 0
M  V30 1948 N 184.763 -0.387143 -1.52771 0
M  V30 1949 C 185.695 0.484089 -2.2403 0
M  V30 1950 C 186.708 1.02849 -1.26198 0
M  V30 1951 O 187.897 0.931186 -1.52286 0
M  V30 1952 C 184.997 1.68337 -2.94136 0
M  V30 1953 C 184.17 1.26672 -4.18656 0
M  V30 1954 C 183.229 2.33045 -4.7178 0
M  V30 1955 O 182.255 1.94541 -5.34923 0
M  V30 1956 N 183.457 3.64929 -4.5145 0
M  V30 1957 H 186.222 -0.126404 -2.99433 0
M  V30 1958 H 183.783 -0.213392 -1.60488 0
M  V30 1959 H 185.775 2.39019 -3.26577 0
M  V30 1960 H 184.345 2.20025 -2.22053 0
M  V30 1961 H 183.565 0.388878 -3.92277 0
M  V30 1962 H 184.853 0.964964 -4.99566 0
M  V30 1963 H 184.251 3.98974 -4.01044 0
M  V30 1964 H 182.808 4.31651 -4.88386 0
M  V30 1965 N 186.241 1.57166 -0.116904 0
M  V30 1966 C 187.171 2.18222 0.830759 0
M  V30 1967 C 188.152 1.12167 1.27877 0
M  V30 1968 O 189.337 1.40394 1.34176 0
M  V30 1969 C 186.467 2.77996 2.08172 0
M  V30 1970 C 185.421 3.89614 1.77157 0
M  V30 1971 C 184.747 4.36187 3.09265 0
M  V30 1972 C 186.047 5.1181 1.04151 0
M  V30 1973 H 187.741 2.97664 0.321992 0
M  V30 1974 H 185.287 1.4318 0.153434 0
M  V30 1975 H 187.24 3.19366 2.74924 0
M  V30 1976 H 185.964 1.9584 2.6137 0
M  V30 1977 H 184.623 3.48816 1.12796 0
M  V30 1978 H 184.271 3.50893 3.60393 0
M  V30 1979 H 183.971 5.11455 2.89288 0
M  V30 1980 H 185.495 4.80207 3.77139 0
M  V30 1981 H 186.909 5.50214 1.61052 0
M  V30 1982 H 185.306 5.92648 0.942762 0
M  V30 1983 H 186.376 4.84892 0.0279022 0
M  V30 1984 N 187.719 -0.156864 1.56817 0
M  V30 1985 C 188.649 -1.19589 2.00551 0
M  V30 1986 C 189.63 -1.4536 0.883426 0
M  V30 1987 O 190.815 -1.56449 1.15054 0
M  V30 1988 C 187.945 -2.53143 2.37773 0
M  V30 1989 C 186.899 -2.41913 3.53075 0
M  V30 1990 C 186.225 -3.80088 3.76081 0
M  V30 1991 C 187.525 -1.91157 4.86062 0
M  V30 1992 H 189.219 -0.832293 2.87599 0
M  V30 1993 H 186.765 -0.398918 1.38364 0
M  V30 1994 H 188.718 -3.26047 2.66967 0
M  V30 1995 H 187.442 -2.91319 1.4765 0
M  V30 1996 H 186.101 -1.71462 3.24031 0
M  V30 1997 H 185.749 -4.15683 2.83225 0
M  V30 1998 H 185.449 -3.73439 4.53671 0
M  V30 1999 H 186.973 -4.54556 4.0769 0
M  V30 2000 H 188.387 -2.53846 5.14038 0
M  V30 2001 H 186.784 -1.95422 5.67389 0
M  V30 2002 H 187.854 -0.866673 4.77092 0
M  V30 2003 N 189.197 -1.51736 -0.425897 0
M  V30 2004 C 190.443 -1.65214 -1.1761 0
M  V30 2005 C 190.776 -0.372778 -1.90589 0
M  V30 2006 O 190.051 0.628139 -1.84078 0
M  V30 2007 C 190.334 -2.86312 -2.18398 0
M  V30 2008 C 190.187 -4.24254 -1.49426 0
M  V30 2009 C 191.506 -3.02925 -3.19256 0
M  V30 2010 H 188.625 -0.601263 -0.426206 0
M  V30 2011 H 191.267 -1.8425 -0.463882 0
M  V30 2012 H 189.417 -2.70213 -2.79137 0
M  V30 2013 H 191.089 -4.52046 -0.919362 0
M  V30 2014 H 189.332 -4.26426 -0.796432 0
M  V30 2015 H 190.003 -5.05001 -2.22885 0
M  V30 2016 H 192.479 -3.1781 -2.68581 0
M  V30 2017 H 191.355 -3.89199 -3.8706 0
M  V30 2018 H 191.616 -2.15497 -3.86023 0
M  V30 2019 N 190.675 0.682077 -1.42076 0
M  V30 2020 C 191.9 1.47558 -1.45744 0
M  V30 2021 C 192.325 1.87977 -0.0680981 0
M  V30 2022 O 191.683 1.55522 0.9318 0
M  V30 2023 C 191.731 2.70575 -2.38373 0
M  V30 2024 O 190.835 3.68573 -1.85007 0
M  V30 2025 H 190.176 0.443585 -0.494093 0
M  V30 2026 H 192.706 0.837238 -1.86686 0
M  V30 2027 H 192.716 3.18729 -2.54707 0
M  V30 2028 H 191.391 2.40495 -3.39315 0
M  V30 2029 H 189.968 3.2757 -1.78192 0
M  V30 2030 N 192.153 1.28127 0.917671 0
M  V30 2031 C 193.402 1.14432 1.66097 0
M  V30 2032 C 193.715 -0.307247 1.93172 0
M  V30 2033 O 194.921 -0.565259 2.65551 0
M  V30 2034 C 193.377 2.00015 2.99202 0
M  V30 2035 C 192.985 3.49889 2.79789 0
M  V30 2036 C 194.729 1.94996 3.77064 0
M  V30 2037 C 192.636 4.27636 4.08511 0
M  V30 2038 H 191.566 0.424662 0.62304 0
M  V30 2039 H 194.217 1.52628 1.01868 0
M  V30 2040 H 192.599 1.54672 3.64544 0
M  V30 2041 H 193.773 4.03162 2.23152 0
M  V30 2042 H 192.088 3.56392 2.15345 0
M  V30 2043 H 194.685 2.50354 4.72469 0
M  V30 2044 H 195.028 0.925819 4.05875 0
M  V30 2045 H 195.561 2.38287 3.18534 0
M  V30 2046 H 192.3 5.30615 3.84874 0
M  V30 2047 H 191.82 3.79137 4.64774 0
M  V30 2048 H 193.499 4.37346 4.76799 0
M  V30 2049 N 193.631 -1.12557 1.10312 0
M  V30 2050 C 194.859 -1.87864 0.866873 0
M  V30 2051 C 195.274 -1.79588 -0.582557 0
M  V30 2052 O 194.631 -1.16887 -1.40156 0
M  V30 2053 C 194.682 -3.37125 1.30496 0
M  V30 2054 O 194.403 -3.45201 2.69755 0
M  V30 2055 C 195.904 -4.29373 1.10243 0
M  V30 2056 H 193.124 -0.594452 0.311236 0
M  V30 2057 H 195.668 -1.42429 1.46745 0
M  V30 2058 H 193.823 -3.80109 0.748081 0
M  V30 2059 H 194.237 -4.38056 2.88457 0
M  V30 2060 H 195.711 -5.32394 1.45811 0
M  V30 2061 H 196.188 -4.39181 0.0409492 0
M  V30 2062 H 196.794 -3.92169 1.64571 0
M  V30 2063 N 195.109 -0.891671 -1.2995 0
M  V30 2064 C 196.039 -0.379797 -2.30391 0
M  V30 2065 C 197.02 0.540919 -1.6127 0
M  V30 2066 O 198.205 0.453352 -1.88834 0
M  V30 2067 C 195.335 0.400654 -3.44981 0
M  V30 2068 C 194.289 -0.428905 -4.25846 0
M  V30 2069 C 193.615 0.478557 -5.32554 0
M  V30 2070 C 194.915 -1.67458 -4.94727 0
M  V30 2071 H 196.609 -1.21914 -2.73454 0
M  V30 2072 H 194.155 -0.587675 -1.31462 0
M  V30 2073 H 196.108 0.769434 -4.14316 0
M  V30 2074 H 194.832 1.27371 -3.0074 0
M  V30 2075 H 193.491 -0.779911 -3.58208 0
M  V30 2076 H 193.139 1.34951 -4.84559 0
M  V30 2077 H 192.839 -0.0727433 -5.87555 0
M  V30 2078 H 194.363 0.843705 -6.04743 0
M  V30 2079 H 195.777 -1.376 -5.56542 0
M  V30 2080 H 194.174 -2.16659 -5.59624 0
M  V30 2081 H 195.244 -2.41518 -4.20473 0
M  V30 2082 N 196.587 1.43421 -0.653314 0
M  V30 2083 C 197.519 2.29071 0.0769134 0
M  V30 2084 C 198.532 1.42513 0.787017 0
M  V30 2085 O 199.721 1.66449 0.644757 0
M  V30 2086 C 196.821 3.19436 1.13199 0
M  V30 2087 C 195.994 4.34533 0.500006 0
M  V30 2088 C 195.053 5.05771 1.45198 0
M  V30 2089 O 194.079 5.61037 0.960538 0
M  V30 2090 N 195.281 5.0928 2.78594 0
M  V30 2091 H 198.046 2.92382 -0.658235 0
M  V30 2092 H 195.607 1.54112 -0.496104 0
M  V30 2093 H 197.599 3.63958 1.76964 0
M  V30 2094 H 196.169 2.57724 1.7691 0
M  V30 2095 H 195.389 3.92925 -0.316738 0
M  V30 2096 H 196.677 5.08766 0.0588345 0
M  V30 2097 H 196.075 4.65751 3.2108 0
M  V30 2098 H 194.632 5.57519 3.37662 0
M  V30 2099 N 198.065 0.39524 1.52563 0
M  V30 2100 C 199.29 -0.187456 2.06551 0
M  V30 2101 C 199.715 -1.39249 1.26457 0
M  V30 2102 O 199.073 -1.78947 0.291151 0
M  V30 2103 C 199.121 -0.529985 3.56684 0
M  V30 2104 O 198.225 -1.62307 3.79118 0
M  V30 2105 H 197.566 -0.0202537 0.663691 0
M  V30 2106 H 200.096 0.564426 1.96661 0
M  V30 2107 H 200.106 -0.792598 4.00227 0
M  V30 2108 H 198.781 0.350987 4.14416 0
M  V30 2109 H 197.358 -1.3537 3.47461 0
M  V30 2110 N 199.544 -1.57102 0.125237 0
M  V30 2111 C 200.454 -2.19191 -0.8362 0
M  V30 2112 C 201.47 -1.16985 -1.28805 0
M  V30 2113 O 202.646 -1.49479 -1.34974 0
M  V30 2114 C 199.711 -2.78407 -2.06617 0
M  V30 2115 C 198.772 -3.9567 -1.66565 0
M  V30 2116 C 198.005 -4.52052 -2.83698 0
M  V30 2117 O 198.228 -4.07326 -3.99302 0
M  V30 2118 O 197.162 -5.42645 -2.60423 0
M  V30 2119 H 200.988 -3.01816 -0.337776 0
M  V30 2120 H 198.573 -1.4906 -0.100695 0
M  V30 2121 H 200.455 -3.16129 -2.7864 0
M  V30 2122 H 199.13 -1.9881 -2.55453 0
M  V30 2123 H 198.037 -3.62705 -0.916296 0
M  V30 2124 H 199.37 -4.76722 -1.22464 0
M  V30 2125 N 201.022 0.148545 -1.56898 0
M  V30 2126 C 202.262 0.86765 -1.85071 0
M  V30 2127 C 202.626 1.78417 -0.709317 0
M  V30 2128 O 203.827 2.54261 -0.872049 0
M  V30 2129 C 202.098 1.62306 -3.1842 0
M  V30 2130 S 203.657 2.3878 -3.68143 0
M  V30 2131 H 200.475 0.290174 -0.649092 0
M  V30 2132 H 203.077 0.127755 -1.95082 0
M  V30 2133 H 201.781 0.941192 -3.99462 0
M  V30 2134 H 201.312 2.4039 -3.1141 0
M  V30 2135 H 203.327 3.63942 -3.37285 0
M  V30 2136 N 202.5 1.5196 0.417844 0
M  V30 2137 C 203.777 1.56146 1.17803 0
M  V30 2138 C 204.157 0.337275 2.08388 0
M  V30 2139 O 203.505 -0.676447 2.18258 0
M  V30 2140 C 203.715 2.88566 1.96293 0
M  V30 2141 C 205.063 3.41244 2.52662 0
M  V30 2142 O 206.087 2.90247 2.06483 0
M  V30 2143 O 204.946 4.30273 3.36938 0
M  V30 2144 H 202.04 0.628598 0.537395 0
M  V30 2145 H 204.586 1.64283 0.425331 0
M  V30 2146 H 203.358 3.69116 1.2988 0
M  V30 2147 H 202.981 2.83681 2.78587 0
M  V30 2148 N 203.978 -0.674533 1.42435 0
M  V30 2149 C 204.941 -1.76986 1.45632 0
M  V30 2150 C 205.941 -1.5708 0.343871 0
M  V30 2151 O 207.131 -1.63367 0.604709 0
M  V30 2152 C 204.263 -3.15623 1.28822 0
M  V30 2153 H 205.456 -1.75539 2.43158 0
M  V30 2154 H 203.009 -0.884189 1.28887 0
M  V30 2155 H 203.744 -3.22696 0.322193 0
M  V30 2156 H 203.529 -3.31475 2.09444 0
M  V30 2157 H 205.019 -3.95537 1.33942 0
M  V30 2158 N 205.456 -1.28612 -0.910864 0
M  V30 2159 C 206.703 -1.15934 -1.66029 0
M  V30 2160 C 207.031 0.291483 -1.92303 0
M  V30 2161 O 206.286 1.22816 -1.52364 0
M  V30 2162 C 206.585 -1.90624 -3.0232 0
M  V30 2163 C 206.251 -3.40405 -2.95695 0
M  V30 2164 C 204.913 -3.81255 -2.93595 0
M  V30 2165 C 207.265 -4.359 -2.85728 0
M  V30 2166 C 204.593 -5.15936 -2.79334 0
M  V30 2167 C 206.945 -5.70657 -2.73007 0
M  V30 2168 C 205.609 -6.10779 -2.69267 0
M  V30 2169 H 204.879 -0.424234 -0.607541 0
M  V30 2170 H 207.526 -1.5942 -1.06101 0
M  V30 2171 H 205.831 -1.39696 -3.6605 0
M  V30 2172 H 207.528 -1.78228 -3.59215 0
M  V30 2173 H 204.118 -3.07927 -2.98125 0
M  V30 2174 H 208.302 -4.053 -2.86436 0
M  V30 2175 H 203.558 -5.46146 -2.74835 0
M  V30 2176 H 207.732 -6.44311 -2.64264 0
M  V30 2177 H 205.359 -7.1509 -2.57974 0
M  V30 2178 N 206.934 1.1197 -1.10907 0
M  V30 2179 C 208.345 1.65114 -0.871446 0
M  V30 2180 C 208.696 1.86885 0.597353 0
M  V30 2181 O 207.821 1.59896 1.45816 0
M  V30 2182 C 208.416 2.99944 -1.5754 0
M  V30 2183 C 206.975 3.50018 -1.38435 0
M  V30 2184 C 206.122 2.24941 -1.62164 0
M  V30 2185 H 209.073 0.956851 -1.2661 0
M  V30 2186 H 209.094 3.66651 -1.01721 0
M  V30 2187 H 208.606 2.84067 -2.64438 0
M  V30 2188 H 206.707 3.71071 -0.337214 0
M  V30 2189 H 206.82 4.29165 -2.12965 0
M  V30 2190 H 205.184 2.3229 -1.04467 0
M  V30 2191 H 205.967 2.11612 -2.70324 0
M  V30 2192 N 208.412 0.89855 1.29475 0
M  V30 2193 C 209.36 0.365253 2.29714 0
M  V30 2194 C 210.354 -0.534993 1.6073 0
M  V30 2195 O 211.56 -0.417921 1.75081 0
M  V30 2196 H 207.935 0.0994853 0.74539 0
M  V30 2197 H 209.906 1.22406 2.72138 0
M  V30 2198 C 208.655 -0.393159 3.4547 0
M  V30 2199 H 207.978 0.290332 3.98744 0
M  V30 2200 H 209.418 -0.731189 4.17648 0
M  V30 2201 C 207.877 -1.59539 2.9673 0
M  V30 2202 O 208.407 -2.69469 2.97908 0
M  V30 2203 N 206.613 -1.43716 2.52575 0
M  V30 2204 H 206.16 -0.542828 2.51816 0
M  V30 2205 H 206.118 -2.24288 2.20323 0
M  V30 2206 N 209.89 -1.43072 0.660911 0
M  V30 2207 C 211.139 -2.00942 0.174735 0
M  V30 2208 C 211.452 -1.52797 -1.22117 0
M  V30 2209 O 212.658 -2.02991 -1.80297 0
M  V30 2210 C 211.114 -3.58948 0.261559 0
M  V30 2211 C 210.722 -4.16085 1.66064 0
M  V30 2212 C 212.466 -4.24173 -0.166617 0
M  V30 2213 C 210.373 -5.6641 1.70098 0
M  V30 2214 H 209.303 -0.751483 0.0615631 0
M  V30 2215 H 211.954 -1.63955 0.824069 0
M  V30 2216 H 210.336 -3.93372 -0.455421 0
M  V30 2217 H 211.51 -3.93147 2.40359 0
M  V30 2218 H 209.825 -3.6326 2.03546 0
M  V30 2219 H 212.422 -5.34471 -0.156433 0
M  V30 2220 H 212.765 -3.98647 -1.19943 0
M  V30 2221 H 213.298 -3.94659 0.498875 0
M  V30 2222 H 210.037 -5.96715 2.71315 0
M  V30 2223 H 209.557 -5.91382 1.00139 0
M  V30 2224 H 211.236 -6.30585 1.44816 0
M  V30 2225 N 211.368 -0.403325 -1.52352 0
M  V30 2226 C 212.593 0.176499 -2.06648 0
M  V30 2227 C 213.018 1.38577 -1.27193 0
M  V30 2228 O 212.376 1.7879 -0.300637 0
M  V30 2229 C 212.424 0.511061 -3.5696 0
M  V30 2230 O 211.528 1.60294 -3.79973 0
M  V30 2231 H 210.869 0.0167337 -0.663789 0
M  V30 2232 H 213.399 -0.574848 -1.96359 0
M  V30 2233 H 213.409 0.771362 -4.00642 0
M  V30 2234 H 212.084 -0.37296 -4.14224 0
M  V30 2235 H 210.661 1.33526 -3.48174 0
M  V30 2236 N 212.846 1.57033 -0.133567 0
M  V30 2237 C 214.071 2.00475 0.531477 0
M  V30 2238 C 214.496 1.01291 1.58499 0
M  V30 2239 O 213.854 -0.0133279 1.81295 0
M  V30 2240 C 213.902 3.42729 1.12113 0
M  V30 2241 O 213.006 3.46498 2.23636 0
M  V30 2242 H 212.347 0.650876 0.131362 0
M  V30 2243 H 214.877 2.03344 -0.22634 0
M  V30 2244 H 214.887 3.81246 1.4531 0
M  V30 2245 H 213.562 4.14428 0.349557 0
M  V30 2246 H 212.139 3.19811 1.91769 0
M  V30 2247 N 214.325 -0.140222 1.56975 0
M  V30 2248 C 215.602 -0.880769 1.74648 0
M  V30 2249 C 215.982 -1.99036 0.703404 0
M  V30 2250 O 215.33 -2.26821 -0.27648 0
M  V30 2251 C 215.54 -1.417 3.18939 0
M  V30 2252 C 216.888 -1.87774 3.80823 0
M  V30 2253 O 217.912 -1.51427 3.2241 0
M  V30 2254 O 216.771 -2.54827 4.83452 0
M  V30 2255 H 213.865 -0.416713 0.714338 0
M  V30 2256 H 216.411 -0.125618 1.69234 0
M  V30 2257 H 215.183 -0.619902 3.86359 0
M  V30 2258 H 214.806 -2.23546 3.28805 0
M  V30 2259 N 215.803 -1.52179 -0.40978 0
M  V30 2260 C 216.713 -1.78364 -1.52392 0
M  V30 2261 C 217.729 -0.669183 -1.60617 0
M  V30 2262 O 218.905 -0.954518 -1.77344 0
M  V30 2263 C 215.97 -1.92822 -2.88133 0
M  V30 2264 C 215.031 -3.16725 -2.898 0
M  V30 2265 C 214.264 -3.30483 -4.19067 0
M  V30 2266 O 214.487 -2.49522 -5.12928 0
M  V30 2267 O 213.421 -4.2363 -4.27576 0
M  V30 2268 H 217.247 -2.72931 -1.33201 0
M  V30 2269 H 214.832 -1.37016 -0.59557 0
M  V30 2270 H 216.714 -2.04157 -3.68643 0
M  V30 2271 H 215.389 -1.01444 -3.07393 0
M  V30 2272 H 214.296 -3.10848 -2.08146 0
M  V30 2273 H 215.629 -4.07881 -2.75489 0
M  V30 2274 N 217.281 0.66697 -1.42791 0
M  V30 2275 C 218.506 1.46004 -1.47301 0
M  V30 2276 C 218.931 1.87894 -0.0880317 0
M  V30 2277 O 218.289 1.56502 0.915253 0
M  V30 2278 C 218.337 2.68031 -2.41229 0
M  V30 2279 O 217.441 3.6659 -1.88906 0
M  V30 2280 H 216.782 0.43832 -0.49877 0
M  V30 2281 H 219.312 0.817391 -1.87563 0
M  V30 2282 H 219.322 3.1601 -2.58073 0
M  V30 2283 H 217.997 2.36883 -3.41847 0
M  V30 2284 H 216.574 3.25661 -1.81656 0
M  V30 2285 N 218.759 1.29093 0.90403 0
M  V30 2286 C 219.989 1.19516 1.68522 0
M  V30 2287 C 220.397 -0.24738 1.87576 0
M  V30 2288 O 219.74 -1.17798 1.40959 0
M  V30 2289 C 219.802 1.83249 3.0929 0
M  V30 2290 C 219.466 3.32531 3.13484 0
M  V30 2291 C 220.463 4.28821 2.93953 0
M  V30 2292 C 218.148 3.73656 3.35688 0
M  V30 2293 C 220.142 5.64212 2.96553 0
M  V30 2294 C 217.829 5.0917 3.37919 0
M  V30 2295 C 218.827 6.04258 3.18373 0
M  V30 2296 O 218.515 7.37298 3.20385 0
M  V30 2297 H 218.247 0.415467 0.533257 0
M  V30 2298 H 220.801 1.70912 1.13922 0
M  V30 2299 H 219.031 1.26358 3.65473 0
M  V30 2300 H 220.72 1.68054 3.69476 0
M  V30 2301 H 221.486 3.98382 2.76616 0
M  V30 2302 H 217.365 3.00101 3.49943 0
M  V30 2303 H 220.909 6.38407 2.81216 0
M  V30 2304 H 216.806 5.39256 3.54787 0
M  V30 2305 H 217.574 7.46048 3.36681 0
M  V30 2306 N 220.237 -1.11381 1.11499 0
M  V30 2307 C 221.465 -1.86934 0.88675 0
M  V30 2308 C 221.88 -1.80195 -0.563476 0
M  V30 2309 O 221.237 -1.18367 -1.38908 0
M  V30 2310 C 221.288 -3.35722 1.34064 0
M  V30 2311 O 221.009 -3.4232 2.73401 0
M  V30 2312 C 222.51 -4.2818 1.14791 0
M  V30 2313 H 219.73 -0.591117 0.317523 0
M  V30 2314 H 222.274 -1.40865 1.48248 0
M  V30 2315 H 220.429 -3.79294 0.788355 0
M  V30 2316 H 220.843 -4.34971 2.93087 0
M  V30 2317 H 222.317 -5.30817 1.5145 0
M  V30 2318 H 222.794 -4.39113 0.0875279 0
M  V30 2319 H 223.4 -3.90402 1.68721 0
M  V30 2320 N 221.715 -0.905404 -1.28997 0
M  V30 2321 C 222.645 -0.404212 -2.29975 0
M  V30 2322 C 223.626 0.523784 -1.61835 0
M  V30 2323 O 224.811 0.433298 -1.89304 0
M  V30 2324 C 221.941 0.364042 -3.45387 0
M  V30 2325 C 220.895 -0.474048 -4.25367 0
M  V30 2326 C 220.221 0.422045 -5.33032 0
M  V30 2327 C 221.521 -1.72696 -4.92923 0
M  V30 2328 H 223.215 -1.24807 -2.72146 0
M  V30 2329 H 220.761 -0.601585 -1.30832 0
M  V30 2330 H 222.714 0.725447 -4.15109 0
M  V30 2331 H 221.438 1.24174 -3.02074 0
M  V30 2332 H 220.097 -0.81786 -3.57361 0
M  V30 2333 H 219.745 1.29804 -4.85963 0
M  V30 2334 H 219.445 -0.135057 -5.87445 0
M  V30 2335 H 220.969 0.779517 -6.05604 0
M  V30 2336 H 222.383 -1.43495 -5.55051 0
M  V30 2337 H 220.78 -2.22582 -5.57295 0
M  V30 2338 H 221.85 -2.45964 -4.17887 0
M  V30 2339 N 223.193 1.4272 -0.668489 0
M  V30 2340 C 224.123 2.335 -0.000100175 0
M  V30 2341 C 225.104 1.50328 0.795964 0
M  V30 2342 O 226.289 1.78949 0.754385 0
M  V30 2343 C 223.419 3.33874 0.956302 0
M  V30 2344 C 222.373 4.27152 0.269278 0
M  V30 2345 C 221.699 5.17684 1.33818 0
M  V30 2346 C 222.999 5.15373 -0.847805 0
M  V30 2347 H 224.693 2.89639 -0.758244 0
M  V30 2348 H 222.239 1.39269 -0.366079 0
M  V30 2349 H 224.192 3.9629 1.43292 0
M  V30 2350 H 222.916 2.76025 1.74579 0
M  V30 2351 H 221.575 3.66123 -0.187042 0
M  V30 2352 H 221.223 4.56165 2.1195 0
M  V30 2353 H 220.923 5.80918 0.883659 0
M  V30 2354 H 222.447 5.82974 1.81586 0
M  V30 2355 H 223.861 5.7151 -0.452681 0
M  V30 2356 H 222.258 5.87407 -1.22773 0
M  V30 2357 H 223.328 4.5415 -1.69929 0
M  V30 2358 N 224.671 0.411399 1.52136 0
M  V30 2359 C 225.917 -0.163888 2.02137 0
M  V30 2360 C 226.25 -1.44597 1.29636 0
M  V30 2361 O 225.525 -1.90272 0.403353 0
M  V30 2362 C 225.808 -0.40927 3.57767 0
M  V30 2363 C 225.661 0.889643 4.40914 0
M  V30 2364 C 226.98 -1.19042 4.23694 0
M  V30 2365 H 224.099 -0.0580896 0.734707 0
M  V30 2366 H 226.741 0.54531 1.82007 0
M  V30 2367 H 224.891 -1.0134 3.7505 0
M  V30 2368 H 226.563 1.52575 4.35337 0
M  V30 2369 H 224.806 1.50011 4.07037 0
M  V30 2370 H 225.477 0.672314 5.4789 0
M  V30 2371 H 227.953 -0.678942 4.10524 0
M  V30 2372 H 226.829 -1.33086 5.32522 0
M  V30 2373 H 227.09 -2.21166 3.82803 0
M  V30 2374 N 226.149 -1.5696 0.141893 0
M  V30 2375 C 227.096 -2.16501 -0.799737 0
M  V30 2376 C 228.066 -1.09643 -1.24771 0
M  V30 2377 O 229.251 -1.3766 -1.32115 0
M  V30 2378 C 226.391 -2.78679 -2.03549 0
M  V30 2379 C 225.504 -3.99914 -1.6338 0
M  V30 2380 C 224.639 -4.50106 -2.82096 0
M  V30 2381 C 223.678 -5.63819 -2.38275 0
M  V30 2382 N 222.815 -6.08651 -3.49983 0
M  V30 2383 H 227.655 -2.96632 -0.285179 0
M  V30 2384 H 225.192 -1.46533 -0.129053 0
M  V30 2385 H 227.15 -3.1287 -2.75986 0
M  V30 2386 H 225.78 -2.012 -2.52425 0
M  V30 2387 H 224.832 -3.71735 -0.807279 0
M  V30 2388 H 226.144 -4.82311 -1.27192 0
M  V30 2389 H 225.298 -4.86325 -3.62729 0
M  V30 2390 H 224.037 -3.66706 -3.21525 0
M  V30 2391 H 223.042 -5.2718 -1.56081 0
M  V30 2392 H 224.267 -6.49 -1.99938 0
M  V30 2393 H 222.213 -5.28188 -3.89042 0
M  V30 2394 H 222.13 -6.85961 -3.17794 0
M  V30 2395 H 223.398 -6.49515 -4.30988 0
M  V30 2396 N 227.627 0.131896 -1.57047 0
M  V30 2397 C 228.537 1.1815 -2.02676 0
M  V30 2398 C 229.553 1.46113 -0.944824 0
M  V30 2399 O 230.729 1.57485 -1.25541 0
M  V30 2400 C 227.794 2.49139 -2.41103 0
M  V30 2401 C 226.855 2.28688 -3.63318 0
M  V30 2402 C 226.088 3.53431 -3.99903 0
M  V30 2403 O 226.311 4.60223 -3.36973 0
M  V30 2404 O 225.245 3.45198 -4.93074 0
M  V30 2405 H 229.071 0.824069 -2.92306 0
M  V30 2406 H 226.656 0.341745 -1.45439 0
M  V30 2407 H 228.538 3.26338 -2.66611 0
M  V30 2408 H 227.213 2.84382 -1.54624 0
M  V30 2409 H 226.12 1.4939 -3.42977 0
M  V30 2410 H 227.453 1.98355 -4.50462 0
M  V30 2411 N 229.106 1.52395 0.401703 0
M  V30 2412 C 230.517 1.58899 0.980202 0
M  V30 2413 C 230.868 0.434032 1.91339 0
M  V30 2414 O 229.993 -0.444619 2.11783 0
M  V30 2415 C 230.588 2.87994 1.78451 0
M  V30 2416 C 229.147 2.96953 2.31292 0
M  V30 2417 C 228.294 2.53903 1.11483 0
M  V30 2418 H 231.245 1.57657 0.18168 0
M  V30 2419 H 231.266 2.73765 2.64259 0
M  V30 2420 H 230.778 3.72035 1.10506 0
M  V30 2421 H 228.879 2.17422 3.02586 0
M  V30 2422 H 228.992 4.01344 2.61649 0
M  V30 2423 H 227.356 2.07925 1.47104 0
M  V30 2424 H 228.139 3.40326 0.450928 0
M  V30 2425 N 230.584 -0.659388 1.43143 0
M  V30 2426 C 231.83 -1.42145 1.44647 0
M  V30 2427 C 232.163 -1.9408 0.0681907 0
M  V30 2428 O 231.438 -1.71899 -0.910007 0
M  V30 2429 C 231.721 -2.60735 2.48373 0
M  V30 2430 C 231.574 -2.14332 3.95451 0
M  V30 2431 C 232.893 -3.62951 2.48906 0
M  V30 2432 H 230.012 -0.51552 0.526696 0
M  V30 2433 H 232.654 -0.748069 1.74654 0
M  V30 2434 H 230.804 -3.18184 2.22916 0
M  V30 2435 H 232.476 -1.61932 4.31944 0
M  V30 2436 H 230.719 -1.4576 4.08578 0
M  V30 2437 H 231.39 -2.99583 4.63631 0
M  V30 2438 H 233.866 -3.1525 2.71582 0
M  V30 2439 H 232.742 -4.43487 3.23435 0
M  V30 2440 H 233.003 -4.15126 1.52061 0
M  V30 2441 N 232.062 -1.29571 -0.897171 0
M  V30 2442 C 233.025 -1.14913 -1.98312 0
M  V30 2443 C 234.025 -0.0838629 -1.60581 0
M  V30 2444 O 235.215 -0.331006 -1.71026 0
M  V30 2445 C 232.347 -0.757835 -3.3237 0
M  V30 2446 H 233.54 -2.11377 -2.12743 0
M  V30 2447 H 231.093 -1.12793 -1.08201 0
M  V30 2448 H 231.828 0.206837 -3.2364 0
M  V30 2449 H 231.613 -1.52755 -3.61121 0
M  V30 2450 H 233.103 -0.678408 -4.12053 0
M  V30 2451 N 233.54 1.10788 -1.12088 0
M  V30 2452 C 234.786 1.82942 -0.875226 0
M  V30 2453 C 235.119 1.84779 0.597538 0
M  V30 2454 O 234.394 1.30578 1.44152 0
M  V30 2455 C 234.677 3.29789 -1.44606 0
M  V30 2456 C 234.53 3.36307 -2.98693 0
M  V30 2457 C 235.849 4.26064 -1.10261 0
M  V30 2458 H 232.968 0.664195 -0.319397 0
M  V30 2459 H 235.61 1.29867 -1.38689 0
M  V30 2460 H 233.76 3.75118 -1.01089 0
M  V30 2461 H 235.432 2.99487 -3.50864 0
M  V30 2462 H 233.675 2.76318 -3.34411 0
M  V30 2463 H 234.346 4.39694 -3.33726 0
M  V30 2464 H 236.822 3.88951 -1.4784 0
M  V30 2465 H 235.698 5.27183 -1.52869 0
M  V30 2466 H 235.959 4.42098 -0.0142953 0
M  V30 2467 N 235.018 0.912232 1.28515 0
M  V30 2468 C 235.948 0.416403 2.29757 0
M  V30 2469 C 236.929 -0.515194 1.6211 0
M  V30 2470 O 238.114 -0.423253 1.89532 0
M  V30 2471 C 235.244 -0.34572 3.45575 0
M  V30 2472 C 234.198 0.496599 4.25109 0
M  V30 2473 C 233.524 -0.393771 5.33248 0
M  V30 2474 C 234.824 1.75307 4.92001 0
M  V30 2475 H 236.518 1.26249 2.7148 0
M  V30 2476 H 234.064 0.608515 1.30511 0
M  V30 2477 H 236.017 -0.703422 4.15488 0
M  V30 2478 H 234.741 -1.2257 3.02728 0
M  V30 2479 H 233.4 0.8368 3.56922 0
M  V30 2480 H 233.048 -1.27225 4.86644 0
M  V30 2481 H 232.748 0.166209 5.87365 0
M  V30 2482 H 234.272 -0.747389 6.06009 0
M  V30 2483 H 235.686 1.46437 5.54283 0
M  V30 2484 H 234.083 2.25534 5.56106 0
M  V30 2485 H 235.153 2.48176 4.16577 0
M  V30 2486 N 236.496 -1.42363 0.676048 0
M  V30 2487 C 237.443 -2.308 -0.00150904 0
M  V30 2488 C 238.413 -1.46032 -0.791444 0
M  V30 2489 O 239.598 -1.74861 -0.76344 0
M  V30 2490 C 236.738 -3.31883 -0.945919 0
M  V30 2491 C 235.851 -4.31741 -0.149675 0
M  V30 2492 C 234.986 -5.19898 -1.08995 0
M  V30 2493 C 234.025 -6.11434 -0.285465 0
M  V30 2494 N 233.162 -6.92138 -1.17851 0
M  V30 2495 H 238.002 -2.88187 0.758455 0
M  V30 2496 H 235.539 -1.41952 0.38576 0
M  V30 2497 H 237.497 -3.89019 -1.50731 0
M  V30 2498 H 236.127 -2.76093 -1.6725 0
M  V30 2499 H 235.179 -3.76713 0.528359 0
M  V30 2500 H 236.491 -4.96534 0.474866 0
M  V30 2501 H 235.645 -5.81772 -1.72123 0
M  V30 2502 H 234.384 -4.55284 -1.74837 0
M  V30 2503 H 233.389 -5.48627 0.359018 0
M  V30 2504 H 234.614 -6.78097 0.368883 0
M  V30 2505 H 232.56 -6.30152 -1.82332 0
M  V30 2506 H 232.477 -7.53542 -0.609082 0
M  V30 2507 H 233.745 -7.58499 -1.79722 0
M  V30 2508 N 237.974 -0.419461 -1.51915 0
M  V30 2509 C 238.937 0.389116 -2.25873 0
M  V30 2510 C 239.937 0.964924 -1.28631 0
M  V30 2511 O 241.127 0.842179 -1.52489 0
M  V30 2512 C 238.259 1.54874 -3.03689 0
M  V30 2513 H 239.452 -0.258799 -2.98781 0
M  V30 2514 H 237.005 -0.172209 -1.55348 0
M  V30 2515 H 237.74 2.23323 -2.35154 0
M  V30 2516 H 237.525 1.14223 -3.75094 0
M  V30 2517 H 239.015 2.12046 -3.59759 0
M  V30 2518 N 239.452 1.56882 -0.150215 0
M  V30 2519 C 240.4 2.18214 0.805313 0
M  V30 2520 C 241.394 1.14006 1.25296 0
M  V30 2521 O 242.6 1.3225 1.22107 0
M  V30 2522 H 238.975 0.698762 0.277913 0
M  V30 2523 H 240.946 2.97231 0.263862 0
M  V30 2524 C 239.695 2.82065 2.03309 0
M  V30 2525 H 239.018 3.61968 1.69763 0
M  V30 2526 H 240.458 3.28477 2.68103 0
M  V30 2527 C 238.917 1.80739 2.84315 0
M  V30 2528 O 239.447 1.27983 3.80767 0
M  V30 2529 N 237.653 1.4997 2.48913 0
M  V30 2530 H 237.2 1.93062 1.70542 0
M  V30 2531 H 237.158 0.824217 3.03404 0
M  V30 2532 N 240.93 -0.123565 1.57115 0
M  V30 2533 C 242.346 -0.476961 1.52306 0
M  V30 2534 C 242.546 -1.82109 0.86248 0
M  V30 2535 O 241.602 -2.48586 0.442884 0
M  V30 2536 C 242.915 -0.465661 2.97073 0
M  V30 2537 C 244.463 -0.549534 3.08138 0
M  V30 2538 C 244.938 -0.568669 4.54456 0
M  V30 2539 N 246.429 -0.630237 4.58892 0
M  V30 2540 C 247.164 -0.666415 5.69514 0
M  V30 2541 N 246.66 -0.660514 6.89644 0
M  V30 2542 N 248.453 -0.709077 5.5761 0
M  V30 2543 H 240.604 0.757198 1.98445 0
M  V30 2544 H 242.867 0.278808 0.906074 0
M  V30 2545 H 242.573 0.454232 3.48754 0
M  V30 2546 H 242.447 -1.29513 3.54269 0
M  V30 2547 H 244.834 -1.45985 2.56461 0
M  V30 2548 H 244.915 0.307532 2.53945 0
M  V30 2549 H 244.559 0.337581 5.06777 0
M  V30 2550 H 244.489 -1.44256 5.06456 0
M  V30 2551 H 246.98 -0.641146 3.72421 0
M  V30 2552 H 247.293 -0.690616 7.69708 0
M  V30 2553 H 245.638 -0.628012 6.92157 0
M  V30 2554 H 248.829 -0.711019 4.62668 0
M  V30 2555 H 249.002 -0.733804 6.43832 0
M  V30 2556 N 242.408 -1.52605 -0.393616 0
M  V30 2557 C 243.654 -1.67672 -1.14079 0
M  V30 2558 C 243.987 -0.413121 -1.89755 0
M  V30 2559 O 243.262 0.588952 -1.85369 0
M  V30 2560 C 243.545 -2.9088 -2.12276 0
M  V30 2561 C 243.398 -4.27329 -1.40394 0
M  V30 2562 C 244.717 -3.09628 -3.12759 0
M  V30 2563 H 241.836 -0.610168 -0.413356 0
M  V30 2564 H 244.478 -1.85193 -0.424696 0
M  V30 2565 H 242.628 -2.76073 -2.73342 0
M  V30 2566 H 244.3 -4.53894 -0.82327 0
M  V30 2567 H 242.543 -4.2802 -0.705801 0
M  V30 2568 H 243.214 -5.09615 -2.12123 0
M  V30 2569 H 245.69 -3.23436 -2.61779 0
M  V30 2570 H 244.566 -3.97322 -3.78717 0
M  V30 2571 H 244.827 -2.23637 -3.81365 0
M  V30 2572 N 243.887 0.651787 -1.4349 0
M  V30 2573 C 245.133 1.4121 -1.46395 0
M  V30 2574 C 245.488 1.92202 -0.087366 0
M  V30 2575 O 244.781 1.69452 0.894231 0
M  V30 2576 C 244.975 2.60914 -2.44251 0
M  V30 2577 C 244.804 2.21639 -3.91288 0
M  V30 2578 C 243.574 2.09897 -4.59643 0
M  V30 2579 C 245.772 1.81835 -4.81083 0
M  V30 2580 N 243.754 1.63967 -5.91598 0
M  V30 2581 C 245.125 1.46998 -6.02322 0
M  V30 2582 C 247.18 1.69031 -4.6833 0
M  V30 2583 C 245.883 1.00638 -7.12225 0
M  V30 2584 C 247.909 1.24077 -5.78238 0
M  V30 2585 C 247.271 0.901772 -6.98604 0
M  V30 2586 H 243.37 0.512322 -0.590805 0
M  V30 2587 H 245.954 0.74989 -1.7968 0
M  V30 2588 H 244.125 3.24792 -2.1299 0
M  V30 2589 H 245.857 3.27622 -2.37584 0
M  V30 2590 H 242.612 2.297 -4.14168 0
M  V30 2591 H 243.036 1.43359 -6.61647 0
M  V30 2592 H 247.678 1.93878 -3.75727 0
M  V30 2593 H 245.396 0.745399 -8.04655 0
M  V30 2594 H 248.982 1.14657 -5.7039 0
M  V30 2595 H 247.862 0.559226 -7.82203 0
M  V30 2596 N 245.365 1.30045 0.890287 0
M  V30 2597 C 246.613 1.18327 1.63839 0
M  V30 2598 C 246.934 -0.263455 1.93212 0
M  V30 2599 O 246.204 -1.17856 1.56482 0
M  V30 2600 H 244.784 0.434933 0.607324 0
M  V30 2601 H 247.446 1.631 1.06698 0
M  V30 2602 H 246.542 1.74024 2.59079 0
M  V30 2603 N 246.843 -1.10192 1.12674 0
M  V30 2604 C 247.806 -2.14786 0.799979 0
M  V30 2605 C 248.806 -1.59711 -0.18685 0
M  V30 2606 O 249.996 -1.74156 0.0392558 0
M  V30 2607 C 247.128 -3.40374 0.189228 0
M  V30 2608 H 248.321 -2.45203 1.72671 0
M  V30 2609 H 245.874 -1.25597 0.930326 0
M  V30 2610 H 246.609 -3.15577 -0.747107 0
M  V30 2611 H 246.394 -3.81637 0.899766 0
M  V30 2612 H 247.884 -4.17594 -0.0228143 0
M  V30 2613 N 248.321 -0.919034 -1.28029 0
M  V30 2614 C 249.251 -0.428581 -2.29533 0
M  V30 2615 C 250.232 0.50659 -1.62381 0
M  V30 2616 O 251.417 0.413195 -1.89753 0
M  V30 2617 C 248.547 0.327388 -3.45753 0
M  V30 2618 C 247.501 -0.519137 -4.2484 0
M  V30 2619 C 246.827 0.365486 -5.33449 0
M  V30 2620 C 248.127 -1.77914 -4.91064 0
M  V30 2621 H 249.821 -1.27687 -2.70807 0
M  V30 2622 H 247.367 -0.615428 -1.30186 0
M  V30 2623 H 249.32 0.681378 -4.15855 0
M  V30 2624 H 248.044 1.20963 -3.03374 0
M  V30 2625 H 246.703 -0.855717 -3.56473 0
M  V30 2626 H 246.351 1.24642 -4.87312 0
M  V30 2627 H 246.051 -0.197356 -5.87268 0
M  V30 2628 H 247.575 0.715241 -6.06396 0
M  V30 2629 H 248.989 -1.49374 -5.53498 0
M  V30 2630 H 247.386 -2.2848 -5.54903 0
M  V30 2631 H 248.456 -2.50382 -4.15255 0
M  V30 2632 N 249.799 1.42003 -0.683588 0
M  V30 2633 C 251.215 1.55625 -0.353976 0
M  V30 2634 C 251.415 1.66151 1.14 0
M  V30 2635 O 250.471 1.63329 1.92561 0
M  V30 2636 C 251.784 2.80171 -1.092 0
M  V30 2637 C 253.332 2.93954 -1.07518 0
M  V30 2638 C 253.807 4.21372 -1.79471 0
M  V30 2639 N 255.298 4.28303 -1.76381 0
M  V30 2640 C 256.033 5.25729 -2.28904 0
M  V30 2641 N 255.529 6.29254 -2.89846 0
M  V30 2642 N 257.322 5.17586 -2.19228 0
M  V30 2643 H 249.473 1.33415 -1.6527 0
M  V30 2644 H 251.736 0.64282 -0.696769 0
M  V30 2645 H 251.442 2.78561 -2.14701 0
M  V30 2646 H 251.316 3.7133 -0.662862 0
M  V30 2647 H 253.703 2.95086 -0.028475 0
M  V30 2648 H 253.784 2.04002 -1.54328 0
M  V30 2649 H 253.428 4.21001 -2.84114 0
M  V30 2650 H 253.358 5.10275 -1.30104 0
M  V30 2651 H 255.849 3.54119 -1.31939 0
M  V30 2652 H 256.162 6.99964 -3.27522 0
M  V30 2653 H 254.507 6.29791 -2.93919 0
M  V30 2654 H 257.698 4.35631 -1.71299 0
M  V30 2655 H 257.871 5.93348 -2.60466 0
M  V30 2656 N 251.277 0.427512 1.51691 0
M  V30 2657 C 252.525 -0.141948 2.01601 0
M  V30 2658 C 252.846 -1.44067 1.31414 0
M  V30 2659 O 252.116 -1.90763 0.445658 0
M  V30 2660 H 250.696 -0.0554468 0.744939 0
M  V30 2661 H 253.358 0.567968 1.86441 0
M  V30 2662 H 252.454 -0.324913 3.10404 0
M  V30 2663 N 252.755 -1.56801 0.158532 0
M  V30 2664 C 253.685 -2.20347 -0.772609 0
M  V30 2665 C 254.666 -1.15518 -1.24859 0
M  V30 2666 O 255.851 -1.43902 -1.30406 0
M  V30 2667 C 252.981 -2.83417 -2.00729 0
M  V30 2668 C 251.935 -3.94174 -1.66765 0
M  V30 2669 C 251.261 -4.44233 -2.97592 0
M  V30 2670 C 252.561 -5.14392 -0.905447 0
M  V30 2671 H 254.255 -2.98413 -0.242959 0
M  V30 2672 H 251.801 -1.43537 -0.115419 0
M  V30 2673 H 253.754 -3.26543 -2.6636 0
M  V30 2674 H 252.478 -2.02701 -2.56086 0
M  V30 2675 H 251.137 -3.51684 -1.03508 0
M  V30 2676 H 250.785 -3.60325 -3.50963 0
M  V30 2677 H 250.485 -5.18945 -2.75626 0
M  V30 2678 H 252.009 -4.90037 -3.64274 0
M  V30 2679 H 253.423 -5.5429 -1.46408 0
M  V30 2680 H 251.82 -5.9494 -0.7853 0
M  V30 2681 H 252.89 -4.84795 0.100668 0
M  V30 2682 N 254.233 0.115231 -1.57178 0
M  V30 2683 C 255.143 1.15994 -2.03918 0
M  V30 2684 C 256.159 1.45103 -0.960268 0
M  V30 2685 O 257.335 1.56144 -1.27204 0
M  V30 2686 C 254.4 2.46568 -2.43732 0
M  V30 2687 C 253.461 2.24822 -3.65723 0
M  V30 2688 C 252.694 3.4917 -4.03629 0
M  V30 2689 O 252.917 4.56623 -3.41835 0
M  V30 2690 O 251.851 3.39949 -4.96708 0
M  V30 2691 H 255.677 0.793019 -2.93164 0
M  V30 2692 H 253.262 0.3263 -1.45793 0
M  V30 2693 H 255.144 3.23492 -2.70057 0
M  V30 2694 H 253.819 2.82726 -1.57631 0
M  V30 2695 H 252.726 1.45744 -3.44542 0
M  V30 2696 H 254.059 1.93566 -4.52541 0
M  V30 2697 N 255.711 1.52812 0.385517 0
M  V30 2698 C 256.939 1.71907 1.15133 0
M  V30 2699 C 257.354 0.439004 1.83625 0
M  V30 2700 O 256.711 -0.586765 1.7281 0
M  V30 2701 C 256.762 2.87099 2.19673 0
M  V30 2702 O 256.483 4.10151 1.53973 0
M  V30 2703 C 257.984 3.17902 3.08955 0
M  V30 2704 H 255.204 0.575479 0.345057 0
M  V30 2705 H 257.748 1.99476 0.45052 0
M  V30 2706 H 255.903 2.61982 2.85384 0
M  V30 2707 H 256.317 4.74514 2.23465 0
M  V30 2708 H 257.791 4.01959 3.7833 0
M  V30 2709 H 258.268 2.3243 3.72657 0
M  V30 2710 H 258.874 3.44871 2.48885 0
M  V30 2711 N 257.189 -0.644168 1.43834 0
M  V30 2712 C 258.436 -1.40395 1.4593 0
M  V30 2713 C 258.764 -1.94305 0.0869658 0
M  V30 2714 O 258.019 -1.73288 -0.909378 0
M  V30 2715 C 258.318 -2.59615 2.45631 0
M  V30 2716 C 257.984 -2.2407 3.91284 0
M  V30 2717 C 256.646 -2.14089 4.30952 0
M  V30 2718 C 258.998 -1.95775 4.83034 0
M  V30 2719 C 256.326 -1.73981 5.6031 0
M  V30 2720 C 258.678 -1.57163 6.12766 0
M  V30 2721 C 257.342 -1.45713 6.51402 0
M  V30 2722 H 256.612 -0.513741 0.533995 0
M  V30 2723 H 259.259 -0.731724 1.76969 0
M  V30 2724 H 257.564 -3.32011 2.08028 0
M  V30 2725 H 259.261 -3.17834 2.44504 0
M  V30 2726 H 255.851 -2.32753 3.59895 0
M  V30 2727 H 260.035 -2.02403 4.53152 0
M  V30 2728 H 255.291 -1.63709 5.89075 0
M  V30 2729 H 259.465 -1.34303 6.83327 0
M  V30 2730 H 257.092 -1.14406 7.51542 0
M  V30 2731 N 258.668 -1.30515 -0.883378 0
M  V30 2732 C 259.893 -1.22487 -1.67367 0
M  V30 2733 C 260.318 0.208767 -1.86938 0
M  V30 2734 O 259.676 1.15015 -1.40148 0
M  V30 2735 C 259.724 -1.96041 -3.02655 0
M  V30 2736 O 258.828 -1.28859 -3.91751 0
M  V30 2737 H 258.169 -0.423573 -0.511353 0
M  V30 2738 H 260.699 -1.72362 -1.10239 0
M  V30 2739 H 260.709 -2.05124 -3.52687 0
M  V30 2740 H 259.384 -3.00307 -2.8773 0
M  V30 2741 H 257.961 -1.28141 -3.50192 0
M  V30 2742 N 260.146 1.09593 -1.13257 0
M  V30 2743 C 261.078 2.16015 -0.766167 0
M  V30 2744 C 262.091 1.61423 0.211303 0
M  V30 2745 O 263.28 1.78498 -0.00863946 0
M  V30 2746 C 260.38 3.38706 -0.114662 0
M  V30 2747 C 259.553 4.22717 -1.12379 0
M  V30 2748 C 258.612 5.23835 -0.498301 0
M  V30 2749 O 257.638 5.573 -1.15781 0
M  V30 2750 N 258.84 5.75886 0.730417 0
M  V30 2751 H 261.605 2.48055 -1.68193 0
M  V30 2752 H 259.166 1.25292 -1.02535 0
M  V30 2753 H 261.158 4.03464 0.315991 0
M  V30 2754 H 259.728 3.04569 0.704011 0
M  V30 2755 H 258.948 3.54122 -1.73179 0
M  V30 2756 H 260.236 4.75673 -1.80589 0
M  V30 2757 H 259.634 5.50911 1.28504 0
M  V30 2758 H 258.191 6.42387 1.10376 0
M  V30 2759 N 261.624 0.925811 1.2754 0
M  V30 2760 C 262.554 0.440748 2.29303 0
M  V30 2761 C 263.535 -0.497971 1.62648 0
M  V30 2762 O 264.72 -0.403126 1.8997 0
M  V30 2763 C 261.85 -0.309048 3.45922 0
M  V30 2764 C 260.804 0.54166 4.24559 0
M  V30 2765 C 260.13 -0.337191 5.33636 0
M  V30 2766 C 261.43 1.80516 4.90114 0
M  V30 2767 H 263.124 1.29121 2.70126 0
M  V30 2768 H 260.67 0.622323 1.29858 0
M  V30 2769 H 262.623 -0.659315 4.1621 0
M  V30 2770 H 261.347 -1.19352 3.04011 0
M  V30 2771 H 260.006 0.874609 3.56014 0
M  V30 2772 H 259.654 -1.22056 4.87966 0
M  V30 2773 H 259.354 0.228497 5.87156 0
M  V30 2774 H 260.878 -0.683072 6.06767 0
M  V30 2775 H 262.292 1.52307 5.52698 0
M  V30 2776 H 260.689 2.3142 5.53683 0
M  V30 2777 H 261.759 2.52581 4.13921 0
M  V30 2778 N 263.102 -1.41638 0.69111 0
M  V30 2779 C 264.348 -2.01598 0.220519 0
M  V30 2780 C 264.681 -1.54594 -1.17535 0
M  V30 2781 O 263.956 -0.755177 -1.79241 0
M  V30 2782 C 264.239 -3.59062 0.273243 0
M  V30 2783 C 264.092 -4.16203 1.70573 0
M  V30 2784 C 265.411 -4.38546 -0.369457 0
M  V30 2785 H 262.53 -0.732468 0.0816045 0
M  V30 2786 H 265.172 -1.68445 0.878986 0
M  V30 2787 H 263.322 -3.87435 -0.287411 0
M  V30 2788 H 264.994 -3.98722 2.31989 0
M  V30 2789 H 263.237 -3.71414 2.2413 0
M  V30 2790 H 263.908 -5.25358 1.69419 0
M  V30 2791 H 266.384 -4.1596 0.107977 0
M  V30 2792 H 265.26 -5.48069 -0.302002 0
M  V30 2793 H 265.521 -4.17662 -1.44951 0
M  V30 2794 N 264.58 -0.43555 -1.51462 0
M  V30 2795 C 265.81 0.130053 -2.0619 0
M  V30 2796 C 266.218 1.37164 -1.30317 0
M  V30 2797 O 265.561 1.80225 -0.355598 0
M  V30 2798 C 265.623 0.519418 -3.55728 0
M  V30 2799 C 265.287 -0.615119 -4.52841 0
M  V30 2800 C 266.284 -1.48671 -4.9819 0
M  V30 2801 C 263.969 -0.795341 -4.95963 0
M  V30 2802 C 265.963 -2.52324 -5.8533 0
M  V30 2803 C 263.65 -1.83514 -5.82894 0
M  V30 2804 C 264.648 -2.69748 -6.27475 0
M  V30 2805 O 264.336 -3.71944 -7.1268 0
M  V30 2806 H 264.068 0.0121612 -0.675891 0
M  V30 2807 H 266.622 -0.6129 -1.96043 0
M  V30 2808 H 264.852 1.31505 -3.63653 0
M  V30 2809 H 266.541 1.01597 -3.92979 0
M  V30 2810 H 267.307 -1.359 -4.65571 0
M  V30 2811 H 263.186 -0.133713 -4.60806 0
M  V30 2812 H 266.73 -3.19665 -6.20048 0
M  V30 2813 H 262.627 -1.96306 -6.14926 0
M  V30 2814 H 263.395 -3.68503 -7.30854 0
M  V30 2815 N 266.058 1.56714 -0.166846 0
M  V30 2816 C 266.99 2.14914 0.796537 0
M  V30 2817 C 268.003 1.10357 1.19688 0
M  V30 2818 O 269.192 1.37561 1.13751 0
M  V30 2819 C 266.292 2.67326 2.08303 0
M  V30 2820 C 265.465 3.96493 1.84696 0
M  V30 2821 C 264.524 4.34014 2.97521 0
M  V30 2822 O 263.55 5.01973 2.6835 0
M  V30 2823 N 264.752 3.95208 4.25196 0
M  V30 2824 H 267.517 2.98205 0.299006 0
M  V30 2825 H 265.078 1.61892 0.0160839 0
M  V30 2826 H 267.07 2.89428 2.82867 0
M  V30 2827 H 265.64 1.88649 2.4926 0
M  V30 2828 H 264.86 3.82814 0.940602 0
M  V30 2829 H 266.148 4.8086 1.66285 0
M  V30 2830 H 265.546 3.40487 4.51758 0
M  V30 2831 H 264.103 4.2232 4.96477 0
M  V30 2832 N 267.536 -0.106894 1.57237 0
M  V30 2833 C 268.813 -0.843526 1.76477 0
M  V30 2834 C 269.193 -1.97499 0.745464 0
M  V30 2835 O 268.541 -2.27357 -0.228306 0
M  V30 2836 C 268.751 -1.34903 3.21873 0
M  V30 2837 C 270.099 -1.79654 3.8472 0
M  V30 2838 O 271.123 -1.44554 3.2555 0
M  V30 2839 O 269.982 -2.44515 4.88748 0
M  V30 2840 H 267.076 -0.401468 0.723016 0
M  V30 2841 H 269.622 -0.0896927 1.69463 0
M  V30 2842 H 268.394 -0.53781 3.87586 0
M  V30 2843 H 268.017 -2.16522 3.33473 0
M  V30 2844 N 269.014 -1.53014 -0.377408 0
M  V30 2845 C 270.239 -1.72818 -1.14668 0
M  V30 2846 C 270.664 -0.450725 -1.8262 0
M  V30 2847 O 270.022 0.59439 -1.7128 0
M  V30 2848 C 270.07 -2.88627 -2.16164 0
M  V30 2849 O 269.174 -2.56409 -3.22998 0
M  V30 2850 H 268.515 -0.574301 -0.333278 0
M  V30 2851 H 271.045 -1.99853 -0.438152 0
M  V30 2852 H 271.055 -3.14455 -2.59966 0
M  V30 2853 H 269.73 -3.81294 -1.66095 0
M  V30 2854 H 268.307 -2.4136 -2.84253 0
M  V30 2855 N 270.492 0.636531 -1.44174 0
M  V30 2856 C 271.722 1.42146 -1.49927 0
M  V30 2857 C 272.13 1.88812 -0.121063 0
M  V30 2858 O 271.473 1.61126 0.882267 0
M  V30 2859 C 271.535 2.67883 -2.39748 0
M  V30 2860 C 271.199 2.43048 -3.8701 0
M  V30 2861 C 272.196 2.05216 -4.77684 0
M  V30 2862 C 269.881 2.56856 -4.3166 0
M  V30 2863 C 271.875 1.81512 -6.11009 0
M  V30 2864 C 269.562 2.32766 -5.65034 0
M  V30 2865 C 270.56 1.95152 -6.54526 0
M  V30 2866 O 270.248 1.71326 -7.85431 0
M  V30 2867 H 269.98 0.442567 -0.51099 0
M  V30 2868 H 272.534 0.786158 -1.8976 0
M  V30 2869 H 270.764 3.34032 -1.94832 0
M  V30 2870 H 272.453 3.29874 -2.36513 0
M  V30 2871 H 273.219 1.94111 -4.44462 0
M  V30 2872 H 269.098 2.85104 -3.62266 0
M  V30 2873 H 272.642 1.52077 -6.80822 0
M  V30 2874 H 268.539 2.43479 -5.97819 0
M  V30 2875 H 269.307 1.85616 -7.97176 0
M  V30 2876 N 271.97 1.30982 0.876444 0
M  V30 2877 C 273.218 1.20058 1.62575 0
M  V30 2878 C 273.539 -0.242947 1.93481 0
M  V30 2879 O 272.809 -1.1619 1.57724 0
M  V30 2880 H 271.389 0.44135 0.602677 0
M  V30 2881 H 274.051 1.64222 1.04962 0
M  V30 2882 H 273.147 1.76762 2.57219 0
M  V30 2883 N 273.449 -1.08991 1.13837 0
M  V30 2884 C 274.677 -1.85011 0.926202 0
M  V30 2885 C 275.092 -1.8135 -0.525127 0
M  V30 2886 O 274.449 -1.21287 -1.36366 0
M  V30 2887 C 274.5 -3.32802 1.41155 0
M  V30 2888 O 274.221 -3.36444 2.80601 0
M  V30 2889 C 275.722 -4.25649 1.23847 0
M  V30 2890 H 272.942 -0.584249 0.32999 0
M  V30 2891 H 275.486 -1.37688 1.51202 0
M  V30 2892 H 273.641 -3.77536 0.868631 0
M  V30 2893 H 274.055 -4.28657 3.02248 0
M  V30 2894 H 275.529 -5.27485 1.62675 0
M  V30 2895 H 276.006 -4.38828 0.18065 0
M  V30 2896 H 276.612 -3.86735 1.76964 0
M  V30 2897 N 274.927 -0.932562 -1.27047 0
M  V30 2898 C 276.174 -0.575559 -1.94148 0
M  V30 2899 C 276.502 0.883984 -1.73251 0
M  V30 2900 O 275.757 1.64655 -1.0577 0
M  V30 2901 C 276.056 -0.853713 -3.47054 0
M  V30 2902 C 275.722 -2.29577 -3.88079 0
M  V30 2903 C 274.384 -2.68999 -3.9899 0
M  V30 2904 C 276.736 -3.23331 -4.08787 0
M  V30 2905 C 274.064 -4.01289 -4.28 0
M  V30 2906 C 276.416 -4.55207 -4.39282 0
M  V30 2907 C 275.08 -4.94457 -4.48407 0
M  V30 2908 H 274.35 -0.210612 -0.710439 0
M  V30 2909 H 276.997 -1.17744 -1.51025 0
M  V30 2910 H 275.302 -0.169204 -3.91434 0
M  V30 2911 H 276.999 -0.55639 -3.97121 0
M  V30 2912 H 273.589 -1.97994 -3.80127 0
M  V30 2913 H 277.773 -2.94074 -3.99793 0
M  V30 2914 H 273.029 -4.31374 -4.33275 0
M  V30 2915 H 277.203 -5.27852 -4.54252 0
M  V30 2916 H 274.83 -5.96994 -4.7064 0
M  V30 2917 N 276.405 1.4127 -0.698611 0
M  V30 2918 C 277.633 2.05503 -0.239992 0
M  V30 2919 C 278.048 1.52584 1.11191 0
M  V30 2920 O 277.405 0.675323 1.69545 0
M  V30 2921 C 277.456 3.60987 -0.192429 0
M  V30 2922 O 277.177 4.1195 -1.49094 0
M  V30 2923 C 278.678 4.42371 0.28681 0
M  V30 2924 H 275.898 0.661748 -0.111045 0
M  V30 2925 H 278.442 1.80987 -0.95205 0
M  V30 2926 H 276.597 3.84533 0.470472 0
M  V30 2927 H 277.011 5.06018 -1.38007 0
M  V30 2928 H 278.485 5.51344 0.26896 0
M  V30 2929 H 278.962 4.18699 1.32619 0
M  V30 2930 H 279.568 4.23897 -0.345201 0
M  V30 2931 N 277.883 0.443576 1.51229 0
M  V30 2932 C 279.132 -0.122332 2.01329 0
M  V30 2933 C 279.445 -1.43237 1.33201 0
M  V30 2934 O 280.651 -2.0816 1.74304 0
M  V30 2935 C 279.107 -0.268551 3.58897 0
M  V30 2936 C 278.715 1.03142 4.35965 0
M  V30 2937 C 280.459 -0.787894 4.17124 0
M  V30 2938 C 278.366 0.850504 5.85252 0
M  V30 2939 H 277.296 -0.0494929 0.752374 0
M  V30 2940 H 279.947 0.574289 1.74282 0
M  V30 2941 H 278.329 -1.02832 3.82415 0
M  V30 2942 H 279.503 1.80001 4.24189 0
M  V30 2943 H 277.818 1.47977 3.89219 0
M  V30 2944 H 280.415 -0.939841 5.26375 0
M  V30 2945 H 280.758 -1.77201 3.76703 0
M  V30 2946 H 281.291 -0.0862669 3.97706 0
M  V30 2947 H 278.03 1.80718 6.30096 0
M  V30 2948 H 277.55 0.121825 5.99676 0
M  V30 2949 H 279.229 0.506163 6.45017 0
M  V30 2950 N 279.361 -1.56624 0.175154 0
M  V30 2951 C 280.309 -2.19468 -0.770495 0
M  V30 2952 C 281.303 -1.15985 -1.23466 0
M  V30 2953 O 282.509 -1.34176 -1.19987 0
M  V30 2954 H 278.884 -0.703095 -0.266761 0
M  V30 2955 H 280.855 -2.97613 -0.216542 0
M  V30 2956 C 279.604 -2.85264 -1.98796 0
M  V30 2957 H 278.927 -3.64623 -1.63983 0
M  V30 2958 H 280.367 -3.327 -2.62843 0
M  V30 2959 C 278.826 -1.85239 -2.81404 0
M  V30 2960 O 279.356 -1.34024 -3.78682 0
M  V30 2961 N 277.562 -1.53911 -2.46495 0
M  V30 2962 H 277.109 -1.95751 -1.67449 0
M  V30 2963 H 277.067 -0.872382 -3.02054 0
M  V30 2964 N 280.839 0.0985539 -1.57292 0
M  V30 2965 C 281.749 1.13824 -2.05137 0
M  V30 2966 C 282.765 1.44076 -0.975604 0
M  V30 2967 O 283.941 1.54786 -1.28853 0
M  V30 2968 C 281.006 2.43969 -2.46333 0
M  V30 2969 C 280.067 2.2093 -3.68087 0
M  V30 2970 C 279.3 3.44869 -4.0731 0
M  V30 2971 O 279.523 4.52972 -3.46659 0
M  V30 2972 O 278.457 3.34661 -5.00285 0
M  V30 2973 H 282.283 0.761881 -2.93988 0
M  V30 2974 H 279.868 0.310818 -1.46131 0
M  V30 2975 H 281.75 3.20609 -2.73473 0
M  V30 2976 H 280.425 2.81038 -1.60621 0
M  V30 2977 H 279.332 1.42081 -3.46069 0
M  V30 2978 H 280.665 1.88755 -4.54568 0
M  V30 2979 N 282.317 1.53212 0.369288 0
M  V30 2980 C 283.542 1.73423 1.1375 0
M  V30 2981 C 283.967 0.460404 1.82378 0
M  V30 2982 O 283.325 -0.585298 1.71592 0
M  V30 2983 C 283.373 2.89769 2.1463 0
M  V30 2984 O 282.477 2.58119 3.21634 0
M  V30 2985 H 281.818 0.576061 0.330227 0
M  V30 2986 H 284.348 2.00083 0.427547 0
M  V30 2987 H 284.358 3.15829 2.58294 0
M  V30 2988 H 283.033 3.8217 1.64071 0
M  V30 2989 H 281.61 2.42864 2.82969 0
M  V30 2990 N 283.795 -0.628877 1.44509 0
M  V30 2991 C 285.023 -1.41554 1.50897 0
M  V30 2992 C 285.438 -1.8832 0.134564 0
M  V30 2993 O 284.795 -1.60969 -0.859965 0
M  V30 2994 C 284.846 -2.63435 2.47556 0
M  V30 2995 O 284.567 -2.18619 3.79654 0
M  V30 2996 C 286.068 -3.56537 2.63431 0
M  V30 2997 H 283.288 -0.434044 0.511709 0
M  V30 2998 H 285.832 -0.768895 1.89495 0
M  V30 2999 H 283.987 -3.24187 2.12089 0
M  V30 3000 H 284.401 -2.97652 4.31861 0
M  V30 3001 H 285.875 -4.38657 3.35088 0
M  V30 3002 H 286.352 -4.05493 1.68738 0
M  V30 3003 H 286.958 -3.01653 2.9981 0
M  V30 3004 N 285.273 -1.31445 -0.869486 0
M  V30 3005 C 286.522 -1.20517 -1.61736 0
M  V30 3006 C 286.835 0.235341 -1.94179 0
M  V30 3007 O 288.041 0.466312 -2.67465 0
M  V30 3008 C 286.497 -2.10982 -2.91573 0
M  V30 3009 C 286.105 -3.60032 -2.66611 0
M  V30 3010 C 287.849 -2.08856 -3.69567 0
M  V30 3011 C 285.756 -4.42503 -3.92358 0
M  V30 3012 H 284.686 -0.447493 -0.606849 0
M  V30 3013 H 287.337 -1.56303 -0.96133 0
M  V30 3014 H 285.719 -1.68095 -3.58553 0
M  V30 3015 H 286.893 -4.11167 -2.08035 0
M  V30 3016 H 285.208 -3.64139 -2.0197 0
M  V30 3017 H 287.805 -2.67716 -4.62852 0
M  V30 3018 H 288.148 -1.07582 -4.02159 0
M  V30 3019 H 288.681 -2.49945 -3.09471 0
M  V30 3020 H 285.42 -5.44533 -3.64916 0
M  V30 3021 H 284.94 -3.96125 -4.50383 0
M  V30 3022 H 286.619 -4.54741 -4.60238 0
M  V30 3023 N 286.751 1.08385 -1.14413 0
M  V30 3024 C 288 1.80153 -0.907076 0
M  V30 3025 C 288.313 1.87176 0.567851 0
M  V30 3026 O 289.519 2.55359 0.922172 0
M  V30 3027 C 287.975 3.23687 -1.57336 0
M  V30 3028 C 287.583 3.24897 -3.08457 0
M  V30 3029 C 289.327 4.00136 -1.41744 0
M  V30 3030 C 287.234 4.6302 -3.67921 0
M  V30 3031 H 286.164 0.675139 -0.335714 0
M  V30 3032 H 288.815 1.21733 -1.37307 0
M  V30 3033 H 287.197 3.82234 -1.03505 0
M  V30 3034 H 288.371 2.76055 -3.68958 0
M  V30 3035 H 286.686 2.61943 -3.2369 0
M  V30 3036 H 289.283 5.02201 -1.83572 0
M  V30 3037 H 289.626 4.14709 -0.363576 0
M  V30 3038 H 290.159 3.48058 -1.92614 0
M  V30 3039 H 286.898 4.5365 -4.73161 0
M  V30 3040 H 286.418 5.12143 -3.12201 0
M  V30 3041 H 288.097 5.31994 -3.68227 0
M  V30 3042 N 288.23 0.939286 1.26551 0
M  V30 3043 C 289.507 0.5038 1.89001 0
M  V30 3044 C 289.887 -1.01854 1.84903 0
M  V30 3045 O 289.235 -1.87773 1.30206 0
M  V30 3046 C 289.445 1.063 3.32417 0
M  V30 3047 C 290.793 1.13051 4.09273 0
M  V30 3048 O 291.817 1.01345 3.41479 0
M  V30 3049 O 290.676 1.31233 5.30509 0
M  V30 3050 H 287.77 0.163897 0.810597 0
M  V30 3051 H 290.316 1.03173 1.34735 0
M  V30 3052 H 289.088 2.10665 3.29752 0
M  V30 3053 H 288.711 0.517408 3.94219 0
M  V30 3054 N 289.708 -1.40897 0.706093 0
M  V30 3055 C 290.933 -2.05895 0.249435 0
M  V30 3056 C 291.358 -1.52823 -1.09666 0
M  V30 3057 O 290.716 -0.659589 -1.68876 0
M  V30 3058 C 290.764 -3.59872 0.22904 0
M  V30 3059 O 289.868 -4.04708 -0.792784 0
M  V30 3060 H 289.209 -0.653206 0.119241 0
M  V30 3061 H 291.739 -1.80471 0.96391 0
M  V30 3062 H 291.749 -4.07951 0.0634791 0
M  V30 3063 H 290.424 -3.97866 1.21141 0
M  V30 3064 H 289.001 -3.68111 -0.59572 0
M  V30 3065 N 291.186 -0.45159 -1.50991 0
M  V30 3066 C 292.597 0.00818571 -1.86698 0
M  V30 3067 C 292.948 1.40661 -1.3678 0
M  V30 3068 O 292.073 2.0391 -0.724546 0
M  V30 3069 C 292.668 0.0216303 -3.38793 0
M  V30 3070 C 291.227 0.425865 -3.73983 0
M  V30 3071 C 290.374 -0.372163 -2.74791 0
M  V30 3072 H 293.325 -0.666785 -1.44013 0
M  V30 3073 H 293.346 0.828078 -3.7138 0
M  V30 3074 H 292.858 -0.996288 -3.75094 0
M  V30 3075 H 290.959 1.44886 -3.43277 0
M  V30 3076 H 291.072 0.140761 -4.78893 0
M  V30 3077 H 289.436 0.171498 -2.54122 0
M  V30 3078 H 290.219 -1.38922 -3.13935 0
M  V30 3079 N 292.664 1.56529 -0.183458 0
M  V30 3080 C 294.08 1.58664 0.172554 0
M  V30 3081 C 294.28 1.19925 1.61926 0
M  V30 3082 O 293.336 0.916534 2.35278 0
M  V30 3083 C 294.649 3.00463 -0.119262 0
M  V30 3084 C 296.197 3.12945 -0.0584396 0
M  V30 3085 C 296.672 4.56857 -0.323408 0
M  V30 3086 N 298.163 4.62403 -0.271612 0
M  V30 3087 C 298.898 5.71626 -0.450639 0
M  V30 3088 N 298.394 6.89362 -0.689384 0
M  V30 3089 N 300.187 5.60775 -0.385701 0
M  V30 3090 H 292.338 1.79994 -1.12765 0
M  V30 3091 H 294.601 0.834808 -0.449222 0
M  V30 3092 H 294.307 3.33326 -1.12192 0
M  V30 3093 H 294.181 3.72659 0.583544 0
M  V30 3094 H 296.568 2.79902 0.934805 0
M  V30 3095 H 296.649 2.4316 -0.794144 0
M  V30 3096 H 296.293 4.9061 -1.31392 0
M  V30 3097 H 296.223 5.24816 0.43305 0
M  V30 3098 H 298.714 3.77785 -0.0932256 0
M  V30 3099 H 299.027 7.68489 -0.815113 0
M  V30 3100 H 297.372 6.91196 -0.726142 0
M  V30 3101 H 300.563 4.67674 -0.199687 0
M  V30 3102 H 300.736 6.4584 -0.528646 0
M  V30 3103 N 294.142 -0.090211 1.57342 0
M  V30 3104 C 295.389 -0.792807 1.86335 0
M  V30 3105 C 295.717 -1.78494 0.772662 0
M  V30 3106 O 294.972 -1.94305 -0.233258 0
M  V30 3107 C 295.271 -1.55222 3.21933 0
M  V30 3108 C 294.937 -0.701765 4.45406 0
M  V30 3109 C 293.599 -0.467334 4.78925 0
M  V30 3110 C 295.951 -0.11086 5.21082 0
M  V30 3111 C 293.279 0.367785 5.85546 0
M  V30 3112 C 295.631 0.711609 6.28585 0
M  V30 3113 C 294.295 0.956086 6.60617 0
M  V30 3114 H 293.565 -0.290109 0.681849 0
M  V30 3115 H 296.212 -0.0541332 1.91423 0
M  V30 3116 H 294.517 -2.3626 3.12551 0
M  V30 3117 H 296.214 -2.10032 3.41595 0
M  V30 3118 H 292.804 -0.894598 4.1916 0
M  V30 3119 H 296.988 -0.279129 4.95514 0
M  V30 3120 H 292.244 0.566128 6.08773 0
M  V30 3121 H 296.418 1.17632 6.86393 0
M  V30 3122 H 294.045 1.60499 7.43064 0
M  V30 3123 N 295.62 -1.53406 -0.361157 0
M  V30 3124 C 296.845 -1.74024 -1.12829 0
M  V30 3125 C 297.27 -0.470069 -1.82132 0
M  V30 3126 O 296.628 0.57619 -1.719 0
M  V30 3127 C 296.676 -2.90903 -2.13091 0
M  V30 3128 O 295.78 -2.59821 -3.20261 0
M  V30 3129 H 295.121 -0.577804 -0.327168 0
M  V30 3130 H 297.651 -2.00307 -0.41693 0
M  V30 3131 H 297.661 -3.17194 -2.56616 0
M  V30 3132 H 296.336 -3.83034 -1.62042 0
M  V30 3133 H 294.913 -2.44362 -2.81677 0
M  V30 3134 N 297.098 0.621204 -1.44841 0
M  V30 3135 C 298.048 1.72663 -1.48901 0
M  V30 3136 C 299.032 1.56964 -0.353702 0
M  V30 3137 O 300.224 1.66532 -0.599669 0
M  V30 3138 C 297.353 3.11381 -1.44557 0
M  V30 3139 C 296.439 3.32514 -2.6324 0
M  V30 3140 N 296.83 3.23969 -3.8843 0
M  V30 3141 C 295.128 3.63343 -2.58647 0
M  V30 3142 C 295.829 3.46062 -4.67564 0
M  V30 3143 N 294.805 3.69407 -3.98797 0
M  V30 3144 H 298.607 1.64529 -2.43531 0
M  V30 3145 H 296.121 0.82401 -1.39942 0
M  V30 3146 H 298.118 3.90667 -1.4555 0
M  V30 3147 H 296.778 3.20674 -0.509731 0
M  V30 3148 H 297.789 3.02669 -4.20252 0
M  V30 3149 H 294.466 3.79556 -1.73906 0
M  V30 3150 H 295.856 3.44963 -5.76585 0
M  V30 3151 N 298.576 1.31904 0.862503 0
M  V30 3152 C 299.992 1.10724 1.14945 0
M  V30 3153 C 300.192 -0.117421 2.01158 0
M  V30 3154 O 299.248 -0.804595 2.39338 0
M  V30 3155 C 300.561 2.38267 1.83437 0
M  V30 3156 C 302.109 2.43949 1.96106 0
M  V30 3157 C 302.584 3.71394 2.68013 0
M  V30 3158 N 304.075 3.72331 2.75543 0
M  V30 3159 C 304.81 4.67641 3.31812 0
M  V30 3160 N 304.306 5.73313 3.88953 0
M  V30 3161 N 306.099 4.5515 3.29841 0
M  V30 3162 H 298.25 2.10436 0.288191 0
M  V30 3163 H 300.513 0.928705 0.190292 0
M  V30 3164 H 300.219 3.27759 1.27542 0
M  V30 3165 H 300.093 2.48633 2.83657 0
M  V30 3166 H 302.48 1.54922 2.51164 0
M  V30 3167 H 302.561 2.37543 0.949059 0
M  V30 3168 H 302.205 4.60791 2.13621 0
M  V30 3169 H 302.135 3.75069 3.69636 0
M  V30 3170 H 304.626 2.95947 2.34997 0
M  V30 3171 H 304.939 6.42107 4.30022 0
M  V30 3172 H 303.284 5.77077 3.87308 0
M  V30 3173 H 306.475 3.71766 2.84443 0
M  V30 3174 H 306.648 5.29604 3.73394 0
M  V30 3175 N 300.054 -1.07777 1.14986 0
M  V30 3176 C 301.302 -1.79934 0.920235 0
M  V30 3177 C 301.623 -1.86955 -0.554336 0
M  V30 3178 O 300.893 -1.36731 -1.40291 0
M  V30 3179 H 299.473 -0.666424 0.337473 0
M  V30 3180 H 302.135 -1.3027 1.44968 0
M  V30 3181 H 301.231 -2.82539 1.32583 0
M  V30 3182 N 301.532 -0.945985 -1.26051 0
M  V30 3183 C 302.781 -0.591836 -1.92822 0
M  V30 3184 C 303.094 0.873956 -1.7499 0
M  V30 3185 O 304.3 1.33769 -2.36259 0
M  V30 3186 C 302.756 -1.00776 -3.45503 0
M  V30 3187 C 302.364 -2.4955 -3.7206 0
M  V30 3188 C 304.108 -0.725735 -4.1825 0
M  V30 3189 C 302.015 -2.84988 -5.18205 0
M  V30 3190 H 300.945 -0.217635 -0.721908 0
M  V30 3191 H 303.596 -1.14927 -1.43052 0
M  V30 3192 H 301.978 -0.378812 -3.94184 0
M  V30 3193 H 303.152 -3.1739 -3.34066 0
M  V30 3194 H 301.467 -2.75133 -3.12555 0
M  V30 3195 H 304.064 -0.966771 -5.25887 0
M  V30 3196 H 304.407 0.337639 -4.14929 0
M  V30 3197 H 304.94 -1.31463 -3.7545 0
M  V30 3198 H 301.679 -3.90307 -5.26631 0
M  V30 3199 H 301.199 -2.21813 -5.57278 0
M  V30 3200 H 302.878 -2.73712 -5.86252 0
M  V30 3201 N 303.011 1.40521 -0.713556 0
M  V30 3202 C 303.941 2.33381 -0.0743864 0
M  V30 3203 C 304.922 1.52784 0.747735 0
M  V30 3204 O 306.107 1.81258 0.697071 0
M  V30 3205 C 303.237 3.36748 0.849598 0
M  V30 3206 C 302.191 4.27793 0.133247 0
M  V30 3207 C 301.517 5.21679 1.17281 0
M  V30 3208 C 302.817 5.12415 -1.01134 0
M  V30 3209 H 304.511 2.87081 -0.850007 0
M  V30 3210 H 302.057 1.38034 -0.410201 0
M  V30 3211 H 304.01 4.00648 1.30612 0
M  V30 3212 H 302.734 2.81439 1.65709 0
M  V30 3213 H 301.393 3.65342 -0.303426 0
M  V30 3214 H 301.041 4.62677 1.9733 0
M  V30 3215 H 300.741 5.83435 0.698397 0
M  V30 3216 H 302.265 5.88456 1.62947 0
M  V30 3217 H 303.679 5.69781 -0.634274 0
M  V30 3218 H 302.076 5.83203 -1.41399 0
M  V30 3219 H 303.146 4.48514 -1.84292 0
M  V30 3220 N 304.489 0.459591 1.5075 0
M  V30 3221 C 305.738 -0.100971 2.01447 0
M  V30 3222 C 306.051 -1.41816 1.34713 0
M  V30 3223 O 307.257 -2.06299 1.76502 0
M  V30 3224 C 305.713 -0.23047 3.59161 0
M  V30 3225 C 305.321 1.0776 4.34847 0
M  V30 3226 C 307.065 -0.743608 4.17936 0
M  V30 3227 C 304.972 0.91253 5.84317 0
M  V30 3228 H 303.902 -0.0415102 0.752856 0
M  V30 3229 H 306.553 0.592742 1.73663 0
M  V30 3230 H 304.935 -0.987703 3.83485 0
M  V30 3231 H 306.109 1.8449 4.22256 0
M  V30 3232 H 304.424 1.52097 3.87628 0
M  V30 3233 H 307.021 -0.883959 5.27343 0
M  V30 3234 H 307.364 -1.73196 3.78562 0
M  V30 3235 H 307.897 -0.04408 3.97776 0
M  V30 3236 H 304.636 1.87391 6.28144 0
M  V30 3237 H 304.156 0.185422 5.99513 0
M  V30 3238 H 305.835 0.574547 6.44444 0
M  V30 3239 N 305.967 -1.56429 0.191757 0
M  V30 3240 C 307.244 -1.89224 -0.495332 0
M  V30 3241 C 307.624 -1.10478 -1.79883 0
M  V30 3242 O 306.972 -0.204852 -2.2758 0
M  V30 3243 C 307.182 -3.41548 -0.717367 0
M  V30 3244 C 308.53 -4.11711 -1.03823 0
M  V30 3245 O 309.554 -3.4698 -0.805204 0
M  V30 3246 O 308.413 -5.2611 -1.47887 0
M  V30 3247 H 305.507 -0.785788 -0.25781 0
M  V30 3248 H 308.053 -1.68111 0.231721 0
M  V30 3249 H 306.825 -3.90772 0.203287 0
M  V30 3250 H 306.448 -3.68342 -1.497 0
M  V30 3251 N 307.445 0.0818655 -1.57387 0
M  V30 3252 C 308.673 0.796108 -1.9097 0
M  V30 3253 C 309.088 1.71626 -0.786757 0
M  V30 3254 O 308.445 1.80908 0.240513 0
M  V30 3255 C 308.496 1.59829 -3.24248 0
M  V30 3256 O 308.217 0.715131 -4.32224 0
M  V30 3257 C 309.718 2.41442 -3.7178 0
M  V30 3258 H 306.938 0.22691 -0.631469 0
M  V30 3259 H 309.482 0.0551439 -2.04426 0
M  V30 3260 H 307.637 2.29163 -3.12351 0
M  V30 3261 H 308.051 1.27205 -5.08841 0
M  V30 3262 H 309.525 2.932 -4.67694 0
M  V30 3263 H 310.002 3.2051 -3.00283 0
M  V30 3264 H 310.608 1.77283 -3.86589 0
M  V30 3265 N 308.923 1.53595 0.353017 0
M  V30 3266 C 310.148 1.7462 1.11904 0
M  V30 3267 C 310.573 0.479721 1.8188 0
M  V30 3268 O 309.931 -0.567066 1.72204 0
M  V30 3269 C 309.979 2.92029 2.11545 0
M  V30 3270 O 309.083 2.61516 3.18878 0
M  V30 3271 H 308.424 0.579531 0.324099 0
M  V30 3272 H 310.954 2.00525 0.406301 0
M  V30 3273 H 310.964 3.18551 2.5493 0
M  V30 3274 H 309.639 3.83888 1.60008 0
M  V30 3275 H 308.216 2.45852 2.80377 0
M  V30 3276 N 310.401 -0.613514 1.45168 0
M  V30 3277 C 311.817 -0.933629 1.29443 0
M  V30 3278 C 312.017 -2.00028 0.243101 0
M  V30 3279 O 311.073 -2.49848 -0.364992 0
M  V30 3280 C 312.386 -1.38018 2.67155 0
M  V30 3281 C 313.934 -1.49471 2.75004 0
M  V30 3282 C 314.409 -1.97503 4.13227 0
M  V30 3283 N 315.9 -2.04746 4.15491 0
M  V30 3284 C 316.635 -2.43121 5.19307 0
M  V30 3285 N 316.131 -2.80506 6.33473 0
M  V30 3286 N 317.924 -2.43408 5.06664 0
M  V30 3287 H 310.075 0.0916097 2.12202 0
M  V30 3288 H 312.338 -0.0216655 0.947752 0
M  V30 3289 H 312.044 -0.670625 3.45247 0
M  V30 3290 H 311.918 -2.34784 2.95222 0
M  V30 3291 H 314.305 -2.19519 1.9722 0
M  V30 3292 H 314.386 -0.510342 2.50657 0
M  V30 3293 H 314.03 -1.28045 4.91495 0
M  V30 3294 H 313.96 -2.96843 4.34962 0
M  V30 3295 H 316.451 -1.78468 3.33103 0
M  V30 3296 H 316.764 -3.08652 7.08487 0
M  V30 3297 H 315.109 -2.78216 6.36884 0
M  V30 3298 H 318.3 -2.13604 4.16523 0
M  V30 3299 H 318.473 -2.72989 5.87691 0
M  V30 3300 N 311.879 -1.3236 -0.855495 0
M  V30 3301 C 312.829 -1.17809 -1.95205 0
M  V30 3302 C 313.813 -0.0852319 -1.60674 0
M  V30 3303 O 315.005 -0.311651 -1.74235 0
M  V30 3304 C 312.134 -0.902437 -3.31226 0
M  V30 3305 C 311.22 -2.03695 -3.7198 0
M  V30 3306 N 311.611 -3.28544 -3.84568 0
M  V30 3307 C 309.909 -1.93993 -4.016 0
M  V30 3308 C 310.61 -4.02847 -4.19629 0
M  V30 3309 N 309.586 -3.31138 -4.31102 0
M  V30 3310 H 313.388 -2.12462 -2.0307 0
M  V30 3311 H 310.902 -1.24127 -1.0472 0
M  V30 3312 H 312.899 -0.77915 -4.09554 0
M  V30 3313 H 311.559 0.0357267 -3.2468 0
M  V30 3314 H 312.57 -3.6349 -3.68911 0
M  V30 3315 H 309.247 -1.07733 -4.03361 0
M  V30 3316 H 310.637 -5.10506 -4.36845 0
M  V30 3317 N 313.357 1.07166 -1.15556 0
M  V30 3318 C 314.587 1.83248 -0.954133 0
M  V30 3319 C 314.995 1.82449 0.500911 0
M  V30 3320 O 314.338 1.23575 1.35923 0
M  V30 3321 C 314.4 3.31393 -1.39351 0
M  V30 3322 C 314.064 3.5591 -2.86666 0
M  V30 3323 C 315.061 3.49695 -3.8472 0
M  V30 3324 C 312.746 3.83515 -3.24379 0
M  V30 3325 C 314.74 3.70737 -5.18491 0
M  V30 3326 C 312.427 4.04209 -4.58321 0
M  V30 3327 C 313.425 3.97815 -5.55186 0
M  V30 3328 O 313.113 4.17954 -6.86709 0
M  V30 3329 H 312.845 0.584941 -0.338851 0
M  V30 3330 H 315.399 1.36169 -1.53777 0
M  V30 3331 H 313.629 3.79292 -0.75329 0
M  V30 3332 H 315.318 3.88945 -1.16089 0
M  V30 3333 H 316.084 3.28368 -3.56931 0
M  V30 3334 H 311.963 3.87605 -2.49567 0
M  V30 3335 H 315.507 3.65663 -5.94085 0
M  V30 3336 H 311.404 4.25023 -4.85825 0
M  V30 3337 H 312.172 4.35291 -6.93155 0
M  V30 3338 N 314.835 0.952656 1.25548 0
M  V30 3339 C 315.765 0.489287 2.28316 0
M  V30 3340 C 316.746 -0.463359 1.63667 0
M  V30 3341 O 317.931 -0.36274 1.90782 0
M  V30 3342 C 315.061 -0.235603 3.465 0
M  V30 3343 C 314.015 0.631593 4.23314 0
M  V30 3344 C 313.341 -0.223923 5.34231 0
M  V30 3345 C 314.641 1.90871 4.86174 0
M  V30 3346 H 316.335 1.34822 2.67326 0
M  V30 3347 H 313.881 0.649728 1.28509 0
M  V30 3348 H 315.834 -0.570882 4.17515 0
M  V30 3349 H 314.558 -1.12877 3.06474 0
M  V30 3350 H 313.217 0.949929 3.54079 0
M  V30 3351 H 312.865 -1.11678 4.90446 0
M  V30 3352 H 312.565 0.35299 5.86539 0
M  V30 3353 H 314.089 -0.554214 6.0808 0
M  V30 3354 H 315.503 1.63997 5.49343 0
M  V30 3355 H 313.9 2.43112 5.4865 0
M  V30 3356 H 314.97 2.61304 4.08471 0
M  V30 3357 N 316.313 -1.40141 0.720998 0
M  V30 3358 C 317.724 -1.83678 0.334553 0
M  V30 3359 C 318.075 -1.6027 -1.13173 0
M  V30 3360 O 317.2 -1.08643 -1.87152 0
M  V30 3361 C 317.795 -3.33437 0.600437 0
M  V30 3362 C 316.354 -3.75447 0.267642 0
M  V30 3363 C 315.501 -2.63296 0.870097 0
M  V30 3364 H 318.452 -1.29331 0.919732 0
M  V30 3365 H 318.473 -3.80269 -0.132517 0
M  V30 3366 H 317.985 -3.50442 1.66768 0
M  V30 3367 H 316.086 -3.64035 -0.794329 0
M  V30 3368 H 316.199 -4.73344 0.74042 0
M  V30 3369 H 314.563 -2.52954 0.297739 0
M  V30 3370 H 315.346 -2.83112 1.94172 0
M  V30 3371 N 317.792 -0.46758 -1.50504 0
M  V30 3372 C 319.038 0.0887532 -2.02606 0
M  V30 3373 C 319.371 1.39686 -1.34913 0
M  V30 3374 O 318.646 1.88644 -0.473694 0
M  V30 3375 C 318.929 0.276206 -3.59039 0
M  V30 3376 C 318.782 -1.05267 -4.37309 0
M  V30 3377 C 320.101 1.03235 -4.27821 0
M  V30 3378 H 317.22 0.0307814 -0.736357 0
M  V30 3379 H 319.862 -0.612485 -1.79857 0
M  V30 3380 H 318.012 0.8735 -3.78553 0
M  V30 3381 H 319.684 -1.68628 -4.29374 0
M  V30 3382 H 317.927 -1.65015 -4.01189 0
M  V30 3383 H 318.598 -0.875197 -5.45018 0
M  V30 3384 H 321.074 0.526111 -4.12761 0
M  V30 3385 H 319.95 1.1323 -5.37094 0
M  V30 3386 H 320.211 2.06806 -3.90748 0
M  V30 3387 N 319.27 1.56325 -0.20005 0
M  V30 3388 C 320.217 2.1932 0.718833 0
M  V30 3389 C 321.187 1.14198 1.20615 0
M  V30 3390 O 322.372 1.42469 1.26914 0
M  V30 3391 C 319.512 2.86041 1.93066 0
M  V30 3392 C 318.625 4.05702 1.48425 0
M  V30 3393 C 317.76 4.60266 2.65196 0
M  V30 3394 C 316.799 5.72273 2.17185 0
M  V30 3395 N 315.936 6.21221 3.27152 0
M  V30 3396 H 320.776 2.97486 0.17489 0
M  V30 3397 H 318.313 1.46911 0.0745794 0
M  V30 3398 H 320.271 3.22897 2.64184 0
M  V30 3399 H 318.901 2.1043 2.44783 0
M  V30 3400 H 317.953 3.74475 0.668755 0
M  V30 3401 H 319.265 4.86699 1.09204 0
M  V30 3402 H 318.419 4.99453 3.4443 0
M  V30 3403 H 317.158 3.78386 3.07693 0
M  V30 3404 H 316.163 5.3261 1.36407 0
M  V30 3405 H 317.388 6.55974 1.75713 0
M  V30 3406 H 315.334 5.42263 3.69171 0
M  V30 3407 H 315.251 6.97284 2.92116 0
M  V30 3408 H 316.519 6.65063 4.06585 0
M  V30 3409 N 320.748 -0.0735177 1.57428 0
M  V30 3410 C 321.997 -0.771809 1.86349 0
M  V30 3411 C 322.31 -1.78828 0.792452 0
M  V30 3412 O 323.516 -2.53602 0.96945 0
M  V30 3413 C 321.972 -1.42358 3.30548 0
M  V30 3414 C 321.58 -0.445761 4.45777 0
M  V30 3415 C 323.324 -2.10434 3.6867 0
M  V30 3416 C 321.231 -1.10335 5.81016 0
M  V30 3417 H 320.161 -0.291999 0.695164 0
M  V30 3418 H 322.812 -0.0250749 1.83483 0
M  V30 3419 H 321.194 -2.21852 3.28021 0
M  V30 3420 H 322.368 0.319239 4.59693 0
M  V30 3421 H 320.683 0.130457 4.16196 0
M  V30 3422 H 323.28 -2.60405 4.67004 0
M  V30 3423 H 323.623 -2.90298 2.98383 0
M  V30 3424 H 324.156 -1.37773 3.7318 0
M  V30 3425 H 320.895 -0.345061 6.54591 0
M  V30 3426 H 320.415 -1.83925 5.70904 0
M  V30 3427 H 322.094 -1.62367 6.26295 0
M  V30 3428 N 322.226 -1.5378 -0.344866 0
M  V30 3429 C 323.475 -1.7018 -1.08267 0
M  V30 3430 C 323.788 -0.471 -1.89845 0
M  V30 3431 O 324.994 -0.515917 -2.66553 0
M  V30 3432 C 323.45 -3.00923 -1.97417 0
M  V30 3433 C 323.058 -4.31335 -1.21053 0
M  V30 3434 C 324.802 -3.26688 -2.71063 0
M  V30 3435 C 322.709 -5.53153 -2.09225 0
M  V30 3436 H 321.639 -0.634138 -0.407903 0
M  V30 3437 H 324.29 -1.8028 -0.342246 0
M  V30 3438 H 322.672 -2.84676 -2.75274 0
M  V30 3439 H 323.846 -4.58281 -0.481159 0
M  V30 3440 H 322.161 -4.12173 -0.591813 0
M  V30 3441 H 324.758 -4.1489 -3.37299 0
M  V30 3442 H 325.101 -2.43639 -3.37558 0
M  V30 3443 H 325.634 -3.43705 -2.0028 0
M  V30 3444 H 322.373 -6.38741 -1.47274 0
M  V30 3445 H 321.893 -5.30458 -2.79955 0
M  V30 3446 H 323.572 -5.88744 -2.68308 0
M  V30 3447 N 323.704 0.605807 -1.45491 0
M  V30 3448 C 324.634 1.72709 -1.57143 0
M  V30 3449 C 325.615 1.6476 -0.422884 0
M  V30 3450 O 326.8 1.83132 -0.646247 0
M  V30 3451 C 323.93 3.11316 -1.53948 0
M  V30 3452 C 322.884 3.34077 -2.67537 0
M  V30 3453 C 322.21 4.72975 -2.49397 0
M  V30 3454 C 323.51 3.24158 -4.09535 0
M  V30 3455 H 325.204 1.63214 -2.51001 0
M  V30 3456 H 322.75 0.78379 -1.208 0
M  V30 3457 H 324.703 3.89557 -1.60696 0
M  V30 3458 H 323.427 3.21655 -0.566205 0
M  V30 3459 H 322.086 2.58227 -2.6022 0
M  V30 3460 H 321.734 4.8005 -1.50205 0
M  V30 3461 H 321.434 4.8916 -3.25571 0
M  V30 3462 H 322.958 5.53414 -2.58002 0
M  V30 3463 H 324.372 3.92271 -4.18086 0
M  V30 3464 H 322.769 3.51872 -4.86113 0
M  V30 3465 H 323.839 2.2157 -4.31317 0
M  V30 3466 N 325.182 1.32811 0.848464 0
M  V30 3467 C 326.129 1.22265 1.95755 0
M  V30 3468 C 327.099 0.103413 1.65778 0
M  V30 3469 O 328.284 0.280033 1.88734 0
M  V30 3470 C 325.424 0.958014 3.31536 0
M  V30 3471 C 324.537 2.16262 3.73971 0
M  V30 3472 C 323.672 1.83295 4.98575 0
M  V30 3473 C 322.711 3.00041 5.33518 0
M  V30 3474 N 321.848 2.67125 6.49299 0
M  V30 3475 H 326.688 2.17128 2.04107 0
M  V30 3476 H 324.225 1.07982 0.998913 0
M  V30 3477 H 326.183 0.785052 4.09747 0
M  V30 3478 H 324.813 0.046159 3.22767 0
M  V30 3479 H 323.865 2.44565 2.91362 0
M  V30 3480 H 325.177 3.03572 3.95785 0
M  V30 3481 H 324.331 1.62586 5.84509 0
M  V30 3482 H 323.07 0.932078 4.7871 0
M  V30 3483 H 322.075 3.21374 4.46093 0
M  V30 3484 H 323.3 3.90869 5.55336 0
M  V30 3485 H 321.246 1.79586 6.3094 0
M  V30 3486 H 321.163 3.47965 6.71161 0
M  V30 3487 H 322.431 2.49861 7.3837 0
M  V30 3488 N 326.66 -1.06551 1.16123 0
M  V30 3489 C 327.888 -1.83005 0.965237 0
M  V30 3490 C 328.303 -1.82423 -0.486542 0
M  V30 3491 O 327.66 -1.24152 -1.33763 0
M  V30 3492 C 327.711 -3.29733 1.48183 0
M  V30 3493 O 327.432 -3.30416 2.87674 0
M  V30 3494 C 328.933 -4.22926 1.32848 0
M  V30 3495 H 326.153 -0.577118 0.342309 0
M  V30 3496 H 328.697 -1.3445 1.54089 0
M  V30 3497 H 326.852 -3.75609 0.948517 0
M  V30 3498 H 327.266 -4.22149 3.11272 0
M  V30 3499 H 328.74 -5.23916 1.73827 0
M  V30 3500 H 329.217 -4.38346 0.273692 0
M  V30 3501 H 329.823 -3.82894 1.85127 0
M  V30 3502 N 328.138 -0.959301 -1.25041 0
M  V30 3503 C 329.068 -0.501388 -2.28053 0
M  V30 3504 C 330.049 0.454673 -1.63911 0
M  V30 3505 O 331.234 0.352618 -1.90972 0
M  V30 3506 C 328.364 0.217224 -3.4662 0
M  V30 3507 C 327.318 -0.654034 -4.22973 0
M  V30 3508 C 326.644 0.195589 -5.34342 0
M  V30 3509 C 327.944 -1.93447 -4.85155 0
M  V30 3510 H 329.638 -1.36238 -2.66608 0
M  V30 3511 H 327.184 -0.656534 -1.28163 0
M  V30 3512 H 329.137 0.548732 -4.17812 0
M  V30 3513 H 327.861 1.1125 -3.07068 0
M  V30 3514 H 326.52 -0.968693 -3.5357 0
M  V30 3515 H 326.168 1.09076 -4.91031 0
M  V30 3516 H 325.868 -0.384091 -5.86343 0
M  V30 3517 H 327.392 0.521958 -6.08365 0
M  V30 3518 H 328.806 -1.66908 -5.48466 0
M  V30 3519 H 327.203 -2.46018 -5.47353 0
M  V30 3520 H 328.273 -2.63466 -4.07079 0
M  V30 3521 N 329.616 1.39756 -0.72842 0
M  V30 3522 C 330.893 1.94574 -0.200079 0
M  V30 3523 C 331.273 1.66569 1.29684 0
M  V30 3524 O 330.621 0.990326 2.05924 0
M  V30 3525 C 330.831 3.45004 -0.526608 0
M  V30 3526 C 332.179 4.21965 -0.472318 0
M  V30 3527 O 333.203 3.53173 -0.463413 0
M  V30 3528 O 332.062 5.44552 -0.461075 0
M  V30 3529 H 329.156 0.826289 -0.0342851 0
M  V30 3530 H 331.702 1.49293 -0.806829 0
M  V30 3531 H 330.474 3.58796 -1.56144 0
M  V30 3532 H 330.097 3.97449 0.109449 0
M  V30 3533 N 331.094 0.475555 1.50254 0
M  V30 3534 C 332.057 -0.305016 2.27161 0
M  V30 3535 C 333.057 -0.916519 1.32123 0
M  V30 3536 O 334.247 -0.785003 1.5551 0
M  V30 3537 C 331.379 -1.43496 3.09227 0
M  V30 3538 H 332.572 0.369511 2.97615 0
M  V30 3539 H 330.125 0.229747 1.54602 0
M  V30 3540 H 330.86 -2.14441 2.43281 0
M  V30 3541 H 330.645 -1.00223 3.79075 0
M  V30 3542 H 332.135 -1.98548 3.67381 0
M  V30 3543 N 332.573 -1.56217 0.208337 0
M  V30 3544 C 333.506 -2.15633 -0.746842 0
M  V30 3545 C 334.484 -1.09685 -1.20034 0
M  V30 3546 O 335.668 -1.3787 -1.28547 0
M  V30 3547 C 332.795 -2.72594 -2.01023 0
M  V30 3548 C 331.841 -3.91251 -1.69779 0
M  V30 3549 S 332.674 -5.28962 -0.834209 0
M  V30 3550 C 333.83 -5.89353 -2.10745 0
M  V30 3551 H 334.063 -2.96315 -0.241789 0
M  V30 3552 H 331.596 -1.54398 -0.00682183 0
M  V30 3553 H 333.554 -3.06053 -2.73572 0
M  V30 3554 H 332.215 -1.91929 -2.48641 0
M  V30 3555 H 331.408 -4.29562 -2.63614 0
M  V30 3556 H 331.01 -3.58869 -1.05303 0
M  V30 3557 H 333.302 -6.04522 -3.05875 0
M  V30 3558 H 334.245 -6.85661 -1.76845 0
M  V30 3559 H 334.653 -5.1807 -2.24196 0
M  V30 3560 N 334.051 0.0651679 -1.57465 0
M  V30 3561 C 335.014 1.06117 -2.03155 0
M  V30 3562 C 336.014 1.31204 -0.929632 0
M  V30 3563 O 337.204 1.26813 -1.19432 0
M  V30 3564 C 334.336 2.4032 -2.41783 0
M  V30 3565 H 335.529 0.667231 -2.92383 0
M  V30 3566 H 333.082 0.311075 -1.53173 0
M  V30 3567 H 333.817 2.84532 -1.55601 0
M  V30 3568 H 333.602 2.23451 -3.22199 0
M  V30 3569 H 335.092 3.11898 -2.77685 0
M  V30 3570 N 335.529 1.53961 0.336706 0
M  V30 3571 C 336.776 1.71536 1.07618 0
M  V30 3572 C 337.104 0.482125 1.8843 0
M  V30 3573 O 336.359 -0.536142 1.88213 0
M  V30 3574 C 336.658 2.93493 2.03953 0
M  V30 3575 C 336.324 4.28811 1.39399 0
M  V30 3576 C 334.986 4.65602 1.21523 0
M  V30 3577 C 337.338 5.12844 0.929541 0
M  V30 3578 C 334.666 5.84037 0.558312 0
M  V30 3579 C 337.018 6.31951 0.286505 0
M  V30 3580 C 335.682 6.67432 0.0954869 0
M  V30 3581 H 334.952 0.627696 0.393801 0
M  V30 3582 H 337.599 1.88186 0.354715 0
M  V30 3583 H 335.904 2.71475 2.82504 0
M  V30 3584 H 337.601 3.04285 2.61174 0
M  V30 3585 H 334.191 3.99858 1.54311 0
M  V30 3586 H 338.375 4.84947 1.05548 0
M  V30 3587 H 333.631 6.10097 0.398995 0
M  V30 3588 H 337.805 6.96352 -0.0814376 0
M  V30 3589 H 335.432 7.59063 -0.415579 0
M  V30 3590 N 337.007 -0.598083 1.45811 0
M  V30 3591 C 337.955 -1.72932 1.55555 0
M  V30 3592 C 338.949 -1.63984 0.424921 0
M  V30 3593 O 340.155 -1.69663 0.601205 0
M  V30 3594 H 336.53 -0.571489 0.488779 0
M  V30 3595 H 338.501 -1.61842 2.50699 0
M  V30 3596 C 337.25 -3.11318 1.54843 0
M  V30 3597 H 336.573 -3.18867 2.41172 0
M  V30 3598 H 338.013 -3.90274 1.65717 0
M  V30 3599 C 336.472 -3.3578 0.274427 0
M  V30 3600 O 337.002 -3.9654 -0.641778 0
M  V30 3601 N 335.208 -2.90119 0.167139 0
M  V30 3602 H 334.755 -2.40855 0.913596 0
M  V30 3603 H 334.713 -3.0686 -0.684435 0
M  V30 3604 N 338.485 -1.33259 -0.841409 0
M  V30 3605 C 339.432 -1.23302 -1.95103 0
M  V30 3606 C 340.402 -0.112204 -1.65721 0
M  V30 3607 O 341.587 -0.290038 -1.88583 0
M  V30 3608 C 338.727 -0.975583 -3.31023 0
M  V30 3609 C 337.84 -2.18243 -3.72819 0
M  V30 3610 C 336.975 -1.85936 -4.97595 0
M  V30 3611 C 336.014 -3.02866 -5.3192 0
M  V30 3612 N 335.151 -2.70565 -6.47873 0
M  V30 3613 H 339.991 -2.18207 -2.02952 0
M  V30 3614 H 337.528 -1.0851 -0.993173 0
M  V30 3615 H 339.486 -0.80677 -4.09325 0
M  V30 3616 H 338.116 -0.0632755 -3.22738 0
M  V30 3617 H 337.168 -2.46107 -2.90061 0
M  V30 3618 H 338.48 -3.05666 -3.94169 0
M  V30 3619 H 337.634 -1.65684 -5.83638 0
M  V30 3620 H 336.373 -0.957452 -4.78209 0
M  V30 3621 H 335.378 -3.23736 -4.44382 0
M  V30 3622 H 336.603 -3.93809 -5.53255 0
M  V30 3623 H 334.549 -1.8293 -6.29978 0
M  V30 3624 H 334.466 -3.51519 -6.69306 0
M  V30 3625 H 335.734 -2.53774 -7.37034 0
M  V30 3626 N 339.963 1.05934 -1.16686 0
M  V30 3627 C 341.21 1.788 -0.950622 0
M  V30 3628 C 341.538 1.87384 0.521305 0
M  V30 3629 O 340.793 1.36438 1.40297 0
M  V30 3630 C 341.092 3.23105 -1.52767 0
M  V30 3631 C 340.758 3.34594 -3.02254 0
M  V30 3632 C 339.42 3.37437 -3.43059 0
M  V30 3633 C 341.772 3.36219 -3.98254 0
M  V30 3634 C 339.1 3.39525 -4.78477 0
M  V30 3635 C 341.452 3.39845 -5.33562 0
M  V30 3636 C 340.116 3.40971 -5.73842 0
M  V30 3637 H 339.386 0.654275 -0.347857 0
M  V30 3638 H 342.033 1.24555 -1.45459 0
M  V30 3639 H 340.338 3.80227 -0.94524 0
M  V30 3640 H 342.035 3.7809 -1.336 0
M  V30 3641 H 338.625 3.3309 -2.6972 0
M  V30 3642 H 342.809 3.33231 -3.67792 0
M  V30 3643 H 338.065 3.38703 -5.09009 0
M  V30 3644 H 342.239 3.4005 -6.07733 0
M  V30 3645 H 339.866 3.42342 -6.78753 0
M  V30 3646 N 341.441 0.965919 1.2453 0
M  V30 3647 C 342.389 0.486506 2.27455 0
M  V30 3648 C 343.383 -0.449041 1.6334 0
M  V30 3649 O 344.589 -0.324527 1.7705 0
M  V30 3650 H 340.964 0.138857 0.739069 0
M  V30 3651 H 342.935 1.3666 2.65267 0
M  V30 3652 C 341.684 -0.209481 3.47068 0
M  V30 3653 H 341.007 0.50129 3.96645 0
M  V30 3654 H 342.447 -0.508775 4.20936 0
M  V30 3655 C 340.906 -1.43586 3.0477 0
M  V30 3656 O 341.436 -2.53299 3.11773 0
M  V30 3657 N 339.642 -1.30126 2.59838 0
M  V30 3658 H 339.189 -0.408583 2.54339 0
M  V30 3659 H 339.147 -2.12294 2.31902 0
M  V30 3660 N 342.919 -1.39368 0.735821 0
M  V30 3661 C 344.165 -2.00794 0.284544 0
M  V30 3662 C 344.498 -1.58255 -1.12557 0
M  V30 3663 O 343.773 -0.811819 -1.76748 0
M  V30 3664 C 344.056 -3.58011 0.387337 0
M  V30 3665 C 343.909 -4.10566 1.83728 0
M  V30 3666 C 345.228 -4.395 -0.22975 0
M  V30 3667 H 342.347 -0.729501 0.104866 0
M  V30 3668 H 344.989 -1.65564 0.93213 0
M  V30 3669 H 343.139 -3.88154 -0.164006 0
M  V30 3670 H 344.811 -3.91139 2.44556 0
M  V30 3671 H 343.054 -3.64095 2.35833 0
M  V30 3672 H 343.725 -5.19702 1.86047 0
M  V30 3673 H 346.201 -4.15406 0.240257 0
M  V30 3674 H 345.077 -5.48752 -0.127485 0
M  V30 3675 H 345.338 -4.22062 -1.3159 0
M  V30 3676 N 344.397 -0.483516 -1.5 0
M  V30 3677 C 345.327 0.293829 -2.31644 0
M  V30 3678 C 346.308 0.978864 -1.39112 0
M  V30 3679 O 347.493 0.973644 -1.68029 0
M  V30 3680 C 344.623 1.36897 -3.19181 0
M  V30 3681 C 343.577 0.804833 -4.20365 0
M  V30 3682 C 342.903 1.9792 -4.96721 0
M  V30 3683 C 344.203 -0.192313 -5.21946 0
M  V30 3684 H 345.897 -0.387616 -2.9688 0
M  V30 3685 H 343.443 -0.187856 -1.42769 0
M  V30 3686 H 345.396 1.92037 -3.751 0
M  V30 3687 H 344.12 2.07936 -2.51853 0
M  V30 3688 H 342.779 0.275319 -3.65565 0
M  V30 3689 H 342.427 2.67686 -4.25856 0
M  V30 3690 H 342.127 1.60789 -5.65173 0
M  V30 3691 H 343.651 2.53526 -5.55479 0
M  V30 3692 H 345.065 0.270333 -5.72662 0
M  V30 3693 H 343.462 -0.478543 -5.98189 0
M  V30 3694 H 344.532 -1.11409 -4.71928 0
M  V30 3695 N 345.875 1.56104 -0.216619 0
M  V30 3696 C 346.825 2.16703 0.708798 0
M  V30 3697 C 347.809 1.11392 1.16106 0
M  V30 3698 O 349.001 1.37395 1.11587 0
M  V30 3699 C 346.13 2.84666 1.91886 0
M  V30 3700 C 345.216 3.97195 1.48651 0
M  V30 3701 N 345.607 4.99959 0.766434 0
M  V30 3702 C 343.905 4.09193 1.77418 0
M  V30 3703 C 344.606 5.79126 0.546659 0
M  V30 3704 N 343.582 5.32315 1.10188 0
M  V30 3705 H 347.384 2.93516 0.150162 0
M  V30 3706 H 344.898 1.6239 -0.0176768 0
M  V30 3707 H 346.895 3.26486 2.59253 0
M  V30 3708 H 345.555 2.09347 2.48202 0
M  V30 3709 H 346.566 5.16197 0.419634 0
M  V30 3710 H 343.243 3.45021 2.35088 0
M  V30 3711 H 344.633 6.71895 -0.026103 0
M  V30 3712 N 347.353 -0.0568162 1.57498 0
M  V30 3713 C 348.599 -0.748893 1.89111 0
M  V30 3714 C 348.954 -1.74422 0.81208 0
M  V30 3715 O 348.247 -1.90731 -0.182247 0
M  V30 3716 C 348.441 -1.48359 3.25153 0
M  V30 3717 C 348.27 -0.560924 4.46188 0
M  V30 3718 C 347.04 -0.192264 5.04934 0
M  V30 3719 C 349.238 0.148824 5.14085 0
M  V30 3720 N 347.22 0.734555 6.0949 0
M  V30 3721 C 348.591 0.932286 6.12951 0
M  V30 3722 C 350.646 0.218713 4.97419 0
M  V30 3723 C 349.349 1.77917 6.96949 0
M  V30 3724 C 351.375 1.05262 5.81957 0
M  V30 3725 C 350.737 1.82409 6.80372 0
M  V30 3726 H 346.836 -0.249002 0.741298 0
M  V30 3727 H 349.42 -0.00984926 1.94698 0
M  V30 3728 H 347.591 -2.19326 3.20547 0
M  V30 3729 H 349.323 -2.12586 3.44368 0
M  V30 3730 H 346.078 -0.548421 4.70414 0
M  V30 3731 H 346.502 1.19165 6.6643 0
M  V30 3732 H 351.144 -0.363407 4.21235 0
M  V30 3733 H 348.862 2.3722 7.72497 0
M  V30 3734 H 352.448 1.10987 5.71116 0
M  V30 3735 H 351.328 2.45895 7.44651 0
M  V30 3736 N 348.832 -1.54138 -0.328536 0
M  V30 3737 C 349.782 -1.79557 -1.4051 0
M  V30 3738 C 350.766 -0.651373 -1.47126 0
M  V30 3739 O 351.958 -0.911226 -1.51742 0
M  V30 3740 C 349.087 -2.02196 -2.77438 0
M  V30 3741 C 348.173 -3.22724 -2.75155 0
M  V30 3742 N 348.564 -4.43881 -2.42494 0
M  V30 3743 C 346.862 -3.24196 -3.06289 0
M  V30 3744 C 347.563 -5.25797 -2.48822 0
M  V30 3745 N 346.539 -4.62862 -2.8506 0
M  V30 3746 H 350.341 -2.70814 -1.1418 0
M  V30 3747 H 347.855 -1.53265 -0.536991 0
M  V30 3748 H 349.852 -2.18546 -3.55026 0
M  V30 3749 H 348.512 -1.12191 -3.04702 0
M  V30 3750 H 349.523 -4.70969 -2.15428 0
M  V30 3751 H 346.2 -2.44208 -3.38627 0
M  V30 3752 H 347.59 -6.32535 -2.26603 0
M  V30 3753 N 350.31 0.590341 -1.46126 0
M  V30 3754 C 351.559 1.34499 -1.50309 0
M  V30 3755 C 351.872 1.94977 -0.156021 0
M  V30 3756 O 353.078 2.71395 -0.0756037 0
M  V30 3757 C 351.534 2.43723 -2.64815 0
M  V30 3758 C 351.142 1.89582 -4.0591 0
M  V30 3759 C 352.886 3.20579 -2.78262 0
M  V30 3760 C 350.793 2.9639 -5.11769 0
M  V30 3761 H 349.723 0.505593 -0.559368 0
M  V30 3762 H 352.374 0.630848 -1.72315 0
M  V30 3763 H 350.756 3.17902 -2.36124 0
M  V30 3764 H 351.93 1.21997 -4.44357 0
M  V30 3765 H 350.245 1.25418 -3.97063 0
M  V30 3766 H 352.842 4.00276 -3.54519 0
M  V30 3767 H 353.185 3.72684 -1.85505 0
M  V30 3768 H 353.718 2.53505 -3.06562 0
M  V30 3769 H 350.457 2.49181 -6.06291 0
M  V30 3770 H 349.977 3.62487 -4.77873 0
M  V30 3771 H 351.656 3.60474 -5.37278 0
M  V30 3772 N 351.788 1.33704 0.83433 0
M  V30 3773 C 353.034 1.25603 1.59222 0
M  V30 3774 C 353.367 -0.176659 1.93395 0
M  V30 3775 O 352.642 -1.11915 1.59076 0
M  V30 3776 C 352.925 2.13576 2.89926 0
M  V30 3777 C 352.778 3.65326 2.62406 0
M  V30 3778 C 354.097 2.01238 3.91397 0
M  V30 3779 H 351.216 0.457613 0.577719 0
M  V30 3780 H 353.858 1.63848 0.961972 0
M  V30 3781 H 352.008 1.8109 3.43713 0
M  V30 3782 H 353.68 4.08124 2.15017 0
M  V30 3783 H 351.923 3.8698 1.96033 0
M  V30 3784 H 352.594 4.22232 3.55562 0
M  V30 3785 H 355.07 2.29738 3.46929 0
M  V30 3786 H 353.946 2.65036 4.80673 0
M  V30 3787 H 354.207 0.985951 4.30966 0
M  V30 3788 N 353.266 -1.05314 1.17247 0
M  V30 3789 C 354.543 -1.75184 0.87005 0
M  V30 3790 C 354.923 -2.01481 -0.629965 0
M  V30 3791 O 354.271 -1.64988 -1.58086 0
M  V30 3792 C 354.481 -3.04594 1.70363 0
M  V30 3793 C 355.829 -3.78567 1.92281 0
M  V30 3794 O 356.853 -3.14461 1.67311 0
M  V30 3795 O 355.712 -4.93755 2.3424 0
M  V30 3796 H 352.806 -0.761729 0.322021 0
M  V30 3797 H 355.352 -1.11493 1.27935 0
M  V30 3798 H 354.124 -2.81201 2.72106 0
M  V30 3799 H 353.747 -3.76022 1.29202 0
M  V30 3800 N 354.744 -0.972509 -1.24016 0
M  V30 3801 C 356.021 -0.553733 -1.87598 0
M  V30 3802 C 356.401 0.969158 -1.87538 0
M  V30 3803 O 355.749 1.84255 -1.35139 0
M  V30 3804 C 355.959 -1.15076 -3.29482 0
M  V30 3805 C 357.307 -1.23862 -4.06132 0
M  V30 3806 O 358.331 -1.10363 -3.38672 0
M  V30 3807 O 357.19 -1.45252 -5.26844 0
M  V30 3808 H 354.284 -0.185331 -0.805966 0
M  V30 3809 H 356.83 -1.06709 -1.31952 0
M  V30 3810 H 355.602 -2.19333 -3.2405 0
M  V30 3811 H 355.225 -0.621746 -3.92709 0
M  V30 3812 N 356.222 1.38976 -0.743202 0
M  V30 3813 C 357.154 2.29096 -0.0689228 0
M  V30 3814 C 358.167 1.47229 0.694791 0
M  V30 3815 O 359.356 1.70212 0.537597 0
M  V30 3816 C 356.456 3.25988 0.926548 0
M  V30 3817 C 355.629 4.36833 0.222647 0
M  V30 3818 C 354.688 5.13981 1.12739 0
M  V30 3819 O 353.714 5.6601 0.601795 0
M  V30 3820 N 354.916 5.25966 2.45641 0
M  V30 3821 H 357.681 2.87604 -0.842846 0
M  V30 3822 H 355.242 1.50645 -0.593109 0
M  V30 3823 H 357.234 3.74476 1.5346 0
M  V30 3824 H 355.804 2.68453 1.60162 0
M  V30 3825 H 355.024 3.90116 -0.565983 0
M  V30 3826 H 356.312 5.0811 -0.264841 0
M  V30 3827 H 355.71 4.85228 2.9081 0
M  V30 3828 H 354.267 5.77865 3.01522 0
M  V30 3829 N 357.7 0.491464 1.49741 0
M  V30 3830 C 358.925 -0.0557177 2.07325 0
M  V30 3831 C 359.35 -1.30925 1.35056 0
M  V30 3832 O 358.708 -1.76733 0.404365 0
M  V30 3833 C 358.756 -0.302074 3.59333 0
M  V30 3834 O 357.86 -1.37868 3.88672 0
M  V30 3835 H 357.201 0.0219956 0.663636 0
M  V30 3836 H 359.731 0.688352 1.92673 0
M  V30 3837 H 359.741 -0.536464 4.04458 0
M  V30 3838 H 358.416 0.61383 4.11345 0
M  V30 3839 H 356.993 -1.12999 3.55367 0
M  V30 3840 N 359.178 -1.55987 0.224894 0
M  V30 3841 C 360.425 -1.9839 -0.4059 0
M  V30 3842 C 360.753 -1.11261 -1.59535 0
M  V30 3843 O 360.008 -0.158314 -1.95059 0
M  V30 3844 C 360.307 -3.46394 -0.880106 0
M  V30 3845 C 359.973 -4.5046 0.19918 0
M  V30 3846 C 358.635 -4.7864 0.495661 0
M  V30 3847 C 360.987 -5.12855 0.928939 0
M  V30 3848 C 358.315 -5.66497 1.52636 0
M  V30 3849 C 360.667 -6.01828 1.949 0
M  V30 3850 C 359.331 -6.28351 2.25236 0
M  V30 3851 H 358.601 -0.725961 -0.148529 0
M  V30 3852 H 361.248 -1.88668 0.328113 0
M  V30 3853 H 359.553 -3.53337 -1.69294 0
M  V30 3854 H 361.25 -3.76577 -1.37808 0
M  V30 3855 H 357.84 -4.28579 -0.0420526 0
M  V30 3856 H 362.024 -4.9115 0.713129 0
M  V30 3857 H 357.28 -5.8531 1.76698 0
M  V30 3858 H 361.454 -6.49225 2.51951 0
M  V30 3859 H 359.081 -6.96226 3.05244 0
M  V30 3860 N 360.656 0.0484629 -1.57525 0
M  V30 3861 C 362.067 0.597486 -1.76881 0
M  V30 3862 C 362.418 1.76664 -0.853475 0
M  V30 3863 O 361.543 2.16357 -0.0433656 0
M  V30 3864 C 362.138 1.09066 -3.20765 0
M  V30 3865 C 360.697 1.58535 -3.41385 0
M  V30 3866 C 359.844 0.514868 -2.72478 0
M  V30 3867 H 362.795 -0.177758 -1.57701 0
M  V30 3868 H 362.816 1.95875 -3.2621 0
M  V30 3869 H 362.328 0.239521 -3.8736 0
M  V30 3870 H 360.429 2.45898 -2.79937 0
M  V30 3871 H 360.542 1.64622 -4.49929 0
M  V30 3872 H 358.906 0.965407 -2.35695 0
M  V30 3873 H 359.689 -0.32648 -3.41744 0
M  V30 3874 N 362.134 1.5431 0.320358 0
M  V30 3875 C 363.364 1.7638 1.07582 0
M  V30 3876 C 363.772 0.513944 1.82086 0
M  V30 3877 O 363.115 -0.525123 1.76035 0
M  V30 3878 C 363.177 2.9055 2.1171 0
M  V30 3879 C 362.841 4.2934 1.56575 0
M  V30 3880 C 363.838 5.10077 1.00586 0
M  V30 3881 C 361.523 4.75893 1.60722 0
M  V30 3882 C 363.517 6.35477 0.494756 0
M  V30 3883 C 361.204 6.0126 1.09224 0
M  V30 3884 C 362.202 6.80886 0.53696 0
M  V30 3885 O 361.89 8.03894 0.0297371 0
M  V30 3886 H 361.622 0.592369 0.325692 0
M  V30 3887 H 364.176 2.02019 0.37116 0
M  V30 3888 H 362.406 2.60489 2.85801 0
M  V30 3889 H 364.095 3.00373 2.73003 0
M  V30 3890 H 364.861 4.75265 0.966869 0
M  V30 3891 H 360.74 4.13957 2.02882 0
M  V30 3892 H 364.284 6.97574 0.0606842 0
M  V30 3893 H 360.181 6.35562 1.12831 0
M  V30 3894 H 360.949 8.18372 0.14486 0
M  V30 3895 N 363.613 -0.582584 1.46437 0
M  V30 3896 C 364.545 -1.70618 1.53043 0
M  V30 3897 C 365.558 -1.57322 0.418769 0
M  V30 3898 O 366.747 -1.64744 0.687136 0
M  V30 3899 C 363.847 -3.08869 1.39474 0
M  V30 3900 C 363.02 -3.48166 2.64762 0
M  V30 3901 C 362.079 -4.65478 2.4539 0
M  V30 3902 O 361.105 -4.71333 3.19114 0
M  V30 3903 N 362.307 -5.60365 1.51564 0
M  V30 3904 H 365.072 -1.65405 2.49923 0
M  V30 3905 H 362.633 -0.768567 1.42494 0
M  V30 3906 H 364.625 -3.85143 1.24287 0
M  V30 3907 H 363.195 -3.08449 0.507758 0
M  V30 3908 H 362.415 -2.61598 2.9489 0
M  V30 3909 H 363.703 -3.71188 3.4799 0
M  V30 3910 H 363.101 -5.5837 0.907705 0
M  V30 3911 H 361.658 -6.36068 1.4234 0
M  V30 3912 N 365.091 -1.34144 -0.827227 0
M  V30 3913 C 366.316 -1.29476 -1.62021 0
M  V30 3914 C 366.741 0.129292 -1.87655 0
M  V30 3915 O 366.099 1.08967 -1.449 0
M  V30 3916 C 366.147 -2.08702 -2.94068 0
M  V30 3917 O 365.251 -1.45359 -3.85933 0
M  V30 3918 H 364.592 -0.444881 -0.492927 0
M  V30 3919 H 367.122 -1.76882 -1.02829 0
M  V30 3920 H 367.132 -2.19898 -3.43669 0
M  V30 3921 H 365.807 -3.12241 -2.74734 0
M  V30 3922 H 364.384 -1.42879 -3.44442 0
M  V30 3923 N 366.569 1.04691 -1.17803 0
M  V30 3924 C 367.818 1.77176 -0.963931 0
M  V30 3925 C 368.131 1.88888 0.508015 0
M  V30 3926 O 369.337 2.58164 0.840465 0
M  V30 3927 C 367.793 3.18518 -1.67555 0
M  V30 3928 C 367.401 3.14919 -3.18637 0
M  V30 3929 C 369.145 3.95424 -1.54402 0
M  V30 3930 C 367.052 4.51081 -3.82466 0
M  V30 3931 H 365.982 0.664116 -0.357023 0
M  V30 3932 H 368.633 1.17303 -1.4111 0
M  V30 3933 H 367.015 3.78748 -1.15613 0
M  V30 3934 H 368.189 2.64178 -3.77554 0
M  V30 3935 H 366.504 2.51512 -3.31859 0
M  V30 3936 H 369.101 4.96106 -1.99456 0
M  V30 3937 H 369.444 4.13343 -0.495329 0
M  V30 3938 H 369.977 3.41754 -2.0359 0
M  V30 3939 H 366.716 4.38368 -4.87354 0
M  V30 3940 H 366.236 5.01951 -3.28337 0
M  V30 3941 H 367.915 5.2001 -3.84965 0
M  V30 3942 N 368.047 0.979072 1.23499 0
M  V30 3943 C 369.275 0.665202 1.95915 0
M  V30 3944 C 369.69 -0.767571 1.72493 0
M  V30 3945 O 369.047 -1.51635 1.01554 0
M  V30 3946 C 369.098 0.944438 3.48945 0
M  V30 3947 O 368.819 2.3209 3.71572 0
M  V30 3948 C 370.32 0.646336 4.38563 0
M  V30 3949 H 367.54 0.247218 0.623798 0
M  V30 3950 H 370.084 1.31009 1.57025 0
M  V30 3951 H 368.239 0.345575 3.85856 0
M  V30 3952 H 368.653 2.40957 4.65876 0
M  V30 3953 H 370.127 0.892091 5.44744 0
M  V30 3954 H 370.604 -0.419575 4.37191 0
M  V30 3955 H 371.21 1.22562 4.07258 0
M  V30 3956 N 369.525 -1.3858 0.750561 0
M  V30 3957 C 370.772 -2.00184 0.305373 0
M  V30 3958 C 371.1 -1.59575 -1.11203 0
M  V30 3959 O 370.355 -0.823236 -1.77542 0
M  V30 3960 C 370.654 -3.55455 0.372373 0
M  V30 3961 C 370.32 -4.15765 1.745 0
M  V30 3962 C 368.982 -4.31951 2.12065 0
M  V30 3963 C 371.334 -4.49067 2.64553 0
M  V30 3964 C 368.662 -4.78734 3.39162 0
M  V30 3965 C 371.014 -4.97265 3.91038 0
M  V30 3966 C 369.678 -5.11658 4.28676 0
M  V30 3967 H 368.948 -0.732526 0.111744 0
M  V30 3968 H 371.595 -1.65673 0.960451 0
M  V30 3969 H 369.9 -3.90084 -0.366272 0
M  V30 3970 H 371.597 -4.00999 0.00953918 0
M  V30 3971 H 368.187 -4.03579 1.44297 0
M  V30 3972 H 372.371 -4.36166 2.36796 0
M  V30 3973 H 367.627 -4.88062 3.68246 0
M  V30 3974 H 371.801 -5.22003 4.60962 0
M  V30 3975 H 369.428 -5.47668 5.27222 0
M  V30 3976 N 371.003 -0.499398 -1.49478 0
M  V30 3977 C 372.414 -0.051215 -1.8663 0
M  V30 3978 C 372.765 1.36238 -1.41186 0
M  V30 3979 O 371.89 2.01502 -0.789051 0
M  V30 3980 C 372.485 -0.0861651 -3.3869 0
M  V30 3981 C 371.044 0.30667 -3.75149 0
M  V30 3982 C 370.191 -0.459397 -2.73468 0
M  V30 3983 H 373.142 -0.712264 -1.41818 0
M  V30 3984 H 373.163 0.709507 -3.73826 0
M  V30 3985 H 372.675 -1.11512 -3.71735 0
M  V30 3986 H 370.776 1.33892 -3.47712 0
M  V30 3987 H 370.889 -0.0116669 -4.79099 0
M  V30 3988 H 369.253 0.0905645 -2.54539 0
M  V30 3989 H 370.036 -1.4884 -3.09357 0
M  V30 3990 N 372.481 1.55866 -0.233164 0
M  V30 3991 C 373.391 2.24431 0.683217 0
M  V30 3992 C 374.407 1.2558 1.2044 0
M  V30 3993 O 375.583 1.58422 1.24356 0
M  V30 3994 C 372.648 2.91979 1.86947 0
M  V30 3995 C 371.709 4.06204 1.38912 0
M  V30 3996 C 370.942 4.70522 2.51883 0
M  V30 3997 O 371.165 4.33865 3.70293 0
M  V30 3998 O 370.099 5.59296 2.22423 0
M  V30 3999 H 373.925 3.03426 0.129059 0
M  V30 4000 H 371.51 1.494 -0.0022283 0
M  V30 4001 H 373.392 3.34573 2.56201 0
M  V30 4002 H 372.067 2.15935 2.41151 0
M  V30 4003 H 370.974 3.68155 0.664259 0
M  V30 4004 H 372.307 4.84025 0.893328 0
M  V30 4005 N 373.959 -0.0401083 1.57549 0
M  V30 4006 C 374.889 -1.04384 2.08869 0
M  V30 4007 C 375.87 -1.38407 0.988817 0
M  V30 4008 O 377.055 -1.47483 1.26342 0
M  V30 4009 C 374.185 -2.34808 2.55895 0
M  V30 4010 C 373.139 -2.15057 3.70047 0
M  V30 4011 C 372.465 -3.51145 4.03239 0
M  V30 4012 C 373.765 -1.54576 4.98902 0
M  V30 4013 H 375.459 -0.616666 2.92981 0
M  V30 4014 H 373.005 -0.295184 1.40942 0
M  V30 4015 H 374.958 -3.05346 2.90417 0
M  V30 4016 H 373.682 -2.79565 1.68853 0
M  V30 4017 H 372.341 -1.46954 3.35857 0
M  V30 4018 H 371.989 -3.93529 3.13279 0
M  V30 4019 H 371.689 -3.38758 4.80122 0
M  V30 4020 H 373.213 -4.23062 4.40285 0
M  V30 4021 H 374.627 -2.15017 5.31451 0
M  V30 4022 H 373.024 -1.52796 5.80322 0
M  V30 4023 H 374.094 -0.51039 4.82206 0
M  V30 4024 N 375.437 -1.54477 -0.31217 0
M  V30 4025 C 376.662 -1.77526 -1.07235 0
M  V30 4026 C 377.087 -0.527775 -1.80544 0
M  V30 4027 O 376.445 0.52121 -1.73646 0
M  V30 4028 C 376.493 -2.97535 -2.03728 0
M  V30 4029 O 375.597 -2.69878 -3.11833 0
M  V30 4030 H 374.938 -0.58792 -0.30862 0
M  V30 4031 H 377.468 -2.01532 -0.352993 0
M  V30 4032 H 377.478 -3.25198 -2.46395 0
M  V30 4033 H 376.153 -3.87996 -1.49774 0
M  V30 4034 H 374.73 -2.53199 -2.7376 0
M  V30 4035 N 376.915 0.57481 -1.46744 0
M  V30 4036 C 377.863 1.70435 -1.58286 0
M  V30 4037 C 378.857 1.63287 -0.450956 0
M  V30 4038 O 380.063 1.68685 -0.628121 0
M  V30 4039 H 376.438 0.56364 -0.497809 0
M  V30 4040 H 378.409 1.57833 -2.53242 0
M  V30 4041 C 377.158 3.08815 -1.59776 0
M  V30 4042 H 376.481 3.1499 -2.46214 0
M  V30 4043 H 377.921 3.87588 -1.71905 0
M  V30 4044 C 376.38 3.35301 -0.327812 0
M  V30 4045 O 376.91 3.97511 0.57861 0
M  V30 4046 N 375.116 2.89816 -0.213274 0
M  V30 4047 H 374.663 2.39371 -0.951798 0
M  V30 4048 H 374.621 3.0791 0.63553 0
M  V30 4049 N 378.394 1.34581 0.820102 0
M  V30 4050 C 379.341 1.2639 1.93117 0
M  V30 4051 C 380.311 0.138554 1.65521 0
M  V30 4052 O 381.496 0.320004 1.88097 0
M  V30 4053 C 378.636 1.02812 3.29429 0
M  V30 4054 C 377.749 2.24146 3.693 0
M  V30 4055 C 376.884 1.93829 4.94574 0
M  V30 4056 C 375.923 3.1129 5.27034 0
M  V30 4057 N 375.06 2.80838 6.43486 0
M  V30 4058 H 379.9 2.21408 1.99455 0
M  V30 4059 H 377.437 1.10077 0.975784 0
M  V30 4060 H 379.395 0.871788 4.0799 0
M  V30 4061 H 378.025 0.114612 3.22596 0
M  V30 4062 H 377.077 2.50691 2.86109 0
M  V30 4063 H 378.389 3.11899 3.89257 0
M  V30 4064 H 377.543 1.74948 5.80929 0
M  V30 4065 H 376.282 1.03341 4.76626 0
M  V30 4066 H 375.287 3.30764 4.39175 0
M  V30 4067 H 376.512 4.02561 5.4692 0
M  V30 4068 H 374.458 1.92929 6.26988 0
M  V30 4069 H 374.375 3.62123 6.63629 0
M  V30 4070 H 375.643 2.65467 7.32903 0
M  V30 4071 N 379.872 -1.04064 1.18357 0
M  V30 4072 C 381.12 -1.76915 0.977013 0
M  V30 4073 C 381.441 -1.88624 -0.494577 0
M  V30 4074 O 380.711 -1.41125 -1.3587 0
M  V30 4075 H 379.291 -0.65535 0.358504 0
M  V30 4076 H 381.953 -1.25592 1.49039 0
M  V30 4077 H 381.049 -2.78178 1.41504 0
M  V30 4078 N 381.35 -0.985608 -1.22978 0
M  V30 4079 C 382.575 -0.675254 -1.961 0
M  V30 4080 C 383 0.752154 -1.72407 0
M  V30 4081 O 382.358 1.5131 -0.998751 0
M  V30 4082 C 382.406 -0.977899 -3.47087 0
M  V30 4083 O 381.51 -0.072685 -4.12336 0
M  V30 4084 H 380.851 -0.253443 -0.613728 0
M  V30 4085 H 383.381 -1.32061 -1.56272 0
M  V30 4086 H 383.391 -0.916739 -3.97567 0
M  V30 4087 H 382.066 -2.01807 -3.63657 0
M  V30 4088 H 380.643 -0.188703 -3.72422 0
M  V30 4089 N 382.828 1.3818 -0.7579 0
M  V30 4090 C 384.058 2.04004 -0.326463 0
M  V30 4091 C 384.466 1.57286 1.05156 0
M  V30 4092 O 383.809 0.743144 1.67997 0
M  V30 4093 C 383.871 3.58444 -0.275402 0
M  V30 4094 C 383.535 4.28237 -1.59569 0
M  V30 4095 C 384.532 4.53312 -2.54566 0
M  V30 4096 C 382.217 4.66341 -1.86631 0
M  V30 4097 C 384.211 5.15531 -3.74842 0
M  V30 4098 C 381.898 5.28283 -3.0718 0
M  V30 4099 C 382.896 5.52814 -4.01106 0
M  V30 4100 O 382.584 6.13465 -5.19534 0
M  V30 4101 H 382.316 0.662026 -0.136739 0
M  V30 4102 H 384.87 1.7777 -1.02893 0
M  V30 4103 H 383.1 3.83667 0.483337 0
M  V30 4104 H 384.789 4.05701 0.127099 0
M  V30 4105 H 385.555 4.24299 -2.34936 0
M  V30 4106 H 381.434 4.46591 -1.14358 0
M  V30 4107 H 384.978 5.34594 -4.48168 0
M  V30 4108 H 380.875 5.56719 -3.26702 0
M  V30 4109 H 381.643 6.31951 -5.20173 0
M  V30 4110 N 384.306 0.507319 1.49211 0
M  V30 4111 C 385.531 -0.033725 2.07373 0
M  V30 4112 C 385.956 -1.29485 1.36437 0
M  V30 4113 O 385.314 -1.76294 0.423087 0
M  V30 4114 C 385.362 -0.263945 3.59633 0
M  V30 4115 O 384.466 -1.33737 3.90113 0
M  V30 4116 H 383.807 0.0290331 0.663365 0
M  V30 4117 H 386.337 0.708749 1.91932 0
M  V30 4118 H 386.347 -0.493536 4.05004 0
M  V30 4119 H 385.022 0.657424 4.10671 0
M  V30 4120 H 383.599 -1.09224 3.56545 0
M  V30 4121 N 385.784 -1.5574 0.241426 0
M  V30 4122 C 386.714 -2.24133 -0.654722 0
M  V30 4123 C 387.695 -1.21974 -1.1856 0
M  V30 4124 O 388.88 -1.50612 -1.22595 0
M  V30 4125 C 386.01 -2.93659 -1.85423 0
M  V30 4126 C 384.964 -4.0246 -1.45636 0
M  V30 4127 C 384.29 -4.59383 -2.73626 0
M  V30 4128 C 385.59 -5.18468 -0.631506 0
M  V30 4129 H 387.284 -2.99281 -0.0844353 0
M  V30 4130 H 384.83 -1.43947 -0.0391707 0
M  V30 4131 H 386.783 -3.40203 -2.48676 0
M  V30 4132 H 385.507 -2.15991 -2.44981 0
M  V30 4133 H 384.166 -3.56676 -0.847202 0
M  V30 4134 H 383.814 -3.78422 -3.3137 0
M  V30 4135 H 383.514 -5.32826 -2.4773 0
M  V30 4136 H 385.038 -5.08658 -3.37786 0
M  V30 4137 H 386.452 -5.61272 -1.1682 0
M  V30 4138 H 384.849 -5.98266 -0.468831 0
M  V30 4139 H 385.919 -4.8358 0.357506 0
M  V30 4140 N 387.262 0.0317525 -1.57568 0
M  V30 4141 C 388.487 0.738664 -1.938 0
M  V30 4142 C 388.912 1.68242 -0.841208 0
M  V30 4143 O 388.27 1.80157 0.203267 0
M  V30 4144 C 388.318 1.47417 -3.29091 0
M  V30 4145 O 387.422 2.5872 -3.2115 0
M  V30 4146 H 386.763 0.198856 -0.633524 0
M  V30 4147 H 389.293 -0.0119713 -2.04596 0
M  V30 4148 H 389.303 1.84468 -3.63917 0
M  V30 4149 H 387.978 0.781988 -4.08482 0
M  V30 4150 H 386.555 2.24231 -2.97951 0
M  V30 4151 N 388.74 1.54641 0.303973 0
M  V30 4152 C 389.69 1.8177 1.37636 0
M  V30 4153 C 390.674 0.674697 1.46071 0
M  V30 4154 O 391.866 0.935251 1.50273 0
M  V30 4155 C 388.995 2.06584 2.74186 0
M  V30 4156 C 388.081 3.2706 2.69986 0
M  V30 4157 N 388.472 4.47682 2.35402 0
M  V30 4158 C 386.77 3.29028 3.01092 0
M  V30 4159 C 387.471 5.29689 2.40426 0
M  V30 4160 N 386.447 4.67339 2.7766 0
M  V30 4161 H 390.249 2.72596 1.09857 0
M  V30 4162 H 387.763 1.541 0.51254 0
M  V30 4163 H 389.76 2.24166 3.51504 0
M  V30 4164 H 388.42 1.17024 3.02879 0
M  V30 4165 H 389.431 4.74336 2.07908 0
M  V30 4166 H 386.108 2.49565 3.34699 0
M  V30 4167 H 387.498 6.3606 2.16512 0
M  V30 4168 N 390.218 -0.567019 1.47046 0
M  V30 4169 C 391.464 -1.32658 1.53394 0
M  V30 4170 C 391.797 -1.93254 0.19148 0
M  V30 4171 O 391.072 -1.77338 -0.798844 0
M  V30 4172 C 391.355 -2.44412 2.64452 0
M  V30 4173 C 391.208 -1.88749 4.08282 0
M  V30 4174 C 392.527 -3.46387 2.71485 0
M  V30 4175 H 389.646 -0.48098 0.558415 0
M  V30 4176 H 392.288 -0.635481 1.79058 0
M  V30 4177 H 390.438 -3.03363 2.427 0
M  V30 4178 H 392.11 -1.34134 4.41368 0
M  V30 4179 H 390.353 -1.19481 4.17021 0
M  V30 4180 H 391.024 -2.69491 4.81745 0
M  V30 4181 H 393.5 -2.9734 2.91081 0
M  V30 4182 H 392.376 -4.2202 3.50985 0
M  V30 4183 H 392.637 -4.04616 1.78153 0
M  V30 4184 N 391.696 -1.35014 -0.812953 0
M  V30 4185 C 392.926 -1.30841 -1.59888 0
M  V30 4186 C 393.334 0.117576 -1.88834 0
M  V30 4187 O 392.677 1.07807 -1.48739 0
M  V30 4188 C 392.739 -2.0412 -2.95931 0
M  V30 4189 C 392.403 -3.53336 -2.89832 0
M  V30 4190 C 393.4 -4.48052 -2.63714 0
M  V30 4191 C 391.085 -3.95894 -3.0915 0
M  V30 4192 C 393.079 -5.833 -2.56982 0
M  V30 4193 C 390.766 -5.31239 -3.0204 0
M  V30 4194 C 391.764 -6.24754 -2.75991 0
M  V30 4195 O 391.452 -7.57617 -2.68833 0
M  V30 4196 H 391.184 -0.451215 -0.50337 0
M  V30 4197 H 393.738 -1.78354 -1.01877 0
M  V30 4198 H 391.968 -1.51235 -3.559 0
M  V30 4199 H 393.657 -1.93107 -3.57022 0
M  V30 4200 H 394.423 -4.16492 -2.48515 0
M  V30 4201 H 390.302 -3.23495 -3.28438 0
M  V30 4202 H 393.846 -6.56263 -2.36569 0
M  V30 4203 H 389.743 -5.62415 -3.16796 0
M  V30 4204 H 390.511 -7.67469 -2.84487 0
M  V30 4205 N 393.175 1.03435 -1.18907 0
M  V30 4206 C 394.403 1.80381 -1.01342 0
M  V30 4207 C 394.818 1.83649 0.438005 0
M  V30 4208 O 394.175 1.27655 1.30424 0
M  V30 4209 C 394.226 3.25689 -1.56873 0
M  V30 4210 O 393.947 3.22673 -2.96334 0
M  V30 4211 C 395.448 4.19255 -1.44014 0
M  V30 4212 H 392.668 0.56784 -0.35749 0
M  V30 4213 H 395.212 1.30317 -1.576 0
M  V30 4214 H 393.367 3.72962 -1.04777 0
M  V30 4215 H 393.781 4.13748 -3.22355 0
M  V30 4216 H 395.255 5.19123 -1.87657 0
M  V30 4217 H 395.732 4.37467 -0.389815 0
M  V30 4218 H 396.338 3.77851 -1.95214 0
M  V30 4219 N 394.653 0.992116 1.22453 0
M  V30 4220 C 396.064 0.702776 1.72968 0
M  V30 4221 C 396.415 -0.780399 1.80012 0
M  V30 4222 O 395.54 -1.61007 1.44589 0
M  V30 4223 C 396.135 1.26903 3.14135 0
M  V30 4224 C 394.694 1.02909 3.62059 0
M  V30 4225 C 393.841 1.38969 2.39964 0
M  V30 4226 H 396.792 1.16457 1.07812 0
M  V30 4227 H 396.813 0.647223 3.74955 0
M  V30 4228 H 396.325 2.34851 3.08977 0
M  V30 4229 H 394.426 -0.0337979 3.72585 0
M  V30 4230 H 394.539 1.69191 4.48231 0
M  V30 4231 H 392.903 0.808279 2.41535 0
M  V30 4232 H 393.686 2.4792 2.37467 0
M  V30 4233 N 396.131 -1.37776 0.765217 0
M  V30 4234 C 397.079 -2.32209 0.134798 0
M  V30 4235 C 398.073 -1.54607 -0.692315 0
M  V30 4236 O 399.279 -1.70052 -0.590109 0
M  V30 4237 H 395.654 -0.751591 0.0248005 0
M  V30 4238 H 397.625 -2.8297 0.947119 0
M  V30 4239 C 396.374 -3.39841 -0.735063 0
M  V30 4240 H 395.697 -3.99654 -0.107991 0
M  V30 4241 H 397.137 -4.08296 -1.14326 0
M  V30 4242 C 395.596 -2.79378 -1.88281 0
M  V30 4243 O 396.126 -2.69608 -2.97783 0
M  V30 4244 N 394.332 -2.37016 -1.68142 0
M  V30 4245 H 393.879 -2.45162 -0.790772 0
M  V30 4246 H 393.837 -1.96905 -2.45104 0
M  V30 4247 N 397.609 -0.515225 -1.4894 0
M  V30 4248 C 398.886 0.0879088 -1.95402 0
M  V30 4249 C 399.266 1.52745 -1.45712 0
M  V30 4250 O 398.614 2.18238 -0.677093 0
M  V30 4251 C 398.824 -0.0141055 -3.48997 0
M  V30 4252 C 400.172 0.152646 -4.24326 0
M  V30 4253 O 401.196 0.0604025 -3.56149 0
M  V30 4254 O 400.055 0.34384 -5.45417 0
M  V30 4255 H 397.149 0.0874636 -0.822362 0
M  V30 4256 H 399.695 -0.578775 -1.59525 0
M  V30 4257 H 398.467 -1.01745 -3.77841 0
M  V30 4258 H 398.09 0.692091 -3.9153 0
M  V30 4259 N 399.087 1.5561 -0.249682 0
M  V30 4260 C 400.333 1.99306 0.374841 0
M  V30 4261 C 400.666 1.13767 1.57387 0
M  V30 4262 O 399.941 0.201711 1.93451 0
M  V30 4263 C 400.224 3.51507 0.781986 0
M  V30 4264 C 400.077 4.4781 -0.422629 0
M  V30 4265 C 401.396 4.08884 1.62793 0
M  V30 4266 H 398.515 0.724572 0.134773 0
M  V30 4267 H 401.157 1.86719 -0.351549 0
M  V30 4268 H 399.307 3.62363 1.4009 0
M  V30 4269 H 400.979 4.48931 -1.06108 0
M  V30 4270 H 399.222 4.20518 -1.06524 0
M  V30 4271 H 399.893 5.51919 -0.0943766 0
M  V30 4272 H 402.369 4.01147 1.10547 0
M  V30 4273 H 401.245 5.1564 1.88166 0
M  V30 4274 H 401.506 3.57515 2.60068 0
M  V30 4275 N 400.565 -0.0233959 1.57583 0
M  V30 4276 C 401.981 -0.379134 1.55031 0
M  V30 4277 C 402.181 -1.76255 0.976548 0
M  V30 4278 O 401.237 -2.45266 0.600078 0
M  V30 4279 C 402.55 -0.275792 2.99433 0
M  V30 4280 C 404.098 -0.352458 3.11009 0
M  V30 4281 C 404.573 -0.278501 4.57152 0
M  V30 4282 N 406.064 -0.337123 4.61972 0
M  V30 4283 C 406.799 -0.302876 5.726 0
M  V30 4284 N 406.295 -0.220589 6.92449 0
M  V30 4285 N 408.088 -0.353023 5.6099 0
M  V30 4286 H 400.239 0.881869 1.93227 0
M  V30 4287 H 402.502 0.335867 0.886509 0
M  V30 4288 H 402.208 0.675108 3.4516 0
M  V30 4289 H 402.082 -1.06721 3.61788 0
M  V30 4290 H 404.469 -1.29379 2.65226 0
M  V30 4291 H 404.55 0.468409 2.51475 0
M  V30 4292 H 404.194 0.659189 5.03604 0
M  V30 4293 H 404.124 -1.11755 5.14605 0
M  V30 4294 H 406.615 -0.403002 3.75745 0
M  V30 4295 H 406.928 -0.199713 7.72542 0
M  V30 4296 H 405.273 -0.186555 6.9475 0
M  V30 4297 H 408.464 -0.415339 4.66254 0
M  V30 4298 H 408.637 -0.322866 6.47195 0
M  V30 4299 N 402.043 -1.548 -0.295768 0
M  V30 4300 C 402.976 -1.81003 -1.38972 0
M  V30 4301 C 403.954 -0.661544 -1.48534 0
M  V30 4302 O 405.138 -0.902074 -1.65514 0
M  V30 4303 C 402.265 -1.95141 -2.76835 0
M  V30 4304 C 401.311 -3.17592 -2.84671 0
M  V30 4305 S 402.144 -4.75531 -2.46232 0
M  V30 4306 C 403.3 -4.92613 -3.86114 0
M  V30 4307 H 403.533 -2.73507 -1.16537 0
M  V30 4308 H 401.066 -1.46278 -0.494168 0
M  V30 4309 H 403.024 -2.03972 -3.56238 0
M  V30 4310 H 401.685 -1.03565 -2.96535 0
M  V30 4311 H 400.878 -3.24303 -3.85803 0
M  V30 4312 H 400.48 -3.07235 -2.13267 0
M  V30 4313 H 402.772 -4.76957 -4.81164 0
M  V30 4314 H 403.715 -5.94698 -3.8437 0
M  V30 4315 H 404.123 -4.2073 -3.76359 0
M  V30 4316 N 403.521 0.559213 -1.47345 0
M  V30 4317 C 404.767 1.31843 -1.54095 0
M  V30 4318 C 405.1 1.93149 -0.201726 0
M  V30 4319 O 404.375 1.77759 0.789428 0
M  V30 4320 C 404.658 2.43006 -2.65744 0
M  V30 4321 C 404.511 1.86581 -4.09277 0
M  V30 4322 C 405.83 3.44943 -2.73318 0
M  V30 4323 H 402.949 0.478012 -0.560957 0
M  V30 4324 H 405.591 0.625977 -1.79392 0
M  V30 4325 H 403.741 3.02072 -2.44305 0
M  V30 4326 H 405.413 1.31792 -4.42073 0
M  V30 4327 H 403.656 1.17268 -4.17649 0
M  V30 4328 H 404.327 2.66933 -4.83168 0
M  V30 4329 H 406.803 2.95793 -2.92653 0
M  V30 4330 H 405.679 4.20153 -3.53218 0
M  V30 4331 H 405.94 4.03665 -1.80296 0
M  V30 4332 N 404.999 1.35443 0.805782 0
M  V30 4333 C 406.248 1.28097 1.55801 0
M  V30 4334 C 406.561 -0.142428 1.95081 0
M  V30 4335 O 407.767 -0.33817 2.69386 0
M  V30 4336 C 406.223 2.24653 2.81174 0
M  V30 4337 C 405.831 3.72342 2.49129 0
M  V30 4338 C 407.575 2.2625 3.59181 0
M  V30 4339 C 405.482 4.60719 3.70799 0
M  V30 4340 H 404.412 0.475937 0.584808 0
M  V30 4341 H 407.063 1.60712 0.885661 0
M  V30 4342 H 405.445 1.85011 3.50124 0
M  V30 4343 H 406.619 4.20624 1.88181 0
M  V30 4344 H 404.934 3.73361 1.84366 0
M  V30 4345 H 407.531 2.89495 4.49552 0
M  V30 4346 H 407.874 1.26647 3.96568 0
M  V30 4347 H 408.407 2.64426 2.97193 0
M  V30 4348 H 405.146 5.61324 3.3852 0
M  V30 4349 H 404.666 4.17163 4.3097 0
M  V30 4350 H 406.345 4.76182 4.38018 0
M  V30 4351 N 406.477 -1.02803 1.19454 0
M  V30 4352 C 407.387 -2.14575 0.948408 0
M  V30 4353 C 408.403 -1.73757 -0.091871 0
M  V30 4354 O 409.579 -2.01185 0.0929654 0
M  V30 4355 C 406.644 -3.43202 0.491265 0
M  V30 4356 C 405.705 -3.98328 1.60103 0
M  V30 4357 C 404.938 -5.20816 1.16561 0
M  V30 4358 O 405.161 -5.70392 0.0295238 0
M  V30 4359 O 404.095 -5.68801 1.96849 0
M  V30 4360 H 407.921 -2.38202 1.88397 0
M  V30 4361 H 405.506 -1.12989 0.977433 0
M  V30 4362 H 407.388 -4.20687 0.245015 0
M  V30 4363 H 406.063 -3.21018 -0.415851 0
M  V30 4364 H 404.97 -3.22174 1.90144 0
M  V30 4365 H 406.303 -4.24879 2.48473 0
M  V30 4366 N 407.956 -0.998596 -1.21925 0
M  V30 4367 C 409.186 -0.695276 -1.94549 0
M  V30 4368 C 409.594 0.745079 -1.73911 0
M  V30 4369 O 408.937 1.51507 -1.03881 0
M  V30 4370 C 408.999 -0.928485 -3.47303 0
M  V30 4371 C 408.663 -2.35443 -3.91683 0
M  V30 4372 C 409.66 -3.33428 -3.98901 0
M  V30 4373 C 407.345 -2.69038 -4.24174 0
M  V30 4374 C 409.339 -4.63079 -4.37992 0
M  V30 4375 C 407.026 -3.98906 -4.62944 0
M  V30 4376 C 408.024 -4.95738 -4.69822 0
M  V30 4377 O 407.712 -6.23285 -5.07711 0
M  V30 4378 H 407.444 -0.255902 -0.625692 0
M  V30 4379 H 409.998 -1.33767 -1.5587 0
M  V30 4380 H 408.228 -0.228917 -3.86022 0
M  V30 4381 H 409.917 -0.619539 -4.01144 0
M  V30 4382 H 410.683 -3.08807 -3.73983 0
M  V30 4383 H 406.562 -1.94367 -4.18022 0
M  V30 4384 H 410.106 -5.38658 -4.43275 0
M  V30 4385 H 406.003 -4.23314 -4.87314 0
M  V30 4386 H 406.771 -6.27306 -5.25766 0
M  V30 4387 N 409.434 1.37368 -0.772513 0
M  V30 4388 C 410.397 2.28601 -0.165541 0
M  V30 4389 C 411.397 1.48062 0.627238 0
M  V30 4390 O 412.587 1.68268 0.450715 0
M  V30 4391 C 409.719 3.32023 0.772897 0
M  V30 4392 H 410.912 2.83787 -0.969787 0
M  V30 4393 H 408.465 1.46647 -0.540775 0
M  V30 4394 H 409.2 2.81962 1.60212 0
M  V30 4395 H 408.985 3.91555 0.206585 0
M  V30 4396 H 410.475 4.00197 1.19298 0
M  V30 4397 N 410.912 0.523116 1.48665 0
M  V30 4398 C 412.328 0.180511 1.58576 0
M  V30 4399 C 412.528 -1.31597 1.52592 0
M  V30 4400 O 411.584 -2.0937 1.4114 0
M  V30 4401 C 412.897 0.776949 2.90489 0
M  V30 4402 C 414.445 0.745058 3.04003 0
M  V30 4403 C 414.92 1.31995 4.38567 0
M  V30 4404 N 416.411 1.28162 4.45117 0
M  V30 4405 C 417.146 1.6964 5.47731 0
M  V30 4406 N 416.642 2.18816 6.57337 0
M  V30 4407 N 418.435 1.6092 5.38573 0
M  V30 4408 H 410.586 1.4958 1.50797 0
M  V30 4409 H 412.849 0.621772 0.715614 0
M  V30 4410 H 412.555 1.82732 3.00503 0
M  V30 4411 H 412.429 0.25007 3.7637 0
M  V30 4412 H 414.816 -0.296532 2.93606 0
M  V30 4413 H 414.897 1.30933 2.1975 0
M  V30 4414 H 414.541 2.36043 4.49718 0
M  V30 4415 H 414.471 0.731418 5.21496 0
M  V30 4416 H 416.962 0.92155 3.66491 0
M  V30 4417 H 417.275 2.48478 7.31764 0
M  V30 4418 H 415.62 2.22805 6.58318 0
M  V30 4419 H 418.811 1.22304 4.5184 0
M  V30 4420 H 418.984 1.93567 6.18414 0
M  V30 4421 N 412.39 -1.55475 0.257931 0
M  V30 4422 C 413.32 -2.24815 -0.630912 0
M  V30 4423 C 414.301 -1.23224 -1.17259 0
M  V30 4424 O 415.486 -1.51904 -1.20991 0
M  V30 4425 C 412.616 -2.95609 -1.82298 0
M  V30 4426 C 411.57 -4.03982 -1.41359 0
M  V30 4427 C 410.896 -4.6226 -2.68738 0
M  V30 4428 C 412.196 -5.19109 -0.57648 0
M  V30 4429 H 413.89 -2.99354 -0.0526878 0
M  V30 4430 H 411.436 -1.4398 -0.023901 0
M  V30 4431 H 413.389 -3.42822 -2.45054 0
M  V30 4432 H 412.113 -2.18577 -2.42676 0
M  V30 4433 H 410.772 -3.57555 -0.809324 0
M  V30 4434 H 410.42 -3.81915 -3.27338 0
M  V30 4435 H 410.12 -5.35424 -2.42065 0
M  V30 4436 H 411.644 -5.12212 -3.32372 0
M  V30 4437 H 413.058 -5.62479 -1.10861 0
M  V30 4438 H 411.455 -5.98729 -0.405351 0
M  V30 4439 H 412.525 -4.83174 0.408776 0
M  V30 4440 N 413.868 0.0150385 -1.57593 0
M  V30 4441 C 415.284 0.370907 -1.5523 0
M  V30 4442 C 415.484 1.75735 -0.985882 0
M  V30 4443 O 414.54 2.44944 -0.613077 0
M  V30 4444 C 415.853 0.259908 -2.99575 0
M  V30 4445 C 417.401 0.335959 -3.11192 0
M  V30 4446 C 417.876 0.254253 -4.57294 0
M  V30 4447 N 419.367 0.312618 -4.62144 0
M  V30 4448 C 420.102 0.272505 -5.72752 0
M  V30 4449 N 419.598 0.183864 -6.92556 0
M  V30 4450 N 421.391 0.323267 -5.6117 0
M  V30 4451 H 413.542 -0.892104 -1.92757 0
M  V30 4452 H 415.805 -0.340563 -0.884715 0
M  V30 4453 H 415.511 -0.693403 -3.44797 0
M  V30 4454 H 415.385 1.048 -3.62349 0
M  V30 4455 H 417.772 1.27971 -2.65909 0
M  V30 4456 H 417.853 -0.481739 -2.51223 0
M  V30 4457 H 417.497 -0.685887 -5.03247 0
M  V30 4458 H 417.427 1.09024 -5.15191 0
M  V30 4459 H 419.918 0.38307 -3.75953 0
M  V30 4460 H 420.231 0.15874 -7.72637 0
M  V30 4461 H 418.576 0.149708 -6.94839 0
M  V30 4462 H 421.767 0.390607 -4.66467 0
M  V30 4463 H 421.94 0.288539 -6.47357 0
M  V30 4464 N 415.346 1.54954 0.287554 0
M  V30 4465 C 416.594 1.74528 1.01904 0
M  V30 4466 C 416.915 0.541349 1.87335 0
M  V30 4467 O 416.185 -0.444108 1.908 0
M  V30 4468 H 414.765 0.643576 0.379235 0
M  V30 4469 H 417.427 1.92333 0.315294 0
M  V30 4470 H 416.523 2.64015 1.6644 0
M  V30 4471 N 416.824 -0.551391 1.4764 0
M  V30 4472 C 418.073 -1.30467 1.53822 0
M  V30 4473 C 418.386 -1.94495 0.207661 0
M  V30 4474 O 419.592 -2.71099 0.147533 0
M  V30 4475 C 418.048 -2.36616 2.71184 0
M  V30 4476 C 417.656 -1.78754 4.10793 0
M  V30 4477 C 419.4 -3.13088 2.86663 0
M  V30 4478 C 417.307 -2.82717 5.19447 0
M  V30 4479 H 416.237 -0.490584 0.572576 0
M  V30 4480 H 418.888 -0.58494 1.73927 0
M  V30 4481 H 417.27 -3.11529 2.4447 0
M  V30 4482 H 418.444 -1.10173 4.47435 0
M  V30 4483 H 416.759 -1.14846 4.00249 0
M  V30 4484 H 419.356 -3.90736 3.65007 0
M  V30 4485 H 419.699 -3.67635 1.95321 0
M  V30 4486 H 420.232 -2.45288 3.13175 0
M  V30 4487 H 416.971 -2.33018 6.12685 0
M  V30 4488 H 416.491 -3.4969 4.87316 0
M  V30 4489 H 418.17 -3.46102 5.46646 0
M  V30 4490 N 418.302 -1.35869 -0.798587 0
M  V30 4491 C 419.718 -1.16082 -1.09532 0
M  V30 4492 C 419.918 0.0213124 -2.01489 0
M  V30 4493 O 418.974 0.689488 -2.42904 0
M  V30 4494 C 420.287 -2.46748 -1.7186 0
M  V30 4495 C 421.835 -2.53028 -1.84244 0
M  V30 4496 C 422.31 -3.83758 -2.49988 0
M  V30 4497 N 423.801 -3.85053 -2.57465 0
M  V30 4498 C 424.536 -4.8294 -3.09122 0
M  V30 4499 N 424.032 -5.91217 -3.61157 0
M  V30 4500 N 425.825 -4.70369 -3.0775 0
M  V30 4501 H 417.976 -2.11571 -0.187461 0
M  V30 4502 H 420.239 -0.936726 -0.145765 0
M  V30 4503 H 419.945 -3.33471 -1.11759 0
M  V30 4504 H 419.819 -2.61883 -2.71472 0
M  V30 4505 H 422.206 -1.66729 -2.43486 0
M  V30 4506 H 422.287 -2.418 -0.834643 0
M  V30 4507 H 421.931 -4.70459 -1.91393 0
M  V30 4508 H 421.861 -3.92278 -3.5132 0
M  V30 4509 H 424.352 -3.06822 -2.20609 0
M  V30 4510 H 424.665 -6.61892 -3.98896 0
M  V30 4511 H 423.01 -5.94899 -3.59333 0
M  V30 4512 H 426.201 -3.84914 -2.66381 0
M  V30 4513 H 426.374 -5.46816 -3.47701 0
M  V30 4514 N 419.78 1.02168 -1.19998 0
M  V30 4515 C 421.026 1.75945 -1.00852 0
M  V30 4516 C 421.359 1.88702 0.458828 0
M  V30 4517 O 420.634 1.40911 1.34069 0
M  V30 4518 C 420.917 3.18154 -1.68671 0
M  V30 4519 C 420.77 3.13224 -3.22817 0
M  V30 4520 C 422.089 4.16711 -1.41561 0
M  V30 4521 H 419.208 0.638673 -0.367785 0
M  V30 4522 H 421.85 1.19222 -1.4794 0
M  V30 4523 H 420 3.66586 -1.28636 0
M  V30 4524 H 421.672 2.72635 -3.72112 0
M  V30 4525 H 419.915 2.50751 -3.53986 0
M  V30 4526 H 420.586 4.13728 -3.65422 0
M  V30 4527 H 423.062 3.76913 -1.76284 0
M  V30 4528 H 421.938 5.14391 -1.91553 0
M  V30 4529 H 422.199 4.40774 -0.342193 0
M  V30 4530 N 421.258 1.00505 1.21394 0
M  V30 4531 C 422.188 0.585684 2.26035 0
M  V30 4532 C 423.169 -0.393525 1.65485 0
M  V30 4533 O 424.354 -0.281497 1.92149 0
M  V30 4534 C 421.484 -0.0884283 3.47187 0
M  V30 4535 C 420.438 0.810567 4.20254 0
M  V30 4536 C 419.764 0.00286382 5.347 0
M  V30 4537 C 421.064 2.1132 4.77641 0
M  V30 4538 H 422.758 1.46039 2.61368 0
M  V30 4539 H 420.304 0.703648 1.25638 0
M  V30 4540 H 422.257 -0.393286 4.19561 0
M  V30 4541 H 420.981 -0.997766 3.10986 0
M  V30 4542 H 419.64 1.09925 3.49731 0
M  V30 4543 H 419.288 -0.907765 4.94741 0
M  V30 4544 H 418.988 0.601444 5.84514 0
M  V30 4545 H 420.512 -0.295808 6.09883 0
M  V30 4546 H 421.926 1.87148 5.41893 0
M  V30 4547 H 420.323 2.66164 5.37845 0
M  V30 4548 H 421.393 2.78393 3.9702 0
M  V30 4549 N 422.737 -1.36956 0.779787 0
M  V30 4550 C 424.148 -1.82094 0.412156 0
M  V30 4551 C 424.499 -1.64926 -1.06273 0
M  V30 4552 O 423.624 -1.16483 -1.82375 0
M  V30 4553 C 424.219 -3.3059 0.741319 0
M  V30 4554 C 422.778 -3.73974 0.426641 0
M  V30 4555 C 421.925 -2.59368 0.980987 0
M  V30 4556 H 424.876 -1.25314 0.973758 0
M  V30 4557 H 424.897 -3.80489 0.028887 0
M  V30 4558 H 424.409 -3.43054 1.81482 0
M  V30 4559 H 422.51 -3.67076 -0.639215 0
M  V30 4560 H 422.623 -4.69778 0.940515 0
M  V30 4561 H 420.987 -2.51463 0.404757 0
M  V30 4562 H 421.77 -2.74621 2.06005 0
M  V30 4563 N 424.215 -0.530993 -1.48385 0
M  V30 4564 C 425.125 0.23503 -2.3342 0
M  V30 4565 C 426.141 0.93801 -1.46552 0
M  V30 4566 O 427.317 0.912745 -1.7953 0
M  V30 4567 C 424.382 1.26778 -3.22689 0
M  V30 4568 C 423.443 0.575038 -4.25431 0
M  V30 4569 C 422.676 1.55858 -5.10435 0
M  V30 4570 O 422.899 2.79129 -4.97437 0
M  V30 4571 O 421.833 1.09742 -5.91811 0
M  V30 4572 H 425.659 -0.461794 -3.00169 0
M  V30 4573 H 423.244 -0.291903 -1.46521 0
M  V30 4574 H 425.126 1.86457 -3.77904 0
M  V30 4575 H 423.801 1.94699 -2.586 0
M  V30 4576 H 422.708 -0.0622782 -3.74048 0
M  V30 4577 H 424.041 -0.062253 -4.92161 0
M  V30 4578 N 425.693 1.55336 -0.266172 0
M  V30 4579 C 426.94 1.99397 0.353158 0
M  V30 4580 C 427.268 1.15451 1.56529 0
M  V30 4581 O 426.523 0.209974 1.9457 0
M  V30 4582 C 426.822 3.48606 0.787957 0
M  V30 4583 C 426.488 4.49773 -0.318541 0
M  V30 4584 C 425.15 4.77158 -0.62239 0
M  V30 4585 C 427.502 5.10212 -1.06459 0
M  V30 4586 C 424.83 5.62251 -1.67602 0
M  V30 4587 C 427.182 5.96449 -2.10788 0
M  V30 4588 C 425.846 6.22158 -2.41817 0
M  V30 4589 H 425.116 0.729644 0.12923 0
M  V30 4590 H 427.763 1.87732 -0.37802 0
M  V30 4591 H 426.068 3.57701 1.59866 0
M  V30 4592 H 427.765 3.80098 1.27775 0
M  V30 4593 H 424.355 4.2854 -0.0715925 0
M  V30 4594 H 428.539 4.89086 -0.843098 0
M  V30 4595 H 423.795 5.80419 -1.92155 0
M  V30 4596 H 427.969 6.42317 -2.69076 0
M  V30 4597 H 425.596 6.87888 -3.23596 0
M  V30 4598 N 427.171 -0.0066808 1.57599 0
M  V30 4599 C 428.448 -0.729586 1.81484 0
M  V30 4600 C 428.828 -1.92359 0.869558 0
M  V30 4601 O 428.176 -2.28348 -0.0832533 0
M  V30 4602 C 428.386 -1.1416 3.29801 0
M  V30 4603 C 429.734 -1.54823 3.95367 0
M  V30 4604 O 430.758 -1.23558 3.34084 0
M  V30 4605 O 429.617 -2.12937 5.03309 0
M  V30 4606 H 426.711 -0.354674 0.747085 0
M  V30 4607 H 429.257 0.0182609 1.6969 0
M  V30 4608 H 428.029 -0.290231 3.90222 0
M  V30 4609 H 427.652 -1.94876 3.46568 0
M  V30 4610 N 428.649 -1.55105 -0.279332 0
M  V30 4611 C 429.877 -1.7943 -1.03017 0
M  V30 4612 C 430.292 -0.564456 -1.80165 0
M  V30 4613 O 429.649 0.466326 -1.76442 0
M  V30 4614 C 429.7 -3.0155 -1.99374 0
M  V30 4615 O 429.421 -4.19784 -1.25352 0
M  V30 4616 C 430.922 -3.3843 -2.86321 0
M  V30 4617 H 428.142 -0.597882 -0.304594 0
M  V30 4618 H 430.686 -2.02105 -0.312035 0
M  V30 4619 H 428.841 -2.81019 -2.66659 0
M  V30 4620 H 429.255 -4.88781 -1.90246 0
M  V30 4621 H 430.729 -4.27066 -3.49741 0
M  V30 4622 H 431.206 -2.57549 -3.5576 0
M  V30 4623 H 431.812 -3.61197 -2.24536 0
M  V30 4624 N 430.127 0.543554 -1.4793 0
M  V30 4625 C 431.538 1.12561 -1.48953 0
M  V30 4626 C 431.889 1.94578 -0.251754 0
M  V30 4627 O 431.014 2.0665 0.642255 0
M  V30 4628 C 431.609 2.04801 -2.69892 0
M  V30 4629 C 430.168 2.58251 -2.73831 0
M  V30 4630 C 429.315 1.34918 -2.42265 0
M  V30 4631 H 432.266 0.32947 -1.55242 0
M  V30 4632 H 432.287 2.88886 -2.47639 0
M  V30 4633 H 431.799 1.4508 -3.59963 0
M  V30 4634 H 429.9 3.21732 -1.87934 0
M  V30 4635 H 430.013 2.98312 -3.74895 0
M  V30 4636 H 428.377 1.66046 -1.93134 0
M  V30 4637 H 429.16 0.769693 -3.3456 0
M  V30 4638 N 431.605 1.3629 0.791371 0
M  V30 4639 C 432.853 1.30154 1.5461 0
M  V30 4640 C 433.174 -0.119409 1.94634 0
M  V30 4641 O 432.444 -1.05924 1.64794 0
M  V30 4642 H 431.024 0.478784 0.573389 0
M  V30 4643 H 433.686 1.70565 0.94306 0
M  V30 4644 H 432.782 1.92762 2.45457 0
M  V30 4645 N 433.083 -1.0153 1.20538 0
M  V30 4646 C 434.033 -2.08482 0.922991 0
M  V30 4647 C 435.017 -1.60469 -0.117702 0
M  V30 4648 O 436.209 -1.76772 0.0898465 0
M  V30 4649 C 433.338 -3.39952 0.478312 0
M  V30 4650 C 432.424 -3.94662 1.5525 0
M  V30 4651 N 432.815 -4.22866 2.77521 0
M  V30 4652 C 431.113 -4.22825 1.41897 0
M  V30 4653 C 431.814 -4.67002 3.4682 0
M  V30 4654 N 430.79 -4.69356 2.74237 0
M  V30 4655 H 434.592 -2.28199 1.85209 0
M  V30 4656 H 432.106 -1.19512 1.09957 0
M  V30 4657 H 434.103 -4.16105 0.257408 0
M  V30 4658 H 432.763 -3.21648 -0.444148 0
M  V30 4659 H 433.774 -4.11732 3.1416 0
M  V30 4660 H 430.451 -4.13714 0.561015 0
M  V30 4661 H 431.841 -4.97632 4.51455 0
M  V30 4662 N 434.561 -1.01147 -1.20859 0
M  V30 4663 C 435.789 -0.716911 -1.94082 0
M  V30 4664 C 436.204 0.721568 -1.74467 0
M  V30 4665 O 435.561 1.48889 -1.05539 0
M  V30 4666 C 435.612 -1.03662 -3.46318 0
M  V30 4667 O 435.333 -2.4186 -3.65288 0
M  V30 4668 C 436.834 -0.762386 -4.36695 0
M  V30 4669 H 434.054 -0.26367 -0.617024 0
M  V30 4670 H 436.598 -1.35127 -1.53496 0
M  V30 4671 H 434.753 -0.447757 -3.84804 0
M  V30 4672 H 435.167 -2.53224 -4.59323 0
M  V30 4673 H 436.641 -1.03621 -5.42187 0
M  V30 4674 H 437.118 0.303514 -4.3815 0
M  V30 4675 H 437.724 -1.33316 -4.03865 0
M  V30 4676 N 436.039 1.36541 -0.78704 0
M  V30 4677 C 436.969 2.32659 -0.197992 0
M  V30 4678 C 437.95 1.56533 0.665697 0
M  V30 4679 O 439.135 1.84698 0.60001 0
M  V30 4680 C 436.265 3.40778 0.669901 0
M  V30 4681 C 435.219 4.27897 -0.0937039 0
M  V30 4682 C 434.545 5.27163 0.894629 0
M  V30 4683 C 435.845 5.06334 -1.28154 0
M  V30 4684 H 437.539 2.82171 -1.00099 0
M  V30 4685 H 435.085 1.35665 -0.482793 0
M  V30 4686 H 437.038 4.07008 1.09191 0
M  V30 4687 H 435.762 2.89827 1.50558 0
M  V30 4688 H 434.421 3.6322 -0.49666 0
M  V30 4689 H 434.069 4.72486 1.72527 0
M  V30 4690 H 433.769 5.86317 0.388149 0
M  V30 4691 H 435.293 5.96266 1.31525 0
M  V30 4692 H 436.707 5.65617 -0.93541 0
M  V30 4693 H 435.104 5.74888 -1.72115 0
M  V30 4694 H 436.174 4.38114 -2.07807 0
M  V30 4695 N 437.518 0.538854 1.48102 0
M  V30 4696 C 438.743 0.0102694 2.07397 0
M  V30 4697 C 439.168 -1.26562 1.39153 0
M  V30 4698 O 438.526 -1.75357 0.460387 0
M  V30 4699 C 438.574 -0.187602 3.60112 0
M  V30 4700 O 437.678 -1.25432 3.92862 0
M  V30 4701 H 437.019 0.0430975 0.6626 0
M  V30 4702 H 439.549 0.749301 1.90385 0
M  V30 4703 H 439.559 -0.407517 4.0596 0
M  V30 4704 H 438.234 0.744386 4.09184 0
M  V30 4705 H 436.811 -1.01636 3.58782 0
M  V30 4706 N 438.996 -1.55193 0.274407 0
M  V30 4707 C 440.242 -2.00604 -0.33608 0
M  V30 4708 C 440.597 -1.15948 -1.53538 0
M  V30 4709 O 439.89 -0.221385 -1.90317 0
M  V30 4710 C 440.084 -3.49019 -0.769458 0
M  V30 4711 C 439.913 -4.48038 0.386301 0
M  V30 4712 C 438.683 -4.97757 0.869854 0
M  V30 4713 C 440.881 -4.99558 1.22254 0
M  V30 4714 N 438.863 -5.80575 1.99515 0
M  V30 4715 C 440.234 -5.79816 2.19575 0
M  V30 4716 C 442.289 -4.81799 1.25597 0
M  V30 4717 C 440.992 -6.44208 3.19981 0
M  V30 4718 C 443.018 -5.46989 2.24848 0
M  V30 4719 C 442.38 -6.27058 3.20901 0
M  V30 4720 H 438.479 -0.777013 -0.088172 0
M  V30 4721 H 441.063 -1.90583 0.398266 0
M  V30 4722 H 439.234 -3.59383 -1.47303 0
M  V30 4723 H 440.966 -3.81263 -1.35722 0
M  V30 4724 H 437.721 -4.71464 0.449281 0
M  V30 4725 H 438.145 -6.26675 2.5614 0
M  V30 4726 H 442.787 -4.19501 0.527158 0
M  V30 4727 H 440.505 -7.05656 3.93796 0
M  V30 4728 H 444.091 -5.35189 2.28174 0
M  V30 4729 H 442.971 -6.7661 3.96445 0
M  V30 4730 N 440.474 -0.00167713 -1.576 0
M  V30 4731 C 441.722 0.681471 -1.90264 0
M  V30 4732 C 442.043 1.7422 -0.875924 0
M  V30 4733 O 441.313 1.95709 0.0864412 0
M  V30 4734 H 439.893 0.254696 -0.702239 0
M  V30 4735 H 442.555 -0.0429996 -1.94853 0
M  V30 4736 H 441.651 1.15166 -2.90075 0
M  V30 4737 N 441.952 1.55251 0.271103 0
M  V30 4738 C 442.899 1.88261 1.33516 0
M  V30 4739 C 443.869 0.734296 1.48988 0
M  V30 4740 O 445.054 0.985741 1.63364 0
M  V30 4741 C 442.194 2.16168 2.69008 0
M  V30 4742 C 441.307 3.43678 2.61743 0
M  V30 4743 C 440.442 3.61276 3.89427 0
M  V30 4744 C 439.481 4.82472 3.7668 0
M  V30 4745 N 438.618 4.96717 4.96202 0
M  V30 4746 H 443.458 2.79015 1.04665 0
M  V30 4747 H 440.995 1.38137 0.505618 0
M  V30 4748 H 442.953 2.30349 3.47844 0
M  V30 4749 H 441.583 1.28646 2.96057 0
M  V30 4750 H 440.635 3.37959 1.74607 0
M  V30 4751 H 441.947 4.3265 2.48224 0
M  V30 4752 H 441.101 3.75284 4.76704 0
M  V30 4753 H 439.84 2.70492 4.05814 0
M  V30 4754 H 438.845 4.68465 2.87786 0
M  V30 4755 H 440.07 5.74692 3.61809 0
M  V30 4756 H 438.016 4.08865 5.12997 0
M  V30 4757 H 437.933 5.79738 4.85222 0
M  V30 4758 H 439.201 5.15113 5.85046 0
M  V30 4759 N 443.43 -0.535701 1.48216 0
M  V30 4760 C 444.678 -1.28928 1.55634 0
M  V30 4761 C 444.999 -1.93645 0.229514 0
M  V30 4762 O 444.269 -1.81038 -0.74846 0
M  V30 4763 H 442.849 -0.47884 0.573342 0
M  V30 4764 H 445.511 -0.623853 1.84646 0
M  V30 4765 H 444.607 -2.07157 2.33436 0
M  V30 4766 N 444.908 -1.36708 -0.784132 0
M  V30 4767 C 445.84 -1.27333 -1.90575 0
M  V30 4768 C 446.853 -0.191706 -1.61667 0
M  V30 4769 O 448.042 -0.446854 -1.72816 0
M  V30 4770 C 445.142 -0.943177 -3.25511 0
M  V30 4771 C 444.315 -2.12776 -3.82158 0
M  V30 4772 C 443.374 -1.76983 -4.95544 0
M  V30 4773 O 442.4 -2.49134 -5.11782 0
M  V30 4774 N 443.602 -0.706624 -5.76183 0
M  V30 4775 H 446.367 -2.23974 -1.99138 0
M  V30 4776 H 443.928 -1.30171 -0.962656 0
M  V30 4777 H 445.92 -0.684799 -3.98864 0
M  V30 4778 H 444.49 -0.0657333 -3.12531 0
M  V30 4779 H 443.71 -2.54863 -3.0073 0
M  V30 4780 H 444.998 -2.91904 -4.16737 0
M  V30 4781 H 444.396 -0.107643 -5.65598 0
M  V30 4782 H 442.953 -0.50808 -6.49817 0
M  V30 4783 N 446.386 1.0089 -1.21074 0
M  V30 4784 C 447.333 2.09588 -0.966512 0
M  V30 4785 C 448.303 1.65761 0.106089 0
M  V30 4786 O 449.488 1.90758 -0.0402287 0
M  V30 4787 C 446.628 3.40958 -0.533058 0
M  V30 4788 C 445.741 3.9822 -1.67467 0
M  V30 4789 C 444.876 5.17682 -1.19076 0
M  V30 4790 C 443.915 5.67043 -2.30496 0
M  V30 4791 N 443.052 6.77759 -1.83267 0
M  V30 4792 H 447.892 2.29815 -1.89708 0
M  V30 4793 H 445.429 1.12689 -0.945489 0
M  V30 4794 H 447.387 4.1637 -0.263019 0
M  V30 4795 H 446.017 3.20781 0.360505 0
M  V30 4796 H 445.069 3.1983 -2.05944 0
M  V30 4797 H 446.381 4.3085 -2.51336 0
M  V30 4798 H 445.535 6.00326 -0.877151 0
M  V30 4799 H 444.274 4.86635 -0.322066 0
M  V30 4800 H 443.279 4.82999 -2.62664 0
M  V30 4801 H 444.504 6.00121 -3.17855 0
M  V30 4802 H 442.45 6.48527 -0.987356 0
M  V30 4803 H 442.367 7.09624 -2.60711 0
M  V30 4804 H 443.635 7.63949 -1.54928 0
M  V30 4805 N 447.864 1.01787 1.20321 0
M  V30 4806 C 449.141 0.622978 1.85414 0
M  V30 4807 C 449.521 -0.898887 1.91006 0
M  V30 4808 O 448.869 -1.79112 1.41884 0
M  V30 4809 C 449.079 1.27226 3.24984 0
M  V30 4810 C 450.427 1.3885 4.01255 0
M  V30 4811 O 451.451 1.22857 3.34342 0
M  V30 4812 O 450.31 1.64705 5.2109 0
M  V30 4813 H 447.404 0.215116 0.798533 0
M  V30 4814 H 449.95 1.11533 1.27901 0
M  V30 4815 H 448.722 2.31209 3.15687 0
M  V30 4816 H 448.345 0.767069 3.90131 0
M  V30 4817 N 449.342 -1.36122 0.79427 0
M  V30 4818 C 450.272 -2.32551 0.210328 0
M  V30 4819 C 451.253 -1.56884 -0.657386 0
M  V30 4820 O 452.438 -1.85014 -0.590207 0
M  V30 4821 C 449.568 -3.41128 -0.651819 0
M  V30 4822 C 448.522 -4.27842 0.116395 0
M  V30 4823 C 447.848 -5.2763 -0.86666 0
M  V30 4824 C 449.148 -5.05647 1.30837 0
M  V30 4825 H 450.842 -2.81636 1.01594 0
M  V30 4826 H 448.388 -1.35407 0.489981 0
M  V30 4827 H 450.341 -4.07581 -1.07031 0
M  V30 4828 H 449.065 -2.90622 -1.49019 0
M  V30 4829 H 447.724 -3.62952 0.515915 0
M  V30 4830 H 447.372 -4.73395 -1.70019 0
M  V30 4831 H 447.072 -5.86514 -0.35705 0
M  V30 4832 H 448.596 -5.96955 -1.28361 0
M  V30 4833 H 450.01 -5.65113 0.965393 0
M  V30 4834 H 448.407 -5.73967 1.75161 0
M  V30 4835 H 449.477 -4.37006 2.10128 0
M  V30 4836 N 450.82 -0.546701 -1.47814 0
M  V30 4837 C 451.75 0.195317 -2.32682 0
M  V30 4838 C 452.731 0.918981 -1.43139 0
M  V30 4839 O 453.916 0.901501 -1.72008 0
M  V30 4840 C 451.046 1.23237 -3.247 0
M  V30 4841 C 450 0.625818 -4.234 0
M  V30 4842 C 449.326 1.76674 -5.04669 0
M  V30 4843 C 450.626 -0.413515 -5.2066 0
M  V30 4844 H 452.32 -0.513184 -2.94969 0
M  V30 4845 H 449.866 -0.248241 -1.41844 0
M  V30 4846 H 451.819 1.75955 -3.82907 0
M  V30 4847 H 450.543 1.97067 -2.60446 0
M  V30 4848 H 449.202 0.120023 -3.66403 0
M  V30 4849 H 448.85 2.49383 -4.36826 0
M  V30 4850 H 448.55 1.36673 -5.71484 0
M  V30 4851 H 450.074 2.29738 -5.65732 0
M  V30 4852 H 451.488 0.0272042 -5.73294 0
M  V30 4853 H 449.885 -0.731825 -5.95621 0
M  V30 4854 H 450.955 -1.31325 -4.66778 0
M  V30 4855 N 452.299 1.55045 -0.282633 0
M  V30 4856 C 453.527 2.04168 0.33512 0
M  V30 4857 C 453.942 1.16071 1.48906 0
M  V30 4858 O 453.299 0.182391 1.81586 0
M  V30 4859 C 453.35 3.52332 0.808957 0
M  V30 4860 O 453.071 4.37078 -0.299038 0
M  V30 4861 C 454.572 4.17375 1.49375 0
M  V30 4862 H 451.792 0.666744 0.0754543 0
M  V30 4863 H 454.336 2.00205 -0.416918 0
M  V30 4864 H 452.491 3.56715 1.51106 0
M  V30 4865 H 452.905 5.24458 0.0665514 0
M  V30 4866 H 454.379 5.22627 1.77664 0
M  V30 4867 H 454.856 3.65999 2.42778 0
M  V30 4868 H 455.462 4.17016 0.835305 0
M  V30 4869 N 453.777 0.010035 1.57597 0
M  V30 4870 C 455.188 -0.531426 1.78977 0
M  V30 4871 C 455.539 -1.73375 0.918454 0
M  V30 4872 O 454.664 -2.16047 0.123635 0
M  V30 4873 C 455.259 -0.97086 3.24592 0
M  V30 4874 C 453.818 -1.45756 3.47033 0
M  V30 4875 C 452.965 -0.413384 2.74201 0
M  V30 4876 H 455.916 0.236166 1.56933 0
M  V30 4877 H 455.937 -1.83633 3.33255 0
M  V30 4878 H 455.449 -0.0955893 3.87982 0
M  V30 4879 H 453.55 -2.35339 2.88871 0
M  V30 4880 H 453.663 -1.4781 4.55729 0
M  V30 4881 H 452.027 -0.877266 2.39115 0
M  V30 4882 H 452.81 0.453092 3.40297 0
M  V30 4883 N 455.255 -1.55392 -0.262866 0
M  V30 4884 C 456.495 -1.78231 -1.00064 0
M  V30 4885 C 456.859 -0.576966 -1.83126 0
M  V30 4886 O 458.06 -0.683809 -2.59957 0
M  V30 4887 C 456.331 -3.05701 -1.85153 0
M  V30 4888 S 457.89 -3.49699 -2.65058 0
M  V30 4889 H 454.708 -0.626138 -0.336856 0
M  V30 4890 H 457.31 -1.93626 -0.27005 0
M  V30 4891 H 456.014 -3.91511 -1.23074 0
M  V30 4892 H 455.545 -2.93 -2.62515 0
M  V30 4893 H 457.56 -3.09772 -3.87629 0
M  V30 4894 N 456.733 0.527833 -1.48498 0
M  V30 4895 C 457.963 1.30633 -1.60058 0
M  V30 4896 C 458.371 1.87394 -0.260786 0
M  V30 4897 O 457.714 1.67227 0.760317 0
M  V30 4898 C 457.776 2.49361 -2.58958 0
M  V30 4899 C 457.44 2.13671 -4.03972 0
M  V30 4900 C 458.437 1.69217 -4.91591 0
M  V30 4901 C 456.122 2.24129 -4.49524 0
M  V30 4902 C 458.116 1.35689 -6.2279 0
M  V30 4903 C 455.803 1.90212 -5.80743 0
M  V30 4904 C 456.801 1.46063 -6.67199 0
M  V30 4905 O 456.489 1.12593 -7.95976 0
M  V30 4906 H 456.221 0.403444 -0.54241 0
M  V30 4907 H 458.775 0.643233 -1.95068 0
M  V30 4908 H 457.005 3.18659 -2.19073 0
M  V30 4909 H 458.694 3.11421 -2.6033 0
M  V30 4910 H 459.46 1.60607 -4.57636 0
M  V30 4911 H 455.339 2.57447 -3.82416 0
M  V30 4912 H 458.883 1.01157 -6.90227 0
M  V30 4913 H 454.78 1.98464 -6.14233 0
M  V30 4914 H 455.548 1.25972 -8.08748 0
M  V30 4915 N 458.211 1.37122 0.776871 0
M  V30 4916 C 459.436 1.354 1.57104 0
M  V30 4917 C 459.861 -0.0595562 1.88006 0
M  V30 4918 O 459.219 -1.03514 1.48844 0
M  V30 4919 C 459.267 2.19472 2.8612 0
M  V30 4920 O 458.371 1.59582 3.80273 0
M  V30 4921 H 457.712 0.462869 0.476076 0
M  V30 4922 H 460.242 1.80577 0.961932 0
M  V30 4923 H 460.252 2.32502 3.35271 0
M  V30 4924 H 458.927 3.22222 2.62956 0
M  V30 4925 H 457.504 1.55564 3.38902 0
M  V30 4926 N 459.689 -1.00246 1.21608 0
M  V30 4927 C 461.105 -1.26435 0.973975 0
M  V30 4928 C 461.305 -1.98642 -0.338143 0
M  V30 4929 O 460.361 -2.29026 -1.06317 0
M  V30 4930 C 461.674 -2.08551 2.16626 0
M  V30 4931 C 463.222 -2.21769 2.20879 0
M  V30 4932 C 463.697 -3.07267 3.39633 0
M  V30 4933 N 465.188 -3.14855 3.39736 0
M  V30 4934 C 465.923 -3.81274 4.28273 0
M  V30 4935 N 465.419 -4.497 5.27012 0
M  V30 4936 N 467.212 -3.7794 4.16074 0
M  V30 4937 H 459.363 -0.518089 2.05984 0
M  V30 4938 H 461.626 -0.291368 0.902113 0
M  V30 4939 H 461.332 -1.62847 3.11727 0
M  V30 4940 H 461.206 -3.09303 2.15897 0
M  V30 4941 H 463.593 -2.66691 1.26332 0
M  V30 4942 H 463.674 -1.20478 2.25652 0
M  V30 4943 H 463.318 -2.63047 4.34475 0
M  V30 4944 H 463.248 -4.08678 3.321 0
M  V30 4945 H 465.739 -2.66147 2.6828 0
M  V30 4946 H 466.052 -4.98092 5.90867 0
M  V30 4947 H 464.397 -4.48479 5.30935 0
M  V30 4948 H 467.588 -3.23638 3.38195 0
M  V30 4949 H 467.761 -4.29424 4.85282 0
M  V30 4950 N 461.167 -1.02423 -1.1978 0
M  V30 4951 C 462.099 -0.559152 -2.22275 0
M  V30 4952 C 463.112 0.36251 -1.58713 0
M  V30 4953 O 464.301 0.159641 -1.77785 0
M  V30 4954 C 461.401 0.205094 -3.38279 0
M  V30 4955 C 460.574 -0.720361 -4.31427 0
M  V30 4956 C 459.633 -0.00234368 -5.262 0
M  V30 4957 O 458.659 -0.627378 -5.65732 0
M  V30 4958 N 459.861 1.26996 -5.66438 0
M  V30 4959 H 462.626 -1.44064 -2.62804 0
M  V30 4960 H 460.187 -0.902692 -1.34399 0
M  V30 4961 H 462.179 0.694868 -3.9869 0
M  V30 4962 H 460.749 0.987947 -2.96578 0
M  V30 4963 H 459.969 -1.39031 -3.68869 0
M  V30 4964 H 461.257 -1.3495 -4.90577 0
M  V30 4965 H 460.655 1.79858 -5.36347 0
M  V30 4966 H 459.212 1.70432 -6.29123 0
M  V30 4967 N 462.645 1.35699 -0.801477 0
M  V30 4968 C 463.593 2.3177 -0.196317 0
M  V30 4969 C 464.587 1.56388 0.651081 0
M  V30 4970 O 465.793 1.71557 0.544815 0
M  V30 4971 H 462.168 0.750669 -0.0447189 0
M  V30 4972 H 464.139 2.8036 -1.02181 0
M  V30 4973 C 462.888 3.41671 0.644702 0
M  V30 4974 H 462.211 3.998 0.0019921 0
M  V30 4975 H 463.651 4.11184 1.0346 0
M  V30 4976 C 462.11 2.84271 1.80808 0
M  V30 4977 O 462.64 2.77408 2.9053 0
M  V30 4978 N 460.846 2.41391 1.61799 0
M  V30 4979 H 460.393 2.47173 0.725493 0
M  V30 4980 H 460.351 2.03334 2.39797 0
M  V30 4981 N 464.123 0.554532 1.47522 0
M  V30 4982 C 465.07 -0.19466 2.29978 0
M  V30 4983 C 466.04 -0.910882 1.38896 0
M  V30 4984 O 467.225 -0.907102 1.67858 0
M  V30 4985 C 464.365 -1.22035 3.22802 0
M  V30 4986 C 463.478 -0.510474 4.28973 0
M  V30 4987 C 462.613 -1.52123 5.08952 0
M  V30 4988 C 461.652 -0.796173 6.069 0
M  V30 4989 N 460.789 -1.75363 6.79847 0
M  V30 4990 H 465.629 0.51461 2.93523 0
M  V30 4991 H 463.166 0.265607 1.44682 0
M  V30 4992 H 465.124 -1.8276 3.7504 0
M  V30 4993 H 463.754 -1.89769 2.61127 0
M  V30 4994 H 462.806 0.211234 3.79813 0
M  V30 4995 H 464.118 0.0576503 4.98767 0
M  V30 4996 H 463.272 -2.20207 5.65326 0
M  V30 4997 H 462.011 -2.12327 4.39054 0
M  V30 4998 H 461.016 -0.101388 5.49707 0
M  V30 4999 H 462.241 -0.199911 6.78806 0
M  V30 5000 H 460.187 -2.3443 6.12682 0
M  V30 5001 H 460.104 -1.23759 7.45801 0
M  V30 5002 H 461.372 -2.4257 7.40797 0
M  V30 5003 N 465.601 -1.54893 0.290851 0
M  V30 5004 C 466.531 -2.26103 -0.583084 0
M  V30 5005 C 467.512 -1.25684 -1.14619 0
M  V30 5006 O 468.697 -1.54436 -1.17741 0
M  V30 5007 C 465.827 -2.99409 -1.75987 0
M  V30 5008 C 464.781 -4.0689 -1.32758 0
M  V30 5009 C 464.107 -4.67856 -2.58872 0
M  V30 5010 C 465.407 -5.20215 -0.46624 0
M  V30 5011 H 467.101 -2.99398 0.0108214 0
M  V30 5012 H 464.647 -1.43998 0.00664468 0
M  V30 5013 H 466.6 -3.47943 -2.37727 0
M  V30 5014 H 465.324 -2.23675 -2.37985 0
M  V30 5015 H 463.983 -3.59191 -0.733299 0
M  V30 5016 H 463.631 -3.88772 -3.19163 0
M  V30 5017 H 463.331 -5.40438 -2.30653 0
M  V30 5018 H 464.855 -5.19147 -3.21433 0
M  V30 5019 H 466.269 -5.64704 -0.989047 0
M  V30 5020 H 464.666 -5.99455 -0.27826 0
M  V30 5021 H 465.736 -4.82198 0.511173 0
M  V30 5022 N 467.08 -0.0183926 -1.57589 0
M  V30 5023 C 468.357 0.700621 -1.82622 0
M  V30 5024 C 468.737 1.90951 -0.90005 0
M  V30 5025 O 468.085 2.28452 0.0469145 0
M  V30 5026 C 468.295 1.08899 -3.31575 0
M  V30 5027 C 469.643 1.48514 -3.9778 0
M  V30 5028 O 470.667 1.18227 -3.36007 0
M  V30 5029 O 469.526 2.04903 -5.06633 0
M  V30 5030 H 466.62 0.342743 -0.752633 0
M  V30 5031 H 469.166 -0.0452548 -1.6964 0
M  V30 5032 H 467.938 0.228113 -3.90635 0
M  V30 5033 H 467.561 1.89338 -3.49624 0
M  V30 5034 N 468.558 1.5553 0.254621 0
M  V30 5035 C 469.783 1.81383 1.00573 0
M  V30 5036 C 470.208 0.594419 1.78461 0
M  V30 5037 O 469.566 -0.456403 1.75461 0
M  V30 5038 C 469.614 3.04892 1.92545 0
M  V30 5039 O 468.718 2.81266 3.01601 0
M  V30 5040 H 468.059 0.598969 0.286587 0
M  V30 5041 H 470.589 2.02703 0.277952 0
M  V30 5042 H 470.599 3.34119 2.34155 0
M  V30 5043 H 469.274 3.93287 1.3527 0
M  V30 5044 H 467.851 2.63185 2.64174 0
M  V30 5045 N 470.036 -0.519951 1.48776 0
M  V30 5046 C 471.283 -1.27522 1.57303 0
M  V30 5047 C 471.611 -1.92869 0.251328 0
M  V30 5048 O 470.866 -1.80372 -0.759243 0
M  V30 5049 C 471.165 -2.37864 2.6675 0
M  V30 5050 C 470.831 -1.90103 4.08867 0
M  V30 5051 C 469.493 -1.76795 4.47546 0
M  V30 5052 C 471.845 -1.54133 4.97888 0
M  V30 5053 C 469.173 -1.25868 5.73039 0
M  V30 5054 C 471.525 -1.04665 6.23881 0
M  V30 5055 C 470.189 -0.899823 6.61407 0
M  V30 5056 H 469.459 -0.466636 0.575614 0
M  V30 5057 H 472.106 -0.579109 1.82534 0
M  V30 5058 H 470.411 -3.13186 2.35418 0
M  V30 5059 H 472.108 -2.95969 2.70561 0
M  V30 5060 H 468.698 -2.01414 3.78326 0
M  V30 5061 H 472.882 -1.6327 4.68675 0
M  V30 5062 H 468.138 -1.13196 6.0083 0
M  V30 5063 H 472.312 -0.759074 6.92251 0
M  V30 5064 H 469.939 -0.503011 7.58534 0
M  V30 5065 N 471.514 -1.37532 -0.769588 0
M  V30 5066 C 472.762 -1.32597 -1.5252 0
M  V30 5067 C 473.083 0.0884294 -1.94799 0
M  V30 5068 O 472.353 1.03289 -1.66458 0
M  V30 5069 H 470.933 -0.487846 -0.565699 0
M  V30 5070 H 473.595 -1.72044 -0.915806 0
M  V30 5071 H 472.691 -1.96643 -2.42359 0
M  V30 5072 N 472.992 0.995999 -1.22138 0
M  V30 5073 C 474.403 1.54961 -1.04135 0
M  V30 5074 C 474.754 1.92159 0.396147 0
M  V30 5075 O 473.879 1.74435 1.28069 0
M  V30 5076 C 474.474 2.81581 -1.88408 0
M  V30 5077 C 473.033 3.33396 -1.74712 0
M  V30 5078 C 472.18 2.06509 -1.85066 0
M  V30 5079 H 475.131 0.817436 -1.36028 0
M  V30 5080 H 475.152 3.53822 -1.39966 0
M  V30 5081 H 474.664 2.54476 -2.93025 0
M  V30 5082 H 472.765 3.65416 -0.728159 0
M  V30 5083 H 472.878 4.04208 -2.57202 0
M  V30 5084 H 471.242 2.19925 -1.28472 0
M  V30 5085 H 472.025 1.81804 -2.91208 0
M  V30 5086 N 474.47 1.03057 1.19235 0
M  V30 5087 C 475.719 0.72326 1.88287 0
M  V30 5088 C 476.032 -0.751333 1.80594 0
M  V30 5089 O 477.238 -1.17176 2.44912 0
M  V30 5090 C 475.694 1.24338 3.3774 0
M  V30 5091 C 475.302 2.74587 3.53986 0
M  V30 5092 C 477.046 1.01213 4.12257 0
M  V30 5093 C 474.953 3.20009 4.97341 0
M  V30 5094 H 473.883 0.266848 0.705201 0
M  V30 5095 H 476.534 1.24509 1.34795 0
M  V30 5096 H 474.916 0.649457 3.90638 0
M  V30 5097 H 476.09 3.39649 3.11408 0
M  V30 5098 H 474.405 2.9601 2.9286 0
M  V30 5099 H 477.002 1.32675 5.17978 0
M  V30 5100 H 477.345 -0.051001 4.16269 0
M  V30 5101 H 477.878 1.57014 3.65501 0
M  V30 5102 H 474.617 4.25659 4.98493 0
M  V30 5103 H 474.137 2.59676 5.40674 0
M  V30 5104 H 475.816 3.13447 5.66003 0
M  V30 5105 N 475.948 -1.35272 0.808662 0
M  V30 5106 C 476.896 -2.31663 0.208606 0
M  V30 5107 C 477.89 -1.56731 -0.642778 0
M  V30 5108 O 479.096 -1.71843 -0.53571 0
M  V30 5109 H 475.471 -0.750421 0.0486993 0
M  V30 5110 H 477.442 -2.79814 1.03666 0
M  V30 5111 C 476.191 -3.42008 -0.626573 0
M  V30 5112 H 475.514 -3.99795 0.0192103 0
M  V30 5113 H 476.954 -4.11727 -1.01278 0
M  V30 5114 C 475.413 -2.85226 -1.79298 0
M  V30 5115 O 475.943 -2.78945 -2.89055 0
M  V30 5116 N 474.149 -2.42245 -1.60516 0
M  V30 5117 H 473.696 -2.47554 -0.712375 0
M  V30 5118 H 473.654 -2.04603 -2.38715 0
M  V30 5119 N 477.426 -0.562348 -1.47226 0
M  V30 5120 C 478.837 -0.130325 -1.86245 0
M  V30 5121 C 479.188 1.30128 -1.46838 0
M  V30 5122 O 478.313 1.97974 -0.873805 0
M  V30 5123 C 478.908 -0.229738 -3.3802 0
M  V30 5124 C 477.467 0.14728 -3.76112 0
M  V30 5125 C 476.614 -0.574971 -2.71274 0
M  V30 5126 H 479.565 -0.771773 -1.3867 0
M  V30 5127 H 479.586 0.550316 -3.76499 0
M  V30 5128 H 479.098 -1.27178 -3.66671 0
M  V30 5129 H 477.199 1.19023 -3.53078 0
M  V30 5130 H 477.312 -0.214858 -4.78618 0
M  V30 5131 H 475.676 -0.0174756 -2.54694 0
M  V30 5132 H 476.459 -1.61827 -3.02766 0
M  V30 5133 N 478.904 1.54736 -0.299062 0
M  V30 5134 C 480.132 2.04512 0.313447 0
M  V30 5135 C 480.547 1.17643 1.47667 0
M  V30 5136 O 479.904 0.20164 1.81383 0
M  V30 5137 C 479.955 3.53171 0.771542 0
M  V30 5138 O 479.676 4.36736 -0.345379 0
M  V30 5139 C 481.177 4.18936 1.4494 0
M  V30 5140 H 478.397 0.667507 0.0683784 0
M  V30 5141 H 480.941 1.99752 -0.438129 0
M  V30 5142 H 479.096 3.58298 1.47314 0
M  V30 5143 H 479.51 5.24499 0.0109219 0
M  V30 5144 H 480.984 5.24482 1.72111 0
M  V30 5145 H 481.461 3.68554 2.38883 0
M  V30 5146 H 482.067 4.17879 0.791028 0
M  V30 5147 N 480.382 0.0267497 1.57577 0
M  V30 5148 C 481.312 -0.954308 2.13108 0
M  V30 5149 C 482.293 -1.34088 1.04663 0
M  V30 5150 O 483.478 -1.41992 1.32484 0
M  V30 5151 C 480.608 -2.23744 2.65624 0
M  V30 5152 C 479.562 -1.99168 3.78835 0
M  V30 5153 C 478.888 -3.33726 4.17769 0
M  V30 5154 C 480.188 -1.33277 5.0501 0
M  V30 5155 H 481.882 -0.491848 2.95332 0
M  V30 5156 H 479.428 -0.23514 1.42067 0
M  V30 5157 H 481.381 -2.92754 3.03106 0
M  V30 5158 H 480.105 -2.72151 1.80558 0
M  V30 5159 H 478.764 -1.32577 3.41788 0
M  V30 5160 H 478.412 -3.79888 3.29688 0
M  V30 5161 H 478.112 -3.18089 4.94058 0
M  V30 5162 H 479.636 -4.04008 4.57832 0
M  V30 5163 H 481.05 -1.92283 5.40093 0
M  V30 5164 H 479.447 -1.28045 5.8628 0
M  V30 5165 H 480.517 -0.305411 4.83937 0
M  V30 5166 N 481.861 -1.55662 -0.24637 0
M  V30 5167 C 482.809 -1.91186 -1.3248 0
M  V30 5168 C 483.803 -0.790996 -1.49799 0
M  V30 5169 O 485.009 -0.975617 -1.51267 0
M  V30 5170 H 481.384 -0.607207 -0.443626 0
M  V30 5171 H 483.355 -2.81221 -0.997853 0
M  V30 5172 C 482.104 -2.22349 -2.67313 0
M  V30 5173 H 481.427 -3.08097 -2.54786 0
M  V30 5174 H 482.867 -2.51107 -3.41645 0
M  V30 5175 C 481.326 -1.04001 -3.20446 0
M  V30 5176 O 481.856 -0.28828 -4.00664 0
M  V30 5177 N 480.062 -0.830494 -2.7848 0
M  V30 5178 H 479.609 -1.4435 -2.13356 0
M  V30 5179 H 479.567 -0.0403258 -3.14374 0
M  V30 5180 N 483.339 0.512053 -1.4905 0
M  V30 5181 C 484.567 1.29116 -1.61669 0
M  V30 5182 C 484.982 1.86655 -0.283787 0
M  V30 5183 O 484.339 1.67293 0.729331 0
M  V30 5184 C 484.39 2.4293 -2.67707 0
M  V30 5185 O 484.111 1.87758 -3.95826 0
M  V30 5186 C 485.612 3.34476 -2.90931 0
M  V30 5187 H 482.832 0.392009 -0.544583 0
M  V30 5188 H 485.376 0.615881 -1.95006 0
M  V30 5189 H 483.531 3.06308 -2.37179 0
M  V30 5190 H 483.945 2.62393 -4.54148 0
M  V30 5191 H 485.419 4.10642 -3.68886 0
M  V30 5192 H 485.896 3.90801 -2.00427 0
M  V30 5193 H 486.502 2.76874 -3.22832 0
M  V30 5194 N 484.817 1.37938 0.762283 0
M  V30 5195 C 486.045 1.36883 1.55147 0
M  V30 5196 C 486.46 -0.0435348 1.8875 0
M  V30 5197 O 485.817 -1.00786 1.52146 0
M  V30 5198 C 485.868 2.21624 2.85596 0
M  V30 5199 O 485.589 3.57358 2.5343 0
M  V30 5200 C 487.09 2.28653 3.7978 0
M  V30 5201 H 484.31 0.468521 0.480343 0
M  V30 5202 H 486.854 1.81404 0.944079 0
M  V30 5203 H 485.009 1.80588 3.42734 0
M  V30 5204 H 485.423 4.01883 3.37032 0
M  V30 5205 H 486.897 2.9225 4.68288 0
M  V30 5206 H 487.374 1.29767 4.19592 0
M  V30 5207 H 487.98 2.70043 3.28568 0
M  V30 5208 N 486.295 -0.989507 1.22664 0
M  V30 5209 C 487.525 -1.7624 1.0781 0
M  V30 5210 C 487.933 -1.85466 -0.374036 0
M  V30 5211 O 487.276 -1.32645 -1.27087 0
M  V30 5212 C 487.338 -3.21007 1.61849 0
M  V30 5213 C 487.002 -3.35316 3.10503 0
M  V30 5214 C 487.999 -3.22362 4.07896 0
M  V30 5215 C 485.684 -3.60258 3.50028 0
M  V30 5216 C 487.678 -3.34139 5.42798 0
M  V30 5217 C 485.365 -3.71676 4.85078 0
M  V30 5218 C 486.363 -3.58625 5.81272 0
M  V30 5219 O 486.051 -3.69655 7.1387 0
M  V30 5220 H 485.783 -0.560209 0.378341 0
M  V30 5221 H 488.337 -1.25252 1.62792 0
M  V30 5222 H 486.567 -3.73202 1.01279 0
M  V30 5223 H 488.256 -3.80024 1.42606 0
M  V30 5224 H 489.022 -3.03 3.78703 0
M  V30 5225 H 484.901 -3.69492 2.75675 0
M  V30 5226 H 488.445 -3.23869 6.17863 0
M  V30 5227 H 484.342 -3.90545 5.1395 0
M  V30 5228 H 485.11 -3.86507 7.21495 0
M  V30 5229 N 487.773 -1.03688 -1.18687 0
M  V30 5230 C 488.998 -0.757819 -1.93059 0
M  V30 5231 C 489.423 0.678353 -1.75442 0
M  V30 5232 O 488.781 1.46938 -1.06203 0
M  V30 5233 C 488.829 -1.12423 -3.42627 0
M  V30 5234 O 487.933 -0.247505 -4.11657 0
M  V30 5235 H 487.274 -0.279245 -0.602427 0
M  V30 5236 H 489.804 -1.3857 -1.5053 0
M  V30 5237 H 489.814 -1.08454 -3.93322 0
M  V30 5238 H 488.489 -2.17049 -3.54771 0
M  V30 5239 H 487.066 -0.34649 -3.71287 0
M  V30 5240 N 489.251 1.34841 -0.815825 0
M  V30 5241 C 490.498 1.98499 -0.400535 0
M  V30 5242 C 490.826 1.64699 1.03463 0
M  V30 5243 O 490.081 0.907006 1.73412 0
M  V30 5244 C 490.38 3.53273 -0.541541 0
M  V30 5245 C 490.046 4.06966 -1.94138 0
M  V30 5246 C 488.708 4.21341 -2.32433 0
M  V30 5247 C 491.06 4.35933 -2.85677 0
M  V30 5248 C 488.388 4.62007 -3.61617 0
M  V30 5249 C 490.74 4.78042 -4.14317 0
M  V30 5250 C 489.404 4.90622 -4.52599 0
M  V30 5251 H 488.674 0.72636 -0.146566 0
M  V30 5252 H 491.321 1.60902 -1.0384 0
M  V30 5253 H 489.626 3.91387 0.179741 0
M  V30 5254 H 491.323 4.00497 -0.20085 0
M  V30 5255 H 487.913 3.96235 -1.63388 0
M  V30 5256 H 492.097 4.24372 -2.57337 0
M  V30 5257 H 487.353 4.69937 -3.91113 0
M  V30 5258 H 491.527 4.99415 -4.85342 0
M  V30 5259 H 489.154 5.2189 -5.52752 0
M  V30 5260 N 490.729 0.570148 1.46925 0
M  V30 5261 C 491.659 -0.158274 2.32963 0
M  V30 5262 C 492.64 -0.896093 1.44583 0
M  V30 5263 O 493.825 -0.874022 1.7342 0
M  V30 5264 C 490.955 -1.18055 3.26619 0
M  V30 5265 C 489.909 -0.558379 4.24342 0
M  V30 5266 C 489.235 -1.68623 5.07415 0
M  V30 5267 C 490.535 0.496295 5.19937 0
M  V30 5268 H 492.229 0.560046 2.94115 0
M  V30 5269 H 489.775 0.270775 1.41431 0
M  V30 5270 H 491.728 -1.69841 3.85658 0
M  V30 5271 H 490.452 -1.92899 2.63548 0
M  V30 5272 H 489.111 -0.0617157 3.66548 0
M  V30 5273 H 488.759 -2.42402 4.40738 0
M  V30 5274 H 488.459 -1.27564 5.73586 0
M  V30 5275 H 489.983 -2.20709 5.69315 0
M  V30 5276 H 491.397 0.0640052 5.73264 0
M  V30 5277 H 489.794 0.82649 5.94381 0
M  V30 5278 H 490.864 1.38735 4.6463 0
M  V30 5279 N 492.207 -1.54576 0.307264 0
M  V30 5280 C 493.435 -2.04675 -0.302597 0
M  V30 5281 C 493.85 -1.18425 -1.47041 0
M  V30 5282 O 493.207 -0.211257 -1.81273 0
M  V30 5283 C 493.258 -3.53575 -0.752801 0
M  V30 5284 O 492.979 -4.36547 0.368536 0
M  V30 5285 C 494.48 -4.19699 -1.42717 0
M  V30 5286 H 491.7 -0.66786 -0.0648374 0
M  V30 5287 H 494.244 -1.99516 0.448716 0
M  V30 5288 H 492.399 -3.59074 -1.45412 0
M  V30 5289 H 492.813 -5.24497 0.0168937 0
M  V30 5290 H 494.287 -5.25388 -1.69327 0
M  V30 5291 H 494.764 -3.69815 -2.36925 0
M  V30 5292 H 495.37 -4.18293 -0.768856 0
M  V30 5293 N 493.685 -0.035106 -1.57561 0
M  V30 5294 C 494.913 0.652258 -1.9635 0
M  V30 5295 C 495.328 1.65317 -0.911897 0
M  V30 5296 O 494.685 1.82194 0.105657 0
M  V30 5297 C 494.736 1.35337 -3.35211 0
M  V30 5298 O 494.457 0.392548 -4.36338 0
M  V30 5299 C 495.958 2.13199 -3.88666 0
M  V30 5300 H 493.178 0.179444 -0.646561 0
M  V30 5301 H 495.722 -0.0966459 -2.04271 0
M  V30 5302 H 493.877 2.05362 -3.28489 0
M  V30 5303 H 494.291 0.891097 -5.16875 0
M  V30 5304 H 495.765 2.577 -4.88154 0
M  V30 5305 H 496.242 2.97353 -3.23231 0
M  V30 5306 H 496.848 1.48118 -3.98674 0
M  V30 5307 N 495.163 1.55791 0.238111 0
M  V30 5308 C 496.41 1.78033 0.964907 0
M  V30 5309 C 496.738 0.600984 1.84982 0
M  V30 5310 O 495.993 -0.41536 1.91241 0
M  V30 5311 C 496.292 3.05869 1.84875 0
M  V30 5312 C 495.958 4.36808 1.11846 0
M  V30 5313 C 494.62 4.72388 0.916662 0
M  V30 5314 C 496.972 5.17717 0.60151 0
M  V30 5315 C 494.3 5.86406 0.185756 0
M  V30 5316 C 496.652 6.32494 -0.115972 0
M  V30 5317 C 495.316 6.66688 -0.329168 0
M  V30 5318 H 494.586 0.651469 0.353085 0
M  V30 5319 H 497.233 1.90061 0.234318 0
M  V30 5320 H 495.538 2.88891 2.64668 0
M  V30 5321 H 497.235 3.20278 2.41294 0
M  V30 5322 H 493.825 4.08862 1.28569 0
M  V30 5323 H 498.009 4.90678 0.744932 0
M  V30 5324 H 493.265 6.11399 0.0101886 0
M  V30 5325 H 497.439 6.94425 -0.524127 0
M  V30 5326 H 495.066 7.54884 -0.897474 0
M  V30 5327 N 496.642 -0.504142 1.49319 0
M  V30 5328 C 497.889 -1.25846 1.58647 0
M  V30 5329 C 498.217 -1.92592 0.27177 0
M  V30 5330 O 497.472 -1.81167 -0.74007 0
M  V30 5331 C 497.771 -2.35021 2.69258 0
M  V30 5332 C 497.437 -1.85755 4.1086 0
M  V30 5333 C 496.099 -1.72038 4.49395 0
M  V30 5334 C 498.451 -1.48844 4.99495 0
M  V30 5335 C 495.779 -1.19783 5.74342 0
M  V30 5336 C 498.131 -0.980422 6.24956 0
M  V30 5337 C 496.795 -0.829622 6.62324 0
M  V30 5338 H 496.065 -0.460505 0.580531 0
M  V30 5339 H 498.712 -0.559716 1.83138 0
M  V30 5340 H 497.017 -3.10672 2.38726 0
M  V30 5341 H 498.714 -2.93083 2.73685 0
M  V30 5342 H 495.304 -1.9739 3.80441 0
M  V30 5343 H 499.488 -1.5829 4.70381 0
M  V30 5344 H 494.744 -1.06817 6.01997 0
M  V30 5345 H 498.918 -0.685608 6.93017 0
M  V30 5346 H 496.545 -0.42253 7.59025 0
M  V30 5347 N 498.12 -1.38341 -0.754957 0
M  V30 5348 C 499.067 -1.3546 -1.86867 0
M  V30 5349 C 500.037 -0.217369 -1.64672 0
M  V30 5350 O 501.222 -0.409383 -1.86356 0
M  V30 5351 C 498.362 -1.18413 -3.24149 0
M  V30 5352 C 497.475 -2.41511 -3.58185 0
M  V30 5353 C 496.61 -2.17205 -4.84763 0
M  V30 5354 C 495.649 -3.36081 -5.11582 0
M  V30 5355 N 494.786 -3.11219 -6.29354 0
M  V30 5356 H 499.626 -2.30672 -1.88664 0
M  V30 5357 H 497.163 -1.14607 -0.922154 0
M  V30 5358 H 499.121 -1.06545 -4.03366 0
M  V30 5359 H 497.751 -0.268397 -3.21682 0
M  V30 5360 H 496.803 -2.64056 -2.73822 0
M  V30 5361 H 498.115 -3.30115 -3.73932 0
M  V30 5362 H 497.269 -2.02465 -5.7192 0
M  V30 5363 H 496.008 -1.25964 -4.71152 0
M  V30 5364 H 495.013 -3.51341 -4.22894 0
M  V30 5365 H 496.238 -4.28196 -5.27091 0
M  V30 5366 H 494.184 -2.22624 -6.17069 0
M  V30 5367 H 494.101 -3.93373 -6.45596 0
M  V30 5368 H 495.369 -3.00132 -7.19403 0
M  V30 5369 N 499.598 0.982988 -1.23187 0
M  V30 5370 C 500.508 2.10907 -1.02739 0
M  V30 5371 C 501.524 1.73979 0.0273188 0
M  V30 5372 O 502.7 2.00702 -0.16757 0
M  V30 5373 C 499.765 3.41142 -0.618304 0
M  V30 5374 C 498.826 3.92112 -1.74777 0
M  V30 5375 C 498.059 5.16131 -1.3581 0
M  V30 5376 O 498.282 5.6989 -0.241201 0
M  V30 5377 O 497.216 5.61103 -2.17824 0
M  V30 5378 H 501.042 2.31046 -1.97108 0
M  V30 5379 H 498.627 1.09284 -1.01869 0
M  V30 5380 H 500.509 4.19488 -0.400982 0
M  V30 5381 H 499.184 3.2234 0.296421 0
M  V30 5382 H 498.091 3.14895 -2.0197 0
M  V30 5383 H 499.424 4.15364 -2.64071 0
M  V30 5384 N 501.076 1.04316 1.18135 0
M  V30 5385 C 502.325 0.74319 1.87509 0
M  V30 5386 C 502.638 -0.732136 1.81381 0
M  V30 5387 O 503.844 -1.14572 2.46141 0
M  V30 5388 C 502.3 1.27913 3.36402 0
M  V30 5389 C 501.908 2.78326 3.51053 0
M  V30 5390 C 503.652 1.0558 4.11161 0
M  V30 5391 C 501.559 3.25266 4.93919 0
M  V30 5392 H 500.489 0.274313 0.702331 0
M  V30 5393 H 503.14 1.25931 1.33467 0
M  V30 5394 H 501.522 0.690853 3.89927 0
M  V30 5395 H 502.696 3.42933 3.07788 0
M  V30 5396 H 501.011 2.991 2.89704 0
M  V30 5397 H 503.608 1.38161 5.16542 0
M  V30 5398 H 503.951 -0.00684729 4.16299 0
M  V30 5399 H 504.484 1.60882 3.63816 0
M  V30 5400 H 501.223 4.30922 4.9395 0
M  V30 5401 H 500.743 2.65396 5.3789 0
M  V30 5402 H 502.422 3.19433 5.62647 0
M  V30 5403 N 502.554 -1.34406 0.822964 0
M  V30 5404 C 503.779 -2.0304 0.423034 0
M  V30 5405 C 504.204 -1.61568 -0.963196 0
M  V30 5406 O 503.562 -0.800339 -1.62678 0
M  V30 5407 C 503.61 -3.56636 0.53321 0
M  V30 5408 O 502.714 -4.09971 -0.446939 0
M  V30 5409 H 502.055 -0.64075 0.174171 0
M  V30 5410 H 504.585 -1.71653 1.11339 0
M  V30 5411 H 504.595 -4.05945 0.408991 0
M  V30 5412 H 503.27 -3.86168 1.54425 0
M  V30 5413 H 501.847 -3.71835 -0.281601 0
M  V30 5414 N 504.032 -0.577932 -1.46621 0
M  V30 5415 C 504.942 0.160651 -2.34049 0
M  V30 5416 C 505.958 0.890911 -1.49462 0
M  V30 5417 O 507.134 0.855166 -1.82343 0
M  V30 5418 C 504.199 1.16447 -3.26559 0
M  V30 5419 C 503.26 0.4394 -4.27045 0
M  V30 5420 C 502.493 1.3954 -5.15135 0
M  V30 5421 O 502.716 2.63162 -5.06065 0
M  V30 5422 O 501.65 0.908585 -5.95003 0
M  V30 5423 H 505.476 -0.557057 -2.98547 0
M  V30 5424 H 503.061 -0.338369 -1.45518 0
M  V30 5425 H 504.943 1.7434 -3.83645 0
M  V30 5426 H 503.618 1.86373 -2.64663 0
M  V30 5427 H 502.525 -0.181247 -3.73661 0
M  V30 5428 H 503.858 -0.218799 -4.91713 0
M  V30 5429 N 505.51 1.54411 -0.315457 0
M  V30 5430 C 506.756 2.00716 0.289972 0
M  V30 5431 C 507.089 1.2034 1.5242 0
M  V30 5432 O 506.364 0.283579 1.92422 0
M  V30 5433 C 506.647 3.54507 0.632196 0
M  V30 5434 C 506.5 4.45615 -0.61218 0
M  V30 5435 C 507.819 4.15421 1.45305 0
M  V30 5436 H 504.938 0.729637 0.10392 0
M  V30 5437 H 507.58 1.8506 -0.430427 0
M  V30 5438 H 505.73 3.67979 1.24595 0
M  V30 5439 H 507.402 4.44026 -1.25053 0
M  V30 5440 H 505.645 4.15621 -1.24264 0
M  V30 5441 H 506.316 5.51022 -0.328379 0
M  V30 5442 H 508.792 4.05474 0.934331 0
M  V30 5443 H 507.668 5.23157 1.66127 0
M  V30 5444 H 507.929 3.68223 2.44671 0
M  V30 5445 N 506.988 0.0434614 1.5754 0
M  V30 5446 C 508.235 -0.632035 1.92384 0
M  V30 5447 C 508.563 -1.71304 0.921157 0
M  V30 5448 O 507.818 -1.95583 -0.067744 0
M  V30 5449 C 508.117 -1.2738 3.3393 0
M  V30 5450 C 507.783 -0.321757 4.49751 0
M  V30 5451 C 506.445 -0.0597611 4.81163 0
M  V30 5452 C 508.797 0.331158 5.20147 0
M  V30 5453 C 506.125 0.862715 5.80322 0
M  V30 5454 C 508.477 1.24178 6.20292 0
M  V30 5455 C 507.141 1.51252 6.50138 0
M  V30 5456 H 506.411 -0.231278 0.703983 0
M  V30 5457 H 509.058 0.108294 1.91194 0
M  V30 5458 H 507.363 -2.08921 3.3145 0
M  V30 5459 H 509.06 -1.80326 3.58167 0
M  V30 5460 H 505.65 -0.53614 4.25233 0
M  V30 5461 H 509.834 0.141826 4.96097 0
M  V30 5462 H 505.09 1.08003 6.01785 0
M  V30 5463 H 509.264 1.75381 6.73954 0
M  V30 5464 H 506.891 2.22897 7.26788 0
M  V30 5465 N 508.466 -1.55915 -0.229846 0
M  V30 5466 C 509.877 -1.68809 -0.797531 0
M  V30 5467 C 510.228 -0.643995 -1.8533 0
M  V30 5468 O 509.353 0.206492 -2.15413 0
M  V30 5469 C 509.948 -3.06043 -1.45338 0
M  V30 5470 C 508.507 -3.20819 -1.96856 0
M  V30 5471 C 507.654 -2.6472 -0.825736 0
M  V30 5472 H 510.605 -1.58699 -0.00533733 0
M  V30 5473 H 510.626 -3.01438 -2.32196 0
M  V30 5474 H 510.138 -3.82012 -0.684743 0
M  V30 5475 H 508.239 -2.49704 -2.76548 0
M  V30 5476 H 508.352 -4.27937 -2.15423 0
M  V30 5477 H 506.716 -2.22985 -1.23084 0
M  V30 5478 H 507.499 -3.43229 -0.0699019 0
M  V30 5479 N 509.944 0.496216 -1.49584 0
M  V30 5480 C 511.221 1.25755 -1.49816 0
M  V30 5481 C 511.601 2.09859 -0.228572 0
M  V30 5482 O 510.949 2.14449 0.788908 0
M  V30 5483 C 511.159 2.11017 -2.7798 0
M  V30 5484 C 512.507 2.70047 -3.27658 0
M  V30 5485 O 513.531 2.21281 -2.79129 0
M  V30 5486 O 512.39 3.58834 -4.1219 0
M  V30 5487 H 509.484 0.569322 -0.599834 0
M  V30 5488 H 512.03 0.510094 -1.61852 0
M  V30 5489 H 510.802 1.48879 -3.61871 0
M  V30 5490 H 510.425 2.92947 -2.68827 0
M  V30 5491 N 511.423 1.38739 0.74761 0
M  V30 5492 C 512.355 1.32341 1.87132 0
M  V30 5493 C 513.368 0.234502 1.61102 0
M  V30 5494 O 514.557 0.492516 1.71571 0
M  V30 5495 C 511.657 1.02915 3.22896 0
M  V30 5496 C 510.83 2.22834 3.76383 0
M  V30 5497 C 509.889 1.90059 4.90677 0
M  V30 5498 O 508.915 2.62615 5.04997 0
M  V30 5499 N 510.117 0.859141 5.74107 0
M  V30 5500 H 512.882 2.29175 1.93129 0
M  V30 5501 H 510.443 1.32678 0.927805 0
M  V30 5502 H 512.435 0.79031 3.96908 0
M  V30 5503 H 511.005 0.148572 3.12247 0
M  V30 5504 H 510.225 2.62747 2.93867 0
M  V30 5505 H 511.513 3.02851 4.08851 0
M  V30 5506 H 510.911 0.257564 5.65113 0
M  V30 5507 H 509.468 0.680189 6.48241 0
M  V30 5508 N 512.901 -0.976442 1.23707 0
M  V30 5509 C 514.148 -1.71827 1.07153 0
M  V30 5510 C 514.476 -1.9053 -0.390982 0
M  V30 5511 O 513.731 -1.45779 -1.30564 0
M  V30 5512 C 514.03 -3.11814 1.74662 0
M  V30 5513 C 513.696 -3.12978 3.24585 0
M  V30 5514 C 512.358 -3.13003 3.6549 0
M  V30 5515 C 514.71 -3.07986 4.20469 0
M  V30 5516 C 512.038 -3.05757 5.00729 0
M  V30 5517 C 514.39 -3.02282 5.55705 0
M  V30 5518 C 513.054 -3.00631 5.95968 0
M  V30 5519 H 512.324 -0.628758 0.392102 0
M  V30 5520 H 514.971 -1.14239 1.53693 0
M  V30 5521 H 513.276 -3.72812 1.20492 0
M  V30 5522 H 514.973 -3.67989 1.59328 0
M  V30 5523 H 511.563 -3.13718 2.92026 0
M  V30 5524 H 515.747 -3.07103 3.89874 0
M  V30 5525 H 511.003 -3.02834 5.31132 0
M  V30 5526 H 515.177 -2.97376 6.29714 0
M  V30 5527 H 512.804 -2.94771 7.00724 0
M  V30 5528 N 514.379 -1.04941 -1.1758 0
M  V30 5529 C 515.628 -0.753124 -1.87112 0
M  V30 5530 C 515.941 0.722507 -1.81767 0
M  V30 5531 O 517.147 1.13265 -2.46746 0
M  V30 5532 C 515.603 -1.29695 -3.35719 0
M  V30 5533 C 515.211 -2.80184 -3.49572 0
M  V30 5534 C 516.955 -1.07759 -4.10595 0
M  V30 5535 C 514.862 -3.2788 -4.92187 0
M  V30 5536 H 513.792 -0.278034 -0.700866 0
M  V30 5537 H 516.443 -1.26637 -1.32798 0
M  V30 5538 H 514.825 -0.711522 -3.89555 0
M  V30 5539 H 515.999 -3.44561 -3.05965 0
M  V30 5540 H 514.314 -3.00632 -2.88113 0
M  V30 5541 H 516.911 -1.40899 -5.15802 0
M  V30 5542 H 517.254 -0.0152302 -4.16297 0
M  V30 5543 H 517.787 -1.62809 -3.62957 0
M  V30 5544 H 514.526 -4.33535 -4.91658 0
M  V30 5545 H 514.046 -2.68245 -5.36475 0
M  V30 5546 H 515.725 -3.22412 -5.60945 0
M  V30 5547 N 515.857 1.33968 -0.830081 0
M  V30 5548 C 516.807 2.26845 -0.229242 0
M  V30 5549 C 517.791 1.48862 0.610659 0
M  V30 5550 O 518.983 1.70808 0.464067 0
M  V30 5551 C 516.112 3.3798 0.602057 0
M  V30 5552 C 515.198 4.23369 -0.248866 0
M  V30 5553 N 515.589 4.88182 -1.32334 0
M  V30 5554 C 513.887 4.45987 -0.0344077 0
M  V30 5555 C 514.588 5.51671 -1.84482 0
M  V30 5556 N 513.564 5.31348 -1.14762 0
M  V30 5557 H 517.366 2.74464 -1.05104 0
M  V30 5558 H 514.88 1.4777 -0.673623 0
M  V30 5559 H 516.877 4.03494 1.04873 0
M  V30 5560 H 515.537 2.9191 1.42193 0
M  V30 5561 H 516.548 4.88988 -1.70619 0
M  V30 5562 H 513.225 4.10658 0.752727 0
M  V30 5563 H 514.615 6.13308 -2.74413 0
M  V30 5564 N 517.335 0.585699 1.46312 0
M  V30 5565 C 518.265 -0.133556 2.33118 0
M  V30 5566 C 519.246 -0.880707 1.45525 0
M  V30 5567 O 520.431 -0.855579 1.74337 0
M  V30 5568 C 517.561 -1.14585 3.27853 0
M  V30 5569 C 516.515 -0.513341 4.2491 0
M  V30 5570 C 515.841 -1.63231 5.09175 0
M  V30 5571 C 517.141 0.551413 5.19381 0
M  V30 5572 H 518.835 0.59121 2.93505 0
M  V30 5573 H 516.381 0.285761 1.41136 0
M  V30 5574 H 518.334 -1.65741 3.87438 0
M  V30 5575 H 517.058 -1.90093 2.65579 0
M  V30 5576 H 515.717 -0.0228349 3.66593 0
M  V30 5577 H 515.365 -2.37713 4.43285 0
M  V30 5578 H 515.065 -1.21473 5.74907 0
M  V30 5579 H 516.589 -2.14658 5.71624 0
M  V30 5580 H 518.003 0.124804 5.73164 0
M  V30 5581 H 516.4 0.889486 5.93471 0
M  V30 5582 H 517.47 1.43655 4.63132 0
M  V30 5583 N 518.813 -1.54241 0.323641 0
M  V30 5584 C 520.061 -2.00174 -0.278359 0
M  V30 5585 C 520.382 -1.2134 -1.52648 0
M  V30 5586 O 519.652 -0.315244 -1.93347 0
M  V30 5587 H 518.232 -0.739463 -0.105845 0
M  V30 5588 H 520.894 -1.89864 0.440204 0
M  V30 5589 H 519.99 -3.07486 -0.5347 0
M  V30 5590 N 520.291 -0.0518155 -1.57515 0
M  V30 5591 C 521.539 0.620595 -1.92336 0
M  V30 5592 C 521.86 1.71345 -0.930907 0
M  V30 5593 O 521.13 1.95885 0.0241341 0
M  V30 5594 H 519.71 0.232226 -0.709986 0
M  V30 5595 H 522.372 -0.104969 -1.94617 0
M  V30 5596 H 521.468 1.05879 -2.93592 0
M  V30 5597 N 521.769 1.56035 0.221574 0
M  V30 5598 C 523.046 1.69837 0.970301 0
M  V30 5599 C 523.426 0.599065 2.02421 0
M  V30 5600 O 522.774 -0.393929 2.25079 0
M  V30 5601 C 522.984 3.11148 1.58076 0
M  V30 5602 C 524.332 3.70555 2.07302 0
M  V30 5603 O 525.356 3.14109 1.6797 0
M  V30 5604 O 524.215 4.69562 2.79596 0
M  V30 5605 H 521.309 0.691727 0.453257 0
M  V30 5606 H 523.855 1.68353 0.213358 0
M  V30 5607 H 522.627 3.82617 0.819759 0
M  V30 5608 H 522.25 3.16749 2.40324 0
M  V30 5609 N 523.247 -0.488276 1.49845 0
M  V30 5610 C 524.157 -1.61451 1.70207 0
M  V30 5611 C 525.173 -1.63877 0.584846 0
M  V30 5612 O 526.349 -1.82063 0.861107 0
M  V30 5613 C 523.414 -2.9776 1.77594 0
M  V30 5614 C 522.475 -3.05861 3.01243 0
M  V30 5615 C 521.708 -4.35668 3.08268 0
M  V30 5616 O 521.931 -5.25197 2.22541 0
M  V30 5617 O 520.865 -4.49005 4.00847 0
M  V30 5618 H 524.691 -1.47199 2.65643 0
M  V30 5619 H 522.276 -0.665939 1.33737 0
M  V30 5620 H 524.158 -3.7875 1.84732 0
M  V30 5621 H 522.833 -3.12248 0.8534 0
M  V30 5622 H 521.74 -2.24012 2.99616 0
M  V30 5623 H 523.073 -2.96304 3.9302 0
M  V30 5624 N 524.725 -1.39134 -0.740242 0
M  V30 5625 C 525.971 -1.36273 -1.50192 0
M  V30 5626 C 526.304 0.0430136 -1.94152 0
M  V30 5627 O 525.579 1.00691 -1.66408 0
M  V30 5628 C 525.862 -2.33041 -2.74525 0
M  V30 5629 C 525.715 -3.82535 -2.36617 0
M  V30 5630 C 527.034 -2.27723 -3.76604 0
M  V30 5631 H 524.153 -0.496323 -0.544823 0
M  V30 5632 H 526.795 -1.70085 -0.846815 0
M  V30 5633 H 524.945 -2.04337 -3.30422 0
M  V30 5634 H 526.617 -4.21967 -1.86391 0
M  V30 5635 H 524.86 -3.99565 -1.68909 0
M  V30 5636 H 525.531 -4.45723 -3.2563 0
M  V30 5637 H 528.007 -2.53091 -3.30279 0
M  V30 5638 H 526.883 -2.97519 -4.61274 0
M  V30 5639 H 527.144 -1.28049 -4.2315 0
M  V30 5640 N 526.204 0.969867 -1.24223 0
M  V30 5641 C 527.114 2.09806 -1.0497 0
M  V30 5642 C 528.13 1.73998 0.00886455 0
M  V30 5643 O 529.306 2.00513 -0.188848 0
M  V30 5644 C 526.371 3.40467 -0.654452 0
M  V30 5645 C 525.432 3.90236 -1.78926 0
M  V30 5646 C 524.665 5.14662 -1.41277 0
M  V30 5647 O 524.888 5.69602 -0.301632 0
M  V30 5648 O 523.822 5.58761 -2.23763 0
M  V30 5649 H 527.648 2.28942 -1.99548 0
M  V30 5650 H 525.233 1.08197 -1.03023 0
M  V30 5651 H 527.115 4.19039 -0.445452 0
M  V30 5652 H 525.79 3.22636 0.262216 0
M  V30 5653 H 524.697 3.12735 -2.05299 0
M  V30 5654 H 526.03 4.1254 -2.68462 0
M  V30 5655 N 527.682 1.05563 1.17022 0
M  V30 5656 C 528.929 0.767937 1.87374 0
M  V30 5657 C 529.257 -0.705224 1.81265 0
M  V30 5658 O 528.512 -1.5318 1.21796 0
M  V30 5659 C 528.811 1.19849 3.36706 0
M  V30 5660 C 528.477 2.6745 3.63017 0
M  V30 5661 C 527.139 3.0777 3.69907 0
M  V30 5662 C 529.491 3.62811 3.74189 0
M  V30 5663 C 526.819 4.42307 3.85463 0
M  V30 5664 C 529.171 4.97087 3.91264 0
M  V30 5665 C 527.835 5.37055 3.96394 0
M  V30 5666 H 527.105 0.281008 0.68565 0
M  V30 5667 H 529.752 1.32339 1.38415 0
M  V30 5668 H 528.057 0.562096 3.87747 0
M  V30 5669 H 529.754 0.953038 3.8951 0
M  V30 5670 H 526.344 2.35228 3.58282 0
M  V30 5671 H 530.528 3.32798 3.68183 0
M  V30 5672 H 525.784 4.72769 3.87684 0
M  V30 5673 H 529.958 5.70869 3.9885 0
M  V30 5674 H 527.585 6.41308 4.082 0
M  V30 5675 N 529.16 -1.33526 0.837174 0
M  V30 5676 C 530.107 -2.29248 0.267169 0
M  V30 5677 C 531.077 -1.54252 -0.616071 0
M  V30 5678 O 532.262 -1.82559 -0.554699 0
M  V30 5679 C 529.402 -3.40638 -0.553152 0
M  V30 5680 C 528.515 -4.30548 0.353921 0
M  V30 5681 C 527.65 -5.29051 -0.477339 0
M  V30 5682 C 526.689 -6.106 0.42823 0
M  V30 5683 N 525.826 -7.01152 -0.364801 0
M  V30 5684 H 530.666 -2.77398 1.08877 0
M  V30 5685 H 528.203 -1.36496 0.54838 0
M  V30 5686 H 530.161 -4.03921 -1.04422 0
M  V30 5687 H 528.791 -2.93685 -1.33973 0
M  V30 5688 H 527.843 -3.68001 0.963289 0
M  V30 5689 H 529.155 -4.87631 1.04964 0
M  V30 5690 H 528.309 -5.97853 -1.0323 0
M  V30 5691 H 527.048 -4.72541 -1.2065 0
M  V30 5692 H 526.053 -5.40718 0.995219 0
M  V30 5693 H 527.278 -6.69193 1.15573 0
M  V30 5694 H 525.224 -6.47092 -1.07738 0
M  V30 5695 H 525.141 -7.5551 0.272238 0
M  V30 5696 H 526.409 -7.74263 -0.902054 0
M  V30 5697 N 530.638 -0.59345 -1.46 0
M  V30 5698 C 531.878 -0.0859747 -2.04219 0
M  V30 5699 C 532.242 1.25432 -1.45364 0
M  V30 5700 O 533.443 1.85168 -1.9485 0
M  V30 5701 C 531.714 -0.0324314 -3.57385 0
M  V30 5702 S 533.273 0.415908 -4.36824 0
M  V30 5703 H 530.091 -0.0426872 -0.709717 0
M  V30 5704 H 532.693 -0.788369 -1.78899 0
M  V30 5705 H 531.397 -1.01166 -3.97735 0
M  V30 5706 H 530.928 0.6924 -3.87259 0
M  V30 5707 H 532.943 1.66844 -4.67309 0
M  V30 5708 N 532.116 1.54067 -0.331816 0
M  V30 5709 C 533.362 2.01713 0.261395 0
M  V30 5710 C 533.717 1.21566 1.49129 0
M  V30 5711 O 533.01 0.291867 1.89364 0
M  V30 5712 C 533.204 3.51634 0.639392 0
M  V30 5713 C 533.033 4.46295 -0.552321 0
M  V30 5714 C 531.803 4.94185 -1.05399 0
M  V30 5715 C 534.001 4.94677 -1.40711 0
M  V30 5716 N 531.983 5.7277 -2.20925 0
M  V30 5717 C 533.354 5.71267 -2.40943 0
M  V30 5718 C 535.409 4.76805 -1.43392 0
M  V30 5719 C 534.112 6.31889 -3.4367 0
M  V30 5720 C 536.138 5.38268 -2.44994 0
M  V30 5721 C 535.5 6.14716 -3.43952 0
M  V30 5722 H 531.599 0.77975 0.0592729 0
M  V30 5723 H 534.183 1.88974 -0.468726 0
M  V30 5724 H 532.354 3.64603 1.33863 0
M  V30 5725 H 534.086 3.86038 1.21478 0
M  V30 5726 H 530.841 4.69472 -0.623952 0
M  V30 5727 H 531.265 6.16737 -2.79222 0
M  V30 5728 H 535.907 4.17255 -0.682489 0
M  V30 5729 H 533.625 6.90554 -4.19715 0
M  V30 5730 H 537.211 5.26352 -2.4788 0
M  V30 5731 H 536.091 6.6143 -4.21283 0
M  V30 5732 N 533.594 0.0601682 1.57485 0
M  V30 5733 C 534.504 -0.926121 2.15546 0
M  V30 5734 C 535.52 -1.33532 1.11558 0
M  V30 5735 O 536.696 -1.4104 1.4377 0
M  V30 5736 C 533.761 -2.17952 2.69625 0
M  V30 5737 C 532.822 -1.82783 3.88444 0
M  V30 5738 C 532.055 -3.02148 4.39935 0
M  V30 5739 O 532.278 -4.15803 3.90466 0
M  V30 5740 O 531.212 -2.82639 5.31412 0
M  V30 5741 H 535.038 -0.462289 3.00161 0
M  V30 5742 H 532.623 -0.162246 1.48516 0
M  V30 5743 H 534.505 -2.91474 3.04337 0
M  V30 5744 H 533.18 -2.63456 1.88077 0
M  V30 5745 H 532.087 -1.06549 3.58606 0
M  V30 5746 H 533.42 -1.42072 4.7125 0
M  V30 5747 N 535.072 -1.5615 -0.213296 0
M  V30 5748 C 536.297 -1.83986 -0.957282 0
M  V30 5749 C 536.722 -0.641526 -1.76822 0
M  V30 5750 O 536.08 0.409722 -1.7661 0
M  V30 5751 C 536.128 -3.09889 -1.84393 0
M  V30 5752 O 535.232 -2.89163 -2.94038 0
M  V30 5753 H 534.573 -0.606357 -0.270605 0
M  V30 5754 H 537.103 -2.03369 -0.224111 0
M  V30 5755 H 537.113 -3.40209 -2.25215 0
M  V30 5756 H 535.788 -3.96735 -1.24795 0
M  V30 5757 H 534.365 -2.70097 -2.57103 0
M  V30 5758 N 536.55 0.480323 -1.50102 0
M  V30 5759 C 537.498 1.60024 -1.68805 0
M  V30 5760 C 538.492 1.60089 -0.553888 0
M  V30 5761 O 539.698 1.64349 -0.734127 0
M  V30 5762 H 536.073 0.530841 -0.532646 0
M  V30 5763 H 538.044 1.41408 -2.62767 0
M  V30 5764 C 536.793 2.98029 -1.79092 0
M  V30 5765 H 536.116 2.98694 -2.65748 0
M  V30 5766 H 537.556 3.75871 -1.96206 0
M  V30 5767 C 536.015 3.32538 -0.540388 0
M  V30 5768 O 536.545 4.00386 0.324637 0
M  V30 5769 N 534.751 2.87873 -0.397154 0
M  V30 5770 H 534.298 2.32834 -1.1021 0
M  V30 5771 H 534.256 3.11328 0.438425 0
M  V30 5772 N 538.028 1.39524 0.732853 0
M  V30 5773 C 539.439 1.32905 1.31122 0
M  V30 5774 C 539.79 -0.00558708 1.96199 0
M  V30 5775 O 538.915 -0.907706 1.96443 0
M  V30 5776 C 539.51 2.40704 2.38426 0
M  V30 5777 C 538.069 2.37599 2.91931 0
M  V30 5778 C 537.216 2.2248 1.65523 0
M  V30 5779 H 540.167 1.49581 0.530207 0
M  V30 5780 H 540.188 2.07616 3.18867 0
M  V30 5781 H 539.7 3.37829 1.91033 0
M  V30 5782 H 537.801 1.44119 3.43599 0
M  V30 5783 H 537.914 3.32538 3.44899 0
M  V30 5784 H 536.278 1.69691 1.8994 0
M  V30 5785 H 537.061 3.21577 1.20178 0
M  V30 5786 N 539.506 -0.963266 1.24736 0
M  V30 5787 C 540.453 -2.05857 1.04363 0
M  V30 5788 C 541.423 -1.6604 -0.0444951 0
M  V30 5789 O 542.608 -1.90477 0.110999 0
M  V30 5790 C 539.748 -3.38745 0.659235 0
M  V30 5791 C 538.861 -3.9173 1.82131 0
M  V30 5792 C 537.996 -5.12906 1.38208 0
M  V30 5793 C 537.035 -5.58098 2.51382 0
M  V30 5794 N 536.172 -6.7049 2.08295 0
M  V30 5795 H 541.012 -2.22616 1.98107 0
M  V30 5796 H 538.549 -1.09103 0.986661 0
M  V30 5797 H 540.507 -4.15107 0.417371 0
M  V30 5798 H 539.137 -3.21898 -0.241201 0
M  V30 5799 H 538.189 -3.11966 2.17672 0
M  V30 5800 H 539.501 -4.21225 2.67153 0
M  V30 5801 H 538.655 -5.96657 1.09935 0
M  V30 5802 H 537.394 -4.85105 0.502456 0
M  V30 5803 H 536.399 -4.72917 2.80409 0
M  V30 5804 H 537.624 -5.87911 3.39909 0
M  V30 5805 H 535.57 -6.44416 1.22737 0
M  V30 5806 H 535.487 -6.99458 2.86869 0
M  V30 5807 H 536.755 -7.57672 1.83175 0
M  V30 5808 N 540.985 -1.06182 -1.16461 0
M  V30 5809 C 542.234 -0.772927 -1.86303 0
M  V30 5810 C 542.547 0.703187 -1.82523 0
M  V30 5811 O 543.753 1.10641 -2.47933 0
M  V30 5812 C 542.209 -1.33249 -3.34324 0
M  V30 5813 C 541.817 -2.83876 -3.46581 0
M  V30 5814 C 543.561 -1.12108 -4.09429 0
M  V30 5815 C 541.468 -3.33082 -4.88682 0
M  V30 5816 H 540.398 -0.285452 -0.697878 0
M  V30 5817 H 543.049 -1.28039 -1.31447 0
M  V30 5818 H 541.431 -0.7528 -3.88779 0
M  V30 5819 H 542.605 -3.47786 -3.02293 0
M  V30 5820 H 540.92 -3.03671 -2.84909 0
M  V30 5821 H 543.517 -1.46361 -5.14279 0
M  V30 5822 H 543.86 -0.0593832 -4.16258 0
M  V30 5823 H 544.393 -1.6665 -3.6121 0
M  V30 5824 H 541.132 -4.38726 -4.87032 0
M  V30 5825 H 540.652 -2.73919 -5.33599 0
M  V30 5826 H 542.331 -3.28344 -5.57494 0
M  V30 5827 N 542.463 1.3308 -0.844243 0
M  V30 5828 C 543.395 2.27954 -0.238671 0
M  V30 5829 C 544.408 1.51978 0.583665 0
M  V30 5830 O 545.597 1.73731 0.409857 0
M  V30 5831 C 542.697 3.31963 0.682185 0
M  V30 5832 C 541.87 4.37281 -0.101998 0
M  V30 5833 C 540.929 5.20928 0.743022 0
M  V30 5834 O 539.955 5.68914 0.180285 0
M  V30 5835 N 541.157 5.42738 2.0595 0
M  V30 5836 H 543.922 2.8056 -1.05386 0
M  V30 5837 H 541.483 1.4583 -0.70322 0
M  V30 5838 H 543.475 3.84828 1.25259 0
M  V30 5839 H 542.045 2.79594 1.39808 0
M  V30 5840 H 541.265 3.84843 -0.853802 0
M  V30 5841 H 542.553 5.04746 -0.641015 0
M  V30 5842 H 541.951 5.05463 2.54016 0
M  V30 5843 H 540.508 5.98639 2.57827 0
M  V30 5844 N 543.941 0.601185 1.45683 0
M  V30 5845 C 545.218 0.0261659 1.95582 0
M  V30 5846 C 545.598 -1.4399 1.5437 0
M  V30 5847 O 544.946 -2.13919 0.80318 0
M  V30 5848 C 545.156 0.217557 3.48321 0
M  V30 5849 C 546.504 0.0950076 4.24494 0
M  V30 5850 O 547.528 0.147345 3.55895 0
M  V30 5851 O 546.387 -0.025261 5.46494 0
M  V30 5852 H 543.481 -0.0393688 0.826062 0
M  V30 5853 H 546.027 0.670798 1.55879 0
M  V30 5854 H 544.799 1.23601 3.71266 0
M  V30 5855 H 544.422 -0.46264 3.94899 0
M  V30 5856 N 545.419 -1.53889 0.339982 0
M  V30 5857 C 546.666 -2.00855 -0.257621 0
M  V30 5858 C 546.994 -1.22788 -1.50842 0
M  V30 5859 O 546.249 -0.302567 -1.93347 0
M  V30 5860 C 546.548 -3.51968 -0.620735 0
M  V30 5861 C 546.214 -4.47741 0.532771 0
M  V30 5862 C 544.876 -4.73645 0.849339 0
M  V30 5863 C 547.228 -5.04551 1.3068 0
M  V30 5864 C 544.556 -5.53614 1.94237 0
M  V30 5865 C 546.908 -5.85713 2.39005 0
M  V30 5866 C 545.572 -6.09912 2.71225 0
M  V30 5867 H 544.842 -0.734979 -0.0942703 0
M  V30 5868 H 547.489 -1.85714 0.467159 0
M  V30 5869 H 545.794 -3.64921 -1.42618 0
M  V30 5870 H 547.491 -3.85762 -1.09495 0
M  V30 5871 H 544.081 -4.27711 0.275973 0
M  V30 5872 H 548.265 -4.84507 1.07549 0
M  V30 5873 H 543.521 -5.7059 2.19628 0
M  V30 5874 H 547.695 -6.28748 2.99415 0
M  V30 5875 H 545.322 -6.71665 3.56047 0
M  V30 5876 N 546.897 -0.0685191 -1.57451 0
M  V30 5877 C 547.83 0.935736 -2.08133 0
M  V30 5878 C 548.808 1.29317 -0.985698 0
M  V30 5879 O 549.992 1.40304 -1.25886 0
M  V30 5880 C 547.119 2.2448 -2.53627 0
M  V30 5881 C 546.165 2.03917 -3.74593 0
M  V30 5882 S 546.998 1.30154 -5.19442 0
M  V30 5883 C 548.154 2.62346 -5.68265 0
M  V30 5884 H 548.387 0.504473 -2.92989 0
M  V30 5885 H 545.92 0.144169 -1.53725 0
M  V30 5886 H 547.878 2.99718 -2.80499 0
M  V30 5887 H 546.539 2.64731 -1.69045 0
M  V30 5888 H 545.732 3.00788 -4.04404 0
M  V30 5889 H 545.334 1.36815 -3.48077 0
M  V30 5890 H 547.626 3.58448 -5.7491 0
M  V30 5891 H 548.569 2.3715 -6.67207 0
M  V30 5892 H 548.977 2.69401 -4.96068 0
M  V30 5893 N 548.375 1.56261 0.205012 0
M  V30 5894 C 549.791 1.49623 0.555433 0
M  V30 5895 C 549.991 0.766719 1.86343 0
M  V30 5896 O 549.047 0.313158 2.50551 0
M  V30 5897 C 550.36 2.94253 0.619347 0
M  V30 5898 C 551.908 3.04868 0.708855 0
M  V30 5899 C 552.383 4.50888 0.803969 0
M  V30 5900 N 553.874 4.54999 0.867758 0
M  V30 5901 C 554.609 5.65284 0.96135 0
M  V30 5902 N 554.105 6.85282 1.01786 0
M  V30 5903 N 555.898 5.53174 0.997771 0
M  V30 5904 H 548.049 2.0211 -0.653094 0
M  V30 5905 H 550.312 0.919333 -0.231366 0
M  V30 5906 H 550.018 3.50643 -0.272458 0
M  V30 5907 H 549.892 3.47063 1.47741 0
M  V30 5908 H 552.279 2.48532 1.5911 0
M  V30 5909 H 552.36 2.55199 -0.175205 0
M  V30 5910 H 552.004 5.07846 -0.0738798 0
M  V30 5911 H 551.934 4.98279 1.70369 0
M  V30 5912 H 554.425 3.68588 0.833735 0
M  V30 5913 H 554.738 7.65081 1.08951 0
M  V30 5914 H 553.083 6.8796 0.986706 0
M  V30 5915 H 556.274 4.5835 0.950392 0
M  V30 5916 H 556.447 6.39151 1.06725 0
M  V30 5917 N 549.853 -0.472356 1.50355 0
M  V30 5918 C 550.785 -1.58795 1.65278 0
M  V30 5919 C 551.798 -1.53782 0.534313 0
M  V30 5920 O 552.987 -1.59193 0.807446 0
M  V30 5921 C 550.087 -2.97672 1.62001 0
M  V30 5922 C 549.26 -3.27568 2.89859 0
M  V30 5923 C 548.319 -4.45993 2.79242 0
M  V30 5924 O 547.345 -4.46364 3.53197 0
M  V30 5925 N 548.547 -5.47578 1.92713 0
M  V30 5926 H 551.312 -1.46411 2.61503 0
M  V30 5927 H 548.873 -0.660751 1.47803 0
M  V30 5928 H 550.865 -3.74862 1.52513 0
M  V30 5929 H 549.435 -3.03832 0.735159 0
M  V30 5930 H 548.655 -2.39003 3.13483 0
M  V30 5931 H 549.943 -3.44352 3.74565 0
M  V30 5932 H 549.341 -5.50099 1.31939 0
M  V30 5933 H 547.898 -6.23757 1.8913 0
M  V30 5934 N 551.331 -1.39911 -0.725443 0
M  V30 5935 C 552.278 -1.39393 -1.83952 0
M  V30 5936 C 553.248 -0.252249 -1.64173 0
M  V30 5937 O 554.433 -0.44882 -1.85446 0
M  V30 5938 C 551.573 -1.25262 -3.21564 0
M  V30 5939 C 550.686 -2.49054 -3.52982 0
M  V30 5940 C 549.821 -2.27439 -4.80047 0
M  V30 5941 C 548.86 -3.46857 -5.04338 0
M  V30 5942 N 547.997 -3.24499 -6.22611 0
M  V30 5943 H 552.837 -2.34622 -1.83729 0
M  V30 5944 H 550.374 -1.16537 -0.897636 0
M  V30 5945 H 552.332 -1.15077 -4.01015 0
M  V30 5946 H 550.962 -0.33657 -3.21041 0
M  V30 5947 H 550.014 -2.69805 -2.6816 0
M  V30 5948 H 551.326 -3.37973 -3.66846 0
M  V30 5949 H 550.48 -2.14551 -5.67497 0
M  V30 5950 H 549.219 -1.35929 -4.68374 0
M  V30 5951 H 548.224 -3.60232 -4.15346 0
M  V30 5952 H 549.449 -4.3928 -5.17889 0
M  V30 5953 H 547.395 -2.35663 -6.12208 0
M  V30 5954 H 547.312 -4.06978 -6.37106 0
M  V30 5955 H 548.58 -3.15325 -7.12875 0
M  V30 5956 N 552.809 0.956637 -1.25245 0
M  V30 5957 C 554.057 1.69764 -1.09657 0
M  V30 5958 C 554.378 1.91583 0.363464 0
M  V30 5959 O 553.648 1.50149 1.25825 0
M  V30 5960 H 552.228 0.629097 -0.402798 0
M  V30 5961 H 554.89 1.15026 -1.57337 0
M  V30 5962 H 553.986 2.67769 -1.60331 0
M  V30 5963 N 554.287 1.06798 1.15896 0
M  V30 5964 C 555.534 0.787767 1.86549 0
M  V30 5965 C 555.862 -0.685959 1.82002 0
M  V30 5966 O 555.117 -1.5188 1.23414 0
M  V30 5967 C 555.416 1.23414 3.35416 0
M  V30 5968 C 555.082 2.71285 3.6016 0
M  V30 5969 C 553.744 3.11676 3.66622 0
M  V30 5970 C 556.096 3.6676 3.7032 0
M  V30 5971 C 553.424 4.4637 3.8075 0
M  V30 5972 C 555.776 5.01209 3.8597 0
M  V30 5973 C 554.44 5.41229 3.90676 0
M  V30 5974 H 553.71 0.288264 0.682631 0
M  V30 5975 H 556.357 1.338 1.37003 0
M  V30 5976 H 554.662 0.60319 3.87129 0
M  V30 5977 H 556.359 0.994298 3.88477 0
M  V30 5978 H 552.949 2.39015 3.55767 0
M  V30 5979 H 557.133 3.36685 3.64633 0
M  V30 5980 H 552.389 4.76855 3.82648 0
M  V30 5981 H 556.563 5.75067 3.92773 0
M  V30 5982 H 554.19 6.45602 4.01375 0
M  V30 5983 N 555.766 -1.3263 0.851289 0
M  V30 5984 C 557.014 -1.96978 0.452128 0
M  V30 5985 C 557.335 -1.67715 -0.99482 0
M  V30 5986 O 556.605 -0.98259 -1.69476 0
M  V30 5987 H 555.185 -0.72873 0.164202 0
M  V30 5988 H 557.847 -1.61774 1.08698 0
M  V30 5989 H 556.943 -3.06387 0.594407 0
M  V30 5990 N 557.244 -0.608902 -1.45362 0
M  V30 5991 C 558.472 -0.111013 -2.06602 0
M  V30 5992 C 558.887 1.20516 -1.45332 0
M  V30 5993 O 558.244 1.73437 -0.567978 0
M  V30 5994 C 558.295 0.033688 -3.61484 0
M  V30 5995 O 558.016 -1.23041 -4.20467 0
M  V30 5996 C 559.517 0.562882 -4.39712 0
M  V30 5997 H 556.737 -0.0694453 -0.667397 0
M  V30 5998 H 559.281 -0.837008 -1.86586 0
M  V30 5999 H 557.436 0.710016 -3.80838 0
M  V30 6000 H 557.85 -1.06094 -5.13658 0
M  V30 6001 H 559.324 0.613213 -5.48583 0
M  V30 6002 H 559.801 1.58543 -4.09586 0
M  V30 6003 H 560.407 -0.0794454 -4.25226 0
M  V30 6004 N 558.722 1.53707 -0.348139 0
M  V30 6005 C 559.999 1.93247 0.302475 0
M  V30 6006 C 560.379 1.28012 1.67857 0
M  V30 6007 O 559.727 0.43274 2.24365 0
M  V30 6008 C 559.937 3.47031 0.370159 0
M  V30 6009 C 561.285 4.20066 0.61882 0
M  V30 6010 O 562.309 3.53319 0.452087 0
M  V30 6011 O 561.168 5.38318 0.94215 0
M  V30 6012 H 558.262 0.807736 0.177458 0
M  V30 6013 H 560.808 1.64927 -0.399651 0
M  V30 6014 H 559.58 3.86745 -0.59534 0
M  V30 6015 H 559.203 3.81532 1.11888 0
M  V30 6016 N 560.2 0.0768682 1.57412 0
M  V30 6017 C 561.447 -0.591085 1.93681 0
M  V30 6018 C 561.775 -1.69311 0.957286 0
M  V30 6019 O 561.03 -1.95682 -0.0262428 0
M  V30 6020 C 561.329 -1.20268 3.36557 0
M  V30 6021 C 560.995 -0.226286 4.50332 0
M  V30 6022 C 559.657 0.0423142 4.81181 0
M  V30 6023 C 562.009 0.441415 5.19327 0
M  V30 6024 C 559.337 0.985616 5.78362 0
M  V30 6025 C 561.689 1.37307 6.17519 0
M  V30 6026 C 560.353 1.65009 6.46783 0
M  V30 6027 H 559.623 -0.216293 0.70873 0
M  V30 6028 H 562.27 0.148824 1.90921 0
M  V30 6029 H 560.575 -2.01844 3.35807 0
M  V30 6030 H 562.272 -1.72688 3.61911 0
M  V30 6031 H 558.862 -0.445821 4.26275 0
M  V30 6032 H 563.046 0.247023 4.95685 0
M  V30 6033 H 558.302 1.20743 5.99359 0
M  V30 6034 H 562.476 1.89637 6.70083 0
M  V30 6035 H 560.103 2.38263 7.21897 0
M  V30 6036 N 561.678 -1.56367 -0.196722 0
M  V30 6037 C 562.625 -1.94417 -1.24382 0
M  V30 6038 C 563.595 -0.804543 -1.45315 0
M  V30 6039 O 564.78 -1.06256 -1.58475 0
M  V30 6040 C 561.92 -2.28757 -2.58388 0
M  V30 6041 C 561.033 -3.55775 -2.45047 0
M  V30 6042 C 560.168 -3.79445 -3.71746 0
M  V30 6043 C 559.207 -4.99894 -3.53231 0
M  V30 6044 N 558.344 -5.19826 -4.71938 0
M  V30 6045 H 563.184 -2.83691 -0.912338 0
M  V30 6046 H 560.721 -1.40392 -0.439135 0
M  V30 6047 H 562.679 -2.46682 -3.36457 0
M  V30 6048 H 561.309 -1.42625 -2.89582 0
M  V30 6049 H 560.361 -3.45905 -1.58284 0
M  V30 6050 H 561.673 -4.44 -2.27299 0
M  V30 6051 H 560.827 -3.97601 -4.58256 0
M  V30 6052 H 559.566 -2.89546 -3.92446 0
M  V30 6053 H 558.571 -4.81662 -2.65107 0
M  V30 6054 H 559.796 -5.913 -3.33978 0
M  V30 6055 H 557.742 -4.32875 -4.92905 0
M  V30 6056 H 557.659 -6.02228 -4.57009 0
M  V30 6057 H 558.927 -5.42439 -5.59803 0
M  V30 6058 N 563.156 0.464375 -1.50603 0
M  V30 6059 C 564.103 1.56152 -1.69956 0
M  V30 6060 C 565.073 1.57046 -0.54091 0
M  V30 6061 O 566.258 1.74473 -0.772258 0
M  V30 6062 C 563.398 2.94079 -1.80586 0
M  V30 6063 C 562.511 3.02923 -3.07996 0
M  V30 6064 C 561.646 4.31806 -3.09382 0
M  V30 6065 C 560.685 4.34417 -4.31218 0
M  V30 6066 N 559.822 5.54782 -4.30304 0
M  V30 6067 H 564.662 1.38955 -2.6362 0
M  V30 6068 H 562.199 0.675482 -1.30674 0
M  V30 6069 H 564.157 3.74073 -1.8473 0
M  V30 6070 H 562.787 3.09896 -0.903556 0
M  V30 6071 H 561.839 2.1576 -3.13292 0
M  V30 6072 H 563.151 3.00712 -3.97962 0
M  V30 6073 H 562.305 5.20153 -3.12292 0
M  V30 6074 H 561.044 4.36636 -2.17257 0
M  V30 6075 H 560.049 3.44467 -4.28512 0
M  V30 6076 H 561.274 4.31273 -5.24576 0
M  V30 6077 H 559.22 5.60384 -3.41037 0
M  V30 6078 H 559.137 5.54339 -5.14047 0
M  V30 6079 H 560.405 6.45235 -4.3737 0
M  V30 6080 N 564.634 1.40294 0.718013 0
M  V30 6081 C 565.564 1.43118 1.84498 0
M  V30 6082 C 566.545 0.292403 1.67568 0
M  V30 6083 O 567.73 0.500675 1.87635 0
M  V30 6084 C 564.86 1.29065 3.22427 0
M  V30 6085 C 563.814 2.40521 3.54025 0
M  V30 6086 C 563.14 2.11546 4.91073 0
M  V30 6087 C 564.44 3.82859 3.55269 0
M  V30 6088 H 566.134 2.37432 1.82391 0
M  V30 6089 H 563.68 1.14283 0.87609 0
M  V30 6090 H 565.633 1.29658 4.00957 0
M  V30 6091 H 564.357 0.312271 3.25104 0
M  V30 6092 H 563.016 2.39173 2.77834 0
M  V30 6093 H 562.664 1.12104 4.90348 0
M  V30 6094 H 562.364 2.86216 5.1318 0
M  V30 6095 H 563.888 2.13817 5.71939 0
M  V30 6096 H 565.302 3.86044 4.23843 0
M  V30 6097 H 563.699 4.57029 3.88902 0
M  V30 6098 H 564.769 4.12617 2.54706 0
M  V30 6099 N 566.112 -0.949982 1.2575 0
M  V30 6100 C 567.022 -2.08109 1.08295 0
M  V30 6101 C 568.038 -1.7399 0.0188181 0
M  V30 6102 O 569.214 -2.00187 0.220724 0
M  V30 6103 C 566.279 -3.39383 0.708534 0
M  V30 6104 C 565.34 -3.8734 1.85111 0
M  V30 6105 C 564.573 -5.12349 1.49447 0
M  V30 6106 O 564.796 -5.6905 0.392212 0
M  V30 6107 O 563.73 -5.5513 2.32624 0
M  V30 6108 H 567.556 -2.25738 2.03165 0
M  V30 6109 H 565.141 -1.06545 1.04731 0
M  V30 6110 H 567.023 -4.18277 0.512061 0
M  V30 6111 H 565.698 -3.23013 -0.210854 0
M  V30 6112 H 564.605 -3.09429 2.10248 0
M  V30 6113 H 565.938 -4.08216 2.74991 0
M  V30 6114 N 567.59 -1.07411 -1.15328 0
M  V30 6115 C 568.815 -0.818856 -1.90551 0
M  V30 6116 C 569.24 0.622194 -1.77512 0
M  V30 6117 O 568.598 1.43484 -1.10824 0
M  V30 6118 C 568.646 -1.23267 -3.38877 0
M  V30 6119 O 567.75 -0.378345 -4.10661 0
M  V30 6120 H 567.091 -0.29827 -0.593238 0
M  V30 6121 H 569.621 -1.43289 -1.46046 0
M  V30 6122 H 569.631 -1.20912 -3.89672 0
M  V30 6123 H 568.306 -2.28226 -3.47686 0
M  V30 6124 H 566.883 -0.464437 -3.69996 0
M  V30 6125 N 569.068 1.32177 -0.85831 0
M  V30 6126 C 570.315 1.97125 -0.463484 0
M  V30 6127 C 570.643 1.67907 0.981705 0
M  V30 6128 O 569.898 0.961717 1.70439 0
M  V30 6129 C 570.197 3.51372 -0.653658 0
M  V30 6130 C 569.863 4.00584 -2.06987 0
M  V30 6131 C 568.525 4.13733 -2.4572 0
M  V30 6132 C 570.877 4.26624 -2.99402 0
M  V30 6133 C 568.205 4.50268 -3.76132 0
M  V30 6134 C 570.557 4.64618 -4.29316 0
M  V30 6135 C 569.221 4.75975 -4.67979 0
M  V30 6136 H 568.491 0.72133 -0.169601 0
M  V30 6137 H 571.138 1.57517 -1.08907 0
M  V30 6138 H 569.443 3.91761 0.0551328 0
M  V30 6139 H 571.14 3.99655 -0.328163 0
M  V30 6140 H 567.73 3.90837 -1.75911 0
M  V30 6141 H 571.914 4.1597 -2.70708 0
M  V30 6142 H 567.17 4.57256 -4.05865 0
M  V30 6143 H 571.344 4.83722 -5.00985 0
M  V30 6144 H 568.971 5.04041 -5.69076 0
M  V30 6145 N 570.547 0.616602 1.45037 0
M  V30 6146 C 571.777 0.121791 2.06241 0
M  V30 6147 C 572.185 -1.20289 1.46038 0
M  V30 6148 O 571.528 -1.7456 0.572242 0
M  V30 6149 C 571.59 -0.0827345 3.59405 0
M  V30 6150 C 571.254 1.16153 4.41993 0
M  V30 6151 C 572.251 2.08183 4.76399 0
M  V30 6152 C 569.936 1.39288 4.82601 0
M  V30 6153 C 571.93 3.21668 5.5028 0
M  V30 6154 C 569.617 2.53073 5.56235 0
M  V30 6155 C 570.615 3.44091 5.89992 0
M  V30 6156 O 570.303 4.55894 6.6213 0
M  V30 6157 H 570.035 0.0701667 0.672349 0
M  V30 6158 H 572.589 0.846877 1.87129 0
M  V30 6159 H 570.819 -0.862812 3.76952 0
M  V30 6160 H 572.508 -0.530273 4.02421 0
M  V30 6161 H 573.274 1.91538 4.45576 0
M  V30 6162 H 569.153 0.693396 4.55755 0
M  V30 6163 H 572.697 3.92733 5.76547 0
M  V30 6164 H 568.594 2.69667 5.86472 0
M  V30 6165 H 569.362 4.5469 6.80587 0
M  V30 6166 N 572.025 -1.5352 0.356285 0
M  V30 6167 C 573.274 -2.00298 -0.237373 0
M  V30 6168 C 573.587 -1.24784 -1.50627 0
M  V30 6169 O 574.793 -1.62103 -2.17795 0
M  V30 6170 C 573.249 -3.56771 -0.473545 0
M  V30 6171 C 572.857 -4.41154 0.780183 0
M  V30 6172 C 574.601 -4.1193 -1.02537 0
M  V30 6173 C 572.508 -5.89161 0.514108 0
M  V30 6174 H 571.438 -0.748307 -0.092478 0
M  V30 6175 H 574.089 -1.77283 0.473588 0
M  V30 6176 H 572.471 -3.75902 -1.24553 0
M  V30 6177 H 573.645 -4.33797 1.55425 0
M  V30 6178 H 571.96 -3.97052 1.25455 0
M  V30 6179 H 574.557 -5.20133 -1.2396 0
M  V30 6180 H 574.9 -3.65943 -1.98473 0
M  V30 6181 H 575.433 -3.96561 -0.313775 0
M  V30 6182 H 572.172 -6.39408 1.44355 0
M  V30 6183 H 571.692 -5.9939 -0.221632 0
M  V30 6184 H 573.371 -6.46857 0.136122 0
M  V30 6185 N 573.503 -0.0852151 -1.57369 0
M  V30 6186 C 574.435 0.907099 -2.10486 0
M  V30 6187 C 575.448 1.25259 -1.03991 0
M  V30 6188 O 576.637 1.20743 -1.31467 0
M  V30 6189 C 573.737 2.21908 -2.56145 0
M  V30 6190 C 572.91 2.05042 -3.86363 0
M  V30 6191 C 571.969 3.19664 -4.17973 0
M  V30 6192 O 570.995 2.94062 -4.87356 0
M  V30 6193 N 572.197 4.45151 -3.72587 0
M  V30 6194 H 574.962 0.453505 -2.96249 0
M  V30 6195 H 572.523 0.100157 -1.6159 0
M  V30 6196 H 574.515 2.97519 -2.74343 0
M  V30 6197 H 573.085 2.58723 -1.75446 0
M  V30 6198 H 572.305 1.13819 -3.77411 0
M  V30 6199 H 573.593 1.91039 -4.71574 0
M  V30 6200 H 572.991 4.68834 -3.16561 0
M  V30 6201 H 571.548 5.17744 -3.9596 0
M  V30 6202 N 574.981 1.5647 0.188427 0
M  V30 6203 C 575.928 1.95073 1.23349 0
M  V30 6204 C 576.898 0.812238 1.44886 0
M  V30 6205 O 578.083 1.07095 1.57909 0
M  V30 6206 C 575.223 2.30124 2.57171 0
M  V30 6207 C 574.336 3.57069 2.43157 0
M  V30 6208 C 573.471 3.81411 3.69729 0
M  V30 6209 C 572.51 5.0176 3.50575 0
M  V30 6210 N 571.647 5.22321 4.69175 0
M  V30 6211 H 576.487 2.84171 0.89728 0
M  V30 6212 H 574.024 1.40623 0.431683 0
M  V30 6213 H 575.982 2.48463 3.35145 0
M  V30 6214 H 574.612 1.44159 2.88822 0
M  V30 6215 H 573.664 3.4674 1.56447 0
M  V30 6216 H 574.976 4.452 2.24942 0
M  V30 6217 H 574.13 4.00026 4.56141 0
M  V30 6218 H 572.869 2.91624 3.90905 0
M  V30 6219 H 571.874 4.83061 2.62549 0
M  V30 6220 H 573.099 5.93063 3.30837 0
M  V30 6221 H 571.045 4.35483 4.90602 0
M  V30 6222 H 570.962 6.04643 4.53809 0
M  V30 6223 H 572.23 5.45401 5.56919 0
M  V30 6224 N 576.459 -0.456382 1.50847 0
M  V30 6225 C 577.705 -1.20914 1.62811 0
M  V30 6226 C 578.038 -1.91301 0.334304 0
M  V30 6227 O 577.313 -1.82775 -0.665098 0
M  V30 6228 C 577.596 -2.24122 2.81853 0
M  V30 6229 C 577.449 -1.57944 4.21158 0
M  V30 6230 C 578.768 -3.25295 2.96431 0
M  V30 6231 H 575.887 -0.438233 0.592554 0
M  V30 6232 H 578.529 -0.50091 1.83278 0
M  V30 6233 H 576.679 -2.84524 2.64534 0
M  V30 6234 H 578.351 -1.01025 4.50102 0
M  V30 6235 H 576.594 -0.882185 4.24735 0
M  V30 6236 H 577.265 -2.33014 5.00408 0
M  V30 6237 H 579.741 -2.7493 3.12335 0
M  V30 6238 H 578.617 -3.94822 3.81322 0
M  V30 6239 H 578.878 -3.90286 2.07676 0
M  V30 6240 N 577.937 -1.40673 -0.710563 0
M  V30 6241 C 578.867 -1.44095 -1.83736 0
M  V30 6242 C 579.848 -0.301286 -1.67411 0
M  V30 6243 O 581.033 -0.510618 -1.87367 0
M  V30 6244 C 578.163 -1.30773 -3.21738 0
M  V30 6245 C 577.117 -2.42395 -3.52745 0
M  V30 6246 C 576.443 -2.14147 -4.89944 0
M  V30 6247 C 577.743 -3.84738 -3.53234 0
M  V30 6248 H 579.437 -2.38396 -1.81129 0
M  V30 6249 H 576.983 -1.14746 -0.870017 0
M  V30 6250 H 578.936 -1.31783 -4.00264 0
M  V30 6251 H 577.66 -0.329507 -3.24934 0
M  V30 6252 H 576.319 -2.40643 -2.76562 0
M  V30 6253 H 575.967 -1.14703 -4.89747 0
M  V30 6254 H 575.667 -2.88934 -5.11655 0
M  V30 6255 H 577.191 -2.16848 -5.70797 0
M  V30 6256 H 578.605 -3.88286 -4.2179 0
M  V30 6257 H 577.002 -4.59085 -3.86473 0
M  V30 6258 H 578.072 -4.13962 -2.52514 0
M  V30 6259 N 579.415 0.9433 -1.26252 0
M  V30 6260 C 580.692 1.66639 -1.02424 0
M  V30 6261 C 581.072 2.06335 0.446006 0
M  V30 6262 O 580.42 1.78551 1.42589 0
M  V30 6263 C 580.63 2.88019 -1.97094 0
M  V30 6264 C 581.978 3.59718 -2.25584 0
M  V30 6265 O 583.002 2.9812 -1.94943 0
M  V30 6266 O 581.861 4.7066 -2.77743 0
M  V30 6267 H 578.955 0.729643 -0.389294 0
M  V30 6268 H 581.501 0.995218 -1.37454 0
M  V30 6269 H 580.273 2.5556 -2.96319 0
M  V30 6270 H 579.896 3.62863 -1.62532 0
M  V30 6271 N 580.893 1.08022 1.14757 0
M  V30 6272 C 582.142 0.802468 1.8505 0
M  V30 6273 C 582.455 -0.674061 1.83619 0
M  V30 6274 O 583.661 -1.06683 2.49662 0
M  V30 6275 C 582.117 1.38551 3.32162 0
M  V30 6276 C 581.725 2.89354 3.42021 0
M  V30 6277 C 583.469 1.18608 4.07594 0
M  V30 6278 C 581.376 3.40815 4.83321 0
M  V30 6279 H 580.306 0.296518 0.693248 0
M  V30 6280 H 582.957 1.30114 1.29393 0
M  V30 6281 H 581.339 0.814556 3.87532 0
M  V30 6282 H 582.513 3.52552 2.96722 0
M  V30 6283 H 580.828 3.08165 2.80041 0
M  V30 6284 H 583.425 1.54525 5.11885 0
M  V30 6285 H 583.768 0.125599 4.1611 0
M  V30 6286 H 584.301 1.72375 3.58513 0
M  V30 6287 H 581.04 4.46418 4.79991 0
M  V30 6288 H 580.56 2.82374 5.29174 0
M  V30 6289 H 582.239 3.37171 5.522 0
M  V30 6290 N 582.371 -1.3172 0.865308 0
M  V30 6291 C 583.62 -1.96145 0.470098 0
M  V30 6292 C 583.933 -1.69182 -0.981674 0
M  V30 6293 O 585.139 -2.27431 -1.48281 0
M  V30 6294 C 583.595 -3.51129 0.789732 0
M  V30 6295 C 583.203 -3.86938 2.25795 0
M  V30 6296 C 584.947 -4.2197 0.462765 0
M  V30 6297 C 582.854 -5.35012 2.52024 0
M  V30 6298 H 581.784 -0.734105 0.172065 0
M  V30 6299 H 584.435 -1.49959 1.05757 0
M  V30 6300 H 582.817 -3.95781 0.131571 0
M  V30 6301 H 583.991 -3.5326 2.95879 0
M  V30 6302 H 582.306 -3.29149 2.55049 0
M  V30 6303 H 584.903 -5.30904 0.636019 0
M  V30 6304 H 585.246 -4.12005 -0.59645 0
M  V30 6305 H 585.779 -3.82936 1.07727 0
M  V30 6306 H 582.518 -5.50008 3.56611 0
M  V30 6307 H 582.038 -5.70058 1.8653 0
M  V30 6308 H 583.717 -6.0222 2.36515 0
M  V30 6309 N 583.85 -0.624285 -1.44708 0
M  V30 6310 C 584.812 0.0749638 -2.29077 0
M  V30 6311 C 585.812 0.778965 -1.40673 0
M  V30 6312 O 587.003 0.624591 -1.62618 0
M  V30 6313 C 584.135 1.11663 -3.22094 0
M  V30 6314 H 585.327 -0.667013 -2.92388 0
M  V30 6315 H 582.88 -0.384098 -1.51507 0
M  V30 6316 H 583.615 1.88881 -2.63618 0
M  V30 6317 H 583.401 0.61583 -3.87234 0
M  V30 6318 H 584.891 1.60585 -3.8549 0
M  V30 6319 N 585.328 1.53329 -0.364422 0
M  V30 6320 C 586.556 2.05657 0.226424 0
M  V30 6321 C 586.971 1.23801 1.42544 0
M  V30 6322 O 586.328 0.27839 1.80364 0
M  V30 6323 C 586.379 3.56125 0.621056 0
M  V30 6324 O 586.1 4.34879 -0.530304 0
M  V30 6325 C 587.601 4.24706 1.27041 0
M  V30 6326 H 584.821 0.669806 0.0400056 0
M  V30 6327 H 587.365 1.97714 -0.522456 0
M  V30 6328 H 585.52 3.64223 1.31985 0
M  V30 6329 H 585.934 5.24073 -0.211546 0
M  V30 6330 H 587.408 5.3131 1.49711 0
M  V30 6331 H 587.885 3.78354 2.23036 0
M  V30 6332 H 588.491 4.20858 0.613079 0
M  V30 6333 N 586.806 0.0935595 1.57322 0
M  V30 6334 C 588.055 -0.570191 1.93473 0
M  V30 6335 C 588.368 -1.69434 0.977318 0
M  V30 6336 O 589.574 -2.41914 1.23248 0
M  V30 6337 C 588.03 -1.06564 3.43762 0
M  V30 6338 C 587.638 0.0286723 4.47991 0
M  V30 6339 C 589.382 -1.70221 3.88877 0
M  V30 6340 C 587.289 -0.482046 5.89432 0
M  V30 6341 H 586.219 -0.216764 0.72217 0
M  V30 6342 H 588.87 0.169313 1.82717 0
M  V30 6343 H 587.252 -1.85878 3.49664 0
M  V30 6344 H 588.426 0.804106 4.5373 0
M  V30 6345 H 586.741 0.570336 4.12476 0
M  V30 6346 H 589.338 -2.09502 4.91948 0
M  V30 6347 H 589.681 -2.57078 3.27439 0
M  V30 6348 H 590.214 -0.974919 3.85668 0
M  V30 6349 H 586.953 0.349871 6.54566 0
M  V30 6350 H 586.473 -1.22452 5.87167 0
M  V30 6351 H 588.152 -0.951508 6.39965 0
M  V30 6352 N 588.284 -1.56567 -0.180126 0
M  V30 6353 C 589.232 -1.96632 -1.24251 0
M  V30 6354 C 590.226 -0.853818 -1.46309 0
M  V30 6355 O 591.432 -1.0389 -1.46993 0
M  V30 6356 H 587.807 -0.625476 -0.417473 0
M  V30 6357 H 589.778 -2.85201 -0.877679 0
M  V30 6358 C 588.527 -2.33486 -2.57642 0
M  V30 6359 H 587.85 -3.18626 -2.4149 0
M  V30 6360 H 589.29 -2.65371 -3.30688 0
M  V30 6361 C 587.749 -1.17499 -3.15746 0
M  V30 6362 O 588.279 -0.457956 -3.99081 0
M  V30 6363 N 586.485 -0.94786 -2.74707 0
M  V30 6364 H 586.032 -1.53269 -2.07042 0
M  V30 6365 H 585.99 -0.173626 -3.1392 0
M  V30 6366 N 589.762 0.448376 -1.51087 0
M  V30 6367 C 590.709 1.54341 -1.71603 0
M  V30 6368 C 591.679 1.56463 -0.557536 0
M  V30 6369 O 592.864 1.73644 -0.79072 0
M  V30 6370 C 590.004 2.92148 -1.83695 0
M  V30 6371 C 589.117 2.99639 -3.11192 0
M  V30 6372 C 588.252 4.285 -3.13944 0
M  V30 6373 C 587.291 4.29819 -4.35801 0
M  V30 6374 N 586.428 5.50186 -4.36164 0
M  V30 6375 H 591.268 1.36151 -2.65079 0
M  V30 6376 H 588.805 0.661585 -1.31383 0
M  V30 6377 H 590.763 3.72093 -1.88687 0
M  V30 6378 H 589.393 3.0892 -0.936374 0
M  V30 6379 H 588.445 2.12425 -3.15562 0
M  V30 6380 H 589.757 2.96474 -4.01129 0
M  V30 6381 H 588.911 5.16811 -3.17791 0
M  V30 6382 H 587.65 4.34307 -2.21876 0
M  V30 6383 H 586.655 3.39902 -4.32142 0
M  V30 6384 H 587.88 4.25685 -5.29121 0
M  V30 6385 H 585.826 5.56735 -3.46961 0
M  V30 6386 H 585.743 5.48856 -5.19897 0
M  V30 6387 H 587.011 6.40559 -4.44189 0
M  V30 6388 N 591.24 1.41047 0.703093 0
M  V30 6389 C 592.488 1.39723 1.4602 0
M  V30 6390 C 592.809 0.00461257 1.94999 0
M  V30 6391 O 592.079 -0.952292 1.71196 0
M  V30 6392 H 590.659 0.514281 0.541779 0
M  V30 6393 H 593.321 1.76217 0.832678 0
M  V30 6394 H 592.417 2.07982 2.32701 0
M  V30 6395 N 592.718 -0.936591 1.26751 0
M  V30 6396 C 593.943 -1.72288 1.15462 0
M  V30 6397 C 594.368 -1.85915 -0.285887 0
M  V30 6398 O 593.726 -1.35272 -1.20711 0
M  V30 6399 C 593.774 -3.10503 1.83359 0
M  V30 6400 O 592.878 -3.96745 1.1255 0
M  V30 6401 H 592.219 -0.52843 0.402067 0
M  V30 6402 H 594.749 -1.17271 1.67656 0
M  V30 6403 H 594.759 -3.60867 1.90365 0
M  V30 6404 H 593.434 -2.99901 2.88153 0
M  V30 6405 H 592.011 -3.55191 1.13551 0
M  V30 6406 N 594.196 -1.08629 -1.14182 0
M  V30 6407 C 595.445 -0.812271 -1.84621 0
M  V30 6408 C 595.758 0.664313 -1.83973 0
M  V30 6409 O 596.964 1.05357 -2.50224 0
M  V30 6410 C 595.42 -1.4031 -3.31423 0
M  V30 6411 C 595.028 -2.91164 -3.40481 0
M  V30 6412 C 596.772 -1.20767 -4.06959 0
M  V30 6413 C 594.679 -3.43373 -4.81507 0
M  V30 6414 H 593.609 -0.30019 -0.691666 0
M  V30 6415 H 596.26 -1.30798 -1.28701 0
M  V30 6416 H 594.642 -0.835096 -3.87094 0
M  V30 6417 H 595.816 -3.5412 -2.94848 0
M  V30 6418 H 594.131 -3.09646 -2.78403 0
M  V30 6419 H 596.728 -1.57237 -5.11058 0
M  V30 6420 H 597.071 -0.147664 -4.16038 0
M  V30 6421 H 597.604 -1.74274 -3.57594 0
M  V30 6422 H 594.343 -4.48958 -4.77616 0
M  V30 6423 H 593.863 -2.85176 -5.27669 0
M  V30 6424 H 595.542 -3.40095 -5.50404 0
M  V30 6425 N 595.674 1.31259 -0.872281 0
M  V30 6426 C 596.92 1.96913 -0.485083 0
M  V30 6427 C 597.253 1.68774 0.960667 0
M  V30 6428 O 596.528 0.985495 1.67685 0
M  V30 6429 C 596.811 3.52299 -0.745502 0
M  V30 6430 C 596.664 3.90002 -2.24095 0
M  V30 6431 C 597.983 4.39582 -0.213516 0
M  V30 6432 H 595.102 0.715252 -0.177716 0
M  V30 6433 H 597.744 1.55347 -1.09395 0
M  V30 6434 H 595.894 3.87835 -0.227276 0
M  V30 6435 H 597.566 3.64555 -2.82661 0
M  V30 6436 H 595.809 3.38526 -2.71261 0
M  V30 6437 H 596.48 4.98352 -2.37381 0
M  V30 6438 H 598.956 4.10882 -0.656902 0
M  V30 6439 H 597.832 5.47251 -0.42516 0
M  V30 6440 H 598.093 4.33158 0.884666 0
M  V30 6441 N 597.152 0.631951 1.44375 0
M  V30 6442 C 598.398 0.145491 2.02879 0
M  V30 6443 C 598.753 -1.21936 1.48827 0
M  V30 6444 O 598.046 -1.7976 0.663085 0
M  V30 6445 C 598.24 0.0735861 3.57324 0
M  V30 6446 C 598.069 1.42992 4.2636 0
M  V30 6447 C 596.839 2.01691 4.63302 0
M  V30 6448 C 599.037 2.36393 4.56752 0
M  V30 6449 N 597.019 3.30551 5.17309 0
M  V30 6450 C 598.39 3.49869 5.11851 0
M  V30 6451 C 600.445 2.35462 4.38705 0
M  V30 6452 C 599.148 4.6261 5.50803 0
M  V30 6453 C 601.174 3.47268 4.78706 0
M  V30 6454 C 600.536 4.59467 5.33919 0
M  V30 6455 H 596.635 0.0971781 0.775938 0
M  V30 6456 H 599.219 0.835624 1.75856 0
M  V30 6457 H 597.39 -0.585829 3.83957 0
M  V30 6458 H 599.122 -0.421777 4.02496 0
M  V30 6459 H 595.877 1.54627 4.47647 0
M  V30 6460 H 596.301 3.96435 5.48788 0
M  V30 6461 H 600.943 1.49966 3.9531 0
M  V30 6462 H 598.661 5.48813 5.93152 0
M  V30 6463 H 602.247 3.47724 4.66454 0
M  V30 6464 H 601.127 5.44551 5.64299 0
M  V30 6465 N 598.631 -1.53133 0.372548 0
M  V30 6466 C 599.563 -2.23557 -0.505444 0
M  V30 6467 C 600.576 -1.25211 -1.04049 0
M  V30 6468 O 601.765 -1.51391 -0.945675 0
M  V30 6469 C 598.865 -2.92516 -1.71136 0
M  V30 6470 C 598.038 -4.17428 -1.30661 0
M  V30 6471 C 597.097 -4.69535 -2.37536 0
M  V30 6472 O 596.123 -5.33042 -1.99637 0
M  V30 6473 N 597.325 -4.47947 -3.6922 0
M  V30 6474 H 600.09 -2.9954 0.0978259 0
M  V30 6475 H 597.651 -1.60684 0.198068 0
M  V30 6476 H 599.643 -3.24281 -2.42124 0
M  V30 6477 H 598.213 -2.19944 -2.22134 0
M  V30 6478 H 597.433 -3.91888 -0.426292 0
M  V30 6479 H 598.721 -4.98622 -1.01259 0
M  V30 6480 H 598.119 -3.97219 -4.02783 0
M  V30 6481 H 596.676 -4.84245 -4.36292 0
M  V30 6482 N 600.109 -0.101901 -1.5727 0
M  V30 6483 C 601.019 0.868647 -2.17926 0
M  V30 6484 C 602.035 1.30527 -1.1506 0
M  V30 6485 O 603.211 1.37178 -1.47459 0
M  V30 6486 C 600.276 2.10727 -2.75309 0
M  V30 6487 C 599.337 1.7242 -3.93154 0
M  V30 6488 C 598.57 2.90377 -4.47791 0
M  V30 6489 O 598.793 4.05305 -4.01353 0
M  V30 6490 O 597.727 2.6845 -5.38719 0
M  V30 6491 H 601.553 0.382544 -3.01281 0
M  V30 6492 H 599.138 0.122812 -1.48894 0
M  V30 6493 H 601.02 2.83303 -3.11958 0
M  V30 6494 H 599.695 2.58376 -1.94996 0
M  V30 6495 H 598.602 0.970039 -3.61305 0
M  V30 6496 H 599.935 1.29528 -4.74851 0
M  V30 6497 N 601.587 1.56661 0.17182 0
M  V30 6498 C 602.833 1.82235 0.889845 0
M  V30 6499 C 603.166 0.679673 1.81918 0
M  V30 6500 O 602.441 -0.318404 1.91876 0
M  V30 6501 C 602.724 3.18195 1.68595 0
M  V30 6502 C 602.577 4.42989 0.779773 0
M  V30 6503 C 603.896 3.5109 2.65375 0
M  V30 6504 H 601.015 0.66291 0.322056 0
M  V30 6505 H 603.657 1.89358 0.15608 0
M  V30 6506 H 601.807 3.12253 2.3115 0
M  V30 6507 H 603.479 4.60997 0.16714 0
M  V30 6508 H 601.722 4.33711 0.0877964 0
M  V30 6509 H 602.393 5.3467 1.3723 0
M  V30 6510 H 604.869 3.57482 2.12946 0
M  V30 6511 H 603.745 4.47298 3.18144 0
M  V30 6512 H 604.006 2.75768 3.45549 0
M  V30 6513 N 603.065 -0.440357 1.51323 0
M  V30 6514 C 604.312 -1.19004 1.63842 0
M  V30 6515 C 604.64 -1.91266 0.35321 0
M  V30 6516 O 603.895 -1.84143 -0.662565 0
M  V30 6517 C 604.194 -2.2339 2.78984 0
M  V30 6518 C 603.86 -1.68162 4.18369 0
M  V30 6519 C 602.522 -1.52823 4.56288 0
M  V30 6520 C 604.874 -1.27524 5.05358 0
M  V30 6521 C 602.202 -0.953157 5.78906 0
M  V30 6522 C 604.554 -0.714474 6.28552 0
M  V30 6523 C 603.218 -0.547961 6.65247 0
M  V30 6524 H 602.488 -0.435468 0.59954 0
M  V30 6525 H 605.135 -0.481538 1.85347 0
M  V30 6526 H 603.44 -3.00267 2.51688 0
M  V30 6527 H 605.137 -2.81211 2.85869 0
M  V30 6528 H 601.727 -1.81077 3.8847 0
M  V30 6529 H 605.911 -1.38197 4.76671 0
M  V30 6530 H 601.167 -0.811882 6.05986 0
M  V30 6531 H 605.341 -0.391059 6.95301 0
M  V30 6532 H 602.968 -0.100222 7.60134 0
M  V30 6533 N 604.543 -1.41418 -0.695603 0
M  V30 6534 C 605.82 -1.31264 -1.45014 0
M  V30 6535 C 606.2 0.0597994 -2.11015 0
M  V30 6536 O 605.548 1.07403 -2.01685 0
M  V30 6537 C 605.758 -2.466 -2.4696 0
M  V30 6538 C 607.106 -2.87763 -3.12214 0
M  V30 6539 O 608.13 -2.46339 -2.57285 0
M  V30 6540 O 606.989 -3.59395 -4.11701 0
M  V30 6541 H 604.083 -0.516576 -0.645816 0
M  V30 6542 H 606.629 -1.53382 -0.726084 0
M  V30 6543 H 605.401 -3.38183 -1.96845 0
M  V30 6544 H 605.024 -2.26358 -3.26876 0
M  V30 6545 N 606.021 0.929856 -1.27246 0
M  V30 6546 C 607.298 1.65544 -1.04186 0
M  V30 6547 C 607.678 2.06796 0.424097 0
M  V30 6548 O 607.026 1.80053 1.40688 0
M  V30 6549 C 607.236 2.85912 -2.00138 0
M  V30 6550 C 608.584 3.57305 -2.29387 0
M  V30 6551 O 609.608 2.96036 -1.98094 0
M  V30 6552 O 608.467 4.67688 -2.82719 0
M  V30 6553 H 605.561 0.725473 -0.397011 0
M  V30 6554 H 608.107 0.980583 -1.38501 0
M  V30 6555 H 606.879 2.52403 -2.99013 0
M  V30 6556 H 606.502 3.61118 -1.66371 0
M  V30 6557 N 607.499 1.09233 1.13605 0
M  V30 6558 C 608.446 0.729921 2.18954 0
M  V30 6559 C 609.416 -0.287916 1.63586 0
M  V30 6560 O 610.601 -0.170003 1.90041 0
M  V30 6561 C 607.741 0.154489 3.44754 0
M  V30 6562 C 606.854 1.22613 4.14234 0
M  V30 6563 C 605.989 0.613657 5.27644 0
M  V30 6564 C 605.028 1.66674 5.8897 0
M  V30 6565 N 604.165 1.07545 6.93814 0
M  V30 6566 H 609.005 1.63257 2.49302 0
M  V30 6567 H 606.542 0.815693 1.22413 0
M  V30 6568 H 608.5 -0.196923 4.16735 0
M  V30 6569 H 607.13 -0.711433 3.14863 0
M  V30 6570 H 606.182 1.69485 3.40557 0
M  V30 6571 H 607.494 2.0238 4.55899 0
M  V30 6572 H 606.648 0.210976 6.06333 0
M  V30 6573 H 605.387 -0.215584 4.87223 0
M  V30 6574 H 604.392 2.07899 5.08978 0
M  V30 6575 H 605.617 2.49861 6.31464 0
M  V30 6576 H 603.563 0.267451 6.55455 0
M  V30 6577 H 603.48 1.81011 7.3401 0
M  V30 6578 H 604.748 0.698906 7.7636 0
M  V30 6579 N 608.977 -1.30795 0.87923 0
M  V30 6580 C 609.94 -2.26563 0.346676 0
M  V30 6581 C 610.94 -1.52578 -0.507597 0
M  V30 6582 O 612.13 -1.71318 -0.315575 0
M  V30 6583 C 609.262 -3.37115 -0.506611 0
M  V30 6584 H 610.455 -2.75183 1.19223 0
M  V30 6585 H 608.008 -1.41886 0.655598 0
M  V30 6586 H 608.743 -2.93802 -1.37299 0
M  V30 6587 H 608.528 -3.91959 0.105218 0
M  V30 6588 H 610.018 -4.08412 -0.871192 0
M  V30 6589 N 610.455 -0.639598 -1.44038 0
M  V30 6590 C 611.402 0.0602458 -2.30721 0
M  V30 6591 C 612.372 0.828352 -1.43971 0
M  V30 6592 O 613.557 0.807693 -1.72861 0
M  V30 6593 C 610.697 1.03008 -3.29368 0
M  V30 6594 C 609.81 0.259502 -4.3122 0
M  V30 6595 C 608.945 1.22191 -5.16955 0
M  V30 6596 C 607.984 0.440978 -6.10509 0
M  V30 6597 N 607.121 1.35428 -6.88915 0
M  V30 6598 H 611.961 -0.684867 -2.90023 0
M  V30 6599 H 609.498 -0.349509 -1.42888 0
M  V30 6600 H 611.456 1.60583 -3.85057 0
M  V30 6601 H 610.086 1.74222 -2.71747 0
M  V30 6602 H 609.138 -0.432317 -3.77935 0
M  V30 6603 H 610.45 -0.348347 -4.97582 0
M  V30 6604 H 609.604 1.86873 -5.77203 0
M  V30 6605 H 608.343 1.86367 -4.50687 0
M  V30 6606 H 607.348 -0.219279 -5.49363 0
M  V30 6607 H 608.573 -0.196192 -6.78817 0
M  V30 6608 H 606.519 1.9831 -6.25307 0
M  V30 6609 H 606.436 0.800657 -7.51748 0
M  V30 6610 H 607.704 1.98967 -7.53679 0
M  V30 6611 N 611.933 1.52934 -0.380664 0
M  V30 6612 C 612.863 2.29118 0.450268 0
M  V30 6613 C 613.844 1.32153 1.07096 0
M  V30 6614 O 615.029 1.61038 1.08537 0
M  V30 6615 C 612.159 3.09161 1.58231 0
M  V30 6616 C 611.113 4.13938 1.0881 0
M  V30 6617 C 610.439 4.82153 2.31155 0
M  V30 6618 C 611.739 5.22048 0.162146 0
M  V30 6619 H 613.433 2.98826 -0.185361 0
M  V30 6620 H 610.979 1.43715 -0.0905886 0
M  V30 6621 H 612.932 3.61211 2.17036 0
M  V30 6622 H 611.656 2.3717 2.2454 0
M  V30 6623 H 610.315 3.62855 0.522633 0
M  V30 6624 H 609.963 4.06719 2.95953 0
M  V30 6625 H 609.663 5.52966 1.98752 0
M  V30 6626 H 611.187 5.37004 2.90618 0
M  V30 6627 H 612.601 5.6951 0.658126 0
M  V30 6628 H 610.998 6.00057 -0.0717122 0
M  V30 6629 H 612.068 4.78398 -0.791438 0
M  V30 6630 N 613.412 0.11024 1.57214 0
M  V30 6631 C 614.375 -0.828808 2.1369 0
M  V30 6632 C 615.375 -1.20059 1.06969 0
M  V30 6633 O 616.565 -1.12754 1.32786 0
M  V30 6634 C 613.697 -2.11959 2.66994 0
M  V30 6635 H 614.89 -0.338146 2.97988 0
M  V30 6636 H 612.443 -0.138913 1.55681 0
M  V30 6637 H 613.178 -2.65476 1.8626 0
M  V30 6638 H 612.963 -1.86258 3.45037 0
M  V30 6639 H 614.453 -2.79105 3.10629 0
M  V30 6640 N 614.89 -1.56749 -0.16351 0
M  V30 6641 C 616.301 -1.72039 -0.725216 0
M  V30 6642 C 616.652 -0.72202 -1.82432 0
M  V30 6643 O 615.777 0.114942 -2.16095 0
M  V30 6644 C 616.372 -3.11932 -1.32227 0
M  V30 6645 C 614.931 -3.28879 -1.83072 0
M  V30 6646 C 614.078 -2.67984 -0.712716 0
M  V30 6647 H 617.029 -1.58579 0.0619772 0
M  V30 6648 H 617.05 -3.11015 -2.19202 0
M  V30 6649 H 616.562 -3.84572 -0.522103 0
M  V30 6650 H 614.663 -2.61209 -2.65708 0
M  V30 6651 H 614.776 -4.36688 -1.97079 0
M  V30 6652 H 613.14 -2.28005 -1.13515 0
M  V30 6653 H 613.923 -3.43216 0.0757361 0
M  V30 6654 N 616.368 0.432326 -1.51554 0
M  V30 6655 C 617.616 1.17901 -1.64146 0
M  V30 6656 C 617.937 1.91604 -0.362367 0
M  V30 6657 O 617.207 1.85764 0.621968 0
M  V30 6658 H 615.787 0.438206 -0.604966 0
M  V30 6659 H 618.449 0.495172 -1.88505 0
M  V30 6660 H 617.545 1.90584 -2.47152 0
M  V30 6661 N 617.846 1.41785 0.688094 0
M  V30 6662 C 619.074 1.44915 1.47673 0
M  V30 6663 C 619.489 0.0565786 1.88715 0
M  V30 6664 O 618.846 -0.92579 1.57275 0
M  V30 6665 C 618.897 2.36452 2.73446 0
M  V30 6666 O 618.618 3.7029 2.34131 0
M  V30 6667 C 620.119 2.48463 3.67125 0
M  V30 6668 H 617.339 0.493324 0.454832 0
M  V30 6669 H 619.883 1.86153 0.846594 0
M  V30 6670 H 618.038 1.98502 3.3268 0
M  V30 6671 H 618.452 4.19183 3.15255 0
M  V30 6672 H 619.926 3.16662 4.52138 0
M  V30 6673 H 620.403 1.51826 4.12123 0
M  V30 6674 H 621.009 2.8708 3.13792 0
M  V30 6675 N 619.324 -0.923095 1.27737 0
M  V30 6676 C 620.573 -1.66581 1.13727 0
M  V30 6677 C 620.886 -1.9304 -0.315433 0
M  V30 6678 O 622.092 -2.65309 -0.57651 0
M  V30 6679 C 620.548 -3.00047 1.98745 0
M  V30 6680 C 620.156 -2.8127 3.48699 0
M  V30 6681 C 621.9 -3.77887 1.93395 0
M  V30 6682 C 619.807 -4.1032 4.25901 0
M  V30 6683 H 618.737 -0.624834 0.422017 0
M  V30 6684 H 621.388 -1.02514 1.52194 0
M  V30 6685 H 619.77 -3.65197 1.53125 0
M  V30 6686 H 620.944 -2.24859 4.02213 0
M  V30 6687 H 619.259 -2.16854 3.55476 0
M  V30 6688 H 621.856 -4.73526 2.48348 0
M  V30 6689 H 622.199 -4.06264 0.908605 0
M  V30 6690 H 622.732 -3.19541 2.36935 0
M  V30 6691 H 619.471 -3.8712 5.28978 0
M  V30 6692 H 618.991 -4.66377 3.77163 0
M  V30 6693 H 620.67 -4.78648 4.35321 0
M  V30 6694 N 620.802 -1.09834 -1.13024 0
M  V30 6695 C 622.048 -0.83819 -1.84668 0
M  V30 6696 C 622.381 0.634645 -1.83537 0
M  V30 6697 O 621.656 1.46753 -1.27647 0
M  V30 6698 C 621.939 -1.37933 -3.32636 0
M  V30 6699 C 621.792 -2.91857 -3.42257 0
M  V30 6700 C 623.111 -1.01654 -4.28199 0
M  V30 6701 H 620.23 -0.30595 -0.670495 0
M  V30 6702 H 622.872 -1.36044 -1.32635 0
M  V30 6703 H 621.022 -0.935111 -3.77078 0
M  V30 6704 H 622.694 -3.44759 -3.06495 0
M  V30 6705 H 620.937 -3.28776 -2.83 0
M  V30 6706 H 621.608 -3.24799 -4.46329 0
M  V30 6707 H 624.084 -1.39973 -3.9185 0
M  V30 6708 H 622.96 -1.42217 -5.30156 0
M  V30 6709 H 623.221 0.0747794 -4.42037 0
M  V30 6710 N 622.28 1.30327 -0.886154 0
M  V30 6711 C 623.19 2.31854 -0.357866 0
M  V30 6712 C 624.206 1.65392 0.540502 0
M  V30 6713 O 625.382 1.96683 0.433339 0
M  V30 6714 C 622.447 3.44171 0.417999 0
M  V30 6715 C 621.508 4.26257 -0.510263 0
M  V30 6716 C 620.741 5.3321 0.228669 0
M  V30 6717 O 620.964 5.51542 1.45458 0
M  V30 6718 O 619.898 6.0042 -0.421832 0
M  V30 6719 H 623.724 2.78995 -1.19982 0
M  V30 6720 H 621.309 1.34518 -0.650028 0
M  V30 6721 H 623.191 4.12588 0.857251 0
M  V30 6722 H 621.866 2.99164 1.23623 0
M  V30 6723 H 620.773 3.60533 -0.99835 0
M  V30 6724 H 622.106 4.74871 -1.29454 0
M  V30 6725 N 623.758 0.647228 1.43697 0
M  V30 6726 C 625.004 0.158422 2.0218 0
M  V30 6727 C 625.337 -1.22233 1.50907 0
M  V30 6728 O 624.612 -1.81478 0.699702 0
M  V30 6729 C 624.895 0.1627 3.59732 0
M  V30 6730 C 624.748 1.57694 4.21251 0
M  V30 6731 C 626.067 -0.504138 4.37203 0
M  V30 6732 H 623.186 0.059042 0.734631 0
M  V30 6733 H 625.828 0.826772 1.71069 0
M  V30 6734 H 623.978 -0.406414 3.86368 0
M  V30 6735 H 625.65 2.19618 4.05667 0
M  V30 6736 H 623.893 2.12603 3.7813 0
M  V30 6737 H 624.564 1.53183 5.3032 0
M  V30 6738 H 627.04 -0.0199841 4.16095 0
M  V30 6739 H 625.916 -0.470394 5.46881 0
M  V30 6740 H 626.177 -1.57726 4.13007 0
M  V30 6741 N 625.236 -1.5273 0.388769 0
M  V30 6742 C 626.482 -2.02545 -0.186351 0
M  V30 6743 C 626.837 -1.27017 -1.44514 0
M  V30 6744 O 626.13 -0.361948 -1.8815 0
M  V30 6745 C 626.324 -3.53765 -0.508445 0
M  V30 6746 C 626.153 -4.43938 0.71758 0
M  V30 6747 C 624.923 -4.89933 1.23668 0
M  V30 6748 C 627.121 -4.89113 1.58974 0
M  V30 6749 N 625.103 -5.64176 2.42031 0
M  V30 6750 C 626.474 -5.61931 2.61979 0
M  V30 6751 C 628.529 -4.71155 1.60989 0
M  V30 6752 C 627.232 -6.18698 3.66886 0
M  V30 6753 C 629.258 -5.28804 2.64803 0
M  V30 6754 C 628.62 -6.01527 3.6653 0
M  V30 6755 H 624.719 -0.781413 -0.0302921 0
M  V30 6756 H 627.303 -1.87104 0.538539 0
M  V30 6757 H 625.474 -3.6932 -1.20239 0
M  V30 6758 H 627.206 -3.9028 -1.07067 0
M  V30 6759 H 623.961 -4.66833 0.797763 0
M  V30 6760 H 624.385 -6.05949 3.01919 0
M  V30 6761 H 629.027 -4.14435 0.836881 0
M  V30 6762 H 626.745 -6.74501 4.45055 0
M  V30 6763 H 630.331 -5.1679 2.67245 0
M  V30 6764 H 629.211 -6.45339 4.45542 0
M  V30 6765 N 626.714 -0.118576 -1.57153 0
M  V30 6766 C 627.661 0.831789 -2.1529 0
M  V30 6767 C 628.631 1.26385 -1.07778 0
M  V30 6768 O 629.816 1.34144 -1.35684 0
M  V30 6769 C 626.956 2.07664 -2.75626 0
M  V30 6770 C 626.069 1.69298 -3.97444 0
M  V30 6771 C 625.204 2.88747 -4.45868 0
M  V30 6772 C 624.243 2.46619 -5.60219 0
M  V30 6773 N 623.38 3.5898 -6.03389 0
M  V30 6774 H 628.22 0.329183 -2.96176 0
M  V30 6775 H 625.757 0.150792 -1.46325 0
M  V30 6776 H 627.715 2.80601 -3.08738 0
M  V30 6777 H 626.345 2.55384 -1.97431 0
M  V30 6778 H 625.397 0.862374 -3.70496 0
M  V30 6779 H 626.709 1.34338 -4.80369 0
M  V30 6780 H 625.863 3.69909 -4.80887 0
M  V30 6781 H 624.602 3.26933 -3.61892 0
M  V30 6782 H 623.607 1.63889 -5.24805 0
M  V30 6783 H 624.832 2.0955 -6.45961 0
M  V30 6784 H 622.778 3.9684 -5.22354 0
M  V30 6785 H 622.695 3.27942 -6.81168 0
M  V30 6786 H 623.963 4.40583 -6.43045 0
M  V30 6787 N 628.193 1.56834 0.155195 0
M  V30 6788 C 629.47 1.73799 0.897395 0
M  V30 6789 C 629.85 0.684379 1.99698 0
M  V30 6790 O 629.198 -0.298111 2.26547 0
M  V30 6791 C 629.408 3.17572 1.44737 0
M  V30 6792 C 630.756 3.79014 1.91399 0
M  V30 6793 O 631.78 3.20951 1.54496 0
M  V30 6794 O 630.639 4.80998 2.59429 0
M  V30 6795 H 627.733 0.710329 0.423511 0
M  V30 6796 H 630.279 1.69107 0.141761 0
M  V30 6797 H 629.051 3.85749 0.656741 0
M  V30 6798 H 628.674 3.26657 2.26674 0
M  V30 6799 N 629.671 -0.424282 1.51781 0
M  V30 6800 C 630.896 -1.19928 1.6921 0
M  V30 6801 C 631.321 -1.8392 0.394355 0
M  V30 6802 O 630.679 -1.69371 -0.646778 0
M  V30 6803 C 630.727 -2.24937 2.81843 0
M  V30 6804 O 629.831 -3.3073 2.46356 0
M  V30 6805 H 629.172 -0.35078 0.563781 0
M  V30 6806 H 631.702 -0.499401 1.98412 0
M  V30 6807 H 631.712 -2.69512 3.06312 0
M  V30 6808 H 630.387 -1.77742 3.76006 0
M  V30 6809 H 628.964 -2.9154 2.32505 0
M  V30 6810 N 631.149 -1.42148 -0.680565 0
M  V30 6811 C 632.112 -1.4488 -1.77602 0
M  V30 6812 C 633.112 -0.337209 -1.57224 0
M  V30 6813 O 634.302 -0.597778 -1.63622 0
M  V30 6814 C 631.434 -1.27483 -3.16166 0
M  V30 6815 H 632.627 -2.42412 -1.76568 0
M  V30 6816 H 630.18 -1.28511 -0.889645 0
M  V30 6817 H 630.915 -0.30851 -3.22829 0
M  V30 6818 H 630.7 -2.08037 -3.3236 0
M  V30 6819 H 632.19 -1.32265 -3.96101 0
M  V30 6820 N 632.627 0.916307 -1.28225 0
M  V30 6821 C 633.857 1.69654 -1.17902 0
M  V30 6822 C 634.265 1.87331 0.265268 0
M  V30 6823 O 633.608 1.39828 1.19137 0
M  V30 6824 C 633.67 3.11024 -1.80289 0
M  V30 6825 C 633.334 3.16643 -3.29525 0
M  V30 6826 C 634.331 2.98032 -4.25997 0
M  V30 6827 C 632.016 3.39238 -3.70436 0
M  V30 6828 C 634.01 3.01924 -5.61356 0
M  V30 6829 C 631.697 3.42762 -5.05922 0
M  V30 6830 C 632.695 3.24125 -6.01192 0
M  V30 6831 O 632.383 3.27406 -7.34208 0
M  V30 6832 H 632.115 0.537197 -0.41036 0
M  V30 6833 H 634.669 1.15547 -1.69817 0
M  V30 6834 H 632.899 3.66662 -1.22865 0
M  V30 6835 H 634.588 3.71063 -1.6452 0
M  V30 6836 H 635.354 2.80405 -3.95725 0
M  V30 6837 H 631.233 3.52791 -2.96749 0
M  V30 6838 H 634.777 2.87295 -6.35694 0
M  V30 6839 H 630.674 3.59916 -5.35846 0
M  V30 6840 H 631.442 3.43784 -7.42802 0
M  V30 6841 N 634.105 1.10431 1.1244 0
M  V30 6842 C 635.516 0.864439 1.65482 0
M  V30 6843 C 635.867 -0.60527 1.8663 0
M  V30 6844 O 634.992 -1.46492 1.59276 0
M  V30 6845 C 635.587 1.56267 3.0061 0
M  V30 6846 C 634.146 1.3695 3.50602 0
M  V30 6847 C 633.293 1.61209 2.25626 0
M  V30 6848 H 636.244 1.26203 0.962209 0
M  V30 6849 H 636.265 1.00166 3.67079 0
M  V30 6850 H 635.777 2.63231 2.85186 0
M  V30 6851 H 633.878 0.321481 3.71211 0
M  V30 6852 H 633.991 2.11143 4.30064 0
M  V30 6853 H 632.355 1.03482 2.32731 0
M  V30 6854 H 633.138 2.69425 2.12756 0
M  V30 6855 N 635.583 -1.29855 0.893053 0
M  V30 6856 C 636.493 -2.31661 0.370157 0
M  V30 6857 C 637.509 -1.65677 -0.531723 0
M  V30 6858 O 638.685 -1.9691 -0.422902 0
M  V30 6859 C 635.75 -3.44388 -0.399741 0
M  V30 6860 C 634.811 -4.2598 0.532861 0
M  V30 6861 C 634.044 -5.33324 -0.200388 0
M  V30 6862 O 634.267 -5.52305 -1.42531 0
M  V30 6863 O 633.201 -6.00188 0.453668 0
M  V30 6864 H 637.027 -2.78354 1.2146 0
M  V30 6865 H 634.612 -1.34171 0.657153 0
M  V30 6866 H 636.494 -4.13037 -0.835358 0
M  V30 6867 H 635.169 -2.99815 -1.22035 0
M  V30 6868 H 634.076 -3.59998 1.01746 0
M  V30 6869 H 635.409 -4.74178 1.3197 0
M  V30 6870 N 637.061 -0.65484 -1.43351 0
M  V30 6871 C 637.971 0.0363603 -2.34572 0
M  V30 6872 C 638.987 0.810432 -1.53974 0
M  V30 6873 O 640.163 0.757308 -1.86619 0
M  V30 6874 C 637.228 0.989733 -3.32273 0
M  V30 6875 C 636.289 0.212414 -4.28774 0
M  V30 6876 C 635.522 1.12038 -5.21808 0
M  V30 6877 O 635.745 2.35967 -5.19303 0
M  V30 6878 O 634.679 0.59191 -5.98982 0
M  V30 6879 H 638.505 -0.714527 -2.95175 0
M  V30 6880 H 636.09 -0.415029 -1.4352 0
M  V30 6881 H 637.972 1.53759 -3.92347 0
M  V30 6882 H 636.647 1.72082 -2.74171 0
M  V30 6883 H 635.554 -0.379062 -3.72175 0
M  V30 6884 H 636.887 -0.479138 -4.89862 0
M  V30 6885 N 638.539 1.52521 -0.396863 0
M  V30 6886 C 639.469 2.29582 0.425941 0
M  V30 6887 C 640.45 1.33281 1.05689 0
M  V30 6888 O 641.635 1.62181 1.06823 0
M  V30 6889 C 638.765 3.10821 1.54943 0
M  V30 6890 C 637.719 4.15069 1.04413 0
M  V30 6891 C 637.045 4.84578 2.26028 0
M  V30 6892 C 638.345 5.22191 0.106767 0
M  V30 6893 H 640.039 2.98612 -0.217045 0
M  V30 6894 H 637.585 1.43611 -0.105826 0
M  V30 6895 H 639.538 3.63492 2.13193 0
M  V30 6896 H 638.262 2.39538 2.22011 0
M  V30 6897 H 636.921 3.63389 0.484118 0
M  V30 6898 H 636.569 4.09835 2.91623 0
M  V30 6899 H 636.269 5.55043 1.92876 0
M  V30 6900 H 637.793 5.40056 2.84906 0
M  V30 6901 H 639.207 5.70176 0.597685 0
M  V30 6902 H 637.604 5.99947 -0.135352 0
M  V30 6903 H 638.674 4.77531 -0.842134 0
M  V30 6904 N 640.017 0.126909 1.57088 0
M  V30 6905 C 641.242 -0.53997 2.00248 0
M  V30 6906 C 641.667 -1.58927 1.00618 0
M  V30 6907 O 641.025 -1.81288 -0.0210131 0
M  V30 6908 C 641.073 -1.13565 3.4225 0
M  V30 6909 O 640.177 -2.25103 3.45547 0
M  V30 6910 H 639.518 -0.13412 0.650314 0
M  V30 6911 H 642.048 0.217718 2.03438 0
M  V30 6912 H 642.058 -1.46925 3.80627 0
M  V30 6913 H 640.733 -0.367122 4.14277 0
M  V30 6914 H 639.31 -1.93123 3.18995 0
M  V30 6915 N 641.495 -1.56914 -0.146875 0
M  V30 6916 C 642.911 -1.51582 -0.499518 0
M  V30 6917 C 643.111 -0.83535 -1.83369 0
M  V30 6918 O 642.167 -0.405932 -2.49216 0
M  V30 6919 C 643.48 -2.96349 -0.509711 0
M  V30 6920 C 645.028 -3.07288 -0.595217 0
M  V30 6921 C 645.503 -4.53562 -0.636071 0
M  V30 6922 N 646.994 -4.57906 -0.69829 0
M  V30 6923 C 647.729 -5.68462 -0.750886 0
M  V30 6924 N 647.225 -6.88588 -0.76282 0
M  V30 6925 N 649.018 -5.56496 -0.791777 0
M  V30 6926 H 641.169 -1.99547 0.727656 0
M  V30 6927 H 643.432 -0.910113 0.265327 0
M  V30 6928 H 643.138 -3.4939 0.402409 0
M  V30 6929 H 643.012 -3.52307 -1.34758 0
M  V30 6930 H 645.399 -2.54266 -1.49776 0
M  V30 6931 H 645.48 -2.54373 0.2698 0
M  V30 6932 H 645.124 -5.07222 0.262313 0
M  V30 6933 H 645.054 -5.04259 -1.51758 0
M  V30 6934 H 647.545 -3.71429 -0.696362 0
M  V30 6935 H 647.858 -7.68598 -0.804804 0
M  V30 6936 H 646.203 -6.91148 -0.730694 0
M  V30 6937 H 649.394 -4.61562 -0.779624 0
M  V30 6938 H 649.567 -6.42671 -0.829301 0
M  V30 6939 N 642.974 0.416227 -1.52004 0
M  V30 6940 C 644.22 1.16555 -1.6596 0
M  V30 6941 C 644.553 1.90347 -0.384906 0
M  V30 6942 O 643.828 1.84474 0.616405 0
M  V30 6943 C 644.111 2.1657 -2.87696 0
M  V30 6944 C 643.964 1.46722 -4.25197 0
M  V30 6945 C 645.283 3.17321 -3.04951 0
M  V30 6946 H 642.402 0.422369 -0.603965 0
M  V30 6947 H 645.044 0.452141 -1.84542 0
M  V30 6948 H 643.194 2.77411 -2.71985 0
M  V30 6949 H 644.866 0.89056 -4.52622 0
M  V30 6950 H 643.109 0.769263 -4.26925 0
M  V30 6951 H 643.78 2.19665 -5.0641 0
M  V30 6952 H 646.256 2.66552 -3.19514 0
M  V30 6953 H 645.132 3.84573 -3.91656 0
M  V30 6954 H 645.393 3.84643 -2.17951 0
M  V30 6955 N 644.452 1.42507 0.673017 0
M  V30 6956 C 645.68 1.46473 1.46128 0
M  V30 6957 C 646.095 0.0765912 1.88645 0
M  V30 6958 O 645.452 -0.909057 1.58248 0
M  V30 6959 C 645.503 2.39339 2.70923 0
M  V30 6960 O 645.224 3.72752 2.3019 0
M  V30 6961 C 646.725 2.52343 3.64469 0
M  V30 6962 H 643.945 0.49812 0.449575 0
M  V30 6963 H 646.489 1.87041 0.826802 0
M  V30 6964 H 644.644 2.02019 3.30556 0
M  V30 6965 H 645.058 4.22503 3.10791 0
M  V30 6966 H 646.532 3.2144 4.48754 0
M  V30 6967 H 647.009 1.56189 4.1049 0
M  V30 6968 H 647.615 2.90392 3.10729 0
M  V30 6969 N 645.93 -0.909495 1.28709 0
M  V30 6970 C 646.893 -1.99399 1.13016 0
M  V30 6971 C 647.893 -1.60654 0.068536 0
M  V30 6972 O 649.083 -1.71334 0.314671 0
M  V30 6973 C 646.215 -3.33078 0.726085 0
M  V30 6974 H 647.408 -2.14751 2.09338 0
M  V30 6975 H 644.961 -1.09272 1.11756 0
M  V30 6976 H 645.696 -3.23428 -0.23771 0
M  V30 6977 H 645.481 -3.62562 1.49302 0
M  V30 6978 H 646.971 -4.12681 0.639058 0
M  V30 6979 N 647.408 -1.11026 -1.11852 0
M  V30 6980 C 648.633 -0.879064 -1.87849 0
M  V30 6981 C 649.058 0.565406 -1.79401 0
M  V30 6982 O 648.416 1.39886 -1.15333 0
M  V30 6983 C 648.464 -1.33985 -3.34784 0
M  V30 6984 O 647.568 -0.508803 -4.09249 0
M  V30 6985 H 646.909 -0.316992 -0.583448 0
M  V30 6986 H 649.439 -1.47863 -1.41413 0
M  V30 6987 H 649.449 -1.33248 -3.85628 0
M  V30 6988 H 648.124 -2.39172 -3.40249 0
M  V30 6989 H 646.701 -0.581913 -3.68332 0
M  V30 6990 N 648.886 1.2938 -0.899927 0
M  V30 6991 C 650.134 1.95164 -0.524924 0
M  V30 6992 C 650.455 1.71292 0.931888 0
M  V30 6993 O 649.725 1.04481 1.65712 0
M  V30 6994 H 648.305 0.722133 -0.191135 0
M  V30 6995 H 650.967 1.57628 -1.14627 0
M  V30 6996 H 650.063 3.0397 -0.707711 0
M  V30 6997 N 650.364 0.662433 1.43002 0
M  V30 6998 C 651.611 0.179591 2.01702 0
M  V30 6999 C 651.939 -1.20964 1.52309 0
M  V30 7000 O 651.194 -1.82343 0.7106 0
M  V30 7001 C 651.493 0.149363 3.57088 0
M  V30 7002 C 651.159 1.48158 4.25864 0
M  V30 7003 C 649.821 1.84638 4.44367 0
M  V30 7004 C 652.173 2.35953 4.64732 0
M  V30 7005 C 649.501 3.08561 4.99006 0
M  V30 7006 C 651.853 3.59176 5.20745 0
M  V30 7007 C 650.517 3.95841 5.37463 0
M  V30 7008 H 649.787 0.0657172 0.73808 0
M  V30 7009 H 652.434 0.854968 1.71355 0
M  V30 7010 H 650.739 -0.609491 3.8703 0
M  V30 7011 H 652.436 -0.241241 4.00274 0
M  V30 7012 H 649.026 1.18777 4.11813 0
M  V30 7013 H 653.21 2.09058 4.50121 0
M  V30 7014 H 648.466 3.37005 5.10135 0
M  V30 7015 H 652.64 4.27417 5.49807 0
M  V30 7016 H 650.267 4.91942 5.79566 0
M  V30 7017 N 651.842 -1.52309 0.404946 0
M  V30 7018 C 653.253 -1.86585 -0.0655926 0
M  V30 7019 C 653.604 -1.3239 -1.44801 0
M  V30 7020 O 652.729 -0.6615 -2.06042 0
M  V30 7021 C 653.324 -3.38566 -0.125801 0
M  V30 7022 C 651.883 -3.72497 -0.540666 0
M  V30 7023 C 651.03 -2.75806 0.287487 0
M  V30 7024 H 653.981 -1.45995 0.622185 0
M  V30 7025 H 654.002 -3.68658 -0.941888 0
M  V30 7026 H 653.514 -3.77981 0.880473 0
M  V30 7027 H 651.615 -3.38659 -1.55373 0
M  V30 7028 H 651.728 -4.78234 -0.287956 0
M  V30 7029 H 650.092 -2.53474 -0.249561 0
M  V30 7030 H 650.875 -3.18059 1.29203 0
M  V30 7031 N 653.32 -0.135238 -1.57019 0
M  V30 7032 C 654.566 0.519563 -1.96032 0
M  V30 7033 C 654.899 1.65284 -1.01955 0
M  V30 7034 O 654.174 1.94408 -0.059727 0
M  V30 7035 C 654.457 1.0369 -3.44848 0
M  V30 7036 C 654.31 -0.0940754 -4.49702 0
M  V30 7037 C 655.629 1.92254 -3.95887 0
M  V30 7038 H 652.748 0.18739 -0.712779 0
M  V30 7039 H 655.39 -0.214086 -1.8879 0
M  V30 7040 H 653.54 1.66209 -3.5115 0
M  V30 7041 H 655.212 -0.73 -4.55487 0
M  V30 7042 H 653.455 -0.754924 -4.27181 0
M  V30 7043 H 654.126 0.309419 -5.51132 0
M  V30 7044 H 656.602 1.39581 -3.9199 0
M  V30 7045 H 655.478 2.25364 -5.00502 0
M  V30 7046 H 655.739 2.85513 -3.37543 0
M  V30 7047 N 654.798 1.5699 0.138552 0
M  V30 7048 C 656.047 1.82998 0.848205 0
M  V30 7049 C 656.36 0.717829 1.81952 0
M  V30 7050 O 657.566 0.863756 2.57394 0
M  V30 7051 C 656.022 3.24379 1.55904 0
M  V30 7052 C 655.63 4.43552 0.62971 0
M  V30 7053 C 657.374 3.59654 2.25498 0
M  V30 7054 C 655.281 5.75957 1.34266 0
M  V30 7055 H 654.211 0.682495 0.320495 0
M  V30 7056 H 656.862 1.83222 0.100924 0
M  V30 7057 H 655.244 3.18567 2.35226 0
M  V30 7058 H 656.418 4.6062 -0.128882 0
M  V30 7059 H 654.733 4.16379 0.0417526 0
M  V30 7060 H 657.33 4.55837 2.79493 0
M  V30 7061 H 657.673 2.86124 3.02388 0
M  V30 7062 H 658.206 3.67164 1.53087 0
M  V30 7063 H 654.945 6.52604 0.615441 0
M  V30 7064 H 654.465 5.62811 2.07375 0
M  V30 7065 H 656.144 6.19046 1.88126 0
M  V30 7066 N 656.276 -0.40816 1.52223 0
M  V30 7067 C 657.206 -1.5042 1.78595 0
M  V30 7068 C 658.187 -1.57723 0.636974 0
M  V30 7069 O 659.372 -1.72982 0.882664 0
M  V30 7070 C 656.502 -2.88232 1.93751 0
M  V30 7071 C 655.456 -2.95779 3.09352 0
M  V30 7072 C 654.782 -4.35855 3.09732 0
M  V30 7073 C 656.082 -2.67175 4.48793 0
M  V30 7074 H 657.776 -1.28601 2.70374 0
M  V30 7075 H 655.322 -0.617221 1.30101 0
M  V30 7076 H 657.275 -3.64895 2.10783 0
M  V30 7077 H 655.999 -3.11347 0.986443 0
M  V30 7078 H 654.658 -2.21561 2.92072 0
M  V30 7079 H 654.306 -4.55981 2.12346 0
M  V30 7080 H 654.006 -4.41829 3.87377 0
M  V30 7081 H 655.53 -5.14451 3.28895 0
M  V30 7082 H 656.944 -3.3356 4.66273 0
M  V30 7083 H 655.341 -2.84523 5.28362 0
M  V30 7084 H 656.411 -1.62609 4.56822 0
M  V30 7085 N 657.755 -1.42862 -0.66545 0
M  V30 7086 C 658.98 -1.47456 -1.45848 0
M  V30 7087 C 659.405 -0.0900312 -1.87884 0
M  V30 7088 O 658.763 0.913587 -1.56599 0
M  V30 7089 C 658.811 -2.41514 -2.67774 0
M  V30 7090 O 657.915 -1.89296 -3.66389 0
M  V30 7091 H 657.256 -0.499236 -0.437789 0
M  V30 7092 H 659.786 -1.8765 -0.815394 0
M  V30 7093 H 659.796 -2.58409 -3.15735 0
M  V30 7094 H 658.471 -3.42099 -2.36519 0
M  V30 7095 H 657.048 -1.82003 -3.25468 0
M  V30 7096 N 659.233 0.902656 -1.29189 0
M  V30 7097 C 660.196 1.98797 -1.14071 0
M  V30 7098 C 661.196 1.60615 -0.0770549 0
M  V30 7099 O 662.386 1.71165 -0.323753 0
M  V30 7100 C 659.518 3.32688 -0.743739 0
M  V30 7101 H 660.711 2.13637 -2.10473 0
M  V30 7102 H 658.264 1.08678 -1.12334 0
M  V30 7103 H 658.999 3.23549 0.220554 0
M  V30 7104 H 658.784 3.61765 -1.51223 0
M  V30 7105 H 660.274 4.12337 -0.660935 0
M  V30 7106 N 660.711 1.11618 1.11262 0
M  V30 7107 C 662.122 0.881942 1.64556 0
M  V30 7108 C 662.473 -0.585442 1.87262 0
M  V30 7109 O 661.598 -1.44795 1.60821 0
M  V30 7110 C 662.193 1.59446 2.98935 0
M  V30 7111 C 660.752 1.40661 3.4913 0
M  V30 7112 C 659.899 1.63593 2.23903 0
M  V30 7113 H 662.85 1.27217 0.94877 0
M  V30 7114 H 662.871 1.04054 3.65996 0
M  V30 7115 H 662.383 2.66241 2.82378 0
M  V30 7116 H 660.484 0.360835 3.70849 0
M  V30 7117 H 660.597 2.15693 4.27801 0
M  V30 7118 H 658.961 1.05944 2.3162 0
M  V30 7119 H 659.744 2.71666 2.09886 0
M  V30 7120 N 662.189 -1.289 0.906776 0
M  V30 7121 C 663.435 -1.95919 0.546551 0
M  V30 7122 C 663.79 -1.70126 -0.8986 0
M  V30 7123 O 663.083 -1.00775 -1.62957 0
M  V30 7124 C 663.277 -3.48704 0.783617 0
M  V30 7125 C 663.106 -3.8935 2.25026 0
M  V30 7126 C 661.876 -4.13864 2.89905 0
M  V30 7127 C 664.074 -4.00535 3.22608 0
M  V30 7128 N 662.056 -4.41131 4.26939 0
M  V30 7129 C 663.427 -4.31936 4.44783 0
M  V30 7130 C 665.482 -3.83035 3.18102 0
M  V30 7131 C 664.185 -4.47659 5.63022 0
M  V30 7132 C 666.211 -3.99971 4.35634 0
M  V30 7133 C 665.573 -4.31738 5.5658 0
M  V30 7134 H 661.672 -0.74105 0.249737 0
M  V30 7135 H 664.256 -1.55696 1.16906 0
M  V30 7136 H 662.427 -3.87933 0.190437 0
M  V30 7137 H 664.159 -4.02835 0.38812 0
M  V30 7138 H 660.914 -4.07893 2.40666 0
M  V30 7139 H 661.338 -4.5886 4.97771 0
M  V30 7140 H 665.98 -3.57533 2.25677 0
M  V30 7141 H 663.698 -4.71995 6.55932 0
M  V30 7142 H 667.284 -3.87874 4.33641 0
M  V30 7143 H 666.164 -4.44568 6.4601 0
M  V30 7144 N 663.667 -0.670007 -1.42649 0
M  V30 7145 C 664.897 -0.198252 -2.05647 0
M  V30 7146 C 665.305 1.14786 -1.50402 0
M  V30 7147 O 664.648 1.72316 -0.636634 0
M  V30 7148 C 664.71 -0.0507132 -3.59464 0
M  V30 7149 C 664.374 -1.32478 -4.37377 0
M  V30 7150 C 665.371 -2.2572 -4.68344 0
M  V30 7151 C 663.056 -1.57104 -4.77099 0
M  V30 7152 C 665.05 -3.4187 -5.37963 0
M  V30 7153 C 662.737 -2.73543 -5.46459 0
M  V30 7154 C 663.735 -3.65751 -5.76815 0
M  V30 7155 O 663.423 -4.80154 -6.44753 0
M  V30 7156 H 663.155 -0.0950721 -0.669281 0
M  V30 7157 H 665.709 -0.915745 -1.83857 0
M  V30 7158 H 663.939 0.722314 -3.79894 0
M  V30 7159 H 665.628 0.380552 -4.04112 0
M  V30 7160 H 666.394 -2.07943 -4.38161 0
M  V30 7161 H 662.273 -0.862069 -4.52868 0
M  V30 7162 H 665.817 -4.13861 -5.61574 0
M  V30 7163 H 661.714 -2.91248 -5.7606 0
M  V30 7164 H 662.482 -4.79637 -6.63243 0
M  V30 7165 N 665.145 1.52092 -0.413018 0
M  V30 7166 C 666.075 2.30021 0.401567 0
M  V30 7167 C 667.056 1.34395 1.04269 0
M  V30 7168 O 668.241 1.63304 1.05097 0
M  V30 7169 C 665.371 3.12447 1.51638 0
M  V30 7170 C 664.325 4.16153 1.00005 0
M  V30 7171 C 663.651 4.86948 2.20875 0
M  V30 7172 C 664.951 5.22275 0.0513757 0
M  V30 7173 H 666.645 2.98365 -0.248704 0
M  V30 7174 H 664.191 1.4349 -0.121052 0
M  V30 7175 H 666.144 3.65733 2.09326 0
M  V30 7176 H 664.868 2.41879 2.19458 0
M  V30 7177 H 663.527 3.63882 0.445549 0
M  V30 7178 H 663.175 4.12905 2.8726 0
M  V30 7179 H 662.875 5.57057 1.86978 0
M  V30 7180 H 664.399 5.43048 2.79162 0
M  V30 7181 H 665.813 5.70778 0.537176 0
M  V30 7182 H 664.21 5.9977 -0.198977 0
M  V30 7183 H 665.28 4.76611 -0.892736 0
M  V30 7184 N 666.623 0.143563 1.56945 0
M  V30 7185 C 667.9 -0.553285 1.87612 0
M  V30 7186 C 668.28 -1.83195 1.04894 0
M  V30 7187 O 667.628 -2.28102 0.134773 0
M  V30 7188 C 667.838 -0.822055 3.3918 0
M  V30 7189 C 669.186 -1.16435 4.08324 0
M  V30 7190 O 670.21 -0.911522 3.4434 0
M  V30 7191 O 669.069 -1.63996 5.21313 0
M  V30 7192 H 666.163 -0.281851 0.777489 0
M  V30 7193 H 668.709 0.179916 1.68744 0
M  V30 7194 H 667.481 0.0830265 3.91212 0
M  V30 7195 H 667.104 -1.60956 3.63564 0
M  V30 7196 N 668.101 -1.57061 -0.130224 0
M  V30 7197 C 669.031 -2.02552 -1.16168 0
M  V30 7198 C 670.012 -0.907971 -1.4384 0
M  V30 7199 O 671.197 -1.17693 -1.54473 0
M  V30 7200 C 668.327 -2.42035 -2.49071 0
M  V30 7201 C 667.281 -3.5713 -2.35886 0
M  V30 7202 C 666.607 -3.82478 -3.7365 0
M  V30 7203 C 667.907 -4.89236 -1.8288 0
M  V30 7204 H 669.601 -2.8897 -0.783359 0
M  V30 7205 H 667.147 -1.39021 -0.375376 0
M  V30 7206 H 669.1 -2.72462 -3.21469 0
M  V30 7207 H 667.824 -1.52573 -2.88771 0
M  V30 7208 H 666.483 -3.26895 -1.65938 0
M  V30 7209 H 666.131 -2.9024 -4.10816 0
M  V30 7210 H 665.831 -4.59944 -3.65685 0
M  V30 7211 H 667.355 -4.15347 -4.47571 0
M  V30 7212 H 668.769 -5.18272 -2.45085 0
M  V30 7213 H 667.166 -5.70624 -1.85763 0
M  V30 7214 H 668.236 -4.78494 -0.785571 0
M  V30 7215 N 669.579 0.400081 -1.52437 0
M  V30 7216 C 670.828 1.14332 -1.66166 0
M  V30 7217 C 671.141 1.91419 -0.402253 0
M  V30 7218 O 672.347 2.6824 -0.419487 0
M  V30 7219 C 670.803 2.08137 -2.9361 0
M  V30 7220 C 670.411 1.36524 -4.26691 0
M  V30 7221 C 672.155 2.82664 -3.16703 0
M  V30 7222 C 670.062 2.29031 -5.45251 0
M  V30 7223 H 668.992 0.430499 -0.61902 0
M  V30 7224 H 671.643 0.407017 -1.78929 0
M  V30 7225 H 670.025 2.85358 -2.74567 0
M  V30 7226 H 671.199 0.646061 -4.56249 0
M  V30 7227 H 669.514 0.74002 -4.09771 0
M  V30 7228 H 672.111 3.52037 -4.0246 0
M  V30 7229 H 672.454 3.46122 -2.31312 0
M  V30 7230 H 672.987 2.12541 -3.36261 0
M  V30 7231 H 669.726 1.70206 -6.33017 0
M  V30 7232 H 669.246 2.98896 -5.2002 0
M  V30 7233 H 670.925 2.89359 -5.78689 0
M  V30 7234 N 671.057 1.43213 0.657864 0
M  V30 7235 C 672.282 1.48227 1.45064 0
M  V30 7236 C 672.707 0.0999939 1.87834 0
M  V30 7237 O 672.065 -0.905269 1.57081 0
M  V30 7238 C 672.113 2.42931 2.6649 0
M  V30 7239 O 671.217 1.91237 3.6538 0
M  V30 7240 H 670.558 0.501551 0.435135 0
M  V30 7241 H 673.088 1.8808 0.805431 0
M  V30 7242 H 673.098 2.6008 3.1436 0
M  V30 7243 H 671.773 3.43348 2.34701 0
M  V30 7244 H 670.35 1.83726 3.24498 0
M  V30 7245 N 672.536 -0.895792 1.29666 0
M  V30 7246 C 673.766 -1.67757 1.20586 0
M  V30 7247 C 674.174 -1.87729 -0.235432 0
M  V30 7248 O 673.517 -1.41706 -1.16898 0
M  V30 7249 C 673.579 -3.08117 1.85215 0
M  V30 7250 C 673.243 -3.1136 3.3452 0
M  V30 7251 C 674.24 -2.91217 4.30684 0
M  V30 7252 C 671.925 -3.33302 3.75786 0
M  V30 7253 C 673.919 -2.92955 5.66089 0
M  V30 7254 C 671.606 -3.3467 5.11311 0
M  V30 7255 C 672.604 -3.14519 6.06273 0
M  V30 7256 O 672.292 -3.15684 7.39323 0
M  V30 7257 H 672.024 -0.530601 0.418854 0
M  V30 7258 H 674.578 -1.12831 1.71634 0
M  V30 7259 H 672.808 -3.64661 1.28683 0
M  V30 7260 H 674.497 -3.68399 1.70403 0
M  V30 7261 H 675.263 -2.74074 4.00136 0
M  V30 7262 H 671.142 -3.48025 3.02324 0
M  V30 7263 H 674.686 -2.77145 6.40185 0
M  V30 7264 H 670.583 -3.51346 5.41504 0
M  V30 7265 H 671.351 -3.31924 7.48177 0
M  V30 7266 N 674.014 -1.12206 -1.10668 0
M  V30 7267 C 675.262 -0.874144 -1.82217 0
M  V30 7268 C 675.583 0.601736 -1.85484 0
M  V30 7269 O 674.853 1.43725 -1.33116 0
M  V30 7270 H 673.433 -0.320404 -0.674797 0
M  V30 7271 H 676.095 -1.41606 -1.33917 0
M  V30 7272 H 675.191 -1.25349 -2.85822 0
M  V30 7273 N 675.492 1.28418 -0.913599 0
M  V30 7274 C 676.424 2.26368 -0.359169 0
M  V30 7275 C 677.437 1.54858 0.502285 0
M  V30 7276 O 678.626 1.75659 0.31719 0
M  V30 7277 C 675.726 3.35112 0.50526 0
M  V30 7278 C 674.899 4.36126 -0.333648 0
M  V30 7279 C 673.958 5.24134 0.465845 0
M  V30 7280 O 672.984 5.6907 -0.121538 0
M  V30 7281 N 674.186 5.52892 1.76891 0
M  V30 7282 H 676.951 2.74579 -1.2011 0
M  V30 7283 H 674.512 1.41898 -0.779532 0
M  V30 7284 H 676.504 3.90926 1.04684 0
M  V30 7285 H 675.074 2.86611 1.2479 0
M  V30 7286 H 674.294 3.79776 -1.0566 0
M  V30 7287 H 675.582 5.00638 -0.907669 0
M  V30 7288 H 674.98 5.18217 2.26865 0
M  V30 7289 H 673.537 6.11464 2.25732 0
M  V30 7290 N 676.97 0.677563 1.42291 0
M  V30 7291 C 678.247 0.129803 1.95169 0
M  V30 7292 C 678.627 -1.35605 1.61786 0
M  V30 7293 O 677.975 -2.09361 0.915444 0
M  V30 7294 C 678.185 0.401889 3.46678 0
M  V30 7295 C 679.533 0.319889 4.23393 0
M  V30 7296 O 680.557 0.33579 3.54614 0
M  V30 7297 O 679.416 0.264459 5.4586 0
M  V30 7298 H 676.51 0.00447433 0.826988 0
M  V30 7299 H 679.056 0.752483 1.52105 0
M  V30 7300 H 677.828 1.43108 3.64192 0
M  V30 7301 H 677.451 -0.252662 3.96796 0
M  V30 7302 N 678.448 -1.51871 0.421078 0
M  V30 7303 C 679.694 -2.02894 -0.143346 0
M  V30 7304 C 680.049 -1.30054 -1.41787 0
M  V30 7305 O 679.342 -0.401776 -1.8734 0
M  V30 7306 C 679.536 -3.54764 -0.433292 0
M  V30 7307 C 679.365 -4.42316 0.811584 0
M  V30 7308 C 678.135 -4.872 1.34033 0
M  V30 7309 C 680.333 -4.85631 1.69313 0
M  V30 7310 N 678.315 -5.58915 2.53944 0
M  V30 7311 C 679.686 -5.56248 2.7384 0
M  V30 7312 C 681.741 -4.67634 1.70947 0
M  V30 7313 C 680.444 -6.10777 3.79927 0
M  V30 7314 C 682.47 -5.23068 2.7596 0
M  V30 7315 C 681.832 -5.93617 3.79207 0
M  V30 7316 H 677.931 -0.78188 -0.0137104 0
M  V30 7317 H 680.515 -1.85919 0.578105 0
M  V30 7318 H 678.686 -3.71787 -1.12378 0
M  V30 7319 H 680.418 -3.92464 -0.987644 0
M  V30 7320 H 677.173 -4.65035 0.896606 0
M  V30 7321 H 677.597 -5.99408 3.14704 0
M  V30 7322 H 682.239 -4.12566 0.9246 0
M  V30 7323 H 679.957 -6.64909 4.59262 0
M  V30 7324 H 683.543 -5.11005 2.78147 0
M  V30 7325 H 682.423 -6.35743 4.5913 0
M  V30 7326 N 679.926 -0.151884 -1.56866 0
M  V30 7327 C 681.342 0.204486 -1.58285 0
M  V30 7328 C 681.542 1.6431 -1.16639 0
M  V30 7329 O 680.598 2.37077 -0.868946 0
M  V30 7330 C 681.911 -0.0587019 -3.00643 0
M  V30 7331 C 683.459 0.00462303 -3.13 0
M  V30 7332 C 683.934 -0.231297 -4.57416 0
M  V30 7333 N 685.425 -0.178394 -4.62856 0
M  V30 7334 C 686.16 -0.335379 -5.72418 0
M  V30 7335 N 685.656 -0.550355 -6.90611 0
M  V30 7336 N 687.449 -0.272641 -5.61438 0
M  V30 7337 H 679.6 -1.09116 -1.82229 0
M  V30 7338 H 681.863 -0.432311 -0.843689 0
M  V30 7339 H 681.569 -1.05453 -3.35518 0
M  V30 7340 H 681.443 0.658508 -3.71407 0
M  V30 7341 H 683.83 0.991009 -2.77962 0
M  V30 7342 H 683.911 -0.744992 -2.44711 0
M  V30 7343 H 683.555 -1.2148 -4.93158 0
M  V30 7344 H 683.485 0.5387 -5.23837 0
M  V30 7345 H 685.976 -0.0170923 -3.77896 0
M  V30 7346 H 686.289 -0.660116 -7.69976 0
M  V30 7347 H 684.634 -0.586736 -6.92519 0
M  V30 7348 H 687.825 -0.105421 -4.67981 0
M  V30 7349 H 687.998 -0.398418 -6.46774 0
M  V30 7350 N 681.404 1.57128 0.121893 0
M  V30 7351 C 682.351 2.0013 1.14964 0
M  V30 7352 C 683.321 0.872959 1.4131 0
M  V30 7353 O 684.506 1.13696 1.53225 0
M  V30 7354 C 681.646 2.40824 2.4718 0
M  V30 7355 C 680.759 3.67061 2.27794 0
M  V30 7356 C 679.894 3.96749 3.53219 0
M  V30 7357 C 678.933 5.16178 3.28978 0
M  V30 7358 N 678.07 5.41751 4.46599 0
M  V30 7359 H 682.91 2.8772 0.775947 0
M  V30 7360 H 680.447 1.42328 0.371652 0
M  V30 7361 H 682.405 2.62454 3.24305 0
M  V30 7362 H 681.035 1.56279 2.82448 0
M  V30 7363 H 680.087 3.53063 1.416 0
M  V30 7364 H 681.399 4.5434 2.05857 0
M  V30 7365 H 680.553 4.19012 4.38764 0
M  V30 7366 H 679.292 3.07941 3.78185 0
M  V30 7367 H 678.297 4.93762 2.41824 0
M  V30 7368 H 679.522 6.06561 3.05386 0
M  V30 7369 H 677.468 4.55899 4.71691 0
M  V30 7370 H 677.385 6.23347 4.27756 0
M  V30 7371 H 678.653 5.68531 5.33285 0
M  V30 7372 N 682.882 -0.391992 1.52647 0
M  V30 7373 C 684.112 -1.15692 1.71169 0
M  V30 7374 C 684.52 -1.84285 0.428444 0
M  V30 7375 O 683.863 -1.73393 -0.606669 0
M  V30 7376 C 683.925 -2.25033 2.80357 0
M  V30 7377 C 683.589 -1.76433 4.21569 0
M  V30 7378 C 684.586 -1.2427 5.0483 0
M  V30 7379 C 682.271 -1.82746 4.67877 0
M  V30 7380 C 684.265 -0.790657 6.32477 0
M  V30 7381 C 681.952 -1.37153 5.9551 0
M  V30 7382 C 682.95 -0.853997 6.7764 0
M  V30 7383 O 682.638 -0.404708 8.02881 0
M  V30 7384 H 682.37 -0.35297 0.576531 0
M  V30 7385 H 684.924 -0.464994 2.00067 0
M  V30 7386 H 683.154 -2.97641 2.46874 0
M  V30 7387 H 684.843 -2.86718 2.87311 0
M  V30 7388 H 685.609 -1.18752 4.70237 0
M  V30 7389 H 681.488 -2.21971 4.04042 0
M  V30 7390 H 685.032 -0.386024 6.96531 0
M  V30 7391 H 680.929 -1.42356 6.29607 0
M  V30 7392 H 681.697 -0.526459 8.16805 0
M  V30 7393 N 684.36 -1.4356 -0.65026 0
M  V30 7394 C 685.59 -1.48563 -1.4357 0
M  V30 7395 C 685.998 -0.103041 -1.88919 0
M  V30 7396 O 685.341 0.897602 -1.60277 0
M  V30 7397 C 685.403 -2.37181 -2.70158 0
M  V30 7398 C 685.067 -3.84673 -2.4673 0
M  V30 7399 C 686.064 -4.75704 -2.09765 0
M  V30 7400 C 683.749 -4.29189 -2.60963 0
M  V30 7401 C 685.743 -6.09249 -1.87334 0
M  V30 7402 C 683.43 -5.62787 -2.38147 0
M  V30 7403 C 684.428 -6.52634 -2.01389 0
M  V30 7404 O 684.116 -7.83761 -1.78813 0
M  V30 7405 H 683.848 -0.506743 -0.447423 0
M  V30 7406 H 686.402 -1.89001 -0.80423 0
M  V30 7407 H 684.632 -1.91636 -3.35876 0
M  V30 7408 H 686.321 -2.33354 -3.32116 0
M  V30 7409 H 687.087 -4.42589 -1.98343 0
M  V30 7410 H 682.966 -3.59529 -2.88548 0
M  V30 7411 H 686.51 -6.7934 -1.58567 0
M  V30 7412 H 682.407 -5.95469 -2.49173 0
M  V30 7413 H 683.175 -7.95368 -1.93214 0
M  V30 7414 N 685.838 0.888903 -1.30139 0
M  V30 7415 C 686.785 1.99422 -1.16188 0
M  V30 7416 C 687.755 1.66017 -0.0523869 0
M  V30 7417 O 688.94 1.89506 -0.221864 0
M  V30 7418 C 686.08 3.34325 -0.855612 0
M  V30 7419 C 685.193 3.80445 -2.0466 0
M  V30 7420 C 684.328 5.03975 -1.67876 0
M  V30 7421 C 683.367 5.42492 -2.83493 0
M  V30 7422 N 682.504 6.57206 -2.47032 0
M  V30 7423 H 687.344 2.10687 -2.10749 0
M  V30 7424 H 684.881 1.03165 -1.04859 0
M  V30 7425 H 686.839 4.11968 -0.658681 0
M  V30 7426 H 685.469 3.22756 0.0531155 0
M  V30 7427 H 684.521 2.98745 -2.3549 0
M  V30 7428 H 685.833 4.04933 -2.91257 0
M  V30 7429 H 684.987 5.89232 -1.44535 0
M  V30 7430 H 683.726 4.8135 -0.784431 0
M  V30 7431 H 682.731 4.55764 -3.07505 0
M  V30 7432 H 683.956 5.67093 -3.73607 0
M  V30 7433 H 681.902 6.36164 -1.601 0
M  V30 7434 H 681.819 6.81543 -3.27161 0
M  V30 7435 H 683.087 7.45704 -2.27038 0
M  V30 7436 N 687.317 1.12792 1.10072 0
M  V30 7437 C 688.563 0.886857 1.82381 0
M  V30 7438 C 688.896 -0.58576 1.85155 0
M  V30 7439 O 688.171 -1.43317 1.31493 0
M  V30 7440 C 688.454 1.46703 3.28862 0
M  V30 7441 C 688.307 3.00829 3.34398 0
M  V30 7442 C 689.626 1.12971 4.25353 0
M  V30 7443 H 686.745 0.32362 0.662148 0
M  V30 7444 H 689.387 1.39513 1.28982 0
M  V30 7445 H 687.537 1.03476 3.74466 0
M  V30 7446 H 689.209 3.52764 2.97247 0
M  V30 7447 H 687.452 3.36164 2.74183 0
M  V30 7448 H 688.123 3.36519 4.3756 0
M  V30 7449 H 690.599 1.50313 3.88001 0
M  V30 7450 H 689.475 1.56223 5.26199 0
M  V30 7451 H 689.736 0.0424452 4.4208 0
M  V30 7452 N 688.795 -1.27931 0.920396 0
M  V30 7453 C 689.705 -2.30824 0.419212 0
M  V30 7454 C 690.721 -1.66767 -0.496461 0
M  V30 7455 O 691.897 -1.97763 -0.38104 0
M  V30 7456 C 688.962 -3.45158 -0.326601 0
M  V30 7457 C 688.023 -4.24754 0.623098 0
M  V30 7458 C 687.256 -5.33629 -0.0872172 0
M  V30 7459 O 687.479 -5.55204 -1.30784 0
M  V30 7460 O 686.413 -5.99091 0.580875 0
M  V30 7461 H 690.239 -2.75716 1.27337 0
M  V30 7462 H 687.824 -1.32747 0.685465 0
M  V30 7463 H 689.706 -4.14716 -0.747559 0
M  V30 7464 H 688.381 -3.02336 -1.15648 0
M  V30 7465 H 687.288 -3.57759 1.09359 0
M  V30 7466 H 688.621 -4.71272 1.41998 0
M  V30 7467 N 690.273 -0.685099 -1.4193 0
M  V30 7468 C 691.684 -0.287699 -1.8447 0
M  V30 7469 C 692.035 1.17215 -1.57338 0
M  V30 7470 O 691.16 1.89856 -1.03845 0
M  V30 7471 C 691.755 -0.515385 -3.34857 0
M  V30 7472 C 690.314 -0.172006 -3.76007 0
M  V30 7473 C 689.461 -0.802808 -2.65425 0
M  V30 7474 H 692.412 -0.88652 -1.3163 0
M  V30 7475 H 692.433 0.229251 -3.79809 0
M  V30 7476 H 691.945 -1.57796 -3.54573 0
M  V30 7477 H 690.046 0.886716 -3.61895 0
M  V30 7478 H 690.159 -0.619717 -4.75075 0
M  V30 7479 H 688.523 -0.233267 -2.5363 0
M  V30 7480 H 689.306 -1.86904 -2.87961 0
M  V30 7481 N 691.751 1.51645 -0.429126 0
M  V30 7482 C 692.681 2.30434 0.377148 0
M  V30 7483 C 693.662 1.35493 1.02838 0
M  V30 7484 O 694.847 1.6441 1.03359 0
M  V30 7485 C 691.977 3.14038 1.48315 0
M  V30 7486 C 690.931 4.1719 0.955855 0
M  V30 7487 C 690.257 4.89263 2.15698 0
M  V30 7488 C 691.557 5.223 -0.00402136 0
M  V30 7489 H 693.251 2.98085 -0.280336 0
M  V30 7490 H 690.797 1.43354 -0.136265 0
M  V30 7491 H 692.75 3.67933 2.05435 0
M  V30 7492 H 691.474 2.44193 2.16881 0
M  V30 7493 H 690.133 3.64335 0.406929 0
M  V30 7494 H 689.781 4.15929 2.82864 0
M  V30 7495 H 689.481 5.59009 1.81059 0
M  V30 7496 H 691.005 5.45978 2.73387 0
M  V30 7497 H 692.419 5.71315 0.476607 0
M  V30 7498 H 690.816 5.99525 -0.26258 0
M  V30 7499 H 691.886 4.75638 -0.943236 0
M  V30 7500 N 693.229 0.160201 1.56784 0
M  V30 7501 C 694.506 -0.533355 1.88188 0
M  V30 7502 C 694.886 -1.82072 1.06831 0
M  V30 7503 O 694.234 -2.27946 0.158959 0
M  V30 7504 C 694.444 -0.786034 3.40033 0
M  V30 7505 C 695.792 -1.12097 4.09536 0
M  V30 7506 O 696.816 -0.874949 3.45287 0
M  V30 7507 O 695.675 -1.58457 5.23023 0
M  V30 7508 H 692.769 -0.273589 0.780434 0
M  V30 7509 H 695.315 0.197803 1.68543 0
M  V30 7510 H 694.087 0.124515 3.91102 0
M  V30 7511 H 693.71 -1.57091 3.65251 0
M  V30 7512 N 694.707 -1.5719 -0.113559 0
M  V30 7513 C 695.954 -1.85138 -0.820382 0
M  V30 7514 C 696.282 -0.74608 -1.79622 0
M  V30 7515 O 695.537 0.262077 -1.93937 0
M  V30 7516 C 695.836 -3.19593 -1.59984 0
M  V30 7517 C 695.502 -4.44315 -0.767809 0
M  V30 7518 C 694.164 -4.78179 -0.538379 0
M  V30 7519 C 696.516 -5.2086 -0.188203 0
M  V30 7520 C 693.844 -5.86028 0.28082 0
M  V30 7521 C 696.196 -6.29572 0.618217 0
M  V30 7522 C 694.86 -6.61964 0.857912 0
M  V30 7523 H 694.13 -0.677467 -0.300199 0
M  V30 7524 H 696.777 -1.91322 -0.0825443 0
M  V30 7525 H 695.082 -3.0901 -2.40874 0
M  V30 7526 H 696.779 -3.3844 -2.1508 0
M  V30 7527 H 693.369 -4.17786 -0.956724 0
M  V30 7528 H 697.553 -4.95045 -0.352658 0
M  V30 7529 H 692.809 -6.09547 0.475693 0
M  V30 7530 H 696.983 -6.88064 1.0743 0
M  V30 7531 H 694.61 -7.45365 1.49451 0
M  V30 7532 N 696.185 0.383891 -1.52853 0
M  V30 7533 C 697.433 1.12619 -1.67814 0
M  V30 7534 C 697.754 1.90354 -0.423141 0
M  V30 7535 O 697.024 1.87649 0.562554 0
M  V30 7536 H 695.604 0.418738 -0.618601 0
M  V30 7537 H 698.266 0.43495 -1.89985 0
M  V30 7538 H 697.362 1.82624 -2.5309 0
M  V30 7539 N 697.663 1.43903 0.642637 0
M  V30 7540 C 698.911 1.45791 1.39962 0
M  V30 7541 C 699.232 0.0873144 1.94804 0
M  V30 7542 O 698.502 -0.878825 1.75081 0
M  V30 7543 H 697.082 0.536797 0.519479 0
M  V30 7544 H 699.744 1.7959 0.757189 0
M  V30 7545 H 698.84 2.17665 2.2367 0
M  V30 7546 N 699.141 -0.881989 1.30609 0
M  V30 7547 C 700.369 -1.66711 1.22536 0
M  V30 7548 C 700.784 -1.87614 -0.2113 0
M  V30 7549 O 700.141 -1.42576 -1.13923 0
M  V30 7550 C 700.192 -3.04182 1.95335 0
M  V30 7551 O 699.913 -2.8422 3.33393 0
M  V30 7552 C 701.414 -3.98617 1.93956 0
M  V30 7553 H 698.634 -0.520124 0.423925 0
M  V30 7554 H 701.178 -1.10174 1.72285 0
M  V30 7555 H 699.333 -3.57442 1.49378 0
M  V30 7556 H 699.747 -3.71452 3.70302 0
M  V30 7557 H 701.221 -4.92433 2.49426 0
M  V30 7558 H 701.698 -4.29473 0.919198 0
M  V30 7559 H 702.304 -3.51292 2.39738 0
M  V30 7560 N 700.619 -1.13374 -1.09472 0
M  V30 7561 C 701.551 -0.768466 -2.15933 0
M  V30 7562 C 702.564 0.209585 -1.61445 0
M  V30 7563 O 703.753 -0.010539 -1.78497 0
M  V30 7564 C 700.853 -0.118266 -3.38694 0
M  V30 7565 C 700.026 -1.12829 -4.22597 0
M  V30 7566 C 699.085 -0.503875 -5.23782 0
M  V30 7567 O 698.111 -1.16374 -5.57177 0
M  V30 7568 N 699.313 0.724288 -5.75964 0
M  V30 7569 H 702.078 -1.68457 -2.47876 0
M  V30 7570 H 699.639 -1.02668 -1.25183 0
M  V30 7571 H 701.631 0.311698 -4.03498 0
M  V30 7572 H 700.201 0.700769 -3.04644 0
M  V30 7573 H 699.421 -1.73556 -3.53938 0
M  V30 7574 H 700.709 -1.81095 -4.75481 0
M  V30 7575 H 700.107 1.27918 -5.51048 0
M  V30 7576 H 698.664 1.09692 -6.42504 0
M  V30 7577 N 702.098 1.27442 -0.927168 0
M  V30 7578 C 703.045 2.26863 -0.424459 0
M  V30 7579 C 704.015 1.5813 0.508346 0
M  V30 7580 O 705.2 1.85946 0.42762 0
M  V30 7581 C 702.34 3.43639 0.31718 0
M  V30 7582 C 701.453 4.27087 -0.649675 0
M  V30 7583 C 700.588 5.31082 0.111753 0
M  V30 7584 C 699.627 6.062 -0.847843 0
M  V30 7585 N 698.764 7.01999 -0.119074 0
M  V30 7586 H 703.604 2.69239 -1.27728 0
M  V30 7587 H 701.141 1.32394 -0.641106 0
M  V30 7588 H 703.099 4.10155 0.763486 0
M  V30 7589 H 701.729 3.02217 1.13424 0
M  V30 7590 H 700.781 3.60491 -1.21451 0
M  V30 7591 H 702.093 4.79242 -1.38307 0
M  V30 7592 H 701.247 6.03544 0.618 0
M  V30 7593 H 699.986 4.7973 0.878114 0
M  V30 7594 H 698.991 5.32577 -1.36534 0
M  V30 7595 H 700.216 6.59642 -1.61398 0
M  V30 7596 H 698.162 6.52977 0.629051 0
M  V30 7597 H 698.079 7.5184 -0.792046 0
M  V30 7598 H 699.347 7.78638 0.366537 0
M  V30 7599 N 703.576 0.692616 1.41565 0
M  V30 7600 C 704.508 -0.0137132 2.29196 0
M  V30 7601 C 705.521 -0.747417 1.44629 0
M  V30 7602 O 706.71 -0.598611 1.68163 0
M  V30 7603 C 703.81 -1.04347 3.22436 0
M  V30 7604 C 702.983 -0.379985 4.35746 0
M  V30 7605 C 702.042 -1.31195 5.09583 0
M  V30 7606 O 701.068 -0.805455 5.63472 0
M  V30 7607 N 702.27 -2.64443 5.16769 0
M  V30 7608 H 705.035 0.738614 2.90456 0
M  V30 7609 H 702.596 0.538415 1.52685 0
M  V30 7610 H 704.588 -1.6686 3.687 0
M  V30 7611 H 703.158 -1.69736 2.62504 0
M  V30 7612 H 702.378 0.424975 3.91903 0
M  V30 7613 H 703.666 0.0814904 5.08735 0
M  V30 7614 H 703.064 -3.08114 4.74428 0
M  V30 7615 H 701.621 -3.22159 5.66619 0
M  V30 7616 N 705.054 -1.51416 0.437162 0
M  V30 7617 C 706.001 -2.27743 -0.374374 0
M  V30 7618 C 706.971 -1.31327 -1.01698 0
M  V30 7619 O 708.156 -1.60229 -1.03592 0
M  V30 7620 C 705.296 -3.12241 -1.46969 0
M  V30 7621 C 704.409 -4.23651 -0.845236 0
M  V30 7622 C 703.544 -4.95458 -1.91559 0
M  V30 7623 C 702.583 -5.98789 -1.26956 0
M  V30 7624 N 701.72 -6.64005 -2.28126 0
M  V30 7625 H 706.56 -2.96654 0.282892 0
M  V30 7626 H 704.097 -1.46319 0.151352 0
M  V30 7627 H 706.055 -3.59556 -2.11602 0
M  V30 7628 H 704.685 -2.45445 -2.09659 0
M  V30 7629 H 703.737 -3.803 -0.0872059 0
M  V30 7630 H 705.049 -4.97683 -0.333582 0
M  V30 7631 H 704.203 -5.46321 -2.63854 0
M  V30 7632 H 702.942 -4.21055 -2.46097 0
M  V30 7633 H 701.947 -5.47219 -0.53207 0
M  V30 7634 H 703.172 -6.75149 -0.731509 0
M  V30 7635 H 701.118 -5.92415 -2.81745 0
M  V30 7636 H 701.035 -7.33802 -1.81852 0
M  V30 7637 H 702.303 -7.19498 -2.99905 0
M  V30 7638 N 706.532 -0.168513 -1.56696 0
M  V30 7639 C 707.464 0.794249 -2.14998 0
M  V30 7640 C 708.477 1.1957 -1.10485 0
M  V30 7641 O 709.666 1.13604 -1.37682 0
M  V30 7642 C 706.766 2.08018 -2.67547 0
M  V30 7643 C 705.939 1.84274 -3.96689 0
M  V30 7644 C 704.998 2.97059 -4.3433 0
M  V30 7645 O 704.024 2.67815 -5.02259 0
M  V30 7646 N 705.226 4.24775 -3.9566 0
M  V30 7647 H 707.991 0.295832 -2.98236 0
M  V30 7648 H 705.552 0.0143611 -1.61894 0
M  V30 7649 H 707.544 2.82559 -2.89729 0
M  V30 7650 H 706.114 2.49059 -1.88914 0
M  V30 7651 H 705.334 0.936528 -3.82914 0
M  V30 7652 H 706.622 1.65773 -4.81037 0
M  V30 7653 H 706.02 4.51395 -3.40968 0
M  V30 7654 H 704.577 4.96027 -4.22848 0
M  V30 7655 N 708.01 1.57248 0.105221 0
M  V30 7656 C 708.94 2.04374 1.12931 0
M  V30 7657 C 709.921 0.93074 1.42377 0
M  V30 7658 O 711.106 1.20136 1.52581 0
M  V30 7659 C 708.236 2.45967 2.45189 0
M  V30 7660 C 707.19 3.60838 2.30174 0
M  V30 7661 C 706.516 3.88374 3.67518 0
M  V30 7662 C 707.816 4.92084 1.75073 0
M  V30 7663 H 709.51 2.9018 0.737287 0
M  V30 7664 H 707.056 1.39601 0.353211 0
M  V30 7665 H 709.009 2.77542 3.17094 0
M  V30 7666 H 707.733 1.57148 2.86308 0
M  V30 7667 H 706.392 3.29493 1.60716 0
M  V30 7668 H 706.04 2.96739 4.06147 0
M  V30 7669 H 705.74 4.65703 3.58321 0
M  V30 7670 H 707.264 4.22415 4.40906 0
M  V30 7671 H 708.678 5.22106 2.36809 0
M  V30 7672 H 707.075 5.73507 1.76662 0
M  V30 7673 H 708.145 4.79684 0.709347 0
M  V30 7674 N 709.488 -0.375779 1.53054 0
M  V30 7675 C 710.735 -1.11948 1.68742 0
M  V30 7676 C 711.063 -1.89596 0.434015 0
M  V30 7677 O 710.318 -1.86787 -0.583867 0
M  V30 7678 C 710.617 -2.11356 2.88207 0
M  V30 7679 C 710.283 -1.50266 4.25124 0
M  V30 7680 C 708.945 -1.33333 4.62359 0
M  V30 7681 C 711.297 -1.05976 5.10312 0
M  V30 7682 C 708.625 -0.706765 5.82427 0
M  V30 7683 C 710.977 -0.447241 6.31017 0
M  V30 7684 C 709.641 -0.265314 6.66973 0
M  V30 7685 H 708.911 -0.409648 0.61747 0
M  V30 7686 H 711.558 -0.402492 1.87222 0
M  V30 7687 H 709.863 -2.89322 2.64197 0
M  V30 7688 H 711.56 -2.68833 2.97539 0
M  V30 7689 H 708.15 -1.64437 3.95801 0
M  V30 7690 H 712.334 -1.17855 4.82104 0
M  V30 7691 H 707.59 -0.554132 6.08884 0
M  V30 7692 H 711.764 -0.0958064 6.96334 0
M  V30 7693 H 709.391 0.222267 7.59875 0
M  V30 7694 N 710.966 -1.44241 -0.634997 0
M  V30 7695 C 712.215 -1.46102 -1.39058 0
M  V30 7696 C 712.528 -0.0959909 -1.95364 0
M  V30 7697 O 713.734 0.00788751 -2.71499 0
M  V30 7698 C 712.19 -2.57195 -2.51751 0
M  V30 7699 C 711.798 -3.99888 -2.01974 0
M  V30 7700 C 713.542 -2.68272 -3.28984 0
M  V30 7701 C 711.449 -5.02412 -3.11987 0
M  V30 7702 H 710.379 -0.543556 -0.522554 0
M  V30 7703 H 713.03 -1.70294 -0.683538 0
M  V30 7704 H 711.412 -2.26237 -3.25012 0
M  V30 7705 H 712.586 -4.40396 -1.35604 0
M  V30 7706 H 710.901 -3.93019 -1.37568 0
M  V30 7707 H 713.498 -3.42042 -4.10988 0
M  V30 7708 H 713.841 -1.73957 -3.78212 0
M  V30 7709 H 714.374 -2.98622 -2.62812 0
M  V30 7710 H 711.113 -5.98342 -2.67707 0
M  V30 7711 H 710.633 -4.66501 -3.77011 0
M  V30 7712 H 712.312 -5.25939 -3.76825 0
M  V30 7713 N 712.444 0.87505 -1.31075 0
M  V30 7714 C 713.692 1.62447 -1.20231 0
M  V30 7715 C 714.013 1.93506 0.240888 0
M  V30 7716 O 713.283 1.57847 1.16022 0
M  V30 7717 H 711.863 0.602207 -0.441991 0
M  V30 7718 H 714.525 1.04788 -1.64334 0
M  V30 7719 H 713.621 2.57031 -1.77036 0
M  V30 7720 N 713.922 1.13953 1.08869 0
M  V30 7721 C 715.17 0.903023 1.80803 0
M  V30 7722 C 715.491 -0.572151 1.86417 0
M  V30 7723 O 714.761 -1.41589 1.35386 0
M  V30 7724 H 713.341 0.331099 0.669614 0
M  V30 7725 H 716.003 1.43719 1.31647 0
M  V30 7726 H 715.099 1.29881 2.83791 0
M  V30 7727 N 715.4 -1.26948 0.933913 0
M  V30 7728 C 716.31 -2.30366 0.443671 0
M  V30 7729 C 717.326 -1.67284 -0.478745 0
M  V30 7730 O 718.502 -1.98156 -0.360043 0
M  V30 7731 C 715.567 -3.45485 -0.289974 0
M  V30 7732 C 714.628 -4.24069 0.668114 0
M  V30 7733 C 713.861 -5.33691 -0.0306138 0
M  V30 7734 O 714.084 -5.5656 -1.24888 0
M  V30 7735 O 713.018 -5.98441 0.644384 0
M  V30 7736 H 716.844 -2.74349 1.30254 0
M  V30 7737 H 714.429 -1.32012 0.699506 0
M  V30 7738 H 716.311 -4.15486 -0.70353 0
M  V30 7739 H 714.986 -3.03546 -1.12435 0
M  V30 7740 H 713.893 -3.56579 1.13147 0
M  V30 7741 H 715.226 -4.69739 1.46989 0
M  V30 7742 N 716.879 -0.700114 -1.41195 0
M  V30 7743 C 717.842 -0.0465706 -2.29153 0
M  V30 7744 C 718.842 0.703302 -1.44604 0
M  V30 7745 O 720.032 0.537513 -1.657 0
M  V30 7746 C 717.164 0.944324 -3.2756 0
M  V30 7747 H 718.357 -0.821064 -2.88442 0
M  V30 7748 H 715.91 -0.463869 -1.49258 0
M  V30 7749 H 716.645 1.74642 -2.73259 0
M  V30 7750 H 716.43 0.409701 -3.89954 0
M  V30 7751 H 717.92 1.39925 -3.9346 0
M  V30 7752 N 718.357 1.51182 -0.445186 0
M  V30 7753 C 719.597 2.04061 0.117717 0
M  V30 7754 C 719.961 1.32158 1.39278 0
M  V30 7755 O 721.162 1.75452 2.03642 0
M  V30 7756 C 719.433 3.55933 0.323445 0
M  V30 7757 S 720.992 4.30516 0.848627 0
M  V30 7758 H 717.81 0.710442 0.028165 0
M  V30 7759 H 720.412 1.85858 -0.606391 0
M  V30 7760 H 719.116 4.0583 -0.610764 0
M  V30 7761 H 718.647 3.78444 1.07441 0
M  V30 7762 H 720.662 4.48382 2.12528 0
M  V30 7763 N 719.835 0.176821 1.56605 0
M  V30 7764 C 720.765 -0.746841 2.21234 0
M  V30 7765 C 721.746 -1.23502 1.16967 0
M  V30 7766 O 722.931 -1.28718 1.45414 0
M  V30 7767 C 720.061 -1.97407 2.8574 0
M  V30 7768 C 719.015 -1.62153 3.96094 0
M  V30 7769 C 718.341 -2.92387 4.47676 0
M  V30 7770 C 719.641 -0.845353 5.15413 0
M  V30 7771 H 721.335 -0.208116 2.98676 0
M  V30 7772 H 718.881 -0.0986594 1.43662 0
M  V30 7773 H 720.834 -2.62531 3.2963 0
M  V30 7774 H 719.558 -2.53703 2.05676 0
M  V30 7775 H 718.217 -0.993964 3.52868 0
M  V30 7776 H 717.865 -3.46734 3.64396 0
M  V30 7777 H 717.565 -2.69551 5.22127 0
M  V30 7778 H 719.089 -3.5853 4.94255 0
M  V30 7779 H 720.503 -1.39929 5.55961 0
M  V30 7780 H 718.9 -0.715814 5.95815 0
M  V30 7781 H 719.97 0.157239 4.84645 0
M  V30 7782 N 721.313 -1.57302 -0.09688 0
M  V30 7783 C 722.559 -1.87144 -0.796778 0
M  V30 7784 C 722.914 -0.767428 -1.76432 0
M  V30 7785 O 722.207 0.230728 -1.90206 0
M  V30 7786 C 722.401 -3.21272 -1.56586 0
M  V30 7787 C 722.23 -4.44616 -0.674295 0
M  V30 7788 C 721 -5.04281 -0.320705 0
M  V30 7789 C 723.198 -5.14297 0.0179445 0
M  V30 7790 N 721.18 -6.11162 0.579206 0
M  V30 7791 C 722.551 -6.15125 0.775992 0
M  V30 7792 C 724.606 -4.97815 0.0920521 0
M  V30 7793 C 723.309 -7.01251 1.60122 0
M  V30 7794 C 725.335 -5.84447 0.904175 0
M  V30 7795 C 724.697 -6.84794 1.65035 0
M  V30 7796 H 720.796 -0.734721 -0.267787 0
M  V30 7797 H 723.38 -1.94609 -0.0593955 0
M  V30 7798 H 721.551 -3.14862 -2.27413 0
M  V30 7799 H 723.283 -3.38846 -2.21281 0
M  V30 7800 H 720.038 -4.68866 -0.667961 0
M  V30 7801 H 720.462 -6.69247 1.02166 0
M  V30 7802 H 725.104 -4.20174 -0.470492 0
M  V30 7803 H 722.822 -7.78284 2.17484 0
M  V30 7804 H 726.408 -5.73755 0.964165 0
M  V30 7805 H 725.288 -7.50668 2.26864 0
M  V30 7806 N 722.791 0.367657 -1.53252 0
M  V30 7807 C 724.039 1.10832 -1.68999 0
M  V30 7808 C 724.36 1.89894 -0.443306 0
M  V30 7809 O 723.63 1.88235 0.54262 0
M  V30 7810 H 722.21 0.412153 -0.623008 0
M  V30 7811 H 724.872 0.414775 -1.90435 0
M  V30 7812 H 723.968 1.7993 -2.55013 0
M  V30 7813 N 724.269 1.44576 0.627338 0
M  V30 7814 C 725.179 1.54232 1.76776 0
M  V30 7815 C 726.195 0.427782 1.6866 0
M  V30 7816 O 727.371 0.685671 1.89369 0
M  V30 7817 C 724.436 1.48738 3.13174 0
M  V30 7818 C 723.497 2.71074 3.32893 0
M  V30 7819 C 722.73 2.65832 4.62784 0
M  V30 7820 O 722.953 1.72048 5.43834 0
M  V30 7821 O 721.887 3.56742 4.84787 0
M  V30 7822 H 725.713 2.50586 1.71582 0
M  V30 7823 H 723.298 1.26865 0.789028 0
M  V30 7824 H 725.18 1.48211 3.94476 0
M  V30 7825 H 723.855 0.555292 3.18902 0
M  V30 7826 H 722.762 2.77168 2.51254 0
M  V30 7827 H 724.095 3.63342 3.32029 0
M  V30 7828 N 725.747 -0.868086 1.31537 0
M  V30 7829 C 726.977 -1.65162 1.24118 0
M  V30 7830 C 727.385 -1.88187 -0.195558 0
M  V30 7831 O 726.728 -1.44154 -1.13866 0
M  V30 7832 C 726.79 -3.04119 1.91708 0
M  V30 7833 C 726.454 -3.04194 3.4105 0
M  V30 7834 C 727.451 -2.82016 4.36764 0
M  V30 7835 C 725.136 -3.25256 3.82772 0
M  V30 7836 C 727.13 -2.80881 5.72175 0
M  V30 7837 C 724.817 -3.23749 5.18295 0
M  V30 7838 C 725.815 -3.01589 6.12808 0
M  V30 7839 O 725.503 -2.9993 7.45853 0
M  V30 7840 H 725.235 -0.521597 0.430015 0
M  V30 7841 H 727.789 -1.09165 1.73989 0
M  V30 7842 H 726.019 -3.61849 1.36389 0
M  V30 7843 H 727.708 -3.64701 1.78179 0
M  V30 7844 H 728.474 -2.65525 4.05859 0
M  V30 7845 H 724.353 -3.41534 3.09638 0
M  V30 7846 H 727.897 -2.63503 6.45919 0
M  V30 7847 H 723.794 -3.39781 5.48834 0
M  V30 7848 H 724.562 -3.15979 7.55049 0
M  V30 7849 N 727.225 -1.14528 -1.08264 0
M  V30 7850 C 728.471 -0.91576 -1.80947 0
M  V30 7851 C 728.804 0.55623 -1.86064 0
M  V30 7852 O 728.079 1.41207 -1.33756 0
M  V30 7853 C 728.362 -1.51917 -3.26486 0
M  V30 7854 C 728.215 -3.06111 -3.2957 0
M  V30 7855 C 729.534 -1.19724 -4.23502 0
M  V30 7856 H 726.653 -0.334113 -0.656915 0
M  V30 7857 H 729.295 -1.41547 -1.26746 0
M  V30 7858 H 727.445 -1.0942 -3.72773 0
M  V30 7859 H 729.117 -3.57448 -2.91597 0
M  V30 7860 H 727.36 -3.40483 -2.688 0
M  V30 7861 H 728.031 -3.43438 -4.32151 0
M  V30 7862 H 730.507 -1.56467 -3.85561 0
M  V30 7863 H 729.383 -1.64575 -5.23647 0
M  V30 7864 H 729.644 -0.112771 -4.41956 0
M  V30 7865 N 728.703 1.26451 -0.940633 0
M  V30 7866 C 729.98 1.88947 -0.505811 0
M  V30 7867 C 730.36 1.85011 1.01657 0
M  V30 7868 O 729.708 1.30406 1.87634 0
M  V30 7869 C 729.918 3.32304 -1.06654 0
M  V30 7870 C 731.266 4.09153 -1.13486 0
M  V30 7871 O 732.29 3.41371 -1.01708 0
M  V30 7872 O 731.149 5.30369 -1.31797 0
M  V30 7873 H 728.243 0.810422 -0.164759 0
M  V30 7874 H 730.789 1.34625 -1.03316 0
M  V30 7875 H 729.561 3.29527 -2.11015 0
M  V30 7876 H 729.184 3.94164 -0.521603 0
M  V30 7877 N 730.181 0.707592 1.40822 0
M  V30 7878 C 731.144 0.0587224 2.29125 0
M  V30 7879 C 732.144 -0.695624 1.44975 0
M  V30 7880 O 733.334 -0.528718 1.65983 0
M  V30 7881 C 730.466 -0.926939 3.28056 0
M  V30 7882 H 731.659 0.836349 2.88002 0
M  V30 7883 H 729.212 0.471778 1.4901 0
M  V30 7884 H 729.947 -1.7319 2.74182 0
M  V30 7885 H 729.732 -0.389015 3.90165 0
M  V30 7886 H 731.222 -1.37837 3.94196 0
M  V30 7887 N 731.66 -1.50943 0.453197 0
M  V30 7888 C 732.888 -2.06628 -0.106135 0
M  V30 7889 C 733.303 -1.31901 -1.35084 0
M  V30 7890 O 732.66 -0.383074 -1.78434 0
M  V30 7891 C 732.711 -3.5914 -0.412368 0
M  V30 7892 O 732.432 -4.31047 0.782948 0
M  V30 7893 C 733.933 -4.31391 -1.02064 0
M  V30 7894 H 731.153 -0.670999 -0.000885896 0
M  V30 7895 H 733.697 -1.94331 0.63684 0
M  V30 7896 H 731.852 -3.71299 -1.10526 0
M  V30 7897 H 732.266 -5.21948 0.516736 0
M  V30 7898 H 733.74 -5.39135 -1.1848 0
M  V30 7899 H 734.217 -3.90714 -2.00598 0
M  V30 7900 H 734.823 -4.23716 -0.366664 0
M  V30 7901 N 733.138 -0.185124 -1.56509 0
M  V30 7902 C 734.086 0.756505 -2.19954 0
M  V30 7903 C 735.08 1.22725 -1.16769 0
M  V30 7904 O 736.286 1.1913 -1.34937 0
M  V30 7905 H 732.661 0.262279 -0.704779 0
M  V30 7906 H 734.632 0.197587 -2.97745 0
M  V30 7907 C 733.381 1.96975 -2.86524 0
M  V30 7908 H 732.704 1.61658 -3.65659 0
M  V30 7909 H 734.144 2.60719 -3.34367 0
M  V30 7910 C 732.603 2.80219 -1.87027 0
M  V30 7911 O 733.133 3.77821 -1.36433 0
M  V30 7912 N 731.339 2.4551 -1.55477 0
M  V30 7913 H 730.886 1.66199 -1.96813 0
M  V30 7914 H 730.844 3.01493 -0.891597 0
M  V30 7915 N 734.616 1.57351 0.0885366 0
M  V30 7916 C 735.546 2.05561 1.10757 0
M  V30 7917 C 736.527 0.945789 1.41382 0
M  V30 7918 O 737.712 1.21747 1.51299 0
M  V30 7919 C 734.842 2.48554 2.42566 0
M  V30 7920 C 733.796 3.63259 2.26334 0
M  V30 7921 C 733.122 3.9225 3.63378 0
M  V30 7922 C 734.422 4.93913 1.69844 0
M  V30 7923 H 736.116 2.90946 0.706468 0
M  V30 7924 H 733.662 1.39968 0.338385 0
M  V30 7925 H 735.615 2.8089 3.14132 0
M  V30 7926 H 734.339 1.60176 2.84625 0
M  V30 7927 H 732.998 3.31179 1.57213 0
M  V30 7928 H 732.646 3.0103 4.02976 0
M  V30 7929 H 732.346 4.69478 3.53362 0
M  V30 7930 H 733.87 4.27067 4.36401 0
M  V30 7931 H 735.284 5.24588 2.31258 0
M  V30 7932 H 733.681 5.75349 1.70569 0
M  V30 7933 H 734.751 4.80409 0.65843 0
M  V30 7934 N 736.094 -0.359525 1.53444 0
M  V30 7935 C 737.322 -1.12198 1.73837 0
M  V30 7936 C 737.737 -1.82854 0.470107 0
M  V30 7937 O 737.094 -1.73781 -0.557349 0
M  V30 7938 C 737.145 -2.14769 2.90786 0
M  V30 7939 O 736.866 -1.46989 4.12706 0
M  V30 7940 C 738.367 -3.03514 3.231 0
M  V30 7941 H 735.587 -0.33524 0.581253 0
M  V30 7942 H 738.131 -0.416598 2.00212 0
M  V30 7943 H 736.286 -2.80896 2.66788 0
M  V30 7944 H 736.7 -2.15378 4.78239 0
M  V30 7945 H 738.174 -3.71453 4.08322 0
M  V30 7946 H 738.651 -3.68658 2.38721 0
M  V30 7947 H 739.257 -2.42996 3.49046 0
M  V30 7948 N 737.572 -1.44907 -0.619662 0
M  V30 7949 C 738.983 -1.42905 -1.20146 0
M  V30 7950 C 739.334 -0.150341 -1.95623 0
M  V30 7951 O 738.459 0.748732 -2.03034 0
M  V30 7952 C 739.054 -2.58889 -2.18545 0
M  V30 7953 C 737.613 -2.60046 -2.72127 0
M  V30 7954 C 736.76 -2.3493 -1.4732 0
M  V30 7955 H 739.711 -1.53321 -0.409666 0
M  V30 7956 H 739.732 -2.32298 -3.0136 0
M  V30 7957 H 739.244 -3.51941 -1.63583 0
M  V30 7958 H 737.345 -1.70968 -3.3106 0
M  V30 7959 H 737.458 -3.58893 -3.17384 0
M  V30 7960 H 735.822 -1.84248 -1.75855 0
M  V30 7961 H 736.605 -3.3011 -0.942442 0
M  V30 7962 N 739.05 0.861098 -1.31996 0
M  V30 7963 C 740.466 1.14827 -1.10846 0
M  V30 7964 C 740.666 2.0117 0.11528 0
M  V30 7965 O 739.722 2.39423 0.802048 0
M  V30 7966 C 741.035 1.83183 -2.38462 0
M  V30 7967 C 742.583 1.95847 -2.44158 0
M  V30 7968 C 743.058 2.67617 -3.71679 0
M  V30 7969 N 744.549 2.75147 -3.72624 0
M  V30 7970 C 745.284 3.31314 -4.67994 0
M  V30 7971 N 744.78 3.88343 -5.73726 0
M  V30 7972 N 746.573 3.29356 -4.55501 0
M  V30 7973 H 738.724 0.285951 -2.10466 0
M  V30 7974 H 740.987 0.189303 -0.928907 0
M  V30 7975 H 740.693 1.27193 -3.27895 0
M  V30 7976 H 740.567 2.83393 -2.48935 0
M  V30 7977 H 742.954 2.50999 -1.55189 0
M  V30 7978 H 743.035 0.94653 -2.37644 0
M  V30 7979 H 742.679 2.13131 -4.61018 0
M  V30 7980 H 742.609 3.69237 -3.75462 0
M  V30 7981 H 745.1 2.34682 -2.96197 0
M  V30 7982 H 745.413 4.29338 -6.42564 0
M  V30 7983 H 743.758 3.86693 -5.77489 0
M  V30 7984 H 746.949 2.84047 -3.72069 0
M  V30 7985 H 747.122 3.7283 -5.30001 0
M  V30 7986 N 740.528 1.15101 1.07655 0
M  V30 7987 C 741.458 0.867864 2.16773 0
M  V30 7988 C 742.439 -0.180283 1.69142 0
M  V30 7989 O 743.624 -0.0353152 1.94168 0
M  V30 7990 C 740.754 0.35299 3.45501 0
M  V30 7991 C 739.708 1.33746 4.06566 0
M  V30 7992 C 739.034 0.681562 5.30338 0
M  V30 7993 C 740.334 2.7024 4.46954 0
M  V30 7994 H 742.028 1.78034 2.40716 0
M  V30 7995 H 739.574 0.857435 1.15689 0
M  V30 7996 H 741.527 0.142465 4.21159 0
M  V30 7997 H 740.251 -0.594945 3.21135 0
M  V30 7998 H 738.91 1.53429 3.32949 0
M  V30 7999 H 738.558 -0.272422 5.02262 0
M  V30 8000 H 738.258 1.33853 5.72151 0
M  V30 8001 H 739.782 0.48074 6.08705 0
M  V30 8002 H 741.196 2.5442 5.13754 0
M  V30 8003 H 739.593 3.32282 4.99709 0
M  V30 8004 H 740.663 3.26537 3.58471 0
M  V30 8005 N 742.006 -1.2595 0.947325 0
M  V30 8006 C 743.252 -1.94081 0.608604 0
M  V30 8007 C 743.607 -1.72899 -0.844021 0
M  V30 8008 O 742.9 -1.05908 -1.59669 0
M  V30 8009 C 743.094 -3.46034 0.894158 0
M  V30 8010 C 742.923 -3.81994 2.37299 0
M  V30 8011 C 741.693 -4.04431 3.02925 0
M  V30 8012 C 743.891 -3.90069 3.35188 0
M  V30 8013 N 741.873 -4.27325 4.40757 0
M  V30 8014 C 743.244 -4.17567 4.58299 0
M  V30 8015 C 745.299 -3.72721 3.30127 0
M  V30 8016 C 744.002 -4.2952 5.76979 0
M  V30 8017 C 746.028 -3.8591 4.48138 0
M  V30 8018 C 745.39 -4.13812 5.70034 0
M  V30 8019 H 741.489 -0.73273 0.273187 0
M  V30 8020 H 744.073 -1.51898 1.218 0
M  V30 8021 H 742.244 -3.87131 0.313758 0
M  V30 8022 H 743.976 -4.01396 0.516082 0
M  V30 8023 H 740.731 -4.0003 2.53521 0
M  V30 8024 H 741.155 -4.42792 5.12118 0
M  V30 8025 H 745.797 -3.50172 2.36938 0
M  V30 8026 H 743.515 -4.50888 6.70616 0
M  V30 8027 H 747.101 -3.73882 4.45762 0
M  V30 8028 H 745.981 -4.23791 6.59827 0
M  V30 8029 N 743.484 -0.715051 -1.40445 0
M  V30 8030 C 744.895 -0.326763 -1.83818 0
M  V30 8031 C 745.246 1.13851 -1.59789 0
M  V30 8032 O 744.371 1.87611 -1.07848 0
M  V30 8033 C 744.966 -0.586297 -3.33688 0
M  V30 8034 C 743.525 -0.251724 -3.75557 0
M  V30 8035 C 742.672 -0.858928 -2.63662 0
M  V30 8036 H 745.623 -0.914241 -1.2972 0
M  V30 8037 H 745.644 0.148636 -3.8021 0
M  V30 8038 H 745.156 -1.65281 -3.51146 0
M  V30 8039 H 743.257 0.809754 -3.63695 0
M  V30 8040 H 743.37 -0.720348 -4.73654 0
M  V30 8041 H 741.734 -0.287013 -2.53078 0
M  V30 8042 H 742.517 -1.9297 -2.83932 0
M  V30 8043 N 744.962 1.50701 -0.461195 0
M  V30 8044 C 746.378 1.59187 -0.114786 0
M  V30 8045 C 746.578 1.4702 1.37794 0
M  V30 8046 O 745.634 1.32361 2.15027 0
M  V30 8047 C 746.947 2.93453 -0.656167 0
M  V30 8048 C 748.495 3.06824 -0.618715 0
M  V30 8049 C 748.97 4.4365 -1.13747 0
M  V30 8050 N 750.461 4.50035 -1.09646 0
M  V30 8051 C 751.196 5.54278 -1.46846 0
M  V30 8052 N 750.692 6.65822 -1.91448 0
M  V30 8053 N 752.485 5.44767 -1.38512 0
M  V30 8054 H 744.636 1.56853 -1.43216 0
M  V30 8055 H 746.899 0.740712 -0.59165 0
M  V30 8056 H 746.605 3.07802 -1.7015 0
M  V30 8057 H 746.479 3.77082 -0.0942261 0
M  V30 8058 H 748.866 2.92129 0.417685 0
M  V30 8059 H 748.947 2.24976 -1.21734 0
M  V30 8060 H 748.591 4.59093 -2.17245 0
M  V30 8061 H 748.521 5.24074 -0.515153 0
M  V30 8062 H 751.012 3.69988 -0.769217 0
M  V30 8063 H 751.325 7.41413 -2.18007 0
M  V30 8064 H 749.67 6.66968 -1.95393 0
M  V30 8065 H 752.861 4.56511 -1.03516 0
M  V30 8066 H 753.034 6.25889 -1.6783 0
M  V30 8067 N 746.441 0.193421 1.56409 0
M  V30 8068 C 747.404 -0.714371 2.17783 0
M  V30 8069 C 748.404 -1.1422 1.13183 0
M  V30 8070 O 749.594 -1.05557 1.38576 0
M  V30 8071 C 746.726 -1.97509 2.77855 0
M  V30 8072 H 747.919 -0.179714 2.99361 0
M  V30 8073 H 745.472 -0.0561944 1.56199 0
M  V30 8074 H 746.207 -2.5523 2.0007 0
M  V30 8075 H 745.992 -1.67706 3.54425 0
M  V30 8076 H 747.482 -2.62246 3.24987 0
M  V30 8077 N 747.919 -1.57396 -0.0801906 0
M  V30 8078 C 749.144 -1.91437 -0.797909 0
M  V30 8079 C 749.569 -0.789075 -1.70749 0
M  V30 8080 O 748.927 0.25857 -1.79447 0
M  V30 8081 C 748.975 -3.24402 -1.57467 0
M  V30 8082 O 748.079 -3.13043 -2.68473 0
M  V30 8083 H 747.42 -0.627109 -0.218243 0
M  V30 8084 H 749.95 -2.04537 -0.050949 0
M  V30 8085 H 749.96 -3.58072 -1.95571 0
M  V30 8086 H 748.635 -4.05884 -0.907229 0
M  V30 8087 H 747.212 -2.90915 -2.33287 0
M  V30 8088 N 749.397 0.351382 -1.53633 0
M  V30 8089 C 750.36 1.41403 -1.80383 0
M  V30 8090 C 751.36 1.45963 -0.674635 0
M  V30 8091 O 752.55 1.46476 -0.942895 0
M  V30 8092 C 749.682 2.80401 -1.93876 0
M  V30 8093 H 750.875 1.18951 -2.75301 0
M  V30 8094 H 748.428 0.58533 -1.44926 0
M  V30 8095 H 749.163 3.08147 -1.01074 0
M  V30 8096 H 748.948 2.78488 -2.7602 0
M  V30 8097 H 750.438 3.57329 -2.16116 0
M  V30 8098 N 750.875 1.45233 0.611969 0
M  V30 8099 C 752.121 1.49242 1.37312 0
M  V30 8100 C 752.454 0.131963 1.93751 0
M  V30 8101 O 751.729 -0.852999 1.74798 0
M  V30 8102 C 752.012 2.56811 2.52428 0
M  V30 8103 C 751.865 4.02284 2.01215 0
M  V30 8104 C 753.184 2.60705 3.54572 0
M  V30 8105 H 750.303 0.54336 0.497925 0
M  V30 8106 H 752.945 1.77019 0.690242 0
M  V30 8107 H 751.095 2.33256 3.10683 0
M  V30 8108 H 752.767 4.37035 1.47643 0
M  V30 8109 H 751.01 4.1315 1.32248 0
M  V30 8110 H 751.681 4.7323 2.84178 0
M  V30 8111 H 754.157 2.81799 3.06151 0
M  V30 8112 H 753.033 3.37841 4.32614 0
M  V30 8113 H 753.294 1.65627 4.09903 0
M  V30 8114 N 752.353 -0.854086 1.3245 0
M  V30 8115 C 753.601 -1.60513 1.228 0
M  V30 8116 C 753.922 -1.93865 -0.210073 0
M  V30 8117 O 753.192 -1.59673 -1.13496 0
M  V30 8118 H 751.772 -0.595099 0.451516 0
M  V30 8119 H 754.434 -1.0216 1.6598 0
M  V30 8120 H 753.53 -2.54182 1.81102 0
M  V30 8121 N 753.831 -1.1567 -1.07043 0
M  V30 8122 C 754.741 -0.870435 -2.17855 0
M  V30 8123 C 755.757 0.154452 -1.73313 0
M  V30 8124 O 756.933 -0.0203759 -2.0139 0
M  V30 8125 C 753.998 -0.367219 -3.4475 0
M  V30 8126 C 753.059 -1.45639 -4.03841 0
M  V30 8127 C 752.292 -0.977092 -5.2468 0
M  V30 8128 O 752.515 0.176127 -5.70128 0
M  V30 8129 O 751.449 -1.76215 -5.75527 0
M  V30 8130 H 755.275 -1.79687 -2.44839 0
M  V30 8131 H 752.86 -0.936064 -1.1644 0
M  V30 8132 H 754.742 -0.0931947 -4.21297 0
M  V30 8133 H 753.417 0.53131 -3.1931 0
M  V30 8134 H 752.324 -1.78406 -3.28819 0
M  V30 8135 H 753.657 -2.32995 -4.3356 0
M  V30 8136 N 755.309 1.25446 -0.953992 0
M  V30 8137 C 756.725 1.4539 -0.658316 0
M  V30 8138 C 756.925 1.85607 0.784356 0
M  V30 8139 O 755.981 1.98568 1.55972 0
M  V30 8140 C 757.294 2.52643 -1.6307 0
M  V30 8141 C 758.842 2.66484 -1.64181 0
M  V30 8142 C 759.317 3.76921 -2.60182 0
M  V30 8143 N 760.808 3.84331 -2.58542 0
M  V30 8144 C 761.543 4.69271 -3.29503 0
M  V30 8145 N 761.039 5.58503 -4.09934 0
M  V30 8146 N 762.832 4.6323 -3.18393 0
M  V30 8147 H 754.983 0.976337 -1.8863 0
M  V30 8148 H 757.246 0.490343 -0.811337 0
M  V30 8149 H 756.952 2.29949 -2.66114 0
M  V30 8150 H 756.826 3.50547 -1.39271 0
M  V30 8151 H 759.213 2.88545 -0.618552 0
M  V30 8152 H 759.294 1.68982 -1.92038 0
M  V30 8153 H 758.938 3.55612 -3.62633 0
M  V30 8154 H 758.868 4.73906 -2.29609 0
M  V30 8155 H 761.359 3.20544 -2.0015 0
M  V30 8156 H 761.672 6.20241 -4.61 0
M  V30 8157 H 760.017 5.58214 -4.14032 0
M  V30 8158 H 763.208 3.92527 -2.5503 0
M  V30 8159 H 763.381 5.29204 -3.73961 0
M  V30 8160 N 756.787 0.722489 1.40064 0
M  V30 8161 C 757.717 0.0892452 2.33329 0
M  V30 8162 C 758.698 -0.737992 1.53257 0
M  V30 8163 O 759.883 -0.685516 1.81698 0
M  V30 8164 C 757.013 -0.828139 3.37282 0
M  V30 8165 C 755.967 -0.106005 4.27869 0
M  V30 8166 C 755.293 -1.13957 5.22415 0
M  V30 8167 C 756.593 1.04395 5.11761 0
M  V30 8168 H 758.287 0.868269 2.86534 0
M  V30 8169 H 755.833 0.418982 1.3777 0
M  V30 8170 H 757.786 -1.28058 4.01471 0
M  V30 8171 H 756.51 -1.63914 2.82489 0
M  V30 8172 H 755.169 0.326683 3.65142 0
M  V30 8173 H 754.817 -1.9438 4.63924 0
M  V30 8174 H 754.517 -0.661233 5.83868 0
M  V30 8175 H 756.041 -1.59197 5.89482 0
M  V30 8176 H 757.455 0.670541 5.69365 0
M  V30 8177 H 755.852 1.4511 5.82291 0
M  V30 8178 H 756.922 1.87144 4.47331 0
M  V30 8179 N 758.265 -1.50454 0.469181 0
M  V30 8180 C 759.511 -2.03248 -0.0787241 0
M  V30 8181 C 759.866 -1.34499 -1.37578 0
M  V30 8182 O 759.159 -0.461173 -1.85967 0
M  V30 8183 C 759.353 -3.55963 -0.320207 0
M  V30 8184 C 759.182 -4.3951 0.951893 0
M  V30 8185 C 757.952 -4.82689 1.49465 0
M  V30 8186 C 760.15 -4.79999 1.84677 0
M  V30 8187 N 758.132 -5.50553 2.71597 0
M  V30 8188 C 759.503 -5.47254 2.91398 0
M  V30 8189 C 761.558 -4.61959 1.85738 0
M  V30 8190 C 760.261 -5.98381 3.99166 0
M  V30 8191 C 762.287 -5.14024 2.92461 0
M  V30 8192 C 761.649 -5.81253 3.97901 0
M  V30 8193 H 757.748 -0.78192 0.0111715 0
M  V30 8194 H 760.332 -1.83986 0.636961 0
M  V30 8195 H 758.503 -3.75174 -1.00493 0
M  V30 8196 H 760.235 -3.95407 -0.862285 0
M  V30 8197 H 756.99 -4.61948 1.0441 0
M  V30 8198 H 757.414 -5.89093 3.33615 0
M  V30 8199 H 762.056 -4.09416 1.05539 0
M  V30 8200 H 759.774 -6.49961 4.80183 0
M  V30 8201 H 763.36 -5.01897 2.94263 0
M  V30 8202 H 762.24 -6.20814 4.79123 0
M  V30 8203 N 759.743 -0.201713 -1.56304 0
M  V30 8204 C 760.968 0.443815 -2.02596 0
M  V30 8205 C 761.393 1.53945 -1.08086 0
M  V30 8206 O 760.751 1.81182 -0.0655056 0
M  V30 8207 C 760.799 0.971066 -3.47279 0
M  V30 8208 O 759.903 2.0836 -3.55893 0
M  V30 8209 H 759.244 0.10294 -0.655972 0
M  V30 8210 H 761.774 -0.314533 -2.02168 0
M  V30 8211 H 761.784 1.28598 -3.87204 0
M  V30 8212 H 760.459 0.169048 -4.15556 0
M  V30 8213 H 759.036 1.77683 -3.27846 0
M  V30 8214 N 761.222 1.57436 0.0718424 0
M  V30 8215 C 762.447 1.91858 0.787745 0
M  V30 8216 C 762.872 0.798119 1.70328 0
M  V30 8217 O 762.23 -0.24905 1.79581 0
M  V30 8218 C 762.278 3.25232 1.55744 0
M  V30 8219 O 761.382 3.14462 2.6681 0
M  V30 8220 H 760.723 0.628258 0.214914 0
M  V30 8221 H 763.253 2.04561 0.0401012 0
M  V30 8222 H 763.263 3.59105 1.9367 0
M  V30 8223 H 761.938 4.0636 0.885691 0
M  V30 8224 H 760.515 2.92148 2.31741 0
M  V30 8225 N 762.7 -0.34323 1.53817 0
M  V30 8226 C 763.647 -1.42153 1.81827 0
M  V30 8227 C 764.617 -1.52251 0.663996 0
M  V30 8228 O 765.802 -1.67784 0.908461 0
M  V30 8229 C 762.942 -2.78799 2.03384 0
M  V30 8230 C 762.055 -2.7749 3.31094 0
M  V30 8231 C 761.19 -4.05856 3.42717 0
M  V30 8232 C 760.229 -3.98776 4.64375 0
M  V30 8233 N 759.366 -5.18833 4.73029 0
M  V30 8234 H 764.206 -1.17567 2.73829 0
M  V30 8235 H 761.743 -0.569506 1.35628 0
M  V30 8236 H 763.701 -3.58211 2.13872 0
M  V30 8237 H 762.331 -3.01736 1.14696 0
M  V30 8238 H 761.383 -1.90182 3.29446 0
M  V30 8239 H 762.695 -2.68137 4.206 0
M  V30 8240 H 761.849 -4.93691 3.52638 0
M  V30 8241 H 760.588 -4.1799 2.51267 0
M  V30 8242 H 759.593 -3.09325 4.5453 0
M  V30 8243 H 760.818 -3.88224 5.57189 0
M  V30 8244 H 758.764 -5.31511 3.84489 0
M  V30 8245 H 758.681 -5.11737 5.56472 0
M  V30 8246 H 759.949 -6.08439 4.87261 0
M  V30 8247 N 764.178 -1.45556 -0.604258 0
M  V30 8248 C 765.455 -1.40221 -1.36373 0
M  V30 8249 C 765.835 -0.0745195 -2.10968 0
M  V30 8250 O 765.183 0.943594 -2.08107 0
M  V30 8251 C 765.393 -2.61807 -2.30777 0
M  V30 8252 C 766.741 -3.07037 -2.93281 0
M  V30 8253 O 767.765 -2.62203 -2.41097 0
M  V30 8254 O 766.624 -3.8485 -3.88011 0
M  V30 8255 H 763.718 -0.556602 -0.611656 0
M  V30 8256 H 766.264 -1.57689 -0.627069 0
M  V30 8257 H 765.036 -3.50017 -1.74939 0
M  V30 8258 H 764.659 -2.46688 -3.11818 0
M  V30 8259 N 765.656 0.84705 -1.32902 0
M  V30 8260 C 766.902 1.60414 -1.24078 0
M  V30 8261 C 767.235 1.93217 0.195105 0
M  V30 8262 O 766.51 1.58001 1.13428 0
M  V30 8263 C 766.793 2.91951 -2.108 0
M  V30 8264 C 766.646 2.6588 -3.62805 0
M  V30 8265 C 767.965 3.93299 -1.97494 0
M  V30 8266 H 765.084 0.58206 -0.452079 0
M  V30 8267 H 767.726 0.977562 -1.62922 0
M  V30 8268 H 765.876 3.45425 -1.77802 0
M  V30 8269 H 767.548 2.18902 -4.06054 0
M  V30 8270 H 765.791 1.99716 -3.85092 0
M  V30 8271 H 766.462 3.59574 -4.1882 0
M  V30 8272 H 768.938 3.49105 -2.26417 0
M  V30 8273 H 767.814 4.8318 -2.60438 0
M  V30 8274 H 768.075 4.31887 -0.944782 0
M  V30 8275 N 767.134 1.16236 1.06428 0
M  V30 8276 C 768.55 0.906983 1.31324 0
M  V30 8277 C 768.75 -0.440872 1.96618 0
M  V30 8278 O 767.806 -1.1807 2.23194 0
M  V30 8279 C 769.119 2.05501 2.19522 0
M  V30 8280 C 770.667 2.09061 2.32943 0
M  V30 8281 C 771.142 3.23214 3.24495 0
M  V30 8282 N 772.633 3.22922 3.32078 0
M  V30 8283 C 773.368 4.07889 4.03006 0
M  V30 8284 N 772.864 5.02941 4.76469 0
M  V30 8285 N 774.657 3.95881 3.99043 0
M  V30 8286 H 766.808 2.03015 0.624388 0
M  V30 8287 H 769.071 0.88576 0.337835 0
M  V30 8288 H 768.777 3.02847 1.78819 0
M  V30 8289 H 768.651 1.99538 3.201 0
M  V30 8290 H 771.038 1.12308 2.72893 0
M  V30 8291 H 771.119 2.19089 1.32037 0
M  V30 8292 H 770.763 4.20225 2.85261 0
M  V30 8293 H 770.693 3.10423 4.25377 0
M  V30 8294 H 773.184 2.54093 2.79724 0
M  V30 8295 H 773.497 5.64196 5.28112 0
M  V30 8296 H 771.842 5.06922 4.75453 0
M  V30 8297 H 775.033 3.20927 3.40769 0
M  V30 8298 H 775.206 4.62321 4.54052 0
M  V30 8299 N 768.612 -1.24939 0.960631 0
M  V30 8300 C 769.889 -1.88118 0.535807 0
M  V30 8301 C 770.269 -1.86605 -0.987009 0
M  V30 8302 O 769.617 -1.33375 -1.85536 0
M  V30 8303 C 769.827 -3.30565 1.11927 0
M  V30 8304 C 771.175 -4.07296 1.19981 0
M  V30 8305 O 772.199 -3.39709 1.07126 0
M  V30 8306 O 771.058 -5.28206 1.40218 0
M  V30 8307 H 768.152 -0.807698 0.177631 0
M  V30 8308 H 770.698 -1.32964 1.05445 0
M  V30 8309 H 769.47 -3.26128 2.16231 0
M  V30 8310 H 769.093 -3.93284 0.584245 0
M  V30 8311 N 770.09 -0.729906 -1.39679 0
M  V30 8312 C 771.023 -0.0354454 -2.28172 0
M  V30 8313 C 772.001 0.752968 -1.44115 0
M  V30 8314 O 773.185 0.736599 -1.73512 0
M  V30 8315 C 770.312 0.957047 -3.24897 0
M  V30 8316 C 769.358 0.257734 -4.25721 0
M  V30 8317 S 770.191 -1.02466 -5.25605 0
M  V30 8318 C 771.347 -0.0346322 -6.2589 0
M  V30 8319 H 771.58 -0.785922 -2.86724 0
M  V30 8320 H 769.113 -0.521497 -1.45326 0
M  V30 8321 H 771.071 1.52441 -3.81146 0
M  V30 8322 H 769.732 1.68033 -2.65375 0
M  V30 8323 H 768.925 1.00854 -4.93806 0
M  V30 8324 H 768.527 -0.237454 -3.73245 0
M  V30 8325 H 770.819 0.807464 -6.72671 0
M  V30 8326 H 771.762 -0.682491 -7.04803 0
M  V30 8327 H 772.17 0.335492 -5.63502 0
M  V30 8328 N 771.568 1.50203 -0.477153 0
M  V30 8329 C 772.845 1.95115 0.137609 0
M  V30 8330 C 773.225 1.41778 1.56404 0
M  V30 8331 O 772.573 0.621333 2.1989 0
M  V30 8332 C 772.783 3.4892 0.0747168 0
M  V30 8333 C 774.131 4.238 0.260585 0
M  V30 8334 O 775.155 3.5588 0.151021 0
M  V30 8335 O 774.014 5.44366 0.482534 0
M  V30 8336 H 771.108 0.81987 0.108364 0
M  V30 8337 H 773.654 1.60946 -0.537989 0
M  V30 8338 H 772.426 3.80308 -0.920966 0
M  V30 8339 H 772.049 3.89642 0.791509 0
M  V30 8340 N 773.046 0.209999 1.56195 0
M  V30 8341 C 774.323 -0.473214 1.89789 0
M  V30 8342 C 774.703 -1.78581 1.1257 0
M  V30 8343 O 774.051 -2.27325 0.231398 0
M  V30 8344 C 774.261 -0.677458 3.42362 0
M  V30 8345 C 775.609 -0.990114 4.12895 0
M  V30 8346 O 776.633 -0.764655 3.47896 0
M  V30 8347 O 775.492 -1.41737 5.278 0
M  V30 8348 H 772.586 -0.248622 0.788743 0
M  V30 8349 H 775.132 0.251324 1.67829 0
M  V30 8350 H 773.904 0.248878 3.90508 0
M  V30 8351 H 773.527 -1.45391 3.70064 0
M  V30 8352 N 774.524 -1.57472 -0.0634922 0
M  V30 8353 C 775.487 -2.03268 -1.059 0
M  V30 8354 C 776.487 -0.931028 -1.31105 0
M  V30 8355 O 777.677 -1.19567 -1.26686 0
M  V30 8356 C 774.809 -2.42039 -2.40062 0
M  V30 8357 H 776.002 -2.92454 -0.664119 0
M  V30 8358 H 773.555 -1.53206 -0.309444 0
M  V30 8359 H 774.29 -1.55904 -2.84367 0
M  V30 8360 H 774.075 -3.22437 -2.23108 0
M  V30 8361 H 775.565 -2.78017 -3.11603 0
M  V30 8362 N 776.003 0.335068 -1.53997 0
M  V30 8363 C 777.233 1.0926 -1.75345 0
M  V30 8364 C 777.641 1.82568 -0.496545 0
M  V30 8365 O 776.984 1.75525 0.541897 0
M  V30 8366 C 777.046 2.14473 -2.88516 0
M  V30 8367 C 776.71 1.60665 -4.27827 0
M  V30 8368 C 777.707 1.05448 -5.09094 0
M  V30 8369 C 775.392 1.65255 -4.74337 0
M  V30 8370 C 777.386 0.555372 -6.34976 0
M  V30 8371 C 775.073 1.14956 -6.0019 0
M  V30 8372 C 776.071 0.601907 -6.80343 0
M  V30 8373 O 775.759 0.106445 -8.0383 0
M  V30 8374 H 775.491 0.331329 -0.589234 0
M  V30 8375 H 778.045 0.39042 -2.01655 0
M  V30 8376 H 776.275 2.88274 -2.5775 0
M  V30 8377 H 777.964 2.75857 -2.97755 0
M  V30 8378 H 778.73 1.01218 -4.74321 0
M  V30 8379 H 774.609 2.06822 -4.12002 0
M  V30 8380 H 778.153 0.127245 -6.97484 0
M  V30 8381 H 774.05 1.18891 -6.34457 0
M  V30 8382 H 774.818 0.222944 -8.18196 0
M  V30 8383 N 777.481 1.45874 0.596531 0
M  V30 8384 C 778.758 1.40942 1.35627 0
M  V30 8385 C 779.138 0.0857066 2.10926 0
M  V30 8386 O 778.486 -0.932544 2.08605 0
M  V30 8387 C 778.696 2.63027 2.29386 0
M  V30 8388 C 780.044 3.08588 2.91649 0
M  V30 8389 O 781.068 2.63478 2.39704 0
M  V30 8390 O 779.927 3.86902 3.85965 0
M  V30 8391 H 777.021 0.559838 0.608696 0
M  V30 8392 H 779.567 1.5802 0.618698 0
M  V30 8393 H 778.339 3.5094 1.7308 0
M  V30 8394 H 777.962 2.48338 3.10506 0
M  V30 8395 N 778.959 -0.83999 1.33349 0
M  V30 8396 C 780.375 -1.13049 1.12659 0
M  V30 8397 C 780.575 -2.01328 -0.0832613 0
M  V30 8398 O 779.631 -2.40669 -0.763856 0
M  V30 8399 C 780.944 -1.79366 2.41347 0
M  V30 8400 C 782.492 -1.91937 2.47243 0
M  V30 8401 C 782.967 -2.6167 3.75889 0
M  V30 8402 N 784.458 -2.69184 3.76954 0
M  V30 8403 C 785.193 -3.23827 4.73206 0
M  V30 8404 N 784.689 -3.79166 5.79832 0
M  V30 8405 N 786.482 -3.22068 4.60683 0
M  V30 8406 H 778.633 -0.252432 2.10895 0
M  V30 8407 H 780.896 -0.174501 0.931801 0
M  V30 8408 H 780.602 -1.2196 3.29877 0
M  V30 8409 H 780.476 -2.79396 2.53412 0
M  V30 8410 H 782.863 -2.48498 1.59163 0
M  V30 8411 H 782.944 -0.908604 2.39119 0
M  V30 8412 H 782.588 -2.05769 4.64351 0
M  V30 8413 H 782.518 -3.63217 3.81289 0
M  V30 8414 H 785.009 -2.2994 2.99893 0
M  V30 8415 H 785.322 -4.19061 6.49313 0
M  V30 8416 H 783.667 -3.77457 5.83568 0
M  V30 8417 H 786.858 -2.78092 3.7654 0
M  V30 8418 H 787.031 -3.64351 5.35866 0
M  V30 8419 N 780.437 -1.16799 -1.0581 0
M  V30 8420 C 781.367 -0.902241 -2.15364 0
M  V30 8421 C 782.348 0.153351 -1.69407 0
M  V30 8422 O 783.533 0.00442032 -1.94199 0
M  V30 8423 C 780.663 -0.407911 -3.44896 0
M  V30 8424 C 779.617 -1.40197 -4.04387 0
M  V30 8425 C 778.943 -0.765848 -5.29187 0
M  V30 8426 C 780.243 -2.77316 -4.42598 0
M  V30 8427 H 781.937 -1.81841 -2.37853 0
M  V30 8428 H 779.483 -0.875731 -1.14311 0
M  V30 8429 H 781.436 -0.20945 -4.20879 0
M  V30 8430 H 780.16 0.54378 -3.22041 0
M  V30 8431 H 778.819 -1.58707 -3.30466 0
M  V30 8432 H 778.467 0.192482 -5.02632 0
M  V30 8433 H 778.167 -1.42939 -5.69949 0
M  V30 8434 H 779.691 -0.577519 -6.07863 0
M  V30 8435 H 781.105 -2.62561 -5.09642 0
M  V30 8436 H 779.502 -3.4019 -4.94359 0
M  V30 8437 H 780.572 -3.32199 -3.53231 0
M  V30 8438 N 781.915 1.24427 -0.967243 0
M  V30 8439 C 783.143 1.96541 -0.646477 0
M  V30 8440 C 783.558 1.71753 0.783996 0
M  V30 8441 O 782.915 1.00102 1.52597 0
M  V30 8442 C 782.966 3.4983 -0.911098 0
M  V30 8443 O 782.687 3.7377 -2.28534 0
M  V30 8444 C 784.188 4.3916 -0.604458 0
M  V30 8445 H 781.408 0.626129 -0.241255 0
M  V30 8446 H 783.952 1.58268 -1.29505 0
M  V30 8447 H 782.107 3.86168 -0.308741 0
M  V30 8448 H 782.521 4.68154 -2.365 0
M  V30 8449 H 783.995 5.4557 -0.840069 0
M  V30 8450 H 784.472 4.36771 0.461273 0
M  V30 8451 H 785.078 4.08409 -1.1867 0
M  V30 8452 N 783.393 0.737304 1.3929 0
M  V30 8453 C 784.809 0.413132 1.5416 0
M  V30 8454 C 785.009 -1.07574 1.70382 0
M  V30 8455 O 784.065 -1.86185 1.70562 0
M  V30 8456 C 785.378 1.19817 2.75798 0
M  V30 8457 C 786.926 1.18662 2.89635 0
M  V30 8458 C 787.401 1.95427 4.14213 0
M  V30 8459 N 788.892 1.92605 4.21257 0
M  V30 8460 C 789.627 2.48808 5.16606 0
M  V30 8461 N 789.123 3.13659 6.1773 0
M  V30 8462 N 790.916 2.38829 5.08839 0
M  V30 8463 H 783.067 1.70243 1.27008 0
M  V30 8464 H 785.33 0.720802 0.61575 0
M  V30 8465 H 785.036 2.25179 2.70161 0
M  V30 8466 H 784.91 0.804144 3.68529 0
M  V30 8467 H 787.297 0.141112 2.94762 0
M  V30 8468 H 787.378 1.62003 1.97961 0
M  V30 8469 H 787.022 2.9998 4.09847 0
M  V30 8470 H 786.952 1.4949 5.04936 0
M  V30 8471 H 789.443 1.45362 3.48824 0
M  V30 8472 H 789.756 3.54006 6.8695 0
M  V30 8473 H 788.101 3.17749 6.1811 0
M  V30 8474 H 791.292 1.87806 4.28773 0
M  V30 8475 H 791.465 2.82929 5.82971 0
M  V30 8476 N 784.871 -1.49948 0.485112 0
M  V30 8477 C 785.821 -2.25734 -0.320658 0
M  V30 8478 C 786.805 -1.29907 -0.949373 0
M  V30 8479 O 787.997 -1.54725 -0.859601 0
M  V30 8480 C 785.126 -3.13728 -1.39391 0
M  V30 8481 C 784.212 -4.1701 -0.772225 0
M  V30 8482 N 784.603 -5.05667 0.115782 0
M  V30 8483 C 782.901 -4.33834 -1.03461 0
M  V30 8484 C 783.602 -5.79798 0.47004 0
M  V30 8485 N 782.578 -5.4337 -0.158204 0
M  V30 8486 H 786.38 -2.91647 0.36319 0
M  V30 8487 H 783.894 -1.59602 0.300154 0
M  V30 8488 H 785.891 -3.66639 -1.98447 0
M  V30 8489 H 784.551 -2.49365 -2.0796 0
M  V30 8490 H 785.562 -5.15619 0.485557 0
M  V30 8491 H 782.239 -3.80684 -1.71424 0
M  V30 8492 H 783.629 -6.61177 1.19558 0
M  V30 8493 N 786.349 -0.21828 -1.56081 0
M  V30 8494 C 787.765 0.137168 -1.59009 0
M  V30 8495 C 787.965 1.59215 -1.23503 0
M  V30 8496 O 787.021 2.33178 -0.968716 0
M  V30 8497 C 788.334 -0.186162 -3.00123 0
M  V30 8498 C 789.882 -0.128135 -3.12738 0
M  V30 8499 C 790.357 -0.425094 -4.56023 0
M  V30 8500 N 791.848 -0.374547 -4.61683 0
M  V30 8501 C 792.583 -0.57786 -5.70481 0
M  V30 8502 N 792.079 -0.842771 -6.87655 0
M  V30 8503 N 793.872 -0.510521 -5.59777 0
M  V30 8504 H 786.023 -1.16746 -1.77437 0
M  V30 8505 H 788.286 -0.467706 -0.824594 0
M  V30 8506 H 787.992 -1.19589 -3.30744 0
M  V30 8507 H 787.866 0.500388 -3.73866 0
M  V30 8508 H 790.253 0.872224 -2.81915 0
M  V30 8509 H 790.334 -0.848112 -2.41331 0
M  V30 8510 H 789.978 -1.42288 -4.87562 0
M  V30 8511 H 789.908 0.316038 -5.25651 0
M  V30 8512 H 792.399 -0.177356 -3.77484 0
M  V30 8513 H 792.712 -0.986095 -7.66483 0
M  V30 8514 H 791.057 -0.879929 -6.89407 0
M  V30 8515 H 794.248 -0.303813 -4.67113 0
M  V30 8516 H 794.421 -0.672378 -6.44502 0
M  V30 8517 N 787.827 1.57504 0.0551401 0
M  V30 8518 C 789.067 1.89895 0.756252 0
M  V30 8519 C 789.431 0.813983 1.73892 0
M  V30 8520 O 790.632 1.02145 2.48636 0
M  V30 8521 C 788.903 3.27494 1.43116 0
M  V30 8522 S 790.462 3.81669 2.16504 0
M  V30 8523 H 787.28 0.665173 0.251129 0
M  V30 8524 H 789.882 1.95496 0.0117193 0
M  V30 8525 H 788.586 4.04345 0.702391 0
M  V30 8526 H 788.117 3.25132 2.21479 0
M  V30 8527 H 790.132 3.58295 3.43277 0
M  V30 8528 N 789.305 -0.326896 1.54172 0
M  V30 8529 C 790.721 -0.671034 1.44808 0
M  V30 8530 C 790.921 -1.91781 0.618258 0
M  V30 8531 O 789.977 -2.52235 0.115751 0
M  V30 8532 C 791.29 -0.848147 2.88491 0
M  V30 8533 C 792.838 -0.945702 2.98371 0
M  V30 8534 C 793.313 -1.15501 4.43197 0
M  V30 8535 N 794.804 -1.22183 4.46795 0
M  V30 8536 C 795.539 -1.4016 5.56006 0
M  V30 8537 N 795.035 -1.55202 6.75192 0
M  V30 8538 N 796.828 -1.42841 5.43648 0
M  V30 8539 H 788.979 0.49262 2.06608 0
M  V30 8540 H 791.242 0.158574 0.934643 0
M  V30 8541 H 790.948 -0.00329969 3.517 0
M  V30 8542 H 790.822 -1.74497 3.34411 0
M  V30 8543 H 793.209 -1.78106 2.35292 0
M  V30 8544 H 793.29 -0.0254215 2.55787 0
M  V30 8545 H 792.934 -0.324521 5.06862 0
M  V30 8546 H 792.864 -2.08911 4.83388 0
M  V30 8547 H 795.355 -1.12016 3.60917 0
M  V30 8548 H 795.668 -1.68601 7.54184 0
M  V30 8549 H 794.013 -1.52306 6.78106 0
M  V30 8550 H 797.204 -1.30683 4.49488 0
M  V30 8551 H 797.377 -1.56509 6.28816 0
M  V30 8552 N 790.784 -1.46188 -0.588786 0
M  V30 8553 C 791.717 -1.508 -1.71274 0
M  V30 8554 C 792.695 -0.362635 -1.58505 0
M  V30 8555 O 793.879 -0.565899 -1.79805 0
M  V30 8556 C 791.006 -1.38082 -3.09275 0
M  V30 8557 C 790.052 -2.56723 -3.40581 0
M  V30 8558 S 790.885 -4.1911 -3.33327 0
M  V30 8559 C 792.041 -4.08891 -4.73877 0
M  V30 8560 H 792.274 -2.45895 -1.67102 0
M  V30 8561 H 789.807 -1.34 -0.767025 0
M  V30 8562 H 791.765 -1.31432 -3.88891 0
M  V30 8563 H 790.426 -0.444259 -3.10942 0
M  V30 8564 H 789.619 -2.43801 -4.41109 0
M  V30 8565 H 789.221 -2.60332 -2.68521 0
M  V30 8566 H 791.513 -3.75196 -5.64123 0
M  V30 8567 H 792.456 -5.09395 -4.91856 0
M  V30 8568 H 792.864 -3.40239 -4.50441 0
M  V30 8569 N 792.262 0.832906 -1.33792 0
M  V30 8570 C 793.508 1.59089 -1.25772 0
M  V30 8571 C 793.841 1.93414 0.174601 0
M  V30 8572 O 793.116 1.59195 1.11746 0
M  V30 8573 C 793.399 2.89699 -2.13885 0
M  V30 8574 C 793.252 2.62017 -3.65605 0
M  V30 8575 C 794.571 3.91182 -2.01654 0
M  V30 8576 H 791.69 0.577232 -0.458227 0
M  V30 8577 H 794.332 0.960227 -1.6395 0
M  V30 8578 H 792.482 3.4352 -1.81456 0
M  V30 8579 H 794.154 2.14582 -4.08353 0
M  V30 8580 H 792.397 1.95621 -3.87189 0
M  V30 8581 H 793.068 3.55112 -4.2261 0
M  V30 8582 H 795.544 3.46684 -2.30107 0
M  V30 8583 H 794.42 4.80391 -2.65548 0
M  V30 8584 H 794.681 4.30861 -0.990536 0
M  V30 8585 N 793.74 1.17359 1.05189 0
M  V30 8586 C 794.65 0.904984 2.16442 0
M  V30 8587 C 795.666 -0.12686 1.73537 0
M  V30 8588 O 796.842 0.0524127 2.01332 0
M  V30 8589 C 793.907 0.422019 3.44122 0
M  V30 8590 C 792.968 1.52045 4.01473 0
M  V30 8591 C 792.201 1.06044 5.23059 0
M  V30 8592 O 792.424 -0.0854023 5.70336 0
M  V30 8593 O 791.358 1.85349 5.72651 0
M  V30 8594 H 795.184 1.8356 2.41949 0
M  V30 8595 H 792.769 0.95447 1.14936 0
M  V30 8596 H 794.651 0.160208 4.21095 0
M  V30 8597 H 793.326 -0.480444 3.20115 0
M  V30 8598 H 792.233 1.83615 3.25939 0
M  V30 8599 H 793.566 2.39863 4.29798 0
M  V30 8600 N 795.218 -1.23913 0.973828 0
M  V30 8601 C 796.634 -1.44325 0.681363 0
M  V30 8602 C 796.834 -1.86832 -0.754728 0
M  V30 8603 O 795.89 -2.01024 -1.52793 0
M  V30 8604 C 797.203 -2.50017 1.67069 0
M  V30 8605 C 798.751 -2.63838 1.68399 0
M  V30 8606 C 799.226 -3.72734 2.66145 0
M  V30 8607 N 800.717 -3.80169 2.64624 0
M  V30 8608 C 801.452 -4.6397 3.36927 0
M  V30 8609 N 800.948 -5.51911 4.18767 0
M  V30 8610 N 802.741 -4.58106 3.25722 0
M  V30 8611 H 794.892 -0.946204 1.9016 0
M  V30 8612 H 797.155 -0.477374 0.819035 0
M  V30 8613 H 796.861 -2.25686 2.69738 0
M  V30 8614 H 796.735 -3.48287 1.4483 0
M  V30 8615 H 799.122 -2.87524 0.664379 0
M  V30 8616 H 799.203 -1.65906 1.94702 0
M  V30 8617 H 798.847 -3.49797 3.68245 0
M  V30 8618 H 798.777 -4.70193 2.3712 0
M  V30 8619 H 801.268 -3.17319 2.05224 0
M  V30 8620 H 801.581 -6.12828 4.70809 0
M  V30 8621 H 799.926 -5.51556 4.2286 0
M  V30 8622 H 803.117 -3.8842 2.61242 0
M  V30 8623 H 803.29 -5.23188 3.82333 0
M  V30 8624 N 796.696 -0.74468 -1.38897 0
M  V30 8625 C 797.944 -0.296298 -1.99916 0
M  V30 8626 C 798.265 1.12325 -1.59399 0
M  V30 8627 O 797.535 1.76658 -0.846689 0
M  V30 8628 H 796.115 -0.106561 -0.73936 0
M  V30 8629 H 798.777 -0.956793 -1.69798 0
M  V30 8630 H 797.873 -0.352356 -3.10105 0
M  V30 8631 N 798.174 1.49689 -0.493057 0
M  V30 8632 C 799.423 2.01622 0.0560733 0
M  V30 8633 C 799.736 1.37838 1.3878 0
M  V30 8634 O 800.942 1.81054 2.02316 0
M  V30 8635 C 799.398 3.59586 0.150409 0
M  V30 8636 C 799.006 4.32338 -1.1742 0
M  V30 8637 C 800.75 4.19489 0.650327 0
M  V30 8638 C 798.657 5.8214 -1.04246 0
M  V30 8639 H 797.587 0.753594 0.0247297 0
M  V30 8640 H 800.238 1.723 -0.631279 0
M  V30 8641 H 798.62 3.8559 0.902035 0
M  V30 8642 H 799.794 4.18042 -1.9385 0
M  V30 8643 H 798.109 3.84144 -1.60694 0
M  V30 8644 H 800.706 5.29181 0.766272 0
M  V30 8645 H 801.049 3.82326 1.6472 0
M  V30 8646 H 801.582 3.97775 -0.0445371 0
M  V30 8647 H 798.321 6.23814 -2.01336 0
M  V30 8648 H 797.841 5.98952 -0.31892 0
M  V30 8649 H 799.52 6.43004 -0.717957 0
M  V30 8650 N 799.652 0.226554 1.55963 0
M  V30 8651 C 800.615 -0.668015 2.19249 0
M  V30 8652 C 801.615 -1.11794 1.1558 0
M  V30 8653 O 802.805 -1.02593 1.40784 0
M  V30 8654 C 799.937 -1.91571 2.81981 0
M  V30 8655 H 801.13 -0.116175 2.99675 0
M  V30 8656 H 798.683 -0.0230497 1.56283 0
M  V30 8657 H 799.418 -2.50929 2.05439 0
M  V30 8658 H 799.203 -1.6015 3.57903 0
M  V30 8659 H 800.693 -2.55294 3.30477 0
M  V30 8660 N 801.13 -1.57531 -0.0467866 0
M  V30 8661 C 802.093 -2.04379 -1.03738 0
M  V30 8662 C 803.093 -0.944881 -1.3011 0
M  V30 8663 O 804.283 -1.20904 -1.25411 0
M  V30 8664 C 801.415 -2.44572 -2.37482 0
M  V30 8665 H 802.608 -2.93142 -0.633063 0
M  V30 8666 H 800.161 -1.53526 -0.293177 0
M  V30 8667 H 800.896 -1.58911 -2.82697 0
M  V30 8668 H 800.681 -3.24785 -2.19675 0
M  V30 8669 H 802.171 -2.81307 -3.08636 0
M  V30 8670 N 802.608 0.318715 -1.54344 0
M  V30 8671 C 803.54 1.41364 -1.80413 0
M  V30 8672 C 804.553 1.47627 -0.686294 0
M  V30 8673 O 805.742 1.50264 -0.963486 0
M  V30 8674 C 802.842 2.79867 -1.91123 0
M  V30 8675 C 802.015 2.96749 -3.21339 0
M  V30 8676 C 801.074 4.15642 -3.22689 0
M  V30 8677 O 800.1 4.08571 -3.96306 0
M  V30 8678 N 801.302 5.25416 -2.46817 0
M  V30 8679 H 804.067 1.19363 -2.74905 0
M  V30 8680 H 801.628 0.508722 -1.537 0
M  V30 8681 H 803.62 3.57619 -1.89448 0
M  V30 8682 H 802.19 2.94896 -1.03706 0
M  V30 8683 H 801.41 2.06257 -3.35934 0
M  V30 8684 H 802.698 3.04927 -4.07304 0
M  V30 8685 H 802.096 5.34037 -1.86605 0
M  V30 8686 H 800.653 6.01569 -2.50915 0
M  V30 8687 N 804.086 1.46499 0.581025 0
M  V30 8688 C 805.497 1.4604 1.16315 0
M  V30 8689 C 805.848 0.202154 1.95156 0
M  V30 8690 O 804.973 -0.694638 2.04948 0
M  V30 8691 C 805.568 2.64593 2.11604 0
M  V30 8692 C 804.127 2.6717 2.65136 0
M  V30 8693 C 803.274 2.38753 1.4104 0
M  V30 8694 H 806.225 1.54354 0.368871 0
M  V30 8695 H 806.246 2.40207 2.95095 0
M  V30 8696 H 805.758 3.56154 1.54194 0
M  V30 8697 H 803.859 1.79685 3.26411 0
M  V30 8698 H 803.972 3.67182 3.07757 0
M  V30 8699 H 802.336 1.88845 1.70908 0
M  V30 8700 H 803.119 3.32493 0.854588 0
M  V30 8701 N 805.565 -0.825799 1.34232 0
M  V30 8702 C 806.495 -1.95151 1.28212 0
M  V30 8703 C 807.476 -1.69345 0.160123 0
M  V30 8704 O 808.661 -1.90983 0.352019 0
M  V30 8705 C 805.791 -3.31554 1.03388 0
M  V30 8706 C 804.745 -3.71793 2.12023 0
M  V30 8707 C 804.071 -5.06147 1.72392 0
M  V30 8708 C 805.371 -3.84193 3.53826 0
M  V30 8709 H 807.065 -2.00445 2.22401 0
M  V30 8710 H 804.611 -0.962996 1.07063 0
M  V30 8711 H 806.564 -4.09889 0.978225 0
M  V30 8712 H 805.288 -3.26551 0.0564142 0
M  V30 8713 H 803.947 -2.95731 2.16654 0
M  V30 8714 H 803.595 -4.97628 0.733137 0
M  V30 8715 H 803.295 -5.34041 2.451 0
M  V30 8716 H 804.819 -5.86943 1.68317 0
M  V30 8717 H 806.233 -4.52806 3.51624 0
M  V30 8718 H 804.63 -4.23538 4.2513 0
M  V30 8719 H 805.7 -2.86272 3.91377 0
M  V30 8720 N 807.043 -1.17915 -1.04565 0
M  V30 8721 C 808.273 -0.994716 -1.81077 0
M  V30 8722 C 808.681 0.460146 -1.83519 0
M  V30 8723 O 808.024 1.33136 -1.26572 0
M  V30 8724 C 808.086 -1.46698 -3.28207 0
M  V30 8725 C 807.75 -2.94523 -3.49436 0
M  V30 8726 C 808.747 -3.92414 -3.41038 0
M  V30 8727 C 806.432 -3.32841 -3.76194 0
M  V30 8728 C 808.426 -5.2662 -3.59096 0
M  V30 8729 C 806.113 -4.67212 -3.93899 0
M  V30 8730 C 807.111 -5.6391 -3.8535 0
M  V30 8731 O 806.799 -6.95849 -4.02554 0
M  V30 8732 H 806.531 -0.351797 -0.577248 0
M  V30 8733 H 809.085 -1.56772 -1.32709 0
M  V30 8734 H 807.315 -0.837592 -3.7752 0
M  V30 8735 H 809.004 -1.24724 -3.86263 0
M  V30 8736 H 809.77 -3.64157 -3.20336 0
M  V30 8737 H 805.649 -2.58139 -3.81949 0
M  V30 8738 H 809.193 -6.02082 -3.52339 0
M  V30 8739 H 805.09 -4.95172 -4.14095 0
M  V30 8740 H 805.858 -7.02679 -4.19743 0
M  V30 8741 N 808.521 1.23394 -0.980386 0
M  V30 8742 C 809.484 2.23092 -0.525619 0
M  V30 8743 C 810.484 1.56129 0.384745 0
M  V30 8744 O 811.674 1.73284 0.178439 0
M  V30 8745 C 808.806 3.40074 0.23712 0
M  V30 8746 H 809.999 2.64839 -1.40714 0
M  V30 8747 H 807.552 1.36227 -0.766275 0
M  V30 8748 H 808.287 3.03783 1.13518 0
M  V30 8749 H 808.072 3.89883 -0.416356 0
M  V30 8750 H 809.562 4.14043 0.543892 0
M  V30 8751 N 809.999 0.752036 1.385 0
M  V30 8752 C 811.247 0.306895 1.99756 0
M  V30 8753 C 811.568 -1.11478 1.59992 0
M  V30 8754 O 810.838 -1.76206 0.856045 0
M  V30 8755 H 809.418 0.11048 0.738785 0
M  V30 8756 H 812.08 0.965785 1.69289 0
M  V30 8757 H 811.176 0.368797 3.09913 0
M  V30 8758 N 811.477 -1.49425 0.500989 0
M  V30 8759 C 812.707 -2.06561 -0.0402858 0
M  V30 8760 C 813.115 -1.36157 -1.31369 0
M  V30 8761 O 812.458 -0.433618 -1.78509 0
M  V30 8762 C 812.52 -3.5765 -0.364269 0
M  V30 8763 C 812.184 -4.49739 0.811417 0
M  V30 8764 C 813.181 -4.91255 1.7019 0
M  V30 8765 C 810.866 -4.92036 1.01022 0
M  V30 8766 C 812.86 -5.73806 2.77534 0
M  V30 8767 C 810.547 -5.74364 2.08683 0
M  V30 8768 C 811.545 -6.15154 2.96774 0
M  V30 8769 O 811.233 -6.95836 4.02577 0
M  V30 8770 H 810.965 -0.67578 0.0172357 0
M  V30 8771 H 813.519 -1.93193 0.697553 0
M  V30 8772 H 811.749 -3.69026 -1.1557 0
M  V30 8773 H 813.438 -3.97025 -0.844156 0
M  V30 8774 H 814.204 -4.59222 1.56013 0
M  V30 8775 H 810.083 -4.59789 0.333929 0
M  V30 8776 H 813.627 -6.05564 3.4632 0
M  V30 8777 H 809.524 -6.0581 2.22855 0
M  V30 8778 H 810.292 -7.14142 3.9993 0
M  V30 8779 N 812.955 -0.234822 -1.55841 0
M  V30 8780 C 814.195 0.394944 -2.00548 0
M  V30 8781 C 814.559 1.56002 -1.11926 0
M  V30 8782 O 815.76 2.2567 -1.46037 0
M  V30 8783 C 814.031 0.805896 -3.48195 0
M  V30 8784 S 815.59 1.4279 -4.14918 0
M  V30 8785 H 812.408 0.124802 -0.699961 0
M  V30 8786 H 815.01 -0.347224 -1.92392 0
M  V30 8787 H 813.714 -0.0515271 -4.10368 0
M  V30 8788 H 813.245 1.58055 -3.60253 0
M  V30 8789 H 815.26 2.71699 -4.15204 0
M  V30 8790 N 814.433 1.57553 0.0384317 0
M  V30 8791 C 815.381 2.07021 1.06043 0
M  V30 8792 C 816.375 0.982078 1.38028 0
M  V30 8793 O 817.581 1.16702 1.37042 0
M  V30 8794 H 813.956 0.660522 0.359464 0
M  V30 8795 H 815.927 2.91944 0.617339 0
M  V30 8796 C 814.676 2.55734 2.35574 0
M  V30 8797 H 813.999 3.39074 2.11822 0
M  V30 8798 H 815.439 2.94066 3.05452 0
M  V30 8799 C 813.898 1.45449 3.03885 0
M  V30 8800 O 814.428 0.815402 3.93337 0
M  V30 8801 N 812.634 1.19134 2.65058 0
M  V30 8802 H 812.181 1.71288 1.92401 0
M  V30 8803 H 812.139 0.455554 3.11082 0
M  V30 8804 N 815.911 -0.310526 1.54511 0
M  V30 8805 C 816.861 -1.38405 1.81185 0
M  V30 8806 C 817.845 -1.46355 0.668499 0
M  V30 8807 O 819.037 -1.50668 0.928873 0
M  V30 8808 C 816.166 -2.75059 2.0542 0
M  V30 8809 C 815.252 -2.7137 3.25913 0
M  V30 8810 N 815.643 -2.37298 4.4668 0
M  V30 8811 C 813.941 -3.02484 3.27749 0
M  V30 8812 C 814.642 -2.42669 5.28665 0
M  V30 8813 N 813.618 -2.79639 4.66158 0
M  V30 8814 H 817.42 -1.11012 2.72128 0
M  V30 8815 H 814.934 -0.519068 1.53881 0
M  V30 8816 H 816.931 -3.52451 2.22674 0
M  V30 8817 H 815.591 -3.03372 1.15739 0
M  V30 8818 H 816.602 -2.09917 4.73451 0
M  V30 8819 H 813.279 -3.35754 2.48144 0
M  V30 8820 H 814.669 -2.19206 6.35136 0
M  V30 8821 N 817.389 -1.46805 -0.573248 0
M  V30 8822 C 818.299 -1.60687 -1.70929 0
M  V30 8823 C 819.315 -0.490084 -1.66956 0
M  V30 8824 O 820.491 -0.755482 -1.86693 0
M  V30 8825 C 817.556 -1.60259 -3.07438 0
M  V30 8826 C 816.617 -2.83242 -3.22603 0
M  V30 8827 C 815.85 -2.82825 -4.52599 0
M  V30 8828 O 816.073 -1.92113 -5.37074 0
M  V30 8829 O 815.007 -3.74489 -4.71213 0
M  V30 8830 H 818.833 -2.56782 -1.62163 0
M  V30 8831 H 816.418 -1.29706 -0.741399 0
M  V30 8832 H 818.3 -1.6275 -3.88704 0
M  V30 8833 H 816.975 -0.673268 -3.16621 0
M  V30 8834 H 815.882 -2.86302 -2.40794 0
M  V30 8835 H 817.215 -3.75415 -3.18315 0
M  V30 8836 N 818.867 0.818669 -1.34668 0
M  V30 8837 C 819.815 1.95123 -1.26609 0
M  V30 8838 C 820.809 1.68611 -0.163348 0
M  V30 8839 O 822.015 1.76975 -0.328586 0
M  V30 8840 H 818.39 0.640871 -0.393431 0
M  V30 8841 H 820.361 1.99043 -2.22316 0
M  V30 8842 C 819.11 3.31697 -1.04272 0
M  V30 8843 H 818.433 3.52648 -1.8836 0
M  V30 8844 H 819.873 4.11382 -1.0267 0
M  V30 8845 C 818.332 3.35942 0.253858 0
M  V30 8846 O 818.862 3.81632 1.25378 0
M  V30 8847 N 817.068 2.89165 0.288447 0
M  V30 8848 H 816.615 2.52176 -0.525845 0
M  V30 8849 H 816.573 2.92387 1.15572 0
M  V30 8850 N 820.346 1.18468 1.03938 0
M  V30 8851 C 821.279 0.856251 2.11527 0
M  V30 8852 C 822.257 -0.182323 1.61575 0
M  V30 8853 O 823.441 -0.061 1.88401 0
M  V30 8854 C 820.568 0.279562 3.37544 0
M  V30 8855 C 819.614 1.29552 4.06348 0
M  V30 8856 S 820.447 2.85191 4.5324 0
M  V30 8857 C 821.603 2.29037 5.82489 0
M  V30 8858 H 821.836 1.76742 2.39059 0
M  V30 8859 H 819.369 1.01068 1.16725 0
M  V30 8860 H 821.327 -0.0466579 4.10473 0
M  V30 8861 H 819.988 -0.60975 3.08125 0
M  V30 8862 H 819.181 0.840922 4.96935 0
M  V30 8863 H 818.783 1.56804 3.39541 0
M  V30 8864 H 821.075 1.67376 6.565 0
M  V30 8865 H 822.018 3.17929 6.32714 0
M  V30 8866 H 822.426 1.72009 5.37655 0
M  V30 8867 O 821.863 -1.1679 1.11545 0
M  V30 8868 H 822.554 -1.7538 0.822292 0
M  V30 END ATOM
M  V30 BEGIN BOND
M  V30 END BOND
M  V30 END CTAB
M  END
$$$$
