drugbank_target|P07711 Cathepsin L1 (DB03661; DB07477; DB12010)
 OpenBabel12092120063D

  0  0  0     0  0            999 V3000
M  V30 BEGIN CTAB
M  V30 COUNTS 5121 5189 0 0 0
M  V30 BEGIN ATOM
M  V30 1 H -0.908 1.98254 -0.117106 0
M  V30 2 N 0 1.576 0 0
M  V30 3 C 0.933 2.03868 1.02534 0
M  V30 4 C 1.911 0.928543 1.3348 0
M  V30 5 O 3.095 1.19667 1.45644 0
M  V30 6 C 0.222 2.43627 2.35294 0
M  V30 7 C -0.732 3.65373 2.2001 0
M  V30 8 S 0.101 5.13292 1.52614 0
M  V30 9 C 1.257 5.56322 2.86805 0
M  V30 10 H 1.49 2.90518 0.631377 0
M  V30 11 H -0.977 1.52953 0.210867 0
M  V30 12 H 0.981 2.67203 3.11629 0
M  V30 13 H -0.358 1.57376 2.7183 0
M  V30 14 H -1.165 3.90944 3.18086 0
M  V30 15 H -1.563 3.418 1.51819 0
M  V30 16 H 0.729 5.58782 3.83104 0
M  V30 17 H 1.672 6.56266 2.65933 0
M  V30 18 H 2.08 4.83886 2.90714 0
M  V30 19 N 1.4781 -0.272755 1.55222 0
M  V30 20 C 2.4261 -1.35705 1.88909 0
M  V30 21 C 3.4201 -1.5112 0.765456 0
M  V30 22 O 4.6261 -1.52901 0.949802 0
M  V30 23 H 1.0011 -0.453868 0.59959 0
M  V30 24 H 2.9721 -1.04544 2.79487 0
M  V30 25 C 1.7211 -2.71049 2.17779 0
M  V30 26 H 1.0441 -2.59979 3.03728 0
M  V30 27 H 2.4841 -3.45858 2.45272 0
M  V30 28 C 0.9431 -3.22165 0.985473 0
M  V30 29 O 1.4731 -4.01096 0.220233 0
M  V30 30 N -0.3209 -2.7985 0.783108 0
M  V30 31 H -0.7739 -2.15775 1.40708 0
M  V30 32 H -0.8159 -3.14397 -0.0130392 0
M  V30 33 N 2.9562 -1.48159 -0.537278 0
M  V30 34 C 4.3672 -1.49429 -1.11928 0
M  V30 35 C 4.7182 -0.26 -1.9447 0
M  V30 36 O 3.8432 0.633489 -2.0692 0
M  V30 37 C 4.4382 -2.70758 -2.03656 0
M  V30 38 C 2.9972 -2.74923 -2.57088 0
M  V30 39 C 2.1442 -2.42835 -1.3389 0
M  V30 40 H 5.0952 -1.55381 -0.322886 0
M  V30 41 H 5.1162 -2.48861 -2.87834 0
M  V30 42 H 4.6282 -3.60575 -1.43553 0
M  V30 43 H 2.7292 -1.89296 -3.20933 0
M  V30 44 H 2.8422 -3.76157 -2.9672 0
M  V30 45 H 1.2062 -1.93836 -1.65226 0
M  V30 46 H 1.9892 -3.34884 -0.755504 0
M  V30 47 N 4.4343 0.785586 -1.36625 0
M  V30 48 C 5.6623 1.57448 -1.3423 0
M  V30 49 C 6.0773 1.88649 0.0755653 0
M  V30 50 O 5.4343 1.50414 1.03354 0
M  V30 51 C 5.4853 2.89316 -2.16745 0
M  V30 52 O 5.2063 2.59459 -3.53005 0
M  V30 53 C 6.7073 3.83606 -2.22174 0
M  V30 54 H 3.9273 0.488226 -0.4603 0
M  V30 55 H 6.4713 0.974733 -1.79775 0
M  V30 56 H 4.6263 3.4575 -1.74745 0
M  V30 57 H 5.0403 3.43804 -3.96105 0
M  V30 58 H 6.5143 4.73181 -2.8426 0
M  V30 59 H 6.9913 4.21734 -1.22627 0
M  V30 60 H 7.5973 3.33104 -2.64427 0
M  V30 61 N 5.9124 1.20967 1.01018 0
M  V30 62 C 6.8424 0.988272 2.11555 0
M  V30 63 C 7.8234 -0.0849778 1.69888 0
M  V30 64 O 9.0084 0.0738202 1.9406 0
M  V30 65 C 6.1384 0.546528 3.42973 0
M  V30 66 C 5.0924 1.56375 3.9841 0
M  V30 67 C 4.4184 0.97842 5.25672 0
M  V30 68 C 5.7184 2.94922 4.31066 0
M  V30 69 H 7.4124 1.91276 2.30334 0
M  V30 70 H 4.9584 0.921073 1.1069 0
M  V30 71 H 6.9114 0.378839 4.19694 0
M  V30 72 H 5.6354 -0.413598 3.23971 0
M  V30 73 H 4.2944 1.71891 3.23804 0
M  V30 74 H 3.9424 0.0101688 5.02999 0
M  V30 75 H 3.6424 1.65784 5.63728 0
M  V30 76 H 5.1664 0.821939 6.05043 0
M  V30 77 H 6.5804 2.8288 4.9865 0
M  V30 78 H 4.9774 3.5983 4.80253 0
M  V30 79 H 6.0474 3.4616 3.39561 0
M  V30 80 N 7.3905 -1.2043 1.01659 0
M  V30 81 C 8.6395 -1.89118 0.701237 0
M  V30 82 C 8.9525 -1.79705 -0.772358 0
M  V30 83 O 10.1585 -2.43528 -1.20026 0
M  V30 84 C 8.6145 -3.39168 1.20388 0
M  V30 85 C 8.2225 -3.57166 2.70438 0
M  V30 86 C 9.9665 -4.1341 0.963953 0
M  V30 87 C 7.8735 -5.01042 3.14183 0
M  V30 88 H 6.8035 -0.708267 0.2586 0
M  V30 89 H 9.4545 -1.36239 1.22927 0
M  V30 90 H 7.8365 -3.91369 0.603824 0
M  V30 91 H 9.0105 -3.15351 3.35992 0
M  V30 92 H 7.3255 -2.96294 2.92572 0
M  V30 93 H 9.9225 -5.19491 1.26621 0
M  V30 94 H 10.2655 -4.16181 -0.099578 0
M  V30 95 H 10.7985 -3.67309 1.52738 0
M  V30 96 H 7.5375 -5.03426 4.19812 0
M  V30 97 H 7.0575 -5.43668 2.53348 0
M  V30 98 H 8.7365 -5.69623 3.0682 0
M  V30 99 N 8.8686 -0.792821 -1.36206 0
M  V30 100 C 9.7986 -0.207853 -2.32573 0
M  V30 101 C 10.7796 0.659055 -1.56813 0
M  V30 102 O 11.9646 0.592176 -1.84951 0
M  V30 103 C 9.0946 0.655449 -3.41059 0
M  V30 104 C 8.0486 -0.111842 -4.27854 0
M  V30 105 C 7.3746 0.872274 -5.27537 0
M  V30 106 C 8.6746 -1.30299 -5.05786 0
M  V30 107 H 10.3686 -1.01294 -2.81744 0
M  V30 108 H 7.9146 -0.48854 -1.3546 0
M  V30 109 H 9.8676 1.07464 -4.07467 0
M  V30 110 H 8.5916 1.49328 -2.90463 0
M  V30 111 H 7.2506 -0.512053 -3.63006 0
M  V30 112 H 6.8986 1.70523 -4.73214 0
M  V30 113 H 6.5986 0.363291 -5.86476 0
M  V30 114 H 8.1226 1.28996 -5.96818 0
M  V30 115 H 9.5366 -0.959379 -5.65216 0
M  V30 116 H 7.9336 -1.7455 -5.74154 0
M  V30 117 H 9.0036 -2.09663 -4.37229 0
M  V30 118 N 10.3467 1.47872 -0.545128 0
M  V30 119 C 11.3097 2.28337 0.198717 0
M  V30 120 C 12.3097 1.36255 0.853888 0
M  V30 121 O 13.4997 1.59003 0.711606 0
M  V30 122 C 10.6317 3.15585 1.28915 0
M  V30 123 H 11.8247 2.95567 -0.507941 0
M  V30 124 H 9.3777 1.53362 -0.301616 0
M  V30 125 H 10.1127 2.53019 2.02859 0
M  V30 126 H 9.8977 3.83337 0.824309 0
M  V30 127 H 11.3877 3.76243 1.81194 0
M  V30 128 N 11.8248 0.280983 1.55075 0
M  V30 129 C 12.7878 -0.590896 2.21452 0
M  V30 130 C 13.7878 -1.07682 1.19421 0
M  V30 131 O 14.9778 -0.97605 1.44288 0
M  V30 132 C 12.1098 -1.81587 2.88511 0
M  V30 133 H 13.3028 -0.0112554 2.99898 0
M  V30 134 H 10.8558 0.0316438 1.56268 0
M  V30 135 H 11.5908 -2.43587 2.14093 0
M  V30 136 H 11.3758 -1.4753 3.63287 0
M  V30 137 H 12.8658 -2.43575 3.39206 0
M  V30 138 N 13.3029 -1.57598 0.00835791 0
M  V30 139 C 14.5499 -1.90928 -0.674732 0
M  V30 140 C 14.8779 -0.88277 -1.73313 0
M  V30 141 O 14.1329 0.111294 -1.95383 0
M  V30 142 C 14.4319 -3.3101 -1.34787 0
M  V30 143 C 14.0979 -4.48922 -0.421861 0
M  V30 144 C 12.7599 -4.8091 -0.166927 0
M  V30 145 C 15.1119 -5.20755 0.215211 0
M  V30 146 C 12.4399 -5.821 0.733232 0
M  V30 147 C 14.7919 -6.22905 1.1033 0
M  V30 148 C 13.4559 -6.53346 1.36733 0
M  V30 149 H 12.7259 -0.698656 -0.246902 0
M  V30 150 H 15.3729 -1.91387 0.0656779 0
M  V30 151 H 13.6779 -3.26714 -2.16253 0
M  V30 152 H 15.3749 -3.54061 -1.8826 0
M  V30 153 H 11.9649 -4.23934 -0.630729 0
M  V30 154 H 16.1489 -4.9629 0.0312829 0
M  V30 155 H 11.4049 -6.04042 0.945712 0
M  V30 156 H 15.5789 -6.77694 1.60325 0
M  V30 157 H 13.2059 -7.31573 2.06652 0
M  V30 158 N 14.781 0.264519 -1.55364 0
M  V30 159 C 16.021 1.00254 -1.78125 0
M  V30 160 C 16.385 1.83187 -0.575017 0
M  V30 161 O 17.586 2.60029 -0.681042 0
M  V30 162 C 15.857 1.85478 -3.05504 0
M  V30 163 S 17.416 2.6543 -3.49417 0
M  V30 164 H 14.234 0.337522 -0.625779 0
M  V30 165 H 16.836 0.272111 -1.93597 0
M  V30 166 H 15.54 1.23491 -3.9138 0
M  V30 167 H 15.071 2.62827 -2.92721 0
M  V30 168 H 17.086 3.87958 -3.09359 0
M  V30 169 N 16.2591 1.48442 0.529413 0
M  V30 170 C 17.1891 1.65902 1.64313 0
M  V30 171 C 18.1701 0.507897 1.6234 0
M  V30 172 O 19.3551 0.740503 1.79528 0
M  V30 173 C 16.4851 1.69911 3.02898 0
M  V30 174 C 15.4391 2.8453 3.19729 0
M  V30 175 C 14.7651 2.73629 4.59381 0
M  V30 176 C 16.0651 4.25821 3.02447 0
M  V30 177 H 17.7591 2.5914 1.49955 0
M  V30 178 H 15.3051 1.24709 0.719982 0
M  V30 179 H 17.2581 1.80715 3.80684 0
M  V30 180 H 15.9821 0.732524 3.18279 0
M  V30 181 H 14.6411 2.73283 2.44361 0
M  V30 182 H 14.2891 1.74938 4.71599 0
M  V30 183 H 13.9891 3.50541 4.71588 0
M  V30 184 H 15.5131 2.86401 5.39265 0
M  V30 185 H 16.9271 4.37898 3.70024 0
M  V30 186 H 15.3241 5.03735 3.26146 0
M  V30 187 H 16.3941 4.42244 1.98867 0
M  V30 188 N 17.7372 -0.778329 1.37039 0
M  V30 189 C 18.9852 -1.53361 1.31623 0
M  V30 190 C 19.3062 -1.94739 -0.100831 0
M  V30 191 O 18.5762 -1.65797 -1.04347 0
M  V30 192 H 17.1562 -0.568794 0.484234 0
M  V30 193 H 19.8182 -0.926742 1.71457 0
M  V30 194 H 18.9142 -2.43606 1.95096 0
M  V30 195 N 19.2153 -1.21501 -1.00376 0
M  V30 196 C 20.4643 -1.02718 -1.73586 0
M  V30 197 C 20.7773 0.439589 -1.90596 0
M  V30 198 O 21.9833 0.746848 -2.61026 0
M  V30 199 C 20.4393 -1.78929 -3.1227 0
M  V30 200 C 20.0473 -3.29783 -3.03228 0
M  V30 201 C 21.7913 -1.68557 -3.89601 0
M  V30 202 C 19.6983 -3.98479 -4.36999 0
M  V30 203 H 18.6283 -0.380733 -0.650814 0
M  V30 204 H 21.2793 -1.45248 -1.1214 0
M  V30 205 H 19.6613 -1.29192 -3.74333 0
M  V30 206 H 20.8353 -3.86832 -2.50395 0
M  V30 207 H 19.1503 -3.40711 -2.39385 0
M  V30 208 H 21.7473 -2.17211 -4.88593 0
M  V30 209 H 22.0903 -0.644021 -4.11288 0
M  V30 210 H 22.6233 -2.15778 -3.34193 0
M  V30 211 H 19.3623 -5.02841 -4.20513 0
M  V30 212 H 18.8823 -3.46219 -4.89788 0
M  V30 213 H 20.5613 -4.03462 -5.05794 0
M  V30 214 N 20.6934 1.19889 -1.02296 0
M  V30 215 C 21.6564 2.21116 -0.603351 0
M  V30 216 C 22.6564 1.5738 0.329884 0
M  V30 217 O 23.8464 1.73802 0.117702 0
M  V30 218 C 20.9784 3.40696 0.117992 0
M  V30 219 H 22.1714 2.59754 -1.49893 0
M  V30 220 H 19.7244 1.33463 -0.813468 0
M  V30 221 H 20.4594 3.07569 1.0282 0
M  V30 222 H 20.2444 3.88188 -0.552511 0
M  V30 223 H 21.7344 4.15692 0.398696 0
M  V30 224 N 22.1715 0.800033 1.35784 0
M  V30 225 C 23.3965 0.388511 2.03729 0
M  V30 226 C 23.8215 -0.990481 1.5991 0
M  V30 227 O 23.1795 -1.64013 0.772612 0
M  V30 228 C 23.2275 0.4726 3.5749 0
M  V30 229 O 22.3315 -0.51646 4.09153 0
M  V30 230 H 21.6725 0.163271 0.643614 0
M  V30 231 H 24.2025 1.0841 1.73518 0
M  V30 232 H 24.2125 0.34003 4.06581 0
M  V30 233 H 22.8875 1.47848 3.88734 0
M  V30 234 H 21.4645 -0.344673 3.71304 0
M  V30 235 N 23.6496 -1.47581 0.552962 0
M  V30 236 C 24.6126 -2.28439 -0.186605 0
M  V30 237 C 25.6126 -1.36706 -0.84665 0
M  V30 238 O 26.8026 -1.59378 -0.703164 0
M  V30 239 C 23.9346 -3.16264 -1.2724 0
M  V30 240 H 25.1276 -2.95294 0.523609 0
M  V30 241 H 22.6806 -1.532 0.309745 0
M  V30 242 H 23.4156 -2.54091 -2.01514 0
M  V30 243 H 23.2006 -3.83769 -0.803968 0
M  V30 244 H 24.6906 -3.77198 -1.79196 0
M  V30 245 N 25.1277 -0.289203 -1.54924 0
M  V30 246 C 26.3557 0.326463 -2.04308 0
M  V30 247 C 26.7707 1.48413 -1.16701 0
M  V30 248 O 26.1277 1.81507 -0.190087 0
M  V30 249 C 26.1787 0.794014 -3.52672 0
M  V30 250 O 25.8997 -0.317564 -4.36948 0
M  V30 251 C 27.4007 1.47605 -4.18004 0
M  V30 252 H 24.6207 0.0726272 -0.667058 0
M  V30 253 H 27.1647 -0.425401 -2.00026 0
M  V30 254 H 25.3197 1.49593 -3.57352 0
M  V30 255 H 25.7337 0.0443186 -5.24481 0
M  V30 256 H 27.2077 1.75447 -5.23376 0
M  V30 257 H 27.6847 2.41224 -3.67025 0
M  V30 258 H 28.2907 0.81762 -4.17367 0
M  V30 259 N 26.6058 1.57591 -0.0167156 0
M  V30 260 C 27.5358 2.12496 0.967858 0
M  V30 261 C 28.5168 1.03807 1.34752 0
M  V30 262 O 29.7018 1.31577 1.42833 0
M  V30 263 C 26.8318 2.64194 2.25431 0
M  V30 264 C 25.7858 3.77559 2.01576 0
M  V30 265 C 25.1118 4.15636 3.36379 0
M  V30 266 C 26.4118 5.04151 1.36489 0
M  V30 267 H 28.1058 2.95013 0.510643 0
M  V30 268 H 25.6518 1.41915 0.244181 0
M  V30 269 H 27.6048 3.01236 2.94678 0
M  V30 270 H 26.3288 1.78821 2.73296 0
M  V30 271 H 24.9878 3.40937 1.34751 0
M  V30 272 H 24.6358 3.27263 3.81979 0
M  V30 273 H 24.3358 4.92022 3.21229 0
M  V30 274 H 25.8598 4.5525 4.06915 0
M  V30 275 H 27.2738 5.38857 1.95718 0
M  V30 276 H 25.6708 5.85453 1.31776 0
M  V30 277 H 26.7408 4.83733 0.336219 0
M  V30 278 N 28.0839 -0.256276 1.55502 0
M  V30 279 C 29.3119 -1.00342 1.8094 0
M  V30 280 C 29.7269 -1.79307 0.59114 0
M  V30 281 O 29.0839 -1.77114 -0.440081 0
M  V30 282 C 29.1349 -1.94875 3.04476 0
M  V30 283 O 28.8559 -1.19107 4.21598 0
M  V30 284 C 30.3569 -2.81266 3.42644 0
M  V30 285 H 27.5769 -0.295685 0.602338 0
M  V30 286 H 30.1209 -0.281998 2.02546 0
M  V30 287 H 28.2759 -2.62457 2.84947 0
M  V30 288 H 28.6899 -1.82969 4.91551 0
M  V30 289 H 30.1639 -3.43362 4.32211 0
M  V30 290 H 30.6409 -3.51897 2.62802 0
M  V30 291 H 31.2469 -2.1915 3.64491 0
M  V30 292 N 29.562 -1.4872 -0.521534 0
M  V30 293 C 30.809 -1.57168 -1.27689 0
M  V30 294 C 31.137 -0.249275 -1.92896 0
M  V30 295 O 30.392 0.761162 -1.80291 0
M  V30 296 C 30.691 -2.66497 -2.38148 0
M  V30 297 C 30.357 -4.08664 -1.90538 0
M  V30 298 C 29.019 -4.47357 -1.77271 0
M  V30 299 C 31.371 -4.97724 -1.54663 0
M  V30 300 C 28.699 -5.72905 -1.26478 0
M  V30 301 C 31.051 -6.2377 -1.05329 0
M  V30 302 C 29.715 -6.61311 -0.906861 0
M  V30 303 H 28.985 -0.575117 -0.467249 0
M  V30 304 H 31.632 -1.82472 -0.581051 0
M  V30 305 H 29.937 -2.35085 -3.13437 0
M  V30 306 H 31.634 -2.70246 -2.96257 0
M  V30 307 H 28.224 -3.78111 -2.01816 0
M  V30 308 H 32.408 -4.68501 -1.63768 0
M  V30 309 H 27.664 -6.00709 -1.13835 0
M  V30 310 H 31.838 -6.9217 -0.76644 0
M  V30 311 H 29.465 -7.5848 -0.511083 0
M  V30 312 N 31.0401 0.771051 -1.3745 0
M  V30 313 C 32.3171 1.519 -1.23231 0
M  V30 314 C 32.6971 2.10383 0.173809 0
M  V30 315 O 32.0451 1.95583 1.18151 0
M  V30 316 C 32.2551 2.59933 -2.32886 0
M  V30 317 C 33.6031 3.27316 -2.70461 0
M  V30 318 O 34.6271 2.70228 -2.32068 0
M  V30 319 O 33.4861 4.30531 -3.36608 0
M  V30 320 H 30.5801 0.672803 -0.480901 0
M  V30 321 H 33.1261 0.807957 -1.49232 0
M  V30 322 H 31.8981 2.14842 -3.27045 0
M  V30 323 H 31.5211 3.38637 -2.08353 0
M  V30 324 N 32.5182 1.22032 0.997298 0
M  V30 325 C 33.4682 0.953838 2.07089 0
M  V30 326 C 34.4522 -0.0938669 1.60626 0
M  V30 327 O 35.6442 0.116078 1.76619 0
M  V30 328 C 32.7732 0.528726 3.39204 0
M  V30 329 C 31.8592 1.61092 3.92314 0
M  V30 330 N 32.2502 2.83768 4.18699 0
M  V30 331 C 30.5482 1.48158 4.20672 0
M  V30 332 C 31.2492 3.53715 4.61802 0
M  V30 333 N 30.2252 2.81174 4.65233 0
M  V30 334 H 34.0272 1.88577 2.25424 0
M  V30 335 H 31.5412 1.11719 1.17867 0
M  V30 336 H 33.5382 0.31915 4.15677 0
M  V30 337 H 32.1982 -0.39635 3.22272 0
M  V30 338 H 33.2092 3.20238 4.07023 0
M  V30 339 H 29.8862 0.622369 4.12835 0
M  V30 340 H 31.2762 4.58793 4.90875 0
M  V30 341 N 33.9963 -1.19345 1.0293 0
M  V30 342 C 35.2213 -1.93538 0.745511 0
M  V30 343 C 35.6463 -1.75007 -0.689511 0
M  V30 344 O 35.0043 -1.05265 -1.47611 0
M  V30 345 C 35.0523 -3.43336 1.10239 0
M  V30 346 O 34.1563 -4.11806 0.221289 0
M  V30 347 H 33.4973 -0.604193 0.275404 0
M  V30 348 H 36.0273 -1.5141 1.37609 0
M  V30 349 H 36.0373 -3.94004 1.05947 0
M  V30 350 H 34.7123 -3.56146 2.14786 0
M  V30 351 H 33.2893 -3.715 0.322842 0
M  V30 352 N 35.4744 -0.807222 -1.35358 0
M  V30 353 C 36.4044 -0.232509 -2.3234 0
M  V30 354 C 37.3854 0.642386 -1.57504 0
M  V30 355 O 38.5704 0.572526 -1.85569 0
M  V30 356 C 35.7004 0.619238 -3.41735 0
M  V30 357 C 34.6544 -0.157215 -4.27711 0
M  V30 358 C 33.9804 0.816273 -5.28433 0
M  V30 359 C 35.2804 -1.35656 -5.04376 0
M  V30 360 H 36.9744 -1.04276 -2.80654 0
M  V30 361 H 34.5204 -0.50288 -1.34934 0
M  V30 362 H 36.4734 1.03137 -4.08584 0
M  V30 363 H 35.1974 1.46239 -2.92031 0
M  V30 364 H 33.8564 -0.550525 -3.62443 0
M  V30 365 H 33.5044 1.65494 -4.74996 0
M  V30 366 H 33.2044 0.301067 -5.86828 0
M  V30 367 H 34.7284 1.22659 -5.98153 0
M  V30 368 H 36.1424 -1.01927 -5.64166 0
M  V30 369 H 34.5394 -1.8063 -5.7227 0
M  V30 370 H 35.6094 -2.14288 -4.34981 0
M  V30 371 N 36.9525 1.47285 -0.560781 0
M  V30 372 C 37.8625 2.33846 0.187954 0
M  V30 373 C 38.8785 1.48412 0.908293 0
M  V30 374 O 40.0545 1.81332 0.876388 0
M  V30 375 C 37.1195 3.25178 1.2025 0
M  V30 376 C 36.1805 4.26504 0.489208 0
M  V30 377 C 35.4135 5.13472 1.45542 0
M  V30 378 O 35.6365 5.02959 2.6905 0
M  V30 379 O 34.5705 5.93902 0.977963 0
M  V30 380 H 38.3965 2.99177 -0.522177 0
M  V30 381 H 35.9815 1.45903 -0.321364 0
M  V30 382 H 37.8635 3.81584 1.78805 0
M  V30 383 H 36.5385 2.6247 1.89449 0
M  V30 384 H 35.4455 3.73847 -0.137627 0
M  V30 385 H 36.7785 4.91935 -0.161399 0
M  V30 386 N 38.4306 0.297415 1.54768 0
M  V30 387 C 39.3936 -0.567375 2.22066 0
M  V30 388 C 40.3936 -1.06409 1.20556 0
M  V30 389 O 41.5836 -0.960691 1.45315 0
M  V30 390 C 38.7156 -1.78517 2.90421 0
M  V30 391 H 39.9086 0.0205534 2.99893 0
M  V30 392 H 37.4616 0.0482163 1.56226 0
M  V30 393 H 38.1966 -2.41303 2.16664 0
M  V30 394 H 37.9816 -1.43669 3.64831 0
M  V30 395 H 39.4716 -2.39964 3.41771 0
M  V30 396 N 39.9087 -1.5758 0.0250728 0
M  V30 397 C 40.8407 -2.06869 -0.986796 0
M  V30 398 C 41.8537 -0.991332 -1.29137 0
M  V30 399 O 43.0427 -1.26761 -1.25674 0
M  V30 400 C 40.1427 -2.47486 -2.31525 0
M  V30 401 C 39.3157 -3.78253 -2.19643 0
M  V30 402 C 38.3747 -4.05464 -3.35388 0
M  V30 403 O 37.4007 -4.75774 -3.12454 0
M  V30 404 N 38.6027 -3.55321 -4.59051 0
M  V30 405 H 41.3677 -2.94302 -0.566276 0
M  V30 406 H 38.9287 -1.6109 -0.161776 0
M  V30 407 H 40.9207 -2.62785 -3.07776 0
M  V30 408 H 39.4907 -1.65441 -2.65232 0
M  V30 409 H 38.7107 -3.7279 -1.28144 0
M  V30 410 H 39.9987 -4.63936 -2.08903 0
M  V30 411 H 39.3967 -2.98431 -4.80578 0
M  V30 412 H 37.9537 -3.75905 -5.32483 0
M  V30 413 N 41.3868 0.248026 -1.55636 0
M  V30 414 C 42.6328 0.973427 -1.78594 0
M  V30 415 C 42.9878 1.83007 -0.593823 0
M  V30 416 O 42.2808 1.87097 0.412961 0
M  V30 417 C 42.4748 1.86819 -3.04686 0
M  V30 418 C 42.3038 1.09965 -4.36048 0
M  V30 419 C 41.0738 0.805204 -4.98843 0
M  V30 420 C 43.2718 0.477783 -5.12076 0
M  V30 421 N 41.2538 0.0124859 -6.13899 0
M  V30 422 C 42.6248 -0.179565 -6.1974 0
M  V30 423 C 44.6798 0.388136 -4.96385 0
M  V30 424 C 43.3828 -0.91795 -7.13419 0
M  V30 425 C 45.4088 -0.336716 -5.90441 0
M  V30 426 C 44.7708 -0.982705 -6.97511 0
M  V30 427 H 40.8698 0.337348 -0.705493 0
M  V30 428 H 43.4538 0.24667 -1.93131 0
M  V30 429 H 41.6248 2.56698 -2.9148 0
M  V30 430 H 43.3568 2.52907 -3.15944 0
M  V30 431 H 40.1118 1.11671 -4.60246 0
M  V30 432 H 40.5358 -0.371933 -6.75978 0
M  V30 433 H 45.1778 0.873237 -4.13684 0
M  V30 434 H 42.8958 -1.41466 -7.95621 0
M  V30 435 H 46.4818 -0.406731 -5.80377 0
M  V30 436 H 45.3618 -1.53464 -7.69037 0
M  V30 437 N 42.8649 1.48995 0.513639 0
M  V30 438 C 44.0929 1.61531 1.29288 0
M  V30 439 C 44.5079 0.281801 1.86685 0
M  V30 440 O 43.8649 -0.731111 1.67215 0
M  V30 441 C 43.9159 2.67449 2.43215 0
M  V30 442 O 43.6369 3.95626 1.88179 0
M  V30 443 C 45.1379 2.90575 3.34785 0
M  V30 444 H 42.3579 0.544165 0.392588 0
M  V30 445 H 44.9019 1.9494 0.617956 0
M  V30 446 H 43.0569 2.36853 3.0656 0
M  V30 447 H 43.4709 4.53868 2.62876 0
M  V30 448 H 44.9449 3.68449 4.11035 0
M  V30 449 H 45.4219 2.00011 3.91015 0
M  V30 450 H 46.0279 3.22538 2.77218 0
M  V30 451 N 44.343 -0.763751 1.37857 0
M  V30 452 C 45.29 -1.87726 1.34267 0
M  V30 453 C 46.26 -1.64807 0.206879 0
M  V30 454 O 47.445 -1.86613 0.397508 0
M  V30 455 C 44.585 -3.24896 1.16346 0
M  V30 456 C 43.698 -3.59716 2.39225 0
M  V30 457 C 42.833 -4.86137 2.14114 0
M  V30 458 C 41.872 -5.13711 3.32817 0
M  V30 459 N 41.009 -6.31323 3.07206 0
M  V30 460 H 45.849 -1.90129 2.29466 0
M  V30 461 H 43.386 -0.929433 1.14017 0
M  V30 462 H 45.344 -4.04036 1.03975 0
M  V30 463 H 43.974 -3.21847 0.247909 0
M  V30 464 H 43.026 -2.75498 2.62307 0
M  V30 465 H 44.338 -3.76027 3.27728 0
M  V30 466 H 43.492 -5.73198 1.9882 0
M  V30 467 H 42.231 -4.71945 1.22961 0
M  V30 468 H 41.236 -4.25123 3.48641 0
M  V30 469 H 42.461 -5.29807 4.24832 0
M  V30 470 H 40.407 -6.18474 2.1869 0
M  V30 471 H 40.324 -6.48087 3.89254 0
M  V30 472 H 41.592 -7.213 2.95546 0
M  V30 473 N 45.8211 -1.22559 -0.990812 0
M  V30 474 C 47.0671 -1.06303 -1.73411 0
M  V30 475 C 47.4221 0.397442 -1.8825 0
M  V30 476 O 46.7151 1.29062 -1.41611 0
M  V30 477 C 46.9091 -1.71011 -3.13831 0
M  V30 478 C 46.7381 -3.232 -3.12685 0
M  V30 479 C 45.5081 -3.92314 -3.18461 0
M  V30 480 C 47.7061 -4.20107 -2.96673 0
M  V30 481 N 45.6881 -5.31571 -3.07091 0
M  V30 482 C 47.0591 -5.46208 -2.93354 0
M  V30 483 C 49.1141 -4.10973 -2.8108 0
M  V30 484 C 47.8171 -6.64225 -2.76039 0
M  V30 485 C 49.8431 -5.28642 -2.65126 0
M  V30 486 C 49.2051 -6.53663 -2.62496 0
M  V30 487 H 45.3041 -0.443441 -0.644115 0
M  V30 488 H 47.8881 -1.55131 -1.17654 0
M  V30 489 H 46.0591 -1.2473 -3.67827 0
M  V30 490 H 47.7911 -1.47828 -3.76735 0
M  V30 491 H 44.5461 -3.43326 -3.26227 0
M  V30 492 H 44.9701 -6.0455 -3.0471 0
M  V30 493 H 49.6121 -3.15098 -2.8191 0
M  V30 494 H 47.3301 -7.60246 -2.73954 0
M  V30 495 H 50.9161 -5.23407 -2.54039 0
M  V30 496 H 49.7961 -7.43182 -2.50302 0
M  V30 497 N 47.2992 1.18797 -1.03562 0
M  V30 498 C 48.2462 2.22253 -0.622259 0
M  V30 499 C 49.2162 1.61987 0.36736 0
M  V30 500 O 50.4012 1.88986 0.262492 0
M  V30 501 C 47.5412 3.45097 0.0138462 0
M  V30 502 C 46.6542 4.19722 -1.02263 0
M  V30 503 C 45.7892 5.30009 -0.355573 0
M  V30 504 C 44.8282 5.96399 -1.37749 0
M  V30 505 N 43.9652 6.98234 -0.735766 0
M  V30 506 H 48.8052 2.56968 -1.50903 0
M  V30 507 H 46.3422 1.26245 -0.755017 0
M  V30 508 H 48.3002 4.15279 0.399948 0
M  V30 509 H 46.9302 3.11018 0.864158 0
M  V30 510 H 45.9822 3.48418 -1.52673 0
M  V30 511 H 47.2942 4.65227 -1.79903 0
M  V30 512 H 46.4482 6.0664 0.0850095 0
M  V30 513 H 45.1872 4.85592 0.452967 0
M  V30 514 H 44.1922 5.18512 -1.82826 0
M  V30 515 H 45.4172 6.42899 -2.18764 0
M  V30 516 H 43.3632 6.55979 0.0525597 0
M  V30 517 H 43.2802 7.41965 -1.44995 0
M  V30 518 H 44.5482 7.78845 -0.31941 0
M  V30 519 N 48.7773 0.814389 1.34928 0
M  V30 520 C 49.7403 0.235759 2.27984 0
M  V30 521 C 50.7403 -0.581412 1.49921 0
M  V30 522 O 51.9303 -0.398758 1.69575 0
M  V30 523 C 49.0623 -0.670433 3.34242 0
M  V30 524 H 50.2553 1.05659 2.80671 0
M  V30 525 H 47.8083 0.585614 1.44915 0
M  V30 526 H 48.5433 -1.51466 2.86755 0
M  V30 527 H 48.3283 -0.0860822 3.92005 0
M  V30 528 H 49.8183 -1.06935 4.03676 0
M  V30 529 N 50.2554 -1.46986 0.568584 0
M  V30 530 C 51.1884 -2.27129 -0.220779 0
M  V30 531 C 52.1664 -1.34757 -0.909905 0
M  V30 532 O 53.3504 -1.64152 -0.926622 0
M  V30 533 C 50.4774 -3.12108 -1.31553 0
M  V30 534 C 49.5234 -4.20141 -0.733748 0
M  V30 535 S 50.3564 -5.33783 0.428479 0
M  V30 536 C 51.5124 -6.22327 -0.667811 0
M  V30 537 H 51.7454 -2.93731 0.459267 0
M  V30 538 H 49.2784 -1.5026 0.355154 0
M  V30 539 H 51.2364 -3.61636 -1.94241 0
M  V30 540 H 49.8974 -2.44847 -1.96746 0
M  V30 541 H 49.0904 -4.79373 -1.5562 0
M  V30 542 H 48.6924 -3.73553 -0.182812 0
M  V30 543 H 50.9844 -6.59364 -1.55708 0
M  V30 544 H 51.9274 -7.0801 -0.11258 0
M  V30 545 H 52.3354 -5.5618 -0.965601 0
M  V30 546 N 51.7335 -0.305618 -1.54608 0
M  V30 547 C 52.6835 0.583595 -2.20405 0
M  V30 548 C 53.6675 1.09539 -1.17856 0
M  V30 549 O 54.8595 1.0354 -1.43557 0
M  V30 550 C 51.9885 1.75277 -2.95183 0
M  V30 551 C 51.0745 1.25672 -4.05052 0
M  V30 552 N 51.4655 0.478998 -5.03527 0
M  V30 553 C 49.7635 1.53704 -4.18678 0
M  V30 554 C 50.4645 0.214269 -5.81305 0
M  V30 555 N 49.4405 0.795374 -5.3775 0
M  V30 556 H 53.2425 -0.0180946 -2.93894 0
M  V30 557 H 50.7565 -0.110601 -1.62023 0
M  V30 558 H 52.7535 2.4014 -3.40791 0
M  V30 559 H 51.4135 2.35812 -2.23211 0
M  V30 560 H 52.4245 0.123473 -5.17753 0
M  V30 561 H 49.1015 2.14954 -3.57912 0
M  V30 562 H 50.4915 -0.410656 -6.70644 0
M  V30 563 N 53.2116 1.57565 -0.0334293 0
M  V30 564 C 54.1596 2.1164 0.96496 0
M  V30 565 C 55.1536 1.04398 1.33407 0
M  V30 566 O 56.3596 1.22828 1.3158 0
M  V30 567 H 52.7346 0.676222 0.32898 0
M  V30 568 H 54.7056 2.94455 0.483614 0
M  V30 569 C 53.4546 2.66207 2.23672 0
M  V30 570 H 52.7776 3.48378 1.96145 0
M  V30 571 H 54.2176 3.07685 2.9173 0
M  V30 572 C 52.6766 1.59151 2.96939 0
M  V30 573 O 53.2066 0.993858 3.89211 0
M  V30 574 N 51.4126 1.31093 2.59351 0
M  V30 575 H 50.9596 1.7988 1.84393 0
M  V30 576 H 50.9176 0.596889 3.08682 0
M  V30 577 N 54.6897 -0.239769 1.55765 0
M  V30 578 C 56.1057 -0.588624 1.48349 0
M  V30 579 C 56.3057 -1.88005 0.72502 0
M  V30 580 O 55.3617 -2.51186 0.257269 0
M  V30 581 C 56.6747 -0.68474 2.928 0
M  V30 582 C 58.2227 -0.77659 3.03213 0
M  V30 583 C 58.6977 -0.904207 4.48986 0
M  V30 584 N 60.1887 -0.968896 4.52953 0
M  V30 585 C 60.9237 -1.08703 5.63002 0
M  V30 586 N 60.4197 -1.17026 6.82845 0
M  V30 587 N 62.2127 -1.12074 5.50814 0
M  V30 588 H 54.3637 0.607911 2.03515 0
M  V30 589 H 56.6267 0.21083 0.924259 0
M  V30 590 H 56.3327 0.194284 3.51163 0
M  V30 591 H 56.2067 -1.55435 3.43686 0
M  V30 592 H 58.5937 -1.64606 2.44926 0
M  V30 593 H 58.6747 0.118315 2.55526 0
M  V30 594 H 58.3187 -0.0392633 5.07885 0
M  V30 595 H 58.2487 -1.81426 4.9436 0
M  V30 596 H 60.7397 -0.915633 3.6664 0
M  V30 597 H 61.0527 -1.25966 7.62465 0
M  V30 598 H 59.3977 -1.13971 6.85591 0
M  V30 599 H 62.5887 -1.05226 4.5612 0
M  V30 600 H 62.7617 -1.20936 6.36615 0
M  V30 601 N 56.1678 -1.49265 -0.50573 0
M  V30 602 C 57.0978 -1.68495 -1.61653 0
M  V30 603 C 58.0788 -0.53366 -1.61512 0
M  V30 604 O 59.2638 -0.76897 -1.78327 0
M  V30 605 C 56.3938 -1.74709 -3.00157 0
M  V30 606 C 55.3478 -2.89581 -3.15162 0
M  V30 607 C 54.6738 -2.80903 -4.5497 0
M  V30 608 C 55.9738 -4.30578 -2.95634 0
M  V30 609 H 57.6678 -2.61493 -1.45814 0
M  V30 610 H 55.2138 -1.25838 -0.70005 0
M  V30 611 H 57.1668 -1.86748 -3.77761 0
M  V30 612 H 55.8908 -0.783067 -3.17074 0
M  V30 613 H 54.5498 -2.77136 -2.39982 0
M  V30 614 H 54.1978 -1.82419 -4.68756 0
M  V30 615 H 53.8978 -3.57999 -4.65951 0
M  V30 616 H 55.4218 -2.94944 -5.34641 0
M  V30 617 H 56.8358 -4.4373 -3.63011 0
M  V30 618 H 55.2328 -5.0886 -3.18091 0
M  V30 619 H 56.3028 -4.45352 -1.91806 0
M  V30 620 N 57.6459 0.756429 -1.3826 0
M  V30 621 C 58.8759 1.54341 -1.3734 0
M  V30 622 C 59.2839 1.89159 0.0393917 0
M  V30 623 O 58.6269 1.5307 1.01565 0
M  V30 624 C 58.6889 2.87238 -2.16182 0
M  V30 625 C 58.3529 2.74973 -3.65019 0
M  V30 626 C 59.3499 2.44962 -4.58574 0
M  V30 627 C 57.0349 2.92515 -4.08338 0
M  V30 628 C 59.0289 2.32642 -5.93428 0
M  V30 629 C 56.7159 2.79815 -5.43274 0
M  V30 630 C 57.7139 2.49921 -6.35632 0
M  V30 631 O 57.4019 2.37275 -7.68086 0
M  V30 632 H 57.1339 0.484281 -0.471643 0
M  V30 633 H 59.6879 0.944152 -1.82414 0
M  V30 634 H 57.9179 3.49342 -1.65822 0
M  V30 635 H 59.6069 3.48731 -2.07705 0
M  V30 636 H 60.3729 2.31081 -4.26412 0
M  V30 637 H 56.2519 3.14781 -3.368 0
M  V30 638 H 59.7959 2.0923 -6.65484 0
M  V30 639 H 55.6929 2.93269 -5.75034 0
M  V30 640 H 56.4609 2.52509 -7.78577 0
M  V30 641 N 59.124 1.23083 0.984299 0
M  V30 642 C 60.372 1.05848 1.72165 0
M  V30 643 C 60.693 -0.406049 1.90726 0
M  V30 644 O 59.963 -1.29139 1.47309 0
M  V30 645 H 58.543 0.388685 0.637913 0
M  V30 646 H 61.205 1.54736 1.18503 0
M  V30 647 H 60.301 1.54327 2.71274 0
M  V30 648 N 60.6021 -1.18246 1.0419 0
M  V30 649 C 61.5351 -2.20746 0.578474 0
M  V30 650 C 62.5131 -1.57912 -0.387624 0
M  V30 651 O 63.6971 -1.86071 -0.301634 0
M  V30 652 C 60.8241 -3.38346 -0.154762 0
M  V30 653 C 59.8701 -4.19587 0.764782 0
M  V30 654 S 60.7031 -4.86014 2.24835 0
M  V30 655 C 61.8591 -6.07012 1.526 0
M  V30 656 H 62.0921 -2.59715 1.44691 0
M  V30 657 H 59.6251 -1.287 0.85297 0
M  V30 658 H 61.5831 -4.065 -0.571641 0
M  V30 659 H 60.2441 -2.97786 -0.999105 0
M  V30 660 H 59.4371 -5.03611 0.197976 0
M  V30 661 H 59.0391 -3.56818 1.12057 0
M  V30 662 H 61.3311 -6.72523 0.819733 0
M  V30 663 H 62.2741 -6.68202 2.34333 0
M  V30 664 H 62.6821 -5.55249 1.01779 0
M  V30 665 N 62.0802 -0.821533 -1.34494 0
M  V30 666 C 63.0282 -0.230702 -2.31453 0
M  V30 667 C 64.0222 0.627793 -1.57338 0
M  V30 668 O 65.2282 0.519288 -1.72347 0
M  V30 669 H 61.6032 -0.0558577 -0.749923 0
M  V30 670 H 63.5742 -1.06332 -2.78812 0
M  V30 671 C 62.3232 0.59391 -3.4259 0
M  V30 672 H 61.6462 -0.0573588 -3.99759 0
M  V30 673 H 63.0862 0.973446 -4.12674 0
M  V30 674 C 61.5452 1.76568 -2.86924 0
M  V30 675 O 62.0752 2.8638 -2.81691 0
M  V30 676 N 60.2812 1.58198 -2.43766 0
M  V30 677 H 59.8282 0.68872 -2.48222 0
M  V30 678 H 59.7862 2.36752 -2.06871 0
M  V30 679 N 63.5583 1.46682 -0.576371 0
M  V30 680 C 64.4683 2.34032 0.163141 0
M  V30 681 C 65.4843 1.49367 0.892501 0
M  V30 682 O 66.6603 1.82252 0.857106 0
M  V30 683 C 63.7253 3.26435 1.16795 0
M  V30 684 C 62.7863 4.26998 0.443944 0
M  V30 685 C 62.0193 5.14986 1.40088 0
M  V30 686 O 62.2423 5.05785 2.637 0
M  V30 687 O 61.1763 5.94906 0.914917 0
M  V30 688 H 65.0023 2.98607 -0.55388 0
M  V30 689 H 62.5873 1.45554 -0.336821 0
M  V30 690 H 64.4693 3.83459 1.74748 0
M  V30 691 H 63.1443 2.64465 1.86655 0
M  V30 692 H 62.0513 3.7368 -0.177271 0
M  V30 693 H 63.3843 4.91736 -0.213566 0
M  V30 694 N 65.0364 0.313813 1.54444 0
M  V30 695 C 65.9464 -0.565714 2.27677 0
M  V30 696 C 66.9624 -1.13754 1.31666 0
M  V30 697 O 68.1384 -1.15959 1.64668 0
M  V30 698 C 65.2034 -1.71528 3.01296 0
M  V30 699 C 64.2644 -1.17624 4.12872 0
M  V30 700 C 63.4974 -2.27102 4.8297 0
M  V30 701 O 63.7204 -3.47256 4.52514 0
M  V30 702 O 62.6544 -1.9307 5.70094 0
M  V30 703 H 66.4804 0.0287296 3.03686 0
M  V30 704 H 64.0654 0.0798312 1.49187 0
M  V30 705 H 65.9474 -2.38476 3.4743 0
M  V30 706 H 64.6224 -2.29608 2.2817 0
M  V30 707 H 63.5294 -0.472124 3.71109 0
M  V30 708 H 64.8624 -0.640695 4.88012 0
M  V30 709 N 66.5145 -1.57545 0.0417849 0
M  V30 710 C 67.7625 -1.91937 -0.632829 0
M  V30 711 C 68.0835 -0.919978 -1.71934 0
M  V30 712 O 67.3535 0.0366064 -1.95866 0
M  V30 713 H 65.9335 -0.708493 -0.236742 0
M  V30 714 H 68.5955 -1.9468 0.0925745 0
M  V30 715 H 67.6915 -2.92912 -1.07746 0
M  V30 716 N 67.9926 0.231505 -1.5589 0
M  V30 717 C 69.2386 0.954429 -1.79617 0
M  V30 718 C 69.5936 1.82367 -0.613199 0
M  V30 719 O 68.8866 1.87524 0.393094 0
M  V30 720 C 69.0806 1.83577 -3.0665 0
M  V30 721 C 68.9096 1.05334 -4.3719 0
M  V30 722 C 67.6796 0.75225 -4.99669 0
M  V30 723 C 69.8776 0.423444 -5.12554 0
M  V30 724 N 67.8596 -0.052627 -6.13877 0
M  V30 725 C 69.2306 -0.245287 -6.19515 0
M  V30 726 C 71.2856 0.335466 -4.96769 0
M  V30 727 C 69.9886 -0.993566 -7.12405 0
M  V30 728 C 72.0146 -0.399321 -5.9005 0
M  V30 729 C 71.3766 -1.05663 -6.9643 0
M  V30 730 H 67.4756 0.329846 -0.709031 0
M  V30 731 H 70.0596 0.226172 -1.93382 0
M  V30 732 H 68.2306 2.53592 -2.94186 0
M  V30 733 H 69.9626 2.49541 -3.18608 0
M  V30 734 H 66.7176 1.06783 -4.61405 0
M  V30 735 H 67.1416 -0.443609 -6.75545 0
M  V30 736 H 71.7836 0.829311 -4.14587 0
M  V30 737 H 69.5016 -1.49896 -7.94076 0
M  V30 738 H 73.0876 -0.468265 -5.79913 0
M  V30 739 H 71.9676 -1.61612 -7.67366 0
M  V30 740 N 69.4707 1.49531 0.497807 0
M  V30 741 C 70.8867 1.36365 0.829266 0
M  V30 742 C 71.0867 0.399184 1.97506 0
M  V30 743 O 70.1427 -0.167977 2.51941 0
M  V30 744 C 71.4557 2.77153 1.16647 0
M  V30 745 C 73.0037 2.85877 1.27449 0
M  V30 746 C 73.4787 4.2744 1.64497 0
M  V30 747 N 74.9697 4.30265 1.7154 0
M  V30 748 C 75.7047 5.3677 2.01656 0
M  V30 749 N 75.2007 6.53516 2.29976 0
M  V30 750 N 76.9937 5.24189 2.02934 0
M  V30 751 H 69.1447 2.10831 -0.257703 0
M  V30 752 H 71.4077 0.946534 -0.0527091 0
M  V30 753 H 71.1137 3.49442 0.397872 0
M  V30 754 H 70.9877 3.12722 2.10915 0
M  V30 755 H 73.3747 2.13824 2.0338 0
M  V30 756 H 73.4557 2.53887 0.312244 0
M  V30 757 H 73.0997 5.00021 0.891151 0
M  V30 758 H 73.0297 4.56896 2.61827 0
M  V30 759 H 75.5207 3.4607 1.51802 0
M  V30 760 H 75.8337 7.30506 2.52153 0
M  V30 761 H 74.1787 6.56737 2.27425 0
M  V30 762 H 77.3697 4.31988 1.80289 0
M  V30 763 H 77.5427 6.07286 2.26071 0
M  V30 764 N 70.9488 -0.749086 1.3866 0
M  V30 765 C 72.3648 -1.05276 1.19955 0
M  V30 766 C 72.5648 -2.01435 0.05134 0
M  V30 767 O 71.6208 -2.45232 -0.60147 0
M  V30 768 C 72.9338 -1.62853 2.52783 0
M  V30 769 C 74.4818 -1.75002 2.59506 0
M  V30 770 C 74.9568 -2.35991 3.92521 0
M  V30 771 N 76.4478 -2.43416 3.94085 0
M  V30 772 C 77.1828 -2.91511 4.9377 0
M  V30 773 N 76.6788 -3.39608 6.03853 0
M  V30 774 N 78.4718 -2.90592 4.81157 0
M  V30 775 H 70.6228 -0.111066 2.12109 0
M  V30 776 H 72.8858 -0.111901 0.941373 0
M  V30 777 H 72.5918 -0.99664 3.37283 0
M  V30 778 H 72.4658 -2.61854 2.715 0
M  V30 779 H 74.8528 -2.37317 1.75398 0
M  V30 780 H 74.9338 -0.74693 2.44652 0
M  V30 781 H 74.5778 -1.74308 4.77053 0
M  V30 782 H 74.5078 -3.3695 4.04688 0
M  V30 783 H 76.9988 -2.09405 3.14576 0
M  V30 784 H 77.3118 -3.74775 6.75843 0
M  V30 785 H 75.6568 -3.37653 6.07466 0
M  V30 786 H 78.8478 -2.52332 3.94267 0
M  V30 787 H 79.0208 -3.27762 5.58996 0
M  V30 788 N 72.4269 -1.23603 -0.977757 0
M  V30 789 C 73.3899 -1.02069 -2.05218 0
M  V30 790 C 74.3899 0.0184305 -1.60789 0
M  V30 791 O 75.5799 -0.221569 -1.72785 0
M  V30 792 C 72.7119 -0.544926 -3.36517 0
M  V30 793 H 73.9049 -1.9742 -2.25755 0
M  V30 794 H 71.4579 -1.05684 -1.15155 0
M  V30 795 H 72.1929 0.412241 -3.21669 0
M  V30 796 H 71.9779 -1.2948 -3.70105 0
M  V30 797 H 73.4679 -0.414985 -4.15533 0
M  V30 798 N 73.905 1.17692 -1.04816 0
M  V30 799 C 75.151 1.88137 -0.75711 0
M  V30 800 C 75.484 1.80604 0.713841 0
M  V30 801 O 74.759 1.21146 1.52164 0
M  V30 802 C 75.042 3.38318 -1.2334 0
M  V30 803 C 74.895 3.54622 -2.76701 0
M  V30 804 C 76.214 4.32214 -0.829415 0
M  V30 805 H 73.333 0.683163 -0.27651 0
M  V30 806 H 75.975 1.38424 -1.30149 0
M  V30 807 H 74.125 3.80787 -0.770286 0
M  V30 808 H 75.797 3.21194 -3.31107 0
M  V30 809 H 74.04 2.97026 -3.16161 0
M  V30 810 H 74.711 4.60028 -3.05088 0
M  V30 811 H 77.187 3.97565 -1.22805 0
M  V30 812 H 76.063 5.35838 -1.19033 0
M  V30 813 H 76.324 4.41294 0.266891 0
M  V30 814 N 75.3831 0.828654 1.34056 0
M  V30 815 C 76.6291 0.429279 1.98818 0
M  V30 816 C 76.9841 -0.998011 1.64492 0
M  V30 817 O 76.2771 -1.68652 0.909228 0
M  V30 818 C 76.4711 0.575226 3.52741 0
M  V30 819 C 76.3001 2.01515 4.02022 0
M  V30 820 C 75.0701 2.64825 4.30344 0
M  V30 821 C 77.2681 2.98261 4.18981 0
M  V30 822 N 75.2501 3.99998 4.65698 0
M  V30 823 C 76.6211 4.18356 4.57578 0
M  V30 824 C 78.6761 2.94802 4.01243 0
M  V30 825 C 77.3791 5.35454 4.80293 0
M  V30 826 C 79.4051 4.11121 4.25128 0
M  V30 827 C 78.7671 5.29969 4.64018 0
M  V30 828 H 74.8661 0.205304 0.754569 0
M  V30 829 H 77.4501 1.07457 1.62361 0
M  V30 830 H 75.6211 -0.0401962 3.88379 0
M  V30 831 H 77.3531 0.148292 4.04428 0
M  V30 832 H 74.1081 2.16027 4.21461 0
M  V30 833 H 74.5321 4.69653 4.87601 0
M  V30 834 H 79.1741 2.04054 3.70299 0
M  V30 835 H 76.8921 6.26755 5.10102 0
M  V30 836 H 80.4781 4.0985 4.12934 0
M  V30 837 H 79.3581 6.18479 4.82134 0
M  V30 838 N 76.8612 -1.46375 0.584142 0
M  V30 839 C 77.7712 -2.34115 -0.150728 0
M  V30 840 C 78.7872 -1.49838 -0.884567 0
M  V30 841 O 79.9632 -1.82704 -0.847429 0
M  V30 842 C 77.0282 -3.2705 -1.15062 0
M  V30 843 C 76.0892 -4.27228 -0.421293 0
M  V30 844 C 75.3222 -5.15722 -1.37355 0
M  V30 845 O 75.5452 -5.07176 -2.61014 0
M  V30 846 O 74.4792 -5.95383 -0.883355 0
M  V30 847 H 78.3052 -2.98309 0.569708 0
M  V30 848 H 75.8902 -1.45373 0.344535 0
M  V30 849 H 77.7722 -3.84381 -1.72712 0
M  V30 850 H 76.4472 -2.65451 -1.8525 0
M  V30 851 H 75.3542 -3.7358 0.197085 0
M  V30 852 H 76.6872 -4.91616 0.239641 0
M  V30 853 N 78.3393 -0.321999 -1.54275 0
M  V30 854 C 79.2863 0.544664 -2.24281 0
M  V30 855 C 80.2563 1.1129 -1.23303 0
M  V30 856 O 81.4413 1.15354 -1.51981 0
M  V30 857 C 78.5813 1.70045 -3.00298 0
M  V30 858 C 77.6943 1.16159 -4.1609 0
M  V30 859 C 76.8293 2.28293 -4.79641 0
M  V30 860 C 75.8683 1.71648 -5.8754 0
M  V30 861 N 75.0053 2.77438 -6.44959 0
M  V30 862 H 79.8453 -0.0588907 -2.97942 0
M  V30 863 H 77.3823 -0.0408345 -1.47043 0
M  V30 864 H 79.3403 2.38054 -3.42616 0
M  V30 865 H 77.9703 2.27531 -2.28975 0
M  V30 866 H 77.0223 0.373092 -3.78566 0
M  V30 867 H 78.3343 0.707087 -4.93763 0
M  V30 868 H 77.4883 3.0421 -5.2492 0
M  V30 869 H 76.2273 2.77079 -4.01346 0
M  V30 870 H 75.2323 0.942282 -5.41665 0
M  V30 871 H 76.4573 1.23741 -6.67731 0
M  V30 872 H 74.4033 3.25519 -5.69538 0
M  V30 873 H 74.3203 2.36547 -7.1804 0
M  V30 874 H 75.5883 3.53189 -6.94894 0
M  V30 875 N 79.8174 1.5752 -0.0501392 0
M  V30 876 C 80.7654 2.12651 0.942459 0
M  V30 877 C 81.7594 1.05807 1.32292 0
M  V30 878 O 82.9654 1.24217 1.3027 0
M  V30 879 H 79.3404 0.679673 0.321789 0
M  V30 880 H 81.3114 2.94951 0.452356 0
M  V30 881 C 80.0604 2.68565 2.20836 0
M  V30 882 H 79.3834 3.50439 1.92439 0
M  V30 883 H 80.8234 3.10761 2.8845 0
M  V30 884 C 79.2824 1.62291 2.95234 0
M  V30 885 O 79.8124 1.03508 3.88135 0
M  V30 886 N 78.0184 1.33836 2.57946 0
M  V30 887 H 77.5654 1.81826 1.82475 0
M  V30 888 H 77.5234 0.629595 3.08032 0
M  V30 889 N 81.2955 -0.223234 1.56011 0
M  V30 890 C 82.2285 -1.30377 1.87289 0
M  V30 891 C 83.2065 -1.45286 0.730112 0
M  V30 892 O 84.3905 -1.61126 0.978302 0
M  V30 893 C 81.5175 -2.67431 2.07843 0
M  V30 894 C 80.5635 -2.69546 3.30526 0
M  V30 895 S 81.3965 -2.23781 4.865 0
M  V30 896 C 82.5525 -3.62714 5.10088 0
M  V30 897 H 82.7855 -1.03652 2.78646 0
M  V30 898 H 80.3185 -0.425393 1.48424 0
M  V30 899 H 82.2765 -3.46336 2.20368 0
M  V30 900 H 80.9375 -2.91381 1.17285 0
M  V30 901 H 80.1305 -3.70255 3.41947 0
M  V30 902 H 79.7325 -1.98703 3.16849 0
M  V30 903 H 82.0245 -4.58391 4.98883 0
M  V30 904 H 82.9675 -3.5621 6.11981 0
M  V30 905 H 83.3755 -3.56323 4.37829 0
M  V30 906 N 82.7736 -1.49793 -0.48987 0
M  V30 907 C 83.7206 -1.67281 -1.59014 0
M  V30 908 C 84.6906 -0.514177 -1.57941 0
M  V30 909 O 85.8756 -0.742533 -1.75759 0
M  V30 910 C 83.0156 -1.75569 -2.97102 0
M  V30 911 C 82.1286 -3.0281 -3.08107 0
M  V30 912 C 81.2636 -3.02008 -4.36995 0
M  V30 913 C 80.3026 -4.23782 -4.41673 0
M  V30 914 N 79.4396 -4.20826 -5.62005 0
M  V30 915 H 84.2796 -2.61224 -1.43409 0
M  V30 916 H 81.8166 -1.29508 -0.697565 0
M  V30 917 H 83.7746 -1.78354 -3.77155 0
M  V30 918 H 82.4046 -0.850827 -3.11385 0
M  V30 919 H 81.4566 -3.09584 -2.21047 0
M  V30 920 H 82.7686 -3.92801 -3.07423 0
M  V30 921 H 81.9226 -3.03418 -5.25378 0
M  V30 922 H 80.6616 -2.09815 -4.4026 0
M  V30 923 H 79.6666 -4.22604 -3.5169 0
M  V30 924 H 80.8916 -5.17181 -4.40115 0
M  V30 925 H 78.8376 -3.31476 -5.66091 0
M  V30 926 H 78.7546 -5.04564 -5.62984 0
M  V30 927 H 80.0226 -4.26355 -6.52565 0
M  V30 928 N 84.2517 0.741722 -1.39055 0
M  V30 929 C 85.1847 1.86416 -1.31622 0
M  V30 930 C 86.1627 1.61473 -0.191076 0
M  V30 931 O 87.3467 1.84825 -0.370399 0
M  V30 932 C 84.4737 3.22266 -1.04221 0
M  V30 933 C 83.5197 3.66079 -2.18834 0
M  V30 934 S 84.3527 3.7623 -3.81066 0
M  V30 935 C 85.5087 5.14881 -3.55877 0
M  V30 936 H 85.7417 1.92437 -2.26617 0
M  V30 937 H 83.2747 0.905907 -1.25031 0
M  V30 938 H 85.2327 4.00714 -0.890964 0
M  V30 939 H 83.8937 3.1391 -0.109237 0
M  V30 940 H 83.0867 4.64648 -1.95238 0
M  V30 941 H 82.6887 2.94817 -2.30128 0
M  V30 942 H 84.9807 6.01006 -3.12726 0
M  V30 943 H 85.9237 5.43503 -4.53884 0
M  V30 944 H 86.3317 4.84239 -2.90126 0
M  V30 945 N 85.7298 1.2412 0.971189 0
M  V30 946 C 86.9788 1.07284 1.70801 0
M  V30 947 C 87.2918 -0.388902 1.91695 0
M  V30 948 O 88.4978 -0.677379 2.62914 0
M  V30 949 C 86.9538 1.87145 3.07416 0
M  V30 950 C 86.5618 3.37707 2.94377 0
M  V30 951 C 88.3058 1.78828 3.84995 0
M  V30 952 C 86.2128 4.09925 4.26281 0
M  V30 953 H 85.1428 0.397854 0.64049 0
M  V30 954 H 87.7938 1.4817 1.0825 0
M  V30 955 H 86.1758 1.39071 3.70777 0
M  V30 956 H 87.3498 3.93335 2.4005 0
M  V30 957 H 85.6648 3.46938 2.30267 0
M  V30 958 H 88.2618 2.30089 4.82662 0
M  V30 959 H 88.6048 0.75284 4.09436 0
M  V30 960 H 89.1378 2.24563 3.28354 0
M  V30 961 H 85.8768 5.13813 4.07033 0
M  V30 962 H 85.3968 3.59083 4.80437 0
M  V30 963 H 87.0758 4.1673 4.94919 0
M  V30 964 N 87.2079 -1.17134 1.05439 0
M  V30 965 C 88.1179 -2.24878 0.668365 0
M  V30 966 C 89.1339 -1.71186 -0.311687 0
M  V30 967 O 90.3099 -2.00738 -0.163161 0
M  V30 968 C 87.3749 -3.46662 0.051648 0
M  V30 969 C 86.4359 -4.15429 1.08246 0
M  V30 970 C 85.6689 -5.31399 0.495082 0
M  V30 971 O 85.8919 -5.66153 -0.694743 0
M  V30 972 O 84.8259 -5.89187 1.23056 0
M  V30 973 H 88.6519 -2.60189 1.56637 0
M  V30 974 H 86.2369 -1.24482 0.826104 0
M  V30 975 H 88.1189 -4.20394 -0.290966 0
M  V30 976 H 86.7939 -3.13142 -0.819971 0
M  V30 977 H 85.7009 -3.43704 1.47711 0
M  V30 978 H 87.0339 -4.52982 1.92532 0
M  V30 979 N 88.686 -0.835752 -1.33615 0
M  V30 980 C 89.616 -0.281739 -2.31794 0
M  V30 981 C 90.597 0.608833 -1.58831 0
M  V30 982 O 91.782 0.533035 -1.86741 0
M  V30 983 C 88.912 0.546612 -3.42971 0
M  V30 984 C 87.866 -0.247904 -4.27281 0
M  V30 985 C 87.192 0.704001 -5.30045 0
M  V30 986 C 88.492 -1.46324 -5.01385 0
M  V30 987 H 90.186 -1.10206 -2.78379 0
M  V30 988 H 87.732 -0.531388 -1.33837 0
M  V30 989 H 89.685 0.944467 -4.1068 0
M  V30 990 H 88.409 1.40011 -2.95067 0
M  V30 991 H 87.068 -0.627281 -3.61194 0
M  V30 992 H 86.716 1.55381 -4.78399 0
M  V30 993 H 86.416 0.176524 -5.87335 0
M  V30 994 H 87.94 1.09944 -6.0062 0
M  V30 995 H 89.354 -1.13871 -5.61877 0
M  V30 996 H 87.751 -1.92728 -5.6831 0
M  V30 997 H 88.821 -2.23467 -4.30338 0
M  V30 998 N 90.1641 1.46063 -0.591896 0
M  V30 999 C 91.1141 2.27458 0.157172 0
M  V30 1000 C 92.0981 1.3641 0.853301 0
M  V30 1001 O 93.2901 1.60517 0.74588 0
M  V30 1002 C 90.4191 3.22956 1.16423 0
M  V30 1003 C 89.5051 4.2149 0.469742 0
M  V30 1004 N 89.8961 5.03519 -0.479839 0
M  V30 1005 C 88.1941 4.40161 0.719319 0
M  V30 1006 C 88.8951 5.74904 -0.886591 0
M  V30 1007 N 87.8711 5.43097 -0.233731 0
M  V30 1008 H 91.6731 2.88272 -0.572392 0
M  V30 1009 H 89.1871 1.57024 -0.414375 0
M  V30 1010 H 91.1841 3.79986 1.71513 0
M  V30 1011 H 89.8441 2.63701 1.89451 0
M  V30 1012 H 90.8551 5.1078 -0.855823 0
M  V30 1013 H 87.5321 3.92046 1.43548 0
M  V30 1014 H 88.9221 6.50844 -1.66888 0
M  V30 1015 N 91.6422 0.330177 1.54103 0
M  V30 1016 C 92.5902 -0.548226 2.26047 0
M  V30 1017 C 93.5842 -1.11309 1.27698 0
M  V30 1018 O 94.7902 -1.06036 1.45452 0
M  V30 1019 H 91.1652 -0.195456 0.726155 0
M  V30 1020 H 93.1362 0.0807567 2.98291 0
M  V30 1021 C 91.8852 -1.69415 3.03634 0
M  V30 1022 H 91.2082 -1.26876 3.79134 0
M  V30 1023 H 92.6482 -2.28423 3.5721 0
M  V30 1024 C 91.1072 -2.61569 2.12328 0
M  V30 1025 O 91.6372 -3.63462 1.7105 0
M  V30 1026 N 89.8432 -2.29952 1.77681 0
M  V30 1027 H 89.3902 -1.47134 2.11446 0
M  V30 1028 H 89.3482 -2.91871 1.16869 0
M  V30 1029 N 93.1203 -1.57491 0.0584922 0
M  V30 1030 C 94.0523 -2.08916 -0.942694 0
M  V30 1031 C 95.0653 -1.0185 -1.27006 0
M  V30 1032 O 96.2543 -1.29398 -1.22957 0
M  V30 1033 C 93.3543 -2.52341 -2.26224 0
M  V30 1034 C 92.5273 -3.82827 -2.1157 0
M  V30 1035 C 91.5863 -4.12487 -3.26712 0
M  V30 1036 O 90.6123 -4.82295 -3.02292 0
M  V30 1037 N 91.8143 -3.64978 -4.5141 0
M  V30 1038 H 94.5793 -2.95437 -0.503722 0
M  V30 1039 H 92.1403 -1.61397 -0.12757 0
M  V30 1040 H 94.1323 -2.69254 -3.02133 0
M  V30 1041 H 92.7023 -1.7103 -2.61663 0
M  V30 1042 H 91.9223 -3.75425 -1.20208 0
M  V30 1043 H 93.2103 -4.68263 -1.99015 0
M  V30 1044 H 92.6083 -3.08558 -4.7414 0
M  V30 1045 H 91.1653 -3.87115 -5.2439 0
M  V30 1046 N 94.5984 0.214957 -1.56127 0
M  V30 1047 C 95.5084 1.28727 -1.96129 0
M  V30 1048 C 96.5244 1.50916 -0.866044 0
M  V30 1049 O 97.7004 1.63918 -1.17016 0
M  V30 1050 C 94.7654 2.61569 -2.27558 0
M  V30 1051 C 93.8264 2.47625 -3.50685 0
M  V30 1052 C 93.0594 3.74132 -3.80606 0
M  V30 1053 O 93.2824 4.77438 -3.12104 0
M  V30 1054 O 92.2164 3.70849 -4.74083 0
M  V30 1055 H 96.0424 0.977855 -2.87527 0
M  V30 1056 H 93.6274 0.418358 -1.43423 0
M  V30 1057 H 95.5094 3.40012 -2.48938 0
M  V30 1058 H 94.1844 2.92178 -1.39332 0
M  V30 1059 H 93.0914 1.67361 -3.34576 0
M  V30 1060 H 94.4244 2.21954 -4.39315 0
M  V30 1061 N 96.0765 1.50051 0.48192 0
M  V30 1062 C 97.3065 1.63999 1.2565 0
M  V30 1063 C 97.7145 0.318288 1.86504 0
M  V30 1064 O 97.0575 -0.708534 1.69486 0
M  V30 1065 C 97.1195 2.66504 2.4128 0
M  V30 1066 C 96.7835 4.10352 2.01148 0
M  V30 1067 C 97.7805 4.96562 1.54021 0
M  V30 1068 C 95.4655 4.56203 2.10199 0
M  V30 1069 C 97.4595 6.26668 1.16473 0
M  V30 1070 C 95.1465 5.86318 1.72264 0
M  V30 1071 C 96.1445 6.71375 1.25477 0
M  V30 1072 O 95.8325 7.99062 0.880626 0
M  V30 1073 H 95.5645 0.55456 0.386574 0
M  V30 1074 H 98.1185 1.96954 0.582944 0
M  V30 1075 H 96.3485 2.28769 3.11772 0
M  V30 1076 H 98.0375 2.69783 3.03268 0
M  V30 1077 H 98.8035 4.62358 1.46458 0
M  V30 1078 H 94.6825 3.90152 2.45566 0
M  V30 1079 H 98.2265 6.93011 0.798841 0
M  V30 1080 H 94.1235 6.20046 1.79482 0
M  V30 1081 H 94.8915 8.12239 1.01043 0
M  V30 1082 N 97.5546 -0.734337 1.39446 0
M  V30 1083 C 98.9706 -1.03997 1.21065 0
M  V30 1084 C 99.1706 -2.01369 0.0727019 0
M  V30 1085 O 98.2266 -2.45856 -0.575426 0
M  V30 1086 C 99.5396 -1.60163 2.54496 0
M  V30 1087 C 101.088 -1.7224 2.61347 0
M  V30 1088 C 101.563 -2.31814 3.95002 0
M  V30 1089 N 103.054 -2.39223 3.96644 0
M  V30 1090 C 103.789 -2.86258 4.96834 0
M  V30 1091 N 103.285 -3.33184 6.07421 0
M  V30 1092 N 105.078 -2.85473 4.84213 0
M  V30 1093 H 97.2286 -0.0885624 2.12215 0
M  V30 1094 H 99.4916 -0.10191 0.942506 0
M  V30 1095 H 99.1976 -0.960811 3.38321 0
M  V30 1096 H 99.0716 -2.5896 2.74262 0
M  V30 1097 H 101.459 -2.35443 1.77906 0
M  V30 1098 H 101.54 -0.720939 2.4543 0
M  V30 1099 H 101.184 -1.69238 4.78875 0
M  V30 1100 H 101.114 -3.32638 4.08239 0
M  V30 1101 H 103.605 -2.06057 3.16779 0
M  V30 1102 H 103.918 -3.67586 6.7978 0
M  V30 1103 H 102.263 -3.31191 6.11013 0
M  V30 1104 H 105.454 -2.48136 3.96921 0
M  V30 1105 H 105.627 -3.21814 5.62441 0
M  V30 1106 N 99.0327 -1.24633 -0.964593 0
M  V30 1107 C 99.9427 -1.05859 -2.09359 0
M  V30 1108 C 100.959 0.00148855 -1.74 0
M  V30 1109 O 102.135 -0.197346 -2.00431 0
M  V30 1110 C 99.1997 -0.668879 -3.40187 0
M  V30 1111 C 98.2607 -1.80578 -3.89474 0
M  V30 1112 C 97.4937 -1.43457 -5.14058 0
M  V30 1113 O 97.7167 -0.325775 -5.69469 0
M  V30 1114 O 96.6507 -2.2613 -5.57807 0
M  V30 1115 H 100.477 -2.00516 -2.28094 0
M  V30 1116 H 98.0617 -1.03481 -1.0776 0
M  V30 1117 H 99.9437 -0.463211 -4.18846 0
M  V30 1118 H 98.6187 0.248536 -3.22744 0
M  V30 1119 H 97.5257 -2.06623 -3.11862 0
M  V30 1120 H 98.8587 -2.70208 -4.11398 0
M  V30 1121 N 100.511 1.16574 -1.06058 0
M  V30 1122 C 101.759 1.86677 -0.77434 0
M  V30 1123 C 102.08 1.81959 0.701147 0
M  V30 1124 O 101.35 1.2515 1.50713 0
M  V30 1125 H 99.9298 0.691134 -0.283449 0
M  V30 1126 H 102.592 1.41378 -1.34158 0
M  V30 1127 H 101.688 2.92181 -1.09711 0
M  V30 1128 N 101.989 0.842826 1.3317 0
M  V30 1129 C 102.936 0.276885 2.29133 0
M  V30 1130 C 103.906 -0.609527 1.54512 0
M  V30 1131 O 105.091 -0.546955 1.82792 0
M  V30 1132 C 102.231 -0.538707 3.40869 0
M  V30 1133 C 101.344 0.372169 4.30394 0
M  V30 1134 C 100.479 -0.454908 5.29249 0
M  V30 1135 C 99.5179 0.45411 6.10413 0
M  V30 1136 N 98.6549 -0.335075 7.013 0
M  V30 1137 H 103.495 1.10052 2.76934 0
M  V30 1138 H 101.032 0.554161 1.36262 0
M  V30 1139 H 102.99 -1.02709 4.0436 0
M  V30 1140 H 101.62 -1.32727 2.9425 0
M  V30 1141 H 100.672 0.97888 3.6759 0
M  V30 1142 H 101.984 1.0703 4.87182 0
M  V30 1143 H 101.138 -1.00695 5.98285 0
M  V30 1144 H 99.8769 -1.18646 4.73048 0
M  V30 1145 H 98.8819 1.01813 5.40291 0
M  V30 1146 H 100.107 1.18409 6.68697 0
M  V30 1147 H 98.0529 -1.04994 6.47543 0
M  V30 1148 H 97.9699 0.304262 7.55387 0
M  V30 1149 H 99.2379 -0.869224 7.74638 0
M  V30 1150 N 103.467 -1.45747 0.599634 0
M  V30 1151 C 104.417 -2.27538 -0.145107 0
M  V30 1152 C 105.401 -1.3686 -0.846055 0
M  V30 1153 O 106.593 -1.6091 -0.737357 0
M  V30 1154 C 103.722 -3.23569 -1.14708 0
M  V30 1155 C 102.808 -4.21734 -0.447383 0
M  V30 1156 N 103.199 -5.03257 0.506535 0
M  V30 1157 C 101.497 -4.40536 -0.695966 0
M  V30 1158 C 102.198 -5.74426 0.917068 0
M  V30 1159 N 101.174 -5.42966 0.26253 0
M  V30 1160 H 104.976 -2.87965 0.587672 0
M  V30 1161 H 102.49 -1.56803 0.422697 0
M  V30 1162 H 104.487 -3.8089 -1.69495 0
M  V30 1163 H 103.147 -2.64702 -1.8805 0
M  V30 1164 H 104.158 -5.10319 0.882899 0
M  V30 1165 H 100.835 -3.92802 -1.41467 0
M  V30 1166 H 102.225 -6.4995 1.70338 0
M  V30 1167 N 104.945 -0.338344 -1.53925 0
M  V30 1168 C 106.17 0.263987 -2.05713 0
M  V30 1169 C 106.595 1.43847 -1.21201 0
M  V30 1170 O 105.953 1.79904 -0.224535 0
M  V30 1171 C 106.001 0.662 -3.54471 0
M  V30 1172 O 105.105 1.76265 -3.72833 0
M  V30 1173 H 104.446 0.0448722 -0.662482 0
M  V30 1174 H 106.976 -0.491048 -1.9862 0
M  V30 1175 H 106.986 0.940594 -3.9701 0
M  V30 1176 H 105.661 -0.196937 -4.15433 0
M  V30 1177 H 104.238 1.48173 -3.42198 0
M  V30 1178 N 106.423 1.57458 -0.0668435 0
M  V30 1179 C 107.67 1.93301 0.603406 0
M  V30 1180 C 107.998 0.946486 1.69917 0
M  V30 1181 O 107.253 -0.0387021 1.95662 0
M  V30 1182 C 107.552 3.35784 1.22409 0
M  V30 1183 C 107.218 4.50179 0.254955 0
M  V30 1184 C 105.88 4.81199 -0.0116746 0
M  V30 1185 C 108.232 5.19598 -0.408338 0
M  V30 1186 C 105.56 5.78978 -0.94877 0
M  V30 1187 C 107.912 6.18381 -1.33372 0
M  V30 1188 C 106.576 6.47821 -1.60887 0
M  V30 1189 H 105.846 0.707338 0.220802 0
M  V30 1190 H 108.493 1.91012 -0.136665 0
M  V30 1191 H 106.798 3.34515 2.03978 0
M  V30 1192 H 108.495 3.60804 1.74989 0
M  V30 1193 H 105.085 4.25983 0.472954 0
M  V30 1194 H 109.269 4.95832 -0.215456 0
M  V30 1195 H 104.525 6.00115 -1.16925 0
M  V30 1196 H 108.699 6.71277 -1.85367 0
M  V30 1197 H 106.326 7.23399 -2.33661 0
M  V30 1198 N 107.901 -0.206675 1.56239 0
M  V30 1199 C 109.129 -0.945345 1.8404 0
M  V30 1200 C 109.544 -1.77336 0.647885 0
M  V30 1201 O 108.901 -1.78425 -0.383511 0
M  V30 1202 C 108.952 -1.8509 3.10522 0
M  V30 1203 O 108.673 -1.05634 4.25174 0
M  V30 1204 C 110.174 -2.70222 3.51418 0
M  V30 1205 H 107.394 -0.276372 0.61144 0
M  V30 1206 H 109.938 -0.217417 2.03341 0
M  V30 1207 H 108.093 -2.53259 2.93153 0
M  V30 1208 H 108.507 -1.67238 4.97124 0
M  V30 1209 H 109.981 -3.29438 4.42916 0
M  V30 1210 H 110.458 -3.43358 2.73864 0
M  V30 1211 H 111.064 -2.07443 3.71278 0
M  V30 1212 N 109.379 -1.50304 -0.473955 0
M  V30 1213 C 110.312 -1.63595 -1.59097 0
M  V30 1214 C 111.29 -0.484142 -1.55225 0
M  V30 1215 O 112.474 -0.703271 -1.7489 0
M  V30 1216 C 109.601 -1.61589 -2.97669 0
M  V30 1217 C 108.647 -2.82295 -3.19705 0
M  V30 1218 S 109.48 -4.43635 -2.99913 0
M  V30 1219 C 110.636 -4.44317 -4.40832 0
M  V30 1220 H 110.869 -2.58082 -1.47583 0
M  V30 1221 H 108.402 -1.39531 -0.661087 0
M  V30 1222 H 110.36 -1.61116 -3.7756 0
M  V30 1223 H 109.021 -0.683421 -3.06575 0
M  V30 1224 H 108.214 -2.77188 -4.20931 0
M  V30 1225 H 107.816 -2.8032 -2.47582 0
M  V30 1226 H 110.108 -4.17703 -5.33414 0
M  V30 1227 H 111.051 -5.45911 -4.50984 0
M  V30 1228 H 111.459 -3.74059 -4.22777 0
M  V30 1229 N 110.857 0.726932 -1.39834 0
M  V30 1230 C 111.82 1.82269 -1.38962 0
M  V30 1231 C 112.82 1.58248 -0.285334 0
M  V30 1232 O 114.01 1.65499 -0.54366 0
M  V30 1233 C 111.142 3.20186 -1.17019 0
M  V30 1234 H 112.335 1.84443 -2.36476 0
M  V30 1235 H 109.888 0.931416 -1.25516 0
M  V30 1236 H 110.623 3.23669 -0.202204 0
M  V30 1237 H 110.408 3.3902 -1.96998 0
M  V30 1238 H 111.898 4.00235 -1.1917 0
M  V30 1239 N 112.336 1.25143 0.95797 0
M  V30 1240 C 113.269 0.995565 2.05338 0
M  V30 1241 C 114.247 -0.0740423 1.62431 0
M  V30 1242 O 115.431 0.0649212 1.88388 0
M  V30 1243 C 112.558 0.504298 3.34925 0
M  V30 1244 C 111.604 1.56393 3.96792 0
M  V30 1245 S 112.437 3.14815 4.33188 0
M  V30 1246 C 113.593 2.67415 5.65898 0
M  V30 1247 H 113.826 1.92309 2.26726 0
M  V30 1248 H 111.359 1.08635 1.09716 0
M  V30 1249 H 113.317 0.227497 4.09869 0
M  V30 1250 H 111.978 -0.402671 3.11508 0
M  V30 1251 H 111.171 1.17082 4.90212 0
M  V30 1252 H 110.773 1.79124 3.28315 0
M  V30 1253 H 113.065 2.10833 6.4386 0
M  V30 1254 H 114.008 3.59463 6.10076 0
M  V30 1255 H 114.416 2.07521 5.24972 0
M  V30 1256 N 113.814 -1.1601 1.06675 0
M  V30 1257 C 114.762 -2.22586 0.675157 0
M  V30 1258 C 115.756 -1.66525 -0.310766 0
M  V30 1259 O 116.962 -1.79145 -0.175215 0
M  V30 1260 H 113.337 -0.724855 0.200223 0
M  V30 1261 H 115.308 -2.52899 1.58381 0
M  V30 1262 C 114.057 -3.47604 0.0817162 0
M  V30 1263 H 113.38 -3.91058 0.831484 0
M  V30 1264 H 114.82 -4.23718 -0.154708 0
M  V30 1265 C 113.279 -3.15718 -1.17576 0
M  V30 1266 O 113.809 -3.31878 -2.26318 0
M  V30 1267 N 112.015 -2.69816 -1.07923 0
M  V30 1268 H 111.562 -2.56866 -0.194293 0
M  V30 1269 H 111.52 -2.48855 -1.92141 0
M  V30 1270 N 115.292 -0.849877 -1.32721 0
M  V30 1271 C 116.255 -0.296122 -2.27279 0
M  V30 1272 C 117.255 0.541458 -1.5141 0
M  V30 1273 O 118.445 0.353658 -1.70572 0
M  V30 1274 C 115.577 0.581579 -3.35902 0
M  V30 1275 H 116.77 -1.13064 -2.77771 0
M  V30 1276 H 114.323 -0.62383 -1.43311 0
M  V30 1277 H 115.058 1.43809 -2.9067 0
M  V30 1278 H 114.843 -0.0178814 -3.92096 0
M  V30 1279 H 116.333 0.961951 -4.0637 0
M  V30 1280 N 116.77 1.45427 -0.607355 0
M  V30 1281 C 118.017 2.02241 -0.102455 0
M  V30 1282 C 118.345 1.4758 1.26691 0
M  V30 1283 O 117.6 0.640468 1.84923 0
M  V30 1284 C 117.899 3.57398 -0.0129263 0
M  V30 1285 C 117.565 4.3121 -1.31792 0
M  V30 1286 C 116.227 4.51092 -1.67539 0
M  V30 1287 C 118.579 4.73401 -2.18039 0
M  V30 1288 C 115.907 5.10422 -2.89285 0
M  V30 1289 C 118.259 5.34078 -3.39034 0
M  V30 1290 C 116.923 5.52184 -3.75033 0
M  V30 1291 H 116.193 0.740051 -0.037491 0
M  V30 1292 H 118.84 1.74494 -0.788926 0
M  V30 1293 H 117.145 3.84421 0.756806 0
M  V30 1294 H 118.842 3.99061 0.393881 0
M  V30 1295 H 115.432 4.16047 -1.02968 0
M  V30 1296 H 119.616 4.57774 -1.91721 0
M  V30 1297 H 114.872 5.22629 -3.17283 0
M  V30 1298 H 119.046 5.65724 -4.06115 0
M  V30 1299 H 116.673 5.97925 -4.69457 0
M  V30 1300 N 118.248 0.346503 1.53744 0
M  V30 1301 C 119.496 -0.248612 2.00565 0
M  V30 1302 C 119.817 -1.5083 1.23593 0
M  V30 1303 O 119.087 -1.92858 0.343912 0
M  V30 1304 H 117.667 -0.0948564 0.740953 0
M  V30 1305 H 120.329 0.468341 1.89189 0
M  V30 1306 H 119.425 -0.488994 3.08245 0
M  V30 1307 N 119.726 -1.57421 0.075193 0
M  V30 1308 C 121.003 -1.85029 -0.634329 0
M  V30 1309 C 121.383 -0.968305 -1.87582 0
M  V30 1310 O 120.731 -0.0354749 -2.28472 0
M  V30 1311 C 120.941 -3.35286 -0.968742 0
M  V30 1312 C 122.289 -4.02875 -1.34077 0
M  V30 1313 O 123.313 -3.40051 -1.06037 0
M  V30 1314 O 122.172 -5.13691 -1.86506 0
M  V30 1315 H 119.266 -0.7645 -0.315387 0
M  V30 1316 H 121.812 -1.69366 0.106382 0
M  V30 1317 H 120.584 -3.91203 -0.0871376 0
M  V30 1318 H 120.207 -3.56223 -1.7661 0
M  V30 1319 N 121.204 0.198386 -1.56346 0
M  V30 1320 C 122.137 1.27381 -1.89339 0
M  V30 1321 C 123.115 1.44106 -0.753134 0
M  V30 1322 O 124.299 1.59549 -1.00381 0
M  V30 1323 C 121.426 2.6409 -2.12071 0
M  V30 1324 C 120.472 2.64253 -3.34772 0
M  V30 1325 S 121.305 2.16013 -4.89999 0
M  V30 1326 C 122.461 3.54553 -5.15794 0
M  V30 1327 H 122.694 0.992058 -2.8026 0
M  V30 1328 H 120.227 0.401726 -1.49082 0
M  V30 1329 H 122.185 3.42786 -2.2585 0
M  V30 1330 H 120.846 2.89478 -1.21906 0
M  V30 1331 H 120.039 3.64768 -3.47794 0
M  V30 1332 H 119.641 1.93637 -3.1997 0
M  V30 1333 H 121.933 4.50396 -5.06112 0
M  V30 1334 H 122.876 3.46428 -6.1757 0
M  V30 1335 H 123.284 3.49313 -4.43442 0
M  V30 1336 N 122.682 1.50554 0.465978 0
M  V30 1337 C 123.91 1.65563 1.24083 0
M  V30 1338 C 124.325 0.341051 1.85694 0
M  V30 1339 O 123.682 -0.677543 1.69457 0
M  V30 1340 C 123.733 2.75051 2.34583 0
M  V30 1341 O 123.454 4.01413 1.75497 0
M  V30 1342 C 124.955 3.01078 3.25372 0
M  V30 1343 H 122.175 0.55638 0.375077 0
M  V30 1344 H 124.719 1.96807 0.555624 0
M  V30 1345 H 122.874 2.46486 2.9887 0
M  V30 1346 H 123.288 4.62002 2.48303 0
M  V30 1347 H 124.762 3.81339 3.99105 0
M  V30 1348 H 125.239 2.12349 3.84453 0
M  V30 1349 H 125.845 3.31194 2.66816 0
M  V30 1350 N 124.16 -0.719506 1.40217 0
M  V30 1351 C 125.385 -1.51371 1.4178 0
M  V30 1352 C 125.81 -1.88091 0.0182355 0
M  V30 1353 O 125.168 -1.52997 -0.972707 0
M  V30 1354 C 125.216 -2.768 2.31115 0
M  V30 1355 O 124.32 -3.73349 1.7517 0
M  V30 1356 H 123.661 -0.456529 0.482159 0
M  V30 1357 H 126.191 -0.88644 1.844 0
M  V30 1358 H 126.201 -3.25371 2.46167 0
M  V30 1359 H 124.876 -2.49407 3.3282 0
M  V30 1360 H 123.453 -3.32179 1.69444 0
M  V30 1361 N 125.638 -1.25649 -0.95132 0
M  V30 1362 C 126.548 -1.08073 -2.08224 0
M  V30 1363 C 127.564 -0.0169666 -1.73992 0
M  V30 1364 O 128.74 -0.218593 -2.0021 0
M  V30 1365 C 125.805 -0.704922 -3.39458 0
M  V30 1366 C 124.866 -1.84699 -3.87537 0
M  V30 1367 C 124.099 -1.48902 -5.12508 0
M  V30 1368 O 124.322 -0.386156 -5.69091 0
M  V30 1369 O 123.256 -2.32033 -5.55378 0
M  V30 1370 H 127.082 -2.02924 -2.25954 0
M  V30 1371 H 124.667 -1.04618 -1.06656 0
M  V30 1372 H 126.549 -0.507609 -4.18332 0
M  V30 1373 H 125.224 0.214291 -3.2299 0
M  V30 1374 H 124.131 -2.09919 -3.09653 0
M  V30 1375 H 125.464 -2.74557 -4.08509 0
M  V30 1376 N 127.117 1.15442 -1.07289 0
M  V30 1377 C 128.027 2.23786 -0.704057 0
M  V30 1378 C 129.043 1.7166 0.284413 0
M  V30 1379 O 130.219 2.00972 0.131205 0
M  V30 1380 C 127.284 3.46535 -0.106792 0
M  V30 1381 C 126.345 4.13654 -1.14842 0
M  V30 1382 C 125.578 5.30544 -0.57956 0
M  V30 1383 O 125.801 5.67187 0.604585 0
M  V30 1384 O 124.735 5.87154 -1.32414 0
M  V30 1385 H 128.561 2.57664 -1.60757 0
M  V30 1386 H 126.146 1.23152 -0.845803 0
M  V30 1387 H 128.028 4.20804 0.224048 0
M  V30 1388 H 126.703 3.14407 0.770049 0
M  V30 1389 H 125.61 3.4131 -1.5316 0
M  V30 1390 H 126.943 4.49861 -1.99714 0
M  V30 1391 N 128.595 0.856903 1.32268 0
M  V30 1392 C 129.842 0.461386 1.97174 0
M  V30 1393 C 130.17 -0.983491 1.67803 0
M  V30 1394 O 129.425 -1.70541 0.959903 0
M  V30 1395 C 129.724 0.649919 3.51441 0
M  V30 1396 C 129.39 2.0656 4.00804 0
M  V30 1397 C 128.052 2.45279 4.13995 0
M  V30 1398 C 130.404 2.98947 4.26943 0
M  V30 1399 C 127.732 3.75653 4.50668 0
M  V30 1400 C 130.084 4.28822 4.65075 0
M  V30 1401 C 128.748 4.67472 4.76472 0
M  V30 1402 H 128.018 0.168833 0.72151 0
M  V30 1403 H 130.665 1.08739 1.57633 0
M  V30 1404 H 128.97 -0.0593018 3.91755 0
M  V30 1405 H 130.667 0.32391 3.9969 0
M  V30 1406 H 127.257 1.75495 3.91024 0
M  V30 1407 H 131.441 2.70265 4.16258 0
M  V30 1408 H 126.697 4.05379 4.57688 0
M  V30 1409 H 130.871 5.0047 4.84255 0
M  V30 1410 H 128.498 5.68539 5.04646 0
M  V30 1411 N 130.073 -1.45103 0.615059 0
M  V30 1412 C 131.489 -1.57137 0.279322 0
M  V30 1413 C 131.689 -1.60523 -1.21797 0
M  V30 1414 O 130.745 -1.53956 -2.00134 0
M  V30 1415 C 132.058 -2.85062 0.957083 0
M  V30 1416 C 133.606 -2.98749 0.933706 0
M  V30 1417 C 134.081 -4.29455 1.59162 0
M  V30 1418 N 135.572 -4.36231 1.55746 0
M  V30 1419 C 136.307 -5.36051 2.0356 0
M  V30 1420 N 135.803 -6.42367 2.59494 0
M  V30 1421 N 137.596 -5.27456 1.94284 0
M  V30 1422 H 129.747 -1.41148 1.58717 0
M  V30 1423 H 132.01 -0.675331 0.665306 0
M  V30 1424 H 131.716 -2.88488 2.01166 0
M  V30 1425 H 131.59 -3.7407 0.48494 0
M  V30 1426 H 133.977 -2.94886 -0.112347 0
M  V30 1427 H 134.058 -2.11132 1.44419 0
M  V30 1428 H 133.702 -4.34077 2.63704 0
M  V30 1429 H 133.632 -5.15901 1.0561 0
M  V30 1430 H 136.123 -3.60011 1.14893 0
M  V30 1431 H 136.436 -7.14793 2.93752 0
M  V30 1432 H 134.781 -6.43097 2.63537 0
M  V30 1433 H 137.972 -4.43308 1.5032 0
M  V30 1434 H 138.145 -6.05099 2.3186 0
M  V30 1435 N 131.551 -0.354651 -1.53558 0
M  V30 1436 C 132.483 0.5315 -2.22952 0
M  V30 1437 C 133.496 1.05503 -1.23988 0
M  V30 1438 O 134.685 0.963279 -1.50277 0
M  V30 1439 C 131.785 1.74538 -2.90499 0
M  V30 1440 C 130.958 1.35524 -4.15875 0
M  V30 1441 C 130.017 2.42999 -4.66731 0
M  V30 1442 O 129.043 2.05844 -5.30676 0
M  V30 1443 N 130.245 3.74423 -4.43608 0
M  V30 1444 H 133.01 -0.0628615 -2.99634 0
M  V30 1445 H 130.571 -0.179302 -1.60904 0
M  V30 1446 H 132.563 2.45892 -3.21433 0
M  V30 1447 H 131.133 2.24686 -2.17336 0
M  V30 1448 H 130.353 0.471998 -3.91364 0
M  V30 1449 H 131.641 1.07071 -4.97406 0
M  V30 1450 H 131.039 4.07391 -3.92491 0
M  V30 1451 H 129.596 4.41913 -4.7912 0
M  V30 1452 N 133.029 1.57378 -0.0835403 0
M  V30 1453 C 134.275 1.94217 0.583733 0
M  V30 1454 C 134.608 0.964653 1.68547 0
M  V30 1455 O 133.883 -0.00422258 1.945 0
M  V30 1456 C 134.166 3.41253 1.14972 0
M  V30 1457 C 134.019 4.49768 0.0538277 0
M  V30 1458 C 135.338 3.89352 2.05166 0
M  V30 1459 H 132.457 0.706233 0.210724 0
M  V30 1460 H 135.099 1.89392 -0.1519 0
M  V30 1461 H 133.249 3.45496 1.77665 0
M  V30 1462 H 134.921 4.57641 -0.579851 0
M  V30 1463 H 133.164 4.29432 -0.614068 0
M  V30 1464 H 133.835 5.49817 0.490452 0
M  V30 1465 H 136.311 3.87189 1.52393 0
M  V30 1466 H 135.187 4.92822 2.41698 0
M  V30 1467 H 135.448 3.27973 2.96456 0
M  V30 1468 N 134.507 -0.190092 1.56449 0
M  V30 1469 C 135.44 -1.26375 1.90012 0
M  V30 1470 C 136.418 -1.43705 0.760765 0
M  V30 1471 O 137.602 -1.59014 1.01226 0
M  V30 1472 C 134.729 -2.62962 2.13468 0
M  V30 1473 C 133.775 -2.62474 3.36169 0
M  V30 1474 S 134.608 -2.13412 4.91137 0
M  V30 1475 C 135.764 -3.51812 5.17667 0
M  V30 1476 H 135.997 -0.977181 2.80782 0
M  V30 1477 H 133.53 -0.393814 1.49293 0
M  V30 1478 H 135.488 -3.41583 2.27664 0
M  V30 1479 H 134.149 -2.88828 1.23439 0
M  V30 1480 H 133.342 -3.62918 3.49723 0
M  V30 1481 H 132.944 -1.91937 3.20992 0
M  V30 1482 H 135.236 -4.47706 5.08494 0
M  V30 1483 H 136.179 -3.43148 6.19399 0
M  V30 1484 H 136.587 -3.46956 4.45288 0
M  V30 1485 N 135.985 -1.50799 -0.457987 0
M  V30 1486 C 136.933 -1.71162 -1.575 0
M  V30 1487 C 137.927 -0.577592 -1.59249 0
M  V30 1488 O 139.133 -0.758443 -1.63241 0
M  V30 1489 H 135.508 -0.540468 -0.522875 0
M  V30 1490 H 137.479 -2.64837 -1.37492 0
M  V30 1491 C 136.228 -1.83496 -2.95338 0
M  V30 1492 H 135.551 -2.70153 -2.94716 0
M  V30 1493 H 136.991 -2.01765 -3.72917 0
M  V30 1494 C 135.45 -0.589694 -3.31699 0
M  V30 1495 O 135.98 0.265163 -4.00824 0
M  V30 1496 N 134.186 -0.439845 -2.87252 0
M  V30 1497 H 133.733 -1.13655 -2.31172 0
M  V30 1498 H 133.691 0.392159 -3.11945 0
M  V30 1499 N 137.463 0.71206 -1.40597 0
M  V30 1500 C 138.711 1.46907 -1.38791 0
M  V30 1501 C 139.032 1.94998 0.00780391 0
M  V30 1502 O 138.302 1.70587 0.963174 0
M  V30 1503 H 136.882 0.545043 -0.51082 0
M  V30 1504 H 139.544 0.843882 -1.75683 0
M  V30 1505 H 138.64 2.34021 -2.06496 0
M  V30 1506 N 138.941 1.26152 0.944643 0
M  V30 1507 C 140.188 1.11492 1.69044 0
M  V30 1508 C 140.516 -0.342366 1.91463 0
M  V30 1509 O 139.771 -1.26812 1.49054 0
M  V30 1510 C 140.07 1.82541 3.07268 0
M  V30 1511 C 139.736 3.32445 3.04616 0
M  V30 1512 C 138.398 3.73337 3.036 0
M  V30 1513 C 140.75 4.28171 2.97185 0
M  V30 1514 C 138.078 5.08348 2.92915 0
M  V30 1515 C 140.43 5.63218 2.88041 0
M  V30 1516 C 139.094 6.03426 2.85366 0
M  V30 1517 H 138.364 0.407977 0.618576 0
M  V30 1518 H 141.011 1.56551 1.10291 0
M  V30 1519 H 139.316 1.29941 3.69625 0
M  V30 1520 H 141.013 1.68642 3.63815 0
M  V30 1521 H 137.603 2.99915 3.06185 0
M  V30 1522 H 141.787 3.97563 2.97081 0
M  V30 1523 H 137.043 5.38667 2.89219 0
M  V30 1524 H 141.217 6.37078 2.81254 0
M  V30 1525 H 138.844 7.07999 2.76842 0
M  V30 1526 N 140.419 -1.14872 1.07899 0
M  V30 1527 C 141.351 -2.19425 0.662231 0
M  V30 1528 C 142.364 -1.60231 -0.288079 0
M  V30 1529 O 143.553 -1.78336 -0.076534 0
M  V30 1530 C 140.653 -3.38867 -0.0470695 0
M  V30 1531 C 139.826 -4.27597 0.920831 0
M  V30 1532 C 138.885 -5.25616 0.247805 0
M  V30 1533 O 137.911 -5.62189 0.890599 0
M  V30 1534 N 139.113 -5.71746 -1.00435 0
M  V30 1535 H 141.878 -2.55797 1.56166 0
M  V30 1536 H 139.439 -1.30042 0.964404 0
M  V30 1537 H 141.431 -4.01497 -0.50813 0
M  V30 1538 H 140.001 -3.00864 -0.848523 0
M  V30 1539 H 139.221 -3.61982 1.56087 0
M  V30 1540 H 140.509 -4.83748 1.57688 0
M  V30 1541 H 139.907 -5.44153 -1.54642 0
M  V30 1542 H 138.464 -6.36389 -1.40899 0
M  V30 1543 N 141.898 -0.863906 -1.31812 0
M  V30 1544 C 142.846 -0.30422 -2.30602 0
M  V30 1545 C 143.84 0.577419 -1.59255 0
M  V30 1546 O 145.046 0.464194 -1.73912 0
M  V30 1547 H 141.421 -0.0796877 -0.747766 0
M  V30 1548 H 143.392 -1.15148 -2.75288 0
M  V30 1549 C 142.141 0.484617 -3.44306 0
M  V30 1550 H 141.464 -0.18451 -3.99374 0
M  V30 1551 H 142.904 0.841664 -4.15562 0
M  V30 1552 C 141.363 1.6735 -2.92396 0
M  V30 1553 O 141.893 2.77273 -2.90659 0
M  V30 1554 N 140.099 1.50362 -2.48676 0
M  V30 1555 H 139.646 0.609402 -2.50288 0
M  V30 1556 H 139.604 2.30051 -2.14299 0
M  V30 1557 N 143.376 1.44774 -0.622745 0
M  V30 1558 C 144.792 1.56986 -0.287652 0
M  V30 1559 C 144.992 1.61167 1.20944 0
M  V30 1560 O 144.048 1.55015 1.99315 0
M  V30 1561 C 145.361 2.84551 -0.972188 0
M  V30 1562 C 146.909 2.9825 -0.949536 0
M  V30 1563 C 147.384 4.28605 -1.61437 0
M  V30 1564 N 148.875 4.35399 -1.58057 0
M  V30 1565 C 149.61 5.34964 -2.064 0
M  V30 1566 N 149.106 6.40981 -2.62897 0
M  V30 1567 N 150.899 5.26419 -1.97078 0
M  V30 1568 H 143.05 1.40304 -1.59463 0
M  V30 1569 H 145.313 0.671794 -0.668878 0
M  V30 1570 H 145.019 2.87417 -2.02693 0
M  V30 1571 H 144.893 3.73807 -0.504771 0
M  V30 1572 H 147.28 2.94941 0.0967067 0
M  V30 1573 H 147.361 2.10364 -1.45536 0
M  V30 1574 H 147.005 4.32672 -2.66002 0
M  V30 1575 H 146.935 5.15334 -1.08344 0
M  V30 1576 H 149.426 3.59397 -1.16801 0
M  V30 1577 H 149.739 7.13225 -2.97539 0
M  V30 1578 H 148.084 6.4169 -2.66943 0
M  V30 1579 H 151.275 4.42504 -1.52669 0
M  V30 1580 H 151.448 6.03861 -2.35066 0
M  V30 1581 N 144.854 0.36279 1.53368 0
M  V30 1582 C 145.801 -0.485008 2.25646 0
M  V30 1583 C 146.771 -1.07982 1.2621 0
M  V30 1584 O 147.956 -1.11284 1.54986 0
M  V30 1585 C 145.096 -1.62023 3.04701 0
M  V30 1586 C 144.209 -1.05086 4.19024 0
M  V30 1587 C 143.344 -2.15496 4.85525 0
M  V30 1588 C 142.383 -1.5601 5.91884 0
M  V30 1589 N 141.52 -2.60241 6.52088 0
M  V30 1590 H 146.36 0.137864 2.97681 0
M  V30 1591 H 143.897 0.0798061 1.46883 0
M  V30 1592 H 145.855 -2.28887 3.48807 0
M  V30 1593 H 144.485 -2.2138 2.34927 0
M  V30 1594 H 143.537 -0.27259 3.79422 0
M  V30 1595 H 144.849 -0.575926 4.95464 0
M  V30 1596 H 144.003 -2.90186 5.32801 0
M  V30 1597 H 142.742 -2.66341 4.08551 0
M  V30 1598 H 141.747 -0.798338 5.43973 0
M  V30 1599 H 142.972 -1.05994 6.70777 0
M  V30 1600 H 140.918 -3.10304 5.77968 0
M  V30 1601 H 140.835 -2.17426 7.24059 0
M  V30 1602 H 142.103 -3.34641 7.04014 0
M  V30 1603 N 146.332 -1.57332 0.0918853 0
M  V30 1604 C 147.743 -1.81496 -0.437739 0
M  V30 1605 C 148.094 -1.00727 -1.6837 0
M  V30 1606 O 147.219 -0.235694 -2.15113 0
M  V30 1607 C 147.814 -3.29197 -0.800939 0
M  V30 1608 C 146.373 -3.54136 -1.27532 0
M  V30 1609 C 145.52 -2.75979 -0.270392 0
M  V30 1610 H 148.471 -1.55494 0.317366 0
M  V30 1611 H 148.492 -3.42344 -1.66074 0
M  V30 1612 H 148.004 -3.87955 0.106078 0
M  V30 1613 H 146.105 -3.00705 -2.20016 0
M  V30 1614 H 146.218 -4.62792 -1.23938 0
M  V30 1615 H 144.582 -2.43349 -0.751872 0
M  V30 1616 H 145.365 -3.37484 0.629248 0
M  V30 1617 N 147.81 0.181792 -1.56548 0
M  V30 1618 C 149.226 0.53316 -1.50431 0
M  V30 1619 C 149.426 1.85184 -0.794297 0
M  V30 1620 O 148.482 2.50058 -0.350318 0
M  V30 1621 C 149.795 0.575597 -2.9514 0
M  V30 1622 C 151.343 0.663519 -3.05886 0
M  V30 1623 C 151.818 0.736946 -4.52032 0
M  V30 1624 N 153.309 0.800118 -4.56237 0
M  V30 1625 C 154.044 0.877327 -5.66649 0
M  V30 1626 N 153.54 0.916016 -6.86718 0
M  V30 1627 N 155.333 0.915542 -5.54594 0
M  V30 1628 H 147.484 -0.683025 -2.01118 0
M  V30 1629 H 149.747 -0.244988 -0.915797 0
M  V30 1630 H 149.453 -0.324482 -3.502 0
M  V30 1631 H 149.327 1.42572 -3.49218 0
M  V30 1632 H 151.714 1.55403 -2.50867 0
M  V30 1633 H 151.795 -0.21307 -2.54911 0
M  V30 1634 H 151.439 -0.149262 -5.07681 0
M  V30 1635 H 151.369 1.62953 -5.00753 0
M  V30 1636 H 153.86 0.778926 -3.69785 0
M  V30 1637 H 154.173 0.975813 -7.66614 0
M  V30 1638 H 152.518 0.884469 -6.89349 0
M  V30 1639 H 155.709 0.882245 -4.59711 0
M  V30 1640 H 155.882 0.972253 -6.40665 0
M  V30 1641 N 149.288 1.51039 0.449983 0
M  V30 1642 C 150.235 1.71439 1.54523 0
M  V30 1643 C 151.205 0.555871 1.56522 0
M  V30 1644 O 152.39 0.788871 1.73728 0
M  V30 1645 C 149.53 1.83384 2.92343 0
M  V30 1646 C 148.643 3.10873 2.9997 0
M  V30 1647 C 147.778 3.13488 4.28834 0
M  V30 1648 C 146.817 4.35343 4.30282 0
M  V30 1649 N 145.954 4.35579 5.5065 0
M  V30 1650 H 150.794 2.64934 1.36433 0
M  V30 1651 H 148.331 1.31312 0.662982 0
M  V30 1652 H 150.289 1.88291 3.72293 0
M  V30 1653 H 148.919 0.933086 3.0902 0
M  V30 1654 H 147.971 3.15336 2.12761 0
M  V30 1655 H 149.283 4.00814 2.96901 0
M  V30 1656 H 148.437 3.17241 5.17149 0
M  V30 1657 H 147.176 2.21414 4.34543 0
M  V30 1658 H 146.181 4.3178 3.40362 0
M  V30 1659 H 147.406 5.28668 4.26248 0
M  V30 1660 H 145.352 3.46369 5.57104 0
M  V30 1661 H 145.269 5.19313 5.49409 0
M  V30 1662 H 146.537 4.43507 6.41032 0
M  V30 1663 N 150.766 -0.704594 1.40972 0
M  V30 1664 C 152.014 -1.46169 1.39568 0
M  V30 1665 C 152.335 -1.95 0.00253745 0
M  V30 1666 O 151.605 -1.71095 -0.954114 0
M  V30 1667 H 150.185 -0.542326 0.513704 0
M  V30 1668 H 152.847 -0.834553 1.76128 0
M  V30 1669 H 151.943 -2.32922 2.07735 0
M  V30 1670 N 152.244 -1.26651 -0.937939 0
M  V30 1671 C 153.191 -1.0849 -2.03712 0
M  V30 1672 C 154.161 0.011033 -1.66096 0
M  V30 1673 O 155.346 -0.149353 -1.90215 0
M  V30 1674 C 152.486 -0.72735 -3.37348 0
M  V30 1675 C 151.599 -1.89986 -3.87981 0
M  V30 1676 C 150.734 -1.48513 -5.10017 0
M  V30 1677 C 149.773 -2.62575 -5.5292 0
M  V30 1678 N 148.91 -2.21762 -6.66158 0
M  V30 1679 H 153.75 -2.02551 -2.18579 0
M  V30 1680 H 151.287 -1.00844 -1.07093 0
M  V30 1681 H 153.245 -0.50092 -4.14182 0
M  V30 1682 H 151.875 0.176298 -3.22318 0
M  V30 1683 H 150.927 -2.23913 -3.07518 0
M  V30 1684 H 152.239 -2.75586 -4.15757 0
M  V30 1685 H 151.393 -1.21934 -5.94321 0
M  V30 1686 H 150.132 -0.60009 -4.83994 0
M  V30 1687 H 149.137 -2.8988 -4.67172 0
M  V30 1688 H 150.362 -3.51685 -5.80943 0
M  V30 1689 H 148.308 -1.35696 -6.41812 0
M  V30 1690 H 148.225 -3.00903 -6.93537 0
M  V30 1691 H 149.493 -1.98403 -7.53828 0
M  V30 1692 N 153.722 1.14298 -1.08507 0
M  V30 1693 C 154.968 1.85633 -0.816581 0
M  V30 1694 C 155.301 1.82784 0.656021 0
M  V30 1695 O 154.576 1.25926 1.48233 0
M  V30 1696 C 154.859 3.34223 -1.34041 0
M  V30 1697 C 154.712 3.45639 -2.87843 0
M  V30 1698 C 156.031 4.29356 -0.9665 0
M  V30 1699 H 153.15 0.67402 -0.298104 0
M  V30 1700 H 155.792 1.34214 -1.34487 0
M  V30 1701 H 153.942 3.78144 -0.89104 0
M  V30 1702 H 155.614 3.10498 -3.41158 0
M  V30 1703 H 153.857 2.86817 -3.25451 0
M  V30 1704 H 154.528 4.50089 -3.19569 0
M  V30 1705 H 157.004 3.93457 -1.35391 0
M  V30 1706 H 155.88 5.3178 -1.3602 0
M  V30 1707 H 156.141 4.41919 0.126362 0
M  V30 1708 N 155.201 0.870884 1.31352 0
M  V30 1709 C 156.448 0.482273 1.96673 0
M  V30 1710 C 156.776 -0.965638 1.68836 0
M  V30 1711 O 156.031 -1.69514 0.977937 0
M  V30 1712 C 156.33 0.687157 3.50732 0
M  V30 1713 C 155.996 2.108 3.9859 0
M  V30 1714 C 154.658 2.49656 4.1137 0
M  V30 1715 C 157.01 3.03459 4.23748 0
M  V30 1716 C 154.338 3.80412 4.46659 0
M  V30 1717 C 156.69 4.3373 4.60501 0
M  V30 1718 C 155.354 4.725 4.71487 0
M  V30 1719 H 154.624 0.176476 0.719679 0
M  V30 1720 H 157.271 1.10405 1.56471 0
M  V30 1721 H 155.576 -0.0177476 3.91796 0
M  V30 1722 H 157.273 0.366284 3.99324 0
M  V30 1723 H 153.863 1.79633 3.8914 0
M  V30 1724 H 158.047 2.74665 4.13368 0
M  V30 1725 H 153.303 4.1021 4.53362 0
M  V30 1726 H 157.477 5.05578 4.78919 0
M  V30 1727 H 155.104 5.73859 4.98588 0
M  V30 1728 N 156.679 -1.44442 0.630414 0
M  V30 1729 C 157.611 -2.2892 -0.113347 0
M  V30 1730 C 158.624 -1.41243 -0.80959 0
M  V30 1731 O 159.813 -1.65402 -0.671156 0
M  V30 1732 C 156.913 -3.17594 -1.18266 0
M  V30 1733 C 156.086 -4.33682 -0.569073 0
M  V30 1734 C 155.145 -5.03397 -1.53226 0
M  V30 1735 O 154.171 -5.59438 -1.04967 0
M  V30 1736 N 155.373 -5.04783 -2.86661 0
M  V30 1737 H 158.138 -2.93392 0.611636 0
M  V30 1738 H 155.699 -1.54881 0.471523 0
M  V30 1739 H 157.691 -3.61097 -1.82732 0
M  V30 1740 H 156.261 -2.54876 -1.80988 0
M  V30 1741 H 155.481 -3.9338 0.254187 0
M  V30 1742 H 156.769 -5.08608 -0.139767 0
M  V30 1743 H 156.167 -4.60584 -3.28449 0
M  V30 1744 H 154.724 -5.52077 -3.46489 0
M  V30 1745 N 158.157 -0.370918 -1.53173 0
M  V30 1746 C 159.067 0.480823 -2.2962 0
M  V30 1747 C 160.083 1.08789 -1.35798 0
M  V30 1748 O 161.259 1.09768 -1.68858 0
M  V30 1749 C 158.324 1.60227 -3.07454 0
M  V30 1750 C 157.385 1.0222 -4.16953 0
M  V30 1751 C 156.618 2.0902 -4.91066 0
M  V30 1752 O 156.841 3.30222 -4.65091 0
M  V30 1753 O 155.775 1.71778 -5.76867 0
M  V30 1754 H 159.601 -0.141421 -3.03371 0
M  V30 1755 H 157.186 -0.135146 -1.48787 0
M  V30 1756 H 159.068 2.25417 -3.56041 0
M  V30 1757 H 157.743 2.20982 -2.36535 0
M  V30 1758 H 156.65 0.334064 -3.72605 0
M  V30 1759 H 157.983 0.459131 -4.90054 0
M  V30 1760 N 159.635 1.57281 -0.100228 0
M  V30 1761 C 161.046 1.81725 0.428107 0
M  V30 1762 C 161.397 1.01619 1.67833 0
M  V30 1763 O 160.522 0.247098 2.14985 0
M  V30 1764 C 161.117 3.29617 0.78347 0
M  V30 1765 C 159.676 3.54808 1.25653 0
M  V30 1766 C 158.823 2.76118 0.255752 0
M  V30 1767 H 161.774 1.55324 -0.325608 0
M  V30 1768 H 161.795 3.4322 1.64256 0
M  V30 1769 H 161.307 3.87893 -0.12665 0
M  V30 1770 H 159.408 3.01868 2.18418 0
M  V30 1771 H 159.521 4.63443 1.21482 0
M  V30 1772 H 157.885 2.43745 0.738956 0
M  V30 1773 H 158.668 3.37145 -0.647136 0
M  V30 1774 N 161.113 -0.173488 1.56642 0
M  V30 1775 C 162.043 -1.2171 1.99271 0
M  V30 1776 C 163.024 -1.46289 0.867959 0
M  V30 1777 O 164.209 -1.5766 1.13388 0
M  V30 1778 C 161.339 -2.55651 2.35074 0
M  V30 1779 C 160.293 -2.45645 3.50489 0
M  V30 1780 C 159.619 -3.84056 3.72028 0
M  V30 1781 C 160.919 -1.96302 4.84007 0
M  V30 1782 H 162.613 -0.86275 2.867 0
M  V30 1783 H 160.159 -0.413571 1.37933 0
M  V30 1784 H 162.112 -3.2886 2.63494 0
M  V30 1785 H 160.836 -2.92869 1.44552 0
M  V30 1786 H 159.495 -1.7489 3.22194 0
M  V30 1787 H 159.143 -4.18664 2.788 0
M  V30 1788 H 158.843 -3.7823 4.49684 0
M  V30 1789 H 160.367 -4.58854 4.02846 0
M  V30 1790 H 161.781 -2.59284 5.11317 0
M  V30 1791 H 160.178 -2.01429 5.65284 0
M  V30 1792 H 161.248 -0.917226 4.76146 0
M  V30 1793 N 162.591 -1.51276 -0.441967 0
M  V30 1794 C 163.838 -1.63715 -1.19179 0
M  V30 1795 C 164.166 -0.351175 -1.91303 0
M  V30 1796 O 163.421 0.664524 -1.84072 0
M  V30 1797 C 163.72 -2.78746 -2.23686 0
M  V30 1798 C 163.386 -4.18189 -1.68607 0
M  V30 1799 C 162.048 -4.56125 -1.53308 0
M  V30 1800 C 164.4 -5.05222 -1.28062 0
M  V30 1801 C 161.728 -5.78804 -0.959317 0
M  V30 1802 C 164.08 -6.28476 -0.721162 0
M  V30 1803 C 162.744 -6.65188 -0.55504 0
M  V30 1804 H 162.014 -0.599076 -0.436106 0
M  V30 1805 H 164.661 -1.85296 -0.48351 0
M  V30 1806 H 162.966 -2.51369 -3.00535 0
M  V30 1807 H 164.663 -2.8557 -2.81515 0
M  V30 1808 H 161.253 -3.88277 -1.8149 0
M  V30 1809 H 165.437 -4.76524 -1.38704 0
M  V30 1810 H 160.693 -6.05899 -0.81833 0
M  V30 1811 H 164.867 -6.95259 -0.398458 0
M  V30 1812 H 162.494 -7.60123 -0.108311 0
M  V30 1813 N 164.069 0.697108 -1.41344 0
M  V30 1814 C 165.299 1.48377 -1.43763 0
M  V30 1815 C 165.707 1.89156 -0.0408726 0
M  V30 1816 O 165.05 1.57239 0.949812 0
M  V30 1817 C 165.112 2.7781 -2.2817 0
M  V30 1818 C 164.776 2.59244 -3.76353 0
M  V30 1819 C 165.773 2.25292 -4.68551 0
M  V30 1820 C 163.458 2.74933 -4.20378 0
M  V30 1821 C 165.452 2.07264 -6.02761 0
M  V30 1822 C 163.139 2.56521 -5.54653 0
M  V30 1823 C 164.137 2.22737 -6.4566 0
M  V30 1824 O 163.825 2.04485 -7.77458 0
M  V30 1825 H 163.557 0.463842 -0.491759 0
M  V30 1826 H 166.111 0.865934 -1.86255 0
M  V30 1827 H 164.341 3.41995 -1.8049 0
M  V30 1828 H 166.03 3.39608 -2.22309 0
M  V30 1829 H 166.796 2.12787 -4.35829 0
M  V30 1830 H 162.675 3.00213 -3.49848 0
M  V30 1831 H 166.219 1.80817 -6.73759 0
M  V30 1832 H 162.116 2.68616 -5.86955 0
M  V30 1833 H 162.884 2.1926 -7.88586 0
M  V30 1834 N 165.547 1.27147 0.931209 0
M  V30 1835 C 166.457 1.11372 2.06478 0
M  V30 1836 C 167.473 0.044645 1.73943 0
M  V30 1837 O 168.649 0.250417 1.99837 0
M  V30 1838 C 165.714 0.758838 3.38294 0
M  V30 1839 C 164.775 1.90841 3.84549 0
M  V30 1840 C 164.008 1.57036 5.10074 0
M  V30 1841 O 164.231 0.476645 5.68405 0
M  V30 1842 O 163.165 2.40839 5.51616 0
M  V30 1843 H 166.991 2.06493 2.22698 0
M  V30 1844 H 164.576 1.06301 1.04978 0
M  V30 1845 H 166.458 0.574098 4.17471 0
M  V30 1846 H 165.133 -0.162879 3.2329 0
M  V30 1847 H 164.04 2.14819 3.06274 0
M  V30 1848 H 165.373 2.81021 4.04089 0
M  V30 1849 N 167.025 -1.13721 1.09112 0
M  V30 1850 C 167.988 -2.17222 0.731241 0
M  V30 1851 C 168.988 -1.59035 -0.237566 0
M  V30 1852 O 170.178 -1.74192 -0.0161704 0
M  V30 1853 C 167.31 -3.40804 0.0808443 0
M  V30 1854 H 168.503 -2.50573 1.64783 0
M  V30 1855 H 166.056 -1.28493 0.889897 0
M  V30 1856 H 166.791 -3.1304 -0.847127 0
M  V30 1857 H 166.576 -3.84306 0.777896 0
M  V30 1858 H 168.066 -4.1731 -0.155657 0
M  V30 1859 N 168.503 -0.877838 -1.30888 0
M  V30 1860 C 169.914 -0.544193 -1.78593 0
M  V30 1861 C 170.265 0.939301 -1.72254 0
M  V30 1862 O 169.39 1.7337 -1.29505 0
M  V30 1863 C 169.985 -0.98105 -3.24285 0
M  V30 1864 C 168.544 -0.698935 -3.69854 0
M  V30 1865 C 167.691 -1.168 -2.51502 0
M  V30 1866 H 170.642 -1.06278 -1.17859 0
M  V30 1867 H 170.663 -0.307009 -3.79259 0
M  V30 1868 H 170.175 -2.06079 -3.28866 0
M  V30 1869 H 168.276 0.369112 -3.70767 0
M  V30 1870 H 168.389 -1.28148 -4.61644 0
M  V30 1871 H 166.753 -0.587535 -2.47831 0
M  V30 1872 H 167.536 -2.25533 -2.58824 0
M  V30 1873 N 169.982 1.44106 -0.638065 0
M  V30 1874 C 171.398 1.56672 -0.304286 0
M  V30 1875 C 171.598 1.6244 1.19228 0
M  V30 1876 O 170.654 1.57121 1.9766 0
M  V30 1877 C 171.967 2.83503 -1.00231 0
M  V30 1878 C 173.515 2.97226 -0.981116 0
M  V30 1879 C 173.99 4.26868 -1.65974 0
M  V30 1880 N 175.481 4.33698 -1.62666 0
M  V30 1881 C 176.216 5.32745 -2.12063 0
M  V30 1882 N 175.712 6.38157 -2.6968 0
M  V30 1883 N 177.505 5.24299 -2.02651 0
M  V30 1884 H 169.656 1.38605 -1.60942 0
M  V30 1885 H 171.919 0.664661 -0.675965 0
M  V30 1886 H 171.625 2.85251 -2.0573 0
M  V30 1887 H 171.499 3.73251 -0.54439 0
M  V30 1888 H 173.886 2.95027 0.0654188 0
M  V30 1889 H 173.967 2.08808 -1.47759 0
M  V30 1890 H 173.611 4.29826 -2.70576 0
M  V30 1891 H 173.541 5.14156 -1.13804 0
M  V30 1892 H 176.032 3.58138 -1.20606 0
M  V30 1893 H 176.345 7.10029 -3.05087 0
M  V30 1894 H 174.69 6.38823 -2.73734 0
M  V30 1895 H 177.881 4.4086 -1.57353 0
M  V30 1896 H 178.054 6.01334 -2.41457 0
M  V30 1897 N 171.46 0.379036 1.52974 0
M  V30 1898 C 172.685 -0.209353 2.06341 0
M  V30 1899 C 173.11 -1.40583 1.24972 0
M  V30 1900 O 172.468 -1.79246 0.272155 0
M  V30 1901 C 172.516 -0.567786 3.56102 0
M  V30 1902 O 171.62 -1.66318 3.77375 0
M  V30 1903 H 170.961 -0.0272919 0.663439 0
M  V30 1904 H 173.491 0.543536 1.97248 0
M  V30 1905 H 173.501 -0.835003 3.99364 0
M  V30 1906 H 172.176 0.307013 4.14765 0
M  V30 1907 H 170.753 -1.39048 3.46006 0
M  V30 1908 N 172.938 -1.57226 0.108567 0
M  V30 1909 C 174.184 -1.95121 -0.552761 0
M  V30 1910 C 174.517 -0.991345 -1.66991 0
M  V30 1911 O 173.792 -0.0267211 -1.94482 0
M  V30 1912 C 174.075 -3.43039 -1.09528 0
M  V30 1913 C 173.928 -4.49797 0.0177332 0
M  V30 1914 C 175.247 -3.92567 -1.98945 0
M  V30 1915 H 172.366 -0.709496 -0.199461 0
M  V30 1916 H 175.008 -1.89126 0.182011 0
M  V30 1917 H 173.158 -3.48279 -1.72146 0
M  V30 1918 H 174.83 -4.56661 0.652584 0
M  V30 1919 H 173.073 -4.284 0.682309 0
M  V30 1920 H 173.744 -5.50528 -0.402919 0
M  V30 1921 H 176.22 -3.89565 -1.46214 0
M  V30 1922 H 175.096 -4.96605 -2.33827 0
M  V30 1923 H 175.357 -3.32648 -2.91201 0
M  V30 1924 N 174.416 0.165178 -1.56732 0
M  V30 1925 C 175.693 0.908443 -1.73224 0
M  V30 1926 C 176.073 2.0013 -0.67165 0
M  V30 1927 O 175.421 2.26353 0.31253 0
M  V30 1928 C 175.631 1.46756 -3.16644 0
M  V30 1929 C 176.979 1.93809 -3.77787 0
M  V30 1930 O 178.003 1.56537 -3.1996 0
M  V30 1931 O 176.862 2.62486 -4.79336 0
M  V30 1932 H 173.956 0.428025 -0.707618 0
M  V30 1933 H 176.502 0.152526 -1.69013 0
M  V30 1934 H 175.274 0.68129 -3.85323 0
M  V30 1935 H 174.897 2.28749 -3.25207 0
M  V30 1936 N 175.894 1.51508 0.433938 0
M  V30 1937 C 177.14 1.65549 1.18173 0
M  V30 1938 C 177.495 0.368751 1.88833 0
M  V30 1939 O 176.788 -0.635616 1.8075 0
M  V30 1940 C 176.982 2.79928 2.22205 0
M  V30 1941 C 176.811 4.19601 1.61756 0
M  V30 1942 C 175.581 4.85489 1.40101 0
M  V30 1943 C 177.779 5.02574 1.09194 0
M  V30 1944 N 175.761 6.09266 0.752859 0
M  V30 1945 C 177.132 6.17381 0.569255 0
M  V30 1946 C 179.187 4.88079 0.984025 0
M  V30 1947 C 177.89 7.19282 -0.0507472 0
M  V30 1948 C 179.916 5.90191 0.377912 0
M  V30 1949 C 179.278 7.04272 -0.134216 0
M  V30 1950 H 175.377 0.659653 0.419979 0
M  V30 1951 H 177.961 1.88746 0.477818 0
M  V30 1952 H 176.132 2.5839 2.89982 0
M  V30 1953 H 177.864 2.83132 2.89168 0
M  V30 1954 H 174.619 4.43417 1.66369 0
M  V30 1955 H 175.043 6.75528 0.446123 0
M  V30 1956 H 179.685 4.00131 1.36583 0
M  V30 1957 H 177.403 8.06876 -0.444676 0
M  V30 1958 H 180.989 5.81045 0.296269 0
M  V30 1959 H 179.869 7.81933 -0.59585 0
M  V30 1960 N 177.372 -0.689602 1.41712 0
M  V30 1961 C 178.788 -1.00093 1.24312 0
M  V30 1962 C 178.988 -2.01036 0.136729 0
M  V30 1963 O 178.044 -2.47562 -0.496918 0
M  V30 1964 C 179.357 -1.51985 2.59463 0
M  V30 1965 C 180.905 -1.63838 2.66695 0
M  V30 1966 C 181.38 -2.1913 4.02177 0
M  V30 1967 N 182.871 -2.26483 4.04054 0
M  V30 1968 C 183.606 -2.70306 5.0569 0
M  V30 1969 N 183.102 -3.13691 6.17713 0
M  V30 1970 N 184.895 -2.69923 4.9305 0
M  V30 1971 H 177.046 -0.0210029 2.1239 0
M  V30 1972 H 179.309 -0.0718733 0.945272 0
M  V30 1973 H 179.015 -0.85269 3.41207 0
M  V30 1974 H 178.889 -2.50103 2.82362 0
M  V30 1975 H 181.276 -2.29664 1.85306 0
M  V30 1976 H 181.357 -0.642492 2.476 0
M  V30 1977 H 181.001 -1.53918 4.84016 0
M  V30 1978 H 180.931 -3.19482 4.18615 0
M  V30 1979 H 183.422 -1.95874 3.23174 0
M  V30 1980 H 183.735 -3.45773 6.9113 0
M  V30 1981 H 182.08 -3.11585 6.21241 0
M  V30 1982 H 185.271 -2.35382 4.04614 0
M  V30 1983 H 185.444 -3.03758 5.72394 0
M  V30 1984 N 178.85 -1.27639 -0.924453 0
M  V30 1985 C 179.76 -1.12466 -2.05885 0
M  V30 1986 C 180.776 -0.053869 -1.73917 0
M  V30 1987 O 181.952 -0.261012 -1.99702 0
M  V30 1988 C 179.017 -0.776768 -3.37886 0
M  V30 1989 C 178.078 -1.92878 -3.83532 0
M  V30 1990 C 177.311 -1.59739 -5.09234 0
M  V30 1991 O 177.534 -0.506782 -5.68144 0
M  V30 1992 O 176.468 -2.43761 -5.50331 0
M  V30 1993 H 180.294 -2.07671 -2.21599 0
M  V30 1994 H 177.879 -1.06857 -1.04413 0
M  V30 1995 H 179.761 -0.596229 -4.17161 0
M  V30 1996 H 178.436 0.145732 -3.23372 0
M  V30 1997 H 177.343 -2.1644 -3.0513 0
M  V30 1998 H 178.676 -2.8316 -4.02593 0
M  V30 1999 N 180.328 1.1314 -1.09713 0
M  V30 2000 C 181.275 2.18642 -0.739196 0
M  V30 2001 C 182.245 1.63706 0.280978 0
M  V30 2002 O 183.43 1.90111 0.161946 0
M  V30 2003 C 180.57 3.44685 -0.169102 0
M  V30 2004 C 179.683 4.13711 -1.24367 0
M  V30 2005 C 178.818 5.27379 -0.636019 0
M  V30 2006 C 177.857 5.88259 -1.69169 0
M  V30 2007 N 176.994 6.93352 -1.10485 0
M  V30 2008 H 181.834 2.48607 -1.64312 0
M  V30 2009 H 179.371 1.22066 -0.820875 0
M  V30 2010 H 181.329 4.16815 0.179256 0
M  V30 2011 H 179.959 3.15161 0.698079 0
M  V30 2012 H 179.011 3.39835 -1.70927 0
M  V30 2013 H 180.323 4.55037 -2.04311 0
M  V30 2014 H 179.477 6.06238 -0.236677 0
M  V30 2015 H 178.216 4.8731 0.194928 0
M  V30 2016 H 177.221 5.08092 -2.10055 0
M  V30 2017 H 178.446 6.30399 -2.52536 0
M  V30 2018 H 176.392 6.55335 -0.295234 0
M  V30 2019 H 176.309 7.33236 -1.84121 0
M  V30 2020 H 177.577 7.76057 -0.73181 0
M  V30 2021 N 181.806 0.884767 1.30421 0
M  V30 2022 C 183.054 0.502112 1.95763 0
M  V30 2023 C 183.375 -0.951815 1.70192 0
M  V30 2024 O 182.645 -1.6692 1.0254 0
M  V30 2025 H 181.225 0.182694 0.724315 0
M  V30 2026 H 183.887 1.1278 1.58955 0
M  V30 2027 H 182.983 0.672188 3.04775 0
M  V30 2028 N 183.284 -1.43765 0.645699 0
M  V30 2029 C 184.514 -2.05953 0.163318 0
M  V30 2030 C 184.922 -1.48432 -1.17322 0
M  V30 2031 O 184.265 -0.607295 -1.73371 0
M  V30 2032 C 184.327 -3.59499 -0.0103065 0
M  V30 2033 C 183.991 -4.39563 1.25035 0
M  V30 2034 C 184.988 -4.72108 2.17739 0
M  V30 2035 C 182.673 -4.79697 1.48983 0
M  V30 2036 C 184.667 -5.43688 3.3269 0
M  V30 2037 C 182.354 -5.51023 2.64229 0
M  V30 2038 C 183.352 -5.8294 3.55908 0
M  V30 2039 O 183.04 -6.5281 4.69142 0
M  V30 2040 H 182.772 -0.670798 0.0836986 0
M  V30 2041 H 185.326 -1.85384 0.884407 0
M  V30 2042 H 183.556 -3.78613 -0.78669 0
M  V30 2043 H 185.245 -4.03408 -0.449087 0
M  V30 2044 H 186.011 -4.41627 2.00476 0
M  V30 2045 H 181.89 -4.54266 0.785078 0
M  V30 2046 H 185.434 -5.68517 4.04269 0
M  V30 2047 H 181.331 -5.8092 2.81429 0
M  V30 2048 H 182.099 -6.71288 4.6831 0
M  V30 2049 N 184.763 -0.387143 -1.52771 0
M  V30 2050 C 186.009 0.196025 -2.0185 0
M  V30 2051 C 186.342 1.46641 -1.27319 0
M  V30 2052 O 185.617 1.90889 -0.373032 0
M  V30 2053 C 185.9 0.466136 -3.5707 0
M  V30 2054 C 185.753 -0.819385 -4.42274 0
M  V30 2055 C 187.072 1.25768 -4.21747 0
M  V30 2056 H 184.191 0.0697708 -0.73369 0
M  V30 2057 H 186.833 -0.516286 -1.82851 0
M  V30 2058 H 184.983 1.07293 -3.7339 0
M  V30 2059 H 186.655 -1.4563 -4.37709 0
M  V30 2060 H 184.898 -1.43517 -4.09372 0
M  V30 2061 H 185.569 -0.585065 -5.48891 0
M  V30 2062 H 188.045 0.744167 -4.09391 0
M  V30 2063 H 186.921 1.41541 -5.30337 0
M  V30 2064 H 187.182 2.27228 -3.79236 0
M  V30 2065 N 186.241 1.57166 -0.116904 0
M  V30 2066 C 187.469 1.99473 0.549383 0
M  V30 2067 C 187.884 0.996541 1.60357 0
M  V30 2068 O 187.241 -0.0108731 1.82497 0
M  V30 2069 C 187.292 3.41788 1.17741 0
M  V30 2070 O 187.013 4.37788 0.165362 0
M  V30 2071 C 188.514 3.99216 1.92722 0
M  V30 2072 H 185.734 0.655009 0.145616 0
M  V30 2073 H 188.278 2.03494 -0.202625 0
M  V30 2074 H 186.433 3.38713 1.88021 0
M  V30 2075 H 186.847 5.20806 0.621403 0
M  V30 2076 H 188.321 5.00882 2.31995 0
M  V30 2077 H 188.798 3.3824 2.80161 0
M  V30 2078 H 189.404 4.0583 1.27209 0
M  V30 2079 N 187.719 -0.156864 1.56817 0
M  V30 2080 C 189.13 -0.717916 1.72345 0
M  V30 2081 C 189.481 -1.82124 0.729747 0
M  V30 2082 O 188.606 -2.16141 -0.105781 0
M  V30 2083 C 189.201 -1.30904 3.12489 0
M  V30 2084 C 187.76 -1.81676 3.29653 0
M  V30 2085 C 186.907 -0.701349 2.68284 0
M  V30 2086 H 189.858 0.0686989 1.58551 0
M  V30 2087 H 189.879 -2.17882 3.11942 0
M  V30 2088 H 189.391 -0.505796 3.8479 0
M  V30 2089 H 187.492 -2.64598 2.62333 0
M  V30 2090 H 187.605 -1.95226 4.3752 0
M  V30 2091 H 185.969 -1.12548 2.28484 0
M  V30 2092 H 186.752 0.0902846 3.43181 0
M  V30 2093 N 189.197 -1.51736 -0.425897 0
M  V30 2094 C 190.443 -1.65214 -1.1761 0
M  V30 2095 C 190.776 -0.372778 -1.90589 0
M  V30 2096 O 190.051 0.628139 -1.84078 0
M  V30 2097 C 190.334 -2.86312 -2.18398 0
M  V30 2098 C 190.187 -4.24254 -1.49426 0
M  V30 2099 C 191.506 -3.02925 -3.19256 0
M  V30 2100 H 188.625 -0.601263 -0.426206 0
M  V30 2101 H 191.267 -1.8425 -0.463882 0
M  V30 2102 H 189.417 -2.70213 -2.79137 0
M  V30 2103 H 191.089 -4.52046 -0.919362 0
M  V30 2104 H 189.332 -4.26426 -0.796432 0
M  V30 2105 H 190.003 -5.05001 -2.22885 0
M  V30 2106 H 192.479 -3.1781 -2.68581 0
M  V30 2107 H 191.355 -3.89199 -3.8706 0
M  V30 2108 H 191.616 -2.15497 -3.86023 0
M  V30 2109 N 190.675 0.682077 -1.42076 0
M  V30 2110 C 191.622 1.79578 -1.44984 0
M  V30 2111 C 192.592 1.6332 -0.302614 0
M  V30 2112 O 193.777 1.83978 -0.505633 0
M  V30 2113 C 190.917 3.1756 -1.35091 0
M  V30 2114 C 190.03 3.45156 -2.59791 0
M  V30 2115 C 189.165 4.72826 -2.42093 0
M  V30 2116 C 188.204 4.93433 -3.62202 0
M  V30 2117 N 187.341 6.12338 -3.43491 0
M  V30 2118 H 192.181 1.76427 -2.40161 0
M  V30 2119 H 189.718 0.861376 -1.19242 0
M  V30 2120 H 191.676 3.97287 -1.27354 0
M  V30 2121 H 190.306 3.19854 -0.435133 0
M  V30 2122 H 189.358 2.59736 -2.77923 0
M  V30 2123 H 190.67 3.5628 -3.49094 0
M  V30 2124 H 189.824 5.60631 -2.319 0
M  V30 2125 H 188.563 4.63973 -1.50268 0
M  V30 2126 H 187.568 4.04073 -3.72834 0
M  V30 2127 H 188.793 5.04136 -4.54998 0
M  V30 2128 H 186.739 6.04672 -2.54377 0
M  V30 2129 H 186.656 6.2429 -4.26377 0
M  V30 2130 H 187.924 7.02841 -3.37097 0
M  V30 2131 N 192.153 1.28127 0.917671 0
M  V30 2132 C 193.101 1.11569 2.04096 0
M  V30 2133 C 194.095 0.0360242 1.69362 0
M  V30 2134 O 195.301 0.194501 1.78946 0
M  V30 2135 H 191.676 0.344097 0.668656 0
M  V30 2136 H 193.647 2.06711 2.15205 0
M  V30 2137 C 192.396 0.790197 3.38602 0
M  V30 2138 H 191.719 1.61293 3.6582 0
M  V30 2139 H 193.159 0.714271 4.1794 0
M  V30 2140 C 191.618 -0.505897 3.3308 0
M  V30 2141 O 192.148 -1.53736 3.71117 0
M  V30 2142 N 190.354 -0.505193 2.86175 0
M  V30 2143 H 189.901 0.334621 2.55417 0
M  V30 2144 H 189.859 -1.37243 2.82863 0
M  V30 2145 N 193.631 -1.12557 1.10312 0
M  V30 2146 C 194.563 -2.17971 0.708625 0
M  V30 2147 C 195.576 -1.60806 -0.254027 0
M  V30 2148 O 196.765 -1.78458 -0.0386891 0
M  V30 2149 C 193.865 -3.38891 0.0248198 0
M  V30 2150 C 193.038 -4.25548 1.01132 0
M  V30 2151 C 192.097 -5.24972 0.35924 0
M  V30 2152 O 191.123 -5.60174 1.00965 0
M  V30 2153 N 192.325 -5.73747 -0.882847 0
M  V30 2154 H 195.09 -2.52427 1.61557 0
M  V30 2155 H 192.651 -1.27967 0.991771 0
M  V30 2156 H 194.643 -4.02485 -0.422852 0
M  V30 2157 H 193.213 -3.02596 -0.784514 0
M  V30 2158 H 192.433 -3.58589 1.6373 0
M  V30 2159 H 193.721 -4.80294 1.67914 0
M  V30 2160 H 193.119 -5.4731 -1.43065 0
M  V30 2161 H 191.676 -6.39234 -1.27369 0
M  V30 2162 N 195.109 -0.891671 -1.2995 0
M  V30 2163 C 196.357 -0.512486 -1.95494 0
M  V30 2164 C 196.678 0.942776 -1.70695 0
M  V30 2165 O 195.948 1.66374 -1.03424 0
M  V30 2166 H 194.528 -0.186533 -0.723336 0
M  V30 2167 H 197.19 -1.13621 -1.58355 0
M  V30 2168 H 196.286 -0.688342 -3.04415 0
M  V30 2169 N 196.587 1.43421 -0.653314 0
M  V30 2170 C 197.519 2.29071 0.0769134 0
M  V30 2171 C 198.532 1.42513 0.787017 0
M  V30 2172 O 199.721 1.66449 0.644757 0
M  V30 2173 C 196.821 3.19436 1.13199 0
M  V30 2174 C 195.994 4.34533 0.500006 0
M  V30 2175 C 195.053 5.05771 1.45198 0
M  V30 2176 O 194.079 5.61037 0.960538 0
M  V30 2177 N 195.281 5.0928 2.78594 0
M  V30 2178 H 198.046 2.92382 -0.658235 0
M  V30 2179 H 195.607 1.54112 -0.496104 0
M  V30 2180 H 197.599 3.63958 1.76964 0
M  V30 2181 H 196.169 2.57724 1.7691 0
M  V30 2182 H 195.389 3.92925 -0.316738 0
M  V30 2183 H 196.677 5.08766 0.0588345 0
M  V30 2184 H 196.075 4.65751 3.2108 0
M  V30 2185 H 194.632 5.57519 3.37662 0
M  V30 2186 N 198.065 0.39524 1.52563 0
M  V30 2187 C 199.305 -0.184744 2.03563 0
M  V30 2188 C 199.669 -1.43548 1.27507 0
M  V30 2189 O 200.87 -2.093 1.68662 0
M  V30 2190 C 199.141 -0.440294 3.54678 0
M  V30 2191 S 200.7 -0.989712 4.27493 0
M  V30 2192 H 197.518 -0.0515075 0.709132 0
M  V30 2193 H 200.12 0.544957 1.87751 0
M  V30 2194 H 198.824 0.477005 4.07618 0
M  V30 2195 H 198.355 -1.19825 3.74707 0
M  V30 2196 H 200.37 -2.27155 4.41152 0
M  V30 2197 N 199.544 -1.57102 0.125237 0
M  V30 2198 C 200.792 -1.95021 -0.530198 0
M  V30 2199 C 201.113 -1.00982 -1.66816 0
M  V30 2200 O 200.383 -0.0672693 -1.95784 0
M  V30 2201 H 198.963 -0.720046 -0.198853 0
M  V30 2202 H 201.625 -1.93916 0.19564 0
M  V30 2203 H 200.721 -2.98211 -0.920681 0
M  V30 2204 N 201.022 0.148545 -1.56898 0
M  V30 2205 C 202.247 0.880385 -1.87787 0
M  V30 2206 C 202.672 1.74018 -0.714093 0
M  V30 2207 O 202.03 1.78153 0.336343 0
M  V30 2208 C 202.078 1.71422 -3.17249 0
M  V30 2209 O 201.182 2.8183 -3.01074 0
M  V30 2210 H 200.523 0.245301 -0.617028 0
M  V30 2211 H 203.053 0.139826 -2.04122 0
M  V30 2212 H 203.063 2.10954 -3.49231 0
M  V30 2213 H 201.738 1.08284 -4.01556 0
M  V30 2214 H 200.315 2.45715 -2.80497 0
M  V30 2215 N 202.5 1.5196 0.417844 0
M  V30 2216 C 203.74 1.67262 1.17486 0
M  V30 2217 C 204.104 0.38983 1.88001 0
M  V30 2218 O 205.305 0.418845 2.65517 0
M  V30 2219 C 203.576 2.85526 2.14965 0
M  V30 2220 S 205.135 3.21263 2.98891 0
M  V30 2221 H 201.953 0.589077 0.398132 0
M  V30 2222 H 204.555 1.89927 0.463452 0
M  V30 2223 H 203.259 3.77145 1.61833 0
M  V30 2224 H 202.79 2.65107 2.90657 0
M  V30 2225 H 204.805 2.69208 4.16823 0
M  V30 2226 N 203.978 -0.674533 1.42435 0
M  V30 2227 C 205.224 -1.43521 1.4413 0
M  V30 2228 C 205.579 -1.92316 0.0567773 0
M  V30 2229 O 204.872 -1.68008 -0.921076 0
M  V30 2230 C 205.066 -2.64767 2.40069 0
M  V30 2231 C 204.895 -2.27836 3.87713 0
M  V30 2232 C 203.665 -2.17183 4.56245 0
M  V30 2233 C 205.863 -1.89466 4.78129 0
M  V30 2234 N 203.845 -1.73358 5.88915 0
M  V30 2235 C 205.216 -1.56561 5.99907 0
M  V30 2236 C 207.271 -1.7646 4.65582 0
M  V30 2237 C 205.974 -1.11957 7.10534 0
M  V30 2238 C 208 -1.3326 5.76191 0
M  V30 2239 C 207.362 -1.0128 6.97081 0
M  V30 2240 H 203.461 -0.521656 0.582579 0
M  V30 2241 H 206.045 -0.778381 1.78464 0
M  V30 2242 H 204.216 -3.28139 2.07796 0
M  V30 2243 H 205.948 -3.3136 2.32342 0
M  V30 2244 H 202.703 -2.3626 4.10461 0
M  V30 2245 H 203.127 -1.53867 6.59283 0
M  V30 2246 H 207.769 -1.99831 3.72595 0
M  V30 2247 H 205.487 -0.873318 8.03367 0
M  V30 2248 H 209.073 -1.23717 5.68494 0
M  V30 2249 H 207.953 -0.683597 7.81215 0
M  V30 2250 N 205.456 -1.28612 -0.910864 0
M  V30 2251 C 206.419 -1.12803 -1.9952 0
M  V30 2252 C 207.419 -0.0668264 -1.60661 0
M  V30 2253 O 208.609 -0.312847 -1.71368 0
M  V30 2254 C 205.741 -0.72254 -3.33155 0
M  V30 2255 H 206.934 -2.09109 -2.14973 0
M  V30 2256 H 204.487 -1.11639 -1.09391 0
M  V30 2257 H 205.222 0.241152 -3.23402 0
M  V30 2258 H 205.007 -1.48916 -3.62721 0
M  V30 2259 H 206.497 -0.634666 -4.12749 0
M  V30 2260 N 206.934 1.1197 -1.10907 0
M  V30 2261 C 208.181 1.83588 -0.854507 0
M  V30 2262 C 208.509 1.84357 0.6199 0
M  V30 2263 O 207.764 1.28809 1.47332 0
M  V30 2264 C 208.063 3.30749 -1.35425 0
M  V30 2265 C 207.729 3.50146 -2.84093 0
M  V30 2266 C 206.391 3.55148 -3.2469 0
M  V30 2267 C 208.743 3.56857 -3.79872 0
M  V30 2268 C 206.071 3.6441 -4.59806 0
M  V30 2269 C 208.423 3.6765 -5.14797 0
M  V30 2270 C 207.087 3.7091 -5.54961 0
M  V30 2271 H 206.357 0.671795 -0.312686 0
M  V30 2272 H 209.004 1.32091 -1.38652 0
M  V30 2273 H 207.309 3.84703 -0.742361 0
M  V30 2274 H 209.006 3.8464 -1.1337 0
M  V30 2275 H 205.596 3.46919 -2.51685 0
M  V30 2276 H 209.78 3.52258 -3.49611 0
M  V30 2277 H 205.036 3.65208 -4.9034 0
M  V30 2278 H 209.21 3.71786 -5.88853 0
M  V30 2279 H 206.837 3.7784 -6.59652 0
M  V30 2280 N 208.412 0.89855 1.29475 0
M  V30 2281 C 209.637 0.538561 2.00285 0
M  V30 2282 C 210.062 -0.869135 1.66816 0
M  V30 2283 O 209.42 -1.57831 0.892145 0
M  V30 2284 C 209.468 0.736475 3.52999 0
M  V30 2285 O 208.572 -0.211537 4.11857 0
M  V30 2286 H 207.913 0.210563 0.62973 0
M  V30 2287 H 210.443 1.20982 1.64998 0
M  V30 2288 H 210.453 0.640685 4.02938 0
M  V30 2289 H 209.128 1.76276 3.76696 0
M  V30 2290 H 207.705 -0.0682991 3.72837 0
M  V30 2291 N 209.89 -1.43072 0.660911 0
M  V30 2292 C 210.853 -2.29194 -0.0166406 0
M  V30 2293 C 211.853 -1.42609 -0.742912 0
M  V30 2294 O 213.043 -1.64155 -0.583004 0
M  V30 2295 C 210.175 -3.24831 -1.0343 0
M  V30 2296 H 211.368 -2.90596 0.741208 0
M  V30 2297 H 208.921 -1.5048 0.422532 0
M  V30 2298 H 209.656 -2.68339 -1.82111 0
M  V30 2299 H 209.441 -3.88676 -0.517082 0
M  V30 2300 H 210.931 -3.89451 -1.50723 0
M  V30 2301 N 211.368 -0.403325 -1.52352 0
M  V30 2302 C 212.596 0.174012 -2.06167 0
M  V30 2303 C 213.011 1.39347 -1.27388 0
M  V30 2304 O 212.368 1.79597 -0.324201 0
M  V30 2305 C 212.419 0.530223 -3.5759 0
M  V30 2306 O 212.14 -0.640806 -4.33388 0
M  V30 2307 C 213.641 1.16192 -4.27802 0
M  V30 2308 H 210.861 0.0229464 -0.670608 0
M  V30 2309 H 213.405 -0.572604 -1.9632 0
M  V30 2310 H 211.56 1.22673 -3.67464 0
M  V30 2311 H 211.974 -0.344851 -5.23365 0
M  V30 2312 H 213.448 1.36141 -5.34948 0
M  V30 2313 H 213.925 2.13335 -3.83907 0
M  V30 2314 H 214.531 0.505775 -4.22282 0
M  V30 2315 N 212.846 1.57033 -0.133567 0
M  V30 2316 C 214.094 1.953 0.519848 0
M  V30 2317 C 214.415 1.01866 1.66278 0
M  V30 2318 O 213.685 0.0776513 1.95746 0
M  V30 2319 H 212.265 0.721091 0.195032 0
M  V30 2320 H 214.927 1.93809 -0.205921 0
M  V30 2321 H 214.023 2.98695 0.904854 0
M  V30 2322 N 214.325 -0.140222 1.56975 0
M  V30 2323 C 215.288 -1.15689 1.97861 0
M  V30 2324 C 216.288 -1.3549 0.865974 0
M  V30 2325 O 217.478 -1.32367 1.13246 0
M  V30 2326 C 214.61 -2.51582 2.30042 0
M  V30 2327 H 215.803 -0.805971 2.88867 0
M  V30 2328 H 213.356 -0.383801 1.51515 0
M  V30 2329 H 214.091 -2.91632 1.41849 0
M  V30 2330 H 213.876 -2.38569 3.11171 0
M  V30 2331 H 215.366 -3.24792 2.62488 0
M  V30 2332 N 215.803 -1.52179 -0.40978 0
M  V30 2333 C 216.733 -1.78435 -1.5061 0
M  V30 2334 C 217.714 -0.635295 -1.57791 0
M  V30 2335 O 218.899 -0.880823 -1.73076 0
M  V30 2336 C 216.029 -1.93444 -2.88439 0
M  V30 2337 C 214.983 -3.09038 -2.96108 0
M  V30 2338 C 214.309 -3.09268 -4.36185 0
M  V30 2339 C 215.609 -4.48508 -2.67652 0
M  V30 2340 H 217.303 -2.70237 -1.28889 0
M  V30 2341 H 214.849 -1.30036 -0.618605 0
M  V30 2342 H 216.802 -2.10394 -3.65119 0
M  V30 2343 H 215.526 -0.983129 -3.11452 0
M  V30 2344 H 214.185 -2.91837 -2.21872 0
M  V30 2345 H 213.833 -2.11861 -4.56206 0
M  V30 2346 H 213.533 -3.86907 -4.42241 0
M  V30 2347 H 215.057 -3.28348 -5.14801 0
M  V30 2348 H 216.471 -4.65918 -3.34056 0
M  V30 2349 H 214.868 -5.28059 -2.85085 0
M  V30 2350 H 215.938 -4.56649 -1.63095 0
M  V30 2351 N 217.281 0.66697 -1.42791 0
M  V30 2352 C 218.191 1.80962 -1.49299 0
M  V30 2353 C 219.207 1.69775 -0.381108 0
M  V30 2354 O 220.383 1.91188 -0.633188 0
M  V30 2355 C 217.448 3.17156 -1.40045 0
M  V30 2356 C 216.509 3.40242 -2.6179 0
M  V30 2357 C 215.742 4.69939 -2.52969 0
M  V30 2358 O 215.965 5.48372 -1.56985 0
M  V30 2359 O 214.899 4.94441 -3.43237 0
M  V30 2360 H 218.725 1.78427 -2.45759 0
M  V30 2361 H 216.31 0.823713 -1.24641 0
M  V30 2362 H 218.192 3.98413 -1.37276 0
M  V30 2363 H 216.867 3.20312 -0.467138 0
M  V30 2364 H 215.774 2.58802 -2.70134 0
M  V30 2365 H 217.107 3.41923 -3.54047 0
M  V30 2366 N 218.759 1.29093 0.90403 0
M  V30 2367 C 220.007 1.16583 1.65085 0
M  V30 2368 C 220.328 -0.283933 1.92922 0
M  V30 2369 O 219.598 -1.19509 1.55224 0
M  V30 2370 H 218.178 0.428467 0.611903 0
M  V30 2371 H 220.84 1.61959 1.08422 0
M  V30 2372 H 219.936 1.71266 2.6091 0
M  V30 2373 N 220.237 -1.11381 1.11499 0
M  V30 2374 C 221.169 -2.17207 0.731704 0
M  V30 2375 C 222.182 -1.61066 -0.236957 0
M  V30 2376 O 223.371 -1.78489 -0.0197591 0
M  V30 2377 C 220.471 -3.38846 0.0607624 0
M  V30 2378 C 219.644 -4.24451 1.0564 0
M  V30 2379 C 218.703 -5.24562 0.4149 0
M  V30 2380 O 217.729 -5.59071 1.069 0
M  V30 2381 N 218.931 -5.74651 -0.821943 0
M  V30 2382 H 221.696 -2.50699 1.64225 0
M  V30 2383 H 219.257 -1.26908 1.00529 0
M  V30 2384 H 221.249 -4.02911 -0.380139 0
M  V30 2385 H 219.819 -3.03411 -0.752376 0
M  V30 2386 H 219.039 -3.56833 1.67524 0
M  V30 2387 H 220.327 -4.78486 1.72998 0
M  V30 2388 H 219.725 -5.48797 -1.37252 0
M  V30 2389 H 218.282 -6.40549 -1.20582 0
M  V30 2390 N 221.715 -0.905404 -1.28997 0
M  V30 2391 C 222.648 -0.331959 -2.25773 0
M  V30 2392 C 223.626 0.559099 -1.52685 0
M  V30 2393 O 224.81 0.50463 -1.8162 0
M  V30 2394 C 221.937 0.526276 -3.34586 0
M  V30 2395 C 220.983 -0.298249 -4.25456 0
M  V30 2396 S 221.816 -1.69968 -5.0781 0
M  V30 2397 C 222.972 -0.848519 -6.20122 0
M  V30 2398 H 223.205 -1.15222 -2.74064 0
M  V30 2399 H 220.738 -0.706112 -1.37308 0
M  V30 2400 H 222.696 1.01565 -3.97737 0
M  V30 2401 H 221.357 1.32084 -2.84978 0
M  V30 2402 H 220.55 0.357607 -5.0273 0
M  V30 2403 H 220.152 -0.720968 -3.66985 0
M  V30 2404 H 222.444 -0.0744325 -6.77459 0
M  V30 2405 H 223.387 -1.59353 -6.89937 0
M  V30 2406 H 223.795 -0.400383 -5.63078 0
M  V30 2407 N 223.193 1.4272 -0.668489 0
M  V30 2408 C 224.44 2.01624 -0.18814 0
M  V30 2409 C 224.768 1.5282 1.20317 0
M  V30 2410 O 224.023 0.718323 1.8204 0
M  V30 2411 C 224.322 3.57021 -0.164499 0
M  V30 2412 C 223.988 4.25232 -1.49962 0
M  V30 2413 C 222.65 4.4358 -1.8652 0
M  V30 2414 C 225.002 4.63727 -2.37921 0
M  V30 2415 C 222.33 4.97694 -3.10674 0
M  V30 2416 C 224.682 5.19218 -3.6138 0
M  V30 2417 C 223.346 5.3578 -3.98115 0
M  V30 2418 H 222.616 0.737795 -0.0688454 0
M  V30 2419 H 225.263 1.70991 -0.862225 0
M  V30 2420 H 223.568 3.87285 0.593079 0
M  V30 2421 H 225.265 4.00372 0.224271 0
M  V30 2422 H 221.855 4.11306 -1.20522 0
M  V30 2423 H 226.039 4.4923 -2.10964 0
M  V30 2424 H 221.295 5.08702 -3.39164 0
M  V30 2425 H 225.469 5.4799 -4.29743 0
M  V30 2426 H 223.096 5.77475 -4.94395 0
M  V30 2427 N 224.671 0.411399 1.52136 0
M  V30 2428 C 226.087 0.0623865 1.59478 0
M  V30 2429 C 226.287 -1.42554 1.4241 0
M  V30 2430 O 225.343 -2.19263 1.2522 0
M  V30 2431 C 226.656 0.559331 2.95452 0
M  V30 2432 C 228.204 0.517503 3.08692 0
M  V30 2433 C 228.679 0.990994 4.4715 0
M  V30 2434 N 230.17 0.947908 4.53397 0
M  V30 2435 C 230.905 1.28544 5.58806 0
M  V30 2436 N 230.401 1.69454 6.71757 0
M  V30 2437 N 232.194 1.20526 5.49026 0
M  V30 2438 H 224.345 1.37982 1.61477 0
M  V30 2439 H 226.608 0.566977 0.759764 0
M  V30 2440 H 226.314 1.59938 3.1323 0
M  V30 2441 H 226.188 -0.0298014 3.77188 0
M  V30 2442 H 228.575 -0.513505 2.90598 0
M  V30 2443 H 228.656 1.14272 2.28857 0
M  V30 2444 H 228.3 2.02034 4.65988 0
M  V30 2445 H 228.23 0.34257 5.25485 0
M  V30 2446 H 230.721 0.647157 3.72317 0
M  V30 2447 H 231.034 1.93513 7.48179 0
M  V30 2448 H 229.379 1.73359 6.73032 0
M  V30 2449 H 232.57 0.884505 4.59667 0
M  V30 2450 H 232.743 1.47161 6.31069 0
M  V30 2451 N 226.149 -1.5696 0.141893 0
M  V30 2452 C 227.096 -2.16501 -0.799737 0
M  V30 2453 C 228.066 -1.09643 -1.24771 0
M  V30 2454 O 229.251 -1.3766 -1.32115 0
M  V30 2455 C 226.391 -2.78679 -2.03549 0
M  V30 2456 C 225.504 -3.99914 -1.6338 0
M  V30 2457 C 224.639 -4.50106 -2.82096 0
M  V30 2458 C 223.678 -5.63819 -2.38275 0
M  V30 2459 N 222.815 -6.08651 -3.49983 0
M  V30 2460 H 227.655 -2.96632 -0.285179 0
M  V30 2461 H 225.192 -1.46533 -0.129053 0
M  V30 2462 H 227.15 -3.1287 -2.75986 0
M  V30 2463 H 225.78 -2.012 -2.52425 0
M  V30 2464 H 224.832 -3.71735 -0.807279 0
M  V30 2465 H 226.144 -4.82311 -1.27192 0
M  V30 2466 H 225.298 -4.86325 -3.62729 0
M  V30 2467 H 224.037 -3.66706 -3.21525 0
M  V30 2468 H 223.042 -5.2718 -1.56081 0
M  V30 2469 H 224.267 -6.49 -1.99938 0
M  V30 2470 H 222.213 -5.28188 -3.89042 0
M  V30 2471 H 222.13 -6.85961 -3.17794 0
M  V30 2472 H 223.398 -6.49515 -4.30988 0
M  V30 2473 N 227.627 0.131896 -1.57047 0
M  V30 2474 C 228.855 0.856461 -1.88341 0
M  V30 2475 C 229.27 1.74042 -0.731757 0
M  V30 2476 O 228.627 1.80051 0.297945 0
M  V30 2477 C 228.678 1.70064 -3.18999 0
M  V30 2478 O 228.399 0.852278 -4.2973 0
M  V30 2479 C 229.9 2.53148 -3.63911 0
M  V30 2480 H 227.12 0.246885 -0.62393 0
M  V30 2481 H 229.664 0.120152 -2.04147 0
M  V30 2482 H 227.819 2.38984 -3.04902 0
M  V30 2483 H 228.233 1.43329 -5.04537 0
M  V30 2484 H 229.707 3.07931 -4.58129 0
M  V30 2485 H 230.184 3.29901 -2.89935 0
M  V30 2486 H 230.79 1.89492 -3.80753 0
M  V30 2487 N 229.106 1.52395 0.401703 0
M  V30 2488 C 230.354 1.66488 1.14569 0
M  V30 2489 C 230.675 0.400897 1.90835 0
M  V30 2490 O 229.945 -0.584415 1.8698 0
M  V30 2491 H 228.525 0.613672 0.425929 0
M  V30 2492 H 231.187 1.89464 0.457093 0
M  V30 2493 H 230.283 2.50942 1.85566 0
M  V30 2494 N 230.584 -0.659388 1.43143 0
M  V30 2495 C 232 -0.974337 1.26407 0
M  V30 2496 C 232.2 -2.007 0.179341 0
M  V30 2497 O 231.256 -2.4856 -0.444295 0
M  V30 2498 C 232.569 -1.46447 2.62628 0
M  V30 2499 C 234.117 -1.58144 2.7011 0
M  V30 2500 C 234.592 -2.1055 4.06734 0
M  V30 2501 N 236.083 -2.17861 4.08767 0
M  V30 2502 C 236.818 -2.59519 5.1131 0
M  V30 2503 N 236.314 -3.00518 6.24228 0
M  V30 2504 N 238.107 -2.59404 4.98664 0
M  V30 2505 H 230.258 0.0240528 2.12386 0
M  V30 2506 H 232.521 -0.0518065 0.946583 0
M  V30 2507 H 232.227 -0.780123 3.42939 0
M  V30 2508 H 232.101 -2.44058 2.87603 0
M  V30 2509 H 234.488 -2.25682 1.90136 0
M  V30 2510 H 234.569 -0.589828 2.48907 0
M  V30 2511 H 234.213 -1.43616 4.87172 0
M  V30 2512 H 234.143 -3.10531 4.25298 0
M  V30 2513 H 236.634 -1.88975 3.27257 0
M  V30 2514 H 236.947 -3.31036 6.98309 0
M  V30 2515 H 235.292 -2.98337 6.2771 0
M  V30 2516 H 238.483 -2.26747 4.09516 0
M  V30 2517 H 238.656 -2.91548 5.78709 0
M  V30 2518 N 232.062 -1.29571 -0.897171 0
M  V30 2519 C 232.992 -1.17473 -2.01798 0
M  V30 2520 C 233.973 -0.068323 -1.69963 0
M  V30 2521 O 235.158 -0.248239 -1.92607 0
M  V30 2522 C 232.288 -0.853099 -3.36659 0
M  V30 2523 C 231.242 -1.9161 -3.82713 0
M  V30 2524 C 230.568 -1.44773 -5.14728 0
M  V30 2525 C 231.868 -3.32535 -4.02763 0
M  V30 2526 H 233.562 -2.11237 -2.12177 0
M  V30 2527 H 231.108 -1.01699 -1.01948 0
M  V30 2528 H 233.061 -0.755165 -4.14578 0
M  V30 2529 H 231.785 0.120236 -3.26379 0
M  V30 2530 H 230.444 -2.00346 -3.07013 0
M  V30 2531 H 230.092 -0.462995 -5.00865 0
M  V30 2532 H 229.792 -2.15865 -5.46513 0
M  V30 2533 H 231.316 -1.36334 -5.95185 0
M  V30 2534 H 232.73 -3.26626 -4.71156 0
M  V30 2535 H 231.127 -4.01607 -4.45905 0
M  V30 2536 H 232.197 -3.75326 -3.07016 0
M  V30 2537 N 233.54 1.10788 -1.12088 0
M  V30 2538 C 234.789 1.82036 -0.868659 0
M  V30 2539 C 235.102 1.85929 0.607426 0
M  V30 2540 O 236.308 2.53346 0.97613 0
M  V30 2541 C 234.764 3.26951 -1.50435 0
M  V30 2542 C 234.372 3.31367 -3.01496 0
M  V30 2543 C 236.116 4.03053 -1.33225 0
M  V30 2544 C 234.023 4.7072 -3.58017 0
M  V30 2545 H 232.953 0.682108 -0.321318 0
M  V30 2546 H 235.604 1.24618 -1.34694 0
M  V30 2547 H 233.986 3.84343 -0.953735 0
M  V30 2548 H 235.16 2.83819 -3.6302 0
M  V30 2549 H 233.475 2.6875 -3.18061 0
M  V30 2550 H 236.072 5.05981 -1.72878 0
M  V30 2551 H 236.415 4.15387 -0.275529 0
M  V30 2552 H 236.948 3.52066 -1.85188 0
M  V30 2553 H 233.687 4.63585 -4.63432 0
M  V30 2554 H 233.207 5.1865 -3.01268 0
M  V30 2555 H 234.886 5.39685 -3.56859 0
M  V30 2556 N 235.018 0.912232 1.28515 0
M  V30 2557 C 236.243 0.559774 1.99703 0
M  V30 2558 C 236.668 -0.851393 1.67729 0
M  V30 2559 O 236.026 -1.56875 0.908834 0
M  V30 2560 C 236.074 0.773874 3.52198 0
M  V30 2561 O 235.178 -0.167842 4.12058 0
M  V30 2562 H 234.519 0.21723 0.627461 0
M  V30 2563 H 237.049 1.22725 1.63706 0
M  V30 2564 H 237.059 0.683386 4.02236 0
M  V30 2565 H 235.734 1.80261 3.74805 0
M  V30 2566 H 234.311 -0.0287509 3.72889 0
M  V30 2567 N 236.496 -1.42363 0.676048 0
M  V30 2568 C 237.426 -2.33497 0.0124832 0
M  V30 2569 C 238.407 -1.50748 -0.787981 0
M  V30 2570 O 239.592 -1.79346 -0.744884 0
M  V30 2571 C 236.722 -3.34377 -0.938582 0
M  V30 2572 C 235.676 -4.27289 -0.246622 0
M  V30 2573 C 235.002 -5.18386 -1.31071 0
M  V30 2574 C 236.302 -5.14916 0.875125 0
M  V30 2575 H 237.996 -2.89233 0.773593 0
M  V30 2576 H 235.542 -1.39073 0.37346 0
M  V30 2577 H 237.495 -3.97044 -1.41188 0
M  V30 2578 H 236.219 -2.76947 -1.73113 0
M  V30 2579 H 234.878 -3.66018 0.206456 0
M  V30 2580 H 234.526 -4.57282 -2.09528 0
M  V30 2581 H 234.226 -5.81378 -0.852839 0
M  V30 2582 H 235.75 -5.83929 -1.78492 0
M  V30 2583 H 237.164 -5.71262 0.482983 0
M  V30 2584 H 235.561 -5.86747 1.25887 0
M  V30 2585 H 236.631 -4.53242 1.72335 0
M  V30 2586 N 237.974 -0.419461 -1.51915 0
M  V30 2587 C 239.199 0.154572 -2.06823 0
M  V30 2588 C 239.624 1.3722 -1.28656 0
M  V30 2589 O 238.982 1.78461 -0.319583 0
M  V30 2590 C 239.03 0.473172 -3.57482 0
M  V30 2591 O 238.134 1.56255 -3.81652 0
M  V30 2592 H 237.475 0.0096924 -0.663929 0
M  V30 2593 H 240.005 -0.595642 -1.95738 0
M  V30 2594 H 240.015 0.728825 -4.01438 0
M  V30 2595 H 238.69 -0.416873 -4.13805 0
M  V30 2596 H 237.267 1.29825 -3.49571 0
M  V30 2597 N 239.452 1.56882 -0.150215 0
M  V30 2598 C 240.362 2.20494 0.801222 0
M  V30 2599 C 241.378 1.19019 1.26927 0
M  V30 2600 O 242.554 1.51607 1.32579 0
M  V30 2601 C 239.619 2.81659 2.02161 0
M  V30 2602 C 238.68 3.9827 1.60249 0
M  V30 2603 C 237.913 4.56508 2.7647 0
M  V30 2604 O 238.136 4.13627 3.92771 0
M  V30 2605 O 237.07 5.46719 2.51757 0
M  V30 2606 H 240.896 3.02315 0.289717 0
M  V30 2607 H 238.481 1.49202 0.0769684 0
M  V30 2608 H 240.363 3.20522 2.73576 0
M  V30 2609 H 239.038 2.02849 2.52258 0
M  V30 2610 H 237.945 3.64117 0.858477 0
M  V30 2611 H 239.278 4.78609 1.14864 0
M  V30 2612 N 240.93 -0.123565 1.57115 0
M  V30 2613 C 241.862 -1.17739 1.96648 0
M  V30 2614 C 242.875 -1.37906 0.865201 0
M  V30 2615 O 244.064 -1.37062 1.14351 0
M  V30 2616 C 241.164 -2.53821 2.24562 0
M  V30 2617 C 240.337 -2.54317 3.55867 0
M  V30 2618 C 239.396 -3.72112 3.72047 0
M  V30 2619 O 238.422 -3.55907 4.44206 0
M  V30 2620 N 239.624 -4.90498 3.10471 0
M  V30 2621 H 242.389 -0.841147 2.87654 0
M  V30 2622 H 239.95 -0.31289 1.58848 0
M  V30 2623 H 241.942 -3.31175 2.32606 0
M  V30 2624 H 240.512 -2.79645 1.39705 0
M  V30 2625 H 239.732 -1.62711 3.59053 0
M  V30 2626 H 241.02 -2.51701 4.42181 0
M  V30 2627 H 240.418 -5.06567 2.51806 0
M  V30 2628 H 238.975 -5.65544 3.24043 0
M  V30 2629 N 242.408 -1.52605 -0.393616 0
M  V30 2630 C 243.356 -1.77688 -1.50099 0
M  V30 2631 C 244.35 -0.644615 -1.56656 0
M  V30 2632 O 245.556 -0.826997 -1.59877 0
M  V30 2633 H 241.931 -0.562159 -0.499481 0
M  V30 2634 H 243.902 -2.7043 -1.26135 0
M  V30 2635 C 242.651 -1.95858 -2.87289 0
M  V30 2636 H 241.974 -2.8241 -2.82992 0
M  V30 2637 H 243.414 -2.174 -3.64024 0
M  V30 2638 C 241.873 -0.729848 -3.28899 0
M  V30 2639 O 242.403 0.0949217 -4.01588 0
M  V30 2640 N 240.609 -0.561283 -2.85128 0
M  V30 2641 H 240.156 -1.23357 -2.26143 0
M  V30 2642 H 240.114 0.2595 -3.13327 0
M  V30 2643 N 243.887 0.651787 -1.4349 0
M  V30 2644 C 244.817 1.77621 -1.51569 0
M  V30 2645 C 245.798 1.66022 -0.370253 0
M  V30 2646 O 246.983 1.85095 -0.587658 0
M  V30 2647 C 244.113 3.16056 -1.43966 0
M  V30 2648 C 243.067 3.4242 -2.56774 0
M  V30 2649 C 242.393 4.8067 -2.34223 0
M  V30 2650 C 243.693 3.37023 -3.99015 0
M  V30 2651 H 245.387 1.71117 -2.45681 0
M  V30 2652 H 242.933 0.821825 -1.18246 0
M  V30 2653 H 244.886 3.94472 -1.48221 0
M  V30 2654 H 243.61 3.23293 -0.463586 0
M  V30 2655 H 242.269 2.66375 -2.51873 0
M  V30 2656 H 241.917 4.84585 -1.34856 0
M  V30 2657 H 241.617 4.9927 -3.09844 0
M  V30 2658 H 243.141 5.61342 -2.40265 0
M  V30 2659 H 244.555 4.05374 -4.05395 0
M  V30 2660 H 242.952 3.67159 -4.74673 0
M  V30 2661 H 244.022 2.3518 -4.2405 0
M  V30 2662 N 245.365 1.30045 0.890287 0
M  V30 2663 C 246.611 1.18737 1.64406 0
M  V30 2664 C 246.944 -0.258525 1.92472 0
M  V30 2665 O 246.219 -1.18562 1.54186 0
M  V30 2666 C 246.502 2.01087 2.98724 0
M  V30 2667 C 246.355 3.53867 2.77665 0
M  V30 2668 C 247.674 1.84457 3.9958 0
M  V30 2669 H 244.793 0.432698 0.596608 0
M  V30 2670 H 247.435 1.5962 1.0306 0
M  V30 2671 H 245.585 1.66349 3.51084 0
M  V30 2672 H 247.257 3.98637 2.32133 0
M  V30 2673 H 245.5 3.78318 2.12269 0
M  V30 2674 H 246.171 4.06772 3.7315 0
M  V30 2675 H 248.647 2.14817 3.56361 0
M  V30 2676 H 247.523 2.44411 4.91482 0
M  V30 2677 H 247.784 0.802276 4.3476 0
M  V30 2678 N 246.843 -1.10192 1.12674 0
M  V30 2679 C 248.12 -1.78717 0.794965 0
M  V30 2680 C 248.5 -1.98628 -0.714853 0
M  V30 2681 O 247.848 -1.58135 -1.64941 0
M  V30 2682 C 248.058 -3.11546 1.5729 0
M  V30 2683 C 249.406 -3.86382 1.76052 0
M  V30 2684 O 250.43 -3.21274 1.53823 0
M  V30 2685 O 249.289 -5.03246 2.13087 0
M  V30 2686 H 246.383 -0.774702 0.289423 0
M  V30 2687 H 248.929 -1.16819 1.23091 0
M  V30 2688 H 247.701 -2.92489 2.59935 0
M  V30 2689 H 247.324 -3.81164 1.13137 0
M  V30 2690 N 248.321 -0.919034 -1.28029 0
M  V30 2691 C 249.561 -0.562107 -1.96519 0
M  V30 2692 C 249.925 0.878784 -1.70708 0
M  V30 2693 O 251.126 1.34355 -2.32813 0
M  V30 2694 C 249.397 -0.868953 -3.46676 0
M  V30 2695 S 250.956 -0.619237 -4.34409 0
M  V30 2696 H 247.774 -0.2078 -0.679956 0
M  V30 2697 H 250.376 -1.18562 -1.55446 0
M  V30 2698 H 249.08 -1.91547 -3.62957 0
M  V30 2699 H 248.611 -0.234301 -3.92702 0
M  V30 2700 H 250.626 0.526995 -4.93394 0
M  V30 2701 N 249.799 1.42003 -0.683588 0
M  V30 2702 C 251.024 2.06265 -0.216647 0
M  V30 2703 C 251.449 1.51059 1.12083 0
M  V30 2704 O 250.807 0.632638 1.69904 0
M  V30 2705 C 250.855 3.60191 -0.171759 0
M  V30 2706 O 249.959 4.03396 0.857069 0
M  V30 2707 H 249.3 0.65502 -0.108834 0
M  V30 2708 H 251.83 1.81982 -0.935077 0
M  V30 2709 H 251.84 4.08 0.0014303 0
M  V30 2710 H 250.515 3.99743 -1.14796 0
M  V30 2711 H 249.092 3.67117 0.654208 0
M  V30 2712 N 251.277 0.427512 1.51691 0
M  V30 2713 C 252.525 -0.141948 2.01601 0
M  V30 2714 C 252.846 -1.44067 1.31414 0
M  V30 2715 O 252.116 -1.90763 0.445658 0
M  V30 2716 H 250.696 -0.0554468 0.744939 0
M  V30 2717 H 253.358 0.567968 1.86441 0
M  V30 2718 H 252.454 -0.324913 3.10404 0
M  V30 2719 N 252.755 -1.56801 0.158532 0
M  V30 2720 C 254.166 -1.83189 -0.360366 0
M  V30 2721 C 254.517 -1.07778 -1.63946 0
M  V30 2722 O 253.642 -0.326718 -2.13919 0
M  V30 2723 C 254.237 -3.32297 -0.660595 0
M  V30 2724 C 252.796 -3.59227 -1.12398 0
M  V30 2725 C 251.943 -2.76877 -0.153097 0
M  V30 2726 H 254.894 -1.54008 0.383031 0
M  V30 2727 H 254.915 -3.4908 -1.51405 0
M  V30 2728 H 254.427 -3.87156 0.270527 0
M  V30 2729 H 252.528 -3.09766 -2.07064 0
M  V30 2730 H 252.641 -4.67632 -1.04197 0
M  V30 2731 H 251.005 -2.46319 -0.647983 0
M  V30 2732 H 251.788 -3.34511 0.77182 0
M  V30 2733 N 254.233 0.115231 -1.57178 0
M  V30 2734 C 255.165 1.16694 -1.97269 0
M  V30 2735 C 256.178 1.37445 -0.872502 0
M  V30 2736 O 257.367 1.36454 -1.15077 0
M  V30 2737 C 254.467 2.52627 -2.25905 0
M  V30 2738 C 253.64 2.52427 -3.57211 0
M  V30 2739 C 252.699 3.70134 -3.74016 0
M  V30 2740 O 251.725 3.53546 -4.46087 0
M  V30 2741 N 252.927 4.88844 -3.13068 0
M  V30 2742 H 255.692 0.82588 -2.88096 0
M  V30 2743 H 253.253 0.304461 -1.59011 0
M  V30 2744 H 255.245 3.29937 -2.34359 0
M  V30 2745 H 253.815 2.789 -1.41186 0
M  V30 2746 H 253.035 1.60805 -3.5991 0
M  V30 2747 H 254.323 2.49353 -4.43509 0
M  V30 2748 H 253.721 5.05225 -2.54489 0
M  V30 2749 H 252.278 5.63817 -3.27037 0
M  V30 2750 N 255.711 1.52812 0.385517 0
M  V30 2751 C 256.959 1.67694 1.12797 0
M  V30 2752 C 257.28 0.421115 1.90399 0
M  V30 2753 O 256.55 -0.564551 1.87589 0
M  V30 2754 H 255.13 0.618155 0.419396 0
M  V30 2755 H 257.792 1.89938 0.436972 0
M  V30 2756 H 256.888 2.52896 1.82894 0
M  V30 2757 N 257.189 -0.644168 1.43834 0
M  V30 2758 C 258.137 -1.77793 1.49974 0
M  V30 2759 C 259.131 -1.65253 0.372536 0
M  V30 2760 O 260.337 -1.7149 0.546924 0
M  V30 2761 H 256.712 -0.58675 0.47035 0
M  V30 2762 H 258.683 -1.69736 2.45423 0
M  V30 2763 C 257.432 -3.16087 1.4486 0
M  V30 2764 H 256.755 -3.26378 2.30905 0
M  V30 2765 H 258.195 -3.95349 1.53217 0
M  V30 2766 C 256.654 -3.36484 0.167463 0
M  V30 2767 O 257.184 -3.94298 -0.767609 0
M  V30 2768 N 255.39 -2.90504 0.0747556 0
M  V30 2769 H 254.937 -2.4364 0.836507 0
M  V30 2770 H 254.895 -3.04527 -0.781714 0
M  V30 2771 N 258.668 -1.30515 -0.883378 0
M  V30 2772 C 259.578 -1.18959 -2.02203 0
M  V30 2773 C 260.594 -0.109172 -1.73657 0
M  V30 2774 O 261.77 -0.324413 -1.9877 0
M  V30 2775 C 258.835 -0.883871 -3.35244 0
M  V30 2776 C 257.896 -2.04982 -3.77201 0
M  V30 2777 C 257.129 -1.75859 -5.03894 0
M  V30 2778 O 257.352 -0.687276 -5.66244 0
M  V30 2779 O 256.286 -2.61146 -5.42297 0
M  V30 2780 H 260.112 -2.14616 -2.1488 0
M  V30 2781 H 257.697 -1.10124 -1.0096 0
M  V30 2782 H 259.579 -0.728644 -4.15053 0
M  V30 2783 H 258.254 0.0427798 -3.23672 0
M  V30 2784 H 257.161 -2.26038 -2.9809 0
M  V30 2785 H 258.494 -2.95825 -3.93381 0
M  V30 2786 N 260.146 1.09593 -1.13257 0
M  V30 2787 C 261.394 1.81375 -0.891492 0
M  V30 2788 C 261.715 1.86049 0.584009 0
M  V30 2789 O 260.985 1.34481 1.42449 0
M  V30 2790 H 259.565 0.671708 -0.326828 0
M  V30 2791 H 262.227 1.3256 -1.42877 0
M  V30 2792 H 261.323 2.84612 -1.28071 0
M  V30 2793 N 261.624 0.925811 1.2754 0
M  V30 2794 C 262.864 0.572521 1.96218 0
M  V30 2795 C 263.228 -0.869719 1.71172 0
M  V30 2796 O 264.429 -1.33119 2.33523 0
M  V30 2797 C 262.7 0.887325 3.4621 0
M  V30 2798 S 264.259 0.642266 4.34074 0
M  V30 2799 H 261.077 0.211403 0.678845 0
M  V30 2800 H 263.679 1.19384 1.54815 0
M  V30 2801 H 262.383 1.93469 3.61936 0
M  V30 2802 H 261.914 0.255123 3.92572 0
M  V30 2803 H 263.929 -0.500822 4.93666 0
M  V30 2804 N 263.102 -1.41638 0.69111 0
M  V30 2805 C 264.05 -2.32597 0.0115199 0
M  V30 2806 C 265.044 -1.5072 -0.773296 0
M  V30 2807 O 266.25 -1.66685 -0.67942 0
M  V30 2808 H 262.625 -0.751849 -0.0150746 0
M  V30 2809 H 264.596 -2.87593 0.795791 0
M  V30 2810 C 263.345 -3.35467 -0.914172 0
M  V30 2811 H 262.668 -3.9852 -0.319687 0
M  V30 2812 H 264.108 -4.01662 -1.35808 0
M  V30 2813 C 262.567 -2.69004 -2.02826 0
M  V30 2814 O 263.097 -2.53444 -3.11655 0
M  V30 2815 N 261.303 -2.2777 -1.80469 0
M  V30 2816 H 260.85 -2.40626 -0.919615 0
M  V30 2817 H 260.808 -1.83635 -2.55197 0
M  V30 2818 N 264.58 -0.43555 -1.51462 0
M  V30 2819 C 265.828 0.131254 -2.01673 0
M  V30 2820 C 266.149 1.43368 -1.32177 0
M  V30 2821 O 265.419 1.90524 -0.455769 0
M  V30 2822 H 263.999 0.0514954 -0.745223 0
M  V30 2823 H 266.661 -0.577847 -1.86137 0
M  V30 2824 H 265.757 0.308446 -3.10572 0
M  V30 2825 N 266.058 1.56714 -0.166846 0
M  V30 2826 C 267.306 1.96358 0.478305 0
M  V30 2827 C 267.627 1.0537 1.6408 0
M  V30 2828 O 266.897 0.119154 1.95537 0
M  V30 2829 H 265.477 0.725065 0.179692 0
M  V30 2830 H 268.139 1.93329 -0.246985 0
M  V30 2831 H 267.235 3.00547 0.841292 0
M  V30 2832 N 267.536 -0.106894 1.57237 0
M  V30 2833 C 268.466 -1.13148 2.04254 0
M  V30 2834 C 269.447 -1.42476 0.929224 0
M  V30 2835 O 270.632 -1.52709 1.19973 0
M  V30 2836 C 267.762 -2.4545 2.45706 0
M  V30 2837 C 266.716 -2.30558 3.60592 0
M  V30 2838 C 266.042 -3.67931 3.87983 0
M  V30 2839 C 267.342 -1.75597 4.91897 0
M  V30 2840 H 269.036 -0.740374 2.90101 0
M  V30 2841 H 266.582 -0.354696 1.39563 0
M  V30 2842 H 268.535 -3.17389 2.77205 0
M  V30 2843 H 267.259 -2.86475 1.56843 0
M  V30 2844 H 265.918 -1.61067 3.29322 0
M  V30 2845 H 265.566 -4.06462 2.96306 0
M  V30 2846 H 265.266 -3.58817 4.65322 0
M  V30 2847 H 266.79 -4.41356 4.21945 0
M  V30 2848 H 268.204 -2.37364 5.21854 0
M  V30 2849 H 266.601 -1.77272 5.73319 0
M  V30 2850 H 267.671 -0.714451 4.79608 0
M  V30 2851 N 269.014 -1.53014 -0.377408 0
M  V30 2852 C 269.947 -1.73382 -1.48371 0
M  V30 2853 C 270.925 -0.581879 -1.51832 0
M  V30 2854 O 272.109 -0.81307 -1.70063 0
M  V30 2855 C 269.236 -1.80192 -2.8679 0
M  V30 2856 C 268.282 -3.02056 -3.01105 0
M  V30 2857 S 269.115 -4.61811 -2.71093 0
M  V30 2858 C 270.271 -4.71453 -4.11683 0
M  V30 2859 H 270.504 -2.66946 -1.30872 0
M  V30 2860 H 268.037 -1.43453 -0.571012 0
M  V30 2861 H 269.995 -1.84802 -3.6655 0
M  V30 2862 H 268.656 -0.877008 -3.01608 0
M  V30 2863 H 267.849 -3.03396 -4.02451 0
M  V30 2864 H 267.451 -2.95498 -2.29253 0
M  V30 2865 H 269.743 -4.50781 -5.0577 0
M  V30 2866 H 270.686 -5.73487 -4.15353 0
M  V30 2867 H 271.094 -4.00189 -3.98132 0
M  V30 2868 N 270.492 0.636531 -1.44174 0
M  V30 2869 C 271.769 1.39463 -1.37148 0
M  V30 2870 C 272.149 2.11082 -0.027507 0
M  V30 2871 O 271.497 2.05954 0.989716 0
M  V30 2872 C 271.707 2.36552 -2.56601 0
M  V30 2873 C 273.055 3.00048 -3.00427 0
M  V30 2874 O 274.079 2.46878 -2.56767 0
M  V30 2875 O 272.938 3.96488 -3.76111 0
M  V30 2876 H 270.032 0.623903 -0.542839 0
M  V30 2877 H 272.578 0.662039 -1.56253 0
M  V30 2878 H 271.35 1.82692 -3.46034 0
M  V30 2879 H 270.973 3.17236 -2.39681 0
M  V30 2880 N 271.97 1.30982 0.876444 0
M  V30 2881 C 273.2 1.23063 1.65949 0
M  V30 2882 C 273.608 -0.207537 1.88058 0
M  V30 2883 O 272.951 -1.14781 1.43426 0
M  V30 2884 C 273.013 1.89768 3.05333 0
M  V30 2885 C 272.677 3.39106 3.0636 0
M  V30 2886 C 273.674 4.3496 2.84791 0
M  V30 2887 C 271.359 3.80693 3.27686 0
M  V30 2888 C 273.353 5.70375 2.84519 0
M  V30 2889 C 271.04 5.16223 3.27043 0
M  V30 2890 C 272.038 6.10875 3.05485 0
M  V30 2891 O 271.726 7.43928 3.04674 0
M  V30 2892 H 271.458 0.426685 0.524324 0
M  V30 2893 H 274.012 1.7329 1.10271 0
M  V30 2894 H 272.242 1.34082 3.6271 0
M  V30 2895 H 273.931 1.75853 3.65829 0
M  V30 2896 H 274.697 4.0416 2.68103 0
M  V30 2897 H 270.576 3.07457 3.43499 0
M  V30 2898 H 274.12 6.44228 2.67611 0
M  V30 2899 H 270.017 5.4666 3.43269 0
M  V30 2900 H 270.785 7.53022 3.2078 0
M  V30 2901 N 273.449 -1.08991 1.13837 0
M  V30 2902 C 274.412 -2.13925 0.822715 0
M  V30 2903 C 275.412 -1.599 -0.1699 0
M  V30 2904 O 276.602 -1.74104 0.0577251 0
M  V30 2905 C 273.734 -3.40155 0.225318 0
M  V30 2906 H 274.927 -2.43358 1.75262 0
M  V30 2907 H 272.48 -1.24603 0.943594 0
M  V30 2908 H 273.215 -3.16352 -0.713594 0
M  V30 2909 H 273 -3.80661 0.940193 0
M  V30 2910 H 274.49 -4.17594 0.0214784 0
M  V30 2911 N 274.927 -0.932562 -1.27047 0
M  V30 2912 C 276.174 -0.575559 -1.94148 0
M  V30 2913 C 276.502 0.883984 -1.73251 0
M  V30 2914 O 275.757 1.64655 -1.0577 0
M  V30 2915 C 276.056 -0.853713 -3.47054 0
M  V30 2916 C 275.722 -2.29577 -3.88079 0
M  V30 2917 C 274.384 -2.68999 -3.9899 0
M  V30 2918 C 276.736 -3.23331 -4.08787 0
M  V30 2919 C 274.064 -4.01289 -4.28 0
M  V30 2920 C 276.416 -4.55207 -4.39282 0
M  V30 2921 C 275.08 -4.94457 -4.48407 0
M  V30 2922 H 274.35 -0.210612 -0.710439 0
M  V30 2923 H 276.997 -1.17744 -1.51025 0
M  V30 2924 H 275.302 -0.169204 -3.91434 0
M  V30 2925 H 276.999 -0.55639 -3.97121 0
M  V30 2926 H 273.589 -1.97994 -3.80127 0
M  V30 2927 H 277.773 -2.94074 -3.99793 0
M  V30 2928 H 273.029 -4.31374 -4.33275 0
M  V30 2929 H 277.203 -5.27852 -4.54252 0
M  V30 2930 H 274.83 -5.96994 -4.7064 0
M  V30 2931 N 276.405 1.4127 -0.698611 0
M  V30 2932 C 277.337 2.292 0.00399731 0
M  V30 2933 C 278.35 1.44944 0.741279 0
M  V30 2934 O 279.539 1.68416 0.591477 0
M  V30 2935 C 276.639 3.22875 1.02979 0
M  V30 2936 C 275.812 4.35904 0.36151 0
M  V30 2937 C 274.871 5.10134 1.29033 0
M  V30 2938 O 273.897 5.63809 0.781562 0
M  V30 2939 N 275.099 5.17885 2.6225 0
M  V30 2940 H 277.864 2.9014 -0.750921 0
M  V30 2941 H 275.425 1.52455 -0.544882 0
M  V30 2942 H 277.417 3.69404 1.65296 0
M  V30 2943 H 275.987 2.63221 1.68622 0
M  V30 2944 H 275.207 3.91719 -0.441584 0
M  V30 2945 H 276.495 5.08696 -0.103055 0
M  V30 2946 H 275.893 4.7573 3.061 0
M  V30 2947 H 274.45 5.6798 3.19754 0
M  V30 2948 N 277.883 0.443576 1.51229 0
M  V30 2949 C 279.113 -0.119117 2.06256 0
M  V30 2950 C 279.521 -1.36471 1.31043 0
M  V30 2951 O 278.864 -1.80034 0.365151 0
M  V30 2952 C 278.926 -0.500546 3.55998 0
M  V30 2953 C 278.59 0.639125 4.52509 0
M  V30 2954 C 279.587 1.51311 4.97394 0
M  V30 2955 C 277.272 0.821632 4.95535 0
M  V30 2956 C 279.266 2.55425 5.83984 0
M  V30 2957 C 276.953 1.86603 5.81913 0
M  V30 2958 C 277.951 2.73072 6.26036 0
M  V30 2959 O 277.639 3.75718 7.10698 0
M  V30 2960 H 277.371 -0.00857665 0.675946 0
M  V30 2961 H 279.925 0.623288 1.95715 0
M  V30 2962 H 278.155 -1.29575 3.64345 0
M  V30 2963 H 279.844 -0.995116 3.93513 0
M  V30 2964 H 280.61 1.38367 4.64844 0
M  V30 2965 H 276.489 0.158149 4.60729 0
M  V30 2966 H 280.033 3.22949 6.18344 0
M  V30 2967 H 275.93 1.99564 6.13876 0
M  V30 2968 H 276.698 3.72374 7.2889 0
M  V30 2969 N 279.361 -1.56624 0.175154 0
M  V30 2970 C 280.607 -1.9729 -0.469506 0
M  V30 2971 C 280.94 -1.06128 -1.62636 0
M  V30 2972 O 280.215 -0.109183 -1.94193 0
M  V30 2973 C 280.498 -3.47375 -0.948804 0
M  V30 2974 C 280.351 -4.49317 0.208491 0
M  V30 2975 C 281.67 -4.00652 -1.82116 0
M  V30 2976 H 278.789 -0.717317 -0.16919 0
M  V30 2977 H 281.431 -1.88184 0.262062 0
M  V30 2978 H 279.581 -3.55267 -1.57219 0
M  V30 2979 H 281.253 -4.53482 0.845682 0
M  V30 2980 H 279.496 -4.25121 0.863395 0
M  V30 2981 H 280.167 -5.51741 -0.169059 0
M  V30 2982 H 282.643 -3.95416 -1.2956 0
M  V30 2983 H 281.519 -5.06075 -2.12554 0
M  V30 2984 H 281.78 -3.44699 -2.7683 0
M  V30 2985 N 280.839 0.0985539 -1.57292 0
M  V30 2986 C 281.771 1.14595 -1.98496 0
M  V30 2987 C 282.784 1.36512 -0.887031 0
M  V30 2988 O 283.973 1.35225 -1.16518 0
M  V30 2989 C 281.073 2.50216 -2.28572 0
M  V30 2990 C 280.246 2.48624 -3.59868 0
M  V30 2991 C 279.305 3.66146 -3.7792 0
M  V30 2992 O 278.331 3.48795 -4.49812 0
M  V30 2993 N 279.533 4.85496 -3.18235 0
M  V30 2994 H 282.298 0.795277 -2.88956 0
M  V30 2995 H 279.859 0.287579 -1.59325 0
M  V30 2996 H 281.851 3.27432 -2.37845 0
M  V30 2997 H 280.421 2.77387 -1.44136 0
M  V30 2998 H 279.641 1.56978 -3.61596 0
M  V30 2999 H 280.929 2.44635 -4.46129 0
M  V30 3000 H 280.327 5.02497 -2.59833 0
M  V30 3001 H 278.884 5.60317 -3.32999 0
M  V30 3002 N 282.317 1.53212 0.369288 0
M  V30 3003 C 283.594 1.59815 1.12776 0
M  V30 3004 C 283.974 0.403402 2.0721 0
M  V30 3005 O 283.322 -0.606667 2.20299 0
M  V30 3006 C 283.532 2.94664 1.87013 0
M  V30 3007 C 284.88 3.49109 2.41677 0
M  V30 3008 O 285.904 2.96669 1.97144 0
M  V30 3009 O 284.763 4.40775 3.23079 0
M  V30 3010 H 281.857 0.645376 0.517125 0
M  V30 3011 H 284.403 1.65553 0.37285 0
M  V30 3012 H 283.175 3.73061 1.18071 0
M  V30 3013 H 282.798 2.92401 2.69421 0
M  V30 3014 N 283.795 -0.628877 1.44509 0
M  V30 3015 C 284.743 -1.76193 1.51852 0
M  V30 3016 C 285.737 -1.64849 0.390042 0
M  V30 3017 O 286.943 -1.709 0.565082 0
M  V30 3018 H 283.318 -0.581728 0.476547 0
M  V30 3019 H 285.289 -1.67123 2.47209 0
M  V30 3020 C 284.038 -3.14533 1.48204 0
M  V30 3021 H 283.361 -3.23911 2.34354 0
M  V30 3022 H 284.801 -3.93701 1.57402 0
M  V30 3023 C 283.26 -3.36287 0.203142 0
M  V30 3024 O 283.79 -3.9509 -0.725745 0
M  V30 3025 N 281.996 -2.90408 0.105563 0
M  V30 3026 H 281.543 -2.42739 0.862301 0
M  V30 3027 H 281.501 -3.05339 -0.749371 0
M  V30 3028 N 285.273 -1.31445 -0.869486 0
M  V30 3029 C 286.521 -1.20918 -1.61936 0
M  V30 3030 C 286.842 0.232683 -1.93607 0
M  V30 3031 O 286.112 1.15352 -1.58338 0
M  V30 3032 H 284.692 -0.44454 -0.600328 0
M  V30 3033 H 287.354 -1.64776 -1.0409 0
M  V30 3034 H 286.45 -1.78124 -2.56278 0
M  V30 3035 N 286.751 1.08385 -1.14413 0
M  V30 3036 C 287.999 1.80419 -0.910679 0
M  V30 3037 C 288.32 1.86658 0.564243 0
M  V30 3038 O 287.59 1.35985 1.41014 0
M  V30 3039 H 286.17 0.668204 -0.333934 0
M  V30 3040 H 288.832 1.31037 -1.44275 0
M  V30 3041 H 287.928 2.83238 -1.31082 0
M  V30 3042 N 288.23 0.939286 1.26551 0
M  V30 3043 C 289.16 0.465044 2.28822 0
M  V30 3044 C 290.141 -0.480692 1.63167 0
M  V30 3045 O 291.326 -0.382955 1.90387 0
M  V30 3046 C 288.456 -0.27234 3.46231 0
M  V30 3047 C 287.41 0.58666 4.2396 0
M  V30 3048 C 286.736 -0.280573 5.33963 0
M  V30 3049 C 288.036 1.85704 4.88171 0
M  V30 3050 H 289.73 1.31979 2.68741 0
M  V30 3051 H 287.276 0.636061 1.29191 0
M  V30 3052 H 289.229 -0.615133 4.16886 0
M  V30 3053 H 287.953 -1.16121 3.0526 0
M  V30 3054 H 286.612 0.91232 3.55067 0
M  V30 3055 H 286.26 -1.16874 4.89234 0
M  V30 3056 H 285.96 0.29076 5.8688 0
M  V30 3057 H 287.484 -0.618678 6.07458 0
M  V30 3058 H 288.898 1.58161 5.51052 0
M  V30 3059 H 287.295 2.37279 5.51197 0
M  V30 3060 H 288.365 2.56957 4.11219 0
M  V30 3061 N 289.708 -1.40897 0.706093 0
M  V30 3062 C 290.985 -1.94868 0.169099 0
M  V30 3063 C 291.365 -1.64485 -1.32318 0
M  V30 3064 O 290.713 -0.95744 -2.07474 0
M  V30 3065 C 290.923 -3.45798 0.471654 0
M  V30 3066 C 292.271 -4.22663 0.405127 0
M  V30 3067 O 293.295 -3.53865 0.407168 0
M  V30 3068 O 292.154 -5.45216 0.374383 0
M  V30 3069 H 289.248 -0.82673 0.0211352 0
M  V30 3070 H 291.794 -1.50558 0.782976 0
M  V30 3071 H 290.566 -3.61235 1.50416 0
M  V30 3072 H 290.189 -3.97225 -0.172666 0
M  V30 3073 N 291.186 -0.45159 -1.50991 0
M  V30 3074 C 292.411 0.110667 -2.07105 0
M  V30 3075 C 292.836 1.3446 -1.31538 0
M  V30 3076 O 292.194 1.77743 -0.357365 0
M  V30 3077 C 292.242 0.397238 -3.58405 0
M  V30 3078 O 291.346 1.48124 -3.84881 0
M  V30 3079 H 290.687 -0.00439271 -0.663985 0
M  V30 3080 H 293.217 -0.637026 -1.9443 0
M  V30 3081 H 293.227 0.64351 -4.02893 0
M  V30 3082 H 291.902 -0.504553 -4.12828 0
M  V30 3083 H 290.479 1.22381 -3.52246 0
M  V30 3084 N 292.664 1.56529 -0.183458 0
M  V30 3085 C 293.574 2.22144 0.754272 0
M  V30 3086 C 294.59 1.21684 1.24374 0
M  V30 3087 O 295.766 1.54385 1.29333 0
M  V30 3088 C 292.831 2.85884 1.96141 0
M  V30 3089 C 291.892 4.01579 1.51765 0
M  V30 3090 C 291.125 4.6227 2.66725 0
M  V30 3091 O 291.348 4.21865 3.83909 0
M  V30 3092 O 290.282 5.51936 2.40104 0
M  V30 3093 H 294.108 3.02861 0.225527 0
M  V30 3094 H 291.693 1.49331 0.0453032 0
M  V30 3095 H 293.575 3.26253 2.66715 0
M  V30 3096 H 292.25 2.08154 2.47899 0
M  V30 3097 H 291.157 3.65856 0.781049 0
M  V30 3098 H 292.49 4.80938 1.04686 0
M  V30 3099 N 294.142 -0.090211 1.57342 0
M  V30 3100 C 295.052 -1.12735 2.05738 0
M  V30 3101 C 296.068 -1.43557 0.983231 0
M  V30 3102 O 297.244 -1.54101 1.29672 0
M  V30 3103 C 294.309 -2.42659 2.47624 0
M  V30 3104 C 293.37 -2.18975 3.69254 0
M  V30 3105 C 292.603 -3.42704 4.09133 0
M  V30 3106 O 292.826 -4.51127 3.49057 0
M  V30 3107 O 291.76 -3.32003 5.02053 0
M  V30 3108 H 295.586 -0.746279 2.94388 0
M  V30 3109 H 293.171 -0.303064 1.46294 0
M  V30 3110 H 295.053 -3.19155 2.7517 0
M  V30 3111 H 293.728 -2.80182 1.62109 0
M  V30 3112 H 292.635 -1.40244 3.46818 0
M  V30 3113 H 293.968 -1.86342 4.55563 0
M  V30 3114 N 295.62 -1.53406 -0.361157 0
M  V30 3115 C 296.845 -1.74024 -1.12829 0
M  V30 3116 C 297.27 -0.470069 -1.82132 0
M  V30 3117 O 296.628 0.57619 -1.719 0
M  V30 3118 C 296.676 -2.90903 -2.13091 0
M  V30 3119 O 295.78 -2.59821 -3.20261 0
M  V30 3120 H 295.121 -0.577804 -0.327168 0
M  V30 3121 H 297.651 -2.00307 -0.41693 0
M  V30 3122 H 297.661 -3.17194 -2.56616 0
M  V30 3123 H 296.336 -3.83034 -1.62042 0
M  V30 3124 H 294.913 -2.44362 -2.81677 0
M  V30 3125 N 297.098 0.621204 -1.44841 0
M  V30 3126 C 298.328 1.40548 -1.51426 0
M  V30 3127 C 298.736 1.88673 -0.141083 0
M  V30 3128 O 298.079 1.62053 0.865128 0
M  V30 3129 C 298.141 2.65325 -2.42576 0
M  V30 3130 C 297.805 2.3893 -3.89566 0
M  V30 3131 C 298.802 2.00138 -4.79834 0
M  V30 3132 C 296.487 2.52263 -4.3436 0
M  V30 3133 C 298.481 1.75021 -6.129 0
M  V30 3134 C 296.168 2.2676 -5.67471 0
M  V30 3135 C 297.166 1.88199 -6.56559 0
M  V30 3136 O 296.854 1.62986 -7.87204 0
M  V30 3137 H 296.586 0.437122 -0.515655 0
M  V30 3138 H 299.14 0.765987 -1.90583 0
M  V30 3139 H 297.37 3.31947 -1.98364 0
M  V30 3140 H 299.059 3.27347 -2.39998 0
M  V30 3141 H 299.825 1.89386 -4.46495 0
M  V30 3142 H 295.704 2.81246 -3.65269 0
M  V30 3143 H 299.248 1.44848 -6.82396 0
M  V30 3144 H 295.145 2.37125 -6.00368 0
M  V30 3145 H 295.913 1.7715 -7.991 0
M  V30 3146 N 298.576 1.31904 0.862503 0
M  V30 3147 C 299.987 1.19803 1.43193 0
M  V30 3148 C 300.338 -0.192567 1.95253 0
M  V30 3149 O 299.463 -1.09081 1.86896 0
M  V30 3150 C 300.058 2.16883 2.60283 0
M  V30 3151 C 298.617 2.08692 3.13248 0
M  V30 3152 C 297.764 2.05691 1.85975 0
M  V30 3153 H 300.715 1.43846 0.670365 0
M  V30 3154 H 300.736 1.76278 3.37204 0
M  V30 3155 H 300.248 3.18083 2.22363 0
M  V30 3156 H 298.349 1.10713 3.55771 0
M  V30 3157 H 298.462 2.9815 3.75025 0
M  V30 3158 H 296.826 1.50814 2.05249 0
M  V30 3159 H 297.609 3.08659 1.50282 0
M  V30 3160 N 300.054 -1.07777 1.14986 0
M  V30 3161 C 301.284 -1.83752 0.944402 0
M  V30 3162 C 301.692 -1.8218 -0.51058 0
M  V30 3163 O 301.035 -1.22852 -1.36576 0
M  V30 3164 C 301.097 -3.32128 1.37592 0
M  V30 3165 C 300.761 -3.57425 2.84775 0
M  V30 3166 C 301.758 -3.5173 3.8286 0
M  V30 3167 C 299.443 -3.8523 3.2234 0
M  V30 3168 C 301.437 -3.73482 5.16517 0
M  V30 3169 C 299.124 -4.06634 4.56171 0
M  V30 3170 C 300.122 -4.00754 5.53069 0
M  V30 3171 O 299.81 -4.2159 6.84483 0
M  V30 3172 H 299.542 -0.58673 0.335744 0
M  V30 3173 H 302.096 -1.36982 1.53052 0
M  V30 3174 H 300.326 -3.79686 0.733165 0
M  V30 3175 H 302.015 -3.89555 1.14024 0
M  V30 3176 H 302.781 -3.30256 3.55184 0
M  V30 3177 H 298.66 -3.88923 2.47508 0
M  V30 3178 H 302.204 -3.68808 5.92137 0
M  V30 3179 H 298.101 -4.27593 4.83564 0
M  V30 3180 H 298.869 -4.38961 6.90837 0
M  V30 3181 N 301.532 -0.945985 -1.26051 0
M  V30 3182 C 302.442 -0.465633 -2.29933 0
M  V30 3183 C 303.458 0.462761 -1.67733 0
M  V30 3184 O 304.634 0.341118 -1.9849 0
M  V30 3185 C 301.699 0.256994 -3.45746 0
M  V30 3186 C 300.76 -0.708549 -4.23412 0
M  V30 3187 C 299.993 -0.0203135 -5.33696 0
M  V30 3188 O 300.216 1.19571 -5.57726 0
M  V30 3189 O 299.15 -0.701459 -5.97799 0
M  V30 3190 H 302.976 -1.32866 -2.73094 0
M  V30 3191 H 300.561 -0.712071 -1.31339 0
M  V30 3192 H 302.443 0.663852 -4.16138 0
M  V30 3193 H 301.118 1.09533 -3.04605 0
M  V30 3194 H 300.025 -1.16545 -3.55483 0
M  V30 3195 H 301.358 -1.51465 -4.68315 0
M  V30 3196 N 303.011 1.40521 -0.713556 0
M  V30 3197 C 303.974 2.29098 -0.0684347 0
M  V30 3198 C 304.974 1.45268 0.689472 0
M  V30 3199 O 306.164 1.66205 0.521677 0
M  V30 3200 C 303.296 3.28446 0.913024 0
M  V30 3201 H 304.489 2.87645 -0.84855 0
M  V30 3202 H 302.042 1.48809 -0.47809 0
M  V30 3203 H 302.777 2.74913 1.72027 0
M  V30 3204 H 302.562 3.90327 0.372472 0
M  V30 3205 H 304.052 3.94777 1.36165 0
M  V30 3206 N 304.489 0.459591 1.5075 0
M  V30 3207 C 305.717 -0.0973749 2.06671 0
M  V30 3208 C 306.132 -1.34524 1.32472 0
M  V30 3209 O 305.489 -1.7827 0.390634 0
M  V30 3210 C 305.54 -0.39714 3.59312 0
M  V30 3211 O 305.261 0.801214 4.30711 0
M  V30 3212 C 306.762 -1.00234 4.31819 0
M  V30 3213 H 303.982 0.00195854 0.670997 0
M  V30 3214 H 306.526 0.645072 1.94059 0
M  V30 3215 H 304.681 -1.08951 3.71764 0
M  V30 3216 H 305.095 0.538857 5.21725 0
M  V30 3217 H 306.569 -1.16193 5.39632 0
M  V30 3218 H 307.046 -1.98939 3.91561 0
M  V30 3219 H 307.652 -0.348699 4.23868 0
M  V30 3220 N 305.967 -1.56429 0.191757 0
M  V30 3221 C 306.877 -2.22541 -0.742481 0
M  V30 3222 C 307.893 -1.22342 -1.23727 0
M  V30 3223 O 309.069 -1.55069 -1.28513 0
M  V30 3224 C 306.134 -2.8692 -1.94623 0
M  V30 3225 C 305.195 -4.02378 -1.49633 0
M  V30 3226 C 304.428 -4.63678 -2.6427 0
M  V30 3227 O 304.651 -4.23895 -3.81666 0
M  V30 3228 O 303.585 -5.53202 -2.37174 0
M  V30 3229 H 307.411 -3.02977 -0.209462 0
M  V30 3230 H 304.996 -1.49353 -0.0373832 0
M  V30 3231 H 306.878 -3.27663 -2.64982 0
M  V30 3232 H 305.553 -2.09466 -2.46791 0
M  V30 3233 H 304.46 -3.66265 -0.761636 0
M  V30 3234 H 305.793 -4.81487 -1.02134 0
M  V30 3235 N 307.445 0.0818655 -1.57387 0
M  V30 3236 C 308.355 1.11642 -2.06333 0
M  V30 3237 C 309.371 1.43033 -0.99083 0
M  V30 3238 O 310.547 1.53411 -1.30488 0
M  V30 3239 C 307.612 2.41342 -2.48907 0
M  V30 3240 C 306.673 2.17014 -3.7041 0
M  V30 3241 C 305.906 3.4053 -4.10944 0
M  V30 3242 O 306.129 4.4927 -3.51444 0
M  V30 3243 O 305.063 3.29336 -5.03807 0
M  V30 3244 H 308.889 0.730657 -2.9478 0
M  V30 3245 H 306.474 0.295301 -1.46452 0
M  V30 3246 H 308.356 3.17691 -2.76858 0
M  V30 3247 H 307.031 2.79319 -1.63593 0
M  V30 3248 H 305.938 1.38403 -3.47556 0
M  V30 3249 H 307.271 1.83923 -4.56545 0
M  V30 3250 N 308.923 1.53595 0.353017 0
M  V30 3251 C 310.148 1.7462 1.11904 0
M  V30 3252 C 310.573 0.479721 1.8188 0
M  V30 3253 O 309.931 -0.567066 1.72204 0
M  V30 3254 C 309.979 2.92029 2.11545 0
M  V30 3255 O 309.083 2.61516 3.18878 0
M  V30 3256 H 308.424 0.579531 0.324099 0
M  V30 3257 H 310.954 2.00525 0.406301 0
M  V30 3258 H 310.964 3.18551 2.5493 0
M  V30 3259 H 309.639 3.83888 1.60008 0
M  V30 3260 H 308.216 2.45852 2.80377 0
M  V30 3261 N 310.401 -0.613514 1.45168 0
M  V30 3262 C 311.641 -1.38405 1.5041 0
M  V30 3263 C 312.005 -1.91489 0.139922 0
M  V30 3264 O 313.206 -2.68716 0.067033 0
M  V30 3265 C 311.477 -2.50552 2.5487 0
M  V30 3266 S 313.036 -3.38439 2.79292 0
M  V30 3267 H 309.854 -0.471945 0.531779 0
M  V30 3268 H 312.456 -0.708518 1.82209 0
M  V30 3269 H 311.16 -2.09894 3.52665 0
M  V30 3270 H 310.691 -3.22913 2.24701 0
M  V30 3271 H 312.706 -4.48527 2.12222 0
M  V30 3272 N 311.879 -1.3236 -0.855495 0
M  V30 3273 C 312.826 -1.21225 -1.964 0
M  V30 3274 C 313.796 -0.0946204 -1.6583 0
M  V30 3275 O 314.981 -0.27002 -1.8888 0
M  V30 3276 C 312.121 -0.940419 -3.32039 0
M  V30 3277 C 311.234 -2.14276 -3.75113 0
M  V30 3278 C 310.369 -1.80648 -4.9954 0
M  V30 3279 C 309.408 -2.97208 -5.35102 0
M  V30 3280 N 308.545 -2.63678 -6.50706 0
M  V30 3281 H 313.385 -2.16042 -2.05255 0
M  V30 3282 H 310.922 -1.07451 -1.00463 0
M  V30 3283 H 312.88 -0.763311 -4.10158 0
M  V30 3284 H 311.51 -0.0290413 -3.22787 0
M  V30 3285 H 310.562 -2.43017 -2.92655 0
M  V30 3286 H 311.874 -3.01468 -3.97389 0
M  V30 3287 H 311.028 -1.59484 -5.85363 0
M  V30 3288 H 309.767 -0.906678 -4.79198 0
M  V30 3289 H 308.772 -3.19004 -4.47791 0
M  V30 3290 H 309.997 -3.87918 -5.57401 0
M  V30 3291 H 307.943 -1.76238 -6.31883 0
M  V30 3292 H 307.86 -3.444 -6.72997 0
M  V30 3293 H 309.128 -2.45942 -7.39684 0
M  V30 3294 N 313.357 1.07166 -1.15556 0
M  V30 3295 C 314.587 1.83248 -0.954133 0
M  V30 3296 C 314.995 1.82449 0.500911 0
M  V30 3297 O 314.338 1.23575 1.35923 0
M  V30 3298 C 314.4 3.31393 -1.39351 0
M  V30 3299 C 314.064 3.5591 -2.86666 0
M  V30 3300 C 315.061 3.49695 -3.8472 0
M  V30 3301 C 312.746 3.83515 -3.24379 0
M  V30 3302 C 314.74 3.70737 -5.18491 0
M  V30 3303 C 312.427 4.04209 -4.58321 0
M  V30 3304 C 313.425 3.97815 -5.55186 0
M  V30 3305 O 313.113 4.17954 -6.86709 0
M  V30 3306 H 312.845 0.584941 -0.338851 0
M  V30 3307 H 315.399 1.36169 -1.53777 0
M  V30 3308 H 313.629 3.79292 -0.75329 0
M  V30 3309 H 315.318 3.88945 -1.16089 0
M  V30 3310 H 316.084 3.28368 -3.56931 0
M  V30 3311 H 311.963 3.87605 -2.49567 0
M  V30 3312 H 315.507 3.65663 -5.94085 0
M  V30 3313 H 311.404 4.25023 -4.85825 0
M  V30 3314 H 312.172 4.35291 -6.93155 0
M  V30 3315 N 314.835 0.952656 1.25548 0
M  V30 3316 C 315.783 0.462354 2.27958 0
M  V30 3317 C 316.777 -0.46634 1.62855 0
M  V30 3318 O 317.983 -0.343287 1.76696 0
M  V30 3319 H 314.358 0.13101 0.7405 0
M  V30 3320 H 316.329 1.33839 2.66702 0
M  V30 3321 C 315.078 -0.24628 3.46827 0
M  V30 3322 H 314.401 0.459192 3.97154 0
M  V30 3323 H 315.841 -0.553393 4.20373 0
M  V30 3324 C 314.3 -1.4681 3.0323 0
M  V30 3325 O 314.83 -2.56591 3.09069 0
M  V30 3326 N 313.036 -1.32874 2.58443 0
M  V30 3327 H 312.583 -0.435536 2.53891 0
M  V30 3328 H 312.541 -2.14742 2.29637 0
M  V30 3329 N 316.313 -1.40141 0.720998 0
M  V30 3330 C 317.724 -1.83678 0.334553 0
M  V30 3331 C 318.075 -1.6027 -1.13173 0
M  V30 3332 O 317.2 -1.08643 -1.87152 0
M  V30 3333 C 317.795 -3.33437 0.600437 0
M  V30 3334 C 316.354 -3.75447 0.267642 0
M  V30 3335 C 315.501 -2.63296 0.870097 0
M  V30 3336 H 318.452 -1.29331 0.919732 0
M  V30 3337 H 318.473 -3.80269 -0.132517 0
M  V30 3338 H 317.985 -3.50442 1.66768 0
M  V30 3339 H 316.086 -3.64035 -0.794329 0
M  V30 3340 H 316.199 -4.73344 0.74042 0
M  V30 3341 H 314.563 -2.52954 0.297739 0
M  V30 3342 H 315.346 -2.83112 1.94172 0
M  V30 3343 N 317.792 -0.46758 -1.50504 0
M  V30 3344 C 318.739 0.328413 -2.28452 0
M  V30 3345 C 319.709 0.990313 -1.33349 0
M  V30 3346 O 320.894 1.00343 -1.62284 0
M  V30 3347 C 318.034 1.40648 -3.15138 0
M  V30 3348 C 317.147 0.759709 -4.25267 0
M  V30 3349 C 316.282 1.81537 -4.99217 0
M  V30 3350 C 315.321 1.14866 -6.01226 0
M  V30 3351 N 314.458 2.14702 -6.68467 0
M  V30 3352 H 319.298 -0.342603 -2.96024 0
M  V30 3353 H 316.835 -0.180801 -1.45985 0
M  V30 3354 H 318.793 2.04315 -3.63746 0
M  V30 3355 H 317.423 2.04671 -2.49619 0
M  V30 3356 H 316.475 0.0105671 -3.80399 0
M  V30 3357 H 317.787 0.233243 -4.98254 0
M  V30 3358 H 316.941 2.52793 -5.51526 0
M  V30 3359 H 315.68 2.37564 -4.25928 0
M  V30 3360 H 314.685 0.42171 -5.4818 0
M  V30 3361 H 315.91 0.595334 -6.76485 0
M  V30 3362 H 313.856 2.69752 -5.97972 0
M  V30 3363 H 313.773 1.6703 -7.37317 0
M  V30 3364 H 315.041 2.85348 -7.25394 0
M  V30 3365 N 319.27 1.56325 -0.20005 0
M  V30 3366 C 320.5 2.01811 0.442232 0
M  V30 3367 C 320.908 1.07932 1.55394 0
M  V30 3368 O 320.251 0.0772685 1.83537 0
M  V30 3369 C 320.313 3.43685 1.05457 0
M  V30 3370 C 319.977 4.56928 0.0809833 0
M  V30 3371 C 320.974 5.15009 -0.711471 0
M  V30 3372 C 318.659 5.0229 -0.0315364 0
M  V30 3373 C 320.653 6.16904 -1.60336 0
M  V30 3374 C 318.34 6.04028 -0.926981 0
M  V30 3375 C 319.338 6.6121 -1.71146 0
M  V30 3376 O 319.026 7.60971 -2.59189 0
M  V30 3377 H 318.758 0.666173 0.114848 0
M  V30 3378 H 321.312 2.03085 -0.307511 0
M  V30 3379 H 319.542 3.39413 1.85299 0
M  V30 3380 H 321.231 3.72948 1.60201 0
M  V30 3381 H 321.997 4.80827 -0.634873 0
M  V30 3382 H 317.876 4.57476 0.568902 0
M  V30 3383 H 321.42 6.61464 -2.21611 0
M  V30 3384 H 317.317 6.37634 -1.00468 0
M  V30 3385 H 318.085 7.7841 -2.53023 0
M  V30 3386 N 320.748 -0.0735177 1.57428 0
M  V30 3387 C 321.973 -0.789787 1.91774 0
M  V30 3388 C 322.398 -1.70413 0.796306 0
M  V30 3389 O 321.756 -1.79555 -0.250961 0
M  V30 3390 C 321.804 -1.5609 3.25067 0
M  V30 3391 O 320.908 -2.67144 3.14178 0
M  V30 3392 H 320.249 -0.215582 0.628029 0
M  V30 3393 H 322.779 -0.0422781 2.04556 0
M  V30 3394 H 322.789 -1.94052 3.58898 0
M  V30 3395 H 321.464 -0.890015 4.06265 0
M  V30 3396 H 320.041 -2.32052 2.91901 0
M  V30 3397 N 322.226 -1.5378 -0.344866 0
M  V30 3398 C 323.472 -1.71216 -1.08687 0
M  V30 3399 C 323.805 -0.473281 -1.88345 0
M  V30 3400 O 323.08 0.52968 -1.87149 0
M  V30 3401 C 323.363 -2.97486 -2.02914 0
M  V30 3402 C 323.216 -4.31579 -1.26727 0
M  V30 3403 C 324.535 -3.19422 -3.0275 0
M  V30 3404 H 321.654 -0.62301 -0.393735 0
M  V30 3405 H 324.296 -1.8645 -0.365563 0
M  V30 3406 H 322.446 -2.84629 -2.64421 0
M  V30 3407 H 324.118 -4.56284 -0.67845 0
M  V30 3408 H 322.361 -4.30049 -0.569273 0
M  V30 3409 H 323.032 -5.16106 -1.95803 0
M  V30 3410 H 325.508 -3.316 -2.51357 0
M  V30 3411 H 324.384 -4.09169 -3.65885 0
M  V30 3412 H 324.645 -2.35656 -3.74057 0
M  V30 3413 N 323.704 0.605807 -1.45491 0
M  V30 3414 C 324.667 1.69836 -1.5391 0
M  V30 3415 C 325.667 1.55261 -0.418424 0
M  V30 3416 O 326.857 1.60296 -0.681965 0
M  V30 3417 C 323.989 3.09117 -1.43734 0
M  V30 3418 H 325.182 1.63738 -2.51257 0
M  V30 3419 H 322.735 0.821689 -1.32959 0
M  V30 3420 H 323.47 3.20791 -0.475788 0
M  V30 3421 H 323.255 3.21104 -2.25021 0
M  V30 3422 H 324.745 3.88696 -1.52661 0
M  V30 3423 N 325.182 1.32811 0.848464 0
M  V30 3424 C 326.13 1.22231 1.97895 0
M  V30 3425 C 327.124 0.125749 1.68933 0
M  V30 3426 O 328.33 0.289083 1.77663 0
M  V30 3427 H 324.705 0.379058 0.649476 0
M  V30 3428 H 326.676 2.17828 2.03945 0
M  V30 3429 C 325.425 0.968572 3.33937 0
M  V30 3430 H 324.748 1.80458 3.56756 0
M  V30 3431 H 326.188 0.934808 4.13567 0
M  V30 3432 C 324.647 -0.328628 3.35293 0
M  V30 3433 O 325.177 -1.33848 3.78745 0
M  V30 3434 N 323.383 -0.352788 2.88451 0
M  V30 3435 H 322.93 0.469541 2.53285 0
M  V30 3436 H 322.888 -1.22057 2.89741 0
M  V30 3437 N 326.66 -1.06551 1.16123 0
M  V30 3438 C 327.937 -1.76097 0.85142 0
M  V30 3439 C 328.317 -2.00802 -0.6513 0
M  V30 3440 O 327.665 -1.63302 -1.59827 0
M  V30 3441 C 327.875 -3.06384 1.67122 0
M  V30 3442 C 329.223 -3.80585 1.88255 0
M  V30 3443 O 330.247 -3.16218 1.63966 0
M  V30 3444 O 329.106 -4.96212 2.2899 0
M  V30 3445 H 326.2 -0.765102 0.313923 0
M  V30 3446 H 328.746 -1.12844 1.26745 0
M  V30 3447 H 327.518 -2.84071 2.69108 0
M  V30 3448 H 327.141 -3.77371 1.25206 0
M  V30 3449 N 328.138 -0.959301 -1.25041 0
M  V30 3450 C 329.366 -0.633949 -1.96948 0
M  V30 3451 C 329.781 0.794916 -1.7125 0
M  V30 3452 O 329.138 1.53231 -0.991287 0
M  V30 3453 C 329.189 -0.888805 -3.50403 0
M  V30 3454 O 328.91 -2.26149 -3.75218 0
M  V30 3455 C 330.411 -0.576482 -4.39536 0
M  V30 3456 H 327.631 -0.237263 -0.627652 0
M  V30 3457 H 330.175 -1.28495 -1.59089 0
M  V30 3458 H 328.33 -0.284145 -3.86357 0
M  V30 3459 H 328.744 -2.33514 -4.6965 0
M  V30 3460 H 330.218 -0.805314 -5.46094 0
M  V30 3461 H 330.695 0.489075 -4.36468 0
M  V30 3462 H 331.301 -1.16067 -4.09156 0
M  V30 3463 N 329.616 1.39756 -0.72842 0
M  V30 3464 C 330.864 2.00248 -0.272946 0
M  V30 3465 C 331.185 1.58077 1.14178 0
M  V30 3466 O 330.455 0.826014 1.77634 0
M  V30 3467 H 329.035 0.740554 -0.0979247 0
M  V30 3468 H 331.697 1.70903 -0.936912 0
M  V30 3469 H 330.793 3.10495 -0.316142 0
M  V30 3470 N 331.094 0.475555 1.50254 0
M  V30 3471 C 332.341 -0.0778919 2.0235 0
M  V30 3472 C 332.669 -1.39319 1.35722 0
M  V30 3473 O 331.924 -1.89888 0.473395 0
M  V30 3474 C 332.223 -0.305114 3.56095 0
M  V30 3475 C 331.889 0.92903 4.41225 0
M  V30 3476 C 330.551 1.26739 4.6421 0
M  V30 3477 C 332.903 1.75054 4.90923 0
M  V30 3478 C 330.231 2.42724 5.34137 0
M  V30 3479 C 332.583 2.9017 5.62125 0
M  V30 3480 C 331.247 3.24416 5.83362 0
M  V30 3481 H 330.517 -0.0285027 0.740452 0
M  V30 3482 H 333.164 0.630543 1.80821 0
M  V30 3483 H 331.469 -1.09584 3.76163 0
M  V30 3484 H 333.166 -0.747377 3.93974 0
M  V30 3485 H 329.756 0.655428 4.23559 0
M  V30 3486 H 333.94 1.50231 4.73016 0
M  V30 3487 H 329.196 2.69525 5.48786 0
M  V30 3488 H 333.37 3.54169 5.99614 0
M  V30 3489 H 330.997 4.14396 6.37323 0
M  V30 3490 N 332.573 -1.56217 0.208337 0
M  V30 3491 C 333.819 -1.98242 -0.427552 0
M  V30 3492 C 334.152 -1.09554 -1.60348 0
M  V30 3493 O 333.427 -0.15035 -1.93918 0
M  V30 3494 C 333.71 -3.4931 -0.874907 0
M  V30 3495 C 333.563 -4.48773 0.303751 0
M  V30 3496 C 334.882 -4.04424 -1.73577 0
M  V30 3497 H 332.001 -0.720744 -0.153936 0
M  V30 3498 H 334.643 -1.87586 0.30192 0
M  V30 3499 H 332.793 -3.58522 -1.49648 0
M  V30 3500 H 334.465 -4.51586 0.941682 0
M  V30 3501 H 332.708 -4.23194 0.953375 0
M  V30 3502 H 333.379 -5.51976 -0.0519883 0
M  V30 3503 H 335.855 -3.98075 -1.21143 0
M  V30 3504 H 334.731 -5.1047 -2.01771 0
M  V30 3505 H 334.992 -3.50494 -2.69456 0
M  V30 3506 N 334.051 0.0651679 -1.57465 0
M  V30 3507 C 335.328 0.79644 -1.78651 0
M  V30 3508 C 335.708 1.95454 -0.797566 0
M  V30 3509 O 335.056 2.27882 0.167946 0
M  V30 3510 C 335.266 1.26322 -3.25337 0
M  V30 3511 C 336.614 1.6939 -3.89348 0
M  V30 3512 O 337.638 1.35872 -3.29268 0
M  V30 3513 O 336.497 2.31471 -4.95059 0
M  V30 3514 H 333.591 0.382157 -0.733407 0
M  V30 3515 H 336.137 0.0447311 -1.69641 0
M  V30 3516 H 334.909 0.434859 -3.88876 0
M  V30 3517 H 334.532 2.07604 -3.39096 0
M  V30 3518 N 335.529 1.53961 0.336706 0
M  V30 3519 C 336.778 1.70751 1.07363 0
M  V30 3520 C 337.091 0.481061 1.89592 0
M  V30 3521 O 338.297 0.530046 2.66276 0
M  V30 3522 C 336.753 3.01965 1.95818 0
M  V30 3523 C 336.361 4.31971 1.18764 0
M  V30 3524 C 338.105 3.28121 2.69327 0
M  V30 3525 C 336.012 5.54255 2.06289 0
M  V30 3526 H 334.942 0.636292 0.404535 0
M  V30 3527 H 337.593 1.80459 0.332681 0
M  V30 3528 H 335.975 2.86132 2.7376 0
M  V30 3529 H 337.149 4.5853 0.456849 0
M  V30 3530 H 335.464 4.12481 0.569946 0
M  V30 3531 H 338.061 4.16673 3.35094 0
M  V30 3532 H 338.404 2.45426 3.36261 0
M  V30 3533 H 338.937 3.44762 1.98454 0
M  V30 3534 H 335.676 6.39513 1.43885 0
M  V30 3535 H 335.196 5.31935 2.77138 0
M  V30 3536 H 336.875 5.90159 2.65182 0
M  V30 3537 N 337.007 -0.598083 1.45811 0
M  V30 3538 C 338.418 -1.18011 1.44673 0
M  V30 3539 C 338.769 -1.95378 0.179364 0
M  V30 3540 O 337.894 -2.04124 -0.718509 0
M  V30 3541 C 338.489 -2.14677 2.62105 0
M  V30 3542 C 337.048 -2.68236 2.64057 0
M  V30 3543 C 336.195 -1.43816 2.37091 0
M  V30 3544 H 339.146 -0.38686 1.53913 0
M  V30 3545 H 339.167 -2.97878 2.36746 0
M  V30 3546 H 338.679 -1.5834 3.5433 0
M  V30 3547 H 336.78 -3.28486 1.75864 0
M  V30 3548 H 336.893 -3.12021 3.63566 0
M  V30 3549 H 335.257 -1.731 1.86838 0
M  V30 3550 H 336.04 -0.893333 3.31473 0
M  V30 3551 N 338.485 -1.33259 -0.841409 0
M  V30 3552 C 339.432 -1.23302 -1.95103 0
M  V30 3553 C 340.402 -0.112204 -1.65721 0
M  V30 3554 O 341.587 -0.290038 -1.88583 0
M  V30 3555 C 338.727 -0.975583 -3.31023 0
M  V30 3556 C 337.84 -2.18243 -3.72819 0
M  V30 3557 C 336.975 -1.85936 -4.97595 0
M  V30 3558 C 336.014 -3.02866 -5.3192 0
M  V30 3559 N 335.151 -2.70565 -6.47873 0
M  V30 3560 H 339.991 -2.18207 -2.02952 0
M  V30 3561 H 337.528 -1.0851 -0.993173 0
M  V30 3562 H 339.486 -0.80677 -4.09325 0
M  V30 3563 H 338.116 -0.0632755 -3.22738 0
M  V30 3564 H 337.168 -2.46107 -2.90061 0
M  V30 3565 H 338.48 -3.05666 -3.94169 0
M  V30 3566 H 337.634 -1.65684 -5.83638 0
M  V30 3567 H 336.373 -0.957452 -4.78209 0
M  V30 3568 H 335.378 -3.23736 -4.44382 0
M  V30 3569 H 336.603 -3.93809 -5.53255 0
M  V30 3570 H 334.549 -1.8293 -6.29978 0
M  V30 3571 H 334.466 -3.51519 -6.69306 0
M  V30 3572 H 335.734 -2.53774 -7.37034 0
M  V30 3573 N 339.963 1.05934 -1.16686 0
M  V30 3574 C 340.895 2.13468 -0.834503 0
M  V30 3575 C 341.908 1.62013 0.15984 0
M  V30 3576 O 343.097 1.7838 -0.0654228 0
M  V30 3577 C 340.197 3.3817 -0.222361 0
M  V30 3578 C 339.37 4.18928 -1.25771 0
M  V30 3579 C 338.429 5.21985 -0.664703 0
M  V30 3580 O 337.455 5.53334 -1.33453 0
M  V30 3581 N 338.657 5.77919 0.546834 0
M  V30 3582 H 341.422 2.42578 -1.75999 0
M  V30 3583 H 338.983 1.21967 -1.06469 0
M  V30 3584 H 340.975 4.04266 0.187472 0
M  V30 3585 H 339.545 3.06655 0.606758 0
M  V30 3586 H 338.765 3.48433 -1.84358 0
M  V30 3587 H 340.053 4.69687 -1.95631 0
M  V30 3588 H 339.451 5.54721 1.10912 0
M  V30 3589 H 338.008 6.45573 0.898829 0
M  V30 3590 N 341.441 0.965919 1.2453 0
M  V30 3591 C 342.351 0.502154 2.29163 0
M  V30 3592 C 343.367 -0.436017 1.68448 0
M  V30 3593 O 344.543 -0.309497 1.99008 0
M  V30 3594 C 341.608 -0.201956 3.46111 0
M  V30 3595 C 340.669 0.775821 4.22232 0
M  V30 3596 C 339.902 0.105217 5.33596 0
M  V30 3597 O 340.125 -1.10683 5.59558 0
M  V30 3598 O 339.059 0.796475 5.96607 0
M  V30 3599 H 342.885 1.37194 2.70946 0
M  V30 3600 H 340.47 0.732875 1.30189 0
M  V30 3601 H 342.352 -0.597564 4.17142 0
M  V30 3602 H 341.027 -1.04673 3.06309 0
M  V30 3603 H 339.934 1.22185 3.53584 0
M  V30 3604 H 341.267 1.58896 4.65846 0
M  V30 3605 N 342.919 -1.39368 0.735821 0
M  V30 3606 C 343.866 -2.30599 0.0963825 0
M  V30 3607 C 344.836 -1.49257 -0.728794 0
M  V30 3608 O 346.021 -1.77941 -0.688588 0
M  V30 3609 C 343.161 -3.35596 -0.804305 0
M  V30 3610 C 342.274 -4.31987 0.0335761 0
M  V30 3611 C 341.409 -5.24053 -0.868461 0
M  V30 3612 C 340.448 -6.12095 -0.0258776 0
M  V30 3613 N 339.585 -6.96514 -0.883893 0
M  V30 3614 H 344.425 -2.8471 0.880002 0
M  V30 3615 H 341.962 -1.40188 0.445619 0
M  V30 3616 H 343.92 -3.95062 -1.34096 0
M  V30 3617 H 342.55 -2.82938 -1.55389 0
M  V30 3618 H 341.602 -3.74133 0.68766 0
M  V30 3619 H 342.914 -4.94074 0.685036 0
M  V30 3620 H 342.068 -5.88549 -1.47293 0
M  V30 3621 H 340.807 -4.62289 -1.5537 0
M  V30 3622 H 339.812 -5.4661 0.591386 0
M  V30 3623 H 341.037 -6.75923 0.656156 0
M  V30 3624 H 338.983 -6.37318 -1.55441 0
M  V30 3625 H 338.9 -7.55448 -0.288931 0
M  V30 3626 H 340.168 -7.65439 -1.4739 0
M  V30 3627 N 344.397 -0.483516 -1.5 0
M  V30 3628 C 345.36 0.292965 -2.2732 0
M  V30 3629 C 346.36 0.909499 -1.32608 0
M  V30 3630 O 347.55 0.776745 -1.55924 0
M  V30 3631 C 344.682 1.41854 -3.09984 0
M  V30 3632 H 345.875 -0.385289 -2.97415 0
M  V30 3633 H 343.428 -0.237942 -1.54478 0
M  V30 3634 H 344.163 2.13148 -2.44414 0
M  V30 3635 H 343.948 0.982114 -3.79601 0
M  V30 3636 H 345.438 1.96597 -3.68429 0
M  V30 3637 N 345.875 1.56104 -0.216619 0
M  V30 3638 C 346.805 2.23063 0.690296 0
M  V30 3639 C 347.786 1.20072 1.20485 0
M  V30 3640 O 348.971 1.48643 1.24976 0
M  V30 3641 C 346.101 2.90672 1.90072 0
M  V30 3642 C 345.055 4.00092 1.5202 0
M  V30 3643 C 344.381 4.54972 2.80899 0
M  V30 3644 C 345.681 5.17398 0.71391 0
M  V30 3645 H 347.375 2.99109 0.132038 0
M  V30 3646 H 344.921 1.43866 0.0620664 0
M  V30 3647 H 346.874 3.36204 2.54057 0
M  V30 3648 H 345.598 2.12066 2.48386 0
M  V30 3649 H 344.257 3.55283 0.903839 0
M  V30 3650 H 343.905 3.73102 3.37348 0
M  V30 3651 H 343.605 5.28817 2.56176 0
M  V30 3652 H 345.129 5.0322 3.45836 0
M  V30 3653 H 346.543 5.59342 1.25735 0
M  V30 3654 H 344.94 5.97444 0.563951 0
M  V30 3655 H 346.01 4.84088 -0.280527 0
M  V30 3656 N 347.353 -0.0568162 1.57498 0
M  V30 3657 C 348.286 -1.09817 2.00039 0
M  V30 3658 C 349.264 -1.3674 0.879819 0
M  V30 3659 O 350.448 -1.49863 1.14338 0
M  V30 3660 C 347.575 -2.43924 2.34986 0
M  V30 3661 C 346.621 -2.33039 3.57204 0
M  V30 3662 S 347.454 -1.7102 5.07457 0
M  V30 3663 C 348.61 -3.06674 5.45621 0
M  V30 3664 H 348.843 -0.735701 2.88053 0
M  V30 3665 H 346.376 -0.265871 1.52094 0
M  V30 3666 H 348.334 -3.2106 2.55795 0
M  V30 3667 H 346.995 -2.77327 1.47474 0
M  V30 3668 H 346.188 -3.31973 3.79223 0
M  V30 3669 H 345.79 -1.64043 3.36104 0
M  V30 3670 H 348.082 -4.03 5.44608 0
M  V30 3671 H 349.025 -2.8942 6.46252 0
M  V30 3672 H 349.433 -3.07969 4.73091 0
M  V30 3673 N 348.832 -1.54138 -0.328536 0
M  V30 3674 C 349.779 -1.83176 -1.40411 0
M  V30 3675 C 350.749 -0.678494 -1.5161 0
M  V30 3676 O 351.934 -0.92443 -1.6691 0
M  V30 3677 C 349.074 -2.06035 -2.76846 0
M  V30 3678 C 348.187 -3.33727 -2.74318 0
M  V30 3679 C 347.322 -3.46574 -4.02567 0
M  V30 3680 C 346.361 -4.68159 -3.94327 0
M  V30 3681 N 345.498 -4.77959 -5.14296 0
M  V30 3682 H 350.338 -2.74938 -1.14948 0
M  V30 3683 H 347.875 -1.36166 -0.556538 0
M  V30 3684 H 349.833 -2.1728 -3.56153 0
M  V30 3685 H 348.463 -1.1757 -3.00628 0
M  V30 3686 H 347.515 -3.31246 -1.8703 0
M  V30 3687 H 348.827 -4.23139 -2.64111 0
M  V30 3688 H 347.981 -3.57333 -4.90304 0
M  V30 3689 H 346.72 -2.55245 -4.15574 0
M  V30 3690 H 345.725 -4.57461 -3.04974 0
M  V30 3691 H 346.95 -5.60868 -3.82889 0
M  V30 3692 H 344.896 -3.89544 -5.27818 0
M  V30 3693 H 344.813 -5.6133 -5.06404 0
M  V30 3694 H 346.081 -4.93044 -6.03761 0
M  V30 3695 N 350.31 0.590341 -1.46126 0
M  V30 3696 C 351.273 1.68194 -1.55703 0
M  V30 3697 C 352.273 1.54808 -0.434868 0
M  V30 3698 O 353.463 1.59564 -0.698928 0
M  V30 3699 C 350.595 3.07575 -1.47005 0
M  V30 3700 H 351.788 1.61064 -2.52979 0
M  V30 3701 H 349.341 0.807541 -1.33823 0
M  V30 3702 H 350.076 3.20268 -0.509785 0
M  V30 3703 H 349.861 3.187 -2.28414 0
M  V30 3704 H 351.351 3.87055 -1.56776 0
M  V30 3705 N 351.788 1.33704 0.83433 0
M  V30 3706 C 353.034 1.25603 1.59222 0
M  V30 3707 C 353.367 -0.176659 1.93395 0
M  V30 3708 O 352.642 -1.11915 1.59076 0
M  V30 3709 C 352.925 2.13576 2.89926 0
M  V30 3710 C 352.778 3.65326 2.62406 0
M  V30 3711 C 354.097 2.01238 3.91397 0
M  V30 3712 H 351.216 0.457613 0.577719 0
M  V30 3713 H 353.858 1.63848 0.961972 0
M  V30 3714 H 352.008 1.8109 3.43713 0
M  V30 3715 H 353.68 4.08124 2.15017 0
M  V30 3716 H 351.923 3.8698 1.96033 0
M  V30 3717 H 352.594 4.22232 3.55562 0
M  V30 3718 H 355.07 2.29738 3.46929 0
M  V30 3719 H 353.946 2.65036 4.80673 0
M  V30 3720 H 354.207 0.985951 4.30966 0
M  V30 3721 N 353.266 -1.05314 1.17247 0
M  V30 3722 C 354.229 -2.112 0.890357 0
M  V30 3723 C 355.229 -1.60359 -0.118943 0
M  V30 3724 O 356.419 -1.73833 0.113086 0
M  V30 3725 C 353.551 -3.39266 0.333422 0
M  V30 3726 H 354.744 -2.37659 1.82916 0
M  V30 3727 H 352.297 -1.21538 0.982758 0
M  V30 3728 H 353.032 -3.18462 -0.612587 0
M  V30 3729 H 352.817 -3.77477 1.06082 0
M  V30 3730 H 354.307 -4.17315 0.154322 0
M  V30 3731 N 354.744 -0.972509 -1.24016 0
M  V30 3732 C 355.972 -0.654803 -1.96265 0
M  V30 3733 C 356.387 0.776708 -1.72083 0
M  V30 3734 O 355.744 1.52171 -1.00748 0
M  V30 3735 C 355.795 -0.92592 -3.49441 0
M  V30 3736 O 355.516 -2.30116 -3.72798 0
M  V30 3737 C 357.017 -0.623068 -4.38899 0
M  V30 3738 H 354.237 -0.243907 -0.6251 0
M  V30 3739 H 356.781 -1.30175 -1.57717 0
M  V30 3740 H 354.936 -0.325108 -3.86033 0
M  V30 3741 H 355.35 -2.38483 -4.67147 0
M  V30 3742 H 356.824 -0.863189 -5.45209 0
M  V30 3743 H 357.301 0.442754 -4.36963 0
M  V30 3744 H 357.907 -1.204 -4.07902 0
M  V30 3745 N 356.222 1.38976 -0.743202 0
M  V30 3746 C 357.468 2.0064 -0.295189 0
M  V30 3747 C 357.801 1.5885 1.11716 0
M  V30 3748 O 357.076 0.821181 1.76315 0
M  V30 3749 C 357.359 3.578 -0.406318 0
M  V30 3750 C 357.212 4.09586 -1.85903 0
M  V30 3751 C 358.531 4.39616 0.206439 0
M  V30 3752 H 355.65 0.728935 -0.108733 0
M  V30 3753 H 358.292 1.65067 -0.940897 0
M  V30 3754 H 356.442 3.88235 0.143419 0
M  V30 3755 H 358.114 3.89837 -2.46627 0
M  V30 3756 H 356.357 3.6284 -2.3776 0
M  V30 3757 H 357.028 5.18708 -1.888 0
M  V30 3758 H 359.504 4.15273 -0.262283 0
M  V30 3759 H 358.38 5.48812 0.0983819 0
M  V30 3760 H 358.641 4.22754 1.2935 0
M  V30 3761 N 357.7 0.491464 1.49741 0
M  V30 3762 C 358.948 -0.0563141 2.02022 0
M  V30 3763 C 359.269 -1.38363 1.37407 0
M  V30 3764 O 358.539 -1.88702 0.526166 0
M  V30 3765 H 357.119 -0.0238014 0.746621 0
M  V30 3766 H 359.781 0.646533 1.83864 0
M  V30 3767 H 358.877 -0.192967 3.11503 0
M  V30 3768 N 359.178 -1.55987 0.224894 0
M  V30 3769 C 360.589 -1.84553 -0.282345 0
M  V30 3770 C 360.94 -1.14634 -1.59227 0
M  V30 3771 O 360.065 -0.417155 -2.12341 0
M  V30 3772 C 360.66 -3.348 -0.519062 0
M  V30 3773 C 359.219 -3.63671 -0.970604 0
M  V30 3774 C 358.366 -2.77277 -0.0355261 0
M  V30 3775 H 361.317 -1.52245 0.448006 0
M  V30 3776 H 361.338 -3.55187 -1.36463 0
M  V30 3777 H 360.85 -3.8566 0.43449 0
M  V30 3778 H 358.951 -3.1827 -1.9374 0
M  V30 3779 H 359.064 -4.71631 -0.842698 0
M  V30 3780 H 357.428 -2.48846 -0.542927 0
M  V30 3781 H 358.211 -3.30937 0.913003 0
M  V30 3782 N 360.656 0.0484629 -1.57525 0
M  V30 3783 C 361.905 0.742065 -1.87553 0
M  V30 3784 C 362.218 1.77545 -0.820802 0
M  V30 3785 O 363.424 2.52027 -1.00967 0
M  V30 3786 C 361.88 1.37081 -3.32771 0
M  V30 3787 C 361.488 0.374786 -4.4643 0
M  V30 3788 C 363.232 2.04542 -3.71972 0
M  V30 3789 C 361.139 1.01077 -5.82698 0
M  V30 3790 H 360.069 0.280903 -0.699721 0
M  V30 3791 H 362.72 -0.00411877 -1.835 0
M  V30 3792 H 361.102 2.16605 -3.31509 0
M  V30 3793 H 362.276 -0.392331 -4.59127 0
M  V30 3794 H 360.591 -0.196653 -4.15935 0
M  V30 3795 H 363.188 2.52943 -4.71088 0
M  V30 3796 H 363.531 2.85515 -3.02964 0
M  V30 3797 H 364.064 1.31819 -3.75325 0
M  V30 3798 H 360.803 0.240878 -6.55057 0
M  V30 3799 H 360.323 1.74819 -5.73758 0
M  V30 3800 H 362.002 1.52383 -6.28799 0
M  V30 3801 N 362.134 1.5431 0.320358 0
M  V30 3802 C 363.359 1.76954 1.08175 0
M  V30 3803 C 363.784 0.518193 1.80821 0
M  V30 3804 O 363.142 -0.530411 1.73368 0
M  V30 3805 C 363.19 2.96451 2.05303 0
M  V30 3806 O 362.294 2.68221 3.13259 0
M  V30 3807 H 361.635 0.586275 0.311733 0
M  V30 3808 H 364.165 2.01342 0.363676 0
M  V30 3809 H 364.175 3.23887 2.48116 0
M  V30 3810 H 362.85 3.87196 1.51829 0
M  V30 3811 H 361.427 2.51744 2.75099 0
M  V30 3812 N 363.613 -0.582584 1.46437 0
M  V30 3813 C 364.859 -1.34278 1.51978 0
M  V30 3814 C 365.192 -1.93446 0.170973 0
M  V30 3815 O 364.467 -1.76481 -0.817608 0
M  V30 3816 C 364.75 -2.47203 2.61845 0
M  V30 3817 C 364.603 -1.93069 4.06257 0
M  V30 3818 C 365.922 -3.49247 2.67795 0
M  V30 3819 H 363.041 -0.486876 0.553282 0
M  V30 3820 H 365.683 -0.654437 1.78374 0
M  V30 3821 H 363.833 -3.0592 2.39469 0
M  V30 3822 H 365.505 -1.38808 4.3992 0
M  V30 3823 H 363.748 -1.23898 4.1573 0
M  V30 3824 H 364.419 -2.74586 4.7886 0
M  V30 3825 H 366.895 -3.00411 2.8791 0
M  V30 3826 H 365.771 -4.25719 3.46489 0
M  V30 3827 H 366.032 -4.06482 1.73852 0
M  V30 3828 N 365.091 -1.34144 -0.827227 0
M  V30 3829 C 366.054 -1.25264 -1.91942 0
M  V30 3830 C 367.054 -0.168866 -1.59911 0
M  V30 3831 O 368.244 -0.421198 -1.69031 0
M  V30 3832 C 365.376 -0.932952 -3.27885 0
M  V30 3833 H 366.569 -2.22357 -2.0124 0
M  V30 3834 H 364.122 -1.1837 -1.0207 0
M  V30 3835 H 364.857 0.0349917 -3.24281 0
M  V30 3836 H 364.642 -1.71682 -3.52516 0
M  V30 3837 H 366.132 -0.895874 -4.07877 0
M  V30 3838 N 366.569 1.04691 -1.17803 0
M  V30 3839 C 367.818 1.77176 -0.963931 0
M  V30 3840 C 368.131 1.88888 0.508015 0
M  V30 3841 O 369.337 2.58164 0.840465 0
M  V30 3842 C 367.793 3.18518 -1.67555 0
M  V30 3843 C 367.401 3.14919 -3.18637 0
M  V30 3844 C 369.145 3.95424 -1.54402 0
M  V30 3845 C 367.052 4.51081 -3.82466 0
M  V30 3846 H 365.982 0.664116 -0.357023 0
M  V30 3847 H 368.633 1.17303 -1.4111 0
M  V30 3848 H 367.015 3.78748 -1.15613 0
M  V30 3849 H 368.189 2.64178 -3.77554 0
M  V30 3850 H 366.504 2.51512 -3.31859 0
M  V30 3851 H 369.101 4.96106 -1.99456 0
M  V30 3852 H 369.444 4.13343 -0.495329 0
M  V30 3853 H 369.977 3.41754 -2.0359 0
M  V30 3854 H 366.716 4.38368 -4.87354 0
M  V30 3855 H 366.236 5.01951 -3.28337 0
M  V30 3856 H 367.915 5.2001 -3.84965 0
M  V30 3857 N 368.047 0.979072 1.23499 0
M  V30 3858 C 369.324 0.563674 1.87302 0
M  V30 3859 C 369.704 -0.959199 1.88049 0
M  V30 3860 O 369.052 -1.83535 1.36114 0
M  V30 3861 C 369.262 1.16822 3.28867 0
M  V30 3862 C 370.61 1.26014 4.0547 0
M  V30 3863 O 371.634 1.12158 3.38082 0
M  V30 3864 O 370.493 1.48044 5.26066 0
M  V30 3865 H 367.587 0.189602 0.804972 0
M  V30 3866 H 370.133 1.07407 1.31384 0
M  V30 3867 H 368.905 2.21049 3.22883 0
M  V30 3868 H 368.528 0.642564 3.92373 0
M  V30 3869 N 369.525 -1.3858 0.750561 0
M  V30 3870 C 370.488 -2.28836 0.129152 0
M  V30 3871 C 371.488 -1.47045 -0.650714 0
M  V30 3872 O 372.678 -1.6753 -0.477428 0
M  V30 3873 C 369.81 -3.30751 -0.825622 0
M  V30 3874 H 371.003 -2.85294 0.924516 0
M  V30 3875 H 368.556 -1.47489 0.517376 0
M  V30 3876 H 369.291 -2.79378 -1.64677 0
M  V30 3877 H 369.076 -3.91177 -0.268852 0
M  V30 3878 H 370.566 -3.98249 -1.2565 0
M  V30 3879 N 371.003 -0.499398 -1.49478 0
M  V30 3880 C 372.251 0.0455996 -2.02049 0
M  V30 3881 C 372.572 1.37633 -1.38138 0
M  V30 3882 O 371.842 1.8842 -0.536166 0
M  V30 3883 H 370.422 0.0198416 -0.746736 0
M  V30 3884 H 373.084 -0.656274 -1.83519 0
M  V30 3885 H 372.18 0.176445 -3.11601 0
M  V30 3886 N 372.481 1.55866 -0.233164 0
M  V30 3887 C 373.431 2.17442 0.685774 0
M  V30 3888 C 374.415 1.12617 1.14918 0
M  V30 3889 O 375.607 1.3857 1.10124 0
M  V30 3890 C 372.736 2.86685 1.88856 0
M  V30 3891 C 371.822 3.98749 1.4443 0
M  V30 3892 N 372.213 5.00744 0.713364 0
M  V30 3893 C 370.511 4.11052 1.73068 0
M  V30 3894 C 371.212 5.79673 0.485205 0
M  V30 3895 N 370.188 5.33454 1.04536 0
M  V30 3896 H 373.99 2.93659 0.119022 0
M  V30 3897 H 371.504 1.62362 -0.0348995 0
M  V30 3898 H 373.501 3.29218 2.55776 0
M  V30 3899 H 372.161 2.11967 2.45967 0
M  V30 3900 H 373.172 5.16613 0.364861 0
M  V30 3901 H 369.849 3.47495 2.31416 0
M  V30 3902 H 371.239 6.71829 -0.097365 0
M  V30 3903 N 373.959 -0.0401083 1.57549 0
M  V30 3904 C 374.869 -1.06133 2.0922 0
M  V30 3905 C 375.885 -1.40356 1.0284 0
M  V30 3906 O 377.061 -1.49897 1.34509 0
M  V30 3907 C 374.126 -2.34658 2.55218 0
M  V30 3908 C 373.187 -2.07117 3.76033 0
M  V30 3909 C 372.42 -3.29514 4.19829 0
M  V30 3910 O 372.643 -4.39794 3.63232 0
M  V30 3911 O 371.577 -3.15863 5.12362 0
M  V30 3912 H 375.403 -0.652244 2.96613 0
M  V30 3913 H 372.988 -0.256368 1.47184 0
M  V30 3914 H 374.87 -3.10239 2.85184 0
M  V30 3915 H 373.545 -2.74883 1.70941 0
M  V30 3916 H 372.452 -1.29139 3.51104 0
M  V30 3917 H 373.785 -1.71754 4.61261 0
M  V30 3918 N 375.437 -1.54477 -0.31217 0
M  V30 3919 C 376.662 -1.77526 -1.07235 0
M  V30 3920 C 377.087 -0.527775 -1.80544 0
M  V30 3921 O 376.445 0.52121 -1.73646 0
M  V30 3922 C 376.493 -2.97535 -2.03728 0
M  V30 3923 O 375.597 -2.69878 -3.11833 0
M  V30 3924 H 374.938 -0.58792 -0.30862 0
M  V30 3925 H 377.468 -2.01532 -0.352993 0
M  V30 3926 H 377.478 -3.25198 -2.46395 0
M  V30 3927 H 376.153 -3.87996 -1.49774 0
M  V30 3928 H 374.73 -2.53199 -2.7376 0
M  V30 3929 N 376.915 0.57481 -1.46744 0
M  V30 3930 C 378.162 1.33272 -1.52462 0
M  V30 3931 C 378.49 1.93669 -0.179572 0
M  V30 3932 O 377.745 1.7743 0.825664 0
M  V30 3933 C 378.044 2.476 -2.57738 0
M  V30 3934 C 377.71 2.05146 -4.01529 0
M  V30 3935 C 376.372 1.93284 -4.40676 0
M  V30 3936 C 378.724 1.72506 -4.91824 0
M  V30 3937 C 376.052 1.47049 -5.67973 0
M  V30 3938 C 378.404 1.27748 -6.19567 0
M  V30 3939 C 377.068 1.14468 -6.57612 0
M  V30 3940 H 376.338 0.487678 -0.557899 0
M  V30 3941 H 378.985 0.646456 -1.80259 0
M  V30 3942 H 377.29 3.21708 -2.23632 0
M  V30 3943 H 378.987 3.05807 -2.5939 0
M  V30 3944 H 375.577 2.15316 -3.7059 0
M  V30 3945 H 379.761 1.80552 -4.62293 0
M  V30 3946 H 375.017 1.35417 -5.96215 0
M  V30 3947 H 379.191 1.01547 -6.88957 0
M  V30 3948 H 376.818 0.78419 -7.56145 0
M  V30 3949 N 378.394 1.34581 0.820102 0
M  V30 3950 C 379.324 1.29038 1.94606 0
M  V30 3951 C 380.305 0.1673 1.69275 0
M  V30 3952 O 381.49 0.360112 1.90832 0
M  V30 3953 C 378.62 1.04793 3.31113 0
M  V30 3954 C 377.574 2.13597 3.70891 0
M  V30 3955 C 376.9 1.74537 5.05412 0
M  V30 3956 C 378.2 3.55451 3.8269 0
M  V30 3957 H 379.894 2.23248 1.99501 0
M  V30 3958 H 377.44 1.0747 0.958449 0
M  V30 3959 H 379.393 0.995592 4.0947 0
M  V30 3960 H 378.117 0.0702565 3.26524 0
M  V30 3961 H 376.776 2.17905 2.9481 0
M  V30 3962 H 376.424 0.754226 4.97313 0
M  V30 3963 H 376.124 2.47361 5.32997 0
M  V30 3964 H 377.648 1.70803 5.86224 0
M  V30 3965 H 379.062 3.5354 4.51312 0
M  V30 3966 H 377.459 4.26922 4.21732 0
M  V30 3967 H 378.529 3.92587 2.84611 0
M  V30 3968 N 379.872 -1.04064 1.18357 0
M  V30 3969 C 381.119 -1.77265 0.978947 0
M  V30 3970 C 381.447 -1.88189 -0.491428 0
M  V30 3971 O 380.702 -1.38653 -1.38108 0
M  V30 3972 C 381.001 -3.20634 1.57888 0
M  V30 3973 C 380.667 -3.29743 3.07539 0
M  V30 3974 C 379.329 -3.31937 3.48384 0
M  V30 3975 C 381.681 -3.29841 4.03552 0
M  V30 3976 C 379.009 -3.3187 4.83818 0
M  V30 3977 C 381.361 -3.31313 5.38901 0
M  V30 3978 C 380.025 -3.31799 5.79194 0
M  V30 3979 H 379.295 -0.648659 0.358222 0
M  V30 3980 H 381.942 -1.22225 1.47422 0
M  V30 3981 H 380.247 -3.78675 1.00561 0
M  V30 3982 H 381.944 -3.75917 1.39598 0
M  V30 3983 H 378.534 -3.28757 2.74986 0
M  V30 3984 H 382.718 -3.27337 3.73047 0
M  V30 3985 H 377.974 -3.30562 5.14333 0
M  V30 3986 H 382.148 -3.30338 6.13066 0
M  V30 3987 H 379.775 -3.315 6.84114 0
M  V30 3988 N 381.35 -0.985608 -1.22978 0
M  V30 3989 C 382.58 -0.674603 -1.95276 0
M  V30 3990 C 382.988 0.763483 -1.73111 0
M  V30 3991 O 382.331 1.52601 -1.02268 0
M  V30 3992 C 382.393 -0.891597 -3.48268 0
M  V30 3993 C 382.057 -2.31275 -3.94158 0
M  V30 3994 C 383.054 -3.29179 -4.02415 0
M  V30 3995 C 380.739 -2.64524 -4.27004 0
M  V30 3996 C 382.733 -4.58407 -4.42879 0
M  V30 3997 C 380.42 -3.93974 -4.67149 0
M  V30 3998 C 381.418 -4.90727 -4.75053 0
M  V30 3999 O 381.106 -6.17865 -5.14294 0
M  V30 4000 H 380.838 -0.249251 -0.628371 0
M  V30 4001 H 383.392 -1.32106 -1.5728 0
M  V30 4002 H 381.622 -0.187962 -3.86243 0
M  V30 4003 H 383.311 -0.576957 -4.01779 0
M  V30 4004 H 384.077 -3.04823 -3.77237 0
M  V30 4005 H 379.956 -1.89923 -4.2006 0
M  V30 4006 H 383.5 -5.33926 -4.48964 0
M  V30 4007 H 379.397 -4.18122 -4.91777 0
M  V30 4008 H 380.165 -6.21694 -5.32389 0
M  V30 4009 N 382.828 1.3818 -0.7579 0
M  V30 4010 C 383.775 2.30416 -0.133057 0
M  V30 4011 C 384.745 1.50398 0.704957 0
M  V30 4012 O 385.93 1.79014 0.660192 0
M  V30 4013 C 383.07 3.36834 0.750813 0
M  V30 4014 C 382.183 4.31879 -0.102297 0
M  V30 4015 C 381.318 5.25368 0.784979 0
M  V30 4016 C 380.357 6.12058 -0.0715046 0
M  V30 4017 N 379.494 6.97832 0.772972 0
M  V30 4018 H 384.334 2.83274 -0.925186 0
M  V30 4019 H 381.871 1.39461 -0.467866 0
M  V30 4020 H 383.829 3.97145 1.27794 0
M  V30 4021 H 382.459 2.85374 1.50868 0
M  V30 4022 H 381.511 3.72991 -0.747095 0
M  V30 4023 H 382.823 4.92921 -0.763552 0
M  V30 4024 H 381.977 5.90818 1.37911 0
M  V30 4025 H 380.716 4.64703 1.47996 0
M  V30 4026 H 379.721 5.456 -0.678272 0
M  V30 4027 H 380.946 6.74793 -0.763606 0
M  V30 4028 H 378.892 6.3971 1.45282 0
M  V30 4029 H 378.809 7.55812 0.168709 0
M  V30 4030 H 380.077 7.67687 1.35194 0
M  V30 4031 N 384.306 0.507319 1.49211 0
M  V30 4032 C 385.216 -0.272136 2.33016 0
M  V30 4033 C 386.232 -0.961206 1.45041 0
M  V30 4034 O 387.408 -0.941191 1.78055 0
M  V30 4035 C 384.473 -1.31895 3.20631 0
M  V30 4036 C 383.534 -0.642648 4.24463 0
M  V30 4037 C 382.767 -1.63959 5.07891 0
M  V30 4038 O 382.99 -2.87007 4.92933 0
M  V30 4039 O 381.924 -1.19143 5.8999 0
M  V30 4040 H 385.75 0.413982 3.00865 0
M  V30 4041 H 383.335 0.268556 1.46966 0
M  V30 4042 H 385.217 -1.92446 3.7489 0
M  V30 4043 H 383.892 -1.98788 2.5547 0
M  V30 4044 H 382.799 0.00276252 3.741 0
M  V30 4045 H 384.132 -0.0160534 4.92197 0
M  V30 4046 N 385.784 -1.5574 0.241426 0
M  V30 4047 C 387.032 -1.98417 -0.384075 0
M  V30 4048 C 387.353 -1.13078 -1.58866 0
M  V30 4049 O 386.623 -0.212312 -1.94746 0
M  V30 4050 H 385.203 -0.732813 -0.144894 0
M  V30 4051 H 387.865 -1.9193 0.338943 0
M  V30 4052 H 386.961 -3.04219 -0.696939 0
M  V30 4053 N 387.262 0.0317525 -1.57568 0
M  V30 4054 C 388.511 0.722131 -1.8833 0
M  V30 4055 C 388.824 1.76664 -0.839587 0
M  V30 4056 O 390.03 2.50942 -1.03635 0
M  V30 4057 C 388.486 1.33544 -3.34207 0
M  V30 4058 C 388.094 0.327415 -4.46802 0
M  V30 4059 C 389.838 2.00585 -3.7412 0
M  V30 4060 C 387.745 0.948915 -5.83738 0
M  V30 4061 H 386.675 0.273466 -0.702661 0
M  V30 4062 H 389.326 -0.0235811 -1.83485 0
M  V30 4063 H 387.708 2.13077 -3.33788 0
M  V30 4064 H 388.882 -0.441006 -4.58685 0
M  V30 4065 H 387.197 -0.240758 -4.15703 0
M  V30 4066 H 389.794 2.47932 -4.73744 0
M  V30 4067 H 390.137 2.82285 -3.05975 0
M  V30 4068 H 390.67 1.27831 -3.76702 0
M  V30 4069 H 387.409 0.171387 -6.55276 0
M  V30 4070 H 386.929 1.68724 -5.7558 0
M  V30 4071 H 388.608 1.45705 -6.3038 0
M  V30 4072 N 388.74 1.54641 0.303973 0
M  V30 4073 C 389.97 1.77511 1.05705 0
M  V30 4074 C 390.378 0.533228 1.81531 0
M  V30 4075 O 389.721 -0.506423 1.76582 0
M  V30 4076 C 389.783 2.92779 2.08617 0
M  V30 4077 C 389.447 4.30977 1.52013 0
M  V30 4078 C 390.444 5.11115 0.9517 0
M  V30 4079 C 388.129 4.77571 1.55665 0
M  V30 4080 C 390.123 6.35966 0.427327 0
M  V30 4081 C 387.81 6.02384 1.02841 0
M  V30 4082 C 388.808 6.81417 0.464713 0
M  V30 4083 O 388.496 8.03881 -0.0555283 0
M  V30 4084 H 388.228 0.59579 0.319391 0
M  V30 4085 H 390.782 2.02401 0.349712 0
M  V30 4086 H 389.012 2.63506 2.83022 0
M  V30 4087 H 390.701 3.03252 2.69802 0
M  V30 4088 H 391.467 4.76264 0.916407 0
M  V30 4089 H 387.346 4.16085 1.9848 0
M  V30 4090 H 390.89 6.97599 -0.0133062 0
M  V30 4091 H 386.787 6.36723 1.06084 0
M  V30 4092 H 387.555 8.18479 0.0580522 0
M  V30 4093 N 390.218 -0.567019 1.47046 0
M  V30 4094 C 391.465 -1.32462 1.53167 0
M  V30 4095 C 391.793 -1.93571 0.189841 0
M  V30 4096 O 391.048 -1.77865 -0.816243 0
M  V30 4097 C 391.347 -2.4623 2.59047 0
M  V30 4098 C 391.013 -2.03014 4.02612 0
M  V30 4099 C 389.675 -1.90944 4.41694 0
M  V30 4100 C 392.027 -1.69895 4.92732 0
M  V30 4101 C 389.355 -1.44035 5.68745 0
M  V30 4102 C 391.707 -1.2446 6.20236 0
M  V30 4103 C 390.371 -1.10979 6.5821 0
M  V30 4104 H 389.641 -0.484713 0.560477 0
M  V30 4105 H 392.288 -0.636888 1.80599 0
M  V30 4106 H 390.593 -3.20517 2.25335 0
M  V30 4107 H 392.29 -3.04427 2.61008 0
M  V30 4108 H 388.88 -2.13348 3.71726 0
M  V30 4109 H 393.064 -1.78098 4.63244 0
M  V30 4110 H 388.32 -1.32254 5.96925 0
M  V30 4111 H 392.494 -0.978924 6.89485 0
M  V30 4112 H 390.121 -0.744078 7.5655 0
M  V30 4113 N 391.696 -1.35014 -0.812953 0
M  V30 4114 C 392.606 -1.2951 -1.95613 0
M  V30 4115 C 393.622 -0.20107 -1.72834 0
M  V30 4116 O 394.798 -0.42932 -1.96771 0
M  V30 4117 C 391.863 -1.06033 -3.30088 0
M  V30 4118 C 390.924 -2.24688 -3.65805 0
M  V30 4119 C 390.157 -2.02322 -4.93864 0
M  V30 4120 O 390.38 -0.986464 -5.61805 0
M  V30 4121 O 389.314 -2.89525 -5.27692 0
M  V30 4122 H 393.14 -2.25705 -2.03202 0
M  V30 4123 H 390.725 -1.15321 -0.949811 0
M  V30 4124 H 392.607 -0.94763 -4.10607 0
M  V30 4125 H 391.282 -0.128852 -3.23443 0
M  V30 4126 H 390.189 -2.41521 -2.85689 0
M  V30 4127 H 391.522 -3.16261 -3.77147 0
M  V30 4128 N 393.175 1.03435 -1.18907 0
M  V30 4129 C 394.586 1.58195 -0.991523 0
M  V30 4130 C 394.937 1.90801 0.457081 0
M  V30 4131 O 394.062 1.70272 1.33553 0
M  V30 4132 C 394.657 2.87432 -1.79355 0
M  V30 4133 C 393.216 3.38785 -1.64017 0
M  V30 4134 C 392.363 2.12292 -1.78402 0
M  V30 4135 H 395.314 0.860299 -1.33359 0
M  V30 4136 H 395.335 3.58096 -1.28638 0
M  V30 4137 H 394.847 2.63669 -2.84781 0
M  V30 4138 H 392.948 3.67547 -0.611536 0
M  V30 4139 H 393.061 4.12186 -2.44212 0
M  V30 4140 H 391.425 2.23901 -1.2141 0
M  V30 4141 H 392.208 1.90977 -2.85277 0
M  V30 4142 N 394.653 0.992116 1.22453 0
M  V30 4143 C 395.93 0.583508 1.86694 0
M  V30 4144 C 396.31 -0.9392 1.89056 0
M  V30 4145 O 395.658 -1.82081 1.38053 0
M  V30 4146 C 395.868 1.20304 3.2761 0
M  V30 4147 C 397.216 1.30308 4.0411 0
M  V30 4148 O 398.24 1.15737 3.36873 0
M  V30 4149 O 397.099 1.53615 5.24466 0
M  V30 4150 H 394.193 0.198129 0.802916 0
M  V30 4151 H 396.739 1.08794 1.30238 0
M  V30 4152 H 395.511 2.24461 3.2052 0
M  V30 4153 H 395.134 0.684144 3.9167 0
M  V30 4154 N 396.131 -1.37776 0.765217 0
M  V30 4155 C 397.371 -2.01691 0.331669 0
M  V30 4156 C 397.735 -1.59432 -1.06983 0
M  V30 4157 O 398.936 -2.15761 -1.60314 0
M  V30 4158 C 397.207 -3.54385 0.463261 0
M  V30 4159 S 398.766 -4.38652 0.114011 0
M  V30 4160 H 395.584 -0.699387 0.127979 0
M  V30 4161 H 398.186 -1.68084 0.998396 0
M  V30 4162 H 396.89 -3.82629 1.48401 0
M  V30 4163 H 396.421 -3.92783 -0.220246 0
M  V30 4164 H 398.436 -4.84021 -1.09261 0
M  V30 4165 N 397.609 -0.515225 -1.4894 0
M  V30 4166 C 398.834 0.022727 -2.07388 0
M  V30 4167 C 399.259 1.2876 -1.37122 0
M  V30 4168 O 398.617 1.76067 -0.432431 0
M  V30 4169 C 398.665 0.244869 -3.59768 0
M  V30 4170 O 397.769 1.31667 -3.90817 0
M  V30 4171 H 397.11 -0.0325506 -0.663202 0
M  V30 4172 H 399.64 -0.718918 -1.91553 0
M  V30 4173 H 399.65 0.47205 -4.0526 0
M  V30 4174 H 398.325 -0.679194 -4.10317 0
M  V30 4175 H 396.902 1.07331 -3.5712 0
M  V30 4176 N 399.087 1.5561 -0.249682 0
M  V30 4177 C 400.312 2.03865 0.381305 0
M  V30 4178 C 400.737 1.12769 1.50548 0
M  V30 4179 O 400.095 0.121189 1.80895 0
M  V30 4180 C 400.143 3.50101 0.863816 0
M  V30 4181 O 399.247 3.62132 1.97318 0
M  V30 4182 H 398.588 0.658827 0.0827194 0
M  V30 4183 H 401.118 2.01105 -0.376552 0
M  V30 4184 H 401.128 3.90975 1.1663 0
M  V30 4185 H 399.803 4.1588 0.0411816 0
M  V30 4186 H 398.38 3.33155 1.67517 0
M  V30 4187 N 400.565 -0.0233959 1.57583 0
M  V30 4188 C 401.475 -1.03907 2.10334 0
M  V30 4189 C 402.491 -1.39257 1.04323 0
M  V30 4190 O 403.667 -1.48462 1.36091 0
M  V30 4191 C 400.732 -2.31938 2.57693 0
M  V30 4192 C 399.793 -2.03117 3.78209 0
M  V30 4193 C 399.026 -3.25043 4.233 0
M  V30 4194 O 399.249 -4.35916 3.67876 0
M  V30 4195 O 398.183 -3.10411 5.15683 0
M  V30 4196 H 402.009 -0.620748 2.97288 0
M  V30 4197 H 399.594 -0.240743 1.47448 0
M  V30 4198 H 401.476 -3.07196 2.88458 0
M  V30 4199 H 400.151 -2.73055 1.73847 0
M  V30 4200 H 399.058 -1.25408 3.52454 0
M  V30 4201 H 400.391 -1.66852 4.63056 0
M  V30 4202 N 402.043 -1.548 -0.295768 0
M  V30 4203 C 403.32 -1.65014 -1.05023 0
M  V30 4204 C 403.7 -0.501805 -2.05049 0
M  V30 4205 O 403.048 0.500869 -2.22943 0
M  V30 4206 C 403.258 -3.03252 -1.72741 0
M  V30 4207 C 404.606 -3.60242 -2.24746 0
M  V30 4208 O 405.63 -3.05737 -1.82765 0
M  V30 4209 O 404.489 -4.55687 -3.01681 0
M  V30 4210 H 401.583 -0.669314 -0.485744 0
M  V30 4211 H 404.129 -1.67144 -0.293438 0
M  V30 4212 H 402.901 -3.7827 -1.00138 0
M  V30 4213 H 402.524 -3.04922 -2.55163 0
M  V30 4214 N 403.521 0.559213 -1.47345 0
M  V30 4215 C 404.454 1.68201 -1.5422 0
M  V30 4216 C 405.432 1.57742 -0.394497 0
M  V30 4217 O 406.616 1.78628 -0.60201 0
M  V30 4218 C 403.743 3.0643 -1.44285 0
M  V30 4219 C 402.789 3.3534 -2.63532 0
M  V30 4220 S 403.622 3.24816 -4.25741 0
M  V30 4221 C 404.778 4.65542 -4.18355 0
M  V30 4222 H 405.011 1.62114 -2.49211 0
M  V30 4223 H 402.544 0.739871 -1.35519 0
M  V30 4224 H 404.502 3.86164 -1.3924 0
M  V30 4225 H 403.163 3.09984 -0.506816 0
M  V30 4226 H 402.356 4.36107 -2.52639 0
M  V30 4227 H 401.958 2.63221 -2.65689 0
M  V30 4228 H 404.25 5.56449 -3.86485 0
M  V30 4229 H 405.193 4.81493 -5.19202 0
M  V30 4230 H 405.601 4.43495 -3.49246 0
M  V30 4231 N 404.999 1.35443 0.805782 0
M  V30 4232 C 406.276 1.19325 1.54987 0
M  V30 4233 C 406.656 -0.227294 2.09873 0
M  V30 4234 O 406.004 -1.2309 1.92512 0
M  V30 4235 C 406.214 2.26196 2.65775 0
M  V30 4236 C 407.562 2.62043 3.34094 0
M  V30 4237 O 408.586 2.25115 2.76046 0
M  V30 4238 O 407.445 3.25542 4.38958 0
M  V30 4239 H 404.539 0.463623 0.684823 0
M  V30 4240 H 407.085 1.47127 0.845674 0
M  V30 4241 H 405.857 3.21471 2.23096 0
M  V30 4242 H 405.48 1.99667 3.43829 0
M  V30 4243 N 406.477 -1.02803 1.19454 0
M  V30 4244 C 407.427 -2.0945 0.900827 0
M  V30 4245 C 408.411 -1.60335 -0.134715 0
M  V30 4246 O 409.603 -1.76857 0.0710924 0
M  V30 4247 C 406.732 -3.4044 0.442229 0
M  V30 4248 C 405.818 -3.96286 1.51056 0
M  V30 4249 N 406.209 -4.25785 2.73021 0
M  V30 4250 C 404.507 -4.24307 1.37404 0
M  V30 4251 C 405.208 -4.70654 3.41848 0
M  V30 4252 N 404.184 -4.72238 2.69243 0
M  V30 4253 H 407.986 -2.3015 1.82779 0
M  V30 4254 H 405.5 -1.20672 1.08683 0
M  V30 4255 H 407.497 -4.16354 0.21326 0
M  V30 4256 H 406.157 -3.21159 -0.478238 0
M  V30 4257 H 407.168 -4.15041 3.09776 0
M  V30 4258 H 403.845 -4.14285 0.517103 0
M  V30 4259 H 405.235 -5.02392 4.46152 0
M  V30 4260 N 407.956 -0.998596 -1.21925 0
M  V30 4261 C 409.204 -0.676325 -1.90448 0
M  V30 4262 C 409.525 0.794719 -1.78071 0
M  V30 4263 O 408.795 1.5701 -1.17152 0
M  V30 4264 H 407.375 -0.247165 -0.704925 0
M  V30 4265 H 410.037 -1.26633 -1.48156 0
M  V30 4266 H 409.133 -0.943858 -2.97486 0
M  V30 4267 N 409.434 1.37368 -0.772513 0
M  V30 4268 C 410.68 1.99969 -0.337681 0
M  V30 4269 C 411.013 1.61184 1.08321 0
M  V30 4270 O 410.288 0.858395 1.74533 0
M  V30 4271 C 410.571 3.56858 -0.482121 0
M  V30 4272 C 410.424 4.0555 -1.94549 0
M  V30 4273 C 411.743 4.39955 0.113143 0
M  V30 4274 H 408.862 0.726464 -0.124171 0
M  V30 4275 H 411.504 1.63034 -0.975699 0
M  V30 4276 H 409.654 3.88452 0.0610361 0
M  V30 4277 H 411.326 3.84518 -2.54841 0
M  V30 4278 H 409.569 3.57715 -2.45403 0
M  V30 4279 H 410.24 5.14587 -1.9976 0
M  V30 4280 H 412.716 4.14623 -0.35031 0
M  V30 4281 H 411.592 5.48897 -0.0180514 0
M  V30 4282 H 411.853 4.25403 1.20354 0
M  V30 4283 N 410.912 0.523116 1.48665 0
M  V30 4284 C 411.842 -0.23231 2.32342 0
M  V30 4285 C 412.823 -0.941637 1.41659 0
M  V30 4286 O 414.008 -0.928751 1.70552 0
M  V30 4287 C 411.138 -1.28387 3.22698 0
M  V30 4288 C 410.092 -0.693098 4.22351 0
M  V30 4289 C 409.418 -1.8468 5.01794 0
M  V30 4290 C 410.718 0.33063 5.21252 0
M  V30 4291 H 412.412 0.466192 2.95748 0
M  V30 4292 H 409.958 0.225643 1.42221 0
M  V30 4293 H 411.911 -1.82024 3.80059 0
M  V30 4294 H 410.635 -2.01186 2.57278 0
M  V30 4295 H 409.294 -0.178299 3.66166 0
M  V30 4296 H 408.942 -2.56301 4.32804 0
M  V30 4297 H 408.642 -1.45747 5.69238 0
M  V30 4298 H 410.166 -2.38709 5.62006 0
M  V30 4299 H 411.58 -0.118407 5.73178 0
M  V30 4300 H 409.977 0.636974 5.9671 0
M  V30 4301 H 411.047 1.23883 4.68808 0
M  V30 4302 N 412.39 -1.55475 0.257931 0
M  V30 4303 C 413.636 -1.99502 -0.364266 0
M  V30 4304 C 413.969 -1.146 -1.56782 0
M  V30 4305 O 413.244 -0.211968 -1.93342 0
M  V30 4306 C 413.527 -3.51917 -0.763333 0
M  V30 4307 C 413.38 -4.4758 0.446371 0
M  V30 4308 C 414.699 -4.09742 -1.60623 0
M  V30 4309 H 411.818 -0.725277 -0.130929 0
M  V30 4310 H 414.46 -1.8653 0.361446 0
M  V30 4311 H 412.61 -3.63101 -1.38166 0
M  V30 4312 H 414.282 -4.48362 1.08487 0
M  V30 4313 H 412.525 -4.19947 1.08753 0
M  V30 4314 H 413.196 -5.51862 0.123645 0
M  V30 4315 H 415.672 -4.01727 -1.08418 0
M  V30 4316 H 414.548 -5.16631 -1.85429 0
M  V30 4317 H 414.809 -3.58889 -2.58169 0
M  V30 4318 N 413.868 0.0150385 -1.57593 0
M  V30 4319 C 415.114 0.704043 -1.90187 0
M  V30 4320 C 415.447 1.74249 -0.857366 0
M  V30 4321 O 414.722 1.94092 0.125843 0
M  V30 4322 C 415.005 1.36087 -3.33395 0
M  V30 4323 C 414.858 0.334981 -4.48551 0
M  V30 4324 C 416.177 2.29112 -3.7576 0
M  V30 4325 H 413.296 0.254475 -0.691673 0
M  V30 4326 H 415.938 -0.0331678 -1.89971 0
M  V30 4327 H 414.088 1.98922 -3.3371 0
M  V30 4328 H 415.76 -0.292534 -4.60372 0
M  V30 4329 H 414.003 -0.344325 -4.32431 0
M  V30 4330 H 414.674 0.833316 -5.45674 0
M  V30 4331 H 417.15 1.76308 -3.76902 0
M  V30 4332 H 416.026 2.72043 -4.76743 0
M  V30 4333 H 416.287 3.16385 -3.08793 0
M  V30 4334 N 415.346 1.54954 0.287554 0
M  V30 4335 C 416.594 1.74528 1.01904 0
M  V30 4336 C 416.915 0.541349 1.87335 0
M  V30 4337 O 416.185 -0.444108 1.908 0
M  V30 4338 H 414.765 0.643576 0.379235 0
M  V30 4339 H 417.427 1.92333 0.315294 0
M  V30 4340 H 416.523 2.64015 1.6644 0
M  V30 4341 N 416.824 -0.551391 1.4764 0
M  V30 4342 C 418.054 -1.33163 1.57959 0
M  V30 4343 C 418.462 -1.87785 0.23094 0
M  V30 4344 O 417.805 -1.65996 -0.786825 0
M  V30 4345 C 417.867 -2.53449 2.54958 0
M  V30 4346 C 417.531 -2.20071 4.00522 0
M  V30 4347 C 418.528 -1.77017 4.88836 0
M  V30 4348 C 416.213 -2.31252 4.45901 0
M  V30 4349 C 418.207 -1.4558 6.20552 0
M  V30 4350 C 415.894 -1.99427 5.77644 0
M  V30 4351 C 416.892 -1.56659 6.64791 0
M  V30 4352 O 416.58 -1.25242 7.94084 0
M  V30 4353 H 416.312 -0.412022 0.535923 0
M  V30 4354 H 418.866 -0.674186 1.9402 0
M  V30 4355 H 417.096 -3.22104 2.13976 0
M  V30 4356 H 418.785 -3.15523 2.55343 0
M  V30 4357 H 419.551 -1.67867 4.55023 0
M  V30 4358 H 415.43 -2.63498 3.78272 0
M  V30 4359 H 418.974 -1.12125 6.8853 0
M  V30 4360 H 414.871 -2.08211 6.10998 0
M  V30 4361 H 415.639 -1.38822 8.06642 0
M  V30 4362 N 418.302 -1.35869 -0.798587 0
M  V30 4363 C 419.55 -1.29332 -1.55298 0
M  V30 4364 C 419.871 0.129729 -1.94568 0
M  V30 4365 O 419.141 1.06796 -1.6423 0
M  V30 4366 H 417.721 -0.475737 -0.57592 0
M  V30 4367 H 420.383 -1.70062 -0.952093 0
M  V30 4368 H 419.479 -1.91458 -2.46476 0
M  V30 4369 N 419.78 1.02168 -1.19998 0
M  V30 4370 C 421.027 1.75685 -1.00702 0
M  V30 4371 C 421.355 1.88947 0.461426 0
M  V30 4372 O 420.61 1.40832 1.35885 0
M  V30 4373 C 420.909 3.18081 -1.62969 0
M  V30 4374 C 420.575 3.24809 -3.12746 0
M  V30 4375 C 419.237 3.26352 -3.53621 0
M  V30 4376 C 421.589 3.23379 -4.08749 0
M  V30 4377 C 418.917 3.2413 -4.89036 0
M  V30 4378 C 421.269 3.22698 -5.44104 0
M  V30 4379 C 419.933 3.22542 -5.84399 0
M  V30 4380 H 419.203 0.642877 -0.368496 0
M  V30 4381 H 421.85 1.19865 -1.49348 0
M  V30 4382 H 420.155 3.77027 -1.06573 0
M  V30 4383 H 421.852 3.73648 -1.45561 0
M  V30 4384 H 418.442 3.2434 -2.80181 0
M  V30 4385 H 422.626 3.21361 -3.78207 0
M  V30 4386 H 417.882 3.22338 -5.19527 0
M  V30 4387 H 422.056 3.20543 -6.18244 0
M  V30 4388 H 419.683 3.20575 -6.89301 0
M  V30 4389 N 421.258 1.00505 1.21394 0
M  V30 4390 C 422.168 0.574806 2.27449 0
M  V30 4391 C 423.184 -0.382206 1.6975 0
M  V30 4392 O 424.36 -0.246027 1.99892 0
M  V30 4393 C 421.425 -0.0917414 3.46579 0
M  V30 4394 C 420.486 0.909758 4.1955 0
M  V30 4395 C 419.719 0.274924 5.32991 0
M  V30 4396 O 419.942 -0.928254 5.62796 0
M  V30 4397 O 418.876 0.985877 5.93771 0
M  V30 4398 H 422.702 1.45744 2.66444 0
M  V30 4399 H 420.287 0.773923 1.27792 0
M  V30 4400 H 422.169 -0.464551 4.18832 0
M  V30 4401 H 420.844 -0.948755 3.09484 0
M  V30 4402 H 419.751 1.33372 3.49518 0
M  V30 4403 H 421.084 1.73636 4.60555 0
M  V30 4404 N 422.737 -1.36956 0.779787 0
M  V30 4405 C 423.962 -2.04283 0.358224 0
M  V30 4406 C 424.387 -1.58422 -1.01411 0
M  V30 4407 O 423.745 -0.748179 -1.65142 0
M  V30 4408 C 423.793 -3.58152 0.419479 0
M  V30 4409 O 422.897 -4.08342 -0.577142 0
M  V30 4410 H 422.238 -0.645967 0.153698 0
M  V30 4411 H 424.768 -1.75108 1.05822 0
M  V30 4412 H 424.778 -4.07041 0.279636 0
M  V30 4413 H 423.453 -3.90886 1.42061 0
M  V30 4414 H 422.03 -3.70751 -0.399755 0
M  V30 4415 N 424.215 -0.530993 -1.48385 0
M  V30 4416 C 425.443 -0.00134122 -2.069 0
M  V30 4417 C 425.858 1.2805 -1.3874 0
M  V30 4418 O 425.215 1.76204 -0.475244 0
M  V30 4419 C 425.266 0.225256 -3.60798 0
M  V30 4420 O 424.987 -1.0058 -4.26398 0
M  V30 4421 C 426.488 0.795172 -4.3611 0
M  V30 4422 H 423.708 -0.0339704 -0.67014 0
M  V30 4423 H 426.252 -0.736926 -1.90761 0
M  V30 4424 H 424.407 0.910891 -3.76539 0
M  V30 4425 H 424.821 -0.787165 -5.1856 0
M  V30 4426 H 426.295 0.903143 -5.44562 0
M  V30 4427 H 426.772 1.80031 -4.00606 0
M  V30 4428 H 427.378 0.146069 -4.25049 0
M  V30 4429 N 425.693 1.55336 -0.266172 0
M  V30 4430 C 426.603 2.2583 0.635458 0
M  V30 4431 C 427.619 1.28106 1.17749 0
M  V30 4432 O 428.795 1.61024 1.20968 0
M  V30 4433 C 425.86 2.95879 1.80712 0
M  V30 4434 C 424.921 4.09059 1.30265 0
M  V30 4435 C 424.154 4.75759 2.41846 0
M  V30 4436 O 424.377 4.41622 3.61007 0
M  V30 4437 O 423.311 5.63888 2.1051 0
M  V30 4438 H 427.137 3.03631 0.0646693 0
M  V30 4439 H 424.722 1.49361 -0.0339177 0
M  V30 4440 H 426.604 3.39932 2.49047 0
M  V30 4441 H 425.279 2.21002 2.36516 0
M  V30 4442 H 424.186 3.69482 0.586019 0
M  V30 4443 H 425.519 4.85811 0.790458 0
M  V30 4444 N 427.171 -0.0066808 1.57599 0
M  V30 4445 C 428.396 -0.707738 1.94951 0
M  V30 4446 C 428.821 -1.66882 0.867868 0
M  V30 4447 O 428.179 -1.80457 -0.17458 0
M  V30 4448 C 428.227 -1.42162 3.31394 0
M  V30 4449 O 427.331 -2.53578 3.25226 0
M  V30 4450 H 426.672 -0.188752 0.636607 0
M  V30 4451 H 429.202 0.0445193 2.04552 0
M  V30 4452 H 429.212 -1.78655 3.66806 0
M  V30 4453 H 427.887 -0.716903 4.09675 0
M  V30 4454 H 426.464 -2.19463 3.01481 0
M  V30 4455 N 428.649 -1.55105 -0.279332 0
M  V30 4456 C 429.926 -1.66119 -1.03267 0
M  V30 4457 C 430.306 -0.523525 -2.04505 0
M  V30 4458 O 429.654 0.477194 -2.23462 0
M  V30 4459 C 429.864 -3.05067 -1.69515 0
M  V30 4460 C 431.212 -3.62606 -2.20912 0
M  V30 4461 O 432.236 -3.07659 -1.79512 0
M  V30 4462 O 431.095 -4.58861 -2.96831 0
M  V30 4463 H 428.189 -0.674429 -0.478618 0
M  V30 4464 H 430.735 -1.67446 -0.275694 0
M  V30 4465 H 429.507 -3.79311 -0.9612 0
M  V30 4466 H 429.13 -3.07611 -2.51915 0
M  V30 4467 N 430.127 0.543554 -1.4793 0
M  V30 4468 C 431.075 1.67039 -1.61866 0
M  V30 4469 C 432.069 1.62294 -0.48549 0
M  V30 4470 O 433.275 1.67315 -0.66376 0
M  V30 4471 H 429.65 0.552954 -0.509652 0
M  V30 4472 H 431.621 1.52426 -2.56533 0
M  V30 4473 C 430.37 3.05357 -1.6629 0
M  V30 4474 H 429.693 3.09696 -2.5284 0
M  V30 4475 H 431.133 3.83855 -1.80088 0
M  V30 4476 C 429.592 3.34531 -0.398861 0
M  V30 4477 O 430.122 3.98649 0.494162 0
M  V30 4478 N 428.328 2.89299 -0.2747 0
M  V30 4479 H 427.875 2.37298 -1.00236 0
M  V30 4480 H 427.833 3.09188 0.570075 0
M  V30 4481 N 431.605 1.3629 0.791371 0
M  V30 4482 C 432.553 1.30514 1.92533 0
M  V30 4483 C 433.547 0.197285 1.68247 0
M  V30 4484 O 434.753 0.364176 1.76278 0
M  V30 4485 H 431.128 0.406263 0.632815 0
M  V30 4486 H 433.099 2.26282 1.94523 0
M  V30 4487 C 431.848 1.10933 3.29529 0
M  V30 4488 H 431.171 1.95427 3.48781 0
M  V30 4489 H 432.611 1.10937 4.0923 0
M  V30 4490 C 431.07 -0.186123 3.36385 0
M  V30 4491 O 431.6 -1.17664 3.84081 0
M  V30 4492 N 429.806 -0.230128 2.89687 0
M  V30 4493 H 429.353 0.576545 2.51065 0
M  V30 4494 H 429.311 -1.09658 2.94657 0
M  V30 4495 N 433.083 -1.0153 1.20538 0
M  V30 4496 C 434.03 -2.10098 0.955383 0
M  V30 4497 C 435 -1.65702 -0.114878 0
M  V30 4498 O 436.185 -1.90776 0.0301118 0
M  V30 4499 C 433.325 -3.41236 0.514969 0
M  V30 4500 C 432.438 -3.99102 1.65353 0
M  V30 4501 C 431.573 -5.18306 1.16329 0
M  V30 4502 C 430.612 -5.68258 2.27485 0
M  V30 4503 N 429.749 -6.78722 1.7967 0
M  V30 4504 H 434.589 -2.30818 1.88486 0
M  V30 4505 H 432.126 -1.13189 0.939499 0
M  V30 4506 H 434.084 -4.16504 0.240935 0
M  V30 4507 H 432.714 -3.20585 -0.377512 0
M  V30 4508 H 431.766 -3.20918 2.04245 0
M  V30 4509 H 433.078 -4.32177 2.49047 0
M  V30 4510 H 432.232 -6.00782 0.845302 0
M  V30 4511 H 430.971 -4.86799 0.296254 0
M  V30 4512 H 429.976 -4.84385 2.60099 0
M  V30 4513 H 431.201 -6.01798 3.14667 0
M  V30 4514 H 429.147 -6.49042 0.95295 0
M  V30 4515 H 429.064 -7.10996 2.56944 0
M  V30 4516 H 430.332 -7.64759 1.50875 0
M  V30 4517 N 434.561 -1.01147 -1.20859 0
M  V30 4518 C 435.791 -0.715872 -1.93801 0
M  V30 4519 C 436.199 0.726592 -1.74692 0
M  V30 4520 O 435.542 1.50397 -1.05482 0
M  V30 4521 C 435.604 -0.965269 -3.46299 0
M  V30 4522 C 435.268 -2.39584 -3.89164 0
M  V30 4523 C 436.265 -3.3764 -3.95342 0
M  V30 4524 C 433.95 -2.73522 -4.21297 0
M  V30 4525 C 435.944 -4.67698 -4.33056 0
M  V30 4526 C 433.631 -4.03794 -4.58687 0
M  V30 4527 C 434.629 -5.00693 -4.64538 0
M  V30 4528 O 434.317 -6.28635 -5.01072 0
M  V30 4529 H 434.049 -0.262524 -0.622942 0
M  V30 4530 H 436.603 -1.35413 -1.54443 0
M  V30 4531 H 434.833 -0.269847 -3.85757 0
M  V30 4532 H 436.522 -0.662051 -4.00464 0
M  V30 4533 H 437.288 -3.12757 -3.70686 0
M  V30 4534 H 433.167 -1.9879 -4.15937 0
M  V30 4535 H 436.711 -5.4333 -4.37537 0
M  V30 4536 H 432.608 -4.28459 -4.82797 0
M  V30 4537 H 433.376 -6.32847 -5.19083 0
M  V30 4538 N 436.039 1.36541 -0.78704 0
M  V30 4539 C 437.285 2.00044 -0.367938 0
M  V30 4540 C 437.64 1.61345 1.04812 0
M  V30 4541 O 436.933 0.856936 1.71368 0
M  V30 4542 C 437.127 3.54343 -0.466485 0
M  V30 4543 C 436.956 4.08029 -1.89058 0
M  V30 4544 C 435.726 4.38284 -2.51466 0
M  V30 4545 C 437.924 4.27954 -2.85236 0
M  V30 4546 N 435.906 4.77778 -3.85488 0
M  V30 4547 C 437.277 4.70227 -4.04088 0
M  V30 4548 C 439.332 4.10119 -2.82324 0
M  V30 4549 C 438.035 4.96532 -5.20432 0
M  V30 4550 C 440.061 4.37569 -3.97854 0
M  V30 4551 C 439.423 4.80095 -5.15449 0
M  V30 4552 H 435.522 0.760525 -0.182004 0
M  V30 4553 H 438.106 1.65589 -1.02413 0
M  V30 4554 H 436.277 3.88072 0.159606 0
M  V30 4555 H 438.009 4.04693 -0.0238577 0
M  V30 4556 H 434.764 4.27905 -2.02965 0
M  V30 4557 H 435.188 5.01813 -4.54437 0
M  V30 4558 H 439.83 3.76399 -1.92571 0
M  V30 4559 H 437.548 5.29134 -6.10773 0
M  V30 4560 H 441.134 4.25341 -3.96958 0
M  V30 4561 H 440.014 5.00925 -6.0336 0
M  V30 4562 N 437.518 0.538854 1.48102 0
M  V30 4563 C 438.448 -0.207654 2.32575 0
M  V30 4564 C 439.429 -0.926559 1.4265 0
M  V30 4565 O 440.614 -0.91061 1.71527 0
M  V30 4566 C 437.744 -1.24957 3.24042 0
M  V30 4567 C 436.698 -0.648263 4.23062 0
M  V30 4568 C 436.024 -1.79348 5.03725 0
M  V30 4569 C 437.324 0.385897 5.20872 0
M  V30 4570 H 439.018 0.497534 2.95237 0
M  V30 4571 H 436.564 0.240715 1.41974 0
M  V30 4572 H 438.517 -1.77983 3.81969 0
M  V30 4573 H 437.241 -1.98446 2.59397 0
M  V30 4574 H 435.9 -0.139452 3.66335 0
M  V30 4575 H 435.548 -2.51696 4.35498 0
M  V30 4576 H 435.248 -1.39702 5.70751 0
M  V30 4577 H 436.772 -2.32735 5.64506 0
M  V30 4578 H 438.186 -0.057607 5.73271 0
M  V30 4579 H 436.583 0.700227 5.96001 0
M  V30 4580 H 437.653 1.28848 4.67468 0
M  V30 4581 N 438.996 -1.55193 0.274407 0
M  V30 4582 C 440.242 -1.99877 -0.343086 0
M  V30 4583 C 440.575 -1.16256 -1.55558 0
M  V30 4584 O 439.85 -0.232462 -1.93106 0
M  V30 4585 C 440.133 -3.52706 -0.725965 0
M  V30 4586 C 439.986 -4.47081 0.493818 0
M  V30 4587 C 441.305 -4.11422 -1.56268 0
M  V30 4588 H 438.424 -0.726625 -0.123229 0
M  V30 4589 H 441.066 -1.86136 0.38121 0
M  V30 4590 H 439.216 -3.64546 -1.34307 0
M  V30 4591 H 440.888 -4.47186 1.13237 0
M  V30 4592 H 439.131 -4.1877 1.13201 0
M  V30 4593 H 439.802 -5.51699 0.18217 0
M  V30 4594 H 442.278 -4.02855 -1.04151 0
M  V30 4595 H 441.154 -5.18568 -1.79939 0
M  V30 4596 H 441.415 -3.61607 -2.54348 0
M  V30 4597 N 440.474 -0.00167713 -1.576 0
M  V30 4598 C 441.421 0.989195 -2.08527 0
M  V30 4599 C 442.391 1.34031 -0.981065 0
M  V30 4600 O 443.576 1.43839 -1.2536 0
M  V30 4601 C 440.716 2.27537 -2.59463 0
M  V30 4602 C 439.829 1.98314 -3.83791 0
M  V30 4603 C 438.964 3.21025 -4.23222 0
M  V30 4604 C 438.003 2.87495 -5.40382 0
M  V30 4605 N 437.14 4.02749 -5.75098 0
M  V30 4606 H 441.98 0.547973 -2.92919 0
M  V30 4607 H 439.517 0.258917 -1.44803 0
M  V30 4608 H 441.475 3.02729 -2.87073 0
M  V30 4609 H 440.105 2.69325 -1.77943 0
M  V30 4610 H 439.157 1.13482 -3.63078 0
M  V30 4611 H 440.469 1.69601 -4.69081 0
M  V30 4612 H 439.623 4.04561 -4.52123 0
M  V30 4613 H 438.362 3.52877 -3.36644 0
M  V30 4614 H 437.367 2.02367 -5.11202 0
M  V30 4615 H 438.592 2.56889 -6.28637 0
M  V30 4616 H 436.538 4.34494 -4.91478 0
M  V30 4617 H 436.455 3.77566 -6.54966 0
M  V30 4618 H 437.723 4.87068 -6.08592 0
M  V30 4619 N 441.952 1.55251 0.271103 0
M  V30 4620 C 442.9 1.89054 1.35504 0
M  V30 4621 C 443.894 0.767064 1.51038 0
M  V30 4622 O 445.1 0.951429 1.528 0
M  V30 4623 H 441.475 0.600072 0.45323 0
M  V30 4624 H 443.446 2.79598 1.04247 0
M  V30 4625 C 442.195 2.18068 2.70817 0
M  V30 4626 H 441.518 3.04005 2.59656 0
M  V30 4627 H 442.958 2.4564 3.45597 0
M  V30 4628 C 441.417 0.988901 3.2206 0
M  V30 4629 O 441.947 0.224501 4.01072 0
M  V30 4630 N 440.153 0.786085 2.79766 0
M  V30 4631 H 439.7 1.40937 2.15626 0
M  V30 4632 H 439.658 -0.00969349 3.14399 0
M  V30 4633 N 443.43 -0.535701 1.48216 0
M  V30 4634 C 444.655 -1.32149 1.59848 0
M  V30 4635 C 445.08 -1.86338 0.256842 0
M  V30 4636 O 444.438 -1.64107 -0.770632 0
M  V30 4637 C 444.486 -2.45224 2.64381 0
M  V30 4638 O 443.59 -3.48093 2.21144 0
M  V30 4639 H 442.931 -0.391634 0.536208 0
M  V30 4640 H 445.461 -0.645202 1.94161 0
M  V30 4641 H 445.471 -2.91491 2.85476 0
M  V30 4642 H 444.146 -2.05143 3.61786 0
M  V30 4643 H 442.723 -3.07984 2.10239 0
M  V30 4644 N 444.908 -1.36708 -0.784132 0
M  V30 4645 C 446.154 -1.32433 -1.54379 0
M  V30 4646 C 446.509 0.0941816 -1.92169 0
M  V30 4647 O 445.802 1.04997 -1.60269 0
M  V30 4648 C 445.996 -2.18571 -2.82774 0
M  V30 4649 C 445.825 -3.68656 -2.57533 0
M  V30 4650 C 444.595 -4.37813 -2.52286 0
M  V30 4651 C 446.793 -4.61802 -2.2637 0
M  V30 4652 N 444.775 -5.7351 -2.18997 0
M  V30 4653 C 446.146 -5.85785 -2.03115 0
M  V30 4654 C 448.201 -4.50313 -2.12421 0
M  V30 4655 C 446.904 -6.99569 -1.67321 0
M  V30 4656 C 448.93 -5.63969 -1.78026 0
M  V30 4657 C 448.292 -6.86994 -1.55622 0
M  V30 4658 H 444.391 -0.539886 -0.565727 0
M  V30 4659 H 446.975 -1.71812 -0.915908 0
M  V30 4660 H 445.146 -1.81429 -3.43421 0
M  V30 4661 H 446.878 -2.05646 -3.48557 0
M  V30 4662 H 443.633 -3.90674 -2.67714 0
M  V30 4663 H 444.057 -6.45189 -2.05084 0
M  V30 4664 H 448.699 -3.55781 -2.28429 0
M  V30 4665 H 446.417 -7.94047 -1.5005 0
M  V30 4666 H 450.003 -5.57044 -1.67909 0
M  V30 4667 H 448.883 -7.7345 -1.294 0
M  V30 4668 N 446.386 1.0089 -1.21074 0
M  V30 4669 C 447.634 1.74262 -1.02358 0
M  V30 4670 C 447.955 1.89869 0.444393 0
M  V30 4671 O 447.225 1.44677 1.32081 0
M  V30 4672 H 445.805 0.645615 -0.375754 0
M  V30 4673 H 448.467 1.21596 -1.52317 0
M  V30 4674 H 447.563 2.74328 -1.4883 0
M  V30 4675 N 447.864 1.01787 1.20321 0
M  V30 4676 C 448.774 0.598898 2.26827 0
M  V30 4677 C 449.79 -0.36418 1.70146 0
M  V30 4678 O 450.966 -0.224812 2.00141 0
M  V30 4679 C 448.031 -0.0549769 3.46656 0
M  V30 4680 C 447.092 0.954205 4.18561 0
M  V30 4681 C 446.325 0.331439 5.3267 0
M  V30 4682 O 446.548 -0.86851 5.63749 0
M  V30 4683 O 445.482 1.0488 5.92692 0
M  V30 4684 H 449.308 1.48562 2.64883 0
M  V30 4685 H 446.893 0.787434 1.26964 0
M  V30 4686 H 448.775 -0.420102 4.19301 0
M  V30 4687 H 447.45 -0.915876 3.10473 0
M  V30 4688 H 446.357 1.37072 3.48083 0
M  V30 4689 H 447.69 1.78511 4.58688 0
M  V30 4690 N 449.342 -1.36122 0.79427 0
M  V30 4691 C 450.252 -2.33769 0.197296 0
M  V30 4692 C 451.268 -1.61276 -0.653153 0
M  V30 4693 O 452.444 -1.9323 -0.5678 0
M  V30 4694 C 449.509 -3.40474 -0.654098 0
M  V30 4695 C 448.57 -4.28759 0.215411 0
M  V30 4696 C 447.803 -5.30368 -0.595443 0
M  V30 4697 O 448.026 -5.40211 -1.83107 0
M  V30 4698 O 446.96 -6.019 0.00721351 0
M  V30 4699 H 450.786 -2.86597 1.00478 0
M  V30 4700 H 448.371 -1.38676 0.555818 0
M  V30 4701 H 450.253 -4.05703 -1.13944 0
M  V30 4702 H 448.928 -2.89937 -1.43938 0
M  V30 4703 H 447.835 -3.66554 0.747615 0
M  V30 4704 H 449.168 -4.82661 0.964332 0
M  V30 4705 N 450.82 -0.546701 -1.47814 0
M  V30 4706 C 452.066 -0.0269594 -2.03382 0
M  V30 4707 C 452.421 1.30406 -1.41464 0
M  V30 4708 O 451.714 1.8332 -0.557151 0
M  V30 4709 C 451.908 0.134869 -3.57145 0
M  V30 4710 C 451.737 -1.17891 -4.33972 0
M  V30 4711 C 450.507 -1.74336 -4.74273 0
M  V30 4712 C 452.705 -2.09361 -4.69758 0
M  V30 4713 N 450.687 -2.99829 -5.35701 0
M  V30 4714 C 452.058 -3.19431 -5.31379 0
M  V30 4715 C 454.113 -2.09484 -4.51687 0
M  V30 4716 C 452.816 -4.2971 -5.76838 0
M  V30 4717 C 454.842 -3.18767 -4.98138 0
M  V30 4718 C 454.204 -4.27557 -5.59799 0
M  V30 4719 H 450.303 -0.0517733 -0.780284 0
M  V30 4720 H 452.887 -0.731673 -1.80429 0
M  V30 4721 H 451.058 0.80869 -3.79888 0
M  V30 4722 H 452.79 0.655726 -3.99352 0
M  V30 4723 H 449.545 -1.28265 -4.559 0
M  V30 4724 H 449.969 -3.63765 -5.70968 0
M  V30 4725 H 454.611 -1.26663 -4.03381 0
M  V30 4726 H 452.329 -5.13297 -6.24141 0
M  V30 4727 H 455.915 -3.19937 -4.85934 0
M  V30 4728 H 454.795 -5.10725 -5.95088 0
M  V30 4729 N 452.299 1.55045 -0.282633 0
M  V30 4730 C 453.547 1.99365 0.331334 0
M  V30 4731 C 453.868 1.1725 1.55812 0
M  V30 4732 O 453.138 0.263871 1.94115 0
M  V30 4733 H 451.718 0.736397 0.125414 0
M  V30 4734 H 454.38 1.90964 -0.389711 0
M  V30 4735 H 453.476 3.0596 0.616036 0
M  V30 4736 N 453.777 0.010035 1.57597 0
M  V30 4737 C 454.71 -1.01234 2.04516 0
M  V30 4738 C 455.688 -1.32886 0.937024 0
M  V30 4739 O 456.872 -1.44879 1.20592 0
M  V30 4740 C 453.999 -2.33738 2.45121 0
M  V30 4741 C 453.045 -2.17679 3.66767 0
M  V30 4742 S 453.878 -1.49343 5.14254 0
M  V30 4743 C 455.034 -2.83256 5.58137 0
M  V30 4744 H 455.267 -0.612866 2.90914 0
M  V30 4745 H 452.8 -0.201124 1.53084 0
M  V30 4746 H 454.758 -3.09922 2.69182 0
M  V30 4747 H 453.419 -2.70823 1.59103 0
M  V30 4748 H 452.612 -3.1559 3.92962 0
M  V30 4749 H 452.214 -1.4964 3.42759 0
M  V30 4750 H 454.506 -3.79538 5.6121 0
M  V30 4751 H 455.449 -2.61749 6.57946 0
M  V30 4752 H 455.857 -2.87627 4.85727 0
M  V30 4753 N 455.255 -1.55392 -0.262866 0
M  V30 4754 C 456.503 -1.76127 -0.991147 0
M  V30 4755 C 456.824 -0.571083 -1.8645 0
M  V30 4756 O 456.094 0.413698 -1.91482 0
M  V30 4757 H 454.674 -0.649528 -0.368948 0
M  V30 4758 H 457.336 -1.9281 -0.284655 0
M  V30 4759 H 456.432 -2.6663 -1.62219 0
M  V30 4760 N 456.733 0.527833 -1.48498 0
M  V30 4761 C 457.981 1.28101 -1.56316 0
M  V30 4762 C 458.302 1.9352 -0.239781 0
M  V30 4763 O 457.572 1.81433 0.738849 0
M  V30 4764 H 456.152 0.475793 -0.575873 0
M  V30 4765 H 458.814 0.614052 -1.84974 0
M  V30 4766 H 457.91 2.05916 -2.34532 0
M  V30 4767 N 458.211 1.37122 0.776871 0
M  V30 4768 C 459.441 1.35034 1.56363 0
M  V30 4769 C 459.849 -0.0674681 1.8908 0
M  V30 4770 O 459.192 -1.03826 1.51545 0
M  V30 4771 C 459.254 2.11894 2.90415 0
M  V30 4772 C 458.918 3.60897 2.80362 0
M  V30 4773 C 459.915 4.54887 2.51742 0
M  V30 4774 C 457.6 4.03951 2.98545 0
M  V30 4775 C 459.594 5.89909 2.41426 0
M  V30 4776 C 457.281 5.3906 2.87849 0
M  V30 4777 C 458.279 6.31852 2.5933 0
M  V30 4778 O 457.967 7.64479 2.48651 0
M  V30 4779 H 457.699 0.464402 0.49123 0
M  V30 4780 H 460.253 1.80992 0.971127 0
M  V30 4781 H 458.483 1.60618 3.51765 0
M  V30 4782 H 460.172 2.02505 3.51776 0
M  V30 4783 H 460.938 4.22934 2.37385 0
M  V30 4784 H 456.817 3.3209 3.19746 0
M  V30 4785 H 460.361 6.62304 2.19086 0
M  V30 4786 H 456.258 5.70617 3.01773 0
M  V30 4787 H 457.026 7.74742 2.64039 0
M  V30 4788 N 459.689 -1.00246 1.21608 0
M  V30 4789 C 460.935 -1.74319 1.03638 0
M  V30 4790 C 461.268 -1.89408 -0.428749 0
M  V30 4791 O 460.543 -1.43026 -1.3181 0
M  V30 4792 C 460.826 -3.15431 1.73711 0
M  V30 4793 C 460.679 -3.08049 3.27759 0
M  V30 4794 C 461.998 -4.14407 1.48173 0
M  V30 4795 H 459.117 -0.632741 0.377899 0
M  V30 4796 H 461.759 -1.16853 1.49818 0
M  V30 4797 H 459.909 -3.64493 1.34452 0
M  V30 4798 H 461.581 -2.66681 3.76403 0
M  V30 4799 H 459.824 -2.45088 3.57931 0
M  V30 4800 H 460.495 -4.07862 3.71958 0
M  V30 4801 H 462.971 -3.74061 1.82258 0
M  V30 4802 H 461.847 -5.11279 1.99713 0
M  V30 4803 H 462.108 -4.40174 0.412273 0
M  V30 4804 N 461.167 -1.02423 -1.1978 0
M  V30 4805 C 462.114 -0.601023 -2.22837 0
M  V30 4806 C 463.084 0.382801 -1.61629 0
M  V30 4807 O 464.269 0.280514 -1.88727 0
M  V30 4808 C 461.409 0.0467755 -3.45068 0
M  V30 4809 C 460.522 -0.98253 -4.20678 0
M  V30 4810 C 459.657 -0.304982 -5.30324 0
M  V30 4811 C 458.696 -1.32052 -5.97686 0
M  V30 4812 N 457.833 -0.669105 -6.98904 0
M  V30 4813 H 462.673 -1.48444 -2.58396 0
M  V30 4814 H 460.21 -0.742936 -1.2696 0
M  V30 4815 H 462.168 0.439556 -4.14878 0
M  V30 4816 H 460.798 0.893796 -3.10179 0
M  V30 4817 H 459.85 -1.49341 -3.49859 0
M  V30 4818 H 461.162 -1.75455 -4.66923 0
M  V30 4819 H 460.316 0.142893 -6.06532 0
M  V30 4820 H 459.055 0.499283 -4.85138 0
M  V30 4821 H 458.06 -1.7787 -5.20233 0
M  V30 4822 H 459.285 -2.1262 -6.44957 0
M  V30 4823 H 457.231 0.115152 -6.55899 0
M  V30 4824 H 457.148 -1.37908 -7.43315 0
M  V30 4825 H 458.416 -0.245076 -7.79115 0
M  V30 4826 N 462.645 1.35699 -0.801477 0
M  V30 4827 C 463.578 2.2768 -0.153922 0
M  V30 4828 C 464.556 1.47832 0.67709 0
M  V30 4829 O 465.74 1.77104 0.645474 0
M  V30 4830 C 462.867 3.2943 0.786986 0
M  V30 4831 C 461.913 4.26485 0.0362447 0
M  V30 4832 S 462.746 5.19573 -1.2963 0
M  V30 4833 C 463.902 6.24866 -0.359705 0
M  V30 4834 H 464.135 2.82254 -0.9338 0
M  V30 4835 H 461.668 1.42421 -0.596283 0
M  V30 4836 H 463.626 3.8855 1.32436 0
M  V30 4837 H 462.287 2.73745 1.54021 0
M  V30 4838 H 461.48 4.98378 0.750668 0
M  V30 4839 H 461.082 3.71508 -0.431017 0
M  V30 4840 H 463.374 6.75957 0.456954 0
M  V30 4841 H 464.317 7.00307 -1.04768 0
M  V30 4842 H 464.725 5.64484 0.0423274 0
M  V30 4843 N 464.123 0.554532 1.47522 0
M  V30 4844 C 465.086 -0.184174 2.28459 0
M  V30 4845 C 466.086 -0.845195 1.36796 0
M  V30 4846 O 467.276 -0.701467 1.59452 0
M  V30 4847 C 464.408 -1.26903 3.16399 0
M  V30 4848 H 465.601 0.526751 2.95238 0
M  V30 4849 H 463.154 0.311375 1.53167 0
M  V30 4850 H 463.889 -2.01244 2.54306 0
M  V30 4851 H 463.674 -0.799883 3.83854 0
M  V30 4852 H 465.164 -1.78794 3.77389 0
M  V30 4853 N 465.601 -1.54893 0.290851 0
M  V30 4854 C 466.548 -2.23138 -0.58974 0
M  V30 4855 C 467.518 -1.21036 -1.13752 0
M  V30 4856 O 468.703 -1.49626 -1.18392 0
M  V30 4857 C 465.843 -2.96811 -1.76061 0
M  V30 4858 C 464.956 -4.13665 -1.24519 0
M  V30 4859 C 464.091 -4.74944 -2.3791 0
M  V30 4860 C 463.13 -5.83963 -1.83451 0
M  V30 4861 N 462.267 -6.39239 -2.90376 0
M  V30 4862 H 467.107 -2.98 -0.00114915 0
M  V30 4863 H 464.644 -1.47096 0.0112006 0
M  V30 4864 H 466.602 -3.37751 -2.44909 0
M  V30 4865 H 465.232 -2.24344 -2.32098 0
M  V30 4866 H 464.284 -3.77737 -0.449288 0
M  V30 4867 H 465.596 -4.92238 -0.806424 0
M  V30 4868 H 464.75 -5.18684 -3.14724 0
M  V30 4869 H 463.489 -3.95682 -2.85109 0
M  V30 4870 H 462.494 -5.39657 -1.05122 0
M  V30 4871 H 463.719 -6.65103 -1.37169 0
M  V30 4872 H 461.665 -5.62864 -3.36927 0
M  V30 4873 H 461.582 -7.13129 -2.50965 0
M  V30 4874 H 462.85 -6.87637 -3.67118 0
M  V30 4875 N 467.08 -0.0183926 -1.57589 0
M  V30 4876 C 468.357 0.700621 -1.82622 0
M  V30 4877 C 468.737 1.90951 -0.90005 0
M  V30 4878 O 468.085 2.28452 0.0469145 0
M  V30 4879 C 468.295 1.08899 -3.31575 0
M  V30 4880 C 469.643 1.48514 -3.9778 0
M  V30 4881 O 470.667 1.18227 -3.36007 0
M  V30 4882 O 469.526 2.04903 -5.06633 0
M  V30 4883 H 466.62 0.342743 -0.752633 0
M  V30 4884 H 469.166 -0.0452548 -1.6964 0
M  V30 4885 H 467.938 0.228113 -3.90635 0
M  V30 4886 H 467.561 1.89338 -3.49624 0
M  V30 4887 N 468.558 1.5553 0.254621 0
M  V30 4888 C 469.974 1.4778 0.602753 0
M  V30 4889 C 470.174 0.707047 1.88688 0
M  V30 4890 O 469.23 0.233288 2.5142 0
M  V30 4891 C 470.543 2.92133 0.712648 0
M  V30 4892 C 472.091 3.02458 0.805488 0
M  V30 4893 C 472.566 4.48102 0.947009 0
M  V30 4894 N 474.057 4.52008 1.01207 0
M  V30 4895 C 474.792 5.61939 1.1407 0
M  V30 4896 N 474.288 6.81697 1.23536 0
M  V30 4897 N 476.081 5.49719 1.17325 0
M  V30 4898 H 468.232 2.04085 -0.588463 0
M  V30 4899 H 470.495 0.926229 -0.202001 0
M  V30 4900 H 470.201 3.51332 -0.160766 0
M  V30 4901 H 470.075 3.42187 1.58707 0
M  V30 4902 H 472.462 2.43344 1.66936 0
M  V30 4903 H 472.543 2.55627 -0.0939266 0
M  V30 4904 H 472.187 5.07824 0.087725 0
M  V30 4905 H 472.117 4.92607 1.86135 0
M  V30 4906 H 474.608 3.65749 0.950577 0
M  V30 4907 H 474.921 7.61228 1.33236 0
M  V30 4908 H 473.266 6.84473 1.20508 0
M  V30 4909 H 476.457 4.55095 1.09573 0
M  V30 4910 H 476.63 6.35432 1.27005 0
M  V30 4911 N 470.036 -0.519951 1.48776 0
M  V30 4912 C 471.452 -0.849418 1.35119 0
M  V30 4913 C 471.652 -1.98077 0.36982 0
M  V30 4914 O 470.708 -2.51664 -0.205359 0
M  V30 4915 C 472.021 -1.20748 2.75391 0
M  V30 4916 C 473.569 -1.31679 2.83954 0
M  V30 4917 C 474.044 -1.70824 4.24951 0
M  V30 4918 N 475.535 -1.77908 4.27672 0
M  V30 4919 C 476.27 -2.09603 5.33717 0
M  V30 4920 N 475.766 -2.39652 6.5003 0
M  V30 4921 N 477.559 -2.10694 5.21119 0
M  V30 4922 H 469.71 0.226377 2.1119 0
M  V30 4923 H 471.973 0.0386519 0.947212 0
M  V30 4924 H 471.679 -0.449703 3.48813 0
M  V30 4925 H 471.553 -2.15534 3.09556 0
M  V30 4926 H 473.94 -2.06532 2.10781 0
M  V30 4927 H 474.021 -0.3499 2.53396 0
M  V30 4928 H 473.665 -0.965282 4.98643 0
M  V30 4929 H 473.595 -2.6858 4.52959 0
M  V30 4930 H 476.086 -1.56923 3.43779 0
M  V30 4931 H 476.399 -2.6297 7.26682 0
M  V30 4932 H 474.744 -2.37149 6.53288 0
M  V30 4933 H 477.935 -1.86682 4.29264 0
M  V30 4934 H 478.108 -2.35062 6.03863 0
M  V30 4935 N 471.514 -1.37532 -0.769588 0
M  V30 4936 C 472.462 -1.33561 -1.90432 0
M  V30 4937 C 473.456 -0.224027 -1.67912 0
M  V30 4938 O 474.662 -0.392174 -1.75676 0
M  V30 4939 H 471.037 -0.416279 -0.626271 0
M  V30 4940 H 473.008 -2.29348 -1.90899 0
M  V30 4941 C 471.757 -1.16162 -3.27722 0
M  V30 4942 H 471.08 -2.00951 -3.45628 0
M  V30 4943 H 472.52 -1.17434 -4.07413 0
M  V30 4944 C 470.979 0.132583 -3.36639 0
M  V30 4945 O 471.509 1.11539 -3.85904 0
M  V30 4946 N 469.715 0.184013 -2.90017 0
M  V30 4947 H 469.262 -0.616415 -2.50116 0
M  V30 4948 H 469.22 1.04956 -2.96364 0
M  V30 4949 N 472.992 0.995999 -1.22138 0
M  V30 4950 C 473.942 2.06988 -0.956042 0
M  V30 4951 C 474.926 1.60636 0.0921576 0
M  V30 4952 O 476.118 1.76607 -0.117958 0
M  V30 4953 C 473.247 3.39148 -0.532335 0
M  V30 4954 C 472.333 3.92142 -1.61509 0
M  V30 4955 N 472.724 4.18397 -2.84214 0
M  V30 4956 C 471.022 4.20514 -1.48606 0
M  V30 4957 C 471.723 4.61425 -3.54206 0
M  V30 4958 N 470.699 4.64934 -2.81669 0
M  V30 4959 H 474.501 2.25223 -1.88816 0
M  V30 4960 H 472.015 1.17748 -1.11845 0
M  V30 4961 H 474.012 4.15642 -0.323574 0
M  V30 4962 H 472.672 3.22314 0.392921 0
M  V30 4963 H 473.683 4.06682 -3.20671 0
M  V30 4964 H 470.36 4.12769 -0.626762 0
M  V30 4965 H 471.75 4.90387 -4.59315 0
M  V30 4966 N 474.47 1.03057 1.19235 0
M  V30 4967 C 475.71 0.736757 1.9066 0
M  V30 4968 C 476.074 -0.721521 1.77927 0
M  V30 4969 O 477.275 -1.12849 2.43964 0
M  V30 4970 C 475.546 1.17755 3.37444 0
M  V30 4971 S 477.105 1.00783 4.27069 0
M  V30 4972 H 473.923 0.268174 0.658486 0
M  V30 4973 H 476.525 1.32076 1.4414 0
M  V30 4974 H 475.229 2.23448 3.44237 0
M  V30 4975 H 474.76 0.586912 3.88997 0
M  V30 4976 H 476.775 -0.0806356 4.96134 0
M  V30 4977 N 475.948 -1.35272 0.808662 0
M  V30 4978 C 477.196 -1.98316 0.389233 0
M  V30 4979 C 477.517 -1.64465 -1.04767 0
M  V30 4980 O 476.787 -0.928175 -1.72516 0
M  V30 4981 H 475.367 -0.733585 0.140935 0
M  V30 4982 H 478.029 -1.6515 1.03496 0
M  V30 4983 H 477.125 -3.08123 0.496631 0
M  V30 4984 N 477.426 -0.562348 -1.47226 0
M  V30 4985 C 478.675 -0.038041 -2.01664 0
M  V30 4986 C 478.988 1.32199 -1.44162 0
M  V30 4987 O 480.194 1.9365 -1.90294 0
M  V30 4988 C 478.65 -0.0174958 -3.59896 0
M  V30 4989 C 478.258 -1.3746 -4.2639 0
M  V30 4990 C 480.002 0.453934 -4.22066 0
M  V30 4991 C 477.909 -1.31289 -5.76643 0
M  V30 4992 H 476.839 -0.0104511 -0.753928 0
M  V30 4993 H 479.49 -0.710966 -1.69167 0
M  V30 4994 H 477.872 0.721182 -3.89378 0
M  V30 4995 H 479.046 -2.1314 -4.08544 0
M  V30 4996 H 477.361 -1.78438 -3.7623 0
M  V30 4997 H 479.958 0.518584 -5.32179 0
M  V30 4998 H 480.301 1.46706 -3.89594 0
M  V30 4999 H 480.834 -0.230044 -3.97134 0
M  V30 5000 H 477.573 -2.30217 -6.13743 0
M  V30 5001 H 477.093 -0.597973 -5.96812 0
M  V30 5002 H 478.772 -1.01713 -6.38955 0
M  V30 5003 N 478.904 1.54736 -0.299062 0
M  V30 5004 C 479.867 2.22127 0.565012 0
M  V30 5005 C 480.867 1.20669 1.06281 0
M  V30 5006 O 482.057 1.45417 0.959145 0
M  V30 5007 C 479.189 2.90611 1.78208 0
M  V30 5008 H 480.382 2.99891 -0.0237448 0
M  V30 5009 H 477.935 1.5622 -0.0498788 0
M  V30 5010 H 478.67 2.16921 2.41072 0
M  V30 5011 H 478.455 3.64984 1.43281 0
M  V30 5012 H 479.945 3.42026 2.396 0
M  V30 5013 N 480.382 0.0267497 1.57577 0
M  V30 5014 C 481.607 -0.666227 1.96408 0
M  V30 5015 C 482.032 -1.65004 0.903071 0
M  V30 5016 O 481.39 -1.80787 -0.136263 0
M  V30 5017 C 481.438 -1.35101 3.34335 0
M  V30 5018 O 480.542 -2.46623 3.30531 0
M  V30 5019 H 479.883 -0.175206 0.640468 0
M  V30 5020 H 482.413 0.0878977 2.04411 0
M  V30 5021 H 482.423 -1.70834 3.70513 0
M  V30 5022 H 481.098 -0.629844 4.11103 0
M  V30 5023 H 479.675 -2.13019 3.06068 0
M  V30 5024 N 481.861 -1.55662 -0.24637 0
M  V30 5025 C 482.824 -1.89558 -1.28842 0
M  V30 5026 C 483.824 -0.772082 -1.41052 0
M  V30 5027 O 485.014 -1.04007 -1.39743 0
M  V30 5028 C 482.146 -2.12449 -2.66605 0
M  V30 5029 H 483.339 -2.82735 -1.00004 0
M  V30 5030 H 480.892 -1.48562 -0.485684 0
M  V30 5031 H 481.627 -1.21742 -3.00582 0
M  V30 5032 H 481.412 -2.94273 -2.59125 0
M  V30 5033 H 482.902 -2.39854 -3.41847 0
M  V30 5034 N 483.339 0.512053 -1.4905 0
M  V30 5035 C 484.302 1.59704 -1.64399 0
M  V30 5036 C 485.302 1.52285 -0.516317 0
M  V30 5037 O 486.492 1.55635 -0.782527 0
M  V30 5038 C 483.624 2.9935 -1.63102 0
M  V30 5039 H 484.817 1.47428 -2.61161 0
M  V30 5040 H 482.37 0.735469 -1.37915 0
M  V30 5041 H 483.105 3.17116 -0.678836 0
M  V30 5042 H 482.89 3.06144 -2.44986 0
M  V30 5043 H 484.38 3.782 -1.77072 0
M  V30 5044 N 484.817 1.37938 0.762283 0
M  V30 5045 C 486.042 1.37059 1.55659 0
M  V30 5046 C 486.467 -0.0396123 1.88058 0
M  V30 5047 O 485.825 -1.01929 1.49934 0
M  V30 5048 C 485.873 2.22494 2.83776 0
M  V30 5049 O 484.977 1.63607 3.78559 0
M  V30 5050 H 484.318 0.467892 0.47114 0
M  V30 5051 H 486.848 1.81587 0.942725 0
M  V30 5052 H 486.858 2.36045 3.32786 0
M  V30 5053 H 485.533 3.24993 2.59524 0
M  V30 5054 H 484.11 1.5915 3.37233 0
M  V30 5055 N 486.295 -0.989507 1.22664 0
M  V30 5056 C 487.525 -1.7624 1.0781 0
M  V30 5057 C 487.933 -1.85466 -0.374036 0
M  V30 5058 O 487.276 -1.32645 -1.27087 0
M  V30 5059 C 487.338 -3.21007 1.61849 0
M  V30 5060 C 487.002 -3.35316 3.10503 0
M  V30 5061 C 487.999 -3.22362 4.07896 0
M  V30 5062 C 485.684 -3.60258 3.50028 0
M  V30 5063 C 487.678 -3.34139 5.42798 0
M  V30 5064 C 485.365 -3.71676 4.85078 0
M  V30 5065 C 486.363 -3.58625 5.81272 0
M  V30 5066 O 486.051 -3.69655 7.1387 0
M  V30 5067 H 485.783 -0.560209 0.378341 0
M  V30 5068 H 488.337 -1.25252 1.62792 0
M  V30 5069 H 486.567 -3.73202 1.01279 0
M  V30 5070 H 488.256 -3.80024 1.42606 0
M  V30 5071 H 489.022 -3.03 3.78703 0
M  V30 5072 H 484.901 -3.69492 2.75675 0
M  V30 5073 H 488.445 -3.23869 6.17863 0
M  V30 5074 H 484.342 -3.90545 5.1395 0
M  V30 5075 H 485.11 -3.86507 7.21495 0
M  V30 5076 N 487.773 -1.03688 -1.18687 0
M  V30 5077 C 489.184 -0.766488 -1.70241 0
M  V30 5078 C 489.535 0.713052 -1.82784 0
M  V30 5079 O 488.66 1.55529 -1.50465 0
M  V30 5080 C 489.255 -1.38475 -3.09209 0
M  V30 5081 C 487.814 -1.16276 -3.5799 0
M  V30 5082 C 486.961 -1.4778 -2.34641 0
M  V30 5083 H 489.912 -1.20378 -1.03415 0
M  V30 5084 H 489.933 -0.785939 -3.72295 0
M  V30 5085 H 489.445 -2.46157 -3.00048 0
M  V30 5086 H 487.546 -0.104508 -3.72453 0
M  V30 5087 H 487.659 -1.8571 -4.41643 0
M  V30 5088 H 486.023 -0.897366 -2.38368 0
M  V30 5089 H 486.806 -2.56562 -2.28102 0
M  V30 5090 N 489.251 1.34841 -0.815825 0
M  V30 5091 C 490.479 2.0273 -0.413294 0
M  V30 5092 C 490.894 1.61459 0.978599 0
M  V30 5093 O 490.251 0.816584 1.63212 0
M  V30 5094 C 490.302 3.58058 -0.497676 0
M  V30 5095 O 490.023 3.97832 -1.8347 0
M  V30 5096 C 491.524 4.4321 -0.0891339 0
M  V30 5097 H 488.744 0.649956 -0.166728 0
M  V30 5098 H 491.288 1.72267 -1.10201 0
M  V30 5099 H 489.443 3.87136 0.142886 0
M  V30 5100 H 489.857 4.92501 -1.80396 0
M  V30 5101 H 491.331 5.5164 -0.199274 0
M  V30 5102 H 491.808 4.28432 0.966571 0
M  V30 5103 H 492.414 4.19446 -0.703214 0
M  V30 5104 N 490.729 0.570148 1.46925 0
M  V30 5105 C 491.975 0.0510284 2.02736 0
M  V30 5106 C 492.308 -1.3006 1.44215 0
M  V30 5107 O 491.583 -1.84932 0.602521 0
M  V30 5108 C 491.866 -0.028215 3.60089 0
M  V30 5109 C 491.719 1.35142 4.29018 0
M  V30 5110 C 493.038 -0.735181 4.33916 0
M  V30 5111 H 490.157 0.0200178 0.736728 0
M  V30 5112 H 492.799 0.73493 1.75211 0
M  V30 5113 H 490.949 -0.610648 3.83671 0
M  V30 5114 H 492.621 1.97806 4.16738 0
M  V30 5115 H 490.864 1.9226 3.88868 0
M  V30 5116 H 491.535 1.24857 5.37694 0
M  V30 5117 H 494.011 -0.240519 4.15404 0
M  V30 5118 H 492.887 -0.759622 5.43618 0
M  V30 5119 H 493.148 -1.79397 4.04066 0
M  V30 5120 O 492.246 -1.55123 0.449357 0
M  V30 5121 H 492.937 -1.93529 -0.0814057 0
M  V30 END ATOM
M  V30 BEGIN BOND
M  V30 END BOND
M  V30 END CTAB
M  END
$$$$
