drugbank_target|P07771 Benzoate 1,2-dioxygenase electron transfer component (DB03147)
 OpenBabel12092120263D

  0  0  0     0  0            999 V3000
M  V30 BEGIN CTAB
M  V30 COUNTS 5350 5411 0 0 0
M  V30 BEGIN ATOM
M  V30 1 H -0.908 1.98254 -0.117106 0
M  V30 2 N 0 1.576 0 0
M  V30 3 C 0.933 2.03868 1.02534 0
M  V30 4 C 1.911 0.928543 1.3348 0
M  V30 5 O 3.095 1.19667 1.45644 0
M  V30 6 C 0.222 2.43627 2.35294 0
M  V30 7 C -0.732 3.65373 2.2001 0
M  V30 8 S 0.101 5.13292 1.52614 0
M  V30 9 C 1.257 5.56322 2.86805 0
M  V30 10 H 1.49 2.90518 0.631377 0
M  V30 11 H -0.977 1.52953 0.210867 0
M  V30 12 H 0.981 2.67203 3.11629 0
M  V30 13 H -0.358 1.57376 2.7183 0
M  V30 14 H -1.165 3.90944 3.18086 0
M  V30 15 H -1.563 3.418 1.51819 0
M  V30 16 H 0.729 5.58782 3.83104 0
M  V30 17 H 1.672 6.56266 2.65933 0
M  V30 18 H 2.08 4.83886 2.90714 0
M  V30 19 N 1.4781 -0.272755 1.55222 0
M  V30 20 C 2.7031 -1.02683 1.80197 0
M  V30 21 C 3.1281 -1.79142 0.573551 0
M  V30 22 O 2.4861 -1.74917 -0.476849 0
M  V30 23 C 2.5341 -1.9609 3.02624 0
M  V30 24 O 1.6381 -3.04863 2.77727 0
M  V30 25 H 0.9791 -0.293557 0.595584 0
M  V30 26 H 3.5091 -0.30159 2.02365 0
M  V30 27 H 3.5191 -2.38039 3.31363 0
M  V30 28 H 2.1941 -1.39851 3.91682 0
M  V30 29 H 0.7711 -2.67228 2.60084 0
M  V30 30 N 2.9562 -1.48159 -0.537278 0
M  V30 31 C 3.8862 -1.65029 -1.6519 0
M  V30 32 C 4.8672 -0.499281 -1.62607 0
M  V30 33 O 6.0522 -0.730972 -1.79918 0
M  V30 34 C 3.1822 -1.68303 -3.03795 0
M  V30 35 C 2.1362 -2.8283 -3.21234 0
M  V30 36 C 1.4622 -2.71189 -4.60826 0
M  V30 37 C 2.7622 -4.24211 -3.04701 0
M  V30 38 H 4.4562 -2.58341 -1.51328 0
M  V30 39 H 2.0022 -1.24325 -0.726585 0
M  V30 40 H 3.9552 -1.78693 -3.81637 0
M  V30 41 H 2.6792 -0.715635 -3.18663 0
M  V30 42 H 1.3382 -2.71983 -2.45807 0
M  V30 43 H 0.9862 -1.72435 -4.7252 0
M  V30 44 H 0.6862 -3.48035 -4.7344 0
M  V30 45 H 2.2102 -2.83537 -5.40777 0
M  V30 46 H 3.6242 -4.3593 -3.72341 0
M  V30 47 H 2.0212 -5.01998 -3.28813 0
M  V30 48 H 3.0912 -4.41184 -2.01209 0
M  V30 49 N 4.4343 0.785586 -1.36625 0
M  V30 50 C 5.6643 1.5722 -1.34036 0
M  V30 51 C 6.0723 1.89033 0.0795062 0
M  V30 52 O 5.4153 1.50881 1.04789 0
M  V30 53 C 5.4773 2.91759 -2.10041 0
M  V30 54 C 5.1413 2.82654 -3.59104 0
M  V30 55 C 6.1383 2.54634 -4.53274 0
M  V30 56 C 3.8233 3.01111 -4.02042 0
M  V30 57 C 5.8173 2.45177 -5.88359 0
M  V30 58 C 3.5043 2.91276 -5.37216 0
M  V30 59 C 4.5023 2.63348 -6.30188 0
M  V30 60 O 4.1903 2.53514 -7.6288 0
M  V30 61 H 3.9223 0.494177 -0.461265 0
M  V30 62 H 6.4763 0.982632 -1.8037 0
M  V30 63 H 4.7063 3.52781 -1.58375 0
M  V30 64 H 6.3953 3.53059 -2.00261 0
M  V30 65 H 7.1613 2.40073 -4.21414 0
M  V30 66 H 3.0403 3.21854 -3.30047 0
M  V30 67 H 6.5843 2.23299 -6.60896 0
M  V30 68 H 2.4813 3.054 -5.68684 0
M  V30 69 H 3.2493 2.68967 -7.73045 0
M  V30 70 N 5.9124 1.20967 1.01018 0
M  V30 71 C 6.8424 0.988272 2.11555 0
M  V30 72 C 7.8234 -0.0849778 1.69888 0
M  V30 73 O 9.0084 0.0738202 1.9406 0
M  V30 74 C 6.1384 0.546528 3.42973 0
M  V30 75 C 5.0924 1.56375 3.9841 0
M  V30 76 C 4.4184 0.97842 5.25672 0
M  V30 77 C 5.7184 2.94922 4.31066 0
M  V30 78 H 7.4124 1.91276 2.30334 0
M  V30 79 H 4.9584 0.921073 1.1069 0
M  V30 80 H 6.9114 0.378839 4.19694 0
M  V30 81 H 5.6354 -0.413598 3.23971 0
M  V30 82 H 4.2944 1.71891 3.23804 0
M  V30 83 H 3.9424 0.0101688 5.02999 0
M  V30 84 H 3.6424 1.65784 5.63728 0
M  V30 85 H 5.1664 0.821939 6.05043 0
M  V30 86 H 6.5804 2.8288 4.9865 0
M  V30 87 H 4.9774 3.5983 4.80253 0
M  V30 88 H 6.0474 3.4616 3.39561 0
M  V30 89 N 7.3905 -1.2043 1.01659 0
M  V30 90 C 8.3385 -2.25249 0.580143 0
M  V30 91 C 9.3325 -1.65057 -0.381115 0
M  V30 92 O 10.5385 -1.78241 -0.251039 0
M  V30 93 H 6.9135 -0.732695 0.169299 0
M  V30 94 H 8.8845 -2.59389 1.47512 0
M  V30 95 C 7.6335 -3.47638 -0.065788 0
M  V30 96 H 6.9565 -3.94233 0.664874 0
M  V30 97 H 8.3965 -4.2268 -0.334282 0
M  V30 98 C 6.8555 -3.10447 -1.3086 0
M  V30 99 O 7.3855 -3.21981 -2.4019 0
M  V30 100 N 5.5915 -2.64996 -1.1927 0
M  V30 101 H 5.1385 -2.55811 -0.303064 0
M  V30 102 H 5.0965 -2.40482 -2.02523 0
M  V30 103 N 8.8686 -0.792821 -1.36206 0
M  V30 104 C 10.2846 -0.474903 -1.52371 0
M  V30 105 C 10.4846 1.00622 -1.74578 0
M  V30 106 O 9.5406 1.79162 -1.77924 0
M  V30 107 C 10.8536 -1.3083 -2.70747 0
M  V30 108 C 12.4016 -1.30234 -2.84619 0
M  V30 109 C 12.8766 -2.11956 -4.06004 0
M  V30 110 N 14.3676 -2.09419 -4.13156 0
M  V30 111 C 15.1026 -2.69419 -5.06163 0
M  V30 112 N 14.5986 -3.3829 -6.04592 0
M  V30 113 N 16.3916 -2.59134 -4.98804 0
M  V30 114 H 8.5426 -1.75222 -1.20046 0
M  V30 115 H 10.8056 -0.745024 -0.586211 0
M  V30 116 H 10.5116 -2.35881 -2.6087 0
M  V30 117 H 10.3856 -0.95196 -3.6499 0
M  V30 118 H 12.7726 -0.259748 -2.93955 0
M  V30 119 H 12.8536 -1.69847 -1.91274 0
M  V30 120 H 12.4976 -3.16248 -3.97429 0
M  V30 121 H 12.4276 -1.69711 -4.98503 0
M  V30 122 H 14.9186 -1.59297 -3.42685 0
M  V30 123 H 15.2316 -3.81394 -6.7213 0
M  V30 124 H 13.5766 -3.42393 -6.04807 0
M  V30 125 H 16.7676 -2.04927 -4.20859 0
M  V30 126 H 16.9406 -3.06185 -5.711 0
M  V30 127 N 10.3467 1.47872 -0.545128 0
M  V30 128 C 11.5957 2.01695 -0.0145033 0
M  V30 129 C 11.9087 1.42609 1.33873 0
M  V30 130 O 13.1147 1.88021 1.95858 0
M  V30 131 C 11.5707 3.59892 0.0245068 0
M  V30 132 C 11.1787 4.27966 -1.32475 0
M  V30 133 C 12.9227 4.21507 0.50316 0
M  V30 134 C 10.8297 5.78136 -1.2455 0
M  V30 135 H 9.7597 0.753998 -0.00165172 0
M  V30 136 H 12.4107 1.69985 -0.691175 0
M  V30 137 H 10.7927 3.88509 0.766575 0
M  V30 138 H 11.9667 4.11003 -2.08357 0
M  V30 139 H 10.2817 3.78286 -1.74036 0
M  V30 140 H 12.8787 5.31538 0.580656 0
M  V30 141 H 13.2217 3.87855 1.51243 0
M  V30 142 H 13.7547 3.97376 -0.183681 0
M  V30 143 H 10.4937 6.16388 -2.23039 0
M  V30 144 H 10.0137 5.97469 -0.528282 0
M  V30 145 H 11.6927 6.40099 -0.942488 0
M  V30 146 N 11.8248 0.280983 1.55075 0
M  V30 147 C 13.2358 -0.215629 1.85451 0
M  V30 148 C 13.5868 -1.54991 1.203 0
M  V30 149 O 12.7118 -2.10699 0.493435 0
M  V30 150 C 13.3068 -0.398026 3.36454 0
M  V30 151 C 11.8658 -0.838866 3.66933 0
M  V30 152 C 11.0128 0.064458 2.77225 0
M  V30 153 H 13.9638 0.502601 1.50531 0
M  V30 154 H 13.9848 -1.23569 3.59876 0
M  V30 155 H 13.4968 0.573241 3.83843 0
M  V30 156 H 11.5978 -1.8214 3.25048 0
M  V30 157 H 11.7108 -0.672123 4.74362 0
M  V30 158 H 10.0748 -0.452863 2.50642 0
M  V30 159 H 10.8578 1.03172 3.2743 0
M  V30 160 N 13.3029 -1.57598 0.00835791 0
M  V30 161 C 14.2659 -2.07884 -0.965242 0
M  V30 162 C 15.2659 -0.989825 -1.26725 0
M  V30 163 O 16.4559 -1.25218 -1.21104 0
M  V30 164 C 13.5879 -2.52731 -2.28779 0
M  V30 165 H 14.7809 -2.95178 -0.530112 0
M  V30 166 H 12.3339 -1.54458 -0.239283 0
M  V30 167 H 13.0689 -1.68705 -2.76964 0
M  V30 168 H 12.8539 -3.32272 -2.08177 0
M  V30 169 H 14.3439 -2.91933 -2.98605 0
M  V30 170 N 14.781 0.264519 -1.55364 0
M  V30 171 C 15.714 1.35297 -1.83766 0
M  V30 172 C 16.692 1.47171 -0.691336 0
M  V30 173 O 17.876 1.63663 -0.935238 0
M  V30 174 C 15.003 2.72847 -2.00679 0
M  V30 175 C 14.049 2.78214 -3.23263 0
M  V30 176 S 14.882 2.36601 -4.80396 0
M  V30 177 C 16.038 3.7611 -5.00292 0
M  V30 178 H 16.271 1.11003 -2.758 0
M  V30 179 H 13.804 0.464596 -1.47244 0
M  V30 180 H 15.762 3.52057 -2.11108 0
M  V30 181 H 14.423 2.94388 -1.09518 0
M  V30 182 H 13.616 3.7919 -3.3201 0
M  V30 183 H 13.218 2.07034 -3.11469 0
M  V30 184 H 15.51 4.71457 -4.86554 0
M  V30 185 H 16.453 3.7231 -6.02321 0
M  V30 186 H 16.861 3.67806 -4.28228 0
M  V30 187 N 16.2591 1.48442 0.529413 0
M  V30 188 C 17.4841 1.60406 1.31471 0
M  V30 189 C 17.9091 0.264738 1.86228 0
M  V30 190 O 17.2671 -0.763668 1.64432 0
M  V30 191 C 17.3151 2.65419 2.44101 0
M  V30 192 O 16.4191 2.22618 3.47153 0
M  V30 193 H 15.7601 0.537863 0.389357 0
M  V30 194 H 18.2901 1.94432 0.636965 0
M  V30 195 H 18.3001 2.86709 2.90279 0
M  V30 196 H 16.9751 3.62652 2.03608 0
M  V30 197 H 15.5521 2.11543 3.0709 0
M  V30 198 N 17.7372 -0.778329 1.37039 0
M  V30 199 C 18.6852 -1.91278 1.32345 0
M  V30 200 C 19.6792 -1.68051 0.213331 0
M  V30 201 O 20.8852 -1.75922 0.38098 0
M  V30 202 H 17.2602 -0.628909 0.412283 0
M  V30 203 H 19.2312 -1.92355 2.28127 0
M  V30 204 C 17.9802 -3.28455 1.14073 0
M  V30 205 H 17.3032 -3.46901 1.98746 0
M  V30 206 H 18.7432 -4.08152 1.14837 0
M  V30 207 C 17.2022 -3.36548 -0.154015 0
M  V30 208 O 17.7322 -3.85186 -1.13993 0
M  V30 209 N 15.9382 -2.89894 -0.202475 0
M  V30 210 H 15.4852 -2.50504 0.600476 0
M  V30 211 H 15.4432 -2.9569 -1.06841 0
M  V30 212 N 19.2153 -1.21501 -1.00376 0
M  V30 213 C 20.1653 -0.942843 -2.07592 0
M  V30 214 C 21.1493 0.102384 -1.60574 0
M  V30 215 O 22.3413 -0.10671 -1.76678 0
M  V30 216 C 19.4703 -0.510729 -3.3948 0
M  V30 217 C 18.5563 -1.59009 -3.93163 0
M  V30 218 N 18.9473 -2.81544 -4.20198 0
M  V30 219 C 17.2453 -1.45925 -4.21452 0
M  V30 220 C 17.9463 -3.51261 -4.63671 0
M  V30 221 N 16.9223 -2.78703 -4.66718 0
M  V30 222 H 20.7243 -1.87378 -2.26421 0
M  V30 223 H 18.2383 -1.11093 -1.18458 0
M  V30 224 H 20.2353 -0.297101 -4.1584 0
M  V30 225 H 18.8953 0.413436 -3.22057 0
M  V30 226 H 19.9063 -3.18075 -4.08716 0
M  V30 227 H 16.5833 -0.600467 -4.13159 0
M  V30 228 H 17.9733 -4.56183 -4.93302 0
M  V30 229 N 20.6934 1.19889 -1.02296 0
M  V30 230 C 21.6254 2.22334 -0.556787 0
M  V30 231 C 22.6384 1.58674 0.364199 0
M  V30 232 O 23.8274 1.77768 0.161533 0
M  V30 233 C 20.9274 3.38257 0.208694 0
M  V30 234 C 20.1004 4.31504 -0.71577 0
M  V30 235 C 19.1594 5.262 0.00325597 0
M  V30 236 O 18.1854 5.65798 -0.621357 0
M  V30 237 N 19.3874 5.66303 1.27599 0
M  V30 238 H 22.1524 2.62957 -1.43784 0
M  V30 239 H 19.7134 1.34495 -0.901261 0
M  V30 240 H 21.7054 3.98616 0.699111 0
M  V30 241 H 20.2754 2.96472 0.991102 0
M  V30 242 H 19.4954 3.69016 -1.38638 0
M  V30 243 H 20.7834 4.9072 -1.34428 0
M  V30 244 H 20.1814 5.36155 1.80429 0
M  V30 245 H 18.7384 6.28942 1.71102 0
M  V30 246 N 22.1715 0.800033 1.35784 0
M  V30 247 C 23.4175 0.377901 1.99248 0
M  V30 248 C 23.7505 -1.05052 1.63333 0
M  V30 249 O 23.0255 -1.72768 0.893385 0
M  V30 250 C 23.3085 0.553922 3.55814 0
M  V30 251 C 23.1615 2.0268 4.01548 0
M  V30 252 C 24.4805 -0.0244802 4.40093 0
M  V30 253 H 21.5995 0.138782 0.723815 0
M  V30 254 H 24.2415 1.00835 1.61035 0
M  V30 255 H 22.3915 0.0172398 3.88496 0
M  V30 256 H 24.0635 2.62536 3.79305 0
M  V30 257 H 22.3065 2.5256 3.52698 0
M  V30 258 H 22.9775 2.10087 5.10458 0
M  V30 259 H 25.4535 0.433775 4.13833 0
M  V30 260 H 24.3295 0.128637 5.48749 0
M  V30 261 H 24.5905 -1.11758 4.27741 0
M  V30 262 N 23.6496 -1.47581 0.552962 0
M  V30 263 C 24.6126 -2.28439 -0.186605 0
M  V30 264 C 25.6126 -1.36706 -0.84665 0
M  V30 265 O 26.8026 -1.59378 -0.703164 0
M  V30 266 C 23.9346 -3.16264 -1.2724 0
M  V30 267 H 25.1276 -2.95294 0.523609 0
M  V30 268 H 22.6806 -1.532 0.309745 0
M  V30 269 H 23.4156 -2.54091 -2.01514 0
M  V30 270 H 23.2006 -3.83769 -0.803968 0
M  V30 271 H 24.6906 -3.77198 -1.79196 0
M  V30 272 N 25.1277 -0.289203 -1.54924 0
M  V30 273 C 26.0577 0.58549 -2.2604 0
M  V30 274 C 27.0387 1.14753 -1.25562 0
M  V30 275 O 28.2237 1.17906 -1.54311 0
M  V30 276 C 25.3537 1.76305 -2.99222 0
M  V30 277 C 24.3077 1.33191 -4.06748 0
M  V30 278 C 23.6337 2.5937 -4.6758 0
M  V30 279 C 24.9337 0.471775 -5.20165 0
M  V30 280 H 26.6277 -0.00763532 -2.99399 0
M  V30 281 H 24.1737 -0.00511229 -1.43999 0
M  V30 282 H 26.1267 2.38097 -3.47689 0
M  V30 283 H 24.8507 2.38223 -2.23422 0
M  V30 284 H 23.5097 0.737121 -3.59113 0
M  V30 285 H 23.1577 3.19576 -3.88433 0
M  V30 286 H 22.8577 2.31228 -5.40192 0
M  V30 287 H 24.3817 3.21985 -5.18804 0
M  V30 288 H 25.7957 0.995056 -5.64599 0
M  V30 289 H 24.1927 0.284639 -5.99425 0
M  V30 290 H 25.2627 -0.506041 -4.82252 0
M  V30 291 N 26.6058 1.57591 -0.0167156 0
M  V30 292 C 27.5378 2.06343 0.997753 0
M  V30 293 C 28.5508 0.984469 1.29661 0
M  V30 294 O 29.7398 1.26093 1.26344 0
M  V30 295 C 26.8398 2.46255 2.32834 0
M  V30 296 C 26.0128 3.77083 2.21646 0
M  V30 297 C 25.0718 4.0368 3.37534 0
M  V30 298 O 24.0978 4.7411 3.14973 0
M  V30 299 N 25.2998 3.52881 4.60929 0
M  V30 300 H 28.0648 2.93997 0.581875 0
M  V30 301 H 25.6258 1.61002 0.170316 0
M  V30 302 H 27.6178 2.61149 3.09166 0
M  V30 303 H 26.1878 1.64032 2.66106 0
M  V30 304 H 25.4078 3.72106 1.30119 0
M  V30 305 H 26.6958 4.62822 2.11361 0
M  V30 306 H 26.0938 2.95878 4.82154 0
M  V30 307 H 24.6508 3.73076 5.34469 0
M  V30 308 N 28.0839 -0.256276 1.55502 0
M  V30 309 C 29.3309 -0.985619 1.76895 0
M  V30 310 C 29.6589 -1.85671 0.579355 0
M  V30 311 O 28.9139 -1.90744 -0.437651 0
M  V30 312 C 29.2129 -1.88432 3.03691 0
M  V30 313 C 28.8789 -1.16936 4.35473 0
M  V30 314 C 27.5409 -0.97173 4.71286 0
M  V30 315 C 29.8929 -0.661889 5.1698 0
M  V30 316 C 27.2209 -0.254179 5.86149 0
M  V30 317 C 29.5729 0.042149 6.32586 0
M  V30 318 C 28.2369 0.25134 6.67027 0
M  V30 319 H 27.5069 -0.360663 0.647304 0
M  V30 320 H 30.1539 -0.256483 1.89775 0
M  V30 321 H 28.4589 -2.68021 2.85783 0
M  V30 322 H 30.1559 -2.45015 3.1744 0
M  V30 323 H 26.7459 -1.33332 4.07333 0
M  V30 324 H 30.9299 -0.802145 4.89775 0
M  V30 325 H 26.1859 -0.0815408 6.11346 0
M  V30 326 H 30.3599 0.443049 6.94989 0
M  V30 327 H 27.9869 0.809314 7.5588 0
M  V30 328 N 29.562 -1.4872 -0.521534 0
M  V30 329 C 30.472 -1.66569 -1.65203 0
M  V30 330 C 31.488 -0.548197 -1.65139 0
M  V30 331 O 32.664 -0.820339 -1.83936 0
M  V30 332 C 29.729 -1.70917 -3.01642 0
M  V30 333 C 28.79 -2.94356 -3.12495 0
M  V30 334 C 28.023 -2.98487 -4.42426 0
M  V30 335 O 28.246 -2.10786 -5.30024 0
M  V30 336 O 27.18 -3.90746 -4.57822 0
M  V30 337 H 31.006 -2.62298 -1.5308 0
M  V30 338 H 28.591 -1.3222 -0.695565 0
M  V30 339 H 30.473 -1.7625 -3.82771 0
M  V30 340 H 29.148 -0.783633 -3.14071 0
M  V30 341 H 28.055 -2.94552 -2.3063 0
M  V30 342 H 29.388 -3.86322 -3.04986 0
M  V30 343 N 31.0401 0.771051 -1.3745 0
M  V30 344 C 32.3171 1.519 -1.23231 0
M  V30 345 C 32.6971 2.10383 0.173809 0
M  V30 346 O 32.0451 1.95583 1.18151 0
M  V30 347 C 32.2551 2.59933 -2.32886 0
M  V30 348 C 33.6031 3.27316 -2.70461 0
M  V30 349 O 34.6271 2.70228 -2.32068 0
M  V30 350 O 33.4861 4.30531 -3.36608 0
M  V30 351 H 30.5801 0.672803 -0.480901 0
M  V30 352 H 33.1261 0.807957 -1.49232 0
M  V30 353 H 31.8981 2.14842 -3.27045 0
M  V30 354 H 31.5211 3.38637 -2.08353 0
M  V30 355 N 32.5182 1.22032 0.997298 0
M  V30 356 C 33.7662 1.04016 1.73278 0
M  V30 357 C 34.0872 -0.426255 1.90284 0
M  V30 358 O 33.3572 -1.30694 1.45931 0
M  V30 359 H 31.9372 0.381897 0.642 0
M  V30 360 H 34.5992 1.5347 1.20137 0
M  V30 361 H 33.6952 1.51441 2.72896 0
M  V30 362 N 33.9963 -1.19345 1.0293 0
M  V30 363 C 35.2423 -1.89318 0.727083 0
M  V30 364 C 35.5753 -1.79446 -0.742483 0
M  V30 365 O 34.8503 -1.1871 -1.54072 0
M  V30 366 C 35.1333 -3.40238 1.17942 0
M  V30 367 C 34.9863 -3.58979 2.71024 0
M  V30 368 C 36.3053 -4.33479 0.760548 0
M  V30 369 H 33.4243 -0.687475 0.265606 0
M  V30 370 H 36.0663 -1.40477 1.2793 0
M  V30 371 H 34.2163 -3.81964 0.709608 0
M  V30 372 H 35.8883 -3.26421 3.25955 0
M  V30 373 H 34.1313 -3.02018 3.11396 0
M  V30 374 H 34.8023 -4.64823 2.9773 0
M  V30 375 H 37.2783 -3.99469 1.16464 0
M  V30 376 H 36.1543 -5.37664 1.10493 0
M  V30 377 H 36.4153 -4.40813 -0.337063 0
M  V30 378 N 35.4744 -0.807222 -1.35358 0
M  V30 379 C 36.7024 -0.400377 -2.02989 0
M  V30 380 C 37.1174 0.988859 -1.60832 0
M  V30 381 O 36.4744 1.63729 -0.806175 0
M  V30 382 C 36.5254 -0.474867 -3.58368 0
M  V30 383 O 36.2464 -1.80933 -3.98992 0
M  V30 384 C 37.7474 -0.0609112 -4.43258 0
M  V30 385 H 34.9674 -0.162587 -0.651004 0
M  V30 386 H 37.5114 -1.09102 -1.72965 0
M  V30 387 H 35.6664 0.167534 -3.87038 0
M  V30 388 H 36.0804 -1.77256 -4.9364 0
M  V30 389 H 37.5544 -0.164145 -5.51756 0
M  V30 390 H 38.0314 0.993831 -4.27808 0
M  V30 391 H 38.6374 -0.676492 -4.19885 0
M  V30 392 N 36.9525 1.47285 -0.560781 0
M  V30 393 C 38.3685 1.58065 -0.22081 0
M  V30 394 C 38.5685 1.55892 1.27671 0
M  V30 395 O 37.6245 1.46422 2.0571 0
M  V30 396 C 38.9375 2.88418 -0.850625 0
M  V30 397 C 40.4855 3.02009 -0.822184 0
M  V30 398 C 40.9605 4.35066 -1.43113 0
M  V30 399 N 42.4515 4.41711 -1.39448 0
M  V30 400 C 43.1865 5.43237 -1.83525 0
M  V30 401 N 42.6825 6.51555 -2.35474 0
M  V30 402 N 44.4755 5.34304 -1.74574 0
M  V30 403 H 36.6265 1.46941 -1.53369 0
M  V30 404 H 38.8895 0.699558 -0.639783 0
M  V30 405 H 38.5955 2.95755 -1.9032 0
M  V30 406 H 38.4695 3.75612 -0.345773 0
M  V30 407 H 40.8565 2.94266 0.221714 0
M  V30 408 H 40.9375 2.16347 -1.36483 0
M  V30 409 H 40.5815 4.43565 -2.47412 0
M  V30 410 H 40.5115 5.19465 -0.863899 0
M  V30 411 H 43.0025 3.64027 -1.01452 0
M  V30 412 H 43.3155 7.25203 -2.67021 0
M  V30 413 H 41.6605 6.52435 -2.39487 0
M  V30 414 H 44.8515 4.48581 -1.33763 0
M  V30 415 H 45.0245 6.13288 -2.09242 0
M  V30 416 N 38.4306 0.297415 1.54768 0
M  V30 417 C 39.6776 -0.312913 2.00068 0
M  V30 418 C 40.0056 -1.54171 1.18582 0
M  V30 419 O 39.2606 -1.94108 0.249133 0
M  V30 420 C 39.5596 -0.717561 3.50123 0
M  V30 421 C 39.2256 0.409095 4.4904 0
M  V30 422 C 37.8876 0.718399 4.75807 0
M  V30 423 C 40.2396 1.16717 5.07963 0
M  V30 424 C 37.5676 1.78896 5.5876 0
M  V30 425 C 39.9196 2.22762 5.92081 0
M  V30 426 C 38.5836 2.54303 6.1716 0
M  V30 427 H 37.8536 -0.114503 0.7321 0
M  V30 428 H 40.5006 0.415767 1.86932 0
M  V30 429 H 38.8056 -1.52627 3.60849 0
M  V30 430 H 40.5026 -1.20091 3.82595 0
M  V30 431 H 37.0926 0.157918 4.28309 0
M  V30 432 H 41.2766 0.941466 4.87289 0
M  V30 433 H 36.5326 2.0381 5.7643 0
M  V30 434 H 40.7066 2.81962 6.36765 0
M  V30 435 H 38.3336 3.3739 6.81229 0
M  V30 436 N 39.9087 -1.5758 0.0250728 0
M  V30 437 C 41.1577 -1.90811 -0.653767 0
M  V30 438 C 41.4707 -0.90273 -1.73523 0
M  V30 439 O 42.6767 -1.12614 -2.47043 0
M  V30 440 C 41.1327 -3.38804 -1.21409 0
M  V30 441 C 40.7407 -4.47692 -0.166126 0
M  V30 442 C 42.4847 -3.81108 -1.86967 0
M  V30 443 C 40.3917 -5.86779 -0.737856 0
M  V30 444 H 39.3217 -0.712063 -0.247956 0
M  V30 445 H 41.9727 -1.83281 0.0897137 0
M  V30 446 H 40.3547 -3.41252 -2.00905 0
M  V30 447 H 41.5287 -4.56797 0.606079 0
M  V30 448 H 39.8437 -4.14565 0.390466 0
M  V30 449 H 42.4407 -4.82375 -2.30692 0
M  V30 450 H 42.7837 -3.15953 -2.71071 0
M  V30 451 H 43.3167 -3.81065 -1.14167 0
M  V30 452 H 40.0557 -6.55468 0.0649577 0
M  V30 453 H 39.5757 -5.81288 -1.47864 0
M  V30 454 H 41.2547 -6.35223 -1.22884 0
M  V30 455 N 41.3868 0.248026 -1.55636 0
M  V30 456 C 42.8028 0.596483 -1.48035 0
M  V30 457 C 43.0028 1.88386 -0.715039 0
M  V30 458 O 42.0588 2.51319 -0.243944 0
M  V30 459 C 43.3718 0.700258 -2.92433 0
M  V30 460 C 44.9198 0.792659 -3.02797 0
M  V30 461 C 45.3948 0.928005 -4.485 0
M  V30 462 N 46.8858 0.992903 -4.52433 0
M  V30 463 C 47.6208 1.11687 -5.62418 0
M  V30 464 N 47.1168 1.20645 -6.82214 0
M  V30 465 N 48.9098 1.14994 -5.50212 0
M  V30 466 H 41.0608 -0.597109 -2.03834 0
M  V30 467 H 43.3238 -0.205925 -0.925364 0
M  V30 468 H 43.0298 -0.175658 -3.51261 0
M  V30 469 H 42.9038 1.57255 -3.42857 0
M  V30 470 H 45.2908 1.65903 -2.4405 0
M  V30 471 H 45.3718 -0.104762 -2.55585 0
M  V30 472 H 45.0158 0.0661971 -5.07857 0
M  V30 473 H 44.9458 1.84045 -4.93391 0
M  V30 474 H 47.4368 0.935064 -3.66149 0
M  V30 475 H 47.7498 1.30008 -7.61786 0
M  V30 476 H 46.0948 1.17605 -6.84977 0
M  V30 477 H 49.2858 1.07643 -4.55555 0
M  V30 478 H 49.4588 1.24311 -6.35965 0
M  V30 479 N 42.8649 1.48995 0.513639 0
M  V30 480 C 44.1139 1.57093 1.2651 0
M  V30 481 C 44.4269 0.257091 1.93903 0
M  V30 482 O 45.6329 0.216478 2.70636 0
M  V30 483 C 44.0889 2.77118 2.29638 0
M  V30 484 C 43.6969 4.15209 1.68241 0
M  V30 485 C 45.4409 2.94538 3.05692 0
M  V30 486 C 43.3479 5.26474 2.69406 0
M  V30 487 H 42.2779 0.584876 0.475854 0
M  V30 488 H 44.9289 1.7536 0.540487 0
M  V30 489 H 43.3109 2.52319 3.05207 0
M  V30 490 H 44.4849 4.50094 0.987505 0
M  V30 491 H 42.7999 4.03042 1.04623 0
M  V30 492 H 45.3969 3.74832 3.8132 0
M  V30 493 H 45.7399 2.04614 3.62545 0
M  V30 494 H 46.2729 3.19316 2.37238 0
M  V30 495 H 43.0119 6.18417 2.17351 0
M  V30 496 H 42.5319 4.96058 3.37175 0
M  V30 497 H 44.2109 5.55277 3.32078 0
M  V30 498 N 44.343 -0.763751 1.37857 0
M  V30 499 C 45.306 -1.85889 1.34081 0
M  V30 500 C 46.306 -1.58949 0.243277 0
M  V30 501 O 47.496 -1.66882 0.499589 0
M  V30 502 C 44.628 -3.23176 1.08489 0
M  V30 503 H 45.821 -1.90648 2.31502 0
M  V30 504 H 43.374 -0.964367 1.23003 0
M  V30 505 H 44.109 -3.24091 0.116318 0
M  V30 506 H 43.894 -3.44124 1.8794 0
M  V30 507 H 45.384 -4.03254 1.08517 0
M  V30 508 N 45.8211 -1.22559 -0.990812 0
M  V30 509 C 46.7531 -0.955325 -2.08342 0
M  V30 510 C 47.7661 0.0668408 -1.62663 0
M  V30 511 O 48.9551 -0.167421 -1.77713 0
M  V30 512 C 46.0551 -0.415566 -3.36342 0
M  V30 513 C 45.2281 -1.49544 -4.11042 0
M  V30 514 C 44.2871 -0.962399 -5.17324 0
M  V30 515 O 43.3131 -1.64907 -5.44788 0
M  V30 516 N 44.5151 0.215134 -5.80101 0
M  V30 517 H 47.2801 -1.89596 -2.32106 0
M  V30 518 H 44.8411 -1.13276 -1.15673 0
M  V30 519 H 46.8331 -0.0442386 -4.04676 0
M  V30 520 H 45.4031 0.430232 -3.09625 0
M  V30 521 H 44.6231 -2.04 -3.37309 0
M  V30 522 H 45.9111 -2.22195 -4.57719 0
M  V30 523 H 45.3091 0.789779 -5.6016 0
M  V30 524 H 43.8661 0.527826 -6.49659 0
M  V30 525 N 47.2992 1.18797 -1.03562 0
M  V30 526 C 48.5472 1.88278 -0.734569 0
M  V30 527 C 48.8682 1.8043 0.739586 0
M  V30 528 O 48.1382 1.21925 1.53333 0
M  V30 529 H 46.7182 0.696991 -0.268725 0
M  V30 530 H 49.3802 1.44192 -1.31129 0
M  V30 531 H 48.4762 2.94443 -1.03489 0
M  V30 532 N 48.7773 0.814389 1.34928 0
M  V30 533 C 49.6873 0.231978 2.3345 0
M  V30 534 C 50.7033 -0.629139 1.62228 0
M  V30 535 O 51.8793 -0.539052 1.94052 0
M  V30 536 C 48.9443 -0.603482 3.41407 0
M  V30 537 C 48.0053 0.279037 4.28392 0
M  V30 538 C 47.2383 -0.516643 5.31193 0
M  V30 539 O 47.4613 -1.75068 5.4287 0
M  V30 540 O 46.3953 0.0965652 6.01823 0
M  V30 541 H 50.2213 1.04721 2.85074 0
M  V30 542 H 47.8063 0.576343 1.37836 0
M  V30 543 H 49.6883 -1.07908 4.0735 0
M  V30 544 H 48.3633 -1.39618 2.92042 0
M  V30 545 H 47.2703 0.801948 3.65403 0
M  V30 546 H 48.6033 1.03588 4.81176 0
M  V30 547 N 50.2554 -1.46986 0.568584 0
M  V30 548 C 51.4834 -2.0683 0.0539956 0
M  V30 549 C 51.8984 -1.41953 -1.24478 0
M  V30 550 O 51.2554 -0.519933 -1.74937 0
M  V30 551 C 51.3064 -3.61254 -0.133362 0
M  V30 552 O 51.0274 -4.237 1.11399 0
M  V30 553 C 52.5284 -4.37992 -0.683927 0
M  V30 554 H 49.7484 -0.669058 0.0510141 0
M  V30 555 H 52.2924 -1.88824 0.785234 0
M  V30 556 H 50.4474 -3.78735 -0.81477 0
M  V30 557 H 50.8614 -5.16388 0.91888 0
M  V30 558 H 52.3354 -5.46684 -0.764263 0
M  V30 559 H 52.8124 -4.05058 -1.69778 0
M  V30 560 H 53.4184 -4.25283 -0.0378494 0
M  V30 561 N 51.7335 -0.305618 -1.54608 0
M  V30 562 C 52.6635 0.561482 -2.26649 0
M  V30 563 C 53.6445 1.13415 -1.26772 0
M  V30 564 O 54.8295 1.16262 -1.55553 0
M  V30 565 C 51.9595 1.73122 -3.01075 0
M  V30 566 C 50.9135 1.2887 -4.08138 0
M  V30 567 C 50.2395 2.54396 -4.70305 0
M  V30 568 C 51.5395 0.416578 -5.20636 0
M  V30 569 H 53.2335 -0.0393902 -2.99374 0
M  V30 570 H 50.7795 -0.020385 -1.43986 0
M  V30 571 H 52.7325 2.34396 -3.50195 0
M  V30 572 H 51.4565 2.3584 -2.25936 0
M  V30 573 H 50.1155 0.698991 -3.59875 0
M  V30 574 H 49.7635 3.15439 -3.918 0
M  V30 575 H 49.4635 2.25486 -5.42614 0
M  V30 576 H 50.9875 3.16464 -5.2219 0
M  V30 577 H 52.4015 0.935116 -5.65622 0
M  V30 578 H 50.7985 0.221046 -5.99693 0
M  V30 579 H 51.8685 -0.557162 -4.81688 0
M  V30 580 N 53.2116 1.57565 -0.0334293 0
M  V30 581 C 54.4366 1.96689 0.657895 0
M  V30 582 C 54.8616 0.910057 1.64619 0
M  V30 583 O 54.2196 -0.128598 1.80843 0
M  V30 584 C 54.2676 3.34905 1.33683 0
M  V30 585 O 53.3716 3.31574 2.45219 0
M  V30 586 H 52.7126 0.641205 0.172489 0
M  V30 587 H 55.2426 2.04372 -0.0965621 0
M  V30 588 H 55.2526 3.71234 1.69262 0
M  V30 589 H 53.9276 4.11366 0.612411 0
M  V30 590 H 52.5046 3.06968 2.11719 0
M  V30 591 N 54.6897 -0.239769 1.55765 0
M  V30 592 C 55.9667 -0.990056 1.68693 0
M  V30 593 C 56.3467 -2.03107 0.5754 0
M  V30 594 O 55.6947 -2.24604 -0.42017 0
M  V30 595 C 55.9047 -1.61696 3.09282 0
M  V30 596 C 57.2527 -2.11613 3.6811 0
M  V30 597 O 58.2767 -1.71624 3.12127 0
M  V30 598 O 57.1357 -2.85057 4.66267 0
M  V30 599 H 54.2297 -0.461299 0.686391 0
M  V30 600 H 56.7757 -0.232991 1.68093 0
M  V30 601 H 55.5477 -0.864357 3.81634 0
M  V30 602 H 55.1707 -2.44005 3.13923 0
M  V30 603 N 56.1678 -1.49265 -0.50573 0
M  V30 604 C 57.1308 -1.65075 -1.59006 0
M  V30 605 C 58.1308 -0.522768 -1.52065 0
M  V30 606 O 59.3208 -0.789117 -1.55302 0
M  V30 607 C 56.4528 -1.64369 -2.98656 0
M  V30 608 H 57.6458 -2.61784 -1.46319 0
M  V30 609 H 55.1988 -1.38226 -0.729616 0
M  V30 610 H 55.9338 -0.692272 -3.16825 0
M  V30 611 H 55.7188 -2.46282 -3.05103 0
M  V30 612 H 57.2088 -1.78674 -3.77446 0
M  V30 613 N 57.6459 0.756429 -1.3826 0
M  V30 614 C 58.6089 1.85176 -1.35065 0
M  V30 615 C 59.6089 1.58818 -0.251703 0
M  V30 616 O 60.7989 1.66615 -0.508433 0
M  V30 617 C 57.9309 3.22596 -1.10201 0
M  V30 618 H 59.1239 1.89417 -2.3251 0
M  V30 619 H 56.6769 0.95783 -1.23512 0
M  V30 620 H 57.4119 3.24025 -0.133504 0
M  V30 621 H 57.1969 3.43122 -1.89762 0
M  V30 622 H 58.6869 4.02673 -1.10654 0
M  V30 623 N 59.124 1.23083 0.984299 0
M  V30 624 C 60.354 1.08556 1.75781 0
M  V30 625 C 60.762 -0.366171 1.85623 0
M  V30 626 O 60.105 -1.26524 1.33182 0
M  V30 627 C 60.167 1.63208 3.20318 0
M  V30 628 C 59.831 3.11922 3.33997 0
M  V30 629 C 60.828 4.09259 3.2063 0
M  V30 630 C 58.513 3.51552 3.58771 0
M  V30 631 C 60.507 5.4421 3.31835 0
M  V30 632 C 58.194 4.86649 3.69616 0
M  V30 633 C 59.192 5.82787 3.56157 0
M  V30 634 O 58.88 7.15431 3.66626 0
M  V30 635 H 58.612 0.380713 0.5586 0
M  V30 636 H 61.166 1.63321 1.2456 0
M  V30 637 H 59.396 1.0286 3.72769 0
M  V30 638 H 61.085 1.44216 3.79416 0
M  V30 639 H 61.851 3.79984 3.01392 0
M  V30 640 H 57.73 2.77239 3.6832 0
M  V30 641 H 61.274 6.1923 3.21247 0
M  V30 642 H 57.171 5.15601 3.88363 0
M  V30 643 H 57.939 7.23127 3.83445 0
M  V30 644 N 60.6021 -1.18246 1.0419 0
M  V30 645 C 62.0181 -1.40269 0.761366 0
M  V30 646 C 62.2181 -1.90777 -0.648578 0
M  V30 647 O 61.2741 -2.0929 -1.41258 0
M  V30 648 C 62.5871 -2.40237 1.8085 0
M  V30 649 C 64.1351 -2.53961 1.82955 0
M  V30 650 C 64.6101 -3.57194 2.86664 0
M  V30 651 N 66.1011 -3.64702 2.85563 0
M  V30 652 C 66.8361 -4.44309 3.6246 0
M  V30 653 N 66.3321 -5.27514 4.49111 0
M  V30 654 N 68.1251 -4.39084 3.50944 0
M  V30 655 H 60.2761 -0.837882 1.95175 0
M  V30 656 H 62.5391 -0.430608 0.84456 0
M  V30 657 H 62.2451 -2.10176 2.81991 0
M  V30 658 H 62.1191 -3.39601 1.64168 0
M  V30 659 H 64.5061 -2.83338 0.824855 0
M  V30 660 H 64.5871 -1.54706 2.03715 0
M  V30 661 H 64.2311 -3.28558 3.87314 0
M  V30 662 H 64.1611 -4.5613 2.6316 0
M  V30 663 H 66.6521 -3.05289 2.22727 0
M  V30 664 H 66.9651 -5.85411 5.04493 0
M  V30 665 H 65.3101 -5.2693 4.53178 0
M  V30 666 H 68.5011 -3.7313 2.82651 0
M  V30 667 H 68.6741 -5.00883 4.11121 0
M  V30 668 N 62.0802 -0.821533 -1.34494 0
M  V30 669 C 63.0122 -0.199946 -2.28326 0
M  V30 670 C 64.0252 0.609377 -1.50965 0
M  V30 671 O 65.2142 0.439285 -1.7301 0
M  V30 672 C 62.3142 0.738431 -3.30757 0
M  V30 673 C 61.4872 -0.0277632 -4.37391 0
M  V30 674 C 60.5462 0.831332 -5.19591 0
M  V30 675 O 59.5722 0.276822 -5.68526 0
M  V30 676 N 60.7742 2.15132 -5.39165 0
M  V30 677 H 63.5392 -1.00609 -2.82308 0
M  V30 678 H 61.1002 -0.678366 -1.47003 0
M  V30 679 H 63.0922 1.31773 -3.82646 0
M  V30 680 H 61.6622 1.44533 -2.7718 0
M  V30 681 H 60.8822 -0.788359 -3.86236 0
M  V30 682 H 62.1702 -0.555251 -5.05761 0
M  V30 683 H 61.5682 2.62559 -5.01078 0
M  V30 684 H 60.1252 2.6795 -5.94177 0
M  V30 685 N 63.5583 1.46682 -0.576371 0
M  V30 686 C 64.4903 2.28341 0.198231 0
M  V30 687 C 65.5033 1.38141 0.861453 0
M  V30 688 O 66.6923 1.62797 0.732082 0
M  V30 689 C 63.7923 3.12986 1.29972 0
M  V30 690 C 62.9653 4.31271 0.729639 0
M  V30 691 C 62.0243 4.97363 1.71803 0
M  V30 692 O 61.0503 5.55156 1.25658 0
M  V30 693 N 62.2523 4.93796 3.05198 0
M  V30 694 H 65.0173 2.9546 -0.502324 0
M  V30 695 H 62.5783 1.56525 -0.413715 0
M  V30 696 H 64.5703 3.54066 1.96008 0
M  V30 697 H 63.1403 2.47984 1.90323 0
M  V30 698 H 62.3603 3.94052 -0.108012 0
M  V30 699 H 63.6483 5.07739 0.328438 0
M  V30 700 H 63.0463 4.48077 3.45317 0
M  V30 701 H 61.6033 5.38837 3.6674 0
M  V30 702 N 65.0364 0.313813 1.54444 0
M  V30 703 C 66.2854 -0.292519 1.99568 0
M  V30 704 C 66.5984 -1.54011 1.20582 0
M  V30 705 O 67.8044 -2.22183 1.56035 0
M  V30 706 C 66.2604 -0.571752 3.55329 0
M  V30 707 C 65.8684 0.658229 4.43138 0
M  V30 708 C 67.6124 -1.13857 4.08946 0
M  V30 709 C 65.5194 0.351439 5.90355 0
M  V30 710 H 64.4494 -0.113079 0.745472 0
M  V30 711 H 67.1004 0.424518 1.78522 0
M  V30 712 H 65.4824 -1.34872 3.72325 0
M  V30 713 H 66.6564 1.43403 4.37918 0
M  V30 714 H 64.9714 1.14458 4.0036 0
M  V30 715 H 67.5684 -1.38257 5.16516 0
M  V30 716 H 67.9114 -2.08489 3.6033 0
M  V30 717 H 68.4444 -0.423015 3.95544 0
M  V30 718 H 65.1834 1.26667 6.43145 0
M  V30 719 H 64.7034 -0.386842 5.98551 0
M  V30 720 H 66.3824 -0.0423134 6.46986 0
M  V30 721 N 66.5145 -1.57545 0.0417849 0
M  V30 722 C 67.4625 -2.12148 -0.953723 0
M  V30 723 C 68.4565 -1.05104 -1.32852 0
M  V30 724 O 69.6625 -1.23524 -1.30927 0
M  V30 725 H 66.0375 -0.677957 -0.325389 0
M  V30 726 H 68.0085 -2.94707 -0.467991 0
M  V30 727 C 66.7575 -2.6739 -2.22257 0
M  V30 728 H 66.0805 -3.49413 -1.94295 0
M  V30 729 H 67.5205 -3.09227 -2.90094 0
M  V30 730 C 65.9795 -1.60723 -2.96091 0
M  V30 731 O 66.5095 -1.01449 -3.88679 0
M  V30 732 N 64.7155 -1.32466 -2.58652 0
M  V30 733 H 64.2625 -1.80856 -1.83437 0
M  V30 734 H 64.2205 -0.61325 -3.08361 0
M  V30 735 N 67.9926 0.231505 -1.5589 0
M  V30 736 C 69.2416 0.955346 -1.7764 0
M  V30 737 C 69.5546 1.85893 -0.608546 0
M  V30 738 O 70.7606 2.62067 -0.70943 0
M  V30 739 C 69.2166 1.74886 -3.14552 0
M  V30 740 C 68.8246 0.891915 -4.39032 0
M  V30 741 C 70.5686 2.46452 -3.45633 0
M  V30 742 C 68.4756 1.68221 -5.66971 0
M  V30 743 H 67.4056 0.360446 -0.662265 0
M  V30 744 H 70.0566 0.209516 -1.823 0
M  V30 745 H 68.4386 2.53723 -3.04041 0
M  V30 746 H 69.6126 0.144793 -4.60572 0
M  V30 747 H 67.9276 0.288863 -4.15397 0
M  V30 748 H 70.5246 3.06061 -4.38441 0
M  V30 749 H 70.8676 3.18841 -2.67668 0
M  V30 750 H 71.4006 1.74613 -3.57428 0
M  V30 751 H 68.1396 1.00178 -6.478 0
M  V30 752 H 67.6596 2.4042 -5.49507 0
M  V30 753 H 69.3386 2.24544 -6.06786 0
M  V30 754 N 69.4707 1.49531 0.497807 0
M  V30 755 C 70.8817 1.52344 1.07927 0
M  V30 756 C 71.2327 0.311469 1.93712 0
M  V30 757 O 70.3577 -0.578405 2.08527 0
M  V30 758 C 70.9527 2.76062 1.96405 0
M  V30 759 C 69.5117 2.81643 2.49709 0
M  V30 760 C 68.6587 2.46299 1.27404 0
M  V30 761 H 71.6097 1.56182 0.281576 0
M  V30 762 H 71.6307 2.56405 2.81135 0
M  V30 763 H 71.1427 3.64254 1.33943 0
M  V30 764 H 69.2437 1.97739 3.15801 0
M  V30 765 H 69.3567 3.83891 2.86643 0
M  V30 766 H 67.7207 1.98148 1.60029 0
M  V30 767 H 68.5037 3.36769 0.66645 0
M  V30 768 N 70.9488 -0.749086 1.3866 0
M  V30 769 C 71.8818 -1.87111 1.30631 0
M  V30 770 C 72.8598 -1.61572 0.18251 0
M  V30 771 O 74.0438 -1.85019 0.360592 0
M  V30 772 C 71.1708 -3.22815 1.02511 0
M  V30 773 C 70.2168 -3.67234 2.1689 0
M  V30 774 S 71.0498 -3.78245 3.79066 0
M  V30 775 C 72.2058 -5.16761 3.53142 0
M  V30 776 H 72.4388 -1.93636 2.25594 0
M  V30 777 H 69.9718 -0.912525 1.24549 0
M  V30 778 H 71.9298 -4.01181 0.869701 0
M  V30 779 H 70.5908 -3.13964 0.0925884 0
M  V30 780 H 69.7838 -4.65677 1.92771 0
M  V30 781 H 69.3858 -2.96034 2.28561 0
M  V30 782 H 71.6778 -6.02656 3.09534 0
M  V30 783 H 72.6208 -5.45902 4.50995 0
M  V30 784 H 73.0288 -4.85771 2.87554 0
M  V30 785 N 72.4269 -1.23603 -0.977757 0
M  V30 786 C 73.7039 -0.977897 -1.69401 0
M  V30 787 C 74.0839 0.502738 -2.05026 0
M  V30 788 O 73.4319 1.47459 -1.74551 0
M  V30 789 C 73.6419 -1.89077 -2.93345 0
M  V30 790 C 74.9899 -2.15579 -3.65802 0
M  V30 791 O 76.0139 -1.86648 -3.03383 0
M  V30 792 O 74.8729 -2.64658 -4.78141 0
M  V30 793 H 71.9669 -0.369025 -0.740101 0
M  V30 794 H 74.5129 -1.34657 -1.03274 0
M  V30 795 H 73.2849 -2.89158 -2.63634 0
M  V30 796 H 72.9079 -1.52463 -3.67207 0
M  V30 797 N 73.905 1.17692 -1.04816 0
M  V30 798 C 75.145 1.89545 -0.764979 0
M  V30 799 C 75.509 1.78979 0.695028 0
M  V30 800 O 76.71 2.45613 1.09215 0
M  V30 801 C 74.981 3.35659 -1.22751 0
M  V30 802 S 76.54 4.25526 -1.07112 0
M  V30 803 H 73.358 0.654432 -0.27792 0
M  V30 804 H 75.96 1.42163 -1.34201 0
M  V30 805 H 74.664 3.40882 -2.28533 0
M  V30 806 H 74.195 3.88083 -0.644594 0
M  V30 807 H 76.21 4.962 0.00697508 0
M  V30 808 N 75.3831 0.828654 1.34056 0
M  V30 809 C 76.7991 0.515135 1.51058 0
M  V30 810 C 76.9991 -0.959581 1.77184 0
M  V30 811 O 76.0551 -1.74382 1.82612 0
M  V30 812 C 77.3681 1.37963 2.67183 0
M  V30 813 C 78.9161 1.37735 2.81066 0
M  V30 814 C 79.3911 2.22645 4.00241 0
M  V30 815 N 80.8821 2.203 4.07458 0
M  V30 816 C 81.6171 2.82744 4.98842 0
M  V30 817 N 81.1131 3.54201 5.9541 0
M  V30 818 N 82.9061 2.72268 4.91759 0
M  V30 819 H 75.0571 1.78343 1.15358 0
M  V30 820 H 77.3201 0.760304 0.566252 0
M  V30 821 H 77.0261 2.42714 2.54525 0
M  V30 822 H 76.9001 1.0484 3.62338 0
M  V30 823 H 79.2871 0.337593 2.93163 0
M  V30 824 H 79.3681 1.74859 1.86703 0
M  V30 825 H 79.0121 3.26674 3.88905 0
M  V30 826 H 78.9421 1.82869 4.93829 0
M  V30 827 H 81.4331 1.68327 3.38341 0
M  V30 828 H 81.7461 3.9908 6.61782 0
M  V30 829 H 80.0911 3.58308 5.95517 0
M  V30 830 H 83.2821 2.16014 4.15278 0
M  V30 831 H 83.4551 3.21219 5.62781 0
M  V30 832 N 76.8612 -1.46375 0.584142 0
M  V30 833 C 77.7712 -2.34115 -0.150728 0
M  V30 834 C 78.7872 -1.49838 -0.884567 0
M  V30 835 O 79.9632 -1.82704 -0.847429 0
M  V30 836 C 77.0282 -3.2705 -1.15062 0
M  V30 837 C 76.0892 -4.27228 -0.421293 0
M  V30 838 C 75.3222 -5.15722 -1.37355 0
M  V30 839 O 75.5452 -5.07176 -2.61014 0
M  V30 840 O 74.4792 -5.95383 -0.883355 0
M  V30 841 H 78.3052 -2.98309 0.569708 0
M  V30 842 H 75.8902 -1.45373 0.344535 0
M  V30 843 H 77.7722 -3.84381 -1.72712 0
M  V30 844 H 76.4472 -2.65451 -1.8525 0
M  V30 845 H 75.3542 -3.7358 0.197085 0
M  V30 846 H 76.6872 -4.91616 0.239641 0
M  V30 847 N 78.3393 -0.321999 -1.54275 0
M  V30 848 C 79.5873 0.280489 -2.00144 0
M  V30 849 C 79.9083 1.52777 -1.21178 0
M  V30 850 O 79.1783 1.9338 -0.313187 0
M  V30 851 H 77.7583 0.106632 -0.73935 0
M  V30 852 H 80.4203 -0.438184 -1.8991 0
M  V30 853 H 79.5163 0.537972 -3.07428 0
M  V30 854 N 79.8174 1.5752 -0.0501392 0
M  V30 855 C 80.7804 2.1037 0.909786 0
M  V30 856 C 81.7804 1.02308 1.24056 0
M  V30 857 O 82.9704 1.28385 1.17741 0
M  V30 858 C 80.1024 2.58708 2.21998 0
M  V30 859 H 81.2954 2.96479 0.451665 0
M  V30 860 H 78.8484 1.55038 0.198248 0
M  V30 861 H 79.5834 1.75989 2.72394 0
M  V30 862 H 79.3684 3.37675 1.99295 0
M  V30 863 H 80.8584 2.99747 2.9076 0
M  V30 864 N 81.2955 -0.223234 1.56011 0
M  V30 865 C 82.5355 -0.954962 1.8072 0
M  V30 866 C 82.8995 -1.81598 0.623384 0
M  V30 867 O 84.1005 -2.58132 0.749745 0
M  V30 868 C 82.3715 -1.77313 3.10314 0
M  V30 869 S 83.9305 -2.56073 3.56332 0
M  V30 870 H 80.7485 -0.320812 0.634508 0
M  V30 871 H 83.3505 -0.220686 1.9425 0
M  V30 872 H 82.0545 -1.13071 3.94516 0
M  V30 873 H 81.5855 -2.54974 2.99586 0
M  V30 874 H 83.6005 -3.79619 3.19536 0
M  V30 875 N 82.7736 -1.49793 -0.48987 0
M  V30 876 C 84.0216 -1.59525 -1.24081 0
M  V30 877 C 84.3426 -0.288953 -1.92847 0
M  V30 878 O 83.6126 0.692436 -1.83254 0
M  V30 879 H 82.1926 -0.587796 -0.460983 0
M  V30 880 H 84.8546 -1.86477 -0.566778 0
M  V30 881 H 83.9506 -2.39696 -1.99881 0
M  V30 882 N 84.2517 0.741722 -1.39055 0
M  V30 883 C 85.4797 1.53098 -1.39171 0
M  V30 884 C 85.8947 1.88794 0.0155099 0
M  V30 885 O 85.2517 1.53626 0.985159 0
M  V30 886 C 85.3027 2.82274 -2.2584 0
M  V30 887 O 85.0237 2.48097 -3.61081 0
M  V30 888 C 86.5247 3.76343 -2.34266 0
M  V30 889 H 83.7447 0.473335 -0.4756 0
M  V30 890 H 86.2887 0.917045 -1.82785 0
M  V30 891 H 84.4437 3.40015 -1.85656 0
M  V30 892 H 84.8577 3.31029 -4.06842 0
M  V30 893 H 86.3317 4.63898 -2.9917 0
M  V30 894 H 86.8087 4.17619 -1.35982 0
M  V30 895 H 87.4147 3.24523 -2.74891 0
M  V30 896 N 85.7298 1.2412 0.971189 0
M  V30 897 C 86.9698 1.09066 1.7287 0
M  V30 898 C 87.3338 -0.364794 1.88503 0
M  V30 899 O 88.5348 -0.636748 2.61149 0
M  V30 900 C 86.8058 1.80629 3.08396 0
M  V30 901 S 88.3648 1.81263 3.99611 0
M  V30 902 H 85.1828 0.390145 0.594397 0
M  V30 903 H 87.7848 1.57397 1.15959 0
M  V30 904 H 86.4888 2.85647 2.94676 0
M  V30 905 H 86.0198 1.32617 3.70373 0
M  V30 906 H 88.0348 0.877804 4.88374 0
M  V30 907 N 87.2079 -1.17134 1.05439 0
M  V30 908 C 88.6239 -1.39454 0.776201 0
M  V30 909 C 88.8239 -1.91454 -0.628307 0
M  V30 910 O 87.8799 -2.10777 -1.39031 0
M  V30 911 C 89.1929 -2.38305 1.83388 0
M  V30 912 C 90.7409 -2.52006 1.85639 0
M  V30 913 C 91.2159 -3.54133 2.90437 0
M  V30 914 N 92.7069 -3.61653 2.89415 0
M  V30 915 C 93.4419 -4.4044 3.67152 0
M  V30 916 N 92.9379 -5.22721 4.54681 0
M  V30 917 N 94.7309 -4.35337 3.55581 0
M  V30 918 H 86.8819 -0.817134 1.96053 0
M  V30 919 H 89.1449 -0.421626 0.849079 0
M  V30 920 H 88.8509 -2.07173 2.84204 0
M  V30 921 H 88.7249 -3.37841 1.67761 0
M  V30 922 H 91.1119 -2.82447 0.85486 0
M  V30 923 H 91.1929 -1.52537 2.05344 0
M  V30 924 H 90.8369 -3.24431 3.90777 0
M  V30 925 H 90.7669 -4.53313 2.67983 0
M  V30 926 H 93.2579 -3.02909 2.25952 0
M  V30 927 H 93.5709 -5.80027 5.10674 0
M  V30 928 H 91.9159 -5.22093 4.58741 0
M  V30 929 H 95.1069 -3.70112 2.86592 0
M  V30 930 H 95.2799 -4.96494 4.1641 0
M  V30 931 N 88.686 -0.835752 -1.33615 0
M  V30 932 C 89.649 -0.272 -2.2758 0
M  V30 933 C 90.649 0.557487 -1.50827 0
M  V30 934 O 91.839 0.37173 -1.70188 0
M  V30 935 C 88.971 0.617173 -3.35267 0
M  V30 936 H 90.164 -1.10111 -2.78954 0
M  V30 937 H 87.717 -0.608594 -1.43965 0
M  V30 938 H 88.452 1.46884 -2.89129 0
M  V30 939 H 88.237 0.0237066 -3.92093 0
M  V30 940 H 89.727 1.005 -4.05326 0
M  V30 941 N 90.1641 1.46063 -0.591896 0
M  V30 942 C 91.4111 2.02338 -0.0809991 0
M  V30 943 C 91.7391 1.46228 1.28249 0
M  V30 944 O 90.9941 0.620818 1.85592 0
M  V30 945 C 91.2931 3.57391 0.0249813 0
M  V30 946 C 90.9591 4.32583 -1.27211 0
M  V30 947 C 89.6211 4.52844 -1.62745 0
M  V30 948 C 91.9731 4.75687 -2.13005 0
M  V30 949 C 89.3011 5.13462 -2.83855 0
M  V30 950 C 91.6531 5.37644 -3.3335 0
M  V30 951 C 90.3171 5.5613 -3.69155 0
M  V30 952 H 89.5871 0.740407 -0.0296397 0
M  V30 953 H 92.2341 1.75321 -0.770374 0
M  V30 954 H 90.5391 3.83597 0.797537 0
M  V30 955 H 92.2361 3.98621 0.436184 0
M  V30 956 H 88.8261 4.17116 -0.985499 0
M  V30 957 H 93.0101 4.59782 -1.86855 0
M  V30 958 H 88.2661 5.25965 -3.11722 0
M  V30 959 H 92.4401 5.7 -4.00092 0
M  V30 960 H 90.0671 6.0287 -4.63089 0
M  V30 961 N 91.6422 0.330177 1.54103 0
M  V30 962 C 92.8822 -0.270916 2.02597 0
M  V30 963 C 93.2462 -1.48826 1.21304 0
M  V30 964 O 94.4472 -2.16266 1.59633 0
M  V30 965 C 92.7182 -0.590328 3.52491 0
M  V30 966 S 94.2772 -1.17014 4.2291 0
M  V30 967 H 91.0952 -0.0815379 0.706309 0
M  V30 968 H 93.6972 0.464835 1.89893 0
M  V30 969 H 92.4012 0.303691 4.09275 0
M  V30 970 H 91.9322 -1.3561 3.69288 0
M  V30 971 H 93.9472 -2.45662 4.3112 0
M  V30 972 N 93.1203 -1.57491 0.0584922 0
M  V30 973 C 94.0303 -2.15448 -0.928414 0
M  V30 974 C 95.0463 -1.11416 -1.3365 0
M  V30 975 O 96.2223 -1.4362 -1.41193 0
M  V30 976 C 93.2873 -2.69393 -2.18239 0
M  V30 977 C 92.3483 -3.88249 -1.83196 0
M  V30 978 C 91.5813 -4.39613 -3.02616 0
M  V30 979 O 91.8043 -3.90023 -4.16219 0
M  V30 980 O 90.7383 -5.31111 -2.83204 0
M  V30 981 H 94.5643 -3.00112 -0.465483 0
M  V30 982 H 92.1493 -1.48499 -0.163826 0
M  V30 983 H 94.0313 -3.04026 -2.91798 0
M  V30 984 H 92.7063 -1.87796 -2.63656 0
M  V30 985 H 91.6133 -3.58492 -1.06931 0
M  V30 986 H 92.9463 -4.71098 -1.42573 0
M  V30 987 N 94.5984 0.214957 -1.56127 0
M  V30 988 C 95.8234 0.95924 -1.83884 0
M  V30 989 C 96.2484 1.7689 -0.639644 0
M  V30 990 O 95.6064 1.76566 0.411601 0
M  V30 991 C 95.6544 1.84723 -3.09693 0
M  V30 992 O 94.7584 2.94346 -2.8885 0
M  V30 993 H 94.0994 0.27125 -0.606069 0
M  V30 994 H 96.6294 0.226276 -2.03345 0
M  V30 995 H 96.6394 2.25576 -3.39969 0
M  V30 996 H 95.3144 1.25218 -3.96602 0
M  V30 997 H 93.8914 2.57391 -2.69823 0
M  V30 998 N 96.0765 1.50051 0.48192 0
M  V30 999 C 97.3245 1.60181 1.23234 0
M  V30 1000 C 97.6455 0.299176 1.92691 0
M  V30 1001 O 96.9155 -0.682708 1.83619 0
M  V30 1002 H 95.4955 0.590232 0.457859 0
M  V30 1003 H 98.1575 1.86775 0.556881 0
M  V30 1004 H 97.2535 2.40753 1.98607 0
M  V30 1005 N 97.5546 -0.734337 1.39446 0
M  V30 1006 C 98.5026 -1.86971 1.38364 0
M  V30 1007 C 99.4966 -1.67288 0.266687 0
M  V30 1008 O 100.703 -1.74621 0.436755 0
M  V30 1009 H 97.0776 -0.615474 0.432082 0
M  V30 1010 H 99.0486 -1.85 2.34132 0
M  V30 1011 C 97.7976 -3.2466 1.24465 0
M  V30 1012 H 97.1206 -3.40402 2.09682 0
M  V30 1013 H 98.5606 -4.04292 1.27764 0
M  V30 1014 C 97.0196 -3.36867 -0.0468674 0
M  V30 1015 O 97.5496 -3.88618 -1.01681 0
M  V30 1016 N 95.7556 -2.90391 -0.110145 0
M  V30 1017 H 95.3026 -2.48466 0.679868 0
M  V30 1018 H 95.2606 -2.98939 -0.973799 0
M  V30 1019 N 99.0327 -1.24633 -0.964593 0
M  V30 1020 C 100.263 -1.11339 -1.74032 0
M  V30 1021 C 100.671 0.336593 -1.86182 0
M  V30 1022 O 100.014 1.24389 -1.35178 0
M  V30 1023 C 100.076 -1.68284 -3.1768 0
M  V30 1024 C 99.7397 -3.17196 -3.28992 0
M  V30 1025 C 100.737 -4.14308 -3.14078 0
M  V30 1026 C 98.4217 -3.57215 -3.53133 0
M  V30 1027 C 100.416 -5.4942 -3.23135 0
M  V30 1028 C 98.1027 -4.92468 -3.61827 0
M  V30 1029 C 99.1007 -5.8838 -3.46841 0
M  V30 1030 O 98.7887 -7.21173 -3.55197 0
M  V30 1031 H 98.5207 -0.389551 -0.552472 0
M  V30 1032 H 101.075 -1.65282 -1.21946 0
M  V30 1033 H 99.3047 -1.08777 -3.71085 0
M  V30 1034 H 100.994 -1.50234 -3.77074 0
M  V30 1035 H 101.76 -3.84731 -2.95308 0
M  V30 1036 H 97.6387 -2.83063 -3.63863 0
M  V30 1037 H 101.183 -6.24263 -3.11355 0
M  V30 1038 H 97.0797 -5.21714 -3.80111 0
M  V30 1039 H 97.8477 -7.29135 -3.71892 0
M  V30 1040 N 100.511 1.16574 -1.06058 0
M  V30 1041 C 101.788 1.83048 -0.689416 0
M  V30 1042 C 102.168 1.94122 0.829443 0
M  V30 1043 O 101.516 1.48249 1.7388 0
M  V30 1044 C 101.726 3.20186 -1.38859 0
M  V30 1045 C 103.074 3.95989 -1.53226 0
M  V30 1046 O 104.098 3.29696 -1.3483 0
M  V30 1047 O 102.957 5.14813 -1.83384 0
M  V30 1048 H 100.051 0.790258 -0.243764 0
M  V30 1049 H 102.597 1.23797 -1.16071 0
M  V30 1050 H 101.369 3.07146 -2.4244 0
M  V30 1051 H 100.992 3.87112 -0.907216 0
M  V30 1052 N 101.989 0.842826 1.3317 0
M  V30 1053 C 102.922 0.223862 2.27099 0
M  V30 1054 C 103.9 -0.631311 1.49844 0
M  V30 1055 O 105.084 -0.590708 1.79005 0
M  V30 1056 C 102.211 -0.685313 3.31694 0
M  V30 1057 C 101.257 0.094919 4.26394 0
M  V30 1058 S 102.09 1.45546 5.15341 0
M  V30 1059 C 103.246 0.551685 6.23464 0
M  V30 1060 H 103.479 1.02015 2.79249 0
M  V30 1061 H 101.012 0.639797 1.4052 0
M  V30 1062 H 102.97 -1.20426 3.92438 0
M  V30 1063 H 101.631 -1.4553 2.78352 0
M  V30 1064 H 100.824 -0.597059 5.00451 0
M  V30 1065 H 100.426 0.545054 3.70007 0
M  V30 1066 H 102.718 -0.248877 6.77043 0
M  V30 1067 H 103.661 1.26253 6.96754 0
M  V30 1068 H 104.069 0.131275 5.64347 0
M  V30 1069 N 103.467 -1.45747 0.599634 0
M  V30 1070 C 104.878 -1.85853 0.177681 0
M  V30 1071 C 105.229 -1.50102 -1.26348 0
M  V30 1072 O 104.354 -0.923905 -1.95686 0
M  V30 1073 C 104.949 -3.37326 0.315688 0
M  V30 1074 C 103.508 -3.76365 -0.0515144 0
M  V30 1075 C 102.655 -2.69722 0.643822 0
M  V30 1076 H 105.606 -1.36661 0.806814 0
M  V30 1077 H 105.627 -3.77778 -0.454321 0
M  V30 1078 H 105.139 -3.63315 1.36468 0
M  V30 1079 H 103.24 -3.55993 -1.09999 0
M  V30 1080 H 103.353 -4.77916 0.336594 0
M  V30 1081 H 101.717 -2.54567 0.0822881 0
M  V30 1082 H 102.5 -2.98549 1.6948 0
M  V30 1083 N 104.945 -0.338344 -1.53925 0
M  V30 1084 C 105.855 0.529421 -2.28548 0
M  V30 1085 C 106.871 1.11645 -1.3346 0
M  V30 1086 O 108.047 1.13325 -1.66492 0
M  V30 1087 C 105.112 1.66713 -3.03987 0
M  V30 1088 C 104.173 1.11041 -4.14691 0
M  V30 1089 C 103.406 2.19389 -4.86522 0
M  V30 1090 O 103.629 3.40013 -4.57982 0
M  V30 1091 O 102.563 1.83976 -5.73094 0
M  V30 1092 H 106.389 -0.0770399 -3.03602 0
M  V30 1093 H 103.974 -0.103555 -1.49041 0
M  V30 1094 H 105.856 2.32918 -3.5118 0
M  V30 1095 H 104.531 2.25949 -2.31794 0
M  V30 1096 H 103.438 0.413024 -3.71813 0
M  V30 1097 H 104.771 0.562975 -4.8897 0
M  V30 1098 N 106.423 1.57458 -0.0668435 0
M  V30 1099 C 107.7 1.8469 0.644132 0
M  V30 1100 C 108.08 0.958343 1.88093 0
M  V30 1101 O 107.428 0.0233579 2.28488 0
M  V30 1102 C 107.638 3.34767 0.986509 0
M  V30 1103 C 108.986 4.02159 1.36212 0
M  V30 1104 O 110.01 3.39484 1.07839 0
M  V30 1105 O 108.869 5.12694 1.89227 0
M  V30 1106 H 105.963 0.762816 0.319437 0
M  V30 1107 H 108.509 1.6942 -0.0973986 0
M  V30 1108 H 107.281 3.91151 0.107883 0
M  V30 1109 H 106.904 3.55281 1.78497 0
M  V30 1110 N 107.901 -0.206675 1.56239 0
M  V30 1111 C 108.849 -1.27571 1.94495 0
M  V30 1112 C 109.843 -1.47737 0.828862 0
M  V30 1113 O 111.049 -1.48735 1.0138 0
M  V30 1114 H 107.424 -0.428029 0.6183 0
M  V30 1115 H 109.395 -0.925961 2.8367 0
M  V30 1116 C 108.144 -2.61568 2.29079 0
M  V30 1117 H 107.467 -2.46863 3.14482 0
M  V30 1118 H 108.907 -3.35144 2.5972 0
M  V30 1119 C 107.366 -3.17695 1.12123 0
M  V30 1120 O 107.896 -3.99801 0.390153 0
M  V30 1121 N 106.102 -2.76276 0.901097 0
M  V30 1122 H 105.649 -2.09613 1.49733 0
M  V30 1123 H 105.607 -3.1417 0.120319 0
M  V30 1124 N 109.379 -1.50304 -0.473955 0
M  V30 1125 C 110.609 -1.64663 -1.24778 0
M  V30 1126 C 111.017 -0.328174 -1.86332 0
M  V30 1127 O 110.36 0.699536 -1.69859 0
M  V30 1128 C 110.422 -2.6778 -2.39863 0
M  V30 1129 C 110.086 -4.11413 -1.98969 0
M  V30 1130 C 111.083 -4.97372 -1.51385 0
M  V30 1131 C 108.768 -4.57312 -2.07777 0
M  V30 1132 C 110.762 -6.27277 -1.13148 0
M  V30 1133 C 108.449 -5.87223 -1.69152 0
M  V30 1134 C 109.447 -6.72031 -1.21915 0
M  V30 1135 O 109.135 -7.99518 -0.838237 0
M  V30 1136 H 108.867 -0.556602 -0.383627 0
M  V30 1137 H 111.421 -1.9726 -0.572491 0
M  V30 1138 H 109.651 -2.30419 -3.10554 0
M  V30 1139 H 111.34 -2.71388 -3.01833 0
M  V30 1140 H 112.106 -4.63128 -1.44004 0
M  V30 1141 H 107.985 -3.91449 -2.43493 0
M  V30 1142 H 111.529 -6.93425 -0.762077 0
M  V30 1143 H 107.426 -6.20989 -1.76191 0
M  V30 1144 H 108.194 -8.12764 -0.967339 0
M  V30 1145 N 110.857 0.726932 -1.39834 0
M  V30 1146 C 112.106 1.48214 -1.36805 0
M  V30 1147 C 112.419 1.95576 0.0305291 0
M  V30 1148 O 113.625 2.7088 0.183417 0
M  V30 1149 C 112.081 2.67854 -2.40379 0
M  V30 1150 C 111.689 2.27408 -3.85992 0
M  V30 1151 C 113.433 3.45641 -2.46439 0
M  V30 1152 C 111.34 3.43819 -4.81189 0
M  V30 1153 H 110.27 0.556606 -0.508631 0
M  V30 1154 H 112.921 0.792216 -1.65518 0
M  V30 1155 H 111.303 3.3896 -2.04749 0
M  V30 1156 H 112.477 1.63795 -4.30706 0
M  V30 1157 H 110.792 1.62692 -3.83302 0
M  V30 1158 H 113.389 4.32244 -3.14753 0
M  V30 1159 H 113.732 3.88669 -1.49139 0
M  V30 1160 H 114.265 2.8157 -2.81004 0
M  V30 1161 H 111.004 3.05834 -5.79781 0
M  V30 1162 H 110.524 4.06385 -4.41148 0
M  V30 1163 H 112.203 4.10043 -5.00474 0
M  V30 1164 N 112.336 1.25143 0.95797 0
M  V30 1165 C 113.246 1.06968 2.08794 0
M  V30 1166 C 114.262 0.00773911 1.73998 0
M  V30 1167 O 115.438 0.207972 2.00323 0
M  V30 1168 C 112.503 0.68691 3.39827 0
M  V30 1169 C 111.564 1.82641 3.88511 0
M  V30 1170 C 110.797 1.46181 5.1329 0
M  V30 1171 O 111.02 0.355971 5.69288 0
M  V30 1172 O 109.954 2.29085 5.566 0
M  V30 1173 H 113.78 2.01723 2.27027 0
M  V30 1174 H 111.365 1.04051 1.07209 0
M  V30 1175 H 113.247 0.485417 4.18595 0
M  V30 1176 H 111.922 -0.231417 3.22872 0
M  V30 1177 H 110.829 2.08274 3.10762 0
M  V30 1178 H 112.162 2.72386 4.09959 0
M  V30 1179 N 113.814 -1.1601 1.06675 0
M  V30 1180 C 115.091 -1.82679 0.699114 0
M  V30 1181 C 115.471 -1.94559 -0.819137 0
M  V30 1182 O 114.819 -1.49169 -1.73092 0
M  V30 1183 C 115.029 -3.19445 1.40555 0
M  V30 1184 C 116.377 -3.95171 1.55323 0
M  V30 1185 O 117.401 -3.28976 1.36577 0
M  V30 1186 O 116.26 -5.13833 1.86112 0
M  V30 1187 H 113.354 -0.788954 0.247951 0
M  V30 1188 H 115.9 -1.23179 1.16726 0
M  V30 1189 H 114.672 -3.05856 2.44065 0
M  V30 1190 H 114.295 -3.86625 0.927733 0
M  V30 1191 N 115.292 -0.849877 -1.32721 0
M  V30 1192 C 116.255 -0.296122 -2.27279 0
M  V30 1193 C 117.255 0.541458 -1.5141 0
M  V30 1194 O 118.445 0.353658 -1.70572 0
M  V30 1195 C 115.577 0.581579 -3.35902 0
M  V30 1196 H 116.77 -1.13064 -2.77771 0
M  V30 1197 H 114.323 -0.62383 -1.43311 0
M  V30 1198 H 115.058 1.43809 -2.9067 0
M  V30 1199 H 114.843 -0.0178814 -3.92096 0
M  V30 1200 H 116.333 0.961951 -4.0637 0
M  V30 1201 N 116.77 1.45427 -0.607355 0
M  V30 1202 C 117.7 2.3329 0.0989352 0
M  V30 1203 C 118.681 1.46816 0.859007 0
M  V30 1204 O 119.866 1.75588 0.829604 0
M  V30 1205 C 116.996 3.29518 1.09705 0
M  V30 1206 C 115.95 4.25626 0.450206 0
M  V30 1207 C 115.276 5.11542 1.55655 0
M  V30 1208 C 116.576 5.18505 -0.628455 0
M  V30 1209 H 118.27 2.92595 -0.634716 0
M  V30 1210 H 115.816 1.40696 -0.306681 0
M  V30 1211 H 117.769 3.89855 1.59971 0
M  V30 1212 H 116.493 2.68372 1.86129 0
M  V30 1213 H 115.152 3.66586 -0.0315886 0
M  V30 1214 H 114.8 4.46765 2.31107 0
M  V30 1215 H 114.5 5.76647 1.12925 0
M  V30 1216 H 116.024 5.74748 2.06148 0
M  V30 1217 H 117.438 5.72916 -0.209877 0
M  V30 1218 H 115.835 5.92085 -0.977489 0
M  V30 1219 H 116.905 4.60948 -1.50514 0
M  V30 1220 N 118.248 0.346503 1.53744 0
M  V30 1221 C 119.476 -0.25041 2.05379 0
M  V30 1222 C 119.891 -1.43979 1.22129 0
M  V30 1223 O 119.248 -1.80677 0.257321 0
M  V30 1224 C 119.299 -0.662575 3.55376 0
M  V30 1225 O 119.02 0.479515 4.35468 0
M  V30 1226 C 120.521 -1.31989 4.23195 0
M  V30 1227 H 117.741 -0.0478198 0.669294 0
M  V30 1228 H 120.285 0.499346 1.9831 0
M  V30 1229 H 118.44 -1.36227 3.62658 0
M  V30 1230 H 118.854 0.15037 5.24284 0
M  V30 1231 H 120.328 -1.55902 5.29527 0
M  V30 1232 H 120.805 -2.27436 3.75725 0
M  V30 1233 H 121.411 -0.662154 4.20114 0
M  V30 1234 N 119.726 -1.57421 0.075193 0
M  V30 1235 C 121.137 -1.81021 -0.456964 0
M  V30 1236 C 121.488 -0.98936 -1.69429 0
M  V30 1237 O 120.613 -0.212865 -2.15351 0
M  V30 1238 C 121.208 -3.28329 -0.83581 0
M  V30 1239 C 119.767 -3.52764 -1.31281 0
M  V30 1240 C 118.914 -2.75676 -0.299648 0
M  V30 1241 H 121.865 -1.55822 0.300856 0
M  V30 1242 H 121.886 -3.40564 -1.69696 0
M  V30 1243 H 121.398 -3.88046 0.0649238 0
M  V30 1244 H 119.499 -2.98355 -2.23193 0
M  V30 1245 H 119.612 -4.61451 -1.28839 0
M  V30 1246 H 117.976 -2.42538 -0.777641 0
M  V30 1247 H 118.759 -3.38132 0.593417 0
M  V30 1248 N 121.204 0.198386 -1.56346 0
M  V30 1249 C 122.114 1.2664 -1.97483 0
M  V30 1250 C 123.13 1.49989 -0.882002 0
M  V30 1251 O 124.306 1.62668 -1.18748 0
M  V30 1252 C 121.371 2.59141 -2.30319 0
M  V30 1253 C 120.432 2.43892 -3.53292 0
M  V30 1254 C 119.665 3.70074 -3.84553 0
M  V30 1255 O 119.888 4.74101 -3.1715 0
M  V30 1256 O 118.822 3.658 -4.7799 0
M  V30 1257 H 122.648 0.947304 -2.88548 0
M  V30 1258 H 120.233 0.403123 -1.43859 0
M  V30 1259 H 122.115 3.37352 -2.5253 0
M  V30 1260 H 120.79 2.90684 -1.42423 0
M  V30 1261 H 119.697 1.63803 -3.36332 0
M  V30 1262 H 121.03 2.17282 -4.41644 0
M  V30 1263 N 122.682 1.50554 0.465978 0
M  V30 1264 C 123.592 1.72585 1.58907 0
M  V30 1265 C 124.608 0.60911 1.6299 0
M  V30 1266 O 125.784 0.88804 1.80765 0
M  V30 1267 C 122.849 1.81995 2.95091 0
M  V30 1268 C 121.91 3.05751 3.01355 0
M  V30 1269 C 121.143 3.14702 4.31043 0
M  V30 1270 O 121.366 2.30313 5.21835 0
M  V30 1271 O 120.3 4.07468 4.43005 0
M  V30 1272 H 124.126 2.67799 1.43239 0
M  V30 1273 H 121.711 1.34711 0.646013 0
M  V30 1274 H 123.593 1.90335 3.75966 0
M  V30 1275 H 122.268 0.899659 3.10947 0
M  V30 1276 H 121.175 3.02908 2.19539 0
M  V30 1277 H 122.508 3.97375 2.90437 0
M  V30 1278 N 124.16 -0.719506 1.40217 0
M  V30 1279 C 125.123 -1.8153 1.39927 0
M  V30 1280 C 126.123 -1.58095 0.293723 0
M  V30 1281 O 127.313 -1.65209 0.552429 0
M  V30 1282 C 124.445 -3.19561 1.18716 0
M  V30 1283 H 125.638 -1.83186 2.37451 0
M  V30 1284 H 123.191 -0.924746 1.26008 0
M  V30 1285 H 123.926 -3.23557 0.219366 0
M  V30 1286 H 123.711 -3.3797 1.98793 0
M  V30 1287 H 125.201 -3.99598 1.21291 0
M  V30 1288 N 125.638 -1.25649 -0.95132 0
M  V30 1289 C 126.57 -1.02112 -2.05197 0
M  V30 1290 C 127.583 0.0150571 -1.62793 0
M  V30 1291 O 128.772 -0.223874 -1.77091 0
M  V30 1292 C 125.872 -0.522361 -3.3485 0
M  V30 1293 C 125.045 -1.62546 -4.06076 0
M  V30 1294 C 124.104 -1.12649 -5.14001 0
M  V30 1295 O 123.13 -1.82156 -5.39266 0
M  V30 1296 N 124.332 0.03047 -5.80492 0
M  V30 1297 H 127.097 -1.96885 -2.25957 0
M  V30 1298 H 124.658 -1.16899 -1.1201 0
M  V30 1299 H 126.65 -0.172961 -4.0433 0
M  V30 1300 H 125.22 0.33151 -3.10837 0
M  V30 1301 H 124.44 -2.14628 -3.30649 0
M  V30 1302 H 125.728 -2.36644 -4.50419 0
M  V30 1303 H 125.126 0.611169 -5.62389 0
M  V30 1304 H 123.683 0.320875 -6.5101 0
M  V30 1305 N 127.117 1.15442 -1.07289 0
M  V30 1306 C 128.049 2.19773 -0.650585 0
M  V30 1307 C 129.062 1.60076 0.296572 0
M  V30 1308 O 130.251 1.78293 0.0859905 0
M  V30 1309 C 127.351 3.38838 0.0650398 0
M  V30 1310 C 126.524 4.2808 -0.898141 0
M  V30 1311 C 125.583 5.2574 -0.219926 0
M  V30 1312 O 124.609 5.62654 -0.860773 0
M  V30 1313 N 125.811 5.71205 1.03466 0
M  V30 1314 H 128.576 2.56622 -1.54808 0
M  V30 1315 H 126.137 1.30551 -0.957494 0
M  V30 1316 H 128.129 4.01222 0.529415 0
M  V30 1317 H 126.699 3.00409 0.864466 0
M  V30 1318 H 125.919 3.62804 -1.54165 0
M  V30 1319 H 127.207 4.84577 -1.5512 0
M  V30 1320 H 126.605 5.43325 1.57526 0
M  V30 1321 H 125.162 6.35633 1.44272 0
M  V30 1322 N 128.595 0.856903 1.32268 0
M  V30 1323 C 129.843 0.460474 1.96784 0
M  V30 1324 C 130.164 -0.987701 1.68135 0
M  V30 1325 O 129.434 -1.69058 0.989765 0
M  V30 1326 H 128.014 0.167289 0.728027 0
M  V30 1327 H 130.676 1.09383 1.61312 0
M  V30 1328 H 129.772 0.60739 3.06133 0
M  V30 1329 N 130.073 -1.45103 0.615059 0
M  V30 1330 C 131.303 -2.06254 0.119596 0
M  V30 1331 C 131.711 -1.4591 -1.20445 0
M  V30 1332 O 131.054 -0.570384 -1.7462 0
M  V30 1333 C 131.116 -3.59396 -0.0865591 0
M  V30 1334 C 130.78 -4.42116 1.15683 0
M  V30 1335 C 131.777 -4.7662 2.07676 0
M  V30 1336 C 129.462 -4.82749 1.38775 0
M  V30 1337 C 131.456 -5.50622 3.21082 0
M  V30 1338 C 129.143 -5.56504 2.52481 0
M  V30 1339 C 130.141 -5.90358 3.43463 0
M  V30 1340 O 129.829 -6.62615 4.55189 0
M  V30 1341 H 129.561 -0.672423 0.0694512 0
M  V30 1342 H 132.115 -1.87219 0.844885 0
M  V30 1343 H 130.345 -3.76859 -0.866823 0
M  V30 1344 H 132.034 -4.02365 -0.534555 0
M  V30 1345 H 132.8 -4.4578 1.91063 0
M  V30 1346 H 128.679 -4.55829 0.688545 0
M  V30 1347 H 132.223 -5.76965 3.92119 0
M  V30 1348 H 128.12 -5.86759 2.69043 0
M  V30 1349 H 128.888 -6.81071 4.53966 0
M  V30 1350 N 131.551 -0.354651 -1.53558 0
M  V30 1351 C 132.797 0.238797 -2.01389 0
M  V30 1352 C 133.13 1.49309 -1.2418 0
M  V30 1353 O 132.405 1.91638 -0.332457 0
M  V30 1354 C 132.688 0.541771 -3.56001 0
M  V30 1355 C 132.541 -0.725388 -4.43912 0
M  V30 1356 C 133.86 1.34685 -4.18984 0
M  V30 1357 H 130.979 0.0853177 -0.732045 0
M  V30 1358 H 133.621 -0.477384 -1.83905 0
M  V30 1359 H 131.771 1.15189 -3.71031 0
M  V30 1360 H 133.443 -1.36313 -4.407 0
M  V30 1361 H 131.686 -1.34801 -4.12324 0
M  V30 1362 H 132.357 -0.468505 -5.50008 0
M  V30 1363 H 134.833 0.830837 -4.07721 0
M  V30 1364 H 133.709 1.52759 -5.27215 0
M  V30 1365 H 133.97 2.35221 -3.74331 0
M  V30 1366 N 133.029 1.57378 -0.0835403 0
M  V30 1367 C 133.959 2.1641 0.87686 0
M  V30 1368 C 134.94 1.09429 1.30228 0
M  V30 1369 O 136.125 1.37516 1.37124 0
M  V30 1370 C 133.255 2.73517 2.14022 0
M  V30 1371 C 132.209 3.85769 1.85381 0
M  V30 1372 C 131.535 4.29529 3.18448 0
M  V30 1373 C 132.835 5.09486 1.14984 0
M  V30 1374 H 134.529 2.96914 0.385059 0
M  V30 1375 H 132.075 1.42823 0.18377 0
M  V30 1376 H 134.028 3.13463 2.81636 0
M  V30 1377 H 132.752 1.90252 2.65465 0
M  V30 1378 H 131.411 3.46345 1.20169 0
M  V30 1379 H 131.059 3.43169 3.67755 0
M  V30 1380 H 130.759 5.05204 3.00071 0
M  V30 1381 H 132.283 4.72099 3.8724 0
M  V30 1382 H 133.697 5.46674 1.72687 0
M  V30 1383 H 132.094 5.90515 1.06826 0
M  V30 1384 H 133.164 4.84724 0.130749 0
M  V30 1385 N 134.507 -0.190092 1.56449 0
M  V30 1386 C 135.47 -1.21925 1.9408 0
M  V30 1387 C 136.47 -1.38176 0.822431 0
M  V30 1388 O 137.66 -1.35903 1.08977 0
M  V30 1389 C 134.792 -2.58773 2.21922 0
M  V30 1390 H 135.985 -0.897464 2.86157 0
M  V30 1391 H 133.538 -0.43181 1.50217 0
M  V30 1392 H 134.273 -2.95998 1.32499 0
M  V30 1393 H 134.058 -2.48348 3.03424 0
M  V30 1394 H 135.548 -3.32978 2.52022 0
M  V30 1395 N 135.985 -1.50799 -0.457987 0
M  V30 1396 C 137.225 -1.64088 -1.21879 0
M  V30 1397 C 137.589 -0.339848 -1.88968 0
M  V30 1398 O 138.79 -0.348301 -2.66534 0
M  V30 1399 C 137.061 -2.79726 -2.2246 0
M  V30 1400 S 138.62 -3.13225 -3.07303 0
M  V30 1401 H 135.438 -0.578314 -0.41361 0
M  V30 1402 H 138.04 -1.88632 -0.513645 0
M  V30 1403 H 136.744 -3.72722 -1.71775 0
M  V30 1404 H 136.275 -2.57308 -2.97584 0
M  V30 1405 H 138.29 -2.58062 -4.23814 0
M  V30 1406 N 137.463 0.71206 -1.40597 0
M  V30 1407 C 138.395 1.83704 -1.37061 0
M  V30 1408 C 139.408 1.60453 -0.275426 0
M  V30 1409 O 140.597 1.70262 -0.53602 0
M  V30 1410 C 137.697 3.20172 -1.11099 0
M  V30 1411 C 136.87 3.7059 -2.3234 0
M  V30 1412 C 135.929 4.85681 -2.02485 0
M  V30 1413 O 134.955 4.9815 -2.75382 0
M  V30 1414 N 136.157 5.71735 -1.00497 0
M  V30 1415 H 138.922 1.87235 -2.34016 0
M  V30 1416 H 136.483 0.893739 -1.34996 0
M  V30 1417 H 138.475 3.94768 -0.891064 0
M  V30 1418 H 137.045 3.11767 -0.227989 0
M  V30 1419 H 136.265 2.87085 -2.7014 0
M  V30 1420 H 137.553 4.01011 -3.13157 0
M  V30 1421 H 136.951 5.64275 -0.401298 0
M  V30 1422 H 135.508 6.463 -0.844942 0
M  V30 1423 N 138.941 1.26152 0.944643 0
M  V30 1424 C 140.181 1.12708 1.70517 0
M  V30 1425 C 140.545 -0.324727 1.89234 0
M  V30 1426 O 141.746 -0.581211 2.62441 0
M  V30 1427 C 140.017 1.8713 3.04495 0
M  V30 1428 S 141.576 1.89698 3.95677 0
M  V30 1429 H 138.394 0.402665 0.585988 0
M  V30 1430 H 140.996 1.59821 1.12594 0
M  V30 1431 H 139.7 2.91833 2.88551 0
M  V30 1432 H 139.231 1.40444 3.67477 0
M  V30 1433 H 141.246 0.981198 4.86402 0
M  V30 1434 N 140.419 -1.14872 1.07899 0
M  V30 1435 C 141.835 -1.37776 0.805606 0
M  V30 1436 C 142.035 -1.92743 -0.587555 0
M  V30 1437 O 141.091 -2.13678 -1.34528 0
M  V30 1438 C 142.404 -2.34361 1.88402 0
M  V30 1439 C 143.952 -2.48012 1.90942 0
M  V30 1440 C 144.427 -3.47893 2.97883 0
M  V30 1441 N 145.918 -3.55433 2.97021 0
M  V30 1442 C 146.653 -4.32553 3.76412 0
M  V30 1443 N 146.149 -5.12959 4.65666 0
M  V30 1444 N 147.942 -4.27697 3.64735 0
M  V30 1445 H 140.093 -0.775365 1.97742 0
M  V30 1446 H 142.356 -0.403521 0.857831 0
M  V30 1447 H 142.062 -2.01098 2.88535 0
M  V30 1448 H 141.936 -3.34206 1.74889 0
M  V30 1449 H 144.323 -2.8057 0.914579 0
M  V30 1450 H 144.404 -1.48147 2.08534 0
M  V30 1451 H 144.048 -3.16069 3.97571 0
M  V30 1452 H 143.978 -4.47527 2.77538 0
M  V30 1453 H 146.469 -2.98048 2.32326 0
M  V30 1454 H 146.782 -5.69065 5.22862 0
M  V30 1455 H 145.127 -5.12245 4.69712 0
M  V30 1456 H 148.318 -3.63949 2.94378 0
M  V30 1457 H 148.491 -4.8755 4.26848 0
M  V30 1458 N 141.898 -0.863906 -1.31812 0
M  V30 1459 C 143.309 -0.52522 -1.7916 0
M  V30 1460 C 143.66 0.957518 -1.71248 0
M  V30 1461 O 142.785 1.74734 -1.27659 0
M  V30 1462 C 143.38 -0.9466 -3.25307 0
M  V30 1463 C 141.939 -0.659668 -3.70574 0
M  V30 1464 C 141.086 -1.14126 -2.52726 0
M  V30 1465 H 144.037 -1.05022 -1.1898 0
M  V30 1466 H 144.058 -0.266766 -3.79564 0
M  V30 1467 H 143.57 -2.02579 -3.31034 0
M  V30 1468 H 141.671 0.408416 -3.70355 0
M  V30 1469 H 141.784 -1.23245 -4.62977 0
M  V30 1470 H 140.148 -0.561216 -2.4844 0
M  V30 1471 H 140.931 -2.22775 -2.61201 0
M  V30 1472 N 143.376 1.44774 -0.622745 0
M  V30 1473 C 144.604 2.06487 -0.130722 0
M  V30 1474 C 145.019 1.46476 1.19123 0
M  V30 1475 O 144.376 0.584502 1.72887 0
M  V30 1476 C 144.427 3.615 -0.000807207 0
M  V30 1477 O 144.148 4.19274 -1.27048 0
M  V30 1478 C 145.649 4.40229 0.520898 0
M  V30 1479 H 142.869 0.666704 -0.0758106 0
M  V30 1480 H 145.413 1.85779 -0.854774 0
M  V30 1481 H 143.568 3.81498 0.673643 0
M  V30 1482 H 143.982 5.12622 -1.1099 0
M  V30 1483 H 145.456 5.49144 0.560838 0
M  V30 1484 H 145.933 4.1108 1.54627 0
M  V30 1485 H 146.539 4.25131 -0.120018 0
M  V30 1486 N 144.854 0.36279 1.53368 0
M  V30 1487 C 146.079 -0.231226 2.06107 0
M  V30 1488 C 146.504 -1.419 1.23474 0
M  V30 1489 O 145.862 -1.79524 0.253128 0
M  V30 1490 C 145.91 -0.605523 3.5548 0
M  V30 1491 O 145.014 -1.70312 3.7559 0
M  V30 1492 H 144.355 -0.034327 0.663112 0
M  V30 1493 H 146.885 0.522584 1.97814 0
M  V30 1494 H 146.895 -0.877314 3.98456 0
M  V30 1495 H 145.57 0.263004 4.15068 0
M  V30 1496 H 144.147 -1.4271 3.44512 0
M  V30 1497 N 146.332 -1.57332 0.0918853 0
M  V30 1498 C 147.609 -1.85691 -0.614668 0
M  V30 1499 C 147.989 -0.988146 -1.86545 0
M  V30 1500 O 147.337 -0.0597055 -2.28422 0
M  V30 1501 C 147.547 -3.36294 -0.933126 0
M  V30 1502 C 148.895 -4.04275 -1.29796 0
M  V30 1503 O 149.919 -3.41157 -1.02424 0
M  V30 1504 O 148.778 -5.1564 -1.81047 0
M  V30 1505 H 145.872 -0.767802 -0.307261 0
M  V30 1506 H 148.418 -1.69244 0.12434 0
M  V30 1507 H 147.19 -3.91273 -0.0456404 0
M  V30 1508 H 146.813 -3.58076 -1.72822 0
M  V30 1509 N 147.81 0.181792 -1.56548 0
M  V30 1510 C 148.773 1.20894 -1.94724 0
M  V30 1511 C 149.773 1.37738 -0.829747 0
M  V30 1512 O 150.963 1.35323 -1.09697 0
M  V30 1513 C 148.095 2.57593 -2.23291 0
M  V30 1514 H 149.288 0.882275 -2.86629 0
M  V30 1515 H 146.841 0.423838 -1.50444 0
M  V30 1516 H 147.576 2.95291 -1.34067 0
M  V30 1517 H 147.361 2.46735 -3.04736 0
M  V30 1518 H 148.851 3.31637 -2.53785 0
M  V30 1519 N 149.288 1.51039 0.449983 0
M  V30 1520 C 150.534 1.63322 1.20223 0
M  V30 1521 C 150.867 0.34241 1.91158 0
M  V30 1522 O 150.142 -0.657344 1.83055 0
M  V30 1523 C 150.425 2.82801 2.22925 0
M  V30 1524 C 150.278 4.21823 1.56157 0
M  V30 1525 C 151.597 2.97807 3.24035 0
M  V30 1526 H 148.716 0.594407 0.435718 0
M  V30 1527 H 151.358 1.83489 0.493136 0
M  V30 1528 H 149.508 2.65738 2.834 0
M  V30 1529 H 151.18 4.50526 0.991162 0
M  V30 1530 H 149.423 4.25105 0.864172 0
M  V30 1531 H 150.094 5.01391 2.30891 0
M  V30 1532 H 152.57 3.13497 2.73603 0
M  V30 1533 H 151.446 3.82992 3.93202 0
M  V30 1534 H 151.707 2.09328 3.89402 0
M  V30 1535 N 150.766 -0.704594 1.40972 0
M  V30 1536 C 152.013 -1.46458 1.39844 0
M  V30 1537 C 152.341 -1.94499 0.00447594 0
M  V30 1538 O 151.596 -1.69275 -0.982057 0
M  V30 1539 C 151.895 -2.698 2.34399 0
M  V30 1540 C 151.561 -2.40464 3.81429 0
M  V30 1541 C 150.223 -2.32174 4.21484 0
M  V30 1542 C 152.575 -2.16086 4.74296 0
M  V30 1543 C 149.903 -1.97589 5.52427 0
M  V30 1544 C 152.255 -1.83011 6.05549 0
M  V30 1545 C 150.919 -1.7321 6.44635 0
M  V30 1546 H 150.189 -0.535927 0.511725 0
M  V30 1547 H 152.836 -0.806124 1.73706 0
M  V30 1548 H 151.141 -3.40536 1.93759 0
M  V30 1549 H 152.838 -3.27919 2.30804 0
M  V30 1550 H 149.428 -2.47808 3.49699 0
M  V30 1551 H 153.612 -2.2144 4.4416 0
M  V30 1552 H 148.868 -1.88547 5.81601 0
M  V30 1553 H 153.042 -1.63164 6.77016 0
M  V30 1554 H 150.669 -1.46179 7.46013 0
M  V30 1555 N 152.244 -1.26651 -0.937939 0
M  V30 1556 C 153.176 -1.04283 -2.04102 0
M  V30 1557 C 154.189 -0.00221014 -1.628 0
M  V30 1558 O 155.378 -0.242645 -1.76843 0
M  V30 1559 C 152.478 -0.557846 -3.34277 0
M  V30 1560 C 151.651 -1.66843 -4.04329 0
M  V30 1561 C 150.71 -1.18095 -5.12777 0
M  V30 1562 O 149.736 -1.87865 -5.37304 0
M  V30 1563 N 150.938 -0.0311006 -5.80492 0
M  V30 1564 H 153.703 -1.9927 -2.23856 0
M  V30 1565 H 151.264 -1.1808 -1.10764 0
M  V30 1566 H 153.256 -0.215836 -4.04124 0
M  V30 1567 H 151.826 0.298523 -3.11171 0
M  V30 1568 H 151.046 -2.18123 -3.28353 0
M  V30 1569 H 152.334 -2.41408 -4.47883 0
M  V30 1570 H 151.732 0.551486 -5.63005 0
M  V30 1571 H 150.289 0.251809 -6.51313 0
M  V30 1572 N 153.722 1.14298 -1.08507 0
M  V30 1573 C 154.971 1.84708 -0.810305 0
M  V30 1574 C 155.284 1.83903 0.666271 0
M  V30 1575 O 156.49 2.50112 1.05624 0
M  V30 1576 C 154.946 3.31572 -1.39957 0
M  V30 1577 C 154.554 3.40791 -2.90801 0
M  V30 1578 C 156.298 4.07087 -1.20334 0
M  V30 1579 C 154.205 4.81872 -3.4286 0
M  V30 1580 H 153.135 0.691985 -0.299454 0
M  V30 1581 H 155.786 1.28841 -1.30661 0
M  V30 1582 H 154.168 3.87183 -0.830976 0
M  V30 1583 H 155.342 2.95225 -3.53806 0
M  V30 1584 H 153.657 2.78732 -3.0935 0
M  V30 1585 H 156.254 5.11225 -1.56693 0
M  V30 1586 H 156.597 4.16054 -0.143237 0
M  V30 1587 H 157.13 3.57779 -1.73893 0
M  V30 1588 H 153.869 4.78094 -4.48449 0
M  V30 1589 H 153.389 5.27972 -2.84615 0
M  V30 1590 H 155.068 5.50765 -3.39509 0
M  V30 1591 N 155.201 0.870884 1.31352 0
M  V30 1592 C 156.133 0.28455 2.27427 0
M  V30 1593 C 157.146 -0.552927 1.53123 0
M  V30 1594 O 158.335 -0.374771 1.74521 0
M  V30 1595 C 155.435 -0.615164 3.3327 0
M  V30 1596 C 154.608 0.190079 4.36987 0
M  V30 1597 C 153.667 -0.637917 5.22319 0
M  V30 1598 O 152.693 -0.065626 5.69162 0
M  V30 1599 N 153.895 -1.94973 5.46778 0
M  V30 1600 H 156.66 1.11017 2.7838 0
M  V30 1601 H 154.221 0.732458 1.44384 0
M  V30 1602 H 156.213 -1.1748 3.87273 0
M  V30 1603 H 154.783 -1.34146 2.82354 0
M  V30 1604 H 154.003 0.931165 3.83044 0
M  V30 1605 H 155.291 0.742579 5.03352 0
M  V30 1606 H 154.689 -2.4378 5.10478 0
M  V30 1607 H 153.246 -2.45713 6.03712 0
M  V30 1608 N 156.679 -1.44442 0.630414 0
M  V30 1609 C 157.642 -2.29107 -0.0652523 0
M  V30 1610 C 158.642 -1.41002 -0.772995 0
M  V30 1611 O 159.832 -1.62881 -0.617692 0
M  V30 1612 C 156.964 -3.22564 -1.10296 0
M  V30 1613 H 158.157 -2.92103 0.679401 0
M  V30 1614 H 155.71 -1.51343 0.390517 0
M  V30 1615 H 156.445 -2.64416 -1.87762 0
M  V30 1616 H 156.23 -3.87491 -0.59941 0
M  V30 1617 H 157.72 -3.86167 -1.5895 0
M  V30 1618 N 158.157 -0.370918 -1.53173 0
M  V30 1619 C 159.382 0.220293 -2.06227 0
M  V30 1620 C 159.807 1.41243 -1.24225 0
M  V30 1621 O 159.165 1.79387 -0.262645 0
M  V30 1622 C 159.213 0.586663 -3.55796 0
M  V30 1623 O 158.317 1.68317 -3.76488 0
M  V30 1624 H 157.658 0.0308099 -0.663285 0
M  V30 1625 H 160.188 -0.533068 -1.97534 0
M  V30 1626 H 160.198 0.85617 -3.98916 0
M  V30 1627 H 158.873 -0.285013 -4.14922 0
M  V30 1628 H 157.45 1.40881 -3.45264 0
M  V30 1629 N 159.635 1.57281 -0.100228 0
M  V30 1630 C 160.86 1.99302 0.573881 0
M  V30 1631 C 161.285 0.979059 1.60611 0
M  V30 1632 O 160.643 -0.0517803 1.81226 0
M  V30 1633 C 160.691 3.40274 1.19358 0
M  V30 1634 O 159.795 3.41676 2.30935 0
M  V30 1635 H 159.136 0.647944 0.145138 0
M  V30 1636 H 161.666 2.03779 -0.183156 0
M  V30 1637 H 161.676 3.78078 1.53365 0
M  V30 1638 H 160.351 4.13594 0.437385 0
M  V30 1639 H 158.928 3.15672 1.98509 0
M  V30 1640 N 161.113 -0.173488 1.56642 0
M  V30 1641 C 162.023 -1.23482 1.99473 0
M  V30 1642 C 163.039 -1.48567 0.905752 0
M  V30 1643 O 164.215 -1.60758 1.21321 0
M  V30 1644 C 161.28 -2.55444 2.34413 0
M  V30 1645 C 160.341 -2.38241 3.57127 0
M  V30 1646 C 159.574 -3.63909 3.90392 0
M  V30 1647 O 159.797 -4.68996 3.24653 0
M  V30 1648 O 158.731 -3.58149 4.83749 0
M  V30 1649 H 162.557 -0.901279 2.90018 0
M  V30 1650 H 160.142 -0.380185 1.44482 0
M  V30 1651 H 162.024 -3.33292 2.57865 0
M  V30 1652 H 160.699 -2.88382 1.4703 0
M  V30 1653 H 159.606 -1.58431 3.38896 0
M  V30 1654 H 160.939 -2.10228 4.45045 0
M  V30 1655 N 162.591 -1.51276 -0.441967 0
M  V30 1656 C 163.837 -1.63958 -1.19355 0
M  V30 1657 C 164.17 -0.352543 -1.90973 0
M  V30 1658 O 163.445 0.647627 -1.83401 0
M  V30 1659 C 163.728 -2.83979 -2.21422 0
M  V30 1660 C 163.581 -4.22646 -1.53918 0
M  V30 1661 C 164.9 -2.99521 -3.22451 0
M  V30 1662 H 162.019 -0.596709 -0.432559 0
M  V30 1663 H 164.661 -1.83748 -0.483398 0
M  V30 1664 H 162.811 -2.67237 -2.81987 0
M  V30 1665 H 164.483 -4.51045 -0.967256 0
M  V30 1666 H 162.726 -4.25558 -0.841615 0
M  V30 1667 H 163.397 -5.02609 -2.28229 0
M  V30 1668 H 165.873 -3.14944 -2.71937 0
M  V30 1669 H 164.749 -3.85072 -3.91166 0
M  V30 1670 H 165.01 -2.11391 -3.88287 0
M  V30 1671 N 164.069 0.697108 -1.41344 0
M  V30 1672 C 165.309 1.46939 -1.42085 0
M  V30 1673 C 165.673 1.9198 -0.0280397 0
M  V30 1674 O 166.874 2.6865 0.0897504 0
M  V30 1675 C 165.145 2.64985 -2.39828 0
M  V30 1676 S 166.704 3.54147 -2.59085 0
M  V30 1677 H 163.522 0.502146 -0.503359 0
M  V30 1678 H 166.124 0.813546 -1.77769 0
M  V30 1679 H 164.828 2.30098 -3.39828 0
M  V30 1680 H 164.359 3.35464 -2.05493 0
M  V30 1681 H 166.374 4.60137 -1.85711 0
M  V30 1682 N 165.547 1.27147 0.931209 0
M  V30 1683 C 166.494 1.09568 2.03134 0
M  V30 1684 C 167.464 -0.00222433 1.661 0
M  V30 1685 O 168.649 0.159439 1.90133 0
M  V30 1686 C 165.789 0.745231 3.36957 0
M  V30 1687 C 164.902 1.92041 3.86968 0
M  V30 1688 C 164.037 1.51216 5.09222 0
M  V30 1689 C 163.076 2.65504 5.5152 0
M  V30 1690 N 162.213 2.25291 6.64972 0
M  V30 1691 H 167.053 2.03708 2.17502 0
M  V30 1692 H 164.59 1.01411 1.06556 0
M  V30 1693 H 166.548 0.522878 4.1391 0
M  V30 1694 H 165.178 -0.159202 3.22407 0
M  V30 1695 H 164.23 2.25541 3.06326 0
M  V30 1696 H 165.542 2.77787 4.1429 0
M  V30 1697 H 164.696 1.25084 5.93666 0
M  V30 1698 H 163.435 0.625749 4.83669 0
M  V30 1699 H 162.44 2.92354 4.65628 0
M  V30 1700 H 163.665 3.54761 5.7907 0
M  V30 1701 H 161.611 1.39098 6.41083 0
M  V30 1702 H 161.528 3.04577 6.91931 0
M  V30 1703 H 162.796 2.02398 7.52765 0
M  V30 1704 N 167.025 -1.13721 1.09112 0
M  V30 1705 C 168.253 -1.88773 0.846899 0
M  V30 1706 C 168.668 -1.7896 -0.601572 0
M  V30 1707 O 168.025 -1.15394 -1.41388 0
M  V30 1708 C 168.076 -3.3849 1.26913 0
M  V30 1709 O 167.797 -3.48043 2.66079 0
M  V30 1710 C 169.298 -4.30518 1.05682 0
M  V30 1711 H 166.518 -0.59772 0.304914 0
M  V30 1712 H 169.062 -1.43977 1.45227 0
M  V30 1713 H 167.217 -3.80881 0.707723 0
M  V30 1714 H 167.631 -4.4109 2.83795 0
M  V30 1715 H 169.105 -5.3391 1.40156 0
M  V30 1716 H 169.582 -4.392 -0.00563416 0
M  V30 1717 H 170.188 -3.93893 1.60402 0
M  V30 1718 N 168.503 -0.877838 -1.30888 0
M  V30 1719 C 169.45 -0.337538 -2.28318 0
M  V30 1720 C 170.42 0.568346 -1.56074 0
M  V30 1721 O 171.605 0.498298 -1.84178 0
M  V30 1722 C 168.745 0.448142 -3.42178 0
M  V30 1723 C 167.858 -0.48615 -4.29256 0
M  V30 1724 C 166.993 0.314427 -5.30269 0
M  V30 1725 C 166.032 -0.615791 -6.08995 0
M  V30 1726 N 165.169 0.14902 -7.01942 0
M  V30 1727 H 170.009 -1.17356 -2.73919 0
M  V30 1728 H 167.546 -0.590094 -1.34745 0
M  V30 1729 H 169.504 0.919517 -4.06941 0
M  V30 1730 H 168.134 1.24879 -2.97666 0
M  V30 1731 H 167.186 -1.076 -3.64865 0
M  V30 1732 H 168.498 -1.19909 -4.84173 0
M  V30 1733 H 167.652 0.847969 -6.00745 0
M  V30 1734 H 166.391 1.06062 -4.76027 0
M  V30 1735 H 165.396 -1.16102 -5.37401 0
M  V30 1736 H 166.621 -1.36097 -6.65323 0
M  V30 1737 H 164.567 0.877884 -6.50099 0
M  V30 1738 H 164.484 -0.504433 -7.54315 0
M  V30 1739 H 165.752 0.663537 -7.76671 0
M  V30 1740 N 169.982 1.44106 -0.638065 0
M  V30 1741 C 171.231 2.01194 -0.142744 0
M  V30 1742 C 171.544 1.50835 1.24532 0
M  V30 1743 O 172.75 2.00096 1.83504 0
M  V30 1744 C 171.206 3.59319 -0.20442 0
M  V30 1745 C 170.814 4.18674 -1.59423 0
M  V30 1746 C 172.558 4.23854 0.234079 0
M  V30 1747 C 170.465 5.69045 -1.61065 0
M  V30 1748 H 169.395 0.752367 -0.0495998 0
M  V30 1749 H 172.046 1.65246 -0.797881 0
M  V30 1750 H 170.428 3.92598 0.517946 0
M  V30 1751 H 171.602 3.96921 -2.34074 0
M  V30 1752 H 169.917 3.66453 -1.97741 0
M  V30 1753 H 172.514 5.34155 0.241443 0
M  V30 1754 H 172.857 3.96688 1.2627 0
M  V30 1755 H 173.39 3.95403 -0.436025 0
M  V30 1756 H 170.129 6.00956 -2.61787 0
M  V30 1757 H 169.649 5.929 -0.90718 0
M  V30 1758 H 171.328 6.32809 -1.34766 0
M  V30 1759 N 171.46 0.379036 1.52974 0
M  V30 1760 C 172.41 -0.477772 2.22938 0
M  V30 1761 C 173.394 -1.03792 1.22948 0
M  V30 1762 O 174.586 -0.965725 1.48333 0
M  V30 1763 C 171.715 -1.60994 3.03209 0
M  V30 1764 C 170.801 -1.06203 4.10587 0
M  V30 1765 N 171.192 -0.238214 5.05239 0
M  V30 1766 C 169.49 -1.33554 4.25534 0
M  V30 1767 C 170.191 0.0633235 5.81666 0
M  V30 1768 N 169.167 -0.537901 5.40932 0
M  V30 1769 H 172.969 0.158295 2.93473 0
M  V30 1770 H 170.483 0.187778 1.61311 0
M  V30 1771 H 172.48 -2.23607 3.5186 0
M  V30 1772 H 171.14 -2.24893 2.34207 0
M  V30 1773 H 172.151 0.123695 5.17752 0
M  V30 1774 H 168.828 -1.97632 3.6776 0
M  V30 1775 H 170.218 0.730161 6.67921 0
M  V30 1776 N 172.938 -1.57226 0.108567 0
M  V30 1777 C 173.888 -2.11305 -0.856396 0
M  V30 1778 C 174.872 -1.03129 -1.23504 0
M  V30 1779 O 176.064 -1.29381 -1.20787 0
M  V30 1780 C 173.193 -2.70771 -2.11041 0
M  V30 1781 C 172.279 -3.86011 -1.7566 0
M  V30 1782 N 172.67 -4.93492 -1.10902 0
M  V30 1783 C 170.968 -3.95999 -2.05185 0
M  V30 1784 C 171.669 -5.73984 -0.944308 0
M  V30 1785 N 170.645 -5.2346 -1.46596 0
M  V30 1786 H 174.447 -2.91784 -0.352002 0
M  V30 1787 H 171.961 -1.62126 -0.0942324 0
M  V30 1788 H 173.958 -3.07851 -2.81128 0
M  V30 1789 H 172.618 -1.91751 -2.62034 0
M  V30 1790 H 173.629 -5.1208 -0.774235 0
M  V30 1791 H 170.306 -3.28007 -2.58298 0
M  V30 1792 H 171.696 -6.70479 -0.436813 0
M  V30 1793 N 174.416 0.165178 -1.56732 0
M  V30 1794 C 175.663 0.880807 -1.8234 0
M  V30 1795 C 175.991 1.81977 -0.686621 0
M  V30 1796 O 175.246 1.92971 0.325697 0
M  V30 1797 C 175.545 1.70405 -3.1416 0
M  V30 1798 C 175.211 0.913475 -4.4155 0
M  V30 1799 C 173.873 0.695303 -4.7615 0
M  V30 1800 C 176.225 0.359349 -5.1996 0
M  V30 1801 C 173.553 -0.0879947 -5.86634 0
M  V30 1802 C 175.905 -0.410893 -6.31264 0
M  V30 1803 C 174.569 -0.639808 -6.64427 0
M  V30 1804 H 173.839 0.32231 -0.667231 0
M  V30 1805 H 176.486 0.145402 -1.90947 0
M  V30 1806 H 174.791 2.50903 -3.00923 0
M  V30 1807 H 176.488 2.26091 -3.31186 0
M  V30 1808 H 173.078 1.09357 -4.14414 0
M  V30 1809 H 177.262 0.515228 -4.93618 0
M  V30 1810 H 172.518 -0.27503 -6.10781 0
M  V30 1811 H 176.692 -0.847494 -6.91224 0
M  V30 1812 H 174.319 -1.24864 -7.49875 0
M  V30 1813 N 175.894 1.51508 0.433938 0
M  V30 1814 C 176.804 1.75917 1.5521 0
M  V30 1815 C 177.82 0.643545 1.61662 0
M  V30 1816 O 178.996 0.926183 1.7884 0
M  V30 1817 C 176.061 1.88213 2.91164 0
M  V30 1818 C 175.122 3.12074 2.94802 0
M  V30 1819 C 174.355 3.23774 4.24271 0
M  V30 1820 O 174.578 2.4133 5.16833 0
M  V30 1821 O 173.512 4.16774 4.34262 0
M  V30 1822 H 177.338 2.70777 1.37527 0
M  V30 1823 H 174.923 1.36051 0.617293 0
M  V30 1824 H 176.805 1.98267 3.71845 0
M  V30 1825 H 175.48 0.965413 3.08968 0
M  V30 1826 H 174.387 3.07497 2.13065 0
M  V30 1827 H 175.72 4.03446 2.81943 0
M  V30 1828 N 177.372 -0.689602 1.41712 0
M  V30 1829 C 178.62 -1.4468 1.4111 0
M  V30 1830 C 178.941 -1.94986 0.0232196 0
M  V30 1831 O 178.211 -1.72097 -0.935913 0
M  V30 1832 H 176.791 -0.536847 0.519427 0
M  V30 1833 H 179.453 -0.815825 1.77004 0
M  V30 1834 H 178.549 -2.30706 2.10193 0
M  V30 1835 N 178.85 -1.27639 -0.924453 0
M  V30 1836 C 180.078 -1.16989 -1.70649 0
M  V30 1837 C 180.493 0.272869 -1.86818 0
M  V30 1838 O 179.85 1.18549 -1.38753 0
M  V30 1839 C 179.901 -1.85229 -3.10439 0
M  V30 1840 O 179.622 -3.23868 -2.95028 0
M  V30 1841 C 181.123 -1.80746 -4.04779 0
M  V30 1842 H 178.343 -0.406595 -0.53378 0
M  V30 1843 H 180.887 -1.68569 -1.15778 0
M  V30 1844 H 179.042 -1.37545 -3.6216 0
M  V30 1845 H 179.456 -3.57889 -3.83426 0
M  V30 1846 H 180.93 -2.33101 -5.00368 0
M  V30 1847 H 181.407 -0.777499 -4.32263 0
M  V30 1848 H 182.013 -2.28059 -3.58984 0
M  V30 1849 N 180.328 1.1314 -1.09713 0
M  V30 1850 C 181.258 2.20748 -0.761102 0
M  V30 1851 C 182.239 1.68061 0.262566 0
M  V30 1852 O 183.424 1.93765 0.129977 0
M  V30 1853 C 180.554 3.46812 -0.184054 0
M  V30 1854 C 179.508 4.12606 -1.13757 0
M  V30 1855 C 178.834 5.33031 -0.422083 0
M  V30 1856 C 180.134 4.59603 -2.48118 0
M  V30 1857 H 181.828 2.49113 -1.66082 0
M  V30 1858 H 179.374 1.19734 -0.799987 0
M  V30 1859 H 181.327 4.21353 0.0631215 0
M  V30 1860 H 180.051 3.17851 0.750868 0
M  V30 1861 H 178.71 3.40036 -1.37007 0
M  V30 1862 H 178.358 5.00335 0.517072 0
M  V30 1863 H 178.058 5.77999 -1.05788 0
M  V30 1864 H 179.582 6.10325 -0.183277 0
M  V30 1865 H 180.996 5.25552 -2.29059 0
M  V30 1866 H 179.393 5.15321 -3.07514 0
M  V30 1867 H 180.463 3.73971 -3.08665 0
M  V30 1868 N 181.806 0.884767 1.30421 0
M  V30 1869 C 182.769 0.356277 2.26414 0
M  V30 1870 C 183.769 -0.501124 1.52792 0
M  V30 1871 O 184.959 -0.30831 1.7145 0
M  V30 1872 C 182.091 -0.492316 3.37326 0
M  V30 1873 H 183.284 1.20389 2.74675 0
M  V30 1874 H 180.837 0.661607 1.41607 0
M  V30 1875 H 181.572 -1.36052 2.94381 0
M  V30 1876 H 181.357 0.121832 3.91911 0
M  V30 1877 H 182.847 -0.853871 4.08777 0
M  V30 1878 N 183.284 -1.43765 0.645699 0
M  V30 1879 C 184.7 -1.56509 0.312591 0
M  V30 1880 C 184.9 -1.6307 -1.18365 0
M  V30 1881 O 183.956 -1.58167 -1.96824 0
M  V30 1882 C 185.269 -2.82968 1.01733 0
M  V30 1883 C 186.817 -2.96701 0.996865 0
M  V30 1884 C 187.292 -4.25982 1.68236 0
M  V30 1885 N 188.783 -4.32829 1.64964 0
M  V30 1886 C 189.518 -5.31613 2.14885 0
M  V30 1887 N 189.014 -6.36718 2.73061 0
M  V30 1888 N 190.807 -5.23217 2.05428 0
M  V30 1889 H 182.958 -1.3775 1.61675 0
M  V30 1890 H 185.221 -0.661067 0.679481 0
M  V30 1891 H 184.927 -2.84156 2.0724 0
M  V30 1892 H 184.801 -3.72957 0.564177 0
M  V30 1893 H 187.188 -2.95058 -0.0497719 0
M  V30 1894 H 187.269 -2.08022 1.48865 0
M  V30 1895 H 186.913 -4.28386 2.72852 0
M  V30 1896 H 186.843 -5.13545 1.16529 0
M  V30 1897 H 189.334 -3.57493 1.22503 0
M  V30 1898 H 189.647 -7.08401 3.08848 0
M  V30 1899 H 187.992 -6.37362 2.77118 0
M  V30 1900 H 191.183 -4.40019 1.59689 0
M  V30 1901 H 191.356 -6.00045 2.44643 0
M  V30 1902 N 184.763 -0.387143 -1.52771 0
M  V30 1903 C 186.009 0.196025 -2.0185 0
M  V30 1904 C 186.342 1.46641 -1.27319 0
M  V30 1905 O 185.617 1.90889 -0.373032 0
M  V30 1906 C 185.9 0.466136 -3.5707 0
M  V30 1907 C 185.753 -0.819385 -4.42274 0
M  V30 1908 C 187.072 1.25768 -4.21747 0
M  V30 1909 H 184.191 0.0697708 -0.73369 0
M  V30 1910 H 186.833 -0.516286 -1.82851 0
M  V30 1911 H 184.983 1.07293 -3.7339 0
M  V30 1912 H 186.655 -1.4563 -4.37709 0
M  V30 1913 H 184.898 -1.43517 -4.09372 0
M  V30 1914 H 185.569 -0.585065 -5.48891 0
M  V30 1915 H 188.045 0.744167 -4.09391 0
M  V30 1916 H 186.921 1.41541 -5.30337 0
M  V30 1917 H 187.182 2.27228 -3.79236 0
M  V30 1918 N 186.241 1.57166 -0.116904 0
M  V30 1919 C 187.151 2.18745 0.847812 0
M  V30 1920 C 188.167 1.163 1.29423 0
M  V30 1921 O 189.343 1.48761 1.35765 0
M  V30 1922 C 186.408 2.77307 2.0809 0
M  V30 1923 C 185.469 3.94781 1.68661 0
M  V30 1924 C 184.702 4.50541 2.86091 0
M  V30 1925 O 184.925 4.05202 4.01456 0
M  V30 1926 O 183.859 5.41256 2.63298 0
M  V30 1927 H 187.685 3.01632 0.353778 0
M  V30 1928 H 185.27 1.49005 0.108599 0
M  V30 1929 H 187.152 3.14647 2.80313 0
M  V30 1930 H 185.827 1.97452 2.56504 0
M  V30 1931 H 184.734 3.62214 0.935518 0
M  V30 1932 H 186.067 4.76065 1.24991 0
M  V30 1933 N 187.719 -0.156864 1.56817 0
M  V30 1934 C 188.667 -1.21319 1.98455 0
M  V30 1935 C 189.661 -1.45025 0.875444 0
M  V30 1936 O 190.867 -1.45435 1.0606 0
M  V30 1937 H 187.242 -0.408142 0.631605 0
M  V30 1938 H 189.213 -0.835244 2.86472 0
M  V30 1939 C 187.962 -2.54148 2.37285 0
M  V30 1940 H 187.285 -2.36733 3.22176 0
M  V30 1941 H 188.725 -3.26712 2.70251 0
M  V30 1942 C 187.184 -3.13967 1.22173 0
M  V30 1943 O 187.714 -3.98357 0.517149 0
M  V30 1944 N 185.92 -2.7327 0.988536 0
M  V30 1945 H 185.467 -2.04744 1.56326 0
M  V30 1946 H 185.425 -3.13628 0.220209 0
M  V30 1947 N 189.197 -1.51736 -0.425897 0
M  V30 1948 C 190.127 -1.76827 -1.52494 0
M  V30 1949 C 191.108 -0.618524 -1.58456 0
M  V30 1950 O 192.293 -0.862416 -1.74 0
M  V30 1951 C 189.423 -1.90374 -2.90474 0
M  V30 1952 C 188.377 -3.0588 -2.99369 0
M  V30 1953 C 187.703 -3.04625 -4.3944 0
M  V30 1954 C 189.003 -4.45644 -2.72394 0
M  V30 1955 H 190.697 -2.68855 -1.31748 0
M  V30 1956 H 188.243 -1.29372 -0.632362 0
M  V30 1957 H 190.196 -2.0651 -3.6733 0
M  V30 1958 H 188.92 -0.95004 -3.12477 0
M  V30 1959 H 187.579 -2.89467 -2.24954 0
M  V30 1960 H 187.227 -2.0701 -4.58428 0
M  V30 1961 H 186.927 -3.82195 -4.46319 0
M  V30 1962 H 188.451 -3.22869 -5.18255 0
M  V30 1963 H 189.865 -4.62348 -3.38979 0
M  V30 1964 H 188.262 -5.25006 -2.9067 0
M  V30 1965 H 189.332 -4.54893 -1.67929 0
M  V30 1966 N 190.675 0.682077 -1.42076 0
M  V30 1967 C 191.9 1.47558 -1.45744 0
M  V30 1968 C 192.325 1.87977 -0.0680981 0
M  V30 1969 O 191.683 1.55522 0.9318 0
M  V30 1970 C 191.731 2.70575 -2.38373 0
M  V30 1971 O 190.835 3.68573 -1.85007 0
M  V30 1972 H 190.176 0.443585 -0.494093 0
M  V30 1973 H 192.706 0.837238 -1.86686 0
M  V30 1974 H 192.716 3.18729 -2.54707 0
M  V30 1975 H 191.391 2.40495 -3.39315 0
M  V30 1976 H 189.968 3.2757 -1.78192 0
M  V30 1977 N 192.153 1.28127 0.917671 0
M  V30 1978 C 193.43 1.05761 1.64542 0
M  V30 1979 C 193.81 -0.404344 2.07191 0
M  V30 1980 O 193.158 -1.38963 1.81388 0
M  V30 1981 C 193.368 2.02857 2.83989 0
M  V30 1982 C 194.716 2.32786 3.551 0
M  V30 1983 O 195.74 2.0091 2.94132 0
M  V30 1984 O 194.599 2.87169 4.64969 0
M  V30 1985 H 191.693 0.403916 0.721652 0
M  V30 1986 H 194.239 1.39431 0.967322 0
M  V30 1987 H 193.011 3.01407 2.49538 0
M  V30 1988 H 192.634 1.69809 3.59514 0
M  V30 1989 N 193.631 -1.12557 1.10312 0
M  V30 1990 C 194.856 -1.88405 0.867085 0
M  V30 1991 C 195.281 -1.79038 -0.576817 0
M  V30 1992 O 194.639 -1.14439 -1.40618 0
M  V30 1993 C 194.687 -3.3563 1.31851 0
M  V30 1994 O 193.791 -4.09565 0.482734 0
M  V30 1995 H 193.132 -0.585455 0.313271 0
M  V30 1996 H 195.662 -1.42352 1.4696 0
M  V30 1997 H 195.672 -3.86469 1.3079 0
M  V30 1998 H 194.347 -3.41765 2.37001 0
M  V30 1999 H 192.924 -3.68695 0.558448 0
M  V30 2000 N 195.109 -0.891671 -1.2995 0
M  V30 2001 C 196.337 -0.52866 -2.00032 0
M  V30 2002 C 196.752 0.884574 -1.66795 0
M  V30 2003 O 196.109 1.5827 -0.908669 0
M  V30 2004 C 196.16 -0.701814 -3.54622 0
M  V30 2005 O 195.881 -2.05942 -3.86678 0
M  V30 2006 C 197.382 -0.342683 -4.41973 0
M  V30 2007 H 194.602 -0.203659 -0.639347 0
M  V30 2008 H 197.146 -1.19881 -1.65677 0
M  V30 2009 H 195.301 -0.0789468 -3.8732 0
M  V30 2010 H 195.715 -2.08291 -4.81368 0
M  V30 2011 H 197.189 -0.514709 -5.49595 0
M  V30 2012 H 197.666 0.71975 -4.33262 0
M  V30 2013 H 198.272 -0.942154 -4.14733 0
M  V30 2014 N 196.587 1.43421 -0.653314 0
M  V30 2015 C 197.836 2.01032 -0.164076 0
M  V30 2016 C 198.149 1.52147 1.22926 0
M  V30 2017 O 199.355 2.02031 1.81371 0
M  V30 2018 C 197.811 3.59082 -0.24252 0
M  V30 2019 C 197.419 4.1696 -1.63855 0
M  V30 2020 C 199.163 4.24079 0.18911 0
M  V30 2021 C 197.07 5.67304 -1.67092 0
M  V30 2022 H 196 0.751798 -0.0575769 0
M  V30 2023 H 198.651 1.6439 -0.815362 0
M  V30 2024 H 197.033 3.93125 0.476276 0
M  V30 2025 H 198.207 3.94416 -2.38271 0
M  V30 2026 H 196.522 3.64335 -2.01616 0
M  V30 2027 H 199.119 5.34381 0.184775 0
M  V30 2028 H 199.462 3.98005 1.22056 0
M  V30 2029 H 199.995 3.94918 -0.477938 0
M  V30 2030 H 196.734 5.98145 -2.68146 0
M  V30 2031 H 196.254 5.91904 -0.970014 0
M  V30 2032 H 197.933 6.31344 -1.4147 0
M  V30 2033 N 198.065 0.39524 1.52563 0
M  V30 2034 C 199.293 -0.184943 2.06072 0
M  V30 2035 C 199.708 -1.40021 1.26647 0
M  V30 2036 O 199.065 -1.79767 0.314672 0
M  V30 2037 C 199.116 -0.549179 3.57304 0
M  V30 2038 O 198.837 0.617813 4.33722 0
M  V30 2039 C 200.338 -1.18459 4.2718 0
M  V30 2040 H 197.558 -0.0265025 0.670476 0
M  V30 2041 H 200.102 0.562184 1.96621 0
M  V30 2042 H 198.257 -1.2462 3.66809 0
M  V30 2043 H 198.671 0.317091 5.23541 0
M  V30 2044 H 200.145 -1.38976 5.34219 0
M  V30 2045 H 200.622 -2.15368 3.82771 0
M  V30 2046 H 201.228 -0.528163 4.22008 0
M  V30 2047 N 199.544 -1.57102 0.125237 0
M  V30 2048 C 200.791 -1.95407 -0.531248 0
M  V30 2049 C 201.119 -1.0089 -1.66287 0
M  V30 2050 O 200.374 -0.0339431 -1.95671 0
M  V30 2051 C 200.673 -3.40096 -1.09862 0
M  V30 2052 C 200.339 -4.50815 -0.0876989 0
M  V30 2053 C 199.001 -4.80824 0.19026 0
M  V30 2054 C 201.353 -5.17724 0.600902 0
M  V30 2055 C 198.681 -5.75058 1.163 0
M  V30 2056 C 201.033 -6.13005 1.56231 0
M  V30 2057 C 199.697 -6.41403 1.8482 0
M  V30 2058 H 198.967 -0.715046 -0.194397 0
M  V30 2059 H 201.614 -1.90373 0.207463 0
M  V30 2060 H 199.919 -3.41855 -1.91422 0
M  V30 2061 H 201.616 -3.6705 -1.61478 0
M  V30 2062 H 198.206 -4.27444 -0.314528 0
M  V30 2063 H 202.39 -4.94691 0.399333 0
M  V30 2064 H 197.646 -5.95362 1.39117 0
M  V30 2065 H 201.82 -6.63934 2.10153 0
M  V30 2066 H 199.447 -7.14229 2.60349 0
M  V30 2067 N 201.022 0.148545 -1.56898 0
M  V30 2068 C 202.299 0.890019 -1.74178 0
M  V30 2069 C 202.679 1.99407 -0.692839 0
M  V30 2070 O 202.027 2.26671 0.288505 0
M  V30 2071 C 202.237 1.43389 -3.18183 0
M  V30 2072 C 203.585 1.89791 -3.79822 0
M  V30 2073 O 204.609 1.53134 -3.21603 0
M  V30 2074 O 203.468 2.57387 -4.82093 0
M  V30 2075 H 200.562 0.420496 -0.712118 0
M  V30 2076 H 203.108 0.134591 -1.69165 0
M  V30 2077 H 201.88 0.640383 -3.86024 0
M  V30 2078 H 201.503 2.25287 -3.27615 0
M  V30 2079 N 202.5 1.5196 0.417844 0
M  V30 2080 C 203.749 1.6482 1.16264 0
M  V30 2081 C 204.062 0.379886 1.91876 0
M  V30 2082 O 205.268 0.388154 2.68711 0
M  V30 2083 C 203.724 2.91161 2.1155 0
M  V30 2084 C 203.332 4.25068 1.41495 0
M  V30 2085 C 205.076 3.13383 2.86341 0
M  V30 2086 C 202.983 5.42541 2.35379 0
M  V30 2087 H 201.913 0.613954 0.437694 0
M  V30 2088 H 204.564 1.78442 0.427871 0
M  V30 2089 H 202.946 2.71218 2.88543 0
M  V30 2090 H 204.12 4.55463 0.699263 0
M  V30 2091 H 202.435 4.0888 0.787792 0
M  V30 2092 H 205.032 3.98324 3.5671 0
M  V30 2093 H 205.375 2.27256 3.48798 0
M  V30 2094 H 205.908 3.33757 2.1645 0
M  V30 2095 H 202.647 6.30987 1.77582 0
M  V30 2096 H 202.167 5.16497 3.04945 0
M  V30 2097 H 203.846 5.75272 2.96093 0
M  V30 2098 N 203.978 -0.674533 1.42435 0
M  V30 2099 C 204.91 -1.80005 1.41883 0
M  V30 2100 C 205.923 -1.59667 0.31787 0
M  V30 2101 O 207.112 -1.68781 0.580973 0
M  V30 2102 C 204.212 -3.17114 1.19549 0
M  V30 2103 C 203.385 -3.64299 2.42084 0
M  V30 2104 C 202.444 -4.80142 2.15291 0
M  V30 2105 O 201.47 -4.90673 2.88493 0
M  V30 2106 N 202.672 -5.68869 1.1562 0
M  V30 2107 H 205.437 -1.80964 2.38898 0
M  V30 2108 H 202.998 -0.857633 1.37318 0
M  V30 2109 H 204.99 -3.92267 0.995417 0
M  V30 2110 H 203.56 -3.11053 0.310569 0
M  V30 2111 H 202.78 -2.79822 2.77657 0
M  V30 2112 H 204.068 -3.92567 3.23679 0
M  V30 2113 H 203.466 -5.63012 0.550765 0
M  V30 2114 H 202.023 -6.43833 1.016 0
M  V30 2115 N 205.456 -1.28612 -0.910864 0
M  V30 2116 C 206.386 -1.15326 -2.03032 0
M  V30 2117 C 207.367 -0.0502924 -1.70026 0
M  V30 2118 O 208.552 -0.227797 -1.92859 0
M  V30 2119 C 205.682 -0.817343 -3.37545 0
M  V30 2120 C 204.636 -1.8754 -3.84724 0
M  V30 2121 C 203.962 -1.39305 -5.16235 0
M  V30 2122 C 205.262 -3.28244 -4.06267 0
M  V30 2123 H 206.956 -2.08975 -2.14406 0
M  V30 2124 H 204.502 -1.00612 -1.03021 0
M  V30 2125 H 206.455 -0.711151 -4.15356 0
M  V30 2126 H 205.179 0.154846 -3.26233 0
M  V30 2127 H 203.838 -1.97079 -3.09121 0
M  V30 2128 H 203.486 -0.409846 -5.01328 0
M  V30 2129 H 203.186 -2.10057 -5.48771 0
M  V30 2130 H 204.71 -1.30014 -5.96598 0
M  V30 2131 H 206.124 -3.21611 -4.74594 0
M  V30 2132 H 204.521 -3.96855 -4.5014 0
M  V30 2133 H 205.591 -3.72048 -3.10979 0
M  V30 2134 N 206.934 1.1197 -1.10907 0
M  V30 2135 C 208.211 1.79959 -0.766432 0
M  V30 2136 C 208.591 1.97466 0.746363 0
M  V30 2137 O 207.939 1.55491 1.67436 0
M  V30 2138 C 208.149 3.14009 -1.52314 0
M  V30 2139 C 209.497 3.89134 -1.69883 0
M  V30 2140 O 210.521 3.2368 -1.48692 0
M  V30 2141 O 209.38 5.06572 -2.05054 0
M  V30 2142 H 206.474 0.779208 -0.277062 0
M  V30 2143 H 209.02 1.18762 -1.21217 0
M  V30 2144 H 207.792 2.96587 -2.55249 0
M  V30 2145 H 207.415 3.82915 -1.07059 0
M  V30 2146 N 208.412 0.89855 1.29475 0
M  V30 2147 C 209.689 0.443416 1.90508 0
M  V30 2148 C 210.069 -1.07685 1.81569 0
M  V30 2149 O 209.417 -1.9182 1.24166 0
M  V30 2150 C 209.627 0.956708 3.35631 0
M  V30 2151 C 210.975 0.999728 4.12663 0
M  V30 2152 O 211.999 0.904299 3.4453 0
M  V30 2153 O 210.858 1.14289 5.34416 0
M  V30 2154 H 207.952 0.138025 0.815401 0
M  V30 2155 H 210.498 0.98834 1.37949 0
M  V30 2156 H 209.27 2.00067 3.36287 0
M  V30 2157 H 208.893 0.391728 3.95666 0
M  V30 2158 N 209.89 -1.43072 0.660911 0
M  V30 2159 C 211.138 -2.01323 0.177094 0
M  V30 2160 C 211.459 -1.5245 -1.2159 0
M  V30 2161 O 210.729 -0.740322 -1.81373 0
M  V30 2162 H 209.309 -0.744382 0.0624804 0
M  V30 2163 H 211.971 -1.75179 0.854305 0
M  V30 2164 H 211.067 -3.11649 0.167641 0
M  V30 2165 N 211.368 -0.403325 -1.52352 0
M  V30 2166 C 212.3 0.4603 -2.2453 0
M  V30 2167 C 213.313 1.01505 -1.27282 0
M  V30 2168 O 214.502 0.914982 -1.53266 0
M  V30 2169 C 211.602 1.65208 -2.95905 0
M  V30 2170 C 210.775 1.22224 -4.19976 0
M  V30 2171 C 209.834 2.28028 -4.74226 0
M  V30 2172 O 208.86 1.88857 -5.36956 0
M  V30 2173 N 210.062 3.6012 -4.55295 0
M  V30 2174 H 212.827 -0.158156 -2.99282 0
M  V30 2175 H 210.388 -0.230402 -1.60252 0
M  V30 2176 H 212.38 2.35541 -3.29093 0
M  V30 2177 H 210.95 2.17658 -2.24374 0
M  V30 2178 H 210.17 0.34725 -3.92668 0
M  V30 2179 H 211.458 0.911924 -5.00561 0
M  V30 2180 H 210.856 3.94698 -4.05253 0
M  V30 2181 H 209.413 4.26447 -4.92936 0
M  V30 2182 N 212.846 1.57033 -0.133567 0
M  V30 2183 C 214.257 1.82593 0.389464 0
M  V30 2184 C 214.608 1.05156 1.6564 0
M  V30 2185 O 213.733 0.292644 2.14412 0
M  V30 2186 C 214.328 3.31204 0.713377 0
M  V30 2187 C 212.887 3.57393 1.18098 0
M  V30 2188 C 212.034 2.76598 0.197126 0
M  V30 2189 H 214.985 1.54598 -0.358481 0
M  V30 2190 H 215.006 3.46627 1.56939 0
M  V30 2191 H 214.518 3.87537 -0.2089 0
M  V30 2192 H 212.619 3.06433 2.11966 0
M  V30 2193 H 212.732 4.65915 1.11624 0
M  V30 2194 H 211.096 2.45257 0.687088 0
M  V30 2195 H 211.879 3.35697 -0.718504 0
M  V30 2196 N 214.325 -0.140222 1.56975 0
M  V30 2197 C 215.602 -0.880769 1.74648 0
M  V30 2198 C 215.982 -1.99036 0.703404 0
M  V30 2199 O 215.33 -2.26821 -0.27648 0
M  V30 2200 C 215.54 -1.417 3.18939 0
M  V30 2201 C 216.888 -1.87774 3.80823 0
M  V30 2202 O 217.912 -1.51427 3.2241 0
M  V30 2203 O 216.771 -2.54827 4.83452 0
M  V30 2204 H 213.865 -0.416713 0.714338 0
M  V30 2205 H 216.411 -0.125618 1.69234 0
M  V30 2206 H 215.183 -0.619902 3.86359 0
M  V30 2207 H 214.806 -2.23546 3.28805 0
M  V30 2208 N 215.803 -1.52179 -0.40978 0
M  V30 2209 C 217.052 -1.65434 -1.15388 0
M  V30 2210 C 217.365 -0.390056 -1.91671 0
M  V30 2211 O 218.571 -0.402399 -2.68501 0
M  V30 2212 C 217.027 -2.92279 -2.10003 0
M  V30 2213 C 216.635 -4.25813 -1.39239 0
M  V30 2214 C 218.379 -3.14897 -2.84675 0
M  V30 2215 C 216.286 -5.43782 -2.32498 0
M  V30 2216 H 215.216 -0.616267 -0.434432 0
M  V30 2217 H 217.867 -1.78666 -0.418401 0
M  V30 2218 H 216.249 -2.72744 -2.871 0
M  V30 2219 H 217.423 -4.55828 -0.675099 0
M  V30 2220 H 215.738 -4.09292 -0.766097 0
M  V30 2221 H 218.335 -4.0021 -3.54593 0
M  V30 2222 H 218.678 -2.29103 -3.47588 0
M  V30 2223 H 219.211 -3.34901 -2.14677 0
M  V30 2224 H 215.95 -6.3192 -1.74233 0
M  V30 2225 H 215.47 -5.18106 -3.02201 0
M  V30 2226 H 217.149 -5.76834 -2.93038 0
M  V30 2227 N 217.281 0.66697 -1.42791 0
M  V30 2228 C 218.231 1.77313 -1.43332 0
M  V30 2229 C 219.215 1.5801 -0.303586 0
M  V30 2230 O 220.407 1.68356 -0.546385 0
M  V30 2231 C 217.536 3.15822 -1.34578 0
M  V30 2232 C 216.622 3.40721 -2.52528 0
M  V30 2233 N 217.013 3.36162 -3.77927 0
M  V30 2234 C 215.311 3.71387 -2.46956 0
M  V30 2235 C 216.012 3.60762 -4.56318 0
M  V30 2236 N 214.988 3.81908 -3.86843 0
M  V30 2237 H 218.79 1.72193 -2.38174 0
M  V30 2238 H 216.304 0.868114 -1.3725 0
M  V30 2239 H 218.301 3.951 -1.33048 0
M  V30 2240 H 216.961 3.22133 -0.407453 0
M  V30 2241 H 217.972 3.15885 -4.10411 0
M  V30 2242 H 214.649 3.84897 -1.61743 0
M  V30 2243 H 216.039 3.63132 -5.65318 0
M  V30 2244 N 218.759 1.29093 0.90403 0
M  V30 2245 C 220.006 1.16813 1.65411 0
M  V30 2246 C 220.334 -0.28128 1.92455 0
M  V30 2247 O 219.589 -1.22006 1.53013 0
M  V30 2248 C 219.888 1.92224 3.01305 0
M  V30 2249 C 219.554 3.41968 2.93885 0
M  V30 2250 C 218.216 3.82807 2.91569 0
M  V30 2251 C 220.568 4.37409 2.83413 0
M  V30 2252 C 217.896 5.1741 2.76594 0
M  V30 2253 C 220.248 5.72097 2.69977 0
M  V30 2254 C 218.912 6.12199 2.66024 0
M  V30 2255 H 218.182 0.42745 0.605283 0
M  V30 2256 H 220.829 1.59981 1.05254 0
M  V30 2257 H 219.134 1.41635 3.65304 0
M  V30 2258 H 220.831 1.80131 3.58265 0
M  V30 2259 H 217.421 3.09504 2.96488 0
M  V30 2260 H 221.605 4.06813 2.84283 0
M  V30 2261 H 216.861 5.47596 2.71935 0
M  V30 2262 H 221.035 6.45704 2.60844 0
M  V30 2263 H 218.662 7.16448 2.54178 0
M  V30 2264 N 220.237 -1.11381 1.11499 0
M  V30 2265 C 221.167 -2.19509 0.796125 0
M  V30 2266 C 222.148 -1.68458 -0.235796 0
M  V30 2267 O 223.333 -1.93947 -0.0991344 0
M  V30 2268 C 220.463 -3.46475 0.239205 0
M  V30 2269 C 219.417 -4.10744 1.20307 0
M  V30 2270 C 218.743 -5.32293 0.50683 0
M  V30 2271 C 220.043 -4.55597 2.55399 0
M  V30 2272 H 221.737 -2.46439 1.70024 0
M  V30 2273 H 219.283 -1.18446 0.818935 0
M  V30 2274 H 221.236 -4.214 0.00392006 0
M  V30 2275 H 219.96 -3.19006 -0.700206 0
M  V30 2276 H 218.619 -3.37813 1.42399 0
M  V30 2277 H 218.267 -5.01095 -0.437408 0
M  V30 2278 H 217.967 -5.76243 1.1497 0
M  V30 2279 H 219.491 -6.09956 0.280351 0
M  V30 2280 H 220.905 -5.21841 2.37391 0
M  V30 2281 H 219.302 -5.10363 3.15673 0
M  V30 2282 H 220.372 -3.69013 3.14575 0
M  V30 2283 N 221.715 -0.905404 -1.28997 0
M  V30 2284 C 222.678 -0.392253 -2.25819 0
M  V30 2285 C 223.678 0.476753 -1.5357 0
M  V30 2286 O 224.868 0.280994 -1.71919 0
M  V30 2287 C 222 0.438588 -3.38067 0
M  V30 2288 H 223.193 -1.24743 -2.72725 0
M  V30 2289 H 220.746 -0.684051 -1.40536 0
M  V30 2290 H 221.481 1.31352 -2.96508 0
M  V30 2291 H 221.266 -0.184167 -3.91667 0
M  V30 2292 H 222.756 0.78873 -4.10084 0
M  V30 2293 N 223.193 1.4272 -0.668489 0
M  V30 2294 C 224.441 2.01226 -0.187769 0
M  V30 2295 C 224.762 1.53092 1.2078 0
M  V30 2296 O 224.032 0.74993 1.80977 0
M  V30 2297 H 222.612 0.744041 -0.0664272 0
M  V30 2298 H 225.274 1.74723 -0.863583 0
M  V30 2299 H 224.37 3.11556 -0.184166 0
M  V30 2300 N 224.671 0.411399 1.52136 0
M  V30 2301 C 225.603 -0.448386 2.24771 0
M  V30 2302 C 226.616 -1.00828 1.27818 0
M  V30 2303 O 227.805 -0.906841 1.53749 0
M  V30 2304 C 224.905 -1.63636 2.96777 0
M  V30 2305 C 224.078 -1.19995 4.20618 0
M  V30 2306 C 223.137 -2.25509 4.75428 0
M  V30 2307 O 222.163 -1.86007 5.3795 0
M  V30 2308 N 223.365 -3.577 4.57199 0
M  V30 2309 H 226.13 0.174025 2.99194 0
M  V30 2310 H 223.691 0.238897 1.60128 0
M  V30 2311 H 225.683 -2.33793 3.30338 0
M  V30 2312 H 224.253 -2.16465 2.25526 0
M  V30 2313 H 223.473 -0.326421 3.92846 0
M  V30 2314 H 224.761 -0.885365 5.01038 0
M  V30 2315 H 224.159 -3.92543 4.07341 0
M  V30 2316 H 222.716 -4.23827 4.95191 0
M  V30 2317 N 226.149 -1.5696 0.141893 0
M  V30 2318 C 227.379 -2.00031 -0.516828 0
M  V30 2319 C 227.787 -1.02091 -1.59293 0
M  V30 2320 O 227.13 -0.00909657 -1.83698 0
M  V30 2321 C 227.192 -3.39534 -1.1814 0
M  V30 2322 C 226.856 -4.56313 -0.250513 0
M  V30 2323 C 227.853 -5.17295 0.519839 0
M  V30 2324 C 225.538 -5.02061 -0.154907 0
M  V30 2325 C 227.532 -6.2243 1.3733 0
M  V30 2326 C 225.219 -6.07053 0.702161 0
M  V30 2327 C 226.217 -6.67106 1.46487 0
M  V30 2328 O 225.905 -7.70066 2.30767 0
M  V30 2329 H 225.637 -0.661451 -0.139493 0
M  V30 2330 H 228.191 -2.04086 0.231926 0
M  V30 2331 H 226.421 -3.32302 -1.97769 0
M  V30 2332 H 228.11 -3.66745 -1.73933 0
M  V30 2333 H 228.876 -4.82852 0.45598 0
M  V30 2334 H 224.755 -4.5505 -0.7383 0
M  V30 2335 H 228.299 -6.69233 1.96909 0
M  V30 2336 H 224.196 -6.40923 0.76733 0
M  V30 2337 H 224.964 -7.87264 2.23959 0
M  V30 2338 N 227.627 0.131896 -1.57047 0
M  V30 2339 C 228.873 0.843179 -1.84441 0
M  V30 2340 C 229.206 1.80129 -0.725749 0
M  V30 2341 O 228.481 1.92624 0.269469 0
M  V30 2342 C 228.764 1.60442 -3.22382 0
M  V30 2343 C 228.617 0.666782 -4.4483 0
M  V30 2344 C 229.936 2.56354 -3.5773 0
M  V30 2345 H 227.055 0.305081 -0.670891 0
M  V30 2346 H 229.697 0.107839 -1.89694 0
M  V30 2347 H 227.847 2.23128 -3.18035 0
M  V30 2348 H 229.519 0.0497646 -4.61273 0
M  V30 2349 H 227.762 -0.022609 -4.33794 0
M  V30 2350 H 228.433 1.23579 -5.37989 0
M  V30 2351 H 230.909 2.0378 -3.62785 0
M  V30 2352 H 229.785 3.06657 -4.5525 0
M  V30 2353 H 230.046 3.38419 -2.84473 0
M  V30 2354 N 229.106 1.52395 0.401703 0
M  V30 2355 C 230.054 1.7689 1.51039 0
M  V30 2356 C 231.048 0.636298 1.56996 0
M  V30 2357 O 232.254 0.818507 1.60314 0
M  V30 2358 H 228.629 0.559502 0.502456 0
M  V30 2359 H 230.6 2.69757 1.27568 0
M  V30 2360 C 229.349 1.94331 2.88324 0
M  V30 2361 H 228.672 2.80905 2.84486 0
M  V30 2362 H 230.112 2.15466 3.65172 0
M  V30 2363 C 228.571 0.712396 3.29282 0
M  V30 2364 O 229.101 -0.116218 4.01532 0
M  V30 2365 N 227.307 0.546154 2.85422 0
M  V30 2366 H 226.854 1.22156 2.26794 0
M  V30 2367 H 226.812 -0.276113 3.13185 0
M  V30 2368 N 230.584 -0.659388 1.43143 0
M  V30 2369 C 231.83 -1.42145 1.44647 0
M  V30 2370 C 232.163 -1.9408 0.0681907 0
M  V30 2371 O 231.438 -1.71899 -0.910007 0
M  V30 2372 C 231.721 -2.60735 2.48373 0
M  V30 2373 C 231.574 -2.14332 3.95451 0
M  V30 2374 C 232.893 -3.62951 2.48906 0
M  V30 2375 H 230.012 -0.51552 0.526696 0
M  V30 2376 H 232.654 -0.748069 1.74654 0
M  V30 2377 H 230.804 -3.18184 2.22916 0
M  V30 2378 H 232.476 -1.61932 4.31944 0
M  V30 2379 H 230.719 -1.4576 4.08578 0
M  V30 2380 H 231.39 -2.99583 4.63631 0
M  V30 2381 H 233.866 -3.1525 2.71582 0
M  V30 2382 H 232.742 -4.43487 3.23435 0
M  V30 2383 H 233.003 -4.15126 1.52061 0
M  V30 2384 N 232.062 -1.29571 -0.897171 0
M  V30 2385 C 233.29 -1.20583 -1.68129 0
M  V30 2386 C 233.705 0.233181 -1.87354 0
M  V30 2387 O 233.062 1.15579 -1.41236 0
M  V30 2388 C 233.113 -1.91772 -3.06441 0
M  V30 2389 O 232.834 -3.30053 -2.88091 0
M  V30 2390 C 234.335 -1.89291 -4.00854 0
M  V30 2391 H 231.555 -0.417826 -0.525036 0
M  V30 2392 H 234.099 -1.70987 -1.12177 0
M  V30 2393 H 232.254 -1.45196 -3.59161 0
M  V30 2394 H 232.668 -3.65942 -3.75748 0
M  V30 2395 H 234.142 -2.43662 -4.95311 0
M  V30 2396 H 234.619 -0.869014 -4.30517 0
M  V30 2397 H 235.225 -2.35622 -3.54066 0
M  V30 2398 N 233.54 1.10788 -1.12088 0
M  V30 2399 C 234.47 2.19083 -0.807755 0
M  V30 2400 C 235.451 1.6858 0.226859 0
M  V30 2401 O 236.636 1.93997 0.0888475 0
M  V30 2402 C 233.766 3.46344 -0.257576 0
M  V30 2403 C 232.72 4.101 -1.22483 0
M  V30 2404 C 232.046 5.32016 -0.535052 0
M  V30 2405 C 233.346 4.54236 -2.57811 0
M  V30 2406 H 235.04 2.45534 -1.71328 0
M  V30 2407 H 232.586 1.1801 -0.825205 0
M  V30 2408 H 234.539 4.21392 -0.0262679 0
M  V30 2409 H 233.263 3.19373 0.683278 0
M  V30 2410 H 231.922 3.37054 -1.44189 0
M  V30 2411 H 231.57 5.01319 0.410827 0
M  V30 2412 H 231.27 5.75625 -1.18024 0
M  V30 2413 H 232.794 6.09799 -0.312695 0
M  V30 2414 H 234.208 5.20575 -2.40155 0
M  V30 2415 H 232.605 5.08682 -3.18375 0
M  V30 2416 H 233.675 3.6734 -3.16528 0
M  V30 2417 N 235.018 0.912232 1.28515 0
M  V30 2418 C 236.429 0.591352 1.77087 0
M  V30 2419 C 236.78 -0.8933 1.74684 0
M  V30 2420 O 235.905 -1.69876 1.34056 0
M  V30 2421 C 236.5 1.06668 3.2157 0
M  V30 2422 C 235.059 0.79675 3.67871 0
M  V30 2423 C 234.206 1.23427 2.48316 0
M  V30 2424 H 237.157 1.09365 1.15 0
M  V30 2425 H 237.178 0.407455 3.78312 0
M  V30 2426 H 236.69 2.14726 3.23287 0
M  V30 2427 H 234.791 -0.270679 3.71616 0
M  V30 2428 H 234.904 1.40343 4.58084 0
M  V30 2429 H 233.268 0.653036 2.46186 0
M  V30 2430 H 234.051 2.32316 2.52753 0
M  V30 2431 N 236.496 -1.42363 0.676048 0
M  V30 2432 C 237.744 -2.01123 0.198437 0
M  V30 2433 C 238.065 -1.53731 -1.19966 0
M  V30 2434 O 237.335 -0.759518 -1.80577 0
M  V30 2435 H 235.915 -0.743678 0.0703721 0
M  V30 2436 H 238.577 -1.74263 0.872837 0
M  V30 2437 H 237.673 -3.11454 0.200686 0
M  V30 2438 N 237.974 -0.419461 -1.51915 0
M  V30 2439 C 239.202 0.152136 -2.0634 0
M  V30 2440 C 239.617 1.37988 -1.28859 0
M  V30 2441 O 238.974 1.79243 -0.343232 0
M  V30 2442 C 239.025 0.492266 -3.58133 0
M  V30 2443 O 238.746 -0.686736 -4.32684 0
M  V30 2444 C 240.247 1.11648 -4.2901 0
M  V30 2445 H 237.467 0.0158325 -0.670813 0
M  V30 2446 H 240.011 -0.593394 -1.95702 0
M  V30 2447 H 238.166 1.18769 -3.68745 0
M  V30 2448 H 238.58 -0.400341 -5.2297 0
M  V30 2449 H 240.054 1.3046 -5.36362 0
M  V30 2450 H 240.531 2.09251 -3.86148 0
M  V30 2451 H 241.137 0.460958 -4.22795 0
M  V30 2452 N 239.452 1.56882 -0.150215 0
M  V30 2453 C 240.68 2.00593 0.506948 0
M  V30 2454 C 241.095 1.03033 1.58208 0
M  V30 2455 O 240.452 0.0278396 1.82479 0
M  V30 2456 C 240.503 3.44209 1.10465 0
M  V30 2457 O 240.224 4.3804 0.0724636 0
M  V30 2458 C 241.725 4.03214 1.84211 0
M  V30 2459 H 238.945 0.65795 0.13169 0
M  V30 2460 H 241.489 2.03018 -0.245743 0
M  V30 2461 H 239.644 3.42625 1.80795 0
M  V30 2462 H 240.058 5.22007 0.510793 0
M  V30 2463 H 241.532 5.0569 2.21318 0
M  V30 2464 H 242.009 3.44107 2.72923 0
M  V30 2465 H 242.615 4.08437 1.18572 0
M  V30 2466 N 240.93 -0.123565 1.57115 0
M  V30 2467 C 241.84 -1.17074 2.033 0
M  V30 2468 C 242.856 -1.4561 0.952559 0
M  V30 2469 O 244.032 -1.56817 1.26374 0
M  V30 2470 C 241.097 -2.47857 2.42421 0
M  V30 2471 C 240.158 -2.26758 3.64526 0
M  V30 2472 C 239.391 -3.51305 4.01771 0
M  V30 2473 O 239.614 -4.5843 3.39409 0
M  V30 2474 O 238.548 -3.42578 4.94898 0
M  V30 2475 H 242.374 -0.808555 2.92739 0
M  V30 2476 H 239.959 -0.334027 1.45618 0
M  V30 2477 H 241.841 -3.2492 2.68338 0
M  V30 2478 H 240.516 -2.83558 1.5613 0
M  V30 2479 H 239.423 -1.47569 3.43765 0
M  V30 2480 H 240.756 -1.95963 4.51508 0
M  V30 2481 N 242.408 -1.52605 -0.393616 0
M  V30 2482 C 243.636 -1.71294 -1.16043 0
M  V30 2483 C 244.051 -0.429259 -1.83855 0
M  V30 2484 O 243.408 0.595921 -1.72496 0
M  V30 2485 C 243.459 -2.8593 -2.21193 0
M  V30 2486 O 243.18 -4.09329 -1.56146 0
M  V30 2487 C 244.681 -3.16259 -3.10636 0
M  V30 2488 H 241.901 -0.573641 -0.348104 0
M  V30 2489 H 244.445 -1.99234 -0.461092 0
M  V30 2490 H 242.6 -2.60465 -2.86769 0
M  V30 2491 H 243.014 -4.73323 -2.25978 0
M  V30 2492 H 244.488 -3.99946 -3.80456 0
M  V30 2493 H 244.965 -2.3045 -3.73884 0
M  V30 2494 H 245.571 -3.43547 -2.50711 0
M  V30 2495 N 243.887 0.651787 -1.4349 0
M  V30 2496 C 245.303 0.96762 -1.26922 0
M  V30 2497 C 245.503 2.00602 -0.189982 0
M  V30 2498 O 244.559 2.48793 0.431107 0
M  V30 2499 C 245.872 1.45052 -2.63401 0
M  V30 2500 C 247.42 1.5671 -2.70945 0
M  V30 2501 C 247.895 2.0839 -4.07845 0
M  V30 2502 N 249.386 2.1569 -4.09917 0
M  V30 2503 C 250.121 2.56804 -5.12679 0
M  V30 2504 N 249.617 2.97203 -6.25813 0
M  V30 2505 N 251.41 2.56756 -5.00033 0
M  V30 2506 H 243.561 -0.0353158 -2.12371 0
M  V30 2507 H 245.824 0.0467858 -0.946845 0
M  V30 2508 H 245.53 0.761926 -3.43348 0
M  V30 2509 H 245.404 2.42529 -2.88894 0
M  V30 2510 H 247.791 2.2467 -1.9133 0
M  V30 2511 H 247.872 0.57662 -2.49216 0
M  V30 2512 H 247.516 1.41031 -4.87927 0
M  V30 2513 H 247.446 3.08271 -4.26938 0
M  V30 2514 H 249.937 1.87237 -3.28254 0
M  V30 2515 H 250.25 3.27328 -7.00055 0
M  V30 2516 H 248.595 2.95004 -6.29283 0
M  V30 2517 H 251.786 2.24572 -4.10713 0
M  V30 2518 H 251.959 2.88475 -5.80247 0
M  V30 2519 N 245.365 1.30045 0.890287 0
M  V30 2520 C 246.59 1.21598 1.68014 0
M  V30 2521 C 247.015 -0.218678 1.86825 0
M  V30 2522 O 246.373 -1.15756 1.39536 0
M  V30 2523 C 246.421 1.94434 3.03691 0
M  V30 2524 O 245.525 1.2678 3.92429 0
M  V30 2525 H 244.866 0.420856 0.513592 0
M  V30 2526 H 247.396 1.71775 1.11151 0
M  V30 2527 H 247.406 2.03251 3.5377 0
M  V30 2528 H 246.081 2.98777 2.89318 0
M  V30 2529 H 244.658 1.26282 3.50866 0
M  V30 2530 N 246.843 -1.10192 1.12674 0
M  V30 2531 C 248.073 -1.85713 0.905213 0
M  V30 2532 C 248.481 -1.81056 -0.549108 0
M  V30 2533 O 247.824 -1.19927 -1.39151 0
M  V30 2534 C 247.886 -3.34972 1.30516 0
M  V30 2535 C 247.55 -3.63385 2.77129 0
M  V30 2536 C 248.547 -3.59772 3.75313 0
M  V30 2537 C 246.232 -3.91981 3.14096 0
M  V30 2538 C 248.226 -3.84354 5.08479 0
M  V30 2539 C 245.913 -4.16218 4.47443 0
M  V30 2540 C 246.911 -4.12395 5.44444 0
M  V30 2541 O 246.599 -4.36014 6.75387 0
M  V30 2542 H 246.331 -0.593719 0.323223 0
M  V30 2543 H 248.885 -1.40198 1.50112 0
M  V30 2544 H 247.115 -3.81156 0.652463 0
M  V30 2545 H 248.804 -3.91886 1.05736 0
M  V30 2546 H 249.57 -3.37716 3.48099 0
M  V30 2547 H 245.449 -3.94085 2.39202 0
M  V30 2548 H 248.993 -3.81285 5.84181 0
M  V30 2549 H 244.89 -4.37754 4.74386 0
M  V30 2550 H 245.658 -4.53516 6.8137 0
M  V30 2551 N 248.321 -0.919034 -1.28029 0
M  V30 2552 C 249.546 -0.570357 -1.99403 0
M  V30 2553 C 249.971 0.842486 -1.68178 0
M  V30 2554 O 249.329 1.56391 -0.917141 0
M  V30 2555 C 249.377 -0.792541 -3.51783 0
M  V30 2556 O 248.481 0.145988 -4.12142 0
M  V30 2557 H 247.822 -0.220555 -0.6263 0
M  V30 2558 H 250.352 -1.23592 -1.63053 0
M  V30 2559 H 250.362 -0.704708 -4.01868 0
M  V30 2560 H 249.037 -1.82247 -3.73844 0
M  V30 2561 H 247.614 0.00897528 -3.72899 0
M  V30 2562 N 249.799 1.42003 -0.683588 0
M  V30 2563 C 251.046 2.01413 -0.209514 0
M  V30 2564 C 251.374 1.54088 1.1869 0
M  V30 2565 O 250.629 0.737591 1.81268 0
M  V30 2566 C 250.928 3.56827 -0.202357 0
M  V30 2567 C 250.594 4.23617 -1.54464 0
M  V30 2568 C 249.256 4.41577 -1.91215 0
M  V30 2569 C 251.608 4.61178 -2.42826 0
M  V30 2570 C 248.936 4.9437 -3.15935 0
M  V30 2571 C 251.288 5.15355 -3.66867 0
M  V30 2572 C 249.952 5.31528 -4.03776 0
M  V30 2573 H 249.222 0.737023 -0.0766668 0
M  V30 2574 H 251.869 1.70067 -0.880312 0
M  V30 2575 H 250.174 3.87892 0.551969 0
M  V30 2576 H 251.871 4.00588 0.181793 0
M  V30 2577 H 248.461 4.10004 -1.24877 0
M  V30 2578 H 252.645 4.46968 -2.15717 0
M  V30 2579 H 247.901 5.05076 -3.44541 0
M  V30 2580 H 252.075 5.43402 -4.35531 0
M  V30 2581 H 249.702 5.72199 -5.00492 0
M  V30 2582 N 251.277 0.427512 1.51691 0
M  V30 2583 C 252.502 -0.143601 2.06902 0
M  V30 2584 C 252.927 -1.36536 1.29382 0
M  V30 2585 O 252.285 -1.78289 0.329043 0
M  V30 2586 C 252.333 -0.454207 3.57728 0
M  V30 2587 O 251.437 -1.54228 3.82475 0
M  V30 2588 H 250.778 -0.00617128 0.663971 0
M  V30 2589 H 253.308 0.606014 1.95419 0
M  V30 2590 H 253.318 -0.707525 4.01818 0
M  V30 2591 H 251.993 0.438812 4.13579 0
M  V30 2592 H 250.57 -1.2797 3.50254 0
M  V30 2593 N 252.755 -1.56801 0.158532 0
M  V30 2594 C 253.98 -2.01295 -0.499516 0
M  V30 2595 C 254.405 -1.03799 -1.56867 0
M  V30 2596 O 253.763 -0.0155162 -1.81293 0
M  V30 2597 C 253.811 -3.44469 -1.06647 0
M  V30 2598 O 252.915 -3.50012 -2.18095 0
M  V30 2599 H 252.256 -0.652884 -0.12099 0
M  V30 2600 H 254.786 -2.02958 0.258661 0
M  V30 2601 H 254.796 -3.8351 -1.39227 0
M  V30 2602 H 253.471 -4.14932 -0.283581 0
M  V30 2603 H 252.048 -3.22822 -1.86656 0
M  V30 2604 N 254.233 0.115231 -1.57178 0
M  V30 2605 C 255.165 1.16694 -1.97269 0
M  V30 2606 C 256.178 1.37445 -0.872502 0
M  V30 2607 O 257.367 1.36454 -1.15077 0
M  V30 2608 C 254.467 2.52627 -2.25905 0
M  V30 2609 C 253.64 2.52427 -3.57211 0
M  V30 2610 C 252.699 3.70134 -3.74016 0
M  V30 2611 O 251.725 3.53546 -4.46087 0
M  V30 2612 N 252.927 4.88844 -3.13068 0
M  V30 2613 H 255.692 0.82588 -2.88096 0
M  V30 2614 H 253.253 0.304461 -1.59011 0
M  V30 2615 H 255.245 3.29937 -2.34359 0
M  V30 2616 H 253.815 2.789 -1.41186 0
M  V30 2617 H 253.035 1.60805 -3.5991 0
M  V30 2618 H 254.323 2.49353 -4.43509 0
M  V30 2619 H 253.721 5.05225 -2.54489 0
M  V30 2620 H 252.278 5.63817 -3.27037 0
M  V30 2621 N 255.711 1.52812 0.385517 0
M  V30 2622 C 257.122 1.5993 0.963293 0
M  V30 2623 C 257.473 0.454302 1.90868 0
M  V30 2624 O 256.598 -0.422132 2.12243 0
M  V30 2625 C 257.193 2.89871 1.75387 0
M  V30 2626 C 255.752 2.99389 2.28129 0
M  V30 2627 C 254.899 2.55071 1.08783 0
M  V30 2628 H 257.85 1.5784 0.164948 0
M  V30 2629 H 257.871 2.76553 2.61341 0
M  V30 2630 H 257.383 3.73186 1.06554 0
M  V30 2631 H 255.484 2.20619 3.00263 0
M  V30 2632 H 255.597 4.04096 2.57377 0
M  V30 2633 H 253.961 2.09473 1.4489 0
M  V30 2634 H 254.744 3.40785 0.414807 0
M  V30 2635 N 257.189 -0.644168 1.43834 0
M  V30 2636 C 258.437 -1.40117 1.45642 0
M  V30 2637 C 258.758 -1.94814 0.0852413 0
M  V30 2638 O 258.028 -1.74988 -0.880688 0
M  V30 2639 H 256.608 -0.52005 0.536243 0
M  V30 2640 H 259.27 -0.7591 1.7951 0
M  V30 2641 H 258.366 -2.23902 2.17427 0
M  V30 2642 N 258.668 -1.30515 -0.883378 0
M  V30 2643 C 259.616 -1.16941 -2.01066 0
M  V30 2644 C 260.61 -0.0809148 -1.69207 0
M  V30 2645 O 261.816 -0.241877 -1.78367 0
M  V30 2646 H 258.191 -0.361705 -0.659298 0
M  V30 2647 H 260.162 -2.12344 -2.09649 0
M  V30 2648 C 258.911 -0.879694 -3.36388 0
M  V30 2649 H 258.234 -1.70936 -3.61415 0
M  V30 2650 H 259.674 -0.82483 -4.159 0
M  V30 2651 C 258.133 0.417409 -3.34304 0
M  V30 2652 O 258.663 1.43843 -3.75063 0
M  V30 2653 N 256.869 0.429141 -2.87414 0
M  V30 2654 H 256.416 -0.402222 -2.5444 0
M  V30 2655 H 256.374 1.29696 -2.86403 0
M  V30 2656 N 260.146 1.09593 -1.13257 0
M  V30 2657 C 261.562 1.33775 -0.870423 0
M  V30 2658 C 261.762 1.95327 0.494926 0
M  V30 2659 O 260.818 2.19853 1.2418 0
M  V30 2660 C 262.131 2.25106 -1.99369 0
M  V30 2661 C 263.679 2.3862 -2.02558 0
M  V30 2662 C 264.154 3.33285 -3.14142 0
M  V30 2663 N 265.645 3.40857 -3.13641 0
M  V30 2664 C 266.38 4.14101 -3.96621 0
M  V30 2665 N 265.876 4.90157 -4.8961 0
M  V30 2666 N 267.669 4.09808 -3.84726 0
M  V30 2667 H 259.82 0.680136 -2.01216 0
M  V30 2668 H 262.083 0.362133 -0.876107 0
M  V30 2669 H 261.789 1.87103 -2.97801 0
M  V30 2670 H 261.663 3.25481 -1.90635 0
M  V30 2671 H 264.05 2.75887 -1.0474 0
M  V30 2672 H 264.131 1.38028 -2.15364 0
M  V30 2673 H 263.775 2.96741 -4.12198 0
M  V30 2674 H 263.705 4.33776 -2.98574 0
M  V30 2675 H 266.196 2.86624 -2.46282 0
M  V30 2676 H 266.509 5.4347 -5.49418 0
M  V30 2677 H 264.854 4.89251 -4.93617 0
M  V30 2678 H 268.045 3.4949 -3.11408 0
M  V30 2679 H 268.218 4.66629 -4.49623 0
M  V30 2680 N 261.624 0.925811 1.2754 0
M  V30 2681 C 262.554 0.440748 2.29303 0
M  V30 2682 C 263.535 -0.497971 1.62648 0
M  V30 2683 O 264.72 -0.403126 1.8997 0
M  V30 2684 C 261.85 -0.309048 3.45922 0
M  V30 2685 C 260.804 0.54166 4.24559 0
M  V30 2686 C 260.13 -0.337191 5.33636 0
M  V30 2687 C 261.43 1.80516 4.90114 0
M  V30 2688 H 263.124 1.29121 2.70126 0
M  V30 2689 H 260.67 0.622323 1.29858 0
M  V30 2690 H 262.623 -0.659315 4.1621 0
M  V30 2691 H 261.347 -1.19352 3.04011 0
M  V30 2692 H 260.006 0.874609 3.56014 0
M  V30 2693 H 259.654 -1.22056 4.87966 0
M  V30 2694 H 259.354 0.228497 5.87156 0
M  V30 2695 H 260.878 -0.683072 6.06767 0
M  V30 2696 H 262.292 1.52307 5.52698 0
M  V30 2697 H 260.689 2.3142 5.53683 0
M  V30 2698 H 261.759 2.52581 4.13921 0
M  V30 2699 N 263.102 -1.41638 0.69111 0
M  V30 2700 C 264.33 -2.05628 0.22909 0
M  V30 2701 C 264.745 -1.51992 -1.11999 0
M  V30 2702 O 264.102 -0.666322 -1.69901 0
M  V30 2703 C 264.153 -3.61084 0.173283 0
M  V30 2704 O 263.874 -4.12735 1.46907 0
M  V30 2705 C 265.375 -4.42213 -0.310266 0
M  V30 2706 H 262.595 -0.662327 0.107534 0
M  V30 2707 H 265.139 -1.81489 0.942438 0
M  V30 2708 H 263.294 -3.84278 -0.490858 0
M  V30 2709 H 263.708 -5.06743 1.35322 0
M  V30 2710 H 265.182 -5.51194 -0.298196 0
M  V30 2711 H 265.659 -4.1799 -1.34838 0
M  V30 2712 H 266.265 -4.24074 0.322716 0
M  V30 2713 N 264.58 -0.43555 -1.51462 0
M  V30 2714 C 265.828 0.131254 -2.01673 0
M  V30 2715 C 266.149 1.43368 -1.32177 0
M  V30 2716 O 265.419 1.90524 -0.455769 0
M  V30 2717 H 263.999 0.0514954 -0.745223 0
M  V30 2718 H 266.661 -0.577847 -1.86137 0
M  V30 2719 H 265.757 0.308446 -3.10572 0
M  V30 2720 N 266.058 1.56714 -0.166846 0
M  V30 2721 C 267.305 1.96747 0.479252 0
M  V30 2722 C 267.633 1.05263 1.63554 0
M  V30 2723 O 266.888 0.0858098 1.95512 0
M  V30 2724 C 267.187 3.42889 1.00806 0
M  V30 2725 C 266.853 4.50889 -0.0318574 0
M  V30 2726 C 265.515 4.8015 -0.317675 0
M  V30 2727 C 267.867 5.15949 -0.737956 0
M  V30 2728 C 265.195 5.71772 -1.31506 0
M  V30 2729 C 267.547 6.08647 -1.72429 0
M  V30 2730 C 266.211 6.36277 -2.0176 0
M  V30 2731 H 265.481 0.719949 0.175371 0
M  V30 2732 H 268.128 1.89756 -0.257864 0
M  V30 2733 H 266.433 3.4681 1.82291 0
M  V30 2734 H 268.13 3.71203 1.51689 0
M  V30 2735 H 264.72 4.28128 0.201088 0
M  V30 2736 H 268.904 4.93458 -0.530351 0
M  V30 2737 H 264.16 5.91465 -1.54853 0
M  V30 2738 H 268.334 6.58129 -2.27682 0
M  V30 2739 H 265.961 7.07075 -2.79194 0
M  V30 2740 N 267.536 -0.106894 1.57237 0
M  V30 2741 C 268.782 -0.81373 1.85759 0
M  V30 2742 C 269.115 -1.78952 0.754315 0
M  V30 2743 O 268.39 -1.93029 -0.23879 0
M  V30 2744 C 268.673 -1.55293 3.24894 0
M  V30 2745 C 268.526 -0.595929 4.45835 0
M  V30 2746 C 269.845 -2.5063 3.61763 0
M  V30 2747 H 266.964 -0.294369 0.67566 0
M  V30 2748 H 269.606 -0.0776472 1.89841 0
M  V30 2749 H 267.756 -2.1804 3.21544 0
M  V30 2750 H 269.428 0.0236262 4.61294 0
M  V30 2751 H 267.671 0.0916191 4.33703 0
M  V30 2752 H 268.342 -1.15004 5.39887 0
M  V30 2753 H 270.818 -1.97982 3.65981 0
M  V30 2754 H 269.694 -2.99376 4.60071 0
M  V30 2755 H 269.955 -3.3385 2.89821 0
M  V30 2756 N 269.014 -1.53014 -0.377408 0
M  V30 2757 C 270.26 -1.68872 -1.12294 0
M  V30 2758 C 270.593 -0.433224 -1.89306 0
M  V30 2759 O 269.868 0.569258 -1.85983 0
M  V30 2760 C 270.151 -2.93115 -2.09179 0
M  V30 2761 C 270.004 -4.28794 -1.35853 0
M  V30 2762 C 271.323 -3.12928 -3.09458 0
M  V30 2763 H 268.442 -0.614518 -0.406862 0
M  V30 2764 H 271.084 -1.85633 -0.40503 0
M  V30 2765 H 269.234 -2.78956 -2.70399 0
M  V30 2766 H 270.906 -4.54742 -0.775082 0
M  V30 2767 H 269.149 -4.28744 -0.660364 0
M  V30 2768 H 269.82 -5.11837 -2.06706 0
M  V30 2769 H 272.296 -3.26194 -2.58334 0
M  V30 2770 H 271.172 -4.01316 -3.74482 0
M  V30 2771 H 271.433 -2.27669 -3.78971 0
M  V30 2772 N 270.492 0.636531 -1.44174 0
M  V30 2773 C 271.908 0.954104 -1.27941 0
M  V30 2774 C 272.108 2.0039 -0.211248 0
M  V30 2775 O 271.164 2.49236 0.404695 0
M  V30 2776 C 272.477 1.4225 -2.64925 0
M  V30 2777 C 274.025 1.53827 -2.72592 0
M  V30 2778 C 274.5 2.04053 -4.10032 0
M  V30 2779 N 275.991 2.11331 -4.12182 0
M  V30 2780 C 276.726 2.51352 -5.15374 0
M  V30 2781 N 276.222 2.90549 -6.2893 0
M  V30 2782 N 278.015 2.51438 -5.02728 0
M  V30 2783 H 270.166 -0.0578386 -2.12321 0
M  V30 2784 H 272.429 0.0367406 -0.947288 0
M  V30 2785 H 272.135 0.725466 -3.44136 0
M  V30 2786 H 272.009 2.39451 -2.9145 0
M  V30 2787 H 274.396 2.22628 -1.93702 0
M  V30 2788 H 274.477 0.550154 -2.49814 0
M  V30 2789 H 274.121 1.35848 -4.89395 0
M  V30 2790 H 274.051 3.03726 -4.30184 0
M  V30 2791 H 276.542 1.83745 -3.30222 0
M  V30 2792 H 276.855 3.19884 -7.03487 0
M  V30 2793 H 275.2 2.88313 -6.32377 0
M  V30 2794 H 278.391 2.20203 -4.13072 0
M  V30 2795 H 278.564 2.82304 -5.83274 0
M  V30 2796 N 271.97 1.30982 0.876444 0
M  V30 2797 C 272.918 1.18006 2.00443 0
M  V30 2798 C 273.912 0.0898871 1.69161 0
M  V30 2799 O 275.118 0.251333 1.78237 0
M  V30 2800 H 271.493 0.365196 0.65737 0
M  V30 2801 H 273.464 2.13453 2.0852 0
M  V30 2802 C 272.213 0.897521 3.35916 0
M  V30 2803 H 271.536 1.7285 3.60504 0
M  V30 2804 H 272.976 0.846874 4.15456 0
M  V30 2805 C 271.435 -0.399674 3.34521 0
M  V30 2806 O 271.965 -1.41852 3.7582 0
M  V30 2807 N 270.171 -0.413893 2.87637 0
M  V30 2808 H 269.718 0.41571 2.54224 0
M  V30 2809 H 269.676 -1.28175 2.87086 0
M  V30 2810 N 273.449 -1.08991 1.13837 0
M  V30 2811 C 274.695 -1.81526 0.90422 0
M  V30 2812 C 275.028 -1.85706 -0.568066 0
M  V30 2813 O 274.303 -1.32855 -1.42056 0
M  V30 2814 C 274.586 -3.27447 1.49835 0
M  V30 2815 C 274.439 -3.31512 3.04006 0
M  V30 2816 C 275.758 -4.24256 1.17025 0
M  V30 2817 H 272.877 -0.659029 0.329923 0
M  V30 2818 H 275.519 -1.27644 1.40737 0
M  V30 2819 H 273.669 -3.73462 1.07044 0
M  V30 2820 H 275.341 -2.93867 3.55584 0
M  V30 2821 H 273.584 -2.70963 3.38765 0
M  V30 2822 H 274.255 -4.34329 3.40679 0
M  V30 2823 H 276.731 -3.86549 1.54009 0
M  V30 2824 H 275.607 -5.24684 1.61237 0
M  V30 2825 H 275.868 -4.42019 0.0846274 0
M  V30 2826 N 274.927 -0.932562 -1.27047 0
M  V30 2827 C 276.338 -0.619451 -1.76124 0
M  V30 2828 C 276.689 0.865397 -1.76083 0
M  V30 2829 O 275.814 1.67722 -1.36742 0
M  V30 2830 C 276.409 -1.11771 -3.19832 0
M  V30 2831 C 274.968 -0.855174 -3.66557 0
M  V30 2832 C 274.115 -1.27362 -2.46321 0
M  V30 2833 H 277.066 -1.11181 -1.13245 0
M  V30 2834 H 277.087 -0.46759 -3.77616 0
M  V30 2835 H 276.599 -2.19842 -3.1983 0
M  V30 2836 H 274.7 0.211524 -3.71999 0
M  V30 2837 H 274.813 -1.47613 -4.55793 0
M  V30 2838 H 273.177 -0.692119 -2.45116 0
M  V30 2839 H 273.96 -2.36307 -2.49025 0
M  V30 2840 N 276.405 1.4127 -0.698611 0
M  V30 2841 C 277.337 2.292 0.00399731 0
M  V30 2842 C 278.35 1.44944 0.741279 0
M  V30 2843 O 279.539 1.68416 0.591477 0
M  V30 2844 C 276.639 3.22875 1.02979 0
M  V30 2845 C 275.812 4.35904 0.36151 0
M  V30 2846 C 274.871 5.10134 1.29033 0
M  V30 2847 O 273.897 5.63809 0.781562 0
M  V30 2848 N 275.099 5.17885 2.6225 0
M  V30 2849 H 277.864 2.9014 -0.750921 0
M  V30 2850 H 275.425 1.52455 -0.544882 0
M  V30 2851 H 277.417 3.69404 1.65296 0
M  V30 2852 H 275.987 2.63221 1.68622 0
M  V30 2853 H 275.207 3.91719 -0.441584 0
M  V30 2854 H 276.495 5.08696 -0.103055 0
M  V30 2855 H 275.893 4.7573 3.061 0
M  V30 2856 H 274.45 5.6798 3.19754 0
M  V30 2857 N 277.883 0.443576 1.51229 0
M  V30 2858 C 279.131 -0.120557 2.0174 0
M  V30 2859 C 279.452 -1.42665 1.32935 0
M  V30 2860 O 278.722 -1.9028 0.465866 0
M  V30 2861 H 277.302 -0.0475426 0.745486 0
M  V30 2862 H 279.964 0.587711 1.85828 0
M  V30 2863 H 279.06 -0.291972 3.10731 0
M  V30 2864 N 279.361 -1.56624 0.175154 0
M  V30 2865 C 280.308 -2.18149 -0.753634 0
M  V30 2866 C 281.278 -1.12265 -1.22417 0
M  V30 2867 O 282.463 -1.40432 -1.29165 0
M  V30 2868 C 279.603 -2.82933 -1.97592 0
M  V30 2869 C 278.716 -4.03289 -1.5486 0
M  V30 2870 C 277.851 -4.55988 -2.72485 0
M  V30 2871 C 276.89 -5.68746 -2.26262 0
M  V30 2872 N 276.027 -6.15938 -3.36994 0
M  V30 2873 H 280.867 -2.9717 -0.222195 0
M  V30 2874 H 278.404 -1.46774 -0.0979422 0
M  V30 2875 H 280.362 -3.18653 -2.69288 0
M  V30 2876 H 278.992 -2.06509 -2.481 0
M  V30 2877 H 278.044 -3.73364 -0.728246 0
M  V30 2878 H 279.356 -4.849 -1.16933 0
M  V30 2879 H 278.51 -4.9391 -3.52332 0
M  V30 2880 H 277.249 -3.73443 -3.13674 0
M  V30 2881 H 276.254 -5.30372 -1.44863 0
M  V30 2882 H 277.479 -6.53095 -1.86127 0
M  V30 2883 H 275.425 -5.36321 -3.77751 0
M  V30 2884 H 275.342 -6.92548 -3.03172 0
M  V30 2885 H 276.61 -6.58511 -4.17114 0
M  V30 2886 N 280.839 0.0985539 -1.57292 0
M  V30 2887 C 281.772 1.15082 -1.97057 0
M  V30 2888 C 282.75 1.39025 -0.843255 0
M  V30 2889 O 283.934 1.52842 -1.10325 0
M  V30 2890 C 281.061 2.50069 -2.28437 0
M  V30 2891 C 280.107 2.42428 -3.509 0
M  V30 2892 S 280.94 1.84414 -5.02744 0
M  V30 2893 C 282.096 3.21032 -5.37298 0
M  V30 2894 H 282.329 0.811815 -2.86002 0
M  V30 2895 H 279.862 0.306102 -1.51335 0
M  V30 2896 H 281.82 3.27729 -2.47192 0
M  V30 2897 H 280.481 2.8114 -1.40069 0
M  V30 2898 H 279.674 3.41911 -3.70288 0
M  V30 2899 H 279.276 1.72896 -3.31637 0
M  V30 2900 H 281.568 4.17297 -5.33731 0
M  V30 2901 H 282.511 3.06452 -6.38352 0
M  V30 2902 H 282.919 3.20404 -4.64759 0
M  V30 2903 N 282.317 1.53212 0.369288 0
M  V30 2904 C 283.542 1.73423 1.1375 0
M  V30 2905 C 283.967 0.460404 1.82378 0
M  V30 2906 O 283.325 -0.585298 1.71592 0
M  V30 2907 C 283.373 2.89769 2.1463 0
M  V30 2908 O 282.477 2.58119 3.21634 0
M  V30 2909 H 281.818 0.576061 0.330227 0
M  V30 2910 H 284.348 2.00083 0.427547 0
M  V30 2911 H 284.358 3.15829 2.58294 0
M  V30 2912 H 283.033 3.8217 1.64071 0
M  V30 2913 H 281.61 2.42864 2.82969 0
M  V30 2914 N 283.795 -0.628877 1.44509 0
M  V30 2915 C 284.705 -1.7694 1.54044 0
M  V30 2916 C 285.721 -1.68705 0.425987 0
M  V30 2917 O 286.897 -1.89442 0.683656 0
M  V30 2918 C 283.962 -3.13332 1.48405 0
M  V30 2919 C 283.023 -3.33181 2.70719 0
M  V30 2920 C 282.256 -4.63067 2.6534 0
M  V30 2921 O 282.479 -5.44017 1.71469 0
M  V30 2922 O 281.413 -4.85167 3.56226 0
M  V30 2923 H 285.239 -1.71848 2.50403 0
M  V30 2924 H 282.824 -0.790378 1.26781 0
M  V30 2925 H 284.706 -3.94634 1.47791 0
M  V30 2926 H 283.381 -3.1896 0.551898 0
M  V30 2927 H 282.288 -2.51549 2.769 0
M  V30 2928 H 283.621 -3.32416 3.62988 0
M  V30 2929 N 285.273 -1.31445 -0.869486 0
M  V30 2930 C 286.503 -1.23942 -1.65294 0
M  V30 2931 C 286.911 0.197561 -1.88166 0
M  V30 2932 O 286.254 1.14019 -1.44033 0
M  V30 2933 C 286.316 -1.91385 -3.04322 0
M  V30 2934 C 285.98 -3.40726 -3.04557 0
M  V30 2935 C 286.977 -4.36464 -2.82481 0
M  V30 2936 C 284.662 -3.82425 -3.25663 0
M  V30 2937 C 286.656 -5.71876 -2.8149 0
M  V30 2938 C 284.343 -5.1795 -3.243 0
M  V30 2939 C 285.341 -6.12486 -3.02241 0
M  V30 2940 O 285.029 -7.45534 -3.00724 0
M  V30 2941 H 284.761 -0.429459 -0.522054 0
M  V30 2942 H 287.315 -1.73873 -1.0935 0
M  V30 2943 H 285.545 -1.36004 -3.61994 0
M  V30 2944 H 287.234 -1.77791 -3.64891 0
M  V30 2945 H 288 -4.05576 -2.65956 0
M  V30 2946 H 283.879 -3.09274 -3.41863 0
M  V30 2947 H 287.423 -6.45638 -2.64191 0
M  V30 2948 H 283.32 -5.48473 -3.40365 0
M  V30 2949 H 284.088 -7.54713 -3.16782 0
M  V30 2950 N 286.751 1.08385 -1.14413 0
M  V30 2951 C 287.681 2.17321 -0.854044 0
M  V30 2952 C 288.662 1.69024 0.191049 0
M  V30 2953 O 289.847 1.94141 0.0476779 0
M  V30 2954 C 286.977 3.45719 -0.330983 0
M  V30 2955 C 285.931 4.07409 -1.31155 0
M  V30 2956 C 285.257 5.30762 -0.64778 0
M  V30 2957 C 286.557 4.48665 -2.67388 0
M  V30 2958 H 288.251 2.41845 -1.76498 0
M  V30 2959 H 285.797 1.16233 -0.850051 0
M  V30 2960 H 287.75 4.21241 -0.115645 0
M  V30 2961 H 286.474 3.2075 0.615381 0
M  V30 2962 H 285.133 3.33919 -1.51306 0
M  V30 2963 H 284.781 5.02078 0.304398 0
M  V30 2964 H 284.481 5.72992 -1.30207 0
M  V30 2965 H 286.005 6.08998 -0.441972 0
M  V30 2966 H 287.419 5.15364 -2.51143 0
M  V30 2967 H 285.816 5.01814 -3.29093 0
M  V30 2968 H 286.886 3.60543 -3.24248 0
M  V30 2969 N 288.23 0.939286 1.26551 0
M  V30 2970 C 289.455 0.602008 1.98471 0
M  V30 2971 C 289.88 -0.815624 1.69497 0
M  V30 2972 O 289.238 -1.54912 0.941905 0
M  V30 2973 C 289.286 0.848407 3.50477 0
M  V30 2974 O 288.39 -0.0804009 4.12322 0
M  V30 2975 H 287.731 0.23049 0.622712 0
M  V30 2976 H 290.261 1.2617 1.61066 0
M  V30 2977 H 290.271 0.768553 4.00696 0
M  V30 2978 H 288.946 1.88171 3.70897 0
M  V30 2979 H 287.523 0.0503508 3.72866 0
M  V30 2980 N 289.708 -1.40897 0.706093 0
M  V30 2981 C 290.954 -2.01352 0.241889 0
M  V30 2982 C 291.287 -1.55832 -1.15888 0
M  V30 2983 O 290.562 -0.774145 -1.7843 0
M  V30 2984 C 290.845 -3.58752 0.311311 0
M  V30 2985 C 290.698 -4.1437 1.74978 0
M  V30 2986 C 292.017 -4.38914 -0.322922 0
M  V30 2987 H 289.136 -0.731562 0.0893687 0
M  V30 2988 H 291.778 -1.67504 0.896802 0
M  V30 2989 H 289.928 -3.87718 -0.246302 0
M  V30 2990 H 291.6 -3.96239 2.36205 0
M  V30 2991 H 289.843 -3.69016 2.28057 0
M  V30 2992 H 290.514 -5.23532 1.74981 0
M  V30 2993 H 292.99 -4.15822 0.152089 0
M  V30 2994 H 291.866 -5.48358 -0.243855 0
M  V30 2995 H 292.127 -4.19176 -1.40513 0
M  V30 2996 N 291.186 -0.45159 -1.50991 0
M  V30 2997 C 292.118 0.388634 -2.25881 0
M  V30 2998 C 293.131 0.974041 -1.30446 0
M  V30 2999 O 294.32 0.865758 -1.56099 0
M  V30 3000 C 291.42 1.5571 -3.01011 0
M  V30 3001 C 290.593 1.08801 -4.23652 0
M  V30 3002 C 289.652 2.12825 -4.8124 0
M  V30 3003 O 288.678 1.71678 -5.42693 0
M  V30 3004 N 289.88 3.45453 -4.66522 0
M  V30 3005 H 292.645 -0.25329 -2.98628 0
M  V30 3006 H 290.206 -0.281268 -1.59438 0
M  V30 3007 H 292.198 2.24952 -3.3642 0
M  V30 3008 H 290.768 2.10409 -2.31186 0
M  V30 3009 H 289.988 0.22215 -3.93574 0
M  V30 3010 H 291.276 0.752213 -5.03209 0
M  V30 3011 H 290.674 3.81605 -4.17605 0
M  V30 3012 H 289.231 4.10549 -5.06254 0
M  V30 3013 N 292.664 1.56529 -0.183458 0
M  V30 3014 C 293.627 2.17324 0.728223 0
M  V30 3015 C 294.627 1.12453 1.14939 0
M  V30 3016 O 295.817 1.37902 1.06437 0
M  V30 3017 C 292.949 2.76591 1.99274 0
M  V30 3018 H 294.142 2.99241 0.198772 0
M  V30 3019 H 291.695 1.5616 0.0661391 0
M  V30 3020 H 292.43 1.98441 2.56499 0
M  V30 3021 H 292.215 3.5335 1.69959 0
M  V30 3022 H 293.705 3.23311 2.6431 0
M  V30 3023 N 294.142 -0.090211 1.57342 0
M  V30 3024 C 295.089 -1.10909 2.02405 0
M  V30 3025 C 296.059 -1.39523 0.901252 0
M  V30 3026 O 297.244 -1.50903 1.1676 0
M  V30 3027 C 294.384 -2.42277 2.45755 0
M  V30 3028 C 293.497 -2.20352 3.71576 0
M  V30 3029 C 292.632 -3.45154 4.03785 0
M  V30 3030 C 291.671 -3.18512 5.22701 0
M  V30 3031 N 290.808 -4.35593 5.50639 0
M  V30 3032 H 295.648 -0.71782 2.89225 0
M  V30 3033 H 293.185 -0.342901 1.43048 0
M  V30 3034 H 295.143 -3.18951 2.68935 0
M  V30 3035 H 293.773 -2.79242 1.61938 0
M  V30 3036 H 292.825 -1.34458 3.55844 0
M  V30 3037 H 294.137 -1.96661 4.58395 0
M  V30 3038 H 293.291 -4.30233 4.27767 0
M  V30 3039 H 292.03 -3.71904 3.15498 0
M  V30 3040 H 291.035 -2.31827 4.98534 0
M  V30 3041 H 292.26 -2.93103 6.12591 0
M  V30 3042 H 290.206 -4.6241 4.6531 0
M  V30 3043 H 290.123 -4.1511 6.31838 0
M  V30 3044 H 291.391 -5.21723 5.7916 0
M  V30 3045 N 295.62 -1.53406 -0.361157 0
M  V30 3046 C 296.583 -1.79479 -1.42548 0
M  V30 3047 C 297.583 -0.665327 -1.4639 0
M  V30 3048 O 298.773 -0.933549 -1.47073 0
M  V30 3049 C 295.905 -1.92087 -2.8163 0
M  V30 3050 H 297.098 -2.74538 -1.20701 0
M  V30 3051 H 294.651 -1.4455 -0.594546 0
M  V30 3052 H 295.386 -0.991099 -3.08784 0
M  V30 3053 H 295.171 -2.74241 -2.80239 0
M  V30 3054 H 296.661 -2.13836 -3.58697 0
M  V30 3055 N 297.098 0.621204 -1.44841 0
M  V30 3056 C 298.346 1.37783 -1.47852 0
M  V30 3057 C 298.667 1.94653 -0.116224 0
M  V30 3058 O 297.937 1.76367 0.852737 0
M  V30 3059 H 296.517 0.511453 -0.544449 0
M  V30 3060 H 299.179 0.730446 -1.80694 0
M  V30 3061 H 298.275 2.20414 -2.20961 0
M  V30 3062 N 298.576 1.31904 0.862503 0
M  V30 3063 C 299.853 1.12644 1.59908 0
M  V30 3064 C 300.233 -0.316104 2.0872 0
M  V30 3065 O 299.581 -1.31145 1.87118 0
M  V30 3066 C 299.791 2.1472 2.7513 0
M  V30 3067 C 301.139 2.47637 3.44907 0
M  V30 3068 O 302.163 2.13205 2.85346 0
M  V30 3069 O 301.022 3.06632 4.52371 0
M  V30 3070 H 298.116 0.43416 0.703871 0
M  V30 3071 H 300.662 1.43408 0.907314 0
M  V30 3072 H 299.434 3.1172 2.3653 0
M  V30 3073 H 299.057 1.84905 3.51989 0
M  V30 3074 N 300.054 -1.07777 1.14986 0
M  V30 3075 C 301.001 -2.14867 0.842672 0
M  V30 3076 C 301.971 -1.6486 -0.202552 0
M  V30 3077 O 303.156 -1.90668 -0.0710568 0
M  V30 3078 C 300.296 -3.43486 0.333363 0
M  V30 3079 C 299.409 -4.07306 1.43965 0
M  V30 3080 C 298.544 -5.23744 0.886914 0
M  V30 3081 C 297.583 -5.79517 1.97043 0
M  V30 3082 N 296.72 -6.87291 1.4344 0
M  V30 3083 H 301.56 -2.40485 1.75986 0
M  V30 3084 H 299.097 -1.1801 0.878179 0
M  V30 3085 H 301.055 -4.17195 0.0198163 0
M  V30 3086 H 299.685 -3.18133 -0.546916 0
M  V30 3087 H 298.737 -3.31293 1.86946 0
M  V30 3088 H 300.049 -4.44771 2.25788 0
M  V30 3089 H 299.203 -6.04419 0.525651 0
M  V30 3090 H 297.942 -4.87685 0.0377957 0
M  V30 3091 H 296.947 -4.97491 2.34057 0
M  V30 3092 H 298.172 -6.17632 2.82325 0
M  V30 3093 H 296.118 -6.5318 0.607567 0
M  V30 3094 H 296.035 -7.23617 2.18895 0
M  V30 3095 H 297.303 -7.71682 1.10124 0
M  V30 3096 N 301.532 -0.945985 -1.26051 0
M  V30 3097 C 302.465 -0.403619 -2.24602 0
M  V30 3098 C 303.443 0.510241 -1.54387 0
M  V30 3099 O 304.627 0.446593 -1.83133 0
M  V30 3100 C 301.754 0.419564 -3.36091 0
M  V30 3101 C 300.8 -0.433454 -4.24292 0
M  V30 3102 S 301.633 -1.86037 -5.02146 0
M  V30 3103 C 302.789 -1.04538 -6.17108 0
M  V30 3104 H 303.022 -1.23883 -2.7026 0
M  V30 3105 H 300.555 -0.749438 -1.34992 0
M  V30 3106 H 302.513 0.888595 -4.00767 0
M  V30 3107 H 301.174 1.22951 -2.89036 0
M  V30 3108 H 300.367 0.197486 -5.03613 0
M  V30 3109 H 299.969 -0.837357 -3.64506 0
M  V30 3110 H 302.261 -0.289923 -6.76879 0
M  V30 3111 H 303.204 -1.81222 -6.84518 0
M  V30 3112 H 303.612 -0.579319 -5.61519 0
M  V30 3113 N 303.011 1.40521 -0.713556 0
M  V30 3114 C 304.236 2.05759 -0.26035 0
M  V30 3115 C 304.661 1.53403 1.08854 0
M  V30 3116 O 304.019 0.668535 1.68524 0
M  V30 3117 C 304.067 3.59745 -0.248122 0
M  V30 3118 O 303.171 4.05123 0.77131 0
M  V30 3119 H 302.512 0.652564 -0.122703 0
M  V30 3120 H 305.042 1.79958 -0.973467 0
M  V30 3121 H 305.052 4.07911 -0.0851129 0
M  V30 3122 H 303.727 3.97218 -1.2325 0
M  V30 3123 H 302.304 3.68422 0.57619 0
M  V30 3124 N 304.489 0.459591 1.5075 0
M  V30 3125 C 305.736 -0.0993495 2.02256 0
M  V30 3126 C 306.064 -1.40751 1.34237 0
M  V30 3127 O 305.319 -1.90379 0.453228 0
M  V30 3128 C 305.618 -0.342866 3.55752 0
M  V30 3129 C 305.284 0.88218 4.42186 0
M  V30 3130 C 303.946 1.21808 4.65528 0
M  V30 3131 C 306.298 1.69837 4.92752 0
M  V30 3132 C 303.626 2.37045 5.36681 0
M  V30 3133 C 305.978 2.84192 5.65171 0
M  V30 3134 C 304.642 3.1821 5.8677 0
M  V30 3135 H 303.912 -0.0363545 0.740108 0
M  V30 3136 H 306.559 0.611329 1.8148 0
M  V30 3137 H 304.864 -1.13567 3.7498 0
M  V30 3138 H 306.561 -0.789121 3.93159 0
M  V30 3139 H 303.151 0.610467 4.2423 0
M  V30 3140 H 307.335 1.45205 4.74583 0
M  V30 3141 H 302.591 2.63689 5.51614 0
M  V30 3142 H 306.765 3.4779 6.03337 0
M  V30 3143 H 304.392 4.07613 6.41682 0
M  V30 3144 N 305.967 -1.56429 0.191757 0
M  V30 3145 C 307.195 -2.01867 -0.453586 0
M  V30 3146 C 307.61 -1.07191 -1.5542 0
M  V30 3147 O 306.967 -0.0762108 -1.82341 0
M  V30 3148 C 307.018 -3.47017 -1.013 0
M  V30 3149 O 306.739 -4.38078 0.0437005 0
M  V30 3150 C 308.24 -4.07956 -1.73456 0
M  V30 3151 H 305.46 -0.661211 -0.114199 0
M  V30 3152 H 308.004 -2.02295 0.299483 0
M  V30 3153 H 306.159 -3.47298 -1.71647 0
M  V30 3154 H 306.573 -5.23178 -0.372212 0
M  V30 3155 H 308.047 -5.1138 -2.07833 0
M  V30 3156 H 308.524 -3.51222 -2.63704 0
M  V30 3157 H 309.13 -4.11437 -1.07702 0
M  V30 3158 N 307.445 0.0818655 -1.57387 0
M  V30 3159 C 308.693 0.781368 -1.86384 0
M  V30 3160 C 309.014 1.78618 -0.782342 0
M  V30 3161 O 308.284 1.94976 0.190061 0
M  V30 3162 H 306.864 0.291562 -0.687751 0
M  V30 3163 H 309.526 0.060348 -1.94807 0
M  V30 3164 H 308.622 1.3038 -2.83562 0
M  V30 3165 N 308.923 1.53595 0.353017 0
M  V30 3166 C 310.334 1.61937 0.929153 0
M  V30 3167 C 310.685 0.494686 1.89861 0
M  V30 3168 O 309.81 -0.377017 2.1309 0
M  V30 3169 C 310.405 2.93526 1.69199 0
M  V30 3170 C 308.964 3.04161 2.21727 0
M  V30 3171 C 308.111 2.57322 1.03348 0
M  V30 3172 H 311.062 1.58155 0.131431 0
M  V30 3173 H 311.083 2.82034 2.55416 0
M  V30 3174 H 310.595 3.75362 0.986144 0
M  V30 3175 H 308.696 2.26938 2.95516 0
M  V30 3176 H 308.809 4.09465 2.48748 0
M  V30 3177 H 307.173 2.12499 1.40414 0
M  V30 3178 H 307.956 3.41588 0.342428 0
M  V30 3179 N 310.401 -0.613514 1.45168 0
M  V30 3180 C 311.648 -1.37268 1.48875 0
M  V30 3181 C 311.976 -1.94077 0.128161 0
M  V30 3182 O 311.231 -1.75178 -0.872416 0
M  V30 3183 C 311.53 -2.54347 2.51083 0
M  V30 3184 C 311.196 -2.1572 3.95949 0
M  V30 3185 C 309.858 -2.04899 4.35396 0
M  V30 3186 C 312.21 -1.85485 4.87078 0
M  V30 3187 C 309.538 -1.62057 5.63875 0
M  V30 3188 C 311.89 -1.4413 6.15962 0
M  V30 3189 C 310.554 -1.31863 6.54346 0
M  V30 3190 H 309.824 -0.502299 0.544773 0
M  V30 3191 H 312.471 -0.694021 1.78481 0
M  V30 3192 H 310.776 -3.27524 2.15024 0
M  V30 3193 H 312.473 -3.12577 2.51191 0
M  V30 3194 H 309.063 -2.25066 3.64751 0
M  V30 3195 H 313.247 -1.92745 4.57343 0
M  V30 3196 H 308.503 -1.51177 5.92415 0
M  V30 3197 H 312.677 -1.19778 6.86022 0
M  V30 3198 H 310.304 -0.984392 7.538 0
M  V30 3199 N 311.879 -1.3236 -0.855495 0
M  V30 3200 C 313.127 -1.22629 -1.60644 0
M  V30 3201 C 313.448 0.212136 -1.93843 0
M  V30 3202 O 312.718 1.13666 -1.59552 0
M  V30 3203 H 311.298 -0.450882 -0.595579 0
M  V30 3204 H 313.96 -1.65871 -1.02337 0
M  V30 3205 H 313.056 -1.80832 -2.54374 0
M  V30 3206 N 313.357 1.07166 -1.15556 0
M  V30 3207 C 314.582 1.84053 -0.955988 0
M  V30 3208 C 315.007 1.81586 0.490739 0
M  V30 3209 O 314.365 1.21018 1.34997 0
M  V30 3210 C 314.413 3.28957 -1.47714 0
M  V30 3211 O 313.517 4.06795 -0.677593 0
M  V30 3212 H 312.858 0.569842 -0.340847 0
M  V30 3213 H 315.388 1.35178 -1.53584 0
M  V30 3214 H 315.398 3.79788 -1.4908 0
M  V30 3215 H 314.073 3.30068 -2.53037 0
M  V30 3216 H 312.65 3.6561 -0.733721 0
M  V30 3217 N 314.835 0.952656 1.25548 0
M  V30 3218 C 316.082 0.606373 1.93208 0
M  V30 3219 C 316.41 -0.85631 1.74636 0
M  V30 3220 O 315.665 -1.62951 1.08376 0
M  V30 3221 C 315.964 0.908818 3.45652 0
M  V30 3222 C 315.63 2.35722 3.84378 0
M  V30 3223 C 314.292 2.75312 3.9466 0
M  V30 3224 C 316.644 3.29793 4.03591 0
M  V30 3225 C 313.972 4.08047 4.21562 0
M  V30 3226 C 316.324 4.62138 4.31985 0
M  V30 3227 C 314.988 5.01528 4.40484 0
M  V30 3228 H 314.258 0.221888 0.706998 0
M  V30 3229 H 316.905 1.20132 1.49133 0
M  V30 3230 H 315.21 0.231456 3.91116 0
M  V30 3231 H 316.907 0.619498 3.96186 0
M  V30 3232 H 313.497 2.04017 3.76928 0
M  V30 3233 H 317.681 3.00397 3.95064 0
M  V30 3234 H 312.937 4.38212 4.26357 0
M  V30 3235 H 317.111 5.35012 4.45797 0
M  V30 3236 H 314.738 6.04406 4.61083 0
M  V30 3237 N 316.313 -1.40141 0.720998 0
M  V30 3238 C 317.543 -2.04798 0.27226 0
M  V30 3239 C 317.951 -1.54442 -1.09289 0
M  V30 3240 O 317.294 -0.698342 -1.69908 0
M  V30 3241 C 317.356 -3.59048 0.18027 0
M  V30 3242 C 317.02 -4.32317 1.48159 0
M  V30 3243 C 318.017 -4.59902 2.42458 0
M  V30 3244 C 315.702 -4.71125 1.74202 0
M  V30 3245 C 317.696 -5.25288 3.61042 0
M  V30 3246 C 315.383 -5.36242 2.93066 0
M  V30 3247 C 316.381 -5.63254 3.86308 0
M  V30 3248 O 316.069 -6.27024 5.03086 0
M  V30 3249 H 315.801 -0.665419 0.119139 0
M  V30 3250 H 318.355 -1.80436 0.981432 0
M  V30 3251 H 316.585 -3.82251 -0.58489 0
M  V30 3252 H 318.274 -4.05221 -0.234618 0
M  V30 3253 H 319.04 -4.30379 2.23604 0
M  V30 3254 H 314.919 -4.49466 1.02477 0
M  V30 3255 H 318.463 -5.46289 4.33837 0
M  V30 3256 H 314.36 -5.65185 3.11826 0
M  V30 3257 H 315.128 -6.4552 5.03235 0
M  V30 3258 N 317.792 -0.46758 -1.50504 0
M  V30 3259 C 318.722 0.318381 -2.31319 0
M  V30 3260 C 319.703 0.993564 -1.38066 0
M  V30 3261 O 320.888 0.991411 -1.66987 0
M  V30 3262 C 318.018 1.40275 -3.17711 0
M  V30 3263 C 316.972 0.849373 -4.19487 0
M  V30 3264 C 316.298 2.03177 -4.94594 0
M  V30 3265 C 317.598 -0.136942 -5.2212 0
M  V30 3266 H 319.292 -0.356106 -2.97275 0
M  V30 3267 H 316.838 -0.172703 -1.42961 0
M  V30 3268 H 318.791 1.96004 -3.73042 0
M  V30 3269 H 317.515 2.10596 -2.49634 0
M  V30 3270 H 316.174 0.314076 -3.65252 0
M  V30 3271 H 315.822 2.72187 -4.22993 0
M  V30 3272 H 315.522 1.66774 -5.63436 0
M  V30 3273 H 317.046 2.59403 -5.52759 0
M  V30 3274 H 318.46 0.331056 -5.72343 0
M  V30 3275 H 316.857 -0.41507 -5.98663 0
M  V30 3276 H 317.927 -1.06398 -4.73083 0
M  V30 3277 N 319.27 1.56325 -0.20005 0
M  V30 3278 C 320.686 1.58839 0.155716 0
M  V30 3279 C 320.886 1.21636 1.60645 0
M  V30 3280 O 319.942 0.941437 2.34293 0
M  V30 3281 C 321.255 3.0032 -0.151124 0
M  V30 3282 C 322.803 3.12866 -0.0916284 0
M  V30 3283 C 323.278 4.56488 -0.371845 0
M  V30 3284 N 324.769 4.62089 -0.320641 0
M  V30 3285 C 325.504 5.71116 -0.511243 0
M  V30 3286 N 325 6.88592 -0.762461 0
M  V30 3287 N 326.793 5.60335 -0.445157 0
M  V30 3288 H 318.944 1.78788 -1.14668 0
M  V30 3289 H 321.207 0.829996 -0.458051 0
M  V30 3290 H 320.913 3.32117 -1.15721 0
M  V30 3291 H 320.787 3.73257 0.543986 0
M  V30 3292 H 323.174 2.80878 0.905065 0
M  V30 3293 H 323.255 2.42304 -0.81989 0
M  V30 3294 H 322.899 4.89189 -1.36588 0
M  V30 3295 H 322.829 5.25246 0.377362 0
M  V30 3296 H 325.32 3.77665 -0.13329 0
M  V30 3297 H 325.633 7.67581 -0.896576 0
M  V30 3298 H 323.978 6.90387 -0.799412 0
M  V30 3299 H 327.169 4.67436 -0.249278 0
M  V30 3300 H 327.342 6.45243 -0.597116 0
M  V30 3301 N 320.748 -0.0735177 1.57428 0
M  V30 3302 C 322.025 -0.805903 1.78226 0
M  V30 3303 C 322.405 -1.95874 0.787189 0
M  V30 3304 O 321.753 -2.2779 -0.180029 0
M  V30 3305 C 321.963 -1.28045 3.24662 0
M  V30 3306 C 323.311 -1.71453 3.88444 0
M  V30 3307 O 324.335 -1.37616 3.28543 0
M  V30 3308 O 323.194 -2.34093 4.93825 0
M  V30 3309 H 320.288 -0.386041 0.73137 0
M  V30 3310 H 322.834 -0.0537269 1.69615 0
M  V30 3311 H 321.606 -0.455476 3.8864 0
M  V30 3312 H 321.229 -2.094 3.37991 0
M  V30 3313 N 322.226 -1.5378 -0.344866 0
M  V30 3314 C 323.472 -1.71216 -1.08687 0
M  V30 3315 C 323.805 -0.473281 -1.88345 0
M  V30 3316 O 323.08 0.52968 -1.87149 0
M  V30 3317 C 323.363 -2.97486 -2.02914 0
M  V30 3318 C 323.216 -4.31579 -1.26727 0
M  V30 3319 C 324.535 -3.19422 -3.0275 0
M  V30 3320 H 321.654 -0.62301 -0.393735 0
M  V30 3321 H 324.296 -1.8645 -0.365563 0
M  V30 3322 H 322.446 -2.84629 -2.64421 0
M  V30 3323 H 324.118 -4.56284 -0.67845 0
M  V30 3324 H 322.361 -4.30049 -0.569273 0
M  V30 3325 H 323.032 -5.16106 -1.95803 0
M  V30 3326 H 325.508 -3.316 -2.51357 0
M  V30 3327 H 324.384 -4.09169 -3.65885 0
M  V30 3328 H 324.645 -2.35656 -3.74057 0
M  V30 3329 N 323.704 0.605807 -1.45491 0
M  V30 3330 C 324.651 1.7164 -1.54299 0
M  V30 3331 C 325.621 1.61486 -0.388761 0
M  V30 3332 O 326.806 1.81039 -0.602445 0
M  V30 3333 C 323.946 3.09953 -1.51734 0
M  V30 3334 C 323.059 3.309 -2.77721 0
M  V30 3335 C 322.194 4.59329 -2.66816 0
M  V30 3336 C 321.233 4.7354 -3.87848 0
M  V30 3337 N 320.37 5.9327 -3.75467 0
M  V30 3338 H 325.21 1.63449 -2.49176 0
M  V30 3339 H 322.747 0.796957 -1.23641 0
M  V30 3340 H 324.705 3.89977 -1.48235 0
M  V30 3341 H 323.335 3.17098 -0.604068 0
M  V30 3342 H 322.387 2.44639 -2.913 0
M  V30 3343 H 323.699 3.37274 -3.67488 0
M  V30 3344 H 322.853 5.4755 -2.61292 0
M  V30 3345 H 321.592 4.55355 -1.74651 0
M  V30 3346 H 320.597 3.83741 -3.93729 0
M  V30 3347 H 321.822 4.79309 -4.81082 0
M  V30 3348 H 319.768 5.90338 -2.86072 0
M  V30 3349 H 319.685 6.00811 -4.5887 0
M  V30 3350 H 320.953 6.83984 -3.73879 0
M  V30 3351 N 325.182 1.32811 0.848464 0
M  V30 3352 C 326.598 1.11937 1.13764 0
M  V30 3353 C 326.798 -0.0960789 2.01271 0
M  V30 3354 O 325.854 -0.779165 2.40178 0
M  V30 3355 C 327.167 2.402 1.809 0
M  V30 3356 C 328.715 2.46016 1.93508 0
M  V30 3357 C 329.19 3.74215 2.64059 0
M  V30 3358 N 330.681 3.75232 2.71579 0
M  V30 3359 C 331.416 4.71134 3.26833 0
M  V30 3360 N 330.912 5.77406 3.8285 0
M  V30 3361 N 332.705 4.58623 3.24995 0
M  V30 3362 H 324.856 2.1073 0.265855 0
M  V30 3363 H 327.119 0.930671 0.180431 0
M  V30 3364 H 326.825 3.29093 1.24058 0
M  V30 3365 H 326.699 2.51628 2.81004 0
M  V30 3366 H 329.086 1.57577 2.49506 0
M  V30 3367 H 329.167 2.38536 0.923811 0
M  V30 3368 H 328.811 4.63031 2.08722 0
M  V30 3369 H 328.741 3.78968 3.65637 0
M  V30 3370 H 331.232 2.98423 2.31845 0
M  V30 3371 H 331.545 6.46632 4.23187 0
M  V30 3372 H 329.89 5.81152 3.81165 0
M  V30 3373 H 333.081 3.74762 2.80484 0
M  V30 3374 H 333.254 5.33535 3.67756 0
M  V30 3375 N 326.66 -1.06551 1.16123 0
M  V30 3376 C 328.071 -1.60768 0.949232 0
M  V30 3377 C 328.422 -1.89523 -0.507508 0
M  V30 3378 O 327.547 -1.66671 -1.38021 0
M  V30 3379 C 328.142 -2.92086 1.71671 0
M  V30 3380 C 326.701 -3.43015 1.54977 0
M  V30 3381 C 325.848 -2.16947 1.72711 0
M  V30 3382 H 328.799 -0.895354 1.31031 0
M  V30 3383 H 328.82 -3.6138 1.19099 0
M  V30 3384 H 328.332 -2.71127 2.7769 0
M  V30 3385 H 326.433 -3.69039 0.513873 0
M  V30 3386 H 326.546 -4.18516 2.33198 0
M  V30 3387 H 324.91 -2.27041 1.15431 0
M  V30 3388 H 325.693 -1.98473 2.80113 0
M  V30 3389 N 328.138 -0.959301 -1.25041 0
M  V30 3390 C 329.384 -0.617525 -1.9317 0
M  V30 3391 C 329.717 0.843981 -1.74902 0
M  V30 3392 O 328.992 1.60615 -1.09696 0
M  V30 3393 C 329.275 -0.982736 -3.46431 0
M  V30 3394 C 329.128 -2.50032 -3.73904 0
M  V30 3395 C 330.447 -0.511176 -4.37121 0
M  V30 3396 H 327.566 -0.22582 -0.701552 0
M  V30 3397 H 330.208 -1.19679 -1.4757 0
M  V30 3398 H 328.358 -0.489806 -3.854 0
M  V30 3399 H 330.03 -3.06737 -3.44544 0
M  V30 3400 H 328.273 -2.93598 -3.19348 0
M  V30 3401 H 328.944 -2.70635 -4.81103 0
M  V30 3402 H 331.42 -0.934075 -4.0548 0
M  V30 3403 H 330.296 -0.795361 -5.43107 0
M  V30 3404 H 330.557 0.588834 -4.38161 0
M  V30 3405 N 329.616 1.39756 -0.72842 0
M  V30 3406 C 330.546 2.33289 -0.0991354 0
M  V30 3407 C 331.527 1.53568 0.731489 0
M  V30 3408 O 332.712 1.81987 0.677807 0
M  V30 3409 C 329.842 3.3763 0.813834 0
M  V30 3410 C 328.796 4.2791 0.0878663 0
M  V30 3411 C 328.122 5.22894 1.11741 0
M  V30 3412 C 329.422 5.11314 -1.06563 0
M  V30 3413 H 331.116 2.86163 -0.880408 0
M  V30 3414 H 328.662 1.37591 -0.424819 0
M  V30 3415 H 330.615 4.0201 1.26355 0
M  V30 3416 H 329.339 2.83181 1.62715 0
M  V30 3417 H 327.998 3.65 -0.342159 0
M  V30 3418 H 327.646 4.64744 1.92412 0
M  V30 3419 H 327.346 5.84143 0.636477 0
M  V30 3420 H 328.87 5.90151 1.56697 0
M  V30 3421 H 330.284 5.69076 -0.694671 0
M  V30 3422 H 328.681 5.81671 -1.47577 0
M  V30 3423 H 329.751 4.46534 -1.89038 0
M  V30 3424 N 331.094 0.475555 1.50254 0
M  V30 3425 C 332.027 -0.362381 2.25304 0
M  V30 3426 C 333.005 -0.992393 1.28803 0
M  V30 3427 O 334.189 -1.02746 1.58036 0
M  V30 3428 C 331.316 -1.50813 3.03271 0
M  V30 3429 C 330.362 -0.995044 4.1473 0
M  V30 3430 S 331.195 0.0938436 5.35418 0
M  V30 3431 C 332.351 -1.05567 6.16933 0
M  V30 3432 H 332.584 0.274686 2.96028 0
M  V30 3433 H 330.117 0.260495 1.52187 0
M  V30 3434 H 332.075 -2.16476 3.48781 0
M  V30 3435 H 330.736 -2.11672 2.32064 0
M  V30 3436 H 329.929 -1.85293 4.68703 0
M  V30 3437 H 329.531 -0.416052 3.71679 0
M  V30 3438 H 331.823 -1.96636 6.48337 0
M  V30 3439 H 332.766 -0.555109 7.05921 0
M  V30 3440 H 333.174 -1.31151 5.49053 0
M  V30 3441 N 332.573 -1.56217 0.208337 0
M  V30 3442 C 333.503 -2.22694 -0.702116 0
M  V30 3443 C 334.484 -1.19432 -1.2112 0
M  V30 3444 O 335.669 -1.47978 -1.25762 0
M  V30 3445 C 332.799 -2.8966 -1.9161 0
M  V30 3446 C 331.753 -3.9928 -1.5414 0
M  V30 3447 C 331.079 -4.53476 -2.83308 0
M  V30 3448 C 332.379 -5.17012 -0.741339 0
M  V30 3449 H 334.073 -2.99034 -0.147898 0
M  V30 3450 H 331.619 -1.43831 -0.0696951 0
M  V30 3451 H 333.572 -3.34852 -2.55836 0
M  V30 3452 H 332.296 -2.10746 -2.49507 0
M  V30 3453 H 330.955 -3.54799 -0.922668 0
M  V30 3454 H 330.603 -3.71308 -3.39322 0
M  V30 3455 H 330.303 -5.27451 -2.58976 0
M  V30 3456 H 331.827 -5.01378 -3.485 0
M  V30 3457 H 333.241 -5.58667 -1.28699 0
M  V30 3458 H 331.638 -5.97137 -0.595627 0
M  V30 3459 H 332.708 -4.8423 0.254851 0
M  V30 3460 N 334.051 0.0651679 -1.57465 0
M  V30 3461 C 335.014 1.06117 -2.03155 0
M  V30 3462 C 336.014 1.31204 -0.929632 0
M  V30 3463 O 337.204 1.26813 -1.19432 0
M  V30 3464 C 334.336 2.4032 -2.41783 0
M  V30 3465 H 335.529 0.667231 -2.92383 0
M  V30 3466 H 333.082 0.311075 -1.53173 0
M  V30 3467 H 333.817 2.84532 -1.55601 0
M  V30 3468 H 333.602 2.23451 -3.22199 0
M  V30 3469 H 335.092 3.11898 -2.77685 0
M  V30 3470 N 335.529 1.53961 0.336706 0
M  V30 3471 C 336.777 1.71197 1.07405 0
M  V30 3472 C 337.098 0.481475 1.88962 0
M  V30 3473 O 336.368 -0.504585 1.8929 0
M  V30 3474 H 334.948 0.631185 0.399517 0
M  V30 3475 H 337.61 1.91232 0.376323 0
M  V30 3476 H 336.706 2.58587 1.74755 0
M  V30 3477 N 337.007 -0.598083 1.45811 0
M  V30 3478 C 338.255 -1.35413 1.50026 0
M  V30 3479 C 338.576 -1.94444 0.147177 0
M  V30 3480 O 337.846 -1.77701 -0.824571 0
M  V30 3481 H 336.426 -0.502727 0.552517 0
M  V30 3482 H 339.088 -0.701606 1.81834 0
M  V30 3483 H 338.184 -2.16871 2.2444 0
M  V30 3484 N 338.485 -1.33259 -0.841409 0
M  V30 3485 C 339.713 -1.27605 -1.62864 0
M  V30 3486 C 340.128 0.153507 -1.88175 0
M  V30 3487 O 339.485 1.09485 -1.46011 0
M  V30 3488 C 339.536 -2.04596 -2.98031 0
M  V30 3489 O 339.257 -3.41975 -2.73834 0
M  V30 3490 C 340.758 -2.06122 -3.92465 0
M  V30 3491 H 337.978 -0.439718 -0.506842 0
M  V30 3492 H 340.522 -1.75591 -1.04824 0
M  V30 3493 H 338.677 -1.60299 -3.5268 0
M  V30 3494 H 339.091 -3.81549 -3.59889 0
M  V30 3495 H 340.565 -2.64451 -4.84531 0
M  V30 3496 H 341.042 -1.05083 -4.26444 0
M  V30 3497 H 341.648 -2.50427 -3.43753 0
M  V30 3498 N 339.963 1.05934 -1.16686 0
M  V30 3499 C 341.211 1.78447 -0.948744 0
M  V30 3500 C 341.532 1.87813 0.524523 0
M  V30 3501 O 340.802 1.38945 1.38098 0
M  V30 3502 H 339.382 0.660971 -0.348033 0
M  V30 3503 H 342.044 1.27947 -1.47022 0
M  V30 3504 H 341.14 2.80394 -1.37061 0
M  V30 3505 N 341.441 0.965919 1.2453 0
M  V30 3506 C 342.69 0.622437 1.91856 0
M  V30 3507 C 343.003 -0.846006 1.76358 0
M  V30 3508 O 344.209 -1.29993 2.38357 0
M  V30 3509 C 342.665 1.0626 3.43856 0
M  V30 3510 C 342.273 2.55437 3.68043 0
M  V30 3511 C 344.017 0.792183 4.17043 0
M  V30 3512 C 341.924 2.93196 5.13605 0
M  V30 3513 H 340.854 0.229092 0.718354 0
M  V30 3514 H 343.505 1.17189 1.41206 0
M  V30 3515 H 341.887 0.441476 3.93531 0
M  V30 3516 H 343.061 3.22665 3.28974 0
M  V30 3517 H 341.376 2.8007 3.08139 0
M  V30 3518 H 343.973 1.05031 5.24283 0
M  V30 3519 H 344.316 -0.271584 4.15413 0
M  V30 3520 H 344.849 1.37419 3.73311 0
M  V30 3521 H 341.588 3.98636 5.20355 0
M  V30 3522 H 341.108 2.30651 5.53679 0
M  V30 3523 H 342.787 2.83004 5.81823 0
M  V30 3524 N 342.919 -1.39368 0.735821 0
M  V30 3525 C 343.882 -2.2896 0.104874 0
M  V30 3526 C 344.882 -1.46347 -0.666274 0
M  V30 3527 O 346.072 -1.67014 -0.49517 0
M  V30 3528 C 343.204 -3.29857 -0.860656 0
M  V30 3529 H 344.397 -2.86259 0.894205 0
M  V30 3530 H 341.95 -1.48029 0.501704 0
M  V30 3531 H 342.685 -2.77615 -1.67631 0
M  V30 3532 H 342.47 -3.9087 -0.310327 0
M  V30 3533 H 343.96 -3.96893 -1.29867 0
M  V30 3534 N 344.397 -0.483516 -1.5 0
M  V30 3535 C 345.808 -0.0314176 -1.86674 0
M  V30 3536 C 346.159 1.37728 -1.39733 0
M  V30 3537 O 345.284 2.02327 -0.767635 0
M  V30 3538 C 345.879 -0.0502376 -3.38763 0
M  V30 3539 C 344.438 0.346442 -3.74802 0
M  V30 3540 C 343.585 -0.430366 -2.7394 0
M  V30 3541 H 346.536 -0.697182 -1.42566 0
M  V30 3542 H 346.557 0.749116 -3.73053 0
M  V30 3543 H 346.069 -1.07563 -3.72897 0
M  V30 3544 H 344.17 1.37572 -3.46273 0
M  V30 3545 H 344.283 0.0391486 -4.79084 0
M  V30 3546 H 342.647 0.117557 -2.54429 0
M  V30 3547 H 343.43 -1.4555 -3.10918 0
M  V30 3548 N 345.875 1.56104 -0.216619 0
M  V30 3549 C 347.122 1.98172 0.416416 0
M  V30 3550 C 347.45 1.10413 1.60122 0
M  V30 3551 O 346.705 0.147967 1.9514 0
M  V30 3552 C 347.004 3.45923 0.898464 0
M  V30 3553 C 346.67 4.50559 -0.175288 0
M  V30 3554 C 345.332 4.78897 -0.470271 0
M  V30 3555 C 347.684 5.1334 -0.901728 0
M  V30 3556 C 345.012 5.67299 -1.4963 0
M  V30 3557 C 347.364 6.02853 -1.91705 0
M  V30 3558 C 346.028 6.29537 -2.21901 0
M  V30 3559 H 345.298 0.725164 0.152377 0
M  V30 3560 H 347.945 1.88839 -0.318103 0
M  V30 3561 H 346.25 3.52434 1.71165 0
M  V30 3562 H 347.947 3.75841 1.39803 0
M  V30 3563 H 344.537 4.28551 0.0647806 0
M  V30 3564 H 348.721 4.91521 -0.687072 0
M  V30 3565 H 343.977 5.86239 -1.73592 0
M  V30 3566 H 348.151 6.50552 -2.48505 0
M  V30 3567 H 345.778 6.97835 -3.01548 0
M  V30 3568 N 347.353 -0.0568162 1.57498 0
M  V30 3569 C 348.283 -1.06593 2.0775 0
M  V30 3570 C 349.264 -1.39448 0.974082 0
M  V30 3571 O 350.449 -1.48815 1.24771 0
M  V30 3572 C 347.579 -2.37509 2.5339 0
M  V30 3573 C 346.533 -2.1897 3.67745 0
M  V30 3574 C 345.859 -3.55402 3.99492 0
M  V30 3575 C 347.159 -1.59859 4.97235 0
M  V30 3576 H 348.853 -0.647706 2.9231 0
M  V30 3577 H 346.399 -0.310116 1.40621 0
M  V30 3578 H 348.352 -3.08409 2.87162 0
M  V30 3579 H 347.076 -2.8134 1.65878 0
M  V30 3580 H 345.735 -1.50508 3.3428 0
M  V30 3581 H 345.383 -3.9683 3.09088 0
M  V30 3582 H 345.083 -3.43831 4.76502 0
M  V30 3583 H 346.607 -4.27708 4.35773 0
M  V30 3584 H 348.021 -2.20642 5.29141 0
M  V30 3585 H 346.418 -1.58942 5.78669 0
M  V30 3586 H 347.488 -0.561506 4.81638 0
M  V30 3587 N 348.832 -1.54138 -0.328536 0
M  V30 3588 C 350.057 -1.76378 -1.09112 0
M  V30 3589 C 350.482 -0.508596 -1.81094 0
M  V30 3590 O 349.84 0.539598 -1.73084 0
M  V30 3591 C 349.888 -2.95358 -2.06872 0
M  V30 3592 O 348.992 -2.66556 -3.14677 0
M  V30 3593 H 348.333 -0.584614 -0.314838 0
M  V30 3594 H 350.863 -2.01146 -0.374348 0
M  V30 3595 H 350.873 -3.22566 -2.4983 0
M  V30 3596 H 349.548 -3.86385 -1.5388 0
M  V30 3597 H 348.125 -2.50282 -2.7643 0
M  V30 3598 N 350.31 0.590341 -1.46126 0
M  V30 3599 C 351.243 1.71434 -1.50617 0
M  V30 3600 C 352.221 1.58543 -0.360948 0
M  V30 3601 O 353.405 1.79865 -0.563985 0
M  V30 3602 C 350.532 3.09422 -1.37753 0
M  V30 3603 C 349.578 3.40854 -2.5636 0
M  V30 3604 S 350.411 3.33773 -4.18755 0
M  V30 3605 C 351.567 4.74312 -4.08386 0
M  V30 3606 H 351.8 1.67364 -2.45717 0
M  V30 3607 H 349.333 0.76845 -1.33919 0
M  V30 3608 H 351.291 3.8903 -1.31018 0
M  V30 3609 H 349.952 3.10989 -0.440949 0
M  V30 3610 H 349.145 4.41368 -2.43332 0
M  V30 3611 H 348.747 2.68798 -2.60046 0
M  V30 3612 H 351.039 5.64522 -3.74595 0
M  V30 3613 H 351.982 4.92397 -5.08872 0
M  V30 3614 H 352.39 4.50803 -3.3976 0
M  V30 3615 N 351.788 1.33704 0.83433 0
M  V30 3616 C 352.718 1.26967 1.95963 0
M  V30 3617 C 353.699 0.149337 1.69443 0
M  V30 3618 O 354.884 0.339852 1.91203 0
M  V30 3619 C 352.014 1.01275 3.32206 0
M  V30 3620 C 350.968 2.09652 3.73136 0
M  V30 3621 C 350.294 1.69166 5.07235 0
M  V30 3622 C 351.594 3.51372 3.86439 0
M  V30 3623 H 353.288 2.2112 2.01857 0
M  V30 3624 H 350.834 1.06447 0.969793 0
M  V30 3625 H 352.787 0.952106 4.10503 0
M  V30 3626 H 351.511 0.0356203 3.26581 0
M  V30 3627 H 350.17 2.14766 2.97104 0
M  V30 3628 H 349.818 0.701437 4.98085 0
M  V30 3629 H 349.518 2.41694 5.35591 0
M  V30 3630 H 351.042 1.64576 5.88003 0
M  V30 3631 H 352.456 3.48734 4.55036 0
M  V30 3632 H 350.853 4.22425 4.26236 0
M  V30 3633 H 351.923 3.89546 2.88759 0
M  V30 3634 N 353.266 -1.05314 1.17247 0
M  V30 3635 C 354.198 -2.13023 0.845812 0
M  V30 3636 C 355.211 -1.62096 -0.151246 0
M  V30 3637 O 356.4 -1.78343 0.0748818 0
M  V30 3638 C 353.5 -3.38047 0.240292 0
M  V30 3639 C 352.673 -4.18255 1.27991 0
M  V30 3640 C 351.732 -5.21625 0.692375 0
M  V30 3641 O 350.758 -5.52619 1.36385 0
M  V30 3642 N 351.96 -5.78201 -0.516178 0
M  V30 3643 H 354.725 -2.41642 1.77283 0
M  V30 3644 H 352.286 -1.21401 1.07115 0
M  V30 3645 H 354.278 -4.04359 -0.16603 0
M  V30 3646 H 352.848 -3.06972 -0.590487 0
M  V30 3647 H 352.068 -3.47451 1.86203 0
M  V30 3648 H 353.356 -4.68643 1.98119 0
M  V30 3649 H 352.754 -5.55301 -1.07969 0
M  V30 3650 H 351.311 -6.4604 -0.86458 0
M  V30 3651 N 354.744 -0.972509 -1.24016 0
M  V30 3652 C 355.99 -0.637978 -1.92504 0
M  V30 3653 C 356.323 0.825383 -1.75787 0
M  V30 3654 O 355.598 1.59442 -1.11393 0
M  V30 3655 C 355.881 -1.01942 -3.45369 0
M  V30 3656 C 355.734 -2.53983 -3.71231 0
M  V30 3657 C 357.053 -0.55751 -4.36555 0
M  V30 3658 H 354.172 -0.233248 -0.699117 0
M  V30 3659 H 356.814 -1.21238 -1.46292 0
M  V30 3660 H 354.964 -0.530656 -3.84859 0
M  V30 3661 H 356.636 -3.10374 -3.41271 0
M  V30 3662 H 354.879 -2.96968 -3.16216 0
M  V30 3663 H 355.55 -2.75723 -4.78206 0
M  V30 3664 H 358.026 -0.977029 -4.04467 0
M  V30 3665 H 356.902 -0.85292 -5.42233 0
M  V30 3666 H 357.163 0.542328 -4.38761 0
M  V30 3667 N 356.222 1.38976 -0.743202 0
M  V30 3668 C 357.152 2.33171 -0.123873 0
M  V30 3669 C 358.133 1.54336 0.71516 0
M  V30 3670 O 359.318 1.82696 0.658467 0
M  V30 3671 C 356.448 3.38474 0.777978 0
M  V30 3672 C 355.402 4.27979 0.0424758 0
M  V30 3673 C 354.728 5.2405 1.06189 0
M  V30 3674 C 356.028 5.10155 -1.1198 0
M  V30 3675 H 357.722 2.85213 -0.910709 0
M  V30 3676 H 355.268 1.37133 -0.439388 0
M  V30 3677 H 357.221 4.03328 1.22084 0
M  V30 3678 H 355.945 2.84891 1.59702 0
M  V30 3679 H 354.604 3.64616 -0.380853 0
M  V30 3680 H 354.252 4.66758 1.87472 0
M  V30 3681 H 353.952 5.84785 0.574485 0
M  V30 3682 H 355.476 5.9178 1.50428 0
M  V30 3683 H 356.89 5.68307 -0.75499 0
M  V30 3684 H 355.287 5.80073 -1.53738 0
M  V30 3685 H 356.357 4.44504 -1.93764 0
M  V30 3686 N 357.7 0.491464 1.49741 0
M  V30 3687 C 358.61 -0.296835 2.32715 0
M  V30 3688 C 359.626 -0.976536 1.44013 0
M  V30 3689 O 360.802 -0.960023 1.77047 0
M  V30 3690 C 357.867 -1.35288 3.19215 0
M  V30 3691 C 356.928 -0.687632 4.23757 0
M  V30 3692 C 356.161 -1.69336 5.06123 0
M  V30 3693 O 356.384 -2.92219 4.89861 0
M  V30 3694 O 355.318 -1.25394 5.88693 0
M  V30 3695 H 359.144 0.382048 3.01287 0
M  V30 3696 H 356.729 0.252953 1.47243 0
M  V30 3697 H 358.611 -1.96411 3.72828 0
M  V30 3698 H 357.286 -2.01487 2.53347 0
M  V30 3699 H 356.193 -0.0369159 3.74082 0
M  V30 3700 H 357.526 -0.0682566 4.92153 0
M  V30 3701 N 359.178 -1.55987 0.224894 0
M  V30 3702 C 360.11 -2.17722 -0.716224 0
M  V30 3703 C 361.123 -1.14723 -1.15509 0
M  V30 3704 O 362.312 -1.41688 -1.08567 0
M  V30 3705 C 359.412 -2.74873 -1.98238 0
M  V30 3706 C 358.585 -4.03074 -1.69853 0
M  V30 3707 C 357.644 -4.44757 -2.81208 0
M  V30 3708 O 356.67 -5.11587 -2.49534 0
M  V30 3709 N 357.872 -4.10716 -4.10235 0
M  V30 3710 H 360.637 -2.99109 -0.188123 0
M  V30 3711 H 358.198 -1.6184 0.0440123 0
M  V30 3712 H 360.19 -2.99727 -2.7193 0
M  V30 3713 H 358.76 -1.9777 -2.42086 0
M  V30 3714 H 357.98 -3.86041 -0.797875 0
M  V30 3715 H 359.268 -4.86701 -1.48324 0
M  V30 3716 H 358.666 -3.57019 -4.38809 0
M  V30 3717 H 357.223 -4.40455 -4.80461 0
M  V30 3718 N 360.656 0.0484629 -1.57525 0
M  V30 3719 C 361.603 1.05504 -2.05275 0
M  V30 3720 C 362.573 1.37084 -0.937927 0
M  V30 3721 O 363.758 1.47754 -1.2072 0
M  V30 3722 C 360.898 2.35676 -2.52093 0
M  V30 3723 C 360.011 2.10423 -3.77288 0
M  V30 3724 C 359.146 3.34327 -4.12794 0
M  V30 3725 C 358.185 3.04542 -5.30962 0
M  V30 3726 N 357.322 4.20841 -5.61994 0
M  V30 3727 H 362.162 0.640885 -2.91027 0
M  V30 3728 H 359.699 0.304854 -1.43906 0
M  V30 3729 H 361.657 3.11709 -2.77297 0
M  V30 3730 H 360.287 2.7485 -1.69285 0
M  V30 3731 H 359.339 1.24976 -3.59284 0
M  V30 3732 H 360.651 1.84438 -4.63448 0
M  V30 3733 H 359.805 4.1874 -4.39024 0
M  V30 3734 H 358.544 3.63408 -3.25247 0
M  V30 3735 H 357.549 2.18528 -5.04505 0
M  V30 3736 H 358.774 2.76758 -6.20146 0
M  V30 3737 H 356.72 4.4991 -4.77406 0
M  V30 3738 H 356.637 3.98212 -6.42622 0
M  V30 3739 H 357.905 5.06184 -5.92789 0
M  V30 3740 N 362.134 1.5431 0.320358 0
M  V30 3741 C 363.382 1.72327 1.05583 0
M  V30 3742 C 363.703 0.50149 1.88441 0
M  V30 3743 O 362.973 -0.48448 1.89815 0
M  V30 3744 H 361.553 0.635387 0.3928 0
M  V30 3745 H 364.215 1.91621 0.356019 0
M  V30 3746 H 363.311 2.60426 1.72003 0
M  V30 3747 N 363.613 -0.582584 1.46437 0
M  V30 3748 C 364.838 -1.37168 1.55563 0
M  V30 3749 C 365.263 -1.87061 0.19743 0
M  V30 3750 O 364.621 -1.61572 -0.822451 0
M  V30 3751 C 364.669 -2.53511 2.56446 0
M  V30 3752 O 363.773 -3.54953 2.09958 0
M  V30 3753 H 363.114 -0.408494 0.523477 0
M  V30 3754 H 365.644 -0.706646 1.9201 0
M  V30 3755 H 365.654 -3.00426 2.76058 0
M  V30 3756 H 364.329 -2.16549 3.55076 0
M  V30 3757 H 362.906 -3.14516 2.00334 0
M  V30 3758 N 365.091 -1.34144 -0.827227 0
M  V30 3759 C 366.001 -1.27428 -1.96975 0
M  V30 3760 C 367.017 -0.182728 -1.73038 0
M  V30 3761 O 368.193 -0.408426 -1.97215 0
M  V30 3762 C 365.258 -1.02526 -3.31194 0
M  V30 3763 C 364.319 -2.20796 -3.68168 0
M  V30 3764 C 363.552 -1.97073 -4.95982 0
M  V30 3765 O 363.775 -0.926822 -5.6282 0
M  V30 3766 O 362.709 -2.83912 -5.30733 0
M  V30 3767 H 366.535 -2.23537 -2.05584 0
M  V30 3768 H 364.12 -1.14307 -0.961989 0
M  V30 3769 H 366.002 -0.904026 -4.11589 0
M  V30 3770 H 364.677 -0.0945389 -3.23562 0
M  V30 3771 H 363.584 -2.38477 -2.88235 0
M  V30 3772 H 364.917 -3.12243 -3.8048 0
M  V30 3773 N 366.569 1.04691 -1.17803 0
M  V30 3774 C 367.519 2.10856 -0.867391 0
M  V30 3775 C 368.503 1.601 0.160206 0
M  V30 3776 O 369.695 1.76948 -0.042947 0
M  V30 3777 C 366.824 3.411 -0.388012 0
M  V30 3778 C 365.91 3.9864 -1.44732 0
M  V30 3779 N 366.301 4.30075 -2.66212 0
M  V30 3780 C 364.599 4.26439 -1.30637 0
M  V30 3781 C 365.3 4.76033 -3.34317 0
M  V30 3782 N 364.276 4.76462 -2.61696 0
M  V30 3783 H 368.078 2.33029 -1.79094 0
M  V30 3784 H 365.592 1.22386 -1.0675 0
M  V30 3785 H 367.589 4.16641 -0.146994 0
M  V30 3786 H 366.249 3.20357 0.529271 0
M  V30 3787 H 367.26 4.19917 -3.03134 0
M  V30 3788 H 363.937 4.15056 -0.451129 0
M  V30 3789 H 365.327 5.09427 -4.38103 0
M  V30 3790 N 368.047 0.979072 1.23499 0
M  V30 3791 C 369.458 0.684391 1.73704 0
M  V30 3792 C 369.809 -0.799448 1.79174 0
M  V30 3793 O 368.934 -1.62531 1.42873 0
M  V30 3794 C 369.529 1.23564 3.15464 0
M  V30 3795 C 368.088 0.99063 3.6313 0
M  V30 3796 C 367.235 1.36416 2.41425 0
M  V30 3797 H 370.186 1.15307 1.09041 0
M  V30 3798 H 370.207 0.607417 3.7562 0
M  V30 3799 H 369.719 2.31561 3.1145 0
M  V30 3800 H 367.82 -0.0733136 3.72528 0
M  V30 3801 H 367.933 1.64427 4.5 0
M  V30 3802 H 366.297 0.782616 2.42378 0
M  V30 3803 H 367.08 2.45387 2.40083 0
M  V30 3804 N 369.525 -1.3858 0.750561 0
M  V30 3805 C 370.771 -2.00481 0.305825 0
M  V30 3806 C 371.104 -1.5944 -1.10872 0
M  V30 3807 O 370.379 -0.83052 -1.75877 0
M  V30 3808 C 370.662 -3.5758 0.425287 0
M  V30 3809 C 370.515 -4.08594 1.88072 0
M  V30 3810 C 371.834 -4.39719 -0.183122 0
M  V30 3811 H 368.953 -0.728348 0.112598 0
M  V30 3812 H 371.595 -1.64566 0.949638 0
M  V30 3813 H 369.745 -3.88306 -0.122828 0
M  V30 3814 H 371.417 -3.88523 2.48691 0
M  V30 3815 H 369.66 -3.61574 2.39681 0
M  V30 3816 H 370.331 -5.177 1.91548 0
M  V30 3817 H 372.807 -4.15128 0.284303 0
M  V30 3818 H 371.683 -5.48856 -0.0692757 0
M  V30 3819 H 371.944 -4.23434 -1.27106 0
M  V30 3820 N 371.003 -0.499398 -1.49478 0
M  V30 3821 C 372.419 -0.155261 -1.58843 0
M  V30 3822 C 372.619 1.34008 -1.50479 0
M  V30 3823 O 371.675 2.11589 -1.37791 0
M  V30 3824 C 372.988 -0.730636 -2.91689 0
M  V30 3825 C 374.536 -0.696599 -3.0515 0
M  V30 3826 C 375.011 -1.25001 -4.40612 0
M  V30 3827 N 376.502 -1.21064 -4.47099 0
M  V30 3828 C 377.237 -1.60905 -5.50361 0
M  V30 3829 N 376.733 -2.08331 -6.60735 0
M  V30 3830 N 378.526 -1.52331 -5.41065 0
M  V30 3831 H 370.677 -1.47162 -1.53158 0
M  V30 3832 H 372.94 -0.610309 -0.725415 0
M  V30 3833 H 372.646 -1.77928 -3.03372 0
M  V30 3834 H 372.52 -0.190161 -3.7672 0
M  V30 3835 H 374.907 0.343204 -2.93097 0
M  V30 3836 H 374.988 -1.2742 -2.21806 0
M  V30 3837 H 374.632 -2.28859 -4.53416 0
M  V30 3838 H 374.562 -0.64836 -5.22593 0
M  V30 3839 H 377.053 -0.863128 -3.67911 0
M  V30 3840 H 377.366 -2.36805 -7.35624 0
M  V30 3841 H 375.711 -2.12304 -6.6178 0
M  V30 3842 H 378.902 -1.151 -4.53729 0
M  V30 3843 H 379.075 -1.83704 -6.21415 0
M  V30 3844 N 372.481 1.55866 -0.233164 0
M  V30 3845 C 373.411 2.23783 0.666599 0
M  V30 3846 C 374.392 1.21343 1.19205 0
M  V30 3847 O 375.577 1.4996 1.23392 0
M  V30 3848 C 372.707 2.92671 1.86978 0
M  V30 3849 C 371.661 4.01682 1.47768 0
M  V30 3850 C 370.987 4.57926 2.76058 0
M  V30 3851 C 372.287 5.18126 0.658993 0
M  V30 3852 H 373.981 2.99232 0.100306 0
M  V30 3853 H 371.527 1.43924 0.046804 0
M  V30 3854 H 373.48 3.3888 2.50476 0
M  V30 3855 H 372.204 2.14688 2.46123 0
M  V30 3856 H 370.863 3.56222 0.866106 0
M  V30 3857 H 370.511 3.76659 3.33372 0
M  V30 3858 H 370.211 5.31505 2.50552 0
M  V30 3859 H 371.735 5.06859 3.40479 0
M  V30 3860 H 373.149 5.60644 1.19795 0
M  V30 3861 H 371.546 5.98009 0.500552 0
M  V30 3862 H 372.616 4.83763 -0.331856 0
M  V30 3863 N 373.959 -0.0401083 1.57549 0
M  V30 3864 C 375.205 -0.734211 1.89043 0
M  V30 3865 C 375.538 -1.75591 0.829535 0
M  V30 3866 O 374.813 -1.93868 -0.156706 0
M  V30 3867 C 375.096 -1.41374 3.31188 0
M  V30 3868 C 374.949 -0.406299 4.47961 0
M  V30 3869 C 376.268 -2.35061 3.72068 0
M  V30 3870 H 373.387 -0.265447 0.687537 0
M  V30 3871 H 376.029 0.00294087 1.9 0
M  V30 3872 H 374.179 -2.04206 3.30503 0
M  V30 3873 H 375.851 0.219255 4.60779 0
M  V30 3874 H 374.094 0.275485 4.32924 0
M  V30 3875 H 374.765 -0.920022 5.44279 0
M  V30 3876 H 377.241 -1.82282 3.74049 0
M  V30 3877 H 376.117 -2.79593 4.72355 0
M  V30 3878 H 376.378 -3.21258 3.0372 0
M  V30 3879 N 375.437 -1.54477 -0.31217 0
M  V30 3880 C 376.684 -1.73227 -1.04875 0
M  V30 3881 C 377.012 -0.512042 -1.87639 0
M  V30 3882 O 376.267 0.506131 -1.89042 0
M  V30 3883 C 376.566 -2.967 -1.99258 0
M  V30 3884 C 376.232 -4.30974 -1.32559 0
M  V30 3885 C 374.894 -4.67477 -1.141 0
M  V30 3886 C 377.246 -5.14258 -0.847835 0
M  V30 3887 C 374.574 -5.84852 -0.465326 0
M  V30 3888 C 376.926 -6.32327 -0.185931 0
M  V30 3889 C 375.59 -6.67499 0.0107077 0
M  V30 3890 H 374.86 -0.633881 -0.383765 0
M  V30 3891 H 377.507 -1.88727 -0.324731 0
M  V30 3892 H 375.812 -2.75935 -2.7815 0
M  V30 3893 H 377.509 -3.08401 -2.563 0
M  V30 3894 H 374.099 -4.02262 -1.4793 0
M  V30 3895 H 378.283 -4.86565 -0.978192 0
M  V30 3896 H 373.539 -6.10654 -0.301883 0
M  V30 3897 H 377.713 -6.96135 0.192211 0
M  V30 3898 H 375.34 -7.58306 0.536287 0
M  V30 3899 N 376.915 0.57481 -1.46744 0
M  V30 3900 C 378.163 1.33009 -1.52161 0
M  V30 3901 C 378.484 1.94185 -0.178092 0
M  V30 3902 O 377.754 1.7899 0.796196 0
M  V30 3903 H 376.334 0.493873 -0.560445 0
M  V30 3904 H 378.996 0.672589 -1.82927 0
M  V30 3905 H 378.092 2.13273 -2.27862 0
M  V30 3906 N 378.394 1.34581 0.820102 0
M  V30 3907 C 379.64 1.27285 1.57881 0
M  V30 3908 C 379.973 -0.156137 1.93571 0
M  V30 3909 O 379.248 -1.10222 1.60254 0
M  V30 3910 C 379.531 2.16639 2.87645 0
M  V30 3911 C 379.384 3.68088 2.58517 0
M  V30 3912 C 380.703 2.05378 3.8924 0
M  V30 3913 H 377.822 0.463714 0.572833 0
M  V30 3914 H 380.464 1.64859 0.944539 0
M  V30 3915 H 378.614 1.84725 3.41773 0
M  V30 3916 H 380.286 4.10382 2.10676 0
M  V30 3917 H 378.529 3.89038 1.91917 0
M  V30 3918 H 379.2 4.2598 3.51063 0
M  V30 3919 H 381.676 2.33404 3.44473 0
M  V30 3920 H 380.552 2.7012 4.77835 0
M  V30 3921 H 380.813 1.0316 4.29896 0
M  V30 3922 N 379.872 -1.04064 1.18357 0
M  V30 3923 C 381.1 -1.80916 1.00384 0
M  V30 3924 C 381.515 -1.83414 -0.447738 0
M  V30 3925 O 380.872 -1.26962 -1.31099 0
M  V30 3926 C 380.923 -3.26516 1.55144 0
M  V30 3927 O 380.644 -3.2424 2.94618 0
M  V30 3928 C 382.145 -4.20013 1.41789 0
M  V30 3929 H 379.365 -0.569728 0.354474 0
M  V30 3930 H 381.909 -1.31151 1.56906 0
M  V30 3931 H 380.064 -3.73512 1.02798 0
M  V30 3932 H 380.478 -4.15452 3.20156 0
M  V30 3933 H 381.952 -5.20111 1.84901 0
M  V30 3934 H 382.429 -4.37667 0.36661 0
M  V30 3935 H 383.035 -3.78881 1.93207 0
M  V30 3936 N 381.35 -0.985608 -1.22978 0
M  V30 3937 C 382.282 -0.488154 -2.23941 0
M  V30 3938 C 383.295 0.41282 -1.57479 0
M  V30 3939 O 384.484 0.216121 -1.77187 0
M  V30 3940 C 381.584 0.312611 -3.37455 0
M  V30 3941 C 380.757 -0.582741 -4.33501 0
M  V30 3942 C 379.816 0.165064 -5.25941 0
M  V30 3943 O 378.842 -0.447077 -5.67442 0
M  V30 3944 N 380.044 1.44953 -5.62111 0
M  V30 3945 H 382.809 -1.3563 -2.67254 0
M  V30 3946 H 380.37 -0.859477 -1.37203 0
M  V30 3947 H 382.362 0.821357 -3.96277 0
M  V30 3948 H 380.932 1.0818 -2.93285 0
M  V30 3949 H 380.152 -1.27225 -3.73105 0
M  V30 3950 H 381.44 -1.19275 -4.94622 0
M  V30 3951 H 380.838 1.9683 -5.30353 0
M  V30 3952 H 379.395 1.90361 -6.23383 0
M  V30 3953 N 382.828 1.3818 -0.7579 0
M  V30 3954 C 384.105 1.94106 -0.241306 0
M  V30 3955 C 384.485 1.69282 1.26122 0
M  V30 3956 O 383.833 1.03378 2.03777 0
M  V30 3957 C 384.043 3.43809 -0.59967 0
M  V30 3958 C 385.391 4.20868 -0.561717 0
M  V30 3959 O 386.415 3.5211 -0.538222 0
M  V30 3960 O 385.274 5.43451 -0.576478 0
M  V30 3961 H 382.368 0.825376 -0.0518042 0
M  V30 3962 H 384.914 1.47548 -0.838315 0
M  V30 3963 H 383.686 3.55403 -1.6372 0
M  V30 3964 H 383.309 3.97592 0.0251197 0
M  V30 3965 N 384.306 0.507319 1.49211 0
M  V30 3966 C 385.546 -0.0332372 2.04373 0
M  V30 3967 C 385.91 -1.33694 1.37804 0
M  V30 3968 O 387.111 -1.96213 1.83722 0
M  V30 3969 C 385.382 -0.17599 3.56966 0
M  V30 3970 S 386.941 -0.669882 4.33657 0
M  V30 3971 H 383.759 0.00123603 0.710999 0
M  V30 3972 H 386.361 0.682725 1.83191 0
M  V30 3973 H 385.065 0.778053 4.02957 0
M  V30 3974 H 384.596 -0.917005 3.82563 0
M  V30 3975 H 386.611 -1.93806 4.56786 0
M  V30 3976 N 385.784 -1.5574 0.241426 0
M  V30 3977 C 387.061 -1.90704 -0.434881 0
M  V30 3978 C 387.441 -1.16145 -1.76277 0
M  V30 3979 O 386.789 -0.277152 -2.26813 0
M  V30 3980 C 386.999 -3.43657 -0.608343 0
M  V30 3981 C 388.347 -4.14806 -0.906725 0
M  V30 3982 O 389.371 -3.49366 -0.694408 0
M  V30 3983 O 388.23 -5.30548 -1.31075 0
M  V30 3984 H 385.324 -0.793592 -0.23268 0
M  V30 3985 H 387.87 -1.67288 0.285086 0
M  V30 3986 H 386.642 -3.89927 0.327505 0
M  V30 3987 H 386.265 -3.72918 -1.37906 0
M  V30 3988 N 387.262 0.0317525 -1.57568 0
M  V30 3989 C 388.192 1.03274 -2.0942 0
M  V30 3990 C 389.173 1.3788 -0.996143 0
M  V30 3991 O 390.358 1.46811 -1.27122 0
M  V30 3992 C 387.488 2.33448 -2.57137 0
M  V30 3993 C 386.442 2.13091 -3.71182 0
M  V30 3994 C 385.768 3.49001 -4.05095 0
M  V30 3995 C 387.068 1.51928 -4.99715 0
M  V30 3996 H 388.762 0.60112 -2.93303 0
M  V30 3997 H 386.308 0.287705 -1.41097 0
M  V30 3998 H 388.261 3.03802 -2.92032 0
M  V30 3999 H 386.985 2.78665 -1.70333 0
M  V30 4000 H 385.644 1.45171 -3.36632 0
M  V30 4001 H 385.292 3.91862 -3.15362 0
M  V30 4002 H 384.992 3.36207 -4.81911 0
M  V30 4003 H 386.516 4.20721 -4.42522 0
M  V30 4004 H 387.93 2.12196 -5.32584 0
M  V30 4005 H 386.327 1.49716 -5.81124 0
M  V30 4006 H 387.397 0.484811 -4.8247 0
M  V30 4007 N 388.74 1.54641 0.303973 0
M  V30 4008 C 389.986 1.74038 1.04109 0
M  V30 4009 C 390.319 0.523051 1.87024 0
M  V30 4010 O 389.594 -0.479874 1.88487 0
M  V30 4011 C 389.877 3.02761 1.94955 0
M  V30 4012 C 389.73 4.34787 1.1524 0
M  V30 4013 C 391.049 3.27336 2.94175 0
M  V30 4014 H 388.168 0.63323 0.377079 0
M  V30 4015 H 390.81 1.87354 0.316001 0
M  V30 4016 H 388.96 2.9154 2.56782 0
M  V30 4017 H 390.632 4.57922 0.557236 0
M  V30 4018 H 388.875 4.31407 0.455053 0
M  V30 4019 H 389.546 5.21116 1.8205 0
M  V30 4020 H 392.022 3.38148 2.42477 0
M  V30 4021 H 390.898 4.18726 3.54908 0
M  V30 4022 H 391.159 2.45491 3.67677 0
M  V30 4023 N 390.218 -0.567019 1.47046 0
M  V30 4024 C 391.181 -1.65696 1.58359 0
M  V30 4025 C 392.181 -1.54097 0.459441 0
M  V30 4026 O 393.371 -1.58432 0.724225 0
M  V30 4027 C 390.503 -3.05197 1.51879 0
M  V30 4028 H 391.696 -1.57019 2.5551 0
M  V30 4029 H 389.249 -0.786148 1.3509 0
M  V30 4030 H 389.984 -3.19417 0.560673 0
M  V30 4031 H 389.769 -3.15025 2.33455 0
M  V30 4032 H 391.259 -3.84511 1.62913 0
M  V30 4033 N 391.696 -1.35014 -0.812953 0
M  V30 4034 C 392.626 -1.30069 -1.93919 0
M  V30 4035 C 393.607 -0.176275 -1.69184 0
M  V30 4036 O 394.792 -0.370227 -1.90638 0
M  V30 4037 C 391.922 -1.06547 -3.30552 0
M  V30 4038 C 390.876 -2.15561 -3.69753 0
M  V30 4039 C 390.202 -1.77214 -5.04479 0
M  V30 4040 C 391.502 -3.57476 -3.808 0
M  V30 4041 H 393.196 -2.24303 -1.98314 0
M  V30 4042 H 390.742 -1.07977 -0.952736 0
M  V30 4043 H 392.695 -1.01729 -4.08937 0
M  V30 4044 H 391.419 -0.0875719 -3.26483 0
M  V30 4045 H 390.078 -2.19466 -2.9365 0
M  V30 4046 H 389.726 -0.780589 -4.96906 0
M  V30 4047 H 389.426 -2.50184 -5.31678 0
M  V30 4048 H 390.95 -1.7391 -5.8531 0
M  V30 4049 H 392.364 -3.55929 -4.4943 0
M  V30 4050 H 390.761 -4.29152 -4.19462 0
M  V30 4051 H 391.831 -3.94091 -2.82525 0
M  V30 4052 N 393.175 1.03435 -1.18907 0
M  V30 4053 C 394.085 2.15075 -0.937015 0
M  V30 4054 C 395.101 1.73706 0.101085 0
M  V30 4055 O 396.277 2.01232 -0.0822948 0
M  V30 4056 C 393.342 3.43458 -0.473057 0
M  V30 4057 C 392.403 3.99172 -1.57989 0
M  V30 4058 C 391.636 5.21427 -1.13797 0
M  V30 4059 O 391.859 5.704 0.000725941 0
M  V30 4060 O 390.793 5.69837 -1.9383 0
M  V30 4061 H 394.619 2.39198 -1.87131 0
M  V30 4062 H 392.204 1.13506 -0.971427 0
M  V30 4063 H 394.086 4.20811 -0.222702 0
M  V30 4064 H 392.761 3.20793 0.432869 0
M  V30 4065 H 391.668 3.23178 -1.88433 0
M  V30 4066 H 393.001 4.2619 -2.46217 0
M  V30 4067 N 394.653 0.992116 1.22453 0
M  V30 4068 C 395.585 0.500024 2.23679 0
M  V30 4069 C 396.598 -0.404463 1.57696 0
M  V30 4070 O 397.787 -0.206722 1.77299 0
M  V30 4071 C 394.887 -0.294711 3.37616 0
M  V30 4072 C 394.06 0.605723 4.33186 0
M  V30 4073 C 393.119 -0.13717 5.26021 0
M  V30 4074 O 392.145 0.477164 5.67196 0
M  V30 4075 N 393.347 -1.4197 5.62872 0
M  V30 4076 H 396.112 1.37045 2.66531 0
M  V30 4077 H 393.673 0.866741 1.36745 0
M  V30 4078 H 395.665 -0.800329 3.96707 0
M  V30 4079 H 394.235 -1.06623 2.93854 0
M  V30 4080 H 393.455 1.29202 3.72425 0
M  V30 4081 H 394.743 1.21896 4.93983 0
M  V30 4082 H 394.141 -1.94015 5.31389 0
M  V30 4083 H 392.698 -1.87052 6.24383 0
M  V30 4084 N 396.131 -1.37776 0.765217 0
M  V30 4085 C 397.061 -2.32945 0.160953 0
M  V30 4086 C 398.042 -1.55454 -0.690516 0
M  V30 4087 O 399.227 -1.83721 -0.629318 0
M  V30 4088 C 396.357 -3.39669 -0.724031 0
M  V30 4089 C 395.311 -4.27992 0.0256173 0
M  V30 4090 C 394.637 -5.25673 -0.978383 0
M  V30 4091 C 395.937 -5.08309 1.20082 0
M  V30 4092 H 397.631 -2.83728 0.955969 0
M  V30 4093 H 395.177 -1.36416 0.461149 0
M  V30 4094 H 397.13 -4.05219 -1.15652 0
M  V30 4095 H 395.854 -2.87396 -1.5515 0
M  V30 4096 H 394.513 -3.63964 0.438812 0
M  V30 4097 H 394.161 -4.69682 -1.80022 0
M  V30 4098 H 393.861 -5.85625 -0.481378 0
M  V30 4099 H 395.385 -5.94098 -1.40995 0
M  V30 4100 H 396.799 -5.67034 0.845307 0
M  V30 4101 H 395.196 -5.77554 1.62947 0
M  V30 4102 H 396.266 -4.41365 2.00811 0
M  V30 4103 N 397.609 -0.515225 -1.4894 0
M  V30 4104 C 398.886 0.0879088 -1.95402 0
M  V30 4105 C 399.266 1.52745 -1.45712 0
M  V30 4106 O 398.614 2.18238 -0.677093 0
M  V30 4107 C 398.824 -0.0141055 -3.48997 0
M  V30 4108 C 400.172 0.152646 -4.24326 0
M  V30 4109 O 401.196 0.0604025 -3.56149 0
M  V30 4110 O 400.055 0.34384 -5.45417 0
M  V30 4111 H 397.149 0.0874636 -0.822362 0
M  V30 4112 H 399.695 -0.578775 -1.59525 0
M  V30 4113 H 398.467 -1.01745 -3.77841 0
M  V30 4114 H 398.09 0.692091 -3.9153 0
M  V30 4115 N 399.087 1.5561 -0.249682 0
M  V30 4116 C 400.05 2.20217 0.635394 0
M  V30 4117 C 401.05 1.17227 1.10066 0
M  V30 4118 O 402.24 1.42292 1.00492 0
M  V30 4119 C 399.372 2.84794 1.87363 0
M  V30 4120 H 400.565 2.99814 0.0716752 0
M  V30 4121 H 398.118 1.563 -0.000153234 0
M  V30 4122 H 398.853 2.09142 2.47851 0
M  V30 4123 H 398.638 3.60241 1.5482 0
M  V30 4124 H 400.128 3.3423 2.5036 0
M  V30 4125 N 400.565 -0.0233959 1.57583 0
M  V30 4126 C 401.495 -1.02162 2.09965 0
M  V30 4127 C 402.476 -1.3735 1.00344 0
M  V30 4128 O 403.661 -1.46135 1.27899 0
M  V30 4129 C 400.791 -2.32081 2.58371 0
M  V30 4130 C 399.745 -2.1112 3.72307 0
M  V30 4131 C 399.071 -3.46848 4.06941 0
M  V30 4132 C 400.371 -1.49276 5.00514 0
M  V30 4133 H 402.065 -0.585557 2.93618 0
M  V30 4134 H 399.611 -0.280218 1.41247 0
M  V30 4135 H 401.564 -3.02249 2.93639 0
M  V30 4136 H 400.288 -2.77758 1.71808 0
M  V30 4137 H 398.947 -1.43384 3.37397 0
M  V30 4138 H 398.595 -3.90184 3.17436 0
M  V30 4139 H 398.295 -3.33646 4.83688 0
M  V30 4140 H 399.819 -4.18369 4.44747 0
M  V30 4141 H 401.233 -2.09368 5.33702 0
M  V30 4142 H 399.63 -1.46632 5.8191 0
M  V30 4143 H 400.7 -0.459217 4.82721 0
M  V30 4144 N 402.043 -1.548 -0.295768 0
M  V30 4145 C 402.975 -1.82492 -1.3867 0
M  V30 4146 C 403.988 -0.708134 -1.46592 0
M  V30 4147 O 405.177 -0.985686 -1.48817 0
M  V30 4148 C 402.277 -1.95256 -2.76999 0
M  V30 4149 C 401.45 -3.25709 -2.91946 0
M  V30 4150 C 400.509 -3.28824 -4.10806 0
M  V30 4151 O 399.535 -4.02328 -4.02643 0
M  V30 4152 N 400.737 -2.5459 -5.21694 0
M  V30 4153 H 403.502 -2.76646 -1.15269 0
M  V30 4154 H 401.063 -1.54438 -0.485849 0
M  V30 4155 H 403.055 -1.94736 -3.54768 0
M  V30 4156 H 401.625 -1.08072 -2.93324 0
M  V30 4157 H 400.845 -3.38959 -2.01247 0
M  V30 4158 H 402.133 -4.11786 -2.98847 0
M  V30 4159 H 401.531 -1.94512 -5.31208 0
M  V30 4160 H 400.088 -2.59818 -5.97778 0
M  V30 4161 N 403.521 0.559213 -1.47345 0
M  V30 4162 C 404.453 1.68161 -1.55738 0
M  V30 4163 C 405.466 1.56636 -0.443744 0
M  V30 4164 O 406.655 1.6363 -0.713258 0
M  V30 4165 C 403.755 3.06611 -1.4437 0
M  V30 4166 C 402.928 3.4391 -2.70268 0
M  V30 4167 C 401.987 4.61515 -2.52765 0
M  V30 4168 O 401.013 4.66197 -3.26572 0
M  V30 4169 N 402.215 5.57883 -1.6046 0
M  V30 4170 H 404.98 1.61408 -2.52522 0
M  V30 4171 H 402.541 0.7458 -1.43699 0
M  V30 4172 H 404.533 3.83117 -1.30398 0
M  V30 4173 H 403.103 3.07602 -0.556766 0
M  V30 4174 H 402.323 2.56873 -2.99015 0
M  V30 4175 H 403.611 3.65605 -3.53851 0
M  V30 4176 H 403.009 5.56855 -0.996422 0
M  V30 4177 H 401.566 6.33723 -1.52441 0
M  V30 4178 N 404.999 1.35443 0.805782 0
M  V30 4179 C 405.946 1.28431 1.91766 0
M  V30 4180 C 406.916 0.156102 1.65365 0
M  V30 4181 O 408.101 0.339936 1.87747 0
M  V30 4182 C 405.241 1.06301 3.2832 0
M  V30 4183 C 404.354 2.2805 3.66902 0
M  V30 4184 C 403.489 1.99064 4.92491 0
M  V30 4185 C 402.528 3.16863 5.23703 0
M  V30 4186 N 401.665 2.87647 6.40471 0
M  V30 4187 H 406.505 2.23511 1.97096 0
M  V30 4188 H 404.042 1.11105 0.964054 0
M  V30 4189 H 406 0.915012 4.07042 0
M  V30 4190 H 404.63 0.148822 3.22457 0
M  V30 4191 H 403.682 2.53711 2.83434 0
M  V30 4192 H 404.994 3.1601 3.85927 0
M  V30 4193 H 404.148 1.81099 5.7904 0
M  V30 4194 H 402.887 1.0839 4.75503 0
M  V30 4195 H 401.892 3.35404 4.35642 0
M  V30 4196 H 403.117 4.08339 5.4262 0
M  V30 4197 H 401.063 1.99568 6.24907 0
M  V30 4198 H 400.98 3.69141 6.59751 0
M  V30 4199 H 402.248 2.73226 7.30047 0
M  V30 4200 N 406.477 -1.02803 1.19454 0
M  V30 4201 C 407.407 -2.12999 0.956758 0
M  V30 4202 C 408.388 -1.69743 -0.110188 0
M  V30 4203 O 409.573 -1.94148 0.0450038 0
M  V30 4204 C 406.703 -3.43746 0.495553 0
M  V30 4205 C 405.657 -4.00688 1.50443 0
M  V30 4206 C 404.983 -5.27067 0.900275 0
M  V30 4207 C 406.283 -4.35397 2.8849 0
M  V30 4208 H 407.977 -2.33148 1.87836 0
M  V30 4209 H 405.523 -1.12045 0.904539 0
M  V30 4210 H 407.476 -4.2021 0.316493 0
M  V30 4211 H 406.2 -3.23321 -0.461646 0
M  V30 4212 H 404.859 -3.2632 1.67065 0
M  V30 4213 H 404.507 -5.02959 -0.064503 0
M  V30 4214 H 404.207 -5.66127 1.57397 0
M  V30 4215 H 405.731 -6.06196 0.73203 0
M  V30 4216 H 407.145 -5.02795 2.75446 0
M  V30 4217 H 405.542 -4.85541 3.52661 0
M  V30 4218 H 406.612 -3.44662 3.41081 0
M  V30 4219 N 407.956 -0.998596 -1.21925 0
M  V30 4220 C 409.367 -0.711939 -1.72593 0
M  V30 4221 C 409.718 0.770842 -1.80423 0
M  V30 4222 O 408.843 1.60237 -1.4544 0
M  V30 4223 C 409.438 -1.28567 -3.13458 0
M  V30 4224 C 407.997 -1.04828 -3.61508 0
M  V30 4225 C 407.144 -1.4024 -2.39224 0
M  V30 4226 H 410.095 -1.17027 -1.07193 0
M  V30 4227 H 410.116 -0.667098 -3.74607 0
M  V30 4228 H 409.628 -2.36486 -3.07727 0
M  V30 4229 H 407.729 0.0140383 -3.72597 0
M  V30 4230 H 407.842 -1.71566 -4.47328 0
M  V30 4231 H 406.206 -0.821077 -2.41103 0
M  V30 4232 H 406.989 -2.49176 -2.36149 0
M  V30 4233 N 409.434 1.37368 -0.772513 0
M  V30 4234 C 410.68 2.00423 -0.3467 0
M  V30 4235 C 411.035 1.60224 1.06518 0
M  V30 4236 O 410.328 0.838712 1.72268 0
M  V30 4237 C 410.522 3.54817 -0.428876 0
M  V30 4238 C 410.351 4.10011 -1.84719 0
M  V30 4239 C 409.121 4.40927 -2.46803 0
M  V30 4240 C 411.319 4.30955 -2.80681 0
M  V30 4241 N 409.301 4.8184 -3.80399 0
M  V30 4242 C 410.672 4.74486 -3.99078 0
M  V30 4243 C 412.727 4.1309 -2.77958 0
M  V30 4244 C 411.43 5.02023 -5.15136 0
M  V30 4245 C 413.456 4.41764 -3.9319 0
M  V30 4246 C 412.818 4.85535 -5.10328 0
M  V30 4247 H 408.917 0.762413 -0.173927 0
M  V30 4248 H 411.501 1.66666 -1.00651 0
M  V30 4249 H 409.672 3.87881 0.200757 0
M  V30 4250 H 411.404 4.04696 0.0190668 0
M  V30 4251 H 408.159 4.30033 -1.98415 0
M  V30 4252 H 408.583 5.06604 -4.49089 0
M  V30 4253 H 413.225 3.7842 -1.88568 0
M  V30 4254 H 410.943 5.35582 -6.05126 0
M  V30 4255 H 414.529 4.29528 -3.92425 0
M  V30 4256 H 413.409 5.07296 -5.98013 0
M  V30 4257 N 410.912 0.523116 1.48665 0
M  V30 4258 C 412.159 -0.0134763 2.02496 0
M  V30 4259 C 412.487 -1.3493 1.40086 0
M  V30 4260 O 411.742 -1.88286 0.533567 0
M  V30 4261 C 412.041 -0.191671 3.56886 0
M  V30 4262 C 411.707 1.06893 4.38046 0
M  V30 4263 C 410.369 1.41443 4.59943 0
M  V30 4264 C 412.721 1.90584 4.85106 0
M  V30 4265 C 410.049 2.59594 5.26144 0
M  V30 4266 C 412.401 3.07907 5.52609 0
M  V30 4267 C 411.065 3.42811 5.72745 0
M  V30 4268 H 410.335 -0.00493133 0.740984 0
M  V30 4269 H 412.982 0.687751 1.78724 0
M  V30 4270 H 411.287 -0.97561 3.79459 0
M  V30 4271 H 412.984 -0.621659 3.96152 0
M  V30 4272 H 409.574 0.789848 4.21259 0
M  V30 4273 H 413.758 1.65203 4.67997 0
M  V30 4274 H 409.014 2.86847 5.39934 0
M  V30 4275 H 413.188 3.73066 5.88043 0
M  V30 4276 H 410.815 4.34462 6.23816 0
M  V30 4277 N 412.39 -1.55475 0.257931 0
M  V30 4278 C 413.3 -2.2549 -0.647425 0
M  V30 4279 C 414.316 -1.2748 -1.18427 0
M  V30 4280 O 415.492 -1.6038 -1.2182 0
M  V30 4281 C 412.557 -2.94916 -1.82278 0
M  V30 4282 C 411.618 -4.08363 -1.32432 0
M  V30 4283 C 410.851 -4.74469 -2.44366 0
M  V30 4284 O 411.074 -4.39701 -3.63344 0
M  V30 4285 O 410.008 -5.62763 -2.13497 0
M  V30 4286 H 413.834 -3.03593 -0.0807707 0
M  V30 4287 H 411.419 -1.49377 0.0259962 0
M  V30 4288 H 413.301 -3.38606 -2.50846 0
M  V30 4289 H 411.976 -2.19744 -2.37685 0
M  V30 4290 H 410.883 -3.69166 -0.605605 0
M  V30 4291 H 412.216 -4.85385 -0.816211 0
M  V30 4292 N 413.868 0.0150385 -1.57593 0
M  V30 4293 C 415.098 0.713359 -1.93894 0
M  V30 4294 C 415.506 1.68663 -0.857289 0
M  V30 4295 O 414.849 1.82876 0.173788 0
M  V30 4296 C 414.911 1.51348 -3.26089 0
M  V30 4297 C 414.575 0.703451 -4.51554 0
M  V30 4298 C 415.572 -0.00237924 -5.199 0
M  V30 4299 C 413.257 0.653854 -4.98026 0
M  V30 4300 C 415.251 -0.746955 -6.33008 0
M  V30 4301 C 412.938 -0.0944578 -6.11027 0
M  V30 4302 C 413.936 -0.793609 -6.78374 0
M  V30 4303 O 413.624 -1.52974 -7.89211 0
M  V30 4304 H 413.356 0.204637 -0.644282 0
M  V30 4305 H 415.91 -0.0276411 -2.05381 0
M  V30 4306 H 414.14 2.29862 -3.10967 0
M  V30 4307 H 415.829 2.09572 -3.47612 0
M  V30 4308 H 416.595 0.0268803 -4.84993 0
M  V30 4309 H 412.474 1.18756 -4.45441 0
M  V30 4310 H 416.018 -1.2932 -6.85509 0
M  V30 4311 H 411.915 -0.125591 -6.45378 0
M  V30 4312 H 412.683 -1.44488 -8.05646 0
M  V30 4313 N 415.346 1.54954 0.287554 0
M  V30 4314 C 416.762 1.46469 0.633964 0
M  V30 4315 C 416.962 0.666865 1.90145 0
M  V30 4316 O 416.018 0.179906 2.51858 0
M  V30 4317 C 417.331 2.90556 0.774454 0
M  V30 4318 C 418.879 3.00681 0.869462 0
M  V30 4319 C 419.354 4.45993 1.04184 0
M  V30 4320 N 420.845 4.4976 1.10772 0
M  V30 4321 C 421.58 5.59393 1.25964 0
M  V30 4322 N 421.076 6.78923 1.37968 0
M  V30 4323 N 422.869 5.47107 1.28959 0
M  V30 4324 H 415.02 2.05288 -0.545041 0
M  V30 4325 H 417.283 0.930305 -0.182308 0
M  V30 4326 H 416.989 3.51594 -0.086207 0
M  V30 4327 H 416.863 3.38743 1.6593 0
M  V30 4328 H 419.25 2.39749 1.7206 0
M  V30 4329 H 419.331 2.55769 -0.0396831 0
M  V30 4330 H 418.975 5.07524 0.195422 0
M  V30 4331 H 418.905 4.88548 1.96542 0
M  V30 4332 H 421.396 3.63651 1.02794 0
M  V30 4333 H 421.709 7.58231 1.49353 0
M  V30 4334 H 420.054 6.81763 1.34999 0
M  V30 4335 H 423.245 4.52668 1.19202 0
M  V30 4336 H 423.418 6.32595 1.40455 0
M  V30 4337 N 416.824 -0.551391 1.4764 0
M  V30 4338 C 418.052 -1.33357 1.58189 0
M  V30 4339 C 418.467 -1.87342 0.234199 0
M  V30 4340 O 417.824 -1.65301 -0.77343 0
M  V30 4341 C 417.875 -2.49942 2.61173 0
M  V30 4342 O 417.596 -1.98187 3.90709 0
M  V30 4343 C 419.097 -3.42072 2.8196 0
M  V30 4344 H 416.317 -0.40631 0.533998 0
M  V30 4345 H 418.861 -0.667367 1.93304 0
M  V30 4346 H 417.016 -3.12489 2.28975 0
M  V30 4347 H 417.43 -2.74342 4.47031 0
M  V30 4348 H 418.904 -4.20278 3.57869 0
M  V30 4349 H 419.381 -3.95978 1.89995 0
M  V30 4350 H 419.987 -2.85336 3.15378 0
M  V30 4351 N 418.302 -1.35869 -0.798587 0
M  V30 4352 C 419.548 -1.2978 -1.55836 0
M  V30 4353 C 419.881 0.125322 -1.93795 0
M  V30 4354 O 419.156 1.07658 -1.61987 0
M  V30 4355 C 419.439 -2.21188 -2.84162 0
M  V30 4356 C 419.292 -3.72155 -2.52628 0
M  V30 4357 C 420.611 -2.11545 -3.85923 0
M  V30 4358 H 417.73 -0.472769 -0.565383 0
M  V30 4359 H 420.372 -1.66341 -0.918192 0
M  V30 4360 H 418.522 -1.90139 -3.38791 0
M  V30 4361 H 420.194 -4.13682 -2.04121 0
M  V30 4362 H 418.437 -3.92042 -1.85704 0
M  V30 4363 H 419.108 -4.31511 -3.44242 0
M  V30 4364 H 421.584 -2.38855 -3.40716 0
M  V30 4365 H 420.46 -2.77688 -4.73477 0
M  V30 4366 H 420.721 -1.09987 -4.282 0
M  V30 4367 N 419.78 1.02168 -1.19998 0
M  V30 4368 C 421.026 1.75945 -1.00852 0
M  V30 4369 C 421.359 1.88702 0.458828 0
M  V30 4370 O 420.634 1.40911 1.34069 0
M  V30 4371 C 420.917 3.18154 -1.68671 0
M  V30 4372 C 420.77 3.13224 -3.22817 0
M  V30 4373 C 422.089 4.16711 -1.41561 0
M  V30 4374 H 419.208 0.638673 -0.367785 0
M  V30 4375 H 421.85 1.19222 -1.4794 0
M  V30 4376 H 420 3.66586 -1.28636 0
M  V30 4377 H 421.672 2.72635 -3.72112 0
M  V30 4378 H 419.915 2.50751 -3.53986 0
M  V30 4379 H 420.586 4.13728 -3.65422 0
M  V30 4380 H 423.062 3.76913 -1.76284 0
M  V30 4381 H 421.938 5.14391 -1.91553 0
M  V30 4382 H 422.199 4.40774 -0.342193 0
M  V30 4383 N 421.258 1.00505 1.21394 0
M  V30 4384 C 422.221 0.570459 2.21987 0
M  V30 4385 C 423.221 -0.353211 1.56873 0
M  V30 4386 O 424.411 -0.14349 1.73608 0
M  V30 4387 C 421.543 -0.168555 3.40483 0
M  V30 4388 H 422.736 1.46021 2.6195 0
M  V30 4389 H 420.289 0.793565 1.34656 0
M  V30 4390 H 421.024 -1.07374 3.06009 0
M  V30 4391 H 420.809 0.494823 3.88965 0
M  V30 4392 H 422.299 -0.460362 4.15055 0
M  V30 4393 N 422.737 -1.36956 0.779787 0
M  V30 4394 C 423.687 -2.27539 0.144892 0
M  V30 4395 C 424.671 -1.46493 -0.665488 0
M  V30 4396 O 425.863 -1.68968 -0.527141 0
M  V30 4397 C 422.992 -3.35512 -0.727082 0
M  V30 4398 C 422.078 -4.24001 0.0915642 0
M  V30 4399 N 422.469 -4.92757 1.14125 0
M  V30 4400 C 420.767 -4.45807 -0.131141 0
M  V30 4401 C 421.468 -5.58138 1.6388 0
M  V30 4402 N 420.444 -5.35241 0.94962 0
M  V30 4403 H 424.246 -2.78176 0.948446 0
M  V30 4404 H 421.76 -1.50169 0.618315 0
M  V30 4405 H 423.757 -3.99324 -1.19776 0
M  V30 4406 H 422.417 -2.86431 -1.52929 0
M  V30 4407 H 423.428 -4.94984 1.52353 0
M  V30 4408 H 420.105 -4.07582 -0.904621 0
M  V30 4409 H 421.495 -6.23071 2.51461 0
M  V30 4410 N 424.215 -0.530993 -1.48385 0
M  V30 4411 C 425.178 0.220497 -2.28137 0
M  V30 4412 C 426.178 0.866851 -1.35434 0
M  V30 4413 O 427.368 0.726746 -1.58316 0
M  V30 4414 C 424.5 1.31921 -3.1434 0
M  V30 4415 H 425.693 -0.479714 -2.96038 0
M  V30 4416 H 423.246 -0.286968 -1.53643 0
M  V30 4417 H 423.981 2.05264 -2.51072 0
M  V30 4418 H 423.766 0.86085 -3.82533 0
M  V30 4419 H 425.256 1.84776 -3.74497 0
M  V30 4420 N 425.693 1.55336 -0.266172 0
M  V30 4421 C 426.603 2.2583 0.635458 0
M  V30 4422 C 427.619 1.28106 1.17749 0
M  V30 4423 O 428.795 1.61024 1.20968 0
M  V30 4424 C 425.86 2.95879 1.80712 0
M  V30 4425 C 424.921 4.09059 1.30265 0
M  V30 4426 C 424.154 4.75759 2.41846 0
M  V30 4427 O 424.377 4.41622 3.61007 0
M  V30 4428 O 423.311 5.63888 2.1051 0
M  V30 4429 H 427.137 3.03631 0.0646693 0
M  V30 4430 H 424.722 1.49361 -0.0339177 0
M  V30 4431 H 426.604 3.39932 2.49047 0
M  V30 4432 H 425.279 2.21002 2.36516 0
M  V30 4433 H 424.186 3.69482 0.586019 0
M  V30 4434 H 425.519 4.85811 0.790458 0
M  V30 4435 N 427.171 -0.0066808 1.57599 0
M  V30 4436 C 428.396 -0.707738 1.94951 0
M  V30 4437 C 428.821 -1.66882 0.867868 0
M  V30 4438 O 428.179 -1.80457 -0.17458 0
M  V30 4439 C 428.227 -1.42162 3.31394 0
M  V30 4440 O 427.331 -2.53578 3.25226 0
M  V30 4441 H 426.672 -0.188752 0.636607 0
M  V30 4442 H 429.202 0.0445193 2.04552 0
M  V30 4443 H 429.212 -1.78655 3.66806 0
M  V30 4444 H 427.887 -0.716903 4.09675 0
M  V30 4445 H 426.464 -2.19463 3.01481 0
M  V30 4446 N 428.649 -1.55105 -0.279332 0
M  V30 4447 C 429.581 -1.83952 -1.36727 0
M  V30 4448 C 430.594 -0.723642 -1.45833 0
M  V30 4449 O 431.783 -1.00141 -1.47763 0
M  V30 4450 C 428.883 -1.98183 -2.74912 0
M  V30 4451 C 428.056 -3.28787 -2.88475 0
M  V30 4452 C 427.115 -3.33162 -4.07295 0
M  V30 4453 O 426.141 -4.06576 -3.98353 0
M  V30 4454 N 427.343 -2.60109 -5.18964 0
M  V30 4455 H 430.108 -2.77853 -1.12328 0
M  V30 4456 H 427.669 -1.54945 -0.469442 0
M  V30 4457 H 429.661 -1.98488 -3.52682 0
M  V30 4458 H 428.231 -1.11177 -2.92162 0
M  V30 4459 H 427.451 -3.41075 -1.97641 0
M  V30 4460 H 428.739 -4.14933 -2.94463 0
M  V30 4461 H 428.137 -2.00136 -5.29115 0
M  V30 4462 H 426.694 -2.66143 -5.94988 0
M  V30 4463 N 430.127 0.543554 -1.4793 0
M  V30 4464 C 431.077 1.64527 -1.57844 0
M  V30 4465 C 432.061 1.54869 -0.436408 0
M  V30 4466 O 433.253 1.63119 -0.687101 0
M  V30 4467 C 430.382 3.03281 -1.6086 0
M  V30 4468 C 429.468 3.18093 -2.80495 0
M  V30 4469 N 429.859 3.02923 -4.05057 0
M  V30 4470 C 428.157 3.49121 -2.77543 0
M  V30 4471 C 428.858 3.20791 -4.85251 0
M  V30 4472 N 427.834 3.47749 -4.17818 0
M  V30 4473 H 431.636 1.51388 -2.5191 0
M  V30 4474 H 429.15 0.748671 -1.44113 0
M  V30 4475 H 431.147 3.82403 -1.66054 0
M  V30 4476 H 429.807 3.17521 -0.678996 0
M  V30 4477 H 430.818 2.79966 -4.35705 0
M  V30 4478 H 427.495 3.69804 -1.93781 0
M  V30 4479 H 428.885 3.13915 -5.9406 0
M  V30 4480 N 431.605 1.3629 0.791371 0
M  V30 4481 C 432.515 1.32606 1.93527 0
M  V30 4482 C 433.531 0.228541 1.72493 0
M  V30 4483 O 434.707 0.460571 1.96063 0
M  V30 4484 C 431.772 1.11271 3.28359 0
M  V30 4485 C 430.833 2.3048 3.62185 0
M  V30 4486 C 430.066 2.10154 4.90583 0
M  V30 4487 O 430.289 1.07572 5.60165 0
M  V30 4488 O 429.223 2.97884 5.23019 0
M  V30 4489 H 433.049 2.28909 1.99585 0
M  V30 4490 H 430.634 1.16818 0.931344 0
M  V30 4491 H 432.516 1.01283 4.09047 0
M  V30 4492 H 431.191 0.180292 3.23198 0
M  V30 4493 H 430.098 2.46036 2.81811 0
M  V30 4494 H 431.431 3.22221 3.72068 0
M  V30 4495 N 433.083 -1.0153 1.20538 0
M  V30 4496 C 434.499 -1.27461 0.96051 0
M  V30 4497 C 434.699 -1.98273 -0.359193 0
M  V30 4498 O 433.755 -2.27886 -1.0874 0
M  V30 4499 C 435.068 -2.10837 2.14402 0
M  V30 4500 C 436.616 -2.24099 2.18515 0
M  V30 4501 C 437.091 -3.10852 3.36355 0
M  V30 4502 N 438.582 -3.18441 3.36377 0
M  V30 4503 C 439.317 -3.85795 4.24205 0
M  V30 4504 N 438.813 -4.55264 5.22213 0
M  V30 4505 N 440.606 -3.82331 4.12043 0
M  V30 4506 H 432.757 -0.539907 2.05423 0
M  V30 4507 H 435.02 -0.30092 0.898972 0
M  V30 4508 H 434.726 -1.66144 3.09983 0
M  V30 4509 H 434.6 -3.11576 2.12604 0
M  V30 4510 H 436.987 -2.68016 1.23497 0
M  V30 4511 H 437.068 -1.22865 2.24361 0
M  V30 4512 H 436.712 -2.6764 4.31661 0
M  V30 4513 H 436.642 -4.12177 3.27746 0
M  V30 4514 H 439.133 -2.68978 2.65442 0
M  V30 4515 H 439.446 -5.04331 5.85551 0
M  V30 4516 H 437.791 -4.54085 5.26148 0
M  V30 4517 H 440.982 -3.27207 3.34743 0
M  V30 4518 H 441.155 -4.34547 4.807 0
M  V30 4519 N 434.561 -1.01147 -1.20859 0
M  V30 4520 C 435.508 -0.577354 -2.23462 0
M  V30 4521 C 436.478 0.399922 -1.61214 0
M  V30 4522 O 437.663 0.300515 -1.88419 0
M  V30 4523 C 434.803 0.083372 -3.44999 0
M  V30 4524 C 433.916 -0.937856 -4.21697 0
M  V30 4525 C 433.051 -0.248717 -5.30617 0
M  V30 4526 C 432.09 -1.25705 -5.99053 0
M  V30 4527 N 431.227 -0.594939 -6.99575 0
M  V30 4528 H 436.067 -1.45695 -2.59956 0
M  V30 4529 H 433.604 -0.729428 -1.27741 0
M  V30 4530 H 435.562 0.483535 -4.14388 0
M  V30 4531 H 434.192 0.926645 -3.09214 0
M  V30 4532 H 433.244 -1.45622 -3.51423 0
M  V30 4533 H 434.556 -1.70493 -4.68757 0
M  V30 4534 H 433.71 0.207215 -6.06346 0
M  V30 4535 H 432.449 0.55071 -4.84581 0
M  V30 4536 H 431.454 -1.72343 -5.2209 0
M  V30 4537 H 432.679 -2.05767 -6.47176 0
M  V30 4538 H 430.625 0.184713 -6.5574 0
M  V30 4539 H 430.542 -1.30017 -7.44736 0
M  V30 4540 H 431.81 -0.162427 -7.79331 0
M  V30 4541 N 436.039 1.36541 -0.78704 0
M  V30 4542 C 437.287 1.98911 -0.357633 0
M  V30 4543 C 437.608 1.62778 1.07371 0
M  V30 4544 O 436.878 0.900612 1.73971 0
M  V30 4545 H 435.458 0.735734 -0.129246 0
M  V30 4546 H 438.12 1.66776 -1.00855 0
M  V30 4547 H 437.216 3.08874 -0.447549 0
M  V30 4548 N 437.518 0.538854 1.48102 0
M  V30 4549 C 438.748 0.0122958 2.06596 0
M  V30 4550 C 439.156 -1.27861 1.39457 0
M  V30 4551 O 438.499 -1.77348 0.478907 0
M  V30 4552 C 438.561 -0.273131 3.58461 0
M  V30 4553 C 438.225 0.92561 4.47528 0
M  V30 4554 C 439.222 1.82637 4.86765 0
M  V30 4555 C 436.907 1.13511 4.89306 0
M  V30 4556 C 438.901 2.92047 5.66558 0
M  V30 4557 C 436.588 2.23233 5.68868 0
M  V30 4558 C 437.586 3.12333 6.07402 0
M  V30 4559 O 437.274 4.20155 6.85365 0
M  V30 4560 H 437.006 0.0344283 0.675123 0
M  V30 4561 H 439.56 0.746494 1.91355 0
M  V30 4562 H 437.79 -1.06141 3.71848 0
M  V30 4563 H 439.479 -0.742842 3.99045 0
M  V30 4564 H 440.245 1.67649 4.55103 0
M  V30 4565 H 436.124 0.450835 4.5879 0
M  V30 4566 H 439.668 3.6162 5.96554 0
M  V30 4567 H 435.565 2.38201 5.99942 0
M  V30 4568 H 436.333 4.17975 7.03732 0
M  V30 4569 N 438.996 -1.55193 0.274407 0
M  V30 4570 C 440.242 -1.99877 -0.343086 0
M  V30 4571 C 440.575 -1.16256 -1.55558 0
M  V30 4572 O 439.85 -0.232462 -1.93106 0
M  V30 4573 C 440.133 -3.52706 -0.725965 0
M  V30 4574 C 439.986 -4.47081 0.493818 0
M  V30 4575 C 441.305 -4.11422 -1.56268 0
M  V30 4576 H 438.424 -0.726625 -0.123229 0
M  V30 4577 H 441.066 -1.86136 0.38121 0
M  V30 4578 H 439.216 -3.64546 -1.34307 0
M  V30 4579 H 440.888 -4.47186 1.13237 0
M  V30 4580 H 439.131 -4.1877 1.13201 0
M  V30 4581 H 439.802 -5.51699 0.18217 0
M  V30 4582 H 442.278 -4.02855 -1.04151 0
M  V30 4583 H 441.154 -5.18568 -1.79939 0
M  V30 4584 H 441.415 -3.61607 -2.54348 0
M  V30 4585 N 440.474 -0.00167713 -1.576 0
M  V30 4586 C 441.702 0.693759 -1.94922 0
M  V30 4587 C 442.117 1.67215 -0.876626 0
M  V30 4588 O 441.474 1.81929 0.144279 0
M  V30 4589 C 441.525 1.42416 -3.32265 0
M  V30 4590 O 441.246 0.485014 -4.35407 0
M  V30 4591 C 442.747 2.21395 -3.84056 0
M  V30 4592 H 439.967 0.193118 -0.642609 0
M  V30 4593 H 442.511 -0.0532952 -2.04431 0
M  V30 4594 H 440.666 2.12284 -3.24059 0
M  V30 4595 H 441.08 1.00053 -5.14868 0
M  V30 4596 H 442.554 2.67996 -4.82578 0
M  V30 4597 H 443.031 3.04142 -3.16851 0
M  V30 4598 H 443.637 1.56542 -3.95443 0
M  V30 4599 N 441.952 1.55251 0.271103 0
M  V30 4600 C 443.2 1.75599 1.00047 0
M  V30 4601 C 443.521 0.561188 1.8675 0
M  V30 4602 O 442.791 -0.423846 1.9126 0
M  V30 4603 H 441.371 0.647562 0.372387 0
M  V30 4604 H 444.033 1.92656 0.294876 0
M  V30 4605 H 443.129 2.65766 1.6363 0
M  V30 4606 N 443.43 -0.535701 1.48216 0
M  V30 4607 C 444.38 -1.63688 1.58714 0
M  V30 4608 C 445.364 -1.54635 0.444615 0
M  V30 4609 O 446.556 -1.62753 0.695742 0
M  V30 4610 C 443.685 -3.02423 1.62466 0
M  V30 4611 C 442.771 -3.16601 2.82178 0
M  V30 4612 N 443.162 -3.00771 4.06658 0
M  V30 4613 C 441.46 -3.47645 2.79391 0
M  V30 4614 C 442.161 -3.18213 4.86945 0
M  V30 4615 N 441.137 -3.45528 4.19656 0
M  V30 4616 H 444.939 -1.5005 2.5271 0
M  V30 4617 H 442.453 -0.741018 1.44508 0
M  V30 4618 H 444.45 -3.81517 1.6808 0
M  V30 4619 H 443.11 -3.17157 0.695826 0
M  V30 4620 H 444.121 -2.77652 4.37184 0
M  V30 4621 H 440.798 -3.68771 1.95739 0
M  V30 4622 H 442.188 -3.1076 5.95716 0
M  V30 4623 N 444.908 -1.36708 -0.784132 0
M  V30 4624 C 446.157 -1.30559 -1.53744 0
M  V30 4625 C 446.47 0.111374 -1.95283 0
M  V30 4626 O 447.676 0.29527 -2.6989 0
M  V30 4627 C 446.132 -2.29098 -2.77565 0
M  V30 4628 C 445.74 -3.76258 -2.43174 0
M  V30 4629 C 447.484 -2.31936 -3.55536 0
M  V30 4630 C 445.391 -4.6656 -3.63422 0
M  V30 4631 H 444.321 -0.48518 -0.577162 0
M  V30 4632 H 446.972 -1.62101 -0.859981 0
M  V30 4633 H 445.354 -1.90557 -3.47137 0
M  V30 4634 H 446.528 -4.23565 -1.81465 0
M  V30 4635 H 444.843 -3.76246 -1.78403 0
M  V30 4636 H 447.44 -2.9661 -4.44889 0
M  V30 4637 H 447.783 -1.3294 -3.94503 0
M  V30 4638 H 448.316 -2.6912 -2.92949 0
M  V30 4639 H 445.055 -5.66638 -3.29547 0
M  V30 4640 H 444.575 -4.23966 -4.24279 0
M  V30 4641 H 446.254 -4.8309 -4.30387 0
M  V30 4642 N 446.386 1.0089 -1.21074 0
M  V30 4643 C 447.296 2.13039 -0.982425 0
M  V30 4644 C 448.312 1.73881 0.0642161 0
M  V30 4645 O 449.488 2.01012 -0.12496 0
M  V30 4646 C 446.553 3.42377 -0.545803 0
M  V30 4647 C 445.614 3.95731 -1.6642 0
M  V30 4648 C 444.847 5.18896 -1.24832 0
M  V30 4649 O 445.07 5.70273 -0.120265 0
M  V30 4650 O 444.004 5.65597 -2.05873 0
M  V30 4651 H 447.83 2.35175 -1.92163 0
M  V30 4652 H 445.415 1.1142 -0.995285 0
M  V30 4653 H 447.297 4.20244 -0.311912 0
M  V30 4654 H 445.972 3.21639 0.364727 0
M  V30 4655 H 444.879 3.19108 -1.95246 0
M  V30 4656 H 446.212 4.20872 -2.55201 0
M  V30 4657 N 447.864 1.01787 1.20321 0
M  V30 4658 C 449.094 0.72614 1.93419 0
M  V30 4659 C 449.502 -0.717317 1.75075 0
M  V30 4660 O 448.845 -1.49836 1.06278 0
M  V30 4661 C 448.907 0.983621 3.45782 0
M  V30 4662 C 448.571 2.41645 3.87888 0
M  V30 4663 C 449.568 3.39732 3.93545 0
M  V30 4664 C 447.253 2.75752 4.19841 0
M  V30 4665 C 449.247 4.69988 4.30569 0
M  V30 4666 C 446.934 4.06221 4.56539 0
M  V30 4667 C 447.932 5.0315 4.61876 0
M  V30 4668 O 447.62 6.31284 4.97731 0
M  V30 4669 H 447.352 0.265824 0.621541 0
M  V30 4670 H 449.906 1.3623 1.53722 0
M  V30 4671 H 448.136 0.290301 3.85609 0
M  V30 4672 H 449.825 0.683279 4.00108 0
M  V30 4673 H 450.591 3.14718 3.69022 0
M  V30 4674 H 446.47 2.00993 4.14877 0
M  V30 4675 H 450.014 5.45642 4.3465 0
M  V30 4676 H 445.911 4.31013 4.80518 0
M  V30 4677 H 446.679 6.35591 5.15719 0
M  V30 4678 N 449.342 -1.36122 0.79427 0
M  V30 4679 C 450.619 -1.93398 0.292685 0
M  V30 4680 C 450.999 -1.72567 -1.21589 0
M  V30 4681 O 450.347 -1.08745 -2.00965 0
M  V30 4682 C 450.557 -3.42099 0.690614 0
M  V30 4683 C 451.905 -4.19231 0.673105 0
M  V30 4684 O 452.929 -3.50559 0.631389 0
M  V30 4685 O 451.788 -5.41732 0.720362 0
M  V30 4686 H 448.882 -0.823712 0.0736693 0
M  V30 4687 H 451.428 -1.45273 0.87714 0
M  V30 4688 H 450.2 -3.50938 1.73085 0
M  V30 4689 H 449.823 -3.97519 0.0803036 0
M  V30 4690 N 450.82 -0.546701 -1.47814 0
M  V30 4691 C 452.066 -0.0269594 -2.03382 0
M  V30 4692 C 452.421 1.30406 -1.41464 0
M  V30 4693 O 451.714 1.8332 -0.557151 0
M  V30 4694 C 451.908 0.134869 -3.57145 0
M  V30 4695 C 451.737 -1.17891 -4.33972 0
M  V30 4696 C 450.507 -1.74336 -4.74273 0
M  V30 4697 C 452.705 -2.09361 -4.69758 0
M  V30 4698 N 450.687 -2.99829 -5.35701 0
M  V30 4699 C 452.058 -3.19431 -5.31379 0
M  V30 4700 C 454.113 -2.09484 -4.51687 0
M  V30 4701 C 452.816 -4.2971 -5.76838 0
M  V30 4702 C 454.842 -3.18767 -4.98138 0
M  V30 4703 C 454.204 -4.27557 -5.59799 0
M  V30 4704 H 450.303 -0.0517733 -0.780284 0
M  V30 4705 H 452.887 -0.731673 -1.80429 0
M  V30 4706 H 451.058 0.80869 -3.79888 0
M  V30 4707 H 452.79 0.655726 -3.99352 0
M  V30 4708 H 449.545 -1.28265 -4.559 0
M  V30 4709 H 449.969 -3.63765 -5.70968 0
M  V30 4710 H 454.611 -1.26663 -4.03381 0
M  V30 4711 H 452.329 -5.13297 -6.24141 0
M  V30 4712 H 455.915 -3.19937 -4.85934 0
M  V30 4713 H 454.795 -5.10725 -5.95088 0
M  V30 4714 N 452.299 1.55045 -0.282633 0
M  V30 4715 C 453.229 2.2579 0.595066 0
M  V30 4716 C 454.21 1.25074 1.15284 0
M  V30 4717 O 455.395 1.5381 1.18559 0
M  V30 4718 C 452.525 2.98472 1.77572 0
M  V30 4719 C 451.479 4.0618 1.34914 0
M  V30 4720 C 450.805 4.66477 2.6135 0
M  V30 4721 C 452.105 5.1996 0.493821 0
M  V30 4722 H 453.799 2.994 0.00505653 0
M  V30 4723 H 451.345 1.44 0.000992001 0
M  V30 4724 H 453.298 3.46677 2.39568 0
M  V30 4725 H 452.022 2.2241 2.39168 0
M  V30 4726 H 450.681 3.58797 0.752338 0
M  V30 4727 H 450.329 3.87074 3.2122 0
M  V30 4728 H 450.029 5.39207 2.33516 0
M  V30 4729 H 451.553 5.17435 3.24181 0
M  V30 4730 H 452.967 5.64172 1.01898 0
M  V30 4731 H 451.364 5.99299 0.310047 0
M  V30 4732 H 452.434 4.82462 -0.485593 0
M  V30 4733 N 453.777 0.010035 1.57597 0
M  V30 4734 C 454.725 -0.996272 2.10184 0
M  V30 4735 C 455.719 -1.34942 1.02406 0
M  V30 4736 O 456.925 -1.33389 1.20861 0
M  V30 4737 H 453.3 -0.338982 0.671264 0
M  V30 4738 H 455.271 -0.527272 2.93705 0
M  V30 4739 C 454.02 -2.27599 2.62857 0
M  V30 4740 H 453.343 -2.01295 3.45428 0
M  V30 4741 H 454.783 -2.96265 3.0332 0
M  V30 4742 C 453.242 -2.99269 1.54725 0
M  V30 4743 O 453.772 -3.90644 0.93597 0
M  V30 4744 N 451.978 -2.61269 1.27228 0
M  V30 4745 H 451.525 -1.87043 1.77123 0
M  V30 4746 H 451.483 -3.09534 0.550999 0
M  V30 4747 N 455.255 -1.55392 -0.262866 0
M  V30 4748 C 456.503 -1.76127 -0.991147 0
M  V30 4749 C 456.824 -0.571083 -1.8645 0
M  V30 4750 O 456.094 0.413698 -1.91482 0
M  V30 4751 H 454.674 -0.649528 -0.368948 0
M  V30 4752 H 457.336 -1.9281 -0.284655 0
M  V30 4753 H 456.432 -2.6663 -1.62219 0
M  V30 4754 N 456.733 0.527833 -1.48498 0
M  V30 4755 C 457.981 1.28101 -1.56316 0
M  V30 4756 C 458.302 1.9352 -0.239781 0
M  V30 4757 O 457.572 1.81433 0.738849 0
M  V30 4758 H 456.152 0.475793 -0.575873 0
M  V30 4759 H 458.814 0.614052 -1.84974 0
M  V30 4760 H 457.91 2.05916 -2.34532 0
M  V30 4761 N 458.211 1.37122 0.776871 0
M  V30 4762 C 459.121 1.34651 1.9211 0
M  V30 4763 C 460.137 0.246824 1.7224 0
M  V30 4764 O 461.313 0.48134 1.95563 0
M  V30 4765 C 458.378 1.14748 3.2716 0
M  V30 4766 C 457.439 2.34308 3.5972 0
M  V30 4767 C 456.672 2.15345 4.88326 0
M  V30 4768 O 456.895 1.13507 5.58992 0
M  V30 4769 O 455.829 3.03414 5.1983 0
M  V30 4770 H 459.655 2.31013 1.97146 0
M  V30 4771 H 457.24 1.17799 0.918901 0
M  V30 4772 H 459.122 1.05616 4.0795 0
M  V30 4773 H 457.797 0.214562 3.22988 0
M  V30 4774 H 456.704 2.49011 2.79185 0
M  V30 4775 H 458.037 3.26149 3.68629 0
M  V30 4776 N 459.689 -1.00246 1.21608 0
M  V30 4777 C 460.935 -1.74319 1.03638 0
M  V30 4778 C 461.268 -1.89408 -0.428749 0
M  V30 4779 O 460.543 -1.43026 -1.3181 0
M  V30 4780 C 460.826 -3.15431 1.73711 0
M  V30 4781 C 460.679 -3.08049 3.27759 0
M  V30 4782 C 461.998 -4.14407 1.48173 0
M  V30 4783 H 459.117 -0.632741 0.377899 0
M  V30 4784 H 461.759 -1.16853 1.49818 0
M  V30 4785 H 459.909 -3.64493 1.34452 0
M  V30 4786 H 461.581 -2.66681 3.76403 0
M  V30 4787 H 459.824 -2.45088 3.57931 0
M  V30 4788 H 460.495 -4.07862 3.71958 0
M  V30 4789 H 462.971 -3.74061 1.82258 0
M  V30 4790 H 461.847 -5.11279 1.99713 0
M  V30 4791 H 462.108 -4.40174 0.412273 0
M  V30 4792 N 461.167 -1.02423 -1.1978 0
M  V30 4793 C 462.444 -0.632802 -1.85081 0
M  V30 4794 C 462.824 0.888745 -1.9148 0
M  V30 4795 O 462.172 1.78357 -1.42832 0
M  V30 4796 C 462.382 -1.28947 -3.24305 0
M  V30 4797 C 463.73 -1.40976 -4.00513 0
M  V30 4798 O 464.754 -1.24628 -3.33686 0
M  V30 4799 O 463.613 -1.67467 -5.20209 0
M  V30 4800 H 460.707 -0.219348 -0.79738 0
M  V30 4801 H 463.253 -1.12209 -1.27307 0
M  V30 4802 H 462.025 -2.3288 -3.14456 0
M  V30 4803 H 461.648 -0.787748 -3.89718 0
M  V30 4804 N 462.645 1.35699 -0.801477 0
M  V30 4805 C 463.891 1.99208 -0.380022 0
M  V30 4806 C 464.224 1.63445 1.04878 0
M  V30 4807 O 463.499 0.895223 1.72673 0
M  V30 4808 C 463.782 3.55755 -0.557708 0
M  V30 4809 C 463.635 4.01332 -2.03107 0
M  V30 4810 C 464.954 4.40096 0.0197968 0
M  V30 4811 H 462.073 0.723667 -0.139552 0
M  V30 4812 H 464.715 1.60928 -1.01006 0
M  V30 4813 H 462.865 3.88494 -0.0213741 0
M  V30 4814 H 464.537 3.79026 -2.62939 0
M  V30 4815 H 462.78 3.52429 -2.52936 0
M  V30 4816 H 463.451 5.10234 -2.1063 0
M  V30 4817 H 465.927 4.13786 -0.438179 0
M  V30 4818 H 464.803 5.48735 -0.134477 0
M  V30 4819 H 465.064 4.2786 1.11303 0
M  V30 4820 N 464.123 0.554532 1.47522 0
M  V30 4821 C 465.353 0.0342074 2.06572 0
M  V30 4822 C 465.761 -1.26375 1.40805 0
M  V30 4823 O 465.104 -1.7683 0.49769 0
M  V30 4824 C 465.166 -0.235096 3.5873 0
M  V30 4825 C 464.83 0.973024 4.46521 0
M  V30 4826 C 465.827 1.8779 4.848 0
M  V30 4827 C 463.512 1.18694 4.88075 0
M  V30 4828 C 465.506 2.98039 5.63428 0
M  V30 4829 C 463.193 2.29254 5.66468 0
M  V30 4830 C 464.191 3.18757 6.04055 0
M  V30 4831 O 463.879 4.27401 6.8087 0
M  V30 4832 H 463.611 0.041587 0.67472 0
M  V30 4833 H 466.165 0.766748 1.90552 0
M  V30 4834 H 464.395 -1.02191 3.72953 0
M  V30 4835 H 466.084 -0.700477 3.9981 0
M  V30 4836 H 466.85 1.72467 4.53299 0
M  V30 4837 H 462.729 0.49947 4.58286 0
M  V30 4838 H 466.273 3.67926 5.92685 0
M  V30 4839 H 462.17 2.4455 5.97382 0
M  V30 4840 H 462.938 4.25415 6.9926 0
M  V30 4841 N 465.601 -1.54893 0.290851 0
M  V30 4842 C 466.531 -2.26103 -0.583084 0
M  V30 4843 C 467.512 -1.25684 -1.14619 0
M  V30 4844 O 468.697 -1.54436 -1.17741 0
M  V30 4845 C 465.827 -2.99409 -1.75987 0
M  V30 4846 C 464.781 -4.0689 -1.32758 0
M  V30 4847 C 464.107 -4.67856 -2.58872 0
M  V30 4848 C 465.407 -5.20215 -0.46624 0
M  V30 4849 H 467.101 -2.99398 0.0108214 0
M  V30 4850 H 464.647 -1.43998 0.00664468 0
M  V30 4851 H 466.6 -3.47943 -2.37727 0
M  V30 4852 H 465.324 -2.23675 -2.37985 0
M  V30 4853 H 463.983 -3.59191 -0.733299 0
M  V30 4854 H 463.631 -3.88772 -3.19163 0
M  V30 4855 H 463.331 -5.40438 -2.30653 0
M  V30 4856 H 464.855 -5.19147 -3.21433 0
M  V30 4857 H 466.269 -5.64704 -0.989047 0
M  V30 4858 H 464.666 -5.99455 -0.27826 0
M  V30 4859 H 465.736 -4.82198 0.511173 0
M  V30 4860 N 467.08 -0.0183926 -1.57589 0
M  V30 4861 C 468.32 0.666846 -1.93216 0
M  V30 4862 C 468.684 1.69905 -0.894215 0
M  V30 4863 O 469.885 2.436 -1.13633 0
M  V30 4864 C 468.156 1.27684 -3.33814 0
M  V30 4865 S 469.715 1.98464 -3.91353 0
M  V30 4866 H 466.533 0.219826 -0.676164 0
M  V30 4867 H 469.135 -0.0794893 -1.95338 0
M  V30 4868 H 467.839 0.513006 -4.07181 0
M  V30 4869 H 467.37 2.06071 -3.3511 0
M  V30 4870 H 469.385 3.26189 -3.73918 0
M  V30 4871 N 468.558 1.5553 0.254621 0
M  V30 4872 C 469.806 1.7665 0.981793 0
M  V30 4873 C 470.127 0.580963 1.86145 0
M  V30 4874 O 469.397 -0.403537 1.91699 0
M  V30 4875 H 467.977 0.651475 0.365498 0
M  V30 4876 H 470.639 1.92958 0.274426 0
M  V30 4877 H 469.735 2.67486 1.60802 0
M  V30 4878 N 470.036 -0.519951 1.48776 0
M  V30 4879 C 471.447 -1.10177 1.50725 0
M  V30 4880 C 471.798 -1.94153 0.282678 0
M  V30 4881 O 470.923 -2.07645 -0.609298 0
M  V30 4882 C 471.518 -2.00482 2.73116 0
M  V30 4883 C 470.077 -2.53862 2.77905 0
M  V30 4884 C 469.224 -1.31047 2.44381 0
M  V30 4885 H 472.175 -0.30473 1.55747 0
M  V30 4886 H 472.196 -2.8491 2.52203 0
M  V30 4887 H 471.708 -1.39335 3.62225 0
M  V30 4888 H 469.809 -3.18702 1.93029 0
M  V30 4889 H 469.922 -2.9231 3.79594 0
M  V30 4890 H 468.286 -1.62953 1.95751 0
M  V30 4891 H 469.069 -0.71637 3.35743 0
M  V30 4892 N 471.514 -1.37532 -0.769588 0
M  V30 4893 C 472.76 -1.33057 -1.53048 0
M  V30 4894 C 473.093 0.0841865 -1.94017 0
M  V30 4895 O 472.368 1.04198 -1.64235 0
M  V30 4896 C 472.651 -2.27166 -2.79406 0
M  V30 4897 C 472.504 -3.77429 -2.44677 0
M  V30 4898 C 473.823 -2.19683 -3.81349 0
M  V30 4899 H 470.942 -0.484655 -0.555228 0
M  V30 4900 H 473.584 -1.68251 -0.882702 0
M  V30 4901 H 471.734 -1.97283 -3.34682 0
M  V30 4902 H 473.406 -4.17918 -1.953 0
M  V30 4903 H 471.649 -3.95892 -1.77346 0
M  V30 4904 H 472.32 -4.38716 -3.35011 0
M  V30 4905 H 474.796 -2.46029 -3.35573 0
M  V30 4906 H 473.672 -2.87668 -4.67481 0
M  V30 4907 H 473.933 -1.19045 -4.25771 0
M  V30 4908 N 472.992 0.995999 -1.22138 0
M  V30 4909 C 474.403 1.54961 -1.04135 0
M  V30 4910 C 474.754 1.92159 0.396147 0
M  V30 4911 O 473.879 1.74435 1.28069 0
M  V30 4912 C 474.474 2.81581 -1.88408 0
M  V30 4913 C 473.033 3.33396 -1.74712 0
M  V30 4914 C 472.18 2.06509 -1.85066 0
M  V30 4915 H 475.131 0.817436 -1.36028 0
M  V30 4916 H 475.152 3.53822 -1.39966 0
M  V30 4917 H 474.664 2.54476 -2.93025 0
M  V30 4918 H 472.765 3.65416 -0.728159 0
M  V30 4919 H 472.878 4.04208 -2.57202 0
M  V30 4920 H 471.242 2.19925 -1.28472 0
M  V30 4921 H 472.025 1.81804 -2.91208 0
M  V30 4922 N 474.47 1.03057 1.19235 0
M  V30 4923 C 475.403 0.557384 2.21288 0
M  V30 4924 C 476.381 -0.402675 1.57535 0
M  V30 4925 O 477.565 -0.319376 1.85775 0
M  V30 4926 C 474.692 -0.187041 3.38183 0
M  V30 4927 C 473.738 0.72471 4.20298 0
M  V30 4928 S 474.571 2.20187 4.88137 0
M  V30 4929 C 475.727 1.46801 6.08441 0
M  V30 4930 H 475.96 1.42207 2.61083 0
M  V30 4931 H 473.493 0.840651 1.29508 0
M  V30 4932 H 475.451 -0.610405 4.05936 0
M  V30 4933 H 474.112 -1.02748 2.96819 0
M  V30 4934 H 473.305 0.149911 5.03777 0
M  V30 4935 H 472.907 1.08647 3.57871 0
M  V30 4936 H 475.199 0.755522 6.73274 0
M  V30 4937 H 476.142 2.27946 6.70407 0
M  V30 4938 H 476.55 0.964762 5.56195 0
M  V30 4939 N 475.948 -1.35272 0.808662 0
M  V30 4940 C 477.194 -1.99003 0.390581 0
M  V30 4941 C 477.527 -1.63999 -1.0401 0
M  V30 4942 O 476.802 -0.904368 -1.72196 0
M  V30 4943 C 477.085 -3.55454 0.576566 0
M  V30 4944 C 476.938 -4.00249 2.05233 0
M  V30 4945 C 478.257 -4.401 0.00354277 0
M  V30 4946 H 475.376 -0.722917 0.143388 0
M  V30 4947 H 478.018 -1.6039 1.01858 0
M  V30 4948 H 476.168 -3.88477 0.0419766 0
M  V30 4949 H 477.84 -3.77626 2.64946 0
M  V30 4950 H 476.083 -3.51082 2.54801 0
M  V30 4951 H 476.754 -5.0911 2.13333 0
M  V30 4952 H 479.23 -4.13548 0.460117 0
M  V30 4953 H 478.106 -5.48656 0.163575 0
M  V30 4954 H 478.367 -4.28444 -1.09032 0
M  V30 4955 N 477.426 -0.562348 -1.47226 0
M  V30 4956 C 478.336 0.185466 -2.33866 0
M  V30 4957 C 479.352 0.906713 -1.48508 0
M  V30 4958 O 480.528 0.874458 -1.81425 0
M  V30 4959 C 477.593 1.19904 -3.25306 0
M  V30 4960 C 476.654 0.484669 -4.26555 0
M  V30 4961 C 475.887 1.44996 -5.13626 0
M  V30 4962 O 476.11 2.68515 -5.03245 0
M  V30 4963 O 475.044 0.971642 -5.94006 0
M  V30 4964 H 478.87 -0.525361 -2.99121 0
M  V30 4965 H 476.455 -0.322916 -1.45868 0
M  V30 4966 H 478.337 1.78399 -3.81774 0
M  V30 4967 H 477.012 1.8917 -2.62672 0
M  V30 4968 H 475.919 -0.141605 -3.73832 0
M  V30 4969 H 477.252 -0.166634 -4.91918 0
M  V30 4970 N 478.904 1.54736 -0.299062 0
M  V30 4971 C 479.867 2.22127 0.565012 0
M  V30 4972 C 480.867 1.20669 1.06281 0
M  V30 4973 O 482.057 1.45417 0.959145 0
M  V30 4974 C 479.189 2.90611 1.78208 0
M  V30 4975 H 480.382 2.99891 -0.0237448 0
M  V30 4976 H 477.935 1.5622 -0.0498788 0
M  V30 4977 H 478.67 2.16921 2.41072 0
M  V30 4978 H 478.455 3.64984 1.43281 0
M  V30 4979 H 479.945 3.42026 2.396 0
M  V30 4980 N 480.382 0.0267497 1.57577 0
M  V30 4981 C 481.628 -0.653371 1.91987 0
M  V30 4982 C 481.961 -1.71915 0.903263 0
M  V30 4983 O 481.236 -1.94358 -0.0743387 0
M  V30 4984 C 481.519 -1.272 3.36886 0
M  V30 4985 C 481.372 -0.215938 4.49281 0
M  V30 4986 C 482.691 -2.19069 3.81703 0
M  V30 4987 H 479.81 -0.236047 0.698177 0
M  V30 4988 H 482.452 0.0835236 1.89816 0
M  V30 4989 H 480.602 -1.90005 3.38866 0
M  V30 4990 H 482.274 0.41449 4.59434 0
M  V30 4991 H 480.517 0.458855 4.31366 0
M  V30 4992 H 481.188 -0.688347 5.47691 0
M  V30 4993 H 483.664 -1.66253 3.81444 0
M  V30 4994 H 482.54 -2.59307 4.83788 0
M  V30 4995 H 482.801 -3.08087 3.17072 0
M  V30 4996 N 481.861 -1.55662 -0.24637 0
M  V30 4997 C 483.277 -1.48098 -0.594907 0
M  V30 4998 C 483.477 -0.717044 -1.8831 0
M  V30 4999 O 482.533 -0.246618 -2.51293 0
M  V30 5000 C 483.846 -2.92507 -0.697146 0
M  V30 5001 C 485.394 -3.02881 -0.789436 0
M  V30 5002 C 485.869 -4.48598 -0.923232 0
M  V30 5003 N 487.36 -4.52538 -0.988088 0
M  V30 5004 C 488.095 -5.62536 -1.11089 0
M  V30 5005 N 487.591 -6.82342 -1.19919 0
M  V30 5006 N 489.384 -5.50334 -1.14408 0
M  V30 5007 H 481.535 -2.0377 0.599278 0
M  V30 5008 H 483.798 -0.925145 0.20691 0
M  V30 5009 H 483.504 -3.51242 0.179396 0
M  V30 5010 H 483.378 -3.43024 -1.5689 0
M  V30 5011 H 485.765 -2.44226 -1.65643 0
M  V30 5012 H 485.846 -2.55574 0.107482 0
M  V30 5013 H 485.49 -5.07864 -0.0607927 0
M  V30 5014 H 485.42 -4.93587 -1.8352 0
M  V30 5015 H 487.911 -3.66248 -0.931167 0
M  V30 5016 H 488.224 -7.61924 -1.29197 0
M  V30 5017 H 486.569 -6.85102 -1.16876 0
M  V30 5018 H 489.76 -4.5567 -1.07158 0
M  V30 5019 H 489.933 -6.36096 -1.23634 0
M  V30 5020 N 483.339 0.512053 -1.4905 0
M  V30 5021 C 484.564 1.2959 -1.6193 0
M  V30 5022 C 484.989 1.85906 -0.286454 0
M  V30 5023 O 484.347 1.65312 0.744426 0
M  V30 5024 C 484.395 2.40987 -2.68249 0
M  V30 5025 O 483.499 3.44531 -2.26654 0
M  V30 5026 H 482.84 0.383053 -0.542371 0
M  V30 5027 H 485.37 0.614231 -1.95162 0
M  V30 5028 H 485.38 2.86913 -2.90078 0
M  V30 5029 H 484.055 1.99361 -3.65004 0
M  V30 5030 H 482.632 3.046 -2.15112 0
M  V30 5031 N 484.817 1.37938 0.762283 0
M  V30 5032 C 486.063 1.34873 1.52253 0
M  V30 5033 C 486.418 -0.0635972 1.92295 0
M  V30 5034 O 485.711 -1.02434 1.61919 0
M  V30 5035 C 485.905 2.23042 2.79261 0
M  V30 5036 C 485.734 3.72706 2.51635 0
M  V30 5037 C 484.504 4.41771 2.45289 0
M  V30 5038 C 486.702 4.65345 2.18994 0
M  V30 5039 N 484.684 5.76921 2.09846 0
M  V30 5040 C 486.055 5.88943 1.9377 0
M  V30 5041 C 488.11 4.53636 2.0523 0
M  V30 5042 C 486.813 7.02142 1.5617 0
M  V30 5043 C 488.839 5.6673 1.69031 0
M  V30 5044 C 488.201 6.89383 1.44673 0
M  V30 5045 H 484.3 0.548818 0.557067 0
M  V30 5046 H 486.884 1.73247 0.888458 0
M  V30 5047 H 485.055 1.8687 3.40491 0
M  V30 5048 H 486.787 2.11165 3.45241 0
M  V30 5049 H 483.542 3.94883 2.61465 0
M  V30 5050 H 483.966 6.4837 1.94794 0
M  V30 5051 H 488.608 3.5937 2.2274 0
M  V30 5052 H 486.326 7.96334 1.37399 0
M  V30 5053 H 489.912 5.59645 1.59026 0
M  V30 5054 H 488.792 7.75411 1.17079 0
M  V30 5055 N 486.295 -0.989507 1.22664 0
M  V30 5056 C 487.225 -2.09847 1.02404 0
M  V30 5057 C 488.206 -1.70007 -0.0561303 0
M  V30 5058 O 489.391 -1.93906 0.106748 0
M  V30 5059 C 486.521 -3.41996 0.604663 0
M  V30 5060 C 485.475 -3.95699 1.63115 0
M  V30 5061 C 484.801 -5.23936 1.0675 0
M  V30 5062 C 486.101 -4.25999 3.02196 0
M  V30 5063 H 487.795 -2.27054 1.95158 0
M  V30 5064 H 485.341 -1.09111 0.939727 0
M  V30 5065 H 487.294 -4.1899 0.45002 0
M  V30 5066 H 486.018 -3.24626 -0.35855 0
M  V30 5067 H 484.677 -3.2084 1.77362 0
M  V30 5068 H 484.325 -5.02909 0.0955422 0
M  V30 5069 H 484.025 -5.60833 1.75328 0
M  V30 5070 H 485.549 -6.0356 0.924516 0
M  V30 5071 H 486.963 -4.93777 2.91303 0
M  V30 5072 H 485.36 -4.74076 3.67929 0
M  V30 5073 H 486.43 -3.33636 3.51873 0
M  V30 5074 N 487.773 -1.03688 -1.18687 0
M  V30 5075 C 489.05 -0.652397 -1.84399 0
M  V30 5076 C 489.43 0.868386 -1.92412 0
M  V30 5077 O 488.778 1.76832 -1.44716 0
M  V30 5078 C 488.988 -1.3238 -3.22919 0
M  V30 5079 C 490.336 -1.45216 -3.98996 0
M  V30 5080 O 491.36 -1.2816 -3.32345 0
M  V30 5081 O 490.219 -1.72975 -5.18403 0
M  V30 5082 H 487.313 -0.227793 -0.795009 0
M  V30 5083 H 489.859 -1.13553 -1.2611 0
M  V30 5084 H 488.631 -2.36202 -3.11968 0
M  V30 5085 H 488.254 -0.829039 -3.88861 0
M  V30 5086 N 489.251 1.34841 -0.815825 0
M  V30 5087 C 490.479 2.0273 -0.413294 0
M  V30 5088 C 490.894 1.61459 0.978599 0
M  V30 5089 O 490.251 0.816584 1.63212 0
M  V30 5090 C 490.302 3.58058 -0.497676 0
M  V30 5091 O 490.023 3.97832 -1.8347 0
M  V30 5092 C 491.524 4.4321 -0.0891339 0
M  V30 5093 H 488.744 0.649956 -0.166728 0
M  V30 5094 H 491.288 1.72267 -1.10201 0
M  V30 5095 H 489.443 3.87136 0.142886 0
M  V30 5096 H 489.857 4.92501 -1.80396 0
M  V30 5097 H 491.331 5.5164 -0.199274 0
M  V30 5098 H 491.808 4.28432 0.966571 0
M  V30 5099 H 492.414 4.19446 -0.703214 0
M  V30 5100 N 490.729 0.570148 1.46925 0
M  V30 5101 C 491.661 -0.207909 2.28255 0
M  V30 5102 C 492.674 -0.867301 1.37774 0
M  V30 5103 O 493.863 -0.738976 1.62485 0
M  V30 5104 C 490.963 -1.31298 3.12433 0
M  V30 5105 C 490.136 -0.747915 4.30958 0
M  V30 5106 C 489.195 -1.7391 4.9663 0
M  V30 5107 O 488.221 -1.2801 5.54619 0
M  V30 5108 N 489.423 -3.07288 4.92498 0
M  V30 5109 H 492.188 0.489794 2.95671 0
M  V30 5110 H 489.749 0.407076 1.56699 0
M  V30 5111 H 491.741 -1.97507 3.53232 0
M  V30 5112 H 490.311 -1.91373 2.47175 0
M  V30 5113 H 489.531 0.0913066 3.94094 0
M  V30 5114 H 490.819 -0.349958 5.07595 0
M  V30 5115 H 490.217 -3.47213 4.46609 0
M  V30 5116 H 488.774 -3.69021 5.37277 0
M  V30 5117 N 492.207 -1.54576 0.307264 0
M  V30 5118 C 493.455 -1.99867 -0.299574 0
M  V30 5119 C 493.776 -1.19714 -1.53927 0
M  V30 5120 O 493.046 -0.29472 -1.9367 0
M  V30 5121 H 491.626 -0.738299 -0.113683 0
M  V30 5122 H 494.288 -1.9032 0.420042 0
M  V30 5123 H 493.384 -3.06901 -0.567283 0
M  V30 5124 N 493.685 -0.035106 -1.57561 0
M  V30 5125 C 494.934 0.641604 -1.91223 0
M  V30 5126 C 495.247 1.72944 -0.913761 0
M  V30 5127 O 496.453 2.46321 -1.14185 0
M  V30 5128 C 494.909 1.19249 -3.3957 0
M  V30 5129 C 494.517 0.137616 -4.47789 0
M  V30 5130 C 496.261 1.84537 -3.82291 0
M  V30 5131 C 494.168 0.700478 -5.87237 0
M  V30 5132 H 493.098 0.243417 -0.713627 0
M  V30 5133 H 495.749 -0.101382 -1.8322 0
M  V30 5134 H 494.131 1.98728 -3.42525 0
M  V30 5135 H 495.305 -0.635153 -4.56402 0
M  V30 5136 H 493.62 -0.416855 -4.14308 0
M  V30 5137 H 496.217 2.27616 -4.83834 0
M  V30 5138 H 496.56 2.69054 -3.17672 0
M  V30 5139 H 497.093 1.11739 -3.81784 0
M  V30 5140 H 493.832 -0.106693 -6.55413 0
M  V30 5141 H 493.352 1.4416 -5.82218 0
M  V30 5142 H 495.031 1.18837 -6.35993 0
M  V30 5143 N 495.163 1.55791 0.238111 0
M  V30 5144 C 496.095 1.87513 1.31802 0
M  V30 5145 C 497.108 0.762053 1.43863 0
M  V30 5146 O 498.297 1.04024 1.45056 0
M  V30 5147 C 495.397 2.05402 2.69561 0
M  V30 5148 C 494.57 3.3632 2.79656 0
M  V30 5149 C 493.629 3.43844 3.98319 0
M  V30 5150 O 492.655 4.16994 3.87433 0
M  V30 5151 N 493.857 2.73777 5.11885 0
M  V30 5152 H 496.622 2.80734 1.04922 0
M  V30 5153 H 494.183 1.56135 0.428196 0
M  V30 5154 H 496.175 2.07769 3.47296 0
M  V30 5155 H 494.745 1.18884 2.89111 0
M  V30 5156 H 493.965 3.46195 1.88528 0
M  V30 5157 H 495.253 4.22594 2.83358 0
M  V30 5158 H 494.651 2.14094 5.23622 0
M  V30 5159 H 493.208 2.81825 5.87723 0
M  V30 5160 N 496.642 -0.504142 1.49319 0
M  V30 5161 C 498.053 -1.08572 1.51885 0
M  V30 5162 C 498.404 -1.93842 0.303255 0
M  V30 5163 O 497.529 -2.0828 -0.58724 0
M  V30 5164 C 498.124 -1.97574 2.75227 0
M  V30 5165 C 496.683 -2.509 2.80581 0
M  V30 5166 C 495.83 -1.28447 2.45757 0
M  V30 5167 H 498.781 -0.288194 1.56061 0
M  V30 5168 H 498.802 -2.82219 2.55211 0
M  V30 5169 H 498.314 -1.35486 3.63683 0
M  V30 5170 H 496.415 -3.16636 1.96398 0
M  V30 5171 H 496.528 -2.88268 3.82673 0
M  V30 5172 H 494.892 -1.60868 1.97468 0
M  V30 5173 H 495.675 -0.68072 3.36483 0
M  V30 5174 N 498.12 -1.38341 -0.754957 0
M  V30 5175 C 499.083 -1.35262 -1.85032 0
M  V30 5176 C 500.083 -0.253393 -1.58791 0
M  V30 5177 O 501.273 -0.510205 -1.66561 0
M  V30 5178 C 498.405 -1.10544 -3.22479 0
M  V30 5179 H 499.598 -2.32712 -1.8917 0
M  V30 5180 H 497.151 -1.23614 -0.956515 0
M  V30 5181 H 497.886 -0.136952 -3.24011 0
M  V30 5182 H 497.671 -1.90127 -3.4292 0
M  V30 5183 H 499.161 -1.11082 -4.02555 0
M  V30 5184 N 499.598 0.982988 -1.23187 0
M  V30 5185 C 500.546 2.09616 -1.00817 0
M  V30 5186 C 501.54 1.6932 0.0519995 0
M  V30 5187 O 502.746 1.79715 -0.101284 0
M  V30 5188 H 499.121 0.685628 -0.308899 0
M  V30 5189 H 501.092 2.25652 -1.95253 0
M  V30 5190 C 499.841 3.42249 -0.613243 0
M  V30 5191 H 499.164 3.73705 -1.42073 0
M  V30 5192 H 500.604 4.21086 -0.496208 0
M  V30 5193 C 499.063 3.30002 0.678233 0
M  V30 5194 O 499.593 3.6263 1.72807 0
M  V30 5195 N 497.799 2.83164 0.653165 0
M  V30 5196 H 497.346 2.56811 -0.201492 0
M  V30 5197 H 497.304 2.75352 1.51752 0
M  V30 5198 N 501.076 1.04316 1.18135 0
M  V30 5199 C 502.323 0.74802 1.88178 0
M  V30 5200 C 502.651 -0.72441 1.80506 0
M  V30 5201 O 501.906 -1.54463 1.20165 0
M  V30 5202 C 502.205 1.16271 3.37958 0
M  V30 5203 C 501.871 2.63585 3.65833 0
M  V30 5204 C 500.533 3.03829 3.73151 0
M  V30 5205 C 502.885 3.58822 3.78016 0
M  V30 5206 C 500.213 4.38194 3.90132 0
M  V30 5207 C 502.565 4.92909 3.96514 0
M  V30 5208 C 501.229 5.3282 4.02068 0
M  V30 5209 H 500.499 0.27372 0.688592 0
M  V30 5210 H 503.146 1.30863 1.39811 0
M  V30 5211 H 501.451 0.520938 3.88321 0
M  V30 5212 H 503.148 0.911672 3.90499 0
M  V30 5213 H 499.738 2.31414 3.60757 0
M  V30 5214 H 503.922 3.28875 3.71692 0
M  V30 5215 H 499.178 4.68631 3.92677 0
M  V30 5216 H 503.352 5.66606 4.04883 0
M  V30 5217 H 500.979 6.36943 4.14979 0
M  V30 5218 N 502.554 -1.34406 0.822964 0
M  V30 5219 C 503.484 -2.32052 0.259608 0
M  V30 5220 C 504.465 -1.58243 -0.623961 0
M  V30 5221 O 505.65 -1.86224 -0.55083 0
M  V30 5222 C 502.78 -3.42434 -0.579314 0
M  V30 5223 C 501.734 -4.27499 0.20712 0
M  V30 5224 C 501.06 -5.29349 -0.754547 0
M  V30 5225 C 502.36 -5.02758 1.41533 0
M  V30 5226 H 504.054 -2.79418 1.07545 0
M  V30 5227 H 501.6 -1.34338 0.518593 0
M  V30 5228 H 503.553 -4.0976 -0.983612 0
M  V30 5229 H 502.277 -2.93717 -1.4282 0
M  V30 5230 H 500.936 -3.61776 0.592787 0
M  V30 5231 H 500.584 -4.76895 -1.59939 0
M  V30 5232 H 500.284 -5.8714 -0.232561 0
M  V30 5233 H 501.808 -5.99544 -1.1567 0
M  V30 5234 H 503.222 -5.62938 1.08504 0
M  V30 5235 H 501.619 -5.70123 1.87296 0
M  V30 5236 H 502.689 -4.32451 2.1935 0
M  V30 5237 N 504.032 -0.577932 -1.46621 0
M  V30 5238 C 505.279 -0.0616879 -2.02406 0
M  V30 5239 C 505.607 1.29638 -1.44997 0
M  V30 5240 O 504.862 1.86176 -0.60308 0
M  V30 5241 C 505.161 0.0590832 -3.57351 0
M  V30 5242 C 504.827 -1.23077 -4.33777 0
M  V30 5243 C 503.489 -1.58416 -4.54376 0
M  V30 5244 C 505.841 -2.08457 -4.77698 0
M  V30 5245 C 503.169 -2.78943 -5.16147 0
M  V30 5246 C 505.521 -3.28204 -5.408 0
M  V30 5247 C 504.185 -3.63832 -5.59627 0
M  V30 5248 H 503.455 -0.0225732 -0.740656 0
M  V30 5249 H 506.102 -0.753609 -1.76048 0
M  V30 5250 H 504.407 0.834104 -3.82818 0
M  V30 5251 H 506.104 0.474202 -3.98186 0
M  V30 5252 H 502.694 -0.945652 -4.18038 0
M  V30 5253 H 506.878 -1.82459 -4.61544 0
M  V30 5254 H 502.134 -3.06689 -5.28916 0
M  V30 5255 H 506.308 -3.94634 -5.73792 0
M  V30 5256 H 503.935 -4.57315 -6.07262 0
M  V30 5257 N 505.51 1.54411 -0.315457 0
M  V30 5258 C 506.42 2.27737 0.56329 0
M  V30 5259 C 507.436 1.31787 1.13614 0
M  V30 5260 O 508.612 1.64791 1.15784 0
M  V30 5261 C 505.677 3.01478 1.71207 0
M  V30 5262 C 504.738 4.12997 1.17185 0
M  V30 5263 C 503.971 4.83212 2.26588 0
M  V30 5264 O 504.194 4.52884 3.46775 0
M  V30 5265 O 503.128 5.70299 1.92463 0
M  V30 5266 H 506.954 3.03683 -0.0319614 0
M  V30 5267 H 504.539 1.49178 -0.0814188 0
M  V30 5268 H 506.421 3.47683 2.38106 0
M  V30 5269 H 505.096 2.28414 2.29366 0
M  V30 5270 H 504.003 3.71159 0.468174 0
M  V30 5271 H 505.336 4.8808 0.635501 0
M  V30 5272 N 506.988 0.0434614 1.5754 0
M  V30 5273 C 507.935 -0.93356 2.11077 0
M  V30 5274 C 508.905 -1.31383 1.01626 0
M  V30 5275 O 510.09 -1.40465 1.29129 0
M  V30 5276 C 507.23 -2.20578 2.65404 0
M  V30 5277 C 506.343 -1.88068 3.88914 0
M  V30 5278 C 505.478 -3.09691 4.31584 0
M  V30 5279 C 504.517 -2.73067 5.47815 0
M  V30 5280 N 503.654 -3.87359 5.85574 0
M  V30 5281 H 508.494 -0.470118 2.94268 0
M  V30 5282 H 506.031 -0.220434 1.45439 0
M  V30 5283 H 507.989 -2.95011 2.94999 0
M  V30 5284 H 506.619 -2.64513 1.85021 0
M  V30 5285 H 505.671 -1.03816 3.6596 0
M  V30 5286 H 506.983 -1.57104 4.73413 0
M  V30 5287 H 506.137 -3.92431 4.62691 0
M  V30 5288 H 504.876 -3.43827 3.45882 0
M  V30 5289 H 503.881 -1.88742 5.16388 0
M  V30 5290 H 505.106 -2.40131 6.35227 0
M  V30 5291 H 503.052 -4.21311 5.02825 0
M  V30 5292 H 502.969 -3.60068 6.64746 0
M  V30 5293 H 504.237 -4.70761 6.21292 0
M  V30 5294 N 508.466 -1.55915 -0.229846 0
M  V30 5295 C 509.713 -1.78542 -0.955452 0
M  V30 5296 C 510.041 -0.610785 -1.84661 0
M  V30 5297 O 509.296 0.405213 -1.91459 0
M  V30 5298 C 509.595 -3.06845 -1.8325 0
M  V30 5299 C 509.261 -4.37395 -1.09528 0
M  V30 5300 C 507.923 -4.72868 -0.891598 0
M  V30 5301 C 510.275 -5.18029 -0.574046 0
M  V30 5302 C 507.603 -5.86496 -0.154655 0
M  V30 5303 C 509.955 -6.32423 0.149513 0
M  V30 5304 C 508.619 -6.66504 0.364519 0
M  V30 5305 H 507.889 -0.653333 -0.349625 0
M  V30 5306 H 510.536 -1.90183 -0.224235 0
M  V30 5307 H 508.841 -2.90291 -2.63132 0
M  V30 5308 H 510.538 -3.21553 -2.39592 0
M  V30 5309 H 507.128 -4.09538 -1.26399 0
M  V30 5310 H 511.312 -4.91066 -0.718899 0
M  V30 5311 H 506.568 -6.11396 0.0222356 0
M  V30 5312 H 510.742 -6.94137 0.560947 0
M  V30 5313 H 508.369 -7.54397 0.937495 0
M  V30 5314 N 509.944 0.496216 -1.49584 0
M  V30 5315 C 511.169 1.27865 -1.63295 0
M  V30 5316 C 511.594 1.85592 -0.306156 0
M  V30 5317 O 510.952 1.66092 0.726851 0
M  V30 5318 C 511 2.38128 -2.7079 0
M  V30 5319 O 510.104 3.42108 -2.30296 0
M  V30 5320 H 509.445 0.377279 -0.546403 0
M  V30 5321 H 511.975 0.593497 -1.95803 0
M  V30 5322 H 511.985 2.8382 -2.93104 0
M  V30 5323 H 510.66 1.95479 -3.67098 0
M  V30 5324 H 509.237 3.02301 -2.18331 0
M  V30 5325 N 511.423 1.38739 0.74761 0
M  V30 5326 C 512.386 1.36241 1.84312 0
M  V30 5327 C 513.386 0.261811 1.58654 0
M  V30 5328 O 514.576 0.519031 1.66288 0
M  V30 5329 C 511.708 1.12253 3.21888 0
M  V30 5330 H 512.901 2.33712 1.87933 0
M  V30 5331 H 510.454 1.2412 0.949946 0
M  V30 5332 H 511.189 0.154133 3.23934 0
M  V30 5333 H 510.974 1.91943 3.41907 0
M  V30 5334 H 512.464 1.13215 4.0196 0
M  V30 5335 N 512.901 -0.976442 1.23707 0
M  V30 5336 C 513.849 -2.09078 1.01927 0
M  V30 5337 C 514.843 -1.69345 -0.0430193 0
M  V30 5338 O 516.049 -1.79659 0.110814 0
M  V30 5339 H 512.424 -0.68398 0.312531 0
M  V30 5340 H 514.395 -2.24614 1.96447 0
M  V30 5341 C 513.144 -3.41919 0.631385 0
M  V30 5342 H 512.467 -3.72946 1.44053 0
M  V30 5343 H 513.907 -4.20817 0.518532 0
M  V30 5344 C 512.366 -3.30357 -0.660723 0
M  V30 5345 O 512.896 -3.63542 -1.70881 0
M  V30 5346 N 511.102 -2.83507 -0.638139 0
M  V30 5347 H 510.649 -2.567 0.215108 0
M  V30 5348 H 510.607 -2.76153 -1.50289 0
M  V30 5349 O 514.418 -1.17461 -1.10838 0
M  V30 5350 H 515.109 -0.912283 -1.70872 0
M  V30 END ATOM
M  V30 BEGIN BOND
M  V30 END BOND
M  V30 END CTAB
M  END
$$$$
