drugbank_target|P07773 Catechol 1,2-dioxygenase (DB02232; DB04120)
 OpenBabel12092119543D

  0  0  0     0  0            999 V3000
M  V30 BEGIN CTAB
M  V30 COUNTS 4743 4799 0 0 0
M  V30 BEGIN ATOM
M  V30 1 H -0.908 1.98254 -0.117106 0
M  V30 2 N 0 1.576 0 0
M  V30 3 C 0.933 2.03868 1.02534 0
M  V30 4 C 1.911 0.928543 1.3348 0
M  V30 5 O 3.095 1.19667 1.45644 0
M  V30 6 C 0.222 2.43627 2.35294 0
M  V30 7 C -0.732 3.65373 2.2001 0
M  V30 8 S 0.101 5.13292 1.52614 0
M  V30 9 C 1.257 5.56322 2.86805 0
M  V30 10 H 1.49 2.90518 0.631377 0
M  V30 11 H -0.977 1.52953 0.210867 0
M  V30 12 H 0.981 2.67203 3.11629 0
M  V30 13 H -0.358 1.57376 2.7183 0
M  V30 14 H -1.165 3.90944 3.18086 0
M  V30 15 H -1.563 3.418 1.51819 0
M  V30 16 H 0.729 5.58782 3.83104 0
M  V30 17 H 1.672 6.56266 2.65933 0
M  V30 18 H 2.08 4.83886 2.90714 0
M  V30 19 N 1.4781 -0.272755 1.55222 0
M  V30 20 C 2.3881 -1.35918 1.91216 0
M  V30 21 C 3.4041 -1.54026 0.809436 0
M  V30 22 O 4.5801 -1.68148 1.10852 0
M  V30 23 C 1.6451 -2.69834 2.17693 0
M  V30 24 C 0.7061 -2.6047 3.41253 0
M  V30 25 C -0.0609 -3.88 3.66458 0
M  V30 26 O 0.1621 -4.88693 2.94169 0
M  V30 27 O -0.9039 -3.88189 4.59992 0
M  V30 28 H 2.9221 -1.0839 2.83699 0
M  V30 29 H 0.5071 -0.471301 1.41771 0
M  V30 30 H 2.3891 -3.49017 2.36147 0
M  V30 31 H 1.0641 -2.97148 1.28392 0
M  V30 32 H -0.0289 -1.79663 3.28134 0
M  V30 33 H 1.3041 -2.38106 4.30774 0
M  V30 34 N 2.9562 -1.48159 -0.537278 0
M  V30 35 C 4.2022 -1.56035 -1.29541 0
M  V30 36 C 4.5352 -0.230377 -1.92829 0
M  V30 37 O 3.8102 0.762952 -1.78911 0
M  V30 38 C 4.0932 -2.69323 -2.39034 0
M  V30 39 C 3.9462 -4.12002 -1.80485 0
M  V30 40 C 5.2652 -2.78408 -3.40847 0
M  V30 41 H 2.3842 -0.567992 -0.469632 0
M  V30 42 H 5.0262 -1.80302 -0.599277 0
M  V30 43 H 3.1762 -2.48763 -2.98412 0
M  V30 44 H 4.8482 -4.43981 -1.25215 0
M  V30 45 H 3.0912 -4.19344 -1.11055 0
M  V30 46 H 3.7622 -4.87077 -2.59731 0
M  V30 47 H 6.2382 -2.97012 -2.91416 0
M  V30 48 H 5.1142 -3.59416 -4.14863 0
M  V30 49 H 5.3752 -1.86269 -4.00944 0
M  V30 50 N 4.4343 0.785586 -1.36625 0
M  V30 51 C 5.3813 1.89838 -1.31264 0
M  V30 52 C 6.3513 1.65115 -0.180633 0
M  V30 53 O 7.5363 1.87222 -0.36777 0
M  V30 54 C 4.6763 3.26706 -1.11163 0
M  V30 55 C 3.7893 3.63476 -2.33472 0
M  V30 56 C 2.9243 4.89481 -2.06353 0
M  V30 57 C 1.9633 5.18941 -3.24602 0
M  V30 58 N 1.1003 6.36131 -2.97123 0
M  V30 59 H 5.9403 1.93756 -2.26413 0
M  V30 60 H 3.4773 0.947454 -1.12524 0
M  V30 61 H 5.4353 4.05639 -0.975337 0
M  V30 62 H 4.0653 3.222 -0.196674 0
M  V30 63 H 3.1173 2.79636 -2.57891 0
M  V30 64 H 4.4293 3.81193 -3.21704 0
M  V30 65 H 3.5833 5.76288 -1.89675 0
M  V30 66 H 2.3223 4.73841 -1.15437 0
M  V30 67 H 1.3273 4.30615 -3.41834 0
M  V30 68 H 2.5523 5.36498 -4.16349 0
M  V30 69 H 0.4983 6.21875 -2.08823 0
M  V30 70 H 0.4153 6.54198 -3.78894 0
M  V30 71 H 1.6833 7.2591 -2.84033 0
M  V30 72 N 5.9124 1.20967 1.01018 0
M  V30 73 C 7.1614 1.01796 1.74128 0
M  V30 74 C 7.4744 -0.449691 1.90361 0
M  V30 75 O 8.6804 -0.76068 2.60626 0
M  V30 76 C 7.1364 1.7727 3.13215 0
M  V30 77 C 6.7444 3.28171 3.04972 0
M  V30 78 C 8.4884 1.66489 3.90489 0
M  V30 79 C 6.3954 3.96156 4.39107 0
M  V30 80 H 5.3254 0.377276 0.652824 0
M  V30 81 H 7.9764 1.44651 1.12909 0
M  V30 82 H 6.3584 1.27205 3.75013 0
M  V30 83 H 7.5324 3.85499 2.52443 0
M  V30 84 H 5.8474 3.39437 2.41188 0
M  V30 85 H 8.4444 2.14617 4.89738 0
M  V30 86 H 8.7874 0.6222 4.11624 0
M  V30 87 H 9.3204 2.14003 3.35332 0
M  V30 88 H 6.0594 5.00604 4.23174 0
M  V30 89 H 5.5794 3.43617 4.91617 0
M  V30 90 H 7.2584 4.00774 5.07926 0
M  V30 91 N 7.3905 -1.2043 1.01659 0
M  V30 92 C 8.6375 -1.89797 0.705917 0
M  V30 93 C 8.9655 -1.78848 -0.764439 0
M  V30 94 O 8.2205 -1.16694 -1.57102 0
M  V30 95 C 8.5195 -3.40464 1.08714 0
M  V30 96 C 8.1855 -3.71614 2.5537 0
M  V30 97 C 6.8475 -3.79826 2.95441 0
M  V30 98 C 9.1995 -3.85915 3.50313 0
M  V30 99 C 6.5275 -3.99797 4.29394 0
M  V30 100 C 8.8795 -4.07396 4.83954 0
M  V30 101 C 7.5435 -4.13837 5.23732 0
M  V30 102 H 6.8135 -0.694518 0.258313 0
M  V30 103 H 9.4605 -1.42691 1.27717 0
M  V30 104 H 7.7655 -3.89385 0.434309 0
M  V30 105 H 9.4625 -3.92433 0.824461 0
M  V30 106 H 6.0525 -3.65822 2.23321 0
M  V30 107 H 10.2365 -3.78926 3.20513 0
M  V30 108 H 5.4925 -4.03018 4.59768 0
M  V30 109 H 9.6665 -4.17404 5.57447 0
M  V30 110 H 7.2935 -4.29064 6.27541 0
M  V30 111 N 8.8686 -0.792821 -1.36206 0
M  V30 112 C 9.8166 -0.181555 -2.3189 0
M  V30 113 C 10.8106 0.661025 -1.55971 0
M  V30 114 O 12.0166 0.555728 -1.71206 0
M  V30 115 H 8.3916 -0.0399382 -0.750939 0
M  V30 116 H 10.3626 -1.00394 -2.81005 0
M  V30 117 C 9.1116 0.666444 -3.41253 0
M  V30 118 H 8.4346 0.0274489 -3.99791 0
M  V30 119 H 9.8746 1.06076 -4.10517 0
M  V30 120 C 8.3336 1.82614 -2.83114 0
M  V30 121 O 8.8636 2.9229 -2.75553 0
M  V30 122 N 7.0696 1.63333 -2.40356 0
M  V30 123 H 6.6166 0.741217 -2.46706 0
M  V30 124 H 6.5746 2.41087 -2.01803 0
M  V30 125 N 10.3467 1.47872 -0.545128 0
M  V30 126 C 11.5747 2.06889 -0.021084 0
M  V30 127 C 11.9897 1.39955 1.2672 0
M  V30 128 O 11.3467 0.492036 1.75742 0
M  V30 129 C 11.3977 3.60996 0.190817 0
M  V30 130 O 11.1187 4.25419 -1.04644 0
M  V30 131 C 12.6197 4.36849 0.753521 0
M  V30 132 H 9.8397 0.669785 -0.0403635 0
M  V30 133 H 12.3837 1.90049 -0.755095 0
M  V30 134 H 10.5387 3.77391 0.87492 0
M  V30 135 H 10.9527 5.17785 -0.836611 0
M  V30 136 H 12.4267 5.45399 0.851139 0
M  V30 137 H 12.9037 4.02306 1.762 0
M  V30 138 H 13.5097 4.25169 0.105503 0
M  V30 139 N 11.8248 0.280983 1.55075 0
M  V30 140 C 12.7568 -0.637268 2.20163 0
M  V30 141 C 13.7698 -1.11298 1.18813 0
M  V30 142 O 14.9588 -1.03388 1.4551 0
M  V30 143 C 12.0588 -1.88199 2.81841 0
M  V30 144 C 11.2318 -1.55211 4.08936 0
M  V30 145 C 10.2908 -2.64991 4.54606 0
M  V30 146 O 9.3168 -2.30929 5.2025 0
M  V30 147 N 10.5188 -3.95161 4.25238 0
M  V30 148 H 13.2838 -0.0801694 2.99593 0
M  V30 149 H 10.8448 0.102329 1.61576 0
M  V30 150 H 12.8368 -2.60948 3.09335 0
M  V30 151 H 11.4068 -2.34799 2.06369 0
M  V30 152 H 10.6268 -0.658185 3.88666 0
M  V30 153 H 11.9148 -1.30681 4.91732 0
M  V30 154 H 11.3128 -4.25653 3.72607 0
M  V30 155 H 9.8698 -4.6427 4.5749 0
M  V30 156 N 13.3029 -1.57598 0.00835791 0
M  V30 157 C 14.5799 -1.82172 -0.712235 0
M  V30 158 C 14.9599 -0.887873 -1.9152 0
M  V30 159 O 14.3079 0.06146 -2.28417 0
M  V30 160 C 14.5179 -3.30875 -1.11008 0
M  V30 161 C 15.8659 -3.96826 -1.51044 0
M  V30 162 O 16.8899 -3.35248 -1.20364 0
M  V30 163 O 15.7489 -5.05318 -2.08125 0
M  V30 164 H 12.8429 -0.750435 -0.347529 0
M  V30 165 H 15.3889 -1.69665 0.0344523 0
M  V30 166 H 14.1609 -3.90481 -0.252982 0
M  V30 167 H 13.7839 -3.48412 -1.9156 0
M  V30 168 N 14.781 0.264519 -1.55364 0
M  V30 169 C 16.027 0.99646 -1.76631 0
M  V30 170 C 16.36 1.85632 -0.570478 0
M  V30 171 O 15.635 1.89647 0.43175 0
M  V30 172 C 15.918 1.87187 -3.07625 0
M  V30 173 C 15.771 1.04138 -4.37579 0
M  V30 174 C 17.09 2.85749 -3.34717 0
M  V30 175 H 14.209 0.360841 -0.642622 0
M  V30 176 H 16.851 0.268218 -1.88097 0
M  V30 177 H 15.001 2.49279 -2.9798 0
M  V30 178 H 16.673 0.440517 -4.59192 0
M  V30 179 H 14.916 0.345115 -4.32425 0
M  V30 180 H 15.587 1.68729 -5.2558 0
M  V30 181 H 18.063 2.33793 -3.4421 0
M  V30 182 H 16.939 3.44136 -4.27623 0
M  V30 183 H 17.2 3.61311 -2.54768 0
M  V30 184 N 16.2591 1.48442 0.529413 0
M  V30 185 C 17.1911 1.59095 1.64989 0
M  V30 186 C 18.2041 0.475212 1.5571 0
M  V30 187 O 19.3931 0.746081 1.6216 0
M  V30 188 C 16.4931 1.50518 3.0364 0
M  V30 189 C 15.6661 2.77142 3.38395 0
M  V30 190 C 14.7251 2.62012 4.56329 0
M  V30 191 O 13.7511 3.35898 4.59522 0
M  V30 192 N 14.9531 1.71667 5.54536 0
M  V30 193 H 17.7181 2.55723 1.56287 0
M  V30 194 H 15.2791 1.45173 0.716697 0
M  V30 195 H 17.2711 1.38091 3.80412 0
M  V30 196 H 15.8411 0.618627 3.06418 0
M  V30 197 H 15.0611 3.0413 2.50796 0
M  V30 198 H 16.3491 3.61146 3.58401 0
M  V30 199 H 15.7471 1.10841 5.54735 0
M  V30 200 H 14.3041 1.65178 6.30523 0
M  V30 201 N 17.7372 -0.778329 1.37039 0
M  V30 202 C 19.0142 -1.52551 1.22424 0
M  V30 203 C 19.3942 -2.10288 -0.184964 0
M  V30 204 O 18.7422 -1.94953 -1.19187 0
M  V30 205 C 18.9522 -2.61164 2.31504 0
M  V30 206 C 20.3002 -3.28746 2.68721 0
M  V30 207 O 21.3242 -2.71455 2.30631 0
M  V30 208 O 20.1832 -4.3231 3.3432 0
M  V30 209 H 17.2772 -0.675343 0.477326 0
M  V30 210 H 19.8232 -0.815859 1.48801 0
M  V30 211 H 18.5952 -2.16574 3.25901 0
M  V30 212 H 18.2182 -3.39737 2.06554 0
M  V30 213 N 19.2153 -1.21501 -1.00376 0
M  V30 214 C 20.4623 -1.03299 -1.74171 0
M  V30 215 C 20.7903 0.433326 -1.89612 0
M  V30 216 O 20.0453 1.33779 -1.42834 0
M  V30 217 C 20.3443 -1.67673 -3.15627 0
M  V30 218 C 20.0103 -3.17533 -3.2013 0
M  V30 219 C 18.6723 -3.58427 -3.21067 0
M  V30 220 C 21.0243 -4.13504 -3.17275 0
M  V30 221 C 18.3523 -4.93794 -3.16835 0
M  V30 222 C 20.7043 -5.48834 -3.14585 0
M  V30 223 C 19.3683 -5.89123 -3.13831 0
M  V30 224 H 18.6383 -0.377999 -0.637336 0
M  V30 225 H 21.2853 -1.51111 -1.17634 0
M  V30 226 H 19.5903 -1.12158 -3.75404 0
M  V30 227 H 21.2873 -1.51091 -3.71446 0
M  V30 228 H 17.8773 -2.84965 -3.20145 0
M  V30 229 H 22.0613 -3.82936 -3.15711 0
M  V30 230 H 17.3173 -5.24255 -3.1459 0
M  V30 231 H 21.4913 -6.22934 -3.1133 0
M  V30 232 H 19.1183 -6.93984 -3.10307 0
M  V30 233 N 20.6934 1.19889 -1.02296 0
M  V30 234 C 21.6234 2.25141 -0.619174 0
M  V30 235 C 22.6044 1.66051 0.368915 0
M  V30 236 O 23.7894 1.92546 0.252941 0
M  V30 237 C 20.9194 3.4728 0.0368783 0
M  V30 238 C 19.8734 4.19005 -0.872865 0
M  V30 239 C 19.1994 5.34637 -0.0822402 0
M  V30 240 C 20.4994 4.74452 -2.18387 0
M  V30 241 H 22.1934 2.59171 -1.49903 0
M  V30 242 H 19.7394 1.24579 -0.722222 0
M  V30 243 H 21.6924 4.20098 0.330958 0
M  V30 244 H 20.4164 3.12433 0.95149 0
M  V30 245 H 19.0754 3.48061 -1.15105 0
M  V30 246 H 18.7234 4.96034 0.83422 0
M  V30 247 H 18.4234 5.83557 -0.688149 0
M  V30 248 H 19.9474 6.10255 0.205238 0
M  V30 249 H 21.3614 5.39055 -1.95172 0
M  V30 250 H 19.7584 5.33834 -2.74119 0
M  V30 251 H 20.8284 3.92844 -2.84257 0
M  V30 252 N 22.1715 0.800033 1.35784 0
M  V30 253 C 23.5875 0.482977 1.52117 0
M  V30 254 C 23.7875 -0.996948 1.75109 0
M  V30 255 O 22.8435 -1.78216 1.78872 0
M  V30 256 C 24.1565 1.32264 2.70049 0
M  V30 257 C 25.7045 1.31742 2.83924 0
M  V30 258 C 26.1795 2.14106 4.04874 0
M  V30 259 N 27.6705 2.11607 4.12039 0
M  V30 260 C 28.4055 2.72099 5.04727 0
M  V30 261 N 27.9015 3.41492 6.02789 0
M  V30 262 N 29.6945 2.61776 4.97423 0
M  V30 263 H 21.8455 1.75856 1.19115 0
M  V30 264 H 24.1085 0.748122 0.582252 0
M  V30 265 H 23.8145 2.37261 2.59616 0
M  V30 266 H 23.6885 0.971303 3.6448 0
M  V30 267 H 26.0755 0.275333 2.93813 0
M  V30 268 H 26.1565 1.70859 1.9037 0
M  V30 269 H 25.8005 3.18351 3.95746 0
M  V30 270 H 25.7305 1.72353 4.97596 0
M  V30 271 H 28.2215 1.61112 3.41835 0
M  V30 272 H 28.5345 3.84953 6.70098 0
M  V30 273 H 26.8795 3.45596 6.02983 0
M  V30 274 H 30.0705 2.07157 4.19766 0
M  V30 275 H 30.2435 3.0921 5.69468 0
M  V30 276 N 23.6496 -1.47581 0.552962 0
M  V30 277 C 24.8956 -2.02782 0.0273648 0
M  V30 278 C 25.2286 -1.42687 -1.31734 0
M  V30 279 O 24.5036 -0.580897 -1.85623 0
M  V30 280 C 24.7866 -3.60031 -0.0702371 0
M  V30 281 C 24.6396 -4.30566 1.30126 0
M  V30 282 C 25.9586 -4.33028 -0.785771 0
M  V30 283 H 23.0776 -0.736912 0.0114185 0
M  V30 284 H 25.7196 -1.76056 0.714432 0
M  V30 285 H 23.8696 -3.82932 -0.655382 0
M  V30 286 H 25.5416 -4.19018 1.92929 0
M  V30 287 H 23.7846 -3.91086 1.87709 0
M  V30 288 H 24.4556 -5.39114 1.18573 0
M  V30 289 H 26.9316 -4.15095 -0.288982 0
M  V30 290 H 25.8076 -5.42695 -0.823013 0
M  V30 291 H 26.0686 -4.01945 -1.841 0
M  V30 292 N 25.1277 -0.289203 -1.54924 0
M  V30 293 C 26.0907 0.579144 -2.21762 0
M  V30 294 C 27.0907 1.07047 -1.1999 0
M  V30 295 O 28.2807 0.968384 -1.44803 0
M  V30 296 C 25.4127 1.80055 -2.8947 0
M  V30 297 H 26.6057 -0.00464908 -2.999 0
M  V30 298 H 24.1587 -0.0399306 -1.56249 0
M  V30 299 H 24.8937 2.42449 -2.15381 0
M  V30 300 H 24.6787 1.45602 -3.64064 0
M  V30 301 H 26.1687 2.41773 -3.40493 0
M  V30 302 N 26.6058 1.57591 -0.0167156 0
M  V30 303 C 27.8308 1.9598 0.67872 0
M  V30 304 C 28.2558 0.892546 1.65575 0
M  V30 305 O 27.6138 -0.147772 1.80697 0
M  V30 306 C 27.6618 3.33468 1.37227 0
M  V30 307 O 26.7658 3.28954 2.48722 0
M  V30 308 H 26.1068 0.639339 0.17928 0
M  V30 309 H 28.6368 2.04463 -0.0748802 0
M  V30 310 H 28.6468 3.69417 1.7319 0
M  V30 311 H 27.3218 4.10694 0.656007 0
M  V30 312 H 25.8988 3.04705 2.14963 0
M  V30 313 N 28.0839 -0.256276 1.55502 0
M  V30 314 C 29.3319 -0.983672 1.76545 0
M  V30 315 C 29.6529 -1.86206 0.578982 0
M  V30 316 O 28.9229 -1.91656 -0.405577 0
M  V30 317 H 27.5029 -0.366191 0.651086 0
M  V30 318 H 30.1649 -0.276479 1.92929 0
M  V30 319 H 29.2609 -1.61087 2.67315 0
M  V30 320 N 29.562 -1.4872 -0.521534 0
M  V30 321 C 30.492 -1.66771 -1.63431 0
M  V30 322 C 31.473 -0.516499 -1.62069 0
M  V30 323 O 32.658 -0.750013 -1.79132 0
M  V30 324 C 29.788 -1.71515 -3.01993 0
M  V30 325 C 28.742 -2.86222 -3.18216 0
M  V30 326 C 28.068 -2.76061 -4.57924 0
M  V30 327 C 29.368 -4.27419 -3.00184 0
M  V30 328 H 31.062 -2.59932 -1.48579 0
M  V30 329 H 28.608 -1.25089 -0.713358 0
M  V30 330 H 30.561 -1.82731 -3.7972 0
M  V30 331 H 29.285 -0.749393 -3.17886 0
M  V30 332 H 27.944 -2.74575 -2.42908 0
M  V30 333 H 27.592 -1.77437 -4.70665 0
M  V30 334 H 27.292 -3.53037 -4.69722 0
M  V30 335 H 28.816 -2.89256 -5.37739 0
M  V30 336 H 30.23 -4.39855 -3.67697 0
M  V30 337 H 28.627 -5.05458 -3.2347 0
M  V30 338 H 29.697 -4.43293 -1.96518 0
M  V30 339 N 31.0401 0.771051 -1.3745 0
M  V30 340 C 31.9501 1.91538 -1.35464 0
M  V30 341 C 32.9661 1.72134 -0.254123 0
M  V30 342 O 34.1421 1.95358 -0.489626 0
M  V30 343 C 31.2071 3.26671 -1.16134 0
M  V30 344 C 30.2681 3.58723 -2.35831 0
M  V30 345 C 29.5011 4.87409 -2.17413 0
M  V30 346 O 29.7241 5.58506 -1.15876 0
M  V30 347 O 28.6581 5.18539 -3.05615 0
M  V30 348 H 32.4841 1.96165 -2.31847 0
M  V30 349 H 30.0691 0.9139 -1.18187 0
M  V30 350 H 31.9511 4.07499 -1.07345 0
M  V30 351 H 30.6261 3.22894 -0.228251 0
M  V30 352 H 29.5331 2.78127 -2.50192 0
M  V30 353 H 30.8661 3.67243 -3.27709 0
M  V30 354 N 32.5182 1.22032 0.997298 0
M  V30 355 C 33.4502 0.944263 2.08845 0
M  V30 356 C 34.4632 -0.0754663 1.62625 0
M  V30 357 O 35.6522 0.157994 1.77799 0
M  V30 358 C 32.7522 0.397723 3.36558 0
M  V30 359 C 31.9252 1.47362 4.11829 0
M  V30 360 C 30.9842 0.934951 5.17827 0
M  V30 361 O 30.0102 1.62016 5.45655 0
M  V30 362 N 31.2122 -0.245895 5.79979 0
M  V30 363 H 33.9772 1.88363 2.33109 0
M  V30 364 H 31.5382 1.12661 1.16272 0
M  V30 365 H 33.5302 0.0227771 4.04694 0
M  V30 366 H 32.1002 -0.446646 3.09393 0
M  V30 367 H 31.3202 2.02208 3.38386 0
M  V30 368 H 32.6082 2.19764 4.58891 0
M  V30 369 H 32.0062 -0.819475 5.59733 0
M  V30 370 H 30.5632 -0.562272 6.4937 0
M  V30 371 N 33.9963 -1.19345 1.0293 0
M  V30 372 C 34.9063 -2.26245 0.620515 0
M  V30 373 C 35.9223 -1.70486 -0.347928 0
M  V30 374 O 37.0983 -2.00347 -0.205704 0
M  V30 375 C 34.1633 -3.46693 -0.0218957 0
M  V30 376 C 33.2243 -4.17632 0.994102 0
M  V30 377 C 32.4573 -5.32329 0.382253 0
M  V30 378 O 32.6803 -5.64552 -0.814676 0
M  V30 379 O 31.6143 -5.91664 1.10531 0
M  V30 380 H 35.4403 -2.63453 1.51083 0
M  V30 381 H 33.0253 -1.26207 0.799513 0
M  V30 382 H 34.9073 -4.19683 -0.380072 0
M  V30 383 H 33.5823 -3.11333 -0.886209 0
M  V30 384 H 32.4893 -3.4676 1.40387 0
M  V30 385 H 33.8223 -4.56964 1.8288 0
M  V30 386 N 35.4744 -0.807222 -1.35358 0
M  V30 387 C 36.7224 -0.387122 -1.98358 0
M  V30 388 C 37.0434 1.04942 -1.64354 0
M  V30 389 O 36.3134 1.72615 -0.926339 0
M  V30 390 H 34.8934 -0.140154 -0.733734 0
M  V30 391 H 37.5554 -1.0332 -1.6526 0
M  V30 392 H 36.6514 -0.493352 -3.08176 0
M  V30 393 N 36.9525 1.47285 -0.560781 0
M  V30 394 C 38.2005 2.02064 -0.0379868 0
M  V30 395 C 38.5215 1.43711 1.31803 0
M  V30 396 O 37.7915 0.61362 1.86042 0
M  V30 397 H 36.3715 0.746918 -0.0110531 0
M  V30 398 H 39.0335 1.80648 -0.731598 0
M  V30 399 H 38.1295 3.12064 0.0474463 0
M  V30 400 N 38.4306 0.297415 1.54768 0
M  V30 401 C 39.3786 -0.596051 2.24833 0
M  V30 402 C 40.3726 -1.13992 1.25308 0
M  V30 403 O 41.5786 -1.09098 1.4317 0
M  V30 404 H 37.9536 -0.210814 0.721846 0
M  V30 405 H 39.9246 0.0174667 2.98395 0
M  V30 406 C 38.6736 -1.75818 2.99972 0
M  V30 407 H 37.9966 -1.3489 3.76357 0
M  V30 408 H 39.4366 -2.35949 3.52284 0
M  V30 409 C 37.8956 -2.66014 2.06732 0
M  V30 410 O 38.4256 -3.67009 1.63302 0
M  V30 411 N 36.6316 -2.33669 1.72763 0
M  V30 412 H 36.1786 -1.51586 2.08277 0
M  V30 413 H 36.1366 -2.94285 1.10652 0
M  V30 414 N 39.9087 -1.5758 0.0250728 0
M  V30 415 C 41.3197 -1.79476 -0.514323 0
M  V30 416 C 41.6707 -0.934956 -1.72491 0
M  V30 417 O 40.7957 -0.144245 -2.15919 0
M  V30 418 C 41.3907 -3.25503 -0.939842 0
M  V30 419 C 39.9497 -3.48408 -1.42438 0
M  V30 420 C 39.0967 -2.74583 -0.387201 0
M  V30 421 H 42.0477 -1.567 0.25113 0
M  V30 422 H 42.0687 -3.34992 -1.80445 0
M  V30 423 H 41.5807 -3.88056 -0.0585628 0
M  V30 424 H 39.6817 -2.91103 -2.32572 0
M  V30 425 H 39.7947 -4.57119 -1.43455 0
M  V30 426 H 38.1587 -2.39942 -0.854409 0
M  V30 427 H 38.9417 -3.39849 0.485543 0
M  V30 428 N 41.3868 0.248026 -1.55636 0
M  V30 429 C 42.8028 0.596483 -1.48035 0
M  V30 430 C 43.0028 1.88386 -0.715039 0
M  V30 431 O 42.0588 2.51319 -0.243944 0
M  V30 432 C 43.3718 0.700258 -2.92433 0
M  V30 433 C 44.9198 0.792659 -3.02797 0
M  V30 434 C 45.3948 0.928005 -4.485 0
M  V30 435 N 46.8858 0.992903 -4.52433 0
M  V30 436 C 47.6208 1.11687 -5.62418 0
M  V30 437 N 47.1168 1.20645 -6.82214 0
M  V30 438 N 48.9098 1.14994 -5.50212 0
M  V30 439 H 41.0608 -0.597109 -2.03834 0
M  V30 440 H 43.3238 -0.205925 -0.925364 0
M  V30 441 H 43.0298 -0.175658 -3.51261 0
M  V30 442 H 42.9038 1.57255 -3.42857 0
M  V30 443 H 45.2908 1.65903 -2.4405 0
M  V30 444 H 45.3718 -0.104762 -2.55585 0
M  V30 445 H 45.0158 0.0661971 -5.07857 0
M  V30 446 H 44.9458 1.84045 -4.93391 0
M  V30 447 H 47.4368 0.935064 -3.66149 0
M  V30 448 H 47.7498 1.30008 -7.61786 0
M  V30 449 H 46.0948 1.17605 -6.84977 0
M  V30 450 H 49.2858 1.07643 -4.55555 0
M  V30 451 H 49.4588 1.24311 -6.35965 0
M  V30 452 N 42.8649 1.48995 0.513639 0
M  V30 453 C 44.1109 1.58076 1.27042 0
M  V30 454 C 44.4439 0.261026 1.92438 0
M  V30 455 O 43.7189 -0.734393 1.80103 0
M  V30 456 C 44.0019 2.73091 2.34719 0
M  V30 457 C 43.8549 4.14821 1.73907 0
M  V30 458 C 45.1739 2.83796 3.36375 0
M  V30 459 H 42.2929 0.575391 0.460536 0
M  V30 460 H 44.9349 1.81232 0.570516 0
M  V30 461 H 43.0849 2.53479 2.94416 0
M  V30 462 H 44.7569 4.45917 1.18135 0
M  V30 463 H 42.9999 4.21058 1.0437 0
M  V30 464 H 43.6709 4.91147 2.51949 0
M  V30 465 H 46.1469 3.01611 2.86653 0
M  V30 466 H 45.0229 3.65971 4.09093 0
M  V30 467 H 45.2839 1.92624 3.9793 0
M  V30 468 N 44.343 -0.763751 1.37857 0
M  V30 469 C 45.29 -1.87726 1.34267 0
M  V30 470 C 46.26 -1.64807 0.206879 0
M  V30 471 O 47.445 -1.86613 0.397508 0
M  V30 472 C 44.585 -3.24896 1.16346 0
M  V30 473 C 43.698 -3.59716 2.39225 0
M  V30 474 C 42.833 -4.86137 2.14114 0
M  V30 475 C 41.872 -5.13711 3.32817 0
M  V30 476 N 41.009 -6.31323 3.07206 0
M  V30 477 H 45.849 -1.90129 2.29466 0
M  V30 478 H 43.386 -0.929433 1.14017 0
M  V30 479 H 45.344 -4.04036 1.03975 0
M  V30 480 H 43.974 -3.21847 0.247909 0
M  V30 481 H 43.026 -2.75498 2.62307 0
M  V30 482 H 44.338 -3.76027 3.27728 0
M  V30 483 H 43.492 -5.73198 1.9882 0
M  V30 484 H 42.231 -4.71945 1.22961 0
M  V30 485 H 41.236 -4.25123 3.48641 0
M  V30 486 H 42.461 -5.29807 4.24832 0
M  V30 487 H 40.407 -6.18474 2.1869 0
M  V30 488 H 40.324 -6.48087 3.89254 0
M  V30 489 H 41.592 -7.213 2.95546 0
M  V30 490 N 45.8211 -1.22559 -0.990812 0
M  V30 491 C 46.7531 -0.955325 -2.08342 0
M  V30 492 C 47.7661 0.0668408 -1.62663 0
M  V30 493 O 48.9551 -0.167421 -1.77713 0
M  V30 494 C 46.0551 -0.415566 -3.36342 0
M  V30 495 C 45.2281 -1.49544 -4.11042 0
M  V30 496 C 44.2871 -0.962399 -5.17324 0
M  V30 497 O 43.3131 -1.64907 -5.44788 0
M  V30 498 N 44.5151 0.215134 -5.80101 0
M  V30 499 H 47.2801 -1.89596 -2.32106 0
M  V30 500 H 44.8411 -1.13276 -1.15673 0
M  V30 501 H 46.8331 -0.0442386 -4.04676 0
M  V30 502 H 45.4031 0.430232 -3.09625 0
M  V30 503 H 44.6231 -2.04 -3.37309 0
M  V30 504 H 45.9111 -2.22195 -4.57719 0
M  V30 505 H 45.3091 0.789779 -5.6016 0
M  V30 506 H 43.8661 0.527826 -6.49659 0
M  V30 507 N 47.2992 1.18797 -1.03562 0
M  V30 508 C 48.5482 1.87978 -0.731235 0
M  V30 509 C 48.8612 1.80911 0.743671 0
M  V30 510 O 50.0672 2.45407 1.16137 0
M  V30 511 C 48.5232 3.3721 -1.25768 0
M  V30 512 C 48.1312 3.52818 -2.76085 0
M  V30 513 C 49.8752 4.11825 -1.0296 0
M  V30 514 C 47.7822 4.9598 -3.22114 0
M  V30 515 H 46.7122 0.704063 -0.269835 0
M  V30 516 H 49.3632 1.34266 -1.25079 0
M  V30 517 H 47.7452 3.90359 -0.666011 0
M  V30 518 H 48.9192 3.09965 -3.40966 0
M  V30 519 H 47.2342 2.91602 -2.97249 0
M  V30 520 H 49.8312 5.17411 -1.34869 0
M  V30 521 H 50.1742 4.16287 0.0333546 0
M  V30 522 H 50.7072 3.64833 -1.58562 0
M  V30 523 H 47.4462 4.96684 -4.27768 0
M  V30 524 H 46.9662 5.39569 -2.61965 0
M  V30 525 H 48.6452 5.6467 -3.15844 0
M  V30 526 N 48.7773 0.814389 1.34928 0
M  V30 527 C 50.0263 0.394871 1.97797 0
M  V30 528 C 50.3393 -1.04555 1.65311 0
M  V30 529 O 51.5453 -1.56856 2.21604 0
M  V30 530 C 50.0013 0.655103 3.53888 0
M  V30 531 C 49.6093 2.10858 3.95276 0
M  V30 532 C 51.3533 0.301329 4.23429 0
M  V30 533 C 49.2603 2.31415 5.44244 0
M  V30 534 H 48.1903 0.143913 0.740139 0
M  V30 535 H 50.8413 0.999544 1.53888 0
M  V30 536 H 49.2233 -0.0196253 3.95995 0
M  V30 537 H 50.3973 2.82176 3.64298 0
M  V30 538 H 48.7123 2.42297 3.38646 0
M  V30 539 H 51.3093 0.432869 5.32945 0
M  V30 540 H 51.6523 -0.75331 4.09428 0
M  V30 541 H 52.1853 0.930288 3.86769 0
M  V30 542 H 48.9243 3.35353 5.63222 0
M  V30 543 H 48.4443 1.6463 5.76764 0
M  V30 544 H 50.1233 2.13352 6.10811 0
M  V30 545 N 50.2554 -1.46986 0.568584 0
M  V30 546 C 51.2054 -2.27179 -0.193339 0
M  V30 547 C 52.1894 -1.35035 -0.874895 0
M  V30 548 O 53.3814 -1.5931 -0.771322 0
M  V30 549 C 50.5104 -3.21063 -1.21546 0
M  V30 550 C 49.5964 -4.2069 -0.536738 0
M  V30 551 N 49.9874 -5.04218 0.399673 0
M  V30 552 C 48.2854 -4.38961 -0.789254 0
M  V30 553 C 48.9864 -5.76242 0.795017 0
M  V30 554 N 47.9624 -5.434 0.1473 0
M  V30 555 H 51.7644 -2.89146 0.526458 0
M  V30 556 H 49.2784 -1.57664 0.389342 0
M  V30 557 H 51.2754 -3.77209 -1.77536 0
M  V30 558 H 49.9354 -2.60654 -1.93623 0
M  V30 559 H 50.9464 -5.12077 0.774454 0
M  V30 560 H 47.6234 -3.89713 -1.49767 0
M  V30 561 H 49.0134 -6.53417 1.56513 0
M  V30 562 N 51.7335 -0.305618 -1.54608 0
M  V30 563 C 53.1495 0.0476228 -1.59529 0
M  V30 564 C 53.3495 1.52025 -1.32252 0
M  V30 565 O 52.4055 2.27368 -1.09818 0
M  V30 566 C 53.7185 -0.354471 -2.98603 0
M  V30 567 C 55.2665 -0.303622 -3.11524 0
M  V30 568 C 55.7415 -0.680608 -4.52915 0
M  V30 569 N 57.2325 -0.63332 -4.5885 0
M  V30 570 C 57.9675 -0.897432 -5.66334 0
M  V30 571 N 57.4635 -1.22775 -6.81834 0
M  V30 572 N 59.2565 -0.824186 -5.56025 0
M  V30 573 H 51.4075 -1.2653 -1.70599 0
M  V30 574 H 53.6705 -0.513291 -0.797017 0
M  V30 575 H 53.3765 -1.3798 -3.23503 0
M  V30 576 H 53.2505 0.289568 -3.76087 0
M  V30 577 H 55.6375 0.712472 -2.8637 0
M  V30 578 H 55.7185 -0.982348 -2.36185 0
M  V30 579 H 55.3625 -1.69453 -4.78799 0
M  V30 580 H 55.2925 0.0202385 -5.26596 0
M  V30 581 H 57.7835 -0.389138 -3.75891 0
M  V30 582 H 58.0965 -1.41513 -7.59733 0
M  V30 583 H 56.4415 -1.26583 -6.83375 0
M  V30 584 H 59.6325 -0.565748 -4.64669 0
M  V30 585 H 59.8055 -1.03338 -6.39707 0
M  V30 586 N 53.2116 1.57565 -0.0334293 0
M  V30 587 C 54.4576 1.92262 0.645226 0
M  V30 588 C 54.7906 0.910543 1.71531 0
M  V30 589 O 54.0656 -0.066099 1.94388 0
M  V30 590 C 54.3486 3.37422 1.2577 0
M  V30 591 C 54.2016 4.49369 0.196891 0
M  V30 592 C 55.5206 3.82628 2.17449 0
M  V30 593 H 52.6396 0.699171 0.233085 0
M  V30 594 H 55.2816 1.89779 -0.0915694 0
M  V30 595 H 53.4316 3.39669 1.88566 0
M  V30 596 H 55.1036 4.59254 -0.433962 0
M  V30 597 H 53.3466 4.31168 -0.477137 0
M  V30 598 H 54.0176 5.47978 0.665124 0
M  V30 599 H 56.4936 3.82145 1.64634 0
M  V30 600 H 55.3696 4.84883 2.57254 0
M  V30 601 H 55.6306 3.18376 3.0674 0
M  V30 602 N 54.6897 -0.239769 1.55765 0
M  V30 603 C 55.6197 -1.30052 1.9393 0
M  V30 604 C 56.6007 -1.49839 0.805132 0
M  V30 605 O 57.7857 -1.62328 1.06599 0
M  V30 606 C 54.9157 -2.65391 2.2402 0
M  V30 607 C 53.8697 -2.60289 3.39755 0
M  V30 608 C 53.1957 -3.99489 3.55405 0
M  V30 609 C 54.4957 -2.16654 4.75246 0
M  V30 610 H 56.1897 -0.983573 2.82783 0
M  V30 611 H 53.7357 -0.471701 1.36055 0
M  V30 612 H 55.6887 -3.3974 2.49308 0
M  V30 613 H 54.4127 -2.98736 1.32 0
M  V30 614 H 53.0717 -1.88398 3.14487 0
M  V30 615 H 52.7197 -4.30112 2.60793 0
M  V30 616 H 52.4197 -3.96962 4.33238 0
M  V30 617 H 53.9437 -4.75528 3.83022 0
M  V30 618 H 55.3577 -2.80737 4.99859 0
M  V30 619 H 53.7547 -2.25223 5.56232 0
M  V30 620 H 54.8247 -1.11835 4.71827 0
M  V30 621 N 56.1678 -1.49265 -0.50573 0
M  V30 622 C 57.3928 -1.62478 -1.28902 0
M  V30 623 C 57.8178 -0.294332 -1.85783 0
M  V30 624 O 57.1758 0.737412 -1.65626 0
M  V30 625 C 57.2238 -2.69268 -2.39848 0
M  V30 626 O 56.3278 -2.28113 -3.43567 0
M  V30 627 H 55.6688 -0.54399 -0.380751 0
M  V30 628 H 58.1988 -1.95421 -0.605952 0
M  V30 629 H 58.2088 -2.91291 -2.85681 0
M  V30 630 H 56.8838 -3.65846 -1.97812 0
M  V30 631 H 55.4608 -2.16401 -3.03685 0
M  V30 632 N 57.6459 0.756429 -1.3826 0
M  V30 633 C 58.9229 1.50584 -1.24835 0
M  V30 634 C 59.3029 2.10556 0.151485 0
M  V30 635 O 58.6509 1.96825 1.1607 0
M  V30 636 C 58.8609 2.57448 -2.3563 0
M  V30 637 C 60.2089 3.24429 -2.73917 0
M  V30 638 O 61.2329 2.67751 -2.34921 0
M  V30 639 O 60.0919 4.26937 -3.41156 0
M  V30 640 H 57.1859 0.667664 -0.48801 0
M  V30 641 H 59.7319 0.792083 -1.5008 0
M  V30 642 H 58.5039 2.11362 -3.29305 0
M  V30 643 H 58.1269 3.36408 -2.11933 0
M  V30 644 N 59.124 1.23083 0.984299 0
M  V30 645 C 60.054 1.03292 2.09411 0
M  V30 646 C 61.035 -0.048923 1.7003 0
M  V30 647 O 62.22 0.114967 1.93859 0
M  V30 648 C 59.35 0.619155 3.41736 0
M  V30 649 C 58.304 1.64791 3.95004 0
M  V30 650 C 57.63 1.0897 5.23478 0
M  V30 651 C 58.93 3.03999 4.24714 0
M  V30 652 H 60.624 1.96119 2.26225 0
M  V30 653 H 58.17 0.944344 1.08711 0
M  V30 654 H 60.123 0.467777 4.18796 0
M  V30 655 H 58.847 -0.344786 3.24775 0
M  V30 656 H 57.506 1.78721 3.20085 0
M  V30 657 H 57.154 0.11686 5.02864 0
M  V30 658 H 56.854 1.77704 5.60085 0
M  V30 659 H 58.378 0.950093 6.03163 0
M  V30 660 H 59.792 2.93393 4.92538 0
M  V30 661 H 58.189 3.69936 4.72512 0
M  V30 662 H 59.259 3.53285 3.32142 0
M  V30 663 N 60.6021 -1.18246 1.0419 0
M  V30 664 C 61.8321 -1.91916 0.764961 0
M  V30 665 C 62.2401 -1.76485 -0.681898 0
M  V30 666 O 61.5831 -1.09275 -1.47664 0
M  V30 667 C 61.6451 -3.4373 1.05309 0
M  V30 668 C 61.3091 -3.8294 2.4941 0
M  V30 669 C 62.3061 -3.86621 3.47592 0
M  V30 670 C 59.9911 -4.142 2.84155 0
M  V30 671 C 61.9851 -4.21013 4.78568 0
M  V30 672 C 59.6721 -4.48262 4.15337 0
M  V30 673 C 60.6701 -4.51645 5.12353 0
M  V30 674 O 60.3581 -4.84911 6.41183 0
M  V30 675 H 60.0901 -0.61606 0.278292 0
M  V30 676 H 62.6441 -1.50947 1.39299 0
M  V30 677 H 60.8741 -3.84946 0.367933 0
M  V30 678 H 62.5631 -3.9865 0.763752 0
M  V30 679 H 63.3291 -3.62607 3.22089 0
M  V30 680 H 59.2081 -4.10743 2.09311 0
M  V30 681 H 62.7521 -4.23568 5.54289 0
M  V30 682 H 58.6491 -4.71737 4.40607 0
M  V30 683 H 59.4171 -5.02809 6.45852 0
M  V30 684 N 62.0802 -0.821533 -1.34494 0
M  V30 685 C 63.0272 -0.240397 -2.29545 0
M  V30 686 C 63.9972 0.634031 -1.53523 0
M  V30 687 O 65.1822 0.575966 -1.81899 0
M  V30 688 C 62.3222 0.592869 -3.39969 0
M  V30 689 C 61.4352 -0.30365 -4.30932 0
M  V30 690 C 60.5702 0.539049 -5.28458 0
M  V30 691 C 59.6092 -0.356942 -6.11058 0
M  V30 692 N 58.7462 0.446603 -7.00678 0
M  V30 693 H 63.5862 -1.05632 -2.7865 0
M  V30 694 H 61.1232 -0.532413 -1.37127 0
M  V30 695 H 63.0812 1.09129 -4.02675 0
M  V30 696 H 61.7112 1.37392 -2.92102 0
M  V30 697 H 60.7632 -0.920276 -3.691 0
M  V30 698 H 62.0752 -0.992661 -4.88823 0
M  V30 699 H 61.2292 1.102 -5.96608 0
M  V30 700 H 59.9682 1.26157 -4.71101 0
M  V30 701 H 58.9732 -0.932047 -5.41842 0
M  V30 702 H 60.1982 -1.07755 -6.70497 0
M  V30 703 H 58.1442 1.15282 -6.45791 0
M  V30 704 H 58.0612 -0.184048 -7.55776 0
M  V30 705 H 59.3292 0.992352 -7.73158 0
M  V30 706 N 63.5583 1.46682 -0.576371 0
M  V30 707 C 64.5213 2.28707 0.150239 0
M  V30 708 C 65.5213 1.38035 0.824794 0
M  V30 709 O 66.7113 1.60476 0.677719 0
M  V30 710 C 63.8433 3.18248 1.22192 0
M  V30 711 H 65.0363 2.94423 -0.570521 0
M  V30 712 H 62.5893 1.52688 -0.334078 0
M  V30 713 H 63.3243 2.57265 1.97447 0
M  V30 714 H 63.1093 3.85 0.742812 0
M  V30 715 H 64.5993 3.80001 1.73172 0
M  V30 716 N 65.0364 0.313813 1.54444 0
M  V30 717 C 66.2854 -0.292519 1.99568 0
M  V30 718 C 66.5984 -1.54011 1.20582 0
M  V30 719 O 67.8044 -2.22183 1.56035 0
M  V30 720 C 66.2604 -0.571752 3.55329 0
M  V30 721 C 65.8684 0.658229 4.43138 0
M  V30 722 C 67.6124 -1.13857 4.08946 0
M  V30 723 C 65.5194 0.351439 5.90355 0
M  V30 724 H 64.4494 -0.113079 0.745472 0
M  V30 725 H 67.1004 0.424518 1.78522 0
M  V30 726 H 65.4824 -1.34872 3.72325 0
M  V30 727 H 66.6564 1.43403 4.37918 0
M  V30 728 H 64.9714 1.14458 4.0036 0
M  V30 729 H 67.5684 -1.38257 5.16516 0
M  V30 730 H 67.9114 -2.08489 3.6033 0
M  V30 731 H 68.4444 -0.423015 3.95544 0
M  V30 732 H 65.1834 1.26667 6.43145 0
M  V30 733 H 64.7034 -0.386842 5.98551 0
M  V30 734 H 66.3824 -0.0423134 6.46986 0
M  V30 735 N 66.5145 -1.57545 0.0417849 0
M  V30 736 C 67.4245 -2.14451 -0.951213 0
M  V30 737 C 68.4405 -1.09992 -1.34825 0
M  V30 738 O 69.6165 -1.42114 -1.42708 0
M  V30 739 C 66.6815 -2.67063 -2.21084 0
M  V30 740 C 65.7425 -3.86284 -1.87304 0
M  V30 741 C 64.9755 -4.36378 -3.07261 0
M  V30 742 O 65.1985 -3.85587 -4.20332 0
M  V30 743 O 64.1325 -5.28077 -2.88822 0
M  V30 744 H 67.9585 -2.99601 -0.497287 0
M  V30 745 H 65.5435 -1.48317 -0.179567 0
M  V30 746 H 67.4255 -3.00914 -2.95006 0
M  V30 747 H 66.1005 -1.84989 -2.65633 0
M  V30 748 H 65.0075 -3.57338 -1.10727 0
M  V30 749 H 66.3405 -4.6956 -1.47562 0
M  V30 750 N 67.9926 0.231505 -1.5589 0
M  V30 751 C 69.2696 0.981096 -1.69215 0
M  V30 752 C 69.6496 2.02799 -0.586164 0
M  V30 753 O 68.9976 2.24823 0.408253 0
M  V30 754 C 69.2076 1.60054 -3.10135 0
M  V30 755 C 70.5556 2.09658 -3.69227 0
M  V30 756 O 71.5796 1.69967 -3.13033 0
M  V30 757 O 70.4386 2.8258 -4.67772 0
M  V30 758 H 67.5326 0.457653 -0.688827 0
M  V30 759 H 70.0786 0.224073 -1.68214 0
M  V30 760 H 68.8506 0.844105 -3.82087 0
M  V30 761 H 68.4736 2.42336 -3.15212 0
M  V30 762 N 69.4707 1.49531 0.497807 0
M  V30 763 C 70.4007 1.6935 1.60757 0
M  V30 764 C 71.3817 0.542218 1.61227 0
M  V30 765 O 72.5667 0.778417 1.77917 0
M  V30 766 C 69.6967 1.76298 2.99226 0
M  V30 767 C 68.6507 2.91248 3.13622 0
M  V30 768 C 67.9767 2.83312 4.53474 0
M  V30 769 C 69.2767 4.3214 2.93346 0
M  V30 770 H 70.9707 2.62263 1.44425 0
M  V30 771 H 68.5167 1.26208 0.693367 0
M  V30 772 H 70.4697 1.88749 3.76765 0
M  V30 773 H 69.1937 0.799871 3.16654 0
M  V30 774 H 67.8527 2.78404 2.38509 0
M  V30 775 H 67.5007 1.84902 4.67782 0
M  V30 776 H 67.2007 3.60465 4.64046 0
M  V30 777 H 68.7247 2.97775 5.33069 0
M  V30 778 H 70.1387 4.45649 3.60652 0
M  V30 779 H 68.5357 5.1054 3.15387 0
M  V30 780 H 69.6057 4.46363 1.89441 0
M  V30 781 N 70.9488 -0.749086 1.3866 0
M  V30 782 C 71.8968 -1.88428 1.36373 0
M  V30 783 C 72.8908 -1.67561 0.248929 0
M  V30 784 O 74.0968 -1.75074 0.41821 0
M  V30 785 H 70.4718 -0.620023 0.42553 0
M  V30 786 H 72.4428 -1.87473 2.32156 0
M  V30 787 C 71.1918 -3.25961 1.21014 0
M  V30 788 H 70.5148 -3.42607 2.06059 0
M  V30 789 H 71.9548 -4.05625 1.23469 0
M  V30 790 C 70.4138 -3.36799 -0.0825941 0
M  V30 791 O 70.9438 -3.87517 -1.05797 0
M  V30 792 N 69.1498 -2.90258 -0.140939 0
M  V30 793 H 68.6968 -2.49174 0.653477 0
M  V30 794 H 68.6548 -2.97889 -1.00545 0
M  V30 795 N 72.4269 -1.23603 -0.977757 0
M  V30 796 C 73.6759 -1.06377 -1.71368 0
M  V30 797 C 73.9889 0.399062 -1.91486 0
M  V30 798 O 75.1949 0.691312 -2.62551 0
M  V30 799 C 73.6509 -1.85512 -3.08404 0
M  V30 800 C 73.2589 -3.36141 -2.96164 0
M  V30 801 C 75.0029 -1.76783 -3.85938 0
M  V30 802 C 72.9099 -4.07659 -4.28449 0
M  V30 803 H 71.8399 -0.394452 -0.642591 0
M  V30 804 H 74.4909 -1.47594 -1.09034 0
M  V30 805 H 72.8729 -1.37103 -3.71509 0
M  V30 806 H 74.0469 -3.92056 -2.42133 0
M  V30 807 H 72.3619 -3.45712 -2.32104 0
M  V30 808 H 74.9589 -2.27526 -4.83876 0
M  V30 809 H 75.3019 -0.731116 -4.0983 0
M  V30 810 H 75.8349 -2.22818 -3.2954 0
M  V30 811 H 72.5739 -5.11648 -4.09752 0
M  V30 812 H 72.0939 -3.5653 -4.82334 0
M  V30 813 H 73.7729 -4.141 -4.97122 0
M  V30 814 N 73.905 1.17692 -1.04816 0
M  V30 815 C 75.133 1.91786 -0.776254 0
M  V30 816 C 75.548 1.76604 0.667577 0
M  V30 817 O 74.905 1.10067 1.45573 0
M  V30 818 C 74.956 3.42967 -1.14263 0
M  V30 819 O 74.677 3.57678 -2.52978 0
M  V30 820 C 76.178 4.34144 -0.896311 0
M  V30 821 H 73.398 0.608624 -0.282519 0
M  V30 822 H 75.942 1.49268 -1.39783 0
M  V30 823 H 74.097 3.83245 -0.565874 0
M  V30 824 H 74.511 4.51319 -2.67229 0
M  V30 825 H 75.985 5.38744 -1.20244 0
M  V30 826 H 76.462 4.38876 0.168636 0
M  V30 827 H 77.068 3.99574 -1.45672 0
M  V30 828 N 75.3831 0.828654 1.34056 0
M  V30 829 C 76.6081 0.431637 2.02859 0
M  V30 830 C 77.0331 -0.956339 1.61975 0
M  V30 831 O 76.3911 -1.62338 0.807228 0
M  V30 832 C 76.4391 0.548323 3.56407 0
M  V30 833 O 75.5431 -0.429556 4.10157 0
M  V30 834 H 74.8841 0.176886 0.640006 0
M  V30 835 H 77.4141 1.12066 1.71179 0
M  V30 836 H 77.4241 0.426196 4.05768 0
M  V30 837 H 76.0991 1.5606 3.8551 0
M  V30 838 H 74.6761 -0.265836 3.71951 0
M  V30 839 N 76.8612 -1.46375 0.584142 0
M  V30 840 C 78.1382 -1.956 0.0033388 0
M  V30 841 C 78.5182 -1.52679 -1.45782 0
M  V30 842 O 77.8662 -0.77816 -2.14842 0
M  V30 843 C 78.0762 -3.48551 0.176891 0
M  V30 844 C 79.4242 -4.24576 0.0454609 0
M  V30 845 O 80.4482 -3.56043 0.105801 0
M  V30 846 O 79.3072 -5.46427 -0.0890376 0
M  V30 847 H 76.4012 -0.825547 -0.0490066 0
M  V30 848 H 78.9472 -1.56652 0.65256 0
M  V30 849 H 77.7192 -3.72683 1.1926 0
M  V30 850 H 77.3422 -3.94332 -0.508695 0
M  V30 851 N 78.3393 -0.321999 -1.54275 0
M  V30 852 C 79.2493 0.553631 -2.27974 0
M  V30 853 C 80.2653 1.13054 -1.32268 0
M  V30 854 O 81.4413 1.15084 -1.6528 0
M  V30 855 C 78.5063 1.69927 -3.02201 0
M  V30 856 C 77.5673 1.15433 -4.1349 0
M  V30 857 C 76.8003 2.24537 -4.84168 0
M  V30 858 O 77.0233 3.44852 -4.5435 0
M  V30 859 O 75.9573 1.90044 -5.7111 0
M  V30 860 H 79.7833 -0.0448345 -3.03667 0
M  V30 861 H 77.3683 -0.0877418 -1.49142 0
M  V30 862 H 79.2503 2.3663 -3.48689 0
M  V30 863 H 77.9253 2.28395 -2.29385 0
M  V30 864 H 76.8323 0.452436 -3.71354 0
M  V30 865 H 78.1653 0.614805 -4.88345 0
M  V30 866 N 79.8174 1.5752 -0.0501392 0
M  V30 867 C 81.0474 1.96678 0.632573 0
M  V30 868 C 81.4554 0.926298 1.64974 0
M  V30 869 O 80.7984 -0.09802 1.83438 0
M  V30 870 C 80.8604 3.32068 1.37735 0
M  V30 871 C 80.5244 4.54076 0.516131 0
M  V30 872 C 81.5214 5.19445 -0.217357 0
M  V30 873 C 79.2064 5.00304 0.44736 0
M  V30 874 C 81.2004 6.29378 -1.00807 0
M  V30 875 C 78.8874 6.10114 -0.347038 0
M  V30 876 C 79.8854 6.74512 -1.07344 0
M  V30 877 O 79.5734 7.82211 -1.85477 0
M  V30 878 H 79.3054 0.652193 0.177821 0
M  V30 879 H 81.8594 2.05091 -0.112543 0
M  V30 880 H 80.0894 3.20206 2.16807 0
M  V30 881 H 81.7784 3.55981 1.95019 0
M  V30 882 H 82.5444 4.84689 -0.173688 0
M  V30 883 H 78.4234 4.49971 1.00235 0
M  V30 884 H 81.9674 6.79575 -1.57556 0
M  V30 885 H 77.8644 6.44307 -0.392349 0
M  V30 886 H 78.6324 7.98982 -1.77678 0
M  V30 887 N 81.2955 -0.223234 1.56011 0
M  V30 888 C 82.5415 -0.944891 1.8012 0
M  V30 889 C 82.8965 -1.82039 0.622862 0
M  V30 890 O 82.1895 -1.8773 -0.383143 0
M  V30 891 C 82.3835 -1.81948 3.0762 0
M  V30 892 C 82.2125 -1.03014 4.37742 0
M  V30 893 C 80.9825 -0.72574 5.00061 0
M  V30 894 C 83.1805 -0.396256 5.12771 0
M  V30 895 N 81.1625 0.0851816 6.13841 0
M  V30 896 C 82.5335 0.278137 6.19376 0
M  V30 897 C 84.5885 -0.309117 4.9694 0
M  V30 898 C 83.2915 1.03133 7.11868 0
M  V30 899 C 85.3175 0.430607 5.8983 0
M  V30 900 C 84.6795 1.09355 6.9586 0
M  V30 901 H 80.7785 -0.326081 0.710771 0
M  V30 902 H 83.3625 -0.215914 1.93499 0
M  V30 903 H 81.5335 -2.52029 2.95527 0
M  V30 904 H 83.2655 -2.47848 3.19927 0
M  V30 905 H 80.0205 -1.04335 4.61964 0
M  V30 906 H 80.4445 0.479428 6.753 0
M  V30 907 H 85.0865 -0.807313 4.15021 0
M  V30 908 H 82.8045 1.54105 7.9327 0
M  V30 909 H 86.3905 0.499012 5.79656 0
M  V30 910 H 85.2705 1.65679 7.66499 0
M  V30 911 N 82.7736 -1.49793 -0.48987 0
M  V30 912 C 83.7366 -1.66752 -1.57246 0
M  V30 913 C 84.7366 -0.538867 -1.51502 0
M  V30 914 O 85.9266 -0.805545 -1.54456 0
M  V30 915 C 83.0586 -1.67528 -2.96896 0
M  V30 916 H 84.2516 -2.63321 -1.43534 0
M  V30 917 H 81.8046 -1.38992 -0.714914 0
M  V30 918 H 82.5396 -0.725837 -3.16073 0
M  V30 919 H 82.3246 -2.49504 -3.02473 0
M  V30 920 H 83.8146 -1.82667 -3.7553 0
M  V30 921 N 84.2517 0.741722 -1.39055 0
M  V30 922 C 85.4997 1.49818 -1.35643 0
M  V30 923 C 85.8207 1.94938 0.0491642 0
M  V30 924 O 85.0907 1.68505 0.999141 0
M  V30 925 H 83.6707 0.555755 -0.499144 0
M  V30 926 H 86.3327 0.880957 -1.73854 0
M  V30 927 H 85.4287 2.38348 -2.01486 0
M  V30 928 N 85.7298 1.2412 0.971189 0
M  V30 929 C 86.9758 1.08041 1.71625 0
M  V30 930 C 87.3088 -0.380407 1.90438 0
M  V30 931 O 86.5838 -1.28127 1.46334 0
M  V30 932 C 86.8668 1.81682 3.10908 0
M  V30 933 C 86.7198 3.35493 2.99608 0
M  V30 934 C 88.0388 1.58671 4.10501 0
M  V30 935 H 85.1578 0.39388 0.622919 0
M  V30 936 H 87.7998 1.52743 1.13003 0
M  V30 937 H 85.9498 1.43684 3.60953 0
M  V30 938 H 87.6218 3.83068 2.57015 0
M  V30 939 H 85.8648 3.64052 2.35899 0
M  V30 940 H 86.5358 3.82217 3.98264 0
M  V30 941 H 89.0118 1.91719 3.69301 0
M  V30 942 H 87.8878 2.1266 5.06031 0
M  V30 943 H 88.1488 0.524161 4.38982 0
M  V30 944 N 87.2079 -1.17134 1.05439 0
M  V30 945 C 88.1709 -2.19439 0.661764 0
M  V30 946 C 89.1709 -1.58199 -0.288042 0
M  V30 947 O 90.3609 -1.74053 -0.0715803 0
M  V30 948 C 87.4929 -3.40889 -0.0276209 0
M  V30 949 H 88.6859 -2.55688 1.56728 0
M  V30 950 H 86.2389 -1.31259 0.848567 0
M  V30 951 H 86.9739 -3.10187 -0.94629 0
M  V30 952 H 86.7589 -3.86586 0.655238 0
M  V30 953 H 88.2489 -4.16603 -0.288342 0
M  V30 954 N 88.686 -0.835752 -1.33615 0
M  V30 955 C 89.916 -0.442701 -2.01801 0
M  V30 956 C 90.324 0.959807 -1.63047 0
M  V30 957 O 89.667 1.63468 -0.838088 0
M  V30 958 C 89.729 -0.480125 -3.56279 0
M  V30 959 C 89.393 -1.8382 -4.18401 0
M  V30 960 C 90.39 -2.80097 -4.37998 0
M  V30 961 C 88.075 -2.13019 -4.54894 0
M  V30 962 C 90.069 -4.03736 -4.9323 0
M  V30 963 C 87.756 -3.36916 -5.09834 0
M  V30 964 C 88.754 -4.32091 -5.28948 0
M  V30 965 O 88.442 -5.53797 -5.82721 0
M  V30 966 H 88.174 -0.17441 -0.653114 0
M  V30 967 H 90.728 -1.129 -1.71589 0
M  V30 968 H 88.958 0.262931 -3.85805 0
M  V30 969 H 90.647 -0.105335 -4.05763 0
M  V30 970 H 91.413 -2.58838 -4.10156 0
M  V30 971 H 87.292 -1.39733 -4.39313 0
M  V30 972 H 90.836 -4.78034 -5.08064 0
M  V30 973 H 86.733 -3.58033 -5.37106 0
M  V30 974 H 87.501 -5.55494 -6.0114 0
M  V30 975 N 90.1641 1.46063 -0.591896 0
M  V30 976 C 91.0941 2.33172 0.123673 0
M  V30 977 C 92.0751 1.45897 0.87453 0
M  V30 978 O 93.2601 1.74698 0.848181 0
M  V30 979 C 90.3901 3.28336 1.13194 0
M  V30 980 C 89.3441 4.25124 0.495324 0
M  V30 981 C 88.6701 5.09863 1.61071 0
M  V30 982 C 89.9701 5.19143 -0.573425 0
M  V30 983 H 91.6641 2.93252 -0.603646 0
M  V30 984 H 89.2101 1.41014 -0.291741 0
M  V30 985 H 91.1631 3.88137 1.64097 0
M  V30 986 H 89.8871 2.66383 1.88965 0
M  V30 987 H 88.5461 3.66599 0.00729452 0
M  V30 988 H 88.1941 4.44288 2.35832 0
M  V30 989 H 87.8941 5.75417 1.19035 0
M  V30 990 H 89.4181 5.72529 2.12233 0
M  V30 991 H 90.8321 5.73106 -0.1491 0
M  V30 992 H 89.2291 5.93089 -0.914636 0
M  V30 993 H 90.2991 4.62519 -1.45617 0
M  V30 994 N 91.6422 0.330177 1.54103 0
M  V30 995 C 92.5902 -0.548226 2.26047 0
M  V30 996 C 93.5842 -1.11309 1.27698 0
M  V30 997 O 94.7902 -1.06036 1.45452 0
M  V30 998 H 91.1652 -0.195456 0.726155 0
M  V30 999 H 93.1362 0.0807567 2.98291 0
M  V30 1000 C 91.8852 -1.69415 3.03634 0
M  V30 1001 H 91.2082 -1.26876 3.79134 0
M  V30 1002 H 92.6482 -2.28423 3.5721 0
M  V30 1003 C 91.1072 -2.61569 2.12328 0
M  V30 1004 O 91.6372 -3.63462 1.7105 0
M  V30 1005 N 89.8432 -2.29952 1.77681 0
M  V30 1006 H 89.3902 -1.47134 2.11446 0
M  V30 1007 H 89.3482 -2.91871 1.16869 0
M  V30 1008 N 93.1203 -1.57491 0.0584922 0
M  V30 1009 C 94.0523 -2.08916 -0.942694 0
M  V30 1010 C 95.0653 -1.0185 -1.27006 0
M  V30 1011 O 96.2543 -1.29398 -1.22957 0
M  V30 1012 C 93.3543 -2.52341 -2.26224 0
M  V30 1013 C 92.5273 -3.82827 -2.1157 0
M  V30 1014 C 91.5863 -4.12487 -3.26712 0
M  V30 1015 O 90.6123 -4.82295 -3.02292 0
M  V30 1016 N 91.8143 -3.64978 -4.5141 0
M  V30 1017 H 94.5793 -2.95437 -0.503722 0
M  V30 1018 H 92.1403 -1.61397 -0.12757 0
M  V30 1019 H 94.1323 -2.69254 -3.02133 0
M  V30 1020 H 92.7023 -1.7103 -2.61663 0
M  V30 1021 H 91.9223 -3.75425 -1.20208 0
M  V30 1022 H 93.2103 -4.68263 -1.99015 0
M  V30 1023 H 92.6083 -3.08558 -4.7414 0
M  V30 1024 H 91.1653 -3.87115 -5.2439 0
M  V30 1025 N 94.5984 0.214957 -1.56127 0
M  V30 1026 C 95.5284 1.2695 -1.95974 0
M  V30 1027 C 96.5094 1.48539 -0.828868 0
M  V30 1028 O 97.6944 1.60611 -1.09168 0
M  V30 1029 C 94.8244 2.61794 -2.28214 0
M  V30 1030 C 93.7784 2.54851 -3.43853 0
M  V30 1031 C 93.1044 3.93785 -3.61715 0
M  V30 1032 C 94.4044 2.09065 -4.78632 0
M  V30 1033 H 96.0984 0.93846 -2.84312 0
M  V30 1034 H 93.6444 0.449996 -1.36788 0
M  V30 1035 H 95.5974 3.35731 -2.54682 0
M  V30 1036 H 94.3214 2.96599 -1.36736 0
M  V30 1037 H 92.9804 1.8337 -3.17444 0
M  V30 1038 H 92.6284 4.25908 -2.67602 0
M  V30 1039 H 92.3284 3.90019 -4.39498 0
M  V30 1040 H 93.8524 4.69374 -3.90539 0
M  V30 1041 H 95.2664 2.7275 -5.04262 0
M  V30 1042 H 93.6634 2.16346 -5.59745 0
M  V30 1043 H 94.7334 1.04315 -4.73547 0
M  V30 1044 N 96.0765 1.50051 0.48192 0
M  V30 1045 C 97.3245 1.60181 1.23234 0
M  V30 1046 C 97.6455 0.299176 1.92691 0
M  V30 1047 O 96.9155 -0.682708 1.83619 0
M  V30 1048 H 95.4955 0.590232 0.457859 0
M  V30 1049 H 98.1575 1.86775 0.556881 0
M  V30 1050 H 97.2535 2.40753 1.98607 0
M  V30 1051 N 97.5546 -0.734337 1.39446 0
M  V30 1052 C 98.5176 -1.83004 1.37994 0
M  V30 1053 C 99.5176 -1.58397 0.276938 0
M  V30 1054 O 100.708 -1.65785 0.534875 0
M  V30 1055 C 97.8396 -3.20802 1.1532 0
M  V30 1056 H 99.0326 -1.85694 2.35494 0
M  V30 1057 H 96.5856 -0.938059 1.25021 0
M  V30 1058 H 97.3206 -3.23772 0.185036 0
M  V30 1059 H 97.1056 -3.4006 1.95197 0
M  V30 1060 H 98.5956 -4.00862 1.17046 0
M  V30 1061 N 99.0327 -1.24633 -0.964593 0
M  V30 1062 C 99.9807 -1.03917 -2.08096 0
M  V30 1063 C 100.975 0.0268581 -1.69379 0
M  V30 1064 O 102.181 -0.127952 -1.79545 0
M  V30 1065 H 98.5557 -0.319044 -0.680966 0
M  V30 1066 H 100.527 -1.98581 -2.22729 0
M  V30 1067 C 99.2757 -0.663983 -3.41301 0
M  V30 1068 H 98.5987 -1.47605 -3.71555 0
M  V30 1069 H 100.039 -0.558663 -4.20303 0
M  V30 1070 C 98.4977 0.629169 -3.30973 0
M  V30 1071 O 99.0277 1.67404 -3.65156 0
M  V30 1072 N 97.2337 0.611057 -2.84103 0
M  V30 1073 H 96.7807 -0.239593 -2.56483 0
M  V30 1074 H 96.7387 1.47647 -2.77575 0
M  V30 1075 N 100.511 1.16574 -1.06058 0
M  V30 1076 C 101.443 2.2045 -0.627239 0
M  V30 1077 C 102.456 1.59752 0.313534 0
M  V30 1078 O 103.645 1.78192 0.104896 0
M  V30 1079 C 100.745 3.3875 0.100974 0
M  V30 1080 C 99.9178 4.29008 -0.852687 0
M  V30 1081 C 98.9768 5.25944 -0.164152 0
M  V30 1082 O 98.0028 5.63535 -0.801047 0
M  V30 1083 N 99.2048 5.70075 1.09518 0
M  V30 1084 H 101.97 2.58249 -1.52077 0
M  V30 1085 H 99.5308 1.3156 -0.943594 0
M  V30 1086 H 101.523 4.00638 0.57194 0
M  V30 1087 H 100.093 2.99476 0.89628 0
M  V30 1088 H 99.3128 3.64419 -1.50308 0
M  V30 1089 H 100.601 4.86195 -1.49972 0
M  V30 1090 H 99.9988 5.41624 1.6328 0
M  V30 1091 H 98.5558 6.34067 1.51006 0
M  V30 1092 N 101.989 0.842826 1.3317 0
M  V30 1093 C 102.899 0.281444 2.32906 0
M  V30 1094 C 103.915 -0.594587 1.63526 0
M  V30 1095 O 105.091 -0.49777 1.95152 0
M  V30 1096 C 102.156 -0.530929 3.42611 0
M  V30 1097 C 101.217 0.369843 4.27704 0
M  V30 1098 C 100.45 -0.403853 5.3217 0
M  V30 1099 O 100.673 -1.63513 5.46461 0
M  V30 1100 O 99.6069 0.224199 6.01482 0
M  V30 1101 H 103.433 1.10744 2.82789 0
M  V30 1102 H 101.018 0.60545 1.36582 0
M  V30 1103 H 102.9 -0.992437 4.09547 0
M  V30 1104 H 101.575 -1.33392 2.94938 0
M  V30 1105 H 100.482 0.879275 3.6362 0
M  V30 1106 H 101.815 1.13771 4.78871 0
M  V30 1107 N 103.467 -1.45747 0.599634 0
M  V30 1108 C 104.43 -2.28917 -0.113835 0
M  V30 1109 C 105.43 -1.3933 -0.802729 0
M  V30 1110 O 106.62 -1.61534 -0.652103 0
M  V30 1111 C 103.752 -3.20152 -1.17114 0
M  V30 1112 H 104.945 -2.93478 0.617289 0
M  V30 1113 H 102.498 -1.52137 0.358327 0
M  V30 1114 H 103.233 -2.60374 -1.93329 0
M  V30 1115 H 103.018 -3.86133 -0.681468 0
M  V30 1116 H 104.508 -3.82708 -1.67105 0
M  V30 1117 N 104.945 -0.338344 -1.53925 0
M  V30 1118 C 106.193 0.259245 -2.0043 0
M  V30 1119 C 106.514 1.51484 -1.22791 0
M  V30 1120 O 105.784 1.93037 -0.33368 0
M  V30 1121 H 104.364 0.0987845 -0.740439 0
M  V30 1122 H 107.026 -0.458302 -1.89435 0
M  V30 1123 H 106.122 0.505334 -3.07982 0
M  V30 1124 N 106.423 1.57458 -0.0668435 0
M  V30 1125 C 107.353 2.15468 0.899764 0
M  V30 1126 C 108.334 1.08042 1.31381 0
M  V30 1127 O 109.519 1.36054 1.38574 0
M  V30 1128 C 106.649 2.71232 2.16911 0
M  V30 1129 C 105.603 3.83781 1.89463 0
M  V30 1130 C 104.929 4.26127 3.22986 0
M  V30 1131 C 106.229 5.08238 1.20381 0
M  V30 1132 H 107.923 2.96488 0.416529 0
M  V30 1133 H 105.469 1.4262 0.198908 0
M  V30 1134 H 107.422 3.10458 2.84945 0
M  V30 1135 H 106.146 1.87426 2.67468 0
M  V30 1136 H 104.805 3.45051 1.23836 0
M  V30 1137 H 104.453 3.39249 3.71374 0
M  V30 1138 H 104.153 5.01993 3.05413 0
M  V30 1139 H 105.677 4.67966 3.92225 0
M  V30 1140 H 107.091 5.44811 1.78475 0
M  V30 1141 H 105.488 5.89349 1.13083 0
M  V30 1142 H 106.558 4.84558 0.182153 0
M  V30 1143 N 107.901 -0.206675 1.56239 0
M  V30 1144 C 108.831 -1.25909 1.96645 0
M  V30 1145 C 109.812 -1.48097 0.836734 0
M  V30 1146 O 110.997 -1.6003 1.10019 0
M  V30 1147 C 108.127 -2.6058 2.29599 0
M  V30 1148 C 107.081 -2.53024 3.452 0
M  V30 1149 C 106.407 -3.91861 3.63798 0
M  V30 1150 C 107.707 -2.06524 4.79734 0
M  V30 1151 H 109.401 -0.923369 2.84806 0
M  V30 1152 H 106.947 -0.442735 1.37025 0
M  V30 1153 H 108.9 -3.34375 2.56459 0
M  V30 1154 H 107.624 -2.95869 1.38307 0
M  V30 1155 H 106.283 -1.81684 3.18412 0
M  V30 1156 H 105.931 -4.24483 2.69857 0
M  V30 1157 H 105.631 -3.87683 4.4156 0
M  V30 1158 H 107.155 -4.67296 3.93022 0
M  V30 1159 H 108.569 -2.70072 5.05702 0
M  V30 1160 H 106.966 -2.13374 5.60885 0
M  V30 1161 H 108.036 -1.01802 4.74093 0
M  V30 1162 N 109.379 -1.50304 -0.473955 0
M  V30 1163 C 110.604 -1.65175 -1.25427 0
M  V30 1164 C 111.029 -0.333673 -1.85117 0
M  V30 1165 O 110.387 0.702114 -1.67153 0
M  V30 1166 C 110.435 -2.74295 -2.34082 0
M  V30 1167 O 109.539 -2.35349 -3.38651 0
M  V30 1168 H 108.88 -0.551944 -0.369126 0
M  V30 1169 H 111.41 -1.96662 -0.564364 0
M  V30 1170 H 111.42 -2.97285 -2.79438 0
M  V30 1171 H 110.095 -3.69959 -1.90008 0
M  V30 1172 H 108.672 -2.22794 -2.99027 0
M  V30 1173 N 110.857 0.726932 -1.39834 0
M  V30 1174 C 112.268 1.30558 -1.3346 0
M  V30 1175 C 112.619 1.962 -0.00273003 0
M  V30 1176 O 111.744 1.96826 0.899371 0
M  V30 1177 C 112.339 2.37404 -2.41713 0
M  V30 1178 C 110.898 2.90921 -2.38835 0
M  V30 1179 C 110.045 1.64578 -2.2318 0
M  V30 1180 H 112.996 0.523862 -1.49804 0
M  V30 1181 H 113.017 3.17984 -2.08966 0
M  V30 1182 H 112.529 1.89599 -3.38635 0
M  V30 1183 H 110.63 3.42985 -1.45575 0
M  V30 1184 H 110.743 3.43487 -3.33997 0
M  V30 1185 H 109.107 1.89219 -1.70494 0
M  V30 1186 H 109.89 1.18814 -3.22084 0
M  V30 1187 N 112.336 1.25143 0.95797 0
M  V30 1188 C 113.584 1.09476 1.69881 0
M  V30 1189 C 113.905 -0.365502 1.91544 0
M  V30 1190 O 113.175 -1.25985 1.50015 0
M  V30 1191 H 111.755 0.402128 0.629525 0
M  V30 1192 H 114.417 1.57214 1.15194 0
M  V30 1193 H 113.513 1.60046 2.6794 0
M  V30 1194 N 113.814 -1.1601 1.06675 0
M  V30 1195 C 114.744 -2.22688 0.702307 0
M  V30 1196 C 115.725 -1.67306 -0.307032 0
M  V30 1197 O 116.91 -1.93352 -0.181305 0
M  V30 1198 C 114.04 -3.47178 0.092038 0
M  V30 1199 C 112.994 -4.15477 1.02777 0
M  V30 1200 C 112.32 -5.33963 0.28061 0
M  V30 1201 C 113.62 -4.66019 2.35846 0
M  V30 1202 H 115.314 -2.53429 1.59419 0
M  V30 1203 H 112.86 -1.21813 0.767961 0
M  V30 1204 H 114.813 -4.21037 -0.174814 0
M  V30 1205 H 113.537 -3.15749 -0.834877 0
M  V30 1206 H 112.196 -3.43549 1.27944 0
M  V30 1207 H 111.844 -4.98788 -0.649545 0
M  V30 1208 H 111.544 -5.806 0.904258 0
M  V30 1209 H 113.068 -6.10596 0.021396 0
M  V30 1210 H 114.482 -5.3144 2.15045 0
M  V30 1211 H 112.879 -5.23293 2.93743 0
M  V30 1212 H 113.949 -3.82023 2.98641 0
M  V30 1213 N 115.292 -0.849877 -1.32721 0
M  V30 1214 C 116.54 -0.450032 -1.97026 0
M  V30 1215 C 116.861 0.996604 -1.67609 0
M  V30 1216 O 116.131 1.6958 -0.980786 0
M  V30 1217 H 114.711 -0.163426 -0.728904 0
M  V30 1218 H 117.373 -1.08526 -1.6189 0
M  V30 1219 H 116.469 -0.591146 -3.0645 0
M  V30 1220 N 116.77 1.45427 -0.607355 0
M  V30 1221 C 118.017 2.02241 -0.102455 0
M  V30 1222 C 118.345 1.4758 1.26691 0
M  V30 1223 O 117.6 0.640468 1.84923 0
M  V30 1224 C 117.899 3.57398 -0.0129263 0
M  V30 1225 C 117.565 4.3121 -1.31792 0
M  V30 1226 C 116.227 4.51092 -1.67539 0
M  V30 1227 C 118.579 4.73401 -2.18039 0
M  V30 1228 C 115.907 5.10422 -2.89285 0
M  V30 1229 C 118.259 5.34078 -3.39034 0
M  V30 1230 C 116.923 5.52184 -3.75033 0
M  V30 1231 H 116.193 0.740051 -0.037491 0
M  V30 1232 H 118.84 1.74494 -0.788926 0
M  V30 1233 H 117.145 3.84421 0.756806 0
M  V30 1234 H 118.842 3.99061 0.393881 0
M  V30 1235 H 115.432 4.16047 -1.02968 0
M  V30 1236 H 119.616 4.57774 -1.91721 0
M  V30 1237 H 114.872 5.22629 -3.17283 0
M  V30 1238 H 119.046 5.65724 -4.06115 0
M  V30 1239 H 116.673 5.97925 -4.69457 0
M  V30 1240 N 118.248 0.346503 1.53744 0
M  V30 1241 C 119.525 -0.304532 1.93215 0
M  V30 1242 C 119.905 -1.67993 1.27834 0
M  V30 1243 O 119.253 -2.24411 0.430352 0
M  V30 1244 C 119.463 -0.373852 3.46992 0
M  V30 1245 C 120.811 -0.62329 4.2 0
M  V30 1246 O 121.835 -0.455847 3.53271 0
M  V30 1247 O 120.694 -0.947879 5.38217 0
M  V30 1248 H 117.788 -0.178318 0.807547 0
M  V30 1249 H 120.334 0.397895 1.64969 0
M  V30 1250 H 119.106 0.591224 3.86808 0
M  V30 1251 H 118.729 -1.12294 3.81413 0
M  V30 1252 N 119.726 -1.57421 0.075193 0
M  V30 1253 C 120.676 -2.09441 -0.901025 0
M  V30 1254 C 121.66 -1.00486 -1.25663 0
M  V30 1255 O 122.852 -1.2679 -1.23504 0
M  V30 1256 C 119.981 -2.66233 -2.16737 0
M  V30 1257 C 119.067 -3.82198 -1.83808 0
M  V30 1258 N 119.458 -4.91028 -1.21345 0
M  V30 1259 C 117.756 -3.91558 -2.13538 0
M  V30 1260 C 118.457 -5.71852 -1.06585 0
M  V30 1261 N 117.433 -5.20233 -1.57667 0
M  V30 1262 H 121.235 -2.90972 -0.413815 0
M  V30 1263 H 118.749 -1.6189 -0.128601 0
M  V30 1264 H 120.746 -3.01819 -2.87595 0
M  V30 1265 H 119.406 -1.8615 -2.66042 0
M  V30 1266 H 120.417 -5.10323 -0.88268 0
M  V30 1267 H 117.094 -3.22454 -2.65197 0
M  V30 1268 H 118.484 -6.69401 -0.578933 0
M  V30 1269 N 121.204 0.198386 -1.56346 0
M  V30 1270 C 122.434 0.934215 -1.84271 0
M  V30 1271 C 122.842 1.77496 -0.655125 0
M  V30 1272 O 122.185 1.7961 0.385488 0
M  V30 1273 C 122.247 1.88278 -3.06254 0
M  V30 1274 C 121.911 1.22431 -4.40295 0
M  V30 1275 C 122.908 0.602839 -5.16393 0
M  V30 1276 C 120.593 1.22915 -4.87029 0
M  V30 1277 C 122.587 -0.0050083 -6.374 0
M  V30 1278 C 120.274 0.617465 -6.07973 0
M  V30 1279 C 121.272 0.00146341 -6.83 0
M  V30 1280 O 120.96 -0.600642 -8.01653 0
M  V30 1281 H 120.692 0.278245 -0.616081 0
M  V30 1282 H 123.246 0.211626 -2.04307 0
M  V30 1283 H 121.476 2.64498 -2.82095 0
M  V30 1284 H 123.165 2.48612 -3.20853 0
M  V30 1285 H 123.931 0.591265 -4.81382 0
M  V30 1286 H 119.81 1.69801 -4.28589 0
M  V30 1287 H 123.354 -0.48643 -6.95902 0
M  V30 1288 H 119.251 0.62653 -6.42452 0
M  V30 1289 H 120.019 -0.497225 -8.16988 0
M  V30 1290 N 122.682 1.50554 0.465978 0
M  V30 1291 C 123.612 1.72722 1.57128 0
M  V30 1292 C 124.593 0.576294 1.6004 0
M  V30 1293 O 125.778 0.81598 1.76225 0
M  V30 1294 C 122.908 1.82605 2.95419 0
M  V30 1295 C 121.862 2.97835 3.07373 0
M  V30 1296 C 121.188 2.92867 4.47363 0
M  V30 1297 C 122.488 4.38265 2.84114 0
M  V30 1298 H 124.182 2.65267 1.38829 0
M  V30 1299 H 121.728 1.2765 0.666441 0
M  V30 1300 H 123.681 1.96698 3.72677 0
M  V30 1301 H 122.405 0.866858 3.14886 0
M  V30 1302 H 121.064 2.83401 2.3255 0
M  V30 1303 H 120.712 1.94783 4.63755 0
M  V30 1304 H 120.412 3.70227 4.56296 0
M  V30 1305 H 121.936 3.09015 5.26633 0
M  V30 1306 H 123.35 4.53198 3.51118 0
M  V30 1307 H 121.747 5.17115 3.04487 0
M  V30 1308 H 122.817 4.50281 1.7993 0
M  V30 1309 N 124.16 -0.719506 1.40217 0
M  V30 1310 C 125.437 -1.47221 1.28784 0
M  V30 1311 C 125.817 -2.10883 -0.0956067 0
M  V30 1312 O 125.165 -1.99833 -1.10811 0
M  V30 1313 C 125.375 -2.5111 2.42373 0
M  V30 1314 C 126.723 -3.17053 2.82423 0
M  V30 1315 O 127.747 -2.61429 2.41937 0
M  V30 1316 O 126.606 -4.17742 3.52355 0
M  V30 1317 H 123.7 -0.654491 0.50554 0
M  V30 1318 H 126.246 -0.752014 1.52128 0
M  V30 1319 H 125.018 -2.02556 3.34793 0
M  V30 1320 H 124.641 -3.3067 2.20778 0
M  V30 1321 N 125.638 -1.25649 -0.95132 0
M  V30 1322 C 126.571 -1.00644 -2.04807 0
M  V30 1323 C 127.549 0.0654271 -1.62468 0
M  V30 1324 O 128.733 -0.074911 -1.88351 0
M  V30 1325 C 125.86 -0.522052 -3.34653 0
M  V30 1326 C 124.906 -1.58495 -3.95957 0
M  V30 1327 S 125.739 -3.17108 -4.31512 0
M  V30 1328 C 126.895 -2.70412 -5.64471 0
M  V30 1329 H 127.128 -1.93508 -2.25703 0
M  V30 1330 H 124.661 -1.09216 -1.09139 0
M  V30 1331 H 126.619 -0.24923 -4.09743 0
M  V30 1332 H 125.28 0.386146 -3.11717 0
M  V30 1333 H 124.473 -1.1968 -4.89584 0
M  V30 1334 H 124.075 -1.80862 -3.2736 0
M  V30 1335 H 126.367 -2.14245 -6.42733 0
M  V30 1336 H 127.31 -3.62693 -6.08161 0
M  V30 1337 H 127.718 -2.10302 -5.23864 0
M  V30 1338 N 127.117 1.15442 -1.07289 0
M  V30 1339 C 128.533 1.38201 -0.798288 0
M  V30 1340 C 128.733 1.92429 0.597769 0
M  V30 1341 O 127.789 2.12962 1.3566 0
M  V30 1342 C 129.102 2.35357 -1.87156 0
M  V30 1343 C 130.65 2.49021 -1.89624 0
M  V30 1344 C 131.125 3.49468 -2.96034 0
M  V30 1345 N 132.616 3.57003 -2.95132 0
M  V30 1346 C 133.351 4.34543 -3.74112 0
M  V30 1347 N 132.847 5.15421 -4.6294 0
M  V30 1348 N 134.64 4.29625 -3.62462 0
M  V30 1349 H 126.791 0.78584 -1.97328 0
M  V30 1350 H 129.054 0.408065 -0.855679 0
M  V30 1351 H 128.76 2.02626 -2.87464 0
M  V30 1352 H 128.634 3.35129 -1.73114 0
M  V30 1353 H 131.021 2.81051 -0.899687 0
M  V30 1354 H 131.102 1.4925 -2.07745 0
M  V30 1355 H 130.746 3.18173 -3.95889 0
M  V30 1356 H 130.676 4.48992 -2.75161 0
M  V30 1357 H 133.167 2.99276 -2.30743 0
M  V30 1358 H 133.48 5.7183 -5.19837 0
M  V30 1359 H 131.825 5.14729 -4.66989 0
M  V30 1360 H 135.016 3.65505 -2.92444 0
M  V30 1361 H 135.189 4.89807 -4.24256 0
M  V30 1362 N 128.595 0.856903 1.32268 0
M  V30 1363 C 129.528 0.247937 2.26849 0
M  V30 1364 C 130.506 -0.615382 1.50505 0
M  V30 1365 O 131.69 -0.571689 1.79622 0
M  V30 1366 C 128.817 -0.650093 3.32403 0
M  V30 1367 C 127.863 0.140138 4.2627 0
M  V30 1368 S 128.696 1.51004 5.13769 0
M  V30 1369 C 129.852 0.61778 6.22844 0
M  V30 1370 H 130.085 1.04971 2.78152 0
M  V30 1371 H 127.618 0.654665 1.39834 0
M  V30 1372 H 129.576 -1.16256 3.93694 0
M  V30 1373 H 128.237 -1.4257 2.7988 0
M  V30 1374 H 127.43 -0.543945 5.01056 0
M  V30 1375 H 127.032 0.584267 3.69408 0
M  V30 1376 H 129.324 -0.177053 6.77269 0
M  V30 1377 H 130.267 1.33636 6.95375 0
M  V30 1378 H 130.675 0.191124 5.64176 0
M  V30 1379 N 130.073 -1.45103 0.615059 0
M  V30 1380 C 131.35 -1.95549 0.0448276 0
M  V30 1381 C 131.73 -1.55737 -1.4251 0
M  V30 1382 O 131.078 -0.823556 -2.13143 0
M  V30 1383 C 131.288 -3.48098 0.250785 0
M  V30 1384 C 132.636 -4.24384 0.135509 0
M  V30 1385 O 133.66 -3.55738 0.181299 0
M  V30 1386 O 132.519 -5.46493 0.0268878 0
M  V30 1387 H 129.613 -0.8264 -0.0314845 0
M  V30 1388 H 132.159 -1.55232 0.685642 0
M  V30 1389 H 130.931 -3.7007 1.27139 0
M  V30 1390 H 130.554 -3.95323 -0.424937 0
M  V30 1391 N 131.551 -0.354651 -1.53558 0
M  V30 1392 C 132.514 0.484566 -2.24019 0
M  V30 1393 C 133.514 1.01861 -1.24422 0
M  V30 1394 O 134.704 0.906097 -1.4878 0
M  V30 1395 C 131.836 1.67615 -2.96847 0
M  V30 1396 H 133.029 -0.131843 -2.9961 0
M  V30 1397 H 130.582 -0.106165 -1.55939 0
M  V30 1398 H 131.317 2.33095 -2.25471 0
M  V30 1399 H 131.102 1.30029 -3.69912 0
M  V30 1400 H 132.592 2.27114 -3.50441 0
M  V30 1401 N 133.029 1.57378 -0.0835403 0
M  V30 1402 C 133.939 2.16897 0.894021 0
M  V30 1403 C 134.955 1.13528 1.31861 0
M  V30 1404 O 136.131 1.45848 1.3889 0
M  V30 1405 C 133.196 2.72831 2.13925 0
M  V30 1406 C 132.257 3.91115 1.76997 0
M  V30 1407 C 131.49 4.44371 2.95584 0
M  V30 1408 O 131.713 3.96596 4.09961 0
M  V30 1409 O 130.647 5.35549 2.74719 0
M  V30 1410 H 134.473 3.00814 0.417679 0
M  V30 1411 H 132.058 1.48741 0.140181 0
M  V30 1412 H 133.94 3.0863 2.86924 0
M  V30 1413 H 132.615 1.91967 2.60635 0
M  V30 1414 H 131.522 3.60148 1.01214 0
M  V30 1415 H 132.855 4.73307 1.3506 0
M  V30 1416 N 134.507 -0.190092 1.56449 0
M  V30 1417 C 135.784 -0.935886 1.71757 0
M  V30 1418 C 136.164 -2.01173 0.639726 0
M  V30 1419 O 135.512 -2.25827 -0.348502 0
M  V30 1420 C 135.722 -1.51775 3.1427 0
M  V30 1421 C 137.07 -1.99794 3.74656 0
M  V30 1422 O 138.094 -1.61607 3.1743 0
M  V30 1423 O 136.953 -2.70079 4.751 0
M  V30 1424 H 134.047 -0.439229 0.700719 0
M  V30 1425 H 136.593 -0.179395 1.68749 0
M  V30 1426 H 135.365 -0.742505 3.84191 0
M  V30 1427 H 134.988 -2.33894 3.21527 0
M  V30 1428 N 135.985 -1.50799 -0.457987 0
M  V30 1429 C 136.948 -1.7005 -1.53674 0
M  V30 1430 C 137.948 -0.570881 -1.50325 0
M  V30 1431 O 139.138 -0.838126 -1.52712 0
M  V30 1432 C 136.27 -1.73788 -2.93276 0
M  V30 1433 H 137.463 -2.66306 -1.37917 0
M  V30 1434 H 135.016 -1.40477 -0.685271 0
M  V30 1435 H 135.751 -0.792717 -3.14462 0
M  V30 1436 H 135.536 -2.55864 -2.97113 0
M  V30 1437 H 137.026 -1.90591 -3.71571 0
M  V30 1438 N 137.463 0.71206 -1.40597 0
M  V30 1439 C 138.426 1.80785 -1.40888 0
M  V30 1440 C 139.426 1.57937 -0.302103 0
M  V30 1441 O 140.616 1.64913 -0.561182 0
M  V30 1442 C 137.748 3.18927 -1.20409 0
M  V30 1443 H 138.941 1.81924 -2.38419 0
M  V30 1444 H 136.494 0.91805 -1.26497 0
M  V30 1445 H 137.229 3.23436 -0.236522 0
M  V30 1446 H 137.014 3.36911 -2.00582 0
M  V30 1447 H 138.504 3.98949 -1.23408 0
M  V30 1448 N 138.941 1.26152 0.944643 0
M  V30 1449 C 139.871 1.09902 2.06019 0
M  V30 1450 C 140.852 0.00519538 1.70099 0
M  V30 1451 O 142.037 0.176583 1.93396 0
M  V30 1452 C 139.167 0.727562 3.39594 0
M  V30 1453 C 138.121 1.77274 3.89561 0
M  V30 1454 C 137.447 1.25569 5.19747 0
M  V30 1455 C 138.747 3.17357 4.14827 0
M  V30 1456 H 140.441 2.03217 2.19871 0
M  V30 1457 H 137.987 0.978452 1.05652 0
M  V30 1458 H 139.94 0.600777 4.17095 0
M  V30 1459 H 138.664 -0.241287 3.25707 0
M  V30 1460 H 137.323 1.88814 3.14237 0
M  V30 1461 H 136.971 0.276783 5.02238 0
M  V30 1462 H 136.671 1.95433 5.54148 0
M  V30 1463 H 138.195 1.1415 5.99835 0
M  V30 1464 H 139.609 3.08914 4.82954 0
M  V30 1465 H 138.006 3.84781 4.60504 0
M  V30 1466 H 139.076 3.63673 3.20734 0
M  V30 1467 N 140.419 -1.14872 1.07899 0
M  V30 1468 C 141.667 -1.85422 0.803941 0
M  V30 1469 C 141.988 -1.83051 -0.67211 0
M  V30 1470 O 141.258 -1.27532 -1.48703 0
M  V30 1471 H 139.838 -0.686537 0.294408 0
M  V30 1472 H 142.5 -1.39226 1.3639 0
M  V30 1473 H 141.596 -2.90399 1.14346 0
M  V30 1474 N 141.898 -0.863906 -1.31812 0
M  V30 1475 C 143.147 -0.46801 -1.96195 0
M  V30 1476 C 143.46 0.983474 -1.69077 0
M  V30 1477 O 144.666 1.48523 -2.27273 0
M  V30 1478 C 143.122 -0.785995 -3.51212 0
M  V30 1479 C 142.73 -2.25383 -3.87178 0
M  V30 1480 C 144.474 -0.458274 -4.22019 0
M  V30 1481 C 142.381 -2.51455 -5.3528 0
M  V30 1482 H 141.311 -0.171283 -0.734287 0
M  V30 1483 H 143.962 -1.05597 -1.50072 0
M  V30 1484 H 142.344 -0.127359 -3.95795 0
M  V30 1485 H 143.518 -2.95502 -3.53575 0
M  V30 1486 H 141.833 -2.54698 -3.2942 0
M  V30 1487 H 144.43 -0.630369 -5.30971 0
M  V30 1488 H 144.773 0.600834 -4.11941 0
M  V30 1489 H 145.306 -1.07319 -3.8305 0
M  V30 1490 H 142.045 -3.56025 -5.50387 0
M  V30 1491 H 141.565 -1.85923 -5.70257 0
M  V30 1492 H 143.244 -2.35874 -6.02472 0
M  V30 1493 N 143.376 1.44774 -0.622745 0
M  V30 1494 C 144.286 2.34433 0.0886031 0
M  V30 1495 C 145.302 1.52131 0.844529 0
M  V30 1496 O 146.478 1.84886 0.798691 0
M  V30 1497 C 143.543 3.29986 1.0635 0
M  V30 1498 C 142.604 4.28195 0.307873 0
M  V30 1499 C 141.837 5.19183 1.23633 0
M  V30 1500 O 142.06 5.13918 2.47476 0
M  V30 1501 O 140.994 5.97515 0.725189 0
M  V30 1502 H 144.82 2.96693 -0.648599 0
M  V30 1503 H 142.405 1.44408 -0.382957 0
M  V30 1504 H 144.287 3.88825 1.6246 0
M  V30 1505 H 142.962 2.70269 1.78146 0
M  V30 1506 H 141.869 3.72927 -0.296064 0
M  V30 1507 H 143.202 4.90808 -0.3699 0
M  V30 1508 N 144.854 0.36279 1.53368 0
M  V30 1509 C 145.802 -0.500155 2.27159 0
M  V30 1510 C 146.796 -1.08575 1.3003 0
M  V30 1511 O 148.002 -1.02927 1.47668 0
M  V30 1512 H 144.377 -0.180009 0.730138 0
M  V30 1513 H 146.348 0.14401 2.98052 0
M  V30 1514 C 145.097 -1.62937 3.07159 0
M  V30 1515 H 144.42 -1.18806 3.8174 0
M  V30 1516 H 145.86 -2.20795 3.61975 0
M  V30 1517 C 144.319 -2.57007 2.17829 0
M  V30 1518 O 144.849 -3.59752 1.78721 0
M  V30 1519 N 143.055 -2.26131 1.82518 0
M  V30 1520 H 142.602 -1.42616 2.14519 0
M  V30 1521 H 142.56 -2.89327 1.23034 0
M  V30 1522 N 146.332 -1.57332 0.0918853 0
M  V30 1523 C 147.295 -2.12708 -0.85369 0
M  V30 1524 C 148.295 -1.05561 -1.213 0
M  V30 1525 O 149.485 -1.31461 -1.14296 0
M  V30 1526 C 146.617 -2.64503 -2.15061 0
M  V30 1527 H 147.81 -2.97573 -0.3729 0
M  V30 1528 H 145.363 -1.55509 -0.157072 0
M  V30 1529 H 146.098 -1.83149 -2.67632 0
M  V30 1530 H 145.883 -3.4284 -1.90272 0
M  V30 1531 H 147.373 -3.07351 -2.82711 0
M  V30 1532 N 147.81 0.181792 -1.56548 0
M  V30 1533 C 149.038 0.915947 -1.85521 0
M  V30 1534 C 149.453 1.76282 -0.676016 0
M  V30 1535 O 148.81 1.79012 0.355077 0
M  V30 1536 C 148.861 1.80126 -3.13427 0
M  V30 1537 O 148.582 0.988562 -4.26801 0
M  V30 1538 C 150.083 2.64597 -3.55673 0
M  V30 1539 H 147.303 0.26661 -0.61576 0
M  V30 1540 H 149.847 0.185039 -2.03661 0
M  V30 1541 H 148.002 2.48563 -2.97145 0
M  V30 1542 H 148.416 1.59308 -4.99721 0
M  V30 1543 H 149.89 3.2235 -4.48101 0
M  V30 1544 H 150.367 3.38958 -2.79292 0
M  V30 1545 H 150.973 2.0151 -3.74532 0
M  V30 1546 N 149.288 1.51039 0.449983 0
M  V30 1547 C 150.699 1.557 1.03026 0
M  V30 1548 C 151.05 0.372939 1.92623 0
M  V30 1549 O 150.175 -0.511771 2.10261 0
M  V30 1550 C 150.77 2.82171 1.87523 0
M  V30 1551 C 149.329 2.89444 2.40622 0
M  V30 1552 C 148.476 2.50228 1.19504 0
M  V30 1553 H 151.427 1.56999 0.231745 0
M  V30 1554 H 151.448 2.65219 2.72835 0
M  V30 1555 H 150.96 3.68331 1.22286 0
M  V30 1556 H 149.061 2.07685 3.0935 0
M  V30 1557 H 149.174 3.92816 2.74285 0
M  V30 1558 H 147.538 2.03139 1.53644 0
M  V30 1559 H 148.321 3.38719 0.558972 0
M  V30 1560 N 150.766 -0.704594 1.40972 0
M  V30 1561 C 152.182 -1.01406 1.23244 0
M  V30 1562 C 152.382 -2.01169 0.115399 0
M  V30 1563 O 151.438 -2.47021 -0.523147 0
M  V30 1564 C 152.751 -1.54728 2.57836 0
M  V30 1565 C 154.299 -1.66658 2.64942 0
M  V30 1566 C 154.774 -2.23383 3.9983 0
M  V30 1567 N 156.265 -2.30756 4.01629 0
M  V30 1568 C 157 -2.75655 5.02794 0
M  V30 1569 N 156.496 -3.20225 6.14352 0
M  V30 1570 N 158.289 -2.75138 4.90159 0
M  V30 1571 H 150.44 -0.0435285 2.12355 0
M  V30 1572 H 152.703 -0.0818951 0.944456 0
M  V30 1573 H 152.409 -0.888832 3.40283 0
M  V30 1574 H 152.283 -2.53084 2.79693 0
M  V30 1575 H 154.67 -2.31617 1.8286 0
M  V30 1576 H 154.751 -0.668717 2.46904 0
M  V30 1577 H 154.395 -1.59043 4.82357 0
M  V30 1578 H 154.325 -3.23904 4.15203 0
M  V30 1579 H 156.816 -1.99291 3.21079 0
M  V30 1580 H 157.129 -3.53084 6.87424 0
M  V30 1581 H 155.474 -3.18156 6.17901 0
M  V30 1582 H 158.665 -2.39661 4.02095 0
M  V30 1583 H 158.838 -3.09812 5.6914 0
M  V30 1584 N 152.244 -1.26651 -0.937939 0
M  V30 1585 C 153.472 -1.15173 -1.7188 0
M  V30 1586 C 153.887 0.292668 -1.86518 0
M  V30 1587 O 153.244 1.20014 -1.37488 0
M  V30 1588 C 153.295 -1.81925 -3.12387 0
M  V30 1589 O 153.016 -3.2072 -2.98446 0
M  V30 1590 C 154.517 -1.76442 -4.06673 0
M  V30 1591 H 151.737 -0.400911 -0.538063 0
M  V30 1592 H 154.281 -1.67332 -1.1756 0
M  V30 1593 H 152.436 -1.33696 -3.63599 0
M  V30 1594 H 152.85 -3.53802 -3.872 0
M  V30 1595 H 154.324 -2.27781 -5.02812 0
M  V30 1596 H 154.801 -0.731608 -4.33064 0
M  V30 1597 H 155.407 -2.24238 -3.61382 0
M  V30 1598 N 153.722 1.14298 -1.08507 0
M  V30 1599 C 154.971 1.84708 -0.810305 0
M  V30 1600 C 155.284 1.83903 0.666271 0
M  V30 1601 O 156.49 2.50112 1.05624 0
M  V30 1602 C 154.946 3.31572 -1.39957 0
M  V30 1603 C 154.554 3.40791 -2.90801 0
M  V30 1604 C 156.298 4.07087 -1.20334 0
M  V30 1605 C 154.205 4.81872 -3.4286 0
M  V30 1606 H 153.135 0.691985 -0.299454 0
M  V30 1607 H 155.786 1.28841 -1.30661 0
M  V30 1608 H 154.168 3.87183 -0.830976 0
M  V30 1609 H 155.342 2.95225 -3.53806 0
M  V30 1610 H 153.657 2.78732 -3.0935 0
M  V30 1611 H 156.254 5.11225 -1.56693 0
M  V30 1612 H 156.597 4.16054 -0.143237 0
M  V30 1613 H 157.13 3.57779 -1.73893 0
M  V30 1614 H 153.869 4.78094 -4.48449 0
M  V30 1615 H 153.389 5.27972 -2.84615 0
M  V30 1616 H 155.068 5.50765 -3.39509 0
M  V30 1617 N 155.201 0.870884 1.31352 0
M  V30 1618 C 156.111 0.330783 2.32256 0
M  V30 1619 C 157.127 -0.559767 1.6475 0
M  V30 1620 O 158.303 -0.456263 1.96164 0
M  V30 1621 C 155.368 -0.458137 3.4366 0
M  V30 1622 C 154.429 0.460482 4.26823 0
M  V30 1623 C 153.662 -0.290881 5.32907 0
M  V30 1624 O 153.885 -1.51885 5.49806 0
M  V30 1625 O 152.819 0.351732 6.00871 0
M  V30 1626 H 156.645 1.16718 2.80376 0
M  V30 1627 H 154.23 0.634285 1.35267 0
M  V30 1628 H 156.112 -0.905343 4.1156 0
M  V30 1629 H 154.787 -1.27106 2.97701 0
M  V30 1630 H 153.694 0.956207 3.61673 0
M  V30 1631 H 155.027 1.23903 4.7635 0
M  V30 1632 N 156.679 -1.44442 0.630414 0
M  V30 1633 C 157.927 -2.01653 0.134351 0
M  V30 1634 C 158.248 -1.49836 -1.24796 0
M  V30 1635 O 157.518 -0.701684 -1.82902 0
M  V30 1636 H 156.098 -0.74554 0.0466769 0
M  V30 1637 H 158.76 -1.76952 0.816955 0
M  V30 1638 H 157.856 -3.11935 0.101498 0
M  V30 1639 N 158.157 -0.370918 -1.53173 0
M  V30 1640 C 159.568 0.107139 -1.86392 0
M  V30 1641 C 159.919 1.47714 -1.29132 0
M  V30 1642 O 159.044 2.07464 -0.615439 0
M  V30 1643 C 159.639 0.201187 -3.38202 0
M  V30 1644 C 158.198 0.623507 -3.712 0
M  V30 1645 C 157.345 -0.225978 -2.76378 0
M  V30 1646 H 160.296 -0.58951 -1.47345 0
M  V30 1647 H 160.317 1.02377 -3.66468 0
M  V30 1648 H 159.829 -0.796058 -3.79848 0
M  V30 1649 H 157.93 1.62879 -3.35114 0
M  V30 1650 H 158.043 0.394414 -4.77474 0
M  V30 1651 H 156.407 0.305962 -2.52856 0
M  V30 1652 H 157.19 -1.22086 -3.20858 0
M  V30 1653 N 159.635 1.57281 -0.100228 0
M  V30 1654 C 160.565 2.17328 0.853857 0
M  V30 1655 C 161.546 1.10804 1.2906 0
M  V30 1656 O 162.731 1.38963 1.35657 0
M  V30 1657 C 159.861 2.75772 2.11109 0
M  V30 1658 C 158.815 3.87713 1.81279 0
M  V30 1659 C 158.141 4.32882 3.13874 0
M  V30 1660 C 159.441 5.10677 1.09574 0
M  V30 1661 H 161.135 2.97305 0.353545 0
M  V30 1662 H 158.681 1.43009 0.168612 0
M  V30 1663 H 160.634 3.16433 2.78296 0
M  V30 1664 H 159.358 1.93057 2.63432 0
M  V30 1665 H 158.017 3.476 1.16489 0
M  V30 1666 H 157.665 3.47051 3.64095 0
M  V30 1667 H 157.365 5.08358 2.94696 0
M  V30 1668 H 158.889 4.7618 3.82211 0
M  V30 1669 H 160.303 5.48474 1.66879 0
M  V30 1670 H 158.7 5.91615 1.00557 0
M  V30 1671 H 159.77 4.84835 0.0793299 0
M  V30 1672 N 161.113 -0.173488 1.56642 0
M  V30 1673 C 162.343 -0.904781 1.85734 0
M  V30 1674 C 162.751 -1.76431 0.68328 0
M  V30 1675 O 162.094 -1.802 -0.356865 0
M  V30 1676 C 162.156 -1.83382 3.09211 0
M  V30 1677 C 161.82 -1.15411 4.42187 0
M  V30 1678 C 162.817 -0.520609 5.17287 0
M  V30 1679 C 160.502 -1.15151 4.88923 0
M  V30 1680 C 162.496 0.106412 6.37311 0
M  V30 1681 C 160.183 -0.520664 6.08878 0
M  V30 1682 C 161.181 0.107196 6.82916 0
M  V30 1683 O 160.869 0.728102 8.00596 0
M  V30 1684 H 160.601 -0.268408 0.62043 0
M  V30 1685 H 163.155 -0.179096 2.04618 0
M  V30 1686 H 161.385 -2.59976 2.86268 0
M  V30 1687 H 163.074 -2.43476 3.24768 0
M  V30 1688 H 163.84 -0.514606 4.82262 0
M  V30 1689 H 159.719 -1.62961 4.31236 0
M  V30 1690 H 163.263 0.597081 6.9504 0
M  V30 1691 H 159.16 -0.524242 6.43368 0
M  V30 1692 H 159.928 0.627138 8.16094 0
M  V30 1693 N 162.591 -1.51276 -0.441967 0
M  V30 1694 C 163.837 -1.63958 -1.19355 0
M  V30 1695 C 164.17 -0.352543 -1.90973 0
M  V30 1696 O 163.445 0.647627 -1.83401 0
M  V30 1697 C 163.728 -2.83979 -2.21422 0
M  V30 1698 C 163.581 -4.22646 -1.53918 0
M  V30 1699 C 164.9 -2.99521 -3.22451 0
M  V30 1700 H 162.019 -0.596709 -0.432559 0
M  V30 1701 H 164.661 -1.83748 -0.483398 0
M  V30 1702 H 162.811 -2.67237 -2.81987 0
M  V30 1703 H 164.483 -4.51045 -0.967256 0
M  V30 1704 H 162.726 -4.25558 -0.841615 0
M  V30 1705 H 163.397 -5.02609 -2.28229 0
M  V30 1706 H 165.873 -3.14944 -2.71937 0
M  V30 1707 H 164.749 -3.85072 -3.91166 0
M  V30 1708 H 165.01 -2.11391 -3.88287 0
M  V30 1709 N 164.069 0.697108 -1.41344 0
M  V30 1710 C 165.032 1.79281 -1.42797 0
M  V30 1711 C 166.032 1.57607 -0.318837 0
M  V30 1712 O 167.222 1.64309 -0.578642 0
M  V30 1713 C 164.354 3.17632 -1.23785 0
M  V30 1714 H 165.547 1.79385 -2.40335 0
M  V30 1715 H 163.1 0.904582 -1.27464 0
M  V30 1716 H 163.835 3.23167 -0.270814 0
M  V30 1717 H 163.62 3.34765 -2.04144 0
M  V30 1718 H 165.11 3.97617 -1.27633 0
M  V30 1719 N 165.547 1.27147 0.931209 0
M  V30 1720 C 166.795 1.13055 1.6752 0
M  V30 1721 C 167.116 -0.324791 1.92276 0
M  V30 1722 O 166.386 -1.22775 1.52654 0
M  V30 1723 H 164.966 0.415391 0.620854 0
M  V30 1724 H 167.628 1.59623 1.11833 0
M  V30 1725 H 166.724 1.65694 2.64485 0
M  V30 1726 N 167.025 -1.13721 1.09112 0
M  V30 1727 C 167.988 -2.17222 0.731241 0
M  V30 1728 C 168.988 -1.59035 -0.237566 0
M  V30 1729 O 170.178 -1.74192 -0.0161704 0
M  V30 1730 C 167.31 -3.40804 0.0808443 0
M  V30 1731 H 168.503 -2.50573 1.64783 0
M  V30 1732 H 166.056 -1.28493 0.889897 0
M  V30 1733 H 166.791 -3.1304 -0.847127 0
M  V30 1734 H 166.576 -3.84306 0.777896 0
M  V30 1735 H 168.066 -4.1731 -0.155657 0
M  V30 1736 N 168.503 -0.877838 -1.30888 0
M  V30 1737 C 169.914 -0.544193 -1.78593 0
M  V30 1738 C 170.265 0.939301 -1.72254 0
M  V30 1739 O 169.39 1.7337 -1.29505 0
M  V30 1740 C 169.985 -0.98105 -3.24285 0
M  V30 1741 C 168.544 -0.698935 -3.69854 0
M  V30 1742 C 167.691 -1.168 -2.51502 0
M  V30 1743 H 170.642 -1.06278 -1.17859 0
M  V30 1744 H 170.663 -0.307009 -3.79259 0
M  V30 1745 H 170.175 -2.06079 -3.28866 0
M  V30 1746 H 168.276 0.369112 -3.70767 0
M  V30 1747 H 168.389 -1.28148 -4.61644 0
M  V30 1748 H 166.753 -0.587535 -2.47831 0
M  V30 1749 H 167.536 -2.25533 -2.58824 0
M  V30 1750 N 169.982 1.44106 -0.638065 0
M  V30 1751 C 170.892 2.34513 0.0637334 0
M  V30 1752 C 171.908 1.53018 0.828346 0
M  V30 1753 O 173.084 1.85723 0.779036 0
M  V30 1754 C 170.149 3.31095 1.02844 0
M  V30 1755 C 169.21 4.28497 0.26244 0
M  V30 1756 C 168.443 5.20465 1.1812 0
M  V30 1757 O 168.666 5.16514 2.42011 0
M  V30 1758 O 167.6 5.98251 0.661774 0
M  V30 1759 H 171.426 2.95989 -0.68003 0
M  V30 1760 H 169.011 1.43994 -0.398252 0
M  V30 1761 H 170.893 3.90526 1.58327 0
M  V30 1762 H 169.568 2.72144 1.7527 0
M  V30 1763 H 168.475 3.72592 -0.335602 0
M  V30 1764 H 169.808 4.90388 -0.421936 0
M  V30 1765 N 171.46 0.379036 1.52974 0
M  V30 1766 C 172.685 -0.209353 2.06341 0
M  V30 1767 C 173.11 -1.40583 1.24972 0
M  V30 1768 O 172.468 -1.79246 0.272155 0
M  V30 1769 C 172.516 -0.567786 3.56102 0
M  V30 1770 O 171.62 -1.66318 3.77375 0
M  V30 1771 H 170.961 -0.0272919 0.663439 0
M  V30 1772 H 173.491 0.543536 1.97248 0
M  V30 1773 H 173.501 -0.835003 3.99364 0
M  V30 1774 H 172.176 0.307013 4.14765 0
M  V30 1775 H 170.753 -1.39048 3.46006 0
M  V30 1776 N 172.938 -1.57226 0.108567 0
M  V30 1777 C 174.184 -1.95121 -0.552761 0
M  V30 1778 C 174.517 -0.991345 -1.66991 0
M  V30 1779 O 173.792 -0.0267211 -1.94482 0
M  V30 1780 C 174.075 -3.43039 -1.09528 0
M  V30 1781 C 173.928 -4.49797 0.0177332 0
M  V30 1782 C 175.247 -3.92567 -1.98945 0
M  V30 1783 H 172.366 -0.709496 -0.199461 0
M  V30 1784 H 175.008 -1.89126 0.182011 0
M  V30 1785 H 173.158 -3.48279 -1.72146 0
M  V30 1786 H 174.83 -4.56661 0.652584 0
M  V30 1787 H 173.073 -4.284 0.682309 0
M  V30 1788 H 173.744 -5.50528 -0.402919 0
M  V30 1789 H 176.22 -3.89565 -1.46214 0
M  V30 1790 H 175.096 -4.96605 -2.33827 0
M  V30 1791 H 175.357 -3.32648 -2.91201 0
M  V30 1792 N 174.416 0.165178 -1.56732 0
M  V30 1793 C 175.664 0.879068 -1.8198 0
M  V30 1794 C 175.985 1.82514 -0.686561 0
M  V30 1795 O 175.255 1.93694 0.293146 0
M  V30 1796 H 173.835 0.327608 -0.671329 0
M  V30 1797 H 176.497 0.163526 -1.94213 0
M  V30 1798 H 175.593 1.45228 -2.76252 0
M  V30 1799 N 175.894 1.51508 0.433938 0
M  V30 1800 C 177.124 1.67914 1.20369 0
M  V30 1801 C 177.532 0.377461 1.85397 0
M  V30 1802 O 176.875 -0.654255 1.71654 0
M  V30 1803 C 176.937 2.74045 2.32679 0
M  V30 1804 C 176.601 4.16543 1.87991 0
M  V30 1805 C 177.598 5.01211 1.38145 0
M  V30 1806 C 175.283 4.6266 1.95579 0
M  V30 1807 C 177.277 6.30056 0.964774 0
M  V30 1808 C 174.964 5.91501 1.53523 0
M  V30 1809 C 175.962 6.75027 1.04055 0
M  V30 1810 O 175.65 8.01459 0.625964 0
M  V30 1811 H 175.382 0.566578 0.368735 0
M  V30 1812 H 177.936 1.98709 0.51999 0
M  V30 1813 H 176.166 2.38572 3.04336 0
M  V30 1814 H 177.855 2.79295 2.94532 0
M  V30 1815 H 178.621 4.66783 1.31675 0
M  V30 1816 H 174.5 3.97767 2.33029 0
M  V30 1817 H 178.044 6.95202 0.57796 0
M  V30 1818 H 173.941 6.25442 1.59665 0
M  V30 1819 H 174.709 8.15043 0.751509 0
M  V30 1820 N 177.372 -0.689602 1.41712 0
M  V30 1821 C 178.335 -1.78521 1.43746 0
M  V30 1822 C 179.335 -1.57436 0.327191 0
M  V30 1823 O 180.525 -1.64 0.587348 0
M  V30 1824 C 177.657 -3.16971 1.25467 0
M  V30 1825 H 178.85 -1.78108 2.41283 0
M  V30 1826 H 176.403 -0.89781 1.27942 0
M  V30 1827 H 177.138 -3.23019 0.287948 0
M  V30 1828 H 176.923 -3.33678 2.05917 0
M  V30 1829 H 178.413 -3.96935 1.2974 0
M  V30 1830 N 178.85 -1.27639 -0.924453 0
M  V30 1831 C 180.266 -1.05113 -1.20097 0
M  V30 1832 C 180.466 0.213262 -2.00368 0
M  V30 1833 O 179.522 0.91787 -2.35226 0
M  V30 1834 C 180.835 -2.29244 -1.94596 0
M  V30 1835 C 182.383 -2.34315 -2.07522 0
M  V30 1836 C 182.858 -3.58183 -2.85427 0
M  V30 1837 N 184.349 -3.5876 -2.92994 0
M  V30 1838 C 185.084 -4.51277 -3.53746 0
M  V30 1839 N 184.58 -5.54102 -4.15863 0
M  V30 1840 N 186.373 -4.38894 -3.51181 0
M  V30 1841 H 178.524 -2.08821 -0.388264 0
M  V30 1842 H 180.787 -0.918568 -0.234385 0
M  V30 1843 H 180.493 -3.21301 -1.43034 0
M  V30 1844 H 180.367 -2.34816 -2.95197 0
M  V30 1845 H 182.754 -1.42762 -2.58269 0
M  V30 1846 H 182.835 -2.32744 -1.06131 0
M  V30 1847 H 182.479 -4.50074 -2.35363 0
M  V30 1848 H 182.409 -3.57006 -3.8711 0
M  V30 1849 H 184.9 -2.84398 -2.4885 0
M  V30 1850 H 185.213 -6.20859 -4.60168 0
M  V30 1851 H 183.558 -5.57941 -4.144 0
M  V30 1852 H 186.749 -3.57772 -3.01856 0
M  V30 1853 H 186.922 -5.11186 -3.98237 0
M  V30 1854 N 180.328 1.1314 -1.09713 0
M  V30 1855 C 181.261 2.17735 -0.683137 0
M  V30 1856 C 182.239 1.59582 0.311841 0
M  V30 1857 O 183.423 1.87298 0.212514 0
M  V30 1858 C 180.55 3.38699 -0.00684324 0
M  V30 1859 C 179.596 4.1546 -0.964102 0
M  V30 1860 S 180.429 4.74733 -2.47767 0
M  V30 1861 C 181.585 5.9904 -1.81387 0
M  V30 1862 H 181.818 2.52515 -1.56918 0
M  V30 1863 H 179.351 1.24484 -0.913404 0
M  V30 1864 H 181.309 4.08765 0.377044 0
M  V30 1865 H 179.97 3.02214 0.85589 0
M  V30 1866 H 179.163 5.02093 -0.43803 0
M  V30 1867 H 178.765 3.51066 -1.28953 0
M  V30 1868 H 181.057 6.67846 -1.13967 0
M  V30 1869 H 182 6.56261 -2.65947 0
M  V30 1870 H 182.408 5.4976 -1.28155 0
M  V30 1871 N 181.806 0.884767 1.30421 0
M  V30 1872 C 183.083 0.423185 1.90967 0
M  V30 1873 C 183.463 -1.09605 1.80416 0
M  V30 1874 O 182.811 -1.93126 1.22125 0
M  V30 1875 C 183.021 0.921056 3.36627 0
M  V30 1876 C 184.369 0.955903 4.137 0
M  V30 1877 O 185.393 0.867706 3.4547 0
M  V30 1878 O 184.252 1.08614 5.35598 0
M  V30 1879 H 181.346 0.129369 0.816819 0
M  V30 1880 H 183.892 0.973653 1.3899 0
M  V30 1881 H 182.664 1.96489 3.3839 0
M  V30 1882 H 182.287 0.349741 3.96059 0
M  V30 1883 N 183.284 -1.43765 0.645699 0
M  V30 1884 C 184.561 -1.9541 0.0862963 0
M  V30 1885 C 184.941 -1.58725 -1.39175 0
M  V30 1886 O 184.289 -0.868581 -2.11348 0
M  V30 1887 C 184.499 -3.47488 0.324565 0
M  V30 1888 C 185.847 -4.24001 0.225497 0
M  V30 1889 O 186.871 -3.55274 0.256715 0
M  V30 1890 O 185.73 -5.46313 0.142801 0
M  V30 1891 H 182.824 -0.826882 -0.0139483 0
M  V30 1892 H 185.37 -1.53743 0.718415 0
M  V30 1893 H 184.142 -3.67289 1.3496 0
M  V30 1894 H 183.765 -3.96135 -0.340987 0
M  V30 1895 N 184.763 -0.387143 -1.52771 0
M  V30 1896 C 186.011 0.195349 -2.01154 0
M  V30 1897 C 186.332 1.475 -1.27549 0
M  V30 1898 O 185.602 1.91878 -0.394924 0
M  V30 1899 H 184.182 0.075178 -0.743207 0
M  V30 1900 H 186.844 -0.518337 -1.87881 0
M  V30 1901 H 185.94 0.407096 -3.09434 0
M  V30 1902 N 186.241 1.57166 -0.116904 0
M  V30 1903 C 187.466 1.999 0.55271 0
M  V30 1904 C 187.891 0.996039 1.59564 0
M  V30 1905 O 187.249 -0.032556 1.81271 0
M  V30 1906 C 187.297 3.4152 1.15742 0
M  V30 1907 O 186.401 3.44106 2.27299 0
M  V30 1908 H 185.742 0.649447 0.138258 0
M  V30 1909 H 188.272 2.03573 -0.204759 0
M  V30 1910 H 188.282 3.79684 1.49346 0
M  V30 1911 H 186.957 4.14034 0.393493 0
M  V30 1912 H 185.534 3.17759 1.9515 0
M  V30 1913 N 187.719 -0.156864 1.56817 0
M  V30 1914 C 188.996 -0.899244 1.73704 0
M  V30 1915 C 189.376 -1.99771 0.682254 0
M  V30 1916 O 188.724 -2.26515 -0.300522 0
M  V30 1917 C 188.934 -1.45075 3.17418 0
M  V30 1918 C 190.282 -1.91802 3.7881 0
M  V30 1919 O 191.306 -1.54838 3.20786 0
M  V30 1920 O 190.165 -2.5994 4.80722 0
M  V30 1921 H 187.259 -0.424267 0.709878 0
M  V30 1922 H 189.805 -0.143561 1.69092 0
M  V30 1923 H 188.577 -0.660846 3.85679 0
M  V30 1924 H 188.2 -2.27021 3.26416 0
M  V30 1925 N 189.197 -1.51736 -0.425897 0
M  V30 1926 C 190.608 -1.5732 -1.00536 0
M  V30 1927 C 190.959 -0.403537 -1.92005 0
M  V30 1928 O 190.084 0.478256 -2.11049 0
M  V30 1929 C 190.679 -2.85119 -1.8301 0
M  V30 1930 C 189.238 -2.93236 -2.35987 0
M  V30 1931 C 188.385 -2.52098 -1.15508 0
M  V30 1932 H 191.336 -1.57348 -0.206739 0
M  V30 1933 H 191.357 -2.69526 -2.68581 0
M  V30 1934 H 190.869 -3.7023 -1.16411 0
M  V30 1935 H 188.97 -2.12581 -3.06007 0
M  V30 1936 H 189.083 -3.9713 -2.68001 0
M  V30 1937 H 187.447 -2.05558 -1.50393 0
M  V30 1938 H 188.23 -3.39565 -0.505014 0
M  V30 1939 N 190.675 0.682077 -1.42076 0
M  V30 1940 C 191.623 1.81707 -1.45208 0
M  V30 1941 C 192.617 1.66183 -0.328591 0
M  V30 1942 O 193.823 1.7288 -0.501264 0
M  V30 1943 H 190.198 0.599014 -0.454628 0
M  V30 1944 H 192.169 1.76183 -2.40836 0
M  V30 1945 C 190.918 3.19816 -1.36428 0
M  V30 1946 H 190.241 3.32385 -2.22171 0
M  V30 1947 H 191.681 3.99272 -1.42681 0
M  V30 1948 C 190.14 3.36809 -0.078191 0
M  V30 1949 O 190.67 3.92124 0.87188 0
M  V30 1950 N 188.876 2.906 0.00229266 0
M  V30 1951 H 188.423 2.45772 -0.771616 0
M  V30 1952 H 188.381 3.02347 0.862179 0
M  V30 1953 N 192.153 1.28127 0.917671 0
M  V30 1954 C 193.401 1.14825 1.66312 0
M  V30 1955 C 193.722 -0.304379 1.9261 0
M  V30 1956 O 192.992 -1.21149 1.53947 0
M  V30 1957 H 191.572 0.421953 0.616413 0
M  V30 1958 H 194.234 1.608 1.10134 0
M  V30 1959 H 193.33 1.68489 2.62712 0
M  V30 1960 N 193.631 -1.12557 1.10312 0
M  V30 1961 C 194.581 -2.16331 0.720076 0
M  V30 1962 C 195.565 -1.58616 -0.270115 0
M  V30 1963 O 196.757 -1.76823 -0.0790507 0
M  V30 1964 C 193.886 -3.42963 0.152113 0
M  V30 1965 C 192.972 -4.07663 1.16927 0
M  V30 1966 N 193.363 -4.47392 2.35953 0
M  V30 1967 C 191.661 -4.34425 1.0095 0
M  V30 1968 C 192.362 -4.97932 3.0073 0
M  V30 1969 N 191.338 -4.93358 2.28252 0
M  V30 1970 H 195.14 -2.44813 1.62616 0
M  V30 1971 H 192.654 -1.29449 0.980654 0
M  V30 1972 H 194.651 -4.16664 -0.14037 0
M  V30 1973 H 193.311 -3.1595 -0.748701 0
M  V30 1974 H 194.322 -4.39802 2.73486 0
M  V30 1975 H 190.999 -4.17177 0.164134 0
M  V30 1976 H 192.389 -5.38397 4.01969 0
M  V30 1977 N 195.109 -0.891671 -1.2995 0
M  V30 1978 C 196.337 -0.52866 -2.00032 0
M  V30 1979 C 196.752 0.884574 -1.66795 0
M  V30 1980 O 196.109 1.5827 -0.908669 0
M  V30 1981 C 196.16 -0.701814 -3.54622 0
M  V30 1982 O 195.881 -2.05942 -3.86678 0
M  V30 1983 C 197.382 -0.342683 -4.41973 0
M  V30 1984 H 194.602 -0.203659 -0.639347 0
M  V30 1985 H 197.146 -1.19881 -1.65677 0
M  V30 1986 H 195.301 -0.0789468 -3.8732 0
M  V30 1987 H 195.715 -2.08291 -4.81368 0
M  V30 1988 H 197.189 -0.514709 -5.49595 0
M  V30 1989 H 197.666 0.71975 -4.33262 0
M  V30 1990 H 198.272 -0.942154 -4.14733 0
M  V30 1991 N 196.587 1.43421 -0.653314 0
M  V30 1992 C 197.517 2.33487 0.0246656 0
M  V30 1993 C 198.498 1.49475 0.811863 0
M  V30 1994 O 199.683 1.78139 0.773322 0
M  V30 1995 C 196.813 3.32841 0.99166 0
M  V30 1996 C 195.767 4.26842 0.314568 0
M  V30 1997 C 195.093 5.16236 1.39302 0
M  V30 1998 C 196.393 5.16243 -0.793095 0
M  V30 1999 H 198.087 2.90427 -0.727481 0
M  V30 2000 H 195.633 1.39649 -0.351287 0
M  V30 2001 H 197.586 3.94747 1.47487 0
M  V30 2002 H 196.31 2.74158 1.77497 0
M  V30 2003 H 194.969 3.663 -0.148199 0
M  V30 2004 H 194.617 4.53891 2.16776 0
M  V30 2005 H 194.317 5.79948 0.945223 0
M  V30 2006 H 195.841 5.81015 1.87759 0
M  V30 2007 H 197.255 5.71958 -0.392039 0
M  V30 2008 H 195.652 5.88676 -1.16536 0
M  V30 2009 H 196.722 4.55927 -1.65103 0
M  V30 2010 N 198.065 0.39524 1.52563 0
M  V30 2011 C 199.314 -0.186321 2.00838 0
M  V30 2012 C 199.627 -1.47402 1.28577 0
M  V30 2013 O 200.833 -2.13599 1.67593 0
M  V30 2014 C 199.289 -0.382595 3.57861 0
M  V30 2015 C 198.897 0.892202 4.39026 0
M  V30 2016 C 200.641 -0.9202 4.14406 0
M  V30 2017 C 198.548 0.66388 5.87662 0
M  V30 2018 H 197.478 -0.0734041 0.750418 0
M  V30 2019 H 200.129 0.518552 1.76021 0
M  V30 2020 H 198.511 -1.14946 3.7895 0
M  V30 2021 H 199.685 1.66414 4.29701 0
M  V30 2022 H 198 1.35519 3.9373 0
M  V30 2023 H 200.597 -1.10683 5.23119 0
M  V30 2024 H 200.94 -1.89096 3.70875 0
M  V30 2025 H 201.473 -0.212751 3.97231 0
M  V30 2026 H 198.212 1.6058 6.35527 0
M  V30 2027 H 197.732 -0.0690193 5.9976 0
M  V30 2028 H 199.411 0.300699 6.46301 0
M  V30 2029 N 199.544 -1.57102 0.125237 0
M  V30 2030 C 200.474 -2.18659 -0.819174 0
M  V30 2031 C 201.455 -1.12843 -1.27281 0
M  V30 2032 O 202.64 -1.41104 -1.33429 0
M  V30 2033 C 199.77 -2.79096 -2.06695 0
M  V30 2034 C 198.724 -3.90548 -1.75088 0
M  V30 2035 C 198.05 -4.37821 -3.06948 0
M  V30 2036 C 199.35 -5.12356 -1.01435 0
M  V30 2037 H 201.044 -2.9783 -0.306202 0
M  V30 2038 H 198.59 -1.4326 -0.145839 0
M  V30 2039 H 200.543 -3.2082 -2.73226 0
M  V30 2040 H 199.267 -1.97223 -2.60328 0
M  V30 2041 H 197.926 -3.49409 -1.10944 0
M  V30 2042 H 197.574 -3.52799 -3.58527 0
M  V30 2043 H 197.274 -5.12982 -2.86571 0
M  V30 2044 H 198.798 -4.822 -3.74587 0
M  V30 2045 H 200.212 -5.5106 -1.58132 0
M  V30 2046 H 198.609 -5.9314 -0.911319 0
M  V30 2047 H 199.679 -4.849 -0.00218681 0
M  V30 2048 N 201.022 0.148545 -1.56898 0
M  V30 2049 C 201.972 1.1886 -1.94567 0
M  V30 2050 C 202.956 1.3863 -0.816735 0
M  V30 2051 O 204.148 1.40218 -1.08018 0
M  V30 2052 C 201.277 2.52262 -2.32849 0
M  V30 2053 C 200.363 2.36092 -3.52309 0
M  V30 2054 N 200.754 1.89674 -4.6889 0
M  V30 2055 C 199.052 2.66848 -3.57363 0
M  V30 2056 C 199.753 1.86511 -5.50989 0
M  V30 2057 N 198.729 2.29766 -4.92655 0
M  V30 2058 H 202.531 0.821793 -2.82177 0
M  V30 2059 H 200.045 0.356615 -1.58436 0
M  V30 2060 H 202.042 3.27447 -2.58039 0
M  V30 2061 H 200.702 2.89727 -1.46589 0
M  V30 2062 H 201.713 1.59663 -4.92674 0
M  V30 2063 H 198.39 3.08198 -2.81639 0
M  V30 2064 H 199.78 1.52128 -6.54452 0
M  V30 2065 N 202.5 1.5196 0.417844 0
M  V30 2066 C 203.748 1.65263 1.16329 0
M  V30 2067 C 204.069 0.380634 1.91249 0
M  V30 2068 O 203.339 -0.604214 1.86349 0
M  V30 2069 H 201.919 0.60912 0.432414 0
M  V30 2070 H 204.581 1.88969 0.477162 0
M  V30 2071 H 203.677 2.4896 1.88217 0
M  V30 2072 N 203.978 -0.674533 1.42435 0
M  V30 2073 C 205.206 -1.46283 1.46317 0
M  V30 2074 C 205.621 -1.88653 0.0745836 0
M  V30 2075 O 204.978 -1.58151 -0.91074 0
M  V30 2076 C 205.029 -2.71178 2.3905 0
M  V30 2077 O 204.75 -2.30586 3.72507 0
M  V30 2078 C 206.251 -3.64738 2.51955 0
M  V30 2079 H 203.471 -0.450104 0.497642 0
M  V30 2080 H 206.015 -0.828792 1.86953 0
M  V30 2081 H 204.17 -3.3077 2.01667 0
M  V30 2082 H 204.584 -3.11241 4.22172 0
M  V30 2083 H 206.058 -4.49096 3.20962 0
M  V30 2084 H 206.535 -4.10656 1.55752 0
M  V30 2085 H 207.141 -3.11038 2.90061 0
M  V30 2086 N 205.456 -1.28612 -0.910864 0
M  V30 2087 C 206.705 -1.15311 -1.65488 0
M  V30 2088 C 207.018 0.296999 -1.93332 0
M  V30 2089 O 208.224 0.551168 -2.65847 0
M  V30 2090 C 206.68 -2.01599 -2.98137 0
M  V30 2091 C 206.288 -3.51367 -2.7793 0
M  V30 2092 C 208.032 -1.96993 -3.76024 0
M  V30 2093 C 205.939 -4.29797 -4.06237 0
M  V30 2094 H 204.869 -0.42796 -0.620779 0
M  V30 2095 H 207.52 -1.53166 -1.01057 0
M  V30 2096 H 205.902 -1.56603 -3.63719 0
M  V30 2097 H 207.076 -4.0434 -2.21011 0
M  V30 2098 H 205.391 -3.57529 -2.13452 0
M  V30 2099 H 207.988 -2.52856 -4.71135 0
M  V30 2100 H 208.331 -0.94733 -4.05378 0
M  V30 2101 H 208.864 -2.39973 -3.17266 0
M  V30 2102 H 205.603 -5.32648 -3.82055 0
M  V30 2103 H 205.123 -3.81596 -4.62757 0
M  V30 2104 H 206.802 -4.39869 -4.74473 0
M  V30 2105 N 206.934 1.1197 -1.10907 0
M  V30 2106 C 208.181 1.83588 -0.854507 0
M  V30 2107 C 208.509 1.84357 0.6199 0
M  V30 2108 O 207.764 1.28809 1.47332 0
M  V30 2109 C 208.063 3.30749 -1.35425 0
M  V30 2110 C 207.729 3.50146 -2.84093 0
M  V30 2111 C 206.391 3.55148 -3.2469 0
M  V30 2112 C 208.743 3.56857 -3.79872 0
M  V30 2113 C 206.071 3.6441 -4.59806 0
M  V30 2114 C 208.423 3.6765 -5.14797 0
M  V30 2115 C 207.087 3.7091 -5.54961 0
M  V30 2116 H 206.357 0.671795 -0.312686 0
M  V30 2117 H 209.004 1.32091 -1.38652 0
M  V30 2118 H 207.309 3.84703 -0.742361 0
M  V30 2119 H 209.006 3.8464 -1.1337 0
M  V30 2120 H 205.596 3.46919 -2.51685 0
M  V30 2121 H 209.78 3.52258 -3.49611 0
M  V30 2122 H 205.036 3.65208 -4.9034 0
M  V30 2123 H 209.21 3.71786 -5.88853 0
M  V30 2124 H 206.837 3.7784 -6.59652 0
M  V30 2125 N 208.412 0.89855 1.29475 0
M  V30 2126 C 209.689 0.443416 1.90508 0
M  V30 2127 C 210.069 -1.07685 1.81569 0
M  V30 2128 O 209.417 -1.9182 1.24166 0
M  V30 2129 C 209.627 0.956708 3.35631 0
M  V30 2130 C 210.975 0.999728 4.12663 0
M  V30 2131 O 211.999 0.904299 3.4453 0
M  V30 2132 O 210.858 1.14289 5.34416 0
M  V30 2133 H 207.952 0.138025 0.815401 0
M  V30 2134 H 210.498 0.98834 1.37949 0
M  V30 2135 H 209.27 2.00067 3.36287 0
M  V30 2136 H 208.893 0.391728 3.95666 0
M  V30 2137 N 209.89 -1.43072 0.660911 0
M  V30 2138 C 210.853 -2.29194 -0.0166406 0
M  V30 2139 C 211.853 -1.42609 -0.742912 0
M  V30 2140 O 213.043 -1.64155 -0.583004 0
M  V30 2141 C 210.175 -3.24831 -1.0343 0
M  V30 2142 H 211.368 -2.90596 0.741208 0
M  V30 2143 H 208.921 -1.5048 0.422532 0
M  V30 2144 H 209.656 -2.68339 -1.82111 0
M  V30 2145 H 209.441 -3.88676 -0.517082 0
M  V30 2146 H 210.931 -3.89451 -1.50723 0
M  V30 2147 N 211.368 -0.403325 -1.52352 0
M  V30 2148 C 212.645 0.232611 -1.94212 0
M  V30 2149 C 213.025 1.63133 -1.33981 0
M  V30 2150 O 212.373 2.22659 -0.513344 0
M  V30 2151 C 212.583 0.244811 -3.4814 0
M  V30 2152 C 213.931 0.46698 -4.22024 0
M  V30 2153 O 214.955 0.324419 -3.5472 0
M  V30 2154 O 213.814 0.74747 -5.41364 0
M  V30 2155 H 210.908 0.148223 -0.813609 0
M  V30 2156 H 213.454 -0.458848 -1.63379 0
M  V30 2157 H 212.226 -0.734378 -3.84347 0
M  V30 2158 H 211.849 0.980611 -3.85318 0
M  V30 2159 N 212.846 1.57033 -0.133567 0
M  V30 2160 C 214.094 1.953 0.519848 0
M  V30 2161 C 214.415 1.01866 1.66278 0
M  V30 2162 O 213.685 0.0776513 1.95746 0
M  V30 2163 H 212.265 0.721091 0.195032 0
M  V30 2164 H 214.927 1.93809 -0.205921 0
M  V30 2165 H 214.023 2.98695 0.904854 0
M  V30 2166 N 214.325 -0.140222 1.56975 0
M  V30 2167 C 215.272 -1.17292 1.98774 0
M  V30 2168 C 216.242 -1.4232 0.856408 0
M  V30 2169 O 217.427 -1.54541 1.119 0
M  V30 2170 C 214.567 -2.49973 2.37923 0
M  V30 2171 C 213.68 -2.32062 3.64378 0
M  V30 2172 C 212.815 -3.57825 3.926 0
M  V30 2173 C 211.854 -3.3498 5.12303 0
M  V30 2174 N 210.991 -4.52891 5.36502 0
M  V30 2175 H 215.831 -0.809472 2.86795 0
M  V30 2176 H 213.368 -0.388237 1.41884 0
M  V30 2177 H 215.326 -3.27346 2.58652 0
M  V30 2178 H 213.956 -2.84252 1.52972 0
M  V30 2179 H 213.008 -1.45711 3.51387 0
M  V30 2180 H 214.32 -2.11145 4.51906 0
M  V30 2181 H 213.474 -4.43624 4.13863 0
M  V30 2182 H 212.213 -3.81753 3.03506 0
M  V30 2183 H 211.218 -2.4757 4.90906 0
M  V30 2184 H 212.443 -3.12444 6.02956 0
M  V30 2185 H 210.389 -4.76979 4.50363 0
M  V30 2186 H 210.306 -4.35001 6.18312 0
M  V30 2187 H 211.574 -5.39884 5.62268 0
M  V30 2188 N 215.803 -1.52179 -0.40978 0
M  V30 2189 C 217.214 -1.58377 -0.988615 0
M  V30 2190 C 217.565 -0.423879 -1.91566 0
M  V30 2191 O 216.69 0.455844 -2.11544 0
M  V30 2192 C 217.285 -2.87044 -1.79976 0
M  V30 2193 C 215.844 -2.95722 -2.32863 0
M  V30 2194 C 214.991 -2.53309 -1.12828 0
M  V30 2195 H 217.942 -1.57558 -0.190039 0
M  V30 2196 H 217.963 -2.7236 -2.65707 0
M  V30 2197 H 217.475 -3.71444 -1.12478 0
M  V30 2198 H 215.576 -2.15814 -3.03735 0
M  V30 2199 H 215.689 -3.99951 -2.63773 0
M  V30 2200 H 214.053 -2.07142 -1.48204 0
M  V30 2201 H 214.836 -3.40082 -0.46897 0
M  V30 2202 N 217.281 0.66697 -1.42791 0
M  V30 2203 C 218.211 1.79218 -1.49677 0
M  V30 2204 C 219.192 1.66405 -0.352623 0
M  V30 2205 O 220.377 1.85708 -0.567993 0
M  V30 2206 C 217.507 3.17565 -1.40605 0
M  V30 2207 C 216.461 3.45124 -2.53127 0
M  V30 2208 C 215.787 4.83127 -2.29112 0
M  V30 2209 C 217.087 3.41236 -3.95418 0
M  V30 2210 H 218.781 1.73713 -2.43853 0
M  V30 2211 H 216.327 0.83432 -1.17367 0
M  V30 2212 H 218.28 3.96022 -1.44029 0
M  V30 2213 H 217.004 3.23767 -0.429271 0
M  V30 2214 H 215.663 2.69031 -2.49034 0
M  V30 2215 H 215.311 4.85988 -1.29709 0
M  V30 2216 H 215.011 5.02528 -3.04531 0
M  V30 2217 H 216.535 5.63859 -2.34297 0
M  V30 2218 H 217.949 4.09651 -4.01073 0
M  V30 2219 H 216.346 3.72173 -4.70752 0
M  V30 2220 H 217.416 2.39665 -4.21532 0
M  V30 2221 N 218.759 1.29093 0.90403 0
M  V30 2222 C 220.17 1.15186 1.46932 0
M  V30 2223 C 220.521 -0.254587 1.94541 0
M  V30 2224 O 219.646 -1.14972 1.83332 0
M  V30 2225 C 220.241 2.08492 2.67051 0
M  V30 2226 C 218.8 1.98621 3.19729 0
M  V30 2227 C 217.947 1.9967 1.92425 0
M  V30 2228 H 220.898 1.41641 0.715789 0
M  V30 2229 H 220.919 1.65461 3.42641 0
M  V30 2230 H 220.431 3.10847 2.3237 0
M  V30 2231 H 218.532 0.993389 3.59114 0
M  V30 2232 H 218.645 2.86068 3.8432 0
M  V30 2233 H 217.009 1.44208 2.09943 0
M  V30 2234 H 217.792 3.03721 1.60026 0
M  V30 2235 N 220.237 -1.11381 1.11499 0
M  V30 2236 C 221.185 -2.19522 0.768956 0
M  V30 2237 C 222.179 -1.67693 -0.239857 0
M  V30 2238 O 223.385 -1.79727 -0.0990755 0
M  V30 2239 H 219.76 -0.715711 0.230786 0
M  V30 2240 H 221.731 -2.45954 1.68964 0
M  V30 2241 C 220.48 -3.46945 0.229073 0
M  V30 2242 H 219.803 -3.8718 0.996596 0
M  V30 2243 H 221.243 -4.23993 0.0251441 0
M  V30 2244 C 219.702 -3.2042 -1.04079 0
M  V30 2245 O 220.232 -3.41178 -2.12038 0
M  V30 2246 N 218.438 -2.74151 -0.963823 0
M  V30 2247 H 217.985 -2.57459 -0.0851722 0
M  V30 2248 H 217.943 -2.56781 -1.81414 0
M  V30 2249 N 221.715 -0.905404 -1.28997 0
M  V30 2250 C 222.678 -0.392253 -2.25819 0
M  V30 2251 C 223.678 0.476753 -1.5357 0
M  V30 2252 O 224.868 0.280994 -1.71919 0
M  V30 2253 C 222 0.438588 -3.38067 0
M  V30 2254 H 223.193 -1.24743 -2.72725 0
M  V30 2255 H 220.746 -0.684051 -1.40536 0
M  V30 2256 H 221.481 1.31352 -2.96508 0
M  V30 2257 H 221.266 -0.184167 -3.91667 0
M  V30 2258 H 222.756 0.78873 -4.10084 0
M  V30 2259 N 223.193 1.4272 -0.668489 0
M  V30 2260 C 224.14 2.30796 0.0137489 0
M  V30 2261 C 225.11 1.4561 0.799177 0
M  V30 2262 O 226.295 1.74453 0.772702 0
M  V30 2263 C 223.435 3.31377 0.963507 0
M  V30 2264 C 222.548 4.31655 0.172569 0
M  V30 2265 C 221.683 5.19312 1.1175 0
M  V30 2266 C 220.722 6.11274 0.317886 0
M  V30 2267 N 219.859 6.91504 1.2152 0
M  V30 2268 H 224.699 2.88585 -0.743161 0
M  V30 2269 H 222.236 1.42154 -0.378226 0
M  V30 2270 H 224.194 3.88214 1.52792 0
M  V30 2271 H 222.824 2.75202 1.68712 0
M  V30 2272 H 221.876 3.76988 -0.508374 0
M  V30 2273 H 223.188 4.96779 -0.448527 0
M  V30 2274 H 222.342 5.80851 1.75206 0
M  V30 2275 H 221.081 4.5435 1.77249 0
M  V30 2276 H 220.086 5.48809 -0.329918 0
M  V30 2277 H 221.311 6.78283 -0.332917 0
M  V30 2278 H 219.257 6.29176 1.85671 0
M  V30 2279 H 219.174 7.53209 0.649036 0
M  V30 2280 H 220.442 7.57535 1.83742 0
M  V30 2281 N 224.671 0.411399 1.52136 0
M  V30 2282 C 225.917 -0.163888 2.02137 0
M  V30 2283 C 226.25 -1.44597 1.29636 0
M  V30 2284 O 225.525 -1.90272 0.403353 0
M  V30 2285 C 225.808 -0.40927 3.57767 0
M  V30 2286 C 225.661 0.889643 4.40914 0
M  V30 2287 C 226.98 -1.19042 4.23694 0
M  V30 2288 H 224.099 -0.0580896 0.734707 0
M  V30 2289 H 226.741 0.54531 1.82007 0
M  V30 2290 H 224.891 -1.0134 3.7505 0
M  V30 2291 H 226.563 1.52575 4.35337 0
M  V30 2292 H 224.806 1.50011 4.07037 0
M  V30 2293 H 225.477 0.672314 5.4789 0
M  V30 2294 H 227.953 -0.678942 4.10524 0
M  V30 2295 H 226.829 -1.33086 5.32522 0
M  V30 2296 H 227.09 -2.21166 3.82803 0
M  V30 2297 N 226.149 -1.5696 0.141893 0
M  V30 2298 C 227.059 -2.20066 -0.812905 0
M  V30 2299 C 228.075 -1.18344 -1.27557 0
M  V30 2300 O 229.251 -1.50902 -1.33381 0
M  V30 2301 C 226.316 -2.80583 -2.03652 0
M  V30 2302 C 225.377 -3.97414 -1.62359 0
M  V30 2303 C 224.61 -4.55036 -2.78887 0
M  V30 2304 O 224.833 -4.11538 -3.94959 0
M  V30 2305 O 223.767 -5.45376 -2.54653 0
M  V30 2306 H 227.593 -3.02157 -0.305746 0
M  V30 2307 H 225.178 -1.49159 -0.0848799 0
M  V30 2308 H 227.06 -3.19067 -2.75272 0
M  V30 2309 H 225.735 -2.01508 -2.5333 0
M  V30 2310 H 224.642 -3.63656 -0.877775 0
M  V30 2311 H 225.975 -4.77994 -1.17401 0
M  V30 2312 N 227.627 0.131896 -1.57047 0
M  V30 2313 C 228.876 0.84044 -1.83356 0
M  V30 2314 C 229.189 1.81646 -0.725535 0
M  V30 2315 O 230.395 2.57025 -0.874659 0
M  V30 2316 C 228.851 1.54528 -3.25037 0
M  V30 2317 C 228.459 0.610902 -4.43815 0
M  V30 2318 C 230.203 2.23972 -3.60606 0
M  V30 2319 C 228.11 1.31823 -5.76521 0
M  V30 2320 H 227.04 0.317599 -0.683847 0
M  V30 2321 H 229.691 0.0931561 -1.83263 0
M  V30 2322 H 228.073 2.33873 -3.19561 0
M  V30 2323 H 229.247 -0.148407 -4.60561 0
M  V30 2324 H 227.562 0.0241016 -4.16393 0
M  V30 2325 H 230.159 2.77558 -4.57018 0
M  V30 2326 H 230.502 3.01173 -2.87403 0
M  V30 2327 H 231.035 1.51529 -3.6781 0
M  V30 2328 H 227.774 0.587771 -6.52859 0
M  V30 2329 H 227.294 2.04987 -5.63685 0
M  V30 2330 H 228.973 1.855 -6.19838 0
M  V30 2331 N 229.106 1.52395 0.401703 0
M  V30 2332 C 230.352 1.68019 1.14635 0
M  V30 2333 C 230.707 0.408722 1.88009 0
M  V30 2334 O 230 -0.597133 1.82057 0
M  V30 2335 C 230.194 2.84578 2.16217 0
M  V30 2336 C 230.023 4.22938 1.5282 0
M  V30 2337 C 228.793 4.88352 1.29772 0
M  V30 2338 C 230.991 5.04778 0.985094 0
M  V30 2339 N 228.973 6.10726 0.623455 0
M  V30 2340 C 230.344 6.1845 0.438172 0
M  V30 2341 C 232.399 4.90057 0.880275 0
M  V30 2342 C 231.102 7.19013 -0.203306 0
M  V30 2343 C 233.128 5.9086 0.252639 0
M  V30 2344 C 232.49 7.03829 -0.283573 0
M  V30 2345 H 228.589 0.668413 0.405892 0
M  V30 2346 H 231.173 1.89717 0.437674 0
M  V30 2347 H 229.344 2.64483 2.84435 0
M  V30 2348 H 231.076 2.89202 2.83098 0
M  V30 2349 H 227.831 4.46846 1.56926 0
M  V30 2350 H 228.255 6.76323 0.302733 0
M  V30 2351 H 232.897 4.02938 1.28065 0
M  V30 2352 H 230.615 8.05751 -0.615726 0
M  V30 2353 H 234.201 5.81543 0.172954 0
M  V30 2354 H 233.081 7.80493 -0.761575 0
M  V30 2355 N 230.584 -0.659388 1.43143 0
M  V30 2356 C 231.534 -1.7655 1.44271 0
M  V30 2357 C 232.518 -1.57847 0.311961 0
M  V30 2358 O 233.71 -1.68064 0.555306 0
M  V30 2359 C 230.839 -3.15104 1.36251 0
M  V30 2360 C 229.925 -3.39377 2.54331 0
M  V30 2361 N 230.316 -3.34153 3.79704 0
M  V30 2362 C 228.614 -3.70072 2.48922 0
M  V30 2363 C 229.315 -3.58337 4.58225 0
M  V30 2364 N 228.291 -3.79851 3.88863 0
M  V30 2365 H 232.093 -1.70928 2.39083 0
M  V30 2366 H 229.607 -0.860823 1.37708 0
M  V30 2367 H 231.604 -3.94389 1.35141 0
M  V30 2368 H 230.264 -3.21913 0.424531 0
M  V30 2369 H 231.275 -3.13704 4.1208 0
M  V30 2370 H 227.952 -3.84034 1.63781 0
M  V30 2371 H 229.342 -3.60129 5.67236 0
M  V30 2372 N 232.062 -1.29571 -0.897171 0
M  V30 2373 C 233.025 -1.14913 -1.98312 0
M  V30 2374 C 234.025 -0.0838629 -1.60581 0
M  V30 2375 O 235.215 -0.331006 -1.71026 0
M  V30 2376 C 232.347 -0.757835 -3.3237 0
M  V30 2377 H 233.54 -2.11377 -2.12743 0
M  V30 2378 H 231.093 -1.12793 -1.08201 0
M  V30 2379 H 231.828 0.206837 -3.2364 0
M  V30 2380 H 231.613 -1.52755 -3.61121 0
M  V30 2381 H 233.103 -0.678408 -4.12053 0
M  V30 2382 N 233.54 1.10788 -1.12088 0
M  V30 2383 C 234.488 2.19111 -0.780587 0
M  V30 2384 C 235.482 1.67818 0.230961 0
M  V30 2385 O 236.688 1.79777 0.0895427 0
M  V30 2386 H 233.063 0.714477 -0.234578 0
M  V30 2387 H 235.034 2.45055 -1.70266 0
M  V30 2388 C 233.783 3.46818 -0.24747 0
M  V30 2389 H 233.106 3.86646 -1.01712 0
M  V30 2390 H 234.546 4.23973 -0.0476291 0
M  V30 2391 C 233.005 3.20968 1.02378 0
M  V30 2392 O 233.535 3.42298 2.10226 0
M  V30 2393 N 231.741 2.74658 0.949271 0
M  V30 2394 H 231.288 2.57501 0.0715173 0
M  V30 2395 H 231.246 2.57739 1.80049 0
M  V30 2396 N 235.018 0.912232 1.28515 0
M  V30 2397 C 236.246 0.560416 1.99166 0
M  V30 2398 C 236.661 -0.857927 1.68182 0
M  V30 2399 O 236.018 -1.56805 0.933733 0
M  V30 2400 C 236.069 0.758142 3.53461 0
M  V30 2401 O 235.79 2.12067 3.83352 0
M  V30 2402 C 237.291 0.412954 4.41372 0
M  V30 2403 H 234.511 0.213805 0.636026 0
M  V30 2404 H 237.055 1.22502 1.63749 0
M  V30 2405 H 235.21 0.140556 3.87145 0
M  V30 2406 H 235.624 2.15923 4.77993 0
M  V30 2407 H 237.098 0.60208 5.48707 0
M  V30 2408 H 237.575 -0.65073 4.34353 0
M  V30 2409 H 238.181 1.00802 4.13182 0
M  V30 2410 N 236.496 -1.42363 0.676048 0
M  V30 2411 C 237.443 -2.308 -0.00150904 0
M  V30 2412 C 238.413 -1.46032 -0.791444 0
M  V30 2413 O 239.598 -1.74861 -0.76344 0
M  V30 2414 C 236.738 -3.31883 -0.945919 0
M  V30 2415 C 235.851 -4.31741 -0.149675 0
M  V30 2416 C 234.986 -5.19898 -1.08995 0
M  V30 2417 C 234.025 -6.11434 -0.285465 0
M  V30 2418 N 233.162 -6.92138 -1.17851 0
M  V30 2419 H 238.002 -2.88187 0.758455 0
M  V30 2420 H 235.539 -1.41952 0.38576 0
M  V30 2421 H 237.497 -3.89019 -1.50731 0
M  V30 2422 H 236.127 -2.76093 -1.6725 0
M  V30 2423 H 235.179 -3.76713 0.528359 0
M  V30 2424 H 236.491 -4.96534 0.474866 0
M  V30 2425 H 235.645 -5.81772 -1.72123 0
M  V30 2426 H 234.384 -4.55284 -1.74837 0
M  V30 2427 H 233.389 -5.48627 0.359018 0
M  V30 2428 H 234.614 -6.78097 0.368883 0
M  V30 2429 H 232.56 -6.30152 -1.82332 0
M  V30 2430 H 232.477 -7.53542 -0.609082 0
M  V30 2431 H 233.745 -7.58499 -1.79722 0
M  V30 2432 N 237.974 -0.419461 -1.51915 0
M  V30 2433 C 239.222 0.152637 -2.01523 0
M  V30 2434 C 239.543 1.44762 -1.30649 0
M  V30 2435 O 238.813 1.90997 -0.435535 0
M  V30 2436 H 237.393 0.0593966 -0.744635 0
M  V30 2437 H 240.055 -0.558073 -1.86739 0
M  V30 2438 H 239.151 0.341369 -3.10227 0
M  V30 2439 N 239.452 1.56882 -0.150215 0
M  V30 2440 C 240.699 1.96228 0.500093 0
M  V30 2441 C 241.027 1.03522 1.64661 0
M  V30 2442 O 240.282 0.0650683 1.95592 0
M  V30 2443 C 240.581 3.41801 1.04437 0
M  V30 2444 C 240.247 4.50897 0.0159671 0
M  V30 2445 C 238.909 4.8046 -0.266731 0
M  V30 2446 C 241.261 5.16703 -0.683192 0
M  V30 2447 C 238.589 5.73135 -1.25434 0
M  V30 2448 C 240.941 6.10441 -1.65964 0
M  V30 2449 C 239.605 6.38382 -1.95 0
M  V30 2450 H 238.875 0.718048 0.182997 0
M  V30 2451 H 241.522 1.90019 -0.237724 0
M  V30 2452 H 239.827 3.44857 1.85959 0
M  V30 2453 H 241.524 3.69573 1.55618 0
M  V30 2454 H 238.114 4.27891 0.246485 0
M  V30 2455 H 242.298 4.93993 -0.477983 0
M  V30 2456 H 237.554 5.93074 -1.48571 0
M  V30 2457 H 241.728 6.60507 -2.20689 0
M  V30 2458 H 239.355 7.09996 -2.71679 0
M  V30 2459 N 240.93 -0.123565 1.57115 0
M  V30 2460 C 242.16 -0.845233 1.88519 0
M  V30 2461 C 242.568 -1.74168 0.739064 0
M  V30 2462 O 241.911 -1.81244 -0.299355 0
M  V30 2463 C 241.973 -1.73452 3.14888 0
M  V30 2464 C 241.637 -1.01285 4.45635 0
M  V30 2465 C 242.634 -0.355774 5.18681 0
M  V30 2466 C 240.319 -0.99538 4.92339 0
M  V30 2467 C 242.313 0.309114 6.3665 0
M  V30 2468 C 240 -0.32669 6.10226 0
M  V30 2469 C 240.998 0.324406 6.82229 0
M  V30 2470 O 240.686 0.982437 7.97874 0
M  V30 2471 H 240.418 -0.248534 0.628655 0
M  V30 2472 H 242.972 -0.113907 2.05084 0
M  V30 2473 H 241.202 -2.50737 2.94394 0
M  V30 2474 H 242.891 -2.33021 3.32349 0
M  V30 2475 H 243.657 -0.360918 4.83655 0
M  V30 2476 H 239.536 -1.49159 4.36202 0
M  V30 2477 H 243.08 0.8179 6.92789 0
M  V30 2478 H 238.977 -0.319294 6.4471 0
M  V30 2479 H 239.745 0.886454 8.13686 0
M  V30 2480 N 242.408 -1.52605 -0.393616 0
M  V30 2481 C 243.633 -1.71592 -1.16495 0
M  V30 2482 C 244.058 -0.43133 -1.83088 0
M  V30 2483 O 243.416 0.612523 -1.7064 0
M  V30 2484 C 243.464 -2.86318 -2.19213 0
M  V30 2485 O 242.568 -2.52969 -3.257 0
M  V30 2486 H 241.909 -0.570734 -0.33935 0
M  V30 2487 H 244.439 -1.99377 -0.459324 0
M  V30 2488 H 244.449 -3.1168 -2.63286 0
M  V30 2489 H 243.124 -3.79511 -1.7013 0
M  V30 2490 H 241.701 -2.38332 -2.86797 0
M  V30 2491 N 243.887 0.651787 -1.4349 0
M  V30 2492 C 244.837 1.75783 -1.45205 0
M  V30 2493 C 245.821 1.57679 -0.320328 0
M  V30 2494 O 247.013 1.67767 -0.564211 0
M  V30 2495 C 244.142 3.14377 -1.3792 0
M  V30 2496 C 243.228 3.38023 -2.56127 0
M  V30 2497 N 243.619 3.32135 -3.81471 0
M  V30 2498 C 241.917 3.68747 -2.50882 0
M  V30 2499 C 242.618 3.55902 -4.60118 0
M  V30 2500 N 241.594 3.77783 -3.90872 0
M  V30 2501 H 245.396 1.69657 -2.39987 0
M  V30 2502 H 242.91 0.853508 -1.38163 0
M  V30 2503 H 244.907 3.93666 -1.37231 0
M  V30 2504 H 243.567 3.21683 -0.441596 0
M  V30 2505 H 244.578 3.11515 -4.13738 0
M  V30 2506 H 241.255 3.8316 -1.65816 0
M  V30 2507 H 242.645 3.57116 -5.69138 0
M  V30 2508 N 245.365 1.30045 0.890287 0
M  V30 2509 C 246.612 1.18561 1.64163 0
M  V30 2510 C 246.94 -0.260852 1.92743 0
M  V30 2511 O 246.195 -1.20376 1.54299 0
M  V30 2512 C 246.494 1.95409 2.99249 0
M  V30 2513 C 246.16 3.45066 2.90242 0
M  V30 2514 C 244.822 3.85878 2.87492 0
M  V30 2515 C 247.174 4.4039 2.78758 0
M  V30 2516 C 244.502 5.20314 2.7109 0
M  V30 2517 C 246.854 5.74928 2.63894 0
M  V30 2518 C 245.518 6.14986 2.59516 0
M  V30 2519 H 244.788 0.433846 0.600715 0
M  V30 2520 H 247.435 1.61088 1.03552 0
M  V30 2521 H 245.74 1.45501 3.63781 0
M  V30 2522 H 247.437 1.8392 3.56334 0
M  V30 2523 H 244.027 3.12631 2.93189 0
M  V30 2524 H 248.211 4.09806 2.79952 0
M  V30 2525 H 243.467 5.50449 2.66112 0
M  V30 2526 H 247.641 6.48434 2.53981 0
M  V30 2527 H 245.268 7.19104 2.46565 0
M  V30 2528 N 246.843 -1.10192 1.12674 0
M  V30 2529 C 248.12 -1.78717 0.794965 0
M  V30 2530 C 248.5 -1.98628 -0.714853 0
M  V30 2531 O 247.848 -1.58135 -1.64941 0
M  V30 2532 C 248.058 -3.11546 1.5729 0
M  V30 2533 C 249.406 -3.86382 1.76052 0
M  V30 2534 O 250.43 -3.21274 1.53823 0
M  V30 2535 O 249.289 -5.03246 2.13087 0
M  V30 2536 H 246.383 -0.774702 0.289423 0
M  V30 2537 H 248.929 -1.16819 1.23091 0
M  V30 2538 H 247.701 -2.92489 2.59935 0
M  V30 2539 H 247.324 -3.81164 1.13137 0
M  V30 2540 N 248.321 -0.919034 -1.28029 0
M  V30 2541 C 249.732 -0.600735 -1.76771 0
M  V30 2542 C 250.083 0.884024 -1.75156 0
M  V30 2543 O 249.208 1.69163 -1.34956 0
M  V30 2544 C 249.803 -1.08372 -3.21 0
M  V30 2545 C 248.362 -0.816248 -3.67443 0
M  V30 2546 C 247.509 -1.24742 -2.47658 0
M  V30 2547 H 250.46 -1.09974 -1.14418 0
M  V30 2548 H 250.481 -0.427512 -3.78091 0
M  V30 2549 H 249.993 -2.16437 -3.22144 0
M  V30 2550 H 248.094 0.250968 -3.71754 0
M  V30 2551 H 248.207 -1.4277 -4.57333 0
M  V30 2552 H 246.571 -0.666083 -2.45836 0
M  V30 2553 H 247.354 -2.33653 -2.51518 0
M  V30 2554 N 249.799 1.42003 -0.683588 0
M  V30 2555 C 251.027 2.05746 -0.218182 0
M  V30 2556 C 251.442 1.51396 1.12804 0
M  V30 2557 O 250.799 0.657303 1.70252 0
M  V30 2558 C 250.85 3.61171 -0.154131 0
M  V30 2559 O 250.571 4.13508 -1.44716 0
M  V30 2560 C 252.072 4.42042 0.333713 0
M  V30 2561 H 249.292 0.662888 -0.10402 0
M  V30 2562 H 251.836 1.81987 -0.9328 0
M  V30 2563 H 249.991 3.84012 0.511231 0
M  V30 2564 H 250.405 5.07453 -1.32632 0
M  V30 2565 H 251.879 5.51028 0.327423 0
M  V30 2566 H 252.356 4.17269 1.37053 0
M  V30 2567 H 252.962 4.24239 -0.300222 0
M  V30 2568 N 251.277 0.427512 1.51691 0
M  V30 2569 C 252.525 -0.141948 2.01601 0
M  V30 2570 C 252.846 -1.44067 1.31414 0
M  V30 2571 O 252.116 -1.90763 0.445658 0
M  V30 2572 H 250.696 -0.0554468 0.744939 0
M  V30 2573 H 253.358 0.567968 1.86441 0
M  V30 2574 H 252.454 -0.324913 3.10404 0
M  V30 2575 N 252.755 -1.56801 0.158532 0
M  V30 2576 C 253.665 -2.20916 -0.789518 0
M  V30 2577 C 254.681 -1.1969 -1.26294 0
M  V30 2578 O 255.857 -1.52308 -1.31773 0
M  V30 2579 C 252.922 -2.82727 -2.00665 0
M  V30 2580 C 251.983 -3.99114 -1.58134 0
M  V30 2581 C 251.216 -4.57968 -2.74045 0
M  V30 2582 O 251.439 -4.15704 -3.90572 0
M  V30 2583 O 250.373 -5.48047 -2.48855 0
M  V30 2584 H 254.199 -3.02464 -0.273681 0
M  V30 2585 H 251.784 -1.4924 -0.0690548 0
M  V30 2586 H 253.666 -3.21968 -2.71872 0
M  V30 2587 H 252.341 -2.04184 -2.51179 0
M  V30 2588 H 251.248 -3.64567 -0.839155 0
M  V30 2589 H 252.581 -4.79212 -1.12325 0
M  V30 2590 N 254.233 0.115231 -1.57178 0
M  V30 2591 C 255.165 1.16694 -1.97269 0
M  V30 2592 C 256.178 1.37445 -0.872502 0
M  V30 2593 O 257.367 1.36454 -1.15077 0
M  V30 2594 C 254.467 2.52627 -2.25905 0
M  V30 2595 C 253.64 2.52427 -3.57211 0
M  V30 2596 C 252.699 3.70134 -3.74016 0
M  V30 2597 O 251.725 3.53546 -4.46087 0
M  V30 2598 N 252.927 4.88844 -3.13068 0
M  V30 2599 H 255.692 0.82588 -2.88096 0
M  V30 2600 H 253.253 0.304461 -1.59011 0
M  V30 2601 H 255.245 3.29937 -2.34359 0
M  V30 2602 H 253.815 2.789 -1.41186 0
M  V30 2603 H 253.035 1.60805 -3.5991 0
M  V30 2604 H 254.323 2.49353 -4.43509 0
M  V30 2605 H 253.721 5.05225 -2.54489 0
M  V30 2606 H 252.278 5.63817 -3.27037 0
M  V30 2607 N 255.711 1.52812 0.385517 0
M  V30 2608 C 256.643 1.74096 1.49074 0
M  V30 2609 C 257.656 0.621462 1.50472 0
M  V30 2610 O 258.845 0.897245 1.54311 0
M  V30 2611 C 255.945 1.78774 2.87911 0
M  V30 2612 C 255.118 3.08134 3.10439 0
M  V30 2613 C 254.177 3.04313 4.29278 0
M  V30 2614 O 253.203 3.78168 4.25415 0
M  V30 2615 N 254.405 2.23741 5.35649 0
M  V30 2616 H 257.17 2.69455 1.31202 0
M  V30 2617 H 254.731 1.51343 0.575065 0
M  V30 2618 H 256.723 1.73721 3.65518 0
M  V30 2619 H 255.293 0.907869 2.99126 0
M  V30 2620 H 254.513 3.26649 2.20667 0
M  V30 2621 H 255.801 3.93662 3.22347 0
M  V30 2622 H 255.199 1.63211 5.41645 0
M  V30 2623 H 253.756 2.24524 6.11909 0
M  V30 2624 N 257.189 -0.644168 1.43834 0
M  V30 2625 C 258.152 -1.73857 1.49353 0
M  V30 2626 C 259.152 -1.56315 0.377112 0
M  V30 2627 O 260.342 -1.62048 0.639226 0
M  V30 2628 C 257.474 -3.12819 1.35488 0
M  V30 2629 H 258.667 -1.70342 2.46827 0
M  V30 2630 H 256.22 -0.856652 1.30733 0
M  V30 2631 H 256.955 -3.2194 0.390569 0
M  V30 2632 H 256.74 -3.26958 2.16428 0
M  V30 2633 H 258.23 -3.92606 1.42302 0
M  V30 2634 N 258.668 -1.30515 -0.883378 0
M  V30 2635 C 259.915 -1.1943 -1.63532 0
M  V30 2636 C 260.243 0.250627 -1.92878 0
M  V30 2637 O 259.498 1.19556 -1.54935 0
M  V30 2638 C 259.797 -1.96994 -2.98209 0
M  V30 2639 C 259.463 -3.466 -2.88408 0
M  V30 2640 C 258.125 -3.87397 -2.85442 0
M  V30 2641 C 260.477 -4.41863 -2.76418 0
M  V30 2642 C 257.805 -5.21745 -2.68327 0
M  V30 2643 C 260.157 -5.7632 -2.60841 0
M  V30 2644 C 258.821 -6.16354 -2.56251 0
M  V30 2645 H 258.091 -0.437025 -0.598406 0
M  V30 2646 H 260.738 -1.61635 -1.02696 0
M  V30 2647 H 259.043 -1.47429 -3.63004 0
M  V30 2648 H 260.74 -1.85808 -3.55354 0
M  V30 2649 H 257.33 -3.14182 -2.91527 0
M  V30 2650 H 261.514 -4.11285 -2.77775 0
M  V30 2651 H 256.77 -5.51853 -2.63189 0
M  V30 2652 H 260.944 -6.49772 -2.50538 0
M  V30 2653 H 258.571 -7.20401 -2.42748 0
M  V30 2654 N 260.146 1.09593 -1.13257 0
M  V30 2655 C 261.094 2.18271 -0.803783 0
M  V30 2656 C 262.088 1.68054 0.213148 0
M  V30 2657 O 263.294 1.79862 0.0704699 0
M  V30 2658 H 259.669 0.711949 -0.242143 0
M  V30 2659 H 261.64 2.43235 -1.72856 0
M  V30 2660 C 260.389 3.46536 -0.28424 0
M  V30 2661 H 259.712 3.85545 -1.05807 0
M  V30 2662 H 261.152 4.23899 -0.0925945 0
M  V30 2663 C 259.611 3.22036 0.989684 0
M  V30 2664 O 260.141 3.44509 2.06584 0
M  V30 2665 N 258.347 2.7565 0.920086 0
M  V30 2666 H 257.894 2.57562 0.0442019 0
M  V30 2667 H 257.852 2.59635 1.77306 0
M  V30 2668 N 261.624 0.925811 1.2754 0
M  V30 2669 C 262.557 0.367836 2.25216 0
M  V30 2670 C 263.535 -0.534738 1.53556 0
M  V30 2671 O 264.719 -0.475672 1.824 0
M  V30 2672 C 261.846 -0.47298 3.35381 0
M  V30 2673 C 260.892 0.365898 4.24928 0
M  V30 2674 S 261.725 1.78025 5.05042 0
M  V30 2675 C 262.881 0.947068 6.18693 0
M  V30 2676 H 263.114 1.19568 2.72196 0
M  V30 2677 H 260.647 0.727867 1.36167 0
M  V30 2678 H 262.605 -0.952242 3.99303 0
M  V30 2679 H 261.266 -1.27533 2.87044 0
M  V30 2680 H 260.459 -0.277582 5.03235 0
M  V30 2681 H 260.061 0.779261 3.65792 0
M  V30 2682 H 262.353 0.182201 6.77255 0
M  V30 2683 H 263.296 1.70309 6.87314 0
M  V30 2684 H 263.704 0.489913 5.6237 0
M  V30 2685 N 263.102 -1.41638 0.69111 0
M  V30 2686 C 264.518 -1.55435 0.362224 0
M  V30 2687 C 264.718 -1.66754 -1.13117 0
M  V30 2688 O 263.774 -1.64348 -1.91692 0
M  V30 2689 C 265.087 -2.79588 1.10684 0
M  V30 2690 C 266.635 -2.9338 1.09075 0
M  V30 2691 C 267.11 -4.20414 1.81703 0
M  V30 2692 N 268.601 -4.27362 1.7865 0
M  V30 2693 C 269.336 -5.24507 2.31689 0
M  V30 2694 N 268.832 -6.27708 2.93179 0
M  V30 2695 N 270.625 -5.16416 2.2197 0
M  V30 2696 H 262.776 -1.32536 1.65976 0
M  V30 2697 H 265.039 -0.639115 0.700168 0
M  V30 2698 H 264.745 -2.77419 2.16175 0
M  V30 2699 H 264.619 -3.70973 0.682545 0
M  V30 2700 H 267.006 -2.95067 0.0441238 0
M  V30 2701 H 267.087 -2.0318 1.55407 0
M  V30 2702 H 266.731 -4.19488 2.86343 0
M  V30 2703 H 266.661 -5.09578 1.32808 0
M  V30 2704 H 269.152 -3.53415 1.33815 0
M  V30 2705 H 269.465 -6.98217 3.31229 0
M  V30 2706 H 267.81 -6.28223 2.97255 0
M  V30 2707 H 271.001 -4.34716 1.73607 0
M  V30 2708 H 271.174 -5.91958 2.63609 0
M  V30 2709 N 264.58 -0.43555 -1.51462 0
M  V30 2710 C 265.996 -0.0877501 -1.59359 0
M  V30 2711 C 266.196 1.4027 -1.4466 0
M  V30 2712 O 265.252 2.17243 -1.28693 0
M  V30 2713 C 266.565 -0.606264 -2.94525 0
M  V30 2714 C 268.113 -0.566548 -3.0783 0
M  V30 2715 C 268.588 -1.06201 -4.45517 0
M  V30 2716 N 270.079 -1.01992 -4.51832 0
M  V30 2717 C 270.814 -1.37417 -5.5669 0
M  V30 2718 N 270.31 -1.80119 -6.68976 0
M  V30 2719 N 272.103 -1.29245 -5.47039 0
M  V30 2720 H 264.254 -1.40533 -1.59261 0
M  V30 2721 H 266.517 -0.578992 -0.750648 0
M  V30 2722 H 266.223 -1.64901 -3.10645 0
M  V30 2723 H 266.097 -0.0302097 -3.77188 0
M  V30 2724 H 268.484 0.467208 -2.91378 0
M  V30 2725 H 268.565 -1.17898 -2.2701 0
M  V30 2726 H 268.209 -2.09422 -4.62715 0
M  V30 2727 H 268.139 -0.426127 -5.24873 0
M  V30 2728 H 270.63 -0.706308 -3.71241 0
M  V30 2729 H 270.943 -2.05392 -7.45006 0
M  V30 2730 H 269.288 -1.84044 -6.70189 0
M  V30 2731 H 272.479 -0.957522 -4.58202 0
M  V30 2732 H 272.652 -1.57182 -6.28648 0
M  V30 2733 N 266.058 1.56714 -0.166846 0
M  V30 2734 C 267.283 2.01557 0.488833 0
M  V30 2735 C 267.708 1.0463 1.56314 0
M  V30 2736 O 267.066 0.0251304 1.81283 0
M  V30 2737 C 267.114 3.4503 1.04818 0
M  V30 2738 O 266.218 3.51163 2.16236 0
M  V30 2739 H 265.559 0.653516 0.117526 0
M  V30 2740 H 268.089 2.02818 -0.269421 0
M  V30 2741 H 268.099 3.84243 1.37191 0
M  V30 2742 H 266.774 4.15077 0.261572 0
M  V30 2743 H 265.351 3.23807 1.84942 0
M  V30 2744 N 267.536 -0.106894 1.57237 0
M  V30 2745 C 268.785 -0.811163 1.8467 0
M  V30 2746 C 269.098 -1.80469 0.754342 0
M  V30 2747 O 270.304 -2.55601 0.915439 0
M  V30 2748 C 268.76 -1.49337 3.27454 0
M  V30 2749 C 268.368 -0.540217 4.44731 0
M  V30 2750 C 270.112 -2.18206 3.64124 0
M  V30 2751 C 268.019 -1.22634 5.78545 0
M  V30 2752 H 266.949 -0.306679 0.688813 0
M  V30 2753 H 269.6 -0.0639887 1.83388 0
M  V30 2754 H 267.982 -2.2876 3.23241 0
M  V30 2755 H 269.156 0.221659 4.60267 0
M  V30 2756 H 267.471 0.042146 4.16379 0
M  V30 2757 H 270.068 -2.70253 4.61376 0
M  V30 2758 H 270.411 -2.96562 2.92158 0
M  V30 2759 H 270.944 -1.45658 3.70174 0
M  V30 2760 H 267.683 -0.483832 6.53712 0
M  V30 2761 H 267.203 -1.95993 5.66874 0
M  V30 2762 H 268.882 -1.75615 6.2271 0
M  V30 2763 N 269.014 -1.53014 -0.377408 0
M  V30 2764 C 270.263 -1.67845 -1.11853 0
M  V30 2765 C 270.576 -0.430625 -1.90801 0
M  V30 2766 O 271.782 -0.459261 -2.67587 0
M  V30 2767 C 270.238 -2.96668 -2.03756 0
M  V30 2768 C 269.846 -4.28671 -1.30175 0
M  V30 2769 C 271.59 -3.20865 -2.77932 0
M  V30 2770 C 269.497 -5.48591 -2.20911 0
M  V30 2771 H 268.427 -0.625343 -0.421263 0
M  V30 2772 H 271.078 -1.79514 -0.380409 0
M  V30 2773 H 269.46 -2.78773 -2.8125 0
M  V30 2774 H 270.634 -4.57157 -0.578259 0
M  V30 2775 H 268.949 -4.10825 -0.679108 0
M  V30 2776 H 271.546 -4.07642 -3.46024 0
M  V30 2777 H 271.889 -2.36424 -3.4265 0
M  V30 2778 H 272.422 -3.39379 -2.07525 0
M  V30 2779 H 269.161 -6.35474 -1.6079 0
M  V30 2780 H 268.681 -5.244 -2.91144 0
M  V30 2781 H 270.36 -5.8292 -2.80736 0
M  V30 2782 N 270.492 0.636531 -1.44174 0
M  V30 2783 C 271.72 1.42353 -1.50144 0
M  V30 2784 C 272.135 1.88389 -0.124575 0
M  V30 2785 O 271.492 1.6051 0.868489 0
M  V30 2786 C 271.543 2.64744 -2.46156 0
M  V30 2787 O 271.264 2.20629 -3.7849 0
M  V30 2788 C 272.765 3.57929 -2.61537 0
M  V30 2789 H 269.985 0.436752 -0.5094 0
M  V30 2790 H 272.529 0.778933 -1.89084 0
M  V30 2791 H 270.684 3.25307 -2.10366 0
M  V30 2792 H 271.098 2.99938 -4.30276 0
M  V30 2793 H 272.572 4.40428 -3.32757 0
M  V30 2794 H 273.049 4.06382 -1.66585 0
M  V30 2795 H 273.655 3.03238 -2.98206 0
M  V30 2796 N 271.97 1.30982 0.876444 0
M  V30 2797 C 273.247 1.10942 1.61094 0
M  V30 2798 C 273.627 -0.338223 2.08373 0
M  V30 2799 O 272.975 -1.33122 1.85717 0
M  V30 2800 C 273.185 2.11789 2.77392 0
M  V30 2801 C 274.533 2.43965 3.47514 0
M  V30 2802 O 275.557 2.10166 2.87591 0
M  V30 2803 O 274.416 3.01817 4.55597 0
M  V30 2804 H 271.51 0.42667 0.708436 0
M  V30 2805 H 274.056 1.42438 0.922474 0
M  V30 2806 H 272.828 3.09194 2.39823 0
M  V30 2807 H 272.451 1.81161 3.5393 0
M  V30 2808 N 273.449 -1.08991 1.13837 0
M  V30 2809 C 274.359 -2.19301 0.833333 0
M  V30 2810 C 275.375 -1.73026 -0.183847 0
M  V30 2811 O 276.551 -2.01395 -0.0138092 0
M  V30 2812 C 273.616 -3.45323 0.308651 0
M  V30 2813 C 272.677 -4.06255 1.38764 0
M  V30 2814 C 271.91 -5.26262 0.887896 0
M  V30 2815 O 272.133 -5.69747 -0.27287 0
M  V30 2816 O 271.067 -5.78435 1.66421 0
M  V30 2817 H 274.893 -2.47854 1.75506 0
M  V30 2818 H 272.478 -1.18012 0.916166 0
M  V30 2819 H 274.36 -4.21394 0.0216739 0
M  V30 2820 H 273.035 -3.18362 -0.585431 0
M  V30 2821 H 271.942 -3.318 1.72799 0
M  V30 2822 H 273.275 -4.37452 2.25602 0
M  V30 2823 N 274.927 -0.932562 -1.27047 0
M  V30 2824 C 275.875 -0.42603 -2.28665 0
M  V30 2825 C 276.869 0.49219 -1.62092 0
M  V30 2826 O 278.075 0.371355 -1.76128 0
M  V30 2827 H 274.45 -0.119213 -0.742491 0
M  V30 2828 H 276.421 -1.29579 -2.68797 0
M  V30 2829 C 275.17 0.301426 -3.46391 0
M  V30 2830 H 274.493 -0.39595 -3.97834 0
M  V30 2831 H 275.933 0.6202 -4.1944 0
M  V30 2832 C 274.392 1.51616 -3.00856 0
M  V30 2833 O 274.922 2.61476 -3.04948 0
M  V30 2834 N 273.128 1.36969 -2.56296 0
M  V30 2835 H 272.675 0.475873 -2.53166 0
M  V30 2836 H 272.633 2.18368 -2.26192 0
M  V30 2837 N 276.405 1.4127 -0.698611 0
M  V30 2838 C 277.653 2.00782 -0.230409 0
M  V30 2839 C 277.974 1.5562 1.17505 0
M  V30 2840 O 277.244 0.78815 1.79346 0
M  V30 2841 H 275.824 0.742464 -0.0821944 0
M  V30 2842 H 278.486 1.72852 -0.90045 0
M  V30 2843 H 277.582 3.11095 -0.25021 0
M  V30 2844 N 277.883 0.443576 1.51229 0
M  V30 2845 C 278.815 -0.400608 2.25672 0
M  V30 2846 C 279.828 -0.980945 1.29928 0
M  V30 2847 O 281.017 -0.874024 1.55638 0
M  V30 2848 C 278.117 -1.57304 3.00181 0
M  V30 2849 C 277.29 -1.11046 4.23069 0
M  V30 2850 C 276.349 -2.15374 4.80105 0
M  V30 2851 O 275.375 -1.74554 5.41774 0
M  V30 2852 N 276.577 -3.47922 4.64683 0
M  V30 2853 H 279.342 0.23745 2.98758 0
M  V30 2854 H 276.903 0.272809 1.59585 0
M  V30 2855 H 278.895 -2.26733 3.35223 0
M  V30 2856 H 277.465 -2.11632 2.30066 0
M  V30 2857 H 276.685 -0.243019 3.9345 0
M  V30 2858 H 277.973 -0.778888 5.02803 0
M  V30 2859 H 277.371 -3.83815 4.15575 0
M  V30 2860 H 275.928 -4.13228 5.0407 0
M  V30 2861 N 279.361 -1.56624 0.175154 0
M  V30 2862 C 280.591 -2.01082 -0.474283 0
M  V30 2863 C 280.999 -1.05447 -1.57091 0
M  V30 2864 O 280.342 -0.0480595 -1.83637 0
M  V30 2865 C 280.404 -3.41963 -1.10911 0
M  V30 2866 C 280.068 -4.56742 -0.153666 0
M  V30 2867 C 281.065 -5.16076 0.629448 0
M  V30 2868 C 278.75 -5.02277 -0.0483776 0
M  V30 2869 C 280.744 -6.19377 1.50501 0
M  V30 2870 C 278.431 -6.05427 0.830768 0
M  V30 2871 C 279.429 -6.63849 1.60605 0
M  V30 2872 O 279.117 -7.64998 2.47049 0
M  V30 2873 H 278.849 -0.664261 -0.125432 0
M  V30 2874 H 281.403 -2.03549 0.275163 0
M  V30 2875 H 279.633 -3.36422 -1.90676 0
M  V30 2876 H 281.322 -3.70352 -1.66114 0
M  V30 2877 H 282.088 -4.81776 0.558297 0
M  V30 2878 H 277.967 -4.56513 -0.641611 0
M  V30 2879 H 281.511 -6.64906 2.1106 0
M  V30 2880 H 277.408 -6.39151 0.903107 0
M  V30 2881 H 278.176 -7.82336 2.40607 0
M  V30 2882 N 280.839 0.0985539 -1.57292 0
M  V30 2883 C 282.255 0.45267 -1.53046 0
M  V30 2884 C 282.455 1.80713 -0.891342 0
M  V30 2885 O 281.511 2.4785 -0.482375 0
M  V30 2886 C 282.824 0.418341 -2.97776 0
M  V30 2887 C 284.372 0.500443 -3.08973 0
M  V30 2888 C 284.847 0.496297 -4.55303 0
M  V30 2889 N 286.338 0.557151 -4.59837 0
M  V30 2890 C 287.073 0.575726 -5.70502 0
M  V30 2891 N 286.569 0.550714 -6.90608 0
M  V30 2892 N 288.362 0.620277 -5.58667 0
M  V30 2893 H 280.513 -0.788673 -1.97215 0
M  V30 2894 H 282.776 -0.293188 -0.901524 0
M  V30 2895 H 282.482 -0.509659 -3.47988 0
M  V30 2896 H 282.356 1.2386 -3.56284 0
M  V30 2897 H 284.743 1.41886 -2.58751 0
M  V30 2898 H 284.824 -0.347894 -2.53423 0
M  V30 2899 H 284.468 -0.418162 -5.06176 0
M  V30 2900 H 284.398 1.3618 -5.08687 0
M  V30 2901 H 286.889 0.581816 -3.73394 0
M  V30 2902 H 287.202 0.568075 -7.70709 0
M  V30 2903 H 285.547 0.517816 -6.93068 0
M  V30 2904 H 288.738 0.637322 -4.63741 0
M  V30 2905 H 288.911 0.631283 -6.44918 0
M  V30 2906 N 282.317 1.53212 0.369288 0
M  V30 2907 C 283.563 1.69466 1.11397 0
M  V30 2908 C 283.896 0.443257 1.89074 0
M  V30 2909 O 283.171 -0.559386 1.86282 0
M  V30 2910 C 283.454 2.9422 2.07621 0
M  V30 2911 C 283.307 4.29508 1.33577 0
M  V30 2912 C 284.626 3.14565 3.07794 0
M  V30 2913 H 281.745 0.616667 0.403597 0
M  V30 2914 H 284.387 1.85845 0.395179 0
M  V30 2915 H 282.537 2.80387 2.68916 0
M  V30 2916 H 284.209 4.55147 0.750955 0
M  V30 2917 H 282.452 4.29088 0.637618 0
M  V30 2918 H 283.123 5.12926 2.03989 0
M  V30 2919 H 285.599 3.2756 2.56601 0
M  V30 2920 H 284.475 4.03297 3.72348 0
M  V30 2921 H 284.736 2.29675 3.77759 0
M  V30 2922 N 283.795 -0.628877 1.44509 0
M  V30 2923 C 285.211 -0.947305 1.28446 0
M  V30 2924 C 285.411 -2.00275 0.221872 0
M  V30 2925 O 284.467 -2.49447 -0.391471 0
M  V30 2926 C 285.78 -1.40843 2.65676 0
M  V30 2927 C 287.328 -1.52379 2.73404 0
M  V30 2928 C 287.803 -2.01875 4.11109 0
M  V30 2929 N 289.294 -2.09142 4.13296 0
M  V30 2930 C 290.029 -2.48615 5.16699 0
M  V30 2931 N 289.525 -2.87209 6.30462 0
M  V30 2932 N 291.318 -2.48768 5.04054 0
M  V30 2933 H 283.469 0.0690977 2.12288 0
M  V30 2934 H 285.732 -0.0317164 0.947469 0
M  V30 2935 H 285.438 -0.707206 3.44516 0
M  V30 2936 H 285.312 -2.37902 2.92716 0
M  V30 2937 H 287.699 -2.21598 1.9488 0
M  V30 2938 H 287.78 -0.536898 2.50102 0
M  V30 2939 H 287.424 -1.3325 4.90109 0
M  V30 2940 H 287.354 -3.0144 4.31789 0
M  V30 2941 H 289.845 -1.81991 3.31191 0
M  V30 2942 H 290.158 -3.16149 7.05174 0
M  V30 2943 H 288.503 -2.84955 6.33897 0
M  V30 2944 H 291.694 -2.18009 4.14234 0
M  V30 2945 H 291.867 -2.79207 5.84763 0
M  V30 2946 N 285.273 -1.31445 -0.869486 0
M  V30 2947 C 286.501 -1.24122 -1.65534 0
M  V30 2948 C 286.916 0.193387 -1.87807 0
M  V30 2949 O 286.273 1.12557 -1.43656 0
M  V30 2950 C 286.324 -1.98229 -3.02304 0
M  V30 2951 O 286.045 -3.3609 -2.81026 0
M  V30 2952 C 287.546 -1.97751 -3.96749 0
M  V30 2953 H 284.766 -0.428868 -0.516055 0
M  V30 2954 H 287.31 -1.73328 -1.08525 0
M  V30 2955 H 285.465 -1.52782 -3.56001 0
M  V30 2956 H 285.879 -3.7383 -3.67902 0
M  V30 2957 H 287.353 -2.54114 -4.90031 0
M  V30 2958 H 287.83 -0.960137 -4.28577 0
M  V30 2959 H 288.436 -2.43079 -3.48988 0
M  V30 2960 N 286.751 1.08385 -1.14413 0
M  V30 2961 C 288 1.80153 -0.907076 0
M  V30 2962 C 288.313 1.87176 0.567851 0
M  V30 2963 O 289.519 2.55359 0.922172 0
M  V30 2964 C 287.975 3.23687 -1.57336 0
M  V30 2965 C 287.583 3.24897 -3.08457 0
M  V30 2966 C 289.327 4.00136 -1.41744 0
M  V30 2967 C 287.234 4.6302 -3.67921 0
M  V30 2968 H 286.164 0.675139 -0.335714 0
M  V30 2969 H 288.815 1.21733 -1.37307 0
M  V30 2970 H 287.197 3.82234 -1.03505 0
M  V30 2971 H 288.371 2.76055 -3.68958 0
M  V30 2972 H 286.686 2.61943 -3.2369 0
M  V30 2973 H 289.283 5.02201 -1.83572 0
M  V30 2974 H 289.626 4.14709 -0.363576 0
M  V30 2975 H 290.159 3.48058 -1.92614 0
M  V30 2976 H 286.898 4.5365 -4.73161 0
M  V30 2977 H 286.418 5.12143 -3.12201 0
M  V30 2978 H 288.097 5.31994 -3.68227 0
M  V30 2979 N 288.23 0.939286 1.26551 0
M  V30 2980 C 289.16 0.465044 2.28822 0
M  V30 2981 C 290.141 -0.480692 1.63167 0
M  V30 2982 O 291.326 -0.382955 1.90387 0
M  V30 2983 C 288.456 -0.27234 3.46231 0
M  V30 2984 C 287.41 0.58666 4.2396 0
M  V30 2985 C 286.736 -0.280573 5.33963 0
M  V30 2986 C 288.036 1.85704 4.88171 0
M  V30 2987 H 289.73 1.31979 2.68741 0
M  V30 2988 H 287.276 0.636061 1.29191 0
M  V30 2989 H 289.229 -0.615133 4.16886 0
M  V30 2990 H 287.953 -1.16121 3.0526 0
M  V30 2991 H 286.612 0.91232 3.55067 0
M  V30 2992 H 286.26 -1.16874 4.89234 0
M  V30 2993 H 285.96 0.29076 5.8688 0
M  V30 2994 H 287.484 -0.618678 6.07458 0
M  V30 2995 H 288.898 1.58161 5.51052 0
M  V30 2996 H 287.295 2.37279 5.51197 0
M  V30 2997 H 288.365 2.56957 4.11219 0
M  V30 2998 N 289.708 -1.40897 0.706093 0
M  V30 2999 C 291.119 -1.84023 0.315052 0
M  V30 3000 C 291.47 -1.5906 -1.14866 0
M  V30 3001 O 290.595 -1.06651 -1.88293 0
M  V30 3002 C 291.19 -3.34055 0.565038 0
M  V30 3003 C 289.749 -3.7571 0.227806 0
M  V30 3004 C 288.896 -2.64204 0.842122 0
M  V30 3005 H 291.847 -1.303 0.905963 0
M  V30 3006 H 291.868 -3.80107 -0.172843 0
M  V30 3007 H 291.38 -3.52192 1.63042 0
M  V30 3008 H 289.481 -3.63172 -0.832895 0
M  V30 3009 H 289.594 -4.74103 0.690174 0
M  V30 3010 H 287.958 -2.53255 0.270893 0
M  V30 3011 H 288.741 -2.85155 1.91158 0
M  V30 3012 N 291.186 -0.45159 -1.50991 0
M  V30 3013 C 292.149 0.341117 -2.26647 0
M  V30 3014 C 293.149 0.937422 -1.30649 0
M  V30 3015 O 294.339 0.809644 -1.54241 0
M  V30 3016 C 291.471 1.48398 -3.06905 0
M  V30 3017 H 292.664 -0.322117 -2.98165 0
M  V30 3018 H 290.217 -0.205122 -1.54948 0
M  V30 3019 H 290.952 2.18284 -2.39838 0
M  V30 3020 H 290.737 1.06241 -3.77432 0
M  V30 3021 H 292.227 2.04367 -3.64176 0
M  V30 3022 N 292.664 1.56529 -0.183458 0
M  V30 3023 C 293.912 1.96855 0.457452 0
M  V30 3024 C 294.233 1.07104 1.62953 0
M  V30 3025 O 293.503 0.139887 1.954 0
M  V30 3026 H 292.083 0.72693 0.171992 0
M  V30 3027 H 294.745 1.93056 -0.267476 0
M  V30 3028 H 293.841 3.01423 0.809368 0
M  V30 3029 N 294.142 -0.090211 1.57342 0
M  V30 3030 C 295.372 -0.805055 1.90269 0
M  V30 3031 C 295.78 -1.72561 0.775842 0
M  V30 3032 O 295.123 -1.81839 -0.260843 0
M  V30 3033 C 295.185 -1.66734 3.18497 0
M  V30 3034 C 294.849 -0.918092 4.47683 0
M  V30 3035 C 295.846 -0.245674 5.19319 0
M  V30 3036 C 293.531 -0.890724 4.94339 0
M  V30 3037 C 295.525 0.444088 6.35851 0
M  V30 3038 C 293.212 -0.197179 6.10782 0
M  V30 3039 C 294.21 0.469044 6.81388 0
M  V30 3040 O 293.898 1.15146 7.95611 0
M  V30 3041 H 293.63 -0.235143 0.633785 0
M  V30 3042 H 296.184 -0.0703805 2.05279 0
M  V30 3043 H 294.414 -2.44437 2.99646 0
M  V30 3044 H 296.103 -2.25919 3.37217 0
M  V30 3045 H 296.869 -0.258246 4.84312 0
M  V30 3046 H 292.748 -1.39873 4.39268 0
M  V30 3047 H 296.292 0.964667 6.90898 0
M  V30 3048 H 292.189 -0.18247 6.45242 0
M  V30 3049 H 292.957 1.05885 8.11622 0
M  V30 3050 N 295.62 -1.53406 -0.361157 0
M  V30 3051 C 296.868 -1.69467 -1.10115 0
M  V30 3052 C 297.189 -0.451352 -1.89705 0
M  V30 3053 O 296.459 0.534636 -1.88463 0
M  V30 3054 H 295.039 -0.624749 -0.409508 0
M  V30 3055 H 297.701 -1.90609 -0.406699 0
M  V30 3056 H 296.797 -2.55774 -1.78847 0
M  V30 3057 N 297.098 0.621204 -1.44841 0
M  V30 3058 C 298.338 1.39201 -1.49674 0
M  V30 3059 C 298.702 1.91561 -0.129764 0
M  V30 3060 O 299.903 2.68748 -0.0527814 0
M  V30 3061 C 298.174 2.519 -2.53537 0
M  V30 3062 S 299.733 3.39916 -2.77494 0
M  V30 3063 H 296.551 0.474758 -0.529269 0
M  V30 3064 H 299.153 0.718171 -1.81831 0
M  V30 3065 H 297.857 2.11761 -3.51547 0
M  V30 3066 H 297.388 3.241 -2.22986 0
M  V30 3067 H 299.403 4.49646 -2.0984 0
M  V30 3068 N 298.576 1.31904 0.862503 0
M  V30 3069 C 299.987 1.19803 1.43193 0
M  V30 3070 C 300.338 -0.192567 1.95253 0
M  V30 3071 O 299.463 -1.09081 1.86896 0
M  V30 3072 C 300.058 2.16883 2.60283 0
M  V30 3073 C 298.617 2.08692 3.13248 0
M  V30 3074 C 297.764 2.05691 1.85975 0
M  V30 3075 H 300.715 1.43846 0.670365 0
M  V30 3076 H 300.736 1.76278 3.37204 0
M  V30 3077 H 300.248 3.18083 2.22363 0
M  V30 3078 H 298.349 1.10713 3.55771 0
M  V30 3079 H 298.462 2.9815 3.75025 0
M  V30 3080 H 296.826 1.50814 2.05249 0
M  V30 3081 H 297.609 3.08659 1.50282 0
M  V30 3082 N 300.054 -1.07777 1.14986 0
M  V30 3083 C 301.465 -1.61766 0.932127 0
M  V30 3084 C 301.816 -1.88974 -0.527581 0
M  V30 3085 O 300.941 -1.65198 -1.39781 0
M  V30 3086 C 301.536 -2.93891 1.68563 0
M  V30 3087 C 300.095 -3.44639 1.5133 0
M  V30 3088 C 299.242 -2.18767 1.704 0
M  V30 3089 H 302.193 -0.909201 1.30074 0
M  V30 3090 H 302.214 -3.62623 1.15259 0
M  V30 3091 H 301.726 -2.74057 2.74799 0
M  V30 3092 H 299.827 -3.69564 0.474702 0
M  V30 3093 H 299.94 -4.20966 2.28746 0
M  V30 3094 H 298.304 -2.28253 1.13016 0
M  V30 3095 H 299.087 -2.01433 2.77992 0
M  V30 3096 N 301.532 -0.945985 -1.26051 0
M  V30 3097 C 302.442 -0.465633 -2.29933 0
M  V30 3098 C 303.458 0.462761 -1.67733 0
M  V30 3099 O 304.634 0.341118 -1.9849 0
M  V30 3100 C 301.699 0.256994 -3.45746 0
M  V30 3101 C 300.76 -0.708549 -4.23412 0
M  V30 3102 C 299.993 -0.0203135 -5.33696 0
M  V30 3103 O 300.216 1.19571 -5.57726 0
M  V30 3104 O 299.15 -0.701459 -5.97799 0
M  V30 3105 H 302.976 -1.32866 -2.73094 0
M  V30 3106 H 300.561 -0.712071 -1.31339 0
M  V30 3107 H 302.443 0.663852 -4.16138 0
M  V30 3108 H 301.118 1.09533 -3.04605 0
M  V30 3109 H 300.025 -1.16545 -3.55483 0
M  V30 3110 H 301.358 -1.51465 -4.68315 0
M  V30 3111 N 303.011 1.40521 -0.713556 0
M  V30 3112 C 304.259 2.00527 -0.251692 0
M  V30 3113 C 304.58 1.56857 1.15848 0
M  V30 3114 O 303.85 0.807127 1.785 0
M  V30 3115 H 302.43 0.741551 -0.0900646 0
M  V30 3116 H 305.092 1.71887 -0.918733 0
M  V30 3117 H 304.188 3.10813 -0.283192 0
M  V30 3118 N 304.489 0.459591 1.5075 0
M  V30 3119 C 305.9 0.00171547 1.867 0
M  V30 3120 C 306.251 -1.39934 1.37525 0
M  V30 3121 O 305.376 -2.03523 0.735349 0
M  V30 3122 C 305.971 -0.00366298 3.388 0
M  V30 3123 C 304.53 -0.406026 3.74204 0
M  V30 3124 C 303.677 0.38673 2.7459 0
M  V30 3125 H 306.628 0.674413 1.43657 0
M  V30 3126 H 306.649 -0.808371 3.71814 0
M  V30 3127 H 306.161 1.01617 3.74561 0
M  V30 3128 H 304.262 -1.43063 3.4404 0
M  V30 3129 H 304.375 -0.115362 4.78961 0
M  V30 3130 H 302.739 -0.158019 2.54209 0
M  V30 3131 H 303.522 1.40585 3.13194 0
M  V30 3132 N 305.967 -1.56429 0.191757 0
M  V30 3133 C 307.195 -2.01867 -0.453586 0
M  V30 3134 C 307.61 -1.07191 -1.5542 0
M  V30 3135 O 306.967 -0.0762108 -1.82341 0
M  V30 3136 C 307.018 -3.47017 -1.013 0
M  V30 3137 O 306.739 -4.38078 0.0437005 0
M  V30 3138 C 308.24 -4.07956 -1.73456 0
M  V30 3139 H 305.46 -0.661211 -0.114199 0
M  V30 3140 H 308.004 -2.02295 0.299483 0
M  V30 3141 H 306.159 -3.47298 -1.71647 0
M  V30 3142 H 306.573 -5.23178 -0.372212 0
M  V30 3143 H 308.047 -5.1138 -2.07833 0
M  V30 3144 H 308.524 -3.51222 -2.63704 0
M  V30 3145 H 309.13 -4.11437 -1.07702 0
M  V30 3146 N 307.445 0.0818655 -1.57387 0
M  V30 3147 C 308.377 1.12484 -1.997 0
M  V30 3148 C 309.39 1.35564 -0.90146 0
M  V30 3149 O 310.579 1.33982 -1.17945 0
M  V30 3150 C 307.679 2.47778 -2.31213 0
M  V30 3151 C 306.852 2.44793 -3.62485 0
M  V30 3152 C 305.911 3.62117 -3.81782 0
M  V30 3153 O 304.937 3.44005 -4.53486 0
M  V30 3154 N 306.139 4.82094 -3.23367 0
M  V30 3155 H 308.904 0.764585 -2.89783 0
M  V30 3156 H 306.465 0.270664 -1.59621 0
M  V30 3157 H 308.457 3.24891 -2.41304 0
M  V30 3158 H 307.027 2.75843 -1.4707 0
M  V30 3159 H 306.247 1.53134 -3.6324 0
M  V30 3160 H 307.535 2.39889 -4.48699 0
M  V30 3161 H 306.933 4.99713 -2.65148 0
M  V30 3162 H 305.49 5.56753 -3.38923 0
M  V30 3163 N 308.923 1.53595 0.353017 0
M  V30 3164 C 309.855 1.77219 1.45348 0
M  V30 3165 C 310.868 0.65324 1.49119 0
M  V30 3166 O 312.057 0.929775 1.52373 0
M  V30 3167 C 309.157 1.84841 2.84055 0
M  V30 3168 C 308.33 3.14649 3.03833 0
M  V30 3169 C 307.389 3.13351 4.22727 0
M  V30 3170 O 306.415 3.87107 4.17297 0
M  V30 3171 N 307.617 2.35052 5.30783 0
M  V30 3172 H 310.382 2.72178 1.25457 0
M  V30 3173 H 307.943 1.52528 0.542833 0
M  V30 3174 H 309.935 1.81435 3.61751 0
M  V30 3175 H 308.505 0.971114 2.97133 0
M  V30 3176 H 307.725 3.31256 2.13689 0
M  V30 3177 H 309.013 4.00411 3.13925 0
M  V30 3178 H 308.411 1.74663 5.38061 0
M  V30 3179 H 306.968 2.37453 6.07009 0
M  V30 3180 N 310.401 -0.613514 1.45168 0
M  V30 3181 C 311.331 -1.7354 1.56225 0
M  V30 3182 C 312.312 -1.64981 0.41414 0
M  V30 3183 O 313.497 -1.83472 0.636526 0
M  V30 3184 C 310.627 -3.12128 1.52295 0
M  V30 3185 C 309.581 -3.35491 2.65762 0
M  V30 3186 C 308.907 -4.74291 2.46885 0
M  V30 3187 C 310.207 -3.26325 4.0781 0
M  V30 3188 H 311.901 -1.64543 2.50132 0
M  V30 3189 H 309.447 -0.790185 1.20383 0
M  V30 3190 H 311.4 -3.90404 1.58628 0
M  V30 3191 H 310.124 -3.2195 0.549139 0
M  V30 3192 H 308.783 -2.59603 2.58847 0
M  V30 3193 H 308.431 -4.80839 1.47657 0
M  V30 3194 H 308.131 -4.9088 3.22972 0
M  V30 3195 H 309.655 -5.54775 2.55063 0
M  V30 3196 H 311.069 -3.94483 4.16 0
M  V30 3197 H 309.466 -3.54445 4.8424 0
M  V30 3198 H 310.536 -2.23855 4.30136 0
M  V30 3199 N 311.879 -1.3236 -0.855495 0
M  V30 3200 C 312.809 -1.23833 -1.97958 0
M  V30 3201 C 313.79 -0.122361 -1.69659 0
M  V30 3202 O 314.975 -0.30939 -1.9172 0
M  V30 3203 C 312.105 -0.959772 -3.33775 0
M  V30 3204 C 311.059 -2.03689 -3.76424 0
M  V30 3205 C 310.385 -1.61075 -5.09862 0
M  V30 3206 C 311.685 -3.4518 -3.9198 0
M  V30 3207 H 313.379 -2.1788 -2.0535 0
M  V30 3208 H 310.925 -1.04891 -0.986605 0
M  V30 3209 H 312.878 -0.886678 -4.11966 0
M  V30 3210 H 311.602 0.0163404 -3.26596 0
M  V30 3211 H 310.261 -2.10012 -3.00484 0
M  V30 3212 H 309.909 -0.622107 -4.99138 0
M  V30 3213 H 309.609 -2.33143 -5.39368 0
M  V30 3214 H 311.133 -1.55201 -5.90546 0
M  V30 3215 H 312.547 -3.4145 -4.60526 0
M  V30 3216 H 310.944 -4.1559 -4.32903 0
M  V30 3217 H 312.014 -3.84903 -2.94919 0
M  V30 3218 N 313.357 1.07166 -1.15556 0
M  V30 3219 C 314.305 2.16517 -0.8499 0
M  V30 3220 C 315.299 1.68468 0.177454 0
M  V30 3221 O 316.505 1.79971 0.0323026 0
M  V30 3222 H 312.88 0.706652 -0.25719 0
M  V30 3223 H 314.851 2.39514 -1.77976 0
M  V30 3224 C 313.6 3.45855 -0.357682 0
M  V30 3225 H 312.923 3.83214 -1.13961 0
M  V30 3226 H 314.363 4.23607 -0.182489 0
M  V30 3227 C 312.822 3.24062 0.921152 0
M  V30 3228 O 313.352 3.48813 1.9923 0
M  V30 3229 N 311.558 2.77539 0.86141 0
M  V30 3230 H 311.105 2.57598 -0.0104408 0
M  V30 3231 H 311.063 2.63337 1.71758 0
M  V30 3232 N 314.835 0.952656 1.25548 0
M  V30 3233 C 315.767 0.428609 2.25157 0
M  V30 3234 C 316.78 -0.454428 1.56329 0
M  V30 3235 O 317.969 -0.263023 1.76552 0
M  V30 3236 C 315.069 -0.401972 3.36508 0
M  V30 3237 C 314.242 0.467601 4.34893 0
M  V30 3238 C 313.301 -0.30445 5.25319 0
M  V30 3239 O 312.327 0.296473 5.68427 0
M  V30 3240 N 313.529 -1.59805 5.5807 0
M  V30 3241 H 316.294 1.28497 2.70756 0
M  V30 3242 H 313.855 0.822798 1.39433 0
M  V30 3243 H 315.847 -0.926134 3.9396 0
M  V30 3244 H 314.417 -1.15918 2.90313 0
M  V30 3245 H 313.637 1.17288 3.76347 0
M  V30 3246 H 314.925 1.06119 4.97611 0
M  V30 3247 H 314.323 -2.10823 5.24948 0
M  V30 3248 H 312.88 -2.06822 6.18116 0
M  V30 3249 N 316.313 -1.40141 0.720998 0
M  V30 3250 C 317.243 -2.33339 0.0867621 0
M  V30 3251 C 318.224 -1.53178 -0.739622 0
M  V30 3252 O 319.409 -1.81625 -0.687449 0
M  V30 3253 C 316.539 -3.37194 -0.831728 0
M  V30 3254 C 315.493 -4.27857 -0.110558 0
M  V30 3255 C 314.819 -5.22294 -1.14513 0
M  V30 3256 C 316.119 -5.11872 1.0385 0
M  V30 3257 H 317.813 -2.86626 0.865219 0
M  V30 3258 H 315.359 -1.37814 0.417516 0
M  V30 3259 H 317.312 -4.01335 -1.28485 0
M  V30 3260 H 316.036 -2.82314 -1.64214 0
M  V30 3261 H 314.695 -3.65176 0.322797 0
M  V30 3262 H 314.343 -4.63717 -1.94874 0
M  V30 3263 H 314.043 -5.83797 -0.667446 0
M  V30 3264 H 315.567 -5.89312 -1.59824 0
M  V30 3265 H 316.981 -5.69436 0.664482 0
M  V30 3266 H 315.378 -5.82445 1.4449 0
M  V30 3267 H 316.448 -4.4753 1.86668 0
M  V30 3268 N 317.792 -0.46758 -1.50504 0
M  V30 3269 C 319.04 0.0884469 -2.01906 0
M  V30 3270 C 319.361 1.40532 -1.35188 0
M  V30 3271 O 318.631 1.89515 -0.496079 0
M  V30 3272 H 317.211 0.0356765 -0.746148 0
M  V30 3273 H 319.873 -0.6172 -1.84869 0
M  V30 3274 H 318.969 0.2425 -3.11156 0
M  V30 3275 N 319.27 1.56325 -0.20005 0
M  V30 3276 C 320.686 1.58839 0.155716 0
M  V30 3277 C 320.886 1.21636 1.60645 0
M  V30 3278 O 319.942 0.941437 2.34293 0
M  V30 3279 C 321.255 3.0032 -0.151124 0
M  V30 3280 C 322.803 3.12866 -0.0916284 0
M  V30 3281 C 323.278 4.56488 -0.371845 0
M  V30 3282 N 324.769 4.62089 -0.320641 0
M  V30 3283 C 325.504 5.71116 -0.511243 0
M  V30 3284 N 325 6.88592 -0.762461 0
M  V30 3285 N 326.793 5.60335 -0.445157 0
M  V30 3286 H 318.944 1.78788 -1.14668 0
M  V30 3287 H 321.207 0.829996 -0.458051 0
M  V30 3288 H 320.913 3.32117 -1.15721 0
M  V30 3289 H 320.787 3.73257 0.543986 0
M  V30 3290 H 323.174 2.80878 0.905065 0
M  V30 3291 H 323.255 2.42304 -0.81989 0
M  V30 3292 H 322.899 4.89189 -1.36588 0
M  V30 3293 H 322.829 5.25246 0.377362 0
M  V30 3294 H 325.32 3.77665 -0.13329 0
M  V30 3295 H 325.633 7.67581 -0.896576 0
M  V30 3296 H 323.978 6.90387 -0.799412 0
M  V30 3297 H 327.169 4.67436 -0.249278 0
M  V30 3298 H 327.342 6.45243 -0.597116 0
M  V30 3299 N 320.748 -0.0735177 1.57428 0
M  V30 3300 C 321.698 -1.09442 2.00016 0
M  V30 3301 C 322.682 -1.34575 0.881947 0
M  V30 3302 O 323.874 -1.34905 1.14585 0
M  V30 3303 C 321.003 -2.40865 2.4462 0
M  V30 3304 C 320.089 -2.19014 3.63172 0
M  V30 3305 N 320.48 -1.67087 4.77405 0
M  V30 3306 C 318.778 -2.49494 3.69688 0
M  V30 3307 C 319.479 -1.6001 5.5926 0
M  V30 3308 N 318.455 -2.05999 5.03056 0
M  V30 3309 H 322.257 -0.686227 2.85776 0
M  V30 3310 H 319.771 -0.280617 1.59957 0
M  V30 3311 H 321.768 -3.14763 2.73368 0
M  V30 3312 H 320.428 -2.82403 1.60246 0
M  V30 3313 H 321.439 -1.35975 4.99731 0
M  V30 3314 H 318.116 -2.94409 2.96023 0
M  V30 3315 H 319.506 -1.2073 6.60964 0
M  V30 3316 N 322.226 -1.5378 -0.344866 0
M  V30 3317 C 323.474 -1.70625 -1.08311 0
M  V30 3318 C 323.795 -0.471447 -1.89215 0
M  V30 3319 O 323.065 0.514616 -1.8902 0
M  V30 3320 H 321.645 -0.629058 -0.402859 0
M  V30 3321 H 324.307 -1.9103 -0.386459 0
M  V30 3322 H 323.403 -2.57656 -1.76124 0
M  V30 3323 N 323.704 0.605807 -1.45491 0
M  V30 3324 C 324.652 1.73754 -1.54636 0
M  V30 3325 C 325.646 1.64207 -0.416219 0
M  V30 3326 O 326.852 1.69979 -0.592199 0
M  V30 3327 H 323.227 0.574073 -0.485741 0
M  V30 3328 H 325.198 1.63169 -2.49837 0
M  V30 3329 C 323.947 3.12135 -1.53189 0
M  V30 3330 H 323.27 3.20141 -2.39478 0
M  V30 3331 H 324.71 3.91147 -1.63645 0
M  V30 3332 C 323.169 3.35921 -0.256616 0
M  V30 3333 O 323.699 3.96194 0.662798 0
M  V30 3334 N 321.905 2.90204 -0.151751 0
M  V30 3335 H 321.452 2.41336 -0.90081 0
M  V30 3336 H 321.41 3.06492 0.700699 0
M  V30 3337 N 325.182 1.32811 0.848464 0
M  V30 3338 C 326.598 1.11937 1.13764 0
M  V30 3339 C 326.798 -0.0960789 2.01271 0
M  V30 3340 O 325.854 -0.779165 2.40178 0
M  V30 3341 C 327.167 2.402 1.809 0
M  V30 3342 C 328.715 2.46016 1.93508 0
M  V30 3343 C 329.19 3.74215 2.64059 0
M  V30 3344 N 330.681 3.75232 2.71579 0
M  V30 3345 C 331.416 4.71134 3.26833 0
M  V30 3346 N 330.912 5.77406 3.8285 0
M  V30 3347 N 332.705 4.58623 3.24995 0
M  V30 3348 H 324.856 2.1073 0.265855 0
M  V30 3349 H 327.119 0.930671 0.180431 0
M  V30 3350 H 326.825 3.29093 1.24058 0
M  V30 3351 H 326.699 2.51628 2.81004 0
M  V30 3352 H 329.086 1.57577 2.49506 0
M  V30 3353 H 329.167 2.38536 0.923811 0
M  V30 3354 H 328.811 4.63031 2.08722 0
M  V30 3355 H 328.741 3.78968 3.65637 0
M  V30 3356 H 331.232 2.98423 2.31845 0
M  V30 3357 H 331.545 6.46632 4.23187 0
M  V30 3358 H 329.89 5.81152 3.81165 0
M  V30 3359 H 333.081 3.74762 2.80484 0
M  V30 3360 H 333.254 5.33535 3.67756 0
M  V30 3361 N 326.66 -1.06551 1.16123 0
M  V30 3362 C 328.071 -1.60768 0.949232 0
M  V30 3363 C 328.422 -1.89523 -0.507508 0
M  V30 3364 O 327.547 -1.66671 -1.38021 0
M  V30 3365 C 328.142 -2.92086 1.71671 0
M  V30 3366 C 326.701 -3.43015 1.54977 0
M  V30 3367 C 325.848 -2.16947 1.72711 0
M  V30 3368 H 328.799 -0.895354 1.31031 0
M  V30 3369 H 328.82 -3.6138 1.19099 0
M  V30 3370 H 328.332 -2.71127 2.7769 0
M  V30 3371 H 326.433 -3.69039 0.513873 0
M  V30 3372 H 326.546 -4.18516 2.33198 0
M  V30 3373 H 324.91 -2.27041 1.15431 0
M  V30 3374 H 325.693 -1.98473 2.80113 0
M  V30 3375 N 328.138 -0.959301 -1.25041 0
M  V30 3376 C 329.101 -0.487677 -2.23952 0
M  V30 3377 C 330.101 0.41119 -1.55454 0
M  V30 3378 O 331.291 0.207825 -1.72956 0
M  V30 3379 C 328.423 0.294807 -3.39623 0
M  V30 3380 H 329.616 -1.36198 -2.67189 0
M  V30 3381 H 327.169 -0.743042 -1.37508 0
M  V30 3382 H 327.904 1.18658 -3.01813 0
M  V30 3383 H 327.689 -0.35012 -3.90534 0
M  V30 3384 H 329.179 0.614089 -4.1306 0
M  V30 3385 N 329.616 1.39756 -0.72842 0
M  V30 3386 C 330.566 2.2792 -0.0603424 0
M  V30 3387 C 331.55 1.43922 0.719399 0
M  V30 3388 O 332.742 1.66895 0.589489 0
M  V30 3389 C 329.871 3.32582 0.851104 0
M  V30 3390 C 328.957 4.24049 0.0658641 0
M  V30 3391 N 329.348 4.96653 -0.957578 0
M  V30 3392 C 327.646 4.45013 0.296509 0
M  V30 3393 C 328.347 5.63836 -1.43052 0
M  V30 3394 N 327.323 5.38397 -0.750315 0
M  V30 3395 H 331.125 2.81504 -0.84455 0
M  V30 3396 H 328.639 1.5236 -0.562155 0
M  V30 3397 H 330.636 3.94603 1.34514 0
M  V30 3398 H 329.296 2.80558 1.63454 0
M  V30 3399 H 330.307 5.00297 -1.33877 0
M  V30 3400 H 326.984 4.03943 1.05527 0
M  V30 3401 H 328.374 6.31974 -2.28163 0
M  V30 3402 N 331.094 0.475555 1.50254 0
M  V30 3403 C 332.343 -0.0795996 2.01543 0
M  V30 3404 C 332.656 -1.4038 1.36209 0
M  V30 3405 O 333.862 -2.04415 1.7868 0
M  V30 3406 C 332.318 -0.192363 3.59386 0
M  V30 3407 C 331.926 1.12367 4.33679 0
M  V30 3408 C 333.67 -0.699238 4.18701 0
M  V30 3409 C 331.577 0.974453 5.83317 0
M  V30 3410 H 330.507 -0.0335228 0.753254 0
M  V30 3411 H 333.158 0.611128 1.73025 0
M  V30 3412 H 331.54 -0.946974 3.84511 0
M  V30 3413 H 332.714 1.88958 4.20276 0
M  V30 3414 H 331.029 1.562 3.85993 0
M  V30 3415 H 333.626 -0.827978 5.28251 0
M  V30 3416 H 333.969 -1.69171 3.80377 0
M  V30 3417 H 334.502 -0.00188807 3.978 0
M  V30 3418 H 331.241 1.94042 6.26121 0
M  V30 3419 H 330.761 0.248998 5.99283 0
M  V30 3420 H 332.44 0.642867 6.43798 0
M  V30 3421 N 332.573 -1.56217 0.208337 0
M  V30 3422 C 333.523 -2.16324 -0.720281 0
M  V30 3423 C 334.507 -1.10775 -1.16695 0
M  V30 3424 O 335.699 -1.36801 -1.12314 0
M  V30 3425 C 332.828 -2.83644 -1.93393 0
M  V30 3426 C 331.914 -3.96401 -1.50755 0
M  V30 3427 N 332.305 -4.99546 -0.792937 0
M  V30 3428 C 330.603 -4.08246 -1.79585 0
M  V30 3429 C 331.304 -5.78828 -0.577364 0
M  V30 3430 N 330.28 -5.31723 -1.1301 0
M  V30 3431 H 334.082 -2.93432 -0.165725 0
M  V30 3432 H 331.596 -1.62397 0.00906463 0
M  V30 3433 H 333.593 -3.25107 -2.60981 0
M  V30 3434 H 332.253 -2.08027 -2.49308 0
M  V30 3435 H 333.264 -5.15967 -0.447004 0
M  V30 3436 H 329.941 -3.4377 -2.36915 0
M  V30 3437 H 331.331 -6.71899 -0.00952956 0
M  V30 3438 N 334.051 0.0651679 -1.57465 0
M  V30 3439 C 335.281 0.774683 -1.91526 0
M  V30 3440 C 335.689 1.71305 -0.803196 0
M  V30 3441 O 335.032 1.82231 0.231881 0
M  V30 3442 C 335.094 1.61645 -3.21109 0
M  V30 3443 C 334.758 0.846753 -4.49087 0
M  V30 3444 C 335.755 0.163024 -5.19644 0
M  V30 3445 C 333.44 0.811966 -4.95694 0
M  V30 3446 C 335.434 -0.54519 -6.35064 0
M  V30 3447 C 333.121 0.0999836 -6.11018 0
M  V30 3448 C 334.119 -0.577388 -6.80555 0
M  V30 3449 O 333.807 -1.27789 -7.93678 0
M  V30 3450 H 333.539 0.225031 -0.637446 0
M  V30 3451 H 336.093 0.0377134 -2.05365 0
M  V30 3452 H 334.323 2.39638 -3.03497 0
M  V30 3453 H 336.012 2.20525 -3.40769 0
M  V30 3454 H 336.778 0.181163 -4.84662 0
M  V30 3455 H 332.657 1.32867 -4.41438 0
M  V30 3456 H 336.201 -1.07446 -6.89276 0
M  V30 3457 H 332.098 0.0797945 -6.45451 0
M  V30 3458 H 332.866 -1.18784 -8.09835 0
M  V30 3459 N 335.529 1.53961 0.336706 0
M  V30 3460 C 336.776 1.71536 1.07618 0
M  V30 3461 C 337.104 0.482125 1.8843 0
M  V30 3462 O 336.359 -0.536142 1.88213 0
M  V30 3463 C 336.658 2.93493 2.03953 0
M  V30 3464 C 336.324 4.28811 1.39399 0
M  V30 3465 C 334.986 4.65602 1.21523 0
M  V30 3466 C 337.338 5.12844 0.929541 0
M  V30 3467 C 334.666 5.84037 0.558312 0
M  V30 3468 C 337.018 6.31951 0.286505 0
M  V30 3469 C 335.682 6.67432 0.0954869 0
M  V30 3470 H 334.952 0.627696 0.393801 0
M  V30 3471 H 337.599 1.88186 0.354715 0
M  V30 3472 H 335.904 2.71475 2.82504 0
M  V30 3473 H 337.601 3.04285 2.61174 0
M  V30 3474 H 334.191 3.99858 1.54311 0
M  V30 3475 H 338.375 4.84947 1.05548 0
M  V30 3476 H 333.631 6.10097 0.398995 0
M  V30 3477 H 337.805 6.96352 -0.0814376 0
M  V30 3478 H 335.432 7.59063 -0.415579 0
M  V30 3479 N 337.007 -0.598083 1.45811 0
M  V30 3480 C 338.253 -1.35882 1.50545 0
M  V30 3481 C 338.586 -1.93616 0.150445 0
M  V30 3482 O 337.861 -1.75604 -0.83628 0
M  V30 3483 C 338.144 -2.49966 2.59208 0
M  V30 3484 C 337.997 -1.97367 4.04186 0
M  V30 3485 C 339.316 -3.52068 2.64076 0
M  V30 3486 H 336.435 -0.492717 0.548087 0
M  V30 3487 H 339.077 -0.673319 1.77669 0
M  V30 3488 H 337.227 -3.08443 2.3621 0
M  V30 3489 H 338.899 -1.43466 4.38423 0
M  V30 3490 H 337.142 -1.283 4.14393 0
M  V30 3491 H 337.813 -2.79649 4.75921 0
M  V30 3492 H 340.289 -3.03448 2.84708 0
M  V30 3493 H 339.165 -4.2937 3.41954 0
M  V30 3494 H 339.426 -4.08304 1.69531 0
M  V30 3495 N 338.485 -1.33259 -0.841409 0
M  V30 3496 C 339.71 -1.2775 -1.63385 0
M  V30 3497 C 340.135 0.149188 -1.87507 0
M  V30 3498 O 339.493 1.10498 -1.43736 0
M  V30 3499 C 339.541 -2.05571 -2.96265 0
M  V30 3500 O 338.645 -1.41257 -3.87453 0
M  V30 3501 H 337.986 -0.439627 -0.497618 0
M  V30 3502 H 340.516 -1.75782 -1.04699 0
M  V30 3503 H 340.526 -2.16241 -3.45982 0
M  V30 3504 H 339.201 -3.09309 -2.7803 0
M  V30 3505 H 337.778 -1.39217 -3.45938 0
M  V30 3506 N 339.963 1.05934 -1.16686 0
M  V30 3507 C 340.926 2.11669 -0.879144 0
M  V30 3508 C 341.926 1.60294 0.127445 0
M  V30 3509 O 343.116 1.7389 -0.103865 0
M  V30 3510 C 340.248 3.39438 -0.315425 0
M  V30 3511 H 341.441 2.38626 -1.81653 0
M  V30 3512 H 338.994 1.22058 -0.976299 0
M  V30 3513 H 339.729 3.18132 0.629468 0
M  V30 3514 H 339.514 3.78034 -1.04079 0
M  V30 3515 H 341.004 4.17391 -0.132189 0
M  V30 3516 N 341.441 0.965919 1.2453 0
M  V30 3517 C 342.718 0.543777 1.87889 0
M  V30 3518 C 343.098 -0.97909 1.87021 0
M  V30 3519 O 342.446 -1.84969 1.3416 0
M  V30 3520 C 342.656 1.13327 3.30088 0
M  V30 3521 C 344.004 1.21707 4.06783 0
M  V30 3522 O 345.028 1.08566 3.39252 0
M  V30 3523 O 343.887 1.42456 5.27606 0
M  V30 3524 H 340.981 0.181054 0.806938 0
M  V30 3525 H 343.527 1.06007 1.32516 0
M  V30 3526 H 342.299 2.17612 3.25209 0
M  V30 3527 H 341.922 0.600911 3.93033 0
M  V30 3528 N 342.919 -1.39368 0.735821 0
M  V30 3529 C 344.167 -2.00101 0.283562 0
M  V30 3530 C 344.488 -1.5868 -1.13338 0
M  V30 3531 O 343.758 -0.835423 -1.77193 0
M  V30 3532 H 342.338 -0.740024 0.101851 0
M  V30 3533 H 345 -1.70404 0.945962 0
M  V30 3534 H 344.096 -3.10323 0.332604 0
M  V30 3535 N 344.397 -0.483516 -1.5 0
M  V30 3536 C 345.347 0.32306 -2.257 0
M  V30 3537 C 346.331 0.950755 -1.29805 0
M  V30 3538 O 347.523 0.861247 -1.54634 0
M  V30 3539 C 344.652 1.39724 -3.13579 0
M  V30 3540 C 343.738 0.776663 -4.16928 0
M  V30 3541 N 344.129 -0.1104 -5.0568 0
M  V30 3542 C 342.427 1.03922 -4.33724 0
M  V30 3543 C 343.128 -0.46387 -5.79848 0
M  V30 3544 N 342.104 0.163987 -5.43353 0
M  V30 3545 H 345.906 -0.360086 -2.91686 0
M  V30 3546 H 343.42 -0.298456 -1.59634 0
M  V30 3547 H 345.417 1.98837 -3.66428 0
M  V30 3548 H 344.077 2.08225 -2.49143 0
M  V30 3549 H 345.088 -0.480069 -5.1567 0
M  V30 3550 H 341.765 1.71829 -3.80501 0
M  V30 3551 H 343.155 -1.18854 -6.61304 0
M  V30 3552 N 345.875 1.56104 -0.216619 0
M  V30 3553 C 347.291 1.58995 0.13886 0
M  V30 3554 C 347.491 1.23333 1.59346 0
M  V30 3555 O 346.547 0.966234 2.33281 0
M  V30 3556 C 347.86 3.00143 -0.182968 0
M  V30 3557 C 349.408 3.12751 -0.124807 0
M  V30 3558 C 349.883 4.56068 -0.420241 0
M  V30 3559 N 351.374 4.61723 -0.369634 0
M  V30 3560 C 352.109 5.70542 -0.571789 0
M  V30 3561 N 351.605 6.87744 -0.835453 0
M  V30 3562 N 353.398 5.59831 -0.504563 0
M  V30 3563 H 345.549 1.77562 -1.16557 0
M  V30 3564 H 347.812 0.825091 -0.466828 0
M  V30 3565 H 347.518 3.30871 -1.19237 0
M  V30 3566 H 347.392 3.73813 0.504367 0
M  V30 3567 H 349.779 2.81822 0.875223 0
M  V30 3568 H 349.86 2.41421 -0.845544 0
M  V30 3569 H 349.504 4.87713 -1.41769 0
M  V30 3570 H 349.434 5.25617 0.321631 0
M  V30 3571 H 351.925 3.77502 -0.173338 0
M  V30 3572 H 352.238 7.66587 -0.977938 0
M  V30 3573 H 350.583 6.895 -0.872592 0
M  V30 3574 H 353.774 4.67145 -0.298842 0
M  V30 3575 H 353.947 6.44573 -0.665519 0
M  V30 3576 N 347.353 -0.0568162 1.57498 0
M  V30 3577 C 348.3 -1.06591 2.04712 0
M  V30 3578 C 349.27 -1.3758 0.930644 0
M  V30 3579 O 350.455 -1.48392 1.19935 0
M  V30 3580 C 347.595 -2.3701 2.50839 0
M  V30 3581 C 346.708 -2.12421 3.76167 0
M  V30 3582 C 345.843 -3.36511 4.11015 0
M  V30 3583 C 344.882 -3.07353 5.2934 0
M  V30 3584 N 344.019 -4.23816 5.59754 0
M  V30 3585 H 348.859 -0.65631 2.90683 0
M  V30 3586 H 346.396 -0.312481 1.43743 0
M  V30 3587 H 348.354 -3.13175 2.7564 0
M  V30 3588 H 346.984 -2.75744 1.67825 0
M  V30 3589 H 346.036 -1.2688 3.58616 0
M  V30 3590 H 347.348 -1.86894 4.62463 0
M  V30 3591 H 346.502 -4.21062 4.36797 0
M  V30 3592 H 345.241 -3.65128 3.23315 0
M  V30 3593 H 344.246 -2.212 5.03339 0
M  V30 3594 H 345.471 -2.80043 6.1867 0
M  V30 3595 H 343.417 -4.52436 4.75014 0
M  V30 3596 H 343.334 -4.01614 6.40501 0
M  V30 3597 H 344.602 -5.0932 5.90096 0
M  V30 3598 N 348.832 -1.54138 -0.328536 0
M  V30 3599 C 349.762 -1.86167 -1.40939 0
M  V30 3600 C 350.743 -0.718044 -1.54202 0
M  V30 3601 O 351.928 -0.971328 -1.68163 0
M  V30 3602 C 349.058 -2.08461 -2.77779 0
M  V30 3603 C 348.012 -3.24299 -2.7931 0
M  V30 3604 C 347.338 -3.31955 -4.19178 0
M  V30 3605 C 348.638 -4.62065 -2.43502 0
M  V30 3606 H 350.332 -2.76689 -1.14383 0
M  V30 3607 H 347.878 -1.33132 -0.548806 0
M  V30 3608 H 349.831 -2.29453 -3.53454 0
M  V30 3609 H 348.555 -1.14684 -3.05802 0
M  V30 3610 H 347.214 -3.03187 -2.0609 0
M  V30 3611 H 346.862 -2.35745 -4.44335 0
M  V30 3612 H 346.562 -4.09805 -4.2111 0
M  V30 3613 H 348.086 -3.55175 -4.96672 0
M  V30 3614 H 349.5 -4.8297 -3.08889 0
M  V30 3615 H 347.897 -5.42429 -2.56693 0
M  V30 3616 H 348.967 -4.64652 -1.38659 0
M  V30 3617 N 350.31 0.590341 -1.46126 0
M  V30 3618 C 351.538 1.37504 -1.54597 0
M  V30 3619 C 351.953 1.87897 -0.184447 0
M  V30 3620 O 351.31 1.63192 0.816984 0
M  V30 3621 C 351.361 2.56779 -2.54454 0
M  V30 3622 O 351.082 2.08476 -3.85317 0
M  V30 3623 C 352.583 3.49427 -2.72792 0
M  V30 3624 H 349.803 0.420325 -0.523037 0
M  V30 3625 H 352.347 0.718383 -1.91467 0
M  V30 3626 H 350.502 3.1845 -2.20609 0
M  V30 3627 H 350.916 2.86097 -4.396 0
M  V30 3628 H 352.39 4.29619 -3.466 0
M  V30 3629 H 352.867 4.00876 -1.79429 0
M  V30 3630 H 353.473 2.93598 -3.07702 0
M  V30 3631 N 351.788 1.33704 0.83433 0
M  V30 3632 C 353.016 1.28467 1.62185 0
M  V30 3633 C 353.431 -0.143526 1.88254 0
M  V30 3634 O 352.788 -1.08709 1.4659 0
M  V30 3635 C 352.839 2.06174 2.96942 0
M  V30 3636 O 352.56 3.43422 2.72016 0
M  V30 3637 C 354.061 2.08201 3.91366 0
M  V30 3638 H 351.281 0.4424 0.504503 0
M  V30 3639 H 353.825 1.76145 1.03891 0
M  V30 3640 H 351.98 1.62167 3.51825 0
M  V30 3641 H 352.394 3.83453 3.57861 0
M  V30 3642 H 353.868 2.67017 4.83121 0
M  V30 3643 H 354.345 1.07343 4.2588 0
M  V30 3644 H 354.951 2.52246 3.42421 0
M  V30 3645 N 353.266 -1.05314 1.17247 0
M  V30 3646 C 354.198 -2.13023 0.845812 0
M  V30 3647 C 355.211 -1.62096 -0.151246 0
M  V30 3648 O 356.4 -1.78343 0.0748818 0
M  V30 3649 C 353.5 -3.38047 0.240292 0
M  V30 3650 C 352.673 -4.18255 1.27991 0
M  V30 3651 C 351.732 -5.21625 0.692375 0
M  V30 3652 O 350.758 -5.52619 1.36385 0
M  V30 3653 N 351.96 -5.78201 -0.516178 0
M  V30 3654 H 354.725 -2.41642 1.77283 0
M  V30 3655 H 352.286 -1.21401 1.07115 0
M  V30 3656 H 354.278 -4.04359 -0.16603 0
M  V30 3657 H 352.848 -3.06972 -0.590487 0
M  V30 3658 H 352.068 -3.47451 1.86203 0
M  V30 3659 H 353.356 -4.68643 1.98119 0
M  V30 3660 H 352.754 -5.55301 -1.07969 0
M  V30 3661 H 351.311 -6.4604 -0.86458 0
M  V30 3662 N 354.744 -0.972509 -1.24016 0
M  V30 3663 C 355.993 -0.632603 -1.91523 0
M  V30 3664 C 356.306 0.836641 -1.76804 0
M  V30 3665 O 357.512 1.28728 -2.39043 0
M  V30 3666 C 355.968 -1.08082 -3.43287 0
M  V30 3667 C 355.576 -2.57386 -3.66683 0
M  V30 3668 C 357.32 -0.814288 -4.16617 0
M  V30 3669 C 355.227 -2.95915 -5.12043 0
M  V30 3670 H 354.157 -0.232898 -0.717129 0
M  V30 3671 H 356.808 -1.17936 -1.40582 0
M  V30 3672 H 355.19 -0.462339 -3.93292 0
M  V30 3673 H 356.364 -3.24405 -3.27258 0
M  V30 3674 H 354.679 -2.81701 -3.06649 0
M  V30 3675 H 357.276 -1.0781 -5.23718 0
M  V30 3676 H 357.619 0.24955 -4.15551 0
M  V30 3677 H 358.152 -1.39397 -3.72577 0
M  V30 3678 H 354.891 -4.0139 -5.18234 0
M  V30 3679 H 354.411 -2.33584 -5.52448 0
M  V30 3680 H 356.09 -2.86086 -5.80314 0
M  V30 3681 N 356.222 1.38976 -0.743202 0
M  V30 3682 C 357.17 2.32394 -0.0978389 0
M  V30 3683 C 358.164 1.53486 0.716824 0
M  V30 3684 O 359.37 1.69092 0.617088 0
M  V30 3685 H 355.745 0.75189 -0.0128402 0
M  V30 3686 H 357.716 2.84441 -0.901981 0
M  V30 3687 C 356.465 3.38629 0.789036 0
M  V30 3688 H 355.788 3.99432 0.171559 0
M  V30 3689 H 357.228 4.06426 1.20807 0
M  V30 3690 C 355.687 2.76347 1.92702 0
M  V30 3691 O 356.217 2.64836 3.02034 0
M  V30 3692 N 354.423 2.34311 1.71891 0
M  V30 3693 H 353.97 2.43873 0.829675 0
M  V30 3694 H 353.928 1.9298 2.48205 0
M  V30 3695 N 357.7 0.491464 1.49741 0
M  V30 3696 C 358.946 -0.0565092 2.02721 0
M  V30 3697 C 359.279 -1.37522 1.37118 0
M  V30 3698 O 358.554 -1.87866 0.503645 0
M  V30 3699 C 358.837 -0.219051 3.59433 0
M  V30 3700 C 358.69 1.12211 4.35579 0
M  V30 3701 C 360.009 -0.964157 4.29409 0
M  V30 3702 H 357.128 -0.0190627 0.736753 0
M  V30 3703 H 359.77 0.641021 1.7886 0
M  V30 3704 H 357.92 -0.813165 3.79895 0
M  V30 3705 H 359.592 1.75437 4.26637 0
M  V30 3706 H 357.835 1.71377 3.98513 0
M  V30 3707 H 358.506 0.961794 5.43556 0
M  V30 3708 H 360.982 -0.460378 4.13545 0
M  V30 3709 H 359.858 -1.04671 5.38828 0
M  V30 3710 H 360.119 -2.00563 3.93988 0
M  V30 3711 N 359.178 -1.55987 0.224894 0
M  V30 3712 C 360.141 -2.19178 -0.670348 0
M  V30 3713 C 361.141 -1.15461 -1.11917 0
M  V30 3714 O 362.331 -1.40675 -1.02743 0
M  V30 3715 C 359.463 -2.81777 -1.9187 0
M  V30 3716 H 360.656 -2.99662 -0.119364 0
M  V30 3717 H 358.209 -1.5628 -0.0247128 0
M  V30 3718 H 358.944 -2.05172 -2.51147 0
M  V30 3719 H 358.729 -3.57732 -1.60531 0
M  V30 3720 H 360.219 -3.30205 -2.55645 0
M  V30 3721 N 360.656 0.0484629 -1.57525 0
M  V30 3722 C 361.904 0.741657 -1.88 0
M  V30 3723 C 362.225 1.76918 -0.820054 0
M  V30 3724 O 361.495 1.95335 0.148661 0
M  V30 3725 H 360.075 0.276908 -0.69378 0
M  V30 3726 H 362.737 0.019013 -1.94891 0
M  V30 3727 H 361.833 1.24336 -2.86264 0
M  V30 3728 N 362.134 1.5431 0.320358 0
M  V30 3729 C 363.411 1.63322 1.07635 0
M  V30 3730 C 363.791 0.46912 2.05821 0
M  V30 3731 O 363.139 -0.536274 2.22118 0
M  V30 3732 C 363.349 3.00465 1.77544 0
M  V30 3733 C 364.697 3.56621 2.30449 0
M  V30 3734 O 365.721 3.02791 1.87606 0
M  V30 3735 O 364.58 4.5083 3.08892 0
M  V30 3736 H 361.674 0.661502 0.496331 0
M  V30 3737 H 364.22 1.66656 0.319992 0
M  V30 3738 H 362.992 3.76629 1.06143 0
M  V30 3739 H 362.615 3.00824 2.59982 0
M  V30 3740 N 363.613 -0.582584 1.46437 0
M  V30 3741 C 365.024 -1.1647 1.45916 0
M  V30 3742 C 365.375 -1.95177 0.200077 0
M  V30 3743 O 364.5 -2.04874 -0.696819 0
M  V30 3744 C 365.095 -2.11885 2.64367 0
M  V30 3745 C 363.654 -2.65421 2.66887 0
M  V30 3746 C 362.801 -1.41294 2.38603 0
M  V30 3747 H 365.752 -0.370514 1.54314 0
M  V30 3748 H 365.773 -2.9535 2.39892 0
M  V30 3749 H 365.285 -1.54573 3.5599 0
M  V30 3750 H 363.386 -3.26602 1.79338 0
M  V30 3751 H 363.499 -3.08147 3.66854 0
M  V30 3752 H 361.863 -1.71109 1.88663 0
M  V30 3753 H 362.646 -0.858125 3.32402 0
M  V30 3754 N 365.091 -1.34144 -0.827227 0
M  V30 3755 C 366.321 -1.29138 -1.61267 0
M  V30 3756 C 366.729 0.137597 -1.88699 0
M  V30 3757 O 366.072 1.09379 -1.47587 0
M  V30 3758 C 366.134 -2.0097 -2.9808 0
M  V30 3759 C 365.798 -3.50242 -2.93563 0
M  V30 3760 C 366.795 -4.4523 -2.68452 0
M  V30 3761 C 364.48 -3.92592 -3.13331 0
M  V30 3762 C 366.474 -5.80542 -2.63154 0
M  V30 3763 C 364.161 -5.28005 -3.07658 0
M  V30 3764 C 365.159 -6.21792 -2.82602 0
M  V30 3765 O 364.847 -7.54723 -2.76853 0
M  V30 3766 H 364.579 -0.445851 -0.508127 0
M  V30 3767 H 367.133 -1.77263 -1.03763 0
M  V30 3768 H 365.363 -1.47451 -3.57484 0
M  V30 3769 H 367.052 -1.89309 -3.5905 0
M  V30 3770 H 367.818 -4.13832 -2.52919 0
M  V30 3771 H 363.697 -3.19994 -3.31851 0
M  V30 3772 H 367.241 -6.53717 -2.43516 0
M  V30 3773 H 363.138 -5.59023 -3.22743 0
M  V30 3774 H 363.906 -7.64409 -2.92611 0
M  V30 3775 N 366.569 1.04691 -1.17803 0
M  V30 3776 C 367.797 1.81446 -0.99423 0
M  V30 3777 C 368.212 1.83174 0.457459 0
M  V30 3778 O 367.569 1.26265 1.31771 0
M  V30 3779 C 367.62 3.27334 -1.5341 0
M  V30 3780 O 367.341 3.25798 -2.92895 0
M  V30 3781 C 368.842 4.20759 -1.39559 0
M  V30 3782 H 366.062 0.571599 -0.351447 0
M  V30 3783 H 368.606 1.31982 -1.56208 0
M  V30 3784 H 366.761 3.74052 -1.00815 0
M  V30 3785 H 367.175 4.17144 -3.17949 0
M  V30 3786 H 368.649 5.21084 -1.82141 0
M  V30 3787 H 369.126 4.37856 -0.343394 0
M  V30 3788 H 369.732 3.79901 -1.91195 0
M  V30 3789 N 368.047 0.979072 1.23499 0
M  V30 3790 C 369.277 0.664237 1.95631 0
M  V30 3791 C 369.685 -0.772653 1.72704 0
M  V30 3792 O 369.028 -1.53141 1.01457 0
M  V30 3793 C 369.09 0.873115 3.48736 0
M  V30 3794 C 368.754 2.29182 3.95379 0
M  V30 3795 C 369.751 3.2704 4.04155 0
M  V30 3796 C 367.436 2.62256 4.28401 0
M  V30 3797 C 369.43 4.56052 4.45304 0
M  V30 3798 C 367.117 3.91491 4.69231 0
M  V30 3799 C 368.115 4.88201 4.77649 0
M  V30 3800 O 367.803 6.15129 5.17563 0
M  V30 3801 H 367.535 0.245915 0.629684 0
M  V30 3802 H 370.089 1.3127 1.57979 0
M  V30 3803 H 368.319 0.167476 3.86337 0
M  V30 3804 H 370.008 0.555642 4.02079 0
M  V30 3805 H 370.774 3.02819 3.78848 0
M  V30 3806 H 366.653 1.87692 4.21061 0
M  V30 3807 H 370.197 5.31538 4.51789 0
M  V30 3808 H 366.094 4.15508 4.93987 0
M  V30 3809 H 366.862 6.18862 5.35679 0
M  V30 3810 N 369.525 -1.3858 0.750561 0
M  V30 3811 C 370.802 -1.94231 0.231009 0
M  V30 3812 C 371.182 -1.68611 -1.27018 0
M  V30 3813 O 370.53 -1.02296 -2.04323 0
M  V30 3814 C 370.74 -3.44123 0.581428 0
M  V30 3815 C 372.088 -4.2116 0.539389 0
M  V30 3816 O 373.112 -3.52391 0.519541 0
M  V30 3817 O 371.971 -5.43749 0.54765 0
M  V30 3818 H 369.065 -0.825639 0.0474263 0
M  V30 3819 H 371.611 -1.4799 0.830478 0
M  V30 3820 H 370.383 -3.56267 1.61833 0
M  V30 3821 H 370.006 -3.97573 -0.0462047 0
M  V30 3822 N 371.003 -0.499398 -1.49478 0
M  V30 3823 C 372.28 0.108629 -1.95298 0
M  V30 3824 C 372.66 1.54282 -1.44084 0
M  V30 3825 O 372.008 2.18944 -0.653908 0
M  V30 3826 C 372.218 0.0229111 -3.48992 0
M  V30 3827 C 373.566 0.197643 -4.2414 0
M  V30 3828 O 374.59 0.0981735 -3.56065 0
M  V30 3829 O 373.449 0.401669 -5.45022 0
M  V30 3830 H 370.543 0.096181 -0.821388 0
M  V30 3831 H 373.089 -0.561822 -1.6013 0
M  V30 3832 H 371.861 -0.977321 -3.78899 0
M  V30 3833 H 371.484 0.733579 -3.90774 0
M  V30 3834 N 372.481 1.55866 -0.233164 0
M  V30 3835 C 373.728 1.98603 0.395374 0
M  V30 3836 C 374.056 1.12105 1.58942 0
M  V30 3837 O 373.311 0.168656 1.94972 0
M  V30 3838 C 373.61 3.46856 0.861724 0
M  V30 3839 C 373.276 4.50348 -0.223066 0
M  V30 3840 C 371.938 4.78371 -0.521038 0
M  V30 3841 C 374.29 5.12355 -0.956124 0
M  V30 3842 C 371.618 5.6568 -1.55638 0
M  V30 3843 C 373.97 6.00786 -1.98089 0
M  V30 3844 C 372.634 6.27148 -2.28565 0
M  V30 3845 H 371.904 0.726739 0.144677 0
M  V30 3846 H 374.551 1.88491 -0.338114 0
M  V30 3847 H 372.856 3.5423 1.67418 0
M  V30 3848 H 374.553 3.77302 1.35809 0
M  V30 3849 H 371.143 4.28596 0.0193234 0
M  V30 3850 H 375.327 4.90765 -0.739166 0
M  V30 3851 H 370.583 5.84365 -1.798 0
M  V30 3852 H 374.757 6.4788 -2.55391 0
M  V30 3853 H 372.384 6.94597 -3.08932 0
M  V30 3854 N 373.959 -0.0401083 1.57549 0
M  V30 3855 C 374.922 -1.02871 2.04817 0
M  V30 3856 C 375.922 -1.29708 0.950388 0
M  V30 3857 O 377.112 -1.24897 1.21435 0
M  V30 3858 C 374.244 -2.36443 2.45576 0
M  V30 3859 H 375.437 -0.620631 2.93408 0
M  V30 3860 H 372.99 -0.286667 1.53649 0
M  V30 3861 H 373.725 -2.82021 1.60108 0
M  V30 3862 H 373.51 -2.18296 3.25713 0
M  V30 3863 H 375 -3.07441 2.82612 0
M  V30 3864 N 375.437 -1.54477 -0.31217 0
M  V30 3865 C 376.667 -1.76948 -1.06645 0
M  V30 3866 C 377.075 -0.523593 -1.81811 0
M  V30 3867 O 376.418 0.51578 -1.76311 0
M  V30 3868 C 376.48 -2.91668 -2.10166 0
M  V30 3869 C 376.144 -4.30165 -1.54296 0
M  V30 3870 C 377.141 -5.10603 -0.978793 0
M  V30 3871 C 374.826 -4.76738 -1.58196 0
M  V30 3872 C 376.82 -6.3573 -0.461048 0
M  V30 3873 C 374.507 -6.01831 -1.06034 0
M  V30 3874 C 375.505 -6.81161 -0.500844 0
M  V30 3875 O 375.193 -8.03899 0.0128958 0
M  V30 3876 H 374.925 -0.594088 -0.322546 0
M  V30 3877 H 377.479 -2.02213 -0.360441 0
M  V30 3878 H 375.709 -2.62001 -2.84416 0
M  V30 3879 H 377.398 -3.01817 -2.71406 0
M  V30 3880 H 378.164 -4.75771 -0.941651 0
M  V30 3881 H 374.043 -4.15027 -2.00683 0
M  V30 3882 H 377.587 -6.97596 -0.0236894 0
M  V30 3883 H 373.484 -6.36152 -1.09459 0
M  V30 3884 H 374.252 -8.18437 -0.101457 0
M  V30 3885 N 376.915 0.57481 -1.46744 0
M  V30 3886 C 377.878 1.66533 -1.57478 0
M  V30 3887 C 378.878 1.54338 -0.451263 0
M  V30 3888 O 380.068 1.58814 -0.715813 0
M  V30 3889 C 377.2 3.05999 -1.50259 0
M  V30 3890 H 378.393 1.58372 -2.54673 0
M  V30 3891 H 375.946 0.793301 -1.34672 0
M  V30 3892 H 376.681 3.19709 -0.543725 0
M  V30 3893 H 376.466 3.16259 -2.31781 0
M  V30 3894 H 377.956 3.8537 -1.60872 0
M  V30 3895 N 378.394 1.34581 0.820102 0
M  V30 3896 C 379.622 1.3018 1.60813 0
M  V30 3897 C 380.037 -0.123551 1.88395 0
M  V30 3898 O 379.394 -1.07148 1.47735 0
M  V30 3899 C 379.445 2.09312 2.94739 0
M  V30 3900 O 379.166 3.46288 2.68358 0
M  V30 3901 C 380.667 2.1234 3.89136 0
M  V30 3902 H 377.887 0.447726 0.499782 0
M  V30 3903 H 380.431 1.77237 1.02017 0
M  V30 3904 H 378.586 1.65889 3.50085 0
M  V30 3905 H 379 3.87227 3.53774 0
M  V30 3906 H 380.474 2.72126 4.80262 0
M  V30 3907 H 380.951 1.11854 4.24718 0
M  V30 3908 H 381.557 2.55864 3.39726 0
M  V30 3909 N 379.872 -1.04064 1.18357 0
M  V30 3910 C 381.288 -1.2947 0.933258 0
M  V30 3911 C 381.488 -1.97466 -0.401169 0
M  V30 3912 O 380.544 -2.25528 -1.13549 0
M  V30 3913 C 381.857 -2.15337 2.09882 0
M  V30 3914 C 383.405 -2.28683 2.13712 0
M  V30 3915 C 383.88 -3.17917 3.29686 0
M  V30 3916 N 385.371 -3.25504 3.29547 0
M  V30 3917 C 386.106 -3.94706 4.15926 0
M  V30 3918 N 385.602 -4.66239 5.12439 0
M  V30 3919 N 387.395 -3.90986 4.0384 0
M  V30 3920 H 379.546 -0.583359 2.04232 0
M  V30 3921 H 381.809 -0.319921 0.892387 0
M  V30 3922 H 381.515 -1.72682 3.06389 0
M  V30 3923 H 381.389 -3.16015 2.05947 0
M  V30 3924 H 383.776 -2.70575 1.17784 0
M  V30 3925 H 383.857 -1.27596 2.21705 0
M  V30 3926 H 383.501 -2.76736 4.25887 0
M  V30 3927 H 383.431 -4.19036 3.1893 0
M  V30 3928 H 385.922 -2.74547 2.59677 0
M  V30 3929 H 386.235 -5.16638 5.74722 0
M  V30 3930 H 384.58 -4.65143 5.16398 0
M  V30 3931 H 387.771 -3.34234 3.27727 0
M  V30 3932 H 387.944 -4.44646 4.71375 0
M  V30 3933 N 381.35 -0.985608 -1.22978 0
M  V30 3934 C 382.26 -0.538548 -2.28335 0
M  V30 3935 C 383.276 0.409163 -1.69121 0
M  V30 3936 O 384.452 0.277797 -1.99475 0
M  V30 3937 C 381.517 0.146867 -3.46389 0
M  V30 3938 C 380.578 -0.842896 -4.20944 0
M  V30 3939 C 379.811 -0.190095 -5.33361 0
M  V30 3940 O 380.034 1.01767 -5.61248 0
M  V30 3941 O 378.968 -0.891289 -5.95264 0
M  V30 3942 H 382.794 -1.41487 -2.68729 0
M  V30 3943 H 380.379 -0.753495 -1.29007 0
M  V30 3944 H 382.261 0.531125 -4.1804 0
M  V30 3945 H 380.936 0.997871 -3.07935 0
M  V30 3946 H 379.843 -1.27795 -3.51595 0
M  V30 3947 H 381.176 -1.66287 -4.6326 0
M  V30 3948 N 382.828 1.3818 -0.7579 0
M  V30 3949 C 384.076 1.99624 -0.315361 0
M  V30 3950 C 384.397 1.60464 1.10799 0
M  V30 3951 O 383.667 0.863507 1.75842 0
M  V30 3952 H 382.247 0.73831 -0.113611 0
M  V30 3953 H 384.909 1.68878 -0.972952 0
M  V30 3954 H 384.005 3.09754 -0.381931 0
M  V30 3955 N 384.306 0.507319 1.49211 0
M  V30 3956 C 385.236 -0.256939 2.32082 0
M  V30 3957 C 386.217 -0.956609 1.40652 0
M  V30 3958 O 387.402 -0.946788 1.69557 0
M  V30 3959 C 384.532 -1.31802 3.21318 0
M  V30 3960 C 383.486 -0.737855 4.21592 0
M  V30 3961 C 382.812 -1.89992 4.99807 0
M  V30 3962 C 384.112 0.275325 5.21574 0
M  V30 3963 H 385.806 0.434798 2.96226 0
M  V30 3964 H 383.352 0.210546 1.42452 0
M  V30 3965 H 385.305 -1.86045 3.78107 0
M  V30 3966 H 384.029 -2.03903 2.5513 0
M  V30 3967 H 382.688 -0.217126 3.65956 0
M  V30 3968 H 382.336 -2.60877 4.30061 0
M  V30 3969 H 382.036 -1.51777 5.6766 0
M  V30 3970 H 383.56 -2.44657 5.59442 0
M  V30 3971 H 384.974 -0.179193 5.7302 0
M  V30 3972 H 383.371 0.573649 5.97352 0
M  V30 3973 H 384.441 1.18903 4.70096 0
M  V30 3974 N 385.784 -1.5574 0.241426 0
M  V30 3975 C 387.03 -1.99104 -0.385406 0
M  V30 3976 C 387.363 -1.1293 -1.57988 0
M  V30 3977 O 386.638 -0.191449 -1.93555 0
M  V30 3978 C 386.921 -3.51087 -0.800616 0
M  V30 3979 C 386.774 -4.48028 0.398874 0
M  V30 3980 C 388.093 -4.08015 -1.64959 0
M  V30 3981 H 385.212 -0.723848 -0.138614 0
M  V30 3982 H 387.854 -1.86903 0.341642 0
M  V30 3983 H 386.004 -3.61615 -1.4201 0
M  V30 3984 H 387.676 -4.49487 1.03726 0
M  V30 3985 H 385.919 -4.21077 1.04293 0
M  V30 3986 H 386.59 -5.51962 0.0651056 0
M  V30 3987 H 389.066 -4.00555 -1.12672 0
M  V30 3988 H 387.942 -5.14635 -1.90898 0
M  V30 3989 H 388.203 -3.56131 -2.61961 0
M  V30 3990 N 387.262 0.0317525 -1.57568 0
M  V30 3991 C 388.508 0.724175 -1.8943 0
M  V30 3992 C 388.841 1.75149 -0.838836 0
M  V30 3993 O 388.116 1.93948 0.146422 0
M  V30 3994 C 388.399 1.39615 -3.31933 0
M  V30 3995 C 388.252 0.382537 -4.4817 0
M  V30 3996 C 389.571 2.33084 -3.73309 0
M  V30 3997 H 386.69 0.261797 -0.688935 0
M  V30 3998 H 389.332 -0.013017 -1.89996 0
M  V30 3999 H 387.482 2.02451 -3.31581 0
M  V30 4000 H 389.154 -0.243689 -4.60656 0
M  V30 4001 H 387.397 -0.29844 -4.32772 0
M  V30 4002 H 388.068 0.891145 -5.44759 0
M  V30 4003 H 390.544 1.80295 -3.7501 0
M  V30 4004 H 389.42 2.77084 -4.73831 0
M  V30 4005 H 389.681 3.19643 -3.05419 0
M  V30 4006 N 388.74 1.54641 0.303973 0
M  V30 4007 C 390.017 1.64455 1.05896 0
M  V30 4008 C 390.397 0.490923 2.05312 0
M  V30 4009 O 389.745 -0.512685 2.22674 0
M  V30 4010 C 389.955 3.02331 1.74347 0
M  V30 4011 C 391.303 3.59045 2.26653 0
M  V30 4012 O 392.327 3.04764 1.84384 0
M  V30 4013 O 391.186 4.54081 3.04093 0
M  V30 4014 H 388.28 0.666729 0.489287 0
M  V30 4015 H 390.826 1.66986 0.302298 0
M  V30 4016 H 389.598 3.77734 1.02142 0
M  V30 4017 H 389.221 3.03565 2.56777 0
M  V30 4018 N 390.218 -0.567019 1.47046 0
M  V30 4019 C 391.181 -1.65696 1.58359 0
M  V30 4020 C 392.181 -1.54097 0.459441 0
M  V30 4021 O 393.371 -1.58432 0.724225 0
M  V30 4022 C 390.503 -3.05197 1.51879 0
M  V30 4023 H 391.696 -1.57019 2.5551 0
M  V30 4024 H 389.249 -0.786148 1.3509 0
M  V30 4025 H 389.984 -3.19417 0.560673 0
M  V30 4026 H 389.769 -3.15025 2.33455 0
M  V30 4027 H 391.259 -3.84511 1.62913 0
M  V30 4028 N 391.696 -1.35014 -0.812953 0
M  V30 4029 C 392.942 -1.2812 -1.57204 0
M  V30 4030 C 393.275 0.145869 -1.93651 0
M  V30 4031 O 392.55 1.0937 -1.60836 0
M  V30 4032 C 392.833 -2.18162 -2.86492 0
M  V30 4033 C 392.686 -3.69454 -2.56561 0
M  V30 4034 C 394.005 -2.07439 -3.88145 0
M  V30 4035 H 391.124 -0.466746 -0.570366 0
M  V30 4036 H 393.766 -1.65357 -0.935783 0
M  V30 4037 H 391.916 -1.86535 -3.40789 0
M  V30 4038 H 393.588 -4.11493 -2.08497 0
M  V30 4039 H 391.831 -3.9005 -1.89851 0
M  V30 4040 H 392.502 -4.27835 -3.48799 0
M  V30 4041 H 394.978 -2.35228 -3.4323 0
M  V30 4042 H 393.854 -2.7265 -4.76396 0
M  V30 4043 H 394.115 -1.05439 -4.29343 0
M  V30 4044 N 393.175 1.03435 -1.18907 0
M  V30 4045 C 394.085 2.15075 -0.937015 0
M  V30 4046 C 395.101 1.73706 0.101085 0
M  V30 4047 O 396.277 2.01232 -0.0822948 0
M  V30 4048 C 393.342 3.43458 -0.473057 0
M  V30 4049 C 392.403 3.99172 -1.57989 0
M  V30 4050 C 391.636 5.21427 -1.13797 0
M  V30 4051 O 391.859 5.704 0.000725941 0
M  V30 4052 O 390.793 5.69837 -1.9383 0
M  V30 4053 H 394.619 2.39198 -1.87131 0
M  V30 4054 H 392.204 1.13506 -0.971427 0
M  V30 4055 H 394.086 4.20811 -0.222702 0
M  V30 4056 H 392.761 3.20793 0.432869 0
M  V30 4057 H 391.668 3.23178 -1.88433 0
M  V30 4058 H 393.001 4.2619 -2.46217 0
M  V30 4059 N 394.653 0.992116 1.22453 0
M  V30 4060 C 395.603 0.512969 2.22155 0
M  V30 4061 C 396.587 -0.418416 1.55364 0
M  V30 4062 O 397.779 -0.245363 1.75291 0
M  V30 4063 C 394.908 -0.171822 3.4287 0
M  V30 4064 C 393.994 0.779822 4.16869 0
M  V30 4065 N 394.385 1.92734 4.6764 0
M  V30 4066 C 392.683 0.59554 4.42006 0
M  V30 4067 C 393.384 2.52458 5.24061 0
M  V30 4068 N 392.36 1.80735 5.12675 0
M  V30 4069 H 396.162 1.38817 2.5905 0
M  V30 4070 H 393.676 0.854277 1.38115 0
M  V30 4071 H 395.673 -0.532469 4.13486 0
M  V30 4072 H 394.333 -1.04317 3.07487 0
M  V30 4073 H 395.344 2.30816 4.63621 0
M  V30 4074 H 392.021 -0.229805 4.16867 0
M  V30 4075 H 393.411 3.49433 5.73887 0
M  V30 4076 N 396.131 -1.37776 0.765217 0
M  V30 4077 C 397.359 -2.04124 0.337767 0
M  V30 4078 C 397.774 -1.57715 -1.03785 0
M  V30 4079 O 397.131 -0.755447 -1.6613 0
M  V30 4080 C 397.182 -3.59658 0.364442 0
M  V30 4081 O 396.903 -4.04367 1.68579 0
M  V30 4082 C 398.404 -4.43236 -0.0754221 0
M  V30 4083 H 395.624 -0.655696 0.142491 0
M  V30 4084 H 398.168 -1.76238 1.03732 0
M  V30 4085 H 396.323 -3.86339 -0.286471 0
M  V30 4086 H 396.737 -4.98857 1.61993 0
M  V30 4087 H 398.211 -5.52 -0.00560067 0
M  V30 4088 H 398.688 -4.2455 -1.12491 0
M  V30 4089 H 399.294 -4.21767 0.547055 0
M  V30 4090 N 397.609 -0.515225 -1.4894 0
M  V30 4091 C 398.886 0.0879088 -1.95402 0
M  V30 4092 C 399.266 1.52745 -1.45712 0
M  V30 4093 O 398.614 2.18238 -0.677093 0
M  V30 4094 C 398.824 -0.0141055 -3.48997 0
M  V30 4095 C 400.172 0.152646 -4.24326 0
M  V30 4096 O 401.196 0.0604025 -3.56149 0
M  V30 4097 O 400.055 0.34384 -5.45417 0
M  V30 4098 H 397.149 0.0874636 -0.822362 0
M  V30 4099 H 399.695 -0.578775 -1.59525 0
M  V30 4100 H 398.467 -1.01745 -3.77841 0
M  V30 4101 H 398.09 0.692091 -3.9153 0
M  V30 4102 N 399.087 1.5561 -0.249682 0
M  V30 4103 C 400.498 1.84979 0.252949 0
M  V30 4104 C 400.849 1.17153 1.57384 0
M  V30 4105 O 399.974 0.450884 2.11651 0
M  V30 4106 C 400.569 3.35584 0.465732 0
M  V30 4107 C 399.128 3.65169 0.912624 0
M  V30 4108 C 398.275 2.77299 -0.00859085 0
M  V30 4109 H 401.226 1.51513 -0.47217 0
M  V30 4110 H 401.247 3.57313 1.30795 0
M  V30 4111 H 400.759 3.8492 -0.49579 0
M  V30 4112 H 398.86 3.21312 1.88652 0
M  V30 4113 H 398.973 4.72912 0.767559 0
M  V30 4114 H 397.337 2.49678 0.50327 0
M  V30 4115 H 398.12 3.29442 -0.965537 0
M  V30 4116 N 400.565 -0.0233959 1.57583 0
M  V30 4117 C 401.475 -1.03907 2.10334 0
M  V30 4118 C 402.491 -1.39257 1.04323 0
M  V30 4119 O 403.667 -1.48462 1.36091 0
M  V30 4120 C 400.732 -2.31938 2.57693 0
M  V30 4121 C 399.793 -2.03117 3.78209 0
M  V30 4122 C 399.026 -3.25043 4.233 0
M  V30 4123 O 399.249 -4.35916 3.67876 0
M  V30 4124 O 398.183 -3.10411 5.15683 0
M  V30 4125 H 402.009 -0.620748 2.97288 0
M  V30 4126 H 399.594 -0.240743 1.47448 0
M  V30 4127 H 401.476 -3.07196 2.88458 0
M  V30 4128 H 400.151 -2.73055 1.73847 0
M  V30 4129 H 399.058 -1.25408 3.52454 0
M  V30 4130 H 400.391 -1.66852 4.63056 0
M  V30 4131 N 402.043 -1.548 -0.295768 0
M  V30 4132 C 403.006 -1.85363 -1.34808 0
M  V30 4133 C 404.006 -0.726817 -1.43436 0
M  V30 4134 O 405.196 -0.995088 -1.42981 0
M  V30 4135 C 402.328 -2.03859 -2.73229 0
M  V30 4136 H 403.521 -2.7941 -1.08949 0
M  V30 4137 H 401.074 -1.46942 -0.532702 0
M  V30 4138 H 401.809 -1.12117 -3.04303 0
M  V30 4139 H 401.594 -2.8588 -2.68356 0
M  V30 4140 H 403.084 -2.28857 -3.49305 0
M  V30 4141 N 403.521 0.559213 -1.47345 0
M  V30 4142 C 404.77 1.31281 -1.53128 0
M  V30 4143 C 405.083 1.94602 -0.197344 0
M  V30 4144 O 406.289 2.71173 -0.133154 0
M  V30 4145 C 404.745 2.38051 -2.69925 0
M  V30 4146 C 404.353 1.8093 -4.0984 0
M  V30 4147 C 406.097 3.14604 -2.84999 0
M  V30 4148 C 404.004 2.85468 -5.1794 0
M  V30 4149 H 402.934 0.493614 -0.569966 0
M  V30 4150 H 405.585 0.594155 -1.73615 0
M  V30 4151 H 403.967 3.12822 -2.42814 0
M  V30 4152 H 405.141 1.12544 -4.46845 0
M  V30 4153 H 403.456 1.16967 -3.99634 0
M  V30 4154 H 406.053 3.92666 -3.62929 0
M  V30 4155 H 406.396 3.68665 -1.93369 0
M  V30 4156 H 406.929 2.46945 -3.1187 0
M  V30 4157 H 403.668 2.36264 -6.1144 0
M  V30 4158 H 403.188 3.52269 -4.85455 0
M  V30 4159 H 404.867 3.48996 -5.44803 0
M  V30 4160 N 404.999 1.35443 0.805782 0
M  V30 4161 C 405.946 1.28431 1.91766 0
M  V30 4162 C 406.916 0.156102 1.65365 0
M  V30 4163 O 408.101 0.339936 1.87747 0
M  V30 4164 C 405.241 1.06301 3.2832 0
M  V30 4165 C 404.354 2.2805 3.66902 0
M  V30 4166 C 403.489 1.99064 4.92491 0
M  V30 4167 C 402.528 3.16863 5.23703 0
M  V30 4168 N 401.665 2.87647 6.40471 0
M  V30 4169 H 406.505 2.23511 1.97096 0
M  V30 4170 H 404.042 1.11105 0.964054 0
M  V30 4171 H 406 0.915012 4.07042 0
M  V30 4172 H 404.63 0.148822 3.22457 0
M  V30 4173 H 403.682 2.53711 2.83434 0
M  V30 4174 H 404.994 3.1601 3.85927 0
M  V30 4175 H 404.148 1.81099 5.7904 0
M  V30 4176 H 402.887 1.0839 4.75503 0
M  V30 4177 H 401.892 3.35404 4.35642 0
M  V30 4178 H 403.117 4.08339 5.4262 0
M  V30 4179 H 401.063 1.99568 6.24907 0
M  V30 4180 H 400.98 3.69141 6.59751 0
M  V30 4181 H 402.248 2.73226 7.30047 0
M  V30 4182 N 406.477 -1.02803 1.19454 0
M  V30 4183 C 407.44 -2.09264 0.934955 0
M  V30 4184 C 408.44 -1.60576 -0.0849015 0
M  V30 4185 O 409.63 -1.73554 0.149933 0
M  V30 4186 C 406.762 -3.38482 0.40531 0
M  V30 4187 H 407.955 -2.33726 1.87916 0
M  V30 4188 H 405.508 -1.19426 1.00832 0
M  V30 4189 H 406.243 -3.19689 -0.544899 0
M  V30 4190 H 406.028 -3.75142 1.14065 0
M  V30 4191 H 407.518 -4.16894 0.242806 0
M  V30 4192 N 407.956 -0.998596 -1.21925 0
M  V30 4193 C 408.904 -0.546641 -2.26085 0
M  V30 4194 C 409.898 0.405576 -1.64473 0
M  V30 4195 O 411.104 0.277471 -1.77849 0
M  V30 4196 H 407.479 -0.158403 -0.735127 0
M  V30 4197 H 409.45 -1.43645 -2.61551 0
M  V30 4198 C 408.199 0.117388 -3.47502 0
M  V30 4199 H 407.522 -0.606277 -3.95176 0
M  V30 4200 H 408.962 0.396993 -4.22137 0
M  V30 4201 C 407.421 1.35455 -3.0847 0
M  V30 4202 O 407.951 2.44944 -3.18379 0
M  V30 4203 N 406.157 1.23191 -2.63196 0
M  V30 4204 H 405.704 0.341006 -2.55333 0
M  V30 4205 H 405.662 2.06071 -2.37449 0
M  V30 4206 N 409.434 1.37368 -0.772513 0
M  V30 4207 C 410.711 1.93839 -0.26188 0
M  V30 4208 C 411.091 1.7061 1.24319 0
M  V30 4209 O 410.439 1.05534 2.02669 0
M  V30 4210 C 410.649 3.43154 -0.636102 0
M  V30 4211 C 411.997 4.20249 -0.606324 0
M  V30 4212 O 413.021 3.5152 -0.575538 0
M  V30 4213 O 411.88 5.42809 -0.634086 0
M  V30 4214 H 408.974 0.82478 -0.0605555 0
M  V30 4215 H 411.52 1.4665 -0.853917 0
M  V30 4216 H 410.292 3.53647 -1.6748 0
M  V30 4217 H 409.915 3.97596 -0.0170516 0
M  V30 4218 N 410.912 0.523116 1.48665 0
M  V30 4219 C 412.158 -0.0134963 2.02796 0
M  V30 4220 C 412.491 -1.34582 1.40004 0
M  V30 4221 O 411.766 -1.86756 0.543381 0
M  V30 4222 C 412.049 -0.14276 3.59817 0
M  V30 4223 C 411.902 1.21425 4.331 0
M  V30 4224 C 413.221 -0.872856 4.31357 0
M  V30 4225 H 410.34 -0.00343074 0.736992 0
M  V30 4226 H 412.982 0.678816 1.7746 0
M  V30 4227 H 411.132 -0.732401 3.81534 0
M  V30 4228 H 412.804 1.84447 4.2282 0
M  V30 4229 H 411.047 1.79791 3.94788 0
M  V30 4230 H 411.718 1.07687 5.41394 0
M  V30 4231 H 414.194 -0.372555 4.14429 0
M  V30 4232 H 413.07 -0.932185 5.40927 0
M  V30 4233 H 413.331 -1.92161 3.98154 0
M  V30 4234 N 412.39 -1.55475 0.257931 0
M  V30 4235 C 413.3 -2.2549 -0.647425 0
M  V30 4236 C 414.316 -1.2748 -1.18427 0
M  V30 4237 O 415.492 -1.6038 -1.2182 0
M  V30 4238 C 412.557 -2.94916 -1.82278 0
M  V30 4239 C 411.618 -4.08363 -1.32432 0
M  V30 4240 C 410.851 -4.74469 -2.44366 0
M  V30 4241 O 411.074 -4.39701 -3.63344 0
M  V30 4242 O 410.008 -5.62763 -2.13497 0
M  V30 4243 H 413.834 -3.03593 -0.0807707 0
M  V30 4244 H 411.419 -1.49377 0.0259962 0
M  V30 4245 H 413.301 -3.38606 -2.50846 0
M  V30 4246 H 411.976 -2.19744 -2.37685 0
M  V30 4247 H 410.883 -3.69166 -0.605605 0
M  V30 4248 H 412.216 -4.85385 -0.816211 0
M  V30 4249 N 413.868 0.0150385 -1.57593 0
M  V30 4250 C 415.116 0.701613 -1.8953 0
M  V30 4251 C 415.437 1.75139 -0.857396 0
M  V30 4252 O 414.707 1.95607 0.107194 0
M  V30 4253 H 413.287 0.26213 -0.699498 0
M  V30 4254 H 415.949 -0.0223304 -1.94887 0
M  V30 4255 H 415.045 1.18236 -2.88837 0
M  V30 4256 N 415.346 1.54954 0.287554 0
M  V30 4257 C 416.757 1.65732 0.859634 0
M  V30 4258 C 417.108 0.574767 1.87592 0
M  V30 4259 O 416.233 -0.286299 2.14498 0
M  V30 4260 C 416.828 3.00438 1.56597 0
M  V30 4261 C 415.387 3.13292 2.08627 0
M  V30 4262 C 414.534 2.61473 0.923416 0
M  V30 4263 H 417.485 1.5857 0.0642338 0
M  V30 4264 H 417.506 2.92613 2.43224 0
M  V30 4265 H 417.018 3.79207 0.826053 0
M  V30 4266 H 415.119 2.39268 2.85625 0
M  V30 4267 H 415.232 4.19647 2.31157 0
M  V30 4268 H 413.596 2.18264 1.31275 0
M  V30 4269 H 414.379 3.42733 0.197241 0
M  V30 4270 N 416.824 -0.551391 1.4764 0
M  V30 4271 C 418.071 -1.3083 1.54563 0
M  V30 4272 C 418.399 -1.93359 0.210361 0
M  V30 4273 O 417.654 -1.78721 -0.797332 0
M  V30 4274 C 417.953 -2.43469 2.61644 0
M  V30 4275 C 417.619 -1.98732 4.04742 0
M  V30 4276 C 416.281 -1.86248 4.43695 0
M  V30 4277 C 418.633 -1.64659 4.94507 0
M  V30 4278 C 415.961 -1.37995 5.70241 0
M  V30 4279 C 418.313 -1.17875 6.21521 0
M  V30 4280 C 416.977 -1.03992 6.5935 0
M  V30 4281 H 416.247 -0.478741 0.565587 0
M  V30 4282 H 418.894 -0.617697 1.81264 0
M  V30 4283 H 417.199 -3.18109 2.28722 0
M  V30 4284 H 418.896 -3.01642 2.64222 0
M  V30 4285 H 415.486 -2.09393 3.73968 0
M  V30 4286 H 419.67 -1.73174 4.65107 0
M  V30 4287 H 414.926 -1.25915 5.98294 0
M  V30 4288 H 419.1 -0.905739 6.90485 0
M  V30 4289 H 416.727 -0.663794 7.57296 0
M  V30 4290 N 418.302 -1.35869 -0.798587 0
M  V30 4291 C 419.265 -1.29307 -1.89242 0
M  V30 4292 C 420.265 -0.202747 -1.59517 0
M  V30 4293 O 421.455 -0.456957 -1.681 0
M  V30 4294 C 418.587 -1.00229 -3.25833 0
M  V30 4295 H 419.78 -2.26576 -1.96478 0
M  V30 4296 H 417.333 -1.20509 -0.995358 0
M  V30 4297 H 418.068 -0.033801 -3.24282 0
M  V30 4298 H 417.853 -1.79121 -3.48795 0
M  V30 4299 H 419.343 -0.98219 -4.05885 0
M  V30 4300 N 419.78 1.02168 -1.19998 0
M  V30 4301 C 420.69 2.14069 -0.959774 0
M  V30 4302 C 421.706 1.73804 0.082655 0
M  V30 4303 O 422.882 2.01133 -0.103633 0
M  V30 4304 C 419.947 3.42936 -0.509459 0
M  V30 4305 C 419.008 3.97474 -1.62213 0
M  V30 4306 C 418.241 5.2019 -1.19321 0
M  V30 4307 O 418.464 5.70369 -0.0597726 0
M  V30 4308 O 417.398 5.67749 -1.99863 0
M  V30 4309 H 421.224 2.37199 -1.89658 0
M  V30 4310 H 418.809 1.12469 -0.983411 0
M  V30 4311 H 420.691 4.20551 -0.267322 0
M  V30 4312 H 419.366 3.21234 0.398821 0
M  V30 4313 H 418.273 3.21161 -1.9185 0
M  V30 4314 H 419.606 4.23555 -2.50723 0
M  V30 4315 N 421.258 1.00505 1.21394 0
M  V30 4316 C 422.191 0.51032 2.22421 0
M  V30 4317 C 423.169 -0.436 1.56645 0
M  V30 4318 O 424.353 -0.358709 1.85055 0
M  V30 4319 C 421.48 -0.258733 3.3771 0
M  V30 4320 C 420.526 0.635395 4.2174 0
M  V30 4321 S 421.359 2.09783 4.92698 0
M  V30 4322 C 422.515 1.33862 6.11418 0
M  V30 4323 H 422.748 1.36637 2.64041 0
M  V30 4324 H 420.281 0.812991 1.31262 0
M  V30 4325 H 422.239 -0.696372 4.0455 0
M  V30 4326 H 420.9 -1.0902 2.94573 0
M  V30 4327 H 420.093 0.0430189 5.03982 0
M  V30 4328 H 419.695 1.01031 3.60095 0
M  V30 4329 H 421.987 0.612541 6.74725 0
M  V30 4330 H 422.93 2.13675 6.75092 0
M  V30 4331 H 423.338 0.846568 5.58116 0
M  V30 4332 N 422.737 -1.36956 0.779787 0
M  V30 4333 C 423.983 -1.99787 0.348281 0
M  V30 4334 C 424.316 -1.61756 -1.07465 0
M  V30 4335 O 423.591 -0.867639 -1.74075 0
M  V30 4336 C 423.874 -3.56597 0.50104 0
M  V30 4337 C 423.727 -4.04513 1.96697 0
M  V30 4338 C 425.046 -4.40008 -0.0898097 0
M  V30 4339 H 422.165 -0.725796 0.128022 0
M  V30 4340 H 424.807 -1.62514 0.984331 0
M  V30 4341 H 422.957 -3.88479 -0.0404347 0
M  V30 4342 H 424.629 -3.83161 2.56876 0
M  V30 4343 H 422.872 -3.56408 2.47297 0
M  V30 4344 H 423.543 -5.1352 2.02486 0
M  V30 4345 H 426.019 -4.14431 0.372293 0
M  V30 4346 H 424.895 -5.4888 0.0471605 0
M  V30 4347 H 425.156 -4.26035 -1.18096 0
M  V30 4348 N 424.215 -0.530993 -1.48385 0
M  V30 4349 C 425.462 0.0027373 -2.025 0
M  V30 4350 C 425.79 1.34186 -1.40799 0
M  V30 4351 O 425.045 1.88 -0.543544 0
M  V30 4352 C 425.344 0.172742 -3.56982 0
M  V30 4353 C 425.01 -1.09215 -4.37473 0
M  V30 4354 C 423.672 -1.43881 -4.59186 0
M  V30 4355 C 426.024 -1.93153 -4.84088 0
M  V30 4356 C 423.352 -2.62381 -5.2476 0
M  V30 4357 C 425.704 -3.10833 -5.50968 0
M  V30 4358 C 424.368 -3.45843 -5.70919 0
M  V30 4359 H 423.638 0.00100165 -0.740999 0
M  V30 4360 H 426.285 -0.697219 -1.78357 0
M  V30 4361 H 424.59 0.955473 -3.79971 0
M  V30 4362 H 426.287 0.600642 -3.96476 0
M  V30 4363 H 422.877 -0.812177 -4.20834 0
M  V30 4364 H 427.061 -1.67683 -4.67115 0
M  V30 4365 H 422.317 -2.89707 -5.38405 0
M  V30 4366 H 426.491 -3.7618 -5.86056 0
M  V30 4367 H 424.118 -4.37764 -6.21503 0
M  V30 4368 N 425.693 1.55336 -0.266172 0
M  V30 4369 C 426.97 1.91372 0.404486 0
M  V30 4370 C 427.35 1.18935 1.74407 0
M  V30 4371 O 426.698 0.3132 2.26343 0
M  V30 4372 C 426.908 3.44581 0.553593 0
M  V30 4373 C 428.256 4.16196 0.840618 0
M  V30 4374 O 429.28 3.50426 0.638739 0
M  V30 4375 O 428.139 5.32567 1.22618 0
M  V30 4376 H 425.233 0.797194 0.220025 0
M  V30 4377 H 427.779 1.66813 -0.311664 0
M  V30 4378 H 426.551 3.89357 -0.389498 0
M  V30 4379 H 426.174 3.75065 1.31955 0
M  V30 4380 N 427.171 -0.0066808 1.57599 0
M  V30 4381 C 428.101 -0.999296 2.11036 0
M  V30 4382 C 429.082 -1.36278 1.01795 0
M  V30 4383 O 430.267 -1.4477 1.29442 0
M  V30 4384 C 427.397 -2.29328 2.60818 0
M  V30 4385 C 426.351 -2.07159 3.74525 0
M  V30 4386 C 425.677 -3.42512 4.10596 0
M  V30 4387 C 426.977 -1.43959 5.02069 0
M  V30 4388 H 428.671 -0.554382 2.94223 0
M  V30 4389 H 426.217 -0.265221 1.41536 0
M  V30 4390 H 428.17 -2.99117 2.96828 0
M  V30 4391 H 426.894 -2.7592 1.74745 0
M  V30 4392 H 425.553 -1.39797 3.38899 0
M  V30 4393 H 425.201 -3.86795 3.21556 0
M  V30 4394 H 424.901 -3.28498 4.87199 0
M  V30 4395 H 426.425 -4.13628 4.4916 0
M  V30 4396 H 427.839 -2.03696 5.35893 0
M  V30 4397 H 426.236 -1.40452 5.83432 0
M  V30 4398 H 427.306 -0.407992 4.83181 0
M  V30 4399 N 428.649 -1.55105 -0.279332 0
M  V30 4400 C 429.596 -1.8755 -1.34513 0
M  V30 4401 C 430.566 -0.726384 -1.49375 0
M  V30 4402 O 431.751 -0.977063 -1.63884 0
M  V30 4403 C 428.891 -2.14738 -2.70151 0
M  V30 4404 C 428.004 -3.42285 -2.63562 0
M  V30 4405 C 427.139 -3.59206 -3.91337 0
M  V30 4406 C 426.178 -4.80467 -3.79233 0
M  V30 4407 N 425.315 -4.94079 -4.98829 0
M  V30 4408 H 430.155 -2.78456 -1.06143 0
M  V30 4409 H 427.692 -1.37867 -0.512936 0
M  V30 4410 H 429.65 -2.28501 -3.49061 0
M  V30 4411 H 428.28 -1.27075 -2.96735 0
M  V30 4412 H 427.332 -3.37029 -1.76397 0
M  V30 4413 H 428.644 -4.31328 -2.50515 0
M  V30 4414 H 427.798 -3.72751 -4.78687 0
M  V30 4415 H 426.537 -2.68337 -4.07243 0
M  V30 4416 H 425.542 -4.66932 -2.90266 0
M  V30 4417 H 426.767 -5.72765 -3.64852 0
M  V30 4418 H 424.713 -4.06139 -5.15158 0
M  V30 4419 H 424.63 -5.77156 -4.8829 0
M  V30 4420 H 425.898 -5.12003 -5.8777 0
M  V30 4421 N 430.127 0.543554 -1.4793 0
M  V30 4422 C 431.057 1.65888 -1.64327 0
M  V30 4423 C 432.038 1.62818 -0.492383 0
M  V30 4424 O 433.223 1.80226 -0.723338 0
M  V30 4425 C 430.353 3.04506 -1.67013 0
M  V30 4426 C 429.307 3.2243 -2.81466 0
M  V30 4427 C 428.633 4.61972 -2.69233 0
M  V30 4428 C 429.933 3.06496 -4.22915 0
M  V30 4429 H 431.627 1.52421 -2.57698 0
M  V30 4430 H 429.173 0.731849 -1.24016 0
M  V30 4431 H 431.126 3.82391 -1.77074 0
M  V30 4432 H 429.85 3.18964 -0.70212 0
M  V30 4433 H 428.509 2.46957 -2.70938 0
M  V30 4434 H 428.157 4.73247 -1.7043 0
M  V30 4435 H 427.857 4.74911 -3.46025 0
M  V30 4436 H 429.381 5.41974 -2.81242 0
M  V30 4437 H 430.795 3.74186 -4.34348 0
M  V30 4438 H 429.192 3.30938 -5.006 0
M  V30 4439 H 430.262 2.03077 -4.40327 0
M  V30 4440 N 431.605 1.3629 0.791371 0
M  V30 4441 C 432.833 1.33562 1.58016 0
M  V30 4442 C 433.248 -0.0835616 1.88615 0
M  V30 4443 O 432.605 -1.0399 1.49974 0
M  V30 4444 C 432.656 2.15517 2.90232 0
M  V30 4445 O 432.377 3.51902 2.60953 0
M  V30 4446 C 433.878 2.20546 3.84544 0
M  V30 4447 H 431.098 0.458226 0.490173 0
M  V30 4448 H 433.642 1.79361 0.982345 0
M  V30 4449 H 431.797 1.73278 3.46487 0
M  V30 4450 H 432.211 3.94644 3.4548 0
M  V30 4451 H 433.685 2.82252 4.74382 0
M  V30 4452 H 434.162 1.20838 4.2225 0
M  V30 4453 H 434.768 2.63013 3.34222 0
M  V30 4454 N 433.083 -1.0153 1.20538 0
M  V30 4455 C 434.499 -1.27461 0.96051 0
M  V30 4456 C 434.699 -1.98273 -0.359193 0
M  V30 4457 O 433.755 -2.27886 -1.0874 0
M  V30 4458 C 435.068 -2.10837 2.14402 0
M  V30 4459 C 436.616 -2.24099 2.18515 0
M  V30 4460 C 437.091 -3.10852 3.36355 0
M  V30 4461 N 438.582 -3.18441 3.36377 0
M  V30 4462 C 439.317 -3.85795 4.24205 0
M  V30 4463 N 438.813 -4.55264 5.22213 0
M  V30 4464 N 440.606 -3.82331 4.12043 0
M  V30 4465 H 432.757 -0.539907 2.05423 0
M  V30 4466 H 435.02 -0.30092 0.898972 0
M  V30 4467 H 434.726 -1.66144 3.09983 0
M  V30 4468 H 434.6 -3.11576 2.12604 0
M  V30 4469 H 436.987 -2.68016 1.23497 0
M  V30 4470 H 437.068 -1.22865 2.24361 0
M  V30 4471 H 436.712 -2.6764 4.31661 0
M  V30 4472 H 436.642 -4.12177 3.27746 0
M  V30 4473 H 439.133 -2.68978 2.65442 0
M  V30 4474 H 439.446 -5.04331 5.85551 0
M  V30 4475 H 437.791 -4.54085 5.26148 0
M  V30 4476 H 440.982 -3.27207 3.34743 0
M  V30 4477 H 441.155 -4.34547 4.807 0
M  V30 4478 N 434.561 -1.01147 -1.20859 0
M  V30 4479 C 435.491 -0.597663 -2.25722 0
M  V30 4480 C 436.472 0.384744 -1.65692 0
M  V30 4481 O 437.657 0.271303 -1.92296 0
M  V30 4482 C 434.787 0.0700149 -3.47229 0
M  V30 4483 C 433.741 -0.832843 -4.19819 0
M  V30 4484 C 433.067 -0.0312202 -5.34691 0
M  V30 4485 C 434.367 -2.1385 -4.76514 0
M  V30 4486 H 436.061 -1.47423 -2.60589 0
M  V30 4487 H 433.607 -0.710301 -1.25263 0
M  V30 4488 H 435.56 0.37103 -4.19763 0
M  V30 4489 H 434.284 0.981259 -3.11511 0
M  V30 4490 H 432.943 -1.11778 -3.49144 0
M  V30 4491 H 432.591 0.881515 -4.95215 0
M  V30 4492 H 432.291 -0.632434 -5.84187 0
M  V30 4493 H 433.815 0.26346 -6.10031 0
M  V30 4494 H 435.229 -1.9002 -5.40893 0
M  V30 4495 H 433.626 -2.69012 -5.36426 0
M  V30 4496 H 434.696 -2.80495 -3.95538 0
M  V30 4497 N 436.039 1.36541 -0.78704 0
M  V30 4498 C 437.285 1.99599 -0.358872 0
M  V30 4499 C 437.618 1.62323 1.06606 0
M  V30 4500 O 436.893 0.876858 1.73613 0
M  V30 4501 C 437.176 3.56327 -0.519944 0
M  V30 4502 C 437.029 4.03464 -1.98839 0
M  V30 4503 C 438.348 4.4005 0.0664737 0
M  V30 4504 H 435.467 0.725107 -0.131869 0
M  V30 4505 H 438.109 1.6199 -0.992936 0
M  V30 4506 H 436.259 3.88495 0.0198321 0
M  V30 4507 H 437.931 3.81793 -2.58905 0
M  V30 4508 H 436.174 3.55092 -2.49183 0
M  V30 4509 H 436.845 5.12439 -2.05207 0
M  V30 4510 H 439.321 4.14228 -0.394267 0
M  V30 4511 H 438.197 5.48847 -0.0762682 0
M  V30 4512 H 438.458 4.26655 1.15835 0
M  V30 4513 N 437.518 0.538854 1.48102 0
M  V30 4514 C 438.795 -0.0568108 1.95517 0
M  V30 4515 C 439.175 -1.50408 1.48124 0
M  V30 4516 O 438.523 -2.17133 0.711727 0
M  V30 4517 C 438.733 0.0696262 3.48931 0
M  V30 4518 C 440.081 -0.0851202 4.24515 0
M  V30 4519 O 441.105 -0.0037347 3.562 0
M  V30 4520 O 439.964 -0.257025 5.45895 0
M  V30 4521 H 437.058 -0.0743695 0.823649 0
M  V30 4522 H 439.604 0.604081 1.58584 0
M  V30 4523 H 438.376 1.07744 3.76174 0
M  V30 4524 H 437.999 -0.629714 3.92582 0
M  V30 4525 N 438.996 -1.55193 0.274407 0
M  V30 4526 C 440.244 -1.99187 -0.341902 0
M  V30 4527 C 440.565 -1.16422 -1.56431 0
M  V30 4528 O 439.835 -0.253573 -1.94252 0
M  V30 4529 H 438.415 -0.735721 -0.129317 0
M  V30 4530 H 441.077 -1.91168 0.379578 0
M  V30 4531 H 440.173 -3.05629 -0.632253 0
M  V30 4532 N 440.474 -0.00167713 -1.576 0
M  V30 4533 C 441.72 0.683832 -1.90923 0
M  V30 4534 C 442.053 1.7333 -0.875799 0
M  V30 4535 O 441.328 1.94215 0.10525 0
M  V30 4536 C 441.611 1.32543 -3.3482 0
M  V30 4537 C 441.464 0.287387 -4.48881 0
M  V30 4538 C 442.783 2.25114 -3.78169 0
M  V30 4539 H 439.902 0.247125 -0.694333 0
M  V30 4540 H 442.544 -0.0533149 -1.89925 0
M  V30 4541 H 440.694 1.95372 -3.35801 0
M  V30 4542 H 442.366 -0.341346 -4.60035 0
M  V30 4543 H 440.609 -0.39017 -4.32042 0
M  V30 4544 H 441.28 0.775393 -5.46527 0
M  V30 4545 H 443.756 1.723 -3.7875 0
M  V30 4546 H 442.632 2.66971 -4.79602 0
M  V30 4547 H 442.893 3.13092 -3.12131 0
M  V30 4548 N 441.952 1.55251 0.271103 0
M  V30 4549 C 443.229 1.66664 1.02384 0
M  V30 4550 C 443.609 0.534363 2.04225 0
M  V30 4551 O 442.957 -0.465337 2.23712 0
M  V30 4552 C 443.167 3.05961 1.67895 0
M  V30 4553 C 444.515 3.63772 2.18986 0
M  V30 4554 O 445.539 3.08606 1.77878 0
M  V30 4555 O 444.398 4.60429 2.94393 0
M  V30 4556 H 441.492 0.676957 0.475035 0
M  V30 4557 H 444.038 1.67589 0.26681 0
M  V30 4558 H 442.81 3.79815 0.941071 0
M  V30 4559 H 442.433 3.08943 2.5028 0
M  V30 4560 N 443.43 -0.535701 1.48216 0
M  V30 4561 C 444.378 -1.66179 1.62749 0
M  V30 4562 C 445.372 -1.62034 0.49409 0
M  V30 4563 O 446.578 -1.6696 0.672624 0
M  V30 4564 H 442.953 -0.550244 0.512578 0
M  V30 4565 H 444.924 -1.51063 2.57337 0
M  V30 4566 C 443.673 -3.04471 1.67907 0
M  V30 4567 H 442.996 -3.08351 2.54479 0
M  V30 4568 H 444.436 -3.82894 1.82121 0
M  V30 4569 C 442.895 -3.34314 0.416596 0
M  V30 4570 O 443.425 -3.98905 -0.473014 0
M  V30 4571 N 441.631 -2.89149 0.290038 0
M  V30 4572 H 441.178 -2.36764 1.01493 0
M  V30 4573 H 441.136 -3.09486 -0.55367 0
M  V30 4574 N 444.908 -1.36708 -0.784132 0
M  V30 4575 C 445.84 -1.27333 -1.90575 0
M  V30 4576 C 446.853 -0.191706 -1.61667 0
M  V30 4577 O 448.042 -0.446854 -1.72816 0
M  V30 4578 C 445.142 -0.943177 -3.25511 0
M  V30 4579 C 444.315 -2.12776 -3.82158 0
M  V30 4580 C 443.374 -1.76983 -4.95544 0
M  V30 4581 O 442.4 -2.49134 -5.11782 0
M  V30 4582 N 443.602 -0.706624 -5.76183 0
M  V30 4583 H 446.367 -2.23974 -1.99138 0
M  V30 4584 H 443.928 -1.30171 -0.962656 0
M  V30 4585 H 445.92 -0.684799 -3.98864 0
M  V30 4586 H 444.49 -0.0657333 -3.12531 0
M  V30 4587 H 443.71 -2.54863 -3.0073 0
M  V30 4588 H 444.998 -2.91904 -4.16737 0
M  V30 4589 H 444.396 -0.107643 -5.65598 0
M  V30 4590 H 442.953 -0.50808 -6.49817 0
M  V30 4591 N 446.386 1.0089 -1.21074 0
M  V30 4592 C 447.632 1.74866 -1.02712 0
M  V30 4593 C 447.965 1.89178 0.438787 0
M  V30 4594 O 447.24 1.42325 1.32567 0
M  V30 4595 C 447.523 3.16347 -1.72036 0
M  V30 4596 C 447.376 3.09782 -3.26121 0
M  V30 4597 C 448.695 4.15187 -1.45973 0
M  V30 4598 H 445.814 0.634736 -0.374539 0
M  V30 4599 H 448.456 1.17646 -1.49196 0
M  V30 4600 H 446.606 3.65201 -1.32517 0
M  V30 4601 H 448.278 2.68673 -3.74983 0
M  V30 4602 H 446.521 2.46982 -3.56626 0
M  V30 4603 H 447.192 4.09829 -3.6979 0
M  V30 4604 H 449.668 3.75022 -1.80272 0
M  V30 4605 H 448.544 5.12331 -1.96999 0
M  V30 4606 H 448.805 4.40386 -0.388924 0
M  V30 4607 N 447.864 1.01787 1.20321 0
M  V30 4608 C 449.11 0.708985 1.90003 0
M  V30 4609 C 449.443 -0.759572 1.78729 0
M  V30 4610 O 448.718 -1.55198 1.17234 0
M  V30 4611 C 449.001 1.1469 3.41348 0
M  V30 4612 C 448.854 2.67586 3.61549 0
M  V30 4613 C 450.173 0.71915 4.34185 0
M  V30 4614 H 447.292 0.259034 0.689978 0
M  V30 4615 H 449.934 1.26584 1.41692 0
M  V30 4616 H 448.084 0.673128 3.82624 0
M  V30 4617 H 449.756 3.22826 3.29517 0
M  V30 4618 H 447.999 3.085 3.04976 0
M  V30 4619 H 448.67 2.93281 4.67643 0
M  V30 4620 H 451.146 1.12647 4.00562 0
M  V30 4621 H 450.022 1.05358 5.38694 0
M  V30 4622 H 450.283 -0.379111 4.40472 0
M  V30 4623 N 449.342 -1.36122 0.79427 0
M  V30 4624 C 450.619 -1.93398 0.292685 0
M  V30 4625 C 450.999 -1.72567 -1.21589 0
M  V30 4626 O 450.347 -1.08745 -2.00965 0
M  V30 4627 C 450.557 -3.42099 0.690614 0
M  V30 4628 C 451.905 -4.19231 0.673105 0
M  V30 4629 O 452.929 -3.50559 0.631389 0
M  V30 4630 O 451.788 -5.41732 0.720362 0
M  V30 4631 H 448.882 -0.823712 0.0736693 0
M  V30 4632 H 451.428 -1.45273 0.87714 0
M  V30 4633 H 450.2 -3.50938 1.73085 0
M  V30 4634 H 449.823 -3.97519 0.0803036 0
M  V30 4635 N 450.82 -0.546701 -1.47814 0
M  V30 4636 C 452.236 -0.205717 -1.58269 0
M  V30 4637 C 452.436 1.29153 -1.54667 0
M  V30 4638 O 451.492 2.07098 -1.44453 0
M  V30 4639 C 452.805 -0.823065 -2.89216 0
M  V30 4640 C 454.353 -0.793328 -3.02779 0
M  V30 4641 C 454.828 -1.38955 -4.36412 0
M  V30 4642 N 456.319 -1.35227 -4.43021 0
M  V30 4643 C 457.054 -1.78333 -5.44963 0
M  V30 4644 N 456.55 -2.29246 -6.53772 0
M  V30 4645 N 458.343 -1.69467 -5.35945 0
M  V30 4646 H 450.494 -1.5196 -1.48398 0
M  V30 4647 H 452.757 -0.633078 -0.705632 0
M  V30 4648 H 452.463 -1.8749 -2.97558 0
M  V30 4649 H 452.337 -0.309915 -3.75925 0
M  V30 4650 H 454.724 0.249784 -2.94041 0
M  V30 4651 H 454.805 -1.34412 -2.17639 0
M  V30 4652 H 454.449 -2.43168 -4.45906 0
M  V30 4653 H 454.379 -0.814291 -5.20266 0
M  V30 4654 H 456.87 -0.979739 -3.64979 0
M  V30 4655 H 457.183 -2.60089 -7.27718 0
M  V30 4656 H 455.528 -2.3325 -6.5469 0
M  V30 4657 H 458.719 -1.29477 -4.49837 0
M  V30 4658 H 458.892 -2.03381 -6.15256 0
M  V30 4659 N 452.299 1.55045 -0.282633 0
M  V30 4660 C 453.71 1.85473 0.213655 0
M  V30 4661 C 454.061 1.20465 1.54863 0
M  V30 4662 O 453.186 0.495676 2.10647 0
M  V30 4663 C 453.781 3.36496 0.394445 0
M  V30 4664 C 452.34 3.67022 0.834961 0
M  V30 4665 C 451.487 2.77218 -0.0674081 0
M  V30 4666 H 454.438 1.50478 -0.504202 0
M  V30 4667 H 454.459 3.60007 1.23186 0
M  V30 4668 H 453.971 3.83782 -0.577326 0
M  V30 4669 H 452.072 3.25241 1.81794 0
M  V30 4670 H 452.185 4.74433 0.667075 0
M  V30 4671 H 450.549 2.5069 0.450196 0
M  V30 4672 H 451.332 3.2732 -1.0352 0
M  V30 4673 N 453.777 0.010035 1.57597 0
M  V30 4674 C 455.193 -0.346164 1.55801 0
M  V30 4675 C 455.393 -1.74144 1.01371 0
M  V30 4676 O 454.449 -2.43938 0.651968 0
M  V30 4677 C 455.762 -0.212216 2.9995 0
M  V30 4678 C 457.31 -0.286409 3.11687 0
M  V30 4679 C 457.785 -0.18147 4.5764 0
M  V30 4680 N 459.276 -0.239056 4.62583 0
M  V30 4681 C 460.011 -0.181351 5.73113 0
M  V30 4682 N 459.507 -0.073661 6.92761 0
M  V30 4683 N 461.3 -0.233949 5.61613 0
M  V30 4684 H 453.451 0.922657 1.91313 0
M  V30 4685 H 455.714 0.354595 0.879185 0
M  V30 4686 H 455.42 0.748169 3.4365 0
M  V30 4687 H 455.294 -0.990224 3.6397 0
M  V30 4688 H 457.681 -1.23724 2.67911 0
M  V30 4689 H 457.762 0.521645 2.50425 0
M  V30 4690 H 457.406 0.765863 5.02093 0
M  V30 4691 H 457.336 -1.00814 5.1686 0
M  V30 4692 H 459.827 -0.32321 3.76515 0
M  V30 4693 H 460.14 -0.0358003 7.72792 0
M  V30 4694 H 458.485 -0.0391461 6.94989 0
M  V30 4695 H 461.676 -0.316347 4.6703 0
M  V30 4696 H 461.849 -0.185514 6.47734 0
M  V30 4697 N 455.255 -1.55392 -0.262866 0
M  V30 4698 C 456.185 -1.91978 -1.32917 0
M  V30 4699 C 457.166 -0.7828 -1.51017 0
M  V30 4700 O 458.351 -1.04178 -1.63892 0
M  V30 4701 C 455.481 -2.20055 -2.68687 0
M  V30 4702 C 454.435 -3.35854 -2.65304 0
M  V30 4703 C 453.761 -3.49435 -4.04721 0
M  V30 4704 C 455.061 -4.71977 -2.23685 0
M  V30 4705 H 456.755 -2.81292 -1.02544 0
M  V30 4706 H 454.301 -1.3534 -0.491846 0
M  V30 4707 H 456.254 -2.44237 -3.43404 0
M  V30 4708 H 454.978 -1.27551 -3.00663 0
M  V30 4709 H 453.637 -3.11655 -1.93045 0
M  V30 4710 H 453.285 -2.54379 -4.33936 0
M  V30 4711 H 452.985 -4.27297 -4.0335 0
M  V30 4712 H 454.509 -3.7592 -4.81161 0
M  V30 4713 H 455.923 -4.95637 -2.88127 0
M  V30 4714 H 454.32 -5.52828 -2.33456 0
M  V30 4715 H 455.39 -4.70115 -1.18827 0
M  V30 4716 N 456.733 0.527833 -1.48498 0
M  V30 4717 C 457.696 1.61439 -1.62696 0
M  V30 4718 C 458.696 1.52824 -0.500136 0
M  V30 4719 O 459.886 1.56456 -0.765976 0
M  V30 4720 C 457.018 3.01063 -1.59918 0
M  V30 4721 H 458.211 1.50189 -2.59583 0
M  V30 4722 H 455.764 0.750055 -1.37127 0
M  V30 4723 H 456.499 3.17818 -0.645163 0
M  V30 4724 H 456.284 3.08725 -2.41726 0
M  V30 4725 H 457.774 3.80057 -1.73051 0
M  V30 4726 N 458.211 1.37122 0.776871 0
M  V30 4727 C 459.457 1.32243 1.53752 0
M  V30 4728 C 459.79 -0.0944745 1.9397 0
M  V30 4729 O 459.065 -1.05068 1.6368 0
M  V30 4730 C 459.348 2.25681 2.80607 0
M  V30 4731 C 459.201 3.76127 2.46676 0
M  V30 4732 C 460.52 2.17657 3.82509 0
M  V30 4733 H 457.639 0.481704 0.557791 0
M  V30 4734 H 460.281 1.6778 0.891612 0
M  V30 4735 H 458.431 1.95505 3.35723 0
M  V30 4736 H 460.103 4.16877 1.97513 0
M  V30 4737 H 458.346 3.94946 1.79443 0
M  V30 4738 H 459.017 4.36933 3.37333 0
M  V30 4739 H 461.493 2.44245 3.36873 0
M  V30 4740 H 460.369 2.85185 4.69 0
M  V30 4741 H 460.63 1.16785 4.26396 0
M  V30 4742 O 459.728 -0.91678 1.32956 0
M  V30 4743 H 460.419 -1.55003 1.16162 0
M  V30 END ATOM
M  V30 BEGIN BOND
M  V30 END BOND
M  V30 END CTAB
M  END
$$$$
