drugbank_target|P07766 T-cell surface glycoprotein CD3 epsilon chain (DB00075; DB06607)
 OpenBabel12092119283D

  0  0  0     0  0            999 V3000
M  V30 BEGIN CTAB
M  V30 COUNTS 3218 3253 0 0 0
M  V30 BEGIN ATOM
M  V30 1 H -0.908 1.98254 -0.117106 0
M  V30 2 N 0 1.576 0 0
M  V30 3 C 0.933 2.03868 1.02534 0
M  V30 4 C 1.911 0.928543 1.3348 0
M  V30 5 O 3.095 1.19667 1.45644 0
M  V30 6 C 0.222 2.43627 2.35294 0
M  V30 7 C -0.732 3.65373 2.2001 0
M  V30 8 S 0.101 5.13292 1.52614 0
M  V30 9 C 1.257 5.56322 2.86805 0
M  V30 10 H 1.49 2.90518 0.631377 0
M  V30 11 H -0.977 1.52953 0.210867 0
M  V30 12 H 0.981 2.67203 3.11629 0
M  V30 13 H -0.358 1.57376 2.7183 0
M  V30 14 H -1.165 3.90944 3.18086 0
M  V30 15 H -1.563 3.418 1.51819 0
M  V30 16 H 0.729 5.58782 3.83104 0
M  V30 17 H 1.672 6.56266 2.65933 0
M  V30 18 H 2.08 4.83886 2.90714 0
M  V30 19 N 1.4781 -0.272755 1.55222 0
M  V30 20 C 2.4101 -1.35946 1.8453 0
M  V30 21 C 3.4231 -1.45525 0.729818 0
M  V30 22 O 4.6121 -1.47337 1.00767 0
M  V30 23 C 1.7121 -2.74069 1.99347 0
M  V30 24 C 0.8851 -2.87079 3.30007 0
M  V30 25 C -0.0559 -4.05879 3.34886 0
M  V30 26 O -1.0299 -3.96626 4.08261 0
M  V30 27 N 0.1721 -5.17857 2.62307 0
M  V30 28 H 2.9371 -1.11149 2.78327 0
M  V30 29 H 0.4981 -0.462869 1.55142 0
M  V30 30 H 2.4901 -3.51838 1.99981 0
M  V30 31 H 1.0601 -2.91688 1.12415 0
M  V30 32 H 0.2801 -1.96193 3.41909 0
M  V30 33 H 1.5681 -2.92701 4.16177 0
M  V30 34 H 0.9661 -5.28261 2.02377 0
M  V30 35 H -0.4769 -5.93855 2.68663 0
M  V30 36 N 2.9562 -1.48159 -0.537278 0
M  V30 37 C 4.1812 -1.59707 -1.32319 0
M  V30 38 C 4.6062 -0.254859 -1.86365 0
M  V30 39 O 3.9642 0.772378 -1.64024 0
M  V30 40 C 4.0122 -2.6412 -2.45505 0
M  V30 41 O 3.1162 -2.20774 -3.48328 0
M  V30 42 H 2.4572 -0.535791 -0.392204 0
M  V30 43 H 4.9872 -1.94092 -0.647268 0
M  V30 44 H 4.9972 -2.85166 -2.91795 0
M  V30 45 H 3.6722 -3.61567 -2.05528 0
M  V30 46 H 2.2492 -2.09911 -3.08207 0
M  V30 47 N 4.4343 0.785586 -1.36625 0
M  V30 48 C 5.6823 1.54057 -1.30808 0
M  V30 49 C 6.0033 1.94683 0.111157 0
M  V30 50 O 5.2733 1.65241 1.05224 0
M  V30 51 H 3.8533 0.571354 -0.481211 0
M  V30 52 H 6.5153 0.935821 -1.70963 0
M  V30 53 H 5.6113 2.44637 -1.93801 0
M  V30 54 N 5.9124 1.20967 1.01018 0
M  V30 55 C 7.1404 1.04956 1.78303 0
M  V30 56 C 7.5554 -0.400915 1.84494 0
M  V30 57 O 6.9124 -1.27826 1.30257 0
M  V30 58 C 6.9634 1.63403 3.22462 0
M  V30 59 O 6.6844 3.02775 3.16637 0
M  V30 60 C 8.1854 1.52432 4.16268 0
M  V30 61 H 5.4054 0.368858 0.560522 0
M  V30 62 H 7.9494 1.60193 1.27116 0
M  V30 63 H 6.1044 1.1227 3.70775 0
M  V30 64 H 6.5184 3.30626 4.07169 0
M  V30 65 H 7.9924 1.98078 5.15237 0
M  V30 66 H 8.4694 0.477875 4.36592 0
M  V30 67 H 9.0754 2.02787 3.73841 0
M  V30 68 N 7.3905 -1.2043 1.01659 0
M  V30 69 C 8.3405 -2.21076 0.557623 0
M  V30 70 C 9.3245 -1.56176 -0.387029 0
M  V30 71 O 10.5165 -1.7575 -0.209996 0
M  V30 72 C 7.6455 -3.43146 -0.102707 0
M  V30 73 C 6.7315 -4.15213 0.863652 0
M  V30 74 N 7.1225 -4.63662 2.02117 0
M  V30 75 C 5.4205 -4.40716 0.684472 0
M  V30 76 C 6.1215 -5.18868 2.62966 0
M  V30 77 N 5.0975 -5.0893 1.91027 0
M  V30 78 H 8.8995 -2.56201 1.44008 0
M  V30 79 H 6.4135 -1.36366 0.881931 0
M  V30 80 H 8.4105 -4.14475 -0.449054 0
M  V30 81 H 7.0705 -3.09526 -0.981003 0
M  V30 82 H 8.0815 -4.58877 2.40109 0
M  V30 83 H 4.7585 -4.17245 -0.14577 0
M  V30 84 H 6.1485 -5.6673 3.60924 0
M  V30 85 N 8.8686 -0.792821 -1.36206 0
M  V30 86 C 10.1146 -0.376415 -1.99887 0
M  V30 87 C 10.4696 1.04127 -1.61788 0
M  V30 88 O 9.7626 1.71004 -0.864193 0
M  V30 89 C 9.9566 -0.481501 -3.54142 0
M  V30 90 C 9.7856 -1.90786 -4.07223 0
M  V30 91 C 8.5556 -2.53322 -4.37214 0
M  V30 92 C 10.7536 -2.87048 -4.26741 0
M  V30 93 N 8.7356 -3.8751 -4.7614 0
M  V30 94 C 10.1066 -4.06077 -4.6851 0
M  V30 95 C 12.1616 -2.8406 -4.08918 0
M  V30 96 C 10.8646 -5.22532 -4.94321 0
M  V30 97 C 12.8906 -3.99705 -4.35878 0
M  V30 98 C 12.2526 -5.1748 -4.77906 0
M  V30 99 H 8.3516 -0.185226 -0.759747 0
M  V30 100 H 10.9356 -1.03114 -1.65153 0
M  V30 101 H 9.1066 0.143154 -3.88136 0
M  V30 102 H 10.8386 -0.0410128 -4.04679 0
M  V30 103 H 7.5936 -2.04777 -4.2704 0
M  V30 104 H 8.0176 -4.5656 -4.99882 0
M  V30 105 H 12.6596 -1.94165 -3.75579 0
M  V30 106 H 10.3776 -6.1301 -5.2654 0
M  V30 107 H 13.9636 -3.98758 -4.23655 0
M  V30 108 H 12.8436 -6.05478 -4.98363 0
M  V30 109 N 10.3467 1.47872 -0.545128 0
M  V30 110 C 11.7627 1.5829 -0.204032 0
M  V30 111 C 11.9627 1.54529 1.29317 0
M  V30 112 O 11.0187 1.44232 2.07252 0
M  V30 113 C 12.3317 2.89304 -0.819987 0
M  V30 114 C 13.8797 3.02864 -0.790105 0
M  V30 115 C 14.3547 4.3656 -1.38491 0
M  V30 116 N 15.8457 4.43165 -1.34755 0
M  V30 117 C 16.5807 5.45153 -1.77753 0
M  V30 118 N 16.0767 6.54016 -2.2855 0
M  V30 119 N 17.8697 5.36125 -1.68897 0
M  V30 120 H 10.0207 1.4856 -1.51802 0
M  V30 121 H 12.2837 0.706305 -0.632327 0
M  V30 122 H 11.9897 2.97757 -1.87173 0
M  V30 123 H 11.8637 3.75957 -0.305915 0
M  V30 124 H 14.2507 2.94014 0.252913 0
M  V30 125 H 14.3317 2.17782 -1.34181 0
M  V30 126 H 13.9757 4.46164 -2.42693 0
M  V30 127 H 13.9057 5.20353 -0.808754 0
M  V30 128 H 16.3967 3.65083 -0.975855 0
M  V30 129 H 16.7097 7.27994 -2.59314 0
M  V30 130 H 15.0547 6.54938 -2.32553 0
M  V30 131 H 18.2457 4.49975 -1.28998 0
M  V30 132 H 18.4187 6.15472 -2.02726 0
M  V30 133 N 11.8248 0.280983 1.55075 0
M  V30 134 C 13.0708 -0.33461 2.00021 0
M  V30 135 C 13.4038 -1.55063 1.16915 0
M  V30 136 O 12.6788 -1.93006 0.240646 0
M  V30 137 C 12.9618 -0.711007 3.53011 0
M  V30 138 C 12.8148 0.512766 4.46868 0
M  V30 139 C 14.1338 -1.54522 4.12081 0
M  V30 140 H 11.2528 -0.120147 0.727141 0
M  V30 141 H 13.8948 0.389097 1.85973 0
M  V30 142 H 12.0448 -1.32761 3.65112 0
M  V30 143 H 13.7168 1.15131 4.46702 0
M  V30 144 H 11.9598 1.14975 4.18286 0
M  V30 145 H 12.6308 0.205556 5.51617 0
M  V30 146 H 15.1068 -1.02442 4.03293 0
M  V30 147 H 13.9828 -1.77739 5.19327 0
M  V30 148 H 14.2438 -2.52813 3.62682 0
M  V30 149 N 13.3029 -1.57598 0.00835791 0
M  V30 150 C 14.2329 -2.1198 -0.979113 0
M  V30 151 C 15.2139 -1.03091 -1.35301 0
M  V30 152 O 16.3989 -1.30818 -1.43528 0
M  V30 153 C 13.5289 -2.62995 -2.26828 0
M  V30 154 C 12.4829 -3.76485 -2.03576 0
M  V30 155 C 11.8089 -4.13846 -3.38579 0
M  V30 156 C 13.1089 -5.0342 -1.39161 0
M  V30 157 H 14.8029 -2.94738 -0.526281 0
M  V30 158 H 12.3489 -1.41783 -0.251704 0
M  V30 159 H 14.3019 -2.99669 -2.96271 0
M  V30 160 H 13.0259 -1.7737 -2.7424 0
M  V30 161 H 11.6849 -3.40217 -1.36557 0
M  V30 162 H 11.3329 -3.25232 -3.83709 0
M  V30 163 H 11.0329 -4.90312 -3.23834 0
M  V30 164 H 12.5569 -4.53086 -4.09323 0
M  V30 165 H 13.9709 -5.37812 -1.98573 0
M  V30 166 H 12.3679 -5.84746 -1.34878 0
M  V30 167 H 13.4379 -4.83548 -0.361868 0
M  V30 168 N 14.781 0.264519 -1.55364 0
M  V30 169 C 16.029 0.993021 -1.76021 0
M  V30 170 C 16.35 1.86511 -0.569099 0
M  V30 171 O 15.62 1.91438 0.415735 0
M  V30 172 H 14.2 0.369639 -0.649135 0
M  V30 173 H 16.862 0.286707 -1.9278 0
M  V30 174 H 15.958 1.62502 -2.66457 0
M  V30 175 N 16.2591 1.48442 0.529413 0
M  V30 176 C 17.1891 1.65902 1.64313 0
M  V30 177 C 18.1701 0.507897 1.6234 0
M  V30 178 O 19.3551 0.740503 1.79528 0
M  V30 179 C 16.4851 1.69911 3.02898 0
M  V30 180 C 15.4391 2.8453 3.19729 0
M  V30 181 C 14.7651 2.73629 4.59381 0
M  V30 182 C 16.0651 4.25821 3.02447 0
M  V30 183 H 17.7591 2.5914 1.49955 0
M  V30 184 H 15.3051 1.24709 0.719982 0
M  V30 185 H 17.2581 1.80715 3.80684 0
M  V30 186 H 15.9821 0.732524 3.18279 0
M  V30 187 H 14.6411 2.73283 2.44361 0
M  V30 188 H 14.2891 1.74938 4.71599 0
M  V30 189 H 13.9891 3.50541 4.71588 0
M  V30 190 H 15.5131 2.86401 5.39265 0
M  V30 191 H 16.9271 4.37898 3.70024 0
M  V30 192 H 15.3241 5.03735 3.26146 0
M  V30 193 H 16.3941 4.42244 1.98867 0
M  V30 194 N 17.7372 -0.778329 1.37039 0
M  V30 195 C 18.9772 -1.54973 1.33276 0
M  V30 196 C 19.3412 -1.91816 -0.0839376 0
M  V30 197 O 20.5422 -2.6767 -0.246228 0
M  V30 198 C 18.8132 -2.78517 2.23971 0
M  V30 199 S 20.3722 -3.6865 2.37997 0
M  V30 200 H 17.1902 -0.530639 0.473226 0
M  V30 201 H 19.7922 -0.915806 1.72723 0
M  V30 202 H 18.4962 -2.4952 3.25835 0
M  V30 203 H 18.0272 -3.46875 1.85584 0
M  V30 204 H 20.0422 -4.70182 1.58567 0
M  V30 205 N 19.2153 -1.21501 -1.00376 0
M  V30 206 C 20.1453 -0.999478 -2.11028 0
M  V30 207 C 21.1263 0.0759671 -1.6993 0
M  V30 208 O 22.3113 -0.0841106 -1.94018 0
M  V30 209 C 19.4413 -0.564709 -3.42678 0
M  V30 210 C 18.3953 -1.58486 -3.97576 0
M  V30 211 C 17.7213 -1.00628 -5.25146 0
M  V30 212 C 19.0213 -2.97204 -4.29496 0
M  V30 213 H 20.7153 -1.92495 -2.29317 0
M  V30 214 H 18.2613 -0.92693 -1.102 0
M  V30 215 H 20.2143 -0.401091 -4.19487 0
M  V30 216 H 18.9383 0.396411 -3.24185 0
M  V30 217 H 17.5973 -1.73606 -3.22888 0
M  V30 218 H 17.2453 -0.0368439 -5.02987 0
M  V30 219 H 16.9453 -1.68771 -5.62841 0
M  V30 220 H 18.4693 -0.854015 -6.04598 0
M  V30 221 H 19.8833 -2.8552 -4.97143 0
M  V30 222 H 18.2803 -3.62372 -4.78338 0
M  V30 223 H 19.3503 -3.47956 -3.3772 0
M  V30 224 N 20.6934 1.19889 -1.02296 0
M  V30 225 C 21.6234 2.25141 -0.619174 0
M  V30 226 C 22.6044 1.66051 0.368915 0
M  V30 227 O 23.7894 1.92546 0.252941 0
M  V30 228 C 20.9194 3.4728 0.0368783 0
M  V30 229 C 19.8734 4.19005 -0.872865 0
M  V30 230 C 19.1994 5.34637 -0.0822402 0
M  V30 231 C 20.4994 4.74452 -2.18387 0
M  V30 232 H 22.1934 2.59171 -1.49903 0
M  V30 233 H 19.7394 1.24579 -0.722222 0
M  V30 234 H 21.6924 4.20098 0.330958 0
M  V30 235 H 20.4164 3.12433 0.95149 0
M  V30 236 H 19.0754 3.48061 -1.15105 0
M  V30 237 H 18.7234 4.96034 0.83422 0
M  V30 238 H 18.4234 5.83557 -0.688149 0
M  V30 239 H 19.9474 6.10255 0.205238 0
M  V30 240 H 21.3614 5.39055 -1.95172 0
M  V30 241 H 19.7584 5.33834 -2.74119 0
M  V30 242 H 20.8284 3.92844 -2.84257 0
M  V30 243 N 22.1715 0.800033 1.35784 0
M  V30 244 C 23.3965 0.388511 2.03729 0
M  V30 245 C 23.8215 -0.990481 1.5991 0
M  V30 246 O 23.1795 -1.64013 0.772612 0
M  V30 247 C 23.2275 0.4726 3.5749 0
M  V30 248 O 22.3315 -0.51646 4.09153 0
M  V30 249 H 21.6725 0.163271 0.643614 0
M  V30 250 H 24.2025 1.0841 1.73518 0
M  V30 251 H 24.2125 0.34003 4.06581 0
M  V30 252 H 22.8875 1.47848 3.88734 0
M  V30 253 H 21.4645 -0.344673 3.71304 0
M  V30 254 N 23.6496 -1.47581 0.552962 0
M  V30 255 C 24.8956 -2.02782 0.0273648 0
M  V30 256 C 25.2286 -1.42687 -1.31734 0
M  V30 257 O 24.5036 -0.580897 -1.85623 0
M  V30 258 C 24.7866 -3.60031 -0.0702371 0
M  V30 259 C 24.6396 -4.30566 1.30126 0
M  V30 260 C 25.9586 -4.33028 -0.785771 0
M  V30 261 H 23.0776 -0.736912 0.0114185 0
M  V30 262 H 25.7196 -1.76056 0.714432 0
M  V30 263 H 23.8696 -3.82932 -0.655382 0
M  V30 264 H 25.5416 -4.19018 1.92929 0
M  V30 265 H 23.7846 -3.91086 1.87709 0
M  V30 266 H 24.4556 -5.39114 1.18573 0
M  V30 267 H 26.9316 -4.15095 -0.288982 0
M  V30 268 H 25.8076 -5.42695 -0.823013 0
M  V30 269 H 26.0686 -4.01945 -1.841 0
M  V30 270 N 25.1277 -0.289203 -1.54924 0
M  V30 271 C 26.3757 0.322879 -1.99504 0
M  V30 272 C 26.6967 1.55313 -1.1791 0
M  V30 273 O 25.9667 1.94001 -0.272097 0
M  V30 274 H 24.5467 0.122291 -0.736922 0
M  V30 275 H 27.2087 -0.397802 -1.90797 0
M  V30 276 H 26.3047 0.603061 -3.06218 0
M  V30 277 N 26.6058 1.57591 -0.0167156 0
M  V30 278 C 27.8518 1.91567 0.665582 0
M  V30 279 C 28.1848 0.892298 1.72487 0
M  V30 280 O 27.4598 -0.0867127 1.94307 0
M  V30 281 C 27.7428 3.36069 1.29342 0
M  V30 282 C 27.5958 4.49135 0.244541 0
M  V30 283 C 28.9148 3.803 2.21495 0
M  V30 284 H 26.0338 0.69666 0.240488 0
M  V30 285 H 28.6758 1.89866 -0.0714356 0
M  V30 286 H 26.8258 3.3765 1.92158 0
M  V30 287 H 28.4978 4.59689 -0.385228 0
M  V30 288 H 26.7408 4.3165 -0.431379 0
M  V30 289 H 27.4118 5.47242 0.723207 0
M  V30 290 H 29.8878 3.80377 1.68678 0
M  V30 291 H 28.7638 4.82127 2.62382 0
M  V30 292 H 29.0248 3.15104 3.101 0
M  V30 293 N 28.0839 -0.256276 1.55502 0
M  V30 294 C 29.3299 -0.982884 1.78076 0
M  V30 295 C 29.6849 -1.83319 0.584109 0
M  V30 296 O 28.9779 -1.86875 -0.422877 0
M  V30 297 C 29.1719 -1.88432 3.03691 0
M  V30 298 C 29.0009 -1.12276 4.35459 0
M  V30 299 C 27.7709 -0.831647 4.98409 0
M  V30 300 C 29.9689 -0.504933 5.11815 0
M  V30 301 N 27.9509 -0.0450423 6.13883 0
M  V30 302 C 29.3219 0.146696 6.19826 0
M  V30 303 C 31.3769 -0.414455 4.96172 0
M  V30 304 C 30.0799 0.880103 7.13895 0
M  V30 305 C 32.1059 0.305398 5.90611 0
M  V30 306 C 31.4679 0.945701 6.98023 0
M  V30 307 H 27.5669 -0.341084 0.703694 0
M  V30 308 H 30.1509 -0.256909 1.92998 0
M  V30 309 H 28.3219 -2.58241 2.90114 0
M  V30 310 H 30.0539 -2.54579 3.14598 0
M  V30 311 H 26.8089 -1.14111 4.59647 0
M  V30 312 H 27.2329 0.336079 6.76165 0
M  V30 313 H 31.8749 -0.895163 4.13215 0
M  V30 314 H 29.5929 1.37244 7.9636 0
M  V30 315 H 33.1789 0.375946 5.80584 0
M  V30 316 H 32.0589 1.49383 7.6984 0
M  V30 317 N 29.562 -1.4872 -0.521534 0
M  V30 318 C 30.81 -1.56857 -1.27437 0
M  V30 319 C 31.131 -0.247982 -1.93417 0
M  V30 320 O 30.401 0.731151 -1.81744 0
M  V30 321 H 28.981 -0.577885 -0.473347 0
M  V30 322 H 31.643 -1.85233 -0.606205 0
M  V30 323 H 30.739 -2.35402 -2.0492 0
M  V30 324 N 31.0401 0.771051 -1.3745 0
M  V30 325 C 31.9721 1.89352 -1.29146 0
M  V30 326 C 32.9851 1.61477 -0.207124 0
M  V30 327 O 34.1741 1.72382 -0.463324 0
M  V30 328 C 31.2741 3.24596 -0.974195 0
M  V30 329 C 30.4471 3.80111 -2.16413 0
M  V30 330 C 29.5061 4.93832 -1.81703 0
M  V30 331 O 28.5321 5.09382 -2.54006 0
M  V30 332 N 29.7341 5.75483 -0.761573 0
M  V30 333 H 32.4991 1.96991 -2.25864 0
M  V30 334 H 30.0601 0.950191 -1.31084 0
M  V30 335 H 32.0521 3.98193 -0.722828 0
M  V30 336 H 30.6221 3.12454 -0.0955527 0
M  V30 337 H 29.8421 2.98284 -2.57721 0
M  V30 338 H 31.1301 4.13932 -2.95867 0
M  V30 339 H 30.5281 5.65469 -0.161609 0
M  V30 340 H 29.0851 6.49302 -0.570064 0
M  V30 341 N 32.5182 1.22032 0.997298 0
M  V30 342 C 33.7952 0.950823 1.70935 0
M  V30 343 C 34.1752 -0.535292 2.042 0
M  V30 344 O 33.5232 -1.50217 1.72183 0
M  V30 345 C 33.7332 1.84386 2.96315 0
M  V30 346 C 35.0812 2.09732 3.69185 0
M  V30 347 O 36.1052 1.81798 3.06314 0
M  V30 348 O 34.9642 2.57018 4.82291 0
M  V30 349 H 32.0582 0.357204 0.745878 0
M  V30 350 H 34.6042 1.32997 1.05404 0
M  V30 351 H 33.3762 2.84928 2.68201 0
M  V30 352 H 32.9992 1.46602 3.69586 0
M  V30 353 N 33.9963 -1.19345 1.0293 0
M  V30 354 C 35.2443 -1.88665 0.724574 0
M  V30 355 C 35.5653 -1.80036 -0.749144 0
M  V30 356 O 34.8353 -1.2111 -1.53978 0
M  V30 357 H 33.4153 -0.698406 0.265025 0
M  V30 358 H 36.0773 -1.44885 1.30362 0
M  V30 359 H 35.1733 -2.94987 1.01926 0
M  V30 360 N 35.4744 -0.807222 -1.35358 0
M  V30 361 C 36.4224 -0.20614 -2.31685 0
M  V30 362 C 37.4164 0.644445 -1.56663 0
M  V30 363 O 38.6224 0.537538 -1.71786 0
M  V30 364 H 34.9974 -0.0479006 -0.750473 0
M  V30 365 H 36.9684 -1.03369 -2.79924 0
M  V30 366 C 35.7174 0.630212 -3.41941 0
M  V30 367 H 35.0404 -0.0149558 -3.99797 0
M  V30 368 H 36.4804 1.01716 -4.11619 0
M  V30 369 C 34.9394 1.79601 -2.85035 0
M  V30 370 O 35.4694 2.89351 -2.78637 0
M  V30 371 N 33.6754 1.60774 -2.42074 0
M  V30 372 H 33.2224 0.715009 -2.47478 0
M  V30 373 H 33.1804 2.38933 -2.04349 0
M  V30 374 N 36.9525 1.47285 -0.560781 0
M  V30 375 C 37.8625 2.33846 0.187954 0
M  V30 376 C 38.8785 1.48412 0.908293 0
M  V30 377 O 40.0545 1.81332 0.876388 0
M  V30 378 C 37.1195 3.25178 1.2025 0
M  V30 379 C 36.1805 4.26504 0.489208 0
M  V30 380 C 35.4135 5.13472 1.45542 0
M  V30 381 O 35.6365 5.02959 2.6905 0
M  V30 382 O 34.5705 5.93902 0.977963 0
M  V30 383 H 38.3965 2.99177 -0.522177 0
M  V30 384 H 35.9815 1.45903 -0.321364 0
M  V30 385 H 37.8635 3.81584 1.78805 0
M  V30 386 H 36.5385 2.6247 1.89449 0
M  V30 387 H 35.4455 3.73847 -0.137627 0
M  V30 388 H 36.7785 4.91935 -0.161399 0
M  V30 389 N 38.4306 0.297415 1.54768 0
M  V30 390 C 39.3406 -0.58983 2.27064 0
M  V30 391 C 40.3566 -1.15144 1.30453 0
M  V30 392 O 41.5326 -1.17699 1.63428 0
M  V30 393 C 38.5976 -1.74714 2.9946 0
M  V30 394 C 37.6586 -1.21997 4.11601 0
M  V30 395 C 36.8916 -2.32212 4.80535 0
M  V30 396 O 37.1146 -3.52036 4.48806 0
M  V30 397 O 36.0486 -1.99106 5.68014 0
M  V30 398 H 39.8746 -0.00348199 3.037 0
M  V30 399 H 37.4596 0.0640035 1.49263 0
M  V30 400 H 39.3416 -2.42147 3.44881 0
M  V30 401 H 38.0166 -2.32016 2.25722 0
M  V30 402 H 36.9236 -0.511458 3.70587 0
M  V30 403 H 38.2566 -0.692419 4.87305 0
M  V30 404 N 39.9087 -1.5758 0.0250728 0
M  V30 405 C 40.8417 -2.05473 -0.992777 0
M  V30 406 C 41.8197 -0.949661 -1.31986 0
M  V30 407 O 43.0037 -1.21969 -1.43722 0
M  V30 408 C 40.1307 -2.4734 -2.31389 0
M  V30 409 C 39.1767 -3.68827 -2.1417 0
M  V30 410 S 40.0097 -5.15655 -1.44429 0
M  V30 411 C 41.1657 -5.60814 -2.77918 0
M  V30 412 H 41.3987 -2.91486 -0.585078 0
M  V30 413 H 38.9317 -1.53269 -0.186507 0
M  V30 414 H 40.8897 -2.72127 -3.07339 0
M  V30 415 H 39.5507 -1.6168 -2.69292 0
M  V30 416 H 38.7437 -3.95955 -3.11826 0
M  V30 417 H 38.3457 -3.44172 -1.46362 0
M  V30 418 H 40.6377 -5.64806 -3.74166 0
M  V30 419 H 41.5807 -6.60414 -2.55459 0
M  V30 420 H 41.9887 -4.8845 -2.82979 0
M  V30 421 N 41.3868 0.248026 -1.55636 0
M  V30 422 C 42.6348 0.974295 -1.77065 0
M  V30 423 C 42.9558 1.85897 -0.588849 0
M  V30 424 O 42.2258 1.91868 0.395407 0
M  V30 425 H 40.8058 0.362733 -0.653019 0
M  V30 426 H 43.4678 0.266244 -1.93073 0
M  V30 427 H 42.5638 1.59667 -2.68166 0
M  V30 428 N 42.8649 1.48995 0.513639 0
M  V30 429 C 44.1129 1.57531 1.26604 0
M  V30 430 C 44.4339 0.258236 1.93283 0
M  V30 431 O 43.7039 -0.721502 1.8213 0
M  V30 432 H 42.2839 0.580387 0.470276 0
M  V30 433 H 44.9459 1.85552 0.596373 0
M  V30 434 H 44.0419 2.36486 2.03669 0
M  V30 435 N 44.343 -0.763751 1.37857 0
M  V30 436 C 45.592 -1.51789 1.32827 0
M  V30 437 C 45.905 -1.95426 -0.0823719 0
M  V30 438 O 47.111 -2.70298 -0.255172 0
M  V30 439 C 45.567 -2.74133 2.33193 0
M  V30 440 C 45.175 -2.37562 3.79827 0
M  V30 441 C 46.919 -3.52054 2.37188 0
M  V30 442 C 44.826 -3.56456 4.71904 0
M  V30 443 H 43.756 -0.569896 0.493695 0
M  V30 444 H 46.407 -0.835822 1.63359 0
M  V30 445 H 44.789 -3.4427 1.9569 0
M  V30 446 H 45.963 -1.75157 4.26212 0
M  V30 447 H 44.278 -1.72798 3.78853 0
M  V30 448 H 46.875 -4.40437 3.03182 0
M  V30 449 H 47.218 -3.92486 1.38782 0
M  V30 450 H 47.751 -2.88921 2.7344 0
M  V30 451 H 44.49 -3.21099 5.71468 0
M  V30 452 H 44.01 -4.17938 4.30218 0
M  V30 453 H 45.689 -4.23168 4.89426 0
M  V30 454 N 45.8211 -1.22559 -0.990812 0
M  V30 455 C 47.0491 -1.07779 -1.76611 0
M  V30 456 C 47.4641 0.371513 -1.85109 0
M  V30 457 O 46.8211 1.25737 -1.32274 0
M  V30 458 C 46.8721 -1.68512 -3.19822 0
M  V30 459 O 46.5931 -3.07774 -3.1178 0
M  V30 460 C 48.0941 -1.59035 -4.13791 0
M  V30 461 H 45.3141 -0.377729 -0.554583 0
M  V30 462 H 47.8581 -1.62195 -1.24551 0
M  V30 463 H 46.0131 -1.18154 -3.68942 0
M  V30 464 H 46.4271 -3.37062 -4.01858 0
M  V30 465 H 47.9011 -2.0625 -5.1202 0
M  V30 466 H 48.3781 -0.547273 -4.35777 0
M  V30 467 H 48.9841 -2.08709 -3.70568 0
M  V30 468 N 47.2992 1.18797 -1.03562 0
M  V30 469 C 48.2312 2.21731 -0.580337 0
M  V30 470 C 49.2442 1.59051 0.347349 0
M  V30 471 O 50.4332 1.77929 0.142669 0
M  V30 472 C 47.5332 3.38459 0.172805 0
M  V30 473 C 46.7062 4.3072 -0.761496 0
M  V30 474 C 45.7652 5.26174 -0.0525547 0
M  V30 475 O 44.7912 5.65108 -0.681333 0
M  V30 476 N 45.9932 5.67624 1.21586 0
M  V30 477 H 48.7582 2.61417 -1.46565 0
M  V30 478 H 46.3192 1.33531 -0.915476 0
M  V30 479 H 48.3112 3.99335 0.656793 0
M  V30 480 H 46.8812 2.97507 0.959602 0
M  V30 481 H 46.1012 3.67525 -1.42544 0
M  V30 482 H 47.3892 4.89267 -1.39626 0
M  V30 483 H 46.7872 5.38038 1.74732 0
M  V30 484 H 45.3442 6.30721 1.64421 0
M  V30 485 N 48.7773 0.814389 1.34928 0
M  V30 486 C 50.0053 0.411136 2.02774 0
M  V30 487 C 50.4203 -0.980316 1.61354 0
M  V30 488 O 49.7773 -1.63299 0.814847 0
M  V30 489 C 49.8283 0.493865 3.58111 0
M  V30 490 O 49.5493 1.83047 3.98027 0
M  V30 491 C 51.0503 0.0844174 4.4322 0
M  V30 492 H 48.2703 0.166037 0.650133 0
M  V30 493 H 50.8143 1.10018 1.72384 0
M  V30 494 H 48.9693 -0.147006 3.87121 0
M  V30 495 H 49.3833 1.79872 4.92693 0
M  V30 496 H 50.8573 0.193404 5.51661 0
M  V30 497 H 51.3343 -0.97113 4.28329 0
M  V30 498 H 51.9403 0.69875 4.19521 0
M  V30 499 N 50.2554 -1.46986 0.568584 0
M  V30 500 C 51.6664 -1.86188 0.138219 0
M  V30 501 C 52.0174 -1.47388 -1.29504 0
M  V30 502 O 51.1424 -0.88219 -1.97602 0
M  V30 503 C 51.7374 -3.3792 0.244065 0
M  V30 504 C 50.2964 -3.76171 -0.131335 0
M  V30 505 C 49.4434 -2.71027 0.586465 0
M  V30 506 H 52.3944 -1.38342 0.777645 0
M  V30 507 H 52.4154 -3.76729 -0.534351 0
M  V30 508 H 51.9274 -3.66128 1.28731 0
M  V30 509 H 50.0284 -3.5358 -1.17526 0
M  V30 510 H 50.1414 -4.78523 0.235146 0
M  V30 511 H 48.5054 -2.54684 0.0282722 0
M  V30 512 H 49.2884 -3.02077 1.63109 0
M  V30 513 N 51.7335 -0.305618 -1.54608 0
M  V30 514 C 52.9635 0.304333 -2.04346 0
M  V30 515 C 53.3715 1.47715 -1.18224 0
M  V30 516 O 52.7145 1.82591 -0.201577 0
M  V30 517 C 52.7765 0.819031 -3.50046 0
M  V30 518 C 52.4405 -0.22912 -4.56425 0
M  V30 519 C 53.4375 -1.05914 -5.08997 0
M  V30 520 C 51.1225 -0.372148 -5.0092 0
M  V30 521 C 53.1165 -2.01809 -6.04609 0
M  V30 522 C 50.8035 -1.33454 -5.9635 0
M  V30 523 C 51.8015 -2.15599 -6.48079 0
M  V30 524 O 51.4895 -3.10205 -7.41639 0
M  V30 525 H 51.2215 0.0693996 -0.672428 0
M  V30 526 H 53.7755 -0.444548 -2.00532 0
M  V30 527 H 52.0055 1.61852 -3.51199 0
M  V30 528 H 53.6945 1.34537 -3.82955 0
M  V30 529 H 54.4605 -0.959538 -4.75413 0
M  V30 530 H 50.3395 0.257304 -4.60281 0
M  V30 531 H 53.8835 -2.65966 -6.44909 0
M  V30 532 H 49.7805 -1.43485 -6.29351 0
M  V30 533 H 50.5485 -3.05237 -7.59455 0
M  V30 534 N 53.2116 1.57565 -0.0334293 0
M  V30 535 C 54.1586 2.10478 0.946981 0
M  V30 536 C 55.1286 1.00787 1.32027 0
M  V30 537 O 56.3136 1.28232 1.41284 0
M  V30 538 C 53.4536 2.63994 2.22263 0
M  V30 539 C 52.5666 3.87709 1.90541 0
M  V30 540 C 51.7016 4.29604 3.12433 0
M  V30 541 C 50.7406 5.46065 2.76549 0
M  V30 542 N 49.8776 5.83096 3.9108 0
M  V30 543 H 54.7176 2.93963 0.488846 0
M  V30 544 H 52.2546 1.45296 0.22969 0
M  V30 545 H 54.2126 2.93114 2.96884 0
M  V30 546 H 52.8426 1.83333 2.65685 0
M  V30 547 H 51.8946 3.65291 1.06144 0
M  V30 548 H 53.2066 4.72403 1.60116 0
M  V30 549 H 52.3606 4.60182 3.9537 0
M  V30 550 H 51.0996 3.43685 3.46023 0
M  V30 551 H 50.1046 5.15176 1.92026 0
M  V30 552 H 51.3296 6.33685 2.44171 0
M  V30 553 H 49.2756 5.00132 4.24504 0
M  V30 554 H 49.1926 6.6244 3.64293 0
M  V30 555 H 50.4606 6.18282 4.74708 0
M  V30 556 N 54.6897 -0.239769 1.55765 0
M  V30 557 C 55.9357 -0.968234 1.78194 0
M  V30 558 C 56.2687 -1.84701 0.599938 0
M  V30 559 O 55.5437 -1.9031 -0.401524 0
M  V30 560 C 55.8267 -1.8227 3.10564 0
M  V30 561 C 55.6797 -0.971633 4.3918 0
M  V30 562 C 56.9987 -2.80388 3.39221 0
M  V30 563 H 54.1177 -0.350572 0.648281 0
M  V30 564 H 56.7597 -0.238259 1.885 0
M  V30 565 H 54.9097 -2.44507 3.01908 0
M  V30 566 H 56.5817 -0.367408 4.59835 0
M  V30 567 H 54.8247 -0.276276 4.32919 0
M  V30 568 H 55.4957 -1.60346 5.28198 0
M  V30 569 H 57.9717 -2.28287 3.47885 0
M  V30 570 H 56.8477 -3.3729 4.33044 0
M  V30 571 H 57.1087 -3.57212 2.60484 0
M  V30 572 N 56.1678 -1.49265 -0.50573 0
M  V30 573 C 57.3928 -1.62478 -1.28902 0
M  V30 574 C 57.8178 -0.294332 -1.85783 0
M  V30 575 O 57.1758 0.737412 -1.65626 0
M  V30 576 C 57.2238 -2.69268 -2.39848 0
M  V30 577 O 56.3278 -2.28113 -3.43567 0
M  V30 578 H 55.6688 -0.54399 -0.380751 0
M  V30 579 H 58.1988 -1.95421 -0.605952 0
M  V30 580 H 58.2088 -2.91291 -2.85681 0
M  V30 581 H 56.8838 -3.65846 -1.97812 0
M  V30 582 H 55.4608 -2.16401 -3.03685 0
M  V30 583 N 57.6459 0.756429 -1.3826 0
M  V30 584 C 58.8949 1.51082 -1.3363 0
M  V30 585 C 59.2079 1.95467 0.0720068 0
M  V30 586 O 60.4139 2.7043 0.240834 0
M  V30 587 C 58.8699 2.72893 -2.34644 0
M  V30 588 C 58.4779 2.35544 -3.81081 0
M  V30 589 C 60.2219 3.50791 -2.39052 0
M  V30 590 C 58.1289 3.53948 -4.73787 0
M  V30 591 H 57.0589 0.56727 -0.49671 0
M  V30 592 H 59.7099 0.827147 -1.638 0
M  V30 593 H 58.0919 3.43227 -1.97513 0
M  V30 594 H 59.2659 1.72894 -4.27135 0
M  V30 595 H 57.5809 1.70786 -3.79764 0
M  V30 596 H 60.1779 4.38823 -3.05513 0
M  V30 597 H 60.5209 3.91745 -1.40861 0
M  V30 598 H 61.0539 2.87467 -2.74968 0
M  V30 599 H 57.7929 3.18064 -5.73163 0
M  V30 600 H 57.3129 4.15651 -4.32428 0
M  V30 601 H 58.9919 4.20566 -4.91663 0
M  V30 602 N 59.124 1.23083 0.984299 0
M  V30 603 C 60.349 1.088 1.76571 0
M  V30 604 C 60.774 -0.356657 1.84688 0
M  V30 605 O 60.132 -1.25788 1.30565 0
M  V30 606 C 60.18 1.71371 3.17277 0
M  V30 607 O 59.284 0.973213 4.00752 0
M  V30 608 H 58.625 0.381599 0.543395 0
M  V30 609 H 61.155 1.63057 1.23587 0
M  V30 610 H 61.165 1.76449 3.67872 0
M  V30 611 H 59.84 2.76493 3.10684 0
M  V30 612 H 58.417 0.999078 3.59267 0
M  V30 613 N 60.6021 -1.18246 1.0419 0
M  V30 614 C 61.8501 -1.87886 0.744543 0
M  V30 615 C 62.1711 -1.8082 -0.730006 0
M  V30 616 O 61.4411 -1.22736 -1.52685 0
M  V30 617 H 60.0211 -0.695556 0.272417 0
M  V30 618 H 62.6831 -1.43494 1.31892 0
M  V30 619 H 61.7791 -2.9389 1.05049 0
M  V30 620 N 62.0802 -0.821533 -1.34494 0
M  V30 621 C 63.3082 -0.421884 -2.02553 0
M  V30 622 C 63.7232 0.971745 -1.61872 0
M  V30 623 O 63.0802 1.62864 -0.823496 0
M  V30 624 C 63.1312 -0.51285 -3.57844 0
M  V30 625 O 62.8522 -1.85155 -3.97051 0
M  V30 626 C 64.3532 -0.107921 -4.43169 0
M  V30 627 H 61.5732 -0.169482 -0.649243 0
M  V30 628 H 64.1172 -1.1093 -1.71798 0
M  V30 629 H 62.2722 0.126474 -3.87193 0
M  V30 630 H 62.6862 -1.82482 -4.91732 0
M  V30 631 H 64.1602 -0.222657 -5.51551 0
M  V30 632 H 64.6372 0.948401 -4.28838 0
M  V30 633 H 65.2432 -0.720989 -4.19144 0
M  V30 634 N 63.5583 1.46682 -0.576371 0
M  V30 635 C 64.7863 2.06798 -0.0649635 0
M  V30 636 C 65.2013 1.42612 1.23723 0
M  V30 637 O 64.5583 0.529203 1.74659 0
M  V30 638 C 64.6093 3.6132 0.114202 0
M  V30 639 O 64.3303 4.23104 -1.13644 0
M  V30 640 C 65.8313 4.38349 0.66069 0
M  V30 641 H 63.0513 0.668778 -0.0545616 0
M  V30 642 H 65.5953 1.88404 -0.795237 0
M  V30 643 H 63.7503 3.79162 0.794673 0
M  V30 644 H 64.1643 5.15894 -0.946253 0
M  V30 645 H 65.6383 5.47081 0.73526 0
M  V30 646 H 66.1153 4.05953 1.67627 0
M  V30 647 H 66.7213 4.25297 0.0152951 0
M  V30 648 N 65.0364 0.313813 1.54444 0
M  V30 649 C 66.2824 -0.292108 2.00685 0
M  V30 650 C 66.6154 -1.52548 1.20177 0
M  V30 651 O 65.8904 -1.92452 0.281531 0
M  V30 652 C 66.1734 -0.635968 3.5444 0
M  V30 653 C 66.0264 0.607437 4.4568 0
M  V30 654 C 67.3454 -1.45747 4.15266 0
M  V30 655 H 64.4644 -0.104697 0.729526 0
M  V30 656 H 67.1064 0.428457 1.85106 0
M  V30 657 H 65.2564 -1.24986 3.67846 0
M  V30 658 H 66.9284 1.24581 4.44159 0
M  V30 659 H 65.1714 1.23822 4.15753 0
M  V30 660 H 65.8424 0.322515 5.51057 0
M  V30 661 H 68.3184 -0.938645 4.05375 0
M  V30 662 H 67.1944 -1.66683 5.2298 0
M  V30 663 H 67.4554 -2.45063 3.67963 0
M  V30 664 N 66.5145 -1.57545 0.0417849 0
M  V30 665 C 67.7635 -1.91494 -0.633492 0
M  V30 666 C 68.0765 -0.921084 -1.72556 0
M  V30 667 O 69.2825 -1.15228 -2.45835 0
M  V30 668 C 67.7385 -3.40072 -1.17808 0
M  V30 669 C 67.3465 -4.47843 -0.118633 0
M  V30 670 C 69.0905 -3.8307 -1.82915 0
M  V30 671 C 66.9975 -5.87529 -0.675578 0
M  V30 672 H 65.9275 -0.714653 -0.24039 0
M  V30 673 H 68.5785 -1.83175 0.109148 0
M  V30 674 H 66.9605 -3.43364 -1.97274 0
M  V30 675 H 68.1345 -4.56128 0.654494 0
M  V30 676 H 66.4495 -4.14128 0.434414 0
M  V30 677 H 69.0465 -4.84794 -2.25563 0
M  V30 678 H 69.3895 -3.1881 -2.67705 0
M  V30 679 H 69.9225 -3.82255 -1.10119 0
M  V30 680 H 66.6615 -6.55362 0.134475 0
M  V30 681 H 66.1815 -5.82824 -1.4169 0
M  V30 682 H 67.8605 -6.36491 -1.1614 0
M  V30 683 N 67.9926 0.231505 -1.5589 0
M  V30 684 C 68.9226 1.29022 -1.94617 0
M  V30 685 C 69.9036 1.4941 -0.813067 0
M  V30 686 O 71.0886 1.6176 -1.07459 0
M  V30 687 C 68.2186 2.64199 -2.25424 0
M  V30 688 C 67.1726 2.58484 -3.41131 0
M  V30 689 C 66.4986 3.97599 -3.57518 0
M  V30 690 C 67.7986 2.1413 -4.76388 0
M  V30 691 H 69.4926 0.968563 -2.83301 0
M  V30 692 H 67.0386 0.464479 -1.36303 0
M  V30 693 H 68.9916 3.38413 -2.51107 0
M  V30 694 H 67.7156 2.98032 -1.33583 0
M  V30 695 H 66.3746 1.86727 -3.15481 0
M  V30 696 H 66.0226 4.28723 -2.6307 0
M  V30 697 H 65.7226 3.94659 -4.35337 0
M  V30 698 H 67.2466 4.7349 -3.85538 0
M  V30 699 H 68.6606 2.78083 -5.01341 0
M  V30 700 H 67.0576 2.2227 -5.57419 0
M  V30 701 H 68.1276 1.09331 -4.72414 0
M  V30 702 N 69.4707 1.49531 0.497807 0
M  V30 703 C 70.6987 1.62893 1.27567 0
M  V30 704 C 71.1137 0.301585 1.86376 0
M  V30 705 O 70.4707 -0.713335 1.67982 0
M  V30 706 C 70.5217 2.70013 2.40364 0
M  V30 707 O 70.2427 3.976 1.83972 0
M  V30 708 C 71.7437 2.94109 3.31685 0
M  V30 709 H 68.9637 0.548298 0.386794 0
M  V30 710 H 71.5077 1.95584 0.597245 0
M  V30 711 H 69.6627 2.40092 3.04031 0
M  V30 712 H 70.0767 4.56631 2.58047 0
M  V30 713 H 71.5507 3.72788 4.07104 0
M  V30 714 H 72.0277 2.04147 3.88871 0
M  V30 715 H 72.6337 3.2546 2.73781 0
M  V30 716 N 70.9488 -0.749086 1.3866 0
M  V30 717 C 72.1888 -1.52112 1.36534 0
M  V30 718 C 72.5528 -1.91951 -0.0432316 0
M  V30 719 O 73.7538 -2.68132 -0.189396 0
M  V30 720 C 72.0248 -2.73704 2.29828 0
M  V30 721 S 73.5838 -3.63519 2.45763 0
M  V30 722 H 70.4018 -0.520482 0.484375 0
M  V30 723 H 73.0038 -0.878963 1.74627 0
M  V30 724 H 71.7078 -2.42552 3.31054 0
M  V30 725 H 71.2388 -3.4286 1.929 0
M  V30 726 H 73.2538 -4.66712 1.68505 0
M  V30 727 N 72.4269 -1.23603 -0.977757 0
M  V30 728 C 73.8379 -1.06424 -1.53398 0
M  V30 729 C 74.1889 0.367578 -1.92726 0
M  V30 730 O 73.3139 1.25465 -1.76316 0
M  V30 731 C 73.9089 -1.92568 -2.78753 0
M  V30 732 C 72.4679 -1.79642 -3.30765 0
M  V30 733 C 71.6149 -1.88111 -2.03739 0
M  V30 734 H 74.5659 -1.37227 -0.797152 0
M  V30 735 H 74.5869 -1.45203 -3.51705 0
M  V30 736 H 74.0989 -2.96771 -2.50098 0
M  V30 737 H 72.1999 -0.782325 -3.64294 0
M  V30 738 H 72.3129 -2.63174 -4.00345 0
M  V30 739 H 70.6769 -1.31723 -2.17994 0
M  V30 740 H 71.4599 -2.93875 -1.77461 0
M  V30 741 N 73.905 1.17692 -1.04816 0
M  V30 742 C 74.837 2.21103 -0.603822 0
M  V30 743 C 75.85 1.59411 0.33046 0
M  V30 744 O 77.039 1.7807 0.12379 0
M  V30 745 C 74.139 3.38623 0.136898 0
M  V30 746 C 73.312 4.29888 -0.807137 0
M  V30 747 C 72.371 5.26088 -0.10836 0
M  V30 748 O 71.397 5.64353 -0.741232 0
M  V30 749 N 72.599 5.68882 1.15558 0
M  V30 750 H 75.364 2.59848 -1.49329 0
M  V30 751 H 72.925 1.32553 -0.929587 0
M  V30 752 H 74.917 4.00009 0.614401 0
M  V30 753 H 73.487 2.98508 0.927993 0
M  V30 754 H 72.707 3.65993 -1.46434 0
M  V30 755 H 73.995 4.87759 -1.44807 0
M  V30 756 H 73.393 5.39861 1.69015 0
M  V30 757 H 71.95 6.32429 1.57722 0
M  V30 758 N 75.3831 0.828654 1.34056 0
M  V30 759 C 76.6131 0.431993 2.02033 0
M  V30 760 C 77.0211 -0.96844 1.62536 0
M  V30 761 O 76.3641 -1.6391 0.829408 0
M  V30 762 C 76.4261 0.461224 3.56529 0
M  V30 763 C 76.0901 1.81599 4.1937 0
M  V30 764 C 77.0871 2.7777 4.39477 0
M  V30 765 C 74.7721 2.10604 4.56017 0
M  V30 766 C 76.7661 4.01115 4.95364 0
M  V30 767 C 74.4531 3.34207 5.11614 0
M  V30 768 C 75.4511 4.2928 5.31232 0
M  V30 769 O 75.1391 5.50699 5.8565 0
M  V30 770 H 74.8711 0.170943 0.654029 0
M  V30 771 H 77.4251 1.11988 1.72185 0
M  V30 772 H 75.6551 -0.283388 3.8566 0
M  V30 773 H 77.3441 0.0838149 4.05813 0
M  V30 774 H 78.1101 2.56659 4.11523 0
M  V30 775 H 73.9891 1.37402 4.40047 0
M  V30 776 H 77.5331 4.75333 5.10592 0
M  V30 777 H 73.4301 3.55179 5.38997 0
M  V30 778 H 74.1981 5.52298 6.04077 0
M  V30 779 N 76.8612 -1.46375 0.584142 0
M  V30 780 C 78.2722 -1.86031 0.157959 0
M  V30 781 C 78.6232 -1.48753 -1.27933 0
M  V30 782 O 77.7482 -0.903098 -1.96655 0
M  V30 783 C 78.3432 -3.37642 0.279892 0
M  V30 784 C 76.9022 -3.76289 -0.09143 0
M  V30 785 C 76.0492 -2.7039 0.615178 0
M  V30 786 H 79.0002 -1.37509 0.792274 0
M  V30 787 H 79.0212 -3.77275 -0.494364 0
M  V30 788 H 78.5332 -3.64742 1.32607 0
M  V30 789 H 76.6342 -3.54806 -1.13769 0
M  V30 790 H 76.7472 -4.78246 0.285886 0
M  V30 791 H 75.1112 -2.5464 0.0552833 0
M  V30 792 H 75.8942 -3.0033 1.66303 0
M  V30 793 N 78.3393 -0.321999 -1.54275 0
M  V30 794 C 79.5873 0.280489 -2.00144 0
M  V30 795 C 79.9083 1.52777 -1.21178 0
M  V30 796 O 79.1783 1.9338 -0.313187 0
M  V30 797 H 77.7583 0.106632 -0.73935 0
M  V30 798 H 80.4203 -0.438184 -1.8991 0
M  V30 799 H 79.5163 0.537972 -3.07428 0
M  V30 800 N 79.8174 1.5752 -0.0501392 0
M  V30 801 C 81.0424 1.97376 0.636997 0
M  V30 802 C 81.4674 0.927466 1.63645 0
M  V30 803 O 80.8254 -0.10941 1.8097 0
M  V30 804 C 80.8734 3.36304 1.30123 0
M  V30 805 O 79.9774 3.34156 2.41689 0
M  V30 806 H 79.3184 0.642998 0.165679 0
M  V30 807 H 81.8484 2.04258 -0.118233 0
M  V30 808 H 81.8584 3.73008 1.65315 0
M  V30 809 H 80.5334 4.11993 0.568746 0
M  V30 810 H 79.1104 3.09196 2.08451 0
M  V30 811 N 81.2955 -0.223234 1.56011 0
M  V30 812 C 82.2055 -1.29766 1.95443 0
M  V30 813 C 83.2215 -1.51373 0.858028 0
M  V30 814 O 84.3975 -1.64536 1.16146 0
M  V30 815 C 81.4625 -2.62772 2.26167 0
M  V30 816 C 80.5235 -2.49482 3.49367 0
M  V30 817 C 79.7565 -3.76145 3.78616 0
M  V30 818 O 79.9795 -4.79087 3.09568 0
M  V30 819 O 78.9135 -3.73358 4.72109 0
M  V30 820 H 82.7395 -0.99309 2.87004 0
M  V30 821 H 80.3245 -0.425958 1.43199 0
M  V30 822 H 82.2065 -3.41327 2.47131 0
M  V30 823 H 80.8815 -2.92913 1.37781 0
M  V30 824 H 79.7885 -1.69133 3.33684 0
M  V30 825 H 81.1215 -2.2428 4.38131 0
M  V30 826 N 82.7736 -1.49793 -0.48987 0
M  V30 827 C 84.0226 -1.59085 -1.23995 0
M  V30 828 C 84.3356 -0.287907 -1.9347 0
M  V30 829 O 85.5416 -0.259506 -2.70257 0
M  V30 830 C 83.9976 -2.80736 -2.252 0
M  V30 831 C 83.6056 -4.17833 -1.61614 0
M  V30 832 C 85.3496 -2.99364 -3.00967 0
M  V30 833 C 83.2566 -5.30693 -2.60996 0
M  V30 834 H 82.1866 -0.592372 -0.466488 0
M  V30 835 H 84.8376 -1.76197 -0.51252 0
M  V30 836 H 83.2196 -2.57142 -3.01154 0
M  V30 837 H 84.3936 -4.51608 -0.915774 0
M  V30 838 H 82.7086 -4.04656 -0.981977 0
M  V30 839 H 85.3056 -3.80851 -3.75308 0
M  V30 840 H 85.6486 -2.10356 -3.59244 0
M  V30 841 H 86.1816 -3.2305 -2.32128 0
M  V30 842 H 82.9206 -6.21796 -2.07485 0
M  V30 843 H 82.4406 -5.01359 -3.2924 0
M  V30 844 H 84.1196 -5.6049 -3.23202 0
M  V30 845 N 84.2517 0.741722 -1.39055 0
M  V30 846 C 85.1817 1.869 -1.39966 0
M  V30 847 C 86.1627 1.6804 -0.26392 0
M  V30 848 O 87.3477 1.88458 -0.468755 0
M  V30 849 C 84.4777 3.24572 -1.23574 0
M  V30 850 C 83.4317 3.58056 -2.34477 0
M  V30 851 C 82.7577 4.94593 -2.0318 0
M  V30 852 C 84.0577 3.61716 -3.76774 0
M  V30 853 H 85.7517 1.86395 -2.34302 0
M  V30 854 H 83.2977 0.895361 -1.1278 0
M  V30 855 H 85.2507 4.031 -1.22834 0
M  V30 856 H 83.9747 3.25587 -0.257045 0
M  V30 857 H 82.6337 2.81854 -2.34423 0
M  V30 858 H 82.2817 4.92181 -1.03765 0
M  V30 859 H 81.9817 5.17964 -2.77465 0
M  V30 860 H 83.5057 5.75486 -2.04079 0
M  V30 861 H 84.9197 4.30335 -3.78794 0
M  V30 862 H 83.3167 3.96603 -4.50362 0
M  V30 863 H 84.3867 2.61672 -4.08235 0
M  V30 864 N 85.7298 1.2412 0.971189 0
M  V30 865 C 86.9758 1.09048 1.71698 0
M  V30 866 C 87.3308 -0.367442 1.88859 0
M  V30 867 O 86.6238 -1.26792 1.43646 0
M  V30 868 C 86.8178 1.75983 3.11071 0
M  V30 869 C 86.6468 3.28133 3.07504 0
M  V30 870 C 85.4168 3.97331 3.1218 0
M  V30 871 C 87.6148 4.24773 2.89952 0
M  V30 872 N 85.5968 5.3639 2.98596 0
M  V30 873 C 86.9678 5.50806 2.84627 0
M  V30 874 C 89.0228 4.15392 2.74506 0
M  V30 875 C 87.7258 6.68533 2.65437 0
M  V30 876 C 89.7518 5.32793 2.56682 0
M  V30 877 C 89.1138 6.57756 2.52063 0
M  V30 878 H 85.2128 0.453632 0.636979 0
M  V30 879 H 87.7968 1.56983 1.15171 0
M  V30 880 H 85.9678 1.30566 3.65796 0
M  V30 881 H 87.6998 1.53803 3.74335 0
M  V30 882 H 84.4548 3.48473 3.20724 0
M  V30 883 H 84.8788 6.09321 2.95054 0
M  V30 884 H 89.5208 3.19543 2.76861 0
M  V30 885 H 87.2388 7.64509 2.61825 0
M  V30 886 H 90.8248 5.27383 2.4568 0
M  V30 887 H 89.7048 7.4707 2.38446 0
M  V30 888 N 87.2079 -1.17134 1.05439 0
M  V30 889 C 88.1399 -2.2078 0.615539 0
M  V30 890 C 89.1529 -1.59584 -0.322001 0
M  V30 891 O 90.3419 -1.78133 -0.114344 0
M  V30 892 C 87.4419 -3.38691 -0.118938 0
M  V30 893 C 86.6149 -4.29454 0.829924 0
M  V30 894 C 85.6739 -5.26024 0.136258 0
M  V30 895 O 84.6999 -5.63952 0.77115 0
M  V30 896 N 85.9019 -5.69487 -1.1254 0
M  V30 897 H 88.6669 -2.59052 1.50705 0
M  V30 898 H 86.2279 -1.32058 0.936603 0
M  V30 899 H 88.2199 -4.00329 -0.593179 0
M  V30 900 H 86.7899 -2.98996 -0.91215 0
M  V30 901 H 86.0099 -3.65211 1.48373 0
M  V30 902 H 87.2979 -4.86984 1.47392 0
M  V30 903 H 86.6959 -5.4075 -1.6615 0
M  V30 904 H 85.2529 -6.33257 -1.54366 0
M  V30 905 N 88.686 -0.835752 -1.33615 0
M  V30 906 C 89.636 -0.238856 -2.26745 0
M  V30 907 C 90.62 0.604343 -1.49119 0
M  V30 908 O 91.812 0.456822 -1.71003 0
M  V30 909 C 88.941 0.587725 -3.38232 0
M  V30 910 C 88.027 -0.266811 -4.2326 0
M  V30 911 N 88.418 -1.34403 -4.87616 0
M  V30 912 C 86.716 -0.0533131 -4.45968 0
M  V30 913 C 87.417 -1.86819 -5.50884 0
M  V30 914 N 86.393 -1.17013 -5.30857 0
M  V30 915 H 90.195 -1.06266 -2.74016 0
M  V30 916 H 87.709 -0.679881 -1.47483 0
M  V30 917 H 89.706 1.03161 -4.03935 0
M  V30 918 H 88.366 1.40954 -2.9251 0
M  V30 919 H 89.377 -1.7269 -4.88261 0
M  V30 920 H 86.054 0.735312 -4.10974 0
M  V30 921 H 87.444 -2.7701 -6.1214 0
M  V30 922 N 90.1641 1.46063 -0.591896 0
M  V30 923 C 91.1121 2.32124 0.148739 0
M  V30 924 C 92.1061 1.45035 0.875286 0
M  V30 925 O 93.3121 1.61609 0.792632 0
M  V30 926 H 89.6871 0.749024 0.066832 0
M  V30 927 H 91.6581 2.92392 -0.595783 0
M  V30 928 C 90.4071 3.28373 1.1431 0
M  V30 929 H 89.7301 3.95371 0.59346 0
M  V30 930 H 91.1701 3.91352 1.63155 0
M  V30 931 C 89.6291 2.54393 2.20875 0
M  V30 932 O 90.1591 2.31373 3.28374 0
M  V30 933 N 88.3651 2.14797 1.95731 0
M  V30 934 H 87.9121 2.33719 1.08319 0
M  V30 935 H 87.8701 1.65619 2.67241 0
M  V30 936 N 91.6422 0.330177 1.54103 0
M  V30 937 C 92.9192 -0.325007 1.92881 0
M  V30 938 C 93.2992 -1.6934 1.26045 0
M  V30 939 O 92.6472 -2.24855 0.406526 0
M  V30 940 C 92.8572 -0.410634 3.46576 0
M  V30 941 C 94.2052 -0.667801 4.19316 0
M  V30 942 O 95.2292 -0.49329 3.52768 0
M  V30 943 O 94.0882 -1.00491 5.37181 0
M  V30 944 H 91.1822 -0.186873 0.80561 0
M  V30 945 H 93.7282 0.380376 1.65382 0
M  V30 946 H 92.5002 0.550164 3.87413 0
M  V30 947 H 92.1232 -1.16333 3.802 0
M  V30 948 N 93.1203 -1.57491 0.0584922 0
M  V30 949 C 94.0673 -2.11958 -0.913376 0
M  V30 950 C 95.0373 -1.02875 -1.30407 0
M  V30 951 O 96.2223 -1.30464 -1.39226 0
M  V30 952 C 93.3623 -2.67497 -2.18035 0
M  V30 953 C 92.4753 -3.90691 -1.84349 0
M  V30 954 C 91.6103 -4.3452 -3.05559 0
M  V30 955 C 90.6493 -5.50395 -2.67827 0
M  V30 956 N 89.7863 -5.89244 -3.81754 0
M  V30 957 H 94.6263 -2.94704 -0.442017 0
M  V30 958 H 92.1633 -1.45643 -0.206545 0
M  V30 959 H 94.1213 -2.978 -2.92183 0
M  V30 960 H 92.7513 -1.87537 -2.62735 0
M  V30 961 H 91.8033 -3.66934 -1.00319 0
M  V30 962 H 93.1153 -4.7489 -1.5258 0
M  V30 963 H 92.2693 -4.66414 -3.87998 0
M  V30 964 H 91.0083 -3.49147 -3.40511 0
M  V30 965 H 90.0133 -5.18165 -1.83806 0
M  V30 966 H 91.2383 -6.3749 -2.34059 0
M  V30 967 H 89.1843 -5.06823 -4.16493 0
M  V30 968 H 89.1013 -6.68151 -3.53708 0
M  V30 969 H 90.3693 -6.25756 -4.64811 0
M  V30 970 N 94.5984 0.214957 -1.56127 0
M  V30 971 C 95.5464 1.28601 -1.93816 0
M  V30 972 C 96.5404 1.48175 -0.821016 0
M  V30 973 O 97.7464 1.49271 -1.0059 0
M  V30 974 H 94.1214 0.431302 -0.616022 0
M  V30 975 H 96.0924 0.940991 -2.83175 0
M  V30 976 C 94.8414 2.62779 -2.27689 0
M  V30 977 H 94.1644 2.48527 -3.13168 0
M  V30 978 H 95.6044 3.36517 -2.57939 0
M  V30 979 C 94.0634 3.18285 -1.10436 0
M  V30 980 O 94.5934 4.00002 -0.368945 0
M  V30 981 N 92.7994 2.7675 -0.886433 0
M  V30 982 H 92.3464 2.10404 -1.48619 0
M  V30 983 H 92.3044 3.14229 -0.103656 0
M  V30 984 N 96.0765 1.50051 0.48192 0
M  V30 985 C 97.3255 1.59741 1.23149 0
M  V30 986 C 97.6385 0.298163 1.93314 0
M  V30 987 O 98.8445 0.273835 2.70116 0
M  V30 988 C 97.3005 2.81926 2.23708 0
M  V30 989 C 96.9085 4.18685 1.59396 0
M  V30 990 C 98.6525 3.00956 2.99375 0
M  V30 991 C 96.5595 5.3207 2.58178 0
M  V30 992 H 95.4895 0.594838 0.46334 0
M  V30 993 H 98.1405 1.76467 0.503169 0
M  V30 994 H 96.5225 2.58736 2.99786 0
M  V30 995 H 97.6965 4.52088 0.891811 0
M  V30 996 H 96.0115 4.05171 0.960503 0
M  V30 997 H 98.6085 3.82836 3.73283 0
M  V30 998 H 98.9515 2.12258 3.58123 0
M  V30 999 H 99.4845 3.24277 2.30411 0
M  V30 1000 H 96.2235 6.22888 2.04184 0
M  V30 1001 H 95.7435 5.03098 3.26577 0
M  V30 1002 H 97.4225 5.62196 3.20225 0
M  V30 1003 N 97.5546 -0.734337 1.39446 0
M  V30 1004 C 98.8026 -1.49096 1.36436 0
M  V30 1005 C 99.1236 -1.94961 -0.0388255 0
M  V30 1006 O 98.3936 -1.69033 -0.990191 0
M  V30 1007 H 96.9736 -0.5531 0.502085 0
M  V30 1008 H 99.6356 -0.871725 1.74319 0
M  V30 1009 H 98.7316 -2.37276 2.02747 0
M  V30 1010 N 99.0327 -1.24633 -0.964593 0
M  V30 1011 C 100.281 -1.08573 -1.70459 0
M  V30 1012 C 100.602 0.375655 -1.91347 0
M  V30 1013 O 99.8717 1.26779 -1.49345 0
M  V30 1014 H 98.4517 -0.398784 -0.631649 0
M  V30 1015 H 101.114 -1.56601 -1.16026 0
M  V30 1016 H 100.21 -1.58623 -2.68785 0
M  V30 1017 N 100.511 1.16574 -1.06058 0
M  V30 1018 C 101.788 1.83048 -0.689416 0
M  V30 1019 C 102.168 1.94122 0.829443 0
M  V30 1020 O 101.516 1.48249 1.7388 0
M  V30 1021 C 101.726 3.20186 -1.38859 0
M  V30 1022 C 103.074 3.95989 -1.53226 0
M  V30 1023 O 104.098 3.29696 -1.3483 0
M  V30 1024 O 102.957 5.14813 -1.83384 0
M  V30 1025 H 100.051 0.790258 -0.243764 0
M  V30 1026 H 102.597 1.23797 -1.16071 0
M  V30 1027 H 101.369 3.07146 -2.4244 0
M  V30 1028 H 100.992 3.87112 -0.907216 0
M  V30 1029 N 101.989 0.842826 1.3317 0
M  V30 1030 C 102.899 0.281444 2.32906 0
M  V30 1031 C 103.915 -0.594587 1.63526 0
M  V30 1032 O 105.091 -0.49777 1.95152 0
M  V30 1033 C 102.156 -0.530929 3.42611 0
M  V30 1034 C 101.217 0.369843 4.27704 0
M  V30 1035 C 100.45 -0.403853 5.3217 0
M  V30 1036 O 100.673 -1.63513 5.46461 0
M  V30 1037 O 99.6069 0.224199 6.01482 0
M  V30 1038 H 103.433 1.10744 2.82789 0
M  V30 1039 H 101.018 0.60545 1.36582 0
M  V30 1040 H 102.9 -0.992437 4.09547 0
M  V30 1041 H 101.575 -1.33392 2.94938 0
M  V30 1042 H 100.482 0.879275 3.6362 0
M  V30 1043 H 101.815 1.13771 4.78871 0
M  V30 1044 N 103.467 -1.45747 0.599634 0
M  V30 1045 C 104.744 -1.95585 0.0240846 0
M  V30 1046 C 105.124 -1.54217 -1.44154 0
M  V30 1047 O 104.472 -0.800903 -2.14004 0
M  V30 1048 C 104.682 -3.48344 0.21385 0
M  V30 1049 C 106.03 -4.24504 0.0904902 0
M  V30 1050 O 107.054 -3.55911 0.143558 0
M  V30 1051 O 105.913 -5.46491 -0.0310766 0
M  V30 1052 H 103.007 -0.82602 -0.0402478 0
M  V30 1053 H 105.553 -1.55951 0.669139 0
M  V30 1054 H 104.325 -3.71397 1.23206 0
M  V30 1055 H 103.948 -3.9485 -0.466842 0
M  V30 1056 N 104.945 -0.338344 -1.53925 0
M  V30 1057 C 106.222 0.314774 -1.93051 0
M  V30 1058 C 106.602 1.68669 -1.26941 0
M  V30 1059 O 105.95 2.24636 -0.418445 0
M  V30 1060 C 106.16 0.392249 -3.46789 0
M  V30 1061 C 107.508 0.645554 -4.19664 0
M  V30 1062 O 108.532 0.474575 -3.53024 0
M  V30 1063 O 107.391 0.976408 -5.37707 0
M  V30 1064 H 104.485 0.182598 -0.80659 0
M  V30 1065 H 107.031 -0.389141 -1.65178 0
M  V30 1066 H 105.803 -0.570702 -3.87116 0
M  V30 1067 H 105.426 1.14316 -3.80812 0
M  V30 1068 N 106.423 1.57458 -0.0668435 0
M  V30 1069 C 107.37 2.12439 0.902122 0
M  V30 1070 C 108.34 1.03565 1.2986 0
M  V30 1071 O 109.525 1.312 1.38532 0
M  V30 1072 C 106.665 2.6865 2.16614 0
M  V30 1073 C 105.778 3.91663 1.82274 0
M  V30 1074 C 104.913 4.36134 3.0325 0
M  V30 1075 C 103.952 5.51808 2.64904 0
M  V30 1076 N 103.089 5.9126 3.78624 0
M  V30 1077 H 107.929 2.94934 0.426382 0
M  V30 1078 H 105.466 1.4575 0.198819 0
M  V30 1079 H 107.424 2.99346 2.90599 0
M  V30 1080 H 106.054 1.88928 2.61737 0
M  V30 1081 H 105.106 3.6746 0.983719 0
M  V30 1082 H 106.418 4.75693 1.50059 0
M  V30 1083 H 105.572 4.68465 3.85519 0
M  V30 1084 H 104.311 3.50948 3.38655 0
M  V30 1085 H 103.316 5.19133 1.81055 0
M  V30 1086 H 104.541 6.38722 2.30675 0
M  V30 1087 H 102.487 5.09024 4.138 0
M  V30 1088 H 102.404 6.70018 3.5016 0
M  V30 1089 H 103.672 6.28212 4.61486 0
M  V30 1090 N 107.901 -0.206675 1.56239 0
M  V30 1091 C 108.849 -1.27571 1.94495 0
M  V30 1092 C 109.843 -1.47737 0.828862 0
M  V30 1093 O 111.049 -1.48735 1.0138 0
M  V30 1094 H 107.424 -0.428029 0.6183 0
M  V30 1095 H 109.395 -0.925961 2.8367 0
M  V30 1096 C 108.144 -2.61568 2.29079 0
M  V30 1097 H 107.467 -2.46863 3.14482 0
M  V30 1098 H 108.907 -3.35144 2.5972 0
M  V30 1099 C 107.366 -3.17695 1.12123 0
M  V30 1100 O 107.896 -3.99801 0.390153 0
M  V30 1101 N 106.102 -2.76276 0.901097 0
M  V30 1102 H 105.649 -2.09613 1.49733 0
M  V30 1103 H 105.607 -3.1417 0.120319 0
M  V30 1104 N 109.379 -1.50304 -0.473955 0
M  V30 1105 C 110.628 -1.60392 -1.22301 0
M  V30 1106 C 110.941 -0.308411 -1.93153 0
M  V30 1107 O 112.147 -0.288156 -2.69966 0
M  V30 1108 C 110.603 -2.83109 -2.2221 0
M  V30 1109 C 110.211 -4.19524 -1.57173 0
M  V30 1110 C 111.955 -3.0254 -2.97775 0
M  V30 1111 C 109.862 -5.33431 -2.55353 0
M  V30 1112 H 108.792 -0.597286 -0.460179 0
M  V30 1113 H 111.443 -1.76731 -0.493803 0
M  V30 1114 H 109.825 -2.60322 -2.9841 0
M  V30 1115 H 110.999 -4.52554 -0.867824 0
M  V30 1116 H 109.314 -4.05674 -0.939002 0
M  V30 1117 H 111.911 -3.84811 -3.71248 0
M  V30 1118 H 112.254 -2.14154 -3.56992 0
M  V30 1119 H 112.787 -3.25494 -2.28688 0
M  V30 1120 H 109.526 -6.23962 -2.00878 0
M  V30 1121 H 109.046 -5.04823 -3.23904 0
M  V30 1122 H 110.725 -5.63887 -3.17239 0
M  V30 1123 N 110.857 0.726932 -1.39834 0
M  V30 1124 C 112.105 1.4837 -1.37225 0
M  V30 1125 C 112.426 1.94979 0.0284857 0
M  V30 1126 O 111.696 1.69555 0.981213 0
M  V30 1127 H 110.276 0.55043 -0.505011 0
M  V30 1128 H 112.938 0.862468 -1.74778 0
M  V30 1129 H 112.034 2.36198 -2.04003 0
M  V30 1130 N 112.336 1.25143 0.95797 0
M  V30 1131 C 113.561 1.12521 1.74223 0
M  V30 1132 C 113.986 -0.317402 1.85403 0
M  V30 1133 O 113.344 -1.2299 1.33204 0
M  V30 1134 C 113.392 1.78062 3.1357 0
M  V30 1135 O 112.496 1.058 3.98598 0
M  V30 1136 H 111.837 0.39304 0.535178 0
M  V30 1137 H 114.367 1.65641 1.201 0
M  V30 1138 H 114.377 1.84213 3.64046 0
M  V30 1139 H 113.052 2.83021 3.04749 0
M  V30 1140 H 111.629 1.07506 3.57067 0
M  V30 1141 N 113.814 -1.1601 1.06675 0
M  V30 1142 C 115.091 -1.82679 0.699114 0
M  V30 1143 C 115.471 -1.94559 -0.819137 0
M  V30 1144 O 114.819 -1.49169 -1.73092 0
M  V30 1145 C 115.029 -3.19445 1.40555 0
M  V30 1146 C 116.377 -3.95171 1.55323 0
M  V30 1147 O 117.401 -3.28976 1.36577 0
M  V30 1148 O 116.26 -5.13833 1.86112 0
M  V30 1149 H 113.354 -0.788954 0.247951 0
M  V30 1150 H 115.9 -1.23179 1.16726 0
M  V30 1151 H 114.672 -3.05856 2.44065 0
M  V30 1152 H 114.295 -3.86625 0.927733 0
M  V30 1153 N 115.292 -0.849877 -1.32721 0
M  V30 1154 C 116.202 -0.293791 -2.32753 0
M  V30 1155 C 117.218 0.585906 -1.63839 0
M  V30 1156 O 118.394 0.487413 -1.95413 0
M  V30 1157 C 115.459 0.512752 -3.42887 0
M  V30 1158 C 114.52 -0.39252 -4.27502 0
M  V30 1159 C 113.753 0.375625 -5.32377 0
M  V30 1160 O 113.976 1.60613 -5.4732 0
M  V30 1161 O 112.91 -0.256094 -6.01355 0
M  V30 1162 H 116.736 -1.12242 -2.82197 0
M  V30 1163 H 114.321 -0.612685 -1.36259 0
M  V30 1164 H 116.203 0.970704 -4.10067 0
M  V30 1165 H 114.878 1.31826 -2.95641 0
M  V30 1166 H 113.785 -0.898547 -3.63149 0
M  V30 1167 H 115.118 -1.16309 -4.7826 0
M  V30 1168 N 116.77 1.45427 -0.607355 0
M  V30 1169 C 118.047 1.9557 -0.0344566 0
M  V30 1170 C 118.427 1.54979 1.43334 0
M  V30 1171 O 117.775 0.812241 2.13576 0
M  V30 1172 C 117.985 3.48226 -0.232321 0
M  V30 1173 C 119.333 4.2445 -0.113001 0
M  V30 1174 O 120.357 3.55829 -0.162431 0
M  V30 1175 O 119.216 5.465 0.00209442 0
M  V30 1176 H 116.31 0.826222 0.0358667 0
M  V30 1177 H 118.856 1.55594 -0.6774 0
M  V30 1178 H 117.628 3.70739 -1.25174 0
M  V30 1179 H 117.251 3.95092 0.445896 0
M  V30 1180 N 118.248 0.346503 1.53744 0
M  V30 1181 C 119.198 -0.524953 2.21874 0
M  V30 1182 C 120.182 -1.06376 1.20718 0
M  V30 1183 O 121.374 -0.996972 1.46251 0
M  V30 1184 C 118.503 -1.6739 2.99726 0
M  V30 1185 C 117.589 -1.14888 4.08242 0
M  V30 1186 N 117.98 -0.345329 5.0462 0
M  V30 1187 C 116.278 -1.4255 4.22606 0
M  V30 1188 C 116.979 -0.0600706 5.81669 0
M  V30 1189 N 115.955 -0.65252 5.39669 0
M  V30 1190 H 119.757 0.0960091 2.93743 0
M  V30 1191 H 117.271 0.15352 1.61673 0
M  V30 1192 H 119.268 -2.3102 3.47038 0
M  V30 1193 H 117.928 -2.29811 2.29384 0
M  V30 1194 H 118.939 0.0138439 5.17898 0
M  V30 1195 H 115.616 -2.05389 3.63486 0
M  V30 1196 H 117.006 0.588321 6.69319 0
M  V30 1197 N 119.726 -1.57421 0.075193 0
M  V30 1198 C 120.656 -2.15942 -0.888324 0
M  V30 1199 C 121.637 -1.08737 -1.30806 0
M  V30 1200 O 122.822 -1.36787 -1.37851 0
M  V30 1201 C 119.952 -2.72379 -2.1547 0
M  V30 1202 C 118.906 -3.8478 -1.87425 0
M  V30 1203 C 118.232 -4.27834 -3.20721 0
M  V30 1204 C 119.532 -5.08869 -1.17684 0
M  V30 1205 H 121.226 -2.96705 -0.400799 0
M  V30 1206 H 118.772 -1.42723 -0.191342 0
M  V30 1207 H 120.725 -3.11965 -2.83295 0
M  V30 1208 H 119.449 -1.88841 -2.6647 0
M  V30 1209 H 118.108 -3.45703 -1.22004 0
M  V30 1210 H 117.756 -3.41214 -3.6957 0
M  V30 1211 H 117.456 -5.03605 -3.02746 0
M  V30 1212 H 118.98 -4.70039 -3.89738 0
M  V30 1213 H 120.394 -5.4575 -1.75584 0
M  V30 1214 H 118.791 -5.8994 -1.09956 0
M  V30 1215 H 119.861 -4.84648 -0.156453 0
M  V30 1216 N 121.204 0.198386 -1.56346 0
M  V30 1217 C 122.429 0.939682 -1.84891 0
M  V30 1218 C 122.854 1.76202 -0.658369 0
M  V30 1219 O 122.212 1.76993 0.392851 0
M  V30 1220 C 122.26 1.81428 -3.11635 0
M  V30 1221 O 121.364 2.91265 -2.91956 0
M  V30 1222 H 120.705 0.264807 -0.608912 0
M  V30 1223 H 123.235 0.204695 -2.03573 0
M  V30 1224 H 123.245 2.21958 -3.42343 0
M  V30 1225 H 121.92 1.21004 -3.97908 0
M  V30 1226 H 120.497 2.54514 -2.72538 0
M  V30 1227 N 122.682 1.50554 0.465978 0
M  V30 1228 C 123.612 1.72722 1.57128 0
M  V30 1229 C 124.593 0.576294 1.6004 0
M  V30 1230 O 125.778 0.81598 1.76225 0
M  V30 1231 C 122.908 1.82605 2.95419 0
M  V30 1232 C 121.862 2.97835 3.07373 0
M  V30 1233 C 121.188 2.92867 4.47363 0
M  V30 1234 C 122.488 4.38265 2.84114 0
M  V30 1235 H 124.182 2.65267 1.38829 0
M  V30 1236 H 121.728 1.2765 0.666441 0
M  V30 1237 H 123.681 1.96698 3.72677 0
M  V30 1238 H 122.405 0.866858 3.14886 0
M  V30 1239 H 121.064 2.83401 2.3255 0
M  V30 1240 H 120.712 1.94783 4.63755 0
M  V30 1241 H 120.412 3.70227 4.56296 0
M  V30 1242 H 121.936 3.09015 5.26633 0
M  V30 1243 H 123.35 4.53198 3.51118 0
M  V30 1244 H 121.747 5.17115 3.04487 0
M  V30 1245 H 122.817 4.50281 1.7993 0
M  V30 1246 N 124.16 -0.719506 1.40217 0
M  V30 1247 C 125.107 -1.83359 1.40172 0
M  V30 1248 C 126.077 -1.64065 0.259206 0
M  V30 1249 O 127.262 -1.85254 0.456677 0
M  V30 1250 C 124.402 -3.2103 1.26624 0
M  V30 1251 C 123.515 -3.51923 2.50548 0
M  V30 1252 C 122.65 -4.79079 2.29471 0
M  V30 1253 C 121.689 -5.02863 3.48992 0
M  V30 1254 N 120.826 -6.2123 3.27135 0
M  V30 1255 H 125.666 -1.82733 2.35399 0
M  V30 1256 H 123.203 -0.892688 1.16917 0
M  V30 1257 H 125.161 -4.00524 1.16776 0
M  V30 1258 H 123.791 -3.20895 0.350176 0
M  V30 1259 H 122.843 -2.67014 2.70939 0
M  V30 1260 H 124.155 -3.6541 3.39525 0
M  V30 1261 H 123.309 -5.66582 2.16955 0
M  V30 1262 H 122.048 -4.67794 1.37913 0
M  V30 1263 H 121.053 -4.13816 3.6199 0
M  V30 1264 H 122.278 -5.16023 4.41472 0
M  V30 1265 H 120.224 -6.11204 2.38256 0
M  V30 1266 H 120.141 -6.35375 4.09675 0
M  V30 1267 H 121.409 -7.11532 3.18344 0
M  V30 1268 N 125.638 -1.25649 -0.95132 0
M  V30 1269 C 126.548 -1.08073 -2.08224 0
M  V30 1270 C 127.564 -0.0169666 -1.73992 0
M  V30 1271 O 128.74 -0.218593 -2.0021 0
M  V30 1272 C 125.805 -0.704922 -3.39458 0
M  V30 1273 C 124.866 -1.84699 -3.87537 0
M  V30 1274 C 124.099 -1.48902 -5.12508 0
M  V30 1275 O 124.322 -0.386156 -5.69091 0
M  V30 1276 O 123.256 -2.32033 -5.55378 0
M  V30 1277 H 127.082 -2.02924 -2.25954 0
M  V30 1278 H 124.667 -1.04618 -1.06656 0
M  V30 1279 H 126.549 -0.507609 -4.18332 0
M  V30 1280 H 125.224 0.214291 -3.2299 0
M  V30 1281 H 124.131 -2.09919 -3.09653 0
M  V30 1282 H 125.464 -2.74557 -4.08509 0
M  V30 1283 N 127.117 1.15442 -1.07289 0
M  V30 1284 C 128.364 1.86213 -0.795668 0
M  V30 1285 C 128.692 1.82291 0.678238 0
M  V30 1286 O 127.947 1.24057 1.51355 0
M  V30 1287 C 128.246 3.3489 -1.24834 0
M  V30 1288 C 127.912 3.59007 -2.72809 0
M  V30 1289 C 126.574 3.65298 -3.13227 0
M  V30 1290 C 128.926 3.68762 -3.68326 0
M  V30 1291 C 126.254 3.78854 -4.4798 0
M  V30 1292 C 128.606 3.83842 -5.0284 0
M  V30 1293 C 127.27 3.88378 -5.4288 0
M  V30 1294 H 126.54 0.681403 -0.291155 0
M  V30 1295 H 129.187 1.36435 -1.34379 0
M  V30 1296 H 127.492 3.8687 -0.619595 0
M  V30 1297 H 129.189 3.88052 -1.01076 0
M  V30 1298 H 125.779 3.5475 -2.40521 0
M  V30 1299 H 129.963 3.63202 -3.38227 0
M  V30 1300 H 125.219 3.80623 -4.78472 0
M  V30 1301 H 129.393 3.90332 -5.76727 0
M  V30 1302 H 127.02 3.98635 -6.47298 0
M  V30 1303 N 128.595 0.856903 1.32268 0
M  V30 1304 C 129.82 0.474569 2.01897 0
M  V30 1305 C 130.245 -0.921766 1.63967 0
M  V30 1306 O 129.603 -1.60589 0.84148 0
M  V30 1307 C 129.651 0.623799 3.55164 0
M  V30 1308 O 128.755 -0.342459 4.10976 0
M  V30 1309 H 128.096 0.190422 0.63611 0
M  V30 1310 H 130.626 1.15672 1.68764 0
M  V30 1311 H 130.636 0.512169 4.04773 0
M  V30 1312 H 129.311 1.64202 3.82113 0
M  V30 1313 H 127.888 -0.18688 3.72431 0
M  V30 1314 N 130.073 -1.45103 0.615059 0
M  V30 1315 C 130.983 -2.34382 -0.101034 0
M  V30 1316 C 131.999 -1.51681 -0.852585 0
M  V30 1317 O 133.175 -1.8446 -0.808484 0
M  V30 1318 C 130.24 -3.29417 -1.08099 0
M  V30 1319 C 129.301 -4.28025 -0.330577 0
M  V30 1320 C 128.534 -5.1852 -1.26385 0
M  V30 1321 O 128.757 -5.12598 -2.50198 0
M  V30 1322 O 127.691 -5.97122 -0.756866 0
M  V30 1323 H 131.517 -2.97033 0.632855 0
M  V30 1324 H 129.102 -1.4461 0.375293 0
M  V30 1325 H 130.984 -3.87958 -1.6452 0
M  V30 1326 H 129.659 -2.69321 -1.79577 0
M  V30 1327 H 128.566 -3.73078 0.276283 0
M  V30 1328 H 129.899 -4.90997 0.343866 0
M  V30 1329 N 131.551 -0.354651 -1.53558 0
M  V30 1330 C 132.481 0.489091 -2.2832 0
M  V30 1331 C 133.462 1.09324 -1.30316 0
M  V30 1332 O 134.647 1.11255 -1.59173 0
M  V30 1333 C 131.777 1.63456 -3.0643 0
M  V30 1334 C 130.731 1.1582 -4.12031 0
M  V30 1335 C 130.057 2.39305 -4.7816 0
M  V30 1336 C 131.357 0.250731 -5.21698 0
M  V30 1337 H 133.051 -0.134614 -2.99097 0
M  V30 1338 H 130.597 -0.0661826 -1.43848 0
M  V30 1339 H 132.55 2.23136 -3.57475 0
M  V30 1340 H 131.274 2.28533 -2.33325 0
M  V30 1341 H 129.933 0.584146 -3.61916 0
M  V30 1342 H 129.581 3.02814 -4.01637 0
M  V30 1343 H 129.281 2.08109 -5.49513 0
M  V30 1344 H 130.805 2.99691 -5.31994 0
M  V30 1345 H 132.219 0.754695 -5.68311 0
M  V30 1346 H 130.616 0.0301468 -6.00092 0
M  V30 1347 H 131.686 -0.710125 -4.79672 0
M  V30 1348 N 133.029 1.57378 -0.0835403 0
M  V30 1349 C 133.939 2.16897 0.894021 0
M  V30 1350 C 134.955 1.13528 1.31861 0
M  V30 1351 O 136.131 1.45848 1.3889 0
M  V30 1352 C 133.196 2.72831 2.13925 0
M  V30 1353 C 132.257 3.91115 1.76997 0
M  V30 1354 C 131.49 4.44371 2.95584 0
M  V30 1355 O 131.713 3.96596 4.09961 0
M  V30 1356 O 130.647 5.35549 2.74719 0
M  V30 1357 H 134.473 3.00814 0.417679 0
M  V30 1358 H 132.058 1.48741 0.140181 0
M  V30 1359 H 133.94 3.0863 2.86924 0
M  V30 1360 H 132.615 1.91967 2.60635 0
M  V30 1361 H 131.522 3.60148 1.01214 0
M  V30 1362 H 132.855 4.73307 1.3506 0
M  V30 1363 N 134.507 -0.190092 1.56449 0
M  V30 1364 C 135.439 -1.25973 1.91477 0
M  V30 1365 C 136.452 -1.41452 0.805931 0
M  V30 1366 O 137.641 -1.41789 1.08435 0
M  V30 1367 C 134.741 -2.63117 2.13594 0
M  V30 1368 C 133.914 -2.69182 3.4476 0
M  V30 1369 C 132.973 -3.87557 3.5593 0
M  V30 1370 O 131.999 -3.74427 4.28711 0
M  V30 1371 N 133.201 -5.03224 2.89388 0
M  V30 1372 H 135.966 -0.962394 2.83828 0
M  V30 1373 H 133.527 -0.379981 1.57378 0
M  V30 1374 H 135.519 -3.40742 2.1835 0
M  V30 1375 H 134.089 -2.85319 1.27719 0
M  V30 1376 H 133.309 -1.77793 3.51828 0
M  V30 1377 H 134.597 -2.70229 4.31107 0
M  V30 1378 H 133.995 -5.16791 2.30094 0
M  V30 1379 H 132.552 -5.78778 2.99764 0
M  V30 1380 N 135.985 -1.50799 -0.457987 0
M  V30 1381 C 137.21 -1.66496 -1.23668 0
M  V30 1382 C 137.635 -0.353288 -1.84752 0
M  V30 1383 O 136.993 0.684346 -1.67888 0
M  V30 1384 C 137.041 -2.76763 -2.3116 0
M  V30 1385 O 136.145 -2.38928 -3.36136 0
M  V30 1386 H 135.486 -0.555828 -0.363252 0
M  V30 1387 H 138.016 -1.9725 -0.543474 0
M  V30 1388 H 138.026 -3.00232 -2.76269 0
M  V30 1389 H 136.701 -3.71954 -1.86073 0
M  V30 1390 H 135.278 -2.25953 -2.96647 0
M  V30 1391 N 137.463 0.71206 -1.40597 0
M  V30 1392 C 138.711 1.46907 -1.38791 0
M  V30 1393 C 139.032 1.94998 0.00780391 0
M  V30 1394 O 138.302 1.70587 0.963174 0
M  V30 1395 H 136.882 0.545043 -0.51082 0
M  V30 1396 H 139.544 0.843882 -1.75683 0
M  V30 1397 H 138.64 2.34021 -2.06496 0
M  V30 1398 N 138.941 1.26152 0.944643 0
M  V30 1399 C 140.171 1.14094 1.72239 0
M  V30 1400 C 140.579 -0.306931 1.86694 0
M  V30 1401 O 139.922 -1.22222 1.3714 0
M  V30 1402 C 139.984 1.73316 3.14963 0
M  V30 1403 C 139.648 3.2239 3.23904 0
M  V30 1404 C 140.645 4.19252 3.07447 0
M  V30 1405 C 138.33 3.62788 3.47405 0
M  V30 1406 C 140.324 5.54491 3.14353 0
M  V30 1407 C 138.011 4.98162 3.53947 0
M  V30 1408 C 139.009 5.93823 3.37436 0
M  V30 1409 O 138.697 7.26732 3.43679 0
M  V30 1410 H 138.429 0.398292 0.546205 0
M  V30 1411 H 140.983 1.67201 1.19301 0
M  V30 1412 H 139.213 1.14667 3.69308 0
M  V30 1413 H 140.902 1.56214 3.74636 0
M  V30 1414 H 141.668 3.8938 2.8915 0
M  V30 1415 H 137.547 2.88816 3.59313 0
M  V30 1416 H 141.091 6.29137 3.01384 0
M  V30 1417 H 136.988 5.27695 3.71763 0
M  V30 1418 H 137.756 7.3496 3.60245 0
M  V30 1419 N 140.419 -1.14872 1.07899 0
M  V30 1420 C 141.649 -1.89386 0.825631 0
M  V30 1421 C 142.057 -1.78565 -0.625406 0
M  V30 1422 O 141.4 -1.13918 -1.44113 0
M  V30 1423 C 141.462 -3.40206 1.16191 0
M  V30 1424 C 141.126 -3.74812 2.61467 0
M  V30 1425 C 142.123 -3.75367 3.59716 0
M  V30 1426 C 139.808 -4.0495 2.97189 0
M  V30 1427 C 141.802 -4.05574 4.9172 0
M  V30 1428 C 139.489 -4.34821 4.29388 0
M  V30 1429 C 140.487 -4.35116 5.26463 0
M  V30 1430 O 140.175 -4.64267 6.56286 0
M  V30 1431 H 139.907 -0.606894 0.297751 0
M  V30 1432 H 142.461 -1.46438 1.44031 0
M  V30 1433 H 140.691 -3.8358 0.490214 0
M  V30 1434 H 142.38 -3.96018 0.890193 0
M  V30 1435 H 143.146 -3.52176 3.33462 0
M  V30 1436 H 139.025 -4.03876 2.22273 0
M  V30 1437 H 142.569 -4.05719 5.67484 0
M  V30 1438 H 138.466 -4.5748 4.55392 0
M  V30 1439 H 139.234 -4.82007 6.61522 0
M  V30 1440 N 141.898 -0.863906 -1.31812 0
M  V30 1441 C 143.144 -0.472535 -1.97218 0
M  V30 1442 C 143.477 0.971394 -1.68159 0
M  V30 1443 O 142.752 1.68309 -0.974798 0
M  V30 1444 C 143.035 -0.723054 -3.52766 0
M  V30 1445 C 142.888 -2.21608 -3.91421 0
M  V30 1446 C 144.207 -0.185522 -4.39709 0
M  V30 1447 H 141.326 -0.173158 -0.71637 0
M  V30 1448 H 143.968 -1.08403 -1.56041 0
M  V30 1449 H 142.118 -0.202577 -3.87971 0
M  V30 1450 H 143.79 -2.80334 -3.66347 0
M  V30 1451 H 142.033 -2.691 -3.40246 0
M  V30 1452 H 142.704 -2.34203 -4.99853 0
M  V30 1453 H 145.18 -0.630726 -4.11292 0
M  V30 1454 H 144.056 -0.390306 -5.47511 0
M  V30 1455 H 144.317 0.912229 -4.32586 0
M  V30 1456 N 143.376 1.44774 -0.622745 0
M  V30 1457 C 144.616 2.04004 -0.127102 0
M  V30 1458 C 144.98 1.47862 1.22478 0
M  V30 1459 O 146.181 1.98541 1.81204 0
M  V30 1460 C 144.452 3.57247 -0.104429 0
M  V30 1461 S 146.011 4.37574 0.327814 0
M  V30 1462 H 142.829 0.708713 -0.0569776 0
M  V30 1463 H 145.431 1.77275 -0.824253 0
M  V30 1464 H 144.135 3.95616 -1.09159 0
M  V30 1465 H 143.666 3.88575 0.614236 0
M  V30 1466 H 145.681 4.70575 1.57395 0
M  V30 1467 N 144.854 0.36279 1.53368 0
M  V30 1468 C 146.084 -0.228281 2.05335 0
M  V30 1469 C 146.492 -1.43226 1.23625 0
M  V30 1470 O 145.835 -1.81717 0.269206 0
M  V30 1471 C 145.897 -0.688549 3.52845 0
M  V30 1472 C 145.561 0.398362 4.5526 0
M  V30 1473 C 146.558 1.24732 5.04716 0
M  V30 1474 C 144.243 0.557805 4.99193 0
M  V30 1475 C 146.237 2.2411 5.96702 0
M  V30 1476 C 143.924 1.55495 5.90986 0
M  V30 1477 C 144.922 2.39503 6.39631 0
M  V30 1478 O 144.61 3.37517 7.29615 0
M  V30 1479 H 144.342 -0.044395 0.674541 0
M  V30 1480 H 146.896 0.518668 1.98744 0
M  V30 1481 H 145.126 -1.48706 3.56964 0
M  V30 1482 H 146.815 -1.20231 3.87685 0
M  V30 1483 H 147.581 1.13532 4.71525 0
M  V30 1484 H 143.46 -0.0862959 4.60919 0
M  V30 1485 H 147.004 2.89718 6.34594 0
M  V30 1486 H 142.901 1.66744 6.23592 0
M  V30 1487 H 143.669 3.33213 7.47604 0
M  V30 1488 N 146.332 -1.57332 0.0918853 0
M  V30 1489 C 147.743 -1.81496 -0.437739 0
M  V30 1490 C 148.094 -1.00727 -1.6837 0
M  V30 1491 O 147.219 -0.235694 -2.15113 0
M  V30 1492 C 147.814 -3.29197 -0.800939 0
M  V30 1493 C 146.373 -3.54136 -1.27532 0
M  V30 1494 C 145.52 -2.75979 -0.270392 0
M  V30 1495 H 148.471 -1.55494 0.317366 0
M  V30 1496 H 148.492 -3.42344 -1.66074 0
M  V30 1497 H 148.004 -3.87955 0.106078 0
M  V30 1498 H 146.105 -3.00705 -2.20016 0
M  V30 1499 H 146.218 -4.62792 -1.23938 0
M  V30 1500 H 144.582 -2.43349 -0.751872 0
M  V30 1501 H 145.365 -3.37484 0.629248 0
M  V30 1502 N 147.81 0.181792 -1.56548 0
M  V30 1503 C 149.226 0.53316 -1.50431 0
M  V30 1504 C 149.426 1.85184 -0.794297 0
M  V30 1505 O 148.482 2.50058 -0.350318 0
M  V30 1506 C 149.795 0.575597 -2.9514 0
M  V30 1507 C 151.343 0.663519 -3.05886 0
M  V30 1508 C 151.818 0.736946 -4.52032 0
M  V30 1509 N 153.309 0.800118 -4.56237 0
M  V30 1510 C 154.044 0.877327 -5.66649 0
M  V30 1511 N 153.54 0.916016 -6.86718 0
M  V30 1512 N 155.333 0.915542 -5.54594 0
M  V30 1513 H 147.484 -0.683025 -2.01118 0
M  V30 1514 H 149.747 -0.244988 -0.915797 0
M  V30 1515 H 149.453 -0.324482 -3.502 0
M  V30 1516 H 149.327 1.42572 -3.49218 0
M  V30 1517 H 151.714 1.55403 -2.50867 0
M  V30 1518 H 151.795 -0.21307 -2.54911 0
M  V30 1519 H 151.439 -0.149262 -5.07681 0
M  V30 1520 H 151.369 1.62953 -5.00753 0
M  V30 1521 H 153.86 0.778926 -3.69785 0
M  V30 1522 H 154.173 0.975813 -7.66614 0
M  V30 1523 H 152.518 0.884469 -6.89349 0
M  V30 1524 H 155.709 0.882245 -4.59711 0
M  V30 1525 H 155.882 0.972253 -6.40665 0
M  V30 1526 N 149.288 1.51039 0.449983 0
M  V30 1527 C 150.536 1.62759 1.19808 0
M  V30 1528 C 150.857 0.339981 1.92013 0
M  V30 1529 O 150.127 -0.643606 1.85026 0
M  V30 1530 H 148.707 0.599811 0.445237 0
M  V30 1531 H 151.369 1.87914 0.517138 0
M  V30 1532 H 150.465 2.44911 1.93455 0
M  V30 1533 N 150.766 -0.704594 1.40972 0
M  V30 1534 C 151.991 -1.49858 1.43378 0
M  V30 1535 C 152.416 -1.88061 0.038184 0
M  V30 1536 O 151.774 -1.5402 -0.956425 0
M  V30 1537 C 151.822 -2.74333 2.34038 0
M  V30 1538 O 150.926 -3.7147 1.7912 0
M  V30 1539 H 150.267 -0.45139 0.486974 0
M  V30 1540 H 152.797 -0.866832 1.8533 0
M  V30 1541 H 152.807 -3.22741 2.49604 0
M  V30 1542 H 151.482 -2.45863 3.35446 0
M  V30 1543 H 150.059 -3.30363 1.72958 0
M  V30 1544 N 152.244 -1.26651 -0.937939 0
M  V30 1545 C 153.191 -1.0849 -2.03712 0
M  V30 1546 C 154.161 0.011033 -1.66096 0
M  V30 1547 O 155.346 -0.149353 -1.90215 0
M  V30 1548 C 152.486 -0.72735 -3.37348 0
M  V30 1549 C 151.599 -1.89986 -3.87981 0
M  V30 1550 C 150.734 -1.48513 -5.10017 0
M  V30 1551 C 149.773 -2.62575 -5.5292 0
M  V30 1552 N 148.91 -2.21762 -6.66158 0
M  V30 1553 H 153.75 -2.02551 -2.18579 0
M  V30 1554 H 151.287 -1.00844 -1.07093 0
M  V30 1555 H 153.245 -0.50092 -4.14182 0
M  V30 1556 H 151.875 0.176298 -3.22318 0
M  V30 1557 H 150.927 -2.23913 -3.07518 0
M  V30 1558 H 152.239 -2.75586 -4.15757 0
M  V30 1559 H 151.393 -1.21934 -5.94321 0
M  V30 1560 H 150.132 -0.60009 -4.83994 0
M  V30 1561 H 149.137 -2.8988 -4.67172 0
M  V30 1562 H 150.362 -3.51685 -5.80943 0
M  V30 1563 H 148.308 -1.35696 -6.41812 0
M  V30 1564 H 148.225 -3.00903 -6.93537 0
M  V30 1565 H 149.493 -1.98403 -7.53828 0
M  V30 1566 N 153.722 1.14298 -1.08507 0
M  V30 1567 C 155.133 1.66926 -0.836227 0
M  V30 1568 C 155.484 1.85576 0.63686 0
M  V30 1569 O 154.609 1.56767 1.49175 0
M  V30 1570 C 155.204 3.03219 -1.51142 0
M  V30 1571 C 153.763 3.52876 -1.30979 0
M  V30 1572 C 152.91 2.2833 -1.57356 0
M  V30 1573 H 155.861 0.983491 -1.24552 0
M  V30 1574 H 155.882 3.68726 -0.939211 0
M  V30 1575 H 155.394 2.89612 -2.58353 0
M  V30 1576 H 153.495 3.71703 -0.258429 0
M  V30 1577 H 153.608 4.33586 -2.03814 0
M  V30 1578 H 151.972 2.34454 -0.995164 0
M  V30 1579 H 152.755 2.17298 -2.65775 0
M  V30 1580 N 155.201 0.870884 1.31352 0
M  V30 1581 C 156.111 0.330783 2.32256 0
M  V30 1582 C 157.127 -0.559767 1.6475 0
M  V30 1583 O 158.303 -0.456263 1.96164 0
M  V30 1584 C 155.368 -0.458137 3.4366 0
M  V30 1585 C 154.429 0.460482 4.26823 0
M  V30 1586 C 153.662 -0.290881 5.32907 0
M  V30 1587 O 153.885 -1.51885 5.49806 0
M  V30 1588 O 152.819 0.351732 6.00871 0
M  V30 1589 H 156.645 1.16718 2.80376 0
M  V30 1590 H 154.23 0.634285 1.35267 0
M  V30 1591 H 156.112 -0.905343 4.1156 0
M  V30 1592 H 154.787 -1.27106 2.97701 0
M  V30 1593 H 153.694 0.956207 3.61673 0
M  V30 1594 H 155.027 1.23903 4.7635 0
M  V30 1595 N 156.679 -1.44442 0.630414 0
M  V30 1596 C 157.956 -1.9549 0.0655657 0
M  V30 1597 C 158.336 -1.5724 -1.40851 0
M  V30 1598 O 157.684 -0.846116 -2.12257 0
M  V30 1599 C 157.894 -3.47812 0.287691 0
M  V30 1600 C 159.242 -4.24216 0.180513 0
M  V30 1601 O 160.266 -3.55526 0.219019 0
M  V30 1602 O 159.125 -5.46434 0.0848493 0
M  V30 1603 H 156.219 -0.826688 -0.0227177 0
M  V30 1604 H 158.765 -1.54496 0.702068 0
M  V30 1605 H 157.537 -3.687 1.31056 0
M  V30 1606 H 157.16 -3.95751 -0.382984 0
M  V30 1607 N 158.157 -0.370918 -1.53173 0
M  V30 1608 C 159.12 0.460778 -2.24521 0
M  V30 1609 C 160.12 1.00536 -1.25496 0
M  V30 1610 O 161.31 0.890266 -1.49733 0
M  V30 1611 C 158.442 1.64457 -2.98608 0
M  V30 1612 H 159.635 -0.163613 -2.99453 0
M  V30 1613 H 157.188 -0.122699 -1.55818 0
M  V30 1614 H 157.923 2.30691 -2.2793 0
M  V30 1615 H 157.708 1.26099 -3.7127 0
M  V30 1616 H 159.198 2.23384 -3.5283 0
M  V30 1617 N 159.635 1.57281 -0.100228 0
M  V30 1618 C 160.583 2.15542 0.874328 0
M  V30 1619 C 161.577 1.09962 1.28859 0
M  V30 1620 O 162.783 1.28298 1.26252 0
M  V30 1621 H 159.158 0.689567 0.300003 0
M  V30 1622 H 161.129 2.96241 0.35829 0
M  V30 1623 C 159.878 2.75454 2.1218 0
M  V30 1624 H 159.201 3.56384 1.81193 0
M  V30 1625 H 160.641 3.19781 2.78417 0
M  V30 1626 C 159.1 1.71602 2.89921 0
M  V30 1627 O 159.63 1.15804 3.84646 0
M  V30 1628 N 157.836 1.41975 2.53558 0
M  V30 1629 H 157.383 1.87539 1.76598 0
M  V30 1630 H 157.341 0.727274 3.05873 0
M  V30 1631 N 161.113 -0.173488 1.56642 0
M  V30 1632 C 162.36 -0.890465 1.81871 0
M  V30 1633 C 162.688 -1.82339 0.67696 0
M  V30 1634 O 161.943 -1.92795 -0.335926 0
M  V30 1635 C 162.242 -1.72069 3.13252 0
M  V30 1636 C 161.908 -0.936878 4.41059 0
M  V30 1637 C 160.57 -0.720545 4.75775 0
M  V30 1638 C 162.922 -0.386919 5.19762 0
M  V30 1639 C 160.25 0.0568829 5.86672 0
M  V30 1640 C 162.602 0.37741 6.31473 0
M  V30 1641 C 161.266 0.604563 6.64757 0
M  V30 1642 H 160.536 -0.325844 0.665512 0
M  V30 1643 H 163.183 -0.155527 1.90867 0
M  V30 1644 H 161.488 -2.52496 2.99588 0
M  V30 1645 H 163.185 -2.27844 3.29982 0
M  V30 1646 H 159.775 -1.11553 4.13828 0
M  V30 1647 H 163.959 -0.541398 4.93338 0
M  V30 1648 H 159.215 0.242635 6.10918 0
M  V30 1649 H 163.389 0.810825 6.91664 0
M  V30 1650 H 161.016 1.20885 7.50527 0
M  V30 1651 N 162.591 -1.51276 -0.441967 0
M  V30 1652 C 163.821 -1.67273 -1.21257 0
M  V30 1653 C 164.229 -0.367624 -1.85594 0
M  V30 1654 O 163.572 0.663349 -1.71305 0
M  V30 1655 C 163.634 -2.72807 -2.34129 0
M  V30 1656 C 163.298 -4.1554 -1.90198 0
M  V30 1657 C 164.295 -5.00471 -1.40801 0
M  V30 1658 C 161.98 -4.61616 -1.9803 0
M  V30 1659 C 163.974 -6.29536 -0.998174 0
M  V30 1660 C 161.661 -5.90679 -1.56658 0
M  V30 1661 C 162.659 -6.74466 -1.07633 0
M  V30 1662 O 162.347 -8.01116 -0.668459 0
M  V30 1663 H 162.079 -0.564614 -0.371734 0
M  V30 1664 H 164.633 -1.9843 -0.530521 0
M  V30 1665 H 162.863 -2.36954 -3.05597 0
M  V30 1666 H 164.552 -2.77729 -2.96009 0
M  V30 1667 H 165.318 -4.66079 -1.34148 0
M  V30 1668 H 161.197 -3.96526 -2.35135 0
M  V30 1669 H 164.741 -6.94885 -0.61482 0
M  V30 1670 H 160.638 -6.24586 -1.62979 0
M  V30 1671 H 161.406 -8.14633 -0.794722 0
M  V30 1672 N 164.069 0.697108 -1.41344 0
M  V30 1673 C 164.999 1.82353 -1.45841 0
M  V30 1674 C 165.98 1.67115 -0.317247 0
M  V30 1675 O 167.165 1.86871 -0.528474 0
M  V30 1676 C 164.295 3.20476 -1.33838 0
M  V30 1677 C 163.249 3.50415 -2.4575 0
M  V30 1678 C 162.575 4.87878 -2.18813 0
M  V30 1679 C 163.875 3.49546 -3.88091 0
M  V30 1680 H 165.569 1.78846 -2.40113 0
M  V30 1681 H 163.115 0.859028 -1.15571 0
M  V30 1682 H 165.068 3.98988 -1.35596 0
M  V30 1683 H 163.792 3.24604 -0.360498 0
M  V30 1684 H 162.451 2.74253 -2.43271 0
M  V30 1685 H 162.099 4.8863 -1.19371 0
M  V30 1686 H 161.799 5.08875 -2.93803 0
M  V30 1687 H 163.323 5.68702 -2.22284 0
M  V30 1688 H 164.737 4.18066 -3.92293 0
M  V30 1689 H 163.134 3.82075 -4.62751 0
M  V30 1690 H 164.204 2.48552 -4.16353 0
M  V30 1691 N 165.547 1.27147 0.931209 0
M  V30 1692 C 166.777 1.15914 1.71019 0
M  V30 1693 C 167.185 -0.287112 1.87009 0
M  V30 1694 O 166.528 -1.20761 1.38429 0
M  V30 1695 C 166.59 1.76647 3.13107 0
M  V30 1696 C 166.254 3.25807 3.20467 0
M  V30 1697 C 167.251 4.22489 3.02983 0
M  V30 1698 C 164.936 3.66452 3.43538 0
M  V30 1699 C 166.93 5.57794 3.08454 0
M  V30 1700 C 164.617 5.01888 3.48643 0
M  V30 1701 C 165.615 5.97369 3.31119 0
M  V30 1702 O 165.303 7.30337 3.35952 0
M  V30 1703 H 165.035 0.404062 0.54195 0
M  V30 1704 H 167.589 1.68457 1.17521 0
M  V30 1705 H 165.819 1.18578 3.68071 0
M  V30 1706 H 167.508 1.60179 3.72958 0
M  V30 1707 H 168.274 3.92425 2.85004 0
M  V30 1708 H 164.153 2.92611 3.5623 0
M  V30 1709 H 167.697 6.32298 2.94694 0
M  V30 1710 H 163.594 5.31609 3.66145 0
M  V30 1711 H 164.362 7.38739 3.5243 0
M  V30 1712 N 167.025 -1.13721 1.09112 0
M  V30 1713 C 167.955 -2.21148 0.749385 0
M  V30 1714 C 168.936 -1.6792 -0.271475 0
M  V30 1715 O 170.121 -1.93693 -0.140251 0
M  V30 1716 C 167.251 -3.46905 0.165659 0
M  V30 1717 C 166.205 -4.13203 1.11567 0
M  V30 1718 C 165.531 -5.33248 0.393809 0
M  V30 1719 C 166.831 -4.60912 2.45678 0
M  V30 1720 H 168.525 -2.4999 1.64758 0
M  V30 1721 H 166.071 -1.20156 0.793626 0
M  V30 1722 H 168.024 -4.21313 -0.085466 0
M  V30 1723 H 166.748 -3.17449 -0.767714 0
M  V30 1724 H 165.407 -3.40758 1.35202 0
M  V30 1725 H 165.055 -5.00054 -0.543599 0
M  V30 1726 H 164.755 -5.78552 1.02721 0
M  V30 1727 H 166.279 -6.10413 0.150908 0
M  V30 1728 H 167.693 -5.26759 2.26269 0
M  V30 1729 H 166.09 -5.16944 3.04776 0
M  V30 1730 H 167.16 -3.75603 3.06677 0
M  V30 1731 N 168.503 -0.877838 -1.30888 0
M  V30 1732 C 169.919 -0.570844 -1.49042 0
M  V30 1733 C 170.119 0.893159 -1.80624 0
M  V30 1734 O 169.175 1.67485 -1.88958 0
M  V30 1735 C 170.488 -1.47784 -2.61878 0
M  V30 1736 C 172.036 -1.48071 -2.75761 0
M  V30 1737 C 172.511 -2.37347 -3.91702 0
M  V30 1738 N 174.002 -2.35271 -3.99001 0
M  V30 1739 C 174.737 -3.01063 -4.88004 0
M  V30 1740 N 174.233 -3.76055 -5.81854 0
M  V30 1741 N 176.026 -2.90332 -4.81315 0
M  V30 1742 H 168.177 -1.82502 -1.0866 0
M  V30 1743 H 170.44 -0.780797 -0.537644 0
M  V30 1744 H 170.146 -2.51993 -2.45341 0
M  V30 1745 H 170.02 -1.18215 -3.58197 0
M  V30 1746 H 172.407 -0.446166 -2.91708 0
M  V30 1747 H 172.488 -1.81668 -1.80085 0
M  V30 1748 H 172.132 -3.40883 -3.76512 0
M  V30 1749 H 172.062 -2.01071 -4.86701 0
M  V30 1750 H 174.553 -1.80768 -3.3186 0
M  V30 1751 H 174.866 -4.23366 -6.46514 0
M  V30 1752 H 173.211 -3.80163 -5.81808 0
M  V30 1753 H 176.402 -2.31278 -4.06974 0
M  V30 1754 H 176.575 -3.41885 -5.50471 0
M  V30 1755 N 169.982 1.44106 -0.638065 0
M  V30 1756 C 170.945 2.29138 0.0531013 0
M  V30 1757 C 171.945 1.41409 0.765506 0
M  V30 1758 O 173.135 1.63206 0.609046 0
M  V30 1759 C 170.267 3.23144 1.08584 0
M  V30 1760 H 171.46 2.91739 -0.694883 0
M  V30 1761 H 169.013 1.51134 -0.398538 0
M  V30 1762 H 169.748 2.65408 1.86357 0
M  V30 1763 H 169.533 3.87804 0.578852 0
M  V30 1764 H 171.023 3.87004 1.56899 0
M  V30 1765 N 171.46 0.379036 1.52974 0
M  V30 1766 C 172.876 0.0285448 1.59574 0
M  V30 1767 C 173.076 -1.45542 1.39355 0
M  V30 1768 O 172.132 -2.2187 1.20541 0
M  V30 1769 C 173.445 0.496535 2.96572 0
M  V30 1770 C 174.993 0.451909 3.0972 0
M  V30 1771 C 175.468 0.895924 4.49152 0
M  V30 1772 N 176.959 0.851522 4.55306 0
M  V30 1773 C 177.694 1.16661 5.61407 0
M  V30 1774 N 177.19 1.55166 6.752 0
M  V30 1775 N 178.983 1.08853 5.51459 0
M  V30 1776 H 171.134 1.34525 1.64367 0
M  V30 1777 H 173.397 0.550733 0.771619 0
M  V30 1778 H 173.103 1.53258 3.16552 0
M  V30 1779 H 172.977 -0.109802 3.7704 0
M  V30 1780 H 175.364 -0.575029 2.89443 0
M  V30 1781 H 175.445 1.09392 2.3123 0
M  V30 1782 H 175.089 1.92104 4.70168 0
M  V30 1783 H 175.019 0.23103 5.26093 0
M  V30 1784 H 177.51 0.568038 3.73606 0
M  V30 1785 H 177.823 1.776 7.52116 0
M  V30 1786 H 176.168 1.59044 6.76557 0
M  V30 1787 H 179.359 0.786803 4.6144 0
M  V30 1788 H 179.532 1.33742 6.34048 0
M  V30 1789 N 172.938 -1.57226 0.108567 0
M  V30 1790 C 174.184 -1.95121 -0.552761 0
M  V30 1791 C 174.517 -0.991345 -1.66991 0
M  V30 1792 O 173.792 -0.0267211 -1.94482 0
M  V30 1793 C 174.075 -3.43039 -1.09528 0
M  V30 1794 C 173.928 -4.49797 0.0177332 0
M  V30 1795 C 175.247 -3.92567 -1.98945 0
M  V30 1796 H 172.366 -0.709496 -0.199461 0
M  V30 1797 H 175.008 -1.89126 0.182011 0
M  V30 1798 H 173.158 -3.48279 -1.72146 0
M  V30 1799 H 174.83 -4.56661 0.652584 0
M  V30 1800 H 173.073 -4.284 0.682309 0
M  V30 1801 H 173.744 -5.50528 -0.402919 0
M  V30 1802 H 176.22 -3.89565 -1.46214 0
M  V30 1803 H 175.096 -4.96605 -2.33827 0
M  V30 1804 H 175.357 -3.32648 -2.91201 0
M  V30 1805 N 174.416 0.165178 -1.56732 0
M  V30 1806 C 175.656 0.887231 -1.8414 0
M  V30 1807 C 176.02 1.79159 -0.690353 0
M  V30 1808 O 177.221 2.55172 -0.845032 0
M  V30 1809 C 175.492 1.65674 -3.16681 0
M  V30 1810 S 177.051 2.42671 -3.6559 0
M  V30 1811 H 173.869 0.297042 -0.645978 0
M  V30 1812 H 176.471 0.148439 -1.94936 0
M  V30 1813 H 175.175 0.983507 -3.98441 0
M  V30 1814 H 174.706 2.43679 -3.08843 0
M  V30 1815 H 176.721 3.67499 -3.33406 0
M  V30 1816 N 175.894 1.51508 0.433938 0
M  V30 1817 C 176.804 1.75917 1.5521 0
M  V30 1818 C 177.82 0.643545 1.61662 0
M  V30 1819 O 178.996 0.926183 1.7884 0
M  V30 1820 C 176.061 1.88213 2.91164 0
M  V30 1821 C 175.122 3.12074 2.94802 0
M  V30 1822 C 174.355 3.23774 4.24271 0
M  V30 1823 O 174.578 2.4133 5.16833 0
M  V30 1824 O 173.512 4.16774 4.34262 0
M  V30 1825 H 177.338 2.70777 1.37527 0
M  V30 1826 H 174.923 1.36051 0.617293 0
M  V30 1827 H 176.805 1.98267 3.71845 0
M  V30 1828 H 175.48 0.965413 3.08968 0
M  V30 1829 H 174.387 3.07497 2.13065 0
M  V30 1830 H 175.72 4.03446 2.81943 0
M  V30 1831 N 177.372 -0.689602 1.41712 0
M  V30 1832 C 178.32 -1.82475 1.44242 0
M  V30 1833 C 179.314 -1.66354 0.319774 0
M  V30 1834 O 180.52 -1.73143 0.492089 0
M  V30 1835 H 176.895 -0.601416 0.451445 0
M  V30 1836 H 178.866 -1.77458 2.39899 0
M  V30 1837 C 177.615 -3.20535 1.3473 0
M  V30 1838 H 176.938 -3.33559 2.20405 0
M  V30 1839 H 178.378 -4.00023 1.40562 0
M  V30 1840 C 176.837 -3.36846 0.0603281 0
M  V30 1841 O 177.367 -3.91656 -0.892663 0
M  V30 1842 N 175.573 -2.90595 -0.0177039 0
M  V30 1843 H 175.12 -2.46178 0.758572 0
M  V30 1844 H 175.078 -3.01886 -0.878201 0
M  V30 1845 N 178.85 -1.27639 -0.924453 0
M  V30 1846 C 180.09 -1.15407 -1.68703 0
M  V30 1847 C 180.454 0.294581 -1.89727 0
M  V30 1848 O 181.655 0.539385 -2.63333 0
M  V30 1849 C 179.926 -1.9195 -3.0148 0
M  V30 1850 S 181.485 -1.95969 -3.92609 0
M  V30 1851 H 178.303 -0.411937 -0.579507 0
M  V30 1852 H 180.905 -1.61592 -1.10038 0
M  V30 1853 H 179.609 -2.96387 -2.83871 0
M  V30 1854 H 179.14 -1.46272 -3.65196 0
M  V30 1855 H 181.155 -1.05846 -4.84779 0
M  V30 1856 N 180.328 1.1314 -1.09713 0
M  V30 1857 C 181.261 2.17735 -0.683137 0
M  V30 1858 C 182.239 1.59582 0.311841 0
M  V30 1859 O 183.423 1.87298 0.212514 0
M  V30 1860 C 180.55 3.38699 -0.00684324 0
M  V30 1861 C 179.596 4.1546 -0.964102 0
M  V30 1862 S 180.429 4.74733 -2.47767 0
M  V30 1863 C 181.585 5.9904 -1.81387 0
M  V30 1864 H 181.818 2.52515 -1.56918 0
M  V30 1865 H 179.351 1.24484 -0.913404 0
M  V30 1866 H 181.309 4.08765 0.377044 0
M  V30 1867 H 179.97 3.02214 0.85589 0
M  V30 1868 H 179.163 5.02093 -0.43803 0
M  V30 1869 H 178.765 3.51066 -1.28953 0
M  V30 1870 H 181.057 6.67846 -1.13967 0
M  V30 1871 H 182 6.56261 -2.65947 0
M  V30 1872 H 182.408 5.4976 -1.28155 0
M  V30 1873 N 181.806 0.884767 1.30421 0
M  V30 1874 C 182.716 0.355398 2.31892 0
M  V30 1875 C 183.732 -0.542261 1.65335 0
M  V30 1876 O 184.908 -0.435432 1.96637 0
M  V30 1877 C 181.973 -0.421661 3.44126 0
M  V30 1878 C 181.034 0.505727 4.26311 0
M  V30 1879 C 180.267 -0.234343 5.33185 0
M  V30 1880 O 180.49 -1.46045 5.51386 0
M  V30 1881 O 179.424 0.415443 6.00465 0
M  V30 1882 H 183.25 1.19685 2.79122 0
M  V30 1883 H 180.835 0.648596 1.34587 0
M  V30 1884 H 182.717 -0.861641 4.12497 0
M  V30 1885 H 181.392 -1.23942 2.99032 0
M  V30 1886 H 180.299 0.994513 3.60639 0
M  V30 1887 H 181.632 1.28948 4.75009 0
M  V30 1888 N 183.284 -1.43765 0.645699 0
M  V30 1889 C 184.217 -2.2798 -0.100072 0
M  V30 1890 C 185.195 -1.39391 -0.837194 0
M  V30 1891 O 186.379 -1.68833 -0.838306 0
M  V30 1892 C 183.506 -3.18643 -1.14823 0
M  V30 1893 C 182.552 -4.2344 -0.510009 0
M  V30 1894 S 183.385 -5.30761 0.710824 0
M  V30 1895 C 184.541 -6.24992 -0.33699 0
M  V30 1896 H 184.774 -2.90884 0.614322 0
M  V30 1897 H 182.307 -1.48166 0.434304 0
M  V30 1898 H 184.265 -3.71424 -1.74799 0
M  V30 1899 H 182.926 -2.54932 -1.8349 0
M  V30 1900 H 182.119 -4.86948 -1.29991 0
M  V30 1901 H 181.721 -3.73997 0.0154577 0
M  V30 1902 H 184.013 -6.66691 -1.20537 0
M  V30 1903 H 184.956 -7.07612 0.262879 0
M  V30 1904 H 185.364 -5.60517 -0.669425 0
M  V30 1905 N 184.763 -0.387143 -1.52771 0
M  V30 1906 C 186.04 0.253197 -1.93954 0
M  V30 1907 C 186.42 1.64545 -1.32243 0
M  V30 1908 O 185.768 2.23191 -0.489699 0
M  V30 1909 C 185.978 0.281722 -3.47861 0
M  V30 1910 C 187.326 0.511715 -4.21505 0
M  V30 1911 O 188.35 0.362023 -3.54356 0
M  V30 1912 O 187.209 0.804847 -5.40541 0
M  V30 1913 H 184.303 0.156845 -0.811991 0
M  V30 1914 H 186.849 -0.441494 -1.63856 0
M  V30 1915 H 185.621 -0.693571 -3.85104 0
M  V30 1916 H 185.244 1.02142 -3.84256 0
M  V30 1917 N 186.241 1.57166 -0.116904 0
M  V30 1918 C 187.487 1.95412 0.542405 0
M  V30 1919 C 187.82 1.00019 1.66463 0
M  V30 1920 O 187.095 0.0370346 1.94465 0
M  V30 1921 C 187.378 3.43615 1.07708 0
M  V30 1922 C 187.231 4.49781 -0.0415868 0
M  V30 1923 C 188.55 3.93616 1.96861 0
M  V30 1924 H 185.669 0.710543 0.195696 0
M  V30 1925 H 188.311 1.89027 -0.192038 0
M  V30 1926 H 186.461 3.49187 1.70296 0
M  V30 1927 H 188.133 4.56308 -0.676793 0
M  V30 1928 H 186.376 4.28033 -0.705019 0
M  V30 1929 H 187.047 5.50733 0.373717 0
M  V30 1930 H 189.523 3.90335 1.44146 0
M  V30 1931 H 188.399 4.97838 2.3119 0
M  V30 1932 H 188.66 3.34188 2.89432 0
M  V30 1933 N 187.719 -0.156864 1.56817 0
M  V30 1934 C 188.652 -1.22316 1.9265 0
M  V30 1935 C 189.63 -1.42059 0.791076 0
M  V30 1936 O 190.814 -1.56831 1.04576 0
M  V30 1937 C 187.941 -2.58375 2.18998 0
M  V30 1938 C 186.987 -2.55284 3.41661 0
M  V30 1939 S 187.82 -2.02946 4.95553 0
M  V30 1940 C 188.976 -3.40753 5.25013 0
M  V30 1941 H 189.209 -0.917403 2.82791 0
M  V30 1942 H 186.742 -0.362059 1.50095 0
M  V30 1943 H 188.7 -3.36677 2.34859 0
M  V30 1944 H 187.361 -2.86145 1.29538 0
M  V30 1945 H 186.554 -3.55418 3.57343 0
M  V30 1946 H 186.156 -1.85086 3.24991 0
M  V30 1947 H 188.448 -4.36819 5.17876 0
M  V30 1948 H 189.391 -3.29933 6.26538 0
M  V30 1949 H 189.799 -3.37433 4.52548 0
M  V30 1950 N 189.197 -1.51736 -0.425897 0
M  V30 1951 C 190.422 -1.69082 -1.20108 0
M  V30 1952 C 190.847 -0.392398 -1.83962 0
M  V30 1953 O 190.205 0.64858 -1.69302 0
M  V30 1954 C 190.253 -2.81604 -2.25237 0
M  V30 1955 O 189.357 -2.46004 -3.30992 0
M  V30 1956 H 188.698 -0.563408 -0.35138 0
M  V30 1957 H 191.228 -1.98358 -0.501512 0
M  V30 1958 H 191.238 -3.06025 -2.69838 0
M  V30 1959 H 189.913 -3.75817 -1.78142 0
M  V30 1960 H 188.49 -2.32195 -2.91787 0
M  V30 1961 N 190.675 0.682077 -1.42076 0
M  V30 1962 C 191.921 1.44428 -1.42367 0
M  V30 1963 C 192.254 1.94164 -0.0373056 0
M  V30 1964 O 191.529 1.70429 0.937239 0
M  V30 1965 C 191.812 2.64654 -2.44194 0
M  V30 1966 C 191.665 2.20596 -3.91991 0
M  V30 1967 C 192.984 3.66865 -2.431 0
M  V30 1968 H 190.103 0.523834 -0.518428 0
M  V30 1969 H 192.745 0.77576 -1.73442 0
M  V30 1970 H 190.895 3.2169 -2.17826 0
M  V30 1971 H 192.567 1.68783 -4.29313 0
M  V30 1972 H 190.81 1.52242 -4.06208 0
M  V30 1973 H 191.481 3.06921 -4.58807 0
M  V30 1974 H 193.957 3.19531 -2.66532 0
M  V30 1975 H 192.833 4.48577 -3.16339 0
M  V30 1976 H 193.094 4.17493 -1.45437 0
M  V30 1977 N 192.153 1.28127 0.917671 0
M  V30 1978 C 193.116 1.11744 2.00115 0
M  V30 1979 C 194.116 0.0583052 1.60694 0
M  V30 1980 O 195.306 0.303755 1.71531 0
M  V30 1981 C 192.438 0.704862 3.33533 0
M  V30 1982 H 193.631 2.07966 2.16079 0
M  V30 1983 H 191.184 1.11058 1.09981 0
M  V30 1984 H 191.919 -0.258299 3.2327 0
M  V30 1985 H 191.704 1.4699 3.63505 0
M  V30 1986 H 193.194 0.612768 4.1308 0
M  V30 1987 N 193.631 -1.12557 1.10312 0
M  V30 1988 C 194.859 -1.87864 0.866873 0
M  V30 1989 C 195.274 -1.79588 -0.582557 0
M  V30 1990 O 194.631 -1.16887 -1.40156 0
M  V30 1991 C 194.682 -3.37125 1.30496 0
M  V30 1992 O 194.403 -3.45201 2.69755 0
M  V30 1993 C 195.904 -4.29373 1.10243 0
M  V30 1994 H 193.124 -0.594452 0.311236 0
M  V30 1995 H 195.668 -1.42429 1.46745 0
M  V30 1996 H 193.823 -3.80109 0.748081 0
M  V30 1997 H 194.237 -4.38056 2.88457 0
M  V30 1998 H 195.711 -5.32394 1.45811 0
M  V30 1999 H 196.188 -4.39181 0.0409492 0
M  V30 2000 H 196.794 -3.92169 1.64571 0
M  V30 2001 N 195.109 -0.891671 -1.2995 0
M  V30 2002 C 196.358 -0.509521 -1.95158 0
M  V30 2003 C 196.671 0.947388 -1.71125 0
M  V30 2004 O 197.877 1.43669 -2.30372 0
M  V30 2005 C 196.333 -0.860315 -3.49466 0
M  V30 2006 C 195.941 -2.33545 -3.8231 0
M  V30 2007 C 197.685 -0.547687 -4.20952 0
M  V30 2008 C 195.592 -2.62752 -5.29826 0
M  V30 2009 H 194.522 -0.18682 -0.730489 0
M  V30 2010 H 197.173 -1.08756 -1.47798 0
M  V30 2011 H 195.555 -0.211285 -3.95436 0
M  V30 2012 H 196.729 -3.02936 -3.47227 0
M  V30 2013 H 195.044 -2.61629 -3.23944 0
M  V30 2014 H 197.641 -0.742854 -5.29515 0
M  V30 2015 H 197.984 0.51332 -4.13123 0
M  V30 2016 H 198.517 -1.1542 -3.80688 0
M  V30 2017 H 195.256 -3.6762 -5.42712 0
M  V30 2018 H 194.776 -1.97977 -5.66185 0
M  V30 2019 H 196.455 -2.48601 -5.97333 0
M  V30 2020 N 196.587 1.43421 -0.653314 0
M  V30 2021 C 197.833 2.02111 -0.166992 0
M  V30 2022 C 198.166 1.51423 1.21592 0
M  V30 2023 O 197.441 0.707389 1.8118 0
M  V30 2024 C 197.724 3.5966 -0.177948 0
M  V30 2025 C 197.577 4.20579 -1.59478 0
M  V30 2026 C 198.896 4.37413 0.4856 0
M  V30 2027 H 196.015 0.734374 -0.0621557 0
M  V30 2028 H 198.657 1.70717 -0.834016 0
M  V30 2029 H 196.807 3.86537 0.390032 0
M  V30 2030 H 198.479 4.04732 -2.21336 0
M  V30 2031 H 196.722 3.77226 -2.14204 0
M  V30 2032 H 197.393 5.29665 -1.5543 0
M  V30 2033 H 199.869 4.161 0.00234528 0
M  V30 2034 H 198.745 5.47075 0.447207 0
M  V30 2035 H 199.006 4.13672 1.55974 0
M  V30 2036 N 198.065 0.39524 1.52563 0
M  V30 2037 C 199.314 -0.186321 2.00838 0
M  V30 2038 C 199.627 -1.47402 1.28577 0
M  V30 2039 O 200.833 -2.13599 1.67593 0
M  V30 2040 C 199.289 -0.382595 3.57861 0
M  V30 2041 C 198.897 0.892202 4.39026 0
M  V30 2042 C 200.641 -0.9202 4.14406 0
M  V30 2043 C 198.548 0.66388 5.87662 0
M  V30 2044 H 197.478 -0.0734041 0.750418 0
M  V30 2045 H 200.129 0.518552 1.76021 0
M  V30 2046 H 198.511 -1.14946 3.7895 0
M  V30 2047 H 199.685 1.66414 4.29701 0
M  V30 2048 H 198 1.35519 3.9373 0
M  V30 2049 H 200.597 -1.10683 5.23119 0
M  V30 2050 H 200.94 -1.89096 3.70875 0
M  V30 2051 H 201.473 -0.212751 3.97231 0
M  V30 2052 H 198.212 1.6058 6.35527 0
M  V30 2053 H 197.732 -0.0690193 5.9976 0
M  V30 2054 H 199.411 0.300699 6.46301 0
M  V30 2055 N 199.544 -1.57102 0.125237 0
M  V30 2056 C 200.79 -1.95697 -0.532035 0
M  V30 2057 C 201.123 -1.009 -1.6593 0
M  V30 2058 O 200.398 -0.047347 -1.94442 0
M  V30 2059 C 200.681 -3.44181 -1.05884 0
M  V30 2060 C 200.534 -4.49752 0.0654392 0
M  V30 2061 C 201.853 -3.94655 -1.9477 0
M  V30 2062 H 198.972 -0.711571 -0.191925 0
M  V30 2063 H 201.614 -1.88923 0.20206 0
M  V30 2064 H 199.764 -3.50085 -1.68442 0
M  V30 2065 H 201.436 -4.55943 0.700982 0
M  V30 2066 H 199.679 -4.27653 0.727709 0
M  V30 2067 H 200.35 -5.50924 -0.344505 0
M  V30 2068 H 202.826 -3.91094 -1.42074 0
M  V30 2069 H 201.702 -4.99057 -2.28546 0
M  V30 2070 H 201.963 -3.35718 -2.87656 0
M  V30 2071 N 201.022 0.148545 -1.56898 0
M  V30 2072 C 202.299 0.890019 -1.74178 0
M  V30 2073 C 202.679 1.99407 -0.692839 0
M  V30 2074 O 202.027 2.26671 0.288505 0
M  V30 2075 C 202.237 1.43389 -3.18183 0
M  V30 2076 C 203.585 1.89791 -3.79822 0
M  V30 2077 O 204.609 1.53134 -3.21603 0
M  V30 2078 O 203.468 2.57387 -4.82093 0
M  V30 2079 H 200.562 0.420496 -0.712118 0
M  V30 2080 H 203.108 0.134591 -1.69165 0
M  V30 2081 H 201.88 0.640383 -3.86024 0
M  V30 2082 H 201.503 2.25287 -3.27615 0
M  V30 2083 N 202.5 1.5196 0.417844 0
M  V30 2084 C 203.749 1.6482 1.16264 0
M  V30 2085 C 204.062 0.379886 1.91876 0
M  V30 2086 O 205.268 0.388154 2.68711 0
M  V30 2087 C 203.724 2.91161 2.1155 0
M  V30 2088 C 203.332 4.25068 1.41495 0
M  V30 2089 C 205.076 3.13383 2.86341 0
M  V30 2090 C 202.983 5.42541 2.35379 0
M  V30 2091 H 201.913 0.613954 0.437694 0
M  V30 2092 H 204.564 1.78442 0.427871 0
M  V30 2093 H 202.946 2.71218 2.88543 0
M  V30 2094 H 204.12 4.55463 0.699263 0
M  V30 2095 H 202.435 4.0888 0.787792 0
M  V30 2096 H 205.032 3.98324 3.5671 0
M  V30 2097 H 205.375 2.27256 3.48798 0
M  V30 2098 H 205.908 3.33757 2.1645 0
M  V30 2099 H 202.647 6.30987 1.77582 0
M  V30 2100 H 202.167 5.16497 3.04945 0
M  V30 2101 H 203.846 5.75272 2.96093 0
M  V30 2102 N 203.978 -0.674533 1.42435 0
M  V30 2103 C 205.218 -1.4466 1.44405 0
M  V30 2104 C 205.582 -1.91911 0.0585784 0
M  V30 2105 O 206.783 -2.68759 -0.0469991 0
M  V30 2106 C 205.054 -2.61136 2.44013 0
M  V30 2107 S 206.613 -3.49981 2.64687 0
M  V30 2108 H 203.431 -0.494074 0.511284 0
M  V30 2109 H 206.033 -0.785162 1.7904 0
M  V30 2110 H 204.737 -2.24662 3.43446 0
M  V30 2111 H 204.268 -3.32153 2.10803 0
M  V30 2112 H 206.283 -4.57124 1.93007 0
M  V30 2113 N 205.456 -1.28612 -0.910864 0
M  V30 2114 C 206.705 -1.15311 -1.65488 0
M  V30 2115 C 207.018 0.296999 -1.93332 0
M  V30 2116 O 208.224 0.551168 -2.65847 0
M  V30 2117 C 206.68 -2.01599 -2.98137 0
M  V30 2118 C 206.288 -3.51367 -2.7793 0
M  V30 2119 C 208.032 -1.96993 -3.76024 0
M  V30 2120 C 205.939 -4.29797 -4.06237 0
M  V30 2121 H 204.869 -0.42796 -0.620779 0
M  V30 2122 H 207.52 -1.53166 -1.01057 0
M  V30 2123 H 205.902 -1.56603 -3.63719 0
M  V30 2124 H 207.076 -4.0434 -2.21011 0
M  V30 2125 H 205.391 -3.57529 -2.13452 0
M  V30 2126 H 207.988 -2.52856 -4.71135 0
M  V30 2127 H 208.331 -0.94733 -4.05378 0
M  V30 2128 H 208.864 -2.39973 -3.17266 0
M  V30 2129 H 205.603 -5.32648 -3.82055 0
M  V30 2130 H 205.123 -3.81596 -4.62757 0
M  V30 2131 H 206.802 -4.39869 -4.74473 0
M  V30 2132 N 206.934 1.1197 -1.10907 0
M  V30 2133 C 208.162 1.87402 -0.876824 0
M  V30 2134 C 208.577 1.79894 0.573025 0
M  V30 2135 O 207.934 1.17629 1.39534 0
M  V30 2136 C 207.985 3.36428 -1.32282 0
M  V30 2137 O 207.706 3.43765 -2.71582 0
M  V30 2138 C 209.207 4.28783 -1.12518 0
M  V30 2139 H 206.427 0.592793 -0.314384 0
M  V30 2140 H 208.971 1.41649 -1.47499 0
M  V30 2141 H 207.126 3.79706 -0.768229 0
M  V30 2142 H 207.54 4.3652 -2.90776 0
M  V30 2143 H 209.014 5.31613 -1.48633 0
M  V30 2144 H 209.491 4.39153 -0.0642394 0
M  V30 2145 H 210.097 3.91291 -1.66648 0
M  V30 2146 N 208.412 0.89855 1.29475 0
M  V30 2147 C 209.66 0.522847 1.9522 0
M  V30 2148 C 209.981 -0.93371 1.71192 0
M  V30 2149 O 209.251 -1.65823 1.04305 0
M  V30 2150 H 207.831 0.190366 0.722336 0
M  V30 2151 H 210.493 1.14459 1.5775 0
M  V30 2152 H 209.589 0.704476 3.04045 0
M  V30 2153 N 209.89 -1.43072 0.660911 0
M  V30 2154 C 211.138 -2.01323 0.177094 0
M  V30 2155 C 211.459 -1.5245 -1.2159 0
M  V30 2156 O 210.729 -0.740322 -1.81373 0
M  V30 2157 H 209.309 -0.744382 0.0624804 0
M  V30 2158 H 211.971 -1.75179 0.854305 0
M  V30 2159 H 211.067 -3.11649 0.167641 0
M  V30 2160 N 211.368 -0.403325 -1.52352 0
M  V30 2161 C 212.298 0.416205 -2.29761 0
M  V30 2162 C 213.279 1.05123 -1.33728 0
M  V30 2163 O 214.464 1.06134 -1.62632 0
M  V30 2164 C 211.594 1.53624 -3.11475 0
M  V30 2165 C 210.548 1.02653 -4.15507 0
M  V30 2166 C 209.874 2.23971 -4.85532 0
M  V30 2167 C 211.174 0.08463 -5.22231 0
M  V30 2168 H 212.868 -0.229701 -2.98518 0
M  V30 2169 H 210.414 -0.111913 -1.43564 0
M  V30 2170 H 212.367 2.1165 -3.64393 0
M  V30 2171 H 211.091 2.20994 -2.40477 0
M  V30 2172 H 209.75 0.46871 -3.63591 0
M  V30 2173 H 209.398 2.89883 -4.11068 0
M  V30 2174 H 209.098 1.90521 -5.55856 0
M  V30 2175 H 210.622 2.82614 -5.41259 0
M  V30 2176 H 212.036 0.573509 -5.70424 0
M  V30 2177 H 210.433 -0.160783 -5.99885 0
M  V30 2178 H 211.503 -0.86237 -4.7717 0
M  V30 2179 N 212.846 1.57033 -0.133567 0
M  V30 2180 C 213.776 2.1909 0.807567 0
M  V30 2181 C 214.757 1.13517 1.26681 0
M  V30 2182 O 215.942 1.41809 1.32679 0
M  V30 2183 C 213.072 2.80188 2.05212 0
M  V30 2184 C 212.026 3.91471 1.73015 0
M  V30 2185 C 211.352 4.39443 3.04622 0
M  V30 2186 C 212.652 5.12886 0.987168 0
M  V30 2187 H 214.346 2.97988 0.290403 0
M  V30 2188 H 211.892 1.43335 0.138239 0
M  V30 2189 H 213.845 3.22264 2.71521 0
M  V30 2190 H 212.569 1.98601 2.59278 0
M  V30 2191 H 211.228 3.49993 1.0909 0
M  V30 2192 H 210.876 3.54695 3.56651 0
M  V30 2193 H 210.576 5.14495 2.83847 0
M  V30 2194 H 212.1 4.8418 3.72024 0
M  V30 2195 H 213.514 5.51891 1.55208 0
M  V30 2196 H 211.911 5.93615 0.87985 0
M  V30 2197 H 212.981 4.84894 -0.0235286 0
M  V30 2198 N 214.325 -0.140222 1.56975 0
M  V30 2199 C 215.255 -1.17456 2.01808 0
M  V30 2200 C 216.236 -1.44415 0.898794 0
M  V30 2201 O 217.421 -1.5522 1.16707 0
M  V30 2202 C 214.551 -2.50607 2.40444 0
M  V30 2203 C 213.505 -2.38155 3.55621 0
M  V30 2204 C 212.831 -3.76078 3.80091 0
M  V30 2205 C 214.131 -1.85991 4.88062 0
M  V30 2206 H 215.825 -0.801743 2.88466 0
M  V30 2207 H 213.371 -0.38422 1.38779 0
M  V30 2208 H 215.324 -3.23197 2.7041 0
M  V30 2209 H 214.048 -2.89737 1.50732 0
M  V30 2210 H 212.707 -1.68016 3.25832 0
M  V30 2211 H 212.355 -4.12656 2.87618 0
M  V30 2212 H 212.055 -3.68606 4.57606 0
M  V30 2213 H 213.579 -4.50206 4.12488 0
M  V30 2214 H 214.993 -2.4838 5.16701 0
M  V30 2215 H 213.39 -1.89393 5.6943 0
M  V30 2216 H 214.46 -0.816023 4.77984 0
M  V30 2217 N 215.803 -1.52179 -0.40978 0
M  V30 2218 C 216.733 -1.78435 -1.5061 0
M  V30 2219 C 217.714 -0.635295 -1.57791 0
M  V30 2220 O 218.899 -0.880823 -1.73076 0
M  V30 2221 C 216.029 -1.93444 -2.88439 0
M  V30 2222 C 214.983 -3.09038 -2.96108 0
M  V30 2223 C 214.309 -3.09268 -4.36185 0
M  V30 2224 C 215.609 -4.48508 -2.67652 0
M  V30 2225 H 217.303 -2.70237 -1.28889 0
M  V30 2226 H 214.849 -1.30036 -0.618605 0
M  V30 2227 H 216.802 -2.10394 -3.65119 0
M  V30 2228 H 215.526 -0.983129 -3.11452 0
M  V30 2229 H 214.185 -2.91837 -2.21872 0
M  V30 2230 H 213.833 -2.11861 -4.56206 0
M  V30 2231 H 213.533 -3.86907 -4.42241 0
M  V30 2232 H 215.057 -3.28348 -5.14801 0
M  V30 2233 H 216.471 -4.65918 -3.34056 0
M  V30 2234 H 214.868 -5.28059 -2.85085 0
M  V30 2235 H 215.938 -4.56649 -1.63095 0
M  V30 2236 N 217.281 0.66697 -1.42791 0
M  V30 2237 C 218.527 1.4291 -1.43891 0
M  V30 2238 C 218.86 1.94114 -0.0578972 0
M  V30 2239 O 218.135 1.71414 0.91911 0
M  V30 2240 C 218.418 2.62049 -2.46987 0
M  V30 2241 C 218.271 2.16426 -3.94309 0
M  V30 2242 C 219.59 3.64266 -2.46978 0
M  V30 2243 H 216.709 0.518306 -0.523954 0
M  V30 2244 H 219.351 0.757321 -1.74255 0
M  V30 2245 H 217.501 3.19361 -2.21225 0
M  V30 2246 H 219.173 1.64221 -4.31079 0
M  V30 2247 H 217.416 1.47925 -4.078 0
M  V30 2248 H 218.087 3.02038 -4.62036 0
M  V30 2249 H 220.563 3.16686 -2.69906 0
M  V30 2250 H 219.439 4.45196 -3.21079 0
M  V30 2251 H 219.7 4.15927 -1.49857 0
M  V30 2252 N 218.759 1.29093 0.90403 0
M  V30 2253 C 219.989 1.19516 1.68522 0
M  V30 2254 C 220.397 -0.24738 1.87576 0
M  V30 2255 O 219.74 -1.17798 1.40959 0
M  V30 2256 C 219.802 1.83249 3.0929 0
M  V30 2257 C 219.466 3.32531 3.13484 0
M  V30 2258 C 220.463 4.28821 2.93953 0
M  V30 2259 C 218.148 3.73656 3.35688 0
M  V30 2260 C 220.142 5.64212 2.96553 0
M  V30 2261 C 217.829 5.0917 3.37919 0
M  V30 2262 C 218.827 6.04258 3.18373 0
M  V30 2263 O 218.515 7.37298 3.20385 0
M  V30 2264 H 218.247 0.415467 0.533257 0
M  V30 2265 H 220.801 1.70912 1.13922 0
M  V30 2266 H 219.031 1.26358 3.65473 0
M  V30 2267 H 220.72 1.68054 3.69476 0
M  V30 2268 H 221.486 3.98382 2.76616 0
M  V30 2269 H 217.365 3.00101 3.49943 0
M  V30 2270 H 220.909 6.38407 2.81216 0
M  V30 2271 H 216.806 5.39256 3.54787 0
M  V30 2272 H 217.574 7.46048 3.36681 0
M  V30 2273 N 220.237 -1.11381 1.11499 0
M  V30 2274 C 221.467 -1.86663 0.885464 0
M  V30 2275 C 221.875 -1.80464 -0.568281 0
M  V30 2276 O 221.218 -1.18445 -1.40415 0
M  V30 2277 C 221.28 -3.36337 1.26956 0
M  V30 2278 C 220.944 -3.66304 2.73259 0
M  V30 2279 C 221.941 -3.63733 3.71476 0
M  V30 2280 C 219.626 -3.9529 3.09921 0
M  V30 2281 C 221.62 -3.89725 5.04374 0
M  V30 2282 C 219.307 -4.20941 4.43004 0
M  V30 2283 C 220.305 -4.18147 5.40039 0
M  V30 2284 O 219.993 -4.43153 6.70724 0
M  V30 2285 H 219.725 -0.597114 0.316908 0
M  V30 2286 H 222.279 -1.41782 1.48617 0
M  V30 2287 H 220.509 -3.81826 0.611999 0
M  V30 2288 H 222.198 -3.92986 1.01573 0
M  V30 2289 H 222.964 -3.41389 3.44498 0
M  V30 2290 H 218.843 -3.966 2.35009 0
M  V30 2291 H 222.387 -3.8746 5.80104 0
M  V30 2292 H 218.284 -4.42761 4.69716 0
M  V30 2293 H 219.052 -4.60717 6.76522 0
M  V30 2294 N 221.715 -0.905404 -1.28997 0
M  V30 2295 C 222.961 -0.544465 -1.95977 0
M  V30 2296 C 223.316 0.90041 -1.70031 0
M  V30 2297 O 222.609 1.63064 -1.00601 0
M  V30 2298 C 222.803 -0.779906 -3.48787 0
M  V30 2299 C 222.632 -2.24612 -3.89589 0
M  V30 2300 C 221.402 -2.89464 -4.14172 0
M  V30 2301 C 223.6 -3.22182 -4.00878 0
M  V30 2302 N 221.582 -4.26469 -4.41585 0
M  V30 2303 C 222.953 -4.44323 -4.32409 0
M  V30 2304 C 225.008 -3.17694 -3.83373 0
M  V30 2305 C 223.711 -5.62546 -4.48258 0
M  V30 2306 C 225.737 -4.35208 -4.00435 0
M  V30 2307 C 225.099 -5.56121 -4.3233 0
M  V30 2308 H 221.198 -0.248948 -0.741316 0
M  V30 2309 H 223.782 -1.1674 -1.5582 0
M  V30 2310 H 221.953 -0.186308 -3.87953 0
M  V30 2311 H 223.685 -0.383833 -4.02876 0
M  V30 2312 H 220.44 -2.40232 -4.08149 0
M  V30 2313 H 220.864 -4.97283 -4.5939 0
M  V30 2314 H 225.506 -2.25297 -3.57773 0
M  V30 2315 H 223.224 -6.55429 -4.72692 0
M  V30 2316 H 226.81 -4.33228 -3.88336 0
M  V30 2317 H 225.69 -6.45537 -4.45255 0
M  V30 2318 N 223.193 1.4272 -0.668489 0
M  V30 2319 C 224.418 2.06484 -0.194758 0
M  V30 2320 C 224.843 1.49862 1.13679 0
M  V30 2321 O 224.201 0.614582 1.70565 0
M  V30 2322 C 224.249 3.60353 -0.133546 0
M  V30 2323 O 223.353 4.02464 0.899806 0
M  V30 2324 H 222.694 0.656137 -0.10188 0
M  V30 2325 H 225.224 1.82964 -0.915722 0
M  V30 2326 H 225.234 4.07976 0.0447041 0
M  V30 2327 H 223.909 4.00938 -1.1055 0
M  V30 2328 H 222.486 3.66402 0.693109 0
M  V30 2329 N 224.671 0.411399 1.52136 0
M  V30 2330 C 225.618 -0.412975 2.27075 0
M  V30 2331 C 226.588 -1.03912 1.29582 0
M  V30 2332 O 227.773 -1.06296 1.58448 0
M  V30 2333 C 224.913 -1.52247 3.09701 0
M  V30 2334 C 224.026 -0.917021 4.22155 0
M  V30 2335 C 223.161 -1.9994 4.92135 0
M  V30 2336 C 222.2 -1.37101 5.96548 0
M  V30 2337 N 221.337 -2.39364 6.60038 0
M  V30 2338 H 226.177 0.232499 2.97092 0
M  V30 2339 H 223.714 0.126496 1.46555 0
M  V30 2340 H 225.672 -2.17674 3.55913 0
M  V30 2341 H 224.302 -2.13794 2.41851 0
M  V30 2342 H 223.354 -0.151742 3.80097 0
M  V30 2343 H 224.666 -0.418006 4.97045 0
M  V30 2344 H 223.82 -2.73088 5.41763 0
M  V30 2345 H 222.559 -2.53208 4.16818 0
M  V30 2346 H 221.564 -0.624873 5.46237 0
M  V30 2347 H 222.789 -0.845998 6.7381 0
M  V30 2348 H 220.735 -2.91759 5.87548 0
M  V30 2349 H 220.652 -1.9428 7.3061 0
M  V30 2350 H 221.92 -3.12074 7.14304 0
M  V30 2351 N 226.149 -1.5696 0.141893 0
M  V30 2352 C 227.097 -2.17784 -0.816874 0
M  V30 2353 C 228.091 -1.1334 -1.25899 0
M  V30 2354 O 229.297 -1.316 -1.22806 0
M  V30 2355 H 225.672 -0.697278 -0.281615 0
M  V30 2356 H 227.643 -2.97087 -0.279621 0
M  V30 2357 C 226.392 -2.80983 -2.04802 0
M  V30 2358 H 225.715 -3.61062 -1.7168 0
M  V30 2359 H 227.155 -3.2705 -2.69841 0
M  V30 2360 C 225.614 -1.79228 -2.8527 0
M  V30 2361 O 226.144 -1.25962 -3.8144 0
M  V30 2362 N 224.35 -1.48647 -2.49704 0
M  V30 2363 H 223.897 -1.92155 -1.71564 0
M  V30 2364 H 223.855 -0.808115 -3.03837 0
M  V30 2365 N 227.627 0.131896 -1.57047 0
M  V30 2366 C 229.043 0.485031 -1.52051 0
M  V30 2367 C 229.243 1.82563 -0.85281 0
M  V30 2368 O 228.299 2.48817 -0.429694 0
M  V30 2369 C 229.612 0.481409 -2.96821 0
M  V30 2370 C 231.16 0.565868 -3.07842 0
M  V30 2371 C 231.635 0.592762 -4.54148 0
M  V30 2372 N 233.126 0.654564 -4.58552 0
M  V30 2373 C 233.861 0.696608 -5.69153 0
M  V30 2374 N 233.357 0.697078 -6.89284 0
M  V30 2375 N 235.15 0.738639 -5.57226 0
M  V30 2376 H 227.301 -0.746664 -1.98843 0
M  V30 2377 H 229.564 -0.273999 -0.90754 0
M  V30 2378 H 229.27 -0.435731 -3.4899 0
M  V30 2379 H 229.144 1.3139 -3.53577 0
M  V30 2380 H 231.531 1.47343 -2.55684 0
M  V30 2381 H 231.612 -0.29406 -2.54104 0
M  V30 2382 H 231.256 -0.310701 -5.06949 0
M  V30 2383 H 231.186 1.46939 -5.05684 0
M  V30 2384 H 233.677 0.660887 -3.72076 0
M  V30 2385 H 233.99 0.731426 -7.69331 0
M  V30 2386 H 232.335 0.66471 -6.91814 0
M  V30 2387 H 235.526 0.735545 -4.62285 0
M  V30 2388 H 235.699 0.767938 -6.43434 0
M  V30 2389 N 229.106 1.52395 0.401703 0
M  V30 2390 C 230.053 1.76268 1.48991 0
M  V30 2391 C 231.023 0.605386 1.54675 0
M  V30 2392 O 232.208 0.843742 1.7113 0
M  V30 2393 C 229.348 1.92592 2.86361 0
M  V30 2394 C 228.461 3.20259 2.89928 0
M  V30 2395 C 227.596 3.26972 4.18644 0
M  V30 2396 C 226.635 4.48812 4.16214 0
M  V30 2397 N 225.772 4.52877 5.36514 0
M  V30 2398 H 230.612 2.6914 1.27935 0
M  V30 2399 H 228.149 1.33355 0.620871 0
M  V30 2400 H 230.107 2.0004 3.66115 0
M  V30 2401 H 228.737 1.03093 3.05895 0
M  V30 2402 H 227.789 3.21945 2.02621 0
M  V30 2403 H 229.101 4.10056 2.83999 0
M  V30 2404 H 228.255 3.33533 5.06794 0
M  V30 2405 H 226.994 2.35126 4.27278 0
M  V30 2406 H 225.999 4.4239 3.26453 0
M  V30 2407 H 227.224 5.41961 4.09213 0
M  V30 2408 H 225.17 3.63917 5.45802 0
M  V30 2409 H 225.087 5.36529 5.32609 0
M  V30 2410 H 226.355 4.63676 6.26597 0
M  V30 2411 N 230.584 -0.659388 1.43143 0
M  V30 2412 C 231.547 -1.75432 1.47501 0
M  V30 2413 C 232.547 -1.56707 0.360512 0
M  V30 2414 O 233.737 -1.62717 0.622002 0
M  V30 2415 C 230.869 -3.14239 1.32162 0
M  V30 2416 H 232.062 -1.7295 2.45006 0
M  V30 2417 H 229.615 -0.870469 1.29817 0
M  V30 2418 H 230.35 -3.22336 0.356401 0
M  V30 2419 H 230.135 -3.29235 2.12948 0
M  V30 2420 H 231.625 -3.94094 1.3813 0
M  V30 2421 N 232.062 -1.29571 -0.897171 0
M  V30 2422 C 233.009 -1.14916 -2.00158 0
M  V30 2423 C 233.979 -0.0418149 -1.66047 0
M  V30 2424 O 235.164 -0.209793 -1.89643 0
M  V30 2425 C 232.304 -0.834307 -3.34863 0
M  V30 2426 C 231.417 -2.02234 -3.8174 0
M  V30 2427 C 230.552 -1.64664 -5.05034 0
M  V30 2428 C 229.591 -2.80033 -5.44286 0
M  V30 2429 N 228.728 -2.42843 -6.58765 0
M  V30 2430 H 233.568 -2.09403 -2.12025 0
M  V30 2431 H 231.105 -1.042 -1.0383 0
M  V30 2432 H 233.063 -0.632436 -4.12379 0
M  V30 2433 H 231.693 0.0736656 -3.22716 0
M  V30 2434 H 230.745 -2.33583 -3.00238 0
M  V30 2435 H 232.057 -2.88673 -4.06779 0
M  V30 2436 H 231.211 -1.4078 -5.9014 0
M  V30 2437 H 229.95 -0.753766 -4.8184 0
M  V30 2438 H 228.955 -3.04596 -4.57713 0
M  V30 2439 H 230.18 -3.69989 -5.6946 0
M  V30 2440 H 228.126 -1.56046 -6.3717 0
M  V30 2441 H 228.043 -3.22815 -6.83613 0
M  V30 2442 H 229.311 -2.22285 -7.47134 0
M  V30 2443 N 233.54 1.10788 -1.12088 0
M  V30 2444 C 234.503 2.15207 -0.788577 0
M  V30 2445 C 235.503 1.59609 0.195317 0
M  V30 2446 O 236.693 1.74174 -0.0300193 0
M  V30 2447 C 233.825 3.4047 -0.171174 0
M  V30 2448 H 235.018 2.46116 -1.71368 0
M  V30 2449 H 232.571 1.26089 -0.923652 0
M  V30 2450 H 233.306 3.15176 0.763832 0
M  V30 2451 H 233.091 3.82109 -0.879514 0
M  V30 2452 H 234.581 4.17576 0.04496 0
M  V30 2453 N 235.018 0.912232 1.28515 0
M  V30 2454 C 235.965 0.397954 2.27343 0
M  V30 2455 C 236.935 -0.526766 1.57526 0
M  V30 2456 O 238.12 -0.449292 1.85435 0
M  V30 2457 C 235.26 -0.357263 3.43246 0
M  V30 2458 C 234.373 0.599788 4.27816 0
M  V30 2459 C 233.508 -0.173725 5.30916 0
M  V30 2460 C 232.547 0.777039 6.07148 0
M  V30 2461 N 231.684 0.0371398 7.0209 0
M  V30 2462 H 236.524 1.24577 2.70711 0
M  V30 2463 H 234.061 0.625612 1.33133 0
M  V30 2464 H 236.019 -0.8113 4.09236 0
M  V30 2465 H 234.649 -1.16943 3.00872 0
M  V30 2466 H 233.701 1.17235 3.61884 0
M  V30 2467 H 235.013 1.32704 4.80823 0
M  V30 2468 H 234.167 -0.688394 6.02782 0
M  V30 2469 H 232.906 -0.934041 4.78672 0
M  V30 2470 H 231.911 1.3031 5.34134 0
M  V30 2471 H 233.136 1.53689 6.61481 0
M  V30 2472 H 231.082 -0.705213 6.52198 0
M  V30 2473 H 230.999 0.704249 7.52713 0
M  V30 2474 H 232.267 -0.457383 7.78157 0
M  V30 2475 N 236.496 -1.42363 0.676048 0
M  V30 2476 C 237.907 -1.84649 0.275948 0
M  V30 2477 C 238.258 -1.56588 -1.18214 0
M  V30 2478 O 237.383 -1.02634 -1.90513 0
M  V30 2479 C 237.978 -3.35178 0.494053 0
M  V30 2480 C 236.537 -3.76109 0.148061 0
M  V30 2481 C 235.684 -2.65931 0.785891 0
M  V30 2482 H 238.635 -1.32192 0.878121 0
M  V30 2483 H 238.656 -3.79655 -0.25343 0
M  V30 2484 H 238.168 -3.55571 1.55535 0
M  V30 2485 H 236.269 -3.61323 -0.909742 0
M  V30 2486 H 236.382 -4.7546 0.589454 0
M  V30 2487 H 234.746 -2.53773 0.217113 0
M  V30 2488 H 235.529 -2.89146 1.85067 0
M  V30 2489 N 237.974 -0.419461 -1.51915 0
M  V30 2490 C 239.22 0.153166 -2.02221 0
M  V30 2491 C 239.553 1.43907 -1.30401 0
M  V30 2492 O 238.828 1.90055 -0.413438 0
M  V30 2493 C 239.111 0.390291 -3.57979 0
M  V30 2494 C 238.964 -0.913014 -4.40436 0
M  V30 2495 C 240.283 1.16794 -4.2432 0
M  V30 2496 H 237.402 0.0541924 -0.735005 0
M  V30 2497 H 240.044 -0.554955 -1.81715 0
M  V30 2498 H 238.194 0.993491 -3.75582 0
M  V30 2499 H 239.866 -1.54882 -4.34522 0
M  V30 2500 H 238.109 -1.52168 -4.06236 0
M  V30 2501 H 238.78 -0.701361 -5.47526 0
M  V30 2502 H 241.256 0.657161 -4.10878 0
M  V30 2503 H 240.132 1.3026 -5.3322 0
M  V30 2504 H 240.393 2.19132 -3.83971 0
M  V30 2505 N 239.452 1.56882 -0.150215 0
M  V30 2506 C 240.68 2.00593 0.506948 0
M  V30 2507 C 241.095 1.03033 1.58208 0
M  V30 2508 O 240.452 0.0278396 1.82479 0
M  V30 2509 C 240.503 3.44209 1.10465 0
M  V30 2510 O 240.224 4.3804 0.0724636 0
M  V30 2511 C 241.725 4.03214 1.84211 0
M  V30 2512 H 238.945 0.65795 0.13169 0
M  V30 2513 H 241.489 2.03018 -0.245743 0
M  V30 2514 H 239.644 3.42625 1.80795 0
M  V30 2515 H 240.058 5.22007 0.510793 0
M  V30 2516 H 241.532 5.0569 2.21318 0
M  V30 2517 H 242.009 3.44107 2.72923 0
M  V30 2518 H 242.615 4.08437 1.18572 0
M  V30 2519 N 240.93 -0.123565 1.57115 0
M  V30 2520 C 242.346 -0.476961 1.52306 0
M  V30 2521 C 242.546 -1.82109 0.86248 0
M  V30 2522 O 241.602 -2.48586 0.442884 0
M  V30 2523 C 242.915 -0.465661 2.97073 0
M  V30 2524 C 244.463 -0.549534 3.08138 0
M  V30 2525 C 244.938 -0.568669 4.54456 0
M  V30 2526 N 246.429 -0.630237 4.58892 0
M  V30 2527 C 247.164 -0.666415 5.69514 0
M  V30 2528 N 246.66 -0.660514 6.89644 0
M  V30 2529 N 248.453 -0.709077 5.5761 0
M  V30 2530 H 240.604 0.757198 1.98445 0
M  V30 2531 H 242.867 0.278808 0.906074 0
M  V30 2532 H 242.573 0.454232 3.48754 0
M  V30 2533 H 242.447 -1.29513 3.54269 0
M  V30 2534 H 244.834 -1.45985 2.56461 0
M  V30 2535 H 244.915 0.307532 2.53945 0
M  V30 2536 H 244.559 0.337581 5.06777 0
M  V30 2537 H 244.489 -1.44256 5.06456 0
M  V30 2538 H 246.98 -0.641146 3.72421 0
M  V30 2539 H 247.293 -0.690616 7.69708 0
M  V30 2540 H 245.638 -0.628012 6.92157 0
M  V30 2541 H 248.829 -0.711019 4.62668 0
M  V30 2542 H 249.002 -0.733804 6.43832 0
M  V30 2543 N 242.408 -1.52605 -0.393616 0
M  V30 2544 C 243.656 -1.67093 -1.13685 0
M  V30 2545 C 243.977 -0.411011 -1.90619 0
M  V30 2546 O 243.247 0.574491 -1.87287 0
M  V30 2547 H 241.827 -0.615923 -0.422668 0
M  V30 2548 H 244.489 -1.89704 -0.447039 0
M  V30 2549 H 243.585 -2.51922 -1.84232 0
M  V30 2550 N 243.887 0.651787 -1.4349 0
M  V30 2551 C 244.85 1.74647 -1.48429 0
M  V30 2552 C 245.85 1.56513 -0.368817 0
M  V30 2553 O 247.04 1.62385 -0.630623 0
M  V30 2554 C 244.172 3.13533 -1.33827 0
M  V30 2555 H 245.365 1.71649 -2.4592 0
M  V30 2556 H 242.918 0.863573 -1.30277 0
M  V30 2557 H 243.653 3.22142 -0.37349 0
M  V30 2558 H 243.438 3.28101 -2.14691 0
M  V30 2559 H 244.928 3.93356 -1.40218 0
M  V30 2560 N 245.365 1.30045 0.890287 0
M  V30 2561 C 246.613 1.18327 1.63839 0
M  V30 2562 C 246.934 -0.263455 1.93212 0
M  V30 2563 O 246.204 -1.17856 1.56482 0
M  V30 2564 H 244.784 0.434933 0.607324 0
M  V30 2565 H 247.446 1.631 1.06698 0
M  V30 2566 H 246.542 1.74024 2.59079 0
M  V30 2567 N 246.843 -1.10192 1.12674 0
M  V30 2568 C 247.806 -2.14786 0.799979 0
M  V30 2569 C 248.806 -1.59711 -0.18685 0
M  V30 2570 O 249.996 -1.74156 0.0392558 0
M  V30 2571 C 247.128 -3.40374 0.189228 0
M  V30 2572 H 248.321 -2.45203 1.72671 0
M  V30 2573 H 245.874 -1.25597 0.930326 0
M  V30 2574 H 246.609 -3.15577 -0.747107 0
M  V30 2575 H 246.394 -3.81637 0.899766 0
M  V30 2576 H 247.884 -4.17594 -0.0228143 0
M  V30 2577 N 248.321 -0.919034 -1.28029 0
M  V30 2578 C 249.569 -0.553838 -1.94363 0
M  V30 2579 C 249.89 0.906357 -1.72656 0
M  V30 2580 O 249.16 1.64143 -1.0693 0
M  V30 2581 H 247.74 -0.201834 -0.719216 0
M  V30 2582 H 250.402 -1.16954 -1.55909 0
M  V30 2583 H 249.498 -0.752758 -3.02886 0
M  V30 2584 N 249.799 1.42003 -0.683588 0
M  V30 2585 C 251.047 2.01015 -0.209101 0
M  V30 2586 C 251.368 1.54365 1.19149 0
M  V30 2587 O 250.638 0.769083 1.80172 0
M  V30 2588 H 249.218 0.743294 -0.074315 0
M  V30 2589 H 251.88 1.73798 -0.882066 0
M  V30 2590 H 250.976 3.11343 -0.2172 0
M  V30 2591 N 251.277 0.427512 1.51691 0
M  V30 2592 C 252.693 0.0792977 1.59403 0
M  V30 2593 C 252.893 -1.41035 1.43914 0
M  V30 2594 O 251.949 -2.17922 1.27539 0
M  V30 2595 C 253.262 0.590636 2.94842 0
M  V30 2596 C 254.81 0.550215 3.08126 0
M  V30 2597 C 255.285 1.03836 4.46074 0
M  V30 2598 N 256.776 0.995943 4.52366 0
M  V30 2599 C 257.511 1.34463 5.57411 0
M  V30 2600 N 257.007 1.76569 6.69922 0
M  V30 2601 N 258.8 1.26343 5.47717 0
M  V30 2602 H 250.951 1.39687 1.60004 0
M  V30 2603 H 253.214 0.575003 0.753708 0
M  V30 2604 H 252.92 1.63251 3.11516 0
M  V30 2605 H 252.794 0.0102061 3.77199 0
M  V30 2606 H 255.181 -0.482654 2.91126 0
M  V30 2607 H 255.262 1.16693 2.27632 0
M  V30 2608 H 254.906 2.06965 4.63819 0
M  V30 2609 H 254.836 0.398286 5.25092 0
M  V30 2610 H 257.327 0.68661 3.7161 0
M  V30 2611 H 257.64 2.01438 7.46085 0
M  V30 2612 H 255.985 1.80488 6.71155 0
M  V30 2613 H 259.176 0.933209 4.58703 0
M  V30 2614 H 259.349 1.53846 6.29472 0
M  V30 2615 N 252.755 -1.56801 0.158532 0
M  V30 2616 C 253.687 -2.14488 -0.807923 0
M  V30 2617 C 254.7 -1.09721 -1.20271 0
M  V30 2618 O 255.889 -1.36956 -1.14478 0
M  V30 2619 C 252.989 -2.66217 -2.09718 0
M  V30 2620 C 252.162 -3.95507 -1.86796 0
M  V30 2621 C 251.221 -4.3243 -2.99818 0
M  V30 2622 O 250.247 -5.00543 -2.71008 0
M  V30 2623 N 251.449 -3.92947 -4.27285 0
M  V30 2624 H 254.214 -2.98042 -0.314816 0
M  V30 2625 H 251.775 -1.61881 -0.0246692 0
M  V30 2626 H 253.767 -2.87924 -2.84398 0
M  V30 2627 H 252.337 -1.87324 -2.50257 0
M  V30 2628 H 251.557 -3.82309 -0.96089 0
M  V30 2629 H 252.845 -4.79972 -1.68833 0
M  V30 2630 H 252.243 -3.38087 -4.53557 0
M  V30 2631 H 250.8 -4.19681 -4.9871 0
M  V30 2632 N 254.233 0.115231 -1.57178 0
M  V30 2633 C 255.649 0.468877 -1.52557 0
M  V30 2634 C 255.849 1.81649 -0.872125 0
M  V30 2635 O 254.905 2.48347 -0.45606 0
M  V30 2636 C 256.218 0.4499 -2.97315 0
M  V30 2637 C 257.766 0.533185 -3.08425 0
M  V30 2638 C 258.241 0.54456 -4.54751 0
M  V30 2639 N 259.732 0.605892 -4.5922 0
M  V30 2640 C 260.467 0.636203 -5.6986 0
M  V30 2641 N 259.963 0.623931 -6.89985 0
M  V30 2642 N 261.756 0.679496 -5.57978 0
M  V30 2643 H 253.907 -0.767712 -1.9804 0
M  V30 2644 H 256.17 -0.283609 -0.904583 0
M  V30 2645 H 255.876 -0.472721 -3.48509 0
M  V30 2646 H 255.75 1.27632 -3.5495 0
M  V30 2647 H 258.137 1.44623 -2.57232 0
M  V30 2648 H 258.218 -0.320995 -2.53778 0
M  V30 2649 H 257.862 -0.364452 -5.06591 0
M  V30 2650 H 257.792 1.41568 -5.07214 0
M  V30 2651 H 260.283 0.621386 -3.72756 0
M  V30 2652 H 260.596 0.649787 -7.70063 0
M  V30 2653 H 258.941 0.591296 -6.9248 0
M  V30 2654 H 262.132 0.686472 -4.63039 0
M  V30 2655 H 262.305 0.69965 -6.44212 0
M  V30 2656 N 255.711 1.52812 0.385517 0
M  V30 2657 C 256.959 1.67694 1.12797 0
M  V30 2658 C 257.28 0.421115 1.90399 0
M  V30 2659 O 256.55 -0.564551 1.87589 0
M  V30 2660 H 255.13 0.618155 0.419396 0
M  V30 2661 H 257.792 1.89938 0.436972 0
M  V30 2662 H 256.888 2.52896 1.82894 0
M  V30 2663 N 257.189 -0.644168 1.43834 0
M  V30 2664 C 258.121 -1.76955 1.45669 0
M  V30 2665 C 259.134 -1.58956 0.351666 0
M  V30 2666 O 260.323 -1.6751 0.616644 0
M  V30 2667 C 257.423 -3.14507 1.26248 0
M  V30 2668 C 256.596 -3.59083 2.49757 0
M  V30 2669 C 255.655 -4.75467 2.25427 0
M  V30 2670 O 254.681 -4.84444 2.98836 0
M  V30 2671 N 255.883 -5.66289 1.27661 0
M  V30 2672 H 258.648 -1.75856 2.42682 0
M  V30 2673 H 256.209 -0.828312 1.39106 0
M  V30 2674 H 258.201 -3.90067 1.0784 0
M  V30 2675 H 256.771 -3.10325 0.376478 0
M  V30 2676 H 255.991 -2.7387 2.8353 0
M  V30 2677 H 257.279 -3.85613 3.31934 0
M  V30 2678 H 256.677 -5.61718 0.670064 0
M  V30 2679 H 255.234 -6.41533 1.15234 0
M  V30 2680 N 258.668 -1.30515 -0.883378 0
M  V30 2681 C 259.616 -1.16941 -2.01066 0
M  V30 2682 C 260.61 -0.0809148 -1.69207 0
M  V30 2683 O 261.816 -0.241877 -1.78367 0
M  V30 2684 H 258.191 -0.361705 -0.659298 0
M  V30 2685 H 260.162 -2.12344 -2.09649 0
M  V30 2686 C 258.911 -0.879694 -3.36388 0
M  V30 2687 H 258.234 -1.70936 -3.61415 0
M  V30 2688 H 259.674 -0.82483 -4.159 0
M  V30 2689 C 258.133 0.417409 -3.34304 0
M  V30 2690 O 258.663 1.43843 -3.75063 0
M  V30 2691 N 256.869 0.429141 -2.87414 0
M  V30 2692 H 256.416 -0.402222 -2.5444 0
M  V30 2693 H 256.374 1.29696 -2.86403 0
M  V30 2694 N 260.146 1.09593 -1.13257 0
M  V30 2695 C 261.093 2.1618 -0.808381 0
M  V30 2696 C 262.063 1.64517 0.228754 0
M  V30 2697 O 263.248 1.9053 0.101381 0
M  V30 2698 C 260.388 3.43973 -0.278675 0
M  V30 2699 C 259.501 4.09545 -1.37466 0
M  V30 2700 C 258.636 5.25088 -0.803479 0
M  V30 2701 C 257.675 5.82579 -1.87799 0
M  V30 2702 N 256.812 6.89486 -1.32488 0
M  V30 2703 H 261.652 2.43254 -1.72138 0
M  V30 2704 H 259.189 1.19392 -0.859294 0
M  V30 2705 H 261.147 4.17174 0.0465583 0
M  V30 2706 H 259.777 3.17223 0.597459 0
M  V30 2707 H 258.829 3.34226 -1.81652 0
M  V30 2708 H 260.141 4.48307 -2.18684 0
M  V30 2709 H 259.295 6.05178 -0.429427 0
M  V30 2710 H 258.034 4.87684 0.0397956 0
M  V30 2711 H 257.039 5.01152 -2.26113 0
M  V30 2712 H 258.264 6.22045 -2.72463 0
M  V30 2713 H 256.21 6.54064 -0.503575 0
M  V30 2714 H 256.127 7.27007 -2.07355 0
M  V30 2715 H 257.395 7.73336 -0.978336 0
M  V30 2716 N 261.624 0.925811 1.2754 0
M  V30 2717 C 262.534 0.428993 2.30644 0
M  V30 2718 C 263.55 -0.489387 1.66976 0
M  V30 2719 O 264.726 -0.372653 1.97922 0
M  V30 2720 C 261.791 -0.311967 3.45294 0
M  V30 2721 C 260.852 0.641098 4.24486 0
M  V30 2722 C 260.085 -0.0645955 5.33661 0
M  V30 2723 O 260.308 -1.28429 5.55754 0
M  V30 2724 O 259.242 0.606265 5.98839 0
M  V30 2725 H 263.068 1.28504 2.75173 0
M  V30 2726 H 260.653 0.691086 1.32455 0
M  V30 2727 H 262.535 -0.729972 4.15029 0
M  V30 2728 H 261.21 -1.14365 3.02824 0
M  V30 2729 H 260.117 1.10874 3.57292 0
M  V30 2730 H 261.45 1.43995 4.70666 0
M  V30 2731 N 263.102 -1.41638 0.69111 0
M  V30 2732 C 264.518 -1.55435 0.362224 0
M  V30 2733 C 264.718 -1.66754 -1.13117 0
M  V30 2734 O 263.774 -1.64348 -1.91692 0
M  V30 2735 C 265.087 -2.79588 1.10684 0
M  V30 2736 C 266.635 -2.9338 1.09075 0
M  V30 2737 C 267.11 -4.20414 1.81703 0
M  V30 2738 N 268.601 -4.27362 1.7865 0
M  V30 2739 C 269.336 -5.24507 2.31689 0
M  V30 2740 N 268.832 -6.27708 2.93179 0
M  V30 2741 N 270.625 -5.16416 2.2197 0
M  V30 2742 H 262.776 -1.32536 1.65976 0
M  V30 2743 H 265.039 -0.639115 0.700168 0
M  V30 2744 H 264.745 -2.77419 2.16175 0
M  V30 2745 H 264.619 -3.70973 0.682545 0
M  V30 2746 H 267.006 -2.95067 0.0441238 0
M  V30 2747 H 267.087 -2.0318 1.55407 0
M  V30 2748 H 266.731 -4.19488 2.86343 0
M  V30 2749 H 266.661 -5.09578 1.32808 0
M  V30 2750 H 269.152 -3.53415 1.33815 0
M  V30 2751 H 269.465 -6.98217 3.31229 0
M  V30 2752 H 267.81 -6.28223 2.97255 0
M  V30 2753 H 271.001 -4.34716 1.73607 0
M  V30 2754 H 271.174 -5.91958 2.63609 0
M  V30 2755 N 264.58 -0.43555 -1.51462 0
M  V30 2756 C 265.991 0.0279871 -1.86679 0
M  V30 2757 C 266.342 1.42104 -1.35281 0
M  V30 2758 O 265.467 2.04667 -0.702878 0
M  V30 2759 C 266.062 0.0575626 -3.38751 0
M  V30 2760 C 264.621 0.465507 -3.7351 0
M  V30 2761 C 263.768 -0.342996 -2.75171 0
M  V30 2762 H 266.719 -0.651473 -1.44712 0
M  V30 2763 H 266.74 0.867421 -3.70481 0
M  V30 2764 H 266.252 -0.956448 -3.7613 0
M  V30 2765 H 264.353 1.48519 -3.41721 0
M  V30 2766 H 264.466 0.191546 -4.78717 0
M  V30 2767 H 262.83 0.198442 -2.53926 0
M  V30 2768 H 263.613 -1.35585 -3.15391 0
M  V30 2769 N 266.058 1.56714 -0.166846 0
M  V30 2770 C 267.469 1.83378 0.350646 0
M  V30 2771 C 267.82 1.08646 1.63372 0
M  V30 2772 O 266.945 0.338058 2.13743 0
M  V30 2773 C 267.54 3.32643 0.642963 0
M  V30 2774 C 266.099 3.59818 1.10491 0
M  V30 2775 C 265.246 2.76954 0.138411 0
M  V30 2776 H 268.197 1.53803 -0.391193 0
M  V30 2777 H 268.218 3.49878 1.49551 0
M  V30 2778 H 267.73 3.87007 -0.291055 0
M  V30 2779 H 265.831 3.1086 2.05418 0
M  V30 2780 H 265.944 4.68178 1.01716 0
M  V30 2781 H 264.308 2.4666 0.634911 0
M  V30 2782 H 265.091 3.34097 -0.789549 0
M  V30 2783 N 267.536 -0.106894 1.57237 0
M  V30 2784 C 268.947 -0.662723 1.74542 0
M  V30 2785 C 269.298 -1.7971 0.787319 0
M  V30 2786 O 268.423 -2.16368 -0.0369636 0
M  V30 2787 C 269.018 -1.20896 3.16496 0
M  V30 2788 C 267.577 -1.71096 3.35266 0
M  V30 2789 C 266.724 -0.615642 2.7038 0
M  V30 2790 H 269.675 0.119106 1.58252 0
M  V30 2791 H 269.696 -2.07847 3.18716 0
M  V30 2792 H 269.208 -0.383122 3.86204 0
M  V30 2793 H 267.309 -2.56119 2.70618 0
M  V30 2794 H 267.422 -1.81208 4.43509 0
M  V30 2795 H 265.786 -1.05222 2.31949 0
M  V30 2796 H 266.569 0.199419 3.4272 0
M  V30 2797 N 269.014 -1.53014 -0.377408 0
M  V30 2798 C 270.26 -1.68872 -1.12294 0
M  V30 2799 C 270.593 -0.433224 -1.89306 0
M  V30 2800 O 269.868 0.569258 -1.85983 0
M  V30 2801 C 270.151 -2.93115 -2.09179 0
M  V30 2802 C 270.004 -4.28794 -1.35853 0
M  V30 2803 C 271.323 -3.12928 -3.09458 0
M  V30 2804 H 268.442 -0.614518 -0.406862 0
M  V30 2805 H 271.084 -1.85633 -0.40503 0
M  V30 2806 H 269.234 -2.78956 -2.70399 0
M  V30 2807 H 270.906 -4.54742 -0.775082 0
M  V30 2808 H 269.149 -4.28744 -0.660364 0
M  V30 2809 H 269.82 -5.11837 -2.06706 0
M  V30 2810 H 272.296 -3.26194 -2.58334 0
M  V30 2811 H 271.172 -4.01316 -3.74482 0
M  V30 2812 H 271.433 -2.27669 -3.78971 0
M  V30 2813 N 270.492 0.636531 -1.44174 0
M  V30 2814 C 271.903 1.21806 -1.41493 0
M  V30 2815 C 272.254 1.95785 -0.1275 0
M  V30 2816 O 271.379 2.02147 0.772376 0
M  V30 2817 C 271.974 2.21551 -2.56321 0
M  V30 2818 C 270.533 2.75143 -2.56853 0
M  V30 2819 C 269.68 1.50052 -2.33195 0
M  V30 2820 H 272.631 0.427531 -1.52833 0
M  V30 2821 H 272.652 3.0405 -2.28765 0
M  V30 2822 H 272.164 1.67679 -3.50008 0
M  V30 2823 H 270.265 3.33033 -1.67093 0
M  V30 2824 H 270.378 3.2155 -3.55165 0
M  V30 2825 H 268.742 1.77993 -1.82183 0
M  V30 2826 H 269.525 0.980903 -3.28988 0
M  V30 2827 N 271.97 1.30982 0.876444 0
M  V30 2828 C 272.918 1.18006 2.00443 0
M  V30 2829 C 273.912 0.0898871 1.69161 0
M  V30 2830 O 275.118 0.251333 1.78237 0
M  V30 2831 H 271.493 0.365196 0.65737 0
M  V30 2832 H 273.464 2.13453 2.0852 0
M  V30 2833 C 272.213 0.897521 3.35916 0
M  V30 2834 H 271.536 1.7285 3.60504 0
M  V30 2835 H 272.976 0.846874 4.15456 0
M  V30 2836 C 271.435 -0.399674 3.34521 0
M  V30 2837 O 271.965 -1.41852 3.7582 0
M  V30 2838 N 270.171 -0.413893 2.87637 0
M  V30 2839 H 269.718 0.41571 2.54224 0
M  V30 2840 H 269.676 -1.28175 2.87086 0
M  V30 2841 N 273.449 -1.08991 1.13837 0
M  V30 2842 C 274.86 -1.62746 0.914917 0
M  V30 2843 C 275.211 -1.88403 -0.547594 0
M  V30 2844 O 274.336 -1.63706 -1.41525 0
M  V30 2845 C 274.931 -2.95662 1.65437 0
M  V30 2846 C 273.49 -3.46225 1.47666 0
M  V30 2847 C 272.637 -2.20562 1.6807 0
M  V30 2848 H 275.588 -0.922946 1.29102 0
M  V30 2849 H 275.609 -3.63825 1.11407 0
M  V30 2850 H 275.121 -2.76956 2.71877 0
M  V30 2851 H 273.222 -3.70046 0.435478 0
M  V30 2852 H 273.335 -4.23368 2.24268 0
M  V30 2853 H 271.699 -2.29439 1.10589 0
M  V30 2854 H 272.482 -2.0437 2.7584 0
M  V30 2855 N 274.927 -0.932562 -1.27047 0
M  V30 2856 C 276.204 -0.49377 -1.89265 0
M  V30 2857 C 276.584 1.02833 -1.8436 0
M  V30 2858 O 275.932 1.88461 -1.29209 0
M  V30 2859 C 276.142 -1.04536 -3.32976 0
M  V30 2860 C 277.49 -1.10879 -4.09867 0
M  V30 2861 O 278.514 -0.995327 -3.42011 0
M  V30 2862 O 277.373 -1.28417 -5.31198 0
M  V30 2863 H 274.467 -0.159596 -0.811454 0
M  V30 2864 H 277.013 -1.02457 -1.3528 0
M  V30 2865 H 275.785 -2.08913 -3.30864 0
M  V30 2866 H 275.408 -0.496494 -3.94488 0
M  V30 2867 N 276.405 1.4127 -0.698611 0
M  V30 2868 C 277.635 2.05205 -0.239644 0
M  V30 2869 C 278.043 1.52684 1.11733 0
M  V30 2870 O 277.386 0.671222 1.70998 0
M  V30 2871 C 277.448 3.59289 -0.123126 0
M  V30 2872 C 277.112 4.34619 -1.41263 0
M  V30 2873 C 278.109 4.63701 -2.35111 0
M  V30 2874 C 275.794 4.73837 -1.66684 0
M  V30 2875 C 277.788 5.30966 -3.52639 0
M  V30 2876 C 275.475 5.40837 -2.84498 0
M  V30 2877 C 276.473 5.69329 -3.77298 0
M  V30 2878 O 276.161 6.34949 -4.93047 0
M  V30 2879 H 275.893 0.66723 -0.108537 0
M  V30 2880 H 278.447 1.81974 -0.952602 0
M  V30 2881 H 276.677 3.81272 0.645628 0
M  V30 2882 H 278.366 4.04797 0.299056 0
M  V30 2883 H 279.132 4.33882 -2.16729 0
M  V30 2884 H 275.011 4.51039 -0.953135 0
M  V30 2885 H 278.555 5.53121 -4.25091 0
M  V30 2886 H 274.452 5.70075 -3.02795 0
M  V30 2887 H 275.22 6.53445 -4.92902 0
M  V30 2888 N 277.883 0.443576 1.51229 0
M  V30 2889 C 278.793 -0.370721 2.31652 0
M  V30 2890 C 279.809 -1.02186 1.40833 0
M  V30 2891 O 280.985 -1.01586 1.73903 0
M  V30 2892 C 278.05 -1.45376 3.14749 0
M  V30 2893 C 277.111 -0.822099 4.21355 0
M  V30 2894 C 276.344 -1.85353 5.0048 0
M  V30 2895 O 276.567 -3.07656 4.80316 0
M  V30 2896 O 275.501 -1.4406 5.84406 0
M  V30 2897 H 279.327 0.286002 3.0235 0
M  V30 2898 H 276.912 0.20598 1.47973 0
M  V30 2899 H 278.794 -2.08173 3.66391 0
M  V30 2900 H 277.469 -2.09445 2.46809 0
M  V30 2901 H 276.376 -0.155909 3.73775 0
M  V30 2902 H 277.709 -0.224797 4.91686 0
M  V30 2903 N 279.361 -1.56624 0.175154 0
M  V30 2904 C 280.772 -1.83561 -0.340916 0
M  V30 2905 C 281.123 -1.09511 -1.62794 0
M  V30 2906 O 280.248 -0.349389 -2.13561 0
M  V30 2907 C 280.843 -3.32979 -0.625313 0
M  V30 2908 C 279.402 -3.60399 -1.08581 0
M  V30 2909 C 278.549 -2.77024 -0.123722 0
M  V30 2910 H 281.5 -1.53593 0.399344 0
M  V30 2911 H 281.521 -3.50666 -1.47694 0
M  V30 2912 H 281.033 -3.86847 0.311575 0
M  V30 2913 H 279.134 -3.11945 -2.03767 0
M  V30 2914 H 279.247 -4.68711 -0.992317 0
M  V30 2915 H 277.611 -2.46993 -0.621821 0
M  V30 2916 H 278.394 -3.33674 0.807256 0
M  V30 2917 N 280.839 0.0985539 -1.57292 0
M  V30 2918 C 282.088 0.801358 -1.85098 0
M  V30 2919 C 282.401 1.80066 -0.763902 0
M  V30 2920 O 283.607 2.55112 -0.928981 0
M  V30 2921 C 282.063 1.47599 -3.28242 0
M  V30 2922 C 281.671 0.516624 -4.45011 0
M  V30 2923 C 283.415 2.16272 -3.65276 0
M  V30 2924 C 281.322 1.19564 -5.79188 0
M  V30 2925 H 280.252 0.303022 -0.69043 0
M  V30 2926 H 282.903 0.0542623 -1.8342 0
M  V30 2927 H 281.285 2.27042 -3.2445 0
M  V30 2928 H 282.459 -0.246065 -4.60143 0
M  V30 2929 H 280.774 -0.064227 -4.1635 0
M  V30 2930 H 283.371 2.67802 -4.62803 0
M  V30 2931 H 283.714 2.95009 -2.93727 0
M  V30 2932 H 284.247 1.43693 -3.70941 0
M  V30 2933 H 280.986 0.449157 -6.53959 0
M  V30 2934 H 280.506 1.92984 -5.67906 0
M  V30 2935 H 282.185 1.7231 -6.23633 0
M  V30 2936 N 282.317 1.53212 0.369288 0
M  V30 2937 C 283.733 1.42902 0.710712 0
M  V30 2938 C 283.933 0.565135 1.93413 0
M  V30 2939 O 282.989 0.0461484 2.52458 0
M  V30 2940 C 284.302 2.86042 0.927382 0
M  V30 2941 C 285.85 2.9565 1.02762 0
M  V30 2942 C 286.325 4.39843 1.27679 0
M  V30 2943 N 287.816 4.43256 1.34457 0
M  V30 2944 C 288.551 5.51929 1.55439 0
M  V30 2945 N 288.047 6.70655 1.73762 0
M  V30 2946 N 289.84 5.39502 1.57779 0
M  V30 2947 H 281.991 2.07888 -0.435457 0
M  V30 2948 H 284.254 0.938661 -0.132739 0
M  V30 2949 H 283.96 3.51557 0.100287 0
M  V30 2950 H 283.834 3.29472 1.83653 0
M  V30 2951 H 286.221 2.30291 1.84527 0
M  V30 2952 H 286.302 2.5562 0.0959504 0
M  V30 2953 H 285.946 5.05774 0.464175 0
M  V30 2954 H 285.876 4.77443 2.22162 0
M  V30 2955 H 288.367 3.5769 1.21926 0
M  V30 2956 H 288.68 7.49248 1.89335 0
M  V30 2957 H 287.025 6.73648 1.70948 0
M  V30 2958 H 290.216 4.45713 1.43029 0
M  V30 2959 H 290.389 6.2426 1.7379 0
M  V30 2960 N 283.795 -0.628877 1.44509 0
M  V30 2961 C 284.742 -1.74074 1.51549 0
M  V30 2962 C 285.712 -1.62084 0.363021 0
M  V30 2963 O 286.897 -1.81975 0.573567 0
M  V30 2964 C 284.037 -3.12328 1.46784 0
M  V30 2965 C 283.15 -3.35277 2.72422 0
M  V30 2966 C 282.285 -4.63515 2.59475 0
M  V30 2967 C 281.324 -4.7965 3.80266 0
M  V30 2968 N 280.461 -5.99168 3.65981 0
M  V30 2969 H 285.301 -1.67392 2.46544 0
M  V30 2970 H 282.838 -0.816527 1.22357 0
M  V30 2971 H 284.796 -3.92286 1.42012 0
M  V30 2972 H 283.426 -3.18018 0.553544 0
M  V30 2973 H 282.478 -2.49242 2.87372 0
M  V30 2974 H 283.79 -3.43078 3.62076 0
M  V30 2975 H 282.944 -5.51638 2.52548 0
M  V30 2976 H 281.683 -4.58076 1.67384 0
M  V30 2977 H 280.688 -3.89957 3.87574 0
M  V30 2978 H 281.913 -4.86902 4.73395 0
M  V30 2979 H 279.859 -5.94814 2.76644 0
M  V30 2980 H 279.776 -6.08035 4.49254 0
M  V30 2981 H 281.044 -6.89846 3.6295 0
M  V30 2982 N 285.273 -1.31445 -0.869486 0
M  V30 2983 C 286.521 -1.20918 -1.61936 0
M  V30 2984 C 286.842 0.232683 -1.93607 0
M  V30 2985 O 286.112 1.15352 -1.58338 0
M  V30 2986 H 284.692 -0.44454 -0.600328 0
M  V30 2987 H 287.354 -1.64776 -1.0409 0
M  V30 2988 H 286.45 -1.78124 -2.56278 0
M  V30 2989 N 286.751 1.08385 -1.14413 0
M  V30 2990 C 287.683 2.1519 -0.789036 0
M  V30 2991 C 288.696 1.61638 0.19417 0
M  V30 2992 O 289.885 1.78479 -0.0275711 0
M  V30 2993 C 286.985 3.38565 -0.15058 0
M  V30 2994 C 286.158 4.21501 -1.16857 0
M  V30 2995 C 285.217 5.23277 -0.553832 0
M  V30 2996 O 284.243 5.56041 -1.21686 0
M  V30 2997 N 285.445 5.76629 0.669296 0
M  V30 2998 H 288.21 2.46257 -1.70814 0
M  V30 2999 H 285.771 1.24198 -1.03858 0
M  V30 3000 H 287.763 4.03777 0.273181 0
M  V30 3001 H 286.333 3.05299 0.671667 0
M  V30 3002 H 285.553 3.52265 -1.76926 0
M  V30 3003 H 286.841 4.73731 -1.85624 0
M  V30 3004 H 286.239 5.52243 1.22654 0
M  V30 3005 H 284.796 6.43521 1.03556 0
M  V30 3006 N 288.23 0.939286 1.26551 0
M  V30 3007 C 289.646 0.641304 1.46149 0
M  V30 3008 C 289.846 -0.805964 1.84679 0
M  V30 3009 O 288.902 -1.58278 1.96734 0
M  V30 3010 C 290.215 1.6011 2.54529 0
M  V30 3011 C 291.763 1.6106 2.68382 0
M  V30 3012 C 292.238 2.55765 3.79932 0
M  V30 3013 N 293.729 2.5404 3.87322 0
M  V30 3014 C 294.464 3.24004 4.73085 0
M  V30 3015 N 293.96 4.03388 5.63249 0
M  V30 3016 N 295.753 3.12965 4.66914 0
M  V30 3017 H 287.904 1.87478 0.998285 0
M  V30 3018 H 290.167 0.805559 0.499779 0
M  V30 3019 H 289.873 2.63412 2.33039 0
M  V30 3020 H 289.747 1.35171 3.52149 0
M  V30 3021 H 292.134 0.584835 2.89247 0
M  V30 3022 H 292.215 1.90053 1.71212 0
M  V30 3023 H 291.859 3.58458 3.5982 0
M  V30 3024 H 291.789 2.24063 4.76554 0
M  V30 3025 H 294.28 1.96396 3.22858 0
M  V30 3026 H 294.593 4.5373 6.25579 0
M  V30 3027 H 292.938 4.07489 5.63008 0
M  V30 3028 H 296.129 2.50432 3.95476 0
M  V30 3029 H 296.302 3.67759 5.33533 0
M  V30 3030 N 289.708 -1.40897 0.706093 0
M  V30 3031 C 290.985 -1.94868 0.169099 0
M  V30 3032 C 291.365 -1.64485 -1.32318 0
M  V30 3033 O 290.713 -0.95744 -2.07474 0
M  V30 3034 C 290.923 -3.45798 0.471654 0
M  V30 3035 C 292.271 -4.22663 0.405127 0
M  V30 3036 O 293.295 -3.53865 0.407168 0
M  V30 3037 O 292.154 -5.45216 0.374383 0
M  V30 3038 H 289.248 -0.82673 0.0211352 0
M  V30 3039 H 291.794 -1.50558 0.782976 0
M  V30 3040 H 290.566 -3.61235 1.50416 0
M  V30 3041 H 290.189 -3.97225 -0.172666 0
M  V30 3042 N 291.186 -0.45159 -1.50991 0
M  V30 3043 C 292.116 0.342898 -2.30969 0
M  V30 3044 C 293.097 1.00815 -1.37005 0
M  V30 3045 O 294.282 1.00907 -1.65926 0
M  V30 3046 C 291.412 1.43637 -3.16205 0
M  V30 3047 C 290.366 0.893818 -4.18563 0
M  V30 3048 C 289.692 2.08411 -4.92411 0
M  V30 3049 C 290.992 -0.0815568 -5.22236 0
M  V30 3050 H 292.686 -0.324556 -2.97636 0
M  V30 3051 H 290.232 -0.157531 -1.43136 0
M  V30 3052 H 292.185 1.9995 -3.70942 0
M  V30 3053 H 290.909 2.13232 -2.47386 0
M  V30 3054 H 289.568 0.352798 -3.64898 0
M  V30 3055 H 289.216 2.76658 -4.20082 0
M  V30 3056 H 288.916 1.72741 -5.61636 0
M  V30 3057 H 290.44 2.65251 -5.49976 0
M  V30 3058 H 291.854 0.391742 -5.7196 0
M  V30 3059 H 290.251 -0.351551 -5.99069 0
M  V30 3060 H 291.321 -1.01374 -4.74185 0
M  V30 3061 N 292.664 1.56529 -0.183458 0
M  V30 3062 C 293.894 2.01331 0.463612 0
M  V30 3063 C 294.302 1.06278 1.5653 0
M  V30 3064 O 293.645 0.0577976 1.83609 0
M  V30 3065 C 293.707 3.42547 1.09096 0
M  V30 3066 C 293.371 4.56817 0.129442 0
M  V30 3067 C 294.368 5.15734 -0.656807 0
M  V30 3068 C 292.053 5.02295 0.02174 0
M  V30 3069 C 294.047 6.1857 -1.53784 0
M  V30 3070 C 291.734 6.04978 -0.862864 0
M  V30 3071 C 292.732 6.62988 -1.64123 0
M  V30 3072 O 292.42 7.63677 -2.51103 0
M  V30 3073 H 292.152 0.664917 0.121907 0
M  V30 3074 H 294.706 2.034 -0.285954 0
M  V30 3075 H 292.936 3.37428 1.88889 0
M  V30 3076 H 294.625 3.71228 1.64148 0
M  V30 3077 H 295.391 4.81473 -0.583839 0
M  V30 3078 H 291.27 4.56847 0.617392 0
M  V30 3079 H 294.814 6.63777 -2.14583 0
M  V30 3080 H 290.711 6.38663 -0.93699 0
M  V30 3081 H 291.479 7.81049 -2.44753 0
M  V30 3082 N 294.142 -0.090211 1.57342 0
M  V30 3083 C 295.367 -0.810082 1.90925 0
M  V30 3084 C 295.792 -1.71248 0.778187 0
M  V30 3085 O 295.15 -1.79278 -0.269991 0
M  V30 3086 C 295.198 -1.59529 3.23393 0
M  V30 3087 O 294.302 -2.70461 3.11327 0
M  V30 3088 H 293.643 -0.222231 0.625707 0
M  V30 3089 H 296.173 -0.0639716 2.045 0
M  V30 3090 H 296.183 -1.97847 3.5682 0
M  V30 3091 H 294.858 -0.933055 4.05299 0
M  V30 3092 H 293.435 -2.35135 2.89423 0
M  V30 3093 N 295.62 -1.53406 -0.361157 0
M  V30 3094 C 296.868 -1.69467 -1.10115 0
M  V30 3095 C 297.189 -0.451352 -1.89705 0
M  V30 3096 O 296.459 0.534636 -1.88463 0
M  V30 3097 H 295.039 -0.624749 -0.409508 0
M  V30 3098 H 297.701 -1.90609 -0.406699 0
M  V30 3099 H 296.797 -2.55774 -1.78847 0
M  V30 3100 N 297.098 0.621204 -1.44841 0
M  V30 3101 C 298.028 1.74366 -1.55303 0
M  V30 3102 C 299.009 1.65199 -0.405385 0
M  V30 3103 O 300.194 1.83807 -0.626787 0
M  V30 3104 C 297.324 3.12931 -1.50637 0
M  V30 3105 C 296.278 3.36896 -2.63979 0
M  V30 3106 C 295.604 4.75594 -2.44366 0
M  V30 3107 C 296.904 3.28483 -4.06074 0
M  V30 3108 H 298.598 1.65867 -2.49256 0
M  V30 3109 H 296.144 0.796558 -1.19962 0
M  V30 3110 H 298.097 3.9124 -1.56555 0
M  V30 3111 H 296.821 3.22237 -0.532057 0
M  V30 3112 H 295.48 2.60972 -2.57467 0
M  V30 3113 H 295.128 4.81616 -1.45105 0
M  V30 3114 H 294.828 4.92586 -3.20364 0
M  V30 3115 H 296.352 5.5612 -2.52117 0
M  V30 3116 H 297.766 3.96684 -4.13902 0
M  V30 3117 H 296.163 3.57008 -4.82354 0
M  V30 3118 H 297.233 2.26133 -4.28943 0
M  V30 3119 N 298.576 1.31904 0.862503 0
M  V30 3120 C 299.524 1.20125 1.9918 0
M  V30 3121 C 300.518 0.107824 1.69056 0
M  V30 3122 O 301.724 0.270223 1.7796 0
M  V30 3123 H 298.099 0.372148 0.65346 0
M  V30 3124 H 300.07 2.15652 2.06244 0
M  V30 3125 C 298.819 0.933099 3.34946 0
M  V30 3126 H 298.142 1.76664 3.5865 0
M  V30 3127 H 299.582 0.890892 4.14535 0
M  V30 3128 C 298.041 -0.364172 3.34926 0
M  V30 3129 O 298.571 -1.37858 3.77304 0
M  V30 3130 N 296.777 -0.383362 2.8806 0
M  V30 3131 H 296.324 0.442651 2.53768 0
M  V30 3132 H 296.282 -1.25123 2.8843 0
M  V30 3133 N 300.054 -1.07777 1.14986 0
M  V30 3134 C 300.986 -2.14769 0.800436 0
M  V30 3135 C 301.999 -1.61739 -0.185595 0
M  V30 3136 O 303.188 -1.78462 0.0370358 0
M  V30 3137 C 300.288 -3.38481 0.168533 0
M  V30 3138 C 299.461 -4.20876 1.1909 0
M  V30 3139 C 298.52 -5.22976 0.581575 0
M  V30 3140 O 297.546 -5.55388 1.24633 0
M  V30 3141 N 298.748 -5.76976 -0.638706 0
M  V30 3142 H 301.513 -2.45348 1.72118 0
M  V30 3143 H 299.074 -1.23645 1.04515 0
M  V30 3144 H 301.066 -4.03916 -0.251764 0
M  V30 3145 H 299.636 -3.05651 -0.655467 0
M  V30 3146 H 298.856 -3.51322 1.78791 0
M  V30 3147 H 300.144 -4.7274 1.88133 0
M  V30 3148 H 299.542 -5.52886 -1.19723 0
M  V30 3149 H 298.099 -6.44061 -1.00142 0
M  V30 3150 N 301.532 -0.945985 -1.26051 0
M  V30 3151 C 302.948 -0.649045 -1.45807 0
M  V30 3152 C 303.148 0.796158 -1.85104 0
M  V30 3153 O 302.204 1.57233 -1.97571 0
M  V30 3154 C 303.517 -1.61458 -2.53677 0
M  V30 3155 C 305.065 -1.62481 -2.67524 0
M  V30 3156 C 305.54 -2.57776 -3.7857 0
M  V30 3157 N 307.031 -2.5609 -3.85969 0
M  V30 3158 C 307.766 -3.26508 -4.7136 0
M  V30 3159 N 307.262 -4.0637 -5.61102 0
M  V30 3160 N 309.055 -3.15437 -4.65248 0
M  V30 3161 H 301.206 -1.88005 -0.988328 0
M  V30 3162 H 303.469 -0.808198 -0.4955 0
M  V30 3163 H 303.175 -2.64644 -2.31638 0
M  V30 3164 H 303.049 -1.37036 -3.51427 0
M  V30 3165 H 305.436 -0.600167 -2.88933 0
M  V30 3166 H 305.517 -1.90958 -1.70202 0
M  V30 3167 H 305.161 -3.60361 -3.57913 0
M  V30 3168 H 305.091 -2.26587 -4.75359 0
M  V30 3169 H 307.582 -1.98105 -3.21812 0
M  V30 3170 H 307.895 -4.57042 -6.23164 0
M  V30 3171 H 306.24 -4.10469 -5.60839 0
M  V30 3172 H 309.431 -2.52525 -3.94143 0
M  V30 3173 H 309.604 -3.70584 -5.31575 0
M  V30 3174 N 303.011 1.40521 -0.713556 0
M  V30 3175 C 304.427 1.54839 -0.386907 0
M  V30 3176 C 304.627 1.68532 1.1045 0
M  V30 3177 O 303.683 1.67377 1.89053 0
M  V30 3178 C 304.996 2.77792 -1.15118 0
M  V30 3179 C 306.544 2.91607 -1.13729 0
M  V30 3180 C 307.019 4.1747 -1.88368 0
M  V30 3181 N 308.51 4.24466 -1.85427 0
M  V30 3182 C 309.245 5.20755 -2.40004 0
M  V30 3183 N 308.741 6.22965 -3.03129 0
M  V30 3184 N 310.534 5.1282 -2.30158 0
M  V30 3185 H 302.685 1.29879 -1.68063 0
M  V30 3186 H 304.948 0.627896 -0.710247 0
M  V30 3187 H 304.654 2.73944 -2.20561 0
M  V30 3188 H 304.528 3.6984 -0.741477 0
M  V30 3189 H 306.915 2.94959 -0.0910608 0
M  V30 3190 H 306.996 2.00682 -1.5862 0
M  V30 3191 H 306.64 4.1488 -2.9298 0
M  V30 3192 H 306.57 5.074 -1.40898 0
M  V30 3193 H 309.061 3.51241 -1.3942 0
M  V30 3194 H 309.374 6.92859 -3.42295 0
M  V30 3195 H 307.719 6.23415 -3.07212 0
M  V30 3196 H 310.91 4.31899 -1.80501 0
M  V30 3197 H 311.083 5.87689 -2.72993 0
M  V30 3198 N 304.489 0.459591 1.5075 0
M  V30 3199 C 305.738 -0.100971 2.01447 0
M  V30 3200 C 306.051 -1.41816 1.34713 0
M  V30 3201 O 307.257 -2.06299 1.76502 0
M  V30 3202 C 305.713 -0.23047 3.59161 0
M  V30 3203 C 305.321 1.0776 4.34847 0
M  V30 3204 C 307.065 -0.743608 4.17936 0
M  V30 3205 C 304.972 0.91253 5.84317 0
M  V30 3206 H 303.902 -0.0415102 0.752856 0
M  V30 3207 H 306.553 0.592742 1.73663 0
M  V30 3208 H 304.935 -0.987703 3.83485 0
M  V30 3209 H 306.109 1.8449 4.22256 0
M  V30 3210 H 304.424 1.52097 3.87628 0
M  V30 3211 H 307.021 -0.883959 5.27343 0
M  V30 3212 H 307.364 -1.73196 3.78562 0
M  V30 3213 H 307.897 -0.04408 3.97776 0
M  V30 3214 H 304.636 1.87391 6.28144 0
M  V30 3215 H 304.156 0.185422 5.99513 0
M  V30 3216 H 305.835 0.574547 6.44444 0
M  V30 3217 O 306.006 -1.58029 0.333053 0
M  V30 3218 H 306.697 -1.92392 -0.224736 0
M  V30 END ATOM
M  V30 BEGIN BOND
M  V30 END BOND
M  V30 END CTAB
M  END
$$$$
