drugbank_target|P07822 Iron(3+)-hydroxamate-binding protein FhuD (DB01747; DB02724; DB03436; DB13949; DB14520)
 OpenBabel12092119533D

  0  0  0     0  0            999 V3000
M  V30 BEGIN CTAB
M  V30 COUNTS 4656 4718 0 0 0
M  V30 BEGIN ATOM
M  V30 1 H -0.908 1.98254 -0.117106 0
M  V30 2 N 0 1.576 0 0
M  V30 3 C 0.933 2.03868 1.02534 0
M  V30 4 C 1.911 0.928543 1.3348 0
M  V30 5 O 3.095 1.19667 1.45644 0
M  V30 6 C 0.222 2.43627 2.35294 0
M  V30 7 C -0.732 3.65373 2.2001 0
M  V30 8 S 0.101 5.13292 1.52614 0
M  V30 9 C 1.257 5.56322 2.86805 0
M  V30 10 H 1.49 2.90518 0.631377 0
M  V30 11 H -0.977 1.52953 0.210867 0
M  V30 12 H 0.981 2.67203 3.11629 0
M  V30 13 H -0.358 1.57376 2.7183 0
M  V30 14 H -1.165 3.90944 3.18086 0
M  V30 15 H -1.563 3.418 1.51819 0
M  V30 16 H 0.729 5.58782 3.83104 0
M  V30 17 H 1.672 6.56266 2.65933 0
M  V30 18 H 2.08 4.83886 2.90714 0
M  V30 19 N 1.4781 -0.272755 1.55222 0
M  V30 20 C 2.7031 -1.02683 1.80197 0
M  V30 21 C 3.1281 -1.79142 0.573551 0
M  V30 22 O 2.4861 -1.74917 -0.476849 0
M  V30 23 C 2.5341 -1.9609 3.02624 0
M  V30 24 O 1.6381 -3.04863 2.77727 0
M  V30 25 H 0.9791 -0.293557 0.595584 0
M  V30 26 H 3.5091 -0.30159 2.02365 0
M  V30 27 H 3.5191 -2.38039 3.31363 0
M  V30 28 H 2.1941 -1.39851 3.91682 0
M  V30 29 H 0.7711 -2.67228 2.60084 0
M  V30 30 N 2.9562 -1.48159 -0.537278 0
M  V30 31 C 4.2042 -1.55497 -1.29094 0
M  V30 32 C 4.5252 -0.227454 -1.93669 0
M  V30 33 O 3.7952 0.750386 -1.80959 0
M  V30 34 H 2.3752 -0.572832 -0.47945 0
M  V30 35 H 5.0372 -1.84579 -0.625818 0
M  V30 36 H 4.1332 -2.33216 -2.07405 0
M  V30 37 N 4.4343 0.785586 -1.36625 0
M  V30 38 C 5.3643 1.91259 -1.33949 0
M  V30 39 C 6.3453 1.68795 -0.210325 0
M  V30 40 O 7.5303 1.89854 -0.408561 0
M  V30 41 C 4.6603 3.28339 -1.13186 0
M  V30 42 C 3.6143 3.65335 -2.22967 0
M  V30 43 C 2.9403 5.00806 -1.87342 0
M  V30 44 C 4.2403 3.7352 -3.65075 0
M  V30 45 H 5.9343 1.93755 -2.28253 0
M  V30 46 H 3.4803 0.930788 -1.09874 0
M  V30 47 H 5.4333 4.06804 -1.09948 0
M  V30 48 H 4.1573 3.2624 -0.153332 0
M  V30 49 H 2.8163 2.89169 -2.25337 0
M  V30 50 H 2.4643 4.95233 -0.880545 0
M  V30 51 H 2.1643 5.26529 -2.60846 0
M  V30 52 H 3.6883 5.81687 -1.85667 0
M  V30 53 H 5.1023 4.42168 -3.64911 0
M  V30 54 H 3.4993 4.10731 -4.37516 0
M  V30 55 H 4.5693 2.74527 -3.99703 0
M  V30 56 N 5.9124 1.20967 1.01018 0
M  V30 57 C 7.3234 1.02319 1.56165 0
M  V30 58 C 7.6744 -0.418546 1.91684 0
M  V30 59 O 6.7994 -1.30096 1.72928 0
M  V30 60 C 7.3944 1.85109 2.8376 0
M  V30 61 C 5.9534 1.70809 3.35412 0
M  V30 62 C 5.1004 1.82643 2.08655 0
M  V30 63 H 8.0514 1.35065 0.833255 0
M  V30 64 H 8.0724 1.35827 3.55431 0
M  V30 65 H 7.5844 2.90035 2.57878 0
M  V30 66 H 5.6854 0.685464 3.66241 0
M  V30 67 H 5.7984 2.52467 4.07182 0
M  V30 68 H 4.1624 1.25896 2.21409 0
M  V30 69 H 4.9454 2.89066 1.85191 0
M  V30 70 N 7.3905 -1.2043 1.01659 0
M  V30 71 C 8.3205 -2.25466 0.607226 0
M  V30 72 C 9.3015 -1.65853 -0.377716 0
M  V30 73 O 10.4865 -1.92409 -0.263149 0
M  V30 74 C 7.6165 -3.47256 -0.0552949 0
M  V30 75 C 6.5705 -4.19462 0.850632 0
M  V30 76 C 5.8965 -5.34673 0.0538859 0
M  V30 77 C 7.1965 -4.75603 2.15868 0
M  V30 78 H 8.8905 -2.59962 1.48526 0
M  V30 79 H 6.4365 -1.2496 0.715605 0
M  V30 80 H 8.3895 -4.19917 -0.353233 0
M  V30 81 H 7.1135 -3.11924 -0.968045 0
M  V30 82 H 5.7725 -3.48667 1.13257 0
M  V30 83 H 5.4205 -4.95585 -0.860514 0
M  V30 84 H 5.1205 -5.83913 0.657192 0
M  V30 85 H 6.6445 -6.10138 -0.237598 0
M  V30 86 H 8.0585 -5.40083 1.92311 0
M  V30 87 H 6.4555 -5.3528 2.71284 0
M  V30 88 H 7.5255 -3.94346 2.82169 0
M  V30 89 N 8.8686 -0.792821 -1.36206 0
M  V30 90 C 10.1176 -0.363353 -1.984 0
M  V30 91 C 10.4306 1.07172 -1.63626 0
M  V30 92 O 11.6366 1.60362 -2.19081 0
M  V30 93 C 10.0926 -0.59872 -3.54885 0
M  V30 94 C 9.7006 -2.04543 -3.9858 0
M  V30 95 C 11.4446 -0.233926 -4.23855 0
M  V30 96 C 9.3516 -2.22727 -5.47856 0
M  V30 97 H 8.2816 -0.13212 -0.742334 0
M  V30 98 H 10.9326 -0.974935 -1.55458 0
M  V30 99 H 9.3146 0.0826222 -3.95914 0
M  V30 100 H 10.4886 -2.76345 -3.68741 0
M  V30 101 H 8.8036 -2.36879 -3.42458 0
M  V30 102 H 11.4006 -0.348027 -5.33566 0
M  V30 103 H 11.7436 0.818351 -4.08177 0
M  V30 104 H 12.2766 -0.868639 -3.882 0
M  V30 105 H 9.0156 -3.2635 -5.68486 0
M  V30 106 H 8.5356 -1.55434 -5.7931 0
M  V30 107 H 10.2146 -2.03607 -6.14128 0
M  V30 108 N 10.3467 1.47872 -0.545128 0
M  V30 109 C 11.5717 2.07391 -0.0190611 0
M  V30 110 C 11.9967 1.39688 1.25971 0
M  V30 111 O 11.3547 0.467816 1.7516 0
M  V30 112 C 11.4027 3.60188 0.172335 0
M  V30 113 O 10.5067 3.9339 1.23766 0
M  V30 114 H 9.8477 0.662411 -0.0459059 0
M  V30 115 H 12.3777 1.90066 -0.757365 0
M  V30 116 H 12.3877 4.06129 0.390305 0
M  V30 117 H 11.0627 4.08865 -0.761725 0
M  V30 118 H 9.6397 3.5921 1.00114 0
M  V30 119 N 11.8248 0.280983 1.55075 0
M  V30 120 C 13.2408 -0.0729964 1.59433 0
M  V30 121 C 13.4408 -1.5411 1.29817 0
M  V30 122 O 12.4968 -2.29086 1.06187 0
M  V30 123 C 13.8098 0.306921 2.9913 0
M  V30 124 C 15.3578 0.254023 3.11968 0
M  V30 125 C 15.8328 0.608467 4.5394 0
M  V30 126 N 17.3238 0.560241 4.59799 0
M  V30 127 C 18.0588 0.80722 5.6769 0
M  V30 128 N 17.5548 1.11912 6.83701 0
M  V30 129 N 19.3478 0.735623 5.57266 0
M  V30 130 H 11.4988 1.238 1.7259 0
M  V30 131 H 13.7618 0.500547 0.805082 0
M  V30 132 H 13.4678 1.32816 3.25657 0
M  V30 133 H 13.3418 -0.349363 3.75579 0
M  V30 134 H 15.7288 -0.75794 2.852 0
M  V30 135 H 15.8098 0.944649 2.37718 0
M  V30 136 H 15.4538 1.61814 4.81434 0
M  V30 137 H 15.3838 -0.104013 5.26497 0
M  V30 138 H 17.8748 0.329288 3.76463 0
M  V30 139 H 18.1878 1.29409 7.61888 0
M  V30 140 H 16.5328 1.15695 6.85303 0
M  V30 141 H 19.7238 0.491752 4.6551 0
M  V30 142 H 19.8968 0.931482 6.4127 0
M  V30 143 N 13.3029 -1.57598 0.00835791 0
M  V30 144 C 14.7189 -1.55764 -0.347822 0
M  V30 145 C 14.9189 -1.01186 -1.74252 0
M  V30 146 O 13.9749 -0.649371 -2.44007 0
M  V30 147 C 15.2879 -2.99927 -0.215407 0
M  V30 148 C 16.8359 -3.11656 -0.289725 0
M  V30 149 C 17.3109 -4.57621 -0.18634 0
M  V30 150 N 18.8019 -4.62557 -0.243978 0
M  V30 151 C 19.5369 -5.73094 -0.18745 0
M  V30 152 N 19.0329 -6.92753 -0.0810331 0
M  V30 153 N 20.8259 -5.61588 -0.239925 0
M  V30 154 H 12.9769 -1.91411 0.92062 0
M  V30 155 H 15.2399 -0.879562 0.353659 0
M  V30 156 H 14.9459 -3.43729 0.744512 0
M  V30 157 H 14.8199 -3.63865 -0.994097 0
M  V30 158 H 17.2069 -2.67779 -1.24009 0
M  V30 159 H 17.2879 -2.5048 0.51898 0
M  V30 160 H 16.9319 -5.02174 0.760519 0
M  V30 161 H 16.8619 -5.16752 -1.01364 0
M  V30 162 H 19.3529 -3.76481 -0.327217 0
M  V30 163 H 19.6659 -7.72787 -0.0440241 0
M  V30 164 H 18.0109 -6.94984 -0.0465419 0
M  V30 165 H 21.2019 -4.66996 -0.321317 0
M  V30 166 H 21.3749 -6.47714 -0.192407 0
M  V30 167 N 14.781 0.264519 -1.55364 0
M  V30 168 C 16.197 0.61215 -1.47394 0
M  V30 169 C 16.397 1.89134 -0.695018 0
M  V30 170 O 15.453 2.51563 -0.217275 0
M  V30 171 C 16.766 0.731235 -2.91674 0
M  V30 172 C 18.314 0.82473 -3.01939 0
M  V30 173 C 18.789 0.975522 -4.4749 0
M  V30 174 N 20.28 1.04083 -4.51354 0
M  V30 175 C 21.015 1.17646 -5.61201 0
M  V30 176 N 20.511 1.27874 -6.80896 0
M  V30 177 N 22.304 1.20823 -5.48961 0
M  V30 178 H 14.455 -0.575456 -2.04456 0
M  V30 179 H 16.718 -0.196099 -0.927496 0
M  V30 180 H 16.424 -0.138392 -3.51428 0
M  V30 181 H 16.298 1.60883 -3.41169 0
M  V30 182 H 18.685 1.68482 -2.42276 0
M  V30 183 H 18.766 -0.0776479 -2.55682 0
M  V30 184 H 18.41 0.120058 -5.07758 0
M  V30 185 H 18.34 1.89268 -4.91412 0
M  V30 186 H 20.831 0.973846 -3.65136 0
M  V30 187 H 21.144 1.38081 -7.60364 0
M  V30 188 H 19.489 1.24863 -6.83692 0
M  V30 189 H 22.68 1.12469 -4.54388 0
M  V30 190 H 22.853 1.31049 -6.3461 0
M  V30 191 N 16.2591 1.48442 0.529413 0
M  V30 192 C 17.1891 1.65902 1.64313 0
M  V30 193 C 18.1701 0.507897 1.6234 0
M  V30 194 O 19.3551 0.740503 1.79528 0
M  V30 195 C 16.4851 1.69911 3.02898 0
M  V30 196 C 15.4391 2.8453 3.19729 0
M  V30 197 C 14.7651 2.73629 4.59381 0
M  V30 198 C 16.0651 4.25821 3.02447 0
M  V30 199 H 17.7591 2.5914 1.49955 0
M  V30 200 H 15.3051 1.24709 0.719982 0
M  V30 201 H 17.2581 1.80715 3.80684 0
M  V30 202 H 15.9821 0.732524 3.18279 0
M  V30 203 H 14.6411 2.73283 2.44361 0
M  V30 204 H 14.2891 1.74938 4.71599 0
M  V30 205 H 13.9891 3.50541 4.71588 0
M  V30 206 H 15.5131 2.86401 5.39265 0
M  V30 207 H 16.9271 4.37898 3.70024 0
M  V30 208 H 15.3241 5.03735 3.26146 0
M  V30 209 H 16.3941 4.42244 1.98867 0
M  V30 210 N 17.7372 -0.778329 1.37039 0
M  V30 211 C 18.6672 -1.90546 1.34962 0
M  V30 212 C 19.6482 -1.68681 0.219274 0
M  V30 213 O 20.8332 -1.89634 0.418624 0
M  V30 214 C 17.9632 -3.27734 1.14925 0
M  V30 215 C 16.9172 -3.64147 2.24902 0
M  V30 216 C 16.2432 -4.99806 1.89996 0
M  V30 217 C 17.5432 -3.71579 3.67051 0
M  V30 218 H 19.2372 -1.92541 2.29277 0
M  V30 219 H 16.7832 -0.924948 1.10366 0
M  V30 220 H 18.7362 -4.06215 1.12104 0
M  V30 221 H 17.4602 -3.26154 0.170631 0
M  V30 222 H 16.1192 -2.8797 2.26868 0
M  V30 223 H 15.7672 -4.94759 0.906796 0
M  V30 224 H 15.4672 -5.25139 2.63634 0
M  V30 225 H 16.9912 -5.80694 1.88749 0
M  V30 226 H 18.4052 -4.40227 3.67251 0
M  V30 227 H 16.8022 -4.08405 4.39688 0
M  V30 228 H 17.8722 -2.72404 4.01154 0
M  V30 229 N 19.2153 -1.21501 -1.00376 0
M  V30 230 C 20.4433 -1.059 -1.77744 0
M  V30 231 C 20.8583 0.391125 -1.84704 0
M  V30 232 O 20.2153 1.27133 -1.30933 0
M  V30 233 C 20.2663 -1.65111 -3.21591 0
M  V30 234 O 19.9873 -3.0445 -3.15027 0
M  V30 235 C 21.4883 -1.54637 -4.15454 0
M  V30 236 H 18.7083 -0.371825 -0.558558 0
M  V30 237 H 21.2523 -1.60865 -1.26264 0
M  V30 238 H 19.4073 -1.14235 -3.70175 0
M  V30 239 H 19.8213 -3.3278 -4.0541 0
M  V30 240 H 21.2953 -2.00808 -5.14179 0
M  V30 241 H 21.7723 -0.501022 -4.36333 0
M  V30 242 H 22.3783 -2.04767 -3.72761 0
M  V30 243 N 20.6934 1.19889 -1.02296 0
M  V30 244 C 21.6564 2.21116 -0.603351 0
M  V30 245 C 22.6564 1.5738 0.329884 0
M  V30 246 O 23.8464 1.73802 0.117702 0
M  V30 247 C 20.9784 3.40696 0.117992 0
M  V30 248 H 22.1714 2.59754 -1.49893 0
M  V30 249 H 19.7244 1.33463 -0.813468 0
M  V30 250 H 20.4594 3.07569 1.0282 0
M  V30 251 H 20.2444 3.88188 -0.552511 0
M  V30 252 H 21.7344 4.15692 0.398696 0
M  V30 253 N 22.1715 0.800033 1.35784 0
M  V30 254 C 23.1045 0.151499 2.27697 0
M  V30 255 C 24.0825 -0.678663 1.4776 0
M  V30 256 O 25.2665 -0.647358 1.77035 0
M  V30 257 C 22.3935 -0.790492 3.29346 0
M  V30 258 C 21.4395 -0.0407832 4.26481 0
M  V30 259 S 22.2725 1.29077 5.19711 0
M  V30 260 C 23.4285 0.353055 6.24903 0
M  V30 261 H 23.6615 0.930796 2.82353 0
M  V30 262 H 21.1945 0.594767 1.42485 0
M  V30 263 H 23.1525 -1.3285 3.88409 0
M  V30 264 H 21.8135 -1.54312 2.73581 0
M  V30 265 H 21.0065 -0.755971 4.98298 0
M  V30 266 H 20.6085 0.427063 3.71554 0
M  V30 267 H 22.9005 -0.464147 6.75908 0
M  V30 268 H 23.8435 1.04023 7.00418 0
M  V30 269 H 24.2515 -0.0483344 5.64479 0
M  V30 270 N 23.6496 -1.47581 0.552962 0
M  V30 271 C 24.6126 -2.28439 -0.186605 0
M  V30 272 C 25.6126 -1.36706 -0.84665 0
M  V30 273 O 26.8026 -1.59378 -0.703164 0
M  V30 274 C 23.9346 -3.16264 -1.2724 0
M  V30 275 H 25.1276 -2.95294 0.523609 0
M  V30 276 H 22.6806 -1.532 0.309745 0
M  V30 277 H 23.4156 -2.54091 -2.01514 0
M  V30 278 H 23.2006 -3.83769 -0.803968 0
M  V30 279 H 24.6906 -3.77198 -1.79196 0
M  V30 280 N 25.1277 -0.289203 -1.54924 0
M  V30 281 C 26.0577 0.58549 -2.2604 0
M  V30 282 C 27.0387 1.14753 -1.25562 0
M  V30 283 O 28.2237 1.17906 -1.54311 0
M  V30 284 C 25.3537 1.76305 -2.99222 0
M  V30 285 C 24.3077 1.33191 -4.06748 0
M  V30 286 C 23.6337 2.5937 -4.6758 0
M  V30 287 C 24.9337 0.471775 -5.20165 0
M  V30 288 H 26.6277 -0.00763532 -2.99399 0
M  V30 289 H 24.1737 -0.00511229 -1.43999 0
M  V30 290 H 26.1267 2.38097 -3.47689 0
M  V30 291 H 24.8507 2.38223 -2.23422 0
M  V30 292 H 23.5097 0.737121 -3.59113 0
M  V30 293 H 23.1577 3.19576 -3.88433 0
M  V30 294 H 22.8577 2.31228 -5.40192 0
M  V30 295 H 24.3817 3.21985 -5.18804 0
M  V30 296 H 25.7957 0.995056 -5.64599 0
M  V30 297 H 24.1927 0.284639 -5.99425 0
M  V30 298 H 25.2627 -0.506041 -4.82252 0
M  V30 299 N 26.6058 1.57591 -0.0167156 0
M  V30 300 C 27.8308 1.9598 0.67872 0
M  V30 301 C 28.2558 0.892546 1.65575 0
M  V30 302 O 27.6138 -0.147772 1.80697 0
M  V30 303 C 27.6618 3.33468 1.37227 0
M  V30 304 O 26.7658 3.28954 2.48722 0
M  V30 305 H 26.1068 0.639339 0.17928 0
M  V30 306 H 28.6368 2.04463 -0.0748802 0
M  V30 307 H 28.6468 3.69417 1.7319 0
M  V30 308 H 27.3218 4.10694 0.656007 0
M  V30 309 H 25.8988 3.04705 2.14963 0
M  V30 310 N 28.0839 -0.256276 1.55502 0
M  V30 311 C 29.4949 -0.826068 1.67431 0
M  V30 312 C 29.8459 -1.86396 0.612446 0
M  V30 313 O 28.9709 -2.15031 -0.243025 0
M  V30 314 C 29.5659 -1.50512 3.03532 0
M  V30 315 C 28.1249 -2.02273 3.17431 0
M  V30 316 C 27.2719 -0.870548 2.63281 0
M  V30 317 H 30.2229 -0.0322728 1.58667 0
M  V30 318 H 30.2439 -2.37279 2.97454 0
M  V30 319 H 29.7559 -0.749484 3.80794 0
M  V30 320 H 27.8569 -2.80746 2.44974 0
M  V30 321 H 27.9699 -2.22655 4.24219 0
M  V30 322 H 26.3339 -1.26851 2.20864 0
M  V30 323 H 27.1169 -0.128149 3.43061 0
M  V30 324 N 29.562 -1.4872 -0.521534 0
M  V30 325 C 30.492 -1.66771 -1.63431 0
M  V30 326 C 31.473 -0.516499 -1.62069 0
M  V30 327 O 32.658 -0.750013 -1.79132 0
M  V30 328 C 29.788 -1.71515 -3.01993 0
M  V30 329 C 28.742 -2.86222 -3.18216 0
M  V30 330 C 28.068 -2.76061 -4.57924 0
M  V30 331 C 29.368 -4.27419 -3.00184 0
M  V30 332 H 31.062 -2.59932 -1.48579 0
M  V30 333 H 28.608 -1.25089 -0.713358 0
M  V30 334 H 30.561 -1.82731 -3.7972 0
M  V30 335 H 29.285 -0.749393 -3.17886 0
M  V30 336 H 27.944 -2.74575 -2.42908 0
M  V30 337 H 27.592 -1.77437 -4.70665 0
M  V30 338 H 27.292 -3.53037 -4.69722 0
M  V30 339 H 28.816 -2.89256 -5.37739 0
M  V30 340 H 30.23 -4.39855 -3.67697 0
M  V30 341 H 28.627 -5.05458 -3.2347 0
M  V30 342 H 29.697 -4.43293 -1.96518 0
M  V30 343 N 31.0401 0.771051 -1.3745 0
M  V30 344 C 31.9701 1.89827 -1.3597 0
M  V30 345 C 32.9511 1.68562 -0.228216 0
M  V30 346 O 34.1361 1.8941 -0.428675 0
M  V30 347 C 31.2661 3.2712 -1.16662 0
M  V30 348 C 30.2201 3.6295 -2.2683 0
M  V30 349 C 29.5461 4.98791 -1.92644 0
M  V30 350 C 30.8461 3.69627 -3.69017 0
M  V30 351 H 32.5401 1.91323 -2.30295 0
M  V30 352 H 30.0861 0.919082 -1.10855 0
M  V30 353 H 32.0391 4.05615 -1.14256 0
M  V30 354 H 30.7631 3.26059 -0.187926 0
M  V30 355 H 29.4221 2.86763 -2.28392 0
M  V30 356 H 29.0701 4.94271 -0.933021 0
M  V30 357 H 28.7701 5.23733 -2.66416 0
M  V30 358 H 30.2941 5.79685 -1.91826 0
M  V30 359 H 31.7081 4.38273 -3.69581 0
M  V30 360 H 30.1051 4.06067 -4.41848 0
M  V30 361 H 31.1751 2.70273 -4.02592 0
M  V30 362 N 32.5182 1.22032 0.997298 0
M  V30 363 C 33.7642 1.05382 1.73972 0
M  V30 364 C 34.1192 -0.407419 1.88037 0
M  V30 365 O 33.4122 -1.29811 1.40924 0
M  V30 366 C 33.6062 1.69345 3.14733 0
M  V30 367 C 33.4352 3.21537 3.14395 0
M  V30 368 C 32.2052 3.9062 3.20537 0
M  V30 369 C 34.4032 4.18527 2.98897 0
M  V30 370 N 32.3852 5.29935 3.09906 0
M  V30 371 C 33.7562 5.44645 2.96247 0
M  V30 372 C 35.8112 4.09476 2.83255 0
M  V30 373 C 34.5142 6.62752 2.79557 0
M  V30 374 C 36.5402 5.27228 2.67926 0
M  V30 375 C 35.9022 6.52262 2.65959 0
M  V30 376 H 32.0012 0.440018 0.646458 0
M  V30 377 H 34.5852 1.54505 1.18475 0
M  V30 378 H 32.7562 1.22778 3.68484 0
M  V30 379 H 34.4882 1.45828 3.77513 0
M  V30 380 H 31.2432 3.41592 3.28043 0
M  V30 381 H 31.6672 6.02926 3.07912 0
M  V30 382 H 36.3092 3.13598 2.83577 0
M  V30 383 H 34.0272 7.58783 2.77982 0
M  V30 384 H 37.6132 5.22053 2.56812 0
M  V30 385 H 36.4932 7.41844 2.54239 0
M  V30 386 N 33.9963 -1.19345 1.0293 0
M  V30 387 C 34.9283 -2.22036 0.56857 0
M  V30 388 C 35.9413 -1.58865 -0.355779 0
M  V30 389 O 37.1303 -1.77851 -0.152103 0
M  V30 390 C 34.2303 -3.38363 -0.190752 0
M  V30 391 C 33.4033 -4.31118 0.738643 0
M  V30 392 C 32.4623 -5.26194 0.0246497 0
M  V30 393 O 31.4883 -5.65461 0.651354 0
M  V30 394 N 32.6903 -5.66971 -1.24594 0
M  V30 395 H 35.4553 -2.6219 1.45177 0
M  V30 396 H 33.0163 -1.34015 0.908381 0
M  V30 397 H 35.0083 -3.98981 -0.677961 0
M  V30 398 H 33.5783 -2.96994 -0.975366 0
M  V30 399 H 32.7983 -3.68276 1.40593 0
M  V30 400 H 34.0863 -4.90001 1.37029 0
M  V30 401 H 33.4843 -5.37104 -1.77583 0
M  V30 402 H 32.0413 -6.2984 -1.67764 0
M  V30 403 N 35.4744 -0.807222 -1.35358 0
M  V30 404 C 36.4074 -0.163572 -2.27613 0
M  V30 405 C 37.3854 0.670817 -1.48118 0
M  V30 406 O 38.5694 0.63796 -1.77376 0
M  V30 407 C 35.6964 0.773015 -3.29761 0
M  V30 408 C 34.7424 0.0181653 -4.26496 0
M  V30 409 S 35.5754 -1.31831 -5.19019 0
M  V30 410 C 36.7314 -0.38619 -6.24707 0
M  V30 411 H 36.9644 -0.945757 -2.81856 0
M  V30 412 H 34.4974 -0.602315 -1.42167 0
M  V30 413 H 36.4554 1.30788 -3.89108 0
M  V30 414 H 35.1164 1.52859 -2.74396 0
M  V30 415 H 34.3094 0.729534 -4.98692 0
M  V30 416 H 33.9114 -0.446761 -3.71322 0
M  V30 417 H 36.2034 0.428295 -6.76145 0
M  V30 418 H 37.1464 -1.07736 -6.99856 0
M  V30 419 H 37.5544 0.018398 -5.64497 0
M  V30 420 N 36.9525 1.47285 -0.560781 0
M  V30 421 C 37.9005 2.31756 0.197942 0
M  V30 422 C 38.8945 1.43146 0.905854 0
M  V30 423 O 40.1005 1.59891 0.826733 0
M  V30 424 H 36.4755 0.747438 0.0827049 0
M  V30 425 H 38.4465 2.9359 -0.533629 0
M  V30 426 C 37.1955 3.25874 1.21249 0
M  V30 427 H 36.5185 3.94023 0.67719 0
M  V30 428 H 37.9585 3.87803 1.71419 0
M  V30 429 C 36.4175 2.49651 2.26221 0
M  V30 430 O 36.9475 2.24355 3.33208 0
M  V30 431 N 35.1535 2.10597 2.00243 0
M  V30 432 H 34.7005 2.31369 1.13252 0
M  V30 433 H 34.6585 1.59913 2.70694 0
M  V30 434 N 38.4306 0.297415 1.54768 0
M  V30 435 C 39.6586 -0.315623 2.04478 0
M  V30 436 C 40.0736 -1.47792 1.17486 0
M  V30 437 O 39.4306 -1.81404 0.19971 0
M  V30 438 C 39.4816 -0.7753 3.53088 0
M  V30 439 O 39.2026 0.340732 4.36773 0
M  V30 440 C 40.7036 -1.45386 4.18781 0
M  V30 441 H 37.9236 -0.0690887 0.667434 0
M  V30 442 H 40.4676 0.436003 1.99798 0
M  V30 443 H 38.6226 -1.47696 3.58141 0
M  V30 444 H 39.0366 -0.0165035 5.24497 0
M  V30 445 H 40.5106 -1.72669 5.24299 0
M  V30 446 H 40.9876 -2.39275 3.68299 0
M  V30 447 H 41.5936 -0.795475 4.17795 0
M  V30 448 N 39.9087 -1.5758 0.0250728 0
M  V30 449 C 40.8717 -2.08896 -0.943139 0
M  V30 450 C 41.8717 -1.00321 -1.25668 0
M  V30 451 O 43.0617 -1.26495 -1.19769 0
M  V30 452 C 40.1937 -2.55143 -2.26086 0
M  V30 453 H 41.3867 -2.95723 -0.498775 0
M  V30 454 H 38.9397 -1.54703 -0.222888 0
M  V30 455 H 39.6747 -1.71633 -2.75159 0
M  V30 456 H 39.4597 -3.34461 -2.04641 0
M  V30 457 H 40.9497 -2.95083 -2.95492 0
M  V30 458 N 41.3868 0.248026 -1.55636 0
M  V30 459 C 42.3368 1.30994 -1.86614 0
M  V30 460 C 43.3208 1.43543 -0.726918 0
M  V30 461 O 44.5128 1.46804 -0.988818 0
M  V30 462 C 41.6418 2.6656 -2.16335 0
M  V30 463 C 40.7278 2.58019 -3.36581 0
M  V30 464 N 41.1188 2.1911 -4.55878 0
M  V30 465 C 39.4168 2.89035 -3.39669 0
M  V30 466 C 40.1178 2.21174 -5.38012 0
M  V30 467 N 39.0938 2.60632 -4.77045 0
M  V30 468 H 42.8958 0.999583 -2.76379 0
M  V30 469 H 40.4098 0.456652 -1.55848 0
M  V30 470 H 42.4068 3.43194 -2.36692 0
M  V30 471 H 41.0668 2.98463 -1.27867 0
M  V30 472 H 42.0778 1.90672 -4.81523 0
M  V30 473 H 38.7548 3.25485 -2.61469 0
M  V30 474 H 40.1448 1.9344 -6.43452 0
M  V30 475 N 42.8649 1.48995 0.513639 0
M  V30 476 C 43.8279 1.64229 1.59879 0
M  V30 477 C 44.8279 0.514696 1.5234 0
M  V30 478 O 46.0179 0.78087 1.55718 0
M  V30 479 C 43.1499 1.62783 2.99524 0
M  V30 480 H 44.3429 2.61004 1.47705 0
M  V30 481 H 41.8959 1.37837 0.736936 0
M  V30 482 H 42.6309 0.675461 3.17188 0
M  V30 483 H 42.4159 2.4466 3.06404 0
M  V30 484 H 43.9059 1.76669 3.78388 0
M  V30 485 N 44.343 -0.763751 1.37857 0
M  V30 486 C 45.306 -1.85889 1.34081 0
M  V30 487 C 46.306 -1.58949 0.243277 0
M  V30 488 O 47.496 -1.66882 0.499589 0
M  V30 489 C 44.628 -3.23176 1.08489 0
M  V30 490 H 45.821 -1.90648 2.31502 0
M  V30 491 H 43.374 -0.964367 1.23003 0
M  V30 492 H 44.109 -3.24091 0.116318 0
M  V30 493 H 43.894 -3.44124 1.8794 0
M  V30 494 H 45.384 -4.03254 1.08517 0
M  V30 495 N 45.8211 -1.22559 -0.990812 0
M  V30 496 C 46.7841 -0.998863 -2.0629 0
M  V30 497 C 47.7841 0.0354834 -1.60761 0
M  V30 498 O 48.9741 -0.203231 -1.7301 0
M  V30 499 C 46.1061 -0.509203 -3.37076 0
M  V30 500 H 47.2991 -1.95014 -2.27837 0
M  V30 501 H 44.8521 -1.04456 -1.16269 0
M  V30 502 H 45.5871 0.446335 -3.21214 0
M  V30 503 H 45.3721 -1.25547 -3.71457 0
M  V30 504 H 46.8621 -0.370888 -4.1595 0
M  V30 505 N 47.2992 1.18797 -1.03562 0
M  V30 506 C 48.5482 1.87978 -0.731235 0
M  V30 507 C 48.8612 1.80911 0.743671 0
M  V30 508 O 50.0672 2.45407 1.16137 0
M  V30 509 C 48.5232 3.3721 -1.25768 0
M  V30 510 C 48.1312 3.52818 -2.76085 0
M  V30 511 C 49.8752 4.11825 -1.0296 0
M  V30 512 C 47.7822 4.9598 -3.22114 0
M  V30 513 H 46.7122 0.704063 -0.269835 0
M  V30 514 H 49.3632 1.34266 -1.25079 0
M  V30 515 H 47.7452 3.90359 -0.666011 0
M  V30 516 H 48.9192 3.09965 -3.40966 0
M  V30 517 H 47.2342 2.91602 -2.97249 0
M  V30 518 H 49.8312 5.17411 -1.34869 0
M  V30 519 H 50.1742 4.16287 0.0333546 0
M  V30 520 H 50.7072 3.64833 -1.58562 0
M  V30 521 H 47.4462 4.96684 -4.27768 0
M  V30 522 H 46.9662 5.39569 -2.61965 0
M  V30 523 H 48.6452 5.6467 -3.15844 0
M  V30 524 N 48.7773 0.814389 1.34928 0
M  V30 525 C 50.0543 0.321363 1.92942 0
M  V30 526 C 50.4343 -1.19014 1.74353 0
M  V30 527 O 49.7823 -1.99328 1.11716 0
M  V30 528 C 49.9923 0.741323 3.41036 0
M  V30 529 C 51.3403 0.735266 4.18185 0
M  V30 530 O 52.3643 0.68336 3.49584 0
M  V30 531 O 51.2233 0.800703 5.40602 0
M  V30 532 H 48.3173 0.0858893 0.822528 0
M  V30 533 H 50.8633 0.898609 1.43955 0
M  V30 534 H 49.6353 1.78276 3.4833 0
M  V30 535 H 49.2583 0.139307 3.97356 0
M  V30 536 N 50.2554 -1.46986 0.568584 0
M  V30 537 C 51.6664 -1.86188 0.138219 0
M  V30 538 C 52.0174 -1.47388 -1.29504 0
M  V30 539 O 51.1424 -0.88219 -1.97602 0
M  V30 540 C 51.7374 -3.3792 0.244065 0
M  V30 541 C 50.2964 -3.76171 -0.131335 0
M  V30 542 C 49.4434 -2.71027 0.586465 0
M  V30 543 H 52.3944 -1.38342 0.777645 0
M  V30 544 H 52.4154 -3.76729 -0.534351 0
M  V30 545 H 51.9274 -3.66128 1.28731 0
M  V30 546 H 50.0284 -3.5358 -1.17526 0
M  V30 547 H 50.1414 -4.78523 0.235146 0
M  V30 548 H 48.5054 -2.54684 0.0282722 0
M  V30 549 H 49.2884 -3.02077 1.63109 0
M  V30 550 N 51.7335 -0.305618 -1.54608 0
M  V30 551 C 52.6815 0.584119 -2.25146 0
M  V30 552 C 53.6755 1.13326 -1.25911 0
M  V30 553 O 54.8815 1.08337 -1.43747 0
M  V30 554 H 51.2565 0.206983 -0.722954 0
M  V30 555 H 53.2275 -0.033291 -2.98381 0
M  V30 556 C 51.9765 1.74225 -3.009 0
M  V30 557 H 51.2995 1.32892 -3.77067 0
M  V30 558 H 52.7395 2.34077 -3.53531 0
M  V30 559 C 51.1985 2.64914 -2.0814 0
M  V30 560 O 51.7285 3.66137 -1.65246 0
M  V30 561 N 49.9345 2.3275 -1.74 0
M  V30 562 H 49.4815 1.50479 -2.09078 0
M  V30 563 H 49.4395 2.93694 -1.12211 0
M  V30 564 N 53.2116 1.57565 -0.0334293 0
M  V30 565 C 54.6276 1.56297 0.322997 0
M  V30 566 C 54.8276 1.03945 1.7262 0
M  V30 567 O 53.8836 0.688109 2.42943 0
M  V30 568 C 55.1966 3.00232 0.167664 0
M  V30 569 C 56.7446 3.12078 0.240107 0
M  V30 570 C 57.2196 4.57859 0.113513 0
M  V30 571 N 58.7106 4.62887 0.170359 0
M  V30 572 C 59.4456 5.73319 0.0962517 0
M  V30 573 N 58.9416 6.92794 -0.0291881 0
M  V30 574 N 60.7346 5.61898 0.150551 0
M  V30 575 H 52.8856 1.89923 -0.950956 0
M  V30 576 H 55.1486 0.873824 -0.367608 0
M  V30 577 H 54.8546 3.42501 -0.799102 0
M  V30 578 H 54.7286 3.654 0.936083 0
M  V30 579 H 57.1156 2.69718 1.19733 0
M  V30 580 H 57.1966 2.49623 -0.558763 0
M  V30 581 H 56.8406 5.009 -0.840314 0
M  V30 582 H 56.7706 5.18299 0.931302 0
M  V30 583 H 59.2616 3.76954 0.26728 0
M  V30 584 H 59.5746 7.7276 -0.0789252 0
M  V30 585 H 57.9196 6.94971 -0.0640299 0
M  V30 586 H 61.1106 4.67448 0.246981 0
M  V30 587 H 61.2836 6.47938 0.0893365 0
M  V30 588 N 54.6897 -0.239769 1.55765 0
M  V30 589 C 55.9387 -0.964754 1.77131 0
M  V30 590 C 56.2517 -1.86213 0.59868 0
M  V30 591 O 57.4577 -2.6244 0.695522 0
M  V30 592 C 55.9137 -1.76552 3.1362 0
M  V30 593 C 55.5217 -0.915185 4.38553 0
M  V30 594 C 57.2657 -2.48281 3.44321 0
M  V30 595 C 55.1727 -1.71225 5.66071 0
M  V30 596 H 54.1027 -0.363953 0.660344 0
M  V30 597 H 56.7537 -0.219181 1.82186 0
M  V30 598 H 55.1357 -2.55331 3.02691 0
M  V30 599 H 56.3097 -0.169217 4.60489 0
M  V30 600 H 54.6247 -0.310889 4.15238 0
M  V30 601 H 57.2217 -3.08382 4.36812 0
M  V30 602 H 57.5647 -3.20256 2.65973 0
M  V30 603 H 58.0977 -1.76507 3.56497 0
M  V30 604 H 54.8367 -1.03612 6.4726 0
M  V30 605 H 54.3567 -2.43331 5.48224 0
M  V30 606 H 56.0357 -2.27758 6.05587 0
M  V30 607 N 56.1678 -1.49265 -0.50573 0
M  V30 608 C 57.4138 -1.58748 -1.26202 0
M  V30 609 C 57.7468 -0.271227 -1.92297 0
M  V30 610 O 57.0218 0.724831 -1.80489 0
M  V30 611 C 57.3048 -2.74332 -2.33268 0
M  V30 612 C 57.1578 -4.15737 -1.71705 0
M  V30 613 C 58.4768 -2.85576 -3.34865 0
M  V30 614 H 55.5958 -0.577826 -0.457478 0
M  V30 615 H 58.2378 -1.81532 -0.560897 0
M  V30 616 H 56.3878 -2.55036 -2.93068 0
M  V30 617 H 58.0598 -4.46537 -1.15769 0
M  V30 618 H 56.3028 -4.21605 -1.02135 0
M  V30 619 H 56.9738 -4.92477 -2.49341 0
M  V30 620 H 59.4498 -3.03127 -2.8505 0
M  V30 621 H 58.3258 -3.68135 -4.07146 0
M  V30 622 H 58.5868 -1.94732 -3.96903 0
M  V30 623 N 57.6459 0.756429 -1.3826 0
M  V30 624 C 58.6089 1.85176 -1.35065 0
M  V30 625 C 59.6089 1.58818 -0.251703 0
M  V30 626 O 60.7989 1.66615 -0.508433 0
M  V30 627 C 57.9309 3.22596 -1.10201 0
M  V30 628 H 59.1239 1.89417 -2.3251 0
M  V30 629 H 56.6769 0.95783 -1.23512 0
M  V30 630 H 57.4119 3.24025 -0.133504 0
M  V30 631 H 57.1969 3.43122 -1.89762 0
M  V30 632 H 58.6869 4.02673 -1.10654 0
M  V30 633 N 59.124 1.23083 0.984299 0
M  V30 634 C 60.054 1.03292 2.09411 0
M  V30 635 C 61.035 -0.048923 1.7003 0
M  V30 636 O 62.22 0.114967 1.93859 0
M  V30 637 C 59.35 0.619155 3.41736 0
M  V30 638 C 58.304 1.64791 3.95004 0
M  V30 639 C 57.63 1.0897 5.23478 0
M  V30 640 C 58.93 3.03999 4.24714 0
M  V30 641 H 60.624 1.96119 2.26225 0
M  V30 642 H 58.17 0.944344 1.08711 0
M  V30 643 H 60.123 0.467777 4.18796 0
M  V30 644 H 58.847 -0.344786 3.24775 0
M  V30 645 H 57.506 1.78721 3.20085 0
M  V30 646 H 57.154 0.11686 5.02864 0
M  V30 647 H 56.854 1.77704 5.60085 0
M  V30 648 H 58.378 0.950093 6.03163 0
M  V30 649 H 59.792 2.93393 4.92538 0
M  V30 650 H 58.189 3.69936 4.72512 0
M  V30 651 H 59.259 3.53285 3.32142 0
M  V30 652 N 60.6021 -1.18246 1.0419 0
M  V30 653 C 61.5121 -2.25574 0.644476 0
M  V30 654 C 62.5281 -1.70845 -0.329826 0
M  V30 655 O 63.7041 -2.00554 -0.184443 0
M  V30 656 C 60.7691 -3.46697 0.014877 0
M  V30 657 C 59.8301 -4.16554 1.03834 0
M  V30 658 C 59.0631 -5.31894 0.438692 0
M  V30 659 O 59.2861 -5.65385 -0.754752 0
M  V30 660 O 58.2201 -5.90459 1.168 0
M  V30 661 H 62.0461 -2.61836 1.53869 0
M  V30 662 H 59.6311 -1.25352 0.812854 0
M  V30 663 H 61.5131 -4.20062 -0.335538 0
M  V30 664 H 60.1881 -3.12255 -0.853138 0
M  V30 665 H 59.0951 -3.45251 1.44057 0
M  V30 666 H 60.4281 -4.54998 1.87716 0
M  V30 667 N 62.0802 -0.821533 -1.34494 0
M  V30 668 C 63.3262 -0.418729 -1.99043 0
M  V30 669 C 63.6812 1.00672 -1.6396 0
M  V30 670 O 62.9742 1.69132 -0.900271 0
M  V30 671 C 63.1682 -0.556512 -3.53041 0
M  V30 672 C 62.9972 -1.9938 -4.03085 0
M  V30 673 C 61.7672 -2.62539 -4.31742 0
M  V30 674 C 63.9652 -2.96035 -4.20556 0
M  V30 675 N 61.9472 -3.97523 -4.67813 0
M  V30 676 C 63.3182 -4.15924 -4.59791 0
M  V30 677 C 65.3732 -2.9267 -4.02801 0
M  V30 678 C 64.0762 -5.32899 -4.83126 0
M  V30 679 C 66.1022 -4.08861 -4.27302 0
M  V30 680 C 65.4642 -5.275 -4.66822 0
M  V30 681 H 61.5632 -0.201299 -0.755647 0
M  V30 682 H 64.1472 -1.06594 -1.62929 0
M  V30 683 H 62.3182 0.0607924 -3.88352 0
M  V30 684 H 64.0502 -0.126842 -4.04501 0
M  V30 685 H 60.8052 -2.13789 -4.22601 0
M  V30 686 H 61.2292 -4.67061 -4.90085 0
M  V30 687 H 65.8712 -2.02088 -3.71376 0
M  V30 688 H 63.5892 -6.24041 -5.13418 0
M  V30 689 H 67.1752 -4.07654 -4.15101 0
M  V30 690 H 66.0552 -6.15913 -4.85408 0
M  V30 691 N 63.5583 1.46682 -0.576371 0
M  V30 692 C 64.4883 2.33028 0.148397 0
M  V30 693 C 65.4693 1.44961 0.889956 0
M  V30 694 O 66.6543 1.73789 0.866662 0
M  V30 695 C 63.7843 3.27117 1.1667 0
M  V30 696 C 62.7383 4.24575 0.540386 0
M  V30 697 C 62.0643 5.08126 1.6647 0
M  V30 698 C 63.3643 5.19722 -0.518331 0
M  V30 699 H 65.0583 2.93875 -0.572509 0
M  V30 700 H 62.6043 1.41315 -0.276768 0
M  V30 701 H 64.5573 3.86374 1.68204 0
M  V30 702 H 63.2813 2.64364 1.9178 0
M  V30 703 H 61.9403 3.66571 0.0461769 0
M  V30 704 H 61.5883 4.41762 2.40531 0
M  V30 705 H 61.2883 5.74122 1.25131 0
M  V30 706 H 62.8123 5.70246 2.18293 0
M  V30 707 H 64.2263 5.73232 -0.0883058 0
M  V30 708 H 62.6233 5.94026 -0.851679 0
M  V30 709 H 63.6933 4.64037 -1.40703 0
M  V30 710 N 65.0364 0.313813 1.54444 0
M  V30 711 C 66.4474 -0.176243 1.85866 0
M  V30 712 C 66.7984 -1.52405 1.23561 0
M  V30 713 O 65.9234 -2.09605 0.538016 0
M  V30 714 C 66.5184 -0.32657 3.37222 0
M  V30 715 C 65.0774 -0.760846 3.6863 0
M  V30 716 C 64.2244 0.123247 2.77026 0
M  V30 717 H 67.1754 0.534418 1.49431 0
M  V30 718 H 67.1964 -1.15908 3.62416 0
M  V30 719 H 66.7084 0.654531 3.82541 0
M  V30 720 H 64.8094 -1.75204 3.28838 0
M  V30 721 H 64.9224 -0.571353 4.75681 0
M  V30 722 H 63.2864 -0.399597 2.51546 0
M  V30 723 H 64.0694 1.10094 3.25168 0
M  V30 724 N 66.5145 -1.57545 0.0417849 0
M  V30 725 C 67.7605 -1.92601 -0.635021 0
M  V30 726 C 68.0935 -0.919627 -1.71045 0
M  V30 727 O 67.3685 0.0557892 -1.9442 0
M  V30 728 C 67.6515 -3.38085 -1.23979 0
M  V30 729 C 67.5045 -4.49467 -0.173057 0
M  V30 730 C 68.8235 -3.83776 -2.15416 0
M  V30 731 H 65.9425 -0.700397 -0.229374 0
M  V30 732 H 68.5845 -1.89728 0.101633 0
M  V30 733 H 66.7345 -3.40664 -1.86762 0
M  V30 734 H 68.4065 -4.59018 0.458312 0
M  V30 735 H 66.6495 -4.30909 0.499996 0
M  V30 736 H 67.3205 -5.48323 -0.636054 0
M  V30 737 H 69.7965 -3.83013 -1.62605 0
M  V30 738 H 68.6725 -4.8624 -2.54679 0
M  V30 739 H 68.9335 -3.19998 -3.05047 0
M  V30 740 N 67.9926 0.231505 -1.5589 0
M  V30 741 C 68.9026 1.308 -1.94752 0
M  V30 742 C 69.9186 1.51826 -0.849989 0
M  V30 743 O 71.0946 1.6515 -1.15271 0
M  V30 744 C 68.1596 2.63968 -2.24771 0
M  V30 745 C 67.2206 2.51331 -3.48039 0
M  V30 746 C 66.4536 3.78148 -3.76616 0
M  V30 747 O 66.6766 4.80722 -3.07022 0
M  V30 748 O 65.6106 3.75857 -4.70123 0
M  V30 749 H 69.4366 1.0083 -2.86474 0
M  V30 750 H 67.0216 0.433547 -1.42971 0
M  V30 751 H 68.9036 3.42633 -2.45318 0
M  V30 752 H 67.5786 2.9364 -1.36225 0
M  V30 753 H 66.4856 1.709 -3.32782 0
M  V30 754 H 67.8186 2.26601 -4.36936 0
M  V30 755 N 69.4707 1.49531 0.497807 0
M  V30 756 C 70.4007 1.6935 1.60757 0
M  V30 757 C 71.3817 0.542218 1.61227 0
M  V30 758 O 72.5667 0.778417 1.77917 0
M  V30 759 C 69.6967 1.76298 2.99226 0
M  V30 760 C 68.6507 2.91248 3.13622 0
M  V30 761 C 67.9767 2.83312 4.53474 0
M  V30 762 C 69.2767 4.3214 2.93346 0
M  V30 763 H 70.9707 2.62263 1.44425 0
M  V30 764 H 68.5167 1.26208 0.693367 0
M  V30 765 H 70.4697 1.88749 3.76765 0
M  V30 766 H 69.1937 0.799871 3.16654 0
M  V30 767 H 67.8527 2.78404 2.38509 0
M  V30 768 H 67.5007 1.84902 4.67782 0
M  V30 769 H 67.2007 3.60465 4.64046 0
M  V30 770 H 68.7247 2.97775 5.33069 0
M  V30 771 H 70.1387 4.45649 3.60652 0
M  V30 772 H 68.5357 5.1054 3.15387 0
M  V30 773 H 69.6057 4.46363 1.89441 0
M  V30 774 N 70.9488 -0.749086 1.3866 0
M  V30 775 C 71.8788 -1.8764 1.38973 0
M  V30 776 C 72.8598 -1.68178 0.255004 0
M  V30 777 O 74.0448 -1.88704 0.458754 0
M  V30 778 C 71.1748 -3.25222 1.21851 0
M  V30 779 C 70.1288 -3.59295 2.32575 0
M  V30 780 C 69.4548 -4.95663 2.00555 0
M  V30 781 C 70.7548 -3.63709 3.7485 0
M  V30 782 H 72.4488 -1.87635 2.3331 0
M  V30 783 H 69.9948 -0.901329 1.12303 0
M  V30 784 H 71.9478 -4.03746 1.20695 0
M  V30 785 H 70.6718 -3.25719 0.239775 0
M  V30 786 H 69.3308 -2.83093 2.32925 0
M  V30 787 H 68.9788 -4.92724 1.01154 0
M  V30 788 H 68.6788 -5.19429 2.74714 0
M  V30 789 H 70.2028 -5.7656 2.01024 0
M  V30 790 H 71.6168 -4.32338 3.76506 0
M  V30 791 H 70.0138 -3.98986 4.48252 0
M  V30 792 H 71.0838 -2.63834 4.06841 0
M  V30 793 N 72.4269 -1.23603 -0.977757 0
M  V30 794 C 73.3569 -1.04401 -2.0886 0
M  V30 795 C 74.3379 0.0399052 -1.70053 0
M  V30 796 O 75.5229 -0.125246 -1.93796 0
M  V30 797 C 72.6529 -0.637269 -3.41403 0
M  V30 798 C 71.6069 -1.66883 -3.94124 0
M  V30 799 C 70.9329 -1.11745 -5.22893 0
M  V30 800 C 72.2329 -3.06247 -4.23096 0
M  V30 801 H 73.9269 -1.97316 -2.25182 0
M  V30 802 H 71.4729 -0.950096 -1.08209 0
M  V30 803 H 73.4259 -0.48998 -4.18542 0
M  V30 804 H 72.1499 0.327557 -3.24953 0
M  V30 805 H 70.8089 -1.80416 -3.19133 0
M  V30 806 H 70.4569 -0.143527 -5.02795 0
M  V30 807 H 70.1569 -1.80672 -5.59134 0
M  V30 808 H 71.6809 -0.982067 -6.02651 0
M  V30 809 H 73.0949 -2.96001 -4.90975 0
M  V30 810 H 71.4919 -3.72436 -4.70544 0
M  V30 811 H 72.5619 -3.55041 -3.30263 0
M  V30 812 N 73.905 1.17692 -1.04816 0
M  V30 813 C 74.868 2.19787 -0.650117 0
M  V30 814 C 75.868 1.58044 0.296427 0
M  V30 815 O 77.058 1.74012 0.0808097 0
M  V30 816 C 74.19 3.40869 0.0456987 0
M  V30 817 H 75.383 2.56516 -1.5537 0
M  V30 818 H 72.936 1.31708 -0.841594 0
M  V30 819 H 73.671 3.09681 0.962726 0
M  V30 820 H 73.456 3.86928 -0.634727 0
M  V30 821 H 74.946 4.16445 0.310432 0
M  V30 822 N 75.3831 0.828654 1.34056 0
M  V30 823 C 76.3131 0.269443 2.3194 0
M  V30 824 C 77.2941 -0.617247 1.58506 0
M  V30 825 O 78.4791 -0.542931 1.86456 0
M  V30 826 C 75.6091 -0.564793 3.42677 0
M  V30 827 C 74.5631 0.225241 4.27407 0
M  V30 828 C 73.8891 -0.7321 5.29664 0
M  V30 829 C 75.1891 1.43663 5.02154 0
M  V30 830 H 76.8831 1.08728 2.7896 0
M  V30 831 H 74.4291 0.524283 1.34117 0
M  V30 832 H 76.3821 -0.966233 4.10173 0
M  V30 833 H 75.1061 -1.41574 2.9432 0
M  V30 834 H 73.7651 0.608117 3.61521 0
M  V30 835 H 73.4131 -1.57916 4.77568 0
M  V30 836 H 73.1131 -0.20767 5.87233 0
M  V30 837 H 74.6371 -1.13128 6.00029 0
M  V30 838 H 76.0511 1.1089 5.62473 0
M  V30 839 H 74.4481 1.89711 5.69324 0
M  V30 840 H 75.5181 2.21181 4.31517 0
M  V30 841 N 76.8612 -1.46375 0.584142 0
M  V30 842 C 78.1092 -2.01978 0.0701287 0
M  V30 843 C 78.4302 -1.4579 -1.295 0
M  V30 844 O 77.7002 -0.64314 -1.85042 0
M  V30 845 H 76.2802 -0.746648 0.0229345 0
M  V30 846 H 78.9422 -1.79461 0.760245 0
M  V30 847 H 78.0382 -3.121 0.0022064 0
M  V30 848 N 78.3393 -0.321999 -1.54275 0
M  V30 849 C 79.5883 0.281931 -1.9972 0
M  V30 850 C 79.9013 1.53369 -1.21397 0
M  V30 851 O 81.1073 2.21352 -1.57211 0
M  V30 852 C 79.5633 0.5529 -3.55628 0
M  V30 853 C 79.1713 -0.681721 -4.42783 0
M  V30 854 C 80.9153 1.11687 -4.09544 0
M  V30 855 C 78.8223 -0.382742 -5.9016 0
M  V30 856 H 77.7523 0.109124 -0.746062 0
M  V30 857 H 80.4033 -0.43398 -1.78294 0
M  V30 858 H 78.7853 1.32896 -3.73035 0
M  V30 859 H 79.9593 -1.45723 -4.37151 0
M  V30 860 H 78.2743 -1.1658 -3.99748 0
M  V30 861 H 80.8713 1.35515 -5.17242 0
M  V30 862 H 81.2143 2.06575 -3.61431 0
M  V30 863 H 81.7473 0.402032 -3.95763 0
M  V30 864 H 78.4863 -1.30076 -6.42464 0
M  V30 865 H 78.0063 0.355094 -5.98748 0
M  V30 866 H 79.6853 0.00800157 -6.47 0
M  V30 867 N 79.8174 1.5752 -0.0501392 0
M  V30 868 C 81.0634 1.92936 0.624798 0
M  V30 869 C 81.3964 0.928685 1.70555 0
M  V30 870 O 80.6714 -0.0454779 1.94447 0
M  V30 871 C 80.9544 3.38737 1.22185 0
M  V30 872 C 80.8074 4.49552 0.149218 0
M  V30 873 C 82.1264 3.84913 2.13378 0
M  V30 874 H 79.2454 0.701604 0.225657 0
M  V30 875 H 81.8874 1.89671 -0.111693 0
M  V30 876 H 80.0374 3.4165 1.84953 0
M  V30 877 H 81.7094 4.58768 -0.482648 0
M  V30 878 H 79.9524 4.30638 -0.522841 0
M  V30 879 H 80.6234 5.48653 0.606966 0
M  V30 880 H 83.0994 3.8387 1.60572 0
M  V30 881 H 81.9754 4.87584 2.52097 0
M  V30 882 H 82.2364 3.21611 3.03346 0
M  V30 883 N 81.2955 -0.223234 1.56011 0
M  V30 884 C 82.7065 -0.790368 1.69145 0
M  V30 885 C 83.0575 -1.85055 0.651845 0
M  V30 886 O 82.1825 -2.15498 -0.197359 0
M  V30 887 C 82.7775 -1.4404 3.06656 0
M  V30 888 C 81.3365 -1.95494 3.2165 0
M  V30 889 C 80.4835 -0.814506 2.65068 0
M  V30 890 H 83.4345 0.00139011 1.587 0
M  V30 891 H 83.4555 -2.30916 3.0242 0
M  V30 892 H 82.9675 -0.668543 3.82298 0
M  V30 893 H 81.0685 -2.75487 2.50874 0
M  V30 894 H 81.1815 -2.13607 4.28846 0
M  V30 895 H 79.5455 -1.22137 2.23505 0
M  V30 896 H 80.3285 -0.0553515 3.43255 0
M  V30 897 N 82.7736 -1.49793 -0.48987 0
M  V30 898 C 84.0036 -1.6333 -1.26518 0
M  V30 899 C 84.4116 -0.308392 -1.8667 0
M  V30 900 O 83.7546 0.717512 -1.69108 0
M  V30 901 C 83.8166 -2.6522 -2.4269 0
M  V30 902 C 83.4806 -4.09279 -2.03321 0
M  V30 903 C 84.4776 -4.95738 -1.56652 0
M  V30 904 C 82.1626 -4.55082 -2.12616 0
M  V30 905 C 84.1566 -6.26041 -1.19795 0
M  V30 906 C 81.8436 -5.85396 -1.75371 0
M  V30 907 C 82.8416 -6.707 -1.29036 0
M  V30 908 O 82.5296 -7.98584 -0.92299 0
M  V30 909 H 82.2616 -0.552502 -0.389509 0
M  V30 910 H 84.8156 -1.96642 -0.593381 0
M  V30 911 H 83.0456 -2.27112 -3.12981 0
M  V30 912 H 84.7346 -2.68171 -3.04695 0
M  V30 913 H 85.5006 -4.61575 -1.48908 0
M  V30 914 H 81.3796 -3.88844 -2.47631 0
M  V30 915 H 84.9236 -6.92578 -0.835582 0
M  V30 916 H 80.8206 -6.19085 -1.82768 0
M  V30 917 H 81.5886 -8.11692 -1.05349 0
M  V30 918 N 84.2517 0.741722 -1.39055 0
M  V30 919 C 85.4997 1.49818 -1.35643 0
M  V30 920 C 85.8207 1.94938 0.0491642 0
M  V30 921 O 85.0907 1.68505 0.999141 0
M  V30 922 H 83.6707 0.555755 -0.499144 0
M  V30 923 H 86.3327 0.880957 -1.73854 0
M  V30 924 H 85.4287 2.38348 -2.01486 0
M  V30 925 N 85.7298 1.2412 0.971189 0
M  V30 926 C 86.9758 1.08041 1.71625 0
M  V30 927 C 87.3088 -0.380407 1.90438 0
M  V30 928 O 86.5838 -1.28127 1.46334 0
M  V30 929 C 86.8668 1.81682 3.10908 0
M  V30 930 C 86.7198 3.35493 2.99608 0
M  V30 931 C 88.0388 1.58671 4.10501 0
M  V30 932 H 85.1578 0.39388 0.622919 0
M  V30 933 H 87.7998 1.52743 1.13003 0
M  V30 934 H 85.9498 1.43684 3.60953 0
M  V30 935 H 87.6218 3.83068 2.57015 0
M  V30 936 H 85.8648 3.64052 2.35899 0
M  V30 937 H 86.5358 3.82217 3.98264 0
M  V30 938 H 89.0118 1.91719 3.69301 0
M  V30 939 H 87.8878 2.1266 5.06031 0
M  V30 940 H 88.1488 0.524161 4.38982 0
M  V30 941 N 87.2079 -1.17134 1.05439 0
M  V30 942 C 88.1709 -2.19439 0.661764 0
M  V30 943 C 89.1709 -1.58199 -0.288042 0
M  V30 944 O 90.3609 -1.74053 -0.0715803 0
M  V30 945 C 87.4929 -3.40889 -0.0276209 0
M  V30 946 H 88.6859 -2.55688 1.56728 0
M  V30 947 H 86.2389 -1.31259 0.848567 0
M  V30 948 H 86.9739 -3.10187 -0.94629 0
M  V30 949 H 86.7589 -3.86586 0.655238 0
M  V30 950 H 88.2489 -4.16603 -0.288342 0
M  V30 951 N 88.686 -0.835752 -1.33615 0
M  V30 952 C 89.963 -0.352017 -1.92406 0
M  V30 953 C 90.343 1.16225 -1.76224 0
M  V30 954 O 89.691 1.97526 -1.14873 0
M  V30 955 C 89.901 -0.795485 -3.39813 0
M  V30 956 C 91.249 -0.801703 -4.16963 0
M  V30 957 O 92.273 -0.738889 -3.48452 0
M  V30 958 O 91.132 -0.886607 -5.3926 0
M  V30 959 H 88.226 -0.0989641 -0.821057 0
M  V30 960 H 90.772 -0.921397 -1.42507 0
M  V30 961 H 89.544 -1.83795 -3.45449 0
M  V30 962 H 89.167 -0.202505 -3.97084 0
M  V30 963 N 90.1641 1.46063 -0.591896 0
M  V30 964 C 91.3921 2.06717 -0.0868936 0
M  V30 965 C 91.8071 1.43916 1.22203 0
M  V30 966 O 91.1641 0.547698 1.74088 0
M  V30 967 C 91.2151 3.6142 0.0758725 0
M  V30 968 O 90.9361 4.21874 -1.18126 0
M  V30 969 C 92.4371 4.39025 0.61416 0
M  V30 970 H 89.6571 0.668162 -0.0616518 0
M  V30 971 H 92.2011 1.8755 -0.815175 0
M  V30 972 H 90.3561 3.79983 0.754413 0
M  V30 973 H 90.7701 5.14861 -1.00092 0
M  V30 974 H 92.2441 5.4783 0.677193 0
M  V30 975 H 92.7211 4.07708 1.63312 0
M  V30 976 H 93.3271 4.2529 -0.0298142 0
M  V30 977 N 91.6422 0.330177 1.54103 0
M  V30 978 C 92.8912 -0.271336 1.99867 0
M  V30 979 C 93.2042 -1.52723 1.22209 0
M  V30 980 O 94.4102 -2.20515 1.58383 0
M  V30 981 C 92.8662 -0.534032 3.55916 0
M  V30 982 C 92.4742 0.705193 4.42415 0
M  V30 983 C 94.2182 -1.09514 4.1013 0
M  V30 984 C 92.1252 0.414035 5.89949 0
M  V30 985 H 91.0552 -0.105166 0.74663 0
M  V30 986 H 93.7062 0.443429 1.78062 0
M  V30 987 H 92.0882 -1.30915 3.73734 0
M  V30 988 H 93.2622 1.4804 4.36372 0
M  V30 989 H 91.5772 1.18698 3.99124 0
M  V30 990 H 94.1742 -1.3277 5.17954 0
M  V30 991 H 94.5172 -2.04656 3.62521 0
M  V30 992 H 95.0502 -0.381038 3.95971 0
M  V30 993 H 91.7892 1.33481 6.41766 0
M  V30 994 H 91.3092 -0.323336 5.98928 0
M  V30 995 H 92.9882 0.0263105 6.46995 0
M  V30 996 N 93.1203 -1.57491 0.0584922 0
M  V30 997 C 94.0683 -2.13148 -0.931168 0
M  V30 998 C 95.0623 -1.06507 -1.31729 0
M  V30 999 O 96.2683 -1.24906 -1.29609 0
M  V30 1000 H 92.6433 -0.68137 -0.31818 0
M  V30 1001 H 94.6143 -2.95187 -0.436707 0
M  V30 1002 C 93.3633 -2.69732 -2.19408 0
M  V30 1003 H 92.6863 -3.51454 -1.90578 0
M  V30 1004 H 94.1263 -3.12287 -2.86798 0
M  V30 1005 C 92.5853 -1.63855 -2.94369 0
M  V30 1006 O 93.1153 -1.05565 -3.87581 0
M  V30 1007 N 91.3213 -1.35202 -2.57233 0
M  V30 1008 H 90.8683 -1.82791 -1.81508 0
M  V30 1009 H 90.8263 -0.645922 -3.07693 0
M  V30 1010 N 94.5984 0.214957 -1.56127 0
M  V30 1011 C 95.8284 0.953707 -1.8327 0
M  V30 1012 C 96.2364 1.78181 -0.636262 0
M  V30 1013 O 95.5794 1.79191 0.404516 0
M  V30 1014 C 95.6414 1.91516 -3.0424 0
M  V30 1015 C 95.3054 1.27094 -4.38972 0
M  V30 1016 C 96.3024 0.657575 -5.15725 0
M  V30 1017 C 93.9874 1.28073 -4.85698 0
M  V30 1018 C 95.9814 0.0625968 -6.37369 0
M  V30 1019 C 93.6684 0.681914 -6.07283 0
M  V30 1020 C 94.6664 0.0739046 -6.8296 0
M  V30 1021 O 94.3544 -0.515582 -8.02245 0
M  V30 1022 H 94.0864 0.284764 -0.613095 0
M  V30 1023 H 96.6404 0.233283 -2.04071 0
M  V30 1024 H 94.8704 2.67475 -2.79274 0
M  V30 1025 H 96.5594 2.52001 -3.18198 0
M  V30 1026 H 97.3254 0.642288 -4.80728 0
M  V30 1027 H 93.2044 1.74337 -4.26764 0
M  V30 1028 H 96.7484 -0.412593 -6.96379 0
M  V30 1029 H 92.6454 0.694636 -6.41752 0
M  V30 1030 H 93.4134 -0.410544 -8.1747 0
M  V30 1031 N 96.0765 1.50051 0.48192 0
M  V30 1032 C 97.4925 1.37237 0.814756 0
M  V30 1033 C 97.6925 0.420109 1.97072 0
M  V30 1034 O 96.7485 -0.141246 2.52105 0
M  V30 1035 C 98.0615 2.78375 1.13701 0
M  V30 1036 C 99.6095 2.87213 1.2441 0
M  V30 1037 C 100.084 4.29161 1.59954 0
M  V30 1038 N 101.575 4.32061 1.66967 0
M  V30 1039 C 102.31 5.38879 1.95952 0
M  V30 1040 N 101.806 6.55918 2.23031 0
M  V30 1041 N 103.599 5.26312 1.97363 0
M  V30 1042 H 95.7505 2.10546 -0.28005 0
M  V30 1043 H 98.0135 0.945921 -0.0627454 0
M  V30 1044 H 97.7195 3.49845 0.360787 0
M  V30 1045 H 97.5935 3.14941 2.07586 0
M  V30 1046 H 99.9805 2.15969 2.01101 0
M  V30 1047 H 100.061 2.54204 0.285299 0
M  V30 1048 H 99.7055 5.00938 0.838067 0
M  V30 1049 H 99.6355 4.59648 2.56966 0
M  V30 1050 H 102.126 3.47661 1.48123 0
M  V30 1051 H 102.439 7.33139 2.44391 0
M  V30 1052 H 100.784 6.59112 2.20447 0
M  V30 1053 H 103.975 4.33876 1.75697 0
M  V30 1054 H 104.148 6.09649 2.19618 0
M  V30 1055 N 97.5546 -0.734337 1.39446 0
M  V30 1056 C 98.4846 -1.86155 1.40955 0
M  V30 1057 C 99.4656 -1.67898 0.272827 0
M  V30 1058 O 100.651 -1.88207 0.478743 0
M  V30 1059 C 97.7806 -3.23912 1.25294 0
M  V30 1060 C 96.7346 -3.56808 2.36373 0
M  V30 1061 C 96.0606 -4.93508 2.058 0
M  V30 1062 C 97.3606 -3.59713 3.78687 0
M  V30 1063 H 99.0546 -1.8515 2.35287 0
M  V30 1064 H 96.6006 -0.889367 1.13253 0
M  V30 1065 H 98.5536 -4.02443 1.2497 0
M  V30 1066 H 97.2776 -3.25446 0.274308 0
M  V30 1067 H 95.9366 -2.80606 2.35914 0
M  V30 1068 H 95.5846 -4.91623 1.06374 0
M  V30 1069 H 95.2846 -5.16486 2.80208 0
M  V30 1070 H 96.8086 -5.74396 2.07128 0
M  V30 1071 H 98.2226 -4.2832 3.81071 0
M  V30 1072 H 96.6196 -3.94209 4.52459 0
M  V30 1073 H 97.6896 -2.59504 4.09617 0
M  V30 1074 N 99.0327 -1.24633 -0.964593 0
M  V30 1075 C 100.279 -1.09957 -1.71117 0
M  V30 1076 C 100.634 0.357422 -1.89051 0
M  V30 1077 O 99.9267 1.26029 -1.44317 0
M  V30 1078 C 100.121 -1.7763 -3.10133 0
M  V30 1079 C 99.9497 -3.29759 -3.05759 0
M  V30 1080 C 98.7197 -3.98981 -3.10068 0
M  V30 1081 C 100.918 -4.26305 -2.87695 0
M  V30 1082 N 98.8997 -5.37966 -2.95747 0
M  V30 1083 C 100.271 -5.52308 -2.81702 0
M  V30 1084 C 102.326 -4.16842 -2.72299 0
M  V30 1085 C 101.029 -6.69931 -2.61887 0
M  V30 1086 C 103.055 -5.34147 -2.53853 0
M  V30 1087 C 102.417 -6.59084 -2.48572 0
M  V30 1088 H 98.5157 -0.457003 -0.634564 0
M  V30 1089 H 101.1 -1.57592 -1.14337 0
M  V30 1090 H 99.2707 -1.32504 -3.65099 0
M  V30 1091 H 101.003 -1.55786 -3.73514 0
M  V30 1092 H 97.7577 -3.50169 -3.18871 0
M  V30 1093 H 98.1817 -6.10877 -2.91818 0
M  V30 1094 H 102.824 -3.21007 -2.75163 0
M  V30 1095 H 100.542 -7.65886 -2.57767 0
M  V30 1096 H 104.128 -5.28678 -2.4288 0
M  V30 1097 H 103.008 -7.48324 -2.34481 0
M  V30 1098 N 100.511 1.16574 -1.06058 0
M  V30 1099 C 101.757 1.87324 -0.777022 0
M  V30 1100 C 102.09 1.81351 0.694645 0
M  V30 1101 O 101.365 1.22753 1.50871 0
M  V30 1102 C 101.648 3.36991 -1.26922 0
M  V30 1103 C 101.501 3.51667 -2.80447 0
M  V30 1104 C 102.82 4.3131 -0.87521 0
M  V30 1105 H 99.9388 0.680191 -0.28374 0
M  V30 1106 H 102.581 1.37036 -1.3161 0
M  V30 1107 H 100.731 3.79949 -0.81063 0
M  V30 1108 H 102.403 3.17664 -3.34495 0
M  V30 1109 H 100.646 2.93656 -3.19294 0
M  V30 1110 H 101.317 4.56766 -3.0995 0
M  V30 1111 H 103.793 3.9624 -1.27014 0
M  V30 1112 H 102.669 5.34545 -1.2471 0
M  V30 1113 H 102.93 4.41552 0.220071 0
M  V30 1114 N 101.989 0.842826 1.3317 0
M  V30 1115 C 103.214 0.453129 2.02389 0
M  V30 1116 C 103.639 -0.939105 1.6298 0
M  V30 1117 O 102.997 -1.61472 0.8244 0
M  V30 1118 C 103.045 0.586094 3.55805 0
M  V30 1119 O 102.149 -0.386029 4.10589 0
M  V30 1120 H 101.49 0.183664 0.638094 0
M  V30 1121 H 104.02 1.13875 1.69981 0
M  V30 1122 H 104.03 0.469209 4.05293 0
M  V30 1123 H 102.705 1.6014 3.83833 0
M  V30 1124 H 101.282 -0.226371 3.72212 0
M  V30 1125 N 103.467 -1.45747 0.599634 0
M  V30 1126 C 104.377 -2.34262 -0.125888 0
M  V30 1127 C 105.393 -1.50768 -0.868625 0
M  V30 1128 O 106.569 -1.83592 -0.828003 0
M  V30 1129 C 103.634 -3.28252 -1.11587 0
M  V30 1130 C 102.695 -4.27651 -0.375956 0
M  V30 1131 C 101.928 -5.1715 -1.31877 0
M  V30 1132 O 102.151 -5.09916 -2.55621 0
M  V30 1133 O 101.085 -5.96286 -0.820157 0
M  V30 1134 H 104.911 -2.97688 0.601315 0
M  V30 1135 H 102.496 -1.44999 0.359934 0
M  V30 1136 H 104.378 -3.86191 -1.68626 0
M  V30 1137 H 103.053 -2.67401 -1.82424 0
M  V30 1138 H 101.96 -3.7335 0.236698 0
M  V30 1139 H 103.293 -4.91334 0.29177 0
M  V30 1140 N 104.945 -0.338344 -1.53925 0
M  V30 1141 C 106.356 0.146651 -1.86123 0
M  V30 1142 C 106.707 1.5042 -1.2597 0
M  V30 1143 O 105.832 2.08723 -0.571294 0
M  V30 1144 C 106.427 0.272879 -3.37699 0
M  V30 1145 C 104.986 0.702103 -3.69794 0
M  V30 1146 C 104.133 -0.167304 -2.76795 0
M  V30 1147 H 107.084 -0.558123 -1.48562 0
M  V30 1148 H 107.105 1.10128 -3.64214 0
M  V30 1149 H 106.617 -0.715307 -3.81451 0
M  V30 1150 H 104.718 1.6995 -3.31584 0
M  V30 1151 H 104.831 0.495604 -4.7653 0
M  V30 1152 H 103.195 0.359527 -2.5215 0
M  V30 1153 H 103.978 -1.15253 -3.23375 0
M  V30 1154 N 106.423 1.57458 -0.0668435 0
M  V30 1155 C 107.834 1.80776 0.466558 0
M  V30 1156 C 108.185 0.980361 1.69951 0
M  V30 1157 O 107.31 0.201441 2.1546 0
M  V30 1158 C 107.905 3.27881 0.85321 0
M  V30 1159 C 106.464 3.52062 1.3315 0
M  V30 1160 C 105.611 2.75513 0.314264 0
M  V30 1161 H 108.562 1.5598 -0.292588 0
M  V30 1162 H 108.583 3.39659 1.715 0
M  V30 1163 H 108.095 3.88075 -0.0443439 0
M  V30 1164 H 106.196 2.97167 2.24772 0
M  V30 1165 H 106.309 4.60762 1.31285 0
M  V30 1166 H 104.673 2.42123 0.790492 0
M  V30 1167 H 105.456 3.38442 -0.575477 0
M  V30 1168 N 107.901 -0.206675 1.56239 0
M  V30 1169 C 108.831 -1.25909 1.96645 0
M  V30 1170 C 109.812 -1.48097 0.836734 0
M  V30 1171 O 110.997 -1.6003 1.10019 0
M  V30 1172 C 108.127 -2.6058 2.29599 0
M  V30 1173 C 107.081 -2.53024 3.452 0
M  V30 1174 C 106.407 -3.91861 3.63798 0
M  V30 1175 C 107.707 -2.06524 4.79734 0
M  V30 1176 H 109.401 -0.923369 2.84806 0
M  V30 1177 H 106.947 -0.442735 1.37025 0
M  V30 1178 H 108.9 -3.34375 2.56459 0
M  V30 1179 H 107.624 -2.95869 1.38307 0
M  V30 1180 H 106.283 -1.81684 3.18412 0
M  V30 1181 H 105.931 -4.24483 2.69857 0
M  V30 1182 H 105.631 -3.87683 4.4156 0
M  V30 1183 H 107.155 -4.67296 3.93022 0
M  V30 1184 H 108.569 -2.70072 5.05702 0
M  V30 1185 H 106.966 -2.13374 5.60885 0
M  V30 1186 H 108.036 -1.01802 4.74093 0
M  V30 1187 N 109.379 -1.50304 -0.473955 0
M  V30 1188 C 110.79 -1.54042 -1.0549 0
M  V30 1189 C 111.141 -0.342248 -1.93192 0
M  V30 1190 O 110.266 0.545157 -2.09421 0
M  V30 1191 C 110.861 -2.79152 -1.91989 0
M  V30 1192 C 109.42 -2.8558 -2.45196 0
M  V30 1193 C 108.567 -2.48295 -1.2347 0
M  V30 1194 H 111.518 -1.5661 -0.256693 0
M  V30 1195 H 111.539 -2.60845 -2.7702 0
M  V30 1196 H 111.051 -3.66339 -1.28131 0
M  V30 1197 H 109.152 -2.02738 -3.12615 0
M  V30 1198 H 109.265 -3.88403 -2.80499 0
M  V30 1199 H 107.629 -2.00669 -1.56856 0
M  V30 1200 H 108.412 -3.37787 -0.612789 0
M  V30 1201 N 110.857 0.726932 -1.39834 0
M  V30 1202 C 112.134 1.47902 -1.28001 0
M  V30 1203 C 112.514 2.1083 0.106789 0
M  V30 1204 O 111.862 1.99242 1.11869 0
M  V30 1205 C 112.072 2.52392 -2.41038 0
M  V30 1206 C 113.42 3.18546 -2.80737 0
M  V30 1207 O 114.444 2.62708 -2.40547 0
M  V30 1208 O 113.303 4.19604 -3.50135 0
M  V30 1209 H 110.397 0.657163 -0.502062 0
M  V30 1210 H 112.943 0.760071 -1.51727 0
M  V30 1211 H 111.715 2.04329 -3.33715 0
M  V30 1212 H 111.338 3.31837 -2.19021 0
M  V30 1213 N 112.336 1.25143 0.95797 0
M  V30 1214 C 113.561 1.12521 1.74223 0
M  V30 1215 C 113.986 -0.317402 1.85403 0
M  V30 1216 O 113.344 -1.2299 1.33204 0
M  V30 1217 C 113.392 1.78062 3.1357 0
M  V30 1218 O 112.496 1.058 3.98598 0
M  V30 1219 H 111.837 0.39304 0.535178 0
M  V30 1220 H 114.367 1.65641 1.201 0
M  V30 1221 H 114.377 1.84213 3.64046 0
M  V30 1222 H 113.052 2.83021 3.04749 0
M  V30 1223 H 111.629 1.07506 3.57067 0
M  V30 1224 N 113.814 -1.1601 1.06675 0
M  V30 1225 C 115.06 -1.86909 0.786945 0
M  V30 1226 C 115.393 -1.81717 -0.685018 0
M  V30 1227 O 114.668 -1.23551 -1.50218 0
M  V30 1228 C 114.951 -3.36313 1.28707 0
M  V30 1229 C 114.804 -3.50175 2.82308 0
M  V30 1230 C 116.123 -4.3084 0.898071 0
M  V30 1231 H 113.242 -0.678677 0.287343 0
M  V30 1232 H 115.884 -1.36336 1.32334 0
M  V30 1233 H 114.034 -3.79513 0.830768 0
M  V30 1234 H 115.706 -3.15886 3.36175 0
M  V30 1235 H 113.949 -2.91959 3.20847 0
M  V30 1236 H 114.62 -4.55116 3.12368 0
M  V30 1237 H 117.096 -3.95561 1.29114 0
M  V30 1238 H 115.972 -5.33876 1.27543 0
M  V30 1239 H 116.233 -4.41662 -0.196651 0
M  V30 1240 N 115.292 -0.849877 -1.32721 0
M  V30 1241 C 116.541 -0.447175 -1.96681 0
M  V30 1242 C 116.854 1.00135 -1.68025 0
M  V30 1243 O 118.06 1.50926 -2.25685 0
M  V30 1244 C 116.516 -0.7487 -3.52026 0
M  V30 1245 C 116.124 -2.21264 -3.89546 0
M  V30 1246 C 117.868 -0.413487 -4.22481 0
M  V30 1247 C 115.775 -2.45763 -5.37917 0
M  V30 1248 H 114.705 -0.163486 -0.736063 0
M  V30 1249 H 117.356 -1.03999 -1.51183 0
M  V30 1250 H 115.738 -0.0853727 -3.95908 0
M  V30 1251 H 116.912 -2.91736 -3.56689 0
M  V30 1252 H 115.227 -2.5119 -3.32103 0
M  V30 1253 H 117.824 -0.574017 -5.3161 0
M  V30 1254 H 118.167 0.644492 -4.11281 0
M  V30 1255 H 118.7 -1.03251 -3.84167 0
M  V30 1256 H 115.439 -3.50168 -5.54132 0
M  V30 1257 H 114.959 -1.79864 -5.72197 0
M  V30 1258 H 116.638 -2.29471 -6.0494 0
M  V30 1259 N 116.77 1.45427 -0.607355 0
M  V30 1260 C 118.047 1.9557 -0.0344566 0
M  V30 1261 C 118.427 1.54979 1.43334 0
M  V30 1262 O 117.775 0.812241 2.13576 0
M  V30 1263 C 117.985 3.48226 -0.232321 0
M  V30 1264 C 119.333 4.2445 -0.113001 0
M  V30 1265 O 120.357 3.55829 -0.162431 0
M  V30 1266 O 119.216 5.465 0.00209442 0
M  V30 1267 H 116.31 0.826222 0.0358667 0
M  V30 1268 H 118.856 1.55594 -0.6774 0
M  V30 1269 H 117.628 3.70739 -1.25174 0
M  V30 1270 H 117.251 3.95092 0.445896 0
M  V30 1271 N 118.248 0.346503 1.53744 0
M  V30 1272 C 119.494 -0.249473 2.0126 0
M  V30 1273 C 119.827 -1.49965 1.23386 0
M  V30 1274 O 119.102 -1.91811 0.32229 0
M  V30 1275 C 119.385 -0.560643 3.55709 0
M  V30 1276 C 119.238 0.701836 4.44291 0
M  V30 1277 C 120.557 -1.36905 4.18264 0
M  V30 1278 H 117.676 -0.0891987 0.731582 0
M  V30 1279 H 120.318 0.467624 1.84156 0
M  V30 1280 H 118.468 -1.17156 3.70414 0
M  V30 1281 H 120.14 1.33974 4.41417 0
M  V30 1282 H 118.383 1.32612 4.13033 0
M  V30 1283 H 119.054 0.43933 5.50249 0
M  V30 1284 H 121.53 -0.852448 4.07275 0
M  V30 1285 H 120.406 -1.55553 5.26398 0
M  V30 1286 H 120.667 -2.37203 3.73078 0
M  V30 1287 N 119.726 -1.57421 0.075193 0
M  V30 1288 C 120.974 -1.93236 -0.591974 0
M  V30 1289 C 121.295 -0.956241 -1.69944 0
M  V30 1290 O 120.565 -0.00494792 -1.95899 0
M  V30 1291 H 119.145 -0.713355 -0.22166 0
M  V30 1292 H 121.807 -1.9444 0.133848 0
M  V30 1293 H 120.903 -2.95131 -1.01509 0
M  V30 1294 N 121.204 0.198386 -1.56346 0
M  V30 1295 C 122.134 1.24865 -1.9731 0
M  V30 1296 C 123.115 1.47651 -0.844576 0
M  V30 1297 O 124.3 1.59444 -1.10866 0
M  V30 1298 C 121.43 2.59358 -2.30977 0
M  V30 1299 C 120.384 2.5119 -3.46537 0
M  V30 1300 C 119.71 3.89926 -3.65871 0
M  V30 1301 C 121.01 2.03977 -4.80823 0
M  V30 1302 H 122.704 0.908252 -2.85291 0
M  V30 1303 H 120.25 0.435462 -1.37258 0
M  V30 1304 H 122.203 3.33011 -2.58228 0
M  V30 1305 H 120.927 2.95132 -1.39874 0
M  V30 1306 H 119.586 1.79993 -3.19371 0
M  V30 1307 H 119.234 4.23046 -2.72105 0
M  V30 1308 H 118.934 3.85336 -4.4361 0
M  V30 1309 H 120.458 4.65205 -3.95495 0
M  V30 1310 H 121.872 2.67386 -5.07127 0
M  V30 1311 H 120.269 2.10397 -5.62008 0
M  V30 1312 H 121.339 0.992861 -4.74626 0
M  V30 1313 N 122.682 1.50554 0.465978 0
M  V30 1314 C 124.098 1.38093 0.800154 0
M  V30 1315 C 124.298 0.440988 1.96615 0
M  V30 1316 O 123.354 -0.114499 2.5224 0
M  V30 1317 C 124.667 2.79565 1.10742 0
M  V30 1318 C 126.215 2.88516 1.21357 0
M  V30 1319 C 126.69 4.30833 1.55393 0
M  V30 1320 N 128.181 4.33807 1.62375 0
M  V30 1321 C 128.916 5.40927 1.90225 0
M  V30 1322 N 128.412 6.58247 2.16062 0
M  V30 1323 N 130.205 5.28376 1.9177 0
M  V30 1324 H 122.356 2.10237 -0.302366 0
M  V30 1325 H 124.619 0.945203 -0.0727746 0
M  V30 1326 H 124.325 3.50208 0.323661 0
M  V30 1327 H 124.199 3.17125 2.04234 0
M  V30 1328 H 126.586 2.1809 1.98799 0
M  V30 1329 H 126.667 2.54492 0.258321 0
M  V30 1330 H 126.311 5.01799 0.784889 0
M  V30 1331 H 126.241 4.62347 2.52076 0
M  V30 1332 H 128.732 3.49212 1.44427 0
M  V30 1333 H 129.045 7.3569 2.36601 0
M  V30 1334 H 127.39 6.61413 2.13444 0
M  V30 1335 H 130.581 4.35715 1.71085 0
M  V30 1336 H 130.754 6.11944 2.13139 0
M  V30 1337 N 124.16 -0.719506 1.40217 0
M  V30 1338 C 125.388 -1.50864 1.41589 0
M  V30 1339 C 125.803 -1.88794 0.0145275 0
M  V30 1340 O 125.16 -1.55174 -0.960594 0
M  V30 1341 C 125.211 -2.78646 2.30302 0
M  V30 1342 O 124.932 -2.42321 3.64983 0
M  V30 1343 C 126.433 -3.72569 2.40224 0
M  V30 1344 H 123.653 -0.465709 0.48307 0
M  V30 1345 H 126.197 -0.88785 1.84221 0
M  V30 1346 H 124.352 -3.37019 1.91042 0
M  V30 1347 H 124.766 -3.24514 4.12057 0
M  V30 1348 H 126.24 -4.5908 3.06512 0
M  V30 1349 H 126.717 -4.15403 1.42608 0
M  V30 1350 H 127.323 -3.20109 2.80019 0
M  V30 1351 N 125.638 -1.25649 -0.95132 0
M  V30 1352 C 126.548 -1.08073 -2.08224 0
M  V30 1353 C 127.564 -0.0169666 -1.73992 0
M  V30 1354 O 128.74 -0.218593 -2.0021 0
M  V30 1355 C 125.805 -0.704922 -3.39458 0
M  V30 1356 C 124.866 -1.84699 -3.87537 0
M  V30 1357 C 124.099 -1.48902 -5.12508 0
M  V30 1358 O 124.322 -0.386156 -5.69091 0
M  V30 1359 O 123.256 -2.32033 -5.55378 0
M  V30 1360 H 127.082 -2.02924 -2.25954 0
M  V30 1361 H 124.667 -1.04618 -1.06656 0
M  V30 1362 H 126.549 -0.507609 -4.18332 0
M  V30 1363 H 125.224 0.214291 -3.2299 0
M  V30 1364 H 124.131 -2.09919 -3.09653 0
M  V30 1365 H 125.464 -2.74557 -4.08509 0
M  V30 1366 N 127.117 1.15442 -1.07289 0
M  V30 1367 C 128.528 1.67803 -0.818475 0
M  V30 1368 C 128.879 1.8489 0.656507 0
M  V30 1369 O 128.004 1.55176 1.50829 0
M  V30 1370 C 128.599 3.04805 -1.47917 0
M  V30 1371 C 127.158 3.54245 -1.27229 0
M  V30 1372 C 126.305 2.29986 -1.54925 0
M  V30 1373 H 129.256 0.996646 -1.23502 0
M  V30 1374 H 129.277 3.69702 -0.90005 0
M  V30 1375 H 128.789 2.92336 -2.55267 0
M  V30 1376 H 126.89 3.71956 -0.21899 0
M  V30 1377 H 127.003 4.35723 -1.99203 0
M  V30 1378 H 125.367 2.35496 -0.970242 0
M  V30 1379 H 126.15 2.20105 -2.63455 0
M  V30 1380 N 128.595 0.856903 1.32268 0
M  V30 1381 C 129.543 0.291987 2.3076 0
M  V30 1382 C 130.537 -0.585857 1.58947 0
M  V30 1383 O 131.743 -0.47341 1.73663 0
M  V30 1384 H 128.118 0.075721 0.748178 0
M  V30 1385 H 130.089 1.13687 2.75895 0
M  V30 1386 C 128.838 -0.502869 3.44044 0
M  V30 1387 H 128.161 0.163328 3.99466 0
M  V30 1388 H 129.601 -0.863691 4.1511 0
M  V30 1389 C 128.06 -1.68898 2.91505 0
M  V30 1390 O 128.59 -2.78811 2.89184 0
M  V30 1391 N 126.796 -1.51679 2.47875 0
M  V30 1392 H 126.343 -0.622666 2.49961 0
M  V30 1393 H 126.301 -2.31184 2.13076 0
M  V30 1394 N 130.073 -1.45103 0.615059 0
M  V30 1395 C 131.003 -2.33339 -0.0865619 0
M  V30 1396 C 131.984 -1.4727 -0.851209 0
M  V30 1397 O 133.169 -1.76026 -0.820281 0
M  V30 1398 C 130.299 -3.30095 -1.07956 0
M  V30 1399 C 129.253 -4.25858 -0.427628 0
M  V30 1400 C 128.579 -5.12361 -1.5294 0
M  V30 1401 C 129.879 -5.18165 0.655944 0
M  V30 1402 H 131.573 -2.92254 0.650224 0
M  V30 1403 H 129.119 -1.40532 0.314138 0
M  V30 1404 H 131.072 -3.90698 -1.57901 0
M  V30 1405 H 129.796 -2.69355 -1.84703 0
M  V30 1406 H 128.455 -3.66564 0.0510292 0
M  V30 1407 H 128.103 -4.47984 -2.28734 0
M  V30 1408 H 127.803 -5.77238 -1.09865 0
M  V30 1409 H 129.327 -5.75833 -2.03098 0
M  V30 1410 H 130.741 -5.72796 0.240257 0
M  V30 1411 H 129.138 -5.91559 1.00888 0
M  V30 1412 H 130.208 -4.60144 1.52957 0
M  V30 1413 N 131.551 -0.354651 -1.53558 0
M  V30 1414 C 132.461 0.50515 -2.29097 0
M  V30 1415 C 133.477 1.10223 -1.34636 0
M  V30 1416 O 134.653 1.11553 -1.67684 0
M  V30 1417 C 131.718 1.63479 -3.05738 0
M  V30 1418 C 130.779 1.06636 -4.15845 0
M  V30 1419 C 130.012 2.14217 -4.88822 0
M  V30 1420 O 130.235 3.35137 -4.61562 0
M  V30 1421 O 129.169 1.77887 -5.75013 0
M  V30 1422 H 132.995 -0.109237 -3.03503 0
M  V30 1423 H 130.58 -0.119357 -1.48922 0
M  V30 1424 H 132.462 2.2918 -3.5363 0
M  V30 1425 H 131.137 2.23478 -2.34178 0
M  V30 1426 H 130.044 0.373565 -3.7223 0
M  V30 1427 H 131.377 0.511081 -4.89539 0
M  V30 1428 N 133.029 1.57378 -0.0835403 0
M  V30 1429 C 133.959 2.1641 0.87686 0
M  V30 1430 C 134.94 1.09429 1.30228 0
M  V30 1431 O 136.125 1.37516 1.37124 0
M  V30 1432 C 133.255 2.73517 2.14022 0
M  V30 1433 C 132.209 3.85769 1.85381 0
M  V30 1434 C 131.535 4.29529 3.18448 0
M  V30 1435 C 132.835 5.09486 1.14984 0
M  V30 1436 H 134.529 2.96914 0.385059 0
M  V30 1437 H 132.075 1.42823 0.18377 0
M  V30 1438 H 134.028 3.13463 2.81636 0
M  V30 1439 H 132.752 1.90252 2.65465 0
M  V30 1440 H 131.411 3.46345 1.20169 0
M  V30 1441 H 131.059 3.43169 3.67755 0
M  V30 1442 H 130.759 5.05204 3.00071 0
M  V30 1443 H 132.283 4.72099 3.8724 0
M  V30 1444 H 133.697 5.46674 1.72687 0
M  V30 1445 H 132.094 5.90515 1.06826 0
M  V30 1446 H 133.164 4.84724 0.130749 0
M  V30 1447 N 134.507 -0.190092 1.56449 0
M  V30 1448 C 135.437 -1.23816 1.97969 0
M  V30 1449 C 136.418 -1.47201 0.852395 0
M  V30 1450 O 137.603 -1.58854 1.1171 0
M  V30 1451 C 134.733 -2.5813 2.3235 0
M  V30 1452 C 133.687 -2.49348 3.47864 0
M  V30 1453 C 133.013 -3.8798 3.67934 0
M  V30 1454 C 134.313 -2.01424 4.81898 0
M  V30 1455 H 136.007 -0.89311 2.85769 0
M  V30 1456 H 133.553 -0.428177 1.37487 0
M  V30 1457 H 135.506 -3.31637 2.59991 0
M  V30 1458 H 134.23 -2.94386 1.41438 0
M  V30 1459 H 132.889 -1.78297 3.20321 0
M  V30 1460 H 132.537 -4.21597 2.74344 0
M  V30 1461 H 132.237 -3.82978 4.45648 0
M  V30 1462 H 133.761 -4.63101 3.97957 0
M  V30 1463 H 135.175 -2.64693 5.08538 0
M  V30 1464 H 133.572 -2.07413 5.63116 0
M  V30 1465 H 134.642 -0.967677 4.75146 0
M  V30 1466 N 135.985 -1.50799 -0.457987 0
M  V30 1467 C 137.213 -1.66218 -1.23203 0
M  V30 1468 C 137.628 -0.350894 -1.85511 0
M  V30 1469 O 136.985 0.668546 -1.69814 0
M  V30 1470 C 137.036 -2.76291 -2.33121 0
M  V30 1471 O 136.757 -4.02338 -1.73366 0
M  V30 1472 C 138.258 -3.028 -3.2377 0
M  V30 1473 H 135.478 -0.558361 -0.372121 0
M  V30 1474 H 138.022 -1.97099 -0.545179 0
M  V30 1475 H 136.177 -2.48068 -2.97558 0
M  V30 1476 H 136.591 -4.63312 -2.4585 0
M  V30 1477 H 138.065 -3.8345 -3.97077 0
M  V30 1478 H 138.542 -2.14385 -3.83322 0
M  V30 1479 H 139.148 -3.32604 -2.65056 0
M  V30 1480 N 137.463 0.71206 -1.40597 0
M  V30 1481 C 138.373 1.8562 -1.43466 0
M  V30 1482 C 139.389 1.70902 -0.326902 0
M  V30 1483 O 140.565 1.93105 -0.572043 0
M  V30 1484 C 137.63 3.21451 -1.29884 0
M  V30 1485 C 136.691 3.48398 -2.50833 0
M  V30 1486 C 135.924 4.77749 -2.3789 0
M  V30 1487 O 136.147 5.53089 -1.39459 0
M  V30 1488 O 135.081 5.05111 -3.27333 0
M  V30 1489 H 138.907 1.86155 -2.39958 0
M  V30 1490 H 136.492 0.86295 -1.21957 0
M  V30 1491 H 138.374 4.02579 -1.24531 0
M  V30 1492 H 137.049 3.21636 -0.364997 0
M  V30 1493 H 135.956 2.67265 -2.61763 0
M  V30 1494 H 137.289 3.53014 -3.4299 0
M  V30 1495 N 138.941 1.26152 0.944643 0
M  V30 1496 C 139.874 1.01729 2.04271 0
M  V30 1497 C 140.852 -0.0568101 1.62501 0
M  V30 1498 O 142.036 0.0848987 1.88309 0
M  V30 1499 C 139.163 0.539792 3.34371 0
M  V30 1500 C 138.209 1.60593 3.9511 0
M  V30 1501 S 139.042 3.19392 4.29825 0
M  V30 1502 C 140.198 2.73402 5.63029 0
M  V30 1503 H 140.431 1.94703 2.24673 0
M  V30 1504 H 137.964 1.09793 1.08558 0
M  V30 1505 H 139.922 0.270956 4.09605 0
M  V30 1506 H 138.583 -0.369609 3.11918 0
M  V30 1507 H 137.776 1.22275 4.88943 0
M  V30 1508 H 137.378 1.82596 3.26397 0
M  V30 1509 H 139.67 2.1765 6.41588 0
M  V30 1510 H 140.613 3.65913 6.06229 0
M  V30 1511 H 141.021 2.13077 5.22741 0
M  V30 1512 N 140.419 -1.14872 1.07899 0
M  V30 1513 C 141.366 -2.19791 0.704319 0
M  V30 1514 C 142.336 -1.63238 -0.306987 0
M  V30 1515 O 143.521 -1.8983 -0.192171 0
M  V30 1516 C 140.661 -3.44911 0.114244 0
M  V30 1517 C 139.774 -4.15637 1.1777 0
M  V30 1518 C 138.909 -5.28324 0.552037 0
M  V30 1519 C 137.948 -5.90875 1.59789 0
M  V30 1520 N 137.085 -6.95022 0.994404 0
M  V30 1521 H 141.925 -2.5119 1.60336 0
M  V30 1522 H 139.462 -1.23356 0.801352 0
M  V30 1523 H 141.42 -4.16477 -0.245544 0
M  V30 1524 H 140.05 -3.14011 -0.74813 0
M  V30 1525 H 139.102 -3.42512 1.65499 0
M  V30 1526 H 140.414 -4.5823 1.97046 0
M  V30 1527 H 139.568 -6.06538 0.1402 0
M  V30 1528 H 138.307 -4.86939 -0.272431 0
M  V30 1529 H 137.312 -5.11369 2.01945 0
M  V30 1530 H 138.537 -6.34337 2.42474 0
M  V30 1531 H 136.483 -6.55722 0.190939 0
M  V30 1532 H 136.4 -7.36073 1.72432 0
M  V30 1533 H 137.668 -7.77123 0.608253 0
M  V30 1534 N 141.898 -0.863906 -1.31812 0
M  V30 1535 C 143.309 -0.52522 -1.7916 0
M  V30 1536 C 143.66 0.957518 -1.71248 0
M  V30 1537 O 142.785 1.74734 -1.27659 0
M  V30 1538 C 143.38 -0.9466 -3.25307 0
M  V30 1539 C 141.939 -0.659668 -3.70574 0
M  V30 1540 C 141.086 -1.14126 -2.52726 0
M  V30 1541 H 144.037 -1.05022 -1.1898 0
M  V30 1542 H 144.058 -0.266766 -3.79564 0
M  V30 1543 H 143.57 -2.02579 -3.31034 0
M  V30 1544 H 141.671 0.408416 -3.70355 0
M  V30 1545 H 141.784 -1.23245 -4.62977 0
M  V30 1546 H 140.148 -0.561216 -2.4844 0
M  V30 1547 H 140.931 -2.22775 -2.61201 0
M  V30 1548 N 143.376 1.44774 -0.622745 0
M  V30 1549 C 144.601 2.06999 -0.128968 0
M  V30 1550 C 145.026 1.4617 1.1839 0
M  V30 1551 O 144.384 0.560007 1.72434 0
M  V30 1552 C 144.432 3.60595 -0.0188351 0
M  V30 1553 O 143.536 3.99398 1.02739 0
M  V30 1554 H 142.877 0.659047 -0.0809544 0
M  V30 1555 H 145.407 1.85784 -0.85705 0
M  V30 1556 H 145.417 4.07627 0.174476 0
M  V30 1557 H 144.092 4.04252 -0.977384 0
M  V30 1558 H 142.669 3.64011 0.809326 0
M  V30 1559 N 144.854 0.36279 1.53368 0
M  V30 1560 C 146.101 -0.227776 2.01215 0
M  V30 1561 C 146.429 -1.49003 1.25014 0
M  V30 1562 O 145.684 -1.92876 0.331236 0
M  V30 1563 C 145.983 -0.568417 3.52851 0
M  V30 1564 C 145.649 0.59918 4.46901 0
M  V30 1565 C 144.311 0.919559 4.72332 0
M  V30 1566 C 146.663 1.38156 5.02556 0
M  V30 1567 C 143.991 2.02434 5.5067 0
M  V30 1568 C 146.343 2.47674 5.821 0
M  V30 1569 C 145.007 2.8025 6.05819 0
M  V30 1570 H 144.277 -0.083349 0.736297 0
M  V30 1571 H 146.924 0.494677 1.85001 0
M  V30 1572 H 145.229 -1.37185 3.66998 0
M  V30 1573 H 146.926 -1.03756 3.87344 0
M  V30 1574 H 143.516 0.339437 4.27254 0
M  V30 1575 H 147.7 1.14729 4.82857 0
M  V30 1576 H 142.956 2.28075 5.67267 0
M  V30 1577 H 147.13 3.08716 6.24234 0
M  V30 1578 H 144.757 3.65979 6.66306 0
M  V30 1579 N 146.332 -1.57332 0.0918853 0
M  V30 1580 C 147.265 -2.09499 -0.904735 0
M  V30 1581 C 148.243 -1.00479 -1.27839 0
M  V30 1582 O 149.427 -1.27954 -1.38419 0
M  V30 1583 C 146.554 -2.56931 -2.2069 0
M  V30 1584 C 145.6 -3.77579 -1.98334 0
M  V30 1585 S 146.433 -5.21317 -1.22428 0
M  V30 1586 C 147.589 -5.72097 -2.53882 0
M  V30 1587 H 147.822 -2.93705 -0.460922 0
M  V30 1588 H 145.355 -1.53923 -0.121332 0
M  V30 1589 H 147.313 -2.84917 -2.95521 0
M  V30 1590 H 145.974 -1.72956 -2.62192 0
M  V30 1591 H 145.167 -4.08824 -2.94752 0
M  V30 1592 H 144.769 -3.5007 -1.31633 0
M  V30 1593 H 147.061 -5.80168 -3.49874 0
M  V30 1594 H 148.004 -6.70654 -2.27219 0
M  V30 1595 H 148.412 -5.00012 -2.62007 0
M  V30 1596 N 147.81 0.181792 -1.56548 0
M  V30 1597 C 149.056 0.901431 -1.81665 0
M  V30 1598 C 149.389 1.82347 -0.668075 0
M  V30 1599 O 148.664 1.91669 0.330615 0
M  V30 1600 C 148.947 1.70618 -3.17115 0
M  V30 1601 C 148.8 0.807964 -4.42484 0
M  V30 1602 C 150.119 2.67605 -3.49393 0
M  V30 1603 H 147.238 0.32627 -0.660846 0
M  V30 1604 H 149.88 0.168134 -1.89255 0
M  V30 1605 H 148.03 2.33133 -3.10775 0
M  V30 1606 H 149.702 0.19649 -4.60881 0
M  V30 1607 H 147.945 0.115411 -4.33646 0
M  V30 1608 H 148.616 1.40632 -5.33785 0
M  V30 1609 H 151.092 2.15218 -3.56118 0
M  V30 1610 H 149.968 3.20985 -4.45264 0
M  V30 1611 H 150.229 3.47298 -2.73563 0
M  V30 1612 N 149.288 1.51039 0.449983 0
M  V30 1613 C 150.534 1.64287 1.19923 0
M  V30 1614 C 150.889 0.348701 1.89214 0
M  V30 1615 O 150.182 -0.654751 1.80065 0
M  V30 1616 C 150.376 2.77556 2.25161 0
M  V30 1617 C 150.205 4.17862 1.66198 0
M  V30 1618 C 148.975 4.83976 1.45243 0
M  V30 1619 C 151.173 5.01388 1.14519 0
M  V30 1620 N 149.155 6.08433 0.817437 0
M  V30 1621 C 150.526 6.16743 0.634705 0
M  V30 1622 C 152.581 4.87008 1.03574 0
M  V30 1623 C 151.284 7.19295 0.0255452 0
M  V30 1624 C 153.31 5.89757 0.440489 0
M  V30 1625 C 152.672 7.04375 -0.0595112 0
M  V30 1626 H 148.771 0.655161 0.426952 0
M  V30 1627 H 151.355 1.88228 0.49781 0
M  V30 1628 H 149.526 2.553 2.92706 0
M  V30 1629 H 151.258 2.80049 2.92155 0
M  V30 1630 H 148.013 4.41627 1.71063 0
M  V30 1631 H 148.437 6.75017 0.517747 0
M  V30 1632 H 153.079 3.9866 1.4082 0
M  V30 1633 H 150.797 8.07302 -0.359071 0
M  V30 1634 H 154.383 5.80698 0.35788 0
M  V30 1635 H 153.263 7.82521 -0.512882 0
M  V30 1636 N 150.766 -0.704594 1.40972 0
M  V30 1637 C 151.991 -1.49858 1.43378 0
M  V30 1638 C 152.416 -1.88061 0.038184 0
M  V30 1639 O 151.774 -1.5402 -0.956425 0
M  V30 1640 C 151.822 -2.74333 2.34038 0
M  V30 1641 O 150.926 -3.7147 1.7912 0
M  V30 1642 H 150.267 -0.45139 0.486974 0
M  V30 1643 H 152.797 -0.866832 1.8533 0
M  V30 1644 H 152.807 -3.22741 2.49604 0
M  V30 1645 H 151.482 -2.45863 3.35446 0
M  V30 1646 H 150.059 -3.30363 1.72958 0
M  V30 1647 N 152.244 -1.26651 -0.937939 0
M  V30 1648 C 153.207 -1.08546 -2.01867 0
M  V30 1649 C 154.207 -0.0327327 -1.60767 0
M  V30 1650 O 155.397 -0.276427 -1.71993 0
M  V30 1651 C 152.529 -0.651711 -3.34613 0
M  V30 1652 H 153.722 -2.04502 -2.1936 0
M  V30 1653 H 151.275 -1.09294 -1.11734 0
M  V30 1654 H 152.01 0.309696 -3.22818 0
M  V30 1655 H 151.795 -1.41189 -3.65798 0
M  V30 1656 H 153.285 -0.546973 -4.14002 0
M  V30 1657 N 153.722 1.14298 -1.08507 0
M  V30 1658 C 154.97 1.84993 -0.813763 0
M  V30 1659 C 155.291 1.83405 0.662393 0
M  V30 1660 O 154.561 1.28319 1.48024 0
M  V30 1661 H 153.141 0.684966 -0.298045 0
M  V30 1662 H 155.803 1.385 -1.37126 0
M  V30 1663 H 154.899 2.89788 -1.15884 0
M  V30 1664 N 155.201 0.870884 1.31352 0
M  V30 1665 C 156.431 0.496049 2.00557 0
M  V30 1666 C 156.839 -0.916241 1.65534 0
M  V30 1667 O 156.182 -1.61188 0.881134 0
M  V30 1668 C 156.244 0.574418 3.54881 0
M  V30 1669 C 155.908 1.94849 4.1338 0
M  V30 1670 C 156.905 2.91611 4.30417 0
M  V30 1671 C 154.59 2.25005 4.49086 0
M  V30 1672 C 156.584 4.16672 4.82352 0
M  V30 1673 C 154.271 3.50315 5.00722 0
M  V30 1674 C 155.269 4.45964 5.17306 0
M  V30 1675 O 154.957 5.69052 5.67833 0
M  V30 1676 H 154.689 0.191664 0.64826 0
M  V30 1677 H 157.243 1.17409 1.68536 0
M  V30 1678 H 155.473 -0.160549 3.86367 0
M  V30 1679 H 157.162 0.212879 4.05341 0
M  V30 1680 H 157.928 2.69622 4.03149 0
M  V30 1681 H 153.807 1.51332 4.35453 0
M  V30 1682 H 157.351 4.91336 4.95211 0
M  V30 1683 H 153.248 3.72147 5.27424 0
M  V30 1684 H 154.016 5.71236 5.86201 0
M  V30 1685 N 156.679 -1.44442 0.630414 0
M  V30 1686 C 157.927 -2.01653 0.134351 0
M  V30 1687 C 158.248 -1.49836 -1.24796 0
M  V30 1688 O 157.518 -0.701684 -1.82902 0
M  V30 1689 H 156.098 -0.74554 0.0466769 0
M  V30 1690 H 158.76 -1.76952 0.816955 0
M  V30 1691 H 157.856 -3.11935 0.101498 0
M  V30 1692 N 158.157 -0.370918 -1.53173 0
M  V30 1693 C 159.568 0.107139 -1.86392 0
M  V30 1694 C 159.919 1.47714 -1.29132 0
M  V30 1695 O 159.044 2.07464 -0.615439 0
M  V30 1696 C 159.639 0.201187 -3.38202 0
M  V30 1697 C 158.198 0.623507 -3.712 0
M  V30 1698 C 157.345 -0.225978 -2.76378 0
M  V30 1699 H 160.296 -0.58951 -1.47345 0
M  V30 1700 H 160.317 1.02377 -3.66468 0
M  V30 1701 H 159.829 -0.796058 -3.79848 0
M  V30 1702 H 157.93 1.62879 -3.35114 0
M  V30 1703 H 158.043 0.394414 -4.77474 0
M  V30 1704 H 156.407 0.305962 -2.52856 0
M  V30 1705 H 157.19 -1.22086 -3.20858 0
M  V30 1706 N 159.635 1.57281 -0.100228 0
M  V30 1707 C 160.86 1.99302 0.573881 0
M  V30 1708 C 161.285 0.979059 1.60611 0
M  V30 1709 O 160.643 -0.0517803 1.81226 0
M  V30 1710 C 160.691 3.40274 1.19358 0
M  V30 1711 O 159.795 3.41676 2.30935 0
M  V30 1712 H 159.136 0.647944 0.145138 0
M  V30 1713 H 161.666 2.03779 -0.183156 0
M  V30 1714 H 161.676 3.78078 1.53365 0
M  V30 1715 H 160.351 4.13594 0.437385 0
M  V30 1716 H 158.928 3.15672 1.98509 0
M  V30 1717 N 161.113 -0.173488 1.56642 0
M  V30 1718 C 162.524 -0.736155 1.71574 0
M  V30 1719 C 162.875 -1.82888 0.710389 0
M  V30 1720 O 162 -2.16017 -0.1287 0
M  V30 1721 C 162.595 -1.34211 3.11083 0
M  V30 1722 C 161.154 -1.85162 3.27707 0
M  V30 1723 C 160.301 -0.729765 2.67525 0
M  V30 1724 H 163.252 0.0518786 1.58615 0
M  V30 1725 H 163.273 -2.21178 3.09613 0
M  V30 1726 H 162.785 -0.546579 3.84232 0
M  V30 1727 H 160.886 -2.67366 2.59512 0
M  V30 1728 H 160.999 -1.99855 4.35425 0
M  V30 1729 H 159.363 -1.14965 2.27278 0
M  V30 1730 H 160.146 0.0538806 3.43258 0
M  V30 1731 N 162.591 -1.51276 -0.441967 0
M  V30 1732 C 163.501 -1.75092 -1.56141 0
M  V30 1733 C 164.517 -0.634963 -1.62001 0
M  V30 1734 O 165.693 -0.916686 -1.79329 0
M  V30 1735 C 162.758 -1.86666 -2.92158 0
M  V30 1736 C 161.819 -3.10506 -2.96453 0
M  V30 1737 C 161.052 -3.21519 -4.25982 0
M  V30 1738 O 161.275 -2.38586 -5.18105 0
M  V30 1739 O 160.209 -4.14465 -4.36466 0
M  V30 1740 H 164.035 -2.70044 -1.38961 0
M  V30 1741 H 161.62 -1.35722 -0.624499 0
M  V30 1742 H 163.502 -1.96292 -3.72891 0
M  V30 1743 H 162.177 -0.949014 -3.09476 0
M  V30 1744 H 161.084 -3.06363 -2.14692 0
M  V30 1745 H 162.417 -4.01945 -2.84079 0
M  V30 1746 N 164.069 0.697108 -1.41344 0
M  V30 1747 C 165.002 1.82134 -1.37486 0
M  V30 1748 C 165.98 1.60784 -0.242351 0
M  V30 1749 O 167.164 1.83553 -0.429012 0
M  V30 1750 C 164.291 3.18788 -1.14421 0
M  V30 1751 C 163.337 3.58932 -2.3037 0
M  V30 1752 S 164.17 3.63916 -3.92843 0
M  V30 1753 C 165.326 5.03298 -3.72078 0
M  V30 1754 H 165.559 1.85129 -2.32625 0
M  V30 1755 H 163.092 0.865671 -1.2785 0
M  V30 1756 H 165.05 3.97677 -1.018 0
M  V30 1757 H 163.711 3.13404 -0.20905 0
M  V30 1758 H 162.904 4.58202 -2.09922 0
M  V30 1759 H 162.506 2.87347 -2.39391 0
M  V30 1760 H 164.798 5.90753 -3.31688 0
M  V30 1761 H 165.741 5.28788 -4.70945 0
M  V30 1762 H 166.149 4.74764 -3.05384 0
M  V30 1763 N 165.547 1.27147 0.931209 0
M  V30 1764 C 166.477 1.12081 2.04842 0
M  V30 1765 C 167.458 0.0232364 1.70084 0
M  V30 1766 O 168.643 0.197085 1.93197 0
M  V30 1767 C 165.773 0.76354 3.38803 0
M  V30 1768 C 164.727 1.81396 3.87659 0
M  V30 1769 C 164.053 1.31075 5.18385 0
M  V30 1770 C 165.353 3.21739 4.11438 0
M  V30 1771 H 167.047 2.05537 2.17703 0
M  V30 1772 H 164.593 0.989603 1.04608 0
M  V30 1773 H 166.546 0.644982 4.16435 0
M  V30 1774 H 165.27 -0.206727 3.25945 0
M  V30 1775 H 163.929 1.92136 3.12217 0
M  V30 1776 H 163.577 0.330037 5.01916 0
M  V30 1777 H 163.277 2.013 5.52044 0
M  V30 1778 H 164.801 1.20506 5.98591 0
M  V30 1779 H 166.215 3.14019 4.79651 0
M  V30 1780 H 164.612 3.89644 4.56397 0
M  V30 1781 H 165.682 3.67054 3.16859 0
M  V30 1782 N 167.025 -1.13721 1.09112 0
M  V30 1783 C 167.988 -2.17222 0.731241 0
M  V30 1784 C 168.988 -1.59035 -0.237566 0
M  V30 1785 O 170.178 -1.74192 -0.0161704 0
M  V30 1786 C 167.31 -3.40804 0.0808443 0
M  V30 1787 H 168.503 -2.50573 1.64783 0
M  V30 1788 H 166.056 -1.28493 0.889897 0
M  V30 1789 H 166.791 -3.1304 -0.847127 0
M  V30 1790 H 166.576 -3.84306 0.777896 0
M  V30 1791 H 168.066 -4.1731 -0.155657 0
M  V30 1792 N 168.503 -0.877838 -1.30888 0
M  V30 1793 C 169.919 -0.570844 -1.49042 0
M  V30 1794 C 170.119 0.893159 -1.80624 0
M  V30 1795 O 169.175 1.67485 -1.88958 0
M  V30 1796 C 170.488 -1.47784 -2.61878 0
M  V30 1797 C 172.036 -1.48071 -2.75761 0
M  V30 1798 C 172.511 -2.37347 -3.91702 0
M  V30 1799 N 174.002 -2.35271 -3.99001 0
M  V30 1800 C 174.737 -3.01063 -4.88004 0
M  V30 1801 N 174.233 -3.76055 -5.81854 0
M  V30 1802 N 176.026 -2.90332 -4.81315 0
M  V30 1803 H 168.177 -1.82502 -1.0866 0
M  V30 1804 H 170.44 -0.780797 -0.537644 0
M  V30 1805 H 170.146 -2.51993 -2.45341 0
M  V30 1806 H 170.02 -1.18215 -3.58197 0
M  V30 1807 H 172.407 -0.446166 -2.91708 0
M  V30 1808 H 172.488 -1.81668 -1.80085 0
M  V30 1809 H 172.132 -3.40883 -3.76512 0
M  V30 1810 H 172.062 -2.01071 -4.86701 0
M  V30 1811 H 174.553 -1.80768 -3.3186 0
M  V30 1812 H 174.866 -4.23366 -6.46514 0
M  V30 1813 H 173.211 -3.80163 -5.81808 0
M  V30 1814 H 176.402 -2.31278 -4.06974 0
M  V30 1815 H 176.575 -3.41885 -5.50471 0
M  V30 1816 N 169.982 1.44106 -0.638065 0
M  V30 1817 C 171.231 2.01194 -0.142744 0
M  V30 1818 C 171.544 1.50835 1.24532 0
M  V30 1819 O 172.75 2.00096 1.83504 0
M  V30 1820 C 171.206 3.59319 -0.20442 0
M  V30 1821 C 170.814 4.18674 -1.59423 0
M  V30 1822 C 172.558 4.23854 0.234079 0
M  V30 1823 C 170.465 5.69045 -1.61065 0
M  V30 1824 H 169.395 0.752367 -0.0495998 0
M  V30 1825 H 172.046 1.65246 -0.797881 0
M  V30 1826 H 170.428 3.92598 0.517946 0
M  V30 1827 H 171.602 3.96921 -2.34074 0
M  V30 1828 H 169.917 3.66453 -1.97741 0
M  V30 1829 H 172.514 5.34155 0.241443 0
M  V30 1830 H 172.857 3.96688 1.2627 0
M  V30 1831 H 173.39 3.95403 -0.436025 0
M  V30 1832 H 170.129 6.00956 -2.61787 0
M  V30 1833 H 169.649 5.929 -0.90718 0
M  V30 1834 H 171.328 6.32809 -1.34766 0
M  V30 1835 N 171.46 0.379036 1.52974 0
M  V30 1836 C 172.423 -0.448865 2.24762 0
M  V30 1837 C 173.423 -0.998689 1.26027 0
M  V30 1838 O 174.613 -0.882313 1.50203 0
M  V30 1839 C 171.745 -1.62872 2.99476 0
M  V30 1840 H 172.938 0.179491 2.99362 0
M  V30 1841 H 170.491 0.13096 1.5575 0
M  V30 1842 H 171.226 -2.29479 2.29151 0
M  V30 1843 H 171.011 -1.24128 3.71934 0
M  V30 1844 H 172.501 -2.2151 3.5401 0
M  V30 1845 N 172.938 -1.57226 0.108567 0
M  V30 1846 C 174.349 -1.8195 -0.418464 0
M  V30 1847 C 174.7 -1.02508 -1.67292 0
M  V30 1848 O 173.825 -0.258496 -2.14851 0
M  V30 1849 C 174.42 -3.30028 -0.765979 0
M  V30 1850 C 172.979 -3.55469 -1.23769 0
M  V30 1851 C 172.126 -2.7625 -0.241106 0
M  V30 1852 H 175.077 -1.55149 0.33384 0
M  V30 1853 H 175.098 -3.44086 -1.62434 0
M  V30 1854 H 174.61 -3.87821 0.147219 0
M  V30 1855 H 172.711 -3.03022 -2.16814 0
M  V30 1856 H 172.824 -4.6408 -1.19022 0
M  V30 1857 H 171.188 -2.44133 -0.72602 0
M  V30 1858 H 171.971 -3.36797 0.665007 0
M  V30 1859 N 174.416 0.165178 -1.56732 0
M  V30 1860 C 175.664 0.879068 -1.8198 0
M  V30 1861 C 175.985 1.82514 -0.686561 0
M  V30 1862 O 175.255 1.93694 0.293146 0
M  V30 1863 H 173.835 0.327608 -0.671329 0
M  V30 1864 H 176.497 0.163526 -1.94213 0
M  V30 1865 H 175.593 1.45228 -2.76252 0
M  V30 1866 N 175.894 1.51508 0.433938 0
M  V30 1867 C 177.31 1.39759 0.770682 0
M  V30 1868 C 177.51 0.482594 1.95636 0
M  V30 1869 O 176.566 -0.0609691 2.52426 0
M  V30 1870 C 177.879 2.81851 1.04787 0
M  V30 1871 C 179.427 2.91025 1.1521 0
M  V30 1872 C 179.902 4.34032 1.46219 0
M  V30 1873 N 181.393 4.37154 1.53136 0
M  V30 1874 C 182.128 5.4484 1.78709 0
M  V30 1875 N 181.624 6.62682 2.02051 0
M  V30 1876 N 183.417 5.32324 1.80519 0
M  V30 1877 H 175.568 2.09548 -0.346892 0
M  V30 1878 H 177.831 0.943446 -0.0928074 0
M  V30 1879 H 177.537 3.50815 0.249304 0
M  V30 1880 H 177.411 3.21386 1.97461 0
M  V30 1881 H 179.798 2.22257 1.94128 0
M  V30 1882 H 179.879 2.54983 0.204281 0
M  V30 1883 H 179.523 5.03351 0.678274 0
M  V30 1884 H 179.453 4.6759 2.42212 0
M  V30 1885 H 181.944 3.52197 1.36987 0
M  V30 1886 H 182.257 7.40543 2.20943 0
M  V30 1887 H 180.602 6.65791 1.99366 0
M  V30 1888 H 183.793 4.39246 1.61805 0
M  V30 1889 H 183.966 6.16328 2.00111 0
M  V30 1890 N 177.372 -0.689602 1.41712 0
M  V30 1891 C 178.62 -1.4468 1.4111 0
M  V30 1892 C 178.941 -1.94986 0.0232196 0
M  V30 1893 O 178.211 -1.72097 -0.935913 0
M  V30 1894 H 176.791 -0.536847 0.519427 0
M  V30 1895 H 179.453 -0.815825 1.77004 0
M  V30 1896 H 178.549 -2.30706 2.10193 0
M  V30 1897 N 178.85 -1.27639 -0.924453 0
M  V30 1898 C 180.097 -1.14167 -1.67249 0
M  V30 1899 C 180.425 0.311863 -1.91984 0
M  V30 1900 O 179.68 1.24425 -1.51053 0
M  V30 1901 C 179.979 -1.87407 -3.04325 0
M  V30 1902 C 179.645 -3.37249 -2.99289 0
M  V30 1903 C 178.307 -3.7812 -2.97622 0
M  V30 1904 C 180.659 -4.32845 -2.90336 0
M  V30 1905 C 177.987 -5.12944 -2.8479 0
M  V30 1906 C 180.339 -5.6773 -2.79045 0
M  V30 1907 C 179.003 -6.07889 -2.7573 0
M  V30 1908 H 178.273 -0.417766 -0.612007 0
M  V30 1909 H 180.92 -1.58286 -1.07786 0
M  V30 1910 H 179.225 -1.35805 -3.67511 0
M  V30 1911 H 180.922 -1.74408 -3.61086 0
M  V30 1912 H 177.512 -3.04748 -3.01374 0
M  V30 1913 H 181.696 -4.02239 -2.90719 0
M  V30 1914 H 176.952 -5.432 -2.80612 0
M  V30 1915 H 181.126 -6.41472 -2.71083 0
M  V30 1916 H 178.753 -7.12314 -2.65544 0
M  V30 1917 N 180.328 1.1314 -1.09713 0
M  V30 1918 C 181.276 2.20717 -0.733934 0
M  V30 1919 C 182.27 1.6729 0.266506 0
M  V30 1920 O 183.476 1.79547 0.127656 0
M  V30 1921 H 179.851 0.719292 -0.21937 0
M  V30 1922 H 181.822 2.48611 -1.6503 0
M  V30 1923 C 180.571 3.47265 -0.173849 0
M  V30 1924 H 179.894 3.88716 -0.934873 0
M  V30 1925 H 181.334 4.23979 0.0423126 0
M  V30 1926 C 179.793 3.18724 1.09164 0
M  V30 1927 O 180.323 3.37762 2.17439 0
M  V30 1928 N 178.529 2.72583 1.00732 0
M  V30 1929 H 178.076 2.57291 0.126121 0
M  V30 1930 H 178.034 2.53862 1.85476 0
M  V30 1931 N 181.806 0.884767 1.30421 0
M  V30 1932 C 183.053 0.503105 1.96151 0
M  V30 1933 C 183.381 -0.947676 1.69851 0
M  V30 1934 O 182.636 -1.68467 0.995861 0
M  V30 1935 C 182.935 0.724318 3.49983 0
M  V30 1936 C 182.601 2.15015 3.96332 0
M  V30 1937 C 181.263 2.54005 4.08699 0
M  V30 1938 C 183.615 3.07936 4.20505 0
M  V30 1939 C 180.943 3.85128 4.42599 0
M  V30 1940 C 183.295 4.3859 4.55874 0
M  V30 1941 C 181.959 4.77474 4.66449 0
M  V30 1942 H 181.229 0.184099 0.717766 0
M  V30 1943 H 183.876 1.12058 1.55291 0
M  V30 1944 H 182.181 0.0238086 3.91793 0
M  V30 1945 H 183.878 0.408617 3.98913 0
M  V30 1946 H 180.468 1.8375 3.87213 0
M  V30 1947 H 184.652 2.79033 4.10431 0
M  V30 1948 H 179.908 4.14996 4.48986 0
M  V30 1949 H 184.082 5.10629 4.7353 0
M  V30 1950 H 181.709 5.79115 4.92473 0
M  V30 1951 N 183.284 -1.43765 0.645699 0
M  V30 1952 C 184.509 -2.06767 0.161883 0
M  V30 1953 C 184.934 -1.48034 -1.16049 0
M  V30 1954 O 184.292 -0.587369 -1.71522 0
M  V30 1955 C 184.34 -3.60519 0.0762003 0
M  V30 1956 O 183.444 -4.00982 -0.963721 0
M  V30 1957 H 182.785 -0.657675 0.091429 0
M  V30 1958 H 185.315 -1.84397 0.886499 0
M  V30 1959 H 185.325 -4.07853 -0.109604 0
M  V30 1960 H 184 -4.02646 1.04157 0
M  V30 1961 H 182.577 -3.65253 -0.751312 0
M  V30 1962 N 184.763 -0.387143 -1.52771 0
M  V30 1963 C 186.04 0.253197 -1.93954 0
M  V30 1964 C 186.42 1.64545 -1.32243 0
M  V30 1965 O 185.768 2.23191 -0.489699 0
M  V30 1966 C 185.978 0.281722 -3.47861 0
M  V30 1967 C 187.326 0.511715 -4.21505 0
M  V30 1968 O 188.35 0.362023 -3.54356 0
M  V30 1969 O 187.209 0.804847 -5.40541 0
M  V30 1970 H 184.303 0.156845 -0.811991 0
M  V30 1971 H 186.849 -0.441494 -1.63856 0
M  V30 1972 H 185.621 -0.693571 -3.85104 0
M  V30 1973 H 185.244 1.02142 -3.84256 0
M  V30 1974 N 186.241 1.57166 -0.116904 0
M  V30 1975 C 187.489 1.94737 0.540533 0
M  V30 1976 C 187.81 1.00096 1.67349 0
M  V30 1977 O 187.08 0.0568854 1.95817 0
M  V30 1978 H 185.66 0.718981 0.202669 0
M  V30 1979 H 188.322 1.94017 -0.185353 0
M  V30 1980 H 187.418 2.97719 0.936483 0
M  V30 1981 N 187.719 -0.156864 1.56817 0
M  V30 1982 C 188.666 -1.19394 1.97519 0
M  V30 1983 C 189.636 -1.4322 0.841265 0
M  V30 1984 O 190.821 -1.55719 1.10255 0
M  V30 1985 C 187.961 -2.52483 2.35258 0
M  V30 1986 C 187.074 -2.35914 3.61896 0
M  V30 1987 C 186.209 -3.61969 3.88782 0
M  V30 1988 C 185.248 -3.40395 5.08722 0
M  V30 1989 N 184.385 -4.58556 5.31668 0
M  V30 1990 H 189.225 -0.839845 2.85921 0
M  V30 1991 H 186.762 -0.403264 1.41464 0
M  V30 1992 H 188.72 -3.30071 2.55165 0
M  V30 1993 H 187.35 -2.85859 1.49949 0
M  V30 1994 H 186.402 -1.49429 3.49821 0
M  V30 1995 H 187.714 -2.15926 4.49641 0
M  V30 1996 H 186.868 -4.47989 4.09135 0
M  V30 1997 H 185.607 -3.84951 2.9944 0
M  V30 1998 H 184.612 -2.52763 4.88253 0
M  V30 1999 H 185.837 -3.18822 5.99608 0
M  V30 2000 H 183.783 -4.81729 4.45279 0
M  V30 2001 H 183.7 -4.41535 6.13664 0
M  V30 2002 H 184.968 -5.45817 5.5651 0
M  V30 2003 N 189.197 -1.51736 -0.425897 0
M  V30 2004 C 190.129 -1.70083 -1.53638 0
M  V30 2005 C 191.142 -0.581349 -1.52066 0
M  V30 2006 O 192.331 -0.856017 -1.56635 0
M  V30 2007 C 189.431 -1.71078 -2.9255 0
M  V30 2008 C 188.604 -2.99795 -3.185 0
M  V30 2009 C 187.663 -2.92825 -4.37196 0
M  V30 2010 O 186.689 -3.66756 -4.35291 0
M  V30 2011 N 187.891 -2.0946 -5.41393 0
M  V30 2012 H 190.656 -2.65882 -1.383 0
M  V30 2013 H 188.217 -1.49765 -0.614988 0
M  V30 2014 H 190.209 -1.63969 -3.69995 0
M  V30 2015 H 188.779 -0.828242 -3.01428 0
M  V30 2016 H 187.999 -3.20684 -2.2925 0
M  V30 2017 H 189.287 -3.84977 -3.32671 0
M  V30 2018 H 188.685 -1.48792 -5.45781 0
M  V30 2019 H 187.242 -2.08221 -6.17647 0
M  V30 2020 N 190.675 0.682077 -1.42076 0
M  V30 2021 C 192.086 1.26246 -1.37546 0
M  V30 2022 C 192.437 1.96092 -0.0651481 0
M  V30 2023 O 191.562 1.99587 0.836297 0
M  V30 2024 C 192.157 2.29594 -2.49143 0
M  V30 2025 C 190.716 2.83175 -2.47969 0
M  V30 2026 C 189.863 1.57395 -2.28303 0
M  V30 2027 H 192.814 0.475937 -1.51395 0
M  V30 2028 H 192.835 3.11175 -2.18976 0
M  V30 2029 H 192.347 1.78729 -3.44496 0
M  V30 2030 H 190.448 3.3818 -1.56413 0
M  V30 2031 H 190.561 3.32687 -3.44755 0
M  V30 2032 H 188.925 1.83699 -1.76428 0
M  V30 2033 H 189.708 1.08507 -3.25701 0
M  V30 2034 N 192.153 1.28127 0.917671 0
M  V30 2035 C 193.083 1.14248 2.03641 0
M  V30 2036 C 194.064 0.0412748 1.7005 0
M  V30 2037 O 195.249 0.217566 1.92977 0
M  V30 2038 C 192.379 0.799431 3.37974 0
M  V30 2039 C 191.333 1.85497 3.85713 0
M  V30 2040 C 190.659 1.36565 5.16966 0
M  V30 2041 C 191.959 3.26085 4.08002 0
M  V30 2042 H 193.653 2.07835 2.15511 0
M  V30 2043 H 191.199 1.00064 1.03553 0
M  V30 2044 H 193.152 0.689114 4.15727 0
M  V30 2045 H 191.876 -0.172145 3.26146 0
M  V30 2046 H 190.535 1.95437 3.10161 0
M  V30 2047 H 190.183 0.383253 5.01538 0
M  V30 2048 H 189.883 2.07143 5.49878 0
M  V30 2049 H 191.407 1.26848 5.97279 0
M  V30 2050 H 192.821 3.19089 4.76293 0
M  V30 2051 H 191.218 3.94462 4.52238 0
M  V30 2052 H 192.288 3.70394 3.12948 0
M  V30 2053 N 193.631 -1.12557 1.10312 0
M  V30 2054 C 194.594 -2.16434 0.75424 0
M  V30 2055 C 195.594 -1.59278 -0.220685 0
M  V30 2056 O 196.784 -1.742 0.00230591 0
M  V30 2057 C 193.916 -3.40699 0.116987 0
M  V30 2058 H 195.109 -2.48811 1.67431 0
M  V30 2059 H 192.662 -1.27542 0.903475 0
M  V30 2060 H 193.397 -3.13921 -0.813877 0
M  V30 2061 H 193.182 -3.83459 0.818613 0
M  V30 2062 H 194.672 -4.17451 -0.111387 0
M  V30 2063 N 195.109 -0.891671 -1.2995 0
M  V30 2064 C 196.042 -0.307994 -2.26112 0
M  V30 2065 C 197.02 0.575262 -1.52084 0
M  V30 2066 O 198.204 0.523864 -1.81074 0
M  V30 2067 C 195.331 0.561734 -3.34009 0
M  V30 2068 C 194.377 -0.253107 -4.25748 0
M  V30 2069 S 195.21 -1.64572 -5.09584 0
M  V30 2070 C 196.366 -0.782699 -6.20987 0
M  V30 2071 H 196.599 -1.12309 -2.75271 0
M  V30 2072 H 194.132 -0.691509 -1.38049 0
M  V30 2073 H 196.09 1.05777 -3.96638 0
M  V30 2074 H 194.751 1.35099 -2.83561 0
M  V30 2075 H 193.944 0.410908 -5.02322 0
M  V30 2076 H 193.546 -0.682004 -3.67729 0
M  V30 2077 H 195.838 -0.00257476 -6.775 0
M  V30 2078 H 196.781 -1.52026 -6.91588 0
M  V30 2079 H 197.189 -0.340638 -5.63471 0
M  V30 2080 N 196.587 1.43421 -0.653314 0
M  V30 2081 C 197.55 2.29182 0.0287951 0
M  V30 2082 C 198.55 1.42213 0.750465 0
M  V30 2083 O 199.74 1.63843 0.591701 0
M  V30 2084 C 196.872 3.24278 1.05151 0
M  V30 2085 H 198.065 2.90985 -0.725786 0
M  V30 2086 H 195.618 1.50702 -0.414545 0
M  V30 2087 H 196.353 2.6737 1.83532 0
M  V30 2088 H 196.138 3.88396 0.537687 0
M  V30 2089 H 197.628 3.88647 1.52786 0
M  V30 2090 N 198.065 0.39524 1.52563 0
M  V30 2091 C 199.481 0.0454682 1.59535 0
M  V30 2092 C 199.681 -1.44056 1.4089 0
M  V30 2093 O 198.737 -2.20579 1.22888 0
M  V30 2094 C 200.05 0.527963 2.96029 0
M  V30 2095 C 201.598 0.484733 3.09224 0
M  V30 2096 C 202.073 0.943512 4.48176 0
M  V30 2097 N 203.564 0.899765 4.54377 0
M  V30 2098 C 204.299 1.22609 5.60138 0
M  V30 2099 N 203.795 1.62319 6.73516 0
M  V30 2100 N 205.588 1.14696 5.50274 0
M  V30 2101 H 197.739 1.36261 1.62931 0
M  V30 2102 H 200.002 0.558887 0.765735 0
M  V30 2103 H 199.708 1.56607 3.14908 0
M  V30 2104 H 199.582 -0.0698056 3.77135 0
M  V30 2105 H 201.969 -0.544298 2.90037 0
M  V30 2106 H 202.05 1.11838 2.30056 0
M  V30 2107 H 201.694 1.9708 4.68104 0
M  V30 2108 H 201.624 0.286817 5.25818 0
M  V30 2109 H 204.115 0.607632 3.72983 0
M  V30 2110 H 204.428 1.85567 7.5019 0
M  V30 2111 H 202.773 1.66211 6.74833 0
M  V30 2112 H 205.964 0.835701 4.6058 0
M  V30 2113 H 206.137 1.40459 6.32594 0
M  V30 2114 N 199.544 -1.57102 0.125237 0
M  V30 2115 C 200.491 -2.15641 -0.822655 0
M  V30 2116 C 201.461 -1.08313 -1.25927 0
M  V30 2117 O 202.646 -1.36251 -1.33567 0
M  V30 2118 C 199.786 -2.76504 -2.06494 0
M  V30 2119 C 198.899 -3.98158 -1.67612 0
M  V30 2120 C 198.034 -4.47088 -2.86854 0
M  V30 2121 C 197.073 -5.6126 -2.44242 0
M  V30 2122 N 196.21 -6.04905 -3.56419 0
M  V30 2123 H 201.05 -2.96313 -0.316625 0
M  V30 2124 H 198.587 -1.46388 -0.144588 0
M  V30 2125 H 200.545 -3.09925 -2.79289 0
M  V30 2126 H 199.175 -1.98512 -2.54545 0
M  V30 2127 H 198.227 -3.70858 -0.846661 0
M  V30 2128 H 199.539 -4.80934 -1.32301 0
M  V30 2129 H 198.693 -4.82451 -3.67867 0
M  V30 2130 H 197.432 -3.63275 -3.25396 0
M  V30 2131 H 196.437 -5.25495 -1.61663 0
M  V30 2132 H 197.662 -6.46843 -2.0681 0
M  V30 2133 H 195.608 -5.24032 -3.94623 0
M  V30 2134 H 195.525 -6.82552 -3.25051 0
M  V30 2135 H 196.793 -6.44907 -4.37853 0
M  V30 2136 N 201.022 0.148545 -1.56898 0
M  V30 2137 C 202.247 0.880385 -1.87787 0
M  V30 2138 C 202.672 1.74018 -0.714093 0
M  V30 2139 O 202.03 1.78153 0.336343 0
M  V30 2140 C 202.078 1.71422 -3.17249 0
M  V30 2141 O 201.182 2.8183 -3.01074 0
M  V30 2142 H 200.523 0.245301 -0.617028 0
M  V30 2143 H 203.053 0.139826 -2.04122 0
M  V30 2144 H 203.063 2.10954 -3.49231 0
M  V30 2145 H 201.738 1.08284 -4.01556 0
M  V30 2146 H 200.315 2.45715 -2.80497 0
M  V30 2147 N 202.5 1.5196 0.417844 0
M  V30 2148 C 203.43 1.77634 1.51554 0
M  V30 2149 C 204.411 0.626918 1.58126 0
M  V30 2150 O 205.596 0.871632 1.7354 0
M  V30 2151 C 202.726 1.91911 2.8946 0
M  V30 2152 C 201.68 3.07463 2.97743 0
M  V30 2153 C 201.006 3.06951 4.37819 0
M  V30 2154 C 202.306 4.47082 2.70027 0
M  V30 2155 H 204 2.6955 1.3032 0
M  V30 2156 H 201.546 1.29706 0.625492 0
M  V30 2157 H 203.499 2.08455 3.6623 0
M  V30 2158 H 202.223 0.966598 3.11969 0
M  V30 2159 H 200.882 2.90656 2.23416 0
M  V30 2160 H 200.53 2.09438 4.57323 0
M  V30 2161 H 200.23 3.84556 4.44286 0
M  V30 2162 H 201.754 3.25613 5.16535 0
M  V30 2163 H 203.168 4.6414 3.36522 0
M  V30 2164 H 201.565 5.2654 2.87881 0
M  V30 2165 H 202.635 4.55777 1.65514 0
M  V30 2166 N 203.978 -0.674533 1.42435 0
M  V30 2167 C 205.206 -1.46283 1.46317 0
M  V30 2168 C 205.621 -1.88653 0.0745836 0
M  V30 2169 O 204.978 -1.58151 -0.91074 0
M  V30 2170 C 205.029 -2.71178 2.3905 0
M  V30 2171 O 204.75 -2.30586 3.72507 0
M  V30 2172 C 206.251 -3.64738 2.51955 0
M  V30 2173 H 203.471 -0.450104 0.497642 0
M  V30 2174 H 206.015 -0.828792 1.86953 0
M  V30 2175 H 204.17 -3.3077 2.01667 0
M  V30 2176 H 204.584 -3.11241 4.22172 0
M  V30 2177 H 206.058 -4.49096 3.20962 0
M  V30 2178 H 206.535 -4.10656 1.55752 0
M  V30 2179 H 207.141 -3.11038 2.90061 0
M  V30 2180 N 205.456 -1.28612 -0.910864 0
M  V30 2181 C 206.366 -1.14643 -2.0468 0
M  V30 2182 C 207.382 -0.0723121 -1.7385 0
M  V30 2183 O 208.558 -0.282178 -1.99413 0
M  V30 2184 C 205.623 -0.812561 -3.37044 0
M  V30 2185 C 204.684 -1.96935 -3.81465 0
M  V30 2186 C 203.917 -1.65131 -5.07511 0
M  V30 2187 O 204.14 -0.567013 -5.67575 0
M  V30 2188 O 203.074 -2.49585 -5.47714 0
M  V30 2189 H 206.9 -2.1001 -2.19384 0
M  V30 2190 H 204.485 -1.07958 -1.03274 0
M  V30 2191 H 206.367 -0.640441 -4.16505 0
M  V30 2192 H 205.042 0.111426 -3.23508 0
M  V30 2193 H 203.949 -2.19664 -3.02818 0
M  V30 2194 H 205.282 -2.87414 -3.99567 0
M  V30 2195 N 206.934 1.1197 -1.10907 0
M  V30 2196 C 207.867 2.16998 -0.706192 0
M  V30 2197 C 208.845 1.59903 0.294897 0
M  V30 2198 O 210.029 1.87513 0.192636 0
M  V30 2199 C 207.156 3.38673 -0.0427664 0
M  V30 2200 C 206.202 4.14414 -1.00811 0
M  V30 2201 S 207.035 4.72079 -2.52789 0
M  V30 2202 C 208.191 5.97083 -1.87731 0
M  V30 2203 H 208.424 2.50837 -1.59587 0
M  V30 2204 H 205.957 1.23508 -0.926555 0
M  V30 2205 H 207.915 4.09142 0.333668 0
M  V30 2206 H 206.576 3.03105 0.823788 0
M  V30 2207 H 205.769 5.016 -0.491259 0
M  V30 2208 H 205.371 3.49678 -1.3267 0
M  V30 2209 H 207.663 6.66599 -1.21044 0
M  V30 2210 H 208.606 6.53403 -2.72892 0
M  V30 2211 H 209.014 5.4837 -1.33979 0
M  V30 2212 N 208.412 0.89855 1.29475 0
M  V30 2213 C 209.375 0.380272 2.26023 0
M  V30 2214 C 210.375 -0.484891 1.53315 0
M  V30 2215 O 211.565 -0.290108 1.71767 0
M  V30 2216 C 208.697 -0.45651 3.3783 0
M  V30 2217 H 209.89 1.23295 2.73383 0
M  V30 2218 H 207.443 0.676589 1.40897 0
M  V30 2219 H 208.178 -1.32922 2.95808 0
M  V30 2220 H 207.963 0.163393 3.91759 0
M  V30 2221 H 209.453 -0.810466 4.0966 0
M  V30 2222 N 209.89 -1.43072 0.660911 0
M  V30 2223 C 211.167 -1.95307 0.107017 0
M  V30 2224 C 211.547 -1.60192 -1.37484 0
M  V30 2225 O 210.895 -0.890949 -2.10415 0
M  V30 2226 C 211.105 -3.47124 0.361402 0
M  V30 2227 C 212.453 -4.23738 0.270455 0
M  V30 2228 O 213.477 -3.54981 0.294382 0
M  V30 2229 O 212.336 -5.46131 0.200737 0
M  V30 2230 H 209.43 -0.826984 -0.00517729 0
M  V30 2231 H 211.976 -1.52972 0.734681 0
M  V30 2232 H 210.748 -3.65837 1.38848 0
M  V30 2233 H 210.371 -3.96475 -0.298953 0
M  V30 2234 N 211.368 -0.403325 -1.52352 0
M  V30 2235 C 212.298 0.416205 -2.29761 0
M  V30 2236 C 213.279 1.05123 -1.33728 0
M  V30 2237 O 214.464 1.06134 -1.62632 0
M  V30 2238 C 211.594 1.53624 -3.11475 0
M  V30 2239 C 210.548 1.02653 -4.15507 0
M  V30 2240 C 209.874 2.23971 -4.85532 0
M  V30 2241 C 211.174 0.08463 -5.22231 0
M  V30 2242 H 212.868 -0.229701 -2.98518 0
M  V30 2243 H 210.414 -0.111913 -1.43564 0
M  V30 2244 H 212.367 2.1165 -3.64393 0
M  V30 2245 H 211.091 2.20994 -2.40477 0
M  V30 2246 H 209.75 0.46871 -3.63591 0
M  V30 2247 H 209.398 2.89883 -4.11068 0
M  V30 2248 H 209.098 1.90521 -5.55856 0
M  V30 2249 H 210.622 2.82614 -5.41259 0
M  V30 2250 H 212.036 0.573509 -5.70424 0
M  V30 2251 H 210.433 -0.160783 -5.99885 0
M  V30 2252 H 211.503 -0.86237 -4.7717 0
M  V30 2253 N 212.846 1.57033 -0.133567 0
M  V30 2254 C 213.776 2.1909 0.807567 0
M  V30 2255 C 214.757 1.13517 1.26681 0
M  V30 2256 O 215.942 1.41809 1.32679 0
M  V30 2257 C 213.072 2.80188 2.05212 0
M  V30 2258 C 212.026 3.91471 1.73015 0
M  V30 2259 C 211.352 4.39443 3.04622 0
M  V30 2260 C 212.652 5.12886 0.987168 0
M  V30 2261 H 214.346 2.97988 0.290403 0
M  V30 2262 H 211.892 1.43335 0.138239 0
M  V30 2263 H 213.845 3.22264 2.71521 0
M  V30 2264 H 212.569 1.98601 2.59278 0
M  V30 2265 H 211.228 3.49993 1.0909 0
M  V30 2266 H 210.876 3.54695 3.56651 0
M  V30 2267 H 210.576 5.14495 2.83847 0
M  V30 2268 H 212.1 4.8418 3.72024 0
M  V30 2269 H 213.514 5.51891 1.55208 0
M  V30 2270 H 211.911 5.93615 0.87985 0
M  V30 2271 H 212.981 4.84894 -0.0235286 0
M  V30 2272 N 214.325 -0.140222 1.56975 0
M  V30 2273 C 215.273 -1.19207 1.99731 0
M  V30 2274 C 216.267 -1.44089 0.890777 0
M  V30 2275 O 217.473 -1.44301 1.07597 0
M  V30 2276 H 213.848 -0.40142 0.635898 0
M  V30 2277 H 215.819 -0.804813 2.87342 0
M  V30 2278 C 214.568 -2.51617 2.39967 0
M  V30 2279 H 213.891 -2.33303 3.24669 0
M  V30 2280 H 215.331 -3.23827 2.73701 0
M  V30 2281 C 213.79 -3.12654 1.25496 0
M  V30 2282 O 214.32 -3.97786 0.559371 0
M  V30 2283 N 212.526 -2.72206 1.01746 0
M  V30 2284 H 212.073 -2.03074 1.58489 0
M  V30 2285 H 212.031 -3.13377 0.253461 0
M  V30 2286 N 215.803 -1.52179 -0.40978 0
M  V30 2287 C 216.733 -1.78435 -1.5061 0
M  V30 2288 C 217.714 -0.635295 -1.57791 0
M  V30 2289 O 218.899 -0.880823 -1.73076 0
M  V30 2290 C 216.029 -1.93444 -2.88439 0
M  V30 2291 C 214.983 -3.09038 -2.96108 0
M  V30 2292 C 214.309 -3.09268 -4.36185 0
M  V30 2293 C 215.609 -4.48508 -2.67652 0
M  V30 2294 H 217.303 -2.70237 -1.28889 0
M  V30 2295 H 214.849 -1.30036 -0.618605 0
M  V30 2296 H 216.802 -2.10394 -3.65119 0
M  V30 2297 H 215.526 -0.983129 -3.11452 0
M  V30 2298 H 214.185 -2.91837 -2.21872 0
M  V30 2299 H 213.833 -2.11861 -4.56206 0
M  V30 2300 H 213.533 -3.86907 -4.42241 0
M  V30 2301 H 215.057 -3.28348 -5.14801 0
M  V30 2302 H 216.471 -4.65918 -3.34056 0
M  V30 2303 H 214.868 -5.28059 -2.85085 0
M  V30 2304 H 215.938 -4.56649 -1.63095 0
M  V30 2305 N 217.281 0.66697 -1.42791 0
M  V30 2306 C 218.213 1.7925 -1.42836 0
M  V30 2307 C 219.226 1.59496 -0.326333 0
M  V30 2308 O 220.415 1.6847 -0.589916 0
M  V30 2309 C 217.515 3.16476 -1.21229 0
M  V30 2310 C 216.688 3.63011 -2.44013 0
M  V30 2311 C 215.747 4.78993 -2.17834 0
M  V30 2312 O 214.773 4.89137 -2.91091 0
M  V30 2313 N 215.975 5.68248 -1.18635 0
M  V30 2314 H 218.74 1.79695 -2.39854 0
M  V30 2315 H 216.301 0.850338 -1.37771 0
M  V30 2316 H 218.293 3.91734 -1.01621 0
M  V30 2317 H 216.863 3.10884 -0.32706 0
M  V30 2318 H 216.083 2.78346 -2.79137 0
M  V30 2319 H 217.371 3.90845 -3.25757 0
M  V30 2320 H 216.769 5.62712 -0.580615 0
M  V30 2321 H 215.326 6.43285 -1.05013 0
M  V30 2322 N 218.759 1.29093 0.90403 0
M  V30 2323 C 219.984 1.19809 1.69294 0
M  V30 2324 C 220.409 -0.238481 1.86582 0
M  V30 2325 O 219.767 -1.1723 1.383 0
M  V30 2326 C 219.815 1.91202 3.05736 0
M  V30 2327 O 218.919 1.22611 3.93752 0
M  V30 2328 H 218.26 0.415385 0.518027 0
M  V30 2329 H 220.79 1.70586 1.12967 0
M  V30 2330 H 220.8 1.99487 3.55906 0
M  V30 2331 H 219.475 2.95692 2.92471 0
M  V30 2332 H 218.052 1.22554 3.52186 0
M  V30 2333 N 220.237 -1.11381 1.11499 0
M  V30 2334 C 221.2 -2.15622 0.777153 0
M  V30 2335 C 222.2 -1.59504 -0.203779 0
M  V30 2336 O 223.39 -1.74188 0.020782 0
M  V30 2337 C 220.522 -3.40556 0.153116 0
M  V30 2338 H 221.715 -2.47021 1.70061 0
M  V30 2339 H 219.268 -1.26577 0.916952 0
M  V30 2340 H 220.003 -3.14767 -0.780536 0
M  V30 2341 H 219.788 -3.8257 0.859238 0
M  V30 2342 H 221.278 -4.17546 -0.0671044 0
M  V30 2343 N 221.715 -0.905404 -1.28997 0
M  V30 2344 C 222.678 -0.392253 -2.25819 0
M  V30 2345 C 223.678 0.476753 -1.5357 0
M  V30 2346 O 224.868 0.280994 -1.71919 0
M  V30 2347 C 222 0.438588 -3.38067 0
M  V30 2348 H 223.193 -1.24743 -2.72725 0
M  V30 2349 H 220.746 -0.684051 -1.40536 0
M  V30 2350 H 221.481 1.31352 -2.96508 0
M  V30 2351 H 221.266 -0.184167 -3.91667 0
M  V30 2352 H 222.756 0.78873 -4.10084 0
M  V30 2353 N 223.193 1.4272 -0.668489 0
M  V30 2354 C 224.103 2.34596 0.0139753 0
M  V30 2355 C 225.119 1.5474 0.795703 0
M  V30 2356 O 226.295 1.87334 0.739466 0
M  V30 2357 C 223.36 3.33202 0.957982 0
M  V30 2358 C 222.421 4.28957 0.17149 0
M  V30 2359 C 221.654 5.22853 1.07053 0
M  V30 2360 O 221.877 5.21531 2.31001 0
M  V30 2361 O 220.811 5.9952 0.534727 0
M  V30 2362 H 224.637 2.9448 -0.742661 0
M  V30 2363 H 222.222 1.43117 -0.428705 0
M  V30 2364 H 224.104 3.93796 1.50008 0
M  V30 2365 H 222.779 2.758 1.69458 0
M  V30 2366 H 221.686 3.71796 -0.414558 0
M  V30 2367 H 223.019 4.89383 -0.52586 0
M  V30 2368 N 224.671 0.411399 1.52136 0
M  V30 2369 C 225.899 -0.163076 2.06256 0
M  V30 2370 C 226.314 -1.3867 1.28125 0
M  V30 2371 O 225.671 -1.79423 0.333721 0
M  V30 2372 C 225.722 -0.511252 3.57867 0
M  V30 2373 O 225.443 0.66378 4.33042 0
M  V30 2374 C 226.944 -1.13921 4.28412 0
M  V30 2375 H 224.164 -0.0193897 0.67072 0
M  V30 2376 H 226.708 0.583007 1.96013 0
M  V30 2377 H 224.863 -1.20723 3.6811 0
M  V30 2378 H 225.277 0.372601 5.23175 0
M  V30 2379 H 226.751 -1.33302 5.35663 0
M  V30 2380 H 227.228 -2.11296 3.85033 0
M  V30 2381 H 227.834 -0.483373 4.22544 0
M  V30 2382 N 226.149 -1.5696 0.141893 0
M  V30 2383 C 227.099 -2.13074 -0.811383 0
M  V30 2384 C 228.083 -1.05726 -1.21288 0
M  V30 2385 O 229.275 -1.31914 -1.18015 0
M  V30 2386 C 226.404 -2.75186 -2.0525 0
M  V30 2387 C 225.49 -3.8965 -1.67432 0
M  V30 2388 N 225.881 -4.95733 -1.0041 0
M  V30 2389 C 224.179 -4.00262 -1.96739 0
M  V30 2390 C 224.88 -5.75858 -0.822345 0
M  V30 2391 N 223.856 -5.26452 -1.3546 0
M  V30 2392 H 227.658 -2.92465 -0.290031 0
M  V30 2393 H 225.172 -1.6229 -0.0598218 0
M  V30 2394 H 227.169 -3.13745 -2.74535 0
M  V30 2395 H 225.829 -1.97266 -2.57907 0
M  V30 2396 H 226.84 -5.13607 -0.665441 0
M  V30 2397 H 223.517 -3.33412 -2.51282 0
M  V30 2398 H 224.907 -6.71254 -0.294496 0
M  V30 2399 N 227.627 0.131896 -1.57047 0
M  V30 2400 C 228.557 1.16384 -2.02428 0
M  V30 2401 C 229.538 1.43936 -0.90644 0
M  V30 2402 O 230.723 1.54599 -1.17528 0
M  V30 2403 C 227.853 2.49328 -2.4177 0
M  V30 2404 C 226.807 2.36266 -3.56879 0
M  V30 2405 C 226.133 3.74057 -3.8208 0
M  V30 2406 C 227.433 1.834 -4.89042 0
M  V30 2407 H 229.127 0.786433 -2.88887 0
M  V30 2408 H 226.673 0.376855 -1.38981 0
M  V30 2409 H 228.626 3.21759 -2.7212 0
M  V30 2410 H 227.35 2.88934 -1.52266 0
M  V30 2411 H 226.009 1.66286 -3.26718 0
M  V30 2412 H 225.657 4.11125 -2.89803 0
M  V30 2413 H 225.357 3.66174 -4.59554 0
M  V30 2414 H 226.881 4.48012 -4.1487 0
M  V30 2415 H 228.295 2.45636 -5.18011 0
M  V30 2416 H 226.692 1.8637 -5.70426 0
M  V30 2417 H 227.762 0.790662 -4.7841 0
M  V30 2418 N 229.106 1.52395 0.401703 0
M  V30 2419 C 230.069 1.75636 1.47257 0
M  V30 2420 C 231.069 0.62628 1.48103 0
M  V30 2421 O 232.259 0.894227 1.49497 0
M  V30 2422 C 229.391 1.84553 2.86624 0
M  V30 2423 H 230.584 2.71241 1.27938 0
M  V30 2424 H 228.137 1.42923 0.632662 0
M  V30 2425 H 228.872 0.908882 3.11303 0
M  V30 2426 H 228.657 2.66715 2.87412 0
M  V30 2427 H 230.147 2.04251 3.64241 0
M  V30 2428 N 230.584 -0.659388 1.43143 0
M  V30 2429 C 231.516 -1.7849 1.43784 0
M  V30 2430 C 232.529 -1.5932 0.334787 0
M  V30 2431 O 233.718 -1.68155 0.598842 0
M  V30 2432 C 230.818 -3.15828 1.22906 0
M  V30 2433 C 229.991 -3.61711 2.45934 0
M  V30 2434 C 229.05 -4.77831 2.20371 0
M  V30 2435 O 228.076 -4.87586 2.93681 0
M  V30 2436 N 229.278 -5.67611 1.21647 0
M  V30 2437 H 232.043 -1.7842 2.40803 0
M  V30 2438 H 229.604 -0.84302 1.3822 0
M  V30 2439 H 231.596 -3.91189 1.03697 0
M  V30 2440 H 230.166 -3.10707 0.343542 0
M  V30 2441 H 229.386 -2.76861 2.80609 0
M  V30 2442 H 230.674 -3.89112 3.27825 0
M  V30 2443 H 230.072 -5.62397 0.610449 0
M  V30 2444 H 228.629 -6.42719 1.08423 0
M  V30 2445 N 232.062 -1.29571 -0.897171 0
M  V30 2446 C 233.292 -1.20408 -1.67886 0
M  V30 2447 C 233.7 0.237429 -1.87704 0
M  V30 2448 O 233.043 1.17048 -1.41582 0
M  V30 2449 C 233.105 -1.84887 -3.08314 0
M  V30 2450 C 232.769 -3.34189 -3.11716 0
M  V30 2451 C 233.766 -4.30374 -2.91675 0
M  V30 2452 C 231.451 -3.75431 -3.33701 0
M  V30 2453 C 233.445 -5.65776 -2.93557 0
M  V30 2454 C 231.132 -5.10955 -3.35214 0
M  V30 2455 C 232.13 -6.05938 -3.15164 0
M  V30 2456 O 231.818 -7.38987 -3.1647 0
M  V30 2457 H 231.55 -0.418289 -0.531046 0
M  V30 2458 H 234.104 -1.71514 -1.13014 0
M  V30 2459 H 232.334 -1.28295 -3.64798 0
M  V30 2460 H 234.023 -1.70011 -3.6858 0
M  V30 2461 H 234.789 -3.99844 -2.74499 0
M  V30 2462 H 230.668 -3.01953 -3.48347 0
M  V30 2463 H 234.212 -6.39889 -2.77826 0
M  V30 2464 H 230.109 -5.4113 -3.51922 0
M  V30 2465 H 230.877 -7.47823 -3.3272 0
M  V30 2466 N 233.54 1.10788 -1.12088 0
M  V30 2467 C 234.45 2.20599 -0.798338 0
M  V30 2468 C 235.466 1.72712 0.21135 0
M  V30 2469 O 236.642 2.01348 0.0458477 0
M  V30 2470 C 233.707 3.45771 -0.253674 0
M  V30 2471 C 232.768 4.08411 -1.32283 0
M  V30 2472 C 232.001 5.27608 -0.80406 0
M  V30 2473 O 232.224 5.69241 0.363478 0
M  V30 2474 O 231.158 5.8101 -1.57198 0
M  V30 2475 H 234.984 2.50614 -1.7154 0
M  V30 2476 H 232.569 1.19454 -0.897275 0
M  V30 2477 H 234.451 4.21376 0.0453691 0
M  V30 2478 H 233.126 3.1739 0.636005 0
M  V30 2479 H 232.033 3.34507 -1.67499 0
M  V30 2480 H 233.366 4.40986 -2.18614 0
M  V30 2481 N 235.018 0.912232 1.28515 0
M  V30 2482 C 236.295 0.463597 1.90027 0
M  V30 2483 C 236.675 -1.05753 1.82701 0
M  V30 2484 O 236.023 -1.90492 1.26194 0
M  V30 2485 C 236.233 0.992253 3.34597 0
M  V30 2486 C 237.581 1.04344 4.11579 0
M  V30 2487 O 238.605 0.94079 3.43551 0
M  V30 2488 O 237.464 1.1995 5.33174 0
M  V30 2489 H 234.558 0.146666 0.813891 0
M  V30 2490 H 237.104 1.00292 1.36893 0
M  V30 2491 H 235.876 2.03623 3.34146 0
M  V30 2492 H 235.499 0.433672 3.95228 0
M  V30 2493 N 236.496 -1.42363 0.676048 0
M  V30 2494 C 237.743 -2.01522 0.19883 0
M  V30 2495 C 238.071 -1.53456 -1.19505 0
M  V30 2496 O 237.326 -0.727967 -1.81657 0
M  V30 2497 C 237.625 -3.56929 0.183431 0
M  V30 2498 C 237.291 -4.24431 1.52215 0
M  V30 2499 C 235.953 -4.42585 1.8887 0
M  V30 2500 C 238.305 -4.62459 2.40377 0
M  V30 2501 C 235.633 -4.96039 3.13309 0
M  V30 2502 C 237.985 -5.17294 3.64129 0
M  V30 2503 C 236.649 -5.33661 4.00951 0
M  V30 2504 H 235.919 -0.737419 0.0727571 0
M  V30 2505 H 238.566 -1.70531 0.871281 0
M  V30 2506 H 236.871 -3.87594 -0.572532 0
M  V30 2507 H 238.568 -4.00486 -0.203035 0
M  V30 2508 H 235.158 -4.10661 1.22701 0
M  V30 2509 H 239.342 -4.48105 2.13343 0
M  V30 2510 H 234.598 -5.06896 3.41857 0
M  V30 2511 H 238.772 -5.45704 4.32644 0
M  V30 2512 H 236.399 -5.74845 4.9745 0
M  V30 2513 N 237.974 -0.419461 -1.51915 0
M  V30 2514 C 239.223 0.154346 -2.01109 0
M  V30 2515 C 239.536 1.45338 -1.30905 0
M  V30 2516 O 240.742 2.10906 -1.7097 0
M  V30 2517 C 239.198 0.325615 -3.58424 0
M  V30 2518 C 238.806 -0.961934 -4.37551 0
M  V30 2519 C 240.55 0.854155 -4.15818 0
M  V30 2520 C 238.457 -0.757287 -5.86531 0
M  V30 2521 H 237.387 0.0614563 -0.751491 0
M  V30 2522 H 240.038 -0.54649 -1.75173 0
M  V30 2523 H 238.42 1.08903 -3.80731 0
M  V30 2524 H 239.594 -1.7323 -4.26999 0
M  V30 2525 H 237.909 -1.41766 -3.91524 0
M  V30 2526 H 240.506 1.02346 -5.24814 0
M  V30 2527 H 240.849 1.83172 -3.73837 0
M  V30 2528 H 241.382 0.149528 -3.97519 0
M  V30 2529 H 238.121 -1.70671 -6.32892 0
M  V30 2530 H 237.641 -0.0264061 -5.99794 0
M  V30 2531 H 239.32 -0.403482 -6.45741 0
M  V30 2532 N 239.452 1.56882 -0.150215 0
M  V30 2533 C 240.868 1.58263 0.20617 0
M  V30 2534 C 241.068 1.16464 1.64434 0
M  V30 2535 O 240.124 0.866422 2.3717 0
M  V30 2536 C 241.437 3.00649 -0.0555025 0
M  V30 2537 C 242.985 3.12999 0.00795388 0
M  V30 2538 C 243.46 4.5744 -0.226429 0
M  V30 2539 N 244.951 4.62875 -0.173469 0
M  V30 2540 C 245.686 5.72454 -0.329288 0
M  V30 2541 N 245.182 6.90669 -0.543005 0
M  V30 2542 N 246.975 5.61467 -0.266666 0
M  V30 2543 H 239.126 1.82345 -1.08922 0
M  V30 2544 H 241.389 0.844149 -0.431413 0
M  V30 2545 H 241.095 3.3563 -1.05096 0
M  V30 2546 H 240.969 3.71337 0.66246 0
M  V30 2547 H 243.356 2.77857 0.993966 0
M  V30 2548 H 243.437 2.4479 -0.742388 0
M  V30 2549 H 243.081 4.93287 -1.20956 0
M  V30 2550 H 243.011 5.2378 0.544274 0
M  V30 2551 H 245.502 3.77898 -0.0130709 0
M  V30 2552 H 245.815 7.70045 -0.651922 0
M  V30 2553 H 244.16 6.92581 -0.579366 0
M  V30 2554 H 247.351 4.67992 -0.100441 0
M  V30 2555 H 247.524 6.46816 -0.391535 0
M  V30 2556 N 240.93 -0.123565 1.57115 0
M  V30 2557 C 242.155 -0.850398 1.89164 0
M  V30 2558 C 242.58 -1.7286 0.741688 0
M  V30 2559 O 241.938 -1.78665 -0.307958 0
M  V30 2560 C 241.986 -1.66353 3.19936 0
M  V30 2561 O 241.09 -2.77004 3.0552 0
M  V30 2562 H 240.431 -0.235454 0.620852 0
M  V30 2563 H 242.961 -0.107335 2.04318 0
M  V30 2564 H 242.971 -2.05372 3.52543 0
M  V30 2565 H 241.646 -1.01881 4.03228 0
M  V30 2566 H 240.223 -2.41221 2.84371 0
M  V30 2567 N 242.408 -1.52605 -0.393616 0
M  V30 2568 C 243.341 -1.71798 -1.50202 0
M  V30 2569 C 244.319 -0.565743 -1.52441 0
M  V30 2570 O 245.503 -0.794987 -1.70916 0
M  V30 2571 C 242.63 -1.7714 -2.88685 0
M  V30 2572 C 241.676 -2.98845 -3.04292 0
M  V30 2573 S 242.509 -4.58909 -2.75976 0
M  V30 2574 C 243.665 -4.6706 -4.1666 0
M  V30 2575 H 243.898 -2.65542 -1.33696 0
M  V30 2576 H 241.431 -1.42839 -0.586195 0
M  V30 2577 H 243.389 -1.80903 -3.68489 0
M  V30 2578 H 242.05 -0.844969 -3.02521 0
M  V30 2579 H 241.243 -2.99111 -4.05646 0
M  V30 2580 H 240.845 -2.9305 -2.32374 0
M  V30 2581 H 243.137 -4.45391 -5.10523 0
M  V30 2582 H 244.08 -5.6905 -4.21412 0
M  V30 2583 H 244.488 -3.95944 -4.02354 0
M  V30 2584 N 243.887 0.651787 -1.4349 0
M  V30 2585 C 244.834 1.76462 -1.4876 0
M  V30 2586 C 245.804 1.62641 -0.337189 0
M  V30 2587 O 246.989 1.82864 -0.544544 0
M  V30 2588 C 244.129 3.14623 -1.41796 0
M  V30 2589 C 243.242 3.39568 -2.67053 0
M  V30 2590 C 242.377 4.67585 -2.52068 0
M  V30 2591 C 241.416 4.85639 -3.72587 0
M  V30 2592 N 240.553 6.04915 -3.56402 0
M  V30 2593 H 245.393 1.71293 -2.43849 0
M  V30 2594 H 242.93 0.835889 -1.21043 0
M  V30 2595 H 244.888 3.94496 -1.35753 0
M  V30 2596 H 243.518 3.18859 -0.50288 0
M  V30 2597 H 242.57 2.53783 -2.8337 0
M  V30 2598 H 243.882 3.48795 -3.56572 0
M  V30 2599 H 243.036 5.55586 -2.4374 0
M  V30 2600 H 241.775 4.60681 -1.60075 0
M  V30 2601 H 240.78 3.96073 -3.81321 0
M  V30 2602 H 242.005 4.94372 -4.65589 0
M  V30 2603 H 239.951 5.9914 -2.67146 0
M  V30 2604 H 239.868 6.15106 -4.39524 0
M  V30 2605 H 241.136 6.95533 -3.51929 0
M  V30 2606 N 245.365 1.30045 0.890287 0
M  V30 2607 C 246.776 1.16738 1.45702 0
M  V30 2608 C 247.127 -0.233939 1.948 0
M  V30 2609 O 246.252 -1.13021 1.84541 0
M  V30 2610 C 246.847 2.11313 2.64825 0
M  V30 2611 C 245.406 2.02001 3.17604 0
M  V30 2612 C 244.553 2.01699 1.90296 0
M  V30 2613 H 247.504 1.42392 0.700726 0
M  V30 2614 H 247.525 1.69086 3.40867 0
M  V30 2615 H 247.037 3.13294 2.2906 0
M  V30 2616 H 245.138 1.03142 3.5804 0
M  V30 2617 H 245.251 2.90128 3.81264 0
M  V30 2618 H 243.615 1.46427 2.08402 0
M  V30 2619 H 244.398 3.05402 1.56795 0
M  V30 2620 N 246.843 -1.10192 1.12674 0
M  V30 2621 C 248.259 -1.34235 0.863317 0
M  V30 2622 C 248.459 -1.95062 -0.505277 0
M  V30 2623 O 247.515 -2.19192 -1.25345 0
M  V30 2624 C 248.828 -2.2616 1.98172 0
M  V30 2625 C 250.376 -2.3969 2.0129 0
M  V30 2626 C 250.851 -3.34946 3.1237 0
M  V30 2627 N 252.342 -3.42515 3.11829 0
M  V30 2628 C 253.077 -4.16199 3.94419 0
M  V30 2629 N 252.573 -4.92747 4.87004 0
M  V30 2630 N 254.366 -4.11843 3.82547 0
M  V30 2631 H 246.517 -0.690798 2.00853 0
M  V30 2632 H 248.78 -0.366774 0.874174 0
M  V30 2633 H 248.486 -1.8868 2.96804 0
M  V30 2634 H 248.36 -3.26488 1.88906 0
M  V30 2635 H 250.747 -2.76438 1.03276 0
M  V30 2636 H 250.828 -1.39169 2.14629 0
M  V30 2637 H 250.472 -2.98923 4.10619 0
M  V30 2638 H 250.402 -4.35353 2.96269 0
M  V30 2639 H 252.893 -2.87926 2.44759 0
M  V30 2640 H 253.206 -5.46376 5.46528 0
M  V30 2641 H 251.551 -4.91862 4.91016 0
M  V30 2642 H 254.742 -3.51136 3.0955 0
M  V30 2643 H 254.915 -4.69007 4.47142 0
M  V30 2644 N 248.321 -0.919034 -1.28029 0
M  V30 2645 C 249.568 -0.554934 -1.94748 0
M  V30 2646 C 249.896 0.90231 -1.72304 0
M  V30 2647 O 249.151 1.65767 -1.04018 0
M  V30 2648 C 249.45 -0.816855 -3.4794 0
M  V30 2649 C 249.116 -2.25448 -3.90492 0
M  V30 2650 C 247.778 -2.64752 -4.01821 0
M  V30 2651 C 250.13 -3.18977 -4.12193 0
M  V30 2652 C 247.458 -3.96727 -4.32232 0
M  V30 2653 C 249.81 -4.50523 -4.44086 0
M  V30 2654 C 248.474 -4.89673 -4.53626 0
M  V30 2655 H 247.744 -0.203065 -0.712633 0
M  V30 2656 H 250.391 -1.16136 -1.52265 0
M  V30 2657 H 248.696 -0.127677 -3.91592 0
M  V30 2658 H 250.393 -0.514238 -3.97689 0
M  V30 2659 H 246.983 -1.93952 -3.82205 0
M  V30 2660 H 251.167 -2.89817 -4.02889 0
M  V30 2661 H 246.423 -4.26754 -4.37825 0
M  V30 2662 H 250.597 -5.23005 -4.59825 0
M  V30 2663 H 248.224 -5.91969 -4.76946 0
M  V30 2664 N 249.799 1.42003 -0.683588 0
M  V30 2665 C 251.045 2.01712 -0.209825 0
M  V30 2666 C 251.378 1.53968 1.18353 0
M  V30 2667 O 250.653 0.745661 1.79639 0
M  V30 2668 C 250.936 3.59202 -0.254197 0
M  V30 2669 C 250.789 4.17102 -1.68363 0
M  V30 2670 C 252.108 4.38344 0.392709 0
M  V30 2671 H 249.227 0.732891 -0.0777189 0
M  V30 2672 H 251.869 1.68909 -0.87004 0
M  V30 2673 H 250.019 3.87278 0.307954 0
M  V30 2674 H 251.691 3.99946 -2.29871 0
M  V30 2675 H 249.934 3.72597 -2.22157 0
M  V30 2676 H 250.605 5.26249 -1.6663 0
M  V30 2677 H 253.081 4.16011 -0.0859162 0
M  V30 2678 H 251.957 5.47901 0.331063 0
M  V30 2679 H 252.218 4.16887 1.47164 0
M  V30 2680 N 251.277 0.427512 1.51691 0
M  V30 2681 C 252.224 -0.388867 2.275 0
M  V30 2682 C 253.194 -1.02532 1.30677 0
M  V30 2683 O 254.379 -1.0461 1.59566 0
M  V30 2684 C 251.519 -1.48954 3.11298 0
M  V30 2685 C 250.632 -0.872194 4.23104 0
M  V30 2686 C 249.767 -1.94709 4.94228 0
M  V30 2687 C 248.806 -1.30766 5.97969 0
M  V30 2688 N 247.943 -2.32349 6.62539 0
M  V30 2689 H 252.783 0.263997 2.96828 0
M  V30 2690 H 250.32 0.142033 1.46413 0
M  V30 2691 H 252.278 -2.13887 3.58201 0
M  V30 2692 H 250.908 -2.11217 2.44105 0
M  V30 2693 H 249.96 -0.111419 3.80237 0
M  V30 2694 H 251.272 -0.365264 4.97461 0
M  V30 2695 H 250.426 -2.67327 5.44629 0
M  V30 2696 H 249.165 -2.48773 4.1948 0
M  V30 2697 H 248.17 -0.566902 5.4687 0
M  V30 2698 H 249.395 -0.774483 6.74669 0
M  V30 2699 H 247.341 -2.85511 5.90609 0
M  V30 2700 H 247.258 -1.8652 7.3263 0
M  V30 2701 H 248.526 -3.04481 7.17574 0
M  V30 2702 N 252.755 -1.56801 0.158532 0
M  V30 2703 C 254.171 -1.5837 -0.197774 0
M  V30 2704 C 254.371 -1.17334 -1.63814 0
M  V30 2705 O 253.427 -0.878988 -2.36707 0
M  V30 2706 C 254.74 -3.00615 0.0714459 0
M  V30 2707 C 256.288 -3.12999 0.00864533 0
M  V30 2708 C 256.763 -4.57313 0.250685 0
M  V30 2709 N 258.254 -4.62777 0.198014 0
M  V30 2710 C 258.989 -5.72271 0.359642 0
M  V30 2711 N 258.485 -6.90371 0.579625 0
M  V30 2712 N 260.278 -5.61318 0.296438 0
M  V30 2713 H 252.429 -1.81765 1.09887 0
M  V30 2714 H 254.692 -0.841849 0.435884 0
M  V30 2715 H 254.398 -3.35068 1.06874 0
M  V30 2716 H 254.272 -3.71683 -0.642757 0
M  V30 2717 H 256.659 -2.7838 -0.979217 0
M  V30 2718 H 256.74 -2.44393 0.755359 0
M  V30 2719 H 256.384 -4.92639 1.2357 0
M  V30 2720 H 256.314 -5.24061 -0.516489 0
M  V30 2721 H 258.805 -3.77885 0.0331115 0
M  V30 2722 H 259.118 -7.69689 0.69275 0
M  V30 2723 H 257.463 -6.92264 0.616087 0
M  V30 2724 H 260.654 -4.67932 0.125258 0
M  V30 2725 H 260.827 -6.46599 0.425831 0
M  V30 2726 N 254.233 0.115231 -1.57178 0
M  V30 2727 C 255.481 0.820727 -1.84685 0
M  V30 2728 C 255.802 1.80237 -0.744279 0
M  V30 2729 O 255.072 1.94529 0.231375 0
M  V30 2730 H 253.652 0.306084 -0.681411 0
M  V30 2731 H 256.314 0.101656 -1.94635 0
M  V30 2732 H 255.41 1.36366 -2.80733 0
M  V30 2733 N 255.711 1.52812 0.385517 0
M  V30 2734 C 256.674 1.77188 1.45386 0
M  V30 2735 C 257.674 0.641953 1.4743 0
M  V30 2736 O 258.864 0.910033 1.4854 0
M  V30 2737 C 255.996 1.87582 2.8465 0
M  V30 2738 H 257.189 2.72583 1.25054 0
M  V30 2739 H 254.742 1.43586 0.617467 0
M  V30 2740 H 255.477 0.941849 3.10322 0
M  V30 2741 H 255.262 2.69748 2.84567 0
M  V30 2742 H 256.752 2.08102 3.62054 0
M  V30 2743 N 257.189 -0.644168 1.43834 0
M  V30 2744 C 258.605 -0.960875 1.27434 0
M  V30 2745 C 258.805 -2.00499 0.200618 0
M  V30 2746 O 257.861 -2.49018 -0.417906 0
M  V30 2747 C 259.174 -1.43653 2.64167 0
M  V30 2748 C 260.722 -1.55271 2.71772 0
M  V30 2749 C 261.197 -2.06224 4.08944 0
M  V30 2750 N 262.688 -2.13513 4.11055 0
M  V30 2751 C 263.423 -2.54081 5.14033 0
M  V30 2752 N 262.919 -2.9388 6.27381 0
M  V30 2753 N 264.712 -2.54101 5.01387 0
M  V30 2754 H 256.863 0.0465779 2.12349 0
M  V30 2755 H 259.126 -0.0417638 0.94708 0
M  V30 2756 H 258.832 -0.743706 3.43747 0
M  V30 2757 H 258.706 -2.40993 2.90176 0
M  V30 2758 H 261.093 -2.23653 1.92519 0
M  V30 2759 H 261.174 -0.563395 2.49519 0
M  V30 2760 H 260.818 -1.38441 4.88668 0
M  V30 2761 H 260.748 -3.06003 4.28567 0
M  V30 2762 H 263.239 -1.85493 3.29242 0
M  V30 2763 H 263.552 -3.2361 7.01781 0
M  V30 2764 H 261.897 -2.91663 6.30839 0
M  V30 2765 H 265.088 -2.22391 4.11898 0
M  V30 2766 H 265.261 -2.85394 5.81768 0
M  V30 2767 N 258.668 -1.30515 -0.883378 0
M  V30 2768 C 260.079 -1.17509 -1.45081 0
M  V30 2769 C 260.43 0.223605 -1.94922 0
M  V30 2770 O 259.555 1.12041 -1.85137 0
M  V30 2771 C 260.15 -2.12715 -2.63701 0
M  V30 2772 C 258.709 -2.03682 -3.16529 0
M  V30 2773 C 257.856 -2.02706 -1.89224 0
M  V30 2774 H 260.807 -1.42762 -0.693165 0
M  V30 2775 H 260.828 -1.70891 -3.39965 0
M  V30 2776 H 260.34 -3.14505 -2.27395 0
M  V30 2777 H 258.441 -1.05039 -3.57488 0
M  V30 2778 H 258.554 -2.92146 -3.7972 0
M  V30 2779 H 256.918 -1.4753 -2.07622 0
M  V30 2780 H 257.701 -3.06229 -1.55174 0
M  V30 2781 N 260.146 1.09593 -1.13257 0
M  V30 2782 C 261.076 2.18214 -0.830946 0
M  V30 2783 C 262.057 1.68812 0.208966 0
M  V30 2784 O 263.242 1.9408 0.0682666 0
M  V30 2785 C 260.372 3.46051 -0.294296 0
M  V30 2786 C 259.326 4.08778 -1.26826 0
M  V30 2787 C 258.652 5.31419 -0.591449 0
M  V30 2788 C 259.952 4.51476 -2.62615 0
M  V30 2789 H 261.646 2.43703 -1.73923 0
M  V30 2790 H 259.192 1.17128 -0.837675 0
M  V30 2791 H 261.145 4.2134 -0.0709606 0
M  V30 2792 H 259.869 3.20079 0.649366 0
M  V30 2793 H 258.528 3.35505 -1.47756 0
M  V30 2794 H 258.176 5.01727 0.357633 0
M  V30 2795 H 257.876 5.74341 -1.24123 0
M  V30 2796 H 259.4 6.09433 -0.377355 0
M  V30 2797 H 260.814 5.17999 -2.45663 0
M  V30 2798 H 259.211 5.05277 -3.23752 0
M  V30 2799 H 260.281 3.63962 -3.20406 0
M  V30 2800 N 261.624 0.925811 1.2754 0
M  V30 2801 C 262.554 0.440748 2.29303 0
M  V30 2802 C 263.535 -0.497971 1.62648 0
M  V30 2803 O 264.72 -0.403126 1.8997 0
M  V30 2804 C 261.85 -0.309048 3.45922 0
M  V30 2805 C 260.804 0.54166 4.24559 0
M  V30 2806 C 260.13 -0.337191 5.33636 0
M  V30 2807 C 261.43 1.80516 4.90114 0
M  V30 2808 H 263.124 1.29121 2.70126 0
M  V30 2809 H 260.67 0.622323 1.29858 0
M  V30 2810 H 262.623 -0.659315 4.1621 0
M  V30 2811 H 261.347 -1.19352 3.04011 0
M  V30 2812 H 260.006 0.874609 3.56014 0
M  V30 2813 H 259.654 -1.22056 4.87966 0
M  V30 2814 H 259.354 0.228497 5.87156 0
M  V30 2815 H 260.878 -0.683072 6.06767 0
M  V30 2816 H 262.292 1.52307 5.52698 0
M  V30 2817 H 260.689 2.3142 5.53683 0
M  V30 2818 H 261.759 2.52581 4.13921 0
M  V30 2819 N 263.102 -1.41638 0.69111 0
M  V30 2820 C 264.032 -2.3347 0.037248 0
M  V30 2821 C 265.013 -1.51575 -0.771947 0
M  V30 2822 O 266.198 -1.80126 -0.72582 0
M  V30 2823 C 263.328 -3.35354 -0.903064 0
M  V30 2824 C 262.282 -4.27526 -0.201288 0
M  V30 2825 C 261.608 -5.19747 -1.25565 0
M  V30 2826 C 262.908 -5.13959 0.929689 0
M  V30 2827 H 264.602 -2.88397 0.804227 0
M  V30 2828 H 262.148 -1.38669 0.388189 0
M  V30 2829 H 264.101 -3.98519 -1.36969 0
M  V30 2830 H 262.825 -2.78767 -1.70166 0
M  V30 2831 H 261.484 -3.65779 0.245265 0
M  V30 2832 H 261.132 -4.59479 -2.04666 0
M  V30 2833 H 260.832 -5.8225 -0.791128 0
M  V30 2834 H 262.356 -5.85789 -1.72288 0
M  V30 2835 H 263.77 -5.70718 0.543546 0
M  V30 2836 H 262.167 -5.85379 1.32103 0
M  V30 2837 H 263.237 -4.51389 1.77133 0
M  V30 2838 N 264.58 -0.43555 -1.51462 0
M  V30 2839 C 265.808 0.130242 -2.0649 0
M  V30 2840 C 266.223 1.36614 -1.30315 0
M  V30 2841 O 265.58 1.78869 -0.362223 0
M  V30 2842 C 265.631 0.454253 -3.58635 0
M  V30 2843 O 265.352 -0.73259 -4.31931 0
M  V30 2844 C 266.853 1.07091 -4.3017 0
M  V30 2845 H 264.073 0.00871669 -0.670943 0
M  V30 2846 H 266.617 -0.614117 -1.95061 0
M  V30 2847 H 264.772 1.14851 -3.69984 0
M  V30 2848 H 265.186 -0.455787 -5.22516 0
M  V30 2849 H 266.66 1.24764 -5.37716 0
M  V30 2850 H 267.137 2.05144 -3.88346 0
M  V30 2851 H 267.743 0.416089 -4.2326 0
M  V30 2852 N 266.058 1.56714 -0.166846 0
M  V30 2853 C 267.286 2.0112 0.485644 0
M  V30 2854 C 267.701 1.04705 1.57106 0
M  V30 2855 O 267.058 0.0471923 1.82439 0
M  V30 2856 C 267.109 3.45361 1.06808 0
M  V30 2857 O 266.83 4.38092 0.0259995 0
M  V30 2858 C 268.331 4.05145 1.79924 0
M  V30 2859 H 265.551 0.65931 0.124704 0
M  V30 2860 H 268.095 2.02746 -0.267262 0
M  V30 2861 H 266.25 3.44524 1.7715 0
M  V30 2862 H 266.664 5.22519 0.455398 0
M  V30 2863 H 268.138 5.08009 2.15942 0
M  V30 2864 H 268.615 3.46982 2.69258 0
M  V30 2865 H 269.221 4.09672 1.14234 0
M  V30 2866 N 267.536 -0.106894 1.57237 0
M  V30 2867 C 268.466 -1.13148 2.04254 0
M  V30 2868 C 269.447 -1.42476 0.929224 0
M  V30 2869 O 270.632 -1.52709 1.19973 0
M  V30 2870 C 267.762 -2.4545 2.45706 0
M  V30 2871 C 266.716 -2.30558 3.60592 0
M  V30 2872 C 266.042 -3.67931 3.87983 0
M  V30 2873 C 267.342 -1.75597 4.91897 0
M  V30 2874 H 269.036 -0.740374 2.90101 0
M  V30 2875 H 266.582 -0.354696 1.39563 0
M  V30 2876 H 268.535 -3.17389 2.77205 0
M  V30 2877 H 267.259 -2.86475 1.56843 0
M  V30 2878 H 265.918 -1.61067 3.29322 0
M  V30 2879 H 265.566 -4.06462 2.96306 0
M  V30 2880 H 265.266 -3.58817 4.65322 0
M  V30 2881 H 266.79 -4.41356 4.21945 0
M  V30 2882 H 268.204 -2.37364 5.21854 0
M  V30 2883 H 266.601 -1.77272 5.73319 0
M  V30 2884 H 267.671 -0.714451 4.79608 0
M  V30 2885 N 269.014 -1.53014 -0.377408 0
M  V30 2886 C 270.263 -1.67845 -1.11853 0
M  V30 2887 C 270.576 -0.430625 -1.90801 0
M  V30 2888 O 271.782 -0.459261 -2.67587 0
M  V30 2889 C 270.238 -2.96668 -2.03756 0
M  V30 2890 C 269.846 -4.28671 -1.30175 0
M  V30 2891 C 271.59 -3.20865 -2.77932 0
M  V30 2892 C 269.497 -5.48591 -2.20911 0
M  V30 2893 H 268.427 -0.625343 -0.421263 0
M  V30 2894 H 271.078 -1.79514 -0.380409 0
M  V30 2895 H 269.46 -2.78773 -2.8125 0
M  V30 2896 H 270.634 -4.57157 -0.578259 0
M  V30 2897 H 268.949 -4.10825 -0.679108 0
M  V30 2898 H 271.546 -4.07642 -3.46024 0
M  V30 2899 H 271.889 -2.36424 -3.4265 0
M  V30 2900 H 272.422 -3.39379 -2.07525 0
M  V30 2901 H 269.161 -6.35474 -1.6079 0
M  V30 2902 H 268.681 -5.244 -2.91144 0
M  V30 2903 H 270.36 -5.8292 -2.80736 0
M  V30 2904 N 270.492 0.636531 -1.44174 0
M  V30 2905 C 271.769 1.39463 -1.37148 0
M  V30 2906 C 272.149 2.11082 -0.027507 0
M  V30 2907 O 271.497 2.05954 0.989716 0
M  V30 2908 C 271.707 2.36552 -2.56601 0
M  V30 2909 C 273.055 3.00048 -3.00427 0
M  V30 2910 O 274.079 2.46878 -2.56767 0
M  V30 2911 O 272.938 3.96488 -3.76111 0
M  V30 2912 H 270.032 0.623903 -0.542839 0
M  V30 2913 H 272.578 0.662039 -1.56253 0
M  V30 2914 H 271.35 1.82692 -3.46034 0
M  V30 2915 H 270.973 3.17236 -2.39681 0
M  V30 2916 N 271.97 1.30982 0.876444 0
M  V30 2917 C 273.381 1.18277 1.44456 0
M  V30 2918 C 273.732 -0.213265 1.95037 0
M  V30 2919 O 272.857 -1.11057 1.85729 0
M  V30 2920 C 273.452 2.1411 2.62569 0
M  V30 2921 C 272.011 2.05358 3.15444 0
M  V30 2922 C 271.158 2.03706 1.88146 0
M  V30 2923 H 274.109 1.43127 0.685584 0
M  V30 2924 H 274.13 1.72692 3.39054 0
M  V30 2925 H 273.642 3.15706 2.25724 0
M  V30 2926 H 271.743 1.06934 3.56926 0
M  V30 2927 H 271.856 2.94156 3.78166 0
M  V30 2928 H 270.22 1.48629 2.06837 0
M  V30 2929 H 271.003 3.07047 1.53547 0
M  V30 2930 N 273.449 -1.08991 1.13837 0
M  V30 2931 C 274.865 -1.33312 0.877506 0
M  V30 2932 C 275.065 -1.95587 -0.48456 0
M  V30 2933 O 274.121 -2.20509 -1.23013 0
M  V30 2934 C 275.434 -2.24045 2.0056 0
M  V30 2935 C 276.982 -2.37542 2.03821 0
M  V30 2936 C 277.457 -3.31614 3.15905 0
M  V30 2937 N 278.948 -3.39189 3.15445 0
M  V30 2938 C 279.683 -4.11992 3.98811 0
M  V30 2939 N 279.179 -4.87553 4.92203 0
M  V30 2940 N 280.972 -4.07762 3.86894 0
M  V30 2941 H 273.123 -0.669456 2.01574 0
M  V30 2942 H 275.386 -0.357482 0.878015 0
M  V30 2943 H 275.092 -1.85521 2.98789 0
M  V30 2944 H 274.966 -3.24466 1.92359 0
M  V30 2945 H 277.353 -2.75327 1.06202 0
M  V30 2946 H 277.434 -1.36884 2.16093 0
M  V30 2947 H 277.078 -2.94551 4.13766 0
M  V30 2948 H 277.008 -4.32186 3.0087 0
M  V30 2949 H 279.499 -2.85314 2.47799 0
M  V30 2950 H 279.812 -5.40549 5.52292 0
M  V30 2951 H 278.157 -4.86627 4.96205 0
M  V30 2952 H 281.348 -3.47833 3.13257 0
M  V30 2953 H 281.521 -4.64238 4.52092 0
M  V30 2954 N 274.927 -0.932562 -1.27047 0
M  V30 2955 C 275.877 -0.406392 -2.24349 0
M  V30 2956 C 276.861 0.492066 -1.53191 0
M  V30 2957 O 278.053 0.328717 -1.73921 0
M  V30 2958 C 275.182 0.335214 -3.41659 0
M  V30 2959 C 274.268 -0.58004 -4.20115 0
M  V30 2960 N 274.659 -1.70203 -4.76303 0
M  V30 2961 C 272.957 -0.383974 -4.44344 0
M  V30 2962 C 273.658 -2.27167 -5.35509 0
M  V30 2963 N 272.634 -1.56068 -5.20715 0
M  V30 2964 H 276.436 -1.26299 -2.65378 0
M  V30 2965 H 273.95 -0.787408 -1.42034 0
M  V30 2966 H 275.947 0.729142 -4.10474 0
M  V30 2967 H 274.607 1.18868 -3.0216 0
M  V30 2968 H 275.618 -2.08433 -4.74106 0
M  V30 2969 H 272.295 0.428436 -4.15296 0
M  V30 2970 H 273.685 -3.21654 -5.89905 0
M  V30 2971 N 276.405 1.4127 -0.698611 0
M  V30 2972 C 277.338 2.28195 0.0153898 0
M  V30 2973 C 278.316 1.42402 0.784883 0
M  V30 2974 O 279.5 1.71828 0.775067 0
M  V30 2975 C 276.627 3.22685 1.02918 0
M  V30 2976 C 275.673 4.25041 0.352501 0
M  V30 2977 S 276.506 5.27757 -0.907322 0
M  V30 2978 C 277.662 6.25812 0.104796 0
M  V30 2979 H 277.895 2.88403 -0.721858 0
M  V30 2980 H 275.428 1.46452 -0.488996 0
M  V30 2981 H 277.386 3.77655 1.60893 0
M  V30 2982 H 276.047 2.61566 1.73902 0
M  V30 2983 H 275.24 4.91437 1.11828 0
M  V30 2984 H 274.842 3.73682 -0.154254 0
M  V30 2985 H 277.134 6.70705 0.957103 0
M  V30 2986 H 278.077 7.06149 -0.525323 0
M  V30 2987 H 278.485 5.62615 0.460931 0
M  V30 2988 N 277.883 0.443576 1.51229 0
M  V30 2989 C 278.813 -0.355142 2.30783 0
M  V30 2990 C 279.794 -1.0154 1.36468 0
M  V30 2991 O 280.979 -1.01785 1.65389 0
M  V30 2992 C 278.109 -1.45312 3.15439 0
M  V30 2993 C 277.063 -0.916002 4.18083 0
M  V30 2994 C 276.389 -2.1102 4.91299 0
M  V30 2995 C 277.689 0.0538602 5.22272 0
M  V30 2996 H 279.383 0.308767 2.97804 0
M  V30 2997 H 276.929 0.149937 1.43217 0
M  V30 2998 H 278.882 -2.01914 3.69876 0
M  V30 2999 H 277.606 -2.14541 2.46252 0
M  V30 3000 H 276.265 -0.372145 3.64706 0
M  V30 3001 H 275.913 -2.78882 4.18609 0
M  V30 3002 H 275.613 -1.75717 5.60712 0
M  V30 3003 H 277.137 -2.68164 5.48562 0
M  V30 3004 H 278.551 -0.422069 5.71744 0
M  V30 3005 H 276.948 0.319776 5.99247 0
M  V30 3006 H 278.018 0.98858 4.74716 0
M  V30 3007 N 279.361 -1.56624 0.175154 0
M  V30 3008 C 280.607 -1.9729 -0.469506 0
M  V30 3009 C 280.94 -1.06128 -1.62636 0
M  V30 3010 O 280.215 -0.109183 -1.94193 0
M  V30 3011 C 280.498 -3.47375 -0.948804 0
M  V30 3012 C 280.351 -4.49317 0.208491 0
M  V30 3013 C 281.67 -4.00652 -1.82116 0
M  V30 3014 H 278.789 -0.717317 -0.16919 0
M  V30 3015 H 281.431 -1.88184 0.262062 0
M  V30 3016 H 279.581 -3.55267 -1.57219 0
M  V30 3017 H 281.253 -4.53482 0.845682 0
M  V30 3018 H 279.496 -4.25121 0.863395 0
M  V30 3019 H 280.167 -5.51741 -0.169059 0
M  V30 3020 H 282.643 -3.95416 -1.2956 0
M  V30 3021 H 281.519 -5.06075 -2.12554 0
M  V30 3022 H 281.78 -3.44699 -2.7683 0
M  V30 3023 N 280.839 0.0985539 -1.57292 0
M  V30 3024 C 282.086 0.802678 -1.85912 0
M  V30 3025 C 282.414 1.78901 -0.763186 0
M  V30 3026 O 281.669 1.94178 0.243559 0
M  V30 3027 C 281.968 1.56927 -3.21105 0
M  V30 3028 C 281.634 0.725376 -4.45027 0
M  V30 3029 C 280.296 0.492726 -4.78671 0
M  V30 3030 C 282.648 0.138493 -5.21016 0
M  V30 3031 C 279.976 -0.336727 -5.85733 0
M  V30 3032 C 282.328 -0.678264 -6.28953 0
M  V30 3033 C 280.992 -0.921039 -6.61115 0
M  V30 3034 H 280.262 0.293721 -0.680301 0
M  V30 3035 H 282.909 0.0642841 -1.91392 0
M  V30 3036 H 281.214 2.37914 -3.11294 0
M  V30 3037 H 282.911 2.11841 -3.40477 0
M  V30 3038 H 279.501 0.916815 -4.18679 0
M  V30 3039 H 283.685 0.305404 -4.95359 0
M  V30 3040 H 278.941 -0.533836 -6.09065 0
M  V30 3041 H 283.115 -1.1399 -6.87007 0
M  V30 3042 H 280.742 -1.56556 -7.43905 0
M  V30 3043 N 282.317 1.53212 0.369288 0
M  V30 3044 C 283.565 1.68881 1.11012 0
M  V30 3045 C 283.886 0.441285 1.89941 0
M  V30 3046 O 283.156 -0.544623 1.88177 0
M  V30 3047 H 281.736 0.622569 0.412816 0
M  V30 3048 H 284.398 1.90391 0.416802 0
M  V30 3049 H 283.494 2.54822 1.80201 0
M  V30 3050 N 283.795 -0.628877 1.44509 0
M  V30 3051 C 285.206 -1.21054 1.42137 0
M  V30 3052 C 285.557 -1.95715 0.137881 0
M  V30 3053 O 284.682 -2.02554 -0.761645 0
M  V30 3054 C 285.277 -2.20189 2.57493 0
M  V30 3055 C 283.836 -2.73777 2.58308 0
M  V30 3056 C 282.983 -1.48813 2.33987 0
M  V30 3057 H 285.934 -0.41942 1.53057 0
M  V30 3058 H 285.955 -3.02833 2.30375 0
M  V30 3059 H 285.467 -1.6582 3.50892 0
M  V30 3060 H 283.568 -3.32142 1.68856 0
M  V30 3061 H 283.681 -3.19662 3.56865 0
M  V30 3062 H 282.045 -1.77024 1.83124 0
M  V30 3063 H 282.828 -0.963442 3.29504 0
M  V30 3064 N 285.273 -1.31445 -0.869486 0
M  V30 3065 C 286.221 -1.19067 -1.99814 0
M  V30 3066 C 287.215 -0.0988569 -1.69111 0
M  V30 3067 O 288.421 -0.260781 -1.78101 0
M  V30 3068 H 284.796 -0.368677 -0.655425 0
M  V30 3069 H 286.767 -2.14555 -2.07385 0
M  V30 3070 C 285.516 -0.915323 -3.35436 0
M  V30 3071 H 284.839 -1.74759 -3.59582 0
M  V30 3072 H 286.279 -0.868895 -4.15001 0
M  V30 3073 C 284.738 0.381928 -3.34728 0
M  V30 3074 O 285.268 1.39857 -3.76567 0
M  V30 3075 N 283.474 0.398633 -2.87853 0
M  V30 3076 H 283.021 -0.429186 -2.54 0
M  V30 3077 H 282.979 1.26651 -2.87762 0
M  V30 3078 N 286.751 1.08385 -1.14413 0
M  V30 3079 C 287.976 1.85057 -0.936413 0
M  V30 3080 C 288.401 1.81055 0.509971 0
M  V30 3081 O 287.759 1.1958 1.36273 0
M  V30 3082 C 287.807 3.30505 -1.44217 0
M  V30 3083 O 286.911 4.07491 -0.634409 0
M  V30 3084 H 286.252 0.573425 -0.334784 0
M  V30 3085 H 288.782 1.36799 -1.52142 0
M  V30 3086 H 288.792 3.81348 -1.45043 0
M  V30 3087 H 287.467 3.32734 -2.49522 0
M  V30 3088 H 286.044 3.66368 -0.694902 0
M  V30 3089 N 288.23 0.939286 1.26551 0
M  V30 3090 C 289.16 0.465044 2.28822 0
M  V30 3091 C 290.141 -0.480692 1.63167 0
M  V30 3092 O 291.326 -0.382955 1.90387 0
M  V30 3093 C 288.456 -0.27234 3.46231 0
M  V30 3094 C 287.41 0.58666 4.2396 0
M  V30 3095 C 286.736 -0.280573 5.33963 0
M  V30 3096 C 288.036 1.85704 4.88171 0
M  V30 3097 H 289.73 1.31979 2.68741 0
M  V30 3098 H 287.276 0.636061 1.29191 0
M  V30 3099 H 289.229 -0.615133 4.16886 0
M  V30 3100 H 287.953 -1.16121 3.0526 0
M  V30 3101 H 286.612 0.91232 3.55067 0
M  V30 3102 H 286.26 -1.16874 4.89234 0
M  V30 3103 H 285.96 0.29076 5.8688 0
M  V30 3104 H 287.484 -0.618678 6.07458 0
M  V30 3105 H 288.898 1.58161 5.51052 0
M  V30 3106 H 287.295 2.37279 5.51197 0
M  V30 3107 H 288.365 2.56957 4.11219 0
M  V30 3108 N 289.708 -1.40897 0.706093 0
M  V30 3109 C 290.955 -2.01054 0.241531 0
M  V30 3110 C 291.283 -1.55956 -1.16223 0
M  V30 3111 O 290.538 -0.766336 -1.80072 0
M  V30 3112 C 290.837 -3.5646 0.259099 0
M  V30 3113 C 290.503 -4.21106 1.61184 0
M  V30 3114 C 289.165 -4.38479 1.98216 0
M  V30 3115 C 291.517 -4.57256 2.50132 0
M  V30 3116 C 288.845 -4.89282 3.2376 0
M  V30 3117 C 291.197 -5.09454 3.7502 0
M  V30 3118 C 289.861 -5.25037 4.12181 0
M  V30 3119 H 289.131 -0.73571 0.0883825 0
M  V30 3120 H 291.778 -1.68645 0.907257 0
M  V30 3121 H 290.083 -3.88721 -0.490189 0
M  V30 3122 H 291.78 -4.00826 -0.11804 0
M  V30 3123 H 288.37 -4.07966 1.31384 0
M  V30 3124 H 292.554 -4.43479 2.228 0
M  V30 3125 H 287.81 -4.99531 3.52532 0
M  V30 3126 H 291.984 -5.36404 4.44121 0
M  V30 3127 H 289.611 -5.64164 5.09532 0
M  V30 3128 N 291.186 -0.45159 -1.50991 0
M  V30 3129 C 292.118 0.388634 -2.25881 0
M  V30 3130 C 293.131 0.974041 -1.30446 0
M  V30 3131 O 294.32 0.865758 -1.56099 0
M  V30 3132 C 291.42 1.5571 -3.01011 0
M  V30 3133 C 290.593 1.08801 -4.23652 0
M  V30 3134 C 289.652 2.12825 -4.8124 0
M  V30 3135 O 288.678 1.71678 -5.42693 0
M  V30 3136 N 289.88 3.45453 -4.66522 0
M  V30 3137 H 292.645 -0.25329 -2.98628 0
M  V30 3138 H 290.206 -0.281268 -1.59438 0
M  V30 3139 H 292.198 2.24952 -3.3642 0
M  V30 3140 H 290.768 2.10409 -2.31186 0
M  V30 3141 H 289.988 0.22215 -3.93574 0
M  V30 3142 H 291.276 0.752213 -5.03209 0
M  V30 3143 H 290.674 3.81605 -4.17605 0
M  V30 3144 H 289.231 4.10549 -5.06254 0
M  V30 3145 N 292.664 1.56529 -0.183458 0
M  V30 3146 C 293.574 2.22144 0.754272 0
M  V30 3147 C 294.59 1.21684 1.24374 0
M  V30 3148 O 295.766 1.54385 1.29333 0
M  V30 3149 C 292.831 2.85884 1.96141 0
M  V30 3150 C 291.892 4.01579 1.51765 0
M  V30 3151 C 291.125 4.6227 2.66725 0
M  V30 3152 O 291.348 4.21865 3.83909 0
M  V30 3153 O 290.282 5.51936 2.40104 0
M  V30 3154 H 294.108 3.02861 0.225527 0
M  V30 3155 H 291.693 1.49331 0.0453032 0
M  V30 3156 H 293.575 3.26253 2.66715 0
M  V30 3157 H 292.25 2.08154 2.47899 0
M  V30 3158 H 291.157 3.65856 0.781049 0
M  V30 3159 H 292.49 4.80938 1.04686 0
M  V30 3160 N 294.142 -0.090211 1.57342 0
M  V30 3161 C 295.391 -0.791531 1.8552 0
M  V30 3162 C 295.704 -1.79659 0.773441 0
M  V30 3163 O 296.91 -2.54616 0.942497 0
M  V30 3164 C 295.366 -1.45856 3.2902 0
M  V30 3165 C 294.974 -0.493017 4.45279 0
M  V30 3166 C 296.718 -2.14332 3.66418 0
M  V30 3167 C 294.625 -1.16491 5.79814 0
M  V30 3168 H 293.555 -0.299356 0.692027 0
M  V30 3169 H 296.206 -0.0445343 1.83446 0
M  V30 3170 H 294.588 -2.25318 3.2565 0
M  V30 3171 H 295.762 0.270464 4.60006 0
M  V30 3172 H 294.077 0.0863061 4.16311 0
M  V30 3173 H 296.674 -2.65344 4.64216 0
M  V30 3174 H 297.017 -2.93447 2.95287 0
M  V30 3175 H 297.55 -1.41724 3.71698 0
M  V30 3176 H 294.289 -0.41447 6.54188 0
M  V30 3177 H 293.809 -1.8997 5.68921 0
M  V30 3178 H 295.488 -1.69001 6.24538 0
M  V30 3179 N 295.62 -1.53406 -0.361157 0
M  V30 3180 C 296.55 -1.83136 -1.44857 0
M  V30 3181 C 297.531 -0.685174 -1.5569 0
M  V30 3182 O 298.716 -0.93544 -1.70186 0
M  V30 3183 C 295.846 -2.02522 -2.82138 0
M  V30 3184 C 294.8 -3.18302 -2.86126 0
M  V30 3185 C 294.126 -3.22989 -4.26125 0
M  V30 3186 C 295.426 -4.56796 -2.53248 0
M  V30 3187 H 297.12 -2.74201 -1.20226 0
M  V30 3188 H 294.666 -1.31938 -0.576922 0
M  V30 3189 H 296.619 -2.21904 -3.58241 0
M  V30 3190 H 295.343 -1.08172 -3.08166 0
M  V30 3191 H 294.002 -2.98747 -2.12475 0
M  V30 3192 H 293.65 -2.26267 -4.49235 0
M  V30 3193 H 293.35 -4.00781 -4.29708 0
M  V30 3194 H 294.874 -3.44559 -5.04094 0
M  V30 3195 H 296.288 -4.7631 -3.19064 0
M  V30 3196 H 294.685 -5.36862 -2.68141 0
M  V30 3197 H 295.755 -4.61606 -1.48484 0
M  V30 3198 N 297.098 0.621204 -1.44841 0
M  V30 3199 C 298.375 1.38 -1.38619 0
M  V30 3200 C 298.755 2.11041 -0.0498935 0
M  V30 3201 O 298.103 2.06992 0.967816 0
M  V30 3202 C 298.313 2.33817 -2.59096 0
M  V30 3203 C 299.661 2.96844 -3.03593 0
M  V30 3204 O 300.685 2.44141 -2.59371 0
M  V30 3205 O 299.544 3.92476 -3.80296 0
M  V30 3206 H 296.638 0.61811 -0.549426 0
M  V30 3207 H 299.184 0.645429 -1.56947 0
M  V30 3208 H 297.956 1.79012 -3.47952 0
M  V30 3209 H 297.579 3.14676 -2.43032 0
M  V30 3210 N 298.576 1.31904 0.862503 0
M  V30 3211 C 299.486 1.22161 2.00285 0
M  V30 3212 C 300.502 0.136785 1.73462 0
M  V30 3213 O 301.678 0.355994 1.98229 0
M  V30 3214 C 298.743 0.937093 3.33796 0
M  V30 3215 C 297.804 2.10957 3.73893 0
M  V30 3216 C 297.037 1.83853 5.01033 0
M  V30 3217 O 297.26 0.777274 5.65079 0
M  V30 3218 O 296.194 2.69741 5.38074 0
M  V30 3219 H 300.02 2.18008 2.11439 0
M  V30 3220 H 297.605 1.11716 0.991957 0
M  V30 3221 H 299.487 0.794583 4.13841 0
M  V30 3222 H 298.162 0.00871894 3.23699 0
M  V30 3223 H 297.069 2.30752 2.94456 0
M  V30 3224 H 298.402 3.02046 3.88625 0
M  V30 3225 N 300.054 -1.07777 1.14986 0
M  V30 3226 C 301.284 -1.83752 0.944402 0
M  V30 3227 C 301.692 -1.8218 -0.51058 0
M  V30 3228 O 301.035 -1.22852 -1.36576 0
M  V30 3229 C 301.097 -3.32128 1.37592 0
M  V30 3230 C 300.761 -3.57425 2.84775 0
M  V30 3231 C 301.758 -3.5173 3.8286 0
M  V30 3232 C 299.443 -3.8523 3.2234 0
M  V30 3233 C 301.437 -3.73482 5.16517 0
M  V30 3234 C 299.124 -4.06634 4.56171 0
M  V30 3235 C 300.122 -4.00754 5.53069 0
M  V30 3236 O 299.81 -4.2159 6.84483 0
M  V30 3237 H 299.542 -0.58673 0.335744 0
M  V30 3238 H 302.096 -1.36982 1.53052 0
M  V30 3239 H 300.326 -3.79686 0.733165 0
M  V30 3240 H 302.015 -3.89555 1.14024 0
M  V30 3241 H 302.781 -3.30256 3.55184 0
M  V30 3242 H 298.66 -3.88923 2.47508 0
M  V30 3243 H 302.204 -3.68808 5.92137 0
M  V30 3244 H 298.101 -4.27593 4.83564 0
M  V30 3245 H 298.869 -4.38961 6.90837 0
M  V30 3246 N 301.532 -0.945985 -1.26051 0
M  V30 3247 C 302.78 -0.594941 -1.93145 0
M  V30 3248 C 303.101 0.86953 -1.7454 0
M  V30 3249 O 302.371 1.61838 -1.10387 0
M  V30 3250 H 300.951 -0.217044 -0.714773 0
M  V30 3251 H 303.613 -1.20235 -1.53393 0
M  V30 3252 H 302.709 -0.816835 -3.01221 0
M  V30 3253 N 303.011 1.40521 -0.713556 0
M  V30 3254 C 304.26 2.00155 -0.249192 0
M  V30 3255 C 304.573 1.57224 1.16362 0
M  V30 3256 O 305.779 2.09542 1.72639 0
M  V30 3257 C 304.235 3.5773 -0.3946 0
M  V30 3258 C 303.843 4.09635 -1.81392 0
M  V30 3259 C 305.587 4.24499 0.00907364 0
M  V30 3260 C 303.494 5.59707 -1.91003 0
M  V30 3261 H 302.424 0.74868 -0.0894114 0
M  V30 3262 H 305.075 1.60784 -0.884352 0
M  V30 3263 H 303.457 3.94792 0.30911 0
M  V30 3264 H 304.631 3.83955 -2.54785 0
M  V30 3265 H 302.946 3.55456 -2.16888 0
M  V30 3266 H 305.543 5.34683 -0.0420404 0
M  V30 3267 H 305.886 4.02824 1.05065 0
M  V30 3268 H 306.419 3.92536 -0.645007 0
M  V30 3269 H 303.158 5.86234 -2.93275 0
M  V30 3270 H 302.678 5.87258 -1.22019 0
M  V30 3271 H 304.357 6.24776 -1.6812 0
M  V30 3272 N 304.489 0.459591 1.5075 0
M  V30 3273 C 305.9 0.00171547 1.867 0
M  V30 3274 C 306.251 -1.39934 1.37525 0
M  V30 3275 O 305.376 -2.03523 0.735349 0
M  V30 3276 C 305.971 -0.00366298 3.388 0
M  V30 3277 C 304.53 -0.406026 3.74204 0
M  V30 3278 C 303.677 0.38673 2.7459 0
M  V30 3279 H 306.628 0.674413 1.43657 0
M  V30 3280 H 306.649 -0.808371 3.71814 0
M  V30 3281 H 306.161 1.01617 3.74561 0
M  V30 3282 H 304.262 -1.43063 3.4404 0
M  V30 3283 H 304.375 -0.115362 4.78961 0
M  V30 3284 H 302.739 -0.158019 2.54209 0
M  V30 3285 H 303.522 1.40585 3.13194 0
M  V30 3286 N 305.967 -1.56429 0.191757 0
M  V30 3287 C 306.915 -2.20273 -0.747174 0
M  V30 3288 C 307.909 -1.17288 -1.22229 0
M  V30 3289 O 309.115 -1.35441 -1.18557 0
M  V30 3290 H 305.49 -0.705885 -0.259289 0
M  V30 3291 H 307.461 -2.97826 -0.184963 0
M  V30 3292 C 306.21 -2.87356 -1.95759 0
M  V30 3293 H 305.533 -3.66341 -1.60106 0
M  V30 3294 H 306.973 -3.3547 -2.59299 0
M  V30 3295 C 305.432 -1.88213 -2.79423 0
M  V30 3296 O 305.962 -1.38033 -3.7724 0
M  V30 3297 N 304.168 -1.56516 -2.44849 0
M  V30 3298 H 303.715 -1.97516 -1.65364 0
M  V30 3299 H 303.673 -0.904369 -3.01112 0
M  V30 3300 N 307.445 0.0818655 -1.57387 0
M  V30 3301 C 308.408 1.08265 -2.02018 0
M  V30 3302 C 309.408 1.32183 -0.915664 0
M  V30 3303 O 310.598 1.28073 -1.18081 0
M  V30 3304 C 307.73 2.42871 -2.39221 0
M  V30 3305 H 308.923 0.698204 -2.91659 0
M  V30 3306 H 306.476 0.327303 -1.52835 0
M  V30 3307 H 307.211 2.86167 -1.52575 0
M  V30 3308 H 306.996 2.26855 -3.19811 0
M  V30 3309 H 308.486 3.14826 -2.74362 0
M  V30 3310 N 308.923 1.53595 0.353017 0
M  V30 3311 C 310.169 1.71581 1.09232 0
M  V30 3312 C 310.524 0.468328 1.86613 0
M  V30 3313 O 309.817 -0.538911 1.83865 0
M  V30 3314 C 310.011 2.91313 2.07054 0
M  V30 3315 C 309.84 4.27585 1.39287 0
M  V30 3316 C 308.61 4.92233 1.1417 0
M  V30 3317 C 310.808 5.07656 0.824005 0
M  V30 3318 N 308.79 6.124 0.428841 0
M  V30 3319 C 310.161 6.19531 0.241195 0
M  V30 3320 C 312.216 4.92609 0.723922 0
M  V30 3321 C 310.919 7.18002 -0.431952 0
M  V30 3322 C 312.945 5.91365 0.0645334 0
M  V30 3323 C 312.307 7.02571 -0.507347 0
M  V30 3324 H 308.406 0.680987 0.384422 0
M  V30 3325 H 310.99 1.91013 0.377096 0
M  V30 3326 H 309.161 2.73398 2.75877 0
M  V30 3327 H 310.893 2.98062 2.73753 0
M  V30 3328 H 307.648 4.51612 1.42631 0
M  V30 3329 H 308.072 6.76944 0.0874131 0
M  V30 3330 H 312.714 4.06808 1.15181 0
M  V30 3331 H 310.432 8.03384 -0.871758 0
M  V30 3332 H 314.018 5.81799 -0.0121469 0
M  V30 3333 H 312.898 7.77675 -1.0095 0
M  V30 3334 N 310.401 -0.613514 1.45168 0
M  V30 3335 C 311.333 -1.73825 1.4939 0
M  V30 3336 C 312.346 -1.58175 0.385304 0
M  V30 3337 O 313.535 -1.66165 0.652036 0
M  V30 3338 C 310.635 -3.11758 1.32891 0
M  V30 3339 C 309.808 -3.53704 2.57317 0
M  V30 3340 C 308.867 -4.70579 2.35462 0
M  V30 3341 O 307.893 -4.77996 3.09044 0
M  V30 3342 N 309.095 -5.63454 1.39644 0
M  V30 3343 H 311.86 -1.70669 2.46358 0
M  V30 3344 H 309.421 -0.79862 1.40832 0
M  V30 3345 H 311.413 -3.87692 1.1609 0
M  V30 3346 H 309.983 -3.09456 0.442218 0
M  V30 3347 H 309.203 -2.67794 2.89275 0
M  V30 3348 H 310.491 -3.78486 3.40038 0
M  V30 3349 H 309.889 -5.6017 0.789062 0
M  V30 3350 H 308.446 -6.38944 1.28816 0
M  V30 3351 N 311.879 -1.3236 -0.855495 0
M  V30 3352 C 313.127 -1.22629 -1.60644 0
M  V30 3353 C 313.448 0.212136 -1.93843 0
M  V30 3354 O 312.718 1.13666 -1.59552 0
M  V30 3355 H 311.298 -0.450882 -0.595579 0
M  V30 3356 H 313.96 -1.65871 -1.02337 0
M  V30 3357 H 313.056 -1.80832 -2.54374 0
M  V30 3358 N 313.357 1.07166 -1.15556 0
M  V30 3359 C 314.267 2.17947 -0.868116 0
M  V30 3360 C 315.283 1.73297 0.156297 0
M  V30 3361 O 316.459 2.01392 -0.0182327 0
M  V30 3362 C 313.524 3.44789 -0.36355 0
M  V30 3363 C 312.585 4.03996 -1.45209 0
M  V30 3364 C 311.818 5.24783 -0.971508 0
M  V30 3365 O 312.041 5.70109 0.182194 0
M  V30 3366 O 310.975 5.75715 -1.75603 0
M  V30 3367 H 314.801 2.4503 -1.79427 0
M  V30 3368 H 312.386 1.16539 -0.934824 0
M  V30 3369 H 314.268 4.21307 -0.0887113 0
M  V30 3370 H 312.943 3.19253 0.534708 0
M  V30 3371 H 311.85 3.29009 -1.78056 0
M  V30 3372 H 313.183 4.33808 -2.32533 0
M  V30 3373 N 314.835 0.952656 1.25548 0
M  V30 3374 C 316.063 0.623496 1.97282 0
M  V30 3375 C 316.478 -0.803987 1.70826 0
M  V30 3376 O 315.835 -1.53755 0.983147 0
M  V30 3377 C 315.886 0.870209 3.5087 0
M  V30 3378 O 315.607 2.24156 3.76412 0
M  V30 3379 C 317.108 0.553164 4.39835 0
M  V30 3380 H 314.328 0.233931 0.628902 0
M  V30 3381 H 316.872 1.27649 1.59768 0
M  V30 3382 H 315.027 0.263652 3.86502 0
M  V30 3383 H 315.441 2.31021 4.70882 0
M  V30 3384 H 316.915 0.776342 5.46513 0
M  V30 3385 H 317.392 -0.512215 4.36203 0
M  V30 3386 H 317.998 1.13896 4.09766 0
M  V30 3387 N 316.313 -1.40141 0.720998 0
M  V30 3388 C 317.261 -2.3252 0.0608547 0
M  V30 3389 C 318.255 -1.52326 -0.741152 0
M  V30 3390 O 319.461 -1.68089 -0.643911 0
M  V30 3391 H 315.836 -0.751999 0.000876664 0
M  V30 3392 H 317.807 -2.8584 0.856614 0
M  V30 3393 C 316.556 -3.37331 -0.842809 0
M  V30 3394 H 315.879 -3.99108 -0.235084 0
M  V30 3395 H 317.319 -4.04452 -1.27257 0
M  V30 3396 C 315.778 -2.73246 -1.97074 0
M  V30 3397 O 316.308 -2.59998 -3.06209 0
M  V30 3398 N 314.514 -2.31547 -1.75597 0
M  V30 3399 H 314.061 -2.42522 -0.868368 0
M  V30 3400 H 314.019 -1.89007 -2.51244 0
M  V30 3401 N 317.792 -0.46758 -1.50504 0
M  V30 3402 C 319.039 0.0886219 -2.02306 0
M  V30 3403 C 319.367 1.40037 -1.34981 0
M  V30 3404 O 318.622 1.90136 -0.463318 0
M  V30 3405 C 318.921 0.323995 -3.55928 0
M  V30 3406 C 318.587 -0.905618 -4.41712 0
M  V30 3407 C 317.249 -1.24275 -4.64875 0
M  V30 3408 C 319.601 -1.72448 -4.91845 0
M  V30 3409 C 316.929 -2.39888 -5.35417 0
M  V30 3410 C 319.281 -2.87185 -5.63656 0
M  V30 3411 C 317.945 -3.21317 -5.85074 0
M  V30 3412 H 317.215 0.0324291 -0.74029 0
M  V30 3413 H 319.862 -0.620945 -1.81153 0
M  V30 3414 H 318.167 1.11577 -3.75577 0
M  V30 3415 H 319.864 0.76826 -3.93572 0
M  V30 3416 H 316.454 -0.632956 -4.239 0
M  V30 3417 H 320.638 -1.4772 -4.73806 0
M  V30 3418 H 315.894 -2.66611 -5.50208 0
M  V30 3419 H 320.068 -3.50985 -6.01484 0
M  V30 3420 H 317.695 -4.1101 -6.39511 0
M  V30 3421 N 319.27 1.56325 -0.20005 0
M  V30 3422 C 320.516 1.98772 0.431408 0
M  V30 3423 C 320.871 1.0849 1.58895 0
M  V30 3424 O 320.164 0.130331 1.91156 0
M  V30 3425 C 320.358 3.4495 0.935103 0
M  V30 3426 C 320.187 4.49371 -0.172096 0
M  V30 3427 C 318.957 5.0134 -0.631377 0
M  V30 3428 C 321.155 5.04822 -0.982806 0
M  V30 3429 N 319.137 5.89433 -1.71588 0
M  V30 3430 C 320.508 5.89632 -1.91661 0
M  V30 3431 C 322.563 4.87242 -1.02467 0
M  V30 3432 C 321.266 6.58741 -2.88881 0
M  V30 3433 C 323.292 5.57094 -1.98494 0
M  V30 3434 C 322.654 6.41655 -2.90617 0
M  V30 3435 H 318.753 0.771922 0.125144 0
M  V30 3436 H 321.337 1.92266 -0.306883 0
M  V30 3437 H 319.508 3.51946 1.64282 0
M  V30 3438 H 321.24 3.74354 1.53758 0
M  V30 3439 H 317.995 4.73071 -0.223827 0
M  V30 3440 H 318.419 6.38182 -2.25948 0
M  V30 3441 H 323.061 4.21538 -0.326408 0
M  V30 3442 H 320.779 7.23641 -3.5968 0
M  V30 3443 H 324.365 5.45466 -2.0238 0
M  V30 3444 H 323.245 6.94755 -3.63711 0
M  V30 3445 N 320.748 -0.0735177 1.57428 0
M  V30 3446 C 321.996 -0.771472 1.86796 0
M  V30 3447 C 322.317 -1.78201 0.791804 0
M  V30 3448 O 321.587 -1.95074 -0.179718 0
M  V30 3449 H 320.167 -0.28791 0.689287 0
M  V30 3450 H 322.829 -0.0500161 1.94836 0
M  V30 3451 H 321.925 -1.28874 2.8425 0
M  V30 3452 N 322.226 -1.5378 -0.344866 0
M  V30 3453 C 323.451 -1.75211 -1.10977 0
M  V30 3454 C 323.876 -0.48936 -1.81623 0
M  V30 3455 O 323.234 0.557925 -1.72502 0
M  V30 3456 C 323.282 -2.93147 -2.09993 0
M  V30 3457 O 322.386 -2.63203 -3.17487 0
M  V30 3458 H 321.727 -0.581241 -0.321021 0
M  V30 3459 H 324.257 -2.00738 -0.395661 0
M  V30 3460 H 324.267 -3.19898 -2.53237 0
M  V30 3461 H 322.942 -3.84731 -1.5797 0
M  V30 3462 H 321.519 -2.47336 -2.79069 0
M  V30 3463 N 323.704 0.605807 -1.45491 0
M  V30 3464 C 324.932 1.39136 -1.5313 0
M  V30 3465 C 325.347 1.88082 -0.164507 0
M  V30 3466 O 324.704 1.62316 0.834247 0
M  V30 3467 C 324.755 2.59463 -2.51716 0
M  V30 3468 O 324.476 2.12551 -3.83084 0
M  V30 3469 C 325.977 3.52301 -2.6907 0
M  V30 3470 H 323.197 0.425849 -0.51855 0
M  V30 3471 H 325.741 0.73865 -1.90694 0
M  V30 3472 H 323.896 3.20772 -2.17219 0
M  V30 3473 H 324.31 2.90744 -4.36541 0
M  V30 3474 H 325.784 4.33271 -3.42024 0
M  V30 3475 H 326.261 4.02757 -1.75167 0
M  V30 3476 H 326.867 2.96845 -3.04571 0
M  V30 3477 N 325.182 1.32811 0.848464 0
M  V30 3478 C 326.145 1.22194 1.9391 0
M  V30 3479 C 327.145 0.143404 1.60159 0
M  V30 3480 O 328.335 0.394253 1.6968 0
M  V30 3481 C 325.467 0.88067 3.29328 0
M  V30 3482 H 326.66 2.19127 2.04752 0
M  V30 3483 H 324.213 1.16731 1.0394 0
M  V30 3484 H 324.948 -0.0865776 3.24184 0
M  V30 3485 H 324.733 1.66052 3.55203 0
M  V30 3486 H 326.223 0.830871 4.09251 0
M  V30 3487 N 326.66 -1.06551 1.16123 0
M  V30 3488 C 327.906 -1.79567 0.94252 0
M  V30 3489 C 328.239 -1.86869 -0.528547 0
M  V30 3490 O 327.514 -1.35838 -1.39206 0
M  V30 3491 C 327.797 -3.24195 1.56747 0
M  V30 3492 C 327.65 -3.24989 3.10969 0
M  V30 3493 C 328.969 -4.21678 1.25998 0
M  V30 3494 H 326.088 -0.651883 0.343828 0
M  V30 3495 H 328.73 -1.2463 1.43413 0
M  V30 3496 H 326.88 -3.71107 1.14942 0
M  V30 3497 H 328.552 -2.86258 3.61737 0
M  V30 3498 H 326.795 -2.63716 3.44436 0
M  V30 3499 H 327.466 -4.27005 3.49815 0
M  V30 3500 H 329.942 -3.83196 1.62174 0
M  V30 3501 H 328.818 -5.21146 1.7233 0
M  V30 3502 H 329.079 -4.4174 0.178367 0
M  V30 3503 N 328.138 -0.959301 -1.25041 0
M  V30 3504 C 329.363 -0.633507 -1.97488 0
M  V30 3505 C 329.788 0.788555 -1.70773 0
M  V30 3506 O 329.146 1.53394 -0.966431 0
M  V30 3507 C 329.194 -0.904057 -3.49083 0
M  V30 3508 O 328.298 0.0147939 -4.12397 0
M  V30 3509 H 327.639 -0.240368 -0.618966 0
M  V30 3510 H 330.169 -1.28717 -1.59038 0
M  V30 3511 H 330.179 -0.832203 -3.99423 0
M  V30 3512 H 328.854 -1.94048 -3.67856 0
M  V30 3513 H 327.431 -0.109664 -3.72739 0
M  V30 3514 N 329.616 1.39756 -0.72842 0
M  V30 3515 C 330.865 1.99879 -0.270407 0
M  V30 3516 C 331.178 1.58449 1.14688 0
M  V30 3517 O 332.384 2.11362 1.70407 0
M  V30 3518 C 330.84 3.57292 -0.43252 0
M  V30 3519 C 330.448 4.07688 -1.85727 0
M  V30 3520 C 332.192 4.24485 -0.0359507 0
M  V30 3521 C 330.099 5.5765 -1.96928 0
M  V30 3522 H 329.029 0.747689 -0.0973472 0
M  V30 3523 H 331.68 1.59837 -0.901355 0
M  V30 3524 H 330.062 3.95097 0.267219 0
M  V30 3525 H 331.236 3.81231 -2.58843 0
M  V30 3526 H 329.551 3.53135 -2.20646 0
M  V30 3527 H 332.148 5.34609 -0.0987484 0
M  V30 3528 H 332.491 4.03915 1.00787 0
M  V30 3529 H 333.024 3.9183 -0.686604 0
M  V30 3530 H 329.763 5.8309 -2.99476 0
M  V30 3531 H 329.283 5.8593 -1.28241 0
M  V30 3532 H 330.962 6.22957 -1.74737 0
M  V30 3533 N 331.094 0.475555 1.50254 0
M  V30 3534 C 332.371 -0.139685 1.95101 0
M  V30 3535 C 332.751 -1.56555 1.41611 0
M  V30 3536 O 332.099 -2.19956 0.618993 0
M  V30 3537 C 332.309 -0.0784298 3.48912 0
M  V30 3538 C 333.657 -0.265095 4.23772 0
M  V30 3539 O 334.681 -0.154808 3.55863 0
M  V30 3540 O 333.54 -0.488327 5.44314 0
M  V30 3541 H 330.634 -0.109236 0.819754 0
M  V30 3542 H 333.18 0.536276 1.61004 0
M  V30 3543 H 331.952 0.916918 3.80405 0
M  V30 3544 H 331.575 -0.795655 3.89558 0
M  V30 3545 N 332.573 -1.56217 0.208337 0
M  V30 3546 C 333.989 -1.58919 -0.14729 0
M  V30 3547 C 334.189 -1.22486 -1.59998 0
M  V30 3548 O 333.245 -0.953849 -2.3379 0
M  V30 3549 C 334.558 -3.00236 0.167048 0
M  V30 3550 C 336.106 -3.12813 0.108219 0
M  V30 3551 C 336.581 -4.56284 0.396049 0
M  V30 3552 N 338.072 -4.61912 0.345142 0
M  V30 3553 C 338.807 -5.70837 0.541523 0
M  V30 3554 N 338.303 -6.88178 0.798968 0
M  V30 3555 N 340.096 -5.60091 0.474867 0
M  V30 3556 H 332.247 -1.78177 1.15614 0
M  V30 3557 H 334.51 -0.827555 0.462446 0
M  V30 3558 H 334.216 -3.31499 1.1748 0
M  V30 3559 H 334.09 -3.7354 -0.524184 0
M  V30 3560 H 336.477 -2.81354 -0.890157 0
M  V30 3561 H 336.558 -2.41866 0.832729 0
M  V30 3562 H 336.202 -4.88458 1.3918 0
M  V30 3563 H 336.132 -5.25439 -0.349502 0
M  V30 3564 H 338.623 -3.77589 0.153316 0
M  V30 3565 H 338.936 -7.67095 0.93727 0
M  V30 3566 H 337.281 -6.89953 0.836013 0
M  V30 3567 H 340.472 -4.67297 0.274064 0
M  V30 3568 H 340.645 -6.44917 0.631326 0
M  V30 3569 N 334.051 0.0651679 -1.57465 0
M  V30 3570 C 334.981 1.07693 -2.07182 0
M  V30 3571 C 335.962 1.39962 -0.966673 0
M  V30 3572 O 337.147 1.49475 -1.2398 0
M  V30 3573 C 334.277 2.3885 -2.52127 0
M  V30 3574 C 333.231 2.20917 -3.66579 0
M  V30 3575 C 332.557 3.57515 -3.97601 0
M  V30 3576 C 333.857 1.62493 -4.9638 0
M  V30 3577 H 335.551 0.663199 -2.91962 0
M  V30 3578 H 333.097 0.317569 -1.40455 0
M  V30 3579 H 335.05 3.09928 -2.85522 0
M  V30 3580 H 333.774 2.82215 -1.64384 0
M  V30 3581 H 332.433 1.52279 -3.33477 0
M  V30 3582 H 332.081 3.98463 -3.06979 0
M  V30 3583 H 331.781 3.46353 -4.74672 0
M  V30 3584 H 333.305 4.30013 -4.33499 0
M  V30 3585 H 334.719 2.23445 -5.27963 0
M  V30 3586 H 333.116 1.62009 -5.77818 0
M  V30 3587 H 334.186 0.587041 -4.81333 0
M  V30 3588 N 335.529 1.53961 0.336706 0
M  V30 3589 C 336.492 1.81724 1.39675 0
M  V30 3590 C 337.492 0.688532 1.45313 0
M  V30 3591 O 338.682 0.956829 1.45569 0
M  V30 3592 C 335.814 1.96543 2.78538 0
M  V30 3593 H 337.007 2.76424 1.16318 0
M  V30 3594 H 334.56 1.45478 0.571474 0
M  V30 3595 H 335.295 1.0401 3.07168 0
M  V30 3596 H 335.08 2.78665 2.75841 0
M  V30 3597 H 336.57 2.19516 3.5525 0
M  V30 3598 N 337.007 -0.598083 1.45811 0
M  V30 3599 C 337.97 -1.69018 1.54808 0
M  V30 3600 C 338.97 -1.55037 0.426652 0
M  V30 3601 O 340.16 -1.59932 0.690456 0
M  V30 3602 C 337.292 -3.0835 1.45371 0
M  V30 3603 H 338.485 -1.62403 2.52121 0
M  V30 3604 H 336.038 -0.814626 1.33392 0
M  V30 3605 H 336.773 -3.20534 0.492793 0
M  V30 3606 H 336.558 -3.19907 2.26721 0
M  V30 3607 H 338.048 -3.8788 1.54721 0
M  V30 3608 N 338.485 -1.33259 -0.841409 0
M  V30 3609 C 339.715 -1.2742 -1.62628 0
M  V30 3610 C 340.123 0.157604 -1.88542 0
M  V30 3611 O 339.466 1.10938 -1.46419 0
M  V30 3612 C 339.528 -1.97797 -3.00194 0
M  V30 3613 C 339.192 -3.47109 -2.97261 0
M  V30 3614 C 340.189 -4.42358 -2.73159 0
M  V30 3615 C 337.874 -3.89247 -3.17478 0
M  V30 3616 C 339.868 -5.77718 -2.69296 0
M  V30 3617 C 337.555 -5.24713 -3.13241 0
M  V30 3618 C 338.553 -6.1876 -2.89181 0
M  V30 3619 O 338.241 -7.51745 -2.84843 0
M  V30 3620 H 337.973 -0.440436 -0.512827 0
M  V30 3621 H 340.527 -1.76153 -1.05638 0
M  V30 3622 H 338.757 -1.43652 -3.59028 0
M  V30 3623 H 340.446 -1.8549 -3.61038 0
M  V30 3624 H 341.212 -4.11127 -2.57294 0
M  V30 3625 H 337.091 -3.16456 -3.35226 0
M  V30 3626 H 340.635 -6.51097 -2.50436 0
M  V30 3627 H 336.532 -5.55569 -3.28654 0
M  V30 3628 H 337.3 -7.61262 -3.00702 0
M  V30 3629 N 339.963 1.05934 -1.16686 0
M  V30 3630 C 340.91 2.13499 -0.876748 0
M  V30 3631 C 341.88 1.65162 0.176299 0
M  V30 3632 O 343.065 1.90757 0.0407143 0
M  V30 3633 C 340.205 3.42912 -0.387967 0
M  V30 3634 C 339.318 4.04964 -1.50426 0
M  V30 3635 C 338.453 5.22266 -0.970125 0
M  V30 3636 C 337.492 5.76309 -2.06238 0
M  V30 3637 N 336.629 6.84922 -1.54356 0
M  V30 3638 H 341.469 2.37654 -1.7979 0
M  V30 3639 H 339.006 1.16598 -0.896843 0
M  V30 3640 H 340.964 4.17111 -0.086186 0
M  V30 3641 H 339.594 3.18963 0.496235 0
M  V30 3642 H 338.646 3.28277 -1.92193 0
M  V30 3643 H 339.958 4.41122 -2.32836 0
M  V30 3644 H 339.112 6.03506 -0.621743 0
M  V30 3645 H 337.851 4.87564 -0.115377 0
M  V30 3646 H 336.856 4.93704 -2.41942 0
M  V30 3647 H 338.081 6.13062 -2.92115 0
M  V30 3648 H 336.027 6.52131 -0.711406 0
M  V30 3649 H 335.944 7.20043 -2.30379 0
M  V30 3650 H 337.212 7.69832 -1.22387 0
M  V30 3651 N 341.441 0.965919 1.2453 0
M  V30 3652 C 342.718 0.543777 1.87889 0
M  V30 3653 C 343.098 -0.97909 1.87021 0
M  V30 3654 O 342.446 -1.84969 1.3416 0
M  V30 3655 C 342.656 1.13327 3.30088 0
M  V30 3656 C 344.004 1.21707 4.06783 0
M  V30 3657 O 345.028 1.08566 3.39252 0
M  V30 3658 O 343.887 1.42456 5.27606 0
M  V30 3659 H 340.981 0.181054 0.806938 0
M  V30 3660 H 343.527 1.06007 1.32516 0
M  V30 3661 H 342.299 2.17612 3.25209 0
M  V30 3662 H 341.922 0.600911 3.93033 0
M  V30 3663 N 342.919 -1.39368 0.735821 0
M  V30 3664 C 344.165 -2.00794 0.284544 0
M  V30 3665 C 344.498 -1.58255 -1.12557 0
M  V30 3666 O 343.773 -0.811819 -1.76748 0
M  V30 3667 C 344.056 -3.58011 0.387337 0
M  V30 3668 C 343.909 -4.10566 1.83728 0
M  V30 3669 C 345.228 -4.395 -0.22975 0
M  V30 3670 H 342.347 -0.729501 0.104866 0
M  V30 3671 H 344.989 -1.65564 0.93213 0
M  V30 3672 H 343.139 -3.88154 -0.164006 0
M  V30 3673 H 344.811 -3.91139 2.44556 0
M  V30 3674 H 343.054 -3.64095 2.35833 0
M  V30 3675 H 343.725 -5.19702 1.86047 0
M  V30 3676 H 346.201 -4.15406 0.240257 0
M  V30 3677 H 345.077 -5.48752 -0.127485 0
M  V30 3678 H 345.338 -4.22062 -1.3159 0
M  V30 3679 N 344.397 -0.483516 -1.5 0
M  V30 3680 C 345.674 0.129337 -1.95172 0
M  V30 3681 C 346.054 1.55802 -1.4244 0
M  V30 3682 O 345.402 2.19625 -0.630649 0
M  V30 3683 C 345.612 0.0599251 -3.48949 0
M  V30 3684 C 346.96 0.242617 -4.23906 0
M  V30 3685 O 347.984 0.135933 -3.55941 0
M  V30 3686 O 346.843 0.459454 -5.44565 0
M  V30 3687 H 343.937 0.104887 -0.820322 0
M  V30 3688 H 346.483 -0.544807 -1.60717 0
M  V30 3689 H 345.255 -0.937079 -3.79914 0
M  V30 3690 H 344.878 0.774984 -3.89974 0
M  V30 3691 N 345.875 1.56104 -0.216619 0
M  V30 3692 C 347.121 1.98466 0.417033 0
M  V30 3693 C 347.454 1.10403 1.59765 0
M  V30 3694 O 346.729 0.160632 1.93836 0
M  V30 3695 C 347.012 3.49769 0.85637 0
M  V30 3696 C 346.865 4.48606 -0.327546 0
M  V30 3697 C 348.184 4.05339 1.7143 0
M  V30 3698 H 345.303 0.721551 0.150112 0
M  V30 3699 H 347.945 1.87423 -0.311864 0
M  V30 3700 H 346.095 3.5931 1.47745 0
M  V30 3701 H 347.767 4.5108 -0.965618 0
M  V30 3702 H 346.01 4.22682 -0.975805 0
M  V30 3703 H 346.681 5.51995 0.0227149 0
M  V30 3704 H 349.157 3.98712 1.19031 0
M  V30 3705 H 348.033 5.11533 1.99061 0
M  V30 3706 H 348.294 3.51918 2.67593 0
M  V30 3707 N 347.353 -0.0568162 1.57498 0
M  V30 3708 C 348.283 -1.06593 2.0775 0
M  V30 3709 C 349.264 -1.39448 0.974082 0
M  V30 3710 O 350.449 -1.48815 1.24771 0
M  V30 3711 C 347.579 -2.37509 2.5339 0
M  V30 3712 C 346.533 -2.1897 3.67745 0
M  V30 3713 C 345.859 -3.55402 3.99492 0
M  V30 3714 C 347.159 -1.59859 4.97235 0
M  V30 3715 H 348.853 -0.647706 2.9231 0
M  V30 3716 H 346.399 -0.310116 1.40621 0
M  V30 3717 H 348.352 -3.08409 2.87162 0
M  V30 3718 H 347.076 -2.8134 1.65878 0
M  V30 3719 H 345.735 -1.50508 3.3428 0
M  V30 3720 H 345.383 -3.9683 3.09088 0
M  V30 3721 H 345.083 -3.43831 4.76502 0
M  V30 3722 H 346.607 -4.27708 4.35773 0
M  V30 3723 H 348.021 -2.20642 5.29141 0
M  V30 3724 H 346.418 -1.58942 5.78669 0
M  V30 3725 H 347.488 -0.561506 4.81638 0
M  V30 3726 N 348.832 -1.54138 -0.328536 0
M  V30 3727 C 350.072 -1.73827 -1.07534 0
M  V30 3728 C 350.436 -0.498777 -1.85408 0
M  V30 3729 O 351.637 -0.572937 -2.62623 0
M  V30 3730 C 349.908 -2.97573 -1.97952 0
M  V30 3731 S 351.467 -3.38143 -2.79652 0
M  V30 3732 H 348.285 -0.611287 -0.36311 0
M  V30 3733 H 350.887 -1.92306 -0.351931 0
M  V30 3734 H 349.591 -3.85939 -1.39569 0
M  V30 3735 H 349.122 -2.81603 -2.74706 0
M  V30 3736 H 351.137 -2.93052 -4.00418 0
M  V30 3737 N 350.31 0.590341 -1.46126 0
M  V30 3738 C 351.557 1.34882 -1.5104 0
M  V30 3739 C 351.885 1.93849 -0.159021 0
M  V30 3740 O 351.14 1.76544 0.844436 0
M  V30 3741 C 351.439 2.5032 -2.55097 0
M  V30 3742 C 351.105 2.09394 -3.99331 0
M  V30 3743 C 349.767 1.97947 -4.38601 0
M  V30 3744 C 352.119 1.77712 -4.89967 0
M  V30 3745 C 349.447 1.53065 -5.66381 0
M  V30 3746 C 351.799 1.34312 -6.18177 0
M  V30 3747 C 350.463 1.21436 -6.56361 0
M  V30 3748 H 349.733 0.493568 -0.552695 0
M  V30 3749 H 352.38 0.665539 -1.79563 0
M  V30 3750 H 350.685 3.24062 -2.20207 0
M  V30 3751 H 352.382 3.08541 -2.56132 0
M  V30 3752 H 348.972 2.19235 -3.68285 0
M  V30 3753 H 353.156 1.85445 -4.60352 0
M  V30 3754 H 348.412 1.41733 -5.94745 0
M  V30 3755 H 352.586 1.08849 -6.87841 0
M  V30 3756 H 350.213 0.864345 -7.5527 0
M  V30 3757 N 351.788 1.33704 0.83433 0
M  V30 3758 C 353.065 1.16011 1.57483 0
M  V30 3759 C 353.445 -0.27176 2.09343 0
M  V30 3760 O 352.793 -1.27146 1.89858 0
M  V30 3761 C 353.003 2.20507 2.70514 0
M  V30 3762 C 354.351 2.54898 3.39577 0
M  V30 3763 O 355.375 2.19209 2.80759 0
M  V30 3764 O 354.234 3.16158 4.45765 0
M  V30 3765 H 351.328 0.448992 0.694503 0
M  V30 3766 H 353.874 1.453 0.876691 0
M  V30 3767 H 352.646 3.16667 2.29865 0
M  V30 3768 H 352.269 1.92329 3.47987 0
M  V30 3769 N 353.266 -1.05314 1.17247 0
M  V30 3770 C 354.216 -2.11313 0.856196 0
M  V30 3771 C 355.2 -1.60013 -0.168694 0
M  V30 3772 O 356.392 -1.76968 0.0335624 0
M  V30 3773 C 353.521 -3.41301 0.369917 0
M  V30 3774 C 352.607 -3.99401 1.42616 0
M  V30 3775 N 352.998 -4.31481 2.63928 0
M  V30 3776 C 351.296 -4.27126 1.28373 0
M  V30 3777 C 351.997 -4.77799 3.31787 0
M  V30 3778 N 350.973 -4.77843 2.59166 0
M  V30 3779 H 354.775 -2.33976 1.77856 0
M  V30 3780 H 352.289 -1.2295 1.06099 0
M  V30 3781 H 354.286 -4.16713 0.124897 0
M  V30 3782 H 352.946 -3.20072 -0.546253 0
M  V30 3783 H 353.957 -4.21519 3.00902 0
M  V30 3784 H 350.634 -4.15289 0.429111 0
M  V30 3785 H 352.024 -5.11743 4.35395 0
M  V30 3786 N 354.744 -0.972509 -1.24016 0
M  V30 3787 C 356.021 -0.553733 -1.87598 0
M  V30 3788 C 356.401 0.969158 -1.87538 0
M  V30 3789 O 355.749 1.84255 -1.35139 0
M  V30 3790 C 355.959 -1.15076 -3.29482 0
M  V30 3791 C 357.307 -1.23862 -4.06132 0
M  V30 3792 O 358.331 -1.10363 -3.38672 0
M  V30 3793 O 357.19 -1.45252 -5.26844 0
M  V30 3794 H 354.284 -0.185331 -0.805966 0
M  V30 3795 H 356.83 -1.06709 -1.31952 0
M  V30 3796 H 355.602 -2.19333 -3.2405 0
M  V30 3797 H 355.225 -0.621746 -3.92709 0
M  V30 3798 N 356.222 1.38976 -0.743202 0
M  V30 3799 C 357.17 2.32394 -0.0978389 0
M  V30 3800 C 358.164 1.53486 0.716824 0
M  V30 3801 O 359.37 1.69092 0.617088 0
M  V30 3802 H 355.745 0.75189 -0.0128402 0
M  V30 3803 H 357.716 2.84441 -0.901981 0
M  V30 3804 C 356.465 3.38629 0.789036 0
M  V30 3805 H 355.788 3.99432 0.171559 0
M  V30 3806 H 357.228 4.06426 1.20807 0
M  V30 3807 C 355.687 2.76347 1.92702 0
M  V30 3808 O 356.217 2.64836 3.02034 0
M  V30 3809 N 354.423 2.34311 1.71891 0
M  V30 3810 H 353.97 2.43873 0.829675 0
M  V30 3811 H 353.928 1.9298 2.48205 0
M  V30 3812 N 357.7 0.491464 1.49741 0
M  V30 3813 C 358.925 -0.0557177 2.07325 0
M  V30 3814 C 359.35 -1.30925 1.35056 0
M  V30 3815 O 358.708 -1.76733 0.404365 0
M  V30 3816 C 358.756 -0.302074 3.59333 0
M  V30 3817 O 357.86 -1.37868 3.88672 0
M  V30 3818 H 357.201 0.0219956 0.663636 0
M  V30 3819 H 359.731 0.688352 1.92673 0
M  V30 3820 H 359.741 -0.536464 4.04458 0
M  V30 3821 H 358.416 0.61383 4.11345 0
M  V30 3822 H 356.993 -1.12999 3.55367 0
M  V30 3823 N 359.178 -1.55987 0.224894 0
M  V30 3824 C 360.125 -2.20436 -0.68385 0
M  V30 3825 C 361.095 -1.16102 -1.18783 0
M  V30 3826 O 362.28 -1.4447 -1.24632 0
M  V30 3827 C 359.42 -2.89076 -1.88491 0
M  V30 3828 C 358.533 -4.08012 -1.41951 0
M  V30 3829 C 357.668 -4.64426 -2.5784 0
M  V30 3830 C 356.707 -5.75656 -2.08053 0
M  V30 3831 N 355.844 -6.26347 -3.17227 0
M  V30 3832 H 360.684 -2.97727 -0.12754 0
M  V30 3833 H 358.221 -1.47011 -0.0511978 0
M  V30 3834 H 360.179 -3.27059 -2.59014 0
M  V30 3835 H 358.809 -2.14298 -2.41405 0
M  V30 3836 H 357.861 -3.75492 -0.609095 0
M  V30 3837 H 359.173 -4.88375 -1.01447 0
M  V30 3838 H 358.327 -5.04869 -3.3644 0
M  V30 3839 H 357.066 -3.83233 -3.01635 0
M  V30 3840 H 356.071 -5.34712 -1.27916 0
M  V30 3841 H 357.296 -6.58686 -1.65255 0
M  V30 3842 H 355.242 -5.48067 -3.60497 0
M  V30 3843 H 355.159 -7.01843 -2.80986 0
M  V30 3844 H 356.427 -6.71447 -3.95953 0
M  V30 3845 N 360.656 0.0484629 -1.57525 0
M  V30 3846 C 361.933 0.777447 -1.79486 0
M  V30 3847 C 362.313 1.94597 -0.818251 0
M  V30 3848 O 361.661 2.28047 0.143767 0
M  V30 3849 C 361.871 1.22864 -3.26658 0
M  V30 3850 C 363.219 1.65251 -3.91123 0
M  V30 3851 O 364.243 1.32372 -3.3069 0
M  V30 3852 O 363.102 2.26207 -4.97486 0
M  V30 3853 H 360.196 0.374357 -0.737419 0
M  V30 3854 H 362.742 0.0267359 -1.69679 0
M  V30 3855 H 361.514 0.393589 -3.89316 0
M  V30 3856 H 361.137 2.03996 -3.41279 0
M  V30 3857 N 362.134 1.5431 0.320358 0
M  V30 3858 C 363.067 1.78769 1.41834 0
M  V30 3859 C 364.045 0.63783 1.49568 0
M  V30 3860 O 365.229 0.875628 1.66928 0
M  V30 3861 C 362.356 1.90712 2.79905 0
M  V30 3862 C 361.402 3.13023 2.89687 0
M  V30 3863 S 362.235 4.71554 2.53766 0
M  V30 3864 C 363.391 4.86408 3.93902 0
M  V30 3865 H 363.624 2.71619 1.20874 0
M  V30 3866 H 361.157 1.45474 0.517377 0
M  V30 3867 H 363.115 1.98279 3.59438 0
M  V30 3868 H 361.776 0.988343 2.98145 0
M  V30 3869 H 360.969 3.18124 3.90913 0
M  V30 3870 H 360.571 3.03803 2.18128 0
M  V30 3871 H 362.863 4.69241 4.88691 0
M  V30 3872 H 363.806 5.88508 3.93782 0
M  V30 3873 H 364.214 4.14689 3.83005 0
M  V30 3874 N 363.613 -0.582584 1.46437 0
M  V30 3875 C 364.89 -1.34276 1.4223 0
M  V30 3876 C 365.27 -2.10835 0.10583 0
M  V30 3877 O 364.618 -2.09485 -0.912596 0
M  V30 3878 C 364.828 -2.26865 2.65204 0
M  V30 3879 C 366.176 -2.88691 3.11356 0
M  V30 3880 O 367.2 -2.37178 2.65753 0
M  V30 3881 O 366.059 -3.82255 3.90568 0
M  V30 3882 H 363.153 -0.603326 0.565621 0
M  V30 3883 H 365.699 -0.603591 1.58603 0
M  V30 3884 H 364.471 -1.69724 3.52576 0
M  V30 3885 H 364.094 -3.08122 2.5129 0
M  V30 3886 N 365.091 -1.34144 -0.827227 0
M  V30 3887 C 366.054 -1.25264 -1.91942 0
M  V30 3888 C 367.054 -0.168866 -1.59911 0
M  V30 3889 O 368.244 -0.421198 -1.69031 0
M  V30 3890 C 365.376 -0.932952 -3.27885 0
M  V30 3891 H 366.569 -2.22357 -2.0124 0
M  V30 3892 H 364.122 -1.1837 -1.0207 0
M  V30 3893 H 364.857 0.0349917 -3.24281 0
M  V30 3894 H 364.642 -1.71682 -3.52516 0
M  V30 3895 H 366.132 -0.895874 -4.07877 0
M  V30 3896 N 366.569 1.04691 -1.17803 0
M  V30 3897 C 367.499 2.14494 -0.92275 0
M  V30 3898 C 368.48 1.69546 0.137179 0
M  V30 3899 O 369.665 1.94195 -0.0141108 0
M  V30 3900 C 366.795 3.44491 -0.440803 0
M  V30 3901 C 365.749 4.03031 -1.4405 0
M  V30 3902 C 365.075 5.28432 -0.81631 0
M  V30 3903 C 366.375 4.39932 -2.81527 0
M  V30 3904 H 368.069 2.36107 -1.84103 0
M  V30 3905 H 365.615 1.1347 -0.886599 0
M  V30 3906 H 367.568 4.2066 -0.249602 0
M  V30 3907 H 366.292 3.22546 0.513025 0
M  V30 3908 H 364.951 3.28937 -1.61853 0
M  V30 3909 H 364.599 5.02792 0.144511 0
M  V30 3910 H 364.299 5.68559 -1.48371 0
M  V30 3911 H 365.823 6.07284 -0.635496 0
M  V30 3912 H 367.237 5.07113 -2.67412 0
M  V30 3913 H 365.634 4.9109 -3.44892 0
M  V30 3914 H 366.704 3.50045 -3.35554 0
M  V30 3915 N 368.047 0.979072 1.23499 0
M  V30 3916 C 368.98 0.463027 2.23453 0
M  V30 3917 C 369.958 -0.469128 1.55685 0
M  V30 3918 O 371.142 -0.397882 1.84253 0
M  V30 3919 C 368.269 -0.330308 3.37086 0
M  V30 3920 C 367.315 0.545795 4.22993 0
M  V30 3921 S 368.148 1.99285 4.97037 0
M  V30 3922 C 369.304 1.20862 6.1412 0
M  V30 3923 H 369.537 1.31005 2.6688 0
M  V30 3924 H 367.07 0.784965 1.32957 0
M  V30 3925 H 369.028 -0.782027 4.02982 0
M  V30 3926 H 367.689 -1.15244 2.92194 0
M  V30 3927 H 366.882 -0.0638928 5.03959 0
M  V30 3928 H 366.484 0.933705 3.62157 0
M  V30 3929 H 368.776 0.469284 6.75873 0
M  V30 3930 H 369.719 1.99307 6.79472 0
M  V30 3931 H 370.127 0.727992 5.59786 0
M  V30 3932 N 369.525 -1.3858 0.750561 0
M  V30 3933 C 370.488 -2.28836 0.129152 0
M  V30 3934 C 371.488 -1.47045 -0.650714 0
M  V30 3935 O 372.678 -1.6753 -0.477428 0
M  V30 3936 C 369.81 -3.30751 -0.825622 0
M  V30 3937 H 371.003 -2.85294 0.924516 0
M  V30 3938 H 368.556 -1.47489 0.517376 0
M  V30 3939 H 369.291 -2.79378 -1.64677 0
M  V30 3940 H 369.076 -3.91177 -0.268852 0
M  V30 3941 H 370.566 -3.98249 -1.2565 0
M  V30 3942 N 371.003 -0.499398 -1.49478 0
M  V30 3943 C 372.231 0.0425456 -2.06856 0
M  V30 3944 C 372.646 1.30964 -1.35992 0
M  V30 3945 O 372.003 1.77172 -0.437762 0
M  V30 3946 C 372.054 0.301735 -3.60239 0
M  V30 3947 O 371.775 -0.915127 -4.28436 0
M  V30 3948 C 373.276 0.887499 -4.34325 0
M  V30 3949 H 370.496 -0.0197482 -0.670709 0
M  V30 3950 H 373.04 -0.696297 -1.92281 0
M  V30 3951 H 371.195 0.990556 -3.74522 0
M  V30 3952 H 371.609 -0.676993 -5.20113 0
M  V30 3953 H 373.083 1.01845 -5.42523 0
M  V30 3954 H 373.56 1.88488 -3.96698 0
M  V30 3955 H 374.166 0.236196 -4.24644 0
M  V30 3956 N 372.481 1.55866 -0.233164 0
M  V30 3957 C 373.892 1.847 0.272554 0
M  V30 3958 C 374.243 1.15477 1.58617 0
M  V30 3959 O 373.368 0.42841 2.12117 0
M  V30 3960 C 373.963 3.35071 0.501299 0
M  V30 3961 C 372.522 3.6418 0.951304 0
M  V30 3962 C 371.669 2.77292 0.0208209 0
M  V30 3963 H 374.62 1.52005 -0.456074 0
M  V30 3964 H 374.641 3.55906 1.34577 0
M  V30 3965 H 374.153 3.85424 -0.454936 0
M  V30 3966 H 372.254 3.19293 1.92049 0
M  V30 3967 H 372.367 4.72071 0.817675 0
M  V30 3968 H 370.731 2.49131 0.529723 0
M  V30 3969 H 371.514 3.30448 -0.93054 0
M  V30 3970 N 373.959 -0.0401083 1.57549 0
M  V30 3971 C 374.889 -1.04384 2.08869 0
M  V30 3972 C 375.87 -1.38407 0.988817 0
M  V30 3973 O 377.055 -1.47483 1.26342 0
M  V30 3974 C 374.185 -2.34808 2.55895 0
M  V30 3975 C 373.139 -2.15057 3.70047 0
M  V30 3976 C 372.465 -3.51145 4.03239 0
M  V30 3977 C 373.765 -1.54576 4.98902 0
M  V30 3978 H 375.459 -0.616666 2.92981 0
M  V30 3979 H 373.005 -0.295184 1.40942 0
M  V30 3980 H 374.958 -3.05346 2.90417 0
M  V30 3981 H 373.682 -2.79565 1.68853 0
M  V30 3982 H 372.341 -1.46954 3.35857 0
M  V30 3983 H 371.989 -3.93529 3.13279 0
M  V30 3984 H 371.689 -3.38758 4.80122 0
M  V30 3985 H 373.213 -4.23062 4.40285 0
M  V30 3986 H 374.627 -2.15017 5.31451 0
M  V30 3987 H 373.024 -1.52796 5.80322 0
M  V30 3988 H 374.094 -0.51039 4.82206 0
M  V30 3989 N 375.437 -1.54477 -0.31217 0
M  V30 3990 C 376.683 -1.74417 -1.04644 0
M  V30 3991 C 377.038 -0.517641 -1.85306 0
M  V30 3992 O 376.331 0.489973 -1.85229 0
M  V30 3993 C 376.525 -2.967 -1.99258 0
M  V30 3994 C 376.354 -4.31128 -1.27901 0
M  V30 3995 C 375.124 -4.95087 -1.01079 0
M  V30 3996 C 377.322 -5.09662 -0.689119 0
M  V30 3997 N 375.304 -6.13322 -0.266323 0
M  V30 3998 C 376.675 -6.19952 -0.0768523 0
M  V30 3999 C 378.73 -4.94355 -0.593061 0
M  V30 4000 C 377.433 -7.16604 0.622165 0
M  V30 4001 C 379.459 -5.91328 0.0922792 0
M  V30 4002 C 378.821 -7.00978 0.693443 0
M  V30 4003 H 374.92 -0.69094 -0.366231 0
M  V30 4004 H 377.504 -1.91946 -0.326319 0
M  V30 4005 H 375.675 -2.80616 -2.68532 0
M  V30 4006 H 377.407 -3.05216 -2.65755 0
M  V30 4007 H 374.162 -4.55235 -1.30607 0
M  V30 4008 H 374.586 -6.76937 0.0920973 0
M  V30 4009 H 379.228 -4.09719 -1.04355 0
M  V30 4010 H 376.946 -8.0079 1.08445 0
M  V30 4011 H 380.532 -5.81562 0.166396 0
M  V30 4012 H 379.412 -7.74725 1.21533 0
M  V30 4013 N 376.915 0.57481 -1.46744 0
M  V30 4014 C 377.847 1.69804 -1.53946 0
M  V30 4015 C 378.86 1.57098 -0.427106 0
M  V30 4016 O 380.049 1.64378 -0.695863 0
M  V30 4017 C 377.149 3.08125 -1.4111 0
M  V30 4018 C 376.322 3.46757 -2.66605 0
M  V30 4019 C 375.381 4.6417 -2.47855 0
M  V30 4020 O 374.407 4.69634 -3.21609 0
M  V30 4021 N 375.609 5.59553 -1.54534 0
M  V30 4022 H 378.374 1.64077 -2.50796 0
M  V30 4023 H 375.935 0.761 -1.429 0
M  V30 4024 H 377.927 3.84478 -1.26328 0
M  V30 4025 H 376.497 3.08175 -0.524109 0
M  V30 4026 H 375.717 2.6003 -2.96274 0
M  V30 4027 H 377.005 3.69337 -3.49954 0
M  V30 4028 H 376.403 5.57881 -0.937304 0
M  V30 4029 H 374.96 6.35304 -1.45711 0
M  V30 4030 N 378.394 1.34581 0.820102 0
M  V30 4031 C 379.357 1.2628 1.91275 0
M  V30 4032 C 380.357 0.177344 1.59819 0
M  V30 4033 O 381.547 0.430156 1.68806 0
M  V30 4034 C 378.679 0.950327 3.27386 0
M  V30 4035 H 379.872 2.23421 2.00057 0
M  V30 4036 H 377.425 1.1891 1.0144 0
M  V30 4037 H 378.16 -0.0177938 3.24295 0
M  V30 4038 H 377.945 1.73549 3.51601 0
M  V30 4039 H 379.435 0.917492 4.07396 0
M  V30 4040 N 379.872 -1.04064 1.18357 0
M  V30 4041 C 380.805 -2.11618 0.854 0
M  V30 4042 C 381.783 -1.61555 -0.184043 0
M  V30 4043 O 382.967 -1.88395 -0.0630048 0
M  V30 4044 C 380.094 -3.37574 0.27597 0
M  V30 4045 C 379.14 -4.06485 1.2912 0
M  V30 4046 S 379.973 -4.53543 2.84709 0
M  V30 4047 C 381.129 -5.82732 2.28417 0
M  V30 4048 H 381.362 -2.39247 1.76488 0
M  V30 4049 H 378.895 -1.16832 1.00944 0
M  V30 4050 H 380.853 -4.10468 -0.051026 0
M  V30 4051 H 379.514 -3.0806 -0.613028 0
M  V30 4052 H 378.707 -4.97024 0.835633 0
M  V30 4053 H 378.309 -3.39708 1.56443 0
M  V30 4054 H 380.601 -6.56677 1.66677 0
M  V30 4055 H 381.544 -6.33052 3.17256 0
M  V30 4056 H 381.952 -5.37838 1.71436 0
M  V30 4057 N 381.35 -0.985608 -1.22978 0
M  V30 4058 C 382.761 -0.693593 -1.73338 0
M  V30 4059 C 383.112 0.789935 -1.79595 0
M  V30 4060 O 382.237 1.61771 -1.43733 0
M  V30 4061 C 382.832 -1.25235 -3.14804 0
M  V30 4062 C 381.391 -1.00987 -3.626 0
M  V30 4063 C 380.538 -1.37695 -2.40698 0
M  V30 4064 H 383.489 -1.15884 -1.08428 0
M  V30 4065 H 383.51 -0.627329 -3.75293 0
M  V30 4066 H 383.022 -2.33209 -3.10218 0
M  V30 4067 H 381.123 0.0535565 -3.72562 0
M  V30 4068 H 381.236 -1.66812 -4.49122 0
M  V30 4069 H 379.6 -0.795459 -2.4196 0
M  V30 4070 H 380.383 -2.46657 -2.38779 0
M  V30 4071 N 382.828 1.3818 -0.7579 0
M  V30 4072 C 384.075 2.00019 -0.315985 0
M  V30 4073 C 384.403 1.60163 1.10355 0
M  V30 4074 O 383.658 0.83264 1.77103 0
M  V30 4075 C 383.957 3.55252 -0.391218 0
M  V30 4076 C 383.623 4.14834 -1.76702 0
M  V30 4077 C 382.285 4.30821 -2.14353 0
M  V30 4078 C 384.637 4.47658 -2.66931 0
M  V30 4079 C 381.965 4.76928 -3.41696 0
M  V30 4080 C 384.317 4.95184 -3.93669 0
M  V30 4081 C 382.981 5.09377 -4.31383 0
M  V30 4082 H 382.251 0.731923 -0.115627 0
M  V30 4083 H 384.898 1.65161 -0.969223 0
M  V30 4084 H 383.203 3.90273 0.34558 0
M  V30 4085 H 384.9 4.00988 -0.030805 0
M  V30 4086 H 381.49 4.02808 -1.46435 0
M  V30 4087 H 385.674 4.34904 -2.39106 0
M  V30 4088 H 380.93 4.86103 -3.70829 0
M  V30 4089 H 385.104 5.19551 -4.63724 0
M  V30 4090 H 382.731 5.44865 -5.30119 0
M  V30 4091 N 384.306 0.507319 1.49211 0
M  V30 4092 C 385.552 -0.0350047 2.0277 0
M  V30 4093 C 385.885 -1.3606 1.38569 0
M  V30 4094 O 385.16 -1.87321 0.523542 0
M  V30 4095 C 385.443 -0.180916 3.59645 0
M  V30 4096 C 385.296 1.16825 4.34364 0
M  V30 4097 C 386.615 -0.918558 4.30407 0
M  V30 4098 H 383.734 -0.0112473 0.736914 0
M  V30 4099 H 386.376 0.659956 1.7817 0
M  V30 4100 H 384.526 -0.772826 3.80736 0
M  V30 4101 H 386.198 1.79952 4.24753 0
M  V30 4102 H 384.441 1.75594 3.96673 0
M  V30 4103 H 385.112 1.01939 5.42506 0
M  V30 4104 H 387.588 -0.41649 4.1401 0
M  V30 4105 H 386.464 -0.989505 5.39907 0
M  V30 4106 H 386.725 -1.96373 3.96093 0
M  V30 4107 N 385.784 -1.5574 0.241426 0
M  V30 4108 C 387.2 -1.59196 -0.113548 0
M  V30 4109 C 387.4 -1.25852 -1.57364 0
M  V30 4110 O 386.456 -1.00322 -2.31715 0
M  V30 4111 C 387.769 -2.99814 0.230695 0
M  V30 4112 C 389.317 -3.12513 0.174547 0
M  V30 4113 C 389.792 -4.55342 0.492744 0
M  V30 4114 N 391.283 -4.61076 0.443043 0
M  V30 4115 C 392.018 -5.6956 0.662484 0
M  V30 4116 N 391.514 -6.86328 0.944761 0
M  V30 4117 N 393.307 -5.58957 0.593564 0
M  V30 4118 H 385.458 -1.75685 1.19368 0
M  V30 4119 H 387.721 -0.81756 0.479896 0
M  V30 4120 H 387.427 -3.28932 1.24485 0
M  V30 4121 H 387.301 -3.74568 -0.444833 0
M  V30 4122 H 389.688 -2.83179 -0.830277 0
M  V30 4123 H 389.769 -2.40045 0.883845 0
M  V30 4124 H 389.413 -4.85396 1.4951 0
M  V30 4125 H 389.343 -5.26062 -0.23797 0
M  V30 4126 H 391.834 -3.77179 0.233374 0
M  V30 4127 H 392.147 -7.64935 1.09977 0
M  V30 4128 H 390.492 -6.88025 0.982175 0
M  V30 4129 H 393.683 -4.66611 0.373123 0
M  V30 4130 H 393.856 -6.43433 0.767981 0
M  V30 4131 N 387.262 0.0317525 -1.57568 0
M  V30 4132 C 388.225 1.01783 -2.0536 0
M  V30 4133 C 389.225 1.29203 -0.957253 0
M  V30 4134 O 390.415 1.24251 -1.22095 0
M  V30 4135 C 387.547 2.35137 -2.46827 0
M  V30 4136 H 388.74 0.605062 -2.93733 0
M  V30 4137 H 386.293 0.278514 -1.53799 0
M  V30 4138 H 387.028 2.81168 -1.61602 0
M  V30 4139 H 386.813 2.16566 -3.26866 0
M  V30 4140 H 388.303 3.05938 -2.84239 0
M  V30 4141 N 388.74 1.54641 0.303973 0
M  V30 4142 C 389.988 1.73437 1.0375 0
M  V30 4143 C 390.309 0.521449 1.87899 0
M  V30 4144 O 389.579 -0.46432 1.90318 0
M  V30 4145 H 388.159 0.639518 0.386039 0
M  V30 4146 H 390.821 1.91988 0.335675 0
M  V30 4147 H 389.917 2.62235 1.69231 0
M  V30 4148 N 390.218 -0.567019 1.47046 0
M  V30 4149 C 391.634 -0.891975 1.32348 0
M  V30 4150 C 391.834 -1.99154 0.306616 0
M  V30 4151 O 390.89 -2.50883 -0.28532 0
M  V30 4152 C 392.203 -1.29449 2.7141 0
M  V30 4153 C 393.751 -1.40646 2.79621 0
M  V30 4154 C 394.226 -1.84257 4.19301 0
M  V30 4155 N 395.717 -1.91424 4.21795 0
M  V30 4156 C 396.452 -2.26476 5.26779 0
M  V30 4157 N 395.948 -2.60211 6.42077 0
M  V30 4158 N 397.741 -2.27166 5.14152 0
M  V30 4159 H 389.892 0.159074 2.11803 0
M  V30 4160 H 392.155 0.00849752 0.947962 0
M  V30 4161 H 391.861 -0.560448 3.47206 0
M  V30 4162 H 391.735 -2.25273 3.02542 0
M  V30 4163 H 394.122 -2.13133 2.04104 0
M  V30 4164 H 394.203 -0.430339 2.52154 0
M  V30 4165 H 393.847 -1.12343 4.95319 0
M  V30 4166 H 393.777 -2.82855 4.44185 0
M  V30 4167 H 396.268 -1.6778 3.38612 0
M  V30 4168 H 396.581 -2.85956 7.17948 0
M  V30 4169 H 394.926 -2.57813 6.45413 0
M  V30 4170 H 398.117 -2.00244 4.23107 0
M  V30 4171 H 398.29 -2.54154 5.96079 0
M  V30 4172 N 391.696 -1.35014 -0.812953 0
M  V30 4173 C 392.943 -1.27931 -1.56971 0
M  V30 4174 C 393.271 0.148034 -1.93936 0
M  V30 4175 O 392.526 1.11175 -1.61054 0
M  V30 4176 C 392.825 -2.12524 -2.87347 0
M  V30 4177 C 392.491 -3.61401 -2.6963 0
M  V30 4178 C 391.153 -4.01983 -2.64506 0
M  V30 4179 C 393.505 -4.55894 -2.52607 0
M  V30 4180 C 390.833 -5.35235 -2.40293 0
M  V30 4181 C 393.185 -5.89336 -2.29925 0
M  V30 4182 C 391.849 -6.2907 -2.23219 0
M  V30 4183 H 391.119 -0.468131 -0.574399 0
M  V30 4184 H 393.766 -1.66851 -0.939836 0
M  V30 4185 H 392.071 -1.66463 -3.54679 0
M  V30 4186 H 393.768 -2.04383 -3.45005 0
M  V30 4187 H 390.358 -3.29193 -2.74463 0
M  V30 4188 H 394.542 -4.25431 -2.55583 0
M  V30 4189 H 389.798 -5.65028 -2.33566 0
M  V30 4190 H 393.972 -6.62139 -2.15743 0
M  V30 4191 H 391.599 -7.32256 -2.04219 0
M  V30 4192 N 393.175 1.03435 -1.18907 0
M  V30 4193 C 394.107 2.1165 -0.879595 0
M  V30 4194 C 395.12 1.62316 0.125439 0
M  V30 4195 O 396.309 1.78201 -0.103245 0
M  V30 4196 C 393.409 3.37622 -0.294042 0
M  V30 4197 C 392.582 4.16166 -1.34629 0
M  V30 4198 C 391.641 5.20457 -0.775274 0
M  V30 4199 O 390.667 5.50379 -1.4516 0
M  V30 4200 N 391.869 5.78949 0.424126 0
M  V30 4201 H 394.634 2.38791 -1.81105 0
M  V30 4202 H 392.195 1.19681 -1.09032 0
M  V30 4203 H 394.187 4.04572 0.101679 0
M  V30 4204 H 392.757 3.07873 0.541575 0
M  V30 4205 H 391.977 3.44444 -1.91707 0
M  V30 4206 H 393.265 4.65432 -2.05549 0
M  V30 4207 H 392.663 5.56948 0.991209 0
M  V30 4208 H 391.22 6.47334 0.761691 0
M  V30 4209 N 394.653 0.992116 1.22453 0
M  V30 4210 C 396.069 0.702713 1.43297 0
M  V30 4211 C 396.269 -0.726909 1.87932 0
M  V30 4212 O 395.325 -1.49792 2.0327 0
M  V30 4213 C 396.638 1.70762 2.47509 0
M  V30 4214 C 398.186 1.72298 2.61309 0
M  V30 4215 C 398.661 2.71649 3.68742 0
M  V30 4216 N 400.152 2.70239 3.76199 0
M  V30 4217 C 400.887 3.43778 4.58917 0
M  V30 4218 N 400.383 4.26914 5.45633 0
M  V30 4219 N 402.176 3.32487 4.5322 0
M  V30 4220 H 394.327 1.91543 0.917871 0
M  V30 4221 H 396.59 0.826031 0.465162 0
M  V30 4222 H 396.296 2.73059 2.21657 0
M  V30 4223 H 396.17 1.49985 3.46099 0
M  V30 4224 H 398.557 0.706989 2.86506 0
M  V30 4225 H 398.638 1.97143 1.62997 0
M  V30 4226 H 398.282 3.73397 3.44292 0
M  V30 4227 H 398.212 2.44074 4.66622 0
M  V30 4228 H 400.703 2.09912 3.14237 0
M  V30 4229 H 401.016 4.79855 6.05771 0
M  V30 4230 H 399.361 4.31002 5.45218 0
M  V30 4231 H 402.552 2.6698 3.84499 0
M  V30 4232 H 402.725 3.90058 5.17454 0
M  V30 4233 N 396.131 -1.37776 0.765217 0
M  V30 4234 C 397.377 -2.00145 0.327072 0
M  V30 4235 C 397.71 -1.60607 -1.09175 0
M  V30 4236 O 396.985 -0.849127 -1.74986 0
M  V30 4237 C 397.268 -3.57109 0.46319 0
M  V30 4238 C 397.121 -4.06576 1.92395 0
M  V30 4239 C 398.44 -4.39888 -0.136473 0
M  V30 4240 H 395.559 -0.727113 0.120316 0
M  V30 4241 H 398.201 -1.63549 0.967039 0
M  V30 4242 H 396.351 -3.88414 -0.0816358 0
M  V30 4243 H 398.023 -3.85864 2.52798 0
M  V30 4244 H 396.266 -3.59011 2.43503 0
M  V30 4245 H 396.937 -5.15639 1.97028 0
M  V30 4246 H 399.413 -4.14803 0.328317 0
M  V30 4247 H 398.289 -5.48899 -0.0110582 0
M  V30 4248 H 398.55 -4.24758 -1.22608 0
M  V30 4249 N 397.609 -0.515225 -1.4894 0
M  V30 4250 C 399.02 -0.0710067 -1.86565 0
M  V30 4251 C 399.371 1.34733 -1.42623 0
M  V30 4252 O 398.496 2.00653 -0.810379 0
M  V30 4253 C 399.091 -0.122083 -3.3858 0
M  V30 4254 C 397.65 0.266863 -3.75453 0
M  V30 4255 C 396.797 -0.488376 -2.72966 0
M  V30 4256 H 399.748 -0.727266 -1.41055 0
M  V30 4257 H 399.769 0.669818 -3.74558 0
M  V30 4258 H 399.281 -1.15448 -3.70531 0
M  V30 4259 H 397.382 1.30196 -3.49113 0
M  V30 4260 H 397.495 -0.0624811 -4.79059 0
M  V30 4261 H 395.859 0.0635622 -2.54621 0
M  V30 4262 H 396.642 -1.52113 -3.07761 0
M  V30 4263 N 399.087 1.5561 -0.249682 0
M  V30 4264 C 400.05 2.20217 0.635394 0
M  V30 4265 C 401.05 1.17227 1.10066 0
M  V30 4266 O 402.24 1.42292 1.00492 0
M  V30 4267 C 399.372 2.84794 1.87363 0
M  V30 4268 H 400.565 2.99814 0.0716752 0
M  V30 4269 H 398.118 1.563 -0.000153234 0
M  V30 4270 H 398.853 2.09142 2.47851 0
M  V30 4271 H 398.638 3.60241 1.5482 0
M  V30 4272 H 400.128 3.3423 2.5036 0
M  V30 4273 N 400.565 -0.0233959 1.57583 0
M  V30 4274 C 401.811 -0.714119 1.89811 0
M  V30 4275 C 402.144 -1.74702 0.848113 0
M  V30 4276 O 401.419 -1.94023 -0.136135 0
M  V30 4277 C 401.702 -1.37853 3.32669 0
M  V30 4278 C 401.555 -0.358764 4.48367 0
M  V30 4279 C 402.874 -2.31101 3.7454 0
M  V30 4280 H 399.993 -0.25814 0.690314 0
M  V30 4281 H 402.635 0.0230927 1.89986 0
M  V30 4282 H 400.785 -2.00689 3.3265 0
M  V30 4283 H 402.457 0.268115 4.6052 0
M  V30 4284 H 400.7 0.321387 4.32608 0
M  V30 4285 H 401.371 -0.862242 5.45224 0
M  V30 4286 H 403.847 -1.78304 3.75961 0
M  V30 4287 H 402.723 -2.74567 4.75294 0
M  V30 4288 H 402.984 -3.18018 3.0711 0
M  V30 4289 N 402.043 -1.548 -0.295768 0
M  V30 4290 C 403.289 -1.75517 -1.02789 0
M  V30 4291 C 403.644 -0.537266 -1.84746 0
M  V30 4292 O 402.937 0.470299 -1.85738 0
M  V30 4293 C 403.131 -2.98797 -1.961 0
M  V30 4294 C 402.96 -4.3246 -1.23321 0
M  V30 4295 C 401.73 -4.96131 -0.95822 0
M  V30 4296 C 403.928 -5.10365 -0.635024 0
M  V30 4297 N 401.91 -6.1357 -0.201257 0
M  V30 4298 C 403.281 -6.19999 -0.0110937 0
M  V30 4299 C 405.336 -4.94957 -0.540594 0
M  V30 4300 C 404.039 -7.15904 0.698136 0
M  V30 4301 C 406.065 -5.91197 0.154992 0
M  V30 4302 C 405.427 -7.00203 0.767752 0
M  V30 4303 H 401.526 -0.694786 -0.358882 0
M  V30 4304 H 404.11 -1.92281 -0.305943 0
M  V30 4305 H 402.281 -2.83448 -2.6554 0
M  V30 4306 H 404.013 -3.08017 -2.62502 0
M  V30 4307 H 400.768 -4.56595 -1.25771 0
M  V30 4308 H 401.192 -6.76802 0.16389 0
M  V30 4309 H 405.834 -4.10803 -1.00003 0
M  V30 4310 H 403.552 -7.99595 1.16933 0
M  V30 4311 H 407.138 -5.81353 0.228069 0
M  V30 4312 H 406.018 -7.73393 1.29743 0
M  V30 4313 N 403.521 0.559213 -1.47345 0
M  V30 4314 C 404.768 1.31648 -1.53867 0
M  V30 4315 C 405.096 1.93468 -0.200104 0
M  V30 4316 O 404.351 1.78295 0.806799 0
M  V30 4317 C 404.65 2.44853 -2.6035 0
M  V30 4318 C 404.316 2.00876 -4.03683 0
M  V30 4319 C 402.978 1.88599 -4.42701 0
M  V30 4320 C 405.33 1.67279 -4.93626 0
M  V30 4321 C 402.658 1.41017 -5.69501 0
M  V30 4322 C 405.01 1.21169 -6.20887 0
M  V30 4323 C 403.674 1.07487 -6.58789 0
M  V30 4324 H 402.944 0.481734 -0.56304 0
M  V30 4325 H 405.591 0.627301 -1.80934 0
M  V30 4326 H 403.896 3.19318 -2.27032 0
M  V30 4327 H 405.593 3.03039 -2.62619 0
M  V30 4328 H 402.183 2.11374 -3.72853 0
M  V30 4329 H 406.367 1.75638 -4.64182 0
M  V30 4330 H 401.623 1.29086 -5.97618 0
M  V30 4331 H 405.797 0.942345 -6.89995 0
M  V30 4332 H 403.424 0.703946 -7.56934 0
M  V30 4333 N 404.999 1.35443 0.805782 0
M  V30 4334 C 406.229 1.31687 1.59192 0
M  V30 4335 C 406.637 -0.10756 1.88894 0
M  V30 4336 O 405.98 -1.07017 1.49309 0
M  V30 4337 C 406.042 2.05686 2.94845 0
M  V30 4338 C 405.706 3.54868 2.87954 0
M  V30 4339 C 406.703 4.49444 2.61335 0
M  V30 4340 C 404.388 3.97528 3.07046 0
M  V30 4341 C 406.382 5.84655 2.53885 0
M  V30 4342 C 404.069 5.32833 2.99219 0
M  V30 4343 C 405.067 6.26209 2.72674 0
M  V30 4344 O 404.755 7.59032 2.64811 0
M  V30 4345 H 404.487 0.453878 0.50097 0
M  V30 4346 H 407.041 1.78892 1.0093 0
M  V30 4347 H 405.271 1.5312 3.55093 0
M  V30 4348 H 406.96 1.94998 3.55993 0
M  V30 4349 H 407.726 4.17804 2.46303 0
M  V30 4350 H 403.605 3.25233 3.26718 0
M  V30 4351 H 407.149 6.57508 2.33086 0
M  V30 4352 H 403.046 5.64087 3.13809 0
M  V30 4353 H 403.814 7.68967 2.80413 0
M  V30 4354 N 406.477 -1.02803 1.19454 0
M  V30 4355 C 407.725 -1.75869 0.995722 0
M  V30 4356 C 408.046 -1.89138 -0.474543 0
M  V30 4357 O 407.316 -1.42558 -1.34366 0
M  V30 4358 H 405.896 -0.651511 0.365435 0
M  V30 4359 H 408.558 -1.24004 1.50363 0
M  V30 4360 H 407.654 -2.76661 1.44447 0
M  V30 4361 N 407.956 -0.998596 -1.21925 0
M  V30 4362 C 408.919 -0.558679 -2.22287 0
M  V30 4363 C 409.919 0.361525 -1.56683 0
M  V30 4364 O 411.109 0.152695 -1.73529 0
M  V30 4365 C 408.241 0.18661 -3.40389 0
M  V30 4366 H 409.434 -1.4463 -2.62721 0
M  V30 4367 H 406.987 -0.786413 -1.35075 0
M  V30 4368 H 407.722 1.08996 -3.05435 0
M  V30 4369 H 407.507 -0.474188 -3.89222 0
M  V30 4370 H 408.997 0.482367 -4.14805 0
M  V30 4371 N 409.434 1.37368 -0.772513 0
M  V30 4372 C 410.662 2.03942 -0.348588 0
M  V30 4373 C 411.077 1.58264 1.02947 0
M  V30 4374 O 410.434 0.764246 1.65727 0
M  V30 4375 C 410.485 3.5946 -0.38351 0
M  V30 4376 O 410.206 4.03468 -1.70721 0
M  V30 4377 C 411.707 4.4327 0.0519152 0
M  V30 4378 H 408.927 0.654931 -0.145966 0
M  V30 4379 H 411.471 1.75686 -1.04665 0
M  V30 4380 H 409.626 3.86486 0.265978 0
M  V30 4381 H 410.04 4.97991 -1.64636 0
M  V30 4382 H 411.514 5.51995 -0.0236733 0
M  V30 4383 H 411.991 4.2514 1.10238 0
M  V30 4384 H 412.597 4.21471 -0.569415 0
M  V30 4385 N 410.912 0.523116 1.48665 0
M  V30 4386 C 411.842 -0.23231 2.32342 0
M  V30 4387 C 412.823 -0.941637 1.41659 0
M  V30 4388 O 414.008 -0.928751 1.70552 0
M  V30 4389 C 411.138 -1.28387 3.22698 0
M  V30 4390 C 410.092 -0.693098 4.22351 0
M  V30 4391 C 409.418 -1.8468 5.01794 0
M  V30 4392 C 410.718 0.33063 5.21252 0
M  V30 4393 H 412.412 0.466192 2.95748 0
M  V30 4394 H 409.958 0.225643 1.42221 0
M  V30 4395 H 411.911 -1.82024 3.80059 0
M  V30 4396 H 410.635 -2.01186 2.57278 0
M  V30 4397 H 409.294 -0.178299 3.66166 0
M  V30 4398 H 408.942 -2.56301 4.32804 0
M  V30 4399 H 408.642 -1.45747 5.69238 0
M  V30 4400 H 410.166 -2.38709 5.62006 0
M  V30 4401 H 411.58 -0.118407 5.73178 0
M  V30 4402 H 409.977 0.636974 5.9671 0
M  V30 4403 H 411.047 1.23883 4.68808 0
M  V30 4404 N 412.39 -1.55475 0.257931 0
M  V30 4405 C 413.615 -2.04064 -0.370488 0
M  V30 4406 C 414.04 -1.13565 -1.49948 0
M  V30 4407 O 413.398 -0.130781 -1.80828 0
M  V30 4408 C 413.446 -3.50554 -0.845237 0
M  V30 4409 O 412.55 -3.63173 -1.95394 0
M  V30 4410 H 411.891 -0.659257 -0.0792243 0
M  V30 4411 H 414.421 -2.00903 0.387212 0
M  V30 4412 H 414.431 -3.91588 -1.14555 0
M  V30 4413 H 413.106 -4.15896 -0.0191259 0
M  V30 4414 H 411.683 -3.34039 -1.65748 0
M  V30 4415 N 413.868 0.0150385 -1.57593 0
M  V30 4416 C 414.831 0.995996 -2.06428 0
M  V30 4417 C 415.831 1.2818 -0.970903 0
M  V30 4418 O 417.021 1.22949 -1.23406 0
M  V30 4419 C 414.153 2.32506 -2.49307 0
M  V30 4420 H 415.346 0.573873 -2.94358 0
M  V30 4421 H 412.899 0.262186 -1.54085 0
M  V30 4422 H 413.634 2.79438 -1.64575 0
M  V30 4423 H 413.419 2.13087 -3.29145 0
M  V30 4424 H 414.909 3.02906 -2.87468 0
M  V30 4425 N 415.346 1.54954 0.287554 0
M  V30 4426 C 416.279 1.81737 1.3801 0
M  V30 4427 C 417.257 0.669412 1.48181 0
M  V30 4428 O 418.441 0.910839 1.65033 0
M  V30 4429 C 415.568 1.96606 2.75796 0
M  V30 4430 C 414.614 3.19098 2.82982 0
M  V30 4431 S 415.447 4.7683 2.43707 0
M  V30 4432 C 416.603 4.94653 3.83496 0
M  V30 4433 H 416.836 2.74122 1.15085 0
M  V30 4434 H 414.369 1.46538 0.486403 0
M  V30 4435 H 416.327 2.05858 3.55152 0
M  V30 4436 H 414.988 1.05136 2.95982 0
M  V30 4437 H 414.181 3.26344 3.84077 0
M  V30 4438 H 413.783 3.08361 2.11635 0
M  V30 4439 H 416.075 4.79502 4.78628 0
M  V30 4440 H 417.018 5.96728 3.8121 0
M  V30 4441 H 417.426 4.2272 3.74123 0
M  V30 4442 N 416.824 -0.551391 1.4764 0
M  V30 4443 C 417.774 -1.65362 1.56969 0
M  V30 4444 C 418.758 -1.55098 0.428189 0
M  V30 4445 O 419.95 -1.63481 0.678441 0
M  V30 4446 C 417.079 -3.04129 1.59249 0
M  V30 4447 C 416.165 -3.19576 2.78804 0
M  V30 4448 N 416.556 -3.05067 4.03445 0
M  V30 4449 C 414.854 -3.50588 2.75688 0
M  V30 4450 C 415.555 -3.2336 4.83543 0
M  V30 4451 N 414.531 -3.4996 4.15968 0
M  V30 4452 H 418.333 -1.52722 2.51104 0
M  V30 4453 H 415.847 -0.756303 1.43714 0
M  V30 4454 H 417.844 -3.83278 1.64024 0
M  V30 4455 H 416.504 -3.17877 0.662148 0
M  V30 4456 H 417.515 -2.82273 4.34215 0
M  V30 4457 H 414.192 -3.70827 1.91817 0
M  V30 4458 H 415.582 -3.17061 5.92387 0
M  V30 4459 N 418.302 -1.35869 -0.798587 0
M  V30 4460 C 419.549 -1.29588 -1.55606 0
M  V30 4461 C 419.877 0.127456 -1.94082 0
M  V30 4462 O 419.132 1.09461 -1.62225 0
M  V30 4463 C 419.431 -2.1556 -2.85077 0
M  V30 4464 C 419.097 -3.6424 -2.65781 0
M  V30 4465 C 417.759 -4.04766 -2.60227 0
M  V30 4466 C 420.111 -4.58547 -2.47758 0
M  V30 4467 C 417.439 -5.37753 -2.34603 0
M  V30 4468 C 419.791 -5.91742 -2.23662 0
M  V30 4469 C 418.455 -6.31402 -2.16534 0
M  V30 4470 H 417.725 -0.474197 -0.569402 0
M  V30 4471 H 420.372 -1.67839 -0.922086 0
M  V30 4472 H 418.677 -1.70216 -3.52893 0
M  V30 4473 H 420.374 -2.08031 -3.42818 0
M  V30 4474 H 416.964 -3.32086 -2.70956 0
M  V30 4475 H 421.148 -4.28117 -2.51056 0
M  V30 4476 H 416.404 -5.67474 -2.2756 0
M  V30 4477 H 420.578 -6.6439 -2.08708 0
M  V30 4478 H 418.205 -7.34381 -1.96441 0
M  V30 4479 N 419.78 1.02168 -1.19998 0
M  V30 4480 C 421.026 1.75945 -1.00852 0
M  V30 4481 C 421.359 1.88702 0.458828 0
M  V30 4482 O 420.634 1.40911 1.34069 0
M  V30 4483 C 420.917 3.18154 -1.68671 0
M  V30 4484 C 420.77 3.13224 -3.22817 0
M  V30 4485 C 422.089 4.16711 -1.41561 0
M  V30 4486 H 419.208 0.638673 -0.367785 0
M  V30 4487 H 421.85 1.19222 -1.4794 0
M  V30 4488 H 420 3.66586 -1.28636 0
M  V30 4489 H 421.672 2.72635 -3.72112 0
M  V30 4490 H 419.915 2.50751 -3.53986 0
M  V30 4491 H 420.586 4.13728 -3.65422 0
M  V30 4492 H 423.062 3.76913 -1.76284 0
M  V30 4493 H 421.938 5.14391 -1.91553 0
M  V30 4494 H 422.199 4.40774 -0.342193 0
M  V30 4495 N 421.258 1.00505 1.21394 0
M  V30 4496 C 422.674 0.717873 1.42544 0
M  V30 4497 C 422.874 -0.706936 1.88692 0
M  V30 4498 O 421.93 -1.47627 2.04847 0
M  V30 4499 C 423.243 1.73377 2.45684 0
M  V30 4500 C 424.791 1.75059 2.59467 0
M  V30 4501 C 425.266 2.75545 3.6584 0
M  V30 4502 N 426.757 2.74213 3.73311 0
M  V30 4503 C 427.492 3.48626 4.55245 0
M  V30 4504 N 426.988 4.32678 5.41075 0
M  V30 4505 N 428.781 3.37276 4.49668 0
M  V30 4506 H 420.932 1.92506 0.897503 0
M  V30 4507 H 423.195 0.830919 0.456375 0
M  V30 4508 H 422.901 2.75395 2.18748 0
M  V30 4509 H 422.775 1.53647 3.44489 0
M  V30 4510 H 425.162 0.737337 2.8574 0
M  V30 4511 H 425.243 1.98861 1.60897 0
M  V30 4512 H 424.887 3.77028 3.40313 0
M  V30 4513 H 424.817 2.49009 4.64007 0
M  V30 4514 H 427.308 2.13234 3.11993 0
M  V30 4515 H 427.621 4.86253 6.00648 0
M  V30 4516 H 425.966 4.3676 5.40616 0
M  V30 4517 H 429.157 2.71043 3.81646 0
M  V30 4518 H 429.33 3.95524 5.13288 0
M  V30 4519 N 422.737 -1.36956 0.779787 0
M  V30 4520 C 423.983 -1.99787 0.348281 0
M  V30 4521 C 424.316 -1.61756 -1.07465 0
M  V30 4522 O 423.591 -0.867639 -1.74075 0
M  V30 4523 C 423.874 -3.56597 0.50104 0
M  V30 4524 C 423.727 -4.04513 1.96697 0
M  V30 4525 C 425.046 -4.40008 -0.0898097 0
M  V30 4526 H 422.165 -0.725796 0.128022 0
M  V30 4527 H 424.807 -1.62514 0.984331 0
M  V30 4528 H 422.957 -3.88479 -0.0404347 0
M  V30 4529 H 424.629 -3.83161 2.56876 0
M  V30 4530 H 422.872 -3.56408 2.47297 0
M  V30 4531 H 423.543 -5.1352 2.02486 0
M  V30 4532 H 426.019 -4.14431 0.372293 0
M  V30 4533 H 424.895 -5.4888 0.0471605 0
M  V30 4534 H 425.156 -4.26035 -1.18096 0
M  V30 4535 N 424.215 -0.530993 -1.48385 0
M  V30 4536 C 425.145 0.219985 -2.32461 0
M  V30 4537 C 426.126 0.934111 -1.42156 0
M  V30 4538 O 427.311 0.919694 -1.71042 0
M  V30 4539 C 424.441 1.26674 -3.23375 0
M  V30 4540 C 423.395 0.67069 -4.22712 0
M  V30 4541 C 422.721 1.82017 -5.02766 0
M  V30 4542 C 424.021 -0.358268 -5.2107 0
M  V30 4543 H 425.715 -0.48187 -2.95497 0
M  V30 4544 H 423.261 -0.233182 -1.42099 0
M  V30 4545 H 425.214 1.80006 -3.81019 0
M  V30 4546 H 423.938 1.99818 -2.58341 0
M  V30 4547 H 422.597 0.158878 -3.66256 0
M  V30 4548 H 422.245 2.54002 -4.34157 0
M  V30 4549 H 421.945 1.42727 -5.70003 0
M  V30 4550 H 423.469 2.35725 -5.63264 0
M  V30 4551 H 424.883 0.0880081 -5.73232 0
M  V30 4552 H 423.28 -0.66861 -5.96364 0
M  V30 4553 H 424.35 -1.26367 -4.68145 0
M  V30 4554 N 425.693 1.55336 -0.266172 0
M  V30 4555 C 426.97 1.91372 0.404486 0
M  V30 4556 C 427.35 1.18935 1.74407 0
M  V30 4557 O 426.698 0.3132 2.26343 0
M  V30 4558 C 426.908 3.44581 0.553593 0
M  V30 4559 C 428.256 4.16196 0.840618 0
M  V30 4560 O 429.28 3.50426 0.638739 0
M  V30 4561 O 428.139 5.32567 1.22618 0
M  V30 4562 H 425.233 0.797194 0.220025 0
M  V30 4563 H 427.779 1.66813 -0.311664 0
M  V30 4564 H 426.551 3.89357 -0.389498 0
M  V30 4565 H 426.174 3.75065 1.31955 0
M  V30 4566 N 427.171 -0.0066808 1.57599 0
M  V30 4567 C 428.119 -1.01851 2.09115 0
M  V30 4568 C 429.113 -1.36021 1.00969 0
M  V30 4569 O 430.319 -1.34663 1.19439 0
M  V30 4570 H 426.694 -0.346083 0.667631 0
M  V30 4571 H 428.665 -0.558394 2.93129 0
M  V30 4572 C 427.414 -2.30374 2.60429 0
M  V30 4573 H 426.737 -2.04947 3.43273 0
M  V30 4574 H 428.177 -2.99466 3.00161 0
M  V30 4575 C 426.636 -3.00893 1.51542 0
M  V30 4576 O 427.166 -3.91614 0.894484 0
M  V30 4577 N 425.372 -2.62603 1.2445 0
M  V30 4578 H 424.919 -1.88911 1.75129 0
M  V30 4579 H 424.877 -3.10101 0.518137 0
M  V30 4580 N 428.649 -1.55105 -0.279332 0
M  V30 4581 C 429.612 -1.86783 -1.32834 0
M  V30 4582 C 430.612 -0.74199 -1.42657 0
M  V30 4583 O 431.802 -1.0102 -1.41918 0
M  V30 4584 C 428.934 -2.06746 -2.71052 0
M  V30 4585 H 430.127 -2.8055 -1.05979 0
M  V30 4586 H 427.68 -1.47499 -0.517087 0
M  V30 4587 H 428.415 -1.15339 -3.03097 0
M  V30 4588 H 428.2 -2.88711 -2.65309 0
M  V30 4589 H 429.69 -2.32549 -3.46858 0
M  V30 4590 N 430.127 0.543554 -1.4793 0
M  V30 4591 C 431.376 1.29649 -1.54512 0
M  V30 4592 C 431.689 1.94382 -0.217973 0
M  V30 4593 O 432.895 2.71017 -0.161908 0
M  V30 4594 C 431.351 2.35175 -2.72435 0
M  V30 4595 C 430.959 1.76572 -4.11736 0
M  V30 4596 C 432.703 3.11564 -2.8832 0
M  V30 4597 C 430.61 2.79958 -5.20939 0
M  V30 4598 H 429.54 0.487541 -0.57517 0
M  V30 4599 H 432.191 0.575708 -1.74235 0
M  V30 4600 H 430.573 3.10229 -2.46118 0
M  V30 4601 H 431.747 1.07799 -4.48013 0
M  V30 4602 H 430.062 1.12722 -4.00852 0
M  V30 4603 H 432.659 3.88794 -3.67074 0
M  V30 4604 H 433.002 3.66594 -1.97268 0
M  V30 4605 H 433.535 2.43623 -3.14472 0
M  V30 4606 H 430.274 2.29766 -6.13912 0
M  V30 4607 H 429.794 3.47101 -4.89164 0
M  V30 4608 H 431.473 3.43198 -5.48474 0
M  V30 4609 N 431.605 1.3629 0.791371 0
M  V30 4610 C 432.853 1.30154 1.5461 0
M  V30 4611 C 433.174 -0.119409 1.94634 0
M  V30 4612 O 432.444 -1.05924 1.64794 0
M  V30 4613 H 431.024 0.478784 0.573389 0
M  V30 4614 H 433.686 1.70565 0.94306 0
M  V30 4615 H 432.782 1.92762 2.45457 0
M  V30 4616 N 433.083 -1.0153 1.20538 0
M  V30 4617 C 434.331 -1.74803 1.01432 0
M  V30 4618 C 434.652 -1.8963 -0.454456 0
M  V30 4619 O 433.922 -1.43975 -1.32846 0
M  V30 4620 H 432.502 -0.647598 0.372324 0
M  V30 4621 H 435.164 -1.22402 1.5167 0
M  V30 4622 H 434.26 -2.75114 1.47373 0
M  V30 4623 N 434.561 -1.01147 -1.20859 0
M  V30 4624 C 435.508 -0.577354 -2.23462 0
M  V30 4625 C 436.478 0.399922 -1.61214 0
M  V30 4626 O 437.663 0.300515 -1.88419 0
M  V30 4627 C 434.803 0.083372 -3.44999 0
M  V30 4628 C 433.916 -0.937856 -4.21697 0
M  V30 4629 C 433.051 -0.248717 -5.30617 0
M  V30 4630 C 432.09 -1.25705 -5.99053 0
M  V30 4631 N 431.227 -0.594939 -6.99575 0
M  V30 4632 H 436.067 -1.45695 -2.59956 0
M  V30 4633 H 433.604 -0.729428 -1.27741 0
M  V30 4634 H 435.562 0.483535 -4.14388 0
M  V30 4635 H 434.192 0.926645 -3.09214 0
M  V30 4636 H 433.244 -1.45622 -3.51423 0
M  V30 4637 H 434.556 -1.70493 -4.68757 0
M  V30 4638 H 433.71 0.207215 -6.06346 0
M  V30 4639 H 432.449 0.55071 -4.84581 0
M  V30 4640 H 431.454 -1.72343 -5.2209 0
M  V30 4641 H 432.679 -2.05767 -6.47176 0
M  V30 4642 H 430.625 0.184713 -6.5574 0
M  V30 4643 H 430.542 -1.30017 -7.44736 0
M  V30 4644 H 431.81 -0.162427 -7.79331 0
M  V30 4645 N 436.039 1.36541 -0.78704 0
M  V30 4646 C 437.002 2.28413 -0.189778 0
M  V30 4647 C 438.002 1.48719 0.611499 0
M  V30 4648 O 439.192 1.68737 0.432842 0
M  V30 4649 C 436.324 3.32824 0.737638 0
M  V30 4650 H 437.517 2.82743 -0.999831 0
M  V30 4651 H 435.07 1.46065 -0.556298 0
M  V30 4652 H 435.805 2.83646 1.57212 0
M  V30 4653 H 435.59 3.91752 0.165044 0
M  V30 4654 H 437.08 4.0144 1.15047 0
M  V30 4655 O 437.556 0.680126 1.4648 0
M  V30 4656 H 438.247 0.213972 1.92515 0
M  V30 END ATOM
M  V30 BEGIN BOND
M  V30 END BOND
M  V30 END CTAB
M  END
$$$$
