drugbank_target|P07801 Chemotaxis protein methyltransferase (DB01752)
 OpenBabel12092120223D

  0  0  0     0  0            999 V3000
M  V30 BEGIN CTAB
M  V30 COUNTS 4639 4689 0 0 0
M  V30 BEGIN ATOM
M  V30 1 H -0.908 1.98254 -0.117106 0
M  V30 2 N 0 1.576 0 0
M  V30 3 C 0.933 2.03868 1.02534 0
M  V30 4 C 1.911 0.928543 1.3348 0
M  V30 5 O 3.095 1.19667 1.45644 0
M  V30 6 C 0.222 2.43627 2.35294 0
M  V30 7 C -0.732 3.65373 2.2001 0
M  V30 8 S 0.101 5.13292 1.52614 0
M  V30 9 C 1.257 5.56322 2.86805 0
M  V30 10 H 1.49 2.90518 0.631377 0
M  V30 11 H -0.977 1.52953 0.210867 0
M  V30 12 H 0.981 2.67203 3.11629 0
M  V30 13 H -0.358 1.57376 2.7183 0
M  V30 14 H -1.165 3.90944 3.18086 0
M  V30 15 H -1.563 3.418 1.51819 0
M  V30 16 H 0.729 5.58782 3.83104 0
M  V30 17 H 1.672 6.56266 2.65933 0
M  V30 18 H 2.08 4.83886 2.90714 0
M  V30 19 N 1.4781 -0.272755 1.55222 0
M  V30 20 C 2.7061 -1.02255 1.79865 0
M  V30 21 C 3.1211 -1.79924 0.572088 0
M  V30 22 O 2.4781 -1.76638 -0.458842 0
M  V30 23 C 2.5291 -1.98094 3.02392 0
M  V30 24 O 2.2501 -1.23572 4.20311 0
M  V30 25 C 3.7511 -2.84884 3.39641 0
M  V30 26 H 0.9711 -0.302057 0.599168 0
M  V30 27 H 3.5151 -0.303465 2.02236 0
M  V30 28 H 1.6701 -2.65465 2.82147 0
M  V30 29 H 2.0841 -1.88172 4.89583 0
M  V30 30 H 3.5581 -3.47927 4.28545 0
M  V30 31 H 4.0351 -3.54665 2.59055 0
M  V30 32 H 4.6411 -2.23003 3.62146 0
M  V30 33 N 2.9562 -1.48159 -0.537278 0
M  V30 34 C 4.1812 -1.59707 -1.32319 0
M  V30 35 C 4.6062 -0.254859 -1.86365 0
M  V30 36 O 3.9642 0.772378 -1.64024 0
M  V30 37 C 4.0122 -2.6412 -2.45505 0
M  V30 38 O 3.1162 -2.20774 -3.48328 0
M  V30 39 H 2.4572 -0.535791 -0.392204 0
M  V30 40 H 4.9872 -1.94092 -0.647268 0
M  V30 41 H 4.9972 -2.85166 -2.91795 0
M  V30 42 H 3.6722 -3.61567 -2.05528 0
M  V30 43 H 2.2492 -2.09911 -3.08207 0
M  V30 44 N 4.4343 0.785586 -1.36625 0
M  V30 45 C 5.6593 1.57963 -1.34397 0
M  V30 46 C 6.0843 1.87964 0.071526 0
M  V30 47 O 5.4423 1.48182 1.0446 0
M  V30 48 C 5.4903 2.87511 -2.17646 0
M  V30 49 O 4.5943 3.81281 -1.57158 0
M  V30 50 H 3.9353 0.479014 -0.459828 0
M  V30 51 H 6.4653 0.973411 -1.79961 0
M  V30 52 H 6.4753 3.36745 -2.30362 0
M  V30 53 H 5.1503 2.65002 -3.20541 0
M  V30 54 H 3.7273 3.39885 -1.53403 0
M  V30 55 N 5.9124 1.20967 1.01018 0
M  V30 56 C 6.8424 0.988272 2.11555 0
M  V30 57 C 7.8234 -0.0849778 1.69888 0
M  V30 58 O 9.0084 0.0738202 1.9406 0
M  V30 59 C 6.1384 0.546528 3.42973 0
M  V30 60 C 5.0924 1.56375 3.9841 0
M  V30 61 C 4.4184 0.97842 5.25672 0
M  V30 62 C 5.7184 2.94922 4.31066 0
M  V30 63 H 7.4124 1.91276 2.30334 0
M  V30 64 H 4.9584 0.921073 1.1069 0
M  V30 65 H 6.9114 0.378839 4.19694 0
M  V30 66 H 5.6354 -0.413598 3.23971 0
M  V30 67 H 4.2944 1.71891 3.23804 0
M  V30 68 H 3.9424 0.0101688 5.02999 0
M  V30 69 H 3.6424 1.65784 5.63728 0
M  V30 70 H 5.1664 0.821939 6.05043 0
M  V30 71 H 6.5804 2.8288 4.9865 0
M  V30 72 H 4.9774 3.5983 4.80253 0
M  V30 73 H 6.0474 3.4616 3.39561 0
M  V30 74 N 7.3905 -1.2043 1.01659 0
M  V30 75 C 8.8015 -1.71517 0.737482 0
M  V30 76 C 9.1525 -1.81547 -0.743973 0
M  V30 77 O 8.2775 -1.47803 -1.58061 0
M  V30 78 C 8.8725 -3.11515 1.33206 0
M  V30 79 C 7.4315 -3.59912 1.10183 0
M  V30 80 C 6.5785 -2.37116 1.43776 0
M  V30 81 H 9.5295 -1.05444 1.18606 0
M  V30 82 H 9.5505 -3.73575 0.722636 0
M  V30 83 H 9.0625 -3.04182 2.41028 0
M  V30 84 H 7.1635 -3.72577 0.0412756 0
M  V30 85 H 7.2765 -4.44731 1.78188 0
M  V30 86 H 5.6405 -2.39857 0.856778 0
M  V30 87 H 6.4235 -2.32424 2.52654 0
M  V30 88 N 8.8686 -0.792821 -1.36206 0
M  V30 89 C 10.0936 -0.377701 -2.03932 0
M  V30 90 C 10.5186 0.998947 -1.59382 0
M  V30 91 O 9.8766 1.64421 -0.763903 0
M  V30 92 C 9.9246 -0.453635 -3.57735 0
M  V30 93 O 9.0286 0.538151 -4.08874 0
M  V30 94 H 8.3696 -0.159855 -0.644471 0
M  V30 95 H 10.8996 -1.07488 -1.7409 0
M  V30 96 H 10.9096 -0.318464 -4.06755 0
M  V30 97 H 9.5846 -1.45784 -3.89512 0
M  V30 98 H 8.1616 0.364359 -3.71116 0
M  V30 99 N 10.3467 1.47872 -0.545128 0
M  V30 100 C 11.5947 2.02093 -0.016553 0
M  V30 101 C 11.9157 1.42305 1.3332 0
M  V30 102 O 11.1857 0.593853 1.86682 0
M  V30 103 H 9.7657 0.746993 -0.00313038 0
M  V30 104 H 12.4277 1.81414 -0.712397 0
M  V30 105 H 11.5237 3.11996 0.0805422 0
M  V30 106 N 11.8248 0.280983 1.55075 0
M  V30 107 C 12.7568 -0.637268 2.20163 0
M  V30 108 C 13.7698 -1.11298 1.18813 0
M  V30 109 O 14.9588 -1.03388 1.4551 0
M  V30 110 C 12.0588 -1.88199 2.81841 0
M  V30 111 C 11.2318 -1.55211 4.08936 0
M  V30 112 C 10.2908 -2.64991 4.54606 0
M  V30 113 O 9.3168 -2.30929 5.2025 0
M  V30 114 N 10.5188 -3.95161 4.25238 0
M  V30 115 H 13.2838 -0.0801694 2.99593 0
M  V30 116 H 10.8448 0.102329 1.61576 0
M  V30 117 H 12.8368 -2.60948 3.09335 0
M  V30 118 H 11.4068 -2.34799 2.06369 0
M  V30 119 H 10.6268 -0.658185 3.88666 0
M  V30 120 H 11.9148 -1.30681 4.91732 0
M  V30 121 H 11.3128 -4.25653 3.72607 0
M  V30 122 H 9.8698 -4.6427 4.5749 0
M  V30 123 N 13.3029 -1.57598 0.00835791 0
M  V30 124 C 14.5309 -1.95214 -0.68549 0
M  V30 125 C 14.9459 -0.883706 -1.66841 0
M  V30 126 O 14.3029 0.136565 -1.81988 0
M  V30 127 C 14.3539 -3.32865 -1.41007 0
M  V30 128 O 14.0749 -4.35609 -0.466552 0
M  V30 129 C 15.5759 -3.84991 -2.19765 0
M  V30 130 H 12.7959 -0.643422 -0.190392 0
M  V30 131 H 15.3399 -2.04406 0.0619607 0
M  V30 132 H 13.4949 -3.24956 -2.10908 0
M  V30 133 H 13.9089 -5.15288 -0.978699 0
M  V30 134 H 15.3829 -4.8371 -2.65948 0
M  V30 135 H 15.8599 -3.18137 -3.02796 0
M  V30 136 H 16.4659 -3.96103 -1.54864 0
M  V30 137 N 14.781 0.264519 -1.55364 0
M  V30 138 C 16.006 1.01726 -1.80739 0
M  V30 139 C 16.431 1.78836 -0.583044 0
M  V30 140 O 15.789 1.75167 0.467566 0
M  V30 141 C 15.837 1.94482 -3.03659 0
M  V30 142 O 14.941 3.03386 -2.7934 0
M  V30 143 H 14.282 0.290395 -0.597132 0
M  V30 144 H 16.812 0.290854 -2.02522 0
M  V30 145 H 16.822 2.36278 -3.32621 0
M  V30 146 H 15.497 1.37772 -3.92418 0
M  V30 147 H 14.074 2.65844 -2.61498 0
M  V30 148 N 16.2591 1.48442 0.529413 0
M  V30 149 C 17.5051 1.5672 1.28711 0
M  V30 150 C 17.8381 0.2406 1.92704 0
M  V30 151 O 17.1131 -0.753454 1.79313 0
M  V30 152 C 17.3961 2.70587 2.37603 0
M  V30 153 C 17.2491 4.12953 1.78297 0
M  V30 154 C 18.5681 2.80212 3.39366 0
M  V30 155 H 15.6871 0.570474 0.466613 0
M  V30 156 H 18.3291 1.80617 0.589706 0
M  V30 157 H 16.4791 2.50342 2.97088 0
M  V30 158 H 18.1511 4.44639 1.22858 0
M  V30 159 H 16.3941 4.19927 1.0883 0
M  V30 160 H 17.0651 4.88448 2.57144 0
M  V30 161 H 19.5411 2.98553 2.89836 0
M  V30 162 H 18.4171 3.61611 4.12951 0
M  V30 163 H 18.6781 1.88393 3.99951 0
M  V30 164 N 17.7372 -0.778329 1.37039 0
M  V30 165 C 18.6672 -1.90546 1.34962 0
M  V30 166 C 19.6482 -1.68681 0.219274 0
M  V30 167 O 20.8332 -1.89634 0.418624 0
M  V30 168 C 17.9632 -3.27734 1.14925 0
M  V30 169 C 16.9172 -3.64147 2.24902 0
M  V30 170 C 16.2432 -4.99806 1.89996 0
M  V30 171 C 17.5432 -3.71579 3.67051 0
M  V30 172 H 19.2372 -1.92541 2.29277 0
M  V30 173 H 16.7832 -0.924948 1.10366 0
M  V30 174 H 18.7362 -4.06215 1.12104 0
M  V30 175 H 17.4602 -3.26154 0.170631 0
M  V30 176 H 16.1192 -2.8797 2.26868 0
M  V30 177 H 15.7672 -4.94759 0.906796 0
M  V30 178 H 15.4672 -5.25139 2.63634 0
M  V30 179 H 16.9912 -5.80694 1.88749 0
M  V30 180 H 18.4052 -4.40227 3.67251 0
M  V30 181 H 16.8022 -4.08405 4.39688 0
M  V30 182 H 17.8722 -2.72404 4.01154 0
M  V30 183 N 19.2153 -1.21501 -1.00376 0
M  V30 184 C 20.1453 -0.999478 -2.11028 0
M  V30 185 C 21.1263 0.0759671 -1.6993 0
M  V30 186 O 22.3113 -0.0841106 -1.94018 0
M  V30 187 C 19.4413 -0.564709 -3.42678 0
M  V30 188 C 18.3953 -1.58486 -3.97576 0
M  V30 189 C 17.7213 -1.00628 -5.25146 0
M  V30 190 C 19.0213 -2.97204 -4.29496 0
M  V30 191 H 20.7153 -1.92495 -2.29317 0
M  V30 192 H 18.2613 -0.92693 -1.102 0
M  V30 193 H 20.2143 -0.401091 -4.19487 0
M  V30 194 H 18.9383 0.396411 -3.24185 0
M  V30 195 H 17.5973 -1.73606 -3.22888 0
M  V30 196 H 17.2453 -0.0368439 -5.02987 0
M  V30 197 H 16.9453 -1.68771 -5.62841 0
M  V30 198 H 18.4693 -0.854015 -6.04598 0
M  V30 199 H 19.8833 -2.8552 -4.97143 0
M  V30 200 H 18.2803 -3.62372 -4.78338 0
M  V30 201 H 19.3503 -3.47956 -3.3772 0
M  V30 202 N 20.6934 1.19889 -1.02296 0
M  V30 203 C 21.6254 2.22334 -0.556787 0
M  V30 204 C 22.6384 1.58674 0.364199 0
M  V30 205 O 23.8274 1.77768 0.161533 0
M  V30 206 C 20.9274 3.38257 0.208694 0
M  V30 207 C 20.1004 4.31504 -0.71577 0
M  V30 208 C 19.1594 5.262 0.00325597 0
M  V30 209 O 18.1854 5.65798 -0.621357 0
M  V30 210 N 19.3874 5.66303 1.27599 0
M  V30 211 H 22.1524 2.62957 -1.43784 0
M  V30 212 H 19.7134 1.34495 -0.901261 0
M  V30 213 H 21.7054 3.98616 0.699111 0
M  V30 214 H 20.2754 2.96472 0.991102 0
M  V30 215 H 19.4954 3.69016 -1.38638 0
M  V30 216 H 20.7834 4.9072 -1.34428 0
M  V30 217 H 20.1814 5.36155 1.80429 0
M  V30 218 H 18.7384 6.28942 1.71102 0
M  V30 219 N 22.1715 0.800033 1.35784 0
M  V30 220 C 23.1045 0.151499 2.27697 0
M  V30 221 C 24.0825 -0.678663 1.4776 0
M  V30 222 O 25.2665 -0.647358 1.77035 0
M  V30 223 C 22.3935 -0.790492 3.29346 0
M  V30 224 C 21.4395 -0.0407832 4.26481 0
M  V30 225 S 22.2725 1.29077 5.19711 0
M  V30 226 C 23.4285 0.353055 6.24903 0
M  V30 227 H 23.6615 0.930796 2.82353 0
M  V30 228 H 21.1945 0.594767 1.42485 0
M  V30 229 H 23.1525 -1.3285 3.88409 0
M  V30 230 H 21.8135 -1.54312 2.73581 0
M  V30 231 H 21.0065 -0.755971 4.98298 0
M  V30 232 H 20.6085 0.427063 3.71554 0
M  V30 233 H 22.9005 -0.464147 6.75908 0
M  V30 234 H 23.8435 1.04023 7.00418 0
M  V30 235 H 24.2515 -0.0483344 5.64479 0
M  V30 236 N 23.6496 -1.47581 0.552962 0
M  V30 237 C 24.8776 -2.06875 0.0320556 0
M  V30 238 C 25.2926 -1.40625 -1.25976 0
M  V30 239 O 24.6496 -0.501349 -1.75479 0
M  V30 240 C 24.7006 -3.61092 -0.17167 0
M  V30 241 O 24.4216 -4.24858 1.06899 0
M  V30 242 C 25.9226 -4.37242 -0.730344 0
M  V30 243 H 23.1426 -0.669561 0.043915 0
M  V30 244 H 25.6866 -1.89646 0.765163 0
M  V30 245 H 23.8416 -3.7785 -0.854894 0
M  V30 246 H 24.2556 -5.17334 0.864059 0
M  V30 247 H 25.7296 -5.45842 -0.822203 0
M  V30 248 H 26.2066 -4.03235 -1.74064 0
M  V30 249 H 26.8126 -4.25219 -0.0829543 0
M  V30 250 N 25.1277 -0.289203 -1.54924 0
M  V30 251 C 26.0597 0.625583 -2.20497 0
M  V30 252 C 27.0727 1.10667 -1.19402 0
M  V30 253 O 28.2617 1.02615 -1.46056 0
M  V30 254 C 25.3617 1.86702 -2.82835 0
M  V30 255 C 24.5347 1.5304 -4.09753 0
M  V30 256 C 23.5937 2.62576 -4.56005 0
M  V30 257 O 22.6197 2.28167 -5.21468 0
M  V30 258 N 23.8217 3.92901 -4.27328 0
M  V30 259 H 26.5867 0.0642801 -2.99631 0
M  V30 260 H 24.1477 -0.110896 -1.6152 0
M  V30 261 H 26.1397 2.59304 -3.10715 0
M  V30 262 H 24.7097 2.33702 -2.07611 0
M  V30 263 H 23.9297 0.637564 -3.8901 0
M  V30 264 H 25.2177 1.28072 -4.92418 0
M  V30 265 H 24.6157 4.23671 -3.74859 0
M  V30 266 H 23.1727 4.61837 -4.59946 0
M  V30 267 N 26.6058 1.57591 -0.0167156 0
M  V30 268 C 28.0218 1.55946 0.339557 0
M  V30 269 C 28.2218 1.02109 1.73713 0
M  V30 270 O 27.2778 0.662303 2.43659 0
M  V30 271 C 28.5908 3.00037 0.199499 0
M  V30 272 C 30.1388 3.11805 0.273193 0
M  V30 273 C 30.6138 4.57713 0.162068 0
M  V30 274 N 32.1048 4.6268 0.219444 0
M  V30 275 C 32.8398 5.73185 0.157054 0
M  V30 276 N 32.3358 6.92786 0.0442936 0
M  V30 277 N 34.1288 5.61707 0.21014 0
M  V30 278 H 26.2798 1.90921 -0.930758 0
M  V30 279 H 28.5428 0.877674 -0.358319 0
M  V30 280 H 28.2488 3.4333 -0.76273 0
M  V30 281 H 28.1228 3.64387 0.974786 0
M  V30 282 H 30.5098 2.68433 1.22587 0
M  V30 283 H 30.5908 2.50201 -0.532256 0
M  V30 284 H 30.2348 5.01763 -0.78714 0
M  V30 285 H 30.1648 5.17283 0.986222 0
M  V30 286 H 32.6558 3.76649 0.307246 0
M  V30 287 H 32.9688 7.728 0.00304069 0
M  V30 288 H 31.3138 6.94999 0.00968457 0
M  V30 289 H 34.5048 4.6716 0.296546 0
M  V30 290 H 34.6778 6.47807 0.158054 0
M  V30 291 N 28.0839 -0.256276 1.55502 0
M  V30 292 C 29.0139 -1.32102 1.92539 0
M  V30 293 C 29.9949 -1.50684 0.789194 0
M  V30 294 O 31.1799 -1.63449 1.04872 0
M  V30 295 C 28.3099 -2.67752 2.21192 0
M  V30 296 C 27.2639 -2.63878 3.36975 0
M  V30 297 C 26.5899 -4.03236 3.51147 0
M  V30 298 C 27.8899 -2.21682 4.72921 0
M  V30 299 H 29.5839 -1.01351 2.81724 0
M  V30 300 H 27.1299 -0.486105 1.35547 0
M  V30 301 H 29.0829 -3.42365 2.45691 0
M  V30 302 H 27.8069 -3.0012 1.28824 0
M  V30 303 H 26.4659 -1.91722 3.12471 0
M  V30 304 H 26.1139 -4.32854 2.56216 0
M  V30 305 H 25.8139 -4.01535 4.29003 0
M  V30 306 H 27.3379 -4.79563 3.77957 0
M  V30 307 H 28.7519 -2.86023 4.96854 0
M  V30 308 H 27.1489 -2.3111 5.53812 0
M  V30 309 H 28.2189 -1.16833 4.70615 0
M  V30 310 N 29.562 -1.4872 -0.521534 0
M  V30 311 C 30.525 -1.63379 -1.60748 0
M  V30 312 C 31.525 -0.50661 -1.52611 0
M  V30 313 O 32.715 -0.772601 -1.5613 0
M  V30 314 C 29.847 -1.61192 -3.00383 0
M  V30 315 H 31.04 -2.60217 -1.49087 0
M  V30 316 H 28.593 -1.37444 -0.744235 0
M  V30 317 H 29.328 -0.65863 -3.17541 0
M  V30 318 H 29.113 -2.43032 -3.07698 0
M  V30 319 H 30.603 -1.7466 -3.7932 0
M  V30 320 N 31.0401 0.771051 -1.3745 0
M  V30 321 C 31.9701 1.89827 -1.3597 0
M  V30 322 C 32.9511 1.68562 -0.228216 0
M  V30 323 O 34.1361 1.8941 -0.428675 0
M  V30 324 C 31.2661 3.2712 -1.16662 0
M  V30 325 C 30.2201 3.6295 -2.2683 0
M  V30 326 C 29.5461 4.98791 -1.92644 0
M  V30 327 C 30.8461 3.69627 -3.69017 0
M  V30 328 H 32.5401 1.91323 -2.30295 0
M  V30 329 H 30.0861 0.919082 -1.10855 0
M  V30 330 H 32.0391 4.05615 -1.14256 0
M  V30 331 H 30.7631 3.26059 -0.187926 0
M  V30 332 H 29.4221 2.86763 -2.28392 0
M  V30 333 H 29.0701 4.94271 -0.933021 0
M  V30 334 H 28.7701 5.23733 -2.66416 0
M  V30 335 H 30.2941 5.79685 -1.91826 0
M  V30 336 H 31.7081 4.38273 -3.69581 0
M  V30 337 H 30.1051 4.06067 -4.41848 0
M  V30 338 H 31.1751 2.70273 -4.02592 0
M  V30 339 N 32.5182 1.22032 0.997298 0
M  V30 340 C 33.7432 1.06921 1.77715 0
M  V30 341 C 34.1682 -0.376226 1.84299 0
M  V30 342 O 33.5262 -1.27165 1.29223 0
M  V30 343 C 33.5742 1.67996 3.19076 0
M  V30 344 O 32.6782 0.930653 4.01762 0
M  V30 345 H 32.0192 0.375814 0.547412 0
M  V30 346 H 34.5492 1.61737 1.25309 0
M  V30 347 H 34.5592 1.72538 3.69723 0
M  V30 348 H 33.2342 2.73182 3.13599 0
M  V30 349 H 31.8112 0.960917 3.60307 0
M  V30 350 N 33.9963 -1.19345 1.0293 0
M  V30 351 C 35.2733 -1.84811 0.640642 0
M  V30 352 C 35.6533 -1.91855 -0.88062 0
M  V30 353 O 35.0013 -1.43587 -1.7775 0
M  V30 354 C 35.2113 -3.23755 1.30321 0
M  V30 355 C 36.5593 -3.99912 1.42673 0
M  V30 356 O 37.5833 -3.33155 1.26041 0
M  V30 357 O 36.4423 -5.19494 1.6967 0
M  V30 358 H 33.5363 -0.796443 0.222726 0
M  V30 359 H 36.0823 -1.26831 1.12748 0
M  V30 360 H 34.8543 -3.13466 2.34211 0
M  V30 361 H 34.4773 -3.89381 0.804261 0
M  V30 362 N 35.4744 -0.807222 -1.35358 0
M  V30 363 C 36.4374 -0.223665 -2.28106 0
M  V30 364 C 37.4374 0.589354 -1.4961 0
M  V30 365 O 38.6274 0.407745 -1.69361 0
M  V30 366 C 35.7594 0.688149 -3.33882 0
M  V30 367 H 36.9524 -1.04169 -2.81227 0
M  V30 368 H 34.5054 -0.577921 -1.45223 0
M  V30 369 H 35.2404 1.52984 -2.85948 0
M  V30 370 H 35.0254 0.10687 -3.91954 0
M  V30 371 H 36.5154 1.09075 -4.03104 0
M  V30 372 N 36.9525 1.47285 -0.560781 0
M  V30 373 C 37.9025 2.27073 0.205384 0
M  V30 374 C 38.8865 1.34569 0.882044 0
M  V30 375 O 40.0785 1.58899 0.77976 0
M  V30 376 C 37.2075 3.20414 1.23247 0
M  V30 377 C 36.2935 4.20399 0.559041 0
M  V30 378 N 36.6845 5.04423 -0.372927 0
M  V30 379 C 34.9825 4.38536 0.812522 0
M  V30 380 C 35.6835 5.76655 -0.764446 0
M  V30 381 N 34.6595 5.43471 -0.11848 0
M  V30 382 H 38.4615 2.89422 -0.511117 0
M  V30 383 H 35.9755 1.57868 -0.380975 0
M  V30 384 H 37.9725 3.76262 1.79534 0
M  V30 385 H 36.6325 2.59623 1.95002 0
M  V30 386 H 37.6435 5.1248 -0.747287 0
M  V30 387 H 34.3205 3.88913 1.51832 0
M  V30 388 H 35.7105 6.54238 -1.53045 0
M  V30 389 N 38.4306 0.297415 1.54768 0
M  V30 390 C 39.6776 -0.312913 2.00068 0
M  V30 391 C 40.0056 -1.54171 1.18582 0
M  V30 392 O 39.2606 -1.94108 0.249133 0
M  V30 393 C 39.5596 -0.717561 3.50123 0
M  V30 394 C 39.2256 0.409095 4.4904 0
M  V30 395 C 37.8876 0.718399 4.75807 0
M  V30 396 C 40.2396 1.16717 5.07963 0
M  V30 397 C 37.5676 1.78896 5.5876 0
M  V30 398 C 39.9196 2.22762 5.92081 0
M  V30 399 C 38.5836 2.54303 6.1716 0
M  V30 400 H 37.8536 -0.114503 0.7321 0
M  V30 401 H 40.5006 0.415767 1.86932 0
M  V30 402 H 38.8056 -1.52627 3.60849 0
M  V30 403 H 40.5026 -1.20091 3.82595 0
M  V30 404 H 37.0926 0.157918 4.28309 0
M  V30 405 H 41.2766 0.941466 4.87289 0
M  V30 406 H 36.5326 2.0381 5.7643 0
M  V30 407 H 40.7066 2.81962 6.36765 0
M  V30 408 H 38.3336 3.3739 6.81229 0
M  V30 409 N 39.9087 -1.5758 0.0250728 0
M  V30 410 C 41.3247 -1.56124 -0.331282 0
M  V30 411 C 41.5247 -1.03029 -1.73169 0
M  V30 412 O 40.5807 -0.675215 -2.43305 0
M  V30 413 C 41.8937 -3.00139 -0.183584 0
M  V30 414 C 43.4417 -3.11946 -0.256654 0
M  V30 415 C 43.9167 -4.57793 -0.137792 0
M  V30 416 N 45.4077 -4.6279 -0.194904 0
M  V30 417 C 46.1427 -5.7326 -0.126655 0
M  V30 418 N 45.6387 -6.928 -0.00755288 0
M  V30 419 N 47.4317 -5.61811 -0.180348 0
M  V30 420 H 39.5827 -1.90424 0.94087 0
M  V30 421 H 41.8457 -0.875761 0.362968 0
M  V30 422 H 41.5517 -3.4292 0.780927 0
M  V30 423 H 41.4257 -3.64899 -0.955448 0
M  V30 424 H 43.8127 -2.69079 -1.21162 0
M  V30 425 H 43.8937 -2.49915 0.545517 0
M  V30 426 H 43.5377 -5.01339 0.813739 0
M  V30 427 H 43.4677 -5.17798 -0.958775 0
M  V30 428 H 45.9587 -3.76807 -0.287267 0
M  V30 429 H 46.2717 -7.72791 0.0379428 0
M  V30 430 H 44.6167 -6.94995 0.0271731 0
M  V30 431 H 47.8077 -4.6731 -0.271767 0
M  V30 432 H 47.9807 -6.47882 -0.123697 0
M  V30 433 N 41.3868 0.248026 -1.55636 0
M  V30 434 C 42.8028 0.596483 -1.48035 0
M  V30 435 C 43.0028 1.88386 -0.715039 0
M  V30 436 O 42.0588 2.51319 -0.243944 0
M  V30 437 C 43.3718 0.700258 -2.92433 0
M  V30 438 C 44.9198 0.792659 -3.02797 0
M  V30 439 C 45.3948 0.928005 -4.485 0
M  V30 440 N 46.8858 0.992903 -4.52433 0
M  V30 441 C 47.6208 1.11687 -5.62418 0
M  V30 442 N 47.1168 1.20645 -6.82214 0
M  V30 443 N 48.9098 1.14994 -5.50212 0
M  V30 444 H 41.0608 -0.597109 -2.03834 0
M  V30 445 H 43.3238 -0.205925 -0.925364 0
M  V30 446 H 43.0298 -0.175658 -3.51261 0
M  V30 447 H 42.9038 1.57255 -3.42857 0
M  V30 448 H 45.2908 1.65903 -2.4405 0
M  V30 449 H 45.3718 -0.104762 -2.55585 0
M  V30 450 H 45.0158 0.0661971 -5.07857 0
M  V30 451 H 44.9458 1.84045 -4.93391 0
M  V30 452 H 47.4368 0.935064 -3.66149 0
M  V30 453 H 47.7498 1.30008 -7.61786 0
M  V30 454 H 46.0948 1.17605 -6.84977 0
M  V30 455 H 49.2858 1.07643 -4.55555 0
M  V30 456 H 49.4588 1.24311 -6.35965 0
M  V30 457 N 42.8649 1.48995 0.513639 0
M  V30 458 C 44.1139 1.57093 1.2651 0
M  V30 459 C 44.4269 0.257091 1.93903 0
M  V30 460 O 45.6329 0.216478 2.70636 0
M  V30 461 C 44.0889 2.77118 2.29638 0
M  V30 462 C 43.6969 4.15209 1.68241 0
M  V30 463 C 45.4409 2.94538 3.05692 0
M  V30 464 C 43.3479 5.26474 2.69406 0
M  V30 465 H 42.2779 0.584876 0.475854 0
M  V30 466 H 44.9289 1.7536 0.540487 0
M  V30 467 H 43.3109 2.52319 3.05207 0
M  V30 468 H 44.4849 4.50094 0.987505 0
M  V30 469 H 42.7999 4.03042 1.04623 0
M  V30 470 H 45.3969 3.74832 3.8132 0
M  V30 471 H 45.7399 2.04614 3.62545 0
M  V30 472 H 46.2729 3.19316 2.37238 0
M  V30 473 H 43.0119 6.18417 2.17351 0
M  V30 474 H 42.5319 4.96058 3.37175 0
M  V30 475 H 44.2109 5.55277 3.32078 0
M  V30 476 N 44.343 -0.763751 1.37857 0
M  V30 477 C 45.583 -1.53551 1.34913 0
M  V30 478 C 45.947 -1.91895 -0.0635882 0
M  V30 479 O 47.148 -2.67916 -0.217825 0
M  V30 480 C 45.419 -2.76126 2.26912 0
M  V30 481 S 46.978 -3.66105 2.41893 0
M  V30 482 H 43.796 -0.52559 0.478828 0
M  V30 483 H 46.398 -0.897435 1.73685 0
M  V30 484 H 45.102 -2.4605 3.28463 0
M  V30 485 H 44.633 -3.44887 1.89253 0
M  V30 486 H 46.648 -4.68473 1.63545 0
M  V30 487 N 45.8211 -1.22559 -0.990812 0
M  V30 488 C 46.7531 -0.955325 -2.08342 0
M  V30 489 C 47.7661 0.0668408 -1.62663 0
M  V30 490 O 48.9551 -0.167421 -1.77713 0
M  V30 491 C 46.0551 -0.415566 -3.36342 0
M  V30 492 C 45.2281 -1.49544 -4.11042 0
M  V30 493 C 44.2871 -0.962399 -5.17324 0
M  V30 494 O 43.3131 -1.64907 -5.44788 0
M  V30 495 N 44.5151 0.215134 -5.80101 0
M  V30 496 H 47.2801 -1.89596 -2.32106 0
M  V30 497 H 44.8411 -1.13276 -1.15673 0
M  V30 498 H 46.8331 -0.0442386 -4.04676 0
M  V30 499 H 45.4031 0.430232 -3.09625 0
M  V30 500 H 44.6231 -2.04 -3.37309 0
M  V30 501 H 45.9111 -2.22195 -4.57719 0
M  V30 502 H 45.3091 0.789779 -5.6016 0
M  V30 503 H 43.8661 0.527826 -6.49659 0
M  V30 504 N 47.2992 1.18797 -1.03562 0
M  V30 505 C 48.2292 2.24472 -0.643019 0
M  V30 506 C 49.2102 1.66433 0.351283 0
M  V30 507 O 50.3952 1.92803 0.232505 0
M  V30 508 C 47.5252 3.473 4.24935e-05 0
M  V30 509 C 46.4792 4.18055 -0.917257 0
M  V30 510 C 45.8052 5.34519 -0.138941 0
M  V30 511 C 47.1052 4.72109 -2.23407 0
M  V30 512 H 48.7992 2.57566 -1.52643 0
M  V30 513 H 46.3452 1.23806 -0.735394 0
M  V30 514 H 48.2982 4.20426 0.286383 0
M  V30 515 H 47.0222 3.13424 0.918299 0
M  V30 516 H 45.6812 3.46821 -1.1879 0
M  V30 517 H 45.3292 4.96891 0.781562 0
M  V30 518 H 45.0292 5.82794 -0.750005 0
M  V30 519 H 46.5532 6.10438 0.1405 0
M  V30 520 H 47.9672 5.36955 -2.00879 0
M  V30 521 H 46.3642 5.30897 -2.79765 0
M  V30 522 H 47.4342 3.89807 -2.88407 0
M  V30 523 N 48.7773 0.814389 1.34928 0
M  V30 524 C 50.0263 0.394871 1.97797 0
M  V30 525 C 50.3393 -1.04555 1.65311 0
M  V30 526 O 51.5453 -1.56856 2.21604 0
M  V30 527 C 50.0013 0.655103 3.53888 0
M  V30 528 C 49.6093 2.10858 3.95276 0
M  V30 529 C 51.3533 0.301329 4.23429 0
M  V30 530 C 49.2603 2.31415 5.44244 0
M  V30 531 H 48.1903 0.143913 0.740139 0
M  V30 532 H 50.8413 0.999544 1.53888 0
M  V30 533 H 49.2233 -0.0196253 3.95995 0
M  V30 534 H 50.3973 2.82176 3.64298 0
M  V30 535 H 48.7123 2.42297 3.38646 0
M  V30 536 H 51.3093 0.432869 5.32945 0
M  V30 537 H 51.6523 -0.75331 4.09428 0
M  V30 538 H 52.1853 0.930288 3.86769 0
M  V30 539 H 48.9243 3.35353 5.63222 0
M  V30 540 H 48.4443 1.6463 5.76764 0
M  V30 541 H 50.1233 2.13352 6.10811 0
M  V30 542 N 50.2554 -1.46986 0.568584 0
M  V30 543 C 51.4854 -2.0653 0.0539173 0
M  V30 544 C 51.8934 -1.42004 -1.25026 0
M  V30 545 O 51.2364 -0.514541 -1.76347 0
M  V30 546 C 51.2984 -3.58938 -0.200854 0
M  V30 547 C 50.9624 -4.45572 1.01559 0
M  V30 548 C 51.9594 -4.82986 1.92407 0
M  V30 549 C 49.6444 -4.8692 1.23346 0
M  V30 550 C 51.6384 -5.60559 3.03402 0
M  V30 551 C 49.3254 -5.64255 2.34649 0
M  V30 552 C 50.3234 -6.00986 3.24507 0
M  V30 553 O 50.0114 -6.76761 4.33878 0
M  V30 554 H 49.7434 -0.674292 0.0480234 0
M  V30 555 H 52.2974 -1.89812 0.784896 0
M  V30 556 H 50.5274 -3.73911 -0.986279 0
M  V30 557 H 52.2164 -4.0046 -0.662294 0
M  V30 558 H 52.9824 -4.51633 1.76785 0
M  V30 559 H 48.8614 -4.57789 0.543178 0
M  V30 560 H 52.4054 -5.89147 3.73565 0
M  V30 561 H 48.3024 -5.95021 2.5024 0
M  V30 562 H 49.0704 -6.95168 4.32068 0
M  V30 563 N 51.7335 -0.305618 -1.54608 0
M  V30 564 C 52.6655 0.602161 -2.21149 0
M  V30 565 C 53.6785 1.09394 -1.20569 0
M  V30 566 O 54.8675 1.0106 -1.47136 0
M  V30 567 C 51.9675 1.83692 -2.84799 0
M  V30 568 C 51.1405 1.48686 -4.11353 0
M  V30 569 C 50.1995 2.57725 -4.58764 0
M  V30 570 O 49.2255 2.22623 -5.23858 0
M  V30 571 N 50.4275 3.88346 -4.31471 0
M  V30 572 H 53.1925 0.0324966 -2.99682 0
M  V30 573 H 50.7535 -0.128021 -1.61393 0
M  V30 574 H 52.7455 2.55994 -3.13448 0
M  V30 575 H 51.3155 2.31486 -2.10078 0
M  V30 576 H 50.5355 0.596269 -3.89664 0
M  V30 577 H 51.8235 1.22842 -4.93748 0
M  V30 578 H 51.2215 4.19671 -3.79331 0
M  V30 579 H 49.7785 4.56932 -4.64818 0
M  V30 580 N 53.2116 1.57565 -0.0334293 0
M  V30 581 C 54.6276 1.56297 0.322997 0
M  V30 582 C 54.8276 1.03945 1.7262 0
M  V30 583 O 53.8836 0.688109 2.42943 0
M  V30 584 C 55.1966 3.00232 0.167664 0
M  V30 585 C 56.7446 3.12078 0.240107 0
M  V30 586 C 57.2196 4.57859 0.113513 0
M  V30 587 N 58.7106 4.62887 0.170359 0
M  V30 588 C 59.4456 5.73319 0.0962517 0
M  V30 589 N 58.9416 6.92794 -0.0291881 0
M  V30 590 N 60.7346 5.61898 0.150551 0
M  V30 591 H 52.8856 1.89923 -0.950956 0
M  V30 592 H 55.1486 0.873824 -0.367608 0
M  V30 593 H 54.8546 3.42501 -0.799102 0
M  V30 594 H 54.7286 3.654 0.936083 0
M  V30 595 H 57.1156 2.69718 1.19733 0
M  V30 596 H 57.1966 2.49623 -0.558763 0
M  V30 597 H 56.8406 5.009 -0.840314 0
M  V30 598 H 56.7706 5.18299 0.931302 0
M  V30 599 H 59.2616 3.76954 0.26728 0
M  V30 600 H 59.5746 7.7276 -0.0789252 0
M  V30 601 H 57.9196 6.94971 -0.0640299 0
M  V30 602 H 61.1106 4.67448 0.246981 0
M  V30 603 H 61.2836 6.47938 0.0893365 0
M  V30 604 N 54.6897 -0.239769 1.55765 0
M  V30 605 C 55.6527 -1.28038 1.90103 0
M  V30 606 C 56.6527 -1.40723 0.778055 0
M  V30 607 O 57.8427 -1.39301 1.04599 0
M  V30 608 C 54.9747 -2.65702 2.13577 0
M  V30 609 H 56.1677 -0.988048 2.83157 0
M  V30 610 H 53.7207 -0.479382 1.48767 0
M  V30 611 H 54.4557 -3.00063 1.23015 0
M  V30 612 H 54.2407 -2.57875 2.95369 0
M  V30 613 H 55.7307 -3.40828 2.41301 0
M  V30 614 N 56.1678 -1.49265 -0.50573 0
M  V30 615 C 57.4158 -1.582 -1.25766 0
M  V30 616 C 57.7368 -0.268482 -1.93143 0
M  V30 617 O 57.0068 0.711833 -1.8251 0
M  V30 618 H 55.5868 -0.582873 -0.467191 0
M  V30 619 H 58.2488 -1.85865 -0.586525 0
M  V30 620 H 57.3448 -2.37563 -2.02412 0
M  V30 621 N 57.6459 0.756429 -1.3826 0
M  V30 622 C 58.8949 1.51082 -1.3363 0
M  V30 623 C 59.2079 1.95467 0.0720068 0
M  V30 624 O 60.4139 2.7043 0.240834 0
M  V30 625 C 58.8699 2.72893 -2.34644 0
M  V30 626 C 58.4779 2.35544 -3.81081 0
M  V30 627 C 60.2219 3.50791 -2.39052 0
M  V30 628 C 58.1289 3.53948 -4.73787 0
M  V30 629 H 57.0589 0.56727 -0.49671 0
M  V30 630 H 59.7099 0.827147 -1.638 0
M  V30 631 H 58.0919 3.43227 -1.97513 0
M  V30 632 H 59.2659 1.72894 -4.27135 0
M  V30 633 H 57.5809 1.70786 -3.79764 0
M  V30 634 H 60.1779 4.38823 -3.05513 0
M  V30 635 H 60.5209 3.91745 -1.40861 0
M  V30 636 H 61.0539 2.87467 -2.74968 0
M  V30 637 H 57.7929 3.18064 -5.73163 0
M  V30 638 H 57.3129 4.15651 -4.32428 0
M  V30 639 H 58.9919 4.20566 -4.91663 0
M  V30 640 N 59.124 1.23083 0.984299 0
M  V30 641 C 60.37 1.06214 1.72761 0
M  V30 642 C 60.703 -0.400584 1.90024 0
M  V30 643 O 59.978 -1.29672 1.44967 0
M  V30 644 C 60.261 1.78375 3.12817 0
M  V30 645 C 60.114 3.32296 3.03149 0
M  V30 646 C 61.433 1.54309 4.12161 0
M  V30 647 H 58.552 0.387251 0.627061 0
M  V30 648 H 61.194 1.51536 1.14616 0
M  V30 649 H 59.344 1.39848 3.62457 0
M  V30 650 H 61.016 3.8032 2.61064 0
M  V30 651 H 59.259 3.6153 2.39747 0
M  V30 652 H 59.93 3.77972 4.02295 0
M  V30 653 H 62.406 1.87791 3.71314 0
M  V30 654 H 61.282 2.07281 5.08258 0
M  V30 655 H 61.543 0.477572 4.39513 0
M  V30 656 N 60.6021 -1.18246 1.0419 0
M  V30 657 C 61.5321 -2.24127 0.654914 0
M  V30 658 C 62.5131 -1.66617 -0.342451 0
M  V30 659 O 63.6981 -1.92924 -0.222277 0
M  V30 660 C 60.8281 -3.47295 0.0183757 0
M  V30 661 C 59.7821 -4.17563 0.939414 0
M  V30 662 C 59.1081 -5.34438 0.167286 0
M  V30 663 C 60.4081 -4.70917 2.25908 0
M  V30 664 H 62.1021 -2.56753 1.54007 0
M  V30 665 H 59.6481 -1.23414 0.74195 0
M  V30 666 H 61.6011 -4.20572 -0.264082 0
M  V30 667 H 60.3251 -3.13907 -0.901664 0
M  V30 668 H 58.9841 -3.46186 1.20628 0
M  V30 669 H 58.6321 -4.97298 -0.7552 0
M  V30 670 H 58.3321 -5.82388 0.780901 0
M  V30 671 H 59.8561 -6.10504 -0.108125 0
M  V30 672 H 61.2701 -5.35882 2.03724 0
M  V30 673 H 59.6671 -5.29406 2.82577 0
M  V30 674 H 60.7371 -3.88272 2.9047 0
M  V30 675 N 62.0802 -0.821533 -1.34494 0
M  V30 676 C 63.0432 -0.247847 -2.27856 0
M  V30 677 C 64.0432 0.573453 -1.50227 0
M  V30 678 O 65.2332 0.389759 -1.69784 0
M  V30 679 C 62.3652 0.652698 -3.34593 0
M  V30 680 H 63.5582 -1.07146 -2.80107 0
M  V30 681 H 61.1112 -0.593291 -1.44602 0
M  V30 682 H 61.8462 1.49943 -2.87555 0
M  V30 683 H 61.6312 0.065292 -3.92046 0
M  V30 684 H 63.1212 1.04793 -4.04238 0
M  V30 685 N 63.5583 1.46682 -0.576371 0
M  V30 686 C 64.8353 1.95599 0.00703437 0
M  V30 687 C 65.2153 1.51904 1.46589 0
M  V30 688 O 64.5633 0.766755 2.15251 0
M  V30 689 C 64.7733 3.4864 -0.158404 0
M  V30 690 C 66.1213 4.24594 -0.0229439 0
M  V30 691 O 67.1453 3.56094 -0.0869173 0
M  V30 692 O 66.0043 5.46373 0.118015 0
M  V30 693 H 63.0983 0.825275 0.053384 0
M  V30 694 H 65.6443 1.56996 -0.644244 0
M  V30 695 H 64.4163 3.7331 -1.17282 0
M  V30 696 H 64.0393 3.94057 0.5296 0
M  V30 697 N 65.0364 0.313813 1.54444 0
M  V30 698 C 65.9864 -0.571898 2.20711 0
M  V30 699 C 66.9704 -1.08913 1.18435 0
M  V30 700 O 68.1624 -1.02777 1.44104 0
M  V30 701 C 65.2914 -1.7371 2.96108 0
M  V30 702 C 64.3774 -1.23522 4.05713 0
M  V30 703 N 64.7684 -0.452288 5.03774 0
M  V30 704 C 63.0664 -1.51482 4.19487 0
M  V30 705 C 63.7674 -0.183438 5.81411 0
M  V30 706 N 62.7434 -0.766845 5.38164 0
M  V30 707 H 66.5454 0.0336802 2.93881 0
M  V30 708 H 64.0594 0.119192 1.61962 0
M  V30 709 H 66.0564 -2.38329 3.4206 0
M  V30 710 H 64.7164 -2.34625 2.24458 0
M  V30 711 H 65.7274 -0.0960131 5.17811 0
M  V30 712 H 62.4044 -2.13053 3.59047 0
M  V30 713 H 63.7944 0.446216 6.70417 0
M  V30 714 N 66.5145 -1.57545 0.0417849 0
M  V30 715 C 67.4615 -2.10977 -0.935805 0
M  V30 716 C 68.4315 -1.01486 -1.31491 0
M  V30 717 O 69.6165 -1.2898 -1.40602 0
M  V30 718 C 66.7565 -2.65169 -2.2086 0
M  V30 719 C 65.8695 -3.88714 -1.88482 0
M  V30 720 C 65.0045 -4.31254 -3.1015 0
M  V30 721 C 64.0435 -5.47524 -2.7365 0
M  V30 722 N 63.1805 -5.85162 -3.87982 0
M  V30 723 H 68.0205 -2.94218 -0.473249 0
M  V30 724 H 65.5575 -1.45415 -0.221981 0
M  V30 725 H 67.5155 -2.94685 -2.95325 0
M  V30 726 H 66.1455 -1.8474 -2.64709 0
M  V30 727 H 65.1975 -3.65849 -1.04205 0
M  V30 728 H 66.5095 -4.73245 -1.57608 0
M  V30 729 H 65.6635 -4.62273 -3.92923 0
M  V30 730 H 64.4025 -3.45516 -3.44195 0
M  V30 731 H 63.4075 -5.16187 -1.89291 0
M  V30 732 H 64.6325 -6.34971 -2.40807 0
M  V30 733 H 62.5785 -5.02377 -4.21846 0
M  V30 734 H 62.4955 -6.64362 -3.60775 0
M  V30 735 H 63.7635 -6.20791 -4.71422 0
M  V30 736 N 67.9926 0.231505 -1.5589 0
M  V30 737 C 69.4086 0.580748 -1.48659 0
M  V30 738 C 69.6086 1.87617 -0.73498 0
M  V30 739 O 68.6646 2.51046 -0.270586 0
M  V30 740 C 69.9776 0.669202 -2.93159 0
M  V30 741 C 71.5256 0.760499 -3.03621 0
M  V30 742 C 72.0006 0.880383 -4.49459 0
M  V30 743 N 73.4916 0.944861 -4.53461 0
M  V30 744 C 74.2266 1.05716 -5.63571 0
M  V30 745 N 73.7226 1.13403 -6.83456 0
M  V30 746 N 75.5156 1.09152 -5.514 0
M  V30 747 H 67.6666 -0.618695 -2.03189 0
M  V30 748 H 69.9296 -0.215728 -0.923128 0
M  V30 749 H 69.6356 -0.212904 -3.51055 0
M  V30 750 H 69.5096 1.5361 -3.44505 0
M  V30 751 H 71.8966 1.63305 -2.45796 0
M  V30 752 H 71.9776 -0.131864 -2.5546 0
M  V30 753 H 71.6216 0.0123284 -5.07899 0
M  V30 754 H 71.5516 1.78802 -4.95316 0
M  V30 755 H 74.0426 0.896176 -3.6712 0
M  V30 756 H 74.3556 1.21921 -7.63122 0
M  V30 757 H 72.7006 1.10333 -6.86186 0
M  V30 758 H 75.8916 1.02805 -4.56671 0
M  V30 759 H 76.0646 1.17558 -6.37247 0
M  V30 760 N 69.4707 1.49531 0.497807 0
M  V30 761 C 70.7477 1.49682 1.25915 0
M  V30 762 C 71.1277 0.226339 2.09883 0
M  V30 763 O 70.4757 -0.791189 2.14365 0
M  V30 764 C 70.6857 2.77755 2.11313 0
M  V30 765 C 72.0337 3.27371 2.70395 0
M  V30 766 O 73.0577 2.78894 2.21578 0
M  V30 767 O 71.9167 4.11808 3.59272 0
M  V30 768 H 69.0107 0.599228 0.56996 0
M  V30 769 H 71.5567 1.61798 0.511816 0
M  V30 770 H 70.3287 3.61713 1.49264 0
M  V30 771 H 69.9517 2.68515 2.93233 0
M  V30 772 N 70.9488 -0.749086 1.3866 0
M  V30 773 C 71.8818 -1.87111 1.30631 0
M  V30 774 C 72.8598 -1.61572 0.18251 0
M  V30 775 O 74.0438 -1.85019 0.360592 0
M  V30 776 C 71.1708 -3.22815 1.02511 0
M  V30 777 C 70.2168 -3.67234 2.1689 0
M  V30 778 S 71.0498 -3.78245 3.79066 0
M  V30 779 C 72.2058 -5.16761 3.53142 0
M  V30 780 H 72.4388 -1.93636 2.25594 0
M  V30 781 H 69.9718 -0.912525 1.24549 0
M  V30 782 H 71.9298 -4.01181 0.869701 0
M  V30 783 H 70.5908 -3.13964 0.0925884 0
M  V30 784 H 69.7838 -4.65677 1.92771 0
M  V30 785 H 69.3858 -2.96034 2.28561 0
M  V30 786 H 71.6778 -6.02656 3.09534 0
M  V30 787 H 72.6208 -5.45902 4.50995 0
M  V30 788 H 73.0288 -4.85771 2.87554 0
M  V30 789 N 72.4269 -1.23603 -0.977757 0
M  V30 790 C 73.6729 -1.07129 -1.72195 0
M  V30 791 C 74.0059 0.390501 -1.90233 0
M  V30 792 O 73.2809 1.28902 -1.45653 0
M  V30 793 C 73.5639 -1.80031 -3.11867 0
M  V30 794 C 73.4169 -3.33899 -3.01383 0
M  V30 795 C 74.7359 -1.56492 -4.11337 0
M  V30 796 H 71.8549 -0.390571 -0.624999 0
M  V30 797 H 74.4969 -1.52142 -1.13811 0
M  V30 798 H 72.6469 -1.41768 -3.6171 0
M  V30 799 H 74.3189 -3.81699 -2.59043 0
M  V30 800 H 72.5619 -3.62796 -2.37827 0
M  V30 801 H 73.2329 -3.801 -4.00285 0
M  V30 802 H 75.7089 -1.89757 -3.70313 0
M  V30 803 H 74.5849 -2.09973 -5.07151 0
M  V30 804 H 74.8459 -0.500874 -4.39254 0
M  V30 805 N 73.905 1.17692 -1.04816 0
M  V30 806 C 75.135 1.91508 -0.775128 0
M  V30 807 C 75.543 1.76844 0.67253 0
M  V30 808 O 74.886 1.10057 1.47082 0
M  V30 809 C 74.948 3.43167 -1.0713 0
M  V30 810 C 74.612 3.81612 -2.51438 0
M  V30 811 C 75.609 3.84772 -3.49638 0
M  V30 812 C 73.294 4.12687 -2.86348 0
M  V30 813 C 75.288 4.18469 -4.80794 0
M  V30 814 C 72.975 4.46053 -4.17708 0
M  V30 815 C 73.973 4.48921 -5.14741 0
M  V30 816 O 73.661 4.81504 -6.43746 0
M  V30 817 H 73.393 0.614575 -0.281555 0
M  V30 818 H 75.947 1.50206 -1.40098 0
M  V30 819 H 74.177 3.84745 -0.388342 0
M  V30 820 H 75.866 3.98239 -0.784883 0
M  V30 821 H 76.632 3.60893 -3.24008 0
M  V30 822 H 72.511 4.09627 -2.11486 0
M  V30 823 H 76.055 4.20623 -5.56527 0
M  V30 824 H 71.952 4.69393 -4.43103 0
M  V30 825 H 72.72 4.99377 -6.4851 0
M  V30 826 N 75.3831 0.828654 1.34056 0
M  V30 827 C 76.3311 0.242973 2.31327 0
M  V30 828 C 77.3251 -0.61944 1.57668 0
M  V30 829 O 78.5311 -0.51014 1.7262 0
M  V30 830 H 74.9061 0.059834 0.749616 0
M  V30 831 H 76.8771 1.07809 2.78244 0
M  V30 832 C 75.6261 -0.575733 3.429 0
M  V30 833 H 74.9491 0.0785582 3.99723 0
M  V30 834 H 76.3891 -0.951547 4.13185 0
M  V30 835 C 74.8481 -1.75044 2.87856 0
M  V30 836 O 75.3781 -2.84882 2.83205 0
M  V30 837 N 73.5841 -1.56903 2.44602 0
M  V30 838 H 73.1311 -0.675547 2.48584 0
M  V30 839 H 73.0891 -2.35652 2.08124 0
M  V30 840 N 76.8612 -1.46375 0.584142 0
M  V30 841 C 78.2772 -1.57694 0.245929 0
M  V30 842 C 78.4772 -1.57903 -1.25175 0
M  V30 843 O 77.5332 -1.49676 -2.03355 0
M  V30 844 C 78.8462 -2.87028 0.896402 0
M  V30 845 C 80.3942 -3.00662 0.870127 0
M  V30 846 C 80.8692 -4.32734 1.50017 0
M  V30 847 N 82.3602 -4.39436 1.46458 0
M  V30 848 C 83.0952 -5.40248 1.92144 0
M  V30 849 N 82.5912 -6.47726 2.4581 0
M  V30 850 N 84.3842 -5.31459 1.83052 0
M  V30 851 H 76.5352 -1.44483 1.55687 0
M  V30 852 H 78.7982 -0.689291 0.650831 0
M  V30 853 H 78.5042 -2.9269 1.95002 0
M  V30 854 H 78.3782 -3.75014 0.405486 0
M  V30 855 H 80.7652 -2.94581 -0.174871 0
M  V30 856 H 80.8462 -2.14148 1.39908 0
M  V30 857 H 80.4902 -4.39573 2.54437 0
M  V30 858 H 80.4202 -5.18025 0.946432 0
M  V30 859 H 82.9112 -3.62367 1.07231 0
M  V30 860 H 83.2242 -7.20863 2.78525 0
M  V30 861 H 81.5692 -6.48542 2.49836 0
M  V30 862 H 84.7602 -4.46396 1.40883 0
M  V30 863 H 84.9332 -6.09881 2.18973 0
M  V30 864 N 78.3393 -0.321999 -1.54275 0
M  V30 865 C 79.2693 0.537411 -2.27231 0
M  V30 866 C 80.2503 1.12064 -1.27968 0
M  V30 867 O 81.4353 1.14606 -1.56777 0
M  V30 868 C 78.5653 1.69919 -3.02894 0
M  V30 869 C 77.5193 1.24534 -4.09482 0
M  V30 870 C 76.8453 2.49394 -4.72977 0
M  V30 871 C 78.1453 0.361335 -5.21049 0
M  V30 872 H 79.8393 -0.0711406 -2.99315 0
M  V30 873 H 77.3853 -0.0356555 -1.43956 0
M  V30 874 H 79.3383 2.30668 -3.52662 0
M  V30 875 H 78.0623 2.33431 -2.28424 0
M  V30 876 H 76.7213 0.660782 -3.60596 0
M  V30 877 H 76.3693 3.11265 -3.95124 0
M  V30 878 H 76.0693 2.19718 -5.44975 0
M  V30 879 H 77.5933 3.10908 -5.25517 0
M  V30 880 H 79.0073 0.875072 -5.66582 0
M  V30 881 H 77.4043 0.157428 -5.99893 0
M  V30 882 H 78.4743 -0.60822 -4.8107 0
M  V30 883 N 79.8174 1.5752 -0.0501392 0
M  V30 884 C 81.0634 1.92936 0.624798 0
M  V30 885 C 81.3964 0.928685 1.70555 0
M  V30 886 O 80.6714 -0.0454779 1.94447 0
M  V30 887 C 80.9544 3.38737 1.22185 0
M  V30 888 C 80.8074 4.49552 0.149218 0
M  V30 889 C 82.1264 3.84913 2.13378 0
M  V30 890 H 79.2454 0.701604 0.225657 0
M  V30 891 H 81.8874 1.89671 -0.111693 0
M  V30 892 H 80.0374 3.4165 1.84953 0
M  V30 893 H 81.7094 4.58768 -0.482648 0
M  V30 894 H 79.9524 4.30638 -0.522841 0
M  V30 895 H 80.6234 5.48653 0.606966 0
M  V30 896 H 83.0994 3.8387 1.60572 0
M  V30 897 H 81.9754 4.87584 2.52097 0
M  V30 898 H 82.2364 3.21611 3.03346 0
M  V30 899 N 81.2955 -0.223234 1.56011 0
M  V30 900 C 82.7115 -0.572856 1.48965 0
M  V30 901 C 82.9115 -1.87225 0.74492 0
M  V30 902 O 81.9675 -2.50899 0.283896 0
M  V30 903 C 83.2805 -0.653646 2.9351 0
M  V30 904 C 84.8285 -0.744386 3.0402 0
M  V30 905 C 85.3035 -0.856535 4.49919 0
M  V30 906 N 86.7945 -0.9208 4.53955 0
M  V30 907 C 87.5295 -1.02726 5.64123 0
M  V30 908 N 87.0255 -1.09777 6.84047 0
M  V30 909 N 88.8185 -1.06226 5.51971 0
M  V30 910 H 80.9695 0.629462 2.02858 0
M  V30 911 H 83.2325 0.220621 0.921971 0
M  V30 912 H 82.9385 0.231518 3.50937 0
M  V30 913 H 82.8125 -1.51781 3.45315 0
M  V30 914 H 85.1995 -1.61999 2.46658 0
M  V30 915 H 85.2805 0.14541 2.55386 0
M  V30 916 H 84.9245 0.0146069 5.07898 0
M  V30 917 H 84.8545 -1.76172 4.96257 0
M  V30 918 H 87.3455 -0.876694 3.6759 0
M  V30 919 H 87.6585 -1.17872 7.63758 0
M  V30 920 H 86.0035 -1.06693 6.86762 0
M  V30 921 H 89.1945 -1.00382 4.5721 0
M  V30 922 H 89.3675 -1.14177 6.37862 0
M  V30 923 N 82.7736 -1.49793 -0.48987 0
M  V30 924 C 84.1896 -1.36803 -0.822022 0
M  V30 925 C 84.3896 -0.409652 -1.97292 0
M  V30 926 O 83.4456 0.154614 -2.52026 0
M  V30 927 C 84.7586 -2.77768 -1.15175 0
M  V30 928 C 86.3066 -2.86549 -1.25931 0
M  V30 929 C 86.7816 -4.28306 -1.62228 0
M  V30 930 N 88.2726 -4.31169 -1.69256 0
M  V30 931 C 89.0076 -5.37832 -1.98807 0
M  V30 932 N 88.5036 -6.54726 -2.26507 0
M  V30 933 N 90.2966 -5.25258 -2.00152 0
M  V30 934 H 82.4476 -2.10691 0.268881 0
M  V30 935 H 84.7106 -0.946241 0.057728 0
M  V30 936 H 84.4166 -3.49648 -0.379335 0
M  V30 937 H 84.2906 -3.13836 -2.09253 0
M  V30 938 H 86.6776 -2.14899 -2.02243 0
M  V30 939 H 86.7586 -2.54049 -0.298776 0
M  V30 940 H 86.4026 -5.00486 -0.864622 0
M  V30 941 H 86.3326 -4.58279 -2.594 0
M  V30 942 H 88.8236 -3.4687 -1.49965 0
M  V30 943 H 89.1366 -7.31833 -2.48276 0
M  V30 944 H 87.4816 -6.57933 -2.23939 0
M  V30 945 H 90.6726 -4.32938 -1.77996 0
M  V30 946 H 90.8456 -6.08476 -2.22848 0
M  V30 947 N 84.2517 0.741722 -1.39055 0
M  V30 948 C 85.1817 1.869 -1.39966 0
M  V30 949 C 86.1627 1.6804 -0.26392 0
M  V30 950 O 87.3477 1.88458 -0.468755 0
M  V30 951 C 84.4777 3.24572 -1.23574 0
M  V30 952 C 83.4317 3.58056 -2.34477 0
M  V30 953 C 82.7577 4.94593 -2.0318 0
M  V30 954 C 84.0577 3.61716 -3.76774 0
M  V30 955 H 85.7517 1.86395 -2.34302 0
M  V30 956 H 83.2977 0.895361 -1.1278 0
M  V30 957 H 85.2507 4.031 -1.22834 0
M  V30 958 H 83.9747 3.25587 -0.257045 0
M  V30 959 H 82.6337 2.81854 -2.34423 0
M  V30 960 H 82.2817 4.92181 -1.03765 0
M  V30 961 H 81.9817 5.17964 -2.77465 0
M  V30 962 H 83.5057 5.75486 -2.04079 0
M  V30 963 H 84.9197 4.30335 -3.78794 0
M  V30 964 H 83.3167 3.96603 -4.50362 0
M  V30 965 H 84.3867 2.61672 -4.08235 0
M  V30 966 N 85.7298 1.2412 0.971189 0
M  V30 967 C 87.1458 1.00584 1.23916 0
M  V30 968 C 87.3458 -0.287481 1.99439 0
M  V30 969 O 86.4018 -1.00454 2.31658 0
M  V30 970 C 87.7148 2.21864 2.0297 0
M  V30 971 C 89.2628 2.26452 2.16076 0
M  V30 972 C 89.7378 3.47343 2.98524 0
M  V30 973 N 91.2288 3.47639 3.06107 0
M  V30 974 C 91.9638 4.37837 3.70251 0
M  V30 975 N 91.4598 5.38286 4.36142 0
M  V30 976 N 93.2528 4.25558 3.67228 0
M  V30 977 H 85.4038 2.07236 0.465499 0
M  V30 978 H 87.6668 0.909236 0.268315 0
M  V30 979 H 87.3728 3.15771 1.54861 0
M  V30 980 H 87.2468 2.23698 3.03709 0
M  V30 981 H 89.6338 1.33078 2.6339 0
M  V30 982 H 89.7148 2.28645 1.14696 0
M  V30 983 H 89.3588 4.41029 2.51905 0
M  V30 984 H 89.2888 3.42393 4.00093 0
M  V30 985 H 91.7798 2.74966 2.59233 0
M  V30 986 H 92.0928 6.03352 4.82894 0
M  V30 987 H 90.4378 5.42176 4.34822 0
M  V30 988 H 93.6288 3.46322 3.14927 0
M  V30 989 H 93.8018 4.96054 4.16935 0
M  V30 990 N 87.2079 -1.17134 1.05439 0
M  V30 991 C 88.1709 -2.19439 0.661764 0
M  V30 992 C 89.1709 -1.58199 -0.288042 0
M  V30 993 O 90.3609 -1.74053 -0.0715803 0
M  V30 994 C 87.4929 -3.40889 -0.0276209 0
M  V30 995 H 88.6859 -2.55688 1.56728 0
M  V30 996 H 86.2389 -1.31259 0.848567 0
M  V30 997 H 86.9739 -3.10187 -0.94629 0
M  V30 998 H 86.7589 -3.86586 0.655238 0
M  V30 999 H 88.2489 -4.16603 -0.288342 0
M  V30 1000 N 88.686 -0.835752 -1.33615 0
M  V30 1001 C 89.616 -0.281739 -2.31794 0
M  V30 1002 C 90.597 0.608833 -1.58831 0
M  V30 1003 O 91.782 0.533035 -1.86741 0
M  V30 1004 C 88.912 0.546612 -3.42971 0
M  V30 1005 C 87.866 -0.247904 -4.27281 0
M  V30 1006 C 87.192 0.704001 -5.30045 0
M  V30 1007 C 88.492 -1.46324 -5.01385 0
M  V30 1008 H 90.186 -1.10206 -2.78379 0
M  V30 1009 H 87.732 -0.531388 -1.33837 0
M  V30 1010 H 89.685 0.944467 -4.1068 0
M  V30 1011 H 88.409 1.40011 -2.95067 0
M  V30 1012 H 87.068 -0.627281 -3.61194 0
M  V30 1013 H 86.716 1.55381 -4.78399 0
M  V30 1014 H 86.416 0.176524 -5.87335 0
M  V30 1015 H 87.94 1.09944 -6.0062 0
M  V30 1016 H 89.354 -1.13871 -5.61877 0
M  V30 1017 H 87.751 -1.92728 -5.6831 0
M  V30 1018 H 88.821 -2.23467 -4.30338 0
M  V30 1019 N 90.1641 1.46063 -0.591896 0
M  V30 1020 C 91.4121 2.01938 -0.0808391 0
M  V30 1021 C 91.7331 1.46475 1.28725 0
M  V30 1022 O 91.0031 0.652944 1.84698 0
M  V30 1023 H 89.5831 0.746516 -0.0268938 0
M  V30 1024 H 92.2451 1.79055 -0.769752 0
M  V30 1025 H 91.3411 3.12094 -0.0187578 0
M  V30 1026 N 91.6422 0.330177 1.54103 0
M  V30 1027 C 92.5722 -0.525353 2.27513 0
M  V30 1028 C 93.5532 -1.11383 1.2856 0
M  V30 1029 O 94.7382 -1.13773 1.57383 0
M  V30 1030 C 91.8682 -1.6831 3.03791 0
M  V30 1031 C 90.8222 -1.2236 4.10137 0
M  V30 1032 C 90.1482 -2.46882 4.74293 0
M  V30 1033 C 91.4482 -0.333697 5.21233 0
M  V30 1034 H 93.1422 0.087013 2.99274 0
M  V30 1035 H 90.6882 0.0432893 1.43935 0
M  V30 1036 H 92.6412 -2.28795 3.5388 0
M  V30 1037 H 91.3652 -2.32216 2.29659 0
M  V30 1038 H 90.0242 -0.64165 3.60941 0
M  V30 1039 H 89.6722 -3.09165 3.96769 0
M  V30 1040 H 89.3722 -2.16825 5.46133 0
M  V30 1041 H 90.8962 -3.08117 5.27159 0
M  V30 1042 H 92.3102 -0.845013 5.67038 0
M  V30 1043 H 90.7072 -0.125612 5.99969 0
M  V30 1044 H 91.7772 0.633724 4.80741 0
M  V30 1045 N 93.1203 -1.57491 0.0584922 0
M  V30 1046 C 94.3973 -1.84346 -0.653918 0
M  V30 1047 C 94.7773 -0.948355 -1.88599 0
M  V30 1048 O 94.1253 -0.0112403 -2.28497 0
M  V30 1049 C 94.3353 -3.34239 -1.00425 0
M  V30 1050 C 95.6833 -4.01431 -1.38342 0
M  V30 1051 O 96.7073 -3.38907 -1.09637 0
M  V30 1052 O 95.5663 -5.11683 -1.91943 0
M  V30 1053 H 92.6603 -0.761112 -0.323478 0
M  V30 1054 H 95.2063 -1.6947 0.0884125 0
M  V30 1055 H 93.9783 -3.91089 -0.128625 0
M  V30 1056 H 93.6013 -3.54329 -1.80378 0
M  V30 1057 N 94.5984 0.214957 -1.56127 0
M  V30 1058 C 95.8754 0.963093 -1.70247 0
M  V30 1059 C 96.2554 2.02166 -0.60764 0
M  V30 1060 O 95.6034 2.25244 0.384385 0
M  V30 1061 C 95.8134 1.56756 -3.11815 0
M  V30 1062 C 97.1614 2.0573 -3.7143 0
M  V30 1063 O 98.1854 1.66637 -3.14818 0
M  V30 1064 O 97.0444 2.77603 -4.70743 0
M  V30 1065 H 94.1384 0.450321 -0.693643 0
M  V30 1066 H 96.6844 0.206219 -1.68442 0
M  V30 1067 H 95.4564 0.803533 -3.82961 0
M  V30 1068 H 95.0794 2.3898 -3.17765 0
M  V30 1069 N 96.0765 1.50051 0.48192 0
M  V30 1070 C 97.3235 1.60498 1.23477 0
M  V30 1071 C 97.6515 0.300331 1.92167 0
M  V30 1072 O 96.9065 -0.713094 1.82246 0
M  V30 1073 C 97.2055 2.72717 2.30998 0
M  V30 1074 C 96.8715 4.13572 1.79636 0
M  V30 1075 C 95.5335 4.519 1.65348 0
M  V30 1076 C 97.8855 5.01649 1.41412 0
M  V30 1077 C 95.2135 5.76057 1.11244 0
M  V30 1078 C 97.5655 6.26343 0.887538 0
M  V30 1079 C 96.2295 6.63483 0.731207 0
M  V30 1080 H 95.4995 0.587303 0.451836 0
M  V30 1081 H 98.1465 1.83948 0.532468 0
M  V30 1082 H 96.4515 2.43312 3.07094 0
M  V30 1083 H 98.1485 2.78006 2.88988 0
M  V30 1084 H 94.7385 3.83329 1.91721 0
M  V30 1085 H 98.9225 4.72679 1.51289 0
M  V30 1086 H 94.1785 6.03516 0.978686 0
M  V30 1087 H 98.3525 6.93958 0.582654 0
M  V30 1088 H 95.9795 7.59568 0.309806 0
M  V30 1089 N 97.5546 -0.734337 1.39446 0
M  V30 1090 C 98.8026 -1.49096 1.36436 0
M  V30 1091 C 99.1236 -1.94961 -0.0388255 0
M  V30 1092 O 98.3936 -1.69033 -0.990191 0
M  V30 1093 H 96.9736 -0.5531 0.502085 0
M  V30 1094 H 99.6356 -0.871725 1.74319 0
M  V30 1095 H 98.7316 -2.37276 2.02747 0
M  V30 1096 N 99.0327 -1.24633 -0.964593 0
M  V30 1097 C 100.449 -1.01239 -1.2338 0
M  V30 1098 C 100.649 0.2769 -1.99588 0
M  V30 1099 O 99.7047 0.992241 -2.32187 0
M  V30 1100 C 101.018 -2.22937 -2.01791 0
M  V30 1101 C 102.566 -2.27594 -2.14872 0
M  V30 1102 C 103.041 -3.48921 -2.96678 0
M  V30 1103 N 104.532 -3.49257 -3.04259 0
M  V30 1104 C 105.267 -4.39795 -3.67924 0
M  V30 1105 N 104.763 -5.40591 -4.33281 0
M  V30 1106 N 106.556 -4.275 -3.64966 0
M  V30 1107 H 98.7067 -2.0748 -0.454502 0
M  V30 1108 H 100.97 -0.910647 -0.26349 0
M  V30 1109 H 100.676 -3.16587 -1.53184 0
M  V30 1110 H 100.55 -2.25306 -3.02518 0
M  V30 1111 H 102.937 -1.34473 -2.6268 0
M  V30 1112 H 103.018 -2.2925 -1.13482 0
M  V30 1113 H 102.662 -4.42359 -2.49562 0
M  V30 1114 H 102.592 -3.4451 -3.98272 0
M  V30 1115 H 105.083 -2.76337 -2.57771 0
M  V30 1116 H 105.396 -6.05904 -4.79687 0
M  V30 1117 H 103.741 -5.44475 -4.3194 0
M  V30 1118 H 106.932 -3.47987 -3.13086 0
M  V30 1119 H 107.105 -4.98258 -4.14298 0
M  V30 1120 N 100.511 1.16574 -1.06058 0
M  V30 1121 C 101.741 1.90675 -0.795397 0
M  V30 1122 C 102.149 1.77547 0.653735 0
M  V30 1123 O 101.492 1.11611 1.45907 0
M  V30 1124 C 101.554 3.42011 -1.10764 0
M  V30 1125 C 101.218 3.78924 -2.55471 0
M  V30 1126 C 102.215 3.81042 -3.53699 0
M  V30 1127 C 99.8998 4.09626 -2.90708 0
M  V30 1128 C 101.894 4.13346 -4.85205 0
M  V30 1129 C 99.5808 4.41597 -4.22416 0
M  V30 1130 C 100.579 4.43436 -5.19474 0
M  V30 1131 O 100.267 4.74649 -6.48817 0
M  V30 1132 H 99.9988 0.611554 -0.288058 0
M  V30 1133 H 102.553 1.48711 -1.41683 0
M  V30 1134 H 100.783 3.84312 -0.429128 0
M  V30 1135 H 102.472 3.97384 -0.827077 0
M  V30 1136 H 103.238 3.57437 -3.27817 0
M  V30 1137 H 99.1168 4.07361 -2.15819 0
M  V30 1138 H 102.661 4.14696 -5.60957 0
M  V30 1139 H 98.5578 4.64667 -4.48056 0
M  V30 1140 H 99.3258 4.9247 -6.5377 0
M  V30 1141 N 101.989 0.842826 1.3317 0
M  V30 1142 C 102.919 0.294028 2.31641 0
M  V30 1143 C 103.9 -0.600401 1.59151 0
M  V30 1144 O 105.085 -0.523124 1.87022 0
M  V30 1145 C 102.215 -0.528416 3.43257 0
M  V30 1146 C 101.169 0.27056 4.27144 0
M  V30 1147 C 100.495 -0.675881 5.30411 0
M  V30 1148 C 101.795 1.48981 5.00602 0
M  V30 1149 H 103.489 1.11681 2.77791 0
M  V30 1150 H 101.035 0.538478 1.33553 0
M  V30 1151 H 102.988 -0.922674 4.11175 0
M  V30 1152 H 101.712 -1.38445 2.95805 0
M  V30 1153 H 100.371 0.646427 3.60856 0
M  V30 1154 H 100.019 -1.52842 4.79216 0
M  V30 1155 H 99.7189 -0.145374 5.8742 0
M  V30 1156 H 101.243 -1.06757 6.01195 0
M  V30 1157 H 102.657 1.16849 5.61266 0
M  V30 1158 H 101.054 1.95739 5.6728 0
M  V30 1159 H 102.124 2.25746 4.29147 0
M  V30 1160 N 103.467 -1.45747 0.599634 0
M  V30 1161 C 104.692 -2.07178 0.0960198 0
M  V30 1162 C 105.117 -1.44268 -1.207 0
M  V30 1163 O 104.475 -0.532503 -1.73303 0
M  V30 1164 C 104.523 -3.60579 -0.0385348 0
M  V30 1165 O 103.627 -3.97713 -1.0908 0
M  V30 1166 H 102.968 -0.660251 0.0704593 0
M  V30 1167 H 105.498 -1.87124 0.827385 0
M  V30 1168 H 105.508 -4.07298 -0.239304 0
M  V30 1169 H 104.183 -4.05756 0.912947 0
M  V30 1170 H 102.76 -3.62678 -0.867135 0
M  V30 1171 N 104.945 -0.338344 -1.53925 0
M  V30 1172 C 105.878 0.563758 -2.21127 0
M  V30 1173 C 106.856 1.10433 -1.19345 0
M  V30 1174 O 108.04 1.16557 -1.48144 0
M  V30 1175 C 105.167 1.77505 -2.88461 0
M  V30 1176 C 104.213 1.3644 -4.04087 0
M  V30 1177 S 105.046 0.388593 -5.34088 0
M  V30 1178 C 106.202 1.60683 -6.04923 0
M  V30 1179 H 106.435 -0.00704546 -2.97299 0
M  V30 1180 H 103.968 -0.122418 -1.53914 0
M  V30 1181 H 105.926 2.46999 -3.27875 0
M  V30 1182 H 104.587 2.31706 -2.12064 0
M  V30 1183 H 103.78 2.26739 -4.50117 0
M  V30 1184 H 103.382 0.748998 -3.66423 0
M  V30 1185 H 105.674 2.54209 -6.28 0
M  V30 1186 H 106.617 1.18842 -6.98056 0
M  V30 1187 H 107.025 1.80052 -5.35015 0
M  V30 1188 N 106.423 1.57458 -0.0668435 0
M  V30 1189 C 107.353 2.15468 0.899764 0
M  V30 1190 C 108.334 1.08042 1.31381 0
M  V30 1191 O 109.519 1.36054 1.38574 0
M  V30 1192 C 106.649 2.71232 2.16911 0
M  V30 1193 C 105.603 3.83781 1.89463 0
M  V30 1194 C 104.929 4.26127 3.22986 0
M  V30 1195 C 106.229 5.08238 1.20381 0
M  V30 1196 H 107.923 2.96488 0.416529 0
M  V30 1197 H 105.469 1.4262 0.198908 0
M  V30 1198 H 107.422 3.10458 2.84945 0
M  V30 1199 H 106.146 1.87426 2.67468 0
M  V30 1200 H 104.805 3.45051 1.23836 0
M  V30 1201 H 104.453 3.39249 3.71374 0
M  V30 1202 H 104.153 5.01993 3.05413 0
M  V30 1203 H 105.677 4.67966 3.92225 0
M  V30 1204 H 107.091 5.44811 1.78475 0
M  V30 1205 H 105.488 5.89349 1.13083 0
M  V30 1206 H 106.558 4.84558 0.182153 0
M  V30 1207 N 107.901 -0.206675 1.56239 0
M  V30 1208 C 108.811 -1.27686 1.96808 0
M  V30 1209 C 109.827 -1.50455 0.874035 0
M  V30 1210 O 111.003 -1.63295 1.17884 0
M  V30 1211 C 108.068 -2.60358 2.28942 0
M  V30 1212 C 107.129 -2.45762 3.51994 0
M  V30 1213 C 106.362 -3.72108 3.82585 0
M  V30 1214 O 106.585 -4.75776 3.14631 0
M  V30 1215 O 105.519 -3.6833 4.76043 0
M  V30 1216 H 109.345 -0.962593 2.88041 0
M  V30 1217 H 106.93 -0.410746 1.43643 0
M  V30 1218 H 108.812 -3.38687 2.50737 0
M  V30 1219 H 107.487 -2.91435 1.4088 0
M  V30 1220 H 106.394 -1.65584 3.35459 0
M  V30 1221 H 107.727 -2.19621 4.40486 0
M  V30 1222 N 109.379 -1.50304 -0.473955 0
M  V30 1223 C 110.342 -1.6841 -1.55469 0
M  V30 1224 C 111.342 -0.554905 -1.50922 0
M  V30 1225 O 112.532 -0.821882 -1.53593 0
M  V30 1226 C 109.664 -1.70667 -2.95102 0
M  V30 1227 H 110.857 -2.64828 -1.40733 0
M  V30 1228 H 108.41 -1.39742 -0.700132 0
M  V30 1229 H 109.145 -0.75932 -3.15285 0
M  V30 1230 H 108.93 -2.52698 -2.9981 0
M  V30 1231 H 110.42 -1.8664 -3.73571 0
M  V30 1232 N 110.857 0.726932 -1.39834 0
M  V30 1233 C 111.805 1.86235 -1.39353 0
M  V30 1234 C 112.799 1.67144 -0.275555 0
M  V30 1235 O 114.005 1.74387 -0.44601 0
M  V30 1236 H 110.38 0.613174 -0.43534 0
M  V30 1237 H 112.351 1.83756 -2.35109 0
M  V30 1238 C 111.1 3.23995 -1.26185 0
M  V30 1239 H 110.423 3.39285 -2.11484 0
M  V30 1240 H 111.863 4.03609 -1.29907 0
M  V30 1241 C 110.322 3.36888 0.0290018 0
M  V30 1242 O 110.852 3.89152 0.99619 0
M  V30 1243 N 109.058 2.90446 0.0947437 0
M  V30 1244 H 108.605 2.48102 -0.693035 0
M  V30 1245 H 108.563 2.99451 0.957932 0
M  V30 1246 N 112.336 1.25143 0.95797 0
M  V30 1247 C 113.268 1.01023 2.05735 0
M  V30 1248 C 114.281 -0.0236902 1.62783 0
M  V30 1249 O 115.47 0.21448 1.77207 0
M  V30 1250 C 112.57 0.504595 3.35122 0
M  V30 1251 C 111.743 1.6039 4.06932 0
M  V30 1252 C 110.802 1.09922 5.14591 0
M  V30 1253 O 109.828 1.79293 5.40225 0
M  V30 1254 N 111.03 -0.0612545 5.80468 0
M  V30 1255 H 113.795 1.95683 2.26998 0
M  V30 1256 H 111.356 1.16303 1.12629 0
M  V30 1257 H 113.348 0.151516 4.04416 0
M  V30 1258 H 111.918 -0.347989 3.10657 0
M  V30 1259 H 111.138 2.12872 3.31782 0
M  V30 1260 H 112.426 2.34252 4.51667 0
M  V30 1261 H 111.824 -0.640985 5.62057 0
M  V30 1262 H 110.381 -0.355395 6.5083 0
M  V30 1263 N 113.814 -1.1601 1.06675 0
M  V30 1264 C 114.762 -2.22586 0.675157 0
M  V30 1265 C 115.756 -1.66525 -0.310766 0
M  V30 1266 O 116.962 -1.79145 -0.175215 0
M  V30 1267 H 113.337 -0.724855 0.200223 0
M  V30 1268 H 115.308 -2.52899 1.58381 0
M  V30 1269 C 114.057 -3.47604 0.0817162 0
M  V30 1270 H 113.38 -3.91058 0.831484 0
M  V30 1271 H 114.82 -4.23718 -0.154708 0
M  V30 1272 C 113.279 -3.15718 -1.17576 0
M  V30 1273 O 113.809 -3.31878 -2.26318 0
M  V30 1274 N 112.015 -2.69816 -1.07923 0
M  V30 1275 H 111.562 -2.56866 -0.194293 0
M  V30 1276 H 111.52 -2.48855 -1.92141 0
M  V30 1277 N 115.292 -0.849877 -1.32721 0
M  V30 1278 C 116.517 -0.463856 -2.02146 0
M  V30 1279 C 116.942 0.930449 -1.63476 0
M  V30 1280 O 116.3 1.61033 -0.832952 0
M  V30 1281 C 116.348 -0.604955 -3.55489 0
M  V30 1282 O 115.452 0.36425 -4.10788 0
M  V30 1283 H 114.793 -0.187046 -0.637111 0
M  V30 1284 H 117.323 -1.14775 -1.69375 0
M  V30 1285 H 117.333 -0.490696 -4.05038 0
M  V30 1286 H 116.008 -1.62174 -3.82978 0
M  V30 1287 H 114.585 0.206628 -3.72327 0
M  V30 1288 N 116.77 1.45427 -0.607355 0
M  V30 1289 C 117.733 2.28974 0.101693 0
M  V30 1290 C 118.733 1.39754 0.795329 0
M  V30 1291 O 119.923 1.61878 0.643527 0
M  V30 1292 C 117.055 3.20768 1.15414 0
M  V30 1293 H 118.248 2.93147 -0.632844 0
M  V30 1294 H 115.801 1.51945 -0.366391 0
M  V30 1295 H 116.536 2.61395 1.91945 0
M  V30 1296 H 116.321 3.86489 0.66098 0
M  V30 1297 H 117.811 3.83589 1.65073 0
M  V30 1298 N 118.248 0.346503 1.53744 0
M  V30 1299 C 119.158 -0.517293 2.28826 0
M  V30 1300 C 120.174 -1.10935 1.3405 0
M  V30 1301 O 121.35 -1.1244 1.6709 0
M  V30 1302 C 118.415 -1.65098 3.04866 0
M  V30 1303 C 117.476 -1.0884 4.15274 0
M  V30 1304 C 116.709 -2.16806 4.87679 0
M  V30 1305 O 116.932 -3.3758 4.59778 0
M  V30 1306 O 115.866 -1.80934 5.74061 0
M  V30 1307 H 119.692 0.0931396 3.03557 0
M  V30 1308 H 117.277 0.111458 1.48984 0
M  V30 1309 H 119.159 -2.31053 3.5241 0
M  V30 1310 H 117.834 -2.24717 2.32989 0
M  V30 1311 H 116.741 -0.3933 3.72027 0
M  V30 1312 H 118.074 -0.537036 4.89261 0
M  V30 1313 N 119.726 -1.57421 0.075193 0
M  V30 1314 C 120.972 -1.94716 -0.587998 0
M  V30 1315 C 121.327 -0.955205 -1.67014 0
M  V30 1316 O 120.62 0.0219842 -1.91587 0
M  V30 1317 C 120.814 -3.36428 -1.20626 0
M  V30 1318 C 120.643 -4.49317 -0.185541 0
M  V30 1319 C 119.413 -5.04772 0.23099 0
M  V30 1320 C 121.611 -5.11036 0.57854 0
M  V30 1321 N 119.593 -6.01204 1.24206 0
M  V30 1322 C 120.964 -6.02998 1.44199 0
M  V30 1323 C 123.019 -4.93844 0.634237 0
M  V30 1324 C 121.722 -6.79614 2.3562 0
M  V30 1325 C 123.748 -5.71106 1.53597 0
M  V30 1326 C 123.11 -6.6272 2.38709 0
M  V30 1327 H 119.209 -0.759536 -0.186089 0
M  V30 1328 H 121.793 -1.94097 0.153128 0
M  V30 1329 H 119.964 -3.37778 -1.9173 0
M  V30 1330 H 121.696 -3.60951 -1.8302 0
M  V30 1331 H 118.451 -4.73353 -0.152807 0
M  V30 1332 H 118.875 -6.54119 1.74521 0
M  V30 1333 H 123.517 -4.22799 -0.00960004 0
M  V30 1334 H 121.235 -7.49934 3.01038 0
M  V30 1335 H 124.821 -5.59824 1.58394 0
M  V30 1336 H 123.701 -7.2146 3.07352 0
M  V30 1337 N 121.204 0.198386 -1.56346 0
M  V30 1338 C 122.136 1.26987 -1.90806 0
M  V30 1339 C 123.149 1.41877 -0.798419 0
M  V30 1340 O 124.338 1.42362 -1.07682 0
M  V30 1341 C 121.438 2.64246 -2.12196 0
M  V30 1342 C 120.611 2.71007 -3.43328 0
M  V30 1343 C 119.67 3.89439 -3.5387 0
M  V30 1344 O 118.696 3.76695 -4.26719 0
M  V30 1345 N 119.898 5.04752 -2.86715 0
M  V30 1346 H 122.663 0.977433 -2.83313 0
M  V30 1347 H 120.224 0.388322 -1.57174 0
M  V30 1348 H 122.216 3.41896 -2.1654 0
M  V30 1349 H 120.786 2.85992 -1.26204 0
M  V30 1350 H 120.006 1.79657 -3.50881 0
M  V30 1351 H 121.294 2.72512 -4.29668 0
M  V30 1352 H 120.692 5.18004 -2.2735 0
M  V30 1353 H 119.249 5.8036 -2.96691 0
M  V30 1354 N 122.682 1.50554 0.465978 0
M  V30 1355 C 123.645 1.69233 1.54574 0
M  V30 1356 C 124.645 0.562901 1.50626 0
M  V30 1357 O 125.835 0.830016 1.53155 0
M  V30 1358 C 122.967 1.7223 2.94193 0
M  V30 1359 H 124.16 2.65571 1.39327 0
M  V30 1360 H 121.713 1.40111 0.692711 0
M  V30 1361 H 122.448 0.77603 3.14878 0
M  V30 1362 H 122.233 2.54285 2.98466 0
M  V30 1363 H 123.723 1.88618 3.72576 0
M  V30 1364 N 124.16 -0.719506 1.40217 0
M  V30 1365 C 125.407 -1.47933 1.38283 0
M  V30 1366 C 125.735 -1.94493 -0.0161536 0
M  V30 1367 O 124.99 -1.68224 -0.999956 0
M  V30 1368 C 125.289 -2.72271 2.31524 0
M  V30 1369 C 124.955 -2.44496 3.78857 0
M  V30 1370 C 123.617 -2.36631 4.18998 0
M  V30 1371 C 125.969 -2.21104 4.71977 0
M  V30 1372 C 123.297 -2.03437 5.503 0
M  V30 1373 C 125.649 -1.89423 6.03574 0
M  V30 1374 C 124.313 -1.80038 6.42762 0
M  V30 1375 H 123.583 -0.541325 0.506012 0
M  V30 1376 H 126.23 -0.824502 1.72842 0
M  V30 1377 H 124.535 -3.42572 1.90137 0
M  V30 1378 H 126.232 -3.30348 2.27313 0
M  V30 1379 H 122.822 -2.51503 3.47051 0
M  V30 1380 H 127.006 -2.26139 4.41786 0
M  V30 1381 H 122.262 -1.94705 5.79569 0
M  V30 1382 H 126.436 -1.70336 6.75247 0
M  V30 1383 H 124.063 -1.54083 7.44421 0
M  V30 1384 N 125.638 -1.25649 -0.95132 0
M  V30 1385 C 126.887 -1.09988 -1.69073 0
M  V30 1386 C 127.2 0.358355 -1.92289 0
M  V30 1387 O 128.406 0.635466 -2.63958 0
M  V30 1388 C 126.862 -1.92012 -3.044 0
M  V30 1389 C 126.47 -3.42347 -2.88968 0
M  V30 1390 C 128.214 -1.8493 -3.82101 0
M  V30 1391 C 126.121 -4.16655 -4.19705 0
M  V30 1392 H 125.051 -0.407993 -0.63408 0
M  V30 1393 H 127.702 -1.49873 -1.05879 0
M  V30 1394 H 126.084 -1.44952 -3.68517 0
M  V30 1395 H 127.258 -3.97104 -2.33762 0
M  V30 1396 H 125.573 -3.50557 -2.24719 0
M  V30 1397 H 128.17 -2.37739 -4.78941 0
M  V30 1398 H 128.513 -0.817883 -4.08187 0
M  V30 1399 H 129.046 -2.29758 -3.2474 0
M  V30 1400 H 125.785 -5.20224 -3.98807 0
M  V30 1401 H 125.305 -3.66681 -4.74663 0
M  V30 1402 H 126.984 -4.24551 -4.88227 0
M  V30 1403 N 127.117 1.15442 -1.07289 0
M  V30 1404 C 128.065 2.22225 -0.686952 0
M  V30 1405 C 129.059 1.66688 0.30193 0
M  V30 1406 O 130.265 1.79236 0.165712 0
M  V30 1407 H 126.64 0.723783 -0.204064 0
M  V30 1408 H 128.611 2.52056 -1.5972 0
M  V30 1409 C 127.36 3.47556 -0.100149 0
M  V30 1410 H 126.683 3.90612 -0.852211 0
M  V30 1411 H 128.123 4.23794 0.132235 0
M  V30 1412 C 126.582 3.16337 1.159 0
M  V30 1413 O 127.112 3.33074 2.24555 0
M  V30 1414 N 125.318 2.70385 1.06491 0
M  V30 1415 H 124.865 2.56966 0.180668 0
M  V30 1416 H 124.823 2.49871 1.90819 0
M  V30 1417 N 128.595 0.856903 1.32268 0
M  V30 1418 C 129.558 0.308171 2.27119 0
M  V30 1419 C 130.558 -0.533421 1.51695 0
M  V30 1420 O 131.748 -0.344607 1.70757 0
M  V30 1421 C 128.88 -0.563757 3.36206 0
M  V30 1422 H 130.073 1.14535 2.77167 0
M  V30 1423 H 127.626 0.631421 1.42978 0
M  V30 1424 H 128.361 -1.42266 2.91429 0
M  V30 1425 H 128.146 0.0386749 3.92081 0
M  V30 1426 H 129.636 -0.940386 4.06874 0
M  V30 1427 N 130.073 -1.45103 0.615059 0
M  V30 1428 C 131.003 -2.33339 -0.0865619 0
M  V30 1429 C 131.984 -1.4727 -0.851209 0
M  V30 1430 O 133.169 -1.76026 -0.820281 0
M  V30 1431 C 130.299 -3.30095 -1.07956 0
M  V30 1432 C 129.253 -4.25858 -0.427628 0
M  V30 1433 C 128.579 -5.12361 -1.5294 0
M  V30 1434 C 129.879 -5.18165 0.655944 0
M  V30 1435 H 131.573 -2.92254 0.650224 0
M  V30 1436 H 129.119 -1.40532 0.314138 0
M  V30 1437 H 131.072 -3.90698 -1.57901 0
M  V30 1438 H 129.796 -2.69355 -1.84703 0
M  V30 1439 H 128.455 -3.66564 0.0510292 0
M  V30 1440 H 128.103 -4.47984 -2.28734 0
M  V30 1441 H 127.803 -5.77238 -1.09865 0
M  V30 1442 H 129.327 -5.75833 -2.03098 0
M  V30 1443 H 130.741 -5.72796 0.240257 0
M  V30 1444 H 129.138 -5.91559 1.00888 0
M  V30 1445 H 130.208 -4.60144 1.52957 0
M  V30 1446 N 131.551 -0.354651 -1.53558 0
M  V30 1447 C 132.779 0.239515 -2.05509 0
M  V30 1448 C 133.194 1.4333 -1.2289 0
M  V30 1449 O 132.551 1.80538 -0.266899 0
M  V30 1450 C 132.602 0.643719 -3.55723 0
M  V30 1451 O 132.323 -0.502602 -4.35207 0
M  V30 1452 C 133.824 1.29743 -4.23889 0
M  V30 1453 H 131.044 0.0442697 -0.669538 0
M  V30 1454 H 133.588 -0.509856 -1.98042 0
M  V30 1455 H 131.743 1.34302 -3.63376 0
M  V30 1456 H 132.157 -0.178172 -5.24197 0
M  V30 1457 H 133.631 1.53091 -5.30346 0
M  V30 1458 H 134.108 2.25441 -3.76926 0
M  V30 1459 H 134.714 0.639865 -4.20459 0
M  V30 1460 N 133.029 1.57378 -0.0835403 0
M  V30 1461 C 134.257 1.98263 0.59157 0
M  V30 1462 C 134.672 0.962302 1.62435 0
M  V30 1463 O 134.029 -0.049581 1.82433 0
M  V30 1464 C 134.08 3.39214 1.24965 0
M  V30 1465 O 133.801 4.37339 0.258186 0
M  V30 1466 C 135.302 3.95038 2.01147 0
M  V30 1467 H 132.522 0.651773 0.159477 0
M  V30 1468 H 135.066 2.03878 -0.159415 0
M  V30 1469 H 133.221 3.34649 1.95164 0
M  V30 1470 H 133.635 5.19371 0.731734 0
M  V30 1471 H 135.109 4.95848 2.42567 0
M  V30 1472 H 135.586 3.32222 2.87272 0
M  V30 1473 H 136.192 4.0304 1.35789 0
M  V30 1474 N 134.507 -0.190092 1.56449 0
M  V30 1475 C 135.455 -1.25501 1.95837 0
M  V30 1476 C 136.449 -1.4685 0.844485 0
M  V30 1477 O 137.655 -1.47651 1.02952 0
M  V30 1478 H 134.03 -0.421447 0.622805 0
M  V30 1479 H 136.001 -0.895821 2.84636 0
M  V30 1480 C 134.75 -2.59124 2.31841 0
M  V30 1481 H 134.073 -2.43514 3.17082 0
M  V30 1482 H 135.513 -3.32371 2.6326 0
M  V30 1483 C 133.972 -3.16488 1.15486 0
M  V30 1484 O 134.502 -3.99365 0.432535 0
M  V30 1485 N 132.708 -2.75305 0.930349 0
M  V30 1486 H 132.255 -2.08013 1.51948 0
M  V30 1487 H 132.213 -3.14024 0.153634 0
M  V30 1488 N 135.985 -1.50799 -0.457987 0
M  V30 1489 C 136.915 -1.73553 -1.5621 0
M  V30 1490 C 137.896 -0.584774 -1.59732 0
M  V30 1491 O 139.081 -0.825314 -1.7579 0
M  V30 1492 C 136.211 -1.84169 -2.94447 0
M  V30 1493 C 135.165 -2.99461 -3.0579 0
M  V30 1494 C 134.491 -2.95235 -4.45803 0
M  V30 1495 C 135.791 -4.39766 -2.81786 0
M  V30 1496 H 137.485 -2.66 -1.37421 0
M  V30 1497 H 135.031 -1.28002 -0.659662 0
M  V30 1498 H 136.984 -1.98672 -3.71628 0
M  V30 1499 H 135.708 -0.883545 -3.14422 0
M  V30 1500 H 134.367 -2.8463 -2.31044 0
M  V30 1501 H 134.015 -1.97239 -4.62715 0
M  V30 1502 H 133.715 -3.72642 -4.54326 0
M  V30 1503 H 135.239 -3.11803 -5.24987 0
M  V30 1504 H 136.653 -4.55054 -3.4871 0
M  V30 1505 H 135.05 -5.18722 -3.0174 0
M  V30 1506 H 136.12 -4.51229 -1.7754 0
M  V30 1507 N 137.463 0.71206 -1.40597 0
M  V30 1508 C 138.691 1.50111 -1.42388 0
M  V30 1509 C 139.106 1.88784 -0.0245395 0
M  V30 1510 O 138.463 1.55681 0.952351 0
M  V30 1511 C 138.514 2.7742 -2.31776 0
M  V30 1512 O 138.235 2.40382 -3.66262 0
M  V30 1513 C 139.736 3.7129 -2.42196 0
M  V30 1514 H 136.956 0.46314 -0.485533 0
M  V30 1515 H 139.5 0.878068 -1.8469 0
M  V30 1516 H 137.655 3.36001 -1.92827 0
M  V30 1517 H 138.069 3.22324 -4.13772 0
M  V30 1518 H 139.543 4.57448 -3.08943 0
M  V30 1519 H 140.02 4.14641 -1.44809 0
M  V30 1520 H 140.626 3.18619 -2.81712 0
M  V30 1521 N 138.941 1.26152 0.944643 0
M  V30 1522 C 139.904 1.07474 2.0244 0
M  V30 1523 C 140.904 0.0242064 1.60782 0
M  V30 1524 O 142.094 0.267302 1.72137 0
M  V30 1525 C 139.226 0.633956 3.34953 0
M  V30 1526 H 140.419 2.03336 2.20442 0
M  V30 1527 H 137.972 1.087 1.12312 0
M  V30 1528 H 138.707 -0.326811 3.22649 0
M  V30 1529 H 138.492 1.39247 3.66542 0
M  V30 1530 H 139.982 0.52501 4.14287 0
M  V30 1531 N 140.419 -1.14872 1.07899 0
M  V30 1532 C 141.666 -1.85789 0.805532 0
M  V30 1533 C 141.994 -1.82649 -0.668561 0
M  V30 1534 O 141.249 -1.24858 -1.50695 0
M  V30 1535 C 141.548 -3.34223 1.26609 0
M  V30 1536 C 141.214 -3.57555 2.74709 0
M  V30 1537 C 139.876 -3.63631 3.1516 0
M  V30 1538 C 142.228 -3.66803 3.70277 0
M  V30 1539 C 139.556 -3.76473 4.49983 0
M  V30 1540 C 141.908 -3.8117 5.04869 0
M  V30 1541 C 140.572 -3.85494 5.44932 0
M  V30 1542 H 139.842 -0.679849 0.294765 0
M  V30 1543 H 142.489 -1.3572 1.35101 0
M  V30 1544 H 140.794 -3.86536 0.640103 0
M  V30 1545 H 142.491 -3.87511 1.03132 0
M  V30 1546 H 139.081 -3.5347 2.42398 0
M  V30 1547 H 143.265 -3.61404 3.40149 0
M  V30 1548 H 138.521 -3.7808 4.80484 0
M  V30 1549 H 142.695 -3.87268 5.78789 0
M  V30 1550 H 140.322 -3.95197 6.49403 0
M  V30 1551 N 141.898 -0.863906 -1.31812 0
M  V30 1552 C 143.145 -0.471836 -1.96926 0
M  V30 1553 C 143.473 0.974578 -1.68322 0
M  V30 1554 O 142.728 1.7003 -0.968933 0
M  V30 1555 C 143.027 -0.668547 -3.51091 0
M  V30 1556 C 142.693 -2.08683 -3.99703 0
M  V30 1557 C 141.355 -2.47471 -4.12688 0
M  V30 1558 C 143.707 -3.01207 -4.25351 0
M  V30 1559 C 141.035 -3.78037 -4.4867 0
M  V30 1560 C 143.387 -4.31282 -4.62794 0
M  V30 1561 C 142.051 -4.69992 -4.73987 0
M  V30 1562 H 141.321 -0.172657 -0.720604 0
M  V30 1563 H 143.968 -1.09573 -1.57054 0
M  V30 1564 H 142.273 0.0385252 -3.91781 0
M  V30 1565 H 143.97 -0.345102 -3.99512 0
M  V30 1566 H 140.56 -1.77566 -3.90087 0
M  V30 1567 H 144.744 -2.72469 -4.14819 0
M  V30 1568 H 140 -4.078 -4.55532 0
M  V30 1569 H 144.174 -5.03031 -4.81594 0
M  V30 1570 H 141.801 -5.71207 -5.01624 0
M  V30 1571 N 143.376 1.44774 -0.622745 0
M  V30 1572 C 144.792 1.56986 -0.287652 0
M  V30 1573 C 144.992 1.61167 1.20944 0
M  V30 1574 O 144.048 1.55015 1.99315 0
M  V30 1575 C 145.361 2.84551 -0.972188 0
M  V30 1576 C 146.909 2.9825 -0.949536 0
M  V30 1577 C 147.384 4.28605 -1.61437 0
M  V30 1578 N 148.875 4.35399 -1.58057 0
M  V30 1579 C 149.61 5.34964 -2.064 0
M  V30 1580 N 149.106 6.40981 -2.62897 0
M  V30 1581 N 150.899 5.26419 -1.97078 0
M  V30 1582 H 143.05 1.40304 -1.59463 0
M  V30 1583 H 145.313 0.671794 -0.668878 0
M  V30 1584 H 145.019 2.87417 -2.02693 0
M  V30 1585 H 144.893 3.73807 -0.504771 0
M  V30 1586 H 147.28 2.94941 0.0967067 0
M  V30 1587 H 147.361 2.10364 -1.45536 0
M  V30 1588 H 147.005 4.32672 -2.66002 0
M  V30 1589 H 146.935 5.15334 -1.08344 0
M  V30 1590 H 149.426 3.59397 -1.16801 0
M  V30 1591 H 149.739 7.13225 -2.97539 0
M  V30 1592 H 148.084 6.4169 -2.66943 0
M  V30 1593 H 151.275 4.42504 -1.52669 0
M  V30 1594 H 151.448 6.03861 -2.35066 0
M  V30 1595 N 144.854 0.36279 1.53368 0
M  V30 1596 C 145.764 -0.492994 2.29362 0
M  V30 1597 C 146.78 -1.09507 1.35219 0
M  V30 1598 O 147.956 -1.10662 1.68273 0
M  V30 1599 C 145.021 -1.61855 3.066 0
M  V30 1600 C 144.082 -1.04429 4.16405 0
M  V30 1601 C 143.315 -2.11621 4.89951 0
M  V30 1602 O 143.538 -3.32684 4.63333 0
M  V30 1603 O 142.472 -1.74835 5.75948 0
M  V30 1604 H 146.298 0.125331 3.03441 0
M  V30 1605 H 143.883 0.127253 1.48857 0
M  V30 1606 H 145.765 -2.27302 3.54841 0
M  V30 1607 H 144.44 -2.22233 2.3536 0
M  V30 1608 H 143.347 -0.353819 3.72423 0
M  V30 1609 H 144.68 -0.485113 4.89804 0
M  V30 1610 N 146.332 -1.57332 0.0918853 0
M  V30 1611 C 147.295 -2.12708 -0.85369 0
M  V30 1612 C 148.295 -1.05561 -1.213 0
M  V30 1613 O 149.485 -1.31461 -1.14296 0
M  V30 1614 C 146.617 -2.64503 -2.15061 0
M  V30 1615 H 147.81 -2.97573 -0.3729 0
M  V30 1616 H 145.363 -1.55509 -0.157072 0
M  V30 1617 H 146.098 -1.83149 -2.67632 0
M  V30 1618 H 145.883 -3.4284 -1.90272 0
M  V30 1619 H 147.373 -3.07351 -2.82711 0
M  V30 1620 N 147.81 0.181792 -1.56548 0
M  V30 1621 C 148.76 1.22961 -1.92002 0
M  V30 1622 C 149.744 1.40331 -0.787146 0
M  V30 1623 O 150.936 1.42478 -1.05019 0
M  V30 1624 C 148.065 2.57144 -2.27446 0
M  V30 1625 C 147.151 2.43512 -3.47222 0
M  V30 1626 N 147.542 1.99577 -4.64761 0
M  V30 1627 C 145.84 2.74368 -3.51622 0
M  V30 1628 C 146.541 1.98156 -5.46909 0
M  V30 1629 N 145.517 2.40164 -4.8767 0
M  V30 1630 H 149.319 0.881462 -2.8037 0
M  V30 1631 H 146.833 0.390141 -1.57644 0
M  V30 1632 H 148.83 3.32847 -2.51035 0
M  V30 1633 H 147.49 2.92771 -1.40411 0
M  V30 1634 H 148.501 1.70078 -4.89177 0
M  V30 1635 H 145.178 3.14102 -2.75038 0
M  V30 1636 H 146.568 1.65975 -6.51077 0
M  V30 1637 N 149.288 1.51039 0.449983 0
M  V30 1638 C 150.238 1.67824 1.54335 0
M  V30 1639 C 151.222 0.5324 1.51836 0
M  V30 1640 O 152.414 0.787762 1.58503 0
M  V30 1641 C 149.543 1.7951 2.92628 0
M  V30 1642 C 148.629 2.99838 2.9993 0
M  V30 1643 N 149.02 4.23207 2.77001 0
M  V30 1644 C 147.318 2.98832 3.31082 0
M  V30 1645 C 148.019 5.04361 2.89818 0
M  V30 1646 N 146.995 4.38746 3.2094 0
M  V30 1647 H 150.797 2.60884 1.35339 0
M  V30 1648 H 148.311 1.48513 0.657085 0
M  V30 1649 H 150.308 1.89642 3.7127 0
M  V30 1650 H 148.968 0.876227 3.12654 0
M  V30 1651 H 149.979 4.5236 2.52172 0
M  V30 1652 H 146.656 2.16527 3.56963 0
M  V30 1653 H 148.046 6.12528 2.76151 0
M  V30 1654 N 150.766 -0.704594 1.40972 0
M  V30 1655 C 152.013 -1.46458 1.39844 0
M  V30 1656 C 152.341 -1.94499 0.00447594 0
M  V30 1657 O 151.596 -1.69275 -0.982057 0
M  V30 1658 C 151.895 -2.698 2.34399 0
M  V30 1659 C 151.561 -2.40464 3.81429 0
M  V30 1660 C 150.223 -2.32174 4.21484 0
M  V30 1661 C 152.575 -2.16086 4.74296 0
M  V30 1662 C 149.903 -1.97589 5.52427 0
M  V30 1663 C 152.255 -1.83011 6.05549 0
M  V30 1664 C 150.919 -1.7321 6.44635 0
M  V30 1665 H 150.189 -0.535927 0.511725 0
M  V30 1666 H 152.836 -0.806124 1.73706 0
M  V30 1667 H 151.141 -3.40536 1.93759 0
M  V30 1668 H 152.838 -3.27919 2.30804 0
M  V30 1669 H 149.428 -2.47808 3.49699 0
M  V30 1670 H 153.612 -2.2144 4.4416 0
M  V30 1671 H 148.868 -1.88547 5.81601 0
M  V30 1672 H 153.042 -1.63164 6.77016 0
M  V30 1673 H 150.669 -1.46179 7.46013 0
M  V30 1674 N 152.244 -1.26651 -0.937939 0
M  V30 1675 C 153.655 -1.1125 -1.49934 0
M  V30 1676 C 154.006 0.306077 -1.93798 0
M  V30 1677 O 153.131 1.19792 -1.80219 0
M  V30 1678 C 153.726 -2.01339 -2.72485 0
M  V30 1679 C 152.285 -1.90074 -3.24883 0
M  V30 1680 C 151.432 -1.94498 -1.97651 0
M  V30 1681 H 154.383 -1.39693 -0.753091 0
M  V30 1682 H 154.404 -1.56319 -3.46907 0
M  V30 1683 H 153.916 -3.04577 -2.40529 0
M  V30 1684 H 152.017 -0.897827 -3.61621 0
M  V30 1685 H 152.13 -2.75778 -3.9177 0
M  V30 1686 H 150.494 -1.38591 -2.13693 0
M  V30 1687 H 151.277 -2.99372 -1.68022 0
M  V30 1688 N 153.722 1.14298 -1.08507 0
M  V30 1689 C 154.971 1.84708 -0.810305 0
M  V30 1690 C 155.284 1.83903 0.666271 0
M  V30 1691 O 156.49 2.50112 1.05624 0
M  V30 1692 C 154.946 3.31572 -1.39957 0
M  V30 1693 C 154.554 3.40791 -2.90801 0
M  V30 1694 C 156.298 4.07087 -1.20334 0
M  V30 1695 C 154.205 4.81872 -3.4286 0
M  V30 1696 H 153.135 0.691985 -0.299454 0
M  V30 1697 H 155.786 1.28841 -1.30661 0
M  V30 1698 H 154.168 3.87183 -0.830976 0
M  V30 1699 H 155.342 2.95225 -3.53806 0
M  V30 1700 H 153.657 2.78732 -3.0935 0
M  V30 1701 H 156.254 5.11225 -1.56693 0
M  V30 1702 H 156.597 4.16054 -0.143237 0
M  V30 1703 H 157.13 3.57779 -1.73893 0
M  V30 1704 H 153.869 4.78094 -4.48449 0
M  V30 1705 H 153.389 5.27972 -2.84615 0
M  V30 1706 H 155.068 5.50765 -3.39509 0
M  V30 1707 N 155.201 0.870884 1.31352 0
M  V30 1708 C 156.131 0.343096 2.30966 0
M  V30 1709 C 157.112 -0.566507 1.60389 0
M  V30 1710 O 158.297 -0.483336 1.88089 0
M  V30 1711 C 155.427 -0.455487 3.443 0
M  V30 1712 C 154.381 0.361103 4.26474 0
M  V30 1713 C 153.707 -0.563221 5.31725 0
M  V30 1714 C 155.007 1.59566 4.97329 0
M  V30 1715 H 156.701 1.17548 2.75359 0
M  V30 1716 H 154.247 0.566686 1.32381 0
M  V30 1717 H 156.2 -0.83525 4.13039 0
M  V30 1718 H 154.924 -1.32139 2.98675 0
M  V30 1719 H 153.583 0.722825 3.59403 0
M  V30 1720 H 153.231 -1.42643 4.82351 0
M  V30 1721 H 152.931 -0.0207409 5.87596 0
M  V30 1722 H 154.455 -0.939808 6.03324 0
M  V30 1723 H 155.869 1.28728 5.58661 0
M  V30 1724 H 154.266 2.07728 5.63 0
M  V30 1725 H 155.336 2.34798 4.24262 0
M  V30 1726 N 156.679 -1.44442 0.630414 0
M  V30 1727 C 157.642 -2.29107 -0.0652523 0
M  V30 1728 C 158.642 -1.41002 -0.772995 0
M  V30 1729 O 159.832 -1.62881 -0.617692 0
M  V30 1730 C 156.964 -3.22564 -1.10296 0
M  V30 1731 H 158.157 -2.92103 0.679401 0
M  V30 1732 H 155.71 -1.51343 0.390517 0
M  V30 1733 H 156.445 -2.64416 -1.87762 0
M  V30 1734 H 156.23 -3.87491 -0.59941 0
M  V30 1735 H 157.72 -3.86167 -1.5895 0
M  V30 1736 N 158.157 -0.370918 -1.53173 0
M  V30 1737 C 159.067 0.480823 -2.2962 0
M  V30 1738 C 160.083 1.08789 -1.35798 0
M  V30 1739 O 161.259 1.09768 -1.68858 0
M  V30 1740 C 158.324 1.60227 -3.07454 0
M  V30 1741 C 157.385 1.0222 -4.16953 0
M  V30 1742 C 156.618 2.0902 -4.91066 0
M  V30 1743 O 156.841 3.30222 -4.65091 0
M  V30 1744 O 155.775 1.71778 -5.76867 0
M  V30 1745 H 159.601 -0.141421 -3.03371 0
M  V30 1746 H 157.186 -0.135146 -1.48787 0
M  V30 1747 H 159.068 2.25417 -3.56041 0
M  V30 1748 H 157.743 2.20982 -2.36535 0
M  V30 1749 H 156.65 0.334064 -3.72605 0
M  V30 1750 H 157.983 0.459131 -4.90054 0
M  V30 1751 N 159.635 1.57281 -0.100228 0
M  V30 1752 C 160.585 2.10848 0.86759 0
M  V30 1753 C 161.569 1.02473 1.24049 0
M  V30 1754 O 162.761 1.28739 1.21471 0
M  V30 1755 C 159.89 2.69648 2.12474 0
M  V30 1756 C 158.976 3.85074 1.77704 0
M  V30 1757 N 159.367 4.92897 1.13518 0
M  V30 1758 C 157.665 3.94905 2.07282 0
M  V30 1759 C 158.366 5.73475 0.974735 0
M  V30 1760 N 157.342 5.22675 1.4937 0
M  V30 1761 H 161.144 2.91594 0.367471 0
M  V30 1762 H 158.658 1.62074 0.102829 0
M  V30 1763 H 160.655 3.06356 2.82757 0
M  V30 1764 H 159.315 1.90359 2.63047 0
M  V30 1765 H 160.326 5.11662 0.801381 0
M  V30 1766 H 157.003 3.26633 2.60033 0
M  V30 1767 H 158.393 6.70238 0.472364 0
M  V30 1768 N 161.113 -0.173488 1.56642 0
M  V30 1769 C 162.076 -1.19859 1.95362 0
M  V30 1770 C 163.076 -1.37296 0.83704 0
M  V30 1771 O 164.266 -1.34739 1.10413 0
M  V30 1772 C 161.398 -2.56405 2.24654 0
M  V30 1773 H 162.591 -0.867062 2.87092 0
M  V30 1774 H 160.144 -0.415853 1.50666 0
M  V30 1775 H 160.879 -2.94576 1.35631 0
M  V30 1776 H 160.664 -2.45115 3.06041 0
M  V30 1777 H 162.154 -3.30287 2.5554 0
M  V30 1778 N 162.591 -1.51276 -0.441967 0
M  V30 1779 C 164.007 -1.39349 -0.778083 0
M  V30 1780 C 164.207 -0.472212 -1.95889 0
M  V30 1781 O 163.263 0.0743551 -2.5239 0
M  V30 1782 C 164.576 -2.81292 -1.0628 0
M  V30 1783 C 166.124 -2.9041 -1.16751 0
M  V30 1784 C 166.599 -4.33251 -1.48519 0
M  V30 1785 N 168.09 -4.36336 -1.55453 0
M  V30 1786 C 168.825 -5.43885 -1.81596 0
M  V30 1787 N 168.321 -6.61601 -2.05562 0
M  V30 1788 N 170.114 -5.3136 -1.8334 0
M  V30 1789 H 162.265 -2.09729 0.335774 0
M  V30 1790 H 164.528 -0.943925 0.0878028 0
M  V30 1791 H 164.234 -3.50678 -0.267905 0
M  V30 1792 H 164.108 -3.20334 -1.99163 0
M  V30 1793 H 166.495 -2.21225 -1.95304 0
M  V30 1794 H 166.576 -2.54871 -0.217801 0
M  V30 1795 H 166.22 -5.02984 -0.704958 0
M  V30 1796 H 166.15 -4.66299 -2.44689 0
M  V30 1797 H 168.641 -3.51466 -1.38853 0
M  V30 1798 H 168.954 -7.39361 -2.24867 0
M  V30 1799 H 167.299 -6.64725 -2.02894 0
M  V30 1800 H 170.49 -4.38382 -1.64132 0
M  V30 1801 H 170.663 -6.15258 -2.03377 0
M  V30 1802 N 164.069 0.697108 -1.41344 0
M  V30 1803 C 165.485 1.00751 -1.2378 0
M  V30 1804 C 165.685 2.01105 -0.126066 0
M  V30 1805 O 164.741 2.47295 0.51004 0
M  V30 1806 C 166.054 1.53359 -2.58653 0
M  V30 1807 C 167.602 1.6525 -2.65822 0
M  V30 1808 C 168.077 2.2126 -4.01009 0
M  V30 1809 N 169.568 2.28622 -4.02847 0
M  V30 1810 C 170.303 2.72984 -5.04249 0
M  V30 1811 N 169.799 3.16962 -6.16041 0
M  V30 1812 N 171.592 2.72534 -4.91611 0
M  V30 1813 H 163.743 0.0322662 -2.12375 0
M  V30 1814 H 166.006 0.0768853 -0.944877 0
M  V30 1815 H 165.712 0.870773 -3.4075 0
M  V30 1816 H 165.586 2.51597 -2.81032 0
M  V30 1817 H 167.973 2.30644 -1.84086 0
M  V30 1818 H 168.054 0.655614 -2.47256 0
M  V30 1819 H 167.698 1.56482 -4.83193 0
M  V30 1820 H 167.628 3.21698 -4.16915 0
M  V30 1821 H 170.119 1.97585 -3.22131 0
M  V30 1822 H 170.432 3.49434 -6.89287 0
M  V30 1823 H 168.777 3.14875 -6.1958 0
M  V30 1824 H 171.968 2.37525 -4.0336 0
M  V30 1825 H 172.141 3.06789 -5.70775 0
M  V30 1826 N 165.547 1.27147 0.931209 0
M  V30 1827 C 166.963 1.04475 1.20653 0
M  V30 1828 C 167.163 -0.223885 2.00252 0
M  V30 1829 O 166.219 -0.930332 2.34736 0
M  V30 1830 C 167.532 2.28209 1.95809 0
M  V30 1831 C 169.08 2.33211 2.08762 0
M  V30 1832 C 169.555 3.56665 2.87323 0
M  V30 1833 N 171.046 3.57201 2.94892 0
M  V30 1834 C 171.781 4.49395 3.56134 0
M  V30 1835 N 171.277 5.51889 4.18796 0
M  V30 1836 N 173.07 4.37026 3.53504 0
M  V30 1837 H 165.221 2.08612 0.399333 0
M  V30 1838 H 167.484 0.917312 0.239253 0
M  V30 1839 H 167.19 3.20538 1.44736 0
M  V30 1840 H 167.064 2.33247 2.96438 0
M  V30 1841 H 169.451 1.41391 2.59023 0
M  V30 1842 H 169.532 2.32178 1.07364 0
M  V30 1843 H 169.176 4.4882 2.37746 0
M  V30 1844 H 169.106 3.54948 3.88998 0
M  V30 1845 H 171.597 2.83074 2.50354 0
M  V30 1846 H 171.91 6.18409 4.63454 0
M  V30 1847 H 170.255 5.55735 4.17353 0
M  V30 1848 H 173.446 3.56166 3.03749 0
M  V30 1849 H 173.619 5.09067 4.00942 0
M  V30 1850 N 167.025 -1.13721 1.09112 0
M  V30 1851 C 167.975 -2.17082 0.697091 0
M  V30 1852 C 168.959 -1.58321 -0.286923 0
M  V30 1853 O 170.151 -1.7673 -0.0978008 0
M  V30 1854 C 167.28 -3.43105 0.115729 0
M  V30 1855 C 166.366 -4.0888 1.12596 0
M  V30 1856 N 166.757 -4.4987 2.31195 0
M  V30 1857 C 165.055 -4.35471 0.963366 0
M  V30 1858 C 165.756 -5.01094 2.95431 0
M  V30 1859 N 164.732 -4.95751 2.23006 0
M  V30 1860 H 168.534 -2.46524 1.6001 0
M  V30 1861 H 166.048 -1.30481 0.966869 0
M  V30 1862 H 168.045 -4.16491 -0.184555 0
M  V30 1863 H 166.705 -3.15138 -0.78217 0
M  V30 1864 H 167.716 -4.42678 2.68806 0
M  V30 1865 H 164.393 -4.17328 0.119878 0
M  V30 1866 H 165.783 -5.4263 3.96236 0
M  V30 1867 N 168.503 -0.877838 -1.30888 0
M  V30 1868 C 169.751 -0.491723 -1.96027 0
M  V30 1869 C 170.072 0.960827 -1.69685 0
M  V30 1870 O 169.342 1.67462 -1.01654 0
M  V30 1871 H 167.922 -0.17885 -0.725273 0
M  V30 1872 H 170.584 -1.11935 -1.59551 0
M  V30 1873 H 169.68 -0.656016 -3.05128 0
M  V30 1874 N 169.982 1.44106 -0.638065 0
M  V30 1875 C 170.892 2.34513 0.0637334 0
M  V30 1876 C 171.908 1.53018 0.828346 0
M  V30 1877 O 173.084 1.85723 0.779036 0
M  V30 1878 C 170.149 3.31095 1.02844 0
M  V30 1879 C 169.21 4.28497 0.26244 0
M  V30 1880 C 168.443 5.20465 1.1812 0
M  V30 1881 O 168.666 5.16514 2.42011 0
M  V30 1882 O 167.6 5.98251 0.661774 0
M  V30 1883 H 171.426 2.95989 -0.68003 0
M  V30 1884 H 169.011 1.43994 -0.398252 0
M  V30 1885 H 170.893 3.90526 1.58327 0
M  V30 1886 H 169.568 2.72144 1.7527 0
M  V30 1887 H 168.475 3.72592 -0.335602 0
M  V30 1888 H 169.808 4.90388 -0.421936 0
M  V30 1889 N 171.46 0.379036 1.52974 0
M  V30 1890 C 172.69 -0.20649 2.05566 0
M  V30 1891 C 173.098 -1.41906 1.25137 0
M  V30 1892 O 172.441 -1.81421 0.288464 0
M  V30 1893 C 172.503 -0.651086 3.53555 0
M  V30 1894 C 172.167 0.446626 4.54812 0
M  V30 1895 C 173.164 1.30079 5.03364 0
M  V30 1896 C 170.849 0.610719 4.98573 0
M  V30 1897 C 172.843 2.30426 5.94292 0
M  V30 1898 C 170.53 1.61754 5.89304 0
M  V30 1899 C 171.528 2.46274 6.37054 0
M  V30 1900 O 171.216 3.45237 7.25994 0
M  V30 1901 H 170.948 -0.0372381 0.674974 0
M  V30 1902 H 173.502 0.539718 1.98182 0
M  V30 1903 H 171.732 -1.44911 3.58522 0
M  V30 1904 H 173.421 -1.16112 3.88938 0
M  V30 1905 H 174.187 1.18527 4.70294 0
M  V30 1906 H 170.066 -0.0374044 4.60985 0
M  V30 1907 H 173.61 2.96432 6.31485 0
M  V30 1908 H 169.507 1.73348 6.21788 0
M  V30 1909 H 170.275 3.41124 7.44027 0
M  V30 1910 N 172.938 -1.57226 0.108567 0
M  V30 1911 C 174.354 -1.5766 -0.248058 0
M  V30 1912 C 174.554 -1.12063 -1.67464 0
M  V30 1913 O 173.61 -0.803236 -2.39383 0
M  V30 1914 C 174.923 -3.0069 -0.0242287 0
M  V30 1915 C 176.471 -3.12868 -0.0909372 0
M  V30 1916 C 176.946 -4.57879 0.105067 0
M  V30 1917 N 178.437 -4.63172 0.0506846 0
M  V30 1918 C 179.172 -5.73126 0.177396 0
M  V30 1919 N 178.668 -6.91866 0.359696 0
M  V30 1920 N 180.461 -5.61977 0.117709 0
M  V30 1921 H 172.612 -1.85169 1.04049 0
M  V30 1922 H 174.875 -0.85529 0.40888 0
M  V30 1923 H 174.581 -3.38299 0.961604 0
M  V30 1924 H 174.455 -3.6945 -0.76068 0
M  V30 1925 H 176.842 -2.75124 -1.06729 0
M  V30 1926 H 176.923 -2.46672 0.677225 0
M  V30 1927 H 176.567 -4.96321 1.07834 0
M  V30 1928 H 176.497 -5.22153 -0.682954 0
M  V30 1929 H 178.988 -3.778 -0.0871266 0
M  V30 1930 H 179.301 -7.71503 0.447529 0
M  V30 1931 H 177.646 -6.93874 0.395536 0
M  V30 1932 H 180.837 -4.68094 -0.0236741 0
M  V30 1933 H 181.01 -6.47627 0.219905 0
M  V30 1934 N 174.416 0.165178 -1.56732 0
M  V30 1935 C 175.662 0.882112 -1.82611 0
M  V30 1936 C 175.995 1.81628 -0.687378 0
M  V30 1937 O 175.27 1.92009 0.310267 0
M  V30 1938 C 175.553 1.67245 -3.18906 0
M  V30 1939 C 175.406 0.760987 -4.43316 0
M  V30 1940 C 176.725 2.63884 -3.52212 0
M  V30 1941 H 173.844 0.319242 -0.664269 0
M  V30 1942 H 176.486 0.148052 -1.89422 0
M  V30 1943 H 174.636 2.29824 -3.1323 0
M  V30 1944 H 176.308 0.147596 -4.61064 0
M  V30 1945 H 174.551 0.0694102 -4.33744 0
M  V30 1946 H 175.222 1.34962 -5.35247 0
M  V30 1947 H 177.698 2.11429 -3.58381 0
M  V30 1948 H 176.574 3.16245 -4.48643 0
M  V30 1949 H 176.835 3.44377 -2.77231 0
M  V30 1950 N 175.894 1.51508 0.433938 0
M  V30 1951 C 177.14 1.65549 1.18173 0
M  V30 1952 C 177.495 0.368751 1.88833 0
M  V30 1953 O 176.788 -0.635616 1.8075 0
M  V30 1954 C 176.982 2.79928 2.22205 0
M  V30 1955 C 176.811 4.19601 1.61756 0
M  V30 1956 C 175.581 4.85489 1.40101 0
M  V30 1957 C 177.779 5.02574 1.09194 0
M  V30 1958 N 175.761 6.09266 0.752859 0
M  V30 1959 C 177.132 6.17381 0.569255 0
M  V30 1960 C 179.187 4.88079 0.984025 0
M  V30 1961 C 177.89 7.19282 -0.0507472 0
M  V30 1962 C 179.916 5.90191 0.377912 0
M  V30 1963 C 179.278 7.04272 -0.134216 0
M  V30 1964 H 175.377 0.659653 0.419979 0
M  V30 1965 H 177.961 1.88746 0.477818 0
M  V30 1966 H 176.132 2.5839 2.89982 0
M  V30 1967 H 177.864 2.83132 2.89168 0
M  V30 1968 H 174.619 4.43417 1.66369 0
M  V30 1969 H 175.043 6.75528 0.446123 0
M  V30 1970 H 179.685 4.00131 1.36583 0
M  V30 1971 H 177.403 8.06876 -0.444676 0
M  V30 1972 H 180.989 5.81045 0.296269 0
M  V30 1973 H 179.869 7.81933 -0.59585 0
M  V30 1974 N 177.372 -0.689602 1.41712 0
M  V30 1975 C 178.597 -1.48329 1.44959 0
M  V30 1976 C 179.022 -1.8801 0.0581283 0
M  V30 1977 O 178.38 -1.55026 -0.940035 0
M  V30 1978 C 178.428 -2.71835 2.36935 0
M  V30 1979 O 177.532 -3.69549 1.8305 0
M  V30 1980 H 176.873 -0.446199 0.491734 0
M  V30 1981 H 179.403 -0.847127 1.86239 0
M  V30 1982 H 179.413 -3.20076 2.53013 0
M  V30 1983 H 178.088 -2.42291 3.38035 0
M  V30 1984 H 176.665 -3.2851 1.76452 0
M  V30 1985 N 178.85 -1.27639 -0.924453 0
M  V30 1986 C 179.813 -1.10681 -2.00705 0
M  V30 1987 C 180.813 -0.0497823 -1.60723 0
M  V30 1988 O 182.003 -0.294654 -1.7169 0
M  V30 1989 C 179.135 -0.687164 -3.33902 0
M  V30 1990 H 180.328 -2.06817 -2.17179 0
M  V30 1991 H 177.881 -1.10473 -1.10569 0
M  V30 1992 H 178.616 0.275439 -3.23128 0
M  V30 1993 H 178.401 -1.45061 -3.6428 0
M  V30 1994 H 179.891 -0.590853 -4.13399 0
M  V30 1995 N 180.328 1.1314 -1.09713 0
M  V30 1996 C 181.291 2.16831 -0.742751 0
M  V30 1997 C 182.291 1.59159 0.229129 0
M  V30 1998 O 183.481 1.74199 0.00693237 0
M  V30 1999 C 180.613 3.40756 -0.0989168 0
M  V30 2000 H 181.806 2.49695 -1.66109 0
M  V30 2001 H 179.359 1.2802 -0.896699 0
M  V30 2002 H 180.094 3.13485 0.830514 0
M  V30 2003 H 179.879 3.83888 -0.798265 0
M  V30 2004 H 181.369 4.17386 0.133524 0
M  V30 2005 N 181.806 0.884767 1.30421 0
M  V30 2006 C 182.769 0.356277 2.26414 0
M  V30 2007 C 183.769 -0.501124 1.52792 0
M  V30 2008 O 184.959 -0.30831 1.7145 0
M  V30 2009 C 182.091 -0.492316 3.37326 0
M  V30 2010 H 183.284 1.20389 2.74675 0
M  V30 2011 H 180.837 0.661607 1.41607 0
M  V30 2012 H 181.572 -1.36052 2.94381 0
M  V30 2013 H 181.357 0.121832 3.91911 0
M  V30 2014 H 182.847 -0.853871 4.08777 0
M  V30 2015 N 183.284 -1.43765 0.645699 0
M  V30 2016 C 184.509 -2.06767 0.161883 0
M  V30 2017 C 184.934 -1.48034 -1.16049 0
M  V30 2018 O 184.292 -0.587369 -1.71522 0
M  V30 2019 C 184.34 -3.60519 0.0762003 0
M  V30 2020 O 183.444 -4.00982 -0.963721 0
M  V30 2021 H 182.785 -0.657675 0.091429 0
M  V30 2022 H 185.315 -1.84397 0.886499 0
M  V30 2023 H 185.325 -4.07853 -0.109604 0
M  V30 2024 H 184 -4.02646 1.04157 0
M  V30 2025 H 182.577 -3.65253 -0.751312 0
M  V30 2026 N 184.763 -0.387143 -1.52771 0
M  V30 2027 C 185.991 0.195869 -2.05971 0
M  V30 2028 C 186.406 1.40691 -1.25903 0
M  V30 2029 O 185.763 1.79931 -0.305134 0
M  V30 2030 C 185.814 0.56812 -3.57008 0
M  V30 2031 O 185.535 -0.594803 -4.34043 0
M  V30 2032 C 187.036 1.20723 -4.26545 0
M  V30 2033 H 184.256 0.0300578 -0.670326 0
M  V30 2034 H 186.8 -0.551749 -1.96916 0
M  V30 2035 H 184.955 1.26564 -3.66143 0
M  V30 2036 H 185.369 -0.289322 -5.23701 0
M  V30 2037 H 186.843 1.41807 -5.33474 0
M  V30 2038 H 187.32 2.17395 -3.81623 0
M  V30 2039 H 187.926 0.550535 -4.21722 0
M  V30 2040 N 186.241 1.57166 -0.116904 0
M  V30 2041 C 187.489 1.94737 0.540533 0
M  V30 2042 C 187.81 1.00096 1.67349 0
M  V30 2043 O 187.08 0.0568854 1.95817 0
M  V30 2044 H 185.66 0.718981 0.202669 0
M  V30 2045 H 188.322 1.94017 -0.185353 0
M  V30 2046 H 187.418 2.97719 0.936483 0
M  V30 2047 N 187.719 -0.156864 1.56817 0
M  V30 2048 C 188.629 -1.2136 2.00771 0
M  V30 2049 C 189.645 -1.47598 0.921459 0
M  V30 2050 O 190.821 -1.59462 1.2302 0
M  V30 2051 C 187.886 -2.52943 2.37109 0
M  V30 2052 C 186.947 -2.34439 3.59634 0
M  V30 2053 C 186.18 -3.59748 3.94229 0
M  V30 2054 O 186.403 -4.65526 3.29609 0
M  V30 2055 O 185.337 -3.52998 4.8752 0
M  V30 2056 H 189.163 -0.870468 2.90958 0
M  V30 2057 H 186.748 -0.36484 1.44877 0
M  V30 2058 H 188.63 -3.30538 2.61386 0
M  V30 2059 H 187.305 -2.86806 1.5008 0
M  V30 2060 H 186.212 -1.54828 3.40557 0
M  V30 2061 H 187.545 -2.05496 4.4725 0
M  V30 2062 N 189.197 -1.51736 -0.425897 0
M  V30 2063 C 190.107 -1.76738 -1.54275 0
M  V30 2064 C 191.123 -0.65211 -1.61318 0
M  V30 2065 O 192.299 -0.935654 -1.78346 0
M  V30 2066 C 189.364 -1.89755 -2.90162 0
M  V30 2067 C 188.425 -3.13633 -2.93143 0
M  V30 2068 C 187.658 -3.2602 -4.22548 0
M  V30 2069 O 187.881 -2.44067 -5.15546 0
M  V30 2070 O 186.815 -4.19071 -4.32046 0
M  V30 2071 H 190.641 -2.71502 -1.36089 0
M  V30 2072 H 188.226 -1.36376 -0.610069 0
M  V30 2073 H 190.108 -2.00236 -3.70788 0
M  V30 2074 H 188.783 -0.981785 -3.08452 0
M  V30 2075 H 187.69 -3.08622 -2.11431 0
M  V30 2076 H 189.023 -4.04936 -2.798 0
M  V30 2077 N 190.675 0.682077 -1.42076 0
M  V30 2078 C 192.086 1.26246 -1.37546 0
M  V30 2079 C 192.437 1.96092 -0.0651481 0
M  V30 2080 O 191.562 1.99587 0.836297 0
M  V30 2081 C 192.157 2.29594 -2.49143 0
M  V30 2082 C 190.716 2.83175 -2.47969 0
M  V30 2083 C 189.863 1.57395 -2.28303 0
M  V30 2084 H 192.814 0.475937 -1.51395 0
M  V30 2085 H 192.835 3.11175 -2.18976 0
M  V30 2086 H 192.347 1.78729 -3.44496 0
M  V30 2087 H 190.448 3.3818 -1.56413 0
M  V30 2088 H 190.561 3.32687 -3.44755 0
M  V30 2089 H 188.925 1.83699 -1.76428 0
M  V30 2090 H 189.708 1.08507 -3.25701 0
M  V30 2091 N 192.153 1.28127 0.917671 0
M  V30 2092 C 193.383 1.17722 1.6978 0
M  V30 2093 C 193.791 -0.267261 1.87303 0
M  V30 2094 O 193.134 -1.19286 1.39702 0
M  V30 2095 C 193.196 1.79958 3.11216 0
M  V30 2096 C 192.86 3.29187 3.16993 0
M  V30 2097 C 193.857 4.25679 2.98485 0
M  V30 2098 C 191.542 3.70075 3.39632 0
M  V30 2099 C 193.536 5.61035 3.02521 0
M  V30 2100 C 191.223 5.05557 3.433 0
M  V30 2101 C 192.221 6.00847 3.24764 0
M  V30 2102 O 191.909 7.33859 3.28187 0
M  V30 2103 H 191.641 0.409788 0.537634 0
M  V30 2104 H 194.195 1.69694 1.15728 0
M  V30 2105 H 192.425 1.22475 3.66793 0
M  V30 2106 H 194.114 1.64125 3.71238 0
M  V30 2107 H 194.88 3.95426 2.80826 0
M  V30 2108 H 190.759 2.96373 3.53106 0
M  V30 2109 H 194.303 6.35388 2.87971 0
M  V30 2110 H 190.2 5.35462 3.60486 0
M  V30 2111 H 190.968 7.42436 3.44575 0
M  V30 2112 N 193.631 -1.12557 1.10312 0
M  V30 2113 C 194.856 -1.88405 0.867085 0
M  V30 2114 C 195.281 -1.79038 -0.576817 0
M  V30 2115 O 194.639 -1.14439 -1.40618 0
M  V30 2116 C 194.687 -3.3563 1.31851 0
M  V30 2117 O 193.791 -4.09565 0.482734 0
M  V30 2118 H 193.132 -0.585455 0.313271 0
M  V30 2119 H 195.662 -1.42352 1.4696 0
M  V30 2120 H 195.672 -3.86469 1.3079 0
M  V30 2121 H 194.347 -3.41765 2.37001 0
M  V30 2122 H 192.924 -3.68695 0.558448 0
M  V30 2123 N 195.109 -0.891671 -1.2995 0
M  V30 2124 C 196.358 -0.509521 -1.95158 0
M  V30 2125 C 196.671 0.947388 -1.71125 0
M  V30 2126 O 197.877 1.43669 -2.30372 0
M  V30 2127 C 196.333 -0.860315 -3.49466 0
M  V30 2128 C 195.941 -2.33545 -3.8231 0
M  V30 2129 C 197.685 -0.547687 -4.20952 0
M  V30 2130 C 195.592 -2.62752 -5.29826 0
M  V30 2131 H 194.522 -0.18682 -0.730489 0
M  V30 2132 H 197.173 -1.08756 -1.47798 0
M  V30 2133 H 195.555 -0.211285 -3.95436 0
M  V30 2134 H 196.729 -3.02936 -3.47227 0
M  V30 2135 H 195.044 -2.61629 -3.23944 0
M  V30 2136 H 197.641 -0.742854 -5.29515 0
M  V30 2137 H 197.984 0.51332 -4.13123 0
M  V30 2138 H 198.517 -1.1542 -3.80688 0
M  V30 2139 H 195.256 -3.6762 -5.42712 0
M  V30 2140 H 194.776 -1.97977 -5.66185 0
M  V30 2141 H 196.455 -2.48601 -5.97333 0
M  V30 2142 N 196.587 1.43421 -0.653314 0
M  V30 2143 C 197.55 2.29182 0.0287951 0
M  V30 2144 C 198.55 1.42213 0.750465 0
M  V30 2145 O 199.74 1.63843 0.591701 0
M  V30 2146 C 196.872 3.24278 1.05151 0
M  V30 2147 H 198.065 2.90985 -0.725786 0
M  V30 2148 H 195.618 1.50702 -0.414545 0
M  V30 2149 H 196.353 2.6737 1.83532 0
M  V30 2150 H 196.138 3.88396 0.537687 0
M  V30 2151 H 197.628 3.88647 1.52786 0
M  V30 2152 N 198.065 0.39524 1.52563 0
M  V30 2153 C 199.314 -0.186321 2.00838 0
M  V30 2154 C 199.627 -1.47402 1.28577 0
M  V30 2155 O 200.833 -2.13599 1.67593 0
M  V30 2156 C 199.289 -0.382595 3.57861 0
M  V30 2157 C 198.897 0.892202 4.39026 0
M  V30 2158 C 200.641 -0.9202 4.14406 0
M  V30 2159 C 198.548 0.66388 5.87662 0
M  V30 2160 H 197.478 -0.0734041 0.750418 0
M  V30 2161 H 200.129 0.518552 1.76021 0
M  V30 2162 H 198.511 -1.14946 3.7895 0
M  V30 2163 H 199.685 1.66414 4.29701 0
M  V30 2164 H 198 1.35519 3.9373 0
M  V30 2165 H 200.597 -1.10683 5.23119 0
M  V30 2166 H 200.94 -1.89096 3.70875 0
M  V30 2167 H 201.473 -0.212751 3.97231 0
M  V30 2168 H 198.212 1.6058 6.35527 0
M  V30 2169 H 197.732 -0.0690193 5.9976 0
M  V30 2170 H 199.411 0.300699 6.46301 0
M  V30 2171 N 199.544 -1.57102 0.125237 0
M  V30 2172 C 200.772 -1.99761 -0.538797 0
M  V30 2173 C 201.187 -1.00503 -1.59827 0
M  V30 2174 O 200.544 0.00119474 -1.825 0
M  V30 2175 C 200.595 -3.42408 -1.15927 0
M  V30 2176 O 200.316 -4.37869 -0.142143 0
M  V30 2177 C 201.817 -4.00232 -1.90602 0
M  V30 2178 H 199.037 -0.655772 -0.14214 0
M  V30 2179 H 201.581 -2.03383 0.213413 0
M  V30 2180 H 199.736 -3.39706 -1.86223 0
M  V30 2181 H 200.15 -5.21128 -0.593775 0
M  V30 2182 H 201.624 -5.02105 -2.29335 0
M  V30 2183 H 202.101 -3.39721 -2.78363 0
M  V30 2184 H 202.707 -4.06499 -1.25055 0
M  V30 2185 N 201.022 0.148545 -1.56898 0
M  V30 2186 C 201.952 1.18524 -2.01182 0
M  V30 2187 C 202.933 1.4489 -0.891123 0
M  V30 2188 O 204.118 1.55836 -1.15882 0
M  V30 2189 C 201.248 2.51879 -2.39112 0
M  V30 2190 C 200.202 2.40038 -3.54353 0
M  V30 2191 C 199.528 3.78089 -3.78091 0
M  V30 2192 C 200.828 1.88577 -4.87069 0
M  V30 2193 H 202.522 0.817029 -2.88036 0
M  V30 2194 H 200.068 0.391575 -1.38574 0
M  V30 2195 H 202.021 3.24627 -2.68692 0
M  V30 2196 H 200.745 2.90532 -1.49193 0
M  V30 2197 H 199.404 1.69742 -3.24936 0
M  V30 2198 H 199.052 4.14175 -2.85426 0
M  V30 2199 H 198.752 3.71028 -4.55645 0
M  V30 2200 H 200.276 4.52387 -4.10095 0
M  V30 2201 H 201.69 2.51117 -5.15377 0
M  V30 2202 H 200.087 1.9241 -5.68417 0
M  V30 2203 H 201.157 0.84136 -4.77545 0
M  V30 2204 N 202.5 1.5196 0.417844 0
M  V30 2205 C 203.463 1.74065 1.49111 0
M  V30 2206 C 204.463 0.610537 1.48758 0
M  V30 2207 O 205.653 0.87832 1.50437 0
M  V30 2208 C 202.785 1.81502 2.88565 0
M  V30 2209 H 203.978 2.69869 1.30807 0
M  V30 2210 H 201.531 1.42244 0.647785 0
M  V30 2211 H 202.266 0.875813 3.1225 0
M  V30 2212 H 202.051 2.63651 2.90225 0
M  V30 2213 H 203.541 2.00376 3.66387 0
M  V30 2214 N 203.978 -0.674533 1.42435 0
M  V30 2215 C 205.255 -1.4305 1.33402 0
M  V30 2216 C 205.635 -2.11081 -0.0284674 0
M  V30 2217 O 204.983 -2.03257 -1.04397 0
M  V30 2218 C 205.193 -2.43272 2.50239 0
M  V30 2219 C 206.541 -3.07907 2.92367 0
M  V30 2220 O 207.565 -2.53599 2.50132 0
M  V30 2221 O 206.424 -4.0632 3.65467 0
M  V30 2222 H 203.518 -0.638076 0.526106 0
M  V30 2223 H 206.064 -0.703235 1.54443 0
M  V30 2224 H 204.836 -1.91803 3.41068 0
M  V30 2225 H 204.459 -3.23479 2.31186 0
M  V30 2226 N 205.456 -1.28612 -0.910864 0
M  V30 2227 C 206.419 -1.12803 -1.9952 0
M  V30 2228 C 207.419 -0.0668264 -1.60661 0
M  V30 2229 O 208.609 -0.312847 -1.71368 0
M  V30 2230 C 205.741 -0.72254 -3.33155 0
M  V30 2231 H 206.934 -2.09109 -2.14973 0
M  V30 2232 H 204.487 -1.11639 -1.09391 0
M  V30 2233 H 205.222 0.241152 -3.23402 0
M  V30 2234 H 205.007 -1.48916 -3.62721 0
M  V30 2235 H 206.497 -0.634666 -4.12749 0
M  V30 2236 N 206.934 1.1197 -1.10907 0
M  V30 2237 C 207.864 2.19928 -0.784473 0
M  V30 2238 C 208.845 1.6833 0.244726 0
M  V30 2239 O 210.03 1.93892 0.109418 0
M  V30 2240 C 207.16 3.46597 -0.220827 0
M  V30 2241 C 206.114 4.11376 -1.18127 0
M  V30 2242 C 205.44 5.32554 -0.478594 0
M  V30 2243 C 206.74 4.56945 -2.52979 0
M  V30 2244 H 208.434 2.47337 -1.68715 0
M  V30 2245 H 205.98 1.18879 -0.812642 0
M  V30 2246 H 207.933 4.21396 0.0184278 0
M  V30 2247 H 206.657 3.1863 0.717113 0
M  V30 2248 H 205.316 3.38564 -1.40606 0
M  V30 2249 H 204.964 5.00856 0.463976 0
M  V30 2250 H 204.664 5.76844 -1.11912 0
M  V30 2251 H 206.188 6.10096 -0.248 0
M  V30 2252 H 207.602 5.23093 -2.3462 0
M  V30 2253 H 205.999 5.1203 -3.12962 0
M  V30 2254 H 207.069 3.70676 -3.12614 0
M  V30 2255 N 208.412 0.89855 1.29475 0
M  V30 2256 C 209.66 0.522847 1.9522 0
M  V30 2257 C 209.981 -0.93371 1.71192 0
M  V30 2258 O 209.251 -1.65823 1.04305 0
M  V30 2259 H 207.831 0.190366 0.722336 0
M  V30 2260 H 210.493 1.14459 1.5775 0
M  V30 2261 H 209.589 0.704476 3.04045 0
M  V30 2262 N 209.89 -1.43072 0.660911 0
M  V30 2263 C 210.823 -2.28074 -0.0758862 0
M  V30 2264 C 211.801 -1.40271 -0.822362 0
M  V30 2265 O 212.985 -1.69713 -0.820352 0
M  V30 2266 C 210.112 -3.19843 -1.11437 0
M  V30 2267 C 209.158 -4.23957 -0.465069 0
M  V30 2268 S 209.991 -5.29978 0.767078 0
M  V30 2269 C 211.147 -6.25314 -0.270682 0
M  V30 2270 H 211.38 -2.90216 0.645139 0
M  V30 2271 H 208.913 -1.47697 0.449995 0
M  V30 2272 H 210.871 -3.73257 -1.70849 0
M  V30 2273 H 209.532 -2.56863 -1.80776 0
M  V30 2274 H 208.725 -4.88299 -1.24819 0
M  V30 2275 H 208.327 -3.73959 0.0551242 0
M  V30 2276 H 210.619 -6.67932 -1.13459 0
M  V30 2277 H 211.562 -7.07293 0.337916 0
M  V30 2278 H 211.97 -5.61195 -0.609937 0
M  V30 2279 N 211.368 -0.403325 -1.52352 0
M  V30 2280 C 212.331 0.413051 -2.25447 0
M  V30 2281 C 213.331 0.978513 -1.276 0
M  V30 2282 O 214.521 0.858305 -1.51587 0
M  V30 2283 C 211.653 1.58087 -3.02029 0
M  V30 2284 H 212.846 -0.227094 -2.99039 0
M  V30 2285 H 210.399 -0.155722 -1.55522 0
M  V30 2286 H 211.134 2.25804 -2.32772 0
M  V30 2287 H 210.919 1.18195 -3.73861 0
M  V30 2288 H 212.409 2.1585 -3.57489 0
M  V30 2289 N 212.846 1.57033 -0.133567 0
M  V30 2290 C 214.257 1.82593 0.389464 0
M  V30 2291 C 214.608 1.05156 1.6564 0
M  V30 2292 O 213.733 0.292644 2.14412 0
M  V30 2293 C 214.328 3.31204 0.713377 0
M  V30 2294 C 212.887 3.57393 1.18098 0
M  V30 2295 C 212.034 2.76598 0.197126 0
M  V30 2296 H 214.985 1.54598 -0.358481 0
M  V30 2297 H 215.006 3.46627 1.56939 0
M  V30 2298 H 214.518 3.87537 -0.2089 0
M  V30 2299 H 212.619 3.06433 2.11966 0
M  V30 2300 H 212.732 4.65915 1.11624 0
M  V30 2301 H 211.096 2.45257 0.687088 0
M  V30 2302 H 211.879 3.35697 -0.718504 0
M  V30 2303 N 214.325 -0.140222 1.56975 0
M  V30 2304 C 215.573 -0.850005 1.83356 0
M  V30 2305 C 215.894 -1.81399 0.71551 0
M  V30 2306 O 215.164 -1.94136 -0.262294 0
M  V30 2307 H 213.744 -0.316886 0.676456 0
M  V30 2308 H 216.406 -0.132608 1.94448 0
M  V30 2309 H 215.502 -1.40814 2.78528 0
M  V30 2310 N 215.803 -1.52179 -0.40978 0
M  V30 2311 C 217.219 -1.40968 -0.74835 0
M  V30 2312 C 217.419 -0.513657 -1.94843 0
M  V30 2313 O 216.475 0.0208026 -2.52491 0
M  V30 2314 C 217.788 -2.83483 -1.0029 0
M  V30 2315 C 219.336 -2.92821 -1.10565 0
M  V30 2316 C 219.811 -4.36303 -1.39296 0
M  V30 2317 N 221.302 -4.39535 -1.46162 0
M  V30 2318 C 222.037 -5.47614 -1.70018 0
M  V30 2319 N 221.533 -6.65812 -1.91483 0
M  V30 2320 N 223.326 -5.35129 -1.72027 0
M  V30 2321 H 215.477 -2.0897 0.380186 0
M  V30 2322 H 217.74 -0.94185 0.107805 0
M  V30 2323 H 217.446 -3.51168 -0.193461 0
M  V30 2324 H 217.32 -3.24487 -1.92323 0
M  V30 2325 H 219.707 -2.25318 -1.90568 0
M  V30 2326 H 219.788 -2.55276 -0.16369 0
M  V30 2327 H 219.432 -5.04366 -0.598109 0
M  V30 2328 H 219.362 -4.71385 -2.34743 0
M  V30 2329 H 221.853 -3.54332 -1.31367 0
M  V30 2330 H 222.166 -7.43964 -2.09134 0
M  V30 2331 H 220.511 -6.68879 -1.88749 0
M  V30 2332 H 223.702 -4.41764 -1.54796 0
M  V30 2333 H 223.875 -6.19433 -1.9028 0
M  V30 2334 N 217.281 0.66697 -1.42791 0
M  V30 2335 C 218.527 1.42754 -1.44889 0
M  V30 2336 C 218.882 1.92283 -0.0669755 0
M  V30 2337 O 218.175 1.68494 0.912154 0
M  V30 2338 C 218.369 2.6349 -2.4147 0
M  V30 2339 C 218.198 2.25776 -3.88915 0
M  V30 2340 C 216.968 2.1476 -4.57391 0
M  V30 2341 C 219.166 1.86927 -4.79127 0
M  V30 2342 N 217.148 1.70232 -5.89826 0
M  V30 2343 C 218.519 1.53378 -6.00729 0
M  V30 2344 C 220.574 1.73989 -4.66511 0
M  V30 2345 C 219.277 1.08187 -7.11117 0
M  V30 2346 C 221.303 1.30203 -5.76889 0
M  V30 2347 C 220.665 0.975818 -6.97608 0
M  V30 2348 H 216.764 0.518559 -0.585338 0
M  V30 2349 H 219.348 0.768906 -1.78874 0
M  V30 2350 H 217.519 3.27033 -2.09533 0
M  V30 2351 H 219.251 3.30123 -2.34096 0
M  V30 2352 H 216.006 2.3408 -4.11708 0
M  V30 2353 H 216.43 1.50369 -6.6009 0
M  V30 2354 H 221.072 1.97853 -3.7365 0
M  V30 2355 H 218.79 0.830701 -8.03819 0
M  V30 2356 H 222.376 1.20701 -5.69142 0
M  V30 2357 H 221.256 0.642157 -7.81566 0
M  V30 2358 N 218.759 1.29093 0.90403 0
M  V30 2359 C 219.706 1.13853 2.00764 0
M  V30 2360 C 220.676 0.0330084 1.66067 0
M  V30 2361 O 221.861 0.199733 1.89752 0
M  V30 2362 C 219.001 0.816537 3.35301 0
M  V30 2363 C 218.114 2.00206 3.82807 0
M  V30 2364 C 217.249 1.61983 5.059 0
M  V30 2365 C 216.288 2.77143 5.45764 0
M  V30 2366 N 215.425 2.39346 6.60044 0
M  V30 2367 H 220.265 2.08276 2.13132 0
M  V30 2368 H 217.802 1.03648 1.04381 0
M  V30 2369 H 219.76 0.610557 4.12708 0
M  V30 2370 H 218.39 -0.090779 3.22672 0
M  V30 2371 H 217.442 2.31988 3.01473 0
M  V30 2372 H 218.754 2.86512 4.08304 0
M  V30 2373 H 217.908 1.37649 5.90879 0
M  V30 2374 H 216.647 0.728202 4.82233 0
M  V30 2375 H 215.652 3.02165 4.59322 0
M  V30 2376 H 216.877 3.66964 5.71414 0
M  V30 2377 H 214.823 1.52665 6.37989 0
M  V30 2378 H 214.74 3.19185 6.85315 0
M  V30 2379 H 216.008 2.1832 7.48303 0
M  V30 2380 N 220.237 -1.11381 1.11499 0
M  V30 2381 C 221.483 -1.83403 0.865512 0
M  V30 2382 C 221.816 -1.84459 -0.607329 0
M  V30 2383 O 221.091 -1.29811 -1.44842 0
M  V30 2384 C 221.374 -3.30552 1.42855 0
M  V30 2385 C 221.227 -3.37886 2.96906 0
M  V30 2386 C 222.546 -4.26643 1.08 0
M  V30 2387 H 219.665 -0.665879 0.31587 0
M  V30 2388 H 222.307 -1.30601 1.37998 0
M  V30 2389 H 220.457 -3.75648 0.990985 0
M  V30 2390 H 222.129 -3.01343 3.49271 0
M  V30 2391 H 220.372 -2.78088 3.32941 0
M  V30 2392 H 221.043 -4.41458 3.31389 0
M  V30 2393 H 223.519 -3.89729 1.45775 0
M  V30 2394 H 222.395 -5.27986 1.50072 0
M  V30 2395 H 222.656 -4.42099 -0.00915037 0
M  V30 2396 N 221.715 -0.905404 -1.28997 0
M  V30 2397 C 222.962 -0.534248 -1.95325 0
M  V30 2398 C 223.29 0.920535 -1.71337 0
M  V30 2399 O 222.545 1.66861 -1.02254 0
M  V30 2400 C 222.844 -0.779906 -3.48787 0
M  V30 2401 C 222.51 -2.21293 -3.92861 0
M  V30 2402 C 221.172 -2.60475 -4.04606 0
M  V30 2403 C 223.524 -3.14587 -4.15553 0
M  V30 2404 C 220.852 -3.9212 -4.36416 0
M  V30 2405 C 223.204 -4.45787 -4.48839 0
M  V30 2406 C 221.868 -4.84834 -4.58794 0
M  V30 2407 H 221.138 -0.195495 -0.714747 0
M  V30 2408 H 223.785 -1.14514 -1.53488 0
M  V30 2409 H 222.09 -0.0861365 -3.91705 0
M  V30 2410 H 223.787 -0.472029 -3.98212 0
M  V30 2411 H 220.377 -1.89887 -3.84241 0
M  V30 2412 H 224.561 -2.85528 -4.0594 0
M  V30 2413 H 219.817 -4.22086 -4.42327 0
M  V30 2414 H 223.991 -5.18098 -4.65346 0
M  V30 2415 H 221.618 -5.86877 -4.83197 0
M  V30 2416 N 223.193 1.4272 -0.668489 0
M  V30 2417 C 224.156 2.292 0.00448567 0
M  V30 2418 C 225.156 1.43001 0.735339 0
M  V30 2419 O 226.346 1.64461 0.57429 0
M  V30 2420 C 223.478 3.25375 1.01705 0
M  V30 2421 H 224.671 2.90199 -0.756608 0
M  V30 2422 H 222.224 1.50254 -0.430506 0
M  V30 2423 H 222.959 2.69301 1.80686 0
M  V30 2424 H 222.744 3.88944 0.496463 0
M  V30 2425 H 224.234 3.90245 1.48655 0
M  V30 2426 N 224.671 0.411399 1.52136 0
M  V30 2427 C 225.896 -0.165538 2.06738 0
M  V30 2428 C 226.321 -1.379 1.27926 0
M  V30 2429 O 225.679 -1.78628 0.310114 0
M  V30 2430 C 225.727 -0.492124 3.57226 0
M  V30 2431 O 224.831 -1.58276 3.80818 0
M  V30 2432 H 224.172 -0.0132132 0.663869 0
M  V30 2433 H 226.702 0.585253 1.96051 0
M  V30 2434 H 226.712 -0.750104 4.01045 0
M  V30 2435 H 225.387 0.394922 4.14021 0
M  V30 2436 H 223.964 -1.31677 3.48877 0
M  V30 2437 N 226.149 -1.5696 0.141893 0
M  V30 2438 C 227.426 -1.87553 -0.555281 0
M  V30 2439 C 227.806 -1.04699 -1.83306 0
M  V30 2440 O 227.154 -0.132346 -2.28116 0
M  V30 2441 C 227.364 -3.39093 -0.825664 0
M  V30 2442 C 228.712 -4.08199 -1.16869 0
M  V30 2443 O 229.736 -3.44242 -0.915185 0
M  V30 2444 O 228.595 -5.21139 -1.6455 0
M  V30 2445 H 225.689 -0.777188 -0.282679 0
M  V30 2446 H 228.235 -1.68763 0.17812 0
M  V30 2447 H 227.007 -3.91221 0.0788633 0
M  V30 2448 H 226.63 -3.63393 -1.61343 0
M  V30 2449 N 227.627 0.131896 -1.57047 0
M  V30 2450 C 228.876 0.84044 -1.83356 0
M  V30 2451 C 229.189 1.81646 -0.725535 0
M  V30 2452 O 230.395 2.57025 -0.874659 0
M  V30 2453 C 228.851 1.54528 -3.25037 0
M  V30 2454 C 228.459 0.610902 -4.43815 0
M  V30 2455 C 230.203 2.23972 -3.60606 0
M  V30 2456 C 228.11 1.31823 -5.76521 0
M  V30 2457 H 227.04 0.317599 -0.683847 0
M  V30 2458 H 229.691 0.0931561 -1.83263 0
M  V30 2459 H 228.073 2.33873 -3.19561 0
M  V30 2460 H 229.247 -0.148407 -4.60561 0
M  V30 2461 H 227.562 0.0241016 -4.16393 0
M  V30 2462 H 230.159 2.77558 -4.57018 0
M  V30 2463 H 230.502 3.01173 -2.87403 0
M  V30 2464 H 231.035 1.51529 -3.6781 0
M  V30 2465 H 227.774 0.587771 -6.52859 0
M  V30 2466 H 227.294 2.04987 -5.63685 0
M  V30 2467 H 228.973 1.855 -6.19838 0
M  V30 2468 N 229.106 1.52395 0.401703 0
M  V30 2469 C 230.383 1.57387 1.16141 0
M  V30 2470 C 230.763 0.359359 2.08019 0
M  V30 2471 O 230.111 -0.65326 2.18963 0
M  V30 2472 C 230.321 2.90631 1.93221 0
M  V30 2473 C 231.669 3.43904 2.49028 0
M  V30 2474 O 232.693 2.92421 2.03393 0
M  V30 2475 O 231.552 4.33823 3.32356 0
M  V30 2476 H 228.646 0.634262 0.530698 0
M  V30 2477 H 231.192 1.64725 0.407883 0
M  V30 2478 H 229.964 3.70473 1.25958 0
M  V30 2479 H 229.587 2.8662 2.75563 0
M  V30 2480 N 230.584 -0.659388 1.43143 0
M  V30 2481 C 231.812 -1.44723 1.47861 0
M  V30 2482 C 232.227 -1.88563 0.0945886 0
M  V30 2483 O 231.584 -1.59108 -0.893915 0
M  V30 2484 C 231.635 -2.68627 2.41913 0
M  V30 2485 O 231.356 -2.26623 3.74932 0
M  V30 2486 C 232.857 -3.62045 2.55809 0
M  V30 2487 H 230.077 -0.444801 0.502387 0
M  V30 2488 H 232.621 -0.808916 1.87821 0
M  V30 2489 H 230.776 -3.28613 2.05164 0
M  V30 2490 H 231.19 -3.06745 4.2545 0
M  V30 2491 H 232.664 -4.45666 3.25708 0
M  V30 2492 H 233.141 -4.08981 1.60099 0
M  V30 2493 H 233.747 -3.07944 2.93344 0
M  V30 2494 N 232.062 -1.29571 -0.897171 0
M  V30 2495 C 232.972 -1.16808 -2.03453 0
M  V30 2496 C 233.988 -0.0907471 -1.73763 0
M  V30 2497 O 235.164 -0.303312 -1.99103 0
M  V30 2498 C 232.229 -0.848264 -3.36163 0
M  V30 2499 C 231.29 -2.0097 -3.79354 0
M  V30 2500 C 230.523 -1.70505 -5.05731 0
M  V30 2501 O 230.746 -0.62718 -5.66941 0
M  V30 2502 O 229.68 -2.5538 -5.45036 0
M  V30 2503 H 233.506 -2.12325 -2.17144 0
M  V30 2504 H 231.091 -1.09047 -1.02123 0
M  V30 2505 H 232.973 -0.684581 -4.15802 0
M  V30 2506 H 231.648 0.0771071 -3.23608 0
M  V30 2507 H 230.555 -2.22863 -3.00471 0
M  V30 2508 H 231.888 -2.91636 -3.96496 0
M  V30 2509 N 233.54 1.10788 -1.12088 0
M  V30 2510 C 234.786 1.82942 -0.875226 0
M  V30 2511 C 235.119 1.84779 0.597538 0
M  V30 2512 O 234.394 1.30578 1.44152 0
M  V30 2513 C 234.677 3.29789 -1.44606 0
M  V30 2514 C 234.53 3.36307 -2.98693 0
M  V30 2515 C 235.849 4.26064 -1.10261 0
M  V30 2516 H 232.968 0.664195 -0.319397 0
M  V30 2517 H 235.61 1.29867 -1.38689 0
M  V30 2518 H 233.76 3.75118 -1.01089 0
M  V30 2519 H 235.432 2.99487 -3.50864 0
M  V30 2520 H 233.675 2.76318 -3.34411 0
M  V30 2521 H 234.346 4.39694 -3.33726 0
M  V30 2522 H 236.822 3.88951 -1.4784 0
M  V30 2523 H 235.698 5.27183 -1.52869 0
M  V30 2524 H 235.959 4.42098 -0.0142953 0
M  V30 2525 N 235.018 0.912232 1.28515 0
M  V30 2526 C 235.948 0.416403 2.29757 0
M  V30 2527 C 236.929 -0.515194 1.6211 0
M  V30 2528 O 238.114 -0.423253 1.89532 0
M  V30 2529 C 235.244 -0.34572 3.45575 0
M  V30 2530 C 234.198 0.496599 4.25109 0
M  V30 2531 C 233.524 -0.393771 5.33248 0
M  V30 2532 C 234.824 1.75307 4.92001 0
M  V30 2533 H 236.518 1.26249 2.7148 0
M  V30 2534 H 234.064 0.608515 1.30511 0
M  V30 2535 H 236.017 -0.703422 4.15488 0
M  V30 2536 H 234.741 -1.2257 3.02728 0
M  V30 2537 H 233.4 0.8368 3.56922 0
M  V30 2538 H 233.048 -1.27225 4.86644 0
M  V30 2539 H 232.748 0.166209 5.87365 0
M  V30 2540 H 234.272 -0.747389 6.06009 0
M  V30 2541 H 235.686 1.46437 5.54283 0
M  V30 2542 H 234.083 2.25534 5.56106 0
M  V30 2543 H 235.153 2.48176 4.16577 0
M  V30 2544 N 236.496 -1.42363 0.676048 0
M  V30 2545 C 237.406 -2.346 -0.00153389 0
M  V30 2546 C 238.422 -1.5516 -0.787485 0
M  V30 2547 O 239.598 -1.87723 -0.729521 0
M  V30 2548 C 236.663 -3.33705 -0.940298 0
M  V30 2549 C 235.724 -4.29042 -0.148739 0
M  V30 2550 C 234.957 -5.23413 -1.04279 0
M  V30 2551 O 235.18 -5.22749 -2.28232 0
M  V30 2552 O 234.114 -5.99795 -0.502925 0
M  V30 2553 H 237.94 -2.94082 0.758268 0
M  V30 2554 H 235.525 -1.42888 0.436289 0
M  V30 2555 H 237.407 -3.94586 -1.47917 0
M  V30 2556 H 236.082 -2.76695 -1.67993 0
M  V30 2557 H 234.989 -3.71571 0.43427 0
M  V30 2558 H 236.322 -4.89097 0.551805 0
M  V30 2559 N 237.974 -0.419461 -1.51915 0
M  V30 2560 C 238.921 0.400927 -2.27291 0
M  V30 2561 C 239.891 1.03224 -1.30131 0
M  V30 2562 O 241.076 1.05455 -1.59009 0
M  V30 2563 C 238.216 1.50603 -3.10504 0
M  V30 2564 C 237.329 0.89462 -4.22635 0
M  V30 2565 C 236.464 1.97328 -4.93189 0
M  V30 2566 C 235.503 1.33935 -5.97267 0
M  V30 2567 N 234.64 2.3586 -6.61298 0
M  V30 2568 H 239.48 -0.248251 -2.96964 0
M  V30 2569 H 237.017 -0.134266 -1.46486 0
M  V30 2570 H 238.975 2.15783 -3.57062 0
M  V30 2571 H 237.605 2.12509 -2.42981 0
M  V30 2572 H 236.657 0.131583 -3.80172 0
M  V30 2573 H 237.969 0.391641 -4.9726 0
M  V30 2574 H 237.123 2.70211 -5.43204 0
M  V30 2575 H 235.862 2.50994 -4.18155 0
M  V30 2576 H 234.867 0.595896 -5.46561 0
M  V30 2577 H 236.092 0.810252 -6.74249 0
M  V30 2578 H 234.038 2.88639 -5.89087 0
M  V30 2579 H 233.955 1.90403 -7.3163 0
M  V30 2580 H 235.223 3.08282 -7.15949 0
M  V30 2581 N 239.452 1.56882 -0.150215 0
M  V30 2582 C 240.415 2.1573 0.774157 0
M  V30 2583 C 241.415 1.0999 1.17298 0
M  V30 2584 O 242.605 1.35613 1.09338 0
M  V30 2585 C 239.737 2.72302 2.05096 0
M  V30 2586 H 240.93 2.98752 0.262201 0
M  V30 2587 H 238.483 1.55985 0.099248 0
M  V30 2588 H 239.218 1.92956 2.6065 0
M  V30 2589 H 239.003 3.49665 1.77416 0
M  V30 2590 H 240.493 3.17632 2.71109 0
M  V30 2591 N 240.93 -0.123565 1.57115 0
M  V30 2592 C 242.346 -0.476961 1.52306 0
M  V30 2593 C 242.546 -1.82109 0.86248 0
M  V30 2594 O 241.602 -2.48586 0.442884 0
M  V30 2595 C 242.915 -0.465661 2.97073 0
M  V30 2596 C 244.463 -0.549534 3.08138 0
M  V30 2597 C 244.938 -0.568669 4.54456 0
M  V30 2598 N 246.429 -0.630237 4.58892 0
M  V30 2599 C 247.164 -0.666415 5.69514 0
M  V30 2600 N 246.66 -0.660514 6.89644 0
M  V30 2601 N 248.453 -0.709077 5.5761 0
M  V30 2602 H 240.604 0.757198 1.98445 0
M  V30 2603 H 242.867 0.278808 0.906074 0
M  V30 2604 H 242.573 0.454232 3.48754 0
M  V30 2605 H 242.447 -1.29513 3.54269 0
M  V30 2606 H 244.834 -1.45985 2.56461 0
M  V30 2607 H 244.915 0.307532 2.53945 0
M  V30 2608 H 244.559 0.337581 5.06777 0
M  V30 2609 H 244.489 -1.44256 5.06456 0
M  V30 2610 H 246.98 -0.641146 3.72421 0
M  V30 2611 H 247.293 -0.690616 7.69708 0
M  V30 2612 H 245.638 -0.628012 6.92157 0
M  V30 2613 H 248.829 -0.711019 4.62668 0
M  V30 2614 H 249.002 -0.733804 6.43832 0
M  V30 2615 N 242.408 -1.52605 -0.393616 0
M  V30 2616 C 243.633 -1.71592 -1.16495 0
M  V30 2617 C 244.058 -0.43133 -1.83088 0
M  V30 2618 O 243.416 0.612523 -1.7064 0
M  V30 2619 C 243.464 -2.86318 -2.19213 0
M  V30 2620 O 242.568 -2.52969 -3.257 0
M  V30 2621 H 241.909 -0.570734 -0.33935 0
M  V30 2622 H 244.439 -1.99377 -0.459324 0
M  V30 2623 H 244.449 -3.1168 -2.63286 0
M  V30 2624 H 243.124 -3.79511 -1.7013 0
M  V30 2625 H 241.701 -2.38332 -2.86797 0
M  V30 2626 N 243.887 0.651787 -1.4349 0
M  V30 2627 C 245.135 1.40888 -1.44897 0
M  V30 2628 C 245.456 1.94856 -0.0749086 0
M  V30 2629 O 244.726 1.74518 0.889956 0
M  V30 2630 H 243.306 0.522887 -0.533478 0
M  V30 2631 H 245.968 0.768609 -1.79104 0
M  V30 2632 H 245.064 2.25052 -2.16236 0
M  V30 2633 N 245.365 1.30045 0.890287 0
M  V30 2634 C 246.614 1.17929 1.63633 0
M  V30 2635 C 246.927 -0.266204 1.9378 0
M  V30 2636 O 248.133 -0.508804 2.6669 0
M  V30 2637 C 246.589 2.06317 2.94892 0
M  V30 2638 C 246.197 3.55745 2.72305 0
M  V30 2639 C 247.941 2.0295 3.72843 0
M  V30 2640 C 245.848 4.36205 3.99348 0
M  V30 2641 H 244.778 0.437782 0.613892 0
M  V30 2642 H 247.429 1.54754 0.986075 0
M  V30 2643 H 245.811 1.6237 3.61182 0
M  V30 2644 H 246.985 4.07805 2.1455 0
M  V30 2645 H 245.3 3.6088 2.07737 0
M  V30 2646 H 247.897 2.60319 4.67053 0
M  V30 2647 H 248.24 1.0117 4.0382 0
M  V30 2648 H 248.773 2.4499 3.13408 0
M  V30 2649 H 245.512 5.38659 3.73533 0
M  V30 2650 H 245.032 3.8891 4.56628 0
M  V30 2651 H 246.711 4.47362 4.67415 0
M  V30 2652 N 246.843 -1.10192 1.12674 0
M  V30 2653 C 248.073 -1.85713 0.905213 0
M  V30 2654 C 248.481 -1.81056 -0.549108 0
M  V30 2655 O 247.824 -1.19927 -1.39151 0
M  V30 2656 C 247.886 -3.34972 1.30516 0
M  V30 2657 C 247.55 -3.63385 2.77129 0
M  V30 2658 C 248.547 -3.59772 3.75313 0
M  V30 2659 C 246.232 -3.91981 3.14096 0
M  V30 2660 C 248.226 -3.84354 5.08479 0
M  V30 2661 C 245.913 -4.16218 4.47443 0
M  V30 2662 C 246.911 -4.12395 5.44444 0
M  V30 2663 O 246.599 -4.36014 6.75387 0
M  V30 2664 H 246.331 -0.593719 0.323223 0
M  V30 2665 H 248.885 -1.40198 1.50112 0
M  V30 2666 H 247.115 -3.81156 0.652463 0
M  V30 2667 H 248.804 -3.91886 1.05736 0
M  V30 2668 H 249.57 -3.37716 3.48099 0
M  V30 2669 H 245.449 -3.94085 2.39202 0
M  V30 2670 H 248.993 -3.81285 5.84181 0
M  V30 2671 H 244.89 -4.37754 4.74386 0
M  V30 2672 H 245.658 -4.53516 6.8137 0
M  V30 2673 N 248.321 -0.919034 -1.28029 0
M  V30 2674 C 249.737 -0.617972 -1.4715 0
M  V30 2675 C 249.937 0.835242 -1.83374 0
M  V30 2676 O 248.993 1.61388 -1.94191 0
M  V30 2677 C 250.306 -1.56041 -2.57044 0
M  V30 2678 C 251.854 -1.56769 -2.7091 0
M  V30 2679 C 252.329 -2.49688 -3.83953 0
M  V30 2680 N 253.82 -2.47845 -3.91314 0
M  V30 2681 C 254.555 -3.16437 -4.78179 0
M  V30 2682 N 254.051 -3.94376 -5.69596 0
M  V30 2683 N 255.844 -3.05498 -4.71834 0
M  V30 2684 H 247.995 -1.85866 -1.02798 0
M  V30 2685 H 250.258 -0.797506 -0.512531 0
M  V30 2686 H 249.964 -2.59671 -2.372 0
M  V30 2687 H 249.838 -1.29551 -3.54255 0
M  V30 2688 H 252.225 -0.538745 -2.90141 0
M  V30 2689 H 252.306 -1.87305 -1.74214 0
M  V30 2690 H 251.95 -3.52688 -3.65477 0
M  V30 2691 H 251.88 -2.16453 -4.80058 0
M  V30 2692 H 254.371 -1.91234 -3.25941 0
M  V30 2693 H 254.684 -4.43721 -6.32718 0
M  V30 2694 H 253.029 -3.98481 -5.69419 0
M  V30 2695 H 256.22 -2.44108 -3.99411 0
M  V30 2696 H 256.393 -3.59225 -5.39316 0
M  V30 2697 N 249.799 1.42003 -0.683588 0
M  V30 2698 C 250.729 2.33487 -0.024866 0
M  V30 2699 C 251.71 1.51163 0.779975 0
M  V30 2700 O 252.895 1.79739 0.735362 0
M  V30 2701 C 250.025 3.3487 0.920836 0
M  V30 2702 C 248.979 4.27414 0.223958 0
M  V30 2703 C 248.305 5.19074 1.2832 0
M  V30 2704 C 249.605 5.14445 -0.90242 0
M  V30 2705 H 251.299 2.88819 -0.788921 0
M  V30 2706 H 248.845 1.38873 -0.38083 0
M  V30 2707 H 250.798 3.97787 1.39081 0
M  V30 2708 H 249.522 2.77861 1.71642 0
M  V30 2709 H 248.181 3.65904 -0.225864 0
M  V30 2710 H 247.829 4.58387 2.071 0
M  V30 2711 H 247.529 5.81822 0.821995 0
M  V30 2712 H 249.053 5.84867 1.75392 0
M  V30 2713 H 250.467 5.70998 -0.513272 0
M  V30 2714 H 248.864 5.86072 -1.28997 0
M  V30 2715 H 249.934 4.52322 -1.74737 0
M  V30 2716 N 251.277 0.427512 1.51691 0
M  V30 2717 C 252.502 -0.143601 2.06902 0
M  V30 2718 C 252.927 -1.36536 1.29382 0
M  V30 2719 O 252.285 -1.78289 0.329043 0
M  V30 2720 C 252.333 -0.454207 3.57728 0
M  V30 2721 O 251.437 -1.54228 3.82475 0
M  V30 2722 H 250.778 -0.00617128 0.663971 0
M  V30 2723 H 253.308 0.606014 1.95419 0
M  V30 2724 H 253.318 -0.707525 4.01818 0
M  V30 2725 H 251.993 0.438812 4.13579 0
M  V30 2726 H 250.57 -1.2797 3.50254 0
M  V30 2727 N 252.755 -1.56801 0.158532 0
M  V30 2728 C 253.665 -2.20916 -0.789518 0
M  V30 2729 C 254.681 -1.1969 -1.26294 0
M  V30 2730 O 255.857 -1.52308 -1.31773 0
M  V30 2731 C 252.922 -2.82727 -2.00665 0
M  V30 2732 C 251.983 -3.99114 -1.58134 0
M  V30 2733 C 251.216 -4.57968 -2.74045 0
M  V30 2734 O 251.439 -4.15704 -3.90572 0
M  V30 2735 O 250.373 -5.48047 -2.48855 0
M  V30 2736 H 254.199 -3.02464 -0.273681 0
M  V30 2737 H 251.784 -1.4924 -0.0690548 0
M  V30 2738 H 253.666 -3.21968 -2.71872 0
M  V30 2739 H 252.341 -2.04184 -2.51179 0
M  V30 2740 H 251.248 -3.64567 -0.839155 0
M  V30 2741 H 252.581 -4.79212 -1.12325 0
M  V30 2742 N 254.233 0.115231 -1.57178 0
M  V30 2743 C 255.163 1.1423 -2.03651 0
M  V30 2744 C 256.144 1.42967 -0.921655 0
M  V30 2745 O 257.329 1.53343 -1.19162 0
M  V30 2746 C 254.459 2.4675 -2.44401 0
M  V30 2747 C 253.413 2.32467 -3.59365 0
M  V30 2748 C 252.739 3.69984 -3.86026 0
M  V30 2749 C 254.039 1.78203 -4.90959 0
M  V30 2750 H 255.733 0.755749 -2.89705 0
M  V30 2751 H 253.279 0.362093 -1.39373 0
M  V30 2752 H 255.232 3.18854 -2.75517 0
M  V30 2753 H 253.956 2.87302 -1.55322 0
M  V30 2754 H 252.615 1.62811 -3.28463 0
M  V30 2755 H 252.263 4.08028 -2.94147 0
M  V30 2756 H 251.963 3.61279 -4.63412 0
M  V30 2757 H 253.487 4.43587 -4.19599 0
M  V30 2758 H 254.901 2.40128 -5.20587 0
M  V30 2759 H 253.298 1.8031 -5.72371 0
M  V30 2760 H 254.368 0.739876 -4.79222 0
M  V30 2761 N 255.711 1.52812 0.385517 0
M  V30 2762 C 256.658 1.77838 1.47113 0
M  V30 2763 C 257.628 0.621757 1.54024 0
M  V30 2764 O 258.813 0.861846 1.70226 0
M  V30 2765 C 255.953 1.95618 2.84302 0
M  V30 2766 C 255.066 3.23316 2.86515 0
M  V30 2767 C 254.201 3.31394 4.15152 0
M  V30 2768 C 253.24 4.53201 4.1143 0
M  V30 2769 N 252.377 4.58542 5.3168 0
M  V30 2770 H 257.217 2.70482 1.25073 0
M  V30 2771 H 254.754 1.34006 0.606692 0
M  V30 2772 H 256.712 2.03912 3.63972 0
M  V30 2773 H 255.342 1.06331 3.04784 0
M  V30 2774 H 254.394 3.24076 1.99195 0
M  V30 2775 H 255.706 4.13045 2.79634 0
M  V30 2776 H 254.86 3.3889 5.03228 0
M  V30 2777 H 253.599 2.39645 4.24761 0
M  V30 2778 H 252.604 4.45827 3.21742 0
M  V30 2779 H 253.829 5.46271 4.03442 0
M  V30 2780 H 251.775 3.69686 5.41912 0
M  V30 2781 H 251.692 5.42148 5.26889 0
M  V30 2782 H 252.96 4.70296 6.21644 0
M  V30 2783 N 257.189 -0.644168 1.43834 0
M  V30 2784 C 258.417 -1.43147 1.49387 0
M  V30 2785 C 258.832 -1.88452 0.114583 0
M  V30 2786 O 258.189 -1.60047 -0.876989 0
M  V30 2787 C 258.24 -2.66046 2.44748 0
M  V30 2788 O 257.961 -2.22633 3.77314 0
M  V30 2789 C 259.462 -3.59311 2.59635 0
M  V30 2790 H 256.682 -0.439447 0.507077 0
M  V30 2791 H 259.226 -0.78895 1.88669 0
M  V30 2792 H 257.381 -3.26418 2.08638 0
M  V30 2793 H 257.795 -3.02216 4.28679 0
M  V30 2794 H 259.269 -4.42187 3.30416 0
M  V30 2795 H 259.746 -4.07259 1.64427 0
M  V30 2796 H 260.352 -3.04816 2.96593 0
M  V30 2797 N 258.668 -1.30515 -0.883378 0
M  V30 2798 C 259.598 -1.19607 -2.00541 0
M  V30 2799 C 260.579 -0.086346 -1.69881 0
M  V30 2800 O 261.764 -0.268654 -1.92333 0
M  V30 2801 C 258.894 -0.888758 -3.35736 0
M  V30 2802 C 257.848 -1.95659 -3.8066 0
M  V30 2803 C 257.174 -1.50224 -5.13164 0
M  V30 2804 C 258.474 -3.36788 -3.99213 0
M  V30 2805 H 260.168 -2.13476 -2.09925 0
M  V30 2806 H 257.714 -1.02775 -1.00863 0
M  V30 2807 H 259.667 -0.799094 -4.13754 0
M  V30 2808 H 258.391 0.0856125 -3.26488 0
M  V30 2809 H 257.05 -2.03591 -3.04871 0
M  V30 2810 H 256.698 -0.516092 -5.00345 0
M  V30 2811 H 256.398 -2.2165 -5.44192 0
M  V30 2812 H 257.922 -1.42639 -5.93706 0
M  V30 2813 H 259.336 -3.31605 -4.67665 0
M  V30 2814 H 257.733 -4.06314 -4.41621 0
M  V30 2815 H 258.803 -3.78561 -3.03017 0
M  V30 2816 N 260.146 1.09593 -1.13257 0
M  V30 2817 C 261.371 1.8604 -0.916732 0
M  V30 2818 C 261.796 1.80504 0.529146 0
M  V30 2819 O 261.154 1.18127 1.37534 0
M  V30 2820 C 261.202 3.32017 -1.40703 0
M  V30 2821 O 260.306 4.08141 -0.591153 0
M  V30 2822 H 259.647 0.576943 -0.328683 0
M  V30 2823 H 262.177 1.38405 -1.50682 0
M  V30 2824 H 262.187 3.82865 -1.4099 0
M  V30 2825 H 260.862 3.35361 -2.45979 0
M  V30 2826 H 259.439 3.67084 -0.656005 0
M  V30 2827 N 261.624 0.925811 1.2754 0
M  V30 2828 C 263.035 0.610102 1.7645 0
M  V30 2829 C 263.386 -0.874723 1.75622 0
M  V30 2830 O 262.511 -1.68444 1.35851 0
M  V30 2831 C 263.106 1.10073 3.20421 0
M  V30 2832 C 261.665 0.835723 3.67005 0
M  V30 2833 C 260.812 1.26054 2.46993 0
M  V30 2834 H 263.763 1.10579 1.13833 0
M  V30 2835 H 263.784 0.447557 3.77859 0
M  V30 2836 H 263.296 2.18143 3.20991 0
M  V30 2837 H 261.397 -0.231249 3.71882 0
M  V30 2838 H 261.51 1.45193 4.56569 0
M  V30 2839 H 259.874 0.679111 2.45479 0
M  V30 2840 H 260.657 2.34984 2.50275 0
M  V30 2841 N 263.102 -1.41638 0.69111 0
M  V30 2842 C 264.034 -2.29194 -0.0161523 0
M  V30 2843 C 265.047 -1.44549 -0.748955 0
M  V30 2844 O 266.236 -1.681 -0.6004 0
M  V30 2845 C 263.336 -3.22325 -1.0469 0
M  V30 2846 C 262.509 -4.35706 -0.384621 0
M  V30 2847 C 261.568 -5.09443 -1.31737 0
M  V30 2848 O 260.594 -5.63386 -0.811451 0
M  V30 2849 N 261.796 -5.16487 -2.64993 0
M  V30 2850 H 264.561 -2.90534 0.735523 0
M  V30 2851 H 262.122 -1.52742 0.53679 0
M  V30 2852 H 264.114 -3.68522 -1.67252 0
M  V30 2853 H 262.684 -2.62323 -1.70015 0
M  V30 2854 H 261.904 -3.91948 0.420804 0
M  V30 2855 H 263.192 -5.08743 0.0760765 0
M  V30 2856 H 262.59 -4.741 -3.08619 0
M  V30 2857 H 261.147 -5.66276 -3.22761 0
M  V30 2858 N 264.58 -0.43555 -1.51462 0
M  V30 2859 C 265.512 0.41257 -2.25456 0
M  V30 2860 C 266.525 0.987822 -1.29406 0
M  V30 2861 O 267.714 0.882266 -1.55172 0
M  V30 2862 C 264.814 1.58894 -2.99342 0
M  V30 2863 C 263.987 1.13288 -4.22474 0
M  V30 2864 C 263.046 2.17917 -4.78956 0
M  V30 2865 O 262.072 1.77425 -5.40841 0
M  V30 2866 N 263.274 3.50382 -4.62832 0
M  V30 2867 H 266.039 -0.221603 -2.9888 0
M  V30 2868 H 263.6 -0.264342 -1.59727 0
M  V30 2869 H 265.592 2.28508 -3.34015 0
M  V30 2870 H 264.162 2.12849 -2.28941 0
M  V30 2871 H 263.382 0.263881 -3.93316 0
M  V30 2872 H 264.67 0.805542 -5.02383 0
M  V30 2873 H 264.068 3.86013 -4.13534 0
M  V30 2874 H 262.625 4.15895 -5.01871 0
M  V30 2875 N 266.058 1.56714 -0.166846 0
M  V30 2876 C 266.988 2.20754 0.760913 0
M  V30 2877 C 267.969 1.16178 1.24244 0
M  V30 2878 O 269.154 1.44592 1.29641 0
M  V30 2879 C 266.284 2.84478 1.99223 0
M  V30 2880 C 265.238 3.95053 1.64672 0
M  V30 2881 C 264.564 4.45805 2.95232 0
M  V30 2882 C 265.864 5.14865 0.878155 0
M  V30 2883 H 267.558 2.98537 0.22713 0
M  V30 2884 H 265.104 1.43596 0.107805 0
M  V30 2885 H 267.057 3.27951 2.64624 0
M  V30 2886 H 265.781 2.04056 2.55007 0
M  V30 2887 H 264.44 3.52228 1.01641 0
M  V30 2888 H 264.088 3.62181 3.49047 0
M  V30 2889 H 263.788 5.204 2.7287 0
M  V30 2890 H 265.312 4.91962 3.6167 0
M  V30 2891 H 266.726 5.55059 1.43466 0
M  V30 2892 H 265.123 5.95348 0.753738 0
M  V30 2893 H 266.193 4.84735 -0.126377 0
M  V30 2894 N 267.536 -0.106894 1.57237 0
M  V30 2895 C 268.468 -1.15646 1.97885 0
M  V30 2896 C 269.481 -1.36981 0.879779 0
M  V30 2897 O 270.67 -1.35841 1.15799 0
M  V30 2898 C 267.77 -2.51425 2.27241 0
M  V30 2899 C 266.943 -2.50529 3.58545 0
M  V30 2900 C 266.002 -3.68145 3.75973 0
M  V30 2901 O 265.028 -3.51176 4.47956 0
M  V30 2902 N 266.23 -4.87177 3.15656 0
M  V30 2903 H 268.995 -0.81059 2.8853 0
M  V30 2904 H 266.556 -0.296024 1.59171 0
M  V30 2905 H 268.548 -3.28689 2.36105 0
M  V30 2906 H 267.118 -2.78147 1.42663 0
M  V30 2907 H 266.338 -1.58894 3.60758 0
M  V30 2908 H 267.626 -2.46997 4.44826 0
M  V30 2909 H 267.024 -5.03868 2.57165 0
M  V30 2910 H 265.581 -5.62075 3.30023 0
M  V30 2911 N 269.014 -1.53014 -0.377408 0
M  V30 2912 C 270.43 -1.42523 -0.718281 0
M  V30 2913 C 270.63 -0.55487 -1.9371 0
M  V30 2914 O 269.686 -0.0327593 -2.52479 0
M  V30 2915 C 270.999 -2.85546 -0.942539 0
M  V30 2916 C 272.547 -2.95101 -1.04329 0
M  V30 2917 C 273.022 -4.3916 -1.3001 0
M  V30 2918 N 274.513 -4.42536 -1.36806 0
M  V30 2919 C 275.248 -5.51097 -1.58364 0
M  V30 2920 N 274.744 -6.69724 -1.77317 0
M  V30 2921 N 276.537 -5.38657 -1.60638 0
M  V30 2922 H 268.688 -2.08116 0.424426 0
M  V30 2923 H 270.951 -0.939352 0.127759 0
M  V30 2924 H 270.657 -3.51499 -0.118929 0
M  V30 2925 H 270.531 -3.28493 -1.85397 0
M  V30 2926 H 272.918 -2.29309 -1.85745 0
M  V30 2927 H 272.999 -2.55566 -0.109505 0
M  V30 2928 H 272.643 -5.05521 -0.490991 0
M  V30 2929 H 272.573 -4.76258 -2.24691 0
M  V30 2930 H 275.064 -3.57039 -1.23821 0
M  V30 2931 H 275.377 -7.48233 -1.93306 0
M  V30 2932 H 273.722 -6.72732 -1.74518 0
M  V30 2933 H 276.913 -4.44948 -1.45391 0
M  V30 2934 H 277.086 -6.2333 -1.77098 0
M  V30 2935 N 270.492 0.636531 -1.44174 0
M  V30 2936 C 271.722 1.42146 -1.49927 0
M  V30 2937 C 272.13 1.88812 -0.121063 0
M  V30 2938 O 271.473 1.61126 0.882267 0
M  V30 2939 C 271.535 2.67883 -2.39748 0
M  V30 2940 C 271.199 2.43048 -3.8701 0
M  V30 2941 C 272.196 2.05216 -4.77684 0
M  V30 2942 C 269.881 2.56856 -4.3166 0
M  V30 2943 C 271.875 1.81512 -6.11009 0
M  V30 2944 C 269.562 2.32766 -5.65034 0
M  V30 2945 C 270.56 1.95152 -6.54526 0
M  V30 2946 O 270.248 1.71326 -7.85431 0
M  V30 2947 H 269.98 0.442567 -0.51099 0
M  V30 2948 H 272.534 0.786158 -1.8976 0
M  V30 2949 H 270.764 3.34032 -1.94832 0
M  V30 2950 H 272.453 3.29874 -2.36513 0
M  V30 2951 H 273.219 1.94111 -4.44462 0
M  V30 2952 H 269.098 2.85104 -3.62266 0
M  V30 2953 H 272.642 1.52077 -6.80822 0
M  V30 2954 H 268.539 2.43479 -5.97819 0
M  V30 2955 H 269.307 1.85616 -7.97176 0
M  V30 2956 N 271.97 1.30982 0.876444 0
M  V30 2957 C 273.217 1.20296 1.62896 0
M  V30 2958 C 273.545 -0.240395 1.93009 0
M  V30 2959 O 272.8 -1.18733 1.55567 0
M  V30 2960 C 273.099 1.98572 2.9716 0
M  V30 2961 C 272.765 3.48125 2.86566 0
M  V30 2962 C 271.427 3.88905 2.83383 0
M  V30 2963 C 273.779 4.43322 2.74071 0
M  V30 2964 C 271.107 5.2316 2.65556 0
M  V30 2965 C 273.459 5.77695 2.57781 0
M  V30 2966 C 272.123 6.17704 2.52979 0
M  V30 2967 H 271.393 0.440193 0.59608 0
M  V30 2968 H 274.04 1.62177 1.01837 0
M  V30 2969 H 272.345 1.49352 3.62217 0
M  V30 2970 H 274.042 1.8769 3.54364 0
M  V30 2971 H 270.632 3.15723 2.89856 0
M  V30 2972 H 274.816 4.12752 2.75589 0
M  V30 2973 H 270.072 5.53241 2.60259 0
M  V30 2974 H 274.246 6.51091 2.47089 0
M  V30 2975 H 271.873 7.21678 2.38924 0
M  V30 2976 N 273.449 -1.08991 1.13837 0
M  V30 2977 C 274.382 -2.15049 0.763477 0
M  V30 2978 C 275.36 -1.60629 -0.252398 0
M  V30 2979 O 276.544 -1.87958 -0.142853 0
M  V30 2980 C 273.671 -3.38441 0.132545 0
M  V30 2981 C 272.717 -4.11596 1.11763 0
M  V30 2982 S 273.55 -4.6521 2.65216 0
M  V30 2983 C 274.706 -5.91896 2.03495 0
M  V30 2984 H 274.939 -2.46518 1.66182 0
M  V30 2985 H 272.472 -1.21008 0.958976 0
M  V30 2986 H 274.43 -4.09883 -0.225074 0
M  V30 2987 H 273.091 -3.05182 -0.743135 0
M  V30 2988 H 272.284 -5.00121 0.624076 0
M  V30 2989 H 271.886 -3.46038 1.41894 0
M  V30 2990 H 274.178 -6.63156 1.38675 0
M  V30 2991 H 275.121 -6.45938 2.9012 0
M  V30 2992 H 275.529 -5.44625 1.48471 0
M  V30 2993 N 274.927 -0.932562 -1.27047 0
M  V30 2994 C 276.343 -0.633544 -1.46487 0
M  V30 2995 C 276.543 0.815746 -1.84249 0
M  V30 2996 O 275.599 1.59319 -1.95892 0
M  V30 2997 C 276.912 -1.58758 -2.55375 0
M  V30 2998 C 278.46 -1.59634 -2.69232 0
M  V30 2999 C 278.935 -2.53747 -3.81283 0
M  V30 3000 N 280.426 -2.51982 -3.88664 0
M  V30 3001 C 281.161 -3.21491 -4.74796 0
M  V30 3002 N 280.657 -4.00395 -5.65381 0
M  V30 3003 N 282.45 -3.10485 -4.68568 0
M  V30 3004 H 274.601 -1.86946 -1.00821 0
M  V30 3005 H 276.864 -0.802897 -0.504044 0
M  V30 3006 H 276.57 -2.62172 -2.34432 0
M  V30 3007 H 276.444 -1.33301 -3.52861 0
M  V30 3008 H 278.831 -0.569488 -2.89553 0
M  V30 3009 H 278.912 -1.89142 -1.72218 0
M  V30 3010 H 278.556 -3.56545 -3.61715 0
M  V30 3011 H 278.486 -2.21532 -4.77735 0
M  V30 3012 H 280.977 -1.94681 -3.23895 0
M  V30 3013 H 281.29 -4.50406 -6.27976 0
M  V30 3014 H 279.635 -4.04498 -5.65161 0
M  V30 3015 H 282.826 -2.48331 -3.96799 0
M  V30 3016 H 282.999 -3.64925 -5.35475 0
M  V30 3017 N 276.405 1.4127 -0.698611 0
M  V30 3018 C 277.653 2.00782 -0.230409 0
M  V30 3019 C 277.974 1.5562 1.17505 0
M  V30 3020 O 277.244 0.78815 1.79346 0
M  V30 3021 H 275.824 0.742464 -0.0821944 0
M  V30 3022 H 278.486 1.72852 -0.90045 0
M  V30 3023 H 277.582 3.11095 -0.25021 0
M  V30 3024 N 277.883 0.443576 1.51229 0
M  V30 3025 C 279.111 -0.11929 2.06556 0
M  V30 3026 C 279.526 -1.35921 1.31038 0
M  V30 3027 O 278.883 -1.78675 0.371704 0
M  V30 3028 C 278.934 -0.435228 3.5887 0
M  V30 3029 O 278.655 0.755486 4.31537 0
M  V30 3030 C 280.156 -1.04808 4.30732 0
M  V30 3031 H 277.376 -0.0051584 0.67098 0
M  V30 3032 H 279.92 0.624453 1.94733 0
M  V30 3033 H 278.075 -1.12887 3.70588 0
M  V30 3034 H 278.489 0.483491 5.22267 0
M  V30 3035 H 279.963 -1.2191 5.3837 0
M  V30 3036 H 280.44 -2.03081 3.89429 0
M  V30 3037 H 281.046 -0.393637 4.23474 0
M  V30 3038 N 279.361 -1.56624 0.175154 0
M  V30 3039 C 280.609 -1.96609 -0.467885 0
M  V30 3040 C 280.93 -1.06238 -1.63519 0
M  V30 3041 O 280.2 -0.129523 -1.95471 0
M  V30 3042 H 278.78 -0.726008 -0.175845 0
M  V30 3043 H 281.442 -1.93195 0.257234 0
M  V30 3044 H 280.538 -3.00989 -0.825342 0
M  V30 3045 N 280.839 0.0985539 -1.57292 0
M  V30 3046 C 282.25 0.653457 -1.74891 0
M  V30 3047 C 282.601 1.7929 -0.796838 0
M  V30 3048 O 281.726 2.16385 0.0254886 0
M  V30 3049 C 282.321 1.19216 -3.17133 0
M  V30 3050 C 280.88 1.69316 -3.36168 0
M  V30 3051 C 280.027 0.601294 -2.70702 0
M  V30 3052 H 282.978 -0.127497 -1.58187 0
M  V30 3053 H 282.999 2.06154 -3.19814 0
M  V30 3054 H 282.511 0.362635 -3.86402 0
M  V30 3055 H 280.612 2.5468 -2.71972 0
M  V30 3056 H 280.725 1.78853 -4.44464 0
M  V30 3057 H 279.089 1.0399 -2.32504 0
M  V30 3058 H 279.872 -0.217592 -3.4261 0
M  V30 3059 N 282.317 1.53212 0.369288 0
M  V30 3060 C 283.267 1.75769 1.45222 0
M  V30 3061 C 284.251 0.612136 1.48801 0
M  V30 3062 O 285.443 0.870674 1.54105 0
M  V30 3063 C 282.572 1.94769 2.82701 0
M  V30 3064 C 281.658 3.15315 2.83615 0
M  V30 3065 N 282.049 4.37295 2.54178 0
M  V30 3066 C 280.347 3.15962 3.14776 0
M  V30 3067 C 281.048 5.19015 2.62675 0
M  V30 3068 N 280.024 4.55142 2.97232 0
M  V30 3069 H 283.826 2.67691 1.2132 0
M  V30 3070 H 281.34 1.51787 0.577438 0
M  V30 3071 H 283.337 2.09056 3.60696 0
M  V30 3072 H 281.997 1.04073 3.07569 0
M  V30 3073 H 283.008 4.65091 2.27839 0
M  V30 3074 H 279.685 2.35144 3.44983 0
M  V30 3075 H 281.075 6.26305 2.43294 0
M  V30 3076 N 283.795 -0.628877 1.44509 0
M  V30 3077 C 284.705 -1.7694 1.54044 0
M  V30 3078 C 285.721 -1.68705 0.425987 0
M  V30 3079 O 286.897 -1.89442 0.683656 0
M  V30 3080 C 283.962 -3.13332 1.48405 0
M  V30 3081 C 283.023 -3.33181 2.70719 0
M  V30 3082 C 282.256 -4.63067 2.6534 0
M  V30 3083 O 282.479 -5.44017 1.71469 0
M  V30 3084 O 281.413 -4.85167 3.56226 0
M  V30 3085 H 285.239 -1.71848 2.50403 0
M  V30 3086 H 282.824 -0.790378 1.26781 0
M  V30 3087 H 284.706 -3.94634 1.47791 0
M  V30 3088 H 283.381 -3.1896 0.551898 0
M  V30 3089 H 282.288 -2.51549 2.769 0
M  V30 3090 H 283.621 -3.32416 3.62988 0
M  V30 3091 N 285.273 -1.31445 -0.869486 0
M  V30 3092 C 286.521 -1.20918 -1.61936 0
M  V30 3093 C 286.842 0.232683 -1.93607 0
M  V30 3094 O 286.112 1.15352 -1.58338 0
M  V30 3095 H 284.692 -0.44454 -0.600328 0
M  V30 3096 H 287.354 -1.64776 -1.0409 0
M  V30 3097 H 286.45 -1.78124 -2.56278 0
M  V30 3098 N 286.751 1.08385 -1.14413 0
M  V30 3099 C 287.681 2.17321 -0.854044 0
M  V30 3100 C 288.662 1.69024 0.191049 0
M  V30 3101 O 289.847 1.94141 0.0476779 0
M  V30 3102 C 286.977 3.45719 -0.330983 0
M  V30 3103 C 285.931 4.07409 -1.31155 0
M  V30 3104 C 285.257 5.30762 -0.64778 0
M  V30 3105 C 286.557 4.48665 -2.67388 0
M  V30 3106 H 288.251 2.41845 -1.76498 0
M  V30 3107 H 285.797 1.16233 -0.850051 0
M  V30 3108 H 287.75 4.21241 -0.115645 0
M  V30 3109 H 286.474 3.2075 0.615381 0
M  V30 3110 H 285.133 3.33919 -1.51306 0
M  V30 3111 H 284.781 5.02078 0.304398 0
M  V30 3112 H 284.481 5.72992 -1.30207 0
M  V30 3113 H 286.005 6.08998 -0.441972 0
M  V30 3114 H 287.419 5.15364 -2.51143 0
M  V30 3115 H 285.816 5.01814 -3.29093 0
M  V30 3116 H 286.886 3.60543 -3.24248 0
M  V30 3117 N 288.23 0.939286 1.26551 0
M  V30 3118 C 289.476 0.586715 1.94128 0
M  V30 3119 C 289.809 -0.8717 1.73537 0
M  V30 3120 O 289.084 -1.62339 1.07127 0
M  V30 3121 C 289.367 0.927497 3.4795 0
M  V30 3122 C 289.22 2.44052 3.77834 0
M  V30 3123 C 290.539 0.441569 4.37879 0
M  V30 3124 H 287.658 0.21463 0.705055 0
M  V30 3125 H 290.3 1.17316 1.49455 0
M  V30 3126 H 288.45 0.428431 3.8613 0
M  V30 3127 H 290.122 3.01216 3.4938 0
M  V30 3128 H 288.365 2.8848 3.23978 0
M  V30 3129 H 289.036 2.62947 4.85348 0
M  V30 3130 H 291.512 0.869448 4.06915 0
M  V30 3131 H 290.388 0.708856 5.44304 0
M  V30 3132 H 290.649 -0.658467 4.37169 0
M  V30 3133 N 289.708 -1.40897 0.706093 0
M  V30 3134 C 291.124 -1.55042 0.37869 0
M  V30 3135 C 291.324 -1.67944 -1.11342 0
M  V30 3136 O 290.38 -1.66372 -1.89938 0
M  V30 3137 C 291.693 -2.78398 1.13643 0
M  V30 3138 C 293.241 -2.92206 1.12181 0
M  V30 3139 C 293.716 -4.18463 1.86152 0
M  V30 3140 N 295.207 -4.25443 1.83173 0
M  V30 3141 C 295.942 -5.2202 2.37239 0
M  V30 3142 N 295.438 -6.24563 2.99821 0
M  V30 3143 N 297.231 -5.14033 2.27435 0
M  V30 3144 H 289.382 -1.30769 1.67372 0
M  V30 3145 H 291.645 -0.631653 0.706907 0
M  V30 3146 H 291.351 -2.7511 2.19106 0
M  V30 3147 H 291.225 -3.70228 0.721853 0
M  V30 3148 H 293.612 -2.95004 0.0754171 0
M  V30 3149 H 293.693 -2.01521 1.57554 0
M  V30 3150 H 293.337 -4.16427 2.90776 0
M  V30 3151 H 293.267 -5.08141 1.38206 0
M  V30 3152 H 295.758 -3.51976 1.37556 0
M  V30 3153 H 296.071 -6.94665 3.38616 0
M  V30 3154 H 294.416 -6.25035 3.03902 0
M  V30 3155 H 297.607 -4.3285 1.78208 0
M  V30 3156 H 297.78 -5.89129 2.69873 0
M  V30 3157 N 291.186 -0.45159 -1.50991 0
M  V30 3158 C 292.432 0.110237 -2.025 0
M  V30 3159 C 292.765 1.41109 -1.33424 0
M  V30 3160 O 292.04 1.89135 -0.453659 0
M  V30 3161 C 292.323 0.314271 -3.58726 0
M  V30 3162 C 292.176 -1.00623 -4.38401 0
M  V30 3163 C 293.495 1.07767 -4.26702 0
M  V30 3164 H 290.614 0.0385897 -0.735989 0
M  V30 3165 H 293.256 -0.593374 -1.80497 0
M  V30 3166 H 291.406 0.913601 -3.77605 0
M  V30 3167 H 293.078 -1.64064 -4.31139 0
M  V30 3168 H 291.321 -1.6075 -4.02917 0
M  V30 3169 H 291.992 -0.817341 -5.45915 0
M  V30 3170 H 294.468 0.56986 -4.12179 0
M  V30 3171 H 293.344 1.18921 -5.35863 0
M  V30 3172 H 293.605 2.10939 -3.88532 0
M  V30 3173 N 292.664 1.56529 -0.183458 0
M  V30 3174 C 294.08 1.58664 0.172554 0
M  V30 3175 C 294.28 1.19925 1.61926 0
M  V30 3176 O 293.336 0.916534 2.35278 0
M  V30 3177 C 294.649 3.00463 -0.119262 0
M  V30 3178 C 296.197 3.12945 -0.0584396 0
M  V30 3179 C 296.672 4.56857 -0.323408 0
M  V30 3180 N 298.163 4.62403 -0.271612 0
M  V30 3181 C 298.898 5.71626 -0.450639 0
M  V30 3182 N 298.394 6.89362 -0.689384 0
M  V30 3183 N 300.187 5.60775 -0.385701 0
M  V30 3184 H 292.338 1.79994 -1.12765 0
M  V30 3185 H 294.601 0.834808 -0.449222 0
M  V30 3186 H 294.307 3.33326 -1.12192 0
M  V30 3187 H 294.181 3.72659 0.583544 0
M  V30 3188 H 296.568 2.79902 0.934805 0
M  V30 3189 H 296.649 2.4316 -0.794144 0
M  V30 3190 H 296.293 4.9061 -1.31392 0
M  V30 3191 H 296.223 5.24816 0.43305 0
M  V30 3192 H 298.714 3.77785 -0.0932256 0
M  V30 3193 H 299.027 7.68489 -0.815113 0
M  V30 3194 H 297.372 6.91196 -0.726142 0
M  V30 3195 H 300.563 4.67674 -0.199687 0
M  V30 3196 H 300.736 6.4584 -0.528646 0
M  V30 3197 N 294.142 -0.090211 1.57342 0
M  V30 3198 C 295.074 -1.13541 1.99101 0
M  V30 3199 C 296.087 -1.3604 0.894258 0
M  V30 3200 O 297.276 -1.34606 1.17233 0
M  V30 3201 C 294.376 -2.49001 2.29895 0
M  V30 3202 C 293.549 -2.46712 3.61182 0
M  V30 3203 C 292.608 -3.64136 3.79857 0
M  V30 3204 O 291.634 -3.46405 4.51655 0
M  V30 3205 N 292.836 -4.83802 3.20806 0
M  V30 3206 H 295.601 -0.779942 2.89373 0
M  V30 3207 H 293.162 -0.279125 1.59476 0
M  V30 3208 H 295.154 -3.26166 2.39578 0
M  V30 3209 H 293.724 -2.76619 1.45605 0
M  V30 3210 H 292.944 -1.55058 3.62423 0
M  V30 3211 H 294.232 -2.42265 4.4742 0
M  V30 3212 H 293.63 -5.01112 2.62494 0
M  V30 3213 H 292.187 -5.58543 3.35966 0
M  V30 3214 N 295.62 -1.53406 -0.361157 0
M  V30 3215 C 296.53 -1.83122 -1.4664 0
M  V30 3216 C 297.546 -0.719943 -1.58407 0
M  V30 3217 O 298.722 -1.01046 -1.74218 0
M  V30 3218 C 295.787 -2.01891 -2.81853 0
M  V30 3219 C 294.848 -3.25784 -2.79577 0
M  V30 3220 C 294.081 -3.43648 -4.0834 0
M  V30 3221 O 294.304 -2.65714 -5.0473 0
M  V30 3222 O 293.238 -4.37018 -4.13883 0
M  V30 3223 H 297.064 -2.7703 -1.24451 0
M  V30 3224 H 294.649 -1.38841 -0.551678 0
M  V30 3225 H 296.531 -2.15782 -3.61962 0
M  V30 3226 H 295.206 -1.11173 -3.0401 0
M  V30 3227 H 294.113 -3.17312 -1.98151 0
M  V30 3228 H 295.446 -4.16439 -2.62373 0
M  V30 3229 N 297.098 0.621204 -1.44841 0
M  V30 3230 C 298.028 1.74366 -1.55303 0
M  V30 3231 C 299.009 1.65199 -0.405385 0
M  V30 3232 O 300.194 1.83807 -0.626787 0
M  V30 3233 C 297.324 3.12931 -1.50637 0
M  V30 3234 C 296.278 3.36896 -2.63979 0
M  V30 3235 C 295.604 4.75594 -2.44366 0
M  V30 3236 C 296.904 3.28483 -4.06074 0
M  V30 3237 H 298.598 1.65867 -2.49256 0
M  V30 3238 H 296.144 0.796558 -1.19962 0
M  V30 3239 H 298.097 3.9124 -1.56555 0
M  V30 3240 H 296.821 3.22237 -0.532057 0
M  V30 3241 H 295.48 2.60972 -2.57467 0
M  V30 3242 H 295.128 4.81616 -1.45105 0
M  V30 3243 H 294.828 4.92586 -3.20364 0
M  V30 3244 H 296.352 5.5612 -2.52117 0
M  V30 3245 H 297.766 3.96684 -4.13902 0
M  V30 3246 H 296.163 3.57008 -4.82354 0
M  V30 3247 H 297.233 2.26133 -4.28943 0
M  V30 3248 N 298.576 1.31904 0.862503 0
M  V30 3249 C 299.539 1.20131 1.95195 0
M  V30 3250 C 300.539 0.126409 1.60302 0
M  V30 3251 O 301.729 0.376234 1.70089 0
M  V30 3252 C 298.861 0.845691 3.30244 0
M  V30 3253 H 300.054 2.16943 2.07064 0
M  V30 3254 H 297.607 1.15622 1.05172 0
M  V30 3255 H 298.342 -0.120957 3.24074 0
M  V30 3256 H 298.127 1.62276 3.56944 0
M  V30 3257 H 299.617 0.787418 4.10109 0
M  V30 3258 N 300.054 -1.07777 1.14986 0
M  V30 3259 C 301.002 -2.16964 0.838406 0
M  V30 3260 C 301.996 -1.68372 -0.186386 0
M  V30 3261 O 303.202 -1.79951 -0.0418465 0
M  V30 3262 H 299.577 -0.708006 0.253439 0
M  V30 3263 H 301.548 -2.40454 1.76704 0
M  V30 3264 C 300.297 -3.4604 0.339335 0
M  V30 3265 H 299.62 -3.83813 1.11927 0
M  V30 3266 H 301.06 -4.23698 0.160021 0
M  V30 3267 C 299.519 -3.23569 -0.938325 0
M  V30 3268 O 300.049 -3.47752 -2.01077 0
M  V30 3269 N 298.255 -2.77079 -0.876117 0
M  V30 3270 H 297.802 -2.576 -0.00322037 0
M  V30 3271 H 297.76 -2.62422 -1.73153 0
M  V30 3272 N 301.532 -0.945985 -1.26051 0
M  V30 3273 C 302.762 -0.612136 -1.97323 0
M  V30 3274 C 303.17 0.818171 -1.70595 0
M  V30 3275 O 302.513 1.55777 -0.973613 0
M  V30 3276 C 302.575 -0.780347 -3.50929 0
M  V30 3277 C 302.239 -2.18619 -4.01317 0
M  V30 3278 C 303.236 -3.16209 -4.12683 0
M  V30 3279 C 300.921 -2.50805 -4.35203 0
M  V30 3280 C 302.915 -4.44085 -4.57238 0
M  V30 3281 C 300.602 -3.78912 -4.79446 0
M  V30 3282 C 301.6 -4.75365 -4.90425 0
M  V30 3283 O 301.288 -6.01191 -5.3369 0
M  V30 3284 H 301.02 -0.229134 -0.635982 0
M  V30 3285 H 303.574 -1.27036 -1.61404 0
M  V30 3286 H 301.804 -0.0649864 -3.86645 0
M  V30 3287 H 303.493 -0.448842 -4.03411 0
M  V30 3288 H 304.259 -2.92668 -3.86744 0
M  V30 3289 H 300.138 -1.76463 -4.2589 0
M  V30 3290 H 303.682 -5.19373 -4.65723 0
M  V30 3291 H 299.579 -4.02265 -5.0483 0
M  V30 3292 H 300.347 -6.04442 -5.51899 0
M  V30 3293 N 303.011 1.40521 -0.713556 0
M  V30 3294 C 304.257 2.01221 -0.252564 0
M  V30 3295 C 304.59 1.56444 1.1506 0
M  V30 3296 O 303.865 0.783597 1.78017 0
M  V30 3297 C 304.148 3.58582 -0.330332 0
M  V30 3298 C 304.001 4.13437 -1.77173 0
M  V30 3299 C 305.32 4.39079 0.299641 0
M  V30 3300 H 302.439 0.731077 -0.0932471 0
M  V30 3301 H 305.081 1.67026 -0.905673 0
M  V30 3302 H 303.231 3.87844 0.225737 0
M  V30 3303 H 304.903 3.9498 -2.38303 0
M  V30 3304 H 303.146 3.67801 -2.3001 0
M  V30 3305 H 303.817 5.22597 -1.77755 0
M  V30 3306 H 306.293 4.15735 -0.174139 0
M  V30 3307 H 305.169 5.4848 0.214771 0
M  V30 3308 H 305.43 4.19915 1.38288 0
M  V30 3309 N 304.489 0.459591 1.5075 0
M  V30 3310 C 305.399 -0.34613 2.32033 0
M  V30 3311 C 306.415 -1.00686 1.41909 0
M  V30 3312 O 307.591 -0.997361 1.7497 0
M  V30 3313 C 304.656 -1.42029 3.16273 0
M  V30 3314 C 303.717 -0.777362 4.22203 0
M  V30 3315 C 302.95 -1.80034 5.02418 0
M  V30 3316 O 303.173 -3.02544 4.83553 0
M  V30 3317 O 302.107 -1.37853 5.85901 0
M  V30 3318 H 305.933 0.318054 3.0203 0
M  V30 3319 H 303.518 0.221663 1.47746 0
M  V30 3320 H 305.4 -2.04275 3.68578 0
M  V30 3321 H 304.075 -2.06815 2.49016 0
M  V30 3322 H 302.982 -0.116256 3.73919 0
M  V30 3323 H 304.315 -0.172634 4.91897 0
M  V30 3324 N 305.967 -1.56429 0.191757 0
M  V30 3325 C 307.214 -1.97485 -0.447891 0
M  V30 3326 C 307.542 -1.07852 -1.61859 0
M  V30 3327 O 306.797 -0.116903 -1.95351 0
M  V30 3328 C 307.096 -3.44449 -0.953384 0
M  V30 3329 C 306.762 -4.50781 0.103586 0
M  V30 3330 C 305.424 -4.79584 0.394023 0
M  V30 3331 C 307.776 -5.1471 0.819946 0
M  V30 3332 C 305.104 -5.69607 1.40585 0
M  V30 3333 C 307.456 -6.05827 1.8209 0
M  V30 3334 C 306.12 -6.32987 2.11857 0
M  V30 3335 H 305.39 -0.722648 -0.163895 0
M  V30 3336 H 308.037 -1.89322 0.28802 0
M  V30 3337 H 306.342 -3.49666 -1.76751 0
M  V30 3338 H 308.039 -3.73569 -1.45765 0
M  V30 3339 H 304.629 -4.28394 -0.132951 0
M  V30 3340 H 308.813 -4.92552 0.608789 0
M  V30 3341 H 304.069 -5.88926 1.64243 0
M  V30 3342 H 308.243 -6.54424 2.38123 0
M  V30 3343 H 305.87 -7.02544 2.90407 0
M  V30 3344 N 307.445 0.0818655 -1.57387 0
M  V30 3345 C 308.67 0.799946 -1.91352 0
M  V30 3346 C 309.095 1.70833 -0.787258 0
M  V30 3347 O 308.453 1.79419 0.26048 0
M  V30 3348 C 308.501 1.57812 -3.24234 0
M  V30 3349 O 307.605 2.68806 -3.12757 0
M  V30 3350 H 306.946 0.21891 -0.626877 0
M  V30 3351 H 309.476 0.0531256 -2.04531 0
M  V30 3352 H 309.486 1.95952 -3.57864 0
M  V30 3353 H 308.161 0.911548 -4.05788 0
M  V30 3354 H 306.738 2.33597 -2.90666 0
M  V30 3355 N 308.923 1.53595 0.353017 0
M  V30 3356 C 310.148 1.7462 1.11904 0
M  V30 3357 C 310.573 0.479721 1.8188 0
M  V30 3358 O 309.931 -0.567066 1.72204 0
M  V30 3359 C 309.979 2.92029 2.11545 0
M  V30 3360 O 309.083 2.61516 3.18878 0
M  V30 3361 H 308.424 0.579531 0.324099 0
M  V30 3362 H 310.954 2.00525 0.406301 0
M  V30 3363 H 310.964 3.18551 2.5493 0
M  V30 3364 H 309.639 3.83888 1.60008 0
M  V30 3365 H 308.216 2.45852 2.80377 0
M  V30 3366 N 310.401 -0.613514 1.45168 0
M  V30 3367 C 311.647 -1.37471 1.49096 0
M  V30 3368 C 311.98 -1.93765 0.129901 0
M  V30 3369 O 311.255 -1.74707 -0.854858 0
M  V30 3370 C 311.538 -2.52701 2.56542 0
M  V30 3371 C 311.391 -2.01643 4.0207 0
M  V30 3372 C 312.71 -3.54849 2.60327 0
M  V30 3373 H 309.829 -0.498502 0.54283 0
M  V30 3374 H 312.471 -0.692125 1.76945 0
M  V30 3375 H 310.621 -3.10931 2.32926 0
M  V30 3376 H 312.293 -1.48108 4.36877 0
M  V30 3377 H 310.536 -1.32688 4.13009 0
M  V30 3378 H 311.207 -2.84681 4.72928 0
M  V30 3379 H 313.683 -3.0645 2.81474 0
M  V30 3380 H 312.559 -4.32973 3.37381 0
M  V30 3381 H 312.82 -4.10079 1.6519 0
M  V30 3382 N 311.879 -1.3236 -0.855495 0
M  V30 3383 C 312.827 -1.2118 -1.9854 0
M  V30 3384 C 313.821 -0.116788 -1.68997 0
M  V30 3385 O 315.027 -0.279657 -1.77814 0
M  V30 3386 H 311.402 -0.375608 -0.651477 0
M  V30 3387 H 313.373 -2.16743 -2.05098 0
M  V30 3388 C 312.122 -0.950849 -3.34446 0
M  V30 3389 H 311.445 -1.78563 -3.57708 0
M  V30 3390 H 312.885 -0.912863 -4.14057 0
M  V30 3391 C 311.344 0.346404 -3.35114 0
M  V30 3392 O 311.874 1.35855 -3.7803 0
M  V30 3393 N 310.08 0.36808 -2.88259 0
M  V30 3394 H 309.627 -0.456102 -2.5353 0
M  V30 3395 H 309.585 1.23591 -2.89089 0
M  V30 3396 N 313.357 1.07166 -1.15556 0
M  V30 3397 C 314.287 2.16403 -0.877046 0
M  V30 3398 C 315.268 1.69217 0.173111 0
M  V30 3399 O 316.453 1.94181 0.027084 0
M  V30 3400 C 313.583 3.45349 -0.367632 0
M  V30 3401 C 312.537 4.05995 -1.35468 0
M  V30 3402 C 311.863 5.30045 -0.704038 0
M  V30 3403 C 313.163 4.45804 -2.72132 0
M  V30 3404 H 314.857 2.39959 -1.79053 0
M  V30 3405 H 312.403 1.15325 -0.862331 0
M  V30 3406 H 314.356 4.21095 -0.160317 0
M  V30 3407 H 313.08 3.21385 0.581326 0
M  V30 3408 H 311.739 3.32296 -1.54839 0
M  V30 3409 H 311.387 5.02373 0.251128 0
M  V30 3410 H 311.087 5.71579 -1.36277 0
M  V30 3411 H 312.611 6.08495 -0.50654 0
M  V30 3412 H 314.025 5.12671 -2.56595 0
M  V30 3413 H 312.422 4.98296 -3.34397 0
M  V30 3414 H 313.492 3.57083 -3.28054 0
M  V30 3415 N 314.835 0.952656 1.25548 0
M  V30 3416 C 315.765 0.489287 2.28316 0
M  V30 3417 C 316.746 -0.463359 1.63667 0
M  V30 3418 O 317.931 -0.36274 1.90782 0
M  V30 3419 C 315.061 -0.235603 3.465 0
M  V30 3420 C 314.015 0.631593 4.23314 0
M  V30 3421 C 313.341 -0.223923 5.34231 0
M  V30 3422 C 314.641 1.90871 4.86174 0
M  V30 3423 H 316.335 1.34822 2.67326 0
M  V30 3424 H 313.881 0.649728 1.28509 0
M  V30 3425 H 315.834 -0.570882 4.17515 0
M  V30 3426 H 314.558 -1.12877 3.06474 0
M  V30 3427 H 313.217 0.949929 3.54079 0
M  V30 3428 H 312.865 -1.11678 4.90446 0
M  V30 3429 H 312.565 0.35299 5.86539 0
M  V30 3430 H 314.089 -0.554214 6.0808 0
M  V30 3431 H 315.503 1.63997 5.49343 0
M  V30 3432 H 313.9 2.43112 5.4865 0
M  V30 3433 H 314.97 2.61304 4.08471 0
M  V30 3434 N 316.313 -1.40141 0.720998 0
M  V30 3435 C 317.223 -2.34486 0.0731031 0
M  V30 3436 C 318.239 -1.57587 -0.737723 0
M  V30 3437 O 319.415 -1.89949 -0.669429 0
M  V30 3438 C 316.48 -3.36528 -0.833656 0
M  V30 3439 C 315.541 -4.29298 -0.0121673 0
M  V30 3440 C 314.774 -5.26466 -0.875742 0
M  V30 3441 O 314.997 -5.29745 -2.11485 0
M  V30 3442 O 313.931 -6.01092 -0.31185 0
M  V30 3443 H 317.757 -2.9152 0.851444 0
M  V30 3444 H 315.342 -1.41427 0.481527 0
M  V30 3445 H 317.224 -3.99093 -1.35289 0
M  V30 3446 H 315.899 -2.81899 -1.59105 0
M  V30 3447 H 314.806 -3.70001 0.552262 0
M  V30 3448 H 316.139 -4.87094 0.707129 0
M  V30 3449 N 317.792 -0.46758 -1.50504 0
M  V30 3450 C 318.739 0.328413 -2.28452 0
M  V30 3451 C 319.709 0.990313 -1.33349 0
M  V30 3452 O 320.894 1.00343 -1.62284 0
M  V30 3453 C 318.034 1.40648 -3.15138 0
M  V30 3454 C 317.147 0.759709 -4.25267 0
M  V30 3455 C 316.282 1.81537 -4.99217 0
M  V30 3456 C 315.321 1.14866 -6.01226 0
M  V30 3457 N 314.458 2.14702 -6.68467 0
M  V30 3458 H 319.298 -0.342603 -2.96024 0
M  V30 3459 H 316.835 -0.180801 -1.45985 0
M  V30 3460 H 318.793 2.04315 -3.63746 0
M  V30 3461 H 317.423 2.04671 -2.49619 0
M  V30 3462 H 316.475 0.0105671 -3.80399 0
M  V30 3463 H 317.787 0.233243 -4.98254 0
M  V30 3464 H 316.941 2.52793 -5.51526 0
M  V30 3465 H 315.68 2.37564 -4.25928 0
M  V30 3466 H 314.685 0.42171 -5.4818 0
M  V30 3467 H 315.91 0.595334 -6.76485 0
M  V30 3468 H 313.856 2.69752 -5.97972 0
M  V30 3469 H 313.773 1.6703 -7.37317 0
M  V30 3470 H 315.041 2.85348 -7.25394 0
M  V30 3471 N 319.27 1.56325 -0.20005 0
M  V30 3472 C 320.202 2.16555 0.750771 0
M  V30 3473 C 321.215 1.12871 1.1732 0
M  V30 3474 O 322.404 1.39943 1.10807 0
M  V30 3475 C 319.504 2.71684 2.02586 0
M  V30 3476 C 318.677 4.00321 1.76244 0
M  V30 3477 C 317.736 4.40227 2.88248 0
M  V30 3478 O 316.762 5.07552 2.57642 0
M  V30 3479 N 317.964 4.04138 4.16717 0
M  V30 3480 H 320.729 2.98772 0.235685 0
M  V30 3481 H 318.29 1.6189 -0.0182594 0
M  V30 3482 H 320.282 2.95363 2.76664 0
M  V30 3483 H 318.852 1.93893 2.45202 0
M  V30 3484 H 318.072 3.84723 0.85919 0
M  V30 3485 H 319.36 4.84279 1.56048 0
M  V30 3486 H 318.758 3.49993 4.44434 0
M  V30 3487 H 317.315 4.32756 4.87407 0
M  V30 3488 N 320.748 -0.0735177 1.57428 0
M  V30 3489 C 321.978 -0.78483 1.91112 0
M  V30 3490 C 322.386 -1.71729 0.7941 0
M  V30 3491 O 321.729 -1.82105 -0.241542 0
M  V30 3492 C 321.791 -1.63346 3.20247 0
M  V30 3493 C 321.455 -0.870557 4.48632 0
M  V30 3494 C 322.452 -0.19058 5.19551 0
M  V30 3495 C 320.137 -0.838242 4.95256 0
M  V30 3496 C 322.131 0.511503 6.35344 0
M  V30 3497 C 319.818 -0.132386 6.10957 0
M  V30 3498 C 320.816 0.541288 6.80852 0
M  V30 3499 O 320.504 1.23578 7.94345 0
M  V30 3500 H 320.236 -0.228408 0.636244 0
M  V30 3501 H 322.79 -0.0486039 2.05342 0
M  V30 3502 H 321.02 -2.41245 3.02222 0
M  V30 3503 H 322.709 -2.22329 3.39595 0
M  V30 3504 H 323.475 -0.206864 4.84559 0
M  V30 3505 H 319.354 -1.35206 4.40727 0
M  V30 3506 H 322.898 1.03789 6.89836 0
M  V30 3507 H 318.795 -0.114023 6.45399 0
M  V30 3508 H 319.563 1.14487 8.10454 0
M  V30 3509 N 322.226 -1.5378 -0.344866 0
M  V30 3510 C 323.174 -1.82373 -1.4437 0
M  V30 3511 C 324.168 -0.694128 -1.54526 0
M  V30 3512 O 325.374 -0.877442 -1.57165 0
M  V30 3513 H 321.749 -0.577765 -0.481344 0
M  V30 3514 H 323.72 -2.74306 -1.17468 0
M  V30 3515 C 322.469 -2.04898 -2.80913 0
M  V30 3516 H 321.792 -2.9127 -2.73865 0
M  V30 3517 H 323.232 -2.28871 -3.56923 0
M  V30 3518 C 321.691 -0.834116 -3.26411 0
M  V30 3519 O 322.221 -0.0328885 -4.01687 0
M  V30 3520 N 320.427 -0.65171 -2.83198 0
M  V30 3521 H 319.974 -1.30489 -2.22104 0
M  V30 3522 H 319.932 0.159686 -3.13994 0
M  V30 3523 N 323.704 0.605807 -1.45491 0
M  V30 3524 C 324.95 1.36679 -1.49823 0
M  V30 3525 C 325.283 1.93693 -0.140175 0
M  V30 3526 O 324.558 1.75158 0.845581 0
M  V30 3527 C 324.841 2.51337 -2.57879 0
M  V30 3528 C 324.694 1.99508 -4.03134 0
M  V30 3529 C 326.013 3.53463 -2.62205 0
M  V30 3530 H 323.132 0.495617 -0.545466 0
M  V30 3531 H 325.774 0.682732 -1.7731 0
M  V30 3532 H 323.924 3.09691 -2.34571 0
M  V30 3533 H 325.596 1.45789 -4.37656 0
M  V30 3534 H 323.839 1.30496 -4.13707 0
M  V30 3535 H 324.51 2.82169 -4.74431 0
M  V30 3536 H 326.986 3.04953 -2.83095 0
M  V30 3537 H 325.862 4.31178 -3.39672 0
M  V30 3538 H 326.123 4.09197 -1.67363 0
M  V30 3539 N 325.182 1.32811 0.848464 0
M  V30 3540 C 326.593 1.21315 1.41914 0
M  V30 3541 C 326.944 -0.171847 1.95446 0
M  V30 3542 O 326.069 -1.07093 1.88043 0
M  V30 3543 C 326.664 2.19631 2.57968 0
M  V30 3544 C 325.223 2.12003 3.11017 0
M  V30 3545 C 324.37 2.07651 1.83783 0
M  V30 3546 H 327.321 1.44549 0.655071 0
M  V30 3547 H 327.342 1.79845 3.35315 0
M  V30 3548 H 326.854 3.20423 2.18976 0
M  V30 3549 H 324.955 1.14481 3.54577 0
M  V30 3550 H 325.068 3.02111 3.71841 0
M  V30 3551 H 323.432 1.52983 2.03638 0
M  V30 3552 H 324.215 3.10235 1.47 0
M  V30 3553 N 326.66 -1.06551 1.16123 0
M  V30 3554 C 327.908 -1.78947 0.939267 0
M  V30 3555 C 328.229 -1.87532 -0.534476 0
M  V30 3556 O 327.499 -1.38211 -1.38833 0
M  V30 3557 H 326.079 -0.662807 0.344523 0
M  V30 3558 H 328.741 -1.28725 1.46342 0
M  V30 3559 H 327.837 -2.81117 1.35572 0
M  V30 3560 N 328.138 -0.959301 -1.25041 0
M  V30 3561 C 329.549 -0.65667 -1.74771 0
M  V30 3562 C 329.9 0.827852 -1.77879 0
M  V30 3563 O 329.025 1.64783 -1.40269 0
M  V30 3564 C 329.62 -1.1853 -3.1739 0
M  V30 3565 C 328.179 -0.932734 -3.6466 0
M  V30 3566 C 327.326 -1.32558 -2.43564 0
M  V30 3567 H 330.277 -1.13558 -1.10862 0
M  V30 3568 H 330.298 -0.547582 -3.76539 0
M  V30 3569 H 329.81 -2.26576 -3.15095 0
M  V30 3570 H 327.911 0.13257 -3.72364 0
M  V30 3571 H 328.024 -1.57248 -4.52559 0
M  V30 3572 H 326.388 -0.743956 -2.43593 0
M  V30 3573 H 327.171 -2.41537 -2.43957 0
M  V30 3574 N 329.616 1.39756 -0.72842 0
M  V30 3575 C 330.863 2.00645 -0.273487 0
M  V30 3576 C 331.191 1.57786 1.13727 0
M  V30 3577 O 330.446 0.794886 1.7883 0
M  V30 3578 C 330.745 3.56002 -0.315776 0
M  V30 3579 C 330.411 4.18489 -1.67863 0
M  V30 3580 C 329.073 4.3527 -2.05166 0
M  V30 3581 C 331.425 4.53219 -2.57375 0
M  V30 3582 C 328.753 4.84069 -3.31503 0
M  V30 3583 C 331.105 5.03423 -3.83077 0
M  V30 3584 C 329.769 5.18413 -4.20481 0
M  V30 3585 H 329.039 0.734211 -0.100076 0
M  V30 3586 H 331.686 1.6718 -0.933972 0
M  V30 3587 H 329.991 3.89452 0.428285 0
M  V30 3588 H 331.688 4.00963 0.0542575 0
M  V30 3589 H 328.278 4.05824 -1.37858 0
M  V30 3590 H 332.462 4.39878 -2.29827 0
M  V30 3591 H 327.718 4.93859 -3.60435 0
M  V30 3592 H 331.892 5.2927 -4.52599 0
M  V30 3593 H 329.519 5.55987 -5.18443 0
M  V30 3594 N 331.094 0.475555 1.50254 0
M  V30 3595 C 332.371 -0.139685 1.95101 0
M  V30 3596 C 332.751 -1.56555 1.41611 0
M  V30 3597 O 332.099 -2.19956 0.618993 0
M  V30 3598 C 332.309 -0.0784298 3.48912 0
M  V30 3599 C 333.657 -0.265095 4.23772 0
M  V30 3600 O 334.681 -0.154808 3.55863 0
M  V30 3601 O 333.54 -0.488327 5.44314 0
M  V30 3602 H 330.634 -0.109236 0.819754 0
M  V30 3603 H 333.18 0.536276 1.61004 0
M  V30 3604 H 331.952 0.916918 3.80405 0
M  V30 3605 H 331.575 -0.795655 3.89558 0
M  V30 3606 N 332.573 -1.56217 0.208337 0
M  V30 3607 C 333.536 -2.18455 -0.693557 0
M  V30 3608 C 334.536 -1.14268 -1.13135 0
M  V30 3609 O 335.726 -1.39577 -1.0423 0
M  V30 3610 C 332.858 -2.79727 -1.94848 0
M  V30 3611 H 334.051 -2.99519 -0.15114 0
M  V30 3612 H 331.604 -1.56245 -0.041287 0
M  V30 3613 H 332.339 -2.02497 -2.53309 0
M  V30 3614 H 332.124 -3.56009 -1.64316 0
M  V30 3615 H 333.614 -3.27475 -2.59133 0
M  V30 3616 N 334.051 0.0651679 -1.57465 0
M  V30 3617 C 335.3 0.761916 -1.86756 0
M  V30 3618 C 335.613 1.78406 -0.801925 0
M  V30 3619 O 336.819 2.53084 -0.982885 0
M  V30 3620 C 335.275 1.40603 -3.31299 0
M  V30 3621 C 334.883 0.422115 -4.46007 0
M  V30 3622 C 336.627 2.08476 -3.69781 0
M  V30 3623 C 334.534 1.07252 -5.81593 0
M  V30 3624 H 333.464 0.288308 -0.696702 0
M  V30 3625 H 336.115 0.015344 -1.83494 0
M  V30 3626 H 334.497 2.20109 -3.29193 0
M  V30 3627 H 335.671 -0.343613 -4.59517 0
M  V30 3628 H 333.986 -0.152527 -4.16121 0
M  V30 3629 H 336.583 2.57925 -4.68379 0
M  V30 3630 H 336.926 2.88712 -2.99919 0
M  V30 3631 H 337.459 1.35792 -3.73905 0
M  V30 3632 H 334.198 0.310342 -6.54765 0
M  V30 3633 H 333.718 1.80895 -5.71872 0
M  V30 3634 H 335.397 1.59043 -6.27148 0
M  V30 3635 N 335.529 1.53961 0.336706 0
M  V30 3636 C 336.776 1.71536 1.07618 0
M  V30 3637 C 337.104 0.482125 1.8843 0
M  V30 3638 O 336.359 -0.536142 1.88213 0
M  V30 3639 C 336.658 2.93493 2.03953 0
M  V30 3640 C 336.324 4.28811 1.39399 0
M  V30 3641 C 334.986 4.65602 1.21523 0
M  V30 3642 C 337.338 5.12844 0.929541 0
M  V30 3643 C 334.666 5.84037 0.558312 0
M  V30 3644 C 337.018 6.31951 0.286505 0
M  V30 3645 C 335.682 6.67432 0.0954869 0
M  V30 3646 H 334.952 0.627696 0.393801 0
M  V30 3647 H 337.599 1.88186 0.354715 0
M  V30 3648 H 335.904 2.71475 2.82504 0
M  V30 3649 H 337.601 3.04285 2.61174 0
M  V30 3650 H 334.191 3.99858 1.54311 0
M  V30 3651 H 338.375 4.84947 1.05548 0
M  V30 3652 H 333.631 6.10097 0.398995 0
M  V30 3653 H 337.805 6.96352 -0.0814376 0
M  V30 3654 H 335.432 7.59063 -0.415579 0
M  V30 3655 N 337.007 -0.598083 1.45811 0
M  V30 3656 C 338.247 -1.36802 1.5187 0
M  V30 3657 C 338.611 -1.9133 0.160224 0
M  V30 3658 O 339.812 -2.6863 0.0955302 0
M  V30 3659 C 338.083 -2.47835 2.57513 0
M  V30 3660 S 339.642 -3.35458 2.82866 0
M  V30 3661 H 336.46 -0.466278 0.536755 0
M  V30 3662 H 339.062 -0.689152 1.82951 0
M  V30 3663 H 337.766 -2.06141 3.54872 0
M  V30 3664 H 337.297 -3.20512 2.28114 0
M  V30 3665 H 339.312 -4.46251 2.16967 0
M  V30 3666 N 338.485 -1.33259 -0.841409 0
M  V30 3667 C 339.901 -1.12538 -1.13169 0
M  V30 3668 C 340.101 0.0854037 -2.01319 0
M  V30 3669 O 339.157 0.766417 -2.40587 0
M  V30 3670 C 340.47 -2.41156 -1.79623 0
M  V30 3671 C 342.018 -2.47038 -1.922 0
M  V30 3672 C 342.493 -3.7561 -2.6207 0
M  V30 3673 N 343.984 -3.76667 -2.69585 0
M  V30 3674 C 344.719 -4.72861 -3.2433 0
M  V30 3675 N 344.215 -5.79428 -3.79783 0
M  V30 3676 N 346.008 -4.6034 -3.22558 0
M  V30 3677 H 338.159 -2.10868 -0.254676 0
M  V30 3678 H 340.422 -0.931615 -0.175493 0
M  V30 3679 H 340.128 -3.29747 -1.22311 0
M  V30 3680 H 340.002 -2.53114 -2.79666 0
M  V30 3681 H 342.389 -1.58898 -2.48667 0
M  V30 3682 H 342.47 -2.39022 -0.911148 0
M  V30 3683 H 342.114 -4.64131 -2.06263 0
M  V30 3684 H 342.044 -3.80902 -3.63622 0
M  V30 3685 H 344.535 -2.99648 -2.30259 0
M  V30 3686 H 344.848 -6.48867 -4.19752 0
M  V30 3687 H 343.193 -5.83166 -3.78078 0
M  V30 3688 H 346.384 -3.76244 -2.78492 0
M  V30 3689 H 346.557 -5.35478 -3.64921 0
M  V30 3690 N 339.963 1.05934 -1.16686 0
M  V30 3691 C 340.911 2.15603 -0.872817 0
M  V30 3692 C 341.905 1.68647 0.159576 0
M  V30 3693 O 343.111 1.79995 0.0132125 0
M  V30 3694 H 339.486 0.703885 -0.264671 0
M  V30 3695 H 341.457 2.37613 -1.80507 0
M  V30 3696 C 340.206 3.45457 -0.394344 0
M  V30 3697 H 339.529 3.81984 -1.18019 0
M  V30 3698 H 340.969 4.2339 -0.227408 0
M  V30 3699 C 339.428 3.25021 0.88673 0
M  V30 3700 O 339.958 3.50906 1.95519 0
M  V30 3701 N 338.164 2.78437 0.831925 0
M  V30 3702 H 337.711 2.57572 -0.0377619 0
M  V30 3703 H 337.669 2.65144 1.68956 0
M  V30 3704 N 341.441 0.965919 1.2453 0
M  V30 3705 C 342.687 0.62776 1.92839 0
M  V30 3706 C 343.02 -0.834694 1.75347 0
M  V30 3707 O 342.295 -1.60031 1.10546 0
M  V30 3708 C 342.578 1.00109 3.45905 0
M  V30 3709 C 342.431 2.52011 3.72573 0
M  V30 3710 C 343.75 0.53435 4.36844 0
M  V30 3711 H 340.869 0.229537 0.700344 0
M  V30 3712 H 343.511 1.2046 1.46933 0
M  V30 3713 H 341.661 0.510238 3.85135 0
M  V30 3714 H 343.333 3.08559 3.42912 0
M  V30 3715 H 341.576 2.95287 3.17786 0
M  V30 3716 H 342.247 2.73183 4.79661 0
M  V30 3717 H 344.723 0.955565 4.04979 0
M  V30 3718 H 343.599 0.824152 5.42678 0
M  V30 3719 H 343.86 -0.565589 4.38467 0
M  V30 3720 N 342.919 -1.39368 0.735821 0
M  V30 3721 C 343.852 -2.28155 0.0451175 0
M  V30 3722 C 344.83 -1.44433 -0.746852 0
M  V30 3723 O 346.014 -1.73823 -0.729237 0
M  V30 3724 C 343.141 -3.253 -0.943266 0
M  V30 3725 C 342.187 -4.25826 -0.239685 0
M  V30 3726 S 343.02 -5.25166 1.04693 0
M  V30 3727 C 344.176 -6.2587 0.0611639 0
M  V30 3728 H 344.409 -2.86388 0.79807 0
M  V30 3729 H 341.942 -1.45104 0.527653 0
M  V30 3730 H 343.9 -3.81789 -1.50824 0
M  V30 3731 H 342.561 -2.66085 -1.66906 0
M  V30 3732 H 341.754 -4.94229 -0.987596 0
M  V30 3733 H 341.356 -3.73141 0.253274 0
M  V30 3734 H 343.648 -6.73007 -0.778941 0
M  V30 3735 H 344.591 -7.04508 0.712362 0
M  V30 3736 H 344.999 -5.63639 -0.311602 0
M  V30 3737 N 344.397 -0.483516 -1.5 0
M  V30 3738 C 345.646 0.0689102 -2.01582 0
M  V30 3739 C 345.959 1.39655 -1.36952 0
M  V30 3740 O 347.165 2.03465 -1.79762 0
M  V30 3741 C 345.621 0.173302 -3.59483 0
M  V30 3742 C 345.229 -1.14665 -4.33077 0
M  V30 3743 C 346.973 0.677024 -4.19066 0
M  V30 3744 C 344.88 -1.00537 -5.82792 0
M  V30 3745 H 343.81 0.0295277 -0.753422 0
M  V30 3746 H 346.461 -0.620295 -1.72698 0
M  V30 3747 H 344.843 0.926569 -3.85007 0
M  V30 3748 H 346.017 -1.91184 -4.19268 0
M  V30 3749 H 344.332 -1.58244 -3.85159 0
M  V30 3750 H 346.929 0.799952 -5.28682 0
M  V30 3751 H 347.272 1.67151 -3.81269 0
M  V30 3752 H 347.805 -0.0192083 -3.97795 0
M  V30 3753 H 344.544 -1.9736 -6.25083 0
M  V30 3754 H 344.064 -0.280776 -5.99142 0
M  V30 3755 H 345.743 -0.677 -6.43448 0
M  V30 3756 N 345.875 1.56104 -0.216619 0
M  V30 3757 C 347.105 2.02269 0.420802 0
M  V30 3758 C 347.513 1.09575 1.5424 0
M  V30 3759 O 346.856 0.0967308 1.83445 0
M  V30 3760 C 346.918 3.44784 1.01806 0
M  V30 3761 C 346.582 4.56988 0.0325154 0
M  V30 3762 C 347.579 5.14225 -0.766055 0
M  V30 3763 C 345.264 5.02228 -0.0848092 0
M  V30 3764 C 347.258 6.15169 -1.6687 0
M  V30 3765 C 344.945 6.03011 -0.990994 0
M  V30 3766 C 345.943 6.59357 -1.78149 0
M  V30 3767 O 345.631 7.58179 -2.67245 0
M  V30 3768 H 345.363 0.667353 0.107776 0
M  V30 3769 H 347.917 2.02747 -0.329034 0
M  V30 3770 H 346.147 3.41359 1.81689 0
M  V30 3771 H 347.836 3.74626 1.56237 0
M  V30 3772 H 348.602 4.80126 -0.685836 0
M  V30 3773 H 344.481 4.58054 0.520349 0
M  V30 3774 H 348.025 6.59076 -2.28615 0
M  V30 3775 H 343.922 6.36532 -1.07225 0
M  V30 3776 H 344.69 7.75682 -2.61265 0
M  V30 3777 N 347.353 -0.0568162 1.57498 0
M  V30 3778 C 348.6 -0.753104 1.87975 0
M  V30 3779 C 348.928 -1.76815 0.81035 0
M  V30 3780 O 348.183 -1.94756 -0.19199 0
M  V30 3781 C 348.482 -1.48359 3.25153 0
M  V30 3782 C 348.148 -0.60713 4.46794 0
M  V30 3783 C 346.81 -0.365642 4.79809 0
M  V30 3784 C 349.162 -0.000305978 5.212 0
M  V30 3785 C 346.49 0.491905 5.84634 0
M  V30 3786 C 348.842 0.844781 6.26934 0
M  V30 3787 C 347.506 1.096 6.58441 0
M  V30 3788 H 346.776 -0.27558 0.687849 0
M  V30 3789 H 349.423 -0.0135173 1.91495 0
M  V30 3790 H 347.728 -2.29577 3.17492 0
M  V30 3791 H 349.425 -2.02739 3.45974 0
M  V30 3792 H 346.015 -0.805487 4.20963 0
M  V30 3793 H 350.199 -0.173961 4.95995 0
M  V30 3794 H 345.455 0.695131 6.07436 0
M  V30 3795 H 349.629 1.32165 6.83744 0
M  V30 3796 H 347.256 1.76224 7.39492 0
M  V30 3797 N 348.832 -1.54138 -0.328536 0
M  V30 3798 C 350.109 -1.62749 -1.08499 0
M  V30 3799 C 350.489 -0.458198 -2.06067 0
M  V30 3800 O 349.837 0.548046 -2.2183 0
M  V30 3801 C 350.047 -2.99519 -1.79135 0
M  V30 3802 C 351.395 -3.55394 -2.32337 0
M  V30 3803 O 352.419 -3.01792 -1.89209 0
M  V30 3804 O 351.278 -4.49186 -3.11279 0
M  V30 3805 H 348.372 -0.65886 -0.499832 0
M  V30 3806 H 350.918 -1.66484 -0.328826 0
M  V30 3807 H 349.69 -3.76061 -1.08139 0
M  V30 3808 H 349.313 -2.99441 -2.61574 0
M  V30 3809 N 350.31 0.590341 -1.46126 0
M  V30 3810 C 351.257 1.69994 -1.56111 0
M  V30 3811 C 352.227 1.61065 -0.405867 0
M  V30 3812 O 353.412 1.8039 -0.621613 0
M  V30 3813 C 350.552 3.08326 -1.55013 0
M  V30 3814 C 349.665 3.27936 -2.81215 0
M  V30 3815 C 348.8 4.56473 -2.71673 0
M  V30 3816 C 347.839 4.694 -3.92849 0
M  V30 3817 N 346.976 5.89254 -3.81738 0
M  V30 3818 H 351.816 1.60797 -2.50895 0
M  V30 3819 H 349.353 0.783799 -1.24479 0
M  V30 3820 H 351.311 3.88383 -1.52362 0
M  V30 3821 H 349.941 3.16439 -0.637667 0
M  V30 3822 H 348.993 2.41536 -2.93879 0
M  V30 3823 H 350.305 3.33357 -3.71045 0
M  V30 3824 H 349.459 5.44748 -2.67085 0
M  V30 3825 H 348.198 4.53477 -1.7947 0
M  V30 3826 H 347.203 3.79544 -3.97777 0
M  V30 3827 H 348.428 4.7418 -4.86138 0
M  V30 3828 H 346.374 5.87271 -2.92317 0
M  V30 3829 H 346.291 5.95911 -4.65217 0
M  V30 3830 H 347.559 6.79981 -3.81112 0
M  V30 3831 N 351.788 1.33704 0.83433 0
M  V30 3832 C 353.016 1.28467 1.62185 0
M  V30 3833 C 353.431 -0.143526 1.88254 0
M  V30 3834 O 352.788 -1.08709 1.4659 0
M  V30 3835 C 352.839 2.06174 2.96942 0
M  V30 3836 O 352.56 3.43422 2.72016 0
M  V30 3837 C 354.061 2.08201 3.91366 0
M  V30 3838 H 351.281 0.4424 0.504503 0
M  V30 3839 H 353.825 1.76145 1.03891 0
M  V30 3840 H 351.98 1.62167 3.51825 0
M  V30 3841 H 352.394 3.83453 3.57861 0
M  V30 3842 H 353.868 2.67017 4.83121 0
M  V30 3843 H 354.345 1.07343 4.2588 0
M  V30 3844 H 354.951 2.52246 3.42421 0
M  V30 3845 N 353.266 -1.05314 1.17247 0
M  V30 3846 C 354.494 -1.81971 0.984593 0
M  V30 3847 C 354.909 -1.82929 -0.467166 0
M  V30 3848 O 354.266 -1.25564 -1.32438 0
M  V30 3849 C 354.317 -3.28143 1.51672 0
M  V30 3850 O 354.038 -3.27347 2.91163 0
M  V30 3851 C 355.539 -4.21493 1.37326 0
M  V30 3852 H 352.759 -0.573455 0.348411 0
M  V30 3853 H 355.303 -1.32808 1.55506 0
M  V30 3854 H 353.458 -3.74582 0.988302 0
M  V30 3855 H 353.872 -4.18824 3.15732 0
M  V30 3856 H 355.346 -5.22043 1.79375 0
M  V30 3857 H 355.823 -4.38031 0.320169 0
M  V30 3858 H 356.429 -3.80909 1.89178 0
M  V30 3859 N 354.744 -0.972509 -1.24016 0
M  V30 3860 C 355.676 -0.464375 -2.24446 0
M  V30 3861 C 356.689 0.4295 -1.57032 0
M  V30 3862 O 357.878 0.234902 -1.76948 0
M  V30 3863 C 354.978 0.348385 -3.37105 0
M  V30 3864 C 354.151 -0.53673 -4.34094 0
M  V30 3865 C 353.21 0.220838 -5.25736 0
M  V30 3866 O 352.236 -0.386867 -5.67884 0
M  V30 3867 N 353.438 1.50907 -5.60542 0
M  V30 3868 H 356.203 -1.32788 -2.68677 0
M  V30 3869 H 353.764 -0.844877 -1.38107 0
M  V30 3870 H 355.756 0.863341 -3.95384 0
M  V30 3871 H 354.326 1.11285 -2.92121 0
M  V30 3872 H 353.546 -1.23261 -3.74433 0
M  V30 3873 H 354.834 -1.14022 -4.95859 0
M  V30 3874 H 354.232 2.02444 -5.28236 0
M  V30 3875 H 352.789 1.96962 -6.21329 0
M  V30 3876 N 356.222 1.38976 -0.743202 0
M  V30 3877 C 357.132 2.3434 -0.110399 0
M  V30 3878 C 358.148 1.58741 0.712559 0
M  V30 3879 O 359.324 1.9099 0.639125 0
M  V30 3880 C 356.389 3.37812 0.780012 0
M  V30 3881 C 355.45 4.29263 -0.0561319 0
M  V30 3882 C 354.683 5.27793 0.791875 0
M  V30 3883 O 354.906 5.33043 2.03031 0
M  V30 3884 O 353.84 6.01512 0.216183 0
M  V30 3885 H 357.666 2.90129 -0.897714 0
M  V30 3886 H 355.251 1.40643 -0.503966 0
M  V30 3887 H 357.133 4.01194 1.28923 0
M  V30 3888 H 355.808 2.84395 1.546 0
M  V30 3889 H 354.715 3.69076 -0.611056 0
M  V30 3890 H 356.048 4.85907 -0.784531 0
M  V30 3891 N 357.7 0.491464 1.49741 0
M  V30 3892 C 358.977 -0.118984 1.95238 0
M  V30 3893 C 359.357 -1.55044 1.43264 0
M  V30 3894 O 358.705 -2.19287 0.642287 0
M  V30 3895 C 358.915 -0.0414187 3.48975 0
M  V30 3896 C 360.263 -0.220133 4.24029 0
M  V30 3897 O 361.287 -0.117055 3.56008 0
M  V30 3898 O 360.146 -0.430567 5.44801 0
M  V30 3899 H 357.24 -0.100536 0.820866 0
M  V30 3900 H 359.786 0.553322 1.60426 0
M  V30 3901 H 358.558 0.957214 3.79412 0
M  V30 3902 H 358.181 -0.754292 3.9038 0
M  V30 3903 N 359.178 -1.55987 0.224894 0
M  V30 3904 C 360.427 -1.97566 -0.406273 0
M  V30 3905 C 360.74 -1.11569 -1.6066 0
M  V30 3906 O 361.946 -1.43062 -2.3075 0
M  V30 3907 C 360.402 -3.51474 -0.774207 0
M  V30 3908 C 360.01 -4.46179 0.403496 0
M  V30 3909 C 361.754 -4.01758 -1.37079 0
M  V30 3910 C 359.661 -5.91399 0.0129412 0
M  V30 3911 H 358.591 -0.737777 -0.155565 0
M  V30 3912 H 361.242 -1.80659 0.321635 0
M  V30 3913 H 359.624 -3.63994 -1.55963 0
M  V30 3914 H 360.798 -4.45409 1.18101 0
M  V30 3915 H 359.113 -4.06255 0.913536 0
M  V30 3916 H 361.71 -5.07756 -1.67596 0
M  V30 3917 H 362.053 -3.47805 -2.28773 0
M  V30 3918 H 362.586 -3.92475 -0.648733 0
M  V30 3919 H 359.325 -6.49341 0.896451 0
M  V30 3920 H 358.845 -5.95356 -0.728821 0
M  V30 3921 H 360.524 -6.45683 -0.412582 0
M  V30 3922 N 360.656 0.0484629 -1.57525 0
M  V30 3923 C 361.586 1.0549 -2.08313 0
M  V30 3924 C 362.567 1.38929 -0.981463 0
M  V30 3925 O 363.752 1.48151 -1.25558 0
M  V30 3926 C 360.882 2.36162 -2.54646 0
M  V30 3927 C 359.836 2.17016 -3.68901 0
M  V30 3928 C 359.162 3.53278 -4.01371 0
M  V30 3929 C 360.462 1.57219 -4.98076 0
M  V30 3930 H 362.156 0.632195 -2.92649 0
M  V30 3931 H 359.702 0.302654 -1.40784 0
M  V30 3932 H 361.655 3.06882 -2.88793 0
M  V30 3933 H 360.379 2.80456 -1.67368 0
M  V30 3934 H 359.038 1.48733 -3.35073 0
M  V30 3935 H 358.686 3.95185 -3.11188 0
M  V30 3936 H 358.386 3.41299 -4.78318 0
M  V30 3937 H 359.91 4.25391 -4.38035 0
M  V30 3938 H 361.324 2.17832 -5.30304 0
M  V30 3939 H 359.721 1.55871 -5.79503 0
M  V30 3940 H 360.791 0.535956 -4.81929 0
M  V30 3941 N 362.134 1.5431 0.320358 0
M  V30 3942 C 363.55 1.45091 0.664889 0
M  V30 3943 C 363.75 0.626382 1.91517 0
M  V30 3944 O 362.806 0.126443 2.52183 0
M  V30 3945 C 364.119 2.88848 0.83591 0
M  V30 3946 C 365.667 2.9877 0.933046 0
M  V30 3947 C 366.142 4.43683 1.13621 0
M  V30 3948 N 367.633 4.47309 1.20287 0
M  V30 3949 C 368.368 5.56595 1.37801 0
M  V30 3950 N 367.864 6.75844 1.52338 0
M  V30 3951 N 369.657 5.44248 1.40535 0
M  V30 3952 H 361.808 2.06398 -0.501374 0
M  V30 3953 H 364.071 0.933963 -0.162534 0
M  V30 3954 H 363.777 3.51698 -0.0116092 0
M  V30 3955 H 363.651 3.35148 1.73078 0
M  V30 3956 H 366.038 2.36045 1.77107 0
M  V30 3957 H 366.119 2.55796 0.0145782 0
M  V30 3958 H 365.763 5.06995 0.303032 0
M  V30 3959 H 365.693 4.84269 2.0686 0
M  V30 3960 H 368.184 3.61388 1.10485 0
M  V30 3961 H 368.497 7.54892 1.65403 0
M  V30 3962 H 366.842 6.78746 1.4943 0
M  V30 3963 H 370.033 4.50038 1.28777 0
M  V30 3964 H 370.206 6.29473 1.53842 0
M  V30 3965 N 363.613 -0.582584 1.46437 0
M  V30 3966 C 365.029 -0.905962 1.31394 0
M  V30 3967 C 365.229 -1.99468 0.285476 0
M  V30 3968 O 364.285 -2.50566 -0.311914 0
M  V30 3969 C 365.598 -1.3232 2.70022 0
M  V30 3970 C 367.146 -1.43604 2.78113 0
M  V30 3971 C 367.621 -1.88694 4.17323 0
M  V30 3972 N 369.112 -1.95887 4.19741 0
M  V30 3973 C 369.847 -2.32051 5.24347 0
M  V30 3974 N 369.343 -2.67006 6.39281 0
M  V30 3975 N 371.136 -2.32606 5.11713 0
M  V30 3976 H 363.287 0.1366 2.1196 0
M  V30 3977 H 365.55 -0.00155736 0.947999 0
M  V30 3978 H 365.256 -0.597242 3.46592 0
M  V30 3979 H 365.13 -2.28469 3.00136 0
M  V30 3980 H 367.517 -2.15286 2.01832 0
M  V30 3981 H 367.598 -0.457059 2.51684 0
M  V30 3982 H 367.242 -1.1759 4.941 0
M  V30 3983 H 367.172 -2.8755 4.4116 0
M  V30 3984 H 369.663 -1.71362 3.36814 0
M  V30 3985 H 369.976 -2.93554 7.14875 0
M  V30 3986 H 368.321 -2.64644 6.42642 0
M  V30 3987 H 371.512 -2.04721 4.2096 0
M  V30 3988 H 371.685 -2.60462 5.93349 0
M  V30 3989 N 365.091 -1.34144 -0.827227 0
M  V30 3990 C 366.338 -1.26258 -1.58319 0
M  V30 3991 C 366.666 0.168595 -1.93768 0
M  V30 3992 O 365.921 1.12877 -1.59866 0
M  V30 3993 C 366.22 -2.09464 -2.89585 0
M  V30 3994 C 365.886 -3.58521 -2.73448 0
M  V30 3995 C 364.548 -3.99155 -2.68754 0
M  V30 3996 C 366.9 -4.53189 -2.57428 0
M  V30 3997 C 364.228 -5.32656 -2.45957 0
M  V30 3998 C 366.58 -5.86864 -2.36163 0
M  V30 3999 C 365.244 -6.26667 -2.29879 0
M  V30 4000 H 364.514 -0.462013 -0.579332 0
M  V30 4001 H 367.161 -1.65845 -0.95748 0
M  V30 4002 H 365.466 -1.62692 -3.56425 0
M  V30 4003 H 367.163 -2.00712 -3.47154 0
M  V30 4004 H 363.753 -3.26264 -2.77939 0
M  V30 4005 H 367.937 -4.22696 -2.60081 0
M  V30 4006 H 363.193 -5.62519 -2.39546 0
M  V30 4007 H 367.367 -6.59813 -2.22754 0
M  V30 4008 H 364.994 -7.30049 -2.11975 0
M  V30 4009 N 366.569 1.04691 -1.17803 0
M  V30 4010 C 367.815 1.78045 -0.970969 0
M  V30 4011 C 368.148 1.87686 0.498751 0
M  V30 4012 O 367.423 1.38035 1.37027 0
M  V30 4013 C 367.706 3.2166 -1.61884 0
M  V30 4014 C 367.559 3.20001 -3.161 0
M  V30 4015 C 368.878 4.1962 -1.3269 0
M  V30 4016 H 365.997 0.64633 -0.354155 0
M  V30 4017 H 368.639 1.22333 -1.45378 0
M  V30 4018 H 366.789 3.69232 -1.20831 0
M  V30 4019 H 368.461 2.80467 -3.66246 0
M  V30 4020 H 366.704 2.58203 -3.48588 0
M  V30 4021 H 367.375 4.21386 -3.56564 0
M  V30 4022 H 369.851 3.80567 -1.68249 0
M  V30 4023 H 368.727 5.18339 -1.80599 0
M  V30 4024 H 368.988 4.414 -0.248622 0
M  V30 4025 N 368.047 0.979072 1.23499 0
M  V30 4026 C 369.458 0.684391 1.73704 0
M  V30 4027 C 369.809 -0.799448 1.79174 0
M  V30 4028 O 368.934 -1.62531 1.42873 0
M  V30 4029 C 369.529 1.23564 3.15464 0
M  V30 4030 C 368.088 0.99063 3.6313 0
M  V30 4031 C 367.235 1.36416 2.41425 0
M  V30 4032 H 370.186 1.15307 1.09041 0
M  V30 4033 H 370.207 0.607417 3.7562 0
M  V30 4034 H 369.719 2.31561 3.1145 0
M  V30 4035 H 367.82 -0.0733136 3.72528 0
M  V30 4036 H 367.933 1.64427 4.5 0
M  V30 4037 H 366.297 0.782616 2.42378 0
M  V30 4038 H 367.08 2.45387 2.40083 0
M  V30 4039 N 369.525 -1.3858 0.750561 0
M  V30 4040 C 370.455 -2.33102 0.136237 0
M  V30 4041 C 371.436 -1.54713 -0.706965 0
M  V30 4042 O 372.621 -1.83043 -0.648769 0
M  V30 4043 C 369.751 -3.38882 -0.760017 0
M  V30 4044 C 368.705 -4.27995 -0.0197785 0
M  V30 4045 C 368.031 -5.24605 -1.03408 0
M  V30 4046 C 369.331 -5.09554 1.14684 0
M  V30 4047 H 371.025 -2.84726 0.925822 0
M  V30 4048 H 368.571 -1.36898 0.446654 0
M  V30 4049 H 370.524 -4.0397 -1.19943 0
M  V30 4050 H 369.248 -2.85734 -1.58189 0
M  V30 4051 H 367.907 -3.64409 0.400184 0
M  V30 4052 H 367.555 -4.67746 -1.84994 0
M  V30 4053 H 367.255 -5.85081 -0.543464 0
M  V30 4054 H 368.779 -5.9257 -1.47288 0
M  V30 4055 H 370.193 -5.67899 0.785118 0
M  V30 4056 H 368.59 -5.7925 1.56812 0
M  V30 4057 H 369.66 -4.4347 1.96118 0
M  V30 4058 N 371.003 -0.499398 -1.49478 0
M  V30 4059 C 371.933 0.269244 -2.31943 0
M  V30 4060 C 372.914 0.964054 -1.40143 0
M  V30 4061 O 374.099 0.955767 -1.69052 0
M  V30 4062 C 371.229 1.33504 -3.20615 0
M  V30 4063 C 370.183 0.760202 -4.21195 0
M  V30 4064 C 369.509 1.9264 -4.98792 0
M  V30 4065 C 370.809 -0.247661 -5.21712 0
M  V30 4066 H 372.503 -0.419082 -2.96452 0
M  V30 4067 H 370.049 -0.202988 -1.42562 0
M  V30 4068 H 372.002 1.88048 -3.77115 0
M  V30 4069 H 370.726 2.05253 -2.54045 0
M  V30 4070 H 369.385 0.23653 -3.65836 0
M  V30 4071 H 369.033 2.63154 -4.28671 0
M  V30 4072 H 368.733 1.54785 -5.66847 0
M  V30 4073 H 370.257 2.4762 -5.58137 0
M  V30 4074 H 371.671 0.209579 -5.72917 0
M  V30 4075 H 370.068 -0.541962 -5.97648 0
M  V30 4076 H 371.138 -1.16409 -4.7072 0
M  V30 4077 N 372.481 1.55866 -0.233164 0
M  V30 4078 C 373.428 2.20796 0.67215 0
M  V30 4079 C 374.398 1.16731 1.18166 0
M  V30 4080 O 375.583 1.45129 1.23864 0
M  V30 4081 C 372.723 2.90072 1.86955 0
M  V30 4082 C 371.836 4.08759 1.39786 0
M  V30 4083 C 370.971 4.65787 2.55374 0
M  V30 4084 C 370.01 5.76752 2.04998 0
M  V30 4085 N 369.147 6.28021 3.13901 0
M  V30 4086 H 373.987 2.9779 0.111749 0
M  V30 4087 H 371.524 1.47036 0.0434007 0
M  V30 4088 H 373.482 3.28428 2.57276 0
M  V30 4089 H 372.112 2.15575 2.40265 0
M  V30 4090 H 371.164 3.7581 0.589173 0
M  V30 4091 H 372.476 4.88906 0.98856 0
M  V30 4092 H 371.63 5.06646 3.33758 0
M  V30 4093 H 370.369 3.84828 2.99598 0
M  V30 4094 H 369.374 5.35383 1.25079 0
M  V30 4095 H 370.599 6.59553 1.61759 0
M  V30 4096 H 368.545 5.49971 3.57586 0
M  V30 4097 H 368.462 7.03323 2.7726 0
M  V30 4098 H 369.73 6.73538 3.92386 0
M  V30 4099 N 373.959 -0.0401083 1.57549 0
M  V30 4100 C 375.37 -0.588097 1.77196 0
M  V30 4101 C 375.721 -1.76209 0.862832 0
M  V30 4102 O 374.846 -2.16331 0.0548389 0
M  V30 4103 C 375.441 -1.07363 3.21339 0
M  V30 4104 C 374 -1.56723 3.42221 0
M  V30 4105 C 373.147 -0.50041 2.72747 0
M  V30 4106 H 376.098 0.186119 1.57605 0
M  V30 4107 H 376.119 -1.94143 3.27244 0
M  V30 4108 H 375.631 -0.218975 3.87482 0
M  V30 4109 H 373.732 -2.4441 2.81237 0
M  V30 4110 H 373.845 -1.62234 4.50796 0
M  V30 4111 H 372.209 -0.952894 2.36203 0
M  V30 4112 H 372.992 0.344599 3.41566 0
M  V30 4113 N 375.437 -1.54477 -0.31217 0
M  V30 4114 C 376.714 -1.63891 -1.06767 0
M  V30 4115 C 377.094 -0.480028 -2.0557 0
M  V30 4116 O 376.442 0.524487 -2.22399 0
M  V30 4117 C 376.652 -3.01402 -1.75948 0
M  V30 4118 C 378 -3.57838 -2.28554 0
M  V30 4119 O 379.024 -3.03782 -1.85998 0
M  V30 4120 O 377.883 -4.52462 -3.06497 0
M  V30 4121 H 374.977 -0.664125 -0.492816 0
M  V30 4122 H 377.523 -1.66823 -0.311149 0
M  V30 4123 H 376.295 -3.77187 -1.04144 0
M  V30 4124 H 375.918 -3.02199 -2.58383 0
M  V30 4125 N 376.915 0.57481 -1.46744 0
M  V30 4126 C 378.163 1.33009 -1.52161 0
M  V30 4127 C 378.484 1.94185 -0.178092 0
M  V30 4128 O 377.754 1.7899 0.796196 0
M  V30 4129 H 376.334 0.493873 -0.560445 0
M  V30 4130 H 378.996 0.672589 -1.82927 0
M  V30 4131 H 378.092 2.13273 -2.27862 0
M  V30 4132 N 378.394 1.34581 0.820102 0
M  V30 4133 C 379.324 1.29038 1.94606 0
M  V30 4134 C 380.305 0.1673 1.69275 0
M  V30 4135 O 381.49 0.360112 1.90832 0
M  V30 4136 C 378.62 1.04793 3.31113 0
M  V30 4137 C 377.574 2.13597 3.70891 0
M  V30 4138 C 376.9 1.74537 5.05412 0
M  V30 4139 C 378.2 3.55451 3.8269 0
M  V30 4140 H 379.894 2.23248 1.99501 0
M  V30 4141 H 377.44 1.0747 0.958449 0
M  V30 4142 H 379.393 0.995592 4.0947 0
M  V30 4143 H 378.117 0.0702565 3.26524 0
M  V30 4144 H 376.776 2.17905 2.9481 0
M  V30 4145 H 376.424 0.754226 4.97313 0
M  V30 4146 H 376.124 2.47361 5.32997 0
M  V30 4147 H 377.648 1.70803 5.86224 0
M  V30 4148 H 379.062 3.5354 4.51312 0
M  V30 4149 H 377.459 4.26922 4.21732 0
M  V30 4150 H 378.529 3.92587 2.84611 0
M  V30 4151 N 379.872 -1.04064 1.18357 0
M  V30 4152 C 380.802 -2.14001 0.934113 0
M  V30 4153 C 381.783 -1.69616 -0.128186 0
M  V30 4154 O 382.968 -1.94185 0.0244093 0
M  V30 4155 C 380.098 -3.44253 0.459066 0
M  V30 4156 C 379.052 -4.02261 1.46185 0
M  V30 4157 C 378.378 -5.27992 0.844322 0
M  V30 4158 C 379.678 -4.38432 2.83856 0
M  V30 4159 H 381.372 -2.35127 1.85352 0
M  V30 4160 H 378.918 -1.12998 0.892604 0
M  V30 4161 H 380.871 -4.20522 0.271907 0
M  V30 4162 H 379.595 -3.22813 -0.495912 0
M  V30 4163 H 378.254 -3.28074 1.63595 0
M  V30 4164 H 377.902 -5.02862 -0.117845 0
M  V30 4165 H 377.602 -5.67765 1.51384 0
M  V30 4166 H 379.126 -6.06938 0.667693 0
M  V30 4167 H 380.54 -5.05688 2.70098 0
M  V30 4168 H 378.937 -4.89254 3.47491 0
M  V30 4169 H 380.007 -3.4826 3.37406 0
M  V30 4170 N 381.35 -0.985608 -1.22978 0
M  V30 4171 C 382.597 -0.657386 -1.91532 0
M  V30 4172 C 382.925 0.809707 -1.76845 0
M  V30 4173 O 382.18 1.60021 -1.12658 0
M  V30 4174 C 382.479 -1.00014 -3.43121 0
M  V30 4175 C 382.145 -2.4583 -3.77993 0
M  V30 4176 C 380.807 -2.85679 -3.87222 0
M  V30 4177 C 383.159 -3.40378 -3.94705 0
M  V30 4178 C 380.487 -4.19081 -4.10595 0
M  V30 4179 C 382.839 -4.73429 -4.1958 0
M  V30 4180 C 381.503 -5.1303 -4.27032 0
M  V30 4181 H 380.773 -0.240555 -0.700867 0
M  V30 4182 H 383.42 -1.24044 -1.45895 0
M  V30 4183 H 381.725 -0.335072 -3.90365 0
M  V30 4184 H 383.422 -0.724322 -3.94404 0
M  V30 4185 H 380.012 -2.13939 -3.71387 0
M  V30 4186 H 384.196 -3.10766 -3.8696 0
M  V30 4187 H 379.452 -4.49362 -4.14589 0
M  V30 4188 H 383.626 -5.46644 -4.31455 0
M  V30 4189 H 381.253 -6.16418 -4.44896 0
M  V30 4190 N 382.828 1.3818 -0.7579 0
M  V30 4191 C 383.791 2.28764 -0.141286 0
M  V30 4192 C 384.791 1.47388 0.642907 0
M  V30 4193 O 385.981 1.67781 0.468536 0
M  V30 4194 C 383.113 3.31184 0.808069 0
M  V30 4195 H 384.306 2.848 -0.939633 0
M  V30 4196 H 381.859 1.47212 -0.525191 0
M  V30 4197 H 382.594 2.80247 1.63193 0
M  V30 4198 H 382.379 3.91314 0.248104 0
M  V30 4199 H 383.869 3.98909 1.23536 0
M  V30 4200 N 384.306 0.507319 1.49211 0
M  V30 4201 C 385.554 -0.0348839 2.0207 0
M  V30 4202 C 385.875 -1.36898 1.38866 0
M  V30 4203 O 385.145 -1.88133 0.546151 0
M  V30 4204 H 383.725 -0.0158812 0.746831 0
M  V30 4205 H 386.387 0.665998 1.83168 0
M  V30 4206 H 385.483 -0.159917 3.1169 0
M  V30 4207 N 385.784 -1.5574 0.241426 0
M  V30 4208 C 386.734 -2.17803 -0.674233 0
M  V30 4209 C 387.718 -1.13225 -1.14319 0
M  V30 4210 O 388.91 -1.39153 -1.09387 0
M  V30 4211 C 386.039 -2.87682 -1.87333 0
M  V30 4212 C 385.125 -3.99509 -1.42313 0
M  V30 4213 N 385.516 -5.01115 -0.686798 0
M  V30 4214 C 383.814 -4.11964 -1.70885 0
M  V30 4215 C 384.515 -5.79922 -0.454456 0
M  V30 4216 N 383.491 -5.34001 -1.01705 0
M  V30 4217 H 387.293 -2.93718 -0.103447 0
M  V30 4218 H 384.807 -1.62342 0.0435095 0
M  V30 4219 H 386.804 -3.3057 -2.54026 0
M  V30 4220 H 385.464 -2.13269 -2.4484 0
M  V30 4221 H 386.475 -5.16799 -0.337459 0
M  V30 4222 H 383.152 -3.48718 -2.2957 0
M  V30 4223 H 384.542 -6.71768 0.132992 0
M  V30 4224 N 387.262 0.0317525 -1.57568 0
M  V30 4225 C 388.487 0.738664 -1.938 0
M  V30 4226 C 388.912 1.68242 -0.841208 0
M  V30 4227 O 388.27 1.80157 0.203267 0
M  V30 4228 C 388.318 1.47417 -3.29091 0
M  V30 4229 O 387.422 2.5872 -3.2115 0
M  V30 4230 H 386.763 0.198856 -0.633524 0
M  V30 4231 H 389.293 -0.0119713 -2.04596 0
M  V30 4232 H 389.303 1.84468 -3.63917 0
M  V30 4233 H 387.978 0.781988 -4.08482 0
M  V30 4234 H 386.555 2.24231 -2.97951 0
M  V30 4235 N 388.74 1.54641 0.303973 0
M  V30 4236 C 389.65 1.88439 1.39743 0
M  V30 4237 C 390.666 0.778239 1.55626 0
M  V30 4238 O 391.842 1.07442 1.70347 0
M  V30 4239 C 388.907 2.12212 2.74166 0
M  V30 4240 C 387.968 3.35936 2.67293 0
M  V30 4241 C 387.201 3.58566 3.95305 0
M  V30 4242 O 387.424 2.84263 4.9452 0
M  V30 4243 O 386.358 4.52078 3.97378 0
M  V30 4244 H 390.184 2.81458 1.14083 0
M  V30 4245 H 387.769 1.40793 0.499768 0
M  V30 4246 H 389.651 2.29067 3.53704 0
M  V30 4247 H 388.326 1.22379 2.99675 0
M  V30 4248 H 387.233 3.24448 1.86237 0
M  V30 4249 H 388.566 4.2589 2.46736 0
M  V30 4250 N 390.218 -0.567019 1.47046 0
M  V30 4251 C 391.166 -1.69593 1.59188 0
M  V30 4252 C 392.16 -1.63046 0.459609 0
M  V30 4253 O 393.366 -1.6835 0.637058 0
M  V30 4254 H 389.741 -0.560993 0.500791 0
M  V30 4255 H 391.712 -1.56488 2.54075 0
M  V30 4256 C 390.461 -3.07964 1.61411 0
M  V30 4257 H 389.784 -3.13679 2.47881 0
M  V30 4258 H 391.224 -3.86671 1.73958 0
M  V30 4259 C 389.683 -3.35123 0.34559 0
M  V30 4260 O 390.213 -3.97812 -0.557521 0
M  V30 4261 N 388.419 -2.89699 0.22864 0
M  V30 4262 H 387.966 -2.38863 0.964479 0
M  V30 4263 H 387.924 -3.08242 -0.619192 0
M  V30 4264 N 391.696 -1.35014 -0.812953 0
M  V30 4265 C 392.943 -1.27931 -1.56971 0
M  V30 4266 C 393.271 0.148034 -1.93936 0
M  V30 4267 O 392.526 1.11175 -1.61054 0
M  V30 4268 C 392.825 -2.12524 -2.87347 0
M  V30 4269 C 392.491 -3.61401 -2.6963 0
M  V30 4270 C 391.153 -4.01983 -2.64506 0
M  V30 4271 C 393.505 -4.55894 -2.52607 0
M  V30 4272 C 390.833 -5.35235 -2.40293 0
M  V30 4273 C 393.185 -5.89336 -2.29925 0
M  V30 4274 C 391.849 -6.2907 -2.23219 0
M  V30 4275 H 391.119 -0.468131 -0.574399 0
M  V30 4276 H 393.766 -1.66851 -0.939836 0
M  V30 4277 H 392.071 -1.66463 -3.54679 0
M  V30 4278 H 393.768 -2.04383 -3.45005 0
M  V30 4279 H 390.358 -3.29193 -2.74463 0
M  V30 4280 H 394.542 -4.25431 -2.55583 0
M  V30 4281 H 389.798 -5.65028 -2.33566 0
M  V30 4282 H 393.972 -6.62139 -2.15743 0
M  V30 4283 H 391.599 -7.32256 -2.04219 0
M  V30 4284 N 393.175 1.03435 -1.18907 0
M  V30 4285 C 394.4 1.80919 -1.01406 0
M  V30 4286 C 394.825 1.83055 0.432721 0
M  V30 4287 O 394.183 1.25252 1.31079 0
M  V30 4288 C 394.231 3.24091 -1.58105 0
M  V30 4289 O 393.335 4.04434 -0.806669 0
M  V30 4290 H 392.676 0.558709 -0.358803 0
M  V30 4291 H 395.206 1.30223 -1.57807 0
M  V30 4292 H 395.216 3.74853 -1.61087 0
M  V30 4293 H 393.891 3.21851 -2.6341 0
M  V30 4294 H 392.468 3.63091 -0.849666 0
M  V30 4295 N 394.653 0.992116 1.22453 0
M  V30 4296 C 395.601 0.534644 2.26372 0
M  V30 4297 C 396.595 -0.414293 1.64256 0
M  V30 4298 O 397.801 -0.286899 1.77699 0
M  V30 4299 H 394.176 0.154502 0.735957 0
M  V30 4300 H 396.147 1.42256 2.62309 0
M  V30 4301 C 394.896 -0.135815 3.47435 0
M  V30 4302 H 394.219 0.585311 3.95492 0
M  V30 4303 H 395.659 -0.419374 4.21921 0
M  V30 4304 C 394.118 -1.37089 3.07747 0
M  V30 4305 O 394.648 -2.46629 3.17076 0
M  V30 4306 N 392.854 -1.24585 2.62539 0
M  V30 4307 H 392.401 -0.354542 2.55149 0
M  V30 4308 H 392.359 -2.07327 2.36353 0
M  V30 4309 N 396.131 -1.37776 0.765217 0
M  V30 4310 C 397.061 -2.32945 0.160953 0
M  V30 4311 C 398.042 -1.55454 -0.690516 0
M  V30 4312 O 399.227 -1.83721 -0.629318 0
M  V30 4313 C 396.357 -3.39669 -0.724031 0
M  V30 4314 C 395.311 -4.27992 0.0256173 0
M  V30 4315 C 394.637 -5.25673 -0.978383 0
M  V30 4316 C 395.937 -5.08309 1.20082 0
M  V30 4317 H 397.631 -2.83728 0.955969 0
M  V30 4318 H 395.177 -1.36416 0.461149 0
M  V30 4319 H 397.13 -4.05219 -1.15652 0
M  V30 4320 H 395.854 -2.87396 -1.5515 0
M  V30 4321 H 394.513 -3.63964 0.438812 0
M  V30 4322 H 394.161 -4.69682 -1.80022 0
M  V30 4323 H 393.861 -5.85625 -0.481378 0
M  V30 4324 H 395.385 -5.94098 -1.40995 0
M  V30 4325 H 396.799 -5.67034 0.845307 0
M  V30 4326 H 395.196 -5.77554 1.62947 0
M  V30 4327 H 396.266 -4.41365 2.00811 0
M  V30 4328 N 397.609 -0.515225 -1.4894 0
M  V30 4329 C 398.855 0.0242508 -2.02785 0
M  V30 4330 C 399.188 1.35323 -1.39289 0
M  V30 4331 O 398.463 1.87041 -0.533469 0
M  V30 4332 C 398.746 0.16184 -3.59736 0
M  V30 4333 C 398.599 -1.19127 -4.33738 0
M  V30 4334 C 399.918 0.895719 -4.30888 0
M  V30 4335 H 397.037 0.00733914 -0.736963 0
M  V30 4336 H 399.679 -0.669395 -1.77818 0
M  V30 4337 H 397.829 0.752624 -3.8114 0
M  V30 4338 H 399.501 -1.82202 -4.23792 0
M  V30 4339 H 397.744 -1.77695 -3.95736 0
M  V30 4340 H 398.415 -1.04815 -5.41957 0
M  V30 4341 H 400.891 0.394528 -4.14225 0
M  V30 4342 H 399.767 0.960859 -5.40425 0
M  V30 4343 H 400.028 1.9427 -3.97129 0
M  V30 4344 N 399.087 1.5561 -0.249682 0
M  V30 4345 C 400.503 1.59254 0.105103 0
M  V30 4346 C 400.703 1.26685 1.56694 0
M  V30 4347 O 399.759 1.0155 2.31179 0
M  V30 4348 C 401.072 2.99687 -0.246592 0
M  V30 4349 C 402.62 3.12416 -0.191118 0
M  V30 4350 C 403.095 4.55074 -0.516885 0
M  V30 4351 N 404.586 4.60835 -0.467489 0
M  V30 4352 C 405.321 5.69201 -0.69268 0
M  V30 4353 N 404.817 6.85817 -0.981146 0
M  V30 4354 N 406.61 5.58635 -0.623198 0
M  V30 4355 H 398.761 1.75049 -1.20298 0
M  V30 4356 H 401.024 0.815003 -0.484225 0
M  V30 4357 H 400.73 3.28267 -1.26228 0
M  V30 4358 H 400.604 3.74798 0.424962 0
M  V30 4359 H 402.991 2.83615 0.815247 0
M  V30 4360 H 403.072 2.39573 -0.896563 0
M  V30 4361 H 402.716 4.84596 -1.52082 0
M  V30 4362 H 402.646 5.26181 0.210068 0
M  V30 4363 H 405.137 3.7705 -0.253373 0
M  V30 4364 H 405.45 7.64341 -1.14032 0
M  V30 4365 H 403.795 6.87494 -1.01865 0
M  V30 4366 H 406.986 4.66406 -0.397863 0
M  V30 4367 H 407.159 6.43017 -0.802093 0
M  V30 4368 N 400.565 -0.0233959 1.57583 0
M  V30 4369 C 401.475 -1.03907 2.10334 0
M  V30 4370 C 402.491 -1.39257 1.04323 0
M  V30 4371 O 403.667 -1.48462 1.36091 0
M  V30 4372 C 400.732 -2.31938 2.57693 0
M  V30 4373 C 399.793 -2.03117 3.78209 0
M  V30 4374 C 399.026 -3.25043 4.233 0
M  V30 4375 O 399.249 -4.35916 3.67876 0
M  V30 4376 O 398.183 -3.10411 5.15683 0
M  V30 4377 H 402.009 -0.620748 2.97288 0
M  V30 4378 H 399.594 -0.240743 1.47448 0
M  V30 4379 H 401.476 -3.07196 2.88458 0
M  V30 4380 H 400.151 -2.73055 1.73847 0
M  V30 4381 H 399.058 -1.25408 3.52454 0
M  V30 4382 H 400.391 -1.66852 4.63056 0
M  V30 4383 N 402.043 -1.548 -0.295768 0
M  V30 4384 C 403.29 -1.74329 -1.03032 0
M  V30 4385 C 403.618 -0.531915 -1.87085 0
M  V30 4386 O 402.873 0.486052 -1.89568 0
M  V30 4387 C 403.172 -2.98797 -1.961 0
M  V30 4388 C 402.838 -4.32356 -1.2798 0
M  V30 4389 C 401.5 -4.68661 -1.09135 0
M  V30 4390 C 403.852 -5.15128 -0.793243 0
M  V30 4391 C 401.18 -5.85312 -0.403269 0
M  V30 4392 C 403.532 -6.32488 -0.118854 0
M  V30 4393 C 402.196 -6.6745 0.0815043 0
M  V30 4394 H 401.466 -0.637916 -0.37702 0
M  V30 4395 H 404.113 -1.8906 -0.304696 0
M  V30 4396 H 402.418 -2.78869 -2.75207 0
M  V30 4397 H 404.115 -3.11102 -2.53015 0
M  V30 4398 H 400.705 -4.03808 -1.43655 0
M  V30 4399 H 404.889 -4.87575 -0.92653 0
M  V30 4400 H 400.145 -6.1094 -0.237098 0
M  V30 4401 H 404.319 -6.95892 0.266035 0
M  V30 4402 H 401.946 -7.57695 0.616685 0
M  V30 4403 N 403.521 0.559213 -1.47345 0
M  V30 4404 C 404.746 1.34676 -1.57725 0
M  V30 4405 C 405.171 1.86723 -0.227164 0
M  V30 4406 O 404.529 1.6286 0.796642 0
M  V30 4407 C 404.577 2.49399 -2.60447 0
M  V30 4408 O 403.681 3.51567 -2.15578 0
M  V30 4409 H 403.022 0.400115 -0.52991 0
M  V30 4410 H 405.552 0.676009 -1.93109 0
M  V30 4411 H 405.562 2.95996 -2.80803 0
M  V30 4412 H 404.237 2.10873 -3.58477 0
M  V30 4413 H 402.814 3.11289 -2.05313 0
M  V30 4414 N 404.999 1.35443 0.805782 0
M  V30 4415 C 405.929 1.31095 1.93226 0
M  V30 4416 C 406.91 0.185244 1.69088 0
M  V30 4417 O 408.095 0.380332 1.90439 0
M  V30 4418 C 405.225 1.08299 3.29983 0
M  V30 4419 C 404.179 2.17519 3.68605 0
M  V30 4420 C 403.505 1.79887 5.03532 0
M  V30 4421 C 404.805 3.5949 3.78898 0
M  V30 4422 H 406.499 2.25352 1.97122 0
M  V30 4423 H 404.045 1.0848 0.946996 0
M  V30 4424 H 405.998 1.03897 4.08391 0
M  V30 4425 H 404.722 0.104885 3.26432 0
M  V30 4426 H 403.381 2.2102 2.92482 0
M  V30 4427 H 403.029 0.80693 4.96485 0
M  V30 4428 H 402.729 2.53001 5.30344 0
M  V30 4429 H 404.253 1.77011 5.84379 0
M  V30 4430 H 405.667 3.58307 4.47536 0
M  V30 4431 H 404.064 4.31371 4.1718 0
M  V30 4432 H 405.134 3.95584 2.80431 0
M  V30 4433 N 406.477 -1.02803 1.19454 0
M  V30 4434 C 407.893 -1.28473 0.946937 0
M  V30 4435 C 408.093 -1.97881 -0.380202 0
M  V30 4436 O 407.149 -2.26719 -1.11151 0
M  V30 4437 C 408.462 -2.13099 2.12154 0
M  V30 4438 C 410.01 -2.26404 2.16126 0
M  V30 4439 C 410.485 -3.14402 3.33039 0
M  V30 4440 N 411.976 -3.21991 3.32981 0
M  V30 4441 C 412.711 -3.90272 4.20089 0
M  V30 4442 N 412.207 -4.60777 5.17355 0
M  V30 4443 N 414 -3.8668 4.07964 0
M  V30 4444 H 406.151 -0.561665 2.04839 0
M  V30 4445 H 408.414 -0.310438 0.89573 0
M  V30 4446 H 408.12 -1.69422 3.08203 0
M  V30 4447 H 407.994 -3.13813 2.09287 0
M  V30 4448 H 410.381 -2.69311 1.20647 0
M  V30 4449 H 410.462 -1.25237 2.23045 0
M  V30 4450 H 410.106 -2.72204 4.28798 0
M  V30 4451 H 410.036 -4.1563 3.23356 0
M  V30 4452 H 412.527 -2.71778 2.62574 0
M  V30 4453 H 412.84 -5.10513 5.80169 0
M  V30 4454 H 411.185 -4.5964 5.21302 0
M  V30 4455 H 414.376 -3.30739 3.31254 0
M  V30 4456 H 414.549 -4.39621 4.76064 0
M  V30 4457 N 407.956 -0.998596 -1.21925 0
M  V30 4458 C 409.204 -0.676325 -1.90448 0
M  V30 4459 C 409.525 0.794719 -1.78071 0
M  V30 4460 O 408.795 1.5701 -1.17152 0
M  V30 4461 H 407.375 -0.247165 -0.704925 0
M  V30 4462 H 410.037 -1.26633 -1.48156 0
M  V30 4463 H 409.133 -0.943858 -2.97486 0
M  V30 4464 N 409.434 1.37368 -0.772513 0
M  V30 4465 C 410.366 2.28899 -0.117502 0
M  V30 4466 C 411.379 1.4867 0.663405 0
M  V30 4467 O 412.568 1.71314 0.501372 0
M  V30 4468 C 409.668 3.2788 0.857192 0
M  V30 4469 C 408.841 4.37207 0.129938 0
M  V30 4470 C 407.9 5.16257 1.01811 0
M  V30 4471 O 406.926 5.67159 0.481601 0
M  V30 4472 N 408.128 5.31058 2.3443 0
M  V30 4473 H 410.893 2.85752 -0.903662 0
M  V30 4474 H 408.454 1.49353 -0.62493 0
M  V30 4475 H 410.446 3.77647 1.45482 0
M  V30 4476 H 409.016 2.7179 1.54432 0
M  V30 4477 H 408.236 3.88827 -0.648605 0
M  V30 4478 H 409.524 5.07434 -0.372559 0
M  V30 4479 H 408.922 4.91287 2.80452 0
M  V30 4480 H 407.479 5.84131 2.89197 0
M  V30 4481 N 410.912 0.523116 1.48665 0
M  V30 4482 C 412.14 -0.0096312 2.06898 0
M  V30 4483 C 412.555 -1.28784 1.38059 0
M  V30 4484 O 411.912 -1.76453 0.465893 0
M  V30 4485 C 411.963 -0.244386 3.60673 0
M  V30 4486 O 411.684 0.983172 4.26925 0
M  V30 4487 C 413.185 -0.818289 4.35682 0
M  V30 4488 H 410.405 0.0304161 0.67031 0
M  V30 4489 H 412.949 0.726799 1.91149 0
M  V30 4490 H 411.104 -0.930847 3.76051 0
M  V30 4491 H 411.518 0.759653 5.1897 0
M  V30 4492 H 412.992 -0.93201 5.44075 0
M  V30 4493 H 413.469 -1.82153 3.99646 0
M  V30 4494 H 414.075 -0.168609 4.24966 0
M  V30 4495 N 412.39 -1.55475 0.257931 0
M  V30 4496 C 413.636 -1.99502 -0.364266 0
M  V30 4497 C 413.969 -1.146 -1.56782 0
M  V30 4498 O 413.244 -0.211968 -1.93342 0
M  V30 4499 C 413.527 -3.51917 -0.763333 0
M  V30 4500 C 413.38 -4.4758 0.446371 0
M  V30 4501 C 414.699 -4.09742 -1.60623 0
M  V30 4502 H 411.818 -0.725277 -0.130929 0
M  V30 4503 H 414.46 -1.8653 0.361446 0
M  V30 4504 H 412.61 -3.63101 -1.38166 0
M  V30 4505 H 414.282 -4.48362 1.08487 0
M  V30 4506 H 412.525 -4.19947 1.08753 0
M  V30 4507 H 413.196 -5.51862 0.123645 0
M  V30 4508 H 415.672 -4.01727 -1.08418 0
M  V30 4509 H 414.548 -5.16631 -1.85429 0
M  V30 4510 H 414.809 -3.58889 -2.58169 0
M  V30 4511 N 413.868 0.0150385 -1.57593 0
M  V30 4512 C 415.098 0.713359 -1.93894 0
M  V30 4513 C 415.506 1.68663 -0.857289 0
M  V30 4514 O 414.849 1.82876 0.173788 0
M  V30 4515 C 414.911 1.51348 -3.26089 0
M  V30 4516 C 414.575 0.703451 -4.51554 0
M  V30 4517 C 415.572 -0.00237924 -5.199 0
M  V30 4518 C 413.257 0.653854 -4.98026 0
M  V30 4519 C 415.251 -0.746955 -6.33008 0
M  V30 4520 C 412.938 -0.0944578 -6.11027 0
M  V30 4521 C 413.936 -0.793609 -6.78374 0
M  V30 4522 O 413.624 -1.52974 -7.89211 0
M  V30 4523 H 413.356 0.204637 -0.644282 0
M  V30 4524 H 415.91 -0.0276411 -2.05381 0
M  V30 4525 H 414.14 2.29862 -3.10967 0
M  V30 4526 H 415.829 2.09572 -3.47612 0
M  V30 4527 H 416.595 0.0268803 -4.84993 0
M  V30 4528 H 412.474 1.18756 -4.45441 0
M  V30 4529 H 416.018 -1.2932 -6.85509 0
M  V30 4530 H 411.915 -0.125591 -6.45378 0
M  V30 4531 H 412.683 -1.44488 -8.05646 0
M  V30 4532 N 415.346 1.54954 0.287554 0
M  V30 4533 C 416.309 1.86076 1.33823 0
M  V30 4534 C 417.309 0.734414 1.43049 0
M  V30 4535 O 418.499 1.00266 1.42452 0
M  V30 4536 C 415.631 2.05305 2.72144 0
M  V30 4537 H 416.824 2.79984 1.07465 0
M  V30 4538 H 414.377 1.47223 0.524902 0
M  V30 4539 H 415.112 1.1373 3.03704 0
M  V30 4540 H 414.897 2.873 2.66836 0
M  V30 4541 H 416.387 2.30706 3.48087 0
M  V30 4542 N 416.824 -0.551391 1.4764 0
M  V30 4543 C 417.754 -1.66757 1.63445 0
M  V30 4544 C 418.735 -1.63077 0.483742 0
M  V30 4545 O 419.92 -1.80607 0.71377 0
M  V30 4546 C 417.05 -3.05387 1.65396 0
M  V30 4547 C 416.004 -3.23918 2.79752 0
M  V30 4548 C 415.33 -4.63393 2.66779 0
M  V30 4549 C 416.63 -3.08735 4.21284 0
M  V30 4550 H 418.324 -1.53786 2.56886 0
M  V30 4551 H 415.87 -0.738415 1.23626 0
M  V30 4552 H 417.823 -3.83325 1.75043 0
M  V30 4553 H 416.547 -3.19332 0.685195 0
M  V30 4554 H 415.206 -2.48391 2.69625 0
M  V30 4555 H 414.854 -4.74144 1.67918 0
M  V30 4556 H 414.554 -4.7674 3.43501 0
M  V30 4557 H 416.078 -5.43458 2.78364 0
M  V30 4558 H 417.492 -3.76484 4.32357 0
M  V30 4559 H 415.889 -3.33588 4.98838 0
M  V30 4560 H 416.959 -2.0541 4.39243 0
M  V30 4561 N 418.302 -1.35869 -0.798587 0
M  V30 4562 C 419.527 -1.32883 -1.59238 0
M  V30 4563 C 419.952 0.0894587 -1.87887 0
M  V30 4564 O 419.31 1.05869 -1.47178 0
M  V30 4565 C 419.358 -2.14892 -2.89575 0
M  V30 4566 O 418.462 -1.53512 -3.82763 0
M  V30 4567 H 417.803 -0.455236 -0.48338 0
M  V30 4568 H 420.333 -1.79024 -0.990539 0
M  V30 4569 H 420.343 -2.27139 -3.38928 0
M  V30 4570 H 419.018 -3.17998 -2.68049 0
M  V30 4571 H 417.595 -1.50153 -3.41334 0
M  V30 4572 N 419.78 1.02168 -1.19998 0
M  V30 4573 C 420.727 2.10601 -0.944228 0
M  V30 4574 C 421.697 1.65639 0.123664 0
M  V30 4575 O 422.882 1.9079 -0.0199941 0
M  V30 4576 C 420.022 3.41504 -0.496865 0
M  V30 4577 C 419.135 3.99973 -1.63234 0
M  V30 4578 C 418.27 5.18915 -1.13579 0
M  V30 4579 C 417.309 5.69456 -2.24468 0
M  V30 4580 N 416.446 6.79665 -1.76068 0
M  V30 4581 H 421.286 2.31814 -1.8726 0
M  V30 4582 H 418.823 1.13686 -0.933483 0
M  V30 4583 H 420.781 4.16626 -0.218843 0
M  V30 4584 H 419.411 3.2038 0.394508 0
M  V30 4585 H 418.463 3.21997 -2.0254 0
M  V30 4586 H 419.775 4.33492 -2.46752 0
M  V30 4587 H 418.929 6.01222 -0.813429 0
M  V30 4588 H 417.668 4.8695 -0.270434 0
M  V30 4589 H 416.673 4.85757 -2.57526 0
M  V30 4590 H 417.898 6.03459 -3.11472 0
M  V30 4591 H 415.844 6.49538 -0.918516 0
M  V30 4592 H 415.761 7.12349 -2.5317 0
M  V30 4593 H 417.029 7.65549 -1.46817 0
M  V30 4594 N 421.258 1.00505 1.21394 0
M  V30 4595 C 422.535 0.603277 1.86064 0
M  V30 4596 C 422.915 -0.919095 1.90042 0
M  V30 4597 O 422.263 -1.80607 1.39977 0
M  V30 4598 C 422.473 1.23772 3.26315 0
M  V30 4599 C 423.821 1.34586 4.02705 0
M  V30 4600 O 424.845 1.19304 3.35626 0
M  V30 4601 O 423.704 1.59169 5.22807 0
M  V30 4602 H 420.798 0.206634 0.800769 0
M  V30 4603 H 423.344 1.1017 1.29076 0
M  V30 4604 H 422.116 2.27848 3.18121 0
M  V30 4605 H 421.739 0.725648 3.90922 0
M  V30 4606 N 422.737 -1.36956 0.779787 0
M  V30 4607 C 423.684 -2.30175 0.169697 0
M  V30 4608 C 424.654 -1.51501 -0.68094 0
M  V30 4609 O 425.839 -1.80042 -0.631629 0
M  V30 4610 C 422.979 -3.37985 -0.697131 0
M  V30 4611 C 422.092 -4.31661 0.170992 0
M  V30 4612 C 421.227 -5.2655 -0.701298 0
M  V30 4613 C 420.266 -6.11867 0.168869 0
M  V30 4614 N 419.403 -6.98973 -0.661855 0
M  V30 4615 H 424.243 -2.81767 0.970135 0
M  V30 4616 H 421.78 -1.38699 0.489994 0
M  V30 4617 H 423.738 -3.99128 -1.2146 0
M  V30 4618 H 422.368 -2.87739 -1.46309 0
M  V30 4619 H 421.42 -3.71756 0.80634 0
M  V30 4620 H 422.732 -4.91644 0.841875 0
M  V30 4621 H 421.886 -5.92937 -1.28494 0
M  V30 4622 H 420.625 -4.66998 -1.40584 0
M  V30 4623 H 419.63 -5.44452 0.764986 0
M  V30 4624 H 420.855 -6.73493 0.870863 0
M  V30 4625 H 418.801 -6.41941 -1.35086 0
M  V30 4626 H 418.718 -7.55984 -0.0484447 0
M  V30 4627 H 419.986 -7.6974 -1.22963 0
M  V30 4628 N 424.215 -0.530993 -1.48385 0
M  V30 4629 C 425.178 0.220497 -2.28137 0
M  V30 4630 C 426.178 0.866851 -1.35434 0
M  V30 4631 O 427.368 0.726746 -1.58316 0
M  V30 4632 C 424.5 1.31921 -3.1434 0
M  V30 4633 H 425.693 -0.479714 -2.96038 0
M  V30 4634 H 423.246 -0.286968 -1.53643 0
M  V30 4635 H 423.981 2.05264 -2.51072 0
M  V30 4636 H 423.766 0.86085 -3.82533 0
M  V30 4637 H 425.256 1.84776 -3.74497 0
M  V30 4638 O 425.732 1.56259 -0.408071 0
M  V30 4639 H 426.423 1.93245 0.132688 0
M  V30 END ATOM
M  V30 BEGIN BOND
M  V30 END BOND
M  V30 END CTAB
M  END
$$$$
