drugbank_target|P07942 Laminin subunit beta-1 (DB06245)
 OpenBabel12092120053D

  0  0  0     0  0            999 V3000
M  V30 BEGIN CTAB
M  V30 COUNTS 26951 27213 0 0 0
M  V30 BEGIN ATOM
M  V30 1 H -0.908 1.98254 -0.117106 0
M  V30 2 N 0 1.576 0 0
M  V30 3 C 0.933 2.03868 1.02534 0
M  V30 4 C 1.911 0.928543 1.3348 0
M  V30 5 O 3.095 1.19667 1.45644 0
M  V30 6 C 0.222 2.43627 2.35294 0
M  V30 7 C -0.732 3.65373 2.2001 0
M  V30 8 S 0.101 5.13292 1.52614 0
M  V30 9 C 1.257 5.56322 2.86805 0
M  V30 10 H 1.49 2.90518 0.631377 0
M  V30 11 H -0.977 1.52953 0.210867 0
M  V30 12 H 0.981 2.67203 3.11629 0
M  V30 13 H -0.358 1.57376 2.7183 0
M  V30 14 H -1.165 3.90944 3.18086 0
M  V30 15 H -1.563 3.418 1.51819 0
M  V30 16 H 0.729 5.58782 3.83104 0
M  V30 17 H 1.672 6.56266 2.65933 0
M  V30 18 H 2.08 4.83886 2.90714 0
M  V30 19 N 1.4781 -0.272755 1.55222 0
M  V30 20 C 2.7261 -1.00234 1.75492 0
M  V30 21 C 3.0471 -1.8681 0.5592 0
M  V30 22 O 2.3171 -1.91215 -0.425882 0
M  V30 23 H 0.8971 -0.373076 0.647166 0
M  V30 24 H 3.5591 -0.296926 1.92625 0
M  V30 25 H 2.6551 -1.63913 2.65592 0
M  V30 26 N 2.9562 -1.48159 -0.537278 0
M  V30 27 C 3.8862 -1.65029 -1.6519 0
M  V30 28 C 4.8672 -0.499281 -1.62607 0
M  V30 29 O 6.0522 -0.730972 -1.79918 0
M  V30 30 C 3.1822 -1.68303 -3.03795 0
M  V30 31 C 2.1362 -2.8283 -3.21234 0
M  V30 32 C 1.4622 -2.71189 -4.60826 0
M  V30 33 C 2.7622 -4.24211 -3.04701 0
M  V30 34 H 4.4562 -2.58341 -1.51328 0
M  V30 35 H 2.0022 -1.24325 -0.726585 0
M  V30 36 H 3.9552 -1.78693 -3.81637 0
M  V30 37 H 2.6792 -0.715635 -3.18663 0
M  V30 38 H 1.3382 -2.71983 -2.45807 0
M  V30 39 H 0.9862 -1.72435 -4.7252 0
M  V30 40 H 0.6862 -3.48035 -4.7344 0
M  V30 41 H 2.2102 -2.83537 -5.40777 0
M  V30 42 H 3.6242 -4.3593 -3.72341 0
M  V30 43 H 2.0212 -5.01998 -3.28813 0
M  V30 44 H 3.0912 -4.41184 -2.01209 0
M  V30 45 N 4.4343 0.785586 -1.36625 0
M  V30 46 C 5.3643 1.91259 -1.33949 0
M  V30 47 C 6.3453 1.68795 -0.210325 0
M  V30 48 O 7.5303 1.89854 -0.408561 0
M  V30 49 C 4.6603 3.28339 -1.13186 0
M  V30 50 C 3.6143 3.65335 -2.22967 0
M  V30 51 C 2.9403 5.00806 -1.87342 0
M  V30 52 C 4.2403 3.7352 -3.65075 0
M  V30 53 H 5.9343 1.93755 -2.28253 0
M  V30 54 H 3.4803 0.930788 -1.09874 0
M  V30 55 H 5.4333 4.06804 -1.09948 0
M  V30 56 H 4.1573 3.2624 -0.153332 0
M  V30 57 H 2.8163 2.89169 -2.25337 0
M  V30 58 H 2.4643 4.95233 -0.880545 0
M  V30 59 H 2.1643 5.26529 -2.60846 0
M  V30 60 H 3.6883 5.81687 -1.85667 0
M  V30 61 H 5.1023 4.42168 -3.64911 0
M  V30 62 H 3.4993 4.10731 -4.37516 0
M  V30 63 H 4.5693 2.74527 -3.99703 0
M  V30 64 N 5.9124 1.20967 1.01018 0
M  V30 65 C 6.8444 0.922059 2.09835 0
M  V30 66 C 7.8574 -0.0927106 1.62536 0
M  V30 67 O 9.0464 0.139127 1.77957 0
M  V30 68 C 6.1464 0.362004 3.36961 0
M  V30 69 C 5.3194 1.42986 4.13369 0
M  V30 70 C 4.3784 0.879976 5.1879 0
M  V30 71 O 3.4044 1.56219 5.47343 0
M  V30 72 N 4.6064 -0.307396 5.79686 0
M  V30 73 H 7.3714 1.8588 2.35093 0
M  V30 74 H 4.9324 1.11422 1.1746 0
M  V30 75 H 6.9244 -0.0201474 4.04695 0
M  V30 76 H 5.4944 -0.479437 3.08902 0
M  V30 77 H 4.7144 1.98608 3.40512 0
M  V30 78 H 6.0024 2.14885 4.61196 0
M  V30 79 H 5.4004 -0.878796 5.58832 0
M  V30 80 H 3.9574 -0.631115 6.48737 0
M  V30 81 N 7.3905 -1.2043 1.01659 0
M  V30 82 C 8.3205 -2.25466 0.607226 0
M  V30 83 C 9.3015 -1.65853 -0.377716 0
M  V30 84 O 10.4865 -1.92409 -0.263149 0
M  V30 85 C 7.6165 -3.47256 -0.0552949 0
M  V30 86 C 6.5705 -4.19462 0.850632 0
M  V30 87 C 5.8965 -5.34673 0.0538859 0
M  V30 88 C 7.1965 -4.75603 2.15868 0
M  V30 89 H 8.8905 -2.59962 1.48526 0
M  V30 90 H 6.4365 -1.2496 0.715605 0
M  V30 91 H 8.3895 -4.19917 -0.353233 0
M  V30 92 H 7.1135 -3.11924 -0.968045 0
M  V30 93 H 5.7725 -3.48667 1.13257 0
M  V30 94 H 5.4205 -4.95585 -0.860514 0
M  V30 95 H 5.1205 -5.83913 0.657192 0
M  V30 96 H 6.6445 -6.10138 -0.237598 0
M  V30 97 H 8.0585 -5.40083 1.92311 0
M  V30 98 H 6.4555 -5.3528 2.71284 0
M  V30 99 H 7.5255 -3.94346 2.82169 0
M  V30 100 N 8.8686 -0.792821 -1.36206 0
M  V30 101 C 9.7986 -0.207853 -2.32573 0
M  V30 102 C 10.7796 0.659055 -1.56813 0
M  V30 103 O 11.9646 0.592176 -1.84951 0
M  V30 104 C 9.0946 0.655449 -3.41059 0
M  V30 105 C 8.0486 -0.111842 -4.27854 0
M  V30 106 C 7.3746 0.872274 -5.27537 0
M  V30 107 C 8.6746 -1.30299 -5.05786 0
M  V30 108 H 10.3686 -1.01294 -2.81744 0
M  V30 109 H 7.9146 -0.48854 -1.3546 0
M  V30 110 H 9.8676 1.07464 -4.07467 0
M  V30 111 H 8.5916 1.49328 -2.90463 0
M  V30 112 H 7.2506 -0.512053 -3.63006 0
M  V30 113 H 6.8986 1.70523 -4.73214 0
M  V30 114 H 6.5986 0.363291 -5.86476 0
M  V30 115 H 8.1226 1.28996 -5.96818 0
M  V30 116 H 9.5366 -0.959379 -5.65216 0
M  V30 117 H 7.9336 -1.7455 -5.74154 0
M  V30 118 H 9.0036 -2.09663 -4.37229 0
M  V30 119 N 10.3467 1.47872 -0.545128 0
M  V30 120 C 11.3097 2.28337 0.198717 0
M  V30 121 C 12.3097 1.36255 0.853888 0
M  V30 122 O 13.4997 1.59003 0.711606 0
M  V30 123 C 10.6317 3.15585 1.28915 0
M  V30 124 H 11.8247 2.95567 -0.507941 0
M  V30 125 H 9.3777 1.53362 -0.301616 0
M  V30 126 H 10.1127 2.53019 2.02859 0
M  V30 127 H 9.8977 3.83337 0.824309 0
M  V30 128 H 11.3877 3.76243 1.81194 0
M  V30 129 N 11.8248 0.280983 1.55075 0
M  V30 130 C 13.0718 -0.334115 1.99725 0
M  V30 131 C 13.3998 -1.5542 1.1694 0
M  V30 132 O 12.6548 -1.94361 0.228531 0
M  V30 133 C 12.9538 -0.754656 3.49342 0
M  V30 134 C 12.6198 0.361445 4.49449 0
M  V30 135 C 11.2818 0.667893 4.76542 0
M  V30 136 C 13.6338 1.11322 5.09173 0
M  V30 137 C 10.9618 1.7296 5.60626 0
M  V30 138 C 13.3138 2.1647 5.9441 0
M  V30 139 C 11.9778 2.47742 6.19822 0
M  V30 140 H 11.2478 -0.122261 0.730844 0
M  V30 141 H 13.8948 0.395917 1.87363 0
M  V30 142 H 12.1998 -1.56446 3.5921 0
M  V30 143 H 13.8968 -1.24142 3.813 0
M  V30 144 H 10.4868 0.112481 4.28452 0
M  V30 145 H 14.6708 0.88973 4.8826 0
M  V30 146 H 9.9268 1.97684 5.78559 0
M  V30 147 H 14.1008 2.75193 6.3972 0
M  V30 148 H 11.7278 3.30145 6.84769 0
M  V30 149 N 13.3029 -1.57598 0.00835791 0
M  V30 150 C 14.5279 -1.95617 -0.689103 0
M  V30 151 C 14.9529 -0.883753 -1.66046 0
M  V30 152 O 14.3109 0.157352 -1.80616 0
M  V30 153 C 14.3589 -3.32736 -1.38994 0
M  V30 154 O 13.4629 -3.27631 -2.50463 0
M  V30 155 H 12.8039 -0.638379 -0.182668 0
M  V30 156 H 15.3339 -2.045 0.064036 0
M  V30 157 H 15.3439 -3.68494 -1.75147 0
M  V30 158 H 14.0189 -4.1034 -0.677778 0
M  V30 159 H 12.5959 -3.03561 -2.16576 0
M  V30 160 N 14.781 0.264519 -1.55364 0
M  V30 161 C 16.028 0.994986 -1.7637 0
M  V30 162 C 16.356 1.85976 -0.5695 0
M  V30 163 O 15.611 1.90509 0.44776 0
M  V30 164 C 15.91 1.9004 -3.02687 0
M  V30 165 C 15.576 1.19243 -4.34847 0
M  V30 166 C 14.238 0.996709 -4.70764 0
M  V30 167 C 16.59 0.689296 -5.16622 0
M  V30 168 C 13.918 0.285261 -5.86006 0
M  V30 169 C 16.27 -0.00860079 -6.32599 0
M  V30 170 C 14.934 -0.215963 -6.67151 0
M  V30 171 H 14.204 0.364091 -0.645383 0
M  V30 172 H 16.851 0.266543 -1.89636 0
M  V30 173 H 15.156 2.69533 -2.84357 0
M  V30 174 H 16.853 2.46695 -3.16137 0
M  V30 175 H 13.443 1.3549 -4.06621 0
M  V30 176 H 17.627 0.828108 -4.89342 0
M  V30 177 H 12.883 0.113961 -6.11294 0
M  V30 178 H 17.057 -0.406186 -6.95214 0
M  V30 179 H 14.684 -0.769217 -7.56298 0
M  V30 180 N 16.2591 1.48442 0.529413 0
M  V30 181 C 17.1891 1.65902 1.64313 0
M  V30 182 C 18.1701 0.507897 1.6234 0
M  V30 183 O 19.3551 0.740503 1.79528 0
M  V30 184 C 16.4851 1.69911 3.02898 0
M  V30 185 C 15.4391 2.8453 3.19729 0
M  V30 186 C 14.7651 2.73629 4.59381 0
M  V30 187 C 16.0651 4.25821 3.02447 0
M  V30 188 H 17.7591 2.5914 1.49955 0
M  V30 189 H 15.3051 1.24709 0.719982 0
M  V30 190 H 17.2581 1.80715 3.80684 0
M  V30 191 H 15.9821 0.732524 3.18279 0
M  V30 192 H 14.6411 2.73283 2.44361 0
M  V30 193 H 14.2891 1.74938 4.71599 0
M  V30 194 H 13.9891 3.50541 4.71588 0
M  V30 195 H 15.5131 2.86401 5.39265 0
M  V30 196 H 16.9271 4.37898 3.70024 0
M  V30 197 H 15.3241 5.03735 3.26146 0
M  V30 198 H 16.3941 4.42244 1.98867 0
M  V30 199 N 17.7372 -0.778329 1.37039 0
M  V30 200 C 18.7002 -1.87301 1.32102 0
M  V30 201 C 19.7002 -1.59198 0.226405 0
M  V30 202 O 20.8902 -1.67403 0.481861 0
M  V30 203 C 18.0222 -3.24309 1.05055 0
M  V30 204 H 19.2152 -1.93093 2.29467 0
M  V30 205 H 16.7682 -0.977358 1.21973 0
M  V30 206 H 17.5032 -3.24196 0.0819373 0
M  V30 207 H 17.2882 -3.46098 1.84279 0
M  V30 208 H 18.7782 -4.04382 1.04234 0
M  V30 209 N 19.2153 -1.21501 -1.00376 0
M  V30 210 C 20.1453 -0.999478 -2.11028 0
M  V30 211 C 21.1263 0.0759671 -1.6993 0
M  V30 212 O 22.3113 -0.0841106 -1.94018 0
M  V30 213 C 19.4413 -0.564709 -3.42678 0
M  V30 214 C 18.3953 -1.58486 -3.97576 0
M  V30 215 C 17.7213 -1.00628 -5.25146 0
M  V30 216 C 19.0213 -2.97204 -4.29496 0
M  V30 217 H 20.7153 -1.92495 -2.29317 0
M  V30 218 H 18.2613 -0.92693 -1.102 0
M  V30 219 H 20.2143 -0.401091 -4.19487 0
M  V30 220 H 18.9383 0.396411 -3.24185 0
M  V30 221 H 17.5973 -1.73606 -3.22888 0
M  V30 222 H 17.2453 -0.0368439 -5.02987 0
M  V30 223 H 16.9453 -1.68771 -5.62841 0
M  V30 224 H 18.4693 -0.854015 -6.04598 0
M  V30 225 H 19.8833 -2.8552 -4.97143 0
M  V30 226 H 18.2803 -3.62372 -4.78338 0
M  V30 227 H 19.3503 -3.47956 -3.3772 0
M  V30 228 N 20.6934 1.19889 -1.02296 0
M  V30 229 C 21.9334 1.91125 -0.724602 0
M  V30 230 C 22.2974 1.77464 0.732835 0
M  V30 231 O 23.4984 2.43241 1.144 0
M  V30 232 C 21.7694 3.38187 -1.15604 0
M  V30 233 S 23.3284 4.27702 -0.980621 0
M  V30 234 H 20.1464 0.66018 -0.263976 0
M  V30 235 H 22.7484 1.44978 -1.31155 0
M  V30 236 H 21.4524 3.45653 -2.21251 0
M  V30 237 H 20.9834 3.89363 -0.562131 0
M  V30 238 H 22.9984 4.96073 0.112225 0
M  V30 239 N 22.1715 0.800033 1.35784 0
M  V30 240 C 23.5875 0.482977 1.52117 0
M  V30 241 C 23.7875 -0.996948 1.75109 0
M  V30 242 O 22.8435 -1.78216 1.78872 0
M  V30 243 C 24.1565 1.32264 2.70049 0
M  V30 244 C 25.7045 1.31742 2.83924 0
M  V30 245 C 26.1795 2.14106 4.04874 0
M  V30 246 N 27.6705 2.11607 4.12039 0
M  V30 247 C 28.4055 2.72099 5.04727 0
M  V30 248 N 27.9015 3.41492 6.02789 0
M  V30 249 N 29.6945 2.61776 4.97423 0
M  V30 250 H 21.8455 1.75856 1.19115 0
M  V30 251 H 24.1085 0.748122 0.582252 0
M  V30 252 H 23.8145 2.37261 2.59616 0
M  V30 253 H 23.6885 0.971303 3.6448 0
M  V30 254 H 26.0755 0.275333 2.93813 0
M  V30 255 H 26.1565 1.70859 1.9037 0
M  V30 256 H 25.8005 3.18351 3.95746 0
M  V30 257 H 25.7305 1.72353 4.97596 0
M  V30 258 H 28.2215 1.61112 3.41835 0
M  V30 259 H 28.5345 3.84953 6.70098 0
M  V30 260 H 26.8795 3.45596 6.02983 0
M  V30 261 H 30.0705 2.07157 4.19766 0
M  V30 262 H 30.2435 3.0921 5.69468 0
M  V30 263 N 23.6496 -1.47581 0.552962 0
M  V30 264 C 24.6126 -2.28439 -0.186605 0
M  V30 265 C 25.6126 -1.36706 -0.84665 0
M  V30 266 O 26.8026 -1.59378 -0.703164 0
M  V30 267 C 23.9346 -3.16264 -1.2724 0
M  V30 268 H 25.1276 -2.95294 0.523609 0
M  V30 269 H 22.6806 -1.532 0.309745 0
M  V30 270 H 23.4156 -2.54091 -2.01514 0
M  V30 271 H 23.2006 -3.83769 -0.803968 0
M  V30 272 H 24.6906 -3.77198 -1.79196 0
M  V30 273 N 25.1277 -0.289203 -1.54924 0
M  V30 274 C 26.5437 0.0645403 -1.59469 0
M  V30 275 C 26.7437 1.53419 -1.30632 0
M  V30 276 O 25.7997 2.2852 -1.074 0
M  V30 277 C 27.1127 -0.32278 -2.98963 0
M  V30 278 C 28.6607 -0.270564 -3.11828 0
M  V30 279 C 29.1357 -0.632532 -4.53611 0
M  V30 280 N 30.6267 -0.584617 -4.59496 0
M  V30 281 C 31.3617 -0.837314 -5.67254 0
M  V30 282 N 30.8577 -1.15536 -6.83098 0
M  V30 283 N 32.6507 -0.765166 -5.56868 0
M  V30 284 H 24.8017 -1.24714 -1.71931 0
M  V30 285 H 27.0647 -0.504809 -0.802416 0
M  V30 286 H 26.7707 -1.34541 -3.24948 0
M  V30 287 H 26.6447 0.32944 -3.75759 0
M  V30 288 H 29.0317 0.742805 -2.85598 0
M  V30 289 H 29.1127 -0.957242 -2.37214 0
M  V30 290 H 28.7567 -1.64365 -4.80569 0
M  V30 291 H 28.6867 0.07609 -5.26545 0
M  V30 292 H 31.1777 -0.349248 -3.76283 0
M  V30 293 H 31.4907 -1.33447 -7.61191 0
M  V30 294 H 29.8357 -1.19328 -6.84679 0
M  V30 295 H 33.0267 -0.516432 -4.65243 0
M  V30 296 H 33.1997 -0.965477 -6.40767 0
M  V30 297 N 26.6058 1.57591 -0.0167156 0
M  V30 298 C 27.8518 1.91567 0.665582 0
M  V30 299 C 28.1848 0.892298 1.72487 0
M  V30 300 O 27.4598 -0.0867127 1.94307 0
M  V30 301 C 27.7428 3.36069 1.29342 0
M  V30 302 C 27.5958 4.49135 0.244541 0
M  V30 303 C 28.9148 3.803 2.21495 0
M  V30 304 H 26.0338 0.69666 0.240488 0
M  V30 305 H 28.6758 1.89866 -0.0714356 0
M  V30 306 H 26.8258 3.3765 1.92158 0
M  V30 307 H 28.4978 4.59689 -0.385228 0
M  V30 308 H 26.7408 4.3165 -0.431379 0
M  V30 309 H 27.4118 5.47242 0.723207 0
M  V30 310 H 29.8878 3.80377 1.68678 0
M  V30 311 H 28.7638 4.82127 2.62382 0
M  V30 312 H 29.0248 3.15104 3.101 0
M  V30 313 N 28.0839 -0.256276 1.55502 0
M  V30 314 C 29.4999 -0.604325 1.47716 0
M  V30 315 C 29.6999 -1.88763 0.705039 0
M  V30 316 O 28.7559 -2.51445 0.230613 0
M  V30 317 C 30.0689 -0.715756 2.92057 0
M  V30 318 C 31.6169 -0.808706 3.02372 0
M  V30 319 C 32.0919 -0.951777 4.48001 0
M  V30 320 N 33.5829 -1.01688 4.519 0
M  V30 321 C 34.3179 -1.14668 5.61817 0
M  V30 322 N 33.8139 -1.24261 6.81565 0
M  V30 323 N 35.6069 -1.1791 5.49594 0
M  V30 324 H 27.7579 0.586291 2.04148 0
M  V30 325 H 30.0209 0.201015 0.926443 0
M  V30 326 H 29.7269 0.157027 3.51349 0
M  V30 327 H 29.6009 -1.59071 3.42018 0
M  V30 328 H 31.9879 -1.67195 2.43166 0
M  V30 329 H 32.0689 0.0912063 2.55637 0
M  V30 330 H 31.7129 -0.0931291 5.07815 0
M  V30 331 H 31.6429 -1.86659 4.92408 0
M  V30 332 H 34.1339 -0.954468 3.65648 0
M  V30 333 H 34.4469 -1.34046 7.61086 0
M  V30 334 H 32.7919 -1.21236 6.84344 0
M  V30 335 H 35.9829 -1.10057 4.54978 0
M  V30 336 H 36.1559 -1.27681 6.35296 0
M  V30 337 N 29.562 -1.4872 -0.521534 0
M  V30 338 C 30.525 -1.63379 -1.60748 0
M  V30 339 C 31.525 -0.50661 -1.52611 0
M  V30 340 O 32.715 -0.772601 -1.5613 0
M  V30 341 C 29.847 -1.61192 -3.00383 0
M  V30 342 H 31.04 -2.60217 -1.49087 0
M  V30 343 H 28.593 -1.37444 -0.744235 0
M  V30 344 H 29.328 -0.65863 -3.17541 0
M  V30 345 H 29.113 -2.43032 -3.07698 0
M  V30 346 H 30.603 -1.7466 -3.7932 0
M  V30 347 N 31.0401 0.771051 -1.3745 0
M  V30 348 C 31.9721 1.89352 -1.29146 0
M  V30 349 C 32.9851 1.61477 -0.207124 0
M  V30 350 O 34.1741 1.72382 -0.463324 0
M  V30 351 C 31.2741 3.24596 -0.974195 0
M  V30 352 C 30.4471 3.80111 -2.16413 0
M  V30 353 C 29.5061 4.93832 -1.81703 0
M  V30 354 O 28.5321 5.09382 -2.54006 0
M  V30 355 N 29.7341 5.75483 -0.761573 0
M  V30 356 H 32.4991 1.96991 -2.25864 0
M  V30 357 H 30.0601 0.950191 -1.31084 0
M  V30 358 H 32.0521 3.98193 -0.722828 0
M  V30 359 H 30.6221 3.12454 -0.0955527 0
M  V30 360 H 29.8421 2.98284 -2.57721 0
M  V30 361 H 31.1301 4.13932 -2.95867 0
M  V30 362 H 30.5281 5.65469 -0.161609 0
M  V30 363 H 29.0851 6.49302 -0.570064 0
M  V30 364 N 32.5182 1.22032 0.997298 0
M  V30 365 C 33.4282 1.00271 2.12092 0
M  V30 366 C 34.4442 -0.047621 1.73935 0
M  V30 367 O 35.6202 0.144136 2.00884 0
M  V30 368 C 32.6852 0.578449 3.4184 0
M  V30 369 C 31.7462 1.70189 3.94125 0
M  V30 370 C 30.9792 1.29778 5.17681 0
M  V30 371 O 31.2022 0.174676 5.70132 0
M  V30 372 O 30.1362 2.11261 5.63607 0
M  V30 373 H 33.9622 1.94398 2.3333 0
M  V30 374 H 31.5472 1.00587 1.10465 0
M  V30 375 H 33.4292 0.351998 4.19927 0
M  V30 376 H 32.1042 -0.334019 3.21972 0
M  V30 377 H 31.0112 1.98282 3.1723 0
M  V30 378 H 32.3442 2.59206 4.18417 0
M  V30 379 N 33.9963 -1.19345 1.0293 0
M  V30 380 C 35.4073 -1.70725 0.755633 0
M  V30 381 C 35.7583 -1.82326 -0.724676 0
M  V30 382 O 34.8833 -1.49471 -1.56484 0
M  V30 383 C 35.4783 -3.10084 1.36503 0
M  V30 384 C 34.0373 -3.58723 1.13994 0
M  V30 385 C 33.1843 -2.35577 1.46283 0
M  V30 386 H 36.1353 -1.0418 1.19718 0
M  V30 387 H 36.1563 -3.72787 0.762217 0
M  V30 388 H 35.6683 -3.01609 2.44241 0
M  V30 389 H 33.7693 -3.72512 0.0807901 0
M  V30 390 H 33.8823 -4.42816 1.82894 0
M  V30 391 H 32.2463 -2.38935 0.88217 0
M  V30 392 H 33.0293 -2.29731 2.55105 0
M  V30 393 N 35.4744 -0.807222 -1.35358 0
M  V30 394 C 36.3844 -0.219594 -2.3357 0
M  V30 395 C 37.4004 0.637734 -1.61892 0
M  V30 396 O 38.5764 0.549336 -1.93763 0
M  V30 397 C 35.6414 0.62158 -3.41083 0
M  V30 398 C 34.7024 -0.256315 -4.28534 0
M  V30 399 C 33.9354 0.544807 -5.30912 0
M  V30 400 O 34.1584 1.77944 -5.41934 0
M  V30 401 O 33.0924 -0.0646478 -6.01865 0
M  V30 402 H 36.9184 -1.03208 -2.85625 0
M  V30 403 H 34.5034 -0.569025 -1.38139 0
M  V30 404 H 36.3854 1.10067 -4.06772 0
M  V30 405 H 35.0604 1.41165 -2.91297 0
M  V30 406 H 33.9674 -0.782559 -3.65823 0
M  V30 407 H 35.3004 -1.01034 -4.81719 0
M  V30 408 N 36.9525 1.47285 -0.560781 0
M  V30 409 C 38.1995 2.02464 -0.038062 0
M  V30 410 C 38.5275 1.43474 1.31322 0
M  V30 411 O 37.7825 0.581311 1.86867 0
M  V30 412 C 38.0815 3.57258 0.100784 0
M  V30 413 C 37.7475 4.35184 -1.18007 0
M  V30 414 C 36.4095 4.56194 -1.53103 0
M  V30 415 C 38.7615 4.80098 -2.02867 0
M  V30 416 C 36.0895 5.19367 -2.729 0
M  V30 417 C 38.4415 5.44593 -3.21871 0
M  V30 418 C 37.1055 5.63835 -3.57276 0
M  V30 419 H 36.3755 0.740869 -0.0139279 0
M  V30 420 H 39.0225 1.76916 -0.733012 0
M  V30 421 H 37.3275 3.81819 0.878724 0
M  V30 422 H 39.0245 3.97606 0.520639 0
M  V30 423 H 35.6145 4.19113 -0.8968 0
M  V30 424 H 39.7985 4.63642 -1.7706 0
M  V30 425 H 35.0545 5.32459 -3.00496 0
M  V30 426 H 39.2285 5.78358 -3.87911 0
M  V30 427 H 36.8555 6.12557 -4.50197 0
M  V30 428 N 38.4306 0.297415 1.54768 0
M  V30 429 C 39.6556 -0.318435 2.04941 0
M  V30 430 C 40.0806 -1.4701 1.17345 0
M  V30 431 O 39.4386 -1.80436 0.176758 0
M  V30 432 C 39.4866 -0.755749 3.52592 0
M  V30 433 O 38.5906 -1.86088 3.68028 0
M  V30 434 H 37.9316 -0.062421 0.661059 0
M  V30 435 H 40.4616 0.438215 1.99852 0
M  V30 436 H 40.4716 -1.04552 3.94376 0
M  V30 437 H 39.1466 0.0867233 4.1581 0
M  V30 438 H 37.7236 -1.57193 3.38149 0
M  V30 439 N 39.9087 -1.5758 0.0250728 0
M  V30 440 C 41.1387 -1.95646 -0.663783 0
M  V30 441 C 41.5467 -0.899935 -1.66427 0
M  V30 442 O 40.8897 0.127191 -1.83259 0
M  V30 443 C 40.9517 -3.29835 -1.43 0
M  V30 444 C 40.6157 -4.53197 -0.588305 0
M  V30 445 C 41.6127 -5.19726 0.13469 0
M  V30 446 C 39.2977 -4.99529 -0.526897 0
M  V30 447 C 41.2917 -6.30902 0.90781 0
M  V30 448 C 38.9787 -6.10589 0.24993 0
M  V30 449 C 39.9767 -6.76134 0.965994 0
M  V30 450 O 39.6647 -7.85062 1.7301 0
M  V30 451 H 39.3967 -0.649282 -0.188174 0
M  V30 452 H 41.9507 -2.05245 0.0799006 0
M  V30 453 H 40.1807 -3.16716 -2.21873 0
M  V30 454 H 41.8697 -3.52833 -2.00658 0
M  V30 455 H 42.6357 -4.84904 0.0965562 0
M  V30 456 H 38.5147 -4.48319 -1.07381 0
M  V30 457 H 42.0587 -6.81995 1.46724 0
M  V30 458 H 37.9557 -6.44849 0.289795 0
M  V30 459 H 38.7237 -8.01708 1.64944 0
M  V30 460 N 41.3868 0.248026 -1.55636 0
M  V30 461 C 42.6348 0.974295 -1.77065 0
M  V30 462 C 42.9558 1.85897 -0.588849 0
M  V30 463 O 42.2258 1.91868 0.395407 0
M  V30 464 H 40.8058 0.362733 -0.653019 0
M  V30 465 H 43.4678 0.266244 -1.93073 0
M  V30 466 H 42.5638 1.59667 -2.68166 0
M  V30 467 N 42.8649 1.48995 0.513639 0
M  V30 468 C 44.1049 1.59452 1.27885 0
M  V30 469 C 44.4689 0.269479 1.90099 0
M  V30 470 O 45.6699 0.249139 2.67643 0
M  V30 471 C 43.9409 2.71277 2.32688 0
M  V30 472 S 45.4999 3.01604 3.18717 0
M  V30 473 H 42.3179 0.562565 0.434789 0
M  V30 474 H 44.9199 1.86595 0.583301 0
M  V30 475 H 43.6239 3.66089 1.8549 0
M  V30 476 H 43.1549 2.46086 3.06929 0
M  V30 477 H 45.1699 2.42155 4.331 0
M  V30 478 N 44.343 -0.763751 1.37857 0
M  V30 479 C 45.306 -1.85889 1.34081 0
M  V30 480 C 46.306 -1.58949 0.243277 0
M  V30 481 O 47.496 -1.66882 0.499589 0
M  V30 482 C 44.628 -3.23176 1.08489 0
M  V30 483 H 45.821 -1.90648 2.31502 0
M  V30 484 H 43.374 -0.964367 1.23003 0
M  V30 485 H 44.109 -3.24091 0.116318 0
M  V30 486 H 43.894 -3.44124 1.8794 0
M  V30 487 H 45.384 -4.03254 1.08517 0
M  V30 488 N 45.8211 -1.22559 -0.990812 0
M  V30 489 C 46.7311 -1.01394 -2.11557 0
M  V30 490 C 47.7471 0.0383962 -1.73958 0
M  V30 491 O 48.9231 -0.154787 -2.00804 0
M  V30 492 C 45.9881 -0.596569 -3.41529 0
M  V30 493 C 45.0491 -1.72276 -3.93217 0
M  V30 494 C 44.2821 -1.32521 -5.16985 0
M  V30 495 O 44.5051 -0.204909 -5.70032 0
M  V30 496 O 43.4391 -2.14247 -5.62478 0
M  V30 497 H 47.2651 -1.95633 -2.32296 0
M  V30 498 H 44.8501 -1.01172 -1.0993 0
M  V30 499 H 46.7321 -0.374263 -4.19735 0
M  V30 500 H 45.4071 0.316939 -3.22145 0
M  V30 501 H 44.3141 -1.99961 -3.16174 0
M  V30 502 H 45.6471 -2.61421 -4.17037 0
M  V30 503 N 47.2992 1.18797 -1.03562 0
M  V30 504 C 48.5472 1.88278 -0.734569 0
M  V30 505 C 48.8682 1.8043 0.739586 0
M  V30 506 O 48.1382 1.21925 1.53333 0
M  V30 507 H 46.7182 0.696991 -0.268725 0
M  V30 508 H 49.3802 1.44192 -1.31129 0
M  V30 509 H 48.4762 2.94443 -1.03489 0
M  V30 510 N 48.7773 0.814389 1.34928 0
M  V30 511 C 50.0023 0.410097 2.03305 0
M  V30 512 C 50.4273 -0.973464 1.60951 0
M  V30 513 O 49.7853 -1.63185 0.789964 0
M  V30 514 C 49.8333 0.51049 3.56968 0
M  V30 515 O 48.9373 -0.473035 4.09678 0
M  V30 516 H 48.2783 0.170088 0.641846 0
M  V30 517 H 50.8083 1.10244 1.72358 0
M  V30 518 H 50.8183 0.383135 4.06197 0
M  V30 519 H 49.4933 1.51963 3.87144 0
M  V30 520 H 48.0703 -0.305272 3.71648 0
M  V30 521 N 50.2554 -1.46986 0.568584 0
M  V30 522 C 51.4954 -2.04336 0.0512999 0
M  V30 523 C 51.8594 -1.43214 -1.27881 0
M  V30 524 O 53.0604 -1.91679 -1.88448 0
M  V30 525 C 51.3314 -3.57389 -0.0282328 0
M  V30 526 S 52.8904 -4.36056 -0.489991 0
M  V30 527 H 49.7084 -0.71034 0.0306349 0
M  V30 528 H 52.3104 -1.80212 0.757891 0
M  V30 529 H 51.0144 -3.99395 0.944011 0
M  V30 530 H 50.5454 -3.86028 -0.75803 0
M  V30 531 H 52.5604 -4.6441 -1.74752 0
M  V30 532 N 51.7335 -0.305618 -1.54608 0
M  V30 533 C 52.9635 0.304333 -2.04346 0
M  V30 534 C 53.3715 1.47715 -1.18224 0
M  V30 535 O 52.7145 1.82591 -0.201577 0
M  V30 536 C 52.7765 0.819031 -3.50046 0
M  V30 537 C 52.4405 -0.22912 -4.56425 0
M  V30 538 C 53.4375 -1.05914 -5.08997 0
M  V30 539 C 51.1225 -0.372148 -5.0092 0
M  V30 540 C 53.1165 -2.01809 -6.04609 0
M  V30 541 C 50.8035 -1.33454 -5.9635 0
M  V30 542 C 51.8015 -2.15599 -6.48079 0
M  V30 543 O 51.4895 -3.10205 -7.41639 0
M  V30 544 H 51.2215 0.0693996 -0.672428 0
M  V30 545 H 53.7755 -0.444548 -2.00532 0
M  V30 546 H 52.0055 1.61852 -3.51199 0
M  V30 547 H 53.6945 1.34537 -3.82955 0
M  V30 548 H 54.4605 -0.959538 -4.75413 0
M  V30 549 H 50.3395 0.257304 -4.60281 0
M  V30 550 H 53.8835 -2.65966 -6.44909 0
M  V30 551 H 49.7805 -1.43485 -6.29351 0
M  V30 552 H 50.5485 -3.05237 -7.59455 0
M  V30 553 N 53.2116 1.57565 -0.0334293 0
M  V30 554 C 54.6226 1.79746 0.504798 0
M  V30 555 C 54.9736 0.944091 1.71992 0
M  V30 556 O 54.0986 0.155694 2.15839 0
M  V30 557 C 54.6936 3.25997 0.922567 0
M  V30 558 C 53.2526 3.49159 1.40588 0
M  V30 559 C 52.3996 2.74785 0.372633 0
M  V30 560 H 55.3506 1.56565 -0.259436 0
M  V30 561 H 55.3716 3.35945 1.78666 0
M  V30 562 H 54.8836 3.88081 0.0379825 0
M  V30 563 H 52.9846 2.92332 2.31025 0
M  V30 564 H 53.0976 4.57873 1.41028 0
M  V30 565 H 51.4616 2.40391 0.841672 0
M  V30 566 H 52.2446 3.39587 -0.503559 0
M  V30 567 N 54.6897 -0.239769 1.55765 0
M  V30 568 C 55.6527 -1.28038 1.90103 0
M  V30 569 C 56.6527 -1.40723 0.778055 0
M  V30 570 O 57.8427 -1.39301 1.04599 0
M  V30 571 C 54.9747 -2.65702 2.13577 0
M  V30 572 H 56.1677 -0.988048 2.83157 0
M  V30 573 H 53.7207 -0.479382 1.48767 0
M  V30 574 H 54.4557 -3.00063 1.23015 0
M  V30 575 H 54.2407 -2.57875 2.95369 0
M  V30 576 H 55.7307 -3.40828 2.41301 0
M  V30 577 N 56.1678 -1.49265 -0.50573 0
M  V30 578 C 57.3958 -1.62215 -1.28429 0
M  V30 579 C 57.8108 -0.291697 -1.86533 0
M  V30 580 O 57.1678 0.722233 -1.67601 0
M  V30 581 C 57.2188 -2.68735 -2.41793 0
M  V30 582 O 56.9398 -3.96619 -1.86078 0
M  V30 583 C 58.4408 -2.92346 -3.3324 0
M  V30 584 H 55.6608 -0.546239 -0.389697 0
M  V30 585 H 58.2048 -1.95265 -0.607609 0
M  V30 586 H 56.3598 -2.38476 -3.053 0
M  V30 587 H 56.7738 -4.55256 -2.60465 0
M  V30 588 H 58.2478 -3.70623 -4.09075 0
M  V30 589 H 58.7248 -2.02081 -3.89948 0
M  V30 590 H 59.3308 -3.24003 -2.75503 0
M  V30 591 N 57.6459 0.756429 -1.3826 0
M  V30 592 C 58.8939 1.51248 -1.34047 0
M  V30 593 C 59.2149 1.94875 0.0698372 0
M  V30 594 O 58.4849 1.67436 1.01696 0
M  V30 595 H 57.0649 0.561018 -0.493222 0
M  V30 596 H 59.7269 0.899347 -1.7291 0
M  V30 597 H 58.8229 2.40472 -1.98947 0
M  V30 598 N 59.124 1.23083 0.984299 0
M  V30 599 C 60.401 0.9689 1.69917 0
M  V30 600 C 60.781 -0.513604 2.04757 0
M  V30 601 O 60.129 -1.48383 1.73767 0
M  V30 602 C 60.339 1.87518 2.94343 0
M  V30 603 C 61.687 2.13636 3.6694 0
M  V30 604 O 62.711 1.85036 3.04368 0
M  V30 605 O 61.57 2.62119 4.79537 0
M  V30 606 H 58.664 0.365095 0.742048 0
M  V30 607 H 61.21 1.34107 1.03987 0
M  V30 608 H 59.982 2.87756 2.65164 0
M  V30 609 H 59.605 1.50514 3.6801 0
M  V30 610 N 60.6021 -1.18246 1.0419 0
M  V30 611 C 61.5321 -2.24127 0.654914 0
M  V30 612 C 62.5131 -1.66617 -0.342451 0
M  V30 613 O 63.6981 -1.92924 -0.222277 0
M  V30 614 C 60.8281 -3.47295 0.0183757 0
M  V30 615 C 59.7821 -4.17563 0.939414 0
M  V30 616 C 59.1081 -5.34438 0.167286 0
M  V30 617 C 60.4081 -4.70917 2.25908 0
M  V30 618 H 62.1021 -2.56753 1.54007 0
M  V30 619 H 59.6481 -1.23414 0.74195 0
M  V30 620 H 61.6011 -4.20572 -0.264082 0
M  V30 621 H 60.3251 -3.13907 -0.901664 0
M  V30 622 H 58.9841 -3.46186 1.20628 0
M  V30 623 H 58.6321 -4.97298 -0.7552 0
M  V30 624 H 58.3321 -5.82388 0.780901 0
M  V30 625 H 59.8561 -6.10504 -0.108125 0
M  V30 626 H 61.2701 -5.35882 2.03724 0
M  V30 627 H 59.6671 -5.29406 2.82577 0
M  V30 628 H 60.7371 -3.88272 2.9047 0
M  V30 629 N 62.0802 -0.821533 -1.34494 0
M  V30 630 C 63.0102 -0.257138 -2.3208 0
M  V30 631 C 63.9912 0.625645 -1.58176 0
M  V30 632 O 65.1762 0.552811 -1.86166 0
M  V30 633 C 62.3062 0.582958 -3.42372 0
M  V30 634 C 61.2602 -0.202571 -4.2752 0
M  V30 635 C 60.5862 0.760179 -5.29269 0
M  V30 636 C 61.8862 -1.40998 -5.02908 0
M  V30 637 H 63.5802 -1.07247 -2.79532 0
M  V30 638 H 61.1262 -0.517163 -1.34393 0
M  V30 639 H 63.0792 0.987972 -4.09655 0
M  V30 640 H 61.8032 1.43133 -2.93565 0
M  V30 641 H 60.4622 -0.588936 -3.61838 0
M  V30 642 H 60.1102 1.60447 -4.76724 0
M  V30 643 H 59.8102 0.238809 -5.87115 0
M  V30 644 H 61.3342 1.16308 -5.9942 0
M  V30 645 H 62.7482 -1.07905 -5.63054 0
M  V30 646 H 61.1452 -1.86689 -5.70322 0
M  V30 647 H 62.2152 -2.1889 -4.32684 0
M  V30 648 N 63.5583 1.46682 -0.576371 0
M  V30 649 C 64.8073 2.01619 -0.0572825 0
M  V30 650 C 65.1203 1.45417 1.30818 0
M  V30 651 O 66.3263 1.92133 1.91825 0
M  V30 652 C 64.7823 3.59863 -0.0518371 0
M  V30 653 C 64.3903 4.25059 -1.41523 0
M  V30 654 C 66.1343 4.2248 0.413639 0
M  V30 655 C 64.0413 5.75364 -1.36785 0
M  V30 656 H 62.9713 0.753794 -0.0176448 0
M  V30 657 H 65.6223 1.68481 -0.727076 0
M  V30 658 H 64.0043 3.90048 0.683994 0
M  V30 659 H 65.1783 4.06491 -2.17029 0
M  V30 660 H 63.4933 3.7451 -1.8202 0
M  V30 661 H 66.0903 5.3265 0.467779 0
M  V30 662 H 66.4333 3.90976 1.42982 0
M  V30 663 H 66.9663 3.96897 -0.267929 0
M  V30 664 H 63.7053 6.11518 -2.36063 0
M  V30 665 H 63.2253 5.96214 -0.654895 0
M  V30 666 H 64.9043 6.37955 -1.07805 0
M  V30 667 N 65.0364 0.313813 1.54444 0
M  V30 668 C 66.2844 -0.291099 1.99993 0
M  V30 669 C 66.6054 -1.53418 1.20366 0
M  V30 670 O 65.8754 -1.93544 0.302927 0
M  V30 671 H 64.4554 -0.110552 0.738774 0
M  V30 672 H 67.1174 0.428106 1.9014 0
M  V30 673 H 66.2134 -0.554268 3.07139 0
M  V30 674 N 66.5145 -1.57545 0.0417849 0
M  V30 675 C 67.9305 -1.56467 -0.314704 0
M  V30 676 C 68.1305 -1.04859 -1.72066 0
M  V30 677 O 67.1865 -0.700983 -2.42575 0
M  V30 678 C 68.4995 -3.00317 -0.15174 0
M  V30 679 C 70.0475 -3.12201 -0.223553 0
M  V30 680 C 70.5225 -4.57913 -0.0892295 0
M  V30 681 N 72.0135 -4.6297 -0.145808 0
M  V30 682 C 72.7485 -5.73362 -0.0658459 0
M  V30 683 N 72.2445 -6.92769 0.0659282 0
M  V30 684 N 74.0375 -5.6197 -0.12075 0
M  V30 685 H 66.1885 -1.89416 0.961014 0
M  V30 686 H 68.4515 -0.871862 0.372237 0
M  V30 687 H 68.1575 -3.42073 0.817254 0
M  V30 688 H 68.0315 -3.65892 -0.916692 0
M  V30 689 H 70.4185 -2.70349 -1.18301 0
M  V30 690 H 70.4995 -2.49323 0.571994 0
M  V30 691 H 70.1435 -5.00448 0.866867 0
M  V30 692 H 70.0735 -5.18786 -0.903802 0
M  V30 693 H 72.5645 -3.7709 -0.247286 0
M  V30 694 H 72.8775 -7.72707 0.119905 0
M  V30 695 H 71.2225 -6.94927 0.100885 0
M  V30 696 H 74.4135 -4.67572 -0.222187 0
M  V30 697 H 74.5865 -6.47977 -0.0549735 0
M  V30 698 N 67.9926 0.231505 -1.5589 0
M  V30 699 C 68.9556 1.27028 -1.90779 0
M  V30 700 C 69.9556 1.40308 -0.785507 0
M  V30 701 O 71.1456 1.38744 -1.05336 0
M  V30 702 C 68.2776 2.64566 -2.14983 0
M  V30 703 H 69.4706 0.973017 -2.83677 0
M  V30 704 H 67.0236 0.471486 -1.49019 0
M  V30 705 H 67.7586 2.99406 -1.24604 0
M  V30 706 H 67.5436 2.56305 -2.96732 0
M  V30 707 H 69.0336 3.39543 -2.43105 0
M  V30 708 N 69.4707 1.49531 0.497807 0
M  V30 709 C 70.4027 1.62559 1.61578 0
M  V30 710 C 71.4157 0.508134 1.54667 0
M  V30 711 O 72.6047 0.780309 1.60541 0
M  V30 712 C 69.7047 1.56925 3.00379 0
M  V30 713 C 68.8777 2.84257 3.3244 0
M  V30 714 C 67.9367 2.71632 4.50669 0
M  V30 715 O 66.9627 3.4557 4.52294 0
M  V30 716 N 68.1647 1.83391 5.5077 0
M  V30 717 H 70.9297 2.58981 1.50828 0
M  V30 718 H 68.4907 1.4666 0.685743 0
M  V30 719 H 70.4827 1.46129 3.77397 0
M  V30 720 H 69.0527 0.683483 3.05037 0
M  V30 721 H 68.2727 3.09381 2.44289 0
M  V30 722 H 69.5607 3.68666 3.5066 0
M  V30 723 H 68.9587 1.22583 5.52259 0
M  V30 724 H 67.5157 1.78515 6.26878 0
M  V30 725 N 70.9488 -0.749086 1.3866 0
M  V30 726 C 71.8958 -1.86291 1.36251 0
M  V30 727 C 72.8658 -1.64578 0.224347 0
M  V30 728 O 74.0508 -1.86181 0.417279 0
M  V30 729 C 71.1908 -3.23644 1.19786 0
M  V30 730 C 70.3038 -3.57158 2.43027 0
M  V30 731 C 69.4388 -4.83838 2.19258 0
M  V30 732 C 68.4778 -5.10152 3.38247 0
M  V30 733 N 67.6148 -6.28029 3.13884 0
M  V30 734 H 72.4548 -1.87685 2.3147 0
M  V30 735 H 69.9918 -0.917287 1.14997 0
M  V30 736 H 71.9498 -4.0291 1.08254 0
M  V30 737 H 70.5798 -3.21566 0.282031 0
M  V30 738 H 69.6318 -2.72701 2.65214 0
M  V30 739 H 70.9438 -3.7253 3.31697 0
M  V30 740 H 70.0978 -5.71057 2.04888 0
M  V30 741 H 68.8368 -4.70614 1.2796 0
M  V30 742 H 67.8418 -4.21401 3.53131 0
M  V30 743 H 69.0668 -5.25271 4.30427 0
M  V30 744 H 67.0128 -6.1612 2.25238 0
M  V30 745 H 66.9298 -6.43922 3.96106 0
M  V30 746 H 68.1978 -7.18124 3.03179 0
M  V30 747 N 72.4269 -1.23603 -0.977757 0
M  V30 748 C 73.3569 -1.04401 -2.0886 0
M  V30 749 C 74.3379 0.0399052 -1.70053 0
M  V30 750 O 75.5229 -0.125246 -1.93796 0
M  V30 751 C 72.6529 -0.637269 -3.41403 0
M  V30 752 C 71.6069 -1.66883 -3.94124 0
M  V30 753 C 70.9329 -1.11745 -5.22893 0
M  V30 754 C 72.2329 -3.06247 -4.23096 0
M  V30 755 H 73.9269 -1.97316 -2.25182 0
M  V30 756 H 71.4729 -0.950096 -1.08209 0
M  V30 757 H 73.4259 -0.48998 -4.18542 0
M  V30 758 H 72.1499 0.327557 -3.24953 0
M  V30 759 H 70.8089 -1.80416 -3.19133 0
M  V30 760 H 70.4569 -0.143527 -5.02795 0
M  V30 761 H 70.1569 -1.80672 -5.59134 0
M  V30 762 H 71.6809 -0.982067 -6.02651 0
M  V30 763 H 73.0949 -2.96001 -4.90975 0
M  V30 764 H 71.4919 -3.72436 -4.70544 0
M  V30 765 H 72.5619 -3.55041 -3.30263 0
M  V30 766 N 73.905 1.17692 -1.04816 0
M  V30 767 C 75.13 1.92327 -0.776207 0
M  V30 768 C 75.555 1.76082 0.661581 0
M  V30 769 O 74.913 1.076 1.45917 0
M  V30 770 C 74.961 3.41539 -1.15687 0
M  V30 771 O 74.065 4.11402 -0.286775 0
M  V30 772 H 73.406 0.599735 -0.284981 0
M  V30 773 H 75.936 1.49201 -1.4 0
M  V30 774 H 75.946 3.92269 -1.12202 0
M  V30 775 H 74.621 3.52684 -2.20425 0
M  V30 776 H 73.198 3.70939 -0.381903 0
M  V30 777 N 75.3831 0.828654 1.34056 0
M  V30 778 C 76.6291 0.42008 1.98402 0
M  V30 779 C 76.9621 -1.01564 1.65525 0
M  V30 780 O 76.2371 -1.70834 0.929831 0
M  V30 781 C 76.5201 0.62927 3.54559 0
M  V30 782 C 76.3731 2.11152 3.97159 0
M  V30 783 C 77.6921 0.0688756 4.40046 0
M  V30 784 H 74.8111 0.154104 0.720709 0
M  V30 785 H 77.4531 1.04228 1.5886 0
M  V30 786 H 75.6031 0.0996418 3.88372 0
M  V30 787 H 77.2751 2.70522 3.73651 0
M  V30 788 H 75.5181 2.59985 3.47261 0
M  V30 789 H 76.1891 2.20868 5.05887 0
M  V30 790 H 78.6651 0.521458 4.1282 0
M  V30 791 H 77.5411 0.245006 5.48353 0
M  V30 792 H 77.8021 -1.0266 4.30015 0
M  V30 793 N 76.8612 -1.46375 0.584142 0
M  V30 794 C 78.0892 -2.06761 0.0759296 0
M  V30 795 C 78.5042 -1.43266 -1.22965 0
M  V30 796 O 77.8612 -0.538458 -1.74376 0
M  V30 797 C 77.9122 -3.61375 -0.0950384 0
M  V30 798 O 77.6332 -4.22495 1.15887 0
M  V30 799 C 79.1342 -4.38693 -0.637434 0
M  V30 800 H 76.3542 -0.668479 0.0581075 0
M  V30 801 H 78.8982 -1.8798 0.805218 0
M  V30 802 H 77.0532 -3.79578 -0.774554 0
M  V30 803 H 77.4672 -5.15385 0.973598 0
M  V30 804 H 78.9412 -5.47464 -0.706237 0
M  V30 805 H 79.4182 -4.06836 -1.65472 0
M  V30 806 H 80.0242 -4.25299 0.00725967 0
M  V30 807 N 78.3393 -0.321999 -1.54275 0
M  V30 808 C 79.5643 0.285791 -2.05422 0
M  V30 809 C 79.9893 1.45124 -1.19669 0
M  V30 810 O 79.3473 1.80132 -0.205441 0
M  V30 811 C 79.3953 0.69956 -3.53749 0
M  V30 812 O 78.4993 1.8021 -3.70942 0
M  V30 813 H 77.8403 0.0518962 -0.661969 0
M  V30 814 H 80.3703 -0.469954 -1.9913 0
M  V30 815 H 80.3803 0.982649 -3.9599 0
M  V30 816 H 79.0553 -0.152864 -4.15619 0
M  V30 817 H 77.6323 1.51794 -3.40607 0
M  V30 818 N 79.8174 1.5752 -0.0501392 0
M  V30 819 C 81.0454 1.96963 0.633492 0
M  V30 820 C 81.4604 0.927631 1.6444 0
M  V30 821 O 80.8174 -0.0882665 1.82286 0
M  V30 822 C 80.8684 3.36487 1.32132 0
M  V30 823 O 80.5894 4.36693 0.350894 0
M  V30 824 C 82.0904 3.90682 2.09481 0
M  V30 825 H 79.3104 0.648244 0.173266 0
M  V30 826 H 81.8544 2.0417 -0.116134 0
M  V30 827 H 80.0094 3.30434 2.02218 0
M  V30 828 H 80.4234 5.17702 0.841735 0
M  V30 829 H 81.8974 4.90591 2.5303 0
M  V30 830 H 82.3744 3.26053 2.94255 0
M  V30 831 H 82.9804 4.00069 1.44307 0
M  V30 832 N 81.2955 -0.223234 1.56011 0
M  V30 833 C 82.5355 -0.954962 1.8072 0
M  V30 834 C 82.8995 -1.81598 0.623384 0
M  V30 835 O 84.1005 -2.58132 0.749745 0
M  V30 836 C 82.3715 -1.77313 3.10314 0
M  V30 837 S 83.9305 -2.56073 3.56332 0
M  V30 838 H 80.7485 -0.320812 0.634508 0
M  V30 839 H 83.3505 -0.220686 1.9425 0
M  V30 840 H 82.0545 -1.13071 3.94516 0
M  V30 841 H 81.5855 -2.54974 2.99586 0
M  V30 842 H 83.6005 -3.79619 3.19536 0
M  V30 843 N 82.7736 -1.49793 -0.48987 0
M  V30 844 C 84.0216 -1.59525 -1.24081 0
M  V30 845 C 84.3426 -0.288953 -1.92847 0
M  V30 846 O 83.6126 0.692436 -1.83254 0
M  V30 847 H 82.1926 -0.587796 -0.460983 0
M  V30 848 H 84.8546 -1.86477 -0.566778 0
M  V30 849 H 83.9506 -2.39696 -1.99881 0
M  V30 850 N 84.2517 0.741722 -1.39055 0
M  V30 851 C 85.1817 1.869 -1.39966 0
M  V30 852 C 86.1627 1.6804 -0.26392 0
M  V30 853 O 87.3477 1.88458 -0.468755 0
M  V30 854 C 84.4777 3.24572 -1.23574 0
M  V30 855 C 83.4317 3.58056 -2.34477 0
M  V30 856 C 82.7577 4.94593 -2.0318 0
M  V30 857 C 84.0577 3.61716 -3.76774 0
M  V30 858 H 85.7517 1.86395 -2.34302 0
M  V30 859 H 83.2977 0.895361 -1.1278 0
M  V30 860 H 85.2507 4.031 -1.22834 0
M  V30 861 H 83.9747 3.25587 -0.257045 0
M  V30 862 H 82.6337 2.81854 -2.34423 0
M  V30 863 H 82.2817 4.92181 -1.03765 0
M  V30 864 H 81.9817 5.17964 -2.77465 0
M  V30 865 H 83.5057 5.75486 -2.04079 0
M  V30 866 H 84.9197 4.30335 -3.78794 0
M  V30 867 H 83.3167 3.96603 -4.50362 0
M  V30 868 H 84.3867 2.61672 -4.08235 0
M  V30 869 N 85.7298 1.2412 0.971189 0
M  V30 870 C 86.6798 0.997551 2.05019 0
M  V30 871 C 87.6638 -0.0597747 1.60789 0
M  V30 872 O 88.8558 0.153516 1.76333 0
M  V30 873 C 85.9848 0.600557 3.38006 0
M  V30 874 C 85.0708 1.69377 3.88809 0
M  V30 875 N 85.4618 2.92586 4.12586 0
M  V30 876 C 83.7598 1.57048 4.17435 0
M  V30 877 C 84.4608 3.63431 4.54195 0
M  V30 878 N 83.4368 2.90979 4.59165 0
M  V30 879 H 87.2388 1.93316 2.21374 0
M  V30 880 H 84.7528 1.14194 1.1547 0
M  V30 881 H 86.7498 0.40725 4.14906 0
M  V30 882 H 85.4098 -0.327903 3.2304 0
M  V30 883 H 86.4208 3.288 4.00139 0
M  V30 884 H 83.0978 0.709798 4.11422 0
M  V30 885 H 84.4878 4.69102 4.81033 0
M  V30 886 N 87.2079 -1.17134 1.05439 0
M  V30 887 C 88.1549 -2.21235 0.657539 0
M  V30 888 C 89.1249 -1.62551 -0.341543 0
M  V30 889 O 90.3099 -1.89379 -0.232393 0
M  V30 890 C 87.4499 -3.45076 0.0410575 0
M  V30 891 C 86.5629 -4.18042 1.08927 0
M  V30 892 C 85.6979 -5.29376 0.439848 0
M  V30 893 C 84.7369 -5.94132 1.4722 0
M  V30 894 N 83.8739 -6.96975 0.846756 0
M  V30 895 H 88.7139 -2.54534 1.54972 0
M  V30 896 H 86.2509 -1.25028 0.775006 0
M  V30 897 H 88.2089 -4.15862 -0.33383 0
M  V30 898 H 86.8389 -3.12353 -0.814568 0
M  V30 899 H 85.8909 -3.45945 1.58196 0
M  V30 900 H 87.2029 -4.62306 1.87282 0
M  V30 901 H 86.3569 -6.06699 0.0115125 0
M  V30 902 H 85.0959 -4.86251 -0.375656 0
M  V30 903 H 84.1009 -5.15538 1.91052 0
M  V30 904 H 85.3259 -6.39337 2.28965 0
M  V30 905 H 83.2719 -6.5598 0.0518075 0
M  V30 906 H 83.1889 -7.39565 1.5678 0
M  V30 907 H 84.4569 -7.78239 0.443277 0
M  V30 908 N 88.686 -0.835752 -1.33615 0
M  V30 909 C 90.097 -0.487099 -1.80234 0
M  V30 910 C 90.448 0.993627 -1.69179 0
M  V30 911 O 89.573 1.77403 -1.23924 0
M  V30 912 C 90.168 -0.877385 -3.27242 0
M  V30 913 C 88.727 -0.580915 -3.7189 0
M  V30 914 C 87.874 -1.0874 -2.5509 0
M  V30 915 H 90.825 -1.02474 -1.2118 0
M  V30 916 H 90.846 -0.186195 -3.80044 0
M  V30 917 H 90.358 -1.95512 -3.35256 0
M  V30 918 H 88.459 0.486881 -3.69405 0
M  V30 919 H 88.572 -1.13396 -4.65487 0
M  V30 920 H 86.936 -0.508392 -2.49575 0
M  V30 921 H 87.719 -2.17184 -2.65868 0
M  V30 922 N 90.1641 1.46063 -0.591896 0
M  V30 923 C 91.0741 2.34192 0.13831 0
M  V30 924 C 92.0901 1.50305 0.876608 0
M  V30 925 O 93.2661 1.8315 0.837728 0
M  V30 926 C 90.3311 3.27656 1.13326 0
M  V30 927 C 89.3921 4.27445 0.39863 0
M  V30 928 C 88.6251 5.16443 1.34618 0
M  V30 929 O 88.8481 5.08553 2.58321 0
M  V30 930 O 87.7821 5.95843 0.851768 0
M  V30 931 H 91.6081 2.98002 -0.58552 0
M  V30 932 H 89.1931 1.45188 -0.352239 0
M  V30 933 H 91.0751 3.85291 1.70671 0
M  V30 934 H 89.7501 2.6643 1.83839 0
M  V30 935 H 88.6571 3.73471 -0.216895 0
M  V30 936 H 89.9901 4.91482 -0.265709 0
M  V30 937 N 91.6422 0.330177 1.54103 0
M  V30 938 C 93.0532 -0.15652 1.86043 0
M  V30 939 C 93.4042 -1.51086 1.2517 0
M  V30 940 O 92.5292 -2.09023 0.560217 0
M  V30 941 C 93.1242 -0.290784 3.3755 0
M  V30 942 C 91.6832 -0.721705 3.69416 0
M  V30 943 C 90.8302 0.152622 2.7688 0
M  V30 944 H 93.7812 0.550237 1.48856 0
M  V30 945 H 93.8022 -1.12058 3.63625 0
M  V30 946 H 93.3142 0.695068 3.81825 0
M  V30 947 H 91.4152 -1.71706 3.30678 0
M  V30 948 H 91.5282 -0.520869 4.7626 0
M  V30 949 H 89.8922 -0.372894 2.51956 0
M  V30 950 H 90.6752 1.13536 3.23982 0
M  V30 951 N 93.1203 -1.57491 0.0584922 0
M  V30 952 C 94.3503 -1.9701 -0.622134 0
M  V30 953 C 94.7583 -0.935034 -1.6448 0
M  V30 954 O 94.1013 0.0882904 -1.83488 0
M  V30 955 C 94.1633 -3.32794 -1.35972 0
M  V30 956 C 93.8273 -4.54343 -0.492043 0
M  V30 957 C 94.8243 -5.19323 0.244901 0
M  V30 958 C 92.5093 -5.00534 -0.420821 0
M  V30 959 C 94.5033 -6.28835 1.04143 0
M  V30 960 C 92.1903 -6.09921 0.379389 0
M  V30 961 C 93.1883 -6.73933 1.10919 0
M  V30 962 O 92.8763 -7.81216 1.89623 0
M  V30 963 H 92.6083 -0.653127 -0.174359 0
M  V30 964 H 95.1623 -2.05029 0.123418 0
M  V30 965 H 93.3923 -3.21351 -2.15105 0
M  V30 966 H 95.0813 -3.5701 -1.93129 0
M  V30 967 H 95.8473 -4.8459 0.19939 0
M  V30 968 H 91.7263 -4.50496 -0.978474 0
M  V30 969 H 95.2703 -6.7873 1.61157 0
M  V30 970 H 91.1673 -6.44089 0.426512 0
M  V30 971 H 91.9353 -7.98029 1.81913 0
M  V30 972 N 94.5984 0.214957 -1.56127 0
M  V30 973 C 95.8384 0.945364 -1.81224 0
M  V30 974 C 96.2024 1.81265 -0.633005 0
M  V30 975 O 97.4034 2.57731 -0.763423 0
M  V30 976 C 95.6744 1.75665 -3.1125 0
M  V30 977 S 97.2334 2.54179 -3.57685 0
M  V30 978 H 94.0514 0.317443 -0.6362 0
M  V30 979 H 96.6534 0.210381 -1.94365 0
M  V30 980 H 95.3574 1.10977 -3.9511 0
M  V30 981 H 94.8884 2.53381 -3.00934 0
M  V30 982 H 96.9034 3.7792 -3.21545 0
M  V30 983 N 96.0765 1.50051 0.48192 0
M  V30 984 C 97.3255 1.59741 1.23149 0
M  V30 985 C 97.6385 0.298163 1.93314 0
M  V30 986 O 98.8445 0.273835 2.70116 0
M  V30 987 C 97.3005 2.81926 2.23708 0
M  V30 988 C 96.9085 4.18685 1.59396 0
M  V30 989 C 98.6525 3.00956 2.99375 0
M  V30 990 C 96.5595 5.3207 2.58178 0
M  V30 991 H 95.4895 0.594838 0.46334 0
M  V30 992 H 98.1405 1.76467 0.503169 0
M  V30 993 H 96.5225 2.58736 2.99786 0
M  V30 994 H 97.6965 4.52088 0.891811 0
M  V30 995 H 96.0115 4.05171 0.960503 0
M  V30 996 H 98.6085 3.82836 3.73283 0
M  V30 997 H 98.9515 2.12258 3.58123 0
M  V30 998 H 99.4845 3.24277 2.30411 0
M  V30 999 H 96.2235 6.22888 2.04184 0
M  V30 1000 H 95.7435 5.03098 3.26577 0
M  V30 1001 H 97.4225 5.62196 3.20225 0
M  V30 1002 N 97.5546 -0.734337 1.39446 0
M  V30 1003 C 98.8006 -1.49613 1.36908 0
M  V30 1004 C 99.1336 -1.94169 -0.0347829 0
M  V30 1005 O 98.4086 -1.66833 -0.999847 0
M  V30 1006 C 98.6916 -2.73534 2.34203 0
M  V30 1007 C 98.5446 -2.34993 3.83534 0
M  V30 1008 C 99.8636 -3.75635 2.29317 0
M  V30 1009 H 96.9826 -0.542714 0.498629 0
M  V30 1010 H 99.6246 -0.839597 1.70443 0
M  V30 1011 H 97.7746 -3.29553 2.05736 0
M  V30 1012 H 99.4466 -1.84601 4.22753 0
M  V30 1013 H 97.6896 -1.67213 4.00278 0
M  V30 1014 H 98.3606 -3.23738 4.47099 0
M  V30 1015 H 100.837 -3.29203 2.54489 0
M  V30 1016 H 99.7126 -4.60008 2.99472 0
M  V30 1017 H 99.9736 -4.22603 1.29842 0
M  V30 1018 N 99.0327 -1.24633 -0.964593 0
M  V30 1019 C 100.258 -1.11596 -1.74818 0
M  V30 1020 C 100.683 0.32723 -1.85232 0
M  V30 1021 O 100.041 1.23695 -1.32549 0
M  V30 1022 C 100.089 -1.76397 -3.1451 0
M  V30 1023 O 99.1927 -1.03685 -3.99153 0
M  V30 1024 H 98.5337 -0.390196 -0.537255 0
M  V30 1025 H 101.064 -1.65002 -1.20977 0
M  V30 1026 H 101.074 -1.8228 -3.65018 0
M  V30 1027 H 99.7487 -2.81401 -3.06246 0
M  V30 1028 H 98.3257 -1.05611 -3.57632 0
M  V30 1029 N 100.511 1.16574 -1.06058 0
M  V30 1030 C 101.461 2.18854 -0.63929 0
M  V30 1031 C 102.445 1.57505 0.328798 0
M  V30 1032 O 103.637 1.76408 0.144623 0
M  V30 1033 C 100.766 3.43291 -0.0247203 0
M  V30 1034 C 99.8518 4.11722 -1.01716 0
M  V30 1035 N 100.243 4.55841 -2.19186 0
M  V30 1036 C 98.5408 4.37872 -0.847569 0
M  V30 1037 C 99.2418 5.08751 -2.82042 0
M  V30 1038 N 98.2178 5.01489 -2.09784 0
M  V30 1039 H 102.02 2.5068 -1.53417 0
M  V30 1040 H 99.5338 1.32999 -0.931935 0
M  V30 1041 H 101.531 4.15856 0.294915 0
M  V30 1042 H 100.191 3.12954 0.865448 0
M  V30 1043 H 101.202 4.49649 -2.56975 0
M  V30 1044 H 97.8788 4.17499 -0.00918848 0
M  V30 1045 H 99.2688 5.52944 -3.81709 0
M  V30 1046 N 101.989 0.842826 1.3317 0
M  V30 1047 C 102.919 0.294028 2.31641 0
M  V30 1048 C 103.9 -0.600401 1.59151 0
M  V30 1049 O 105.085 -0.523124 1.87022 0
M  V30 1050 C 102.215 -0.528416 3.43257 0
M  V30 1051 C 101.169 0.27056 4.27144 0
M  V30 1052 C 100.495 -0.675881 5.30411 0
M  V30 1053 C 101.795 1.48981 5.00602 0
M  V30 1054 H 103.489 1.11681 2.77791 0
M  V30 1055 H 101.035 0.538478 1.33553 0
M  V30 1056 H 102.988 -0.922674 4.11175 0
M  V30 1057 H 101.712 -1.38445 2.95805 0
M  V30 1058 H 100.371 0.646427 3.60856 0
M  V30 1059 H 100.019 -1.52842 4.79216 0
M  V30 1060 H 99.7189 -0.145374 5.8742 0
M  V30 1061 H 101.243 -1.06757 6.01195 0
M  V30 1062 H 102.657 1.16849 5.61266 0
M  V30 1063 H 101.054 1.95739 5.6728 0
M  V30 1064 H 102.124 2.25746 4.29147 0
M  V30 1065 N 103.467 -1.45747 0.599634 0
M  V30 1066 C 104.399 -2.28628 -0.161879 0
M  V30 1067 C 105.412 -1.39494 -0.839367 0
M  V30 1068 O 106.601 -1.63941 -0.706089 0
M  V30 1069 C 103.701 -3.15014 -1.24976 0
M  V30 1070 C 102.874 -4.32378 -0.660935 0
M  V30 1071 C 101.933 -5.00033 -1.63869 0
M  V30 1072 O 100.959 -5.57085 -1.1681 0
M  V30 1073 N 102.161 -4.98589 -2.97303 0
M  V30 1074 H 104.926 -2.94624 0.549265 0
M  V30 1075 H 102.487 -1.55847 0.438565 0
M  V30 1076 H 104.479 -3.5714 -1.9035 0
M  V30 1077 H 103.049 -2.5098 -1.86354 0
M  V30 1078 H 102.269 -3.9383 0.170688 0
M  V30 1079 H 103.557 -5.08197 -0.247619 0
M  V30 1080 H 102.955 -4.53514 -3.38145 0
M  V30 1081 H 101.512 -5.44603 -3.58121 0
M  V30 1082 N 104.945 -0.338344 -1.53925 0
M  V30 1083 C 105.855 0.529421 -2.28548 0
M  V30 1084 C 106.871 1.11645 -1.3346 0
M  V30 1085 O 108.047 1.13325 -1.66492 0
M  V30 1086 C 105.112 1.66713 -3.03987 0
M  V30 1087 C 104.173 1.11041 -4.14691 0
M  V30 1088 C 103.406 2.19389 -4.86522 0
M  V30 1089 O 103.629 3.40013 -4.57982 0
M  V30 1090 O 102.563 1.83976 -5.73094 0
M  V30 1091 H 106.389 -0.0770399 -3.03602 0
M  V30 1092 H 103.974 -0.103555 -1.49041 0
M  V30 1093 H 105.856 2.32918 -3.5118 0
M  V30 1094 H 104.531 2.25949 -2.31794 0
M  V30 1095 H 103.438 0.413024 -3.71813 0
M  V30 1096 H 104.771 0.562975 -4.8897 0
M  V30 1097 N 106.423 1.57458 -0.0668435 0
M  V30 1098 C 107.7 1.8469 0.644132 0
M  V30 1099 C 108.08 0.958343 1.88093 0
M  V30 1100 O 107.428 0.0233579 2.28488 0
M  V30 1101 C 107.638 3.34767 0.986509 0
M  V30 1102 C 108.986 4.02159 1.36212 0
M  V30 1103 O 110.01 3.39484 1.07839 0
M  V30 1104 O 108.869 5.12694 1.89227 0
M  V30 1105 H 105.963 0.762816 0.319437 0
M  V30 1106 H 108.509 1.6942 -0.0973986 0
M  V30 1107 H 107.281 3.91151 0.107883 0
M  V30 1108 H 106.904 3.55281 1.78497 0
M  V30 1109 N 107.901 -0.206675 1.56239 0
M  V30 1110 C 108.848 -1.25617 1.93621 0
M  V30 1111 C 109.818 -1.45824 0.795274 0
M  V30 1112 O 111.003 -1.59148 1.05245 0
M  V30 1113 C 108.143 -2.59839 2.27107 0
M  V30 1114 C 107.256 -2.47308 3.54207 0
M  V30 1115 C 106.391 -3.74155 3.7707 0
M  V30 1116 C 105.43 -3.56407 4.97635 0
M  V30 1117 N 104.567 -4.75238 5.1681 0
M  V30 1118 H 109.407 -0.930383 2.83104 0
M  V30 1119 H 106.944 -0.448065 1.4011 0
M  V30 1120 H 108.902 -3.38021 2.44535 0
M  V30 1121 H 107.532 -2.90485 1.40778 0
M  V30 1122 H 106.584 -1.60483 3.4489 0
M  V30 1123 H 107.896 -2.30122 4.42544 0
M  V30 1124 H 107.05 -4.60778 3.94675 0
M  V30 1125 H 105.789 -3.94282 2.87042 0
M  V30 1126 H 104.794 -2.68168 4.79964 0
M  V30 1127 H 106.019 -3.37736 5.89161 0
M  V30 1128 H 103.965 -4.95651 4.29728 0
M  V30 1129 H 103.882 -4.60835 5.99306 0
M  V30 1130 H 105.15 -5.63246 5.38864 0
M  V30 1131 N 109.379 -1.50304 -0.473955 0
M  V30 1132 C 110.326 -1.68959 -1.57231 0
M  V30 1133 C 111.296 -0.530899 -1.57387 0
M  V30 1134 O 112.481 -0.761133 -1.74961 0
M  V30 1135 C 109.621 -1.7871 -2.95223 0
M  V30 1136 C 108.734 -3.06061 -3.04878 0
M  V30 1137 C 107.869 -3.06626 -4.33767 0
M  V30 1138 C 106.908 -4.28443 -4.37154 0
M  V30 1139 N 106.045 -4.26763 -5.5751 0
M  V30 1140 H 110.885 -2.6273 -1.40631 0
M  V30 1141 H 108.422 -1.30241 -0.683789 0
M  V30 1142 H 110.38 -1.82344 -3.75242 0
M  V30 1143 H 109.01 -0.883806 -3.10465 0
M  V30 1144 H 108.062 -3.11911 -2.17751 0
M  V30 1145 H 109.374 -3.96039 -3.0324 0
M  V30 1146 H 108.528 -3.08973 -5.22131 0
M  V30 1147 H 107.267 -2.14473 -4.3801 0
M  V30 1148 H 106.272 -4.2631 -3.47188 0
M  V30 1149 H 107.497 -5.2182 -4.34605 0
M  V30 1150 H 105.443 -3.37462 -5.62544 0
M  V30 1151 H 105.36 -5.10507 -5.57601 0
M  V30 1152 H 106.628 -4.33253 -6.48006 0
M  V30 1153 N 110.857 0.726932 -1.39834 0
M  V30 1154 C 112.097 1.4992 -1.38936 0
M  V30 1155 C 112.461 1.91996 0.0126883 0
M  V30 1156 O 113.662 2.68399 0.146715 0
M  V30 1157 C 111.933 2.70013 -2.34153 0
M  V30 1158 S 113.492 3.59563 -2.51515 0
M  V30 1159 H 110.31 0.51271 -0.492595 0
M  V30 1160 H 112.912 0.85107 -1.76003 0
M  V30 1161 H 111.616 2.37254 -3.34871 0
M  V30 1162 H 111.147 3.39748 -1.98331 0
M  V30 1163 H 113.162 4.63973 -1.75909 0
M  V30 1164 N 112.336 1.25143 0.95797 0
M  V30 1165 C 113.583 1.09692 1.70217 0
M  V30 1166 C 113.911 -0.362654 1.91089 0
M  V30 1167 O 113.166 -1.28386 1.47701 0
M  V30 1168 C 113.465 1.79272 3.09187 0
M  V30 1169 C 113.131 3.29196 3.08125 0
M  V30 1170 C 111.793 3.70096 3.07543 0
M  V30 1171 C 114.145 4.24995 3.0171 0
M  V30 1172 C 111.473 5.05213 2.9829 0
M  V30 1173 C 113.825 5.60132 2.93999 0
M  V30 1174 C 112.489 6.00365 2.9175 0
M  V30 1175 H 111.759 0.401393 0.622868 0
M  V30 1176 H 114.406 1.55372 1.11945 0
M  V30 1177 H 112.711 1.26014 3.70982 0
M  V30 1178 H 114.408 1.64773 3.65583 0
M  V30 1179 H 110.998 2.96651 3.09348 0
M  V30 1180 H 115.182 3.9439 3.01281 0
M  V30 1181 H 110.438 5.35569 2.94916 0
M  V30 1182 H 114.612 6.3406 2.87996 0
M  V30 1183 H 112.239 7.05023 2.84336 0
M  V30 1184 N 113.814 -1.1601 1.06675 0
M  V30 1185 C 115.063 -1.85973 0.780818 0
M  V30 1186 C 115.376 -1.82819 -0.695444 0
M  V30 1187 O 116.582 -2.484 -1.09589 0
M  V30 1188 C 115.038 -3.33757 1.34665 0
M  V30 1189 C 114.646 -3.45374 2.85343 0
M  V30 1190 C 116.39 -4.0895 1.13843 0
M  V30 1191 C 114.297 -4.87266 3.35151 0
M  V30 1192 H 113.227 -0.696661 0.288407 0
M  V30 1193 H 115.878 -1.30903 1.28595 0
M  V30 1194 H 114.26 -3.88456 0.769274 0
M  V30 1195 H 115.434 -3.00816 3.49065 0
M  V30 1196 H 113.749 -2.83619 3.04876 0
M  V30 1197 H 116.346 -5.13654 1.4854 0
M  V30 1198 H 116.689 -4.16229 0.0770282 0
M  V30 1199 H 117.222 -3.605 1.68179 0
M  V30 1200 H 113.961 -4.85168 4.40786 0
M  V30 1201 H 113.481 -5.32433 2.76179 0
M  V30 1202 H 115.16 -5.56097 3.30704 0
M  V30 1203 N 115.292 -0.849877 -1.32721 0
M  V30 1204 C 116.532 -0.457146 -1.99222 0
M  V30 1205 C 116.896 0.968038 -1.6581 0
M  V30 1206 O 118.097 1.46507 -2.25364 0
M  V30 1207 C 116.368 -0.683966 -3.50794 0
M  V30 1208 S 117.927 -0.388095 -4.3708 0
M  V30 1209 H 114.745 -0.171464 -0.690015 0
M  V30 1210 H 117.347 -1.10155 -1.61512 0
M  V30 1211 H 116.051 -1.72038 -3.726 0
M  V30 1212 H 115.582 -0.0258086 -3.93392 0
M  V30 1213 H 117.597 0.787791 -4.89906 0
M  V30 1214 N 116.77 1.45427 -0.607355 0
M  V30 1215 C 117.718 2.32269 0.12411 0
M  V30 1216 C 118.712 1.45955 0.859854 0
M  V30 1217 O 119.918 1.6244 0.775447 0
M  V30 1218 H 116.293 0.749691 0.0588839 0
M  V30 1219 H 118.264 2.91743 -0.626762 0
M  V30 1220 C 117.013 3.29567 1.1082 0
M  V30 1221 H 116.336 3.95978 0.551492 0
M  V30 1222 H 117.776 3.93061 1.58995 0
M  V30 1223 C 116.235 2.56722 2.18164 0
M  V30 1224 O 116.765 2.34842 3.25902 0
M  V30 1225 N 114.971 2.16861 1.93442 0
M  V30 1226 H 114.518 2.34855 1.05834 0
M  V30 1227 H 114.476 1.68444 2.65469 0
M  V30 1228 N 118.248 0.346503 1.53744 0
M  V30 1229 C 119.473 -0.253074 2.0585 0
M  V30 1230 C 119.898 -1.43202 1.21962 0
M  V30 1231 O 119.256 -1.79783 0.234073 0
M  V30 1232 C 119.304 -0.643193 3.54817 0
M  V30 1233 O 118.408 -1.74286 3.73762 0
M  V30 1234 H 117.749 -0.0413583 0.662711 0
M  V30 1235 H 120.279 0.501574 1.98357 0
M  V30 1236 H 120.289 -0.919526 3.97503 0
M  V30 1237 H 118.964 0.218966 4.15323 0
M  V30 1238 H 117.541 -1.46356 3.42979 0
M  V30 1239 N 119.726 -1.57421 0.075193 0
M  V30 1240 C 120.658 -2.09904 -0.920483 0
M  V30 1241 C 121.671 -1.03191 -1.25918 0
M  V30 1242 O 122.86 -1.30695 -1.21577 0
M  V30 1243 C 119.96 -2.54726 -2.23534 0
M  V30 1244 C 119.133 -3.8505 -2.07498 0
M  V30 1245 C 118.192 -4.15929 -3.22319 0
M  V30 1246 O 117.218 -4.85474 -2.9716 0
M  V30 1247 N 118.42 -3.69745 -4.47514 0
M  V30 1248 H 121.185 -2.95954 -0.472359 0
M  V30 1249 H 118.746 -1.61523 -0.110444 0
M  V30 1250 H 120.738 -2.72443 -2.9926 0
M  V30 1251 H 119.308 -1.73795 -2.59835 0
M  V30 1252 H 118.528 -3.76679 -1.16219 0
M  V30 1253 H 119.816 -4.70348 -1.94038 0
M  V30 1254 H 119.214 -3.13569 -4.7084 0
M  V30 1255 H 117.771 -3.92655 -5.20255 0
M  V30 1256 N 121.204 0.198386 -1.56346 0
M  V30 1257 C 122.481 0.944982 -1.71258 0
M  V30 1258 C 122.861 2.0151 -0.629048 0
M  V30 1259 O 122.209 2.25639 0.360473 0
M  V30 1260 C 122.419 1.5344 -3.1346 0
M  V30 1261 C 123.767 2.01778 -3.73591 0
M  V30 1262 O 124.791 1.63288 -3.16568 0
M  V30 1263 O 123.65 2.72594 -4.73661 0
M  V30 1264 H 120.744 0.442939 -0.69838 0
M  V30 1265 H 123.29 0.188342 -1.68652 0
M  V30 1266 H 122.062 0.762869 -3.83792 0
M  V30 1267 H 121.685 2.35596 -3.20282 0
M  V30 1268 N 122.682 1.50554 0.465978 0
M  V30 1269 C 124.093 1.54599 1.04671 0
M  V30 1270 C 124.444 0.352488 1.93008 0
M  V30 1271 O 123.569 -0.534044 2.09707 0
M  V30 1272 C 124.164 2.80166 1.90505 0
M  V30 1273 C 122.723 2.86876 2.43678 0
M  V30 1274 C 121.87 2.48947 1.22151 0
M  V30 1275 H 124.821 1.56744 0.248384 0
M  V30 1276 H 124.842 2.62311 2.75633 0
M  V30 1277 H 124.354 3.67013 1.26186 0
M  V30 1278 H 122.455 2.04393 3.11536 0
M  V30 1279 H 122.568 3.89885 2.78436 0
M  V30 1280 H 120.932 2.01498 1.5579 0
M  V30 1281 H 121.715 3.38107 0.594866 0
M  V30 1282 N 124.16 -0.719506 1.40217 0
M  V30 1283 C 125.39 -1.50646 1.41384 0
M  V30 1284 C 125.798 -1.89197 0.0107743 0
M  V30 1285 O 125.141 -1.55709 -0.974708 0
M  V30 1286 C 125.203 -2.81405 2.23722 0
M  V30 1287 C 124.867 -2.65199 3.72181 0
M  V30 1288 C 125.864 -2.32717 4.64907 0
M  V30 1289 C 123.549 -2.81586 4.1595 0
M  V30 1290 C 125.543 -2.16827 5.99387 0
M  V30 1291 C 123.23 -2.65313 5.50502 0
M  V30 1292 C 124.228 -2.32981 6.42035 0
M  V30 1293 O 123.916 -2.16827 7.74107 0
M  V30 1294 H 123.648 -0.471606 0.484318 0
M  V30 1295 H 126.202 -0.895456 1.84853 0
M  V30 1296 H 124.432 -3.44823 1.75026 0
M  V30 1297 H 126.121 -3.43102 2.16878 0
M  V30 1298 H 126.887 -2.19694 4.32388 0
M  V30 1299 H 122.766 -3.0574 3.45027 0
M  V30 1300 H 126.31 -1.91513 6.70797 0
M  V30 1301 H 122.207 -2.7792 5.82607 0
M  V30 1302 H 122.975 -2.31778 7.84998 0
M  V30 1303 N 125.638 -1.25649 -0.95132 0
M  V30 1304 C 126.588 -1.03004 -2.03406 0
M  V30 1305 C 127.572 0.034187 -1.60864 0
M  V30 1306 O 128.764 -0.181549 -1.76066 0
M  V30 1307 C 125.893 -0.654255 -3.37008 0
M  V30 1308 C 124.979 -1.75542 -3.86065 0
M  V30 1309 N 125.37 -2.99113 -4.07879 0
M  V30 1310 C 123.668 -1.63669 -4.14884 0
M  V30 1311 C 124.369 -3.70611 -4.48356 0
M  V30 1312 N 123.345 -2.98247 -4.54477 0
M  V30 1313 H 127.147 -1.96813 -2.1827 0
M  V30 1314 H 124.661 -1.16017 -1.13639 0
M  V30 1315 H 126.658 -0.473206 -4.14206 0
M  V30 1316 H 125.318 0.276468 -3.23521 0
M  V30 1317 H 126.329 -3.35124 -3.94857 0
M  V30 1318 H 123.006 -0.775161 -4.10241 0
M  V30 1319 H 124.396 -4.76695 -4.73509 0
M  V30 1320 N 127.117 1.15442 -1.07289 0
M  V30 1321 C 128.027 2.23786 -0.704057 0
M  V30 1322 C 129.043 1.7166 0.284413 0
M  V30 1323 O 130.219 2.00972 0.131205 0
M  V30 1324 C 127.284 3.46535 -0.106792 0
M  V30 1325 C 126.345 4.13654 -1.14842 0
M  V30 1326 C 125.578 5.30544 -0.57956 0
M  V30 1327 O 125.801 5.67187 0.604585 0
M  V30 1328 O 124.735 5.87154 -1.32414 0
M  V30 1329 H 128.561 2.57664 -1.60757 0
M  V30 1330 H 126.146 1.23152 -0.845803 0
M  V30 1331 H 128.028 4.20804 0.224048 0
M  V30 1332 H 126.703 3.14407 0.770049 0
M  V30 1333 H 125.61 3.4131 -1.5316 0
M  V30 1334 H 126.943 4.49861 -1.99714 0
M  V30 1335 N 128.595 0.856903 1.32268 0
M  V30 1336 C 129.823 0.475439 2.01363 0
M  V30 1337 C 130.238 -0.928486 1.64392 0
M  V30 1338 O 129.595 -1.60624 0.866387 0
M  V30 1339 C 129.646 0.607545 3.56358 0
M  V30 1340 O 129.367 1.95617 3.92002 0
M  V30 1341 C 130.868 0.225382 4.42727 0
M  V30 1342 H 128.088 0.186636 0.644521 0
M  V30 1343 H 130.632 1.15446 1.68797 0
M  V30 1344 H 128.787 -0.0237719 3.87393 0
M  V30 1345 H 129.201 1.95455 4.86721 0
M  V30 1346 H 130.675 0.368813 5.50767 0
M  V30 1347 H 131.152 -0.834369 4.31202 0
M  V30 1348 H 131.758 0.831864 4.17085 0
M  V30 1349 N 130.073 -1.45103 0.615059 0
M  V30 1350 C 131.003 -2.33339 -0.0865619 0
M  V30 1351 C 131.984 -1.4727 -0.851209 0
M  V30 1352 O 133.169 -1.76026 -0.820281 0
M  V30 1353 C 130.299 -3.30095 -1.07956 0
M  V30 1354 C 129.253 -4.25858 -0.427628 0
M  V30 1355 C 128.579 -5.12361 -1.5294 0
M  V30 1356 C 129.879 -5.18165 0.655944 0
M  V30 1357 H 131.573 -2.92254 0.650224 0
M  V30 1358 H 129.119 -1.40532 0.314138 0
M  V30 1359 H 131.072 -3.90698 -1.57901 0
M  V30 1360 H 129.796 -2.69355 -1.84703 0
M  V30 1361 H 128.455 -3.66564 0.0510292 0
M  V30 1362 H 128.103 -4.47984 -2.28734 0
M  V30 1363 H 127.803 -5.77238 -1.09865 0
M  V30 1364 H 129.327 -5.75833 -2.03098 0
M  V30 1365 H 130.741 -5.72796 0.240257 0
M  V30 1366 H 129.138 -5.91559 1.00888 0
M  V30 1367 H 130.208 -4.60144 1.52957 0
M  V30 1368 N 131.551 -0.354651 -1.53558 0
M  V30 1369 C 132.499 0.512195 -2.26891 0
M  V30 1370 C 133.493 1.09263 -1.29452 0
M  V30 1371 O 134.699 1.03709 -1.47121 0
M  V30 1372 H 131.074 0.183878 -0.729173 0
M  V30 1373 H 133.045 -0.128202 -2.98124 0
M  V30 1374 C 131.794 1.64563 -3.06291 0
M  V30 1375 H 131.117 1.20829 -3.81104 0
M  V30 1376 H 132.557 2.22711 -3.60799 0
M  V30 1377 C 131.016 2.58158 -2.16462 0
M  V30 1378 O 131.546 3.60695 -1.76811 0
M  V30 1379 N 129.752 2.27096 -1.81317 0
M  V30 1380 H 129.299 1.43751 -2.1376 0
M  V30 1381 H 129.257 2.89975 -1.21498 0
M  V30 1382 N 133.029 1.57378 -0.0835403 0
M  V30 1383 C 134.44 1.81261 0.447358 0
M  V30 1384 C 134.791 0.998331 1.68902 0
M  V30 1385 O 133.916 0.224282 2.15235 0
M  V30 1386 C 134.511 3.28767 0.818386 0
M  V30 1387 C 133.07 3.53455 1.29409 0
M  V30 1388 C 132.217 2.75831 0.285024 0
M  V30 1389 H 135.168 1.5566 -0.309115 0
M  V30 1390 H 135.189 3.41459 1.67887 0
M  V30 1391 H 134.701 3.88006 -0.0855019 0
M  V30 1392 H 132.802 2.99534 2.21608 0
M  V30 1393 H 132.915 4.62128 1.2639 0
M  V30 1394 H 131.279 2.42947 0.764767 0
M  V30 1395 H 132.062 3.37813 -0.611341 0
M  V30 1396 N 134.507 -0.190092 1.56449 0
M  V30 1397 C 135.784 -0.935886 1.71757 0
M  V30 1398 C 136.164 -2.01173 0.639726 0
M  V30 1399 O 135.512 -2.25827 -0.348502 0
M  V30 1400 C 135.722 -1.51775 3.1427 0
M  V30 1401 C 137.07 -1.99794 3.74656 0
M  V30 1402 O 138.094 -1.61607 3.1743 0
M  V30 1403 O 136.953 -2.70079 4.751 0
M  V30 1404 H 134.047 -0.439229 0.700719 0
M  V30 1405 H 136.593 -0.179395 1.68749 0
M  V30 1406 H 135.365 -0.742505 3.84191 0
M  V30 1407 H 134.988 -2.33894 3.21527 0
M  V30 1408 N 135.985 -1.50799 -0.457987 0
M  V30 1409 C 137.21 -1.66496 -1.23668 0
M  V30 1410 C 137.635 -0.353288 -1.84752 0
M  V30 1411 O 136.993 0.684346 -1.67888 0
M  V30 1412 C 137.041 -2.76763 -2.3116 0
M  V30 1413 O 136.145 -2.38928 -3.36136 0
M  V30 1414 H 135.486 -0.555828 -0.363252 0
M  V30 1415 H 138.016 -1.9725 -0.543474 0
M  V30 1416 H 138.026 -3.00232 -2.76269 0
M  V30 1417 H 136.701 -3.71954 -1.86073 0
M  V30 1418 H 135.278 -2.25953 -2.96647 0
M  V30 1419 N 137.463 0.71206 -1.40597 0
M  V30 1420 C 138.413 1.81783 -1.37619 0
M  V30 1421 C 139.397 1.58896 -0.253162 0
M  V30 1422 O 140.589 1.70009 -0.492547 0
M  V30 1423 C 137.718 3.19944 -1.24462 0
M  V30 1424 C 136.804 3.48582 -2.4156 0
M  V30 1425 N 137.195 3.48016 -3.67041 0
M  V30 1426 C 135.493 3.79056 -2.35016 0
M  V30 1427 C 136.194 3.75096 -4.44609 0
M  V30 1428 N 135.17 3.94022 -3.74497 0
M  V30 1429 H 138.972 1.79683 -2.32575 0
M  V30 1430 H 136.486 0.91134 -1.34419 0
M  V30 1431 H 138.483 3.99133 -1.20411 0
M  V30 1432 H 137.143 3.23267 -0.304762 0
M  V30 1433 H 138.154 3.28782 -4.00153 0
M  V30 1434 H 134.831 3.89848 -1.49415 0
M  V30 1435 H 136.221 3.80934 -5.53479 0
M  V30 1436 N 138.941 1.26152 0.944643 0
M  V30 1437 C 139.871 1.09902 2.06019 0
M  V30 1438 C 140.852 0.00519538 1.70099 0
M  V30 1439 O 142.037 0.176583 1.93396 0
M  V30 1440 C 139.167 0.727562 3.39594 0
M  V30 1441 C 138.121 1.77274 3.89561 0
M  V30 1442 C 137.447 1.25569 5.19747 0
M  V30 1443 C 138.747 3.17357 4.14827 0
M  V30 1444 H 140.441 2.03217 2.19871 0
M  V30 1445 H 137.987 0.978452 1.05652 0
M  V30 1446 H 139.94 0.600777 4.17095 0
M  V30 1447 H 138.664 -0.241287 3.25707 0
M  V30 1448 H 137.323 1.88814 3.14237 0
M  V30 1449 H 136.971 0.276783 5.02238 0
M  V30 1450 H 136.671 1.95433 5.54148 0
M  V30 1451 H 138.195 1.1415 5.99835 0
M  V30 1452 H 139.609 3.08914 4.82954 0
M  V30 1453 H 138.006 3.84781 4.60504 0
M  V30 1454 H 139.076 3.63673 3.20734 0
M  V30 1455 N 140.419 -1.14872 1.07899 0
M  V30 1456 C 141.668 -1.85135 0.800499 0
M  V30 1457 C 141.981 -1.83547 -0.676014 0
M  V30 1458 O 143.187 -2.49548 -1.06948 0
M  V30 1459 C 141.643 -3.3231 1.38197 0
M  V30 1460 C 141.251 -3.42329 2.8899 0
M  V30 1461 C 142.995 -4.0772 1.18174 0
M  V30 1462 C 140.902 -4.83684 3.403 0
M  V30 1463 H 139.832 -0.693563 0.29578 0
M  V30 1464 H 142.483 -1.29532 1.29976 0
M  V30 1465 H 140.865 -3.87618 0.810431 0
M  V30 1466 H 142.039 -2.97097 3.52236 0
M  V30 1467 H 140.354 -2.80369 3.07867 0
M  V30 1468 H 142.951 -5.12049 1.5398 0
M  V30 1469 H 143.294 -4.16124 0.12117 0
M  V30 1470 H 143.827 -3.58696 1.71994 0
M  V30 1471 H 140.566 -4.80465 4.45907 0
M  V30 1472 H 140.086 -5.29474 2.81811 0
M  V30 1473 H 141.765 -5.52558 3.36584 0
M  V30 1474 N 141.898 -0.863906 -1.31812 0
M  V30 1475 C 142.808 -0.318461 -2.32428 0
M  V30 1476 C 143.824 0.568496 -1.64451 0
M  V30 1477 O 145 0.46666 -1.95919 0
M  V30 1478 C 142.065 0.476355 -3.43412 0
M  V30 1479 C 141.126 -0.43784 -4.27061 0
M  V30 1480 C 140.359 0.319138 -5.32745 0
M  V30 1481 O 140.582 1.54799 -5.48993 0
M  V30 1482 O 139.516 -0.319861 -6.01049 0
M  V30 1483 H 143.342 -1.15229 -2.80991 0
M  V30 1484 H 140.927 -0.627103 -1.35602 0
M  V30 1485 H 142.809 0.927156 -4.11074 0
M  V30 1486 H 141.484 1.28683 -2.97022 0
M  V30 1487 H 140.391 -0.937013 -3.62175 0
M  V30 1488 H 141.724 -1.21375 -4.77 0
M  V30 1489 N 143.376 1.44774 -0.622745 0
M  V30 1490 C 144.324 2.32387 0.0994683 0
M  V30 1491 C 145.318 1.46859 0.844326 0
M  V30 1492 O 146.524 1.63254 0.758174 0
M  V30 1493 H 142.899 0.750273 0.0509291 0
M  V30 1494 H 144.87 2.91062 -0.65767 0
M  V30 1495 C 143.619 3.30723 1.07319 0
M  V30 1496 H 142.942 3.96541 0.509462 0
M  V30 1497 H 144.382 3.94725 1.54817 0
M  V30 1498 C 142.841 2.59021 2.15429 0
M  V30 1499 O 143.371 2.38286 3.23393 0
M  V30 1500 N 141.577 2.189 1.91131 0
M  V30 1501 H 141.124 2.35964 1.03337 0
M  V30 1502 H 141.082 1.71251 2.63668 0
M  V30 1503 N 144.854 0.36279 1.53368 0
M  V30 1504 C 146.1 -0.228113 2.01513 0
M  V30 1505 C 146.433 -1.48648 1.2497 0
M  V30 1506 O 145.708 -1.91459 0.342616 0
M  V30 1507 C 145.991 -0.522884 3.56284 0
M  V30 1508 C 145.844 0.74892 4.43521 0
M  V30 1509 C 147.163 -1.32461 4.19693 0
M  V30 1510 H 144.282 -0.0814343 0.732487 0
M  V30 1511 H 146.924 0.48713 1.83649 0
M  V30 1512 H 145.074 -1.1322 3.71636 0
M  V30 1513 H 146.746 1.38648 4.39971 0
M  V30 1514 H 144.989 1.36986 4.11603 0
M  V30 1515 H 145.66 0.497667 5.49752 0
M  V30 1516 H 148.136 -0.809203 4.08156 0
M  V30 1517 H 147.012 -1.49961 5.28018 0
M  V30 1518 H 147.273 -2.33232 3.75573 0
M  V30 1519 N 146.332 -1.57332 0.0918853 0
M  V30 1520 C 147.578 -1.94524 -0.573425 0
M  V30 1521 C 147.911 -0.973578 -1.68033 0
M  V30 1522 O 147.186 -0.00609226 -1.94499 0
M  V30 1523 C 147.469 -3.41858 -1.13161 0
M  V30 1524 C 147.322 -4.4979 -0.0299747 0
M  V30 1525 C 148.641 -3.90435 -2.03098 0
M  V30 1526 H 145.76 -0.70734 -0.206975 0
M  V30 1527 H 148.402 -1.89309 0.161942 0
M  V30 1528 H 146.552 -3.46433 -1.7583 0
M  V30 1529 H 148.224 -4.57327 0.604112 0
M  V30 1530 H 146.467 -4.291 0.636833 0
M  V30 1531 H 147.138 -5.50069 -0.461287 0
M  V30 1532 H 149.614 -3.87992 -1.50338 0
M  V30 1533 H 148.49 -4.94097 -2.39081 0
M  V30 1534 H 148.751 -3.29541 -2.94712 0
M  V30 1535 N 147.81 0.181792 -1.56548 0
M  V30 1536 C 149.038 0.915947 -1.85521 0
M  V30 1537 C 149.453 1.76282 -0.676016 0
M  V30 1538 O 148.81 1.79012 0.355077 0
M  V30 1539 C 148.861 1.80126 -3.13427 0
M  V30 1540 O 148.582 0.988562 -4.26801 0
M  V30 1541 C 150.083 2.64597 -3.55673 0
M  V30 1542 H 147.303 0.26661 -0.61576 0
M  V30 1543 H 149.847 0.185039 -2.03661 0
M  V30 1544 H 148.002 2.48563 -2.97145 0
M  V30 1545 H 148.416 1.59308 -4.99721 0
M  V30 1546 H 149.89 3.2235 -4.48101 0
M  V30 1547 H 150.367 3.38958 -2.79292 0
M  V30 1548 H 150.973 2.0151 -3.74532 0
M  V30 1549 N 149.288 1.51039 0.449983 0
M  V30 1550 C 150.516 1.66869 1.2232 0
M  V30 1551 C 150.931 0.360727 1.85322 0
M  V30 1552 O 150.288 -0.659531 1.70166 0
M  V30 1553 C 150.339 2.77524 2.31652 0
M  V30 1554 O 150.06 4.03252 1.7123 0
M  V30 1555 C 151.561 3.04512 3.2216 0
M  V30 1556 H 148.781 0.560326 0.369155 0
M  V30 1557 H 151.325 1.97385 0.534719 0
M  V30 1558 H 149.48 2.49642 2.96239 0
M  V30 1559 H 149.894 4.64609 2.43389 0
M  V30 1560 H 151.368 3.85551 3.95038 0
M  V30 1561 H 151.845 2.16415 3.8218 0
M  V30 1562 H 152.451 3.34005 2.63288 0
M  V30 1563 N 150.766 -0.704594 1.40972 0
M  V30 1564 C 152.013 -1.46458 1.39844 0
M  V30 1565 C 152.341 -1.94499 0.00447594 0
M  V30 1566 O 151.596 -1.69275 -0.982057 0
M  V30 1567 C 151.895 -2.698 2.34399 0
M  V30 1568 C 151.561 -2.40464 3.81429 0
M  V30 1569 C 150.223 -2.32174 4.21484 0
M  V30 1570 C 152.575 -2.16086 4.74296 0
M  V30 1571 C 149.903 -1.97589 5.52427 0
M  V30 1572 C 152.255 -1.83011 6.05549 0
M  V30 1573 C 150.919 -1.7321 6.44635 0
M  V30 1574 H 150.189 -0.535927 0.511725 0
M  V30 1575 H 152.836 -0.806124 1.73706 0
M  V30 1576 H 151.141 -3.40536 1.93759 0
M  V30 1577 H 152.838 -3.27919 2.30804 0
M  V30 1578 H 149.428 -2.47808 3.49699 0
M  V30 1579 H 153.612 -2.2144 4.4416 0
M  V30 1580 H 148.868 -1.88547 5.81601 0
M  V30 1581 H 153.042 -1.63164 6.77016 0
M  V30 1582 H 150.669 -1.46179 7.46013 0
M  V30 1583 N 152.244 -1.26651 -0.937939 0
M  V30 1584 C 153.207 -1.08546 -2.01867 0
M  V30 1585 C 154.207 -0.0327327 -1.60767 0
M  V30 1586 O 155.397 -0.276427 -1.71993 0
M  V30 1587 C 152.529 -0.651711 -3.34613 0
M  V30 1588 H 153.722 -2.04502 -2.1936 0
M  V30 1589 H 151.275 -1.09294 -1.11734 0
M  V30 1590 H 152.01 0.309696 -3.22818 0
M  V30 1591 H 151.795 -1.41189 -3.65798 0
M  V30 1592 H 153.285 -0.546973 -4.14002 0
M  V30 1593 N 153.722 1.14298 -1.08507 0
M  V30 1594 C 155.133 1.66926 -0.836227 0
M  V30 1595 C 155.484 1.85576 0.63686 0
M  V30 1596 O 154.609 1.56767 1.49175 0
M  V30 1597 C 155.204 3.03219 -1.51142 0
M  V30 1598 C 153.763 3.52876 -1.30979 0
M  V30 1599 C 152.91 2.2833 -1.57356 0
M  V30 1600 H 155.861 0.983491 -1.24552 0
M  V30 1601 H 155.882 3.68726 -0.939211 0
M  V30 1602 H 155.394 2.89612 -2.58353 0
M  V30 1603 H 153.495 3.71703 -0.258429 0
M  V30 1604 H 153.608 4.33586 -2.03814 0
M  V30 1605 H 151.972 2.34454 -0.995164 0
M  V30 1606 H 152.755 2.17298 -2.65775 0
M  V30 1607 N 155.201 0.870884 1.31352 0
M  V30 1608 C 156.149 0.316445 2.30437 0
M  V30 1609 C 157.143 -0.568965 1.59559 0
M  V30 1610 O 158.349 -0.454964 1.74155 0
M  V30 1611 H 154.724 0.0836521 0.747333 0
M  V30 1612 H 156.695 1.16606 2.74673 0
M  V30 1613 C 155.444 -0.46635 3.44558 0
M  V30 1614 H 154.767 0.205687 3.99271 0
M  V30 1615 H 156.207 -0.819614 4.16003 0
M  V30 1616 C 154.666 -1.65797 2.9328 0
M  V30 1617 O 155.196 -2.75728 2.92125 0
M  V30 1618 N 153.402 -1.49041 2.4947 0
M  V30 1619 H 152.949 -0.59612 2.50608 0
M  V30 1620 H 152.907 -2.28911 2.15516 0
M  V30 1621 N 156.679 -1.44442 0.630414 0
M  V30 1622 C 158.095 -1.56832 0.295973 0
M  V30 1623 C 158.295 -1.61806 -1.20088 0
M  V30 1624 O 157.351 -1.5607 -1.9849 0
M  V30 1625 C 158.664 -2.84031 0.987264 0
M  V30 1626 C 160.212 -2.97742 0.96534 0
M  V30 1627 C 160.687 -4.27743 1.63708 0
M  V30 1628 N 162.178 -4.34555 1.60364 0
M  V30 1629 C 162.913 -5.33862 2.09234 0
M  V30 1630 N 162.409 -6.39578 2.66292 0
M  V30 1631 N 164.202 -5.25366 1.99867 0
M  V30 1632 H 156.353 -1.39457 1.60205 0
M  V30 1633 H 158.616 -0.668237 0.672431 0
M  V30 1634 H 158.322 -2.86338 2.04215 0
M  V30 1635 H 158.196 -3.73534 0.524588 0
M  V30 1636 H 160.583 -2.94989 -0.0810639 0
M  V30 1637 H 160.664 -2.09589 1.4665 0
M  V30 1638 H 160.308 -4.31255 2.68293 0
M  V30 1639 H 160.238 -5.14752 1.11076 0
M  V30 1640 H 162.729 -3.58772 1.18705 0
M  V30 1641 H 163.042 -7.11637 3.01317 0
M  V30 1642 H 161.387 -6.40265 2.70343 0
M  V30 1643 H 164.578 -4.41688 1.55013 0
M  V30 1644 H 164.751 -6.02606 2.38265 0
M  V30 1645 N 158.157 -0.370918 -1.53173 0
M  V30 1646 C 159.087 0.464847 -2.28826 0
M  V30 1647 C 160.068 1.07936 -1.31468 0
M  V30 1648 O 161.253 1.0956 -1.60344 0
M  V30 1649 C 158.383 1.60196 -3.08147 0
M  V30 1650 C 157.337 1.11443 -4.13237 0
M  V30 1651 C 156.663 2.3422 -4.80672 0
M  V30 1652 C 157.963 0.195384 -5.21934 0
M  V30 1653 H 159.657 -0.166329 -2.98938 0
M  V30 1654 H 157.203 -0.0814359 -1.4377 0
M  V30 1655 H 159.156 2.19332 -3.59822 0
M  V30 1656 H 157.88 2.26045 -2.35735 0
M  V30 1657 H 156.539 0.545727 -3.62515 0
M  V30 1658 H 156.187 2.98537 -4.04827 0
M  V30 1659 H 155.887 2.02269 -5.51689 0
M  V30 1660 H 157.411 2.94032 -5.35143 0
M  V30 1661 H 158.825 0.694375 -5.69079 0
M  V30 1662 H 157.222 -0.0335027 -6.00091 0
M  V30 1663 H 158.292 -0.760961 -4.78892 0
M  V30 1664 N 159.635 1.57281 -0.100228 0
M  V30 1665 C 160.582 2.14305 0.856858 0
M  V30 1666 C 161.552 1.06296 1.27634 0
M  V30 1667 O 162.737 1.34109 1.35718 0
M  V30 1668 C 159.877 2.73184 2.10866 0
M  V30 1669 C 158.99 3.95442 1.73925 0
M  V30 1670 C 158.125 4.42468 2.93931 0
M  V30 1671 C 157.164 5.57303 2.5314 0
M  V30 1672 N 156.301 5.99158 3.65997 0
M  V30 1673 H 161.141 2.95772 0.363726 0
M  V30 1674 H 158.678 1.46139 0.167858 0
M  V30 1675 H 160.636 3.05442 2.84185 0
M  V30 1676 H 159.266 1.94437 2.57671 0
M  V30 1677 H 158.318 3.69464 0.905554 0
M  V30 1678 H 159.63 4.78769 1.39935 0
M  V30 1679 H 158.784 4.76537 3.75496 0
M  V30 1680 H 157.523 3.58052 3.31134 0
M  V30 1681 H 156.528 5.22857 1.70003 0
M  V30 1682 H 157.753 6.43471 2.17075 0
M  V30 1683 H 155.699 5.17687 4.02909 0
M  V30 1684 H 155.616 6.77295 3.35869 0
M  V30 1685 H 156.884 6.3786 4.48057 0
M  V30 1686 N 161.113 -0.173488 1.56642 0
M  V30 1687 C 162.362 -0.888758 1.81063 0
M  V30 1688 C 162.675 -1.83506 0.67712 0
M  V30 1689 O 163.881 -2.59254 0.806206 0
M  V30 1690 C 162.337 -1.63091 3.20826 0
M  V30 1691 C 161.945 -0.728357 4.4204 0
M  V30 1692 C 163.689 -2.33454 3.54541 0
M  V30 1693 C 161.596 -1.47062 5.72823 0
M  V30 1694 H 160.526 -0.335618 0.675186 0
M  V30 1695 H 163.177 -0.141712 1.82952 0
M  V30 1696 H 161.559 -2.42263 3.13248 0
M  V30 1697 H 162.733 0.0262449 4.60793 0
M  V30 1698 H 161.048 -0.134492 4.16183 0
M  V30 1699 H 163.645 -2.89578 4.49498 0
M  V30 1700 H 163.988 -3.08687 2.79317 0
M  V30 1701 H 164.521 -1.61227 3.63663 0
M  V30 1702 H 161.26 -0.760658 6.51072 0
M  V30 1703 H 160.78 -2.1986 5.58052 0
M  V30 1704 H 162.459 -2.01868 6.14702 0
M  V30 1705 N 162.591 -1.51276 -0.441967 0
M  V30 1706 C 163.837 -1.6492 -1.1905 0
M  V30 1707 C 164.192 -0.358731 -1.89026 0
M  V30 1708 O 163.485 0.645193 -1.8041 0
M  V30 1709 C 163.679 -2.78746 -2.23686 0
M  V30 1710 C 163.508 -4.18737 -1.63979 0
M  V30 1711 C 162.278 -4.84739 -1.42674 0
M  V30 1712 C 164.476 -5.01988 -1.11858 0
M  V30 1713 N 162.458 -6.08858 -0.785159 0
M  V30 1714 C 163.829 -6.17071 -0.601989 0
M  V30 1715 C 165.884 -4.87551 -1.0099 0
M  V30 1716 C 164.587 -7.19299 0.0126012 0
M  V30 1717 C 166.613 -5.89983 -0.409206 0
M  V30 1718 C 165.975 -7.04333 0.0968651 0
M  V30 1719 H 162.074 -0.657416 -0.423471 0
M  V30 1720 H 164.658 -1.8849 -0.48782 0
M  V30 1721 H 162.829 -2.56848 -2.91348 0
M  V30 1722 H 164.561 -2.81595 -2.90666 0
M  V30 1723 H 161.316 -4.42528 -1.68719 0
M  V30 1724 H 161.74 -6.75282 -0.481942 0
M  V30 1725 H 166.382 -3.99401 -1.38703 0
M  V30 1726 H 164.1 -8.071 0.401879 0
M  V30 1727 H 167.686 -5.8088 -0.327079 0
M  V30 1728 H 166.566 -7.82238 0.554373 0
M  V30 1729 N 164.069 0.697108 -1.41344 0
M  V30 1730 C 165.315 1.45796 -1.41828 0
M  V30 1731 C 165.67 1.92382 -0.0261743 0
M  V30 1732 O 164.963 1.66522 0.947688 0
M  V30 1733 C 165.157 2.68553 -2.35826 0
M  V30 1734 C 164.986 2.33975 -3.84039 0
M  V30 1735 C 163.756 2.24414 -4.52732 0
M  V30 1736 C 165.954 1.97048 -4.75054 0
M  V30 1737 N 163.936 1.82705 -5.86082 0
M  V30 1738 C 165.307 1.66086 -5.9734 0
M  V30 1739 C 167.362 1.83845 -4.62715 0
M  V30 1740 C 166.065 1.23246 -7.08663 0
M  V30 1741 C 168.091 1.4241 -5.73998 0
M  V30 1742 C 167.453 1.12357 -6.95381 0
M  V30 1743 H 163.552 0.530859 -0.574206 0
M  V30 1744 H 166.136 0.806674 -1.77203 0
M  V30 1745 H 164.307 3.31404 -2.02549 0
M  V30 1746 H 166.039 3.35015 -2.2704 0
M  V30 1747 H 162.794 2.4276 -4.0665 0
M  V30 1748 H 163.218 1.64337 -6.56751 0
M  V30 1749 H 167.86 2.05734 -3.69369 0
M  V30 1750 H 165.578 1.00102 -8.01876 0
M  V30 1751 H 169.164 1.32746 -5.66454 0
M  V30 1752 H 168.044 0.807795 -7.80028 0
M  V30 1753 N 165.547 1.27147 0.931209 0
M  V30 1754 C 166.479 1.05364 2.03546 0
M  V30 1755 C 167.492 0.0108438 1.62796 0
M  V30 1756 O 168.681 0.25202 1.76712 0
M  V30 1757 C 165.781 0.575566 3.33977 0
M  V30 1758 C 164.954 1.68985 4.03439 0
M  V30 1759 C 164.013 1.20813 5.12143 0
M  V30 1760 O 163.039 1.90712 5.363 0
M  V30 1761 N 164.241 0.0618851 5.80467 0
M  V30 1762 H 167.006 2.00454 2.22796 0
M  V30 1763 H 164.567 1.18666 1.10136 0
M  V30 1764 H 166.559 0.237264 4.04004 0
M  V30 1765 H 165.129 -0.282016 3.11325 0
M  V30 1766 H 164.349 2.19861 3.27192 0
M  V30 1767 H 165.637 2.4378 4.46597 0
M  V30 1768 H 165.035 -0.521621 5.6329 0
M  V30 1769 H 163.592 -0.217264 6.51438 0
M  V30 1770 N 167.025 -1.13721 1.09112 0
M  V30 1771 C 168.25 -1.89314 0.847053 0
M  V30 1772 C 168.675 -1.78416 -0.595774 0
M  V30 1773 O 168.033 -1.12942 -1.41823 0
M  V30 1774 C 168.081 -3.3701 1.28284 0
M  V30 1775 O 167.185 -4.10054 0.439267 0
M  V30 1776 H 166.526 -0.588745 0.307044 0
M  V30 1777 H 169.056 -1.43902 1.45442 0
M  V30 1778 H 169.066 -3.87834 1.26683 0
M  V30 1779 H 167.741 -3.4426 2.33363 0
M  V30 1780 H 166.318 -3.69266 0.519312 0
M  V30 1781 N 168.503 -0.877838 -1.30888 0
M  V30 1782 C 169.413 -0.343096 -2.32078 0
M  V30 1783 C 170.429 0.551022 -1.65045 0
M  V30 1784 O 171.605 0.445854 -1.96403 0
M  V30 1785 C 168.67 0.439905 -3.43898 0
M  V30 1786 C 167.731 -0.483111 -4.26573 0
M  V30 1787 C 166.964 0.262616 -5.33053 0
M  V30 1788 O 167.187 1.48967 -5.50604 0
M  V30 1789 O 166.121 -0.383593 -6.00676 0
M  V30 1790 H 169.947 -1.18203 -2.79753 0
M  V30 1791 H 167.532 -0.64145 -1.34929 0
M  V30 1792 H 169.414 0.883504 -4.12034 0
M  V30 1793 H 168.089 1.25526 -2.98371 0
M  V30 1794 H 166.996 -0.975374 -3.61161 0
M  V30 1795 H 168.329 -1.26427 -4.75686 0
M  V30 1796 N 169.982 1.44106 -0.638065 0
M  V30 1797 C 170.93 2.3248 0.0748149 0
M  V30 1798 C 171.924 1.47746 0.828702 0
M  V30 1799 O 173.13 1.64049 0.740816 0
M  V30 1800 H 169.505 0.750771 0.0429686 0
M  V30 1801 H 171.476 2.90348 -0.688504 0
M  V30 1802 C 170.225 3.31843 1.03805 0
M  V30 1803 H 169.548 3.97059 0.467375 0
M  V30 1804 H 170.988 3.96345 1.50622 0
M  V30 1805 C 169.447 2.61291 2.1267 0
M  V30 1806 O 169.977 2.41702 3.20847 0
M  V30 1807 N 168.183 2.20915 1.88798 0
M  V30 1808 H 167.73 2.37047 1.00829 0
M  V30 1809 H 167.688 1.74038 2.61836 0
M  V30 1810 N 171.46 0.379036 1.52974 0
M  V30 1811 C 172.708 -0.206014 2.01047 0
M  V30 1812 C 173.029 -1.48175 1.26765 0
M  V30 1813 O 172.299 -1.92085 0.384743 0
M  V30 1814 H 170.879 -0.0791184 0.742798 0
M  V30 1815 H 173.541 0.508366 1.88153 0
M  V30 1816 H 172.637 -0.423501 3.09213 0
M  V30 1817 N 172.938 -1.57226 0.108567 0
M  V30 1818 C 174.184 -1.95121 -0.552761 0
M  V30 1819 C 174.517 -0.991345 -1.66991 0
M  V30 1820 O 173.792 -0.0267211 -1.94482 0
M  V30 1821 C 174.075 -3.43039 -1.09528 0
M  V30 1822 C 173.928 -4.49797 0.0177332 0
M  V30 1823 C 175.247 -3.92567 -1.98945 0
M  V30 1824 H 172.366 -0.709496 -0.199461 0
M  V30 1825 H 175.008 -1.89126 0.182011 0
M  V30 1826 H 173.158 -3.48279 -1.72146 0
M  V30 1827 H 174.83 -4.56661 0.652584 0
M  V30 1828 H 173.073 -4.284 0.682309 0
M  V30 1829 H 173.744 -5.50528 -0.402919 0
M  V30 1830 H 176.22 -3.89565 -1.46214 0
M  V30 1831 H 175.096 -4.96605 -2.33827 0
M  V30 1832 H 175.357 -3.32648 -2.91201 0
M  V30 1833 N 174.416 0.165178 -1.56732 0
M  V30 1834 C 175.326 1.22423 -2.00125 0
M  V30 1835 C 176.342 1.48084 -0.913619 0
M  V30 1836 O 177.518 1.60112 -1.22172 0
M  V30 1837 C 174.583 2.54197 -2.35764 0
M  V30 1838 C 173.644 2.36343 -3.58386 0
M  V30 1839 C 172.877 3.61834 -3.92316 0
M  V30 1840 O 173.1 4.67267 -3.27135 0
M  V30 1841 O 172.034 3.55579 -4.85641 0
M  V30 1842 H 175.86 0.885886 -2.90492 0
M  V30 1843 H 173.445 0.372518 -1.44681 0
M  V30 1844 H 175.327 3.3192 -2.59629 0
M  V30 1845 H 174.002 2.87598 -1.48557 0
M  V30 1846 H 172.909 1.56632 -3.39731 0
M  V30 1847 H 174.242 2.07865 -4.46154 0
M  V30 1848 N 175.894 1.51508 0.433938 0
M  V30 1849 C 176.842 1.73646 1.54757 0
M  V30 1850 C 177.836 0.602854 1.5831 0
M  V30 1851 O 179.042 0.784318 1.62014 0
M  V30 1852 H 175.417 0.548718 0.51421 0
M  V30 1853 H 177.388 2.66991 1.33261 0
M  V30 1854 C 176.137 1.88172 2.92381 0
M  V30 1855 H 175.46 2.74808 2.90381 0
M  V30 1856 H 176.9 2.07672 3.6966 0
M  V30 1857 C 175.359 0.64239 3.30719 0
M  V30 1858 O 175.889 -0.201362 4.01195 0
M  V30 1859 N 174.095 0.485489 2.86516 0
M  V30 1860 H 173.642 1.17318 2.29334 0
M  V30 1861 H 173.6 -0.342482 3.12529 0
M  V30 1862 N 177.372 -0.689602 1.41712 0
M  V30 1863 C 178.618 -1.45181 1.41599 0
M  V30 1864 C 178.951 -1.94181 0.0270081 0
M  V30 1865 O 178.226 -1.6993 -0.946265 0
M  V30 1866 C 178.509 -2.65945 2.42787 0
M  V30 1867 C 178.362 -2.22672 3.90816 0
M  V30 1868 C 179.681 -3.68149 2.41151 0
M  V30 1869 H 176.8 -0.526576 0.515642 0
M  V30 1870 H 179.442 -0.784947 1.73028 0
M  V30 1871 H 177.592 -3.2284 2.16116 0
M  V30 1872 H 179.264 -1.71058 4.28412 0
M  V30 1873 H 177.507 -1.54394 4.05395 0
M  V30 1874 H 178.178 -3.0935 4.57172 0
M  V30 1875 H 180.654 -3.2094 2.64834 0
M  V30 1876 H 179.53 -4.50248 3.13955 0
M  V30 1877 H 179.791 -4.18259 1.43221 0
M  V30 1878 N 178.85 -1.27639 -0.924453 0
M  V30 1879 C 180.078 -1.16989 -1.70649 0
M  V30 1880 C 180.493 0.272869 -1.86818 0
M  V30 1881 O 179.85 1.18549 -1.38753 0
M  V30 1882 C 179.901 -1.85229 -3.10439 0
M  V30 1883 O 179.622 -3.23868 -2.95028 0
M  V30 1884 C 181.123 -1.80746 -4.04779 0
M  V30 1885 H 178.343 -0.406595 -0.53378 0
M  V30 1886 H 180.887 -1.68569 -1.15778 0
M  V30 1887 H 179.042 -1.37545 -3.6216 0
M  V30 1888 H 179.456 -3.57889 -3.83426 0
M  V30 1889 H 180.93 -2.33101 -5.00368 0
M  V30 1890 H 181.407 -0.777499 -4.32263 0
M  V30 1891 H 182.013 -2.28059 -3.58984 0
M  V30 1892 N 180.328 1.1314 -1.09713 0
M  V30 1893 C 181.577 1.83838 -0.829851 0
M  V30 1894 C 181.89 1.84599 0.646728 0
M  V30 1895 O 183.096 2.51218 1.02965 0
M  V30 1896 C 181.552 3.30069 -1.43466 0
M  V30 1897 C 181.16 3.37688 -2.94399 0
M  V30 1898 C 182.904 4.05788 -1.24645 0
M  V30 1899 C 180.811 4.78209 -3.47952 0
M  V30 1900 H 179.741 0.68877 -0.306777 0
M  V30 1901 H 182.392 1.27448 -1.3202 0
M  V30 1902 H 180.774 3.8628 -0.871996 0
M  V30 1903 H 181.948 2.91456 -3.56918 0
M  V30 1904 H 180.263 2.75436 -3.12289 0
M  V30 1905 H 182.86 5.09535 -1.62107 0
M  V30 1906 H 183.203 4.15878 -0.187357 0
M  V30 1907 H 183.736 3.55915 -1.77678 0
M  V30 1908 H 180.475 4.73311 -4.53495 0
M  V30 1909 H 179.995 5.24924 -2.90198 0
M  V30 1910 H 181.674 5.47133 -3.45332 0
M  V30 1911 N 181.806 0.884767 1.30421 0
M  V30 1912 C 182.738 0.308655 2.27112 0
M  V30 1913 C 183.751 -0.536655 1.53701 0
M  V30 1914 O 184.94 -0.35624 1.74909 0
M  V30 1915 C 182.04 -0.579782 3.33904 0
M  V30 1916 C 181.213 0.236417 4.36761 0
M  V30 1917 C 180.272 -0.582482 5.22966 0
M  V30 1918 O 179.298 -0.00525502 5.692 0
M  V30 1919 N 180.5 -1.89163 5.48815 0
M  V30 1920 H 183.265 1.13964 2.77186 0
M  V30 1921 H 180.826 0.747731 1.43599 0
M  V30 1922 H 182.818 -1.13366 3.88497 0
M  V30 1923 H 181.388 -1.31144 2.83761 0
M  V30 1924 H 180.608 0.97174 3.82035 0
M  V30 1925 H 181.896 0.795924 5.02536 0
M  V30 1926 H 181.294 -2.38352 5.13035 0
M  V30 1927 H 179.851 -2.39296 6.06284 0
M  V30 1928 N 183.284 -1.43765 0.645699 0
M  V30 1929 C 184.214 -2.33471 -0.0370477 0
M  V30 1930 C 185.195 -1.49042 -0.819779 0
M  V30 1931 O 186.38 -1.77726 -0.782758 0
M  V30 1932 C 183.51 -3.32311 -1.0093 0
M  V30 1933 C 182.464 -4.2667 -0.337201 0
M  V30 1934 C 181.79 -5.1549 -1.42037 0
M  V30 1935 C 183.09 -5.16657 0.765706 0
M  V30 1936 H 184.784 -2.90809 0.712069 0
M  V30 1937 H 182.33 -1.39834 0.343876 0
M  V30 1938 H 184.283 -3.9396 -1.49578 0
M  V30 1939 H 183.007 -2.73213 -1.78948 0
M  V30 1940 H 181.666 -3.66374 0.128771 0
M  V30 1941 H 181.314 -4.52735 -2.1918 0
M  V30 1942 H 181.014 -5.79438 -0.975966 0
M  V30 1943 H 182.538 -5.80012 -1.90838 0
M  V30 1944 H 183.952 -5.72158 0.361702 0
M  V30 1945 H 182.349 -5.89286 1.13413 0
M  V30 1946 H 183.419 -4.56796 1.62683 0
M  V30 1947 N 184.763 -0.387143 -1.52771 0
M  V30 1948 C 186.04 0.253197 -1.93954 0
M  V30 1949 C 186.42 1.64545 -1.32243 0
M  V30 1950 O 185.768 2.23191 -0.489699 0
M  V30 1951 C 185.978 0.281722 -3.47861 0
M  V30 1952 C 187.326 0.511715 -4.21505 0
M  V30 1953 O 188.35 0.362023 -3.54356 0
M  V30 1954 O 187.209 0.804847 -5.40541 0
M  V30 1955 H 184.303 0.156845 -0.811991 0
M  V30 1956 H 186.849 -0.441494 -1.63856 0
M  V30 1957 H 185.621 -0.693571 -3.85104 0
M  V30 1958 H 185.244 1.02142 -3.84256 0
M  V30 1959 N 186.241 1.57166 -0.116904 0
M  V30 1960 C 187.171 2.18222 0.830759 0
M  V30 1961 C 188.152 1.12167 1.27877 0
M  V30 1962 O 189.337 1.40394 1.34176 0
M  V30 1963 C 186.467 2.77996 2.08172 0
M  V30 1964 C 185.421 3.89614 1.77157 0
M  V30 1965 C 184.747 4.36187 3.09265 0
M  V30 1966 C 186.047 5.1181 1.04151 0
M  V30 1967 H 187.741 2.97664 0.321992 0
M  V30 1968 H 185.287 1.4318 0.153434 0
M  V30 1969 H 187.24 3.19366 2.74924 0
M  V30 1970 H 185.964 1.9584 2.6137 0
M  V30 1971 H 184.623 3.48816 1.12796 0
M  V30 1972 H 184.271 3.50893 3.60393 0
M  V30 1973 H 183.971 5.11455 2.89288 0
M  V30 1974 H 185.495 4.80207 3.77139 0
M  V30 1975 H 186.909 5.50214 1.61052 0
M  V30 1976 H 185.306 5.92648 0.942762 0
M  V30 1977 H 186.376 4.84892 0.0279022 0
M  V30 1978 N 187.719 -0.156864 1.56817 0
M  V30 1979 C 188.629 -1.2136 2.00771 0
M  V30 1980 C 189.645 -1.47598 0.921459 0
M  V30 1981 O 190.821 -1.59462 1.2302 0
M  V30 1982 C 187.886 -2.52943 2.37109 0
M  V30 1983 C 186.947 -2.34439 3.59634 0
M  V30 1984 C 186.18 -3.59748 3.94229 0
M  V30 1985 O 186.403 -4.65526 3.29609 0
M  V30 1986 O 185.337 -3.52998 4.8752 0
M  V30 1987 H 189.163 -0.870468 2.90958 0
M  V30 1988 H 186.748 -0.36484 1.44877 0
M  V30 1989 H 188.63 -3.30538 2.61386 0
M  V30 1990 H 187.305 -2.86806 1.5008 0
M  V30 1991 H 186.212 -1.54828 3.40557 0
M  V30 1992 H 187.545 -2.05496 4.4725 0
M  V30 1993 N 189.197 -1.51736 -0.425897 0
M  V30 1994 C 190.16 -1.73271 -1.50032 0
M  V30 1995 C 191.16 -0.602639 -1.4908 0
M  V30 1996 O 192.35 -0.87033 -1.509 0
M  V30 1997 C 189.482 -1.79969 -2.89523 0
M  V30 1998 H 190.675 -2.69172 -1.32237 0
M  V30 1999 H 188.228 -1.41899 -0.65532 0
M  V30 2000 H 188.963 -0.859241 -3.1271 0
M  V30 2001 H 188.748 -2.62109 -2.91619 0
M  V30 2002 H 190.238 -1.9843 -3.67444 0
M  V30 2003 N 190.675 0.682077 -1.42076 0
M  V30 2004 C 191.585 1.82535 -1.47371 0
M  V30 2005 C 192.601 1.7017 -0.363079 0
M  V30 2006 O 193.777 1.91848 -0.612875 0
M  V30 2007 C 190.842 3.18624 -1.36674 0
M  V30 2008 C 189.903 3.42999 -2.58167 0
M  V30 2009 C 189.136 4.72595 -2.4797 0
M  V30 2010 O 189.359 5.50006 -1.5116 0
M  V30 2011 O 188.293 4.98054 -3.37974 0
M  V30 2012 H 192.119 1.81023 -2.43853 0
M  V30 2013 H 189.704 0.836887 -1.2376 0
M  V30 2014 H 191.586 3.99847 -1.33043 0
M  V30 2015 H 190.261 3.20789 -0.433138 0
M  V30 2016 H 189.168 2.61653 -2.67373 0
M  V30 2017 H 190.501 3.45659 -3.50401 0
M  V30 2018 N 192.153 1.28127 0.917671 0
M  V30 2019 C 193.4 1.15052 1.66641 0
M  V30 2020 C 193.728 -0.301677 1.92146 0
M  V30 2021 O 192.983 -1.23622 1.51711 0
M  V30 2022 C 193.282 1.89018 3.03327 0
M  V30 2023 C 192.948 3.38832 2.97496 0
M  V30 2024 C 191.61 3.79693 2.95613 0
M  V30 2025 C 193.962 4.34378 2.88036 0
M  V30 2026 C 191.29 5.14447 2.82066 0
M  V30 2027 C 193.642 5.69201 2.7603 0
M  V30 2028 C 192.306 6.09343 2.72502 0
M  V30 2029 H 191.576 0.421006 0.609783 0
M  V30 2030 H 194.223 1.58855 1.06945 0
M  V30 2031 H 192.528 1.37752 3.66785 0
M  V30 2032 H 194.225 1.76321 3.60156 0
M  V30 2033 H 190.815 3.06342 2.99754 0
M  V30 2034 H 194.999 4.03775 2.88581 0
M  V30 2035 H 190.255 5.44681 2.77728 0
M  V30 2036 H 194.429 6.42901 2.67678 0
M  V30 2037 H 192.056 7.13712 2.61762 0
M  V30 2038 N 193.631 -1.12557 1.10312 0
M  V30 2039 C 194.581 -2.16331 0.720076 0
M  V30 2040 C 195.565 -1.58616 -0.270115 0
M  V30 2041 O 196.757 -1.76823 -0.0790507 0
M  V30 2042 C 193.886 -3.42963 0.152113 0
M  V30 2043 C 192.972 -4.07663 1.16927 0
M  V30 2044 N 193.363 -4.47392 2.35953 0
M  V30 2045 C 191.661 -4.34425 1.0095 0
M  V30 2046 C 192.362 -4.97932 3.0073 0
M  V30 2047 N 191.338 -4.93358 2.28252 0
M  V30 2048 H 195.14 -2.44813 1.62616 0
M  V30 2049 H 192.654 -1.29449 0.980654 0
M  V30 2050 H 194.651 -4.16664 -0.14037 0
M  V30 2051 H 193.311 -3.1595 -0.748701 0
M  V30 2052 H 194.322 -4.39802 2.73486 0
M  V30 2053 H 190.999 -4.17177 0.164134 0
M  V30 2054 H 192.389 -5.38397 4.01969 0
M  V30 2055 N 195.109 -0.891671 -1.2995 0
M  V30 2056 C 196.356 -0.513501 -1.95881 0
M  V30 2057 C 196.684 0.938655 -1.70351 0
M  V30 2058 O 195.939 1.67936 -1.00478 0
M  V30 2059 C 196.238 -0.742868 -3.49594 0
M  V30 2060 C 195.904 -2.17114 -3.95186 0
M  V30 2061 C 194.566 -2.56169 -4.07346 0
M  V30 2062 C 196.918 -3.10162 -4.18866 0
M  V30 2063 C 194.246 -3.87469 -4.4055 0
M  V30 2064 C 196.598 -4.41001 -4.53542 0
M  V30 2065 C 195.262 -4.79941 -4.63911 0
M  V30 2066 H 194.532 -0.187903 -0.71678 0
M  V30 2067 H 197.179 -1.1288 -1.54694 0
M  V30 2068 H 195.484 -0.044586 -3.91775 0
M  V30 2069 H 197.181 -0.429767 -3.9869 0
M  V30 2070 H 193.771 -1.85801 -3.86233 0
M  V30 2071 H 197.955 -2.81206 -4.08946 0
M  V30 2072 H 193.211 -4.17371 -4.46779 0
M  V30 2073 H 197.385 -5.13133 -4.70815 0
M  V30 2074 H 195.012 -5.81719 -4.89395 0
M  V30 2075 N 196.587 1.43421 -0.653314 0
M  V30 2076 C 197.815 2.06163 -0.174491 0
M  V30 2077 C 198.23 1.48969 1.1599 0
M  V30 2078 O 197.587 0.621042 1.71608 0
M  V30 2079 C 197.638 3.61417 -0.0774865 0
M  V30 2080 O 197.359 4.16485 -1.35912 0
M  V30 2081 C 198.86 4.41235 0.427402 0
M  V30 2082 H 196.08 0.664946 -0.0899353 0
M  V30 2083 H 198.624 1.83924 -0.893988 0
M  V30 2084 H 196.779 3.82841 0.59257 0
M  V30 2085 H 197.193 5.10153 -1.21839 0
M  V30 2086 H 198.667 5.5021 0.44423 0
M  V30 2087 H 199.144 4.14268 1.45873 0
M  V30 2088 H 199.75 4.2478 -0.210167 0
M  V30 2089 N 198.065 0.39524 1.52563 0
M  V30 2090 C 199.015 -0.4541 2.23432 0
M  V30 2091 C 199.999 -1.02482 1.24042 0
M  V30 2092 O 201.191 -0.949938 1.49349 0
M  V30 2093 C 198.32 -1.57769 3.049 0
M  V30 2094 C 197.406 -1.01842 4.1169 0
M  V30 2095 N 197.797 -0.184613 5.05463 0
M  V30 2096 C 196.095 -1.29033 4.26927 0
M  V30 2097 C 196.796 0.125013 5.81566 0
M  V30 2098 N 195.772 -0.480498 5.41472 0
M  V30 2099 H 199.574 0.189413 2.93289 0
M  V30 2100 H 197.088 0.204877 1.61102 0
M  V30 2101 H 199.085 -2.19862 3.54212 0
M  V30 2102 H 197.745 -2.22397 2.36579 0
M  V30 2103 H 198.756 0.178602 5.17592 0
M  V30 2104 H 195.433 -1.93721 3.69836 0
M  V30 2105 H 196.823 0.800962 6.67109 0
M  V30 2106 N 199.544 -1.57102 0.125237 0
M  V30 2107 C 200.474 -2.18659 -0.819174 0
M  V30 2108 C 201.455 -1.12843 -1.27281 0
M  V30 2109 O 202.64 -1.41104 -1.33429 0
M  V30 2110 C 199.77 -2.79096 -2.06695 0
M  V30 2111 C 198.724 -3.90548 -1.75088 0
M  V30 2112 C 198.05 -4.37821 -3.06948 0
M  V30 2113 C 199.35 -5.12356 -1.01435 0
M  V30 2114 H 201.044 -2.9783 -0.306202 0
M  V30 2115 H 198.59 -1.4326 -0.145839 0
M  V30 2116 H 200.543 -3.2082 -2.73226 0
M  V30 2117 H 199.267 -1.97223 -2.60328 0
M  V30 2118 H 197.926 -3.49409 -1.10944 0
M  V30 2119 H 197.574 -3.52799 -3.58527 0
M  V30 2120 H 197.274 -5.12982 -2.86571 0
M  V30 2121 H 198.798 -4.822 -3.74587 0
M  V30 2122 H 200.212 -5.5106 -1.58132 0
M  V30 2123 H 198.609 -5.9314 -0.911319 0
M  V30 2124 H 199.679 -4.849 -0.00218681 0
M  V30 2125 N 201.022 0.148545 -1.56898 0
M  V30 2126 C 202.271 0.85984 -1.82454 0
M  V30 2127 C 202.584 1.82406 -0.706229 0
M  V30 2128 O 203.79 2.57938 -0.847349 0
M  V30 2129 C 202.246 1.57967 -3.2338 0
M  V30 2130 C 201.854 0.65794 -4.43142 0
M  V30 2131 C 203.598 2.27784 -3.58211 0
M  V30 2132 C 201.505 1.3793 -5.75091 0
M  V30 2133 H 200.435 0.324834 -0.68044 0
M  V30 2134 H 203.086 0.112588 -1.83154 0
M  V30 2135 H 201.468 2.37249 -3.17063 0
M  V30 2136 H 202.642 -0.0995497 -4.60692 0
M  V30 2137 H 200.957 0.0682643 -4.16344 0
M  V30 2138 H 203.554 2.8239 -4.54048 0
M  V30 2139 H 203.897 3.04204 -2.84193 0
M  V30 2140 H 204.43 1.55421 -3.66182 0
M  V30 2141 H 201.169 0.656982 -6.52199 0
M  V30 2142 H 200.689 2.10954 -5.61479 0
M  V30 2143 H 202.368 1.92063 -6.17835 0
M  V30 2144 N 202.5 1.5196 0.417844 0
M  V30 2145 C 203.433 1.69387 1.52916 0
M  V30 2146 C 204.411 0.541419 1.53321 0
M  V30 2147 O 205.595 0.767695 1.72159 0
M  V30 2148 C 202.722 1.72525 2.91467 0
M  V30 2149 C 201.768 2.93967 3.09008 0
M  V30 2150 S 202.601 4.54461 2.83242 0
M  V30 2151 C 203.757 4.60372 4.24038 0
M  V30 2152 H 203.99 2.63382 1.37903 0
M  V30 2153 H 201.523 1.41889 0.608845 0
M  V30 2154 H 203.481 1.75018 3.7132 0
M  V30 2155 H 202.142 0.796733 3.03827 0
M  V30 2156 H 201.335 2.92619 4.10353 0
M  V30 2157 H 200.937 2.89316 2.37007 0
M  V30 2158 H 203.229 4.37213 5.17544 0
M  V30 2159 H 204.172 5.62273 4.30412 0
M  V30 2160 H 204.58 3.89492 4.08602 0
M  V30 2161 N 203.978 -0.674533 1.42435 0
M  V30 2162 C 205.206 -1.46283 1.46317 0
M  V30 2163 C 205.621 -1.88653 0.0745836 0
M  V30 2164 O 204.978 -1.58151 -0.91074 0
M  V30 2165 C 205.029 -2.71178 2.3905 0
M  V30 2166 O 204.75 -2.30586 3.72507 0
M  V30 2167 C 206.251 -3.64738 2.51955 0
M  V30 2168 H 203.471 -0.450104 0.497642 0
M  V30 2169 H 206.015 -0.828792 1.86953 0
M  V30 2170 H 204.17 -3.3077 2.01667 0
M  V30 2171 H 204.584 -3.11241 4.22172 0
M  V30 2172 H 206.058 -4.49096 3.20962 0
M  V30 2173 H 206.535 -4.10656 1.55752 0
M  V30 2174 H 207.141 -3.11038 2.90061 0
M  V30 2175 N 205.456 -1.28612 -0.910864 0
M  V30 2176 C 206.703 -1.15934 -1.66029 0
M  V30 2177 C 207.031 0.291483 -1.92303 0
M  V30 2178 O 206.286 1.22816 -1.52364 0
M  V30 2179 C 206.585 -1.90624 -3.0232 0
M  V30 2180 C 206.251 -3.40405 -2.95695 0
M  V30 2181 C 204.913 -3.81255 -2.93595 0
M  V30 2182 C 207.265 -4.359 -2.85728 0
M  V30 2183 C 204.593 -5.15936 -2.79334 0
M  V30 2184 C 206.945 -5.70657 -2.73007 0
M  V30 2185 C 205.609 -6.10779 -2.69267 0
M  V30 2186 H 204.879 -0.424234 -0.607541 0
M  V30 2187 H 207.526 -1.5942 -1.06101 0
M  V30 2188 H 205.831 -1.39696 -3.6605 0
M  V30 2189 H 207.528 -1.78228 -3.59215 0
M  V30 2190 H 204.118 -3.07927 -2.98125 0
M  V30 2191 H 208.302 -4.053 -2.86436 0
M  V30 2192 H 203.558 -5.46146 -2.74835 0
M  V30 2193 H 207.732 -6.44311 -2.64264 0
M  V30 2194 H 205.359 -7.1509 -2.57974 0
M  V30 2195 N 206.934 1.1197 -1.10907 0
M  V30 2196 C 207.881 2.17846 -0.762345 0
M  V30 2197 C 208.851 1.63995 0.263599 0
M  V30 2198 O 210.036 1.90273 0.141773 0
M  V30 2199 C 207.176 3.44487 -0.205651 0
M  V30 2200 C 206.289 4.12369 -1.28748 0
M  V30 2201 C 205.424 5.26674 -0.691919 0
M  V30 2202 C 204.463 5.86431 -1.75399 0
M  V30 2203 N 203.6 6.92142 -1.17833 0
M  V30 2204 H 208.44 2.46851 -1.6694 0
M  V30 2205 H 205.977 1.21188 -0.833776 0
M  V30 2206 H 207.935 4.16981 0.135037 0
M  V30 2207 H 206.565 3.15884 0.664613 0
M  V30 2208 H 205.617 3.38003 -1.74522 0
M  V30 2209 H 206.929 4.52844 -2.09125 0
M  V30 2210 H 206.083 6.05953 -0.300963 0
M  V30 2211 H 204.822 4.8749 0.143232 0
M  V30 2212 H 203.827 5.05835 -2.15432 0
M  V30 2213 H 205.052 6.27685 -2.59208 0
M  V30 2214 H 202.998 6.54985 -0.364725 0
M  V30 2215 H 202.915 7.31242 -1.91887 0
M  V30 2216 H 204.183 7.75237 -0.81408 0
M  V30 2217 N 208.412 0.89855 1.29475 0
M  V30 2218 C 209.64 0.539261 1.99749 0
M  V30 2219 C 210.055 -0.875716 1.67262 0
M  V30 2220 O 209.412 -1.57786 0.917049 0
M  V30 2221 C 209.463 0.72061 3.54245 0
M  V30 2222 O 209.184 2.07989 3.8558 0
M  V30 2223 C 210.685 0.366118 4.41786 0
M  V30 2224 H 207.905 0.207047 0.638258 0
M  V30 2225 H 210.449 1.20758 1.65039 0
M  V30 2226 H 208.604 0.0994862 3.87272 0
M  V30 2227 H 209.018 2.10841 4.80257 0
M  V30 2228 H 210.492 0.543848 5.49314 0
M  V30 2229 H 210.969 -0.696763 4.33638 0
M  V30 2230 H 211.575 0.964135 4.14228 0
M  V30 2231 N 209.89 -1.43072 0.660911 0
M  V30 2232 C 211.137 -2.01721 0.177445 0
M  V30 2233 C 211.465 -1.5218 -1.21126 0
M  V30 2234 O 210.72 -0.708659 -1.82419 0
M  V30 2235 C 211.019 -3.57103 0.145563 0
M  V30 2236 C 210.685 -4.26021 1.47705 0
M  V30 2237 C 209.347 -4.44563 1.84165 0
M  V30 2238 C 211.699 -4.64983 2.35458 0
M  V30 2239 C 209.027 -4.99334 3.0803 0
M  V30 2240 C 211.379 -5.21127 3.58622 0
M  V30 2241 C 210.043 -5.37884 3.95268 0
M  V30 2242 H 209.313 -0.73815 0.0649317 0
M  V30 2243 H 211.96 -1.71446 0.853144 0
M  V30 2244 H 210.265 -3.86965 -0.61361 0
M  V30 2245 H 211.962 -4.00248 -0.2455 0
M  V30 2246 H 208.552 -4.11939 1.18339 0
M  V30 2247 H 212.736 -4.50343 2.08579 0
M  V30 2248 H 207.992 -5.10493 3.36462 0
M  V30 2249 H 212.166 -5.50262 4.26831 0
M  V30 2250 H 209.793 -5.80089 4.91325 0
M  V30 2251 N 211.368 -0.403325 -1.52352 0
M  V30 2252 C 212.784 -0.0539281 -1.59509 0
M  V30 2253 C 212.984 1.43307 -1.41652 0
M  V30 2254 O 212.04 2.19924 -1.24056 0
M  V30 2255 C 213.353 -0.543654 -2.95745 0
M  V30 2256 C 214.901 -0.501125 -3.08962 0
M  V30 2257 C 215.376 -0.967267 -4.47669 0
M  V30 2258 N 216.867 -0.923849 -4.53893 0
M  V30 2259 C 217.602 -1.25578 -5.5948 0
M  V30 2260 N 217.098 -1.65889 -6.72646 0
M  V30 2261 N 218.891 -1.17613 -5.49658 0
M  V30 2262 H 211.042 -1.37123 -1.62206 0
M  V30 2263 H 213.305 -0.56294 -0.76276 0
M  V30 2264 H 213.011 -1.58275 -3.14073 0
M  V30 2265 H 212.885 0.0498042 -3.77167 0
M  V30 2266 H 215.272 0.528909 -2.90321 0
M  V30 2267 H 215.353 -1.13056 -2.2946 0
M  V30 2268 H 214.997 -1.9956 -4.67053 0
M  V30 2269 H 214.927 -0.314698 -5.25659 0
M  V30 2270 H 217.418 -0.627403 -3.72655 0
M  V30 2271 H 217.731 -1.89543 -7.49195 0
M  V30 2272 H 216.076 -1.69787 -6.73942 0
M  V30 2273 H 219.267 -0.860115 -4.6013 0
M  V30 2274 H 219.44 -1.43812 -6.3184 0
M  V30 2275 N 212.846 1.57033 -0.133567 0
M  V30 2276 C 214.257 1.82593 0.389464 0
M  V30 2277 C 214.608 1.05156 1.6564 0
M  V30 2278 O 213.733 0.292644 2.14412 0
M  V30 2279 C 214.328 3.31204 0.713377 0
M  V30 2280 C 212.887 3.57393 1.18098 0
M  V30 2281 C 212.034 2.76598 0.197126 0
M  V30 2282 H 214.985 1.54598 -0.358481 0
M  V30 2283 H 215.006 3.46627 1.56939 0
M  V30 2284 H 214.518 3.87537 -0.2089 0
M  V30 2285 H 212.619 3.06433 2.11966 0
M  V30 2286 H 212.732 4.65915 1.11624 0
M  V30 2287 H 211.096 2.45257 0.687088 0
M  V30 2288 H 211.879 3.35697 -0.718504 0
M  V30 2289 N 214.325 -0.140222 1.56975 0
M  V30 2290 C 215.288 -1.15689 1.97861 0
M  V30 2291 C 216.288 -1.3549 0.865974 0
M  V30 2292 O 217.478 -1.32367 1.13246 0
M  V30 2293 C 214.61 -2.51582 2.30042 0
M  V30 2294 H 215.803 -0.805971 2.88867 0
M  V30 2295 H 213.356 -0.383801 1.51515 0
M  V30 2296 H 214.091 -2.91632 1.41849 0
M  V30 2297 H 213.876 -2.38569 3.11171 0
M  V30 2298 H 215.366 -3.24792 2.62488 0
M  V30 2299 N 215.803 -1.52179 -0.40978 0
M  V30 2300 C 216.766 -1.74853 -1.48186 0
M  V30 2301 C 217.766 -0.618417 -1.48433 0
M  V30 2302 O 218.956 -0.886286 -1.49969 0
M  V30 2303 C 216.088 -1.8303 -2.87598 0
M  V30 2304 H 217.281 -2.70559 -1.29374 0
M  V30 2305 H 214.834 -1.42586 -0.640233 0
M  V30 2306 H 215.569 -0.89236 -3.11781 0
M  V30 2307 H 215.354 -2.65187 -2.88822 0
M  V30 2308 H 216.844 -2.02316 -3.65319 0
M  V30 2309 N 217.281 0.66697 -1.42791 0
M  V30 2310 C 218.214 1.79177 -1.41318 0
M  V30 2311 C 219.192 1.60234 -0.276401 0
M  V30 2312 O 220.376 1.82602 -0.46785 0
M  V30 2313 C 217.503 3.16289 -1.21157 0
M  V30 2314 C 216.549 3.53964 -2.37932 0
M  V30 2315 S 217.382 3.55501 -4.00474 0
M  V30 2316 C 218.538 4.95292 -3.8267 0
M  V30 2317 H 218.771 1.80153 -2.365 0
M  V30 2318 H 216.304 0.838357 -1.29657 0
M  V30 2319 H 218.262 3.95428 -1.10212 0
M  V30 2320 H 216.923 3.1289 -0.275481 0
M  V30 2321 H 216.116 4.53646 -2.19594 0
M  V30 2322 H 215.718 2.82204 -2.45432 0
M  V30 2323 H 218.01 5.83584 -3.44145 0
M  V30 2324 H 218.953 5.18679 -4.82055 0
M  V30 2325 H 219.361 4.68179 -3.15386 0
M  V30 2326 N 218.759 1.29093 0.90403 0
M  V30 2327 C 219.689 1.16401 2.02418 0
M  V30 2328 C 220.67 0.0593085 1.69997 0
M  V30 2329 O 221.855 0.238021 1.92736 0
M  V30 2330 C 218.985 0.835233 3.37107 0
M  V30 2331 C 217.939 1.89578 3.83724 0
M  V30 2332 C 217.265 1.42041 5.15489 0
M  V30 2333 C 218.565 3.30394 4.04521 0
M  V30 2334 H 220.259 2.10109 2.13295 0
M  V30 2335 H 217.805 1.01157 1.02486 0
M  V30 2336 H 219.758 0.733169 4.14973 0
M  V30 2337 H 218.482 -0.137543 3.2631 0
M  V30 2338 H 217.141 1.98715 3.08071 0
M  V30 2339 H 216.789 0.436426 5.01103 0
M  V30 2340 H 216.489 2.12964 5.4765 0
M  V30 2341 H 218.013 1.33176 5.959 0
M  V30 2342 H 219.427 3.24123 4.72882 0
M  V30 2343 H 217.824 3.99237 4.48029 0
M  V30 2344 H 218.894 3.73692 3.09002 0
M  V30 2345 N 220.237 -1.11381 1.11499 0
M  V30 2346 C 221.486 -1.82494 0.858993 0
M  V30 2347 C 221.799 -1.85605 -0.617278 0
M  V30 2348 O 223.005 -2.52824 -0.989552 0
M  V30 2349 C 221.461 -3.27745 1.48699 0
M  V30 2350 C 221.069 -3.32961 2.99735 0
M  V30 2351 C 222.813 -4.03754 1.31085 0
M  V30 2352 C 220.72 -4.72612 3.55516 0
M  V30 2353 H 219.65 -0.683802 0.317696 0
M  V30 2354 H 222.301 -1.25331 1.34031 0
M  V30 2355 H 220.683 -3.84844 0.933339 0
M  V30 2356 H 221.857 -2.85741 3.61509 0
M  V30 2357 H 220.172 -2.70433 3.16631 0
M  V30 2358 H 222.769 -5.06891 1.70192 0
M  V30 2359 H 223.112 -4.15527 0.253496 0
M  V30 2360 H 223.645 -3.53043 1.83318 0
M  V30 2361 H 220.384 -4.66036 4.60967 0
M  V30 2362 H 219.904 -5.2024 2.98513 0
M  V30 2363 H 221.583 -5.4157 3.53992 0
M  V30 2364 N 221.715 -0.905404 -1.28997 0
M  V30 2365 C 222.625 -0.392246 -2.31298 0
M  V30 2366 C 223.641 0.515889 -1.66176 0
M  V30 2367 O 224.817 0.404093 -1.97304 0
M  V30 2368 C 221.882 0.36686 -3.44754 0
M  V30 2369 C 220.943 -0.573485 -4.25452 0
M  V30 2370 C 220.176 0.149488 -5.33491 0
M  V30 2371 O 220.399 1.37255 -5.5364 0
M  V30 2372 O 219.333 -0.510919 -5.99728 0
M  V30 2373 H 223.159 -1.2411 -2.77183 0
M  V30 2374 H 220.744 -0.669926 -1.33538 0
M  V30 2375 H 222.626 0.795907 -4.13816 0
M  V30 2376 H 221.301 1.19169 -3.00966 0
M  V30 2377 H 220.208 -1.05176 -3.59011 0
M  V30 2378 H 221.541 -1.36489 -4.72897 0
M  V30 2379 N 223.193 1.4272 -0.668489 0
M  V30 2380 C 224.609 1.55992 -0.33745 0
M  V30 2381 C 224.809 1.64933 1.15756 0
M  V30 2382 O 223.865 1.61278 1.94282 0
M  V30 2383 C 225.178 2.81314 -1.06222 0
M  V30 2384 C 226.726 2.95078 -1.04394 0
M  V30 2385 C 227.201 4.23252 -1.74991 0
M  V30 2386 N 228.692 4.3015 -1.71829 0
M  V30 2387 C 229.427 5.28127 -2.23315 0
M  V30 2388 N 228.923 6.32293 -2.83156 0
M  V30 2389 N 230.716 5.19882 -2.13726 0
M  V30 2390 H 222.867 1.3516 -1.63846 0
M  V30 2391 H 225.13 0.650174 -0.689912 0
M  V30 2392 H 224.836 2.80823 -2.11734 0
M  V30 2393 H 224.71 3.72012 -0.62344 0
M  V30 2394 H 227.097 2.951 0.0028244 0
M  V30 2395 H 227.178 2.05627 -1.52155 0
M  V30 2396 H 226.822 4.2399 -2.79633 0
M  V30 2397 H 226.752 5.11626 -1.24685 0
M  V30 2398 H 229.243 3.55499 -1.28175 0
M  V30 2399 H 229.556 7.03398 -3.20079 0
M  V30 2400 H 227.901 6.32873 -2.87223 0
M  V30 2401 H 231.092 4.37423 -1.66669 0
M  V30 2402 H 231.265 5.96077 -2.54158 0
M  V30 2403 N 224.671 0.411399 1.52136 0
M  V30 2404 C 225.896 -0.165538 2.06738 0
M  V30 2405 C 226.321 -1.379 1.27926 0
M  V30 2406 O 225.679 -1.78628 0.310114 0
M  V30 2407 C 225.727 -0.492124 3.57226 0
M  V30 2408 O 224.831 -1.58276 3.80818 0
M  V30 2409 H 224.172 -0.0132132 0.663869 0
M  V30 2410 H 226.702 0.585253 1.96051 0
M  V30 2411 H 226.712 -0.750104 4.01045 0
M  V30 2412 H 225.387 0.394922 4.14021 0
M  V30 2413 H 223.964 -1.31677 3.48877 0
M  V30 2414 N 226.149 -1.5696 0.141893 0
M  V30 2415 C 227.374 -2.00754 -0.520838 0
M  V30 2416 C 227.799 -1.0213 -1.57959 0
M  V30 2417 O 227.157 0.00371324 -1.813 0
M  V30 2418 C 227.205 -3.43318 -1.10294 0
M  V30 2419 O 226.309 -3.47679 -2.21795 0
M  V30 2420 H 225.65 -0.651564 -0.127908 0
M  V30 2421 H 228.18 -2.03221 0.23712 0
M  V30 2422 H 228.19 -3.82012 -1.43287 0
M  V30 2423 H 226.865 -4.14608 -0.327574 0
M  V30 2424 H 225.442 -3.20824 -1.9007 0
M  V30 2425 N 227.627 0.131896 -1.57047 0
M  V30 2426 C 228.904 0.871495 -1.75112 0
M  V30 2427 C 229.284 1.9866 -0.713949 0
M  V30 2428 O 228.632 2.26965 0.264447 0
M  V30 2429 C 228.842 1.40007 -3.19686 0
M  V30 2430 C 230.19 1.85752 -3.81813 0
M  V30 2431 O 231.214 1.49715 -3.23209 0
M  V30 2432 O 230.073 2.5226 -4.84796 0
M  V30 2433 H 227.167 0.412919 -0.716538 0
M  V30 2434 H 229.713 0.116641 -1.69299 0
M  V30 2435 H 228.485 0.599404 -3.86682 0
M  V30 2436 H 228.108 2.218 -3.29986 0
M  V30 2437 N 229.106 1.52395 0.401703 0
M  V30 2438 C 230.353 1.66817 1.14796 0
M  V30 2439 C 230.681 0.401772 1.90305 0
M  V30 2440 O 229.936 -0.615487 1.85769 0
M  V30 2441 C 230.235 2.84578 2.16217 0
M  V30 2442 C 229.901 4.22513 1.5746 0
M  V30 2443 C 228.563 4.60029 1.41161 0
M  V30 2444 C 230.915 5.0844 1.14622 0
M  V30 2445 C 228.243 5.81144 0.80552 0
M  V30 2446 C 230.595 6.30167 0.55428 0
M  V30 2447 C 229.259 6.66426 0.378482 0
M  V30 2448 H 228.529 0.610428 0.420069 0
M  V30 2449 H 231.176 1.86512 0.434212 0
M  V30 2450 H 229.481 2.59248 2.93764 0
M  V30 2451 H 231.178 2.92933 2.73845 0
M  V30 2452 H 227.768 3.92953 1.71132 0
M  V30 2453 H 231.952 4.80034 1.26021 0
M  V30 2454 H 227.208 6.07855 0.657399 0
M  V30 2455 H 231.382 6.96071 0.213983 0
M  V30 2456 H 229.009 7.60143 -0.0932606 0
M  V30 2457 N 230.584 -0.659388 1.43143 0
M  V30 2458 C 231.832 -1.41654 1.44147 0
M  V30 2459 C 232.153 -1.94893 0.0645739 0
M  V30 2460 O 231.423 -1.74044 -0.899198 0
M  V30 2461 H 230.003 -0.525708 0.530697 0
M  V30 2462 H 232.665 -0.778097 1.78694 0
M  V30 2463 H 231.761 -2.26195 2.1504 0
M  V30 2464 N 232.062 -1.29571 -0.897171 0
M  V30 2465 C 233.009 -1.14916 -2.00158 0
M  V30 2466 C 233.979 -0.0418149 -1.66047 0
M  V30 2467 O 235.164 -0.209793 -1.89643 0
M  V30 2468 C 232.304 -0.834307 -3.34863 0
M  V30 2469 C 231.417 -2.02234 -3.8174 0
M  V30 2470 C 230.552 -1.64664 -5.05034 0
M  V30 2471 C 229.591 -2.80033 -5.44286 0
M  V30 2472 N 228.728 -2.42843 -6.58765 0
M  V30 2473 H 233.568 -2.09403 -2.12025 0
M  V30 2474 H 231.105 -1.042 -1.0383 0
M  V30 2475 H 233.063 -0.632436 -4.12379 0
M  V30 2476 H 231.693 0.0736656 -3.22716 0
M  V30 2477 H 230.745 -2.33583 -3.00238 0
M  V30 2478 H 232.057 -2.88673 -4.06779 0
M  V30 2479 H 231.211 -1.4078 -5.9014 0
M  V30 2480 H 229.95 -0.753766 -4.8184 0
M  V30 2481 H 228.955 -3.04596 -4.57713 0
M  V30 2482 H 230.18 -3.69989 -5.6946 0
M  V30 2483 H 228.126 -1.56046 -6.3717 0
M  V30 2484 H 228.043 -3.22815 -6.83613 0
M  V30 2485 H 229.311 -2.22285 -7.47134 0
M  V30 2486 N 233.54 1.10788 -1.12088 0
M  V30 2487 C 234.768 1.86461 -0.896651 0
M  V30 2488 C 235.183 1.80492 0.553912 0
M  V30 2489 O 234.54 1.19102 1.38278 0
M  V30 2490 C 234.591 3.35006 -1.35843 0
M  V30 2491 O 234.312 3.40866 -2.75213 0
M  V30 2492 C 235.813 4.27565 -1.1706 0
M  V30 2493 H 233.033 0.589425 -0.320654 0
M  V30 2494 H 235.577 1.40076 -1.48993 0
M  V30 2495 H 233.732 3.7887 -0.808458 0
M  V30 2496 H 234.146 4.33411 -2.9539 0
M  V30 2497 H 235.62 5.30007 -1.54263 0
M  V30 2498 H 236.097 4.3906 -0.110814 0
M  V30 2499 H 236.703 3.89501 -1.70789 0
M  V30 2500 N 235.018 0.912232 1.28515 0
M  V30 2501 C 236.264 0.554851 1.95686 0
M  V30 2502 C 236.619 -0.89138 1.70506 0
M  V30 2503 O 235.912 -1.62529 1.01464 0
M  V30 2504 C 236.106 0.798392 3.48368 0
M  V30 2505 C 235.935 2.26674 3.88393 0
M  V30 2506 C 234.705 2.91657 4.12631 0
M  V30 2507 C 236.903 3.24303 3.99164 0
M  V30 2508 N 234.885 4.28805 4.39317 0
M  V30 2509 C 236.256 4.4661 4.30046 0
M  V30 2510 C 238.311 3.19723 3.81683 0
M  V30 2511 C 237.014 5.64915 4.45268 0
M  V30 2512 C 239.04 4.37325 3.98121 0
M  V30 2513 C 238.402 5.58406 4.29375 0
M  V30 2514 H 234.501 0.252876 0.739985 0
M  V30 2515 H 237.085 1.17565 1.55199 0
M  V30 2516 H 235.256 0.20688 3.87849 0
M  V30 2517 H 236.988 0.405193 4.02666 0
M  V30 2518 H 233.743 2.42393 4.06869 0
M  V30 2519 H 234.167 4.99712 4.56746 0
M  V30 2520 H 238.809 2.27191 3.56573 0
M  V30 2521 H 236.527 6.57927 4.6921 0
M  V30 2522 H 240.113 4.35282 3.86033 0
M  V30 2523 H 238.993 6.47889 4.41825 0
M  V30 2524 N 236.496 -1.42363 0.676048 0
M  V30 2525 C 237.744 -2.01123 0.198437 0
M  V30 2526 C 238.065 -1.53731 -1.19966 0
M  V30 2527 O 237.335 -0.759518 -1.80577 0
M  V30 2528 H 235.915 -0.743678 0.0703721 0
M  V30 2529 H 238.577 -1.74263 0.872837 0
M  V30 2530 H 237.673 -3.11454 0.200686 0
M  V30 2531 N 237.974 -0.419461 -1.51915 0
M  V30 2532 C 239.22 0.153166 -2.02221 0
M  V30 2533 C 239.553 1.43907 -1.30401 0
M  V30 2534 O 238.828 1.90055 -0.413438 0
M  V30 2535 C 239.111 0.390291 -3.57979 0
M  V30 2536 C 238.964 -0.913014 -4.40436 0
M  V30 2537 C 240.283 1.16794 -4.2432 0
M  V30 2538 H 237.402 0.0541924 -0.735005 0
M  V30 2539 H 240.044 -0.554955 -1.81715 0
M  V30 2540 H 238.194 0.993491 -3.75582 0
M  V30 2541 H 239.866 -1.54882 -4.34522 0
M  V30 2542 H 238.109 -1.52168 -4.06236 0
M  V30 2543 H 238.78 -0.701361 -5.47526 0
M  V30 2544 H 241.256 0.657161 -4.10878 0
M  V30 2545 H 240.132 1.3026 -5.3322 0
M  V30 2546 H 240.393 2.19132 -3.83971 0
M  V30 2547 N 239.452 1.56882 -0.150215 0
M  V30 2548 C 240.682 2.00302 0.506213 0
M  V30 2549 C 241.09 1.02934 1.58749 0
M  V30 2550 O 240.433 0.0188384 1.8369 0
M  V30 2551 C 240.495 3.40156 1.16337 0
M  V30 2552 C 240.159 4.56439 0.226311 0
M  V30 2553 C 241.156 5.17012 -0.547265 0
M  V30 2554 C 238.841 5.02136 0.128279 0
M  V30 2555 C 240.835 6.21693 -1.40629 0
M  V30 2556 C 238.522 6.06672 -0.734345 0
M  V30 2557 C 239.52 6.6632 -1.50023 0
M  V30 2558 O 239.208 7.68831 -2.34848 0
M  V30 2559 H 238.94 0.662182 0.135984 0
M  V30 2560 H 241.494 2.03961 -0.242746 0
M  V30 2561 H 239.724 3.33346 1.96004 0
M  V30 2562 H 241.413 3.67663 1.71985 0
M  V30 2563 H 242.179 4.82603 -0.48158 0
M  V30 2564 H 238.058 4.55435 0.714157 0
M  V30 2565 H 241.602 6.68179 -2.00455 0
M  V30 2566 H 237.499 6.40507 -0.801309 0
M  V30 2567 H 238.267 7.86065 -2.28131 0
M  V30 2568 N 240.93 -0.123565 1.57115 0
M  V30 2569 C 242.346 -0.476961 1.52306 0
M  V30 2570 C 242.546 -1.82109 0.86248 0
M  V30 2571 O 241.602 -2.48586 0.442884 0
M  V30 2572 C 242.915 -0.465661 2.97073 0
M  V30 2573 C 244.463 -0.549534 3.08138 0
M  V30 2574 C 244.938 -0.568669 4.54456 0
M  V30 2575 N 246.429 -0.630237 4.58892 0
M  V30 2576 C 247.164 -0.666415 5.69514 0
M  V30 2577 N 246.66 -0.660514 6.89644 0
M  V30 2578 N 248.453 -0.709077 5.5761 0
M  V30 2579 H 240.604 0.757198 1.98445 0
M  V30 2580 H 242.867 0.278808 0.906074 0
M  V30 2581 H 242.573 0.454232 3.48754 0
M  V30 2582 H 242.447 -1.29513 3.54269 0
M  V30 2583 H 244.834 -1.45985 2.56461 0
M  V30 2584 H 244.915 0.307532 2.53945 0
M  V30 2585 H 244.559 0.337581 5.06777 0
M  V30 2586 H 244.489 -1.44256 5.06456 0
M  V30 2587 H 246.98 -0.641146 3.72421 0
M  V30 2588 H 247.293 -0.690616 7.69708 0
M  V30 2589 H 245.638 -0.628012 6.92157 0
M  V30 2590 H 248.829 -0.711019 4.62668 0
M  V30 2591 H 249.002 -0.733804 6.43832 0
M  V30 2592 N 242.408 -1.52605 -0.393616 0
M  V30 2593 C 243.638 -1.71046 -1.15874 0
M  V30 2594 C 244.046 -0.426483 -1.84331 0
M  V30 2595 O 243.389 0.608513 -1.73329 0
M  V30 2596 C 243.451 -2.80118 -2.25332 0
M  V30 2597 C 243.115 -4.21381 -1.76881 0
M  V30 2598 C 244.112 -5.04697 -1.24808 0
M  V30 2599 C 241.797 -4.67683 -1.83244 0
M  V30 2600 C 243.791 -6.32393 -0.797387 0
M  V30 2601 C 241.478 -5.95364 -1.37787 0
M  V30 2602 C 242.476 -6.77549 -0.861208 0
M  V30 2603 O 242.164 -8.02837 -0.413252 0
M  V30 2604 H 241.896 -0.576155 -0.353583 0
M  V30 2605 H 244.45 -2.00018 -0.467123 0
M  V30 2606 H 242.68 -2.46557 -2.97904 0
M  V30 2607 H 244.369 -2.87006 -2.87023 0
M  V30 2608 H 245.135 -4.70111 -1.19252 0
M  V30 2609 H 241.014 -4.03805 -2.22401 0
M  V30 2610 H 244.558 -6.9649 -0.393437 0
M  V30 2611 H 240.455 -6.29455 -1.43026 0
M  V30 2612 H 241.223 -8.16749 -0.53515 0
M  V30 2613 N 243.887 0.651787 -1.4349 0
M  V30 2614 C 245.134 1.41167 -1.45183 0
M  V30 2615 C 245.462 1.94349 -0.0766601 0
M  V30 2616 O 244.717 1.72804 0.918555 0
M  V30 2617 C 245.016 2.60914 -2.44251 0
M  V30 2618 C 244.682 2.26142 -3.9009 0
M  V30 2619 C 243.344 2.16371 -4.2981 0
M  V30 2620 C 245.696 1.98334 -4.81989 0
M  V30 2621 C 243.024 1.7695 -5.5938 0
M  V30 2622 C 245.376 1.6041 -6.11924 0
M  V30 2623 C 244.04 1.49166 -6.5062 0
M  V30 2624 H 243.31 0.516566 -0.531263 0
M  V30 2625 H 245.957 0.741099 -1.76579 0
M  V30 2626 H 244.262 3.3311 -2.06265 0
M  V30 2627 H 245.959 3.19127 -2.42815 0
M  V30 2628 H 242.549 2.34658 -3.58655 0
M  V30 2629 H 246.733 2.04803 -4.52072 0
M  V30 2630 H 241.989 1.66831 -5.88198 0
M  V30 2631 H 246.163 1.37925 -6.82605 0
M  V30 2632 H 243.79 1.1839 -7.50925 0
M  V30 2633 N 245.365 1.30045 0.890287 0
M  V30 2634 C 246.328 1.15963 1.977 0
M  V30 2635 C 247.328 0.0923777 1.60534 0
M  V30 2636 O 248.518 0.340071 1.70848 0
M  V30 2637 C 245.65 0.775451 3.31963 0
M  V30 2638 H 246.843 2.12502 2.11619 0
M  V30 2639 H 244.396 1.13366 1.07601 0
M  V30 2640 H 245.131 -0.189671 3.23745 0
M  V30 2641 H 244.916 1.54668 3.60306 0
M  V30 2642 H 246.406 0.700251 4.11687 0
M  V30 2643 N 246.843 -1.10192 1.12674 0
M  V30 2644 C 248.073 -1.85713 0.905213 0
M  V30 2645 C 248.481 -1.81056 -0.549108 0
M  V30 2646 O 247.824 -1.19927 -1.39151 0
M  V30 2647 C 247.886 -3.34972 1.30516 0
M  V30 2648 C 247.55 -3.63385 2.77129 0
M  V30 2649 C 248.547 -3.59772 3.75313 0
M  V30 2650 C 246.232 -3.91981 3.14096 0
M  V30 2651 C 248.226 -3.84354 5.08479 0
M  V30 2652 C 245.913 -4.16218 4.47443 0
M  V30 2653 C 246.911 -4.12395 5.44444 0
M  V30 2654 O 246.599 -4.36014 6.75387 0
M  V30 2655 H 246.331 -0.593719 0.323223 0
M  V30 2656 H 248.885 -1.40198 1.50112 0
M  V30 2657 H 247.115 -3.81156 0.652463 0
M  V30 2658 H 248.804 -3.91886 1.05736 0
M  V30 2659 H 249.57 -3.37716 3.48099 0
M  V30 2660 H 245.449 -3.94085 2.39202 0
M  V30 2661 H 248.993 -3.81285 5.84181 0
M  V30 2662 H 244.89 -4.37754 4.74386 0
M  V30 2663 H 245.658 -4.53516 6.8137 0
M  V30 2664 N 248.321 -0.919034 -1.28029 0
M  V30 2665 C 249.598 -0.473668 -1.89778 0
M  V30 2666 C 249.978 1.04783 -1.83259 0
M  V30 2667 O 249.326 1.8982 -1.27202 0
M  V30 2668 C 249.536 -1.00998 -3.34066 0
M  V30 2669 C 250.884 -1.06525 -4.1102 0
M  V30 2670 O 251.908 -0.958996 -3.43048 0
M  V30 2671 O 250.767 -1.22776 -5.3253 0
M  V30 2672 H 247.861 -0.15098 -0.813101 0
M  V30 2673 H 250.407 -1.01016 -1.36359 0
M  V30 2674 H 249.179 -2.05392 -3.33061 0
M  V30 2675 H 248.802 -0.454626 -3.94992 0
M  V30 2676 N 249.799 1.42003 -0.683588 0
M  V30 2677 C 251.039 2.03282 -0.213513 0
M  V30 2678 C 251.403 1.52924 1.16097 0
M  V30 2679 O 252.604 2.06048 1.7262 0
M  V30 2680 C 250.875 3.56483 -0.255856 0
M  V30 2681 S 252.434 4.3857 0.14193 0
M  V30 2682 H 249.252 0.705659 -0.0869853 0
M  V30 2683 H 251.854 1.73619 -0.8987 0
M  V30 2684 H 250.558 3.90631 -1.25841 0
M  V30 2685 H 250.089 3.90831 0.448875 0
M  V30 2686 H 252.104 4.76828 1.37295 0
M  V30 2687 N 251.277 0.427512 1.51691 0
M  V30 2688 C 252.187 -0.39527 2.31246 0
M  V30 2689 C 253.203 -1.03674 1.39742 0
M  V30 2690 O 254.379 -1.03425 1.72816 0
M  V30 2691 C 251.444 -1.48706 3.13189 0
M  V30 2692 C 250.505 -0.866743 4.20459 0
M  V30 2693 C 249.738 -1.90651 4.98486 0
M  V30 2694 O 249.961 -3.12733 4.77026 0
M  V30 2695 O 248.895 -1.5025 5.82845 0
M  V30 2696 H 252.721 0.253918 3.02637 0
M  V30 2697 H 250.306 0.190274 1.48183 0
M  V30 2698 H 252.188 -2.12047 3.64162 0
M  V30 2699 H 250.863 -2.12051 2.44573 0
M  V30 2700 H 249.77 -0.195544 3.73589 0
M  V30 2701 H 251.103 -0.276934 4.9142 0
M  V30 2702 N 252.755 -1.56801 0.158532 0
M  V30 2703 C 253.718 -2.16138 -0.762705 0
M  V30 2704 C 254.718 -1.1061 -1.16713 0
M  V30 2705 O 255.908 -1.36191 -1.08617 0
M  V30 2706 C 253.04 -2.73386 -2.03649 0
M  V30 2707 H 254.233 -2.98886 -0.246354 0
M  V30 2708 H 251.786 -1.56035 -0.0909744 0
M  V30 2709 H 252.521 -1.94335 -2.59623 0
M  V30 2710 H 252.306 -3.50601 -1.75559 0
M  V30 2711 H 253.796 -3.19065 -2.6942 0
M  V30 2712 N 254.233 0.115231 -1.57178 0
M  V30 2713 C 255.458 0.840354 -1.89612 0
M  V30 2714 C 255.883 1.72464 -0.750845 0
M  V30 2715 O 255.241 1.78826 0.298478 0
M  V30 2716 C 255.289 1.64654 -3.20814 0
M  V30 2717 O 254.393 2.7538 -3.06985 0
M  V30 2718 H 253.734 0.232158 -0.622092 0
M  V30 2719 H 256.264 0.0964977 -2.04372 0
M  V30 2720 H 256.274 2.03499 -3.53627 0
M  V30 2721 H 254.949 0.997416 -4.03763 0
M  V30 2722 H 253.526 2.3971 -2.85646 0
M  V30 2723 N 255.711 1.52812 0.385517 0
M  V30 2724 C 256.958 1.68026 1.1302 0
M  V30 2725 C 257.286 0.421934 1.89868 0
M  V30 2726 O 256.541 -0.595749 1.86412 0
M  V30 2727 C 256.84 2.86856 2.13187 0
M  V30 2728 C 256.506 4.24159 1.5297 0
M  V30 2729 C 255.168 4.61501 1.36274 0
M  V30 2730 C 257.52 5.09627 1.09223 0
M  V30 2731 C 254.848 5.81966 0.743837 0
M  V30 2732 C 257.2 6.30719 0.487411 0
M  V30 2733 C 255.864 6.6679 0.307777 0
M  V30 2734 H 255.134 0.614849 0.413571 0
M  V30 2735 H 257.781 1.86962 0.414405 0
M  V30 2736 H 256.086 2.6235 2.90998 0
M  V30 2737 H 257.783 2.95821 2.70722 0
M  V30 2738 H 254.373 3.94746 1.66954 0
M  V30 2739 H 258.557 4.81343 1.20922 0
M  V30 2740 H 253.813 6.08519 0.592891 0
M  V30 2741 H 257.987 6.96259 0.140143 0
M  V30 2742 H 255.614 7.60001 -0.173879 0
M  V30 2743 N 257.189 -0.644168 1.43834 0
M  V30 2744 C 258.6 -1.22554 1.40845 0
M  V30 2745 C 258.951 -1.9585 0.117115 0
M  V30 2746 O 258.076 -2.01734 -0.783086 0
M  V30 2747 C 258.671 -2.22907 2.55143 0
M  V30 2748 C 257.23 -2.76501 2.5539 0
M  V30 2749 C 256.377 -1.51287 2.32396 0
M  V30 2750 H 259.328 -0.43563 1.52604 0
M  V30 2751 H 259.349 -3.05259 2.2715 0
M  V30 2752 H 258.861 -1.69533 3.49114 0
M  V30 2753 H 256.962 -3.33914 1.65324 0
M  V30 2754 H 257.075 -3.23429 3.53455 0
M  V30 2755 H 255.439 -1.78957 1.81236 0
M  V30 2756 H 256.222 -0.998336 3.28463 0
M  V30 2757 N 258.668 -1.30515 -0.883378 0
M  V30 2758 C 259.916 -1.19194 -1.63209 0
M  V30 2759 C 260.237 0.253205 -1.93349 0
M  V30 2760 O 259.507 1.17025 -1.57105 0
M  V30 2761 H 258.087 -0.438148 -0.605009 0
M  V30 2762 H 260.749 -1.63663 -1.05832 0
M  V30 2763 H 259.845 -1.75396 -2.58153 0
M  V30 2764 N 260.146 1.09593 -1.13257 0
M  V30 2765 C 261.395 1.81105 -0.887917 0
M  V30 2766 C 261.708 1.86563 0.587672 0
M  V30 2767 O 262.914 2.54367 0.949204 0
M  V30 2768 C 261.37 3.25338 -1.53895 0
M  V30 2769 C 260.978 3.28151 -3.04994 0
M  V30 2770 C 262.722 4.01617 -1.37492 0
M  V30 2771 C 260.629 4.66897 -3.6299 0
M  V30 2772 H 259.559 0.678661 -0.328534 0
M  V30 2773 H 262.21 1.23183 -1.36008 0
M  V30 2774 H 260.592 3.8331 -0.994446 0
M  V30 2775 H 261.766 2.79953 -3.66009 0
M  V30 2776 H 260.081 2.65361 -3.20893 0
M  V30 2777 H 262.678 5.04119 -1.78235 0
M  V30 2778 H 263.021 4.15072 -0.31957 0
M  V30 2779 H 263.554 3.50082 -1.88912 0
M  V30 2780 H 260.293 4.58643 -4.68323 0
M  V30 2781 H 259.813 5.15426 -3.06752 0
M  V30 2782 H 261.492 5.3587 -3.62563 0
M  V30 2783 N 261.624 0.925811 1.2754 0
M  V30 2784 C 262.849 0.580924 1.99098 0
M  V30 2785 C 263.274 -0.833555 1.68622 0
M  V30 2786 O 262.632 -1.55903 0.925422 0
M  V30 2787 C 262.68 0.811186 3.51358 0
M  V30 2788 O 261.784 -0.124129 4.12213 0
M  V30 2789 H 261.125 0.223873 0.625122 0
M  V30 2790 H 263.655 1.24455 1.62395 0
M  V30 2791 H 263.665 0.72601 4.01489 0
M  V30 2792 H 262.34 1.84227 3.72872 0
M  V30 2793 H 260.917 0.0108006 3.72898 0
M  V30 2794 N 263.102 -1.41638 0.69111 0
M  V30 2795 C 264.33 -2.05628 0.22909 0
M  V30 2796 C 264.745 -1.51992 -1.11999 0
M  V30 2797 O 264.102 -0.666322 -1.69901 0
M  V30 2798 C 264.153 -3.61084 0.173283 0
M  V30 2799 O 263.874 -4.12735 1.46907 0
M  V30 2800 C 265.375 -4.42213 -0.310266 0
M  V30 2801 H 262.595 -0.662327 0.107534 0
M  V30 2802 H 265.139 -1.81489 0.942438 0
M  V30 2803 H 263.294 -3.84278 -0.490858 0
M  V30 2804 H 263.708 -5.06743 1.35322 0
M  V30 2805 H 265.182 -5.51194 -0.298196 0
M  V30 2806 H 265.659 -4.1799 -1.34838 0
M  V30 2807 H 266.265 -4.24074 0.322716 0
M  V30 2808 N 264.58 -0.43555 -1.51462 0
M  V30 2809 C 265.828 0.131254 -2.01673 0
M  V30 2810 C 266.149 1.43368 -1.32177 0
M  V30 2811 O 265.419 1.90524 -0.455769 0
M  V30 2812 H 263.999 0.0514954 -0.745223 0
M  V30 2813 H 266.661 -0.577847 -1.86137 0
M  V30 2814 H 265.757 0.308446 -3.10572 0
M  V30 2815 N 266.058 1.56714 -0.166846 0
M  V30 2816 C 267.469 1.83378 0.350646 0
M  V30 2817 C 267.82 1.08646 1.63372 0
M  V30 2818 O 266.945 0.338058 2.13743 0
M  V30 2819 C 267.54 3.32643 0.642963 0
M  V30 2820 C 266.099 3.59818 1.10491 0
M  V30 2821 C 265.246 2.76954 0.138411 0
M  V30 2822 H 268.197 1.53803 -0.391193 0
M  V30 2823 H 268.218 3.49878 1.49551 0
M  V30 2824 H 267.73 3.87007 -0.291055 0
M  V30 2825 H 265.831 3.1086 2.05418 0
M  V30 2826 H 265.944 4.68178 1.01716 0
M  V30 2827 H 264.308 2.4666 0.634911 0
M  V30 2828 H 265.091 3.34097 -0.789549 0
M  V30 2829 N 267.536 -0.106894 1.57237 0
M  V30 2830 C 268.469 -1.16125 1.96444 0
M  V30 2831 C 269.447 -1.3947 0.835871 0
M  V30 2832 O 270.631 -1.53425 1.09513 0
M  V30 2833 C 267.758 -2.51277 2.27107 0
M  V30 2834 C 266.804 -2.44285 3.4961 0
M  V30 2835 S 267.637 -1.87077 5.01759 0
M  V30 2836 C 268.793 -3.23877 5.35588 0
M  V30 2837 H 269.026 -0.826971 2.85567 0
M  V30 2838 H 266.559 -0.314124 1.51171 0
M  V30 2839 H 268.517 -3.29035 2.45451 0
M  V30 2840 H 267.178 -2.81879 1.38576 0
M  V30 2841 H 266.371 -3.4387 3.68469 0
M  V30 2842 H 265.973 -1.74652 3.30715 0
M  V30 2843 H 268.265 -4.20122 5.31511 0
M  V30 2844 H 269.208 -3.09833 6.36717 0
M  V30 2845 H 269.616 -3.22864 4.63054 0
M  V30 2846 N 269.014 -1.53014 -0.377408 0
M  V30 2847 C 269.961 -1.78616 -1.46168 0
M  V30 2848 C 270.931 -0.629917 -1.53692 0
M  V30 2849 O 272.116 -0.870861 -1.69766 0
M  V30 2850 C 269.256 -1.97123 -2.8326 0
M  V30 2851 C 268.369 -3.24831 -2.84796 0
M  V30 2852 C 267.504 -3.33591 -4.13389 0
M  V30 2853 C 266.543 -4.55377 -4.09021 0
M  V30 2854 N 265.68 -4.61355 -5.29241 0
M  V30 2855 H 270.52 -2.71142 -1.23637 0
M  V30 2856 H 268.057 -1.34326 -0.599577 0
M  V30 2857 H 270.015 -2.05839 -3.62886 0
M  V30 2858 H 268.645 -1.07946 -3.04216 0
M  V30 2859 H 267.697 -3.25128 -1.97474 0
M  V30 2860 H 269.009 -4.14523 -2.77439 0
M  V30 2861 H 268.163 -3.41554 -5.01424 0
M  V30 2862 H 266.902 -2.41894 -4.23484 0
M  V30 2863 H 265.907 -4.47527 -3.19373 0
M  V30 2864 H 267.132 -5.48402 -4.00539 0
M  V30 2865 H 265.078 -3.72554 -5.39944 0
M  V30 2866 H 264.995 -5.44935 -5.24006 0
M  V30 2867 H 266.263 -4.73586 -6.19141 0
M  V30 2868 N 270.492 0.636531 -1.44174 0
M  V30 2869 C 271.439 1.74875 -1.50624 0
M  V30 2870 C 272.409 1.62275 -0.35442 0
M  V30 2871 O 273.594 1.82276 -0.563908 0
M  V30 2872 C 270.734 3.13102 -1.45125 0
M  V30 2873 C 269.847 3.36717 -2.7064 0
M  V30 2874 C 268.982 4.64885 -2.57013 0
M  V30 2875 C 268.021 4.8166 -3.77717 0
M  V30 2876 N 267.158 6.01101 -3.62798 0
M  V30 2877 H 271.998 1.68697 -2.45653 0
M  V30 2878 H 269.535 0.823004 -1.21922 0
M  V30 2879 H 271.493 3.93034 -1.39929 0
M  V30 2880 H 270.123 3.18308 -0.536671 0
M  V30 2881 H 269.175 2.50763 -2.86046 0
M  V30 2882 H 270.487 3.44993 -3.60252 0
M  V30 2883 H 269.641 5.52969 -2.49619 0
M  V30 2884 H 268.38 4.58957 -1.64953 0
M  V30 2885 H 267.385 3.92007 -3.85501 0
M  V30 2886 H 268.61 4.89406 -4.70807 0
M  V30 2887 H 266.556 5.96273 -2.73486 0
M  V30 2888 H 266.473 6.10409 -4.46023 0
M  V30 2889 H 267.741 6.91761 -3.59286 0
M  V30 2890 N 271.97 1.30982 0.876444 0
M  V30 2891 C 273.216 1.20474 1.63138 0
M  V30 2892 C 273.549 -0.238096 1.92735 0
M  V30 2893 O 272.824 -1.1692 1.55435 0
M  V30 2894 C 273.107 2.04244 2.96574 0
M  V30 2895 C 272.96 3.56793 2.73896 0
M  V30 2896 C 274.279 1.88684 3.97601 0
M  V30 2897 H 271.398 0.439001 0.591985 0
M  V30 2898 H 274.04 1.60704 1.01361 0
M  V30 2899 H 272.19 1.70063 3.493 0
M  V30 2900 H 273.862 4.01077 2.27892 0
M  V30 2901 H 272.105 3.80548 2.08245 0
M  V30 2902 H 272.776 4.10706 3.68815 0
M  V30 2903 H 275.252 2.18584 3.54062 0
M  V30 2904 H 274.128 2.4961 4.88862 0
M  V30 2905 H 274.389 0.848343 4.33884 0
M  V30 2906 N 273.449 -1.08991 1.13837 0
M  V30 2907 C 274.726 -1.77863 0.813876 0
M  V30 2908 C 275.106 -1.99375 -0.693746 0
M  V30 2909 O 274.454 -1.59875 -1.63255 0
M  V30 2910 C 274.664 -3.0986 1.60586 0
M  V30 2911 C 276.012 -3.84493 1.8014 0
M  V30 2912 O 277.036 -3.19624 1.57222 0
M  V30 2913 O 275.895 -5.00957 2.18413 0
M  V30 2914 H 272.989 -0.771589 0.297624 0
M  V30 2915 H 275.535 -1.15507 1.24323 0
M  V30 2916 H 274.307 -2.89715 2.63022 0
M  V30 2917 H 273.93 -3.79942 1.17173 0
M  V30 2918 N 274.927 -0.932562 -1.27047 0
M  V30 2919 C 276.204 -0.49377 -1.89265 0
M  V30 2920 C 276.584 1.02833 -1.8436 0
M  V30 2921 O 275.932 1.88461 -1.29209 0
M  V30 2922 C 276.142 -1.04536 -3.32976 0
M  V30 2923 C 277.49 -1.10879 -4.09867 0
M  V30 2924 O 278.514 -0.995327 -3.42011 0
M  V30 2925 O 277.373 -1.28417 -5.31198 0
M  V30 2926 H 274.467 -0.159596 -0.811454 0
M  V30 2927 H 277.013 -1.02457 -1.3528 0
M  V30 2928 H 275.785 -2.08913 -3.30864 0
M  V30 2929 H 275.408 -0.496494 -3.94488 0
M  V30 2930 N 276.405 1.4127 -0.698611 0
M  V30 2931 C 277.654 2.00408 -0.227949 0
M  V30 2932 C 277.967 1.55981 1.18023 0
M  V30 2933 O 279.173 2.07699 1.74852 0
M  V30 2934 C 277.629 3.58129 -0.356636 0
M  V30 2935 C 277.237 4.11536 -1.77037 0
M  V30 2936 C 278.981 4.24466 0.0540969 0
M  V30 2937 C 276.888 5.61701 -1.85055 0
M  V30 2938 H 275.818 0.749586 -0.0814657 0
M  V30 2939 H 278.469 1.61713 -0.867249 0
M  V30 2940 H 276.851 3.94442 0.350965 0
M  V30 2941 H 278.025 3.86636 -2.50698 0
M  V30 2942 H 276.34 3.57736 -2.13105 0
M  V30 2943 H 278.937 5.34698 0.0146723 0
M  V30 2944 H 279.28 4.01687 1.09332 0
M  V30 2945 H 279.813 3.93198 -0.603337 0
M  V30 2946 H 276.552 5.89312 -2.8704 0
M  V30 2947 H 276.072 5.88519 -1.15783 0
M  V30 2948 H 277.751 6.26524 -1.61484 0
M  V30 2949 N 277.883 0.443576 1.51229 0
M  V30 2950 C 279.132 -0.122332 2.01329 0
M  V30 2951 C 279.445 -1.43237 1.33201 0
M  V30 2952 O 280.651 -2.0816 1.74304 0
M  V30 2953 C 279.107 -0.268551 3.58897 0
M  V30 2954 C 278.715 1.03142 4.35965 0
M  V30 2955 C 280.459 -0.787894 4.17124 0
M  V30 2956 C 278.366 0.850504 5.85252 0
M  V30 2957 H 277.296 -0.0494929 0.752374 0
M  V30 2958 H 279.947 0.574289 1.74282 0
M  V30 2959 H 278.329 -1.02832 3.82415 0
M  V30 2960 H 279.503 1.80001 4.24189 0
M  V30 2961 H 277.818 1.47977 3.89219 0
M  V30 2962 H 280.415 -0.939841 5.26375 0
M  V30 2963 H 280.758 -1.77201 3.76703 0
M  V30 2964 H 281.291 -0.0862669 3.97706 0
M  V30 2965 H 278.03 1.80718 6.30096 0
M  V30 2966 H 277.55 0.121825 5.99676 0
M  V30 2967 H 279.229 0.506163 6.45017 0
M  V30 2968 N 279.361 -1.56624 0.175154 0
M  V30 2969 C 280.601 -1.98894 -0.471221 0
M  V30 2970 C 280.965 -1.05889 -1.60161 0
M  V30 2971 O 282.166 -1.37315 -2.3108 0
M  V30 2972 C 280.437 -3.44865 -0.938241 0
M  V30 2973 S 281.996 -4.09164 -1.58526 0
M  V30 2974 H 278.814 -0.694686 -0.151434 0
M  V30 2975 H 281.416 -1.93577 0.27352 0
M  V30 2976 H 280.12 -4.10265 -0.10518 0
M  V30 2977 H 279.651 -3.53956 -1.71693 0
M  V30 2978 H 281.666 -4.04528 -2.87352 0
M  V30 2979 N 280.839 0.0985539 -1.57292 0
M  V30 2980 C 282.116 0.834155 -1.76921 0
M  V30 2981 C 282.496 1.97101 -0.755928 0
M  V30 2982 O 281.844 2.27474 0.216245 0
M  V30 2983 C 282.054 1.33194 -3.22584 0
M  V30 2984 C 283.402 1.77611 -3.85668 0
M  V30 2985 O 284.426 1.42825 -3.26312 0
M  V30 2986 O 283.285 2.4192 -4.90038 0
M  V30 2987 H 280.379 0.397628 -0.725135 0
M  V30 2988 H 282.925 0.0807044 -1.69508 0
M  V30 2989 H 281.697 0.517248 -3.87866 0
M  V30 2990 H 281.32 2.1475 -3.34616 0
M  V30 2991 N 282.317 1.53212 0.369288 0
M  V30 2992 C 283.542 1.73423 1.1375 0
M  V30 2993 C 283.967 0.460404 1.82378 0
M  V30 2994 O 283.325 -0.585298 1.71592 0
M  V30 2995 C 283.373 2.89769 2.1463 0
M  V30 2996 O 282.477 2.58119 3.21634 0
M  V30 2997 H 281.818 0.576061 0.330227 0
M  V30 2998 H 284.348 2.00083 0.427547 0
M  V30 2999 H 284.358 3.15829 2.58294 0
M  V30 3000 H 283.033 3.8217 1.64071 0
M  V30 3001 H 281.61 2.42864 2.82969 0
M  V30 3002 N 283.795 -0.628877 1.44509 0
M  V30 3003 C 285.211 -0.947305 1.28446 0
M  V30 3004 C 285.411 -2.00275 0.221872 0
M  V30 3005 O 284.467 -2.49447 -0.391471 0
M  V30 3006 C 285.78 -1.40843 2.65676 0
M  V30 3007 C 287.328 -1.52379 2.73404 0
M  V30 3008 C 287.803 -2.01875 4.11109 0
M  V30 3009 N 289.294 -2.09142 4.13296 0
M  V30 3010 C 290.029 -2.48615 5.16699 0
M  V30 3011 N 289.525 -2.87209 6.30462 0
M  V30 3012 N 291.318 -2.48768 5.04054 0
M  V30 3013 H 283.469 0.0690977 2.12288 0
M  V30 3014 H 285.732 -0.0317164 0.947469 0
M  V30 3015 H 285.438 -0.707206 3.44516 0
M  V30 3016 H 285.312 -2.37902 2.92716 0
M  V30 3017 H 287.699 -2.21598 1.9488 0
M  V30 3018 H 287.78 -0.536898 2.50102 0
M  V30 3019 H 287.424 -1.3325 4.90109 0
M  V30 3020 H 287.354 -3.0144 4.31789 0
M  V30 3021 H 289.845 -1.81991 3.31191 0
M  V30 3022 H 290.158 -3.16149 7.05174 0
M  V30 3023 H 288.503 -2.84955 6.33897 0
M  V30 3024 H 291.694 -2.18009 4.14234 0
M  V30 3025 H 291.867 -2.79207 5.84763 0
M  V30 3026 N 285.273 -1.31445 -0.869486 0
M  V30 3027 C 286.503 -1.23942 -1.65294 0
M  V30 3028 C 286.911 0.197561 -1.88166 0
M  V30 3029 O 286.254 1.14019 -1.44033 0
M  V30 3030 C 286.316 -1.91385 -3.04322 0
M  V30 3031 C 285.98 -3.40726 -3.04557 0
M  V30 3032 C 286.977 -4.36464 -2.82481 0
M  V30 3033 C 284.662 -3.82425 -3.25663 0
M  V30 3034 C 286.656 -5.71876 -2.8149 0
M  V30 3035 C 284.343 -5.1795 -3.243 0
M  V30 3036 C 285.341 -6.12486 -3.02241 0
M  V30 3037 O 285.029 -7.45534 -3.00724 0
M  V30 3038 H 284.761 -0.429459 -0.522054 0
M  V30 3039 H 287.315 -1.73873 -1.0935 0
M  V30 3040 H 285.545 -1.36004 -3.61994 0
M  V30 3041 H 287.234 -1.77791 -3.64891 0
M  V30 3042 H 288 -4.05576 -2.65956 0
M  V30 3043 H 283.879 -3.09274 -3.41863 0
M  V30 3044 H 287.423 -6.45638 -2.64191 0
M  V30 3045 H 283.32 -5.48473 -3.40365 0
M  V30 3046 H 284.088 -7.54713 -3.16782 0
M  V30 3047 N 286.751 1.08385 -1.14413 0
M  V30 3048 C 287.976 1.85057 -0.936413 0
M  V30 3049 C 288.401 1.81055 0.509971 0
M  V30 3050 O 287.759 1.1958 1.36273 0
M  V30 3051 C 287.807 3.30505 -1.44217 0
M  V30 3052 O 286.911 4.07491 -0.634409 0
M  V30 3053 H 286.252 0.573425 -0.334784 0
M  V30 3054 H 288.782 1.36799 -1.52142 0
M  V30 3055 H 288.792 3.81348 -1.45043 0
M  V30 3056 H 287.467 3.32734 -2.49522 0
M  V30 3057 H 286.044 3.66368 -0.694902 0
M  V30 3058 N 288.23 0.939286 1.26551 0
M  V30 3059 C 289.507 0.5038 1.89001 0
M  V30 3060 C 289.887 -1.01854 1.84903 0
M  V30 3061 O 289.235 -1.87773 1.30206 0
M  V30 3062 C 289.445 1.063 3.32417 0
M  V30 3063 C 290.793 1.13051 4.09273 0
M  V30 3064 O 291.817 1.01345 3.41479 0
M  V30 3065 O 290.676 1.31233 5.30509 0
M  V30 3066 H 287.77 0.163897 0.810597 0
M  V30 3067 H 290.316 1.03173 1.34735 0
M  V30 3068 H 289.088 2.10665 3.29752 0
M  V30 3069 H 288.711 0.517408 3.94219 0
M  V30 3070 N 289.708 -1.40897 0.706093 0
M  V30 3071 C 290.957 -2.00284 0.238574 0
M  V30 3072 C 291.27 -1.56604 -1.17194 0
M  V30 3073 O 292.476 -2.08624 -1.73748 0
M  V30 3074 C 290.932 -3.57934 0.375623 0
M  V30 3075 C 290.54 -4.10591 1.79217 0
M  V30 3076 C 292.284 -4.24488 -0.0315857 0
M  V30 3077 C 290.191 -5.60712 1.88032 0
M  V30 3078 H 289.121 -0.749144 0.0854398 0
M  V30 3079 H 291.772 -1.61251 0.875813 0
M  V30 3080 H 290.154 -3.94622 -0.330042 0
M  V30 3081 H 291.328 -3.85301 2.52745 0
M  V30 3082 H 289.643 -3.56601 2.15 0
M  V30 3083 H 292.24 -5.34698 0.0136842 0
M  V30 3084 H 292.583 -4.02261 -1.072 0
M  V30 3085 H 293.116 -3.92873 0.624181 0
M  V30 3086 H 289.855 -5.87781 2.90161 0
M  V30 3087 H 289.375 -5.87896 1.18903 0
M  V30 3088 H 291.054 -6.25658 1.64805 0
M  V30 3089 N 291.186 -0.45159 -1.50991 0
M  V30 3090 C 292.096 0.358431 -2.31846 0
M  V30 3091 C 293.112 1.01438 -1.41373 0
M  V30 3092 O 294.288 1.00663 -1.74439 0
M  V30 3093 C 291.353 1.43704 -3.15515 0
M  V30 3094 C 290.414 0.799742 -4.21785 0
M  V30 3095 C 289.647 1.82696 -5.01456 0
M  V30 3096 O 289.87 3.05105 -4.81941 0
M  V30 3097 O 288.804 1.40958 -5.85162 0
M  V30 3098 H 292.63 -0.302032 -3.02194 0
M  V30 3099 H 290.215 -0.213825 -1.47862 0
M  V30 3100 H 292.097 2.06227 -3.67489 0
M  V30 3101 H 290.772 2.08133 -2.47916 0
M  V30 3102 H 289.679 0.136084 -3.73852 0
M  V30 3103 H 291.012 0.198718 -4.91799 0
M  V30 3104 N 292.664 1.56529 -0.183458 0
M  V30 3105 C 294.075 1.83739 0.331177 0
M  V30 3106 C 294.426 1.10373 1.62211 0
M  V30 3107 O 293.551 0.36071 2.13373 0
M  V30 3108 C 294.146 3.33306 0.607646 0
M  V30 3109 C 292.705 3.60969 1.06668 0
M  V30 3110 C 291.852 2.77086 0.109029 0
M  V30 3111 H 294.803 1.53379 -0.407484 0
M  V30 3112 H 294.824 3.51444 1.45832 0
M  V30 3113 H 294.336 3.86677 -0.332086 0
M  V30 3114 H 292.437 3.13021 2.0211 0
M  V30 3115 H 292.55 4.69231 0.967447 0
M  V30 3116 H 290.914 2.47319 0.608714 0
M  V30 3117 H 291.697 3.33241 -0.82494 0
M  V30 3118 N 294.142 -0.090211 1.57342 0
M  V30 3119 C 295.367 -0.810082 1.90925 0
M  V30 3120 C 295.792 -1.71248 0.778187 0
M  V30 3121 O 295.15 -1.79278 -0.269991 0
M  V30 3122 C 295.198 -1.59529 3.23393 0
M  V30 3123 O 294.302 -2.70461 3.11327 0
M  V30 3124 H 293.643 -0.222231 0.625707 0
M  V30 3125 H 296.173 -0.0639716 2.045 0
M  V30 3126 H 296.183 -1.97847 3.5682 0
M  V30 3127 H 294.858 -0.933055 4.05299 0
M  V30 3128 H 293.435 -2.35135 2.89423 0
M  V30 3129 N 295.62 -1.53406 -0.361157 0
M  V30 3130 C 296.848 -1.73717 -1.12383 0
M  V30 3131 C 297.263 -0.468161 -1.82904 0
M  V30 3132 O 296.62 0.559198 -1.73722 0
M  V30 3133 C 296.671 -2.90558 -2.15078 0
M  V30 3134 O 296.392 -4.12549 -1.47428 0
M  V30 3135 C 297.893 -3.22777 -3.03858 0
M  V30 3136 H 295.113 -0.580896 -0.335858 0
M  V30 3137 H 297.657 -2.00167 -0.418728 0
M  V30 3138 H 295.812 -2.66489 -2.8118 0
M  V30 3139 H 296.226 -4.78009 -2.15887 0
M  V30 3140 H 297.7 -4.07927 -3.71887 0
M  V30 3141 H 298.177 -2.38329 -3.68912 0
M  V30 3142 H 298.783 -3.48787 -2.43367 0
M  V30 3143 N 297.098 0.621204 -1.44841 0
M  V30 3144 C 298.008 1.7612 -1.5498 0
M  V30 3145 C 299.024 1.68477 -0.434927 0
M  V30 3146 O 300.2 1.89076 -0.693693 0
M  V30 3147 C 297.265 3.1254 -1.50065 0
M  V30 3148 C 296.326 3.31741 -2.72482 0
M  V30 3149 C 295.559 4.61653 -2.67792 0
M  V30 3150 O 295.782 5.431 -1.74352 0
M  V30 3151 O 294.716 4.83271 -3.58794 0
M  V30 3152 H 298.542 1.70518 -2.51311 0
M  V30 3153 H 296.127 0.783643 -1.27198 0
M  V30 3154 H 298.009 3.93844 -1.49882 0
M  V30 3155 H 296.684 3.18663 -0.568806 0
M  V30 3156 H 295.591 2.50077 -2.7823 0
M  V30 3157 H 296.924 3.30486 -3.64746 0
M  V30 3158 N 298.576 1.31904 0.862503 0
M  V30 3159 C 299.824 1.21776 1.61292 0
M  V30 3160 C 300.145 -0.222413 1.93727 0
M  V30 3161 O 299.415 -1.1451 1.58947 0
M  V30 3162 H 297.995 0.447717 0.597962 0
M  V30 3163 H 300.657 1.65326 1.03215 0
M  V30 3164 H 299.753 1.7948 2.5533 0
M  V30 3165 N 300.054 -1.07777 1.14986 0
M  V30 3166 C 300.964 -2.18404 0.856546 0
M  V30 3167 C 301.98 -1.73211 -0.165485 0
M  V30 3168 O 303.156 -2.01399 0.00755219 0
M  V30 3169 C 300.221 -3.44977 0.34526 0
M  V30 3170 C 299.282 -4.0476 1.43065 0
M  V30 3171 C 298.515 -5.25291 0.943663 0
M  V30 3172 O 298.738 -5.70004 -0.212426 0
M  V30 3173 O 297.672 -5.76638 1.72547 0
M  V30 3174 H 301.498 -2.45978 1.78125 0
M  V30 3175 H 299.083 -1.17033 0.928631 0
M  V30 3176 H 300.965 -4.21348 0.0663671 0
M  V30 3177 H 299.64 -3.18965 -0.551631 0
M  V30 3178 H 298.547 -3.29949 1.76309 0
M  V30 3179 H 299.88 -4.35035 2.30229 0
M  V30 3180 N 301.532 -0.945985 -1.26051 0
M  V30 3181 C 302.778 -0.597002 -1.93814 0
M  V30 3182 C 303.111 0.862484 -1.73997 0
M  V30 3183 O 302.386 1.61769 -1.07986 0
M  V30 3184 C 302.669 -0.945937 -3.47454 0
M  V30 3185 C 302.522 -2.46052 -3.76535 0
M  V30 3186 C 303.841 -0.464785 -4.37639 0
M  V30 3187 H 300.96 -0.218366 -0.703907 0
M  V30 3188 H 303.602 -1.18107 -1.48831 0
M  V30 3189 H 301.752 -0.448902 -3.85898 0
M  V30 3190 H 303.424 -3.03065 -3.47778 0
M  V30 3191 H 301.667 -2.90194 -3.22444 0
M  V30 3192 H 302.338 -2.65517 -4.83947 0
M  V30 3193 H 304.814 -0.891016 -4.06448 0
M  V30 3194 H 303.69 -0.737712 -5.4392 0
M  V30 3195 H 303.951 0.635274 -4.37512 0
M  V30 3196 N 303.011 1.40521 -0.713556 0
M  V30 3197 C 304.26 2.00155 -0.249192 0
M  V30 3198 C 304.573 1.57224 1.16362 0
M  V30 3199 O 305.779 2.09542 1.72639 0
M  V30 3200 C 304.235 3.5773 -0.3946 0
M  V30 3201 C 303.843 4.09635 -1.81392 0
M  V30 3202 C 305.587 4.24499 0.00907364 0
M  V30 3203 C 303.494 5.59707 -1.91003 0
M  V30 3204 H 302.424 0.74868 -0.0894114 0
M  V30 3205 H 305.075 1.60784 -0.884352 0
M  V30 3206 H 303.457 3.94792 0.30911 0
M  V30 3207 H 304.631 3.83955 -2.54785 0
M  V30 3208 H 302.946 3.55456 -2.16888 0
M  V30 3209 H 305.543 5.34683 -0.0420404 0
M  V30 3210 H 305.886 4.02824 1.05065 0
M  V30 3211 H 306.419 3.92536 -0.645007 0
M  V30 3212 H 303.158 5.86234 -2.93275 0
M  V30 3213 H 302.678 5.87258 -1.22019 0
M  V30 3214 H 304.357 6.24776 -1.6812 0
M  V30 3215 N 304.489 0.459591 1.5075 0
M  V30 3216 C 305.736 -0.0993495 2.02256 0
M  V30 3217 C 306.064 -1.40751 1.34237 0
M  V30 3218 O 305.319 -1.90379 0.453228 0
M  V30 3219 C 305.618 -0.342866 3.55752 0
M  V30 3220 C 305.284 0.88218 4.42186 0
M  V30 3221 C 303.946 1.21808 4.65528 0
M  V30 3222 C 306.298 1.69837 4.92752 0
M  V30 3223 C 303.626 2.37045 5.36681 0
M  V30 3224 C 305.978 2.84192 5.65171 0
M  V30 3225 C 304.642 3.1821 5.8677 0
M  V30 3226 H 303.912 -0.0363545 0.740108 0
M  V30 3227 H 306.559 0.611329 1.8148 0
M  V30 3228 H 304.864 -1.13567 3.7498 0
M  V30 3229 H 306.561 -0.789121 3.93159 0
M  V30 3230 H 303.151 0.610467 4.2423 0
M  V30 3231 H 307.335 1.45205 4.74583 0
M  V30 3232 H 302.591 2.63689 5.51614 0
M  V30 3233 H 306.765 3.4779 6.03337 0
M  V30 3234 H 304.392 4.07613 6.41682 0
M  V30 3235 N 305.967 -1.56429 0.191757 0
M  V30 3236 C 307.383 -1.58754 -0.164137 0
M  V30 3237 C 307.583 -1.20782 -1.61288 0
M  V30 3238 O 306.639 -0.928999 -2.34789 0
M  V30 3239 C 307.952 -3.00396 0.135195 0
M  V30 3240 C 309.5 -3.1291 0.0750351 0
M  V30 3241 C 309.975 -4.56679 0.347632 0
M  V30 3242 N 311.466 -4.62252 0.296131 0
M  V30 3243 C 312.201 -5.71379 0.480948 0
M  V30 3244 N 311.697 -6.88986 0.725933 0
M  V30 3245 N 313.49 -5.60563 0.415435 0
M  V30 3246 H 305.641 -1.79393 1.13718 0
M  V30 3247 H 307.904 -0.832414 0.453643 0
M  V30 3248 H 307.61 -3.32726 1.13958 0
M  V30 3249 H 307.484 -3.72963 -0.563773 0
M  V30 3250 H 309.871 -2.80394 -0.919948 0
M  V30 3251 H 309.952 -2.42736 0.807029 0
M  V30 3252 H 309.596 -4.89907 1.33992 0
M  V30 3253 H 309.526 -5.25039 -0.405212 0
M  V30 3254 H 312.017 -3.7773 0.113259 0
M  V30 3255 H 312.33 -7.68046 0.855857 0
M  V30 3256 H 310.675 -6.90801 0.762788 0
M  V30 3257 H 313.866 -4.67561 0.224486 0
M  V30 3258 H 314.039 -6.45551 0.562889 0
M  V30 3259 N 307.445 0.0818655 -1.57387 0
M  V30 3260 C 308.408 1.08265 -2.02018 0
M  V30 3261 C 309.408 1.32183 -0.915664 0
M  V30 3262 O 310.598 1.28073 -1.18081 0
M  V30 3263 C 307.73 2.42871 -2.39221 0
M  V30 3264 H 308.923 0.698204 -2.91659 0
M  V30 3265 H 306.476 0.327303 -1.52835 0
M  V30 3266 H 307.211 2.86167 -1.52575 0
M  V30 3267 H 306.996 2.26855 -3.19811 0
M  V30 3268 H 308.486 3.14826 -2.74362 0
M  V30 3269 N 308.923 1.53595 0.353017 0
M  V30 3270 C 309.853 1.83902 1.43883 0
M  V30 3271 C 310.834 0.693421 1.55324 0
M  V30 3272 O 312.019 0.944452 1.69687 0
M  V30 3273 C 309.149 2.04016 2.8106 0
M  V30 3274 C 308.103 3.19814 2.84434 0
M  V30 3275 C 307.429 3.25244 4.24406 0
M  V30 3276 C 308.729 4.58133 2.50822 0
M  V30 3277 H 310.423 2.74835 1.1877 0
M  V30 3278 H 307.969 1.32242 0.569917 0
M  V30 3279 H 309.922 2.238 3.57059 0
M  V30 3280 H 308.646 1.09804 3.07588 0
M  V30 3281 H 307.305 2.9987 2.10887 0
M  V30 3282 H 306.953 2.28646 4.48029 0
M  V30 3283 H 306.653 4.03054 4.27576 0
M  V30 3284 H 308.177 3.47228 5.0226 0
M  V30 3285 H 309.591 4.77995 3.16534 0
M  V30 3286 H 307.988 5.38276 2.6529 0
M  V30 3287 H 309.058 4.62387 1.46034 0
M  V30 3288 N 310.401 -0.613514 1.45168 0
M  V30 3289 C 311.678 -1.37263 1.39349 0
M  V30 3290 C 312.058 -2.11012 0.0610848 0
M  V30 3291 O 311.406 -2.07502 -0.956825 0
M  V30 3292 C 311.616 -2.3244 2.60332 0
M  V30 3293 C 312.964 -2.9523 3.05163 0
M  V30 3294 O 313.988 -2.42762 2.60663 0
M  V30 3295 O 312.847 -3.90454 3.82372 0
M  V30 3296 H 309.941 -0.615188 0.552696 0
M  V30 3297 H 312.487 -0.637097 1.57287 0
M  V30 3298 H 311.259 -1.77164 3.48896 0
M  V30 3299 H 310.882 -3.13383 2.44698 0
M  V30 3300 N 311.879 -1.3236 -0.855495 0
M  V30 3301 C 313.29 -1.2056 -1.42556 0
M  V30 3302 C 313.641 0.182209 -1.95352 0
M  V30 3303 O 312.766 1.08088 -1.87472 0
M  V30 3304 C 313.361 -2.1826 -2.59129 0
M  V30 3305 C 311.92 -2.10351 -3.12137 0
M  V30 3306 C 311.067 -2.06674 -1.84882 0
M  V30 3307 H 314.018 -1.442 -0.662727 0
M  V30 3308 H 314.039 -1.78064 -3.36264 0
M  V30 3309 H 313.551 -3.19257 -2.20673 0
M  V30 3310 H 311.652 -1.12599 -3.55179 0
M  V30 3311 H 311.765 -3.00135 -3.73438 0
M  V30 3312 H 310.129 -1.51901 -2.04446 0
M  V30 3313 H 310.912 -3.09451 -1.48643 0
M  V30 3314 N 313.357 1.07166 -1.15556 0
M  V30 3315 C 314.32 2.12589 -0.856644 0
M  V30 3316 C 315.32 1.6015 0.14444 0
M  V30 3317 O 316.51 1.7399 -0.0854163 0
M  V30 3318 C 313.642 3.39753 -0.279405 0
M  V30 3319 H 314.835 2.40539 -1.79112 0
M  V30 3320 H 312.388 1.23086 -0.963298 0
M  V30 3321 H 313.123 3.17447 0.663174 0
M  V30 3322 H 312.908 3.79117 -1.00063 0
M  V30 3323 H 314.398 4.17507 -0.0879113 0
M  V30 3324 N 314.835 0.952656 1.25548 0
M  V30 3325 C 316.082 0.606373 1.93208 0
M  V30 3326 C 316.41 -0.85631 1.74636 0
M  V30 3327 O 315.665 -1.62951 1.08376 0
M  V30 3328 C 315.964 0.908818 3.45652 0
M  V30 3329 C 315.63 2.35722 3.84378 0
M  V30 3330 C 314.292 2.75312 3.9466 0
M  V30 3331 C 316.644 3.29793 4.03591 0
M  V30 3332 C 313.972 4.08047 4.21562 0
M  V30 3333 C 316.324 4.62138 4.31985 0
M  V30 3334 C 314.988 5.01528 4.40484 0
M  V30 3335 H 314.258 0.221888 0.706998 0
M  V30 3336 H 316.905 1.20132 1.49133 0
M  V30 3337 H 315.21 0.231456 3.91116 0
M  V30 3338 H 316.907 0.619498 3.96186 0
M  V30 3339 H 313.497 2.04017 3.76928 0
M  V30 3340 H 317.681 3.00397 3.95064 0
M  V30 3341 H 312.937 4.38212 4.26357 0
M  V30 3342 H 317.111 5.35012 4.45797 0
M  V30 3343 H 314.738 6.04406 4.61083 0
M  V30 3344 N 316.313 -1.40141 0.720998 0
M  V30 3345 C 317.26 -2.30688 0.071919 0
M  V30 3346 C 318.23 -1.48476 -0.744584 0
M  V30 3347 O 319.415 -1.77201 -0.707423 0
M  V30 3348 C 316.555 -3.34724 -0.839855 0
M  V30 3349 C 315.668 -4.31998 -0.0122438 0
M  V30 3350 C 314.803 -5.23102 -0.923995 0
M  V30 3351 C 313.842 -6.12033 -0.0907969 0
M  V30 3352 N 312.979 -6.95537 -0.957718 0
M  V30 3353 H 317.819 -2.85628 0.849755 0
M  V30 3354 H 315.356 -1.40653 0.430726 0
M  V30 3355 H 317.314 -3.93618 -1.38279 0
M  V30 3356 H 315.944 -2.81274 -1.58381 0
M  V30 3357 H 314.996 -3.74841 0.64794 0
M  V30 3358 H 316.308 -4.94772 0.632595 0
M  V30 3359 H 315.462 -5.86953 -1.53527 0
M  V30 3360 H 314.201 -4.60615 -1.60264 0
M  V30 3361 H 313.206 -5.47207 0.533377 0
M  V30 3362 H 314.431 -6.76581 0.584428 0
M  V30 3363 H 312.377 -6.35633 -1.62192 0
M  V30 3364 H 312.294 -7.55099 -0.36904 0
M  V30 3365 H 313.562 -7.63832 -1.555 0
M  V30 3366 N 317.792 -0.46758 -1.50504 0
M  V30 3367 C 319.041 0.0902868 -2.01498 0
M  V30 3368 C 319.354 1.411 -1.35463 0
M  V30 3369 O 320.56 2.0536 -1.77594 0
M  V30 3370 C 319.016 0.21142 -3.59278 0
M  V30 3371 C 318.624 -1.10065 -4.34269 0
M  V30 3372 C 320.368 0.721433 -4.18325 0
M  V30 3373 C 318.275 -0.943505 -5.83825 0
M  V30 3374 H 317.205 0.037517 -0.753066 0
M  V30 3375 H 319.856 -0.601943 -1.73346 0
M  V30 3376 H 318.238 0.967352 -3.84003 0
M  V30 3377 H 319.412 -1.86726 -4.21272 0
M  V30 3378 H 317.727 -1.5415 -3.86816 0
M  V30 3379 H 320.324 0.85598 -5.27804 0
M  V30 3380 H 320.667 1.71186 -3.79475 0
M  V30 3381 H 321.2 0.0229843 -3.97793 0
M  V30 3382 H 317.939 -1.90719 -6.27141 0
M  V30 3383 H 317.459 -0.217213 -5.99407 0
M  V30 3384 H 319.138 -0.608715 -6.4413 0
M  V30 3385 N 319.27 1.56325 -0.20005 0
M  V30 3386 C 320.18 2.22931 0.730668 0
M  V30 3387 C 321.196 1.22997 1.23076 0
M  V30 3388 O 322.372 1.55748 1.27689 0
M  V30 3389 C 319.437 2.87948 1.93098 0
M  V30 3390 C 318.498 4.03166 1.47497 0
M  V30 3391 C 317.731 4.65073 2.61807 0
M  V30 3392 O 317.954 4.25913 3.79413 0
M  V30 3393 O 316.888 5.54452 2.34237 0
M  V30 3394 H 320.714 3.03084 0.193391 0
M  V30 3395 H 318.299 1.49371 0.0294621 0
M  V30 3396 H 320.181 3.29063 2.6324 0
M  V30 3397 H 318.856 2.10771 2.45677 0
M  V30 3398 H 317.763 3.66664 0.742201 0
M  V30 3399 H 319.096 4.82022 0.995796 0
M  V30 3400 N 320.748 -0.0735177 1.57428 0
M  V30 3401 C 322.025 -0.805903 1.78226 0
M  V30 3402 C 322.405 -1.95874 0.787189 0
M  V30 3403 O 321.753 -2.2779 -0.180029 0
M  V30 3404 C 321.963 -1.28045 3.24662 0
M  V30 3405 C 323.311 -1.71453 3.88444 0
M  V30 3406 O 324.335 -1.37616 3.28543 0
M  V30 3407 O 323.194 -2.34093 4.93825 0
M  V30 3408 H 320.288 -0.386041 0.73137 0
M  V30 3409 H 322.834 -0.0537269 1.69615 0
M  V30 3410 H 321.606 -0.455476 3.8864 0
M  V30 3411 H 321.229 -2.094 3.37991 0
M  V30 3412 N 322.226 -1.5378 -0.344866 0
M  V30 3413 C 323.637 -1.62428 -0.920552 0
M  V30 3414 C 323.988 -0.504747 -1.89596 0
M  V30 3415 O 323.113 0.365711 -2.13287 0
M  V30 3416 C 323.708 -2.94419 -1.67639 0
M  V30 3417 C 322.267 -3.05333 -2.20111 0
M  V30 3418 C 321.414 -2.57866 -1.01982 0
M  V30 3419 H 324.365 -1.58222 -0.123042 0
M  V30 3420 H 324.386 -2.83384 -2.53917 0
M  V30 3421 H 323.898 -3.7588 -0.966224 0
M  V30 3422 H 321.999 -2.28502 -2.94308 0
M  V30 3423 H 322.112 -4.10778 -2.46573 0
M  V30 3424 H 320.476 -2.13241 -1.39285 0
M  V30 3425 H 321.259 -3.41765 -0.324308 0
M  V30 3426 N 323.704 0.605807 -1.45491 0
M  V30 3427 C 324.934 1.38934 -1.52908 0
M  V30 3428 C 325.342 1.88513 -0.161086 0
M  V30 3429 O 324.685 1.62962 0.847891 0
M  V30 3430 C 324.747 2.62737 -2.45376 0
M  V30 3431 C 324.411 2.34785 -3.92078 0
M  V30 3432 C 325.408 1.95038 -4.8193 0
M  V30 3433 C 323.093 2.47642 -4.37011 0
M  V30 3434 C 325.087 1.68511 -6.14722 0
M  V30 3435 C 322.774 2.20728 -5.69844 0
M  V30 3436 C 323.772 1.81225 -6.58519 0
M  V30 3437 O 323.46 1.54627 -7.88889 0
M  V30 3438 H 323.192 0.431629 -0.520262 0
M  V30 3439 H 325.746 0.74573 -1.91384 0
M  V30 3440 H 323.976 3.29824 -2.01874 0
M  V30 3441 H 325.665 3.24783 -2.43456 0
M  V30 3442 H 326.431 1.84639 -4.48479 0
M  V30 3443 H 322.31 2.77356 -3.68232 0
M  V30 3444 H 325.854 1.37602 -6.83894 0
M  V30 3445 H 321.751 2.30744 -6.02849 0
M  V30 3446 H 322.519 1.68665 -8.00933 0
M  V30 3447 N 325.182 1.32811 0.848464 0
M  V30 3448 C 326.407 1.26882 1.6406 0
M  V30 3449 C 326.832 -0.15913 1.87426 0
M  V30 3450 O 326.19 -1.11258 1.43148 0
M  V30 3451 C 326.238 2.03997 2.97351 0
M  V30 3452 O 325.342 1.39201 3.88197 0
M  V30 3453 H 324.683 0.436982 0.499943 0
M  V30 3454 H 327.213 1.75224 1.0563 0
M  V30 3455 H 327.223 2.14403 3.47124 0
M  V30 3456 H 325.898 3.0783 2.79666 0
M  V30 3457 H 324.475 1.37381 3.46671 0
M  V30 3458 N 326.66 -1.06551 1.16123 0
M  V30 3459 C 328.071 -1.60768 0.949232 0
M  V30 3460 C 328.422 -1.89523 -0.507508 0
M  V30 3461 O 327.547 -1.66671 -1.38021 0
M  V30 3462 C 328.142 -2.92086 1.71671 0
M  V30 3463 C 326.701 -3.43015 1.54977 0
M  V30 3464 C 325.848 -2.16947 1.72711 0
M  V30 3465 H 328.799 -0.895354 1.31031 0
M  V30 3466 H 328.82 -3.6138 1.19099 0
M  V30 3467 H 328.332 -2.71127 2.7769 0
M  V30 3468 H 326.433 -3.69039 0.513873 0
M  V30 3469 H 326.546 -4.18516 2.33198 0
M  V30 3470 H 324.91 -2.27041 1.15431 0
M  V30 3471 H 325.693 -1.98473 2.80113 0
M  V30 3472 N 328.138 -0.959301 -1.25041 0
M  V30 3473 C 329.554 -0.664474 -1.4511 0
M  V30 3474 C 329.754 0.776481 -1.85938 0
M  V30 3475 O 328.81 1.55128 -1.99227 0
M  V30 3476 C 330.123 -1.64139 -2.5195 0
M  V30 3477 C 331.671 -1.65309 -2.65786 0
M  V30 3478 C 332.146 -2.61777 -3.75815 0
M  V30 3479 N 333.637 -2.60169 -3.83231 0
M  V30 3480 C 334.372 -3.31489 -4.6787 0
M  V30 3481 N 333.868 -4.12298 -5.56761 0
M  V30 3482 N 335.661 -3.20354 -4.61876 0
M  V30 3483 H 327.812 -1.89043 -0.968332 0
M  V30 3484 H 330.075 -0.813408 -0.4869 0
M  V30 3485 H 329.781 -2.67086 -2.28819 0
M  V30 3486 H 329.655 -1.40756 -3.49954 0
M  V30 3487 H 332.042 -0.630778 -2.8828 0
M  V30 3488 H 332.123 -1.92753 -1.68167 0
M  V30 3489 H 331.767 -3.64137 -3.54071 0
M  V30 3490 H 331.697 -2.31616 -4.72929 0
M  V30 3491 H 334.188 -2.01507 -3.19692 0
M  V30 3492 H 334.501 -4.63625 -6.18281 0
M  V30 3493 H 332.846 -4.16395 -5.56454 0
M  V30 3494 H 336.037 -2.56692 -3.91442 0
M  V30 3495 H 336.21 -3.76201 -5.27614 0
M  V30 3496 N 329.616 1.39756 -0.72842 0
M  V30 3497 C 330.865 1.99879 -0.270407 0
M  V30 3498 C 331.178 1.58449 1.14688 0
M  V30 3499 O 332.384 2.11362 1.70407 0
M  V30 3500 C 330.84 3.57292 -0.43252 0
M  V30 3501 C 330.448 4.07688 -1.85727 0
M  V30 3502 C 332.192 4.24485 -0.0359507 0
M  V30 3503 C 330.099 5.5765 -1.96928 0
M  V30 3504 H 329.029 0.747689 -0.0973472 0
M  V30 3505 H 331.68 1.59837 -0.901355 0
M  V30 3506 H 330.062 3.95097 0.267219 0
M  V30 3507 H 331.236 3.81231 -2.58843 0
M  V30 3508 H 329.551 3.53135 -2.20646 0
M  V30 3509 H 332.148 5.34609 -0.0987484 0
M  V30 3510 H 332.491 4.03915 1.00787 0
M  V30 3511 H 333.024 3.9183 -0.686604 0
M  V30 3512 H 329.763 5.8309 -2.99476 0
M  V30 3513 H 329.283 5.8593 -1.28241 0
M  V30 3514 H 330.962 6.22957 -1.74737 0
M  V30 3515 N 331.094 0.475555 1.50254 0
M  V30 3516 C 332.026 -0.352649 2.26471 0
M  V30 3517 C 333.039 -0.953165 1.3198 0
M  V30 3518 O 334.228 -0.840815 1.57457 0
M  V30 3519 C 331.328 -1.50902 3.0345 0
M  V30 3520 C 330.501 -1.02047 4.25329 0
M  V30 3521 C 329.56 -2.05142 4.84565 0
M  V30 3522 O 328.586 -1.63023 5.45355 0
M  V30 3523 N 329.788 -3.37987 4.71959 0
M  V30 3524 H 332.553 0.300767 2.98187 0
M  V30 3525 H 330.114 0.306598 1.5897 0
M  V30 3526 H 332.106 -2.19572 3.39956 0
M  V30 3527 H 330.676 -2.06705 2.34504 0
M  V30 3528 H 329.896 -0.159507 3.93877 0
M  V30 3529 H 331.184 -0.672061 5.04342 0
M  V30 3530 H 330.582 -3.74913 4.23623 0
M  V30 3531 H 329.139 -4.02443 5.12721 0
M  V30 3532 N 332.573 -1.56217 0.208337 0
M  V30 3533 C 333.521 -2.21053 -0.723769 0
M  V30 3534 C 334.515 -1.18578 -1.20978 0
M  V30 3535 O 335.721 -1.36691 -1.17114 0
M  V30 3536 H 332.096 -0.708595 -0.251788 0
M  V30 3537 H 334.067 -2.98006 -0.153365 0
M  V30 3538 C 332.816 -2.89417 -1.927 0
M  V30 3539 H 332.139 -3.68019 -1.56212 0
M  V30 3540 H 333.579 -3.38201 -2.55727 0
M  V30 3541 C 332.038 -1.91166 -2.77411 0
M  V30 3542 O 332.568 -1.42026 -3.75754 0
M  V30 3543 N 330.774 -1.59105 -2.43175 0
M  V30 3544 H 330.321 -1.99259 -1.63259 0
M  V30 3545 H 330.279 -0.936255 -3.00136 0
M  V30 3546 N 334.051 0.0651679 -1.57465 0
M  V30 3547 C 334.981 1.07693 -2.07182 0
M  V30 3548 C 335.962 1.39962 -0.966673 0
M  V30 3549 O 337.147 1.49475 -1.2398 0
M  V30 3550 C 334.277 2.3885 -2.52127 0
M  V30 3551 C 333.231 2.20917 -3.66579 0
M  V30 3552 C 332.557 3.57515 -3.97601 0
M  V30 3553 C 333.857 1.62493 -4.9638 0
M  V30 3554 H 335.551 0.663199 -2.91962 0
M  V30 3555 H 333.097 0.317569 -1.40455 0
M  V30 3556 H 335.05 3.09928 -2.85522 0
M  V30 3557 H 333.774 2.82215 -1.64384 0
M  V30 3558 H 332.433 1.52279 -3.33477 0
M  V30 3559 H 332.081 3.98463 -3.06979 0
M  V30 3560 H 331.781 3.46353 -4.74672 0
M  V30 3561 H 333.305 4.30013 -4.33499 0
M  V30 3562 H 334.719 2.23445 -5.27963 0
M  V30 3563 H 333.116 1.62009 -5.77818 0
M  V30 3564 H 334.186 0.587041 -4.81333 0
M  V30 3565 N 335.529 1.53961 0.336706 0
M  V30 3566 C 336.459 1.85417 1.41925 0
M  V30 3567 C 337.44 0.709856 1.5458 0
M  V30 3568 O 338.625 0.962396 1.68676 0
M  V30 3569 C 335.755 2.06985 2.78881 0
M  V30 3570 C 334.709 3.22813 2.81026 0
M  V30 3571 C 334.035 3.29727 4.20932 0
M  V30 3572 C 335.335 4.60767 2.45949 0
M  V30 3573 H 337.029 2.76079 1.15848 0
M  V30 3574 H 334.575 1.32839 0.555859 0
M  V30 3575 H 336.528 2.27575 3.54665 0
M  V30 3576 H 335.252 1.13061 3.06406 0
M  V30 3577 H 333.911 3.0209 2.07695 0
M  V30 3578 H 333.559 2.33385 4.45579 0
M  V30 3579 H 333.259 4.07566 4.23277 0
M  V30 3580 H 334.783 3.52536 4.98549 0
M  V30 3581 H 336.197 4.81325 3.11446 0
M  V30 3582 H 334.594 5.4106 2.59566 0
M  V30 3583 H 335.664 4.6391 1.41122 0
M  V30 3584 N 337.007 -0.598083 1.45811 0
M  V30 3585 C 337.954 -1.7082 1.55207 0
M  V30 3586 C 338.924 -1.61278 0.39732 0
M  V30 3587 O 340.109 -1.80717 0.612038 0
M  V30 3588 C 337.249 -3.09144 1.53376 0
M  V30 3589 C 336.362 -3.29423 2.79472 0
M  V30 3590 C 335.497 -4.57907 2.69248 0
M  V30 3591 C 334.536 -4.71476 3.90354 0
M  V30 3592 N 333.673 -5.9127 3.78608 0
M  V30 3593 H 338.513 -1.62125 2.50039 0
M  V30 3594 H 336.05 -0.790389 1.24062 0
M  V30 3595 H 338.008 -3.89186 1.50301 0
M  V30 3596 H 336.638 -3.16773 0.620876 0
M  V30 3597 H 335.69 -2.43091 2.92594 0
M  V30 3598 H 337.002 -3.3532 3.69272 0
M  V30 3599 H 336.156 -5.46157 2.64192 0
M  V30 3600 H 334.895 -4.54423 1.77063 0
M  V30 3601 H 333.9 -3.81648 3.95759 0
M  V30 3602 H 335.125 -4.76751 4.83617 0
M  V30 3603 H 333.071 -5.88813 2.89199 0
M  V30 3604 H 332.988 -5.98369 4.6205 0
M  V30 3605 H 334.256 -6.81992 3.77501 0
M  V30 3606 N 338.485 -1.33259 -0.841409 0
M  V30 3607 C 339.734 -1.23921 -1.59143 0
M  V30 3608 C 340.047 0.1941 -1.94635 0
M  V30 3609 O 341.253 0.409474 -2.68394 0
M  V30 3610 C 339.709 -2.17119 -2.87032 0
M  V30 3611 C 339.317 -3.65606 -2.58914 0
M  V30 3612 C 341.061 -2.16648 -3.65053 0
M  V30 3613 C 338.968 -4.50726 -3.82884 0
M  V30 3614 H 337.898 -0.460264 -0.597221 0
M  V30 3615 H 340.549 -1.58307 -0.927959 0
M  V30 3616 H 338.931 -1.75663 -3.54906 0
M  V30 3617 H 340.105 -4.15487 -1.99267 0
M  V30 3618 H 338.42 -3.68341 -1.942 0
M  V30 3619 H 341.017 -2.77474 -4.57069 0
M  V30 3620 H 341.36 -1.16088 -3.99787 0
M  V30 3621 H 341.893 -2.56453 -3.041 0
M  V30 3622 H 338.632 -5.52151 -3.53283 0
M  V30 3623 H 338.152 -4.0559 -4.41879 0
M  V30 3624 H 339.831 -4.64401 -4.50489 0
M  V30 3625 N 339.963 1.05934 -1.16686 0
M  V30 3626 C 341.191 1.8249 -0.974929 0
M  V30 3627 C 341.606 1.82679 0.476861 0
M  V30 3628 O 340.963 1.2486 1.33103 0
M  V30 3629 C 341.014 3.28943 -1.49929 0
M  V30 3630 O 340.735 3.28886 -2.89423 0
M  V30 3631 C 342.236 4.22215 -1.35089 0
M  V30 3632 H 339.456 0.575295 -0.345365 0
M  V30 3633 H 342 1.33631 -1.548 0
M  V30 3634 H 340.155 3.751 -0.968423 0
M  V30 3635 H 340.569 4.20493 -3.13506 0
M  V30 3636 H 342.043 5.22987 -1.76603 0
M  V30 3637 H 342.52 4.38195 -0.296935 0
M  V30 3638 H 343.126 3.81907 -1.87155 0
M  V30 3639 N 341.441 0.965919 1.2453 0
M  V30 3640 C 342.389 0.486506 2.27455 0
M  V30 3641 C 343.383 -0.449041 1.6334 0
M  V30 3642 O 344.589 -0.324527 1.7705 0
M  V30 3643 H 340.964 0.138857 0.739069 0
M  V30 3644 H 342.935 1.3666 2.65267 0
M  V30 3645 C 341.684 -0.209481 3.47068 0
M  V30 3646 H 341.007 0.50129 3.96645 0
M  V30 3647 H 342.447 -0.508775 4.20936 0
M  V30 3648 C 340.906 -1.43586 3.0477 0
M  V30 3649 O 341.436 -2.53299 3.11773 0
M  V30 3650 N 339.642 -1.30126 2.59838 0
M  V30 3651 H 339.189 -0.408583 2.54339 0
M  V30 3652 H 339.147 -2.12294 2.31902 0
M  V30 3653 N 342.919 -1.39368 0.735821 0
M  V30 3654 C 343.849 -2.33234 0.111506 0
M  V30 3655 C 344.83 -1.53954 -0.723334 0
M  V30 3656 O 346.015 -1.82344 -0.668147 0
M  V30 3657 C 343.145 -3.38057 -0.795917 0
M  V30 3658 C 342.099 -4.2795 -0.065172 0
M  V30 3659 C 341.425 -5.23479 -1.08967 0
M  V30 3660 C 342.725 -5.10741 1.09273 0
M  V30 3661 H 344.419 -2.85692 0.895571 0
M  V30 3662 H 341.965 -1.37364 0.432109 0
M  V30 3663 H 343.918 -4.02675 -1.24221 0
M  V30 3664 H 342.642 -2.8404 -1.61211 0
M  V30 3665 H 341.301 -3.64813 0.361511 0
M  V30 3666 H 340.949 -4.65758 -1.89944 0
M  V30 3667 H 340.649 -5.84472 -0.605489 0
M  V30 3668 H 342.173 -5.90974 -1.53565 0
M  V30 3669 H 343.587 -5.68699 0.724841 0
M  V30 3670 H 341.984 -5.8088 1.50659 0
M  V30 3671 H 343.054 -4.45525 1.91404 0
M  V30 3672 N 344.397 -0.483516 -1.5 0
M  V30 3673 C 345.813 -0.138404 -1.58999 0
M  V30 3674 C 346.013 1.35597 -1.4905 0
M  V30 3675 O 345.069 2.13039 -1.35539 0
M  V30 3676 C 346.382 -0.699658 -2.92447 0
M  V30 3677 C 347.93 -0.664195 -3.05872 0
M  V30 3678 C 348.405 -1.20321 -4.41913 0
M  V30 3679 N 349.896 -1.16315 -4.48358 0
M  V30 3680 C 350.631 -1.55058 -5.52037 0
M  V30 3681 N 350.127 -2.01311 -6.62907 0
M  V30 3682 N 351.92 -1.46584 -5.42651 0
M  V30 3683 H 344.071 -1.45529 -1.5471 0
M  V30 3684 H 346.334 -0.60258 -0.731848 0
M  V30 3685 H 346.04 -1.747 -3.05242 0
M  V30 3686 H 345.914 -0.150194 -3.76901 0
M  V30 3687 H 348.301 0.374272 -2.92717 0
M  V30 3688 H 348.382 -1.25061 -2.23144 0
M  V30 3689 H 348.026 -2.24037 -4.55818 0
M  V30 3690 H 347.956 -0.592896 -5.23252 0
M  V30 3691 H 350.447 -0.824058 -3.68806 0
M  V30 3692 H 350.76 -2.2899 -7.38095 0
M  V30 3693 H 349.105 -2.05273 -6.63994 0
M  V30 3694 H 352.296 -1.10281 -4.54924 0
M  V30 3695 H 352.469 -1.77103 -6.23329 0
M  V30 3696 N 345.875 1.56104 -0.216619 0
M  V30 3697 C 347.124 1.97348 0.416744 0
M  V30 3698 C 347.437 1.10715 1.6125 0
M  V30 3699 O 348.643 1.41836 2.31506 0
M  V30 3700 C 347.099 3.51059 0.792835 0
M  V30 3701 C 346.707 4.46387 -0.379828 0
M  V30 3702 C 348.451 4.01026 1.39208 0
M  V30 3703 C 346.358 5.91397 0.0184223 0
M  V30 3704 H 345.288 0.736942 0.159475 0
M  V30 3705 H 347.939 1.80827 -0.31205 0
M  V30 3706 H 346.321 3.63162 1.57891 0
M  V30 3707 H 347.495 4.46029 -1.15737 0
M  V30 3708 H 345.81 4.06734 -0.891979 0
M  V30 3709 H 348.407 5.0686 1.70286 0
M  V30 3710 H 348.75 3.46587 2.30614 0
M  V30 3711 H 349.283 3.92125 0.669537 0
M  V30 3712 H 346.022 6.49807 -0.862002 0
M  V30 3713 H 345.542 5.94961 0.760384 0
M  V30 3714 H 347.221 6.45455 0.446818 0
M  V30 3715 N 347.353 -0.0568162 1.57498 0
M  V30 3716 C 348.3 -1.06591 2.04712 0
M  V30 3717 C 349.27 -1.3758 0.930644 0
M  V30 3718 O 350.455 -1.48392 1.19935 0
M  V30 3719 C 347.595 -2.3701 2.50839 0
M  V30 3720 C 346.708 -2.12421 3.76167 0
M  V30 3721 C 345.843 -3.36511 4.11015 0
M  V30 3722 C 344.882 -3.07353 5.2934 0
M  V30 3723 N 344.019 -4.23816 5.59754 0
M  V30 3724 H 348.859 -0.65631 2.90683 0
M  V30 3725 H 346.396 -0.312481 1.43743 0
M  V30 3726 H 348.354 -3.13175 2.7564 0
M  V30 3727 H 346.984 -2.75744 1.67825 0
M  V30 3728 H 346.036 -1.2688 3.58616 0
M  V30 3729 H 347.348 -1.86894 4.62463 0
M  V30 3730 H 346.502 -4.21062 4.36797 0
M  V30 3731 H 345.241 -3.65128 3.23315 0
M  V30 3732 H 344.246 -2.212 5.03339 0
M  V30 3733 H 345.471 -2.80043 6.1867 0
M  V30 3734 H 343.417 -4.52436 4.75014 0
M  V30 3735 H 343.334 -4.01614 6.40501 0
M  V30 3736 H 344.602 -5.0932 5.90096 0
M  V30 3737 N 348.832 -1.54138 -0.328536 0
M  V30 3738 C 350.079 -1.72105 -1.06706 0
M  V30 3739 C 350.407 -0.492111 -1.88171 0
M  V30 3740 O 349.662 0.526153 -1.88494 0
M  V30 3741 C 349.961 -2.9457 -2.02393 0
M  V30 3742 C 349.627 -4.29544 -1.37122 0
M  V30 3743 C 348.289 -4.6624 -1.19052 0
M  V30 3744 C 350.641 -5.1333 -0.902331 0
M  V30 3745 C 347.969 -5.84325 -0.527331 0
M  V30 3746 C 350.321 -6.32094 -0.252988 0
M  V30 3747 C 348.985 -6.67473 -0.0600901 0
M  V30 3748 H 348.255 -0.629775 -0.390466 0
M  V30 3749 H 350.902 -1.88372 -0.34473 0
M  V30 3750 H 349.207 -2.72969 -2.81061 0
M  V30 3751 H 350.904 -3.05665 -2.59557 0
M  V30 3752 H 347.494 -4.0067 -1.52188 0
M  V30 3753 H 351.678 -4.855 -1.02974 0
M  V30 3754 H 346.934 -6.103 -0.366634 0
M  V30 3755 H 351.108 -6.96299 0.118366 0
M  V30 3756 H 348.735 -7.58832 0.455828 0
M  V30 3757 N 350.31 0.590341 -1.46126 0
M  V30 3758 C 351.556 1.35082 -1.51264 0
M  V30 3759 C 351.889 1.93534 -0.160711 0
M  V30 3760 O 351.164 1.76045 0.826956 0
M  V30 3761 C 351.447 2.48588 -2.6053 0
M  V30 3762 C 351.3 1.95221 -4.05227 0
M  V30 3763 C 352.619 3.50662 -2.6594 0
M  V30 3764 H 349.738 0.489803 -0.550692 0
M  V30 3765 H 352.38 0.663887 -1.78024 0
M  V30 3766 H 350.53 3.07186 -2.37843 0
M  V30 3767 H 352.202 1.41139 -4.39178 0
M  V30 3768 H 350.445 1.26101 -4.15068 0
M  V30 3769 H 351.116 2.77121 -4.77397 0
M  V30 3770 H 353.592 3.01934 -2.86313 0
M  V30 3771 H 352.468 4.27551 -3.44226 0
M  V30 3772 H 352.729 4.07399 -1.71694 0
M  V30 3773 N 351.788 1.33704 0.83433 0
M  V30 3774 C 352.735 1.24335 1.94447 0
M  V30 3775 C 353.705 0.120991 1.65659 0
M  V30 3776 O 354.89 0.300035 1.88426 0
M  V30 3777 C 352.03 0.993124 3.30501 0
M  V30 3778 C 351.143 2.20217 3.71657 0
M  V30 3779 C 350.278 1.88572 4.96602 0
M  V30 3780 C 349.317 3.05683 5.30306 0
M  V30 3781 N 348.454 2.73997 6.46429 0
M  V30 3782 H 353.294 2.1928 2.01792 0
M  V30 3783 H 350.831 1.09035 0.987404 0
M  V30 3784 H 352.789 0.828467 4.08892 0
M  V30 3785 H 351.419 0.0803902 3.227 0
M  V30 3786 H 350.471 2.47642 2.88752 0
M  V30 3787 H 351.783 3.07752 3.92543 0
M  V30 3788 H 350.937 1.68776 5.82752 0
M  V30 3789 H 349.676 0.982799 4.77695 0
M  V30 3790 H 348.681 3.26088 4.42659 0
M  V30 3791 H 349.906 3.96737 5.51159 0
M  V30 3792 H 347.852 1.86268 6.28999 0
M  V30 3793 H 347.769 3.55064 6.67432 0
M  V30 3794 H 349.037 2.57679 7.35678 0
M  V30 3795 N 353.266 -1.05314 1.17247 0
M  V30 3796 C 354.196 -2.1498 0.911362 0
M  V30 3797 C 355.177 -1.69471 -0.146169 0
M  V30 3798 O 356.362 -1.942 0.003812 0
M  V30 3799 C 353.492 -3.4472 0.422528 0
M  V30 3800 C 352.446 -4.03789 1.4191 0
M  V30 3801 C 351.772 -5.28858 0.788274 0
M  V30 3802 C 353.072 -4.41418 2.7919 0
M  V30 3803 H 354.766 -2.3708 1.82848 0
M  V30 3804 H 352.312 -1.13938 0.880569 0
M  V30 3805 H 354.265 -4.20787 0.227289 0
M  V30 3806 H 352.989 -3.22269 -0.530123 0
M  V30 3807 H 351.648 -3.2979 1.60106 0
M  V30 3808 H 351.296 -5.02709 -0.171173 0
M  V30 3809 H 350.996 -5.69338 1.45353 0
M  V30 3810 H 352.52 -6.07612 0.603282 0
M  V30 3811 H 353.934 -5.08524 2.64719 0
M  V30 3812 H 352.331 -4.92913 3.42282 0
M  V30 3813 H 353.401 -3.51819 3.33693 0
M  V30 3814 N 354.744 -0.972509 -1.24016 0
M  V30 3815 C 355.694 -0.477561 -2.22942 0
M  V30 3816 C 356.678 0.44308 -1.54679 0
M  V30 3817 O 357.87 0.273219 -1.74879 0
M  V30 3818 C 354.999 0.226348 -3.42553 0
M  V30 3819 C 354.085 -0.713403 -4.18057 0
M  V30 3820 N 354.476 -1.8527 -4.70647 0
M  V30 3821 C 352.774 -0.525145 -4.42898 0
M  V30 3822 C 353.475 -2.44089 -5.28011 0
M  V30 3823 N 352.451 -1.72556 -5.15486 0
M  V30 3824 H 356.253 -1.34678 -2.61226 0
M  V30 3825 H 353.767 -0.832196 -1.39457 0
M  V30 3826 H 355.764 0.598184 -4.12586 0
M  V30 3827 H 354.424 1.09195 -3.05788 0
M  V30 3828 H 355.435 -2.2341 -4.67235 0
M  V30 3829 H 352.112 0.296096 -4.16449 0
M  V30 3830 H 353.502 -3.40259 -5.79374 0
M  V30 3831 N 356.222 1.38976 -0.743202 0
M  V30 3832 C 357.45 2.04636 -0.30525 0
M  V30 3833 C 357.865 1.56044 1.06281 0
M  V30 3834 O 357.222 0.728921 1.67311 0
M  V30 3835 C 357.273 3.60193 -0.307177 0
M  V30 3836 O 356.994 4.06998 -1.62124 0
M  V30 3837 C 358.495 4.4306 0.145928 0
M  V30 3838 H 355.715 0.65788 -0.132041 0
M  V30 3839 H 358.259 1.77866 -1.00915 0
M  V30 3840 H 356.414 3.85835 0.347898 0
M  V30 3841 H 356.828 5.01371 -1.54036 0
M  V30 3842 H 358.302 5.51921 0.0934183 0
M  V30 3843 H 358.779 4.22706 1.19231 0
M  V30 3844 H 359.385 4.22584 -0.479886 0
M  V30 3845 N 357.7 0.491464 1.49741 0
M  V30 3846 C 358.63 -0.28154 2.31796 0
M  V30 3847 C 359.611 -0.971473 1.3963 0
M  V30 3848 O 360.796 -0.964719 1.68543 0
M  V30 3849 C 357.926 -1.35203 3.19902 0
M  V30 3850 C 356.88 -0.782529 4.20786 0
M  V30 3851 C 356.206 -1.95283 4.97764 0
M  V30 3852 C 357.506 0.21999 5.21837 0
M  V30 3853 H 359.2 0.403355 2.96671 0
M  V30 3854 H 356.746 0.195425 1.42668 0
M  V30 3855 H 358.699 -1.90045 3.76113 0
M  V30 3856 H 357.423 -2.06598 2.52953 0
M  V30 3857 H 356.082 -0.255928 3.65706 0
M  V30 3858 H 355.73 -2.65423 4.2727 0
M  V30 3859 H 355.43 -1.57789 5.66018 0
M  V30 3860 H 356.954 -2.50577 5.56816 0
M  V30 3861 H 358.368 -0.23996 5.72798 0
M  V30 3862 H 356.765 0.51026 5.97927 0
M  V30 3863 H 357.835 1.13911 4.7133 0
M  V30 3864 N 359.178 -1.55987 0.224894 0
M  V30 3865 C 360.426 -1.97998 -0.405099 0
M  V30 3866 C 360.747 -1.11387 -1.60056 0
M  V30 3867 O 360.017 -0.191645 -1.9496 0
M  V30 3868 H 358.597 -0.731235 -0.152658 0
M  V30 3869 H 361.259 -1.92279 0.318567 0
M  V30 3870 H 360.355 -3.03463 -0.729167 0
M  V30 3871 N 360.656 0.0484629 -1.57525 0
M  V30 3872 C 361.933 0.777447 -1.79486 0
M  V30 3873 C 362.313 1.94597 -0.818251 0
M  V30 3874 O 361.661 2.28047 0.143767 0
M  V30 3875 C 361.871 1.22864 -3.26658 0
M  V30 3876 C 363.219 1.65251 -3.91123 0
M  V30 3877 O 364.243 1.32372 -3.3069 0
M  V30 3878 O 363.102 2.26207 -4.97486 0
M  V30 3879 H 360.196 0.374357 -0.737419 0
M  V30 3880 H 362.742 0.0267359 -1.69679 0
M  V30 3881 H 361.514 0.393589 -3.89316 0
M  V30 3882 H 361.137 2.03996 -3.41279 0
M  V30 3883 N 362.134 1.5431 0.320358 0
M  V30 3884 C 363.082 1.84647 1.4145 0
M  V30 3885 C 364.076 0.718624 1.53402 0
M  V30 3886 O 365.282 0.902335 1.5575 0
M  V30 3887 H 361.657 0.585349 0.472091 0
M  V30 3888 H 363.628 2.7614 1.13089 0
M  V30 3889 C 362.377 2.09341 2.77617 0
M  V30 3890 H 361.7 2.9559 2.69196 0
M  V30 3891 H 363.14 2.3452 3.53237 0
M  V30 3892 C 361.599 0.885939 3.25043 0
M  V30 3893 O 362.129 0.0967891 4.01583 0
M  V30 3894 N 360.335 0.696682 2.82125 0
M  V30 3895 H 359.882 1.34006 2.2 0
M  V30 3896 H 359.84 -0.109712 3.14209 0
M  V30 3897 N 363.613 -0.582584 1.46437 0
M  V30 3898 C 364.543 -1.70187 1.59871 0
M  V30 3899 C 365.524 -1.64066 0.449042 0
M  V30 3900 O 366.709 -1.82081 0.6753 0
M  V30 3901 C 363.839 -3.08827 1.58881 0
M  V30 3902 C 362.793 -3.29779 2.72819 0
M  V30 3903 C 362.119 -4.68947 2.5689 0
M  V30 3904 C 363.419 -3.17601 4.1464 0
M  V30 3905 H 365.113 -1.592 2.53566 0
M  V30 3906 H 362.659 -0.764472 1.22032 0
M  V30 3907 H 364.612 -3.86951 1.66873 0
M  V30 3908 H 363.336 -3.20713 0.617306 0
M  V30 3909 H 361.995 -2.54054 2.64296 0
M  V30 3910 H 361.643 -4.77599 1.57823 0
M  V30 3911 H 361.343 -4.83919 3.33312 0
M  V30 3912 H 362.867 -5.4924 2.66773 0
M  V30 3913 H 364.281 -3.8557 4.24274 0
M  V30 3914 H 362.678 -3.44094 4.9165 0
M  V30 3915 H 363.748 -2.14681 4.34788 0
M  V30 3916 N 365.091 -1.34144 -0.827227 0
M  V30 3917 C 366.021 -1.28005 -1.95287 0
M  V30 3918 C 367.002 -0.158321 -1.69362 0
M  V30 3919 O 368.187 -0.349987 -1.9102 0
M  V30 3920 C 365.317 -1.03036 -3.31664 0
M  V30 3921 C 364.271 -2.11628 -3.72019 0
M  V30 3922 C 363.597 -1.71854 -5.0633 0
M  V30 3923 C 364.897 -3.53417 -3.8457 0
M  V30 3924 H 366.591 -2.22187 -2.00682 0
M  V30 3925 H 364.137 -1.0696 -0.964135 0
M  V30 3926 H 366.09 -0.973863 -4.09993 0
M  V30 3927 H 364.814 -0.0529391 -3.26557 0
M  V30 3928 H 363.473 -2.16339 -2.95961 0
M  V30 3929 H 363.121 -0.727841 -4.97706 0
M  V30 3930 H 362.821 -2.44531 -5.34302 0
M  V30 3931 H 364.345 -1.67692 -5.87122 0
M  V30 3932 H 365.759 -3.51142 -4.5318 0
M  V30 3933 H 364.156 -4.24679 -4.2399 0
M  V30 3934 H 365.226 -3.91072 -2.86689 0
M  V30 3935 N 366.569 1.04691 -1.17803 0
M  V30 3936 C 367.846 1.7472 -0.879328 0
M  V30 3937 C 368.226 2.01812 0.619271 0
M  V30 3938 O 367.574 1.65824 1.57209 0
M  V30 3939 C 367.784 3.03686 -1.71976 0
M  V30 3940 C 369.132 3.77542 -1.94286 0
M  V30 3941 O 370.156 3.13569 -1.68976 0
M  V30 3942 O 369.015 4.92506 -2.36855 0
M  V30 3943 H 366.109 0.760011 -0.326056 0
M  V30 3944 H 368.655 1.10813 -1.28525 0
M  V30 3945 H 367.427 2.79754 -2.73594 0
M  V30 3946 H 367.05 3.75332 -1.31194 0
M  V30 3947 N 368.047 0.979072 1.23499 0
M  V30 3948 C 369.272 0.664845 1.96455 0
M  V30 3949 C 369.697 -0.761287 1.72006 0
M  V30 3950 O 369.055 -1.51837 0.990713 0
M  V30 3951 C 369.103 0.959479 3.47601 0
M  V30 3952 O 368.207 0.0508168 4.12369 0
M  V30 3953 H 367.548 0.250185 0.615064 0
M  V30 3954 H 370.078 1.31231 1.5697 0
M  V30 3955 H 370.088 0.895642 3.98048 0
M  V30 3956 H 368.763 1.99876 3.64723 0
M  V30 3957 H 367.34 0.16895 3.72517 0
M  V30 3958 N 369.525 -1.3858 0.750561 0
M  V30 3959 C 370.941 -1.53759 0.427824 0
M  V30 3960 C 371.141 -1.71401 -1.05943 0
M  V30 3961 O 370.197 -1.72331 -1.84549 0
M  V30 3962 C 371.51 -2.74642 1.22443 0
M  V30 3963 C 373.058 -2.88489 1.2142 0
M  V30 3964 C 373.533 -4.12329 1.9937 0
M  V30 3965 N 375.024 -4.194 1.96616 0
M  V30 3966 C 375.759 -5.14209 2.53727 0
M  V30 3967 N 375.255 -6.14709 3.19539 0
M  V30 3968 N 377.048 -5.06537 2.43673 0
M  V30 3969 H 369.199 -1.25377 1.71447 0
M  V30 3970 H 371.462 -0.608844 0.726645 0
M  V30 3971 H 371.168 -2.68 2.27747 0
M  V30 3972 H 371.042 -3.67745 0.839273 0
M  V30 3973 H 373.429 -2.94614 0.169232 0
M  V30 3974 H 373.51 -1.96406 1.63885 0
M  V30 3975 H 373.154 -4.06966 3.03877 0
M  V30 3976 H 373.084 -5.03486 1.54302 0
M  V30 3977 H 375.575 -3.47421 1.48684 0
M  V30 3978 H 375.888 -6.8354 3.60545 0
M  V30 3979 H 374.233 -6.1505 3.23633 0
M  V30 3980 H 377.424 -4.26962 1.91889 0
M  V30 3981 H 377.597 -5.80245 2.88479 0
M  V30 3982 N 371.003 -0.499398 -1.49478 0
M  V30 3983 C 371.936 0.326491 -2.25852 0
M  V30 3984 C 372.914 0.971776 -1.30366 0
M  V30 3985 O 374.098 1.00219 -1.59651 0
M  V30 3986 C 371.225 1.45969 -3.05632 0
M  V30 3987 C 370.271 0.928938 -4.16261 0
M  V30 3988 S 371.104 -0.179012 -5.35201 0
M  V30 3989 C 372.26 0.957389 -6.18534 0
M  V30 3990 H 372.493 -0.321746 -2.95554 0
M  V30 3991 H 370.026 -0.284674 -1.51753 0
M  V30 3992 H 371.984 2.109 -3.52181 0
M  V30 3993 H 370.645 2.07953 -2.35402 0
M  V30 3994 H 369.838 1.77813 -4.71592 0
M  V30 3995 H 369.44 0.356869 -3.72293 0
M  V30 3996 H 371.732 1.86296 -6.51383 0
M  V30 3997 H 372.675 0.442733 -7.06715 0
M  V30 3998 H 373.083 1.224 -5.5107 0
M  V30 3999 N 372.481 1.55866 -0.233164 0
M  V30 4000 C 373.391 2.24431 0.683217 0
M  V30 4001 C 374.407 1.2558 1.2044 0
M  V30 4002 O 375.583 1.58422 1.24356 0
M  V30 4003 C 372.648 2.91979 1.86947 0
M  V30 4004 C 371.709 4.06204 1.38912 0
M  V30 4005 C 370.942 4.70522 2.51883 0
M  V30 4006 O 371.165 4.33865 3.70293 0
M  V30 4007 O 370.099 5.59296 2.22423 0
M  V30 4008 H 373.925 3.03426 0.129059 0
M  V30 4009 H 371.51 1.494 -0.0022283 0
M  V30 4010 H 373.392 3.34573 2.56201 0
M  V30 4011 H 372.067 2.15935 2.41151 0
M  V30 4012 H 370.974 3.68155 0.664259 0
M  V30 4013 H 372.307 4.84025 0.893328 0
M  V30 4014 N 373.959 -0.0401083 1.57549 0
M  V30 4015 C 375.208 -0.732108 1.87944 0
M  V30 4016 C 375.521 -1.77107 0.830206 0
M  V30 4017 O 376.727 -2.51488 1.02302 0
M  V30 4018 C 375.183 -1.35315 3.33494 0
M  V30 4019 C 374.791 -0.351105 4.46622 0
M  V30 4020 C 376.535 -2.02566 3.73051 0
M  V30 4021 C 374.442 -0.979859 5.83226 0
M  V30 4022 H 373.372 -0.277188 0.701201 0
M  V30 4023 H 376.023 0.0138501 1.83495 0
M  V30 4024 H 374.405 -2.14844 3.32653 0
M  V30 4025 H 375.579 0.416674 4.58912 0
M  V30 4026 H 373.894 0.218708 4.15825 0
M  V30 4027 H 376.491 -2.50441 4.72423 0
M  V30 4028 H 376.834 -2.83904 3.04474 0
M  V30 4029 H 377.367 -1.29827 3.76018 0
M  V30 4030 H 374.106 -0.206135 6.55176 0
M  V30 4031 H 373.626 -1.71774 5.74677 0
M  V30 4032 H 375.305 -1.49046 6.29599 0
M  V30 4033 N 375.437 -1.54477 -0.31217 0
M  V30 4034 C 376.853 -1.45442 -0.657185 0
M  V30 4035 C 377.053 -0.63653 -1.91182 0
M  V30 4036 O 376.109 -0.139815 -2.52113 0
M  V30 4037 C 377.422 -2.89287 -0.82058 0
M  V30 4038 C 378.97 -2.9926 -0.917188 0
M  V30 4039 C 379.445 -4.44279 -1.11267 0
M  V30 4040 N 380.936 -4.4794 -1.17914 0
M  V30 4041 C 381.671 -5.57318 -1.34848 0
M  V30 4042 N 381.167 -6.76642 -1.48752 0
M  V30 4043 N 382.96 -5.44986 -1.37647 0
M  V30 4044 H 375.111 -2.06129 0.512313 0
M  V30 4045 H 377.374 -0.933088 0.167485 0
M  V30 4046 H 377.08 -3.51687 0.0302604 0
M  V30 4047 H 376.954 -3.36061 -1.71298 0
M  V30 4048 H 379.341 -2.36981 -1.75852 0
M  V30 4049 H 379.422 -2.558 -0.00101257 0
M  V30 4050 H 379.066 -5.07149 -0.27614 0
M  V30 4051 H 378.996 -4.85359 -2.04289 0
M  V30 4052 H 381.487 -3.61969 -1.08567 0
M  V30 4053 H 381.8 -7.55758 -1.61397 0
M  V30 4054 H 380.145 -6.79529 -1.45828 0
M  V30 4055 H 383.336 -4.50715 -1.26388 0
M  V30 4056 H 383.509 -6.3028 -1.50501 0
M  V30 4057 N 376.915 0.57481 -1.46744 0
M  V30 4058 C 377.825 1.711 -1.60505 0
M  V30 4059 C 378.841 1.67008 -0.488307 0
M  V30 4060 O 380.017 1.86774 -0.753495 0
M  V30 4061 C 377.082 3.07608 -1.59932 0
M  V30 4062 C 376.143 3.22904 -2.82898 0
M  V30 4063 C 375.376 4.529 -2.82343 0
M  V30 4064 O 375.599 5.37278 -1.91542 0
M  V30 4065 O 374.533 4.71611 -3.73987 0
M  V30 4066 H 378.359 1.62436 -2.56609 0
M  V30 4067 H 375.944 0.742779 -1.29627 0
M  V30 4068 H 377.826 3.88877 -1.62336 0
M  V30 4069 H 376.501 3.16692 -0.669898 0
M  V30 4070 H 375.408 2.41099 -2.86046 0
M  V30 4071 H 376.741 3.18715 -3.75076 0
M  V30 4072 N 378.394 1.34581 0.820102 0
M  V30 4073 C 379.341 1.2639 1.93117 0
M  V30 4074 C 380.311 0.138554 1.65521 0
M  V30 4075 O 381.496 0.320004 1.88097 0
M  V30 4076 C 378.636 1.02812 3.29429 0
M  V30 4077 C 377.749 2.24146 3.693 0
M  V30 4078 C 376.884 1.93829 4.94574 0
M  V30 4079 C 375.923 3.1129 5.27034 0
M  V30 4080 N 375.06 2.80838 6.43486 0
M  V30 4081 H 379.9 2.21408 1.99455 0
M  V30 4082 H 377.437 1.10077 0.975784 0
M  V30 4083 H 379.395 0.871788 4.0799 0
M  V30 4084 H 378.025 0.114612 3.22596 0
M  V30 4085 H 377.077 2.50691 2.86109 0
M  V30 4086 H 378.389 3.11899 3.89257 0
M  V30 4087 H 377.543 1.74948 5.80929 0
M  V30 4088 H 376.282 1.03341 4.76626 0
M  V30 4089 H 375.287 3.30764 4.39175 0
M  V30 4090 H 376.512 4.02561 5.4692 0
M  V30 4091 H 374.458 1.92929 6.26988 0
M  V30 4092 H 374.375 3.62123 6.63629 0
M  V30 4093 H 375.643 2.65467 7.32903 0
M  V30 4094 N 379.872 -1.04064 1.18357 0
M  V30 4095 C 381.102 -1.80654 1.00238 0
M  V30 4096 C 381.51 -1.83713 -0.452362 0
M  V30 4097 O 380.853 -1.27135 -1.32599 0
M  V30 4098 C 380.915 -3.27582 1.48088 0
M  V30 4099 C 380.579 -3.48184 2.96002 0
M  V30 4100 C 381.576 -3.39372 3.93856 0
M  V30 4101 C 379.261 -3.7478 3.34433 0
M  V30 4102 C 381.255 -3.5686 5.28138 0
M  V30 4103 C 378.942 -3.91915 4.68877 0
M  V30 4104 C 379.94 -3.82956 5.65539 0
M  V30 4105 O 379.628 -3.996 6.97549 0
M  V30 4106 H 379.36 -0.575751 0.354241 0
M  V30 4107 H 381.914 -1.32044 1.57333 0
M  V30 4108 H 380.144 -3.77161 0.853588 0
M  V30 4109 H 381.833 -3.8573 1.2636 0
M  V30 4110 H 382.599 -3.18789 3.65511 0
M  V30 4111 H 378.478 -3.80852 2.59756 0
M  V30 4112 H 382.022 -3.49783 6.03571 0
M  V30 4113 H 377.919 -4.11992 4.96923 0
M  V30 4114 H 378.687 -4.1676 7.04452 0
M  V30 4115 N 381.35 -0.985608 -1.22978 0
M  V30 4116 C 382.58 -0.674603 -1.95276 0
M  V30 4117 C 382.988 0.763483 -1.73111 0
M  V30 4118 O 382.331 1.52601 -1.02268 0
M  V30 4119 C 382.393 -0.891597 -3.48268 0
M  V30 4120 C 382.057 -2.31275 -3.94158 0
M  V30 4121 C 383.054 -3.29179 -4.02415 0
M  V30 4122 C 380.739 -2.64524 -4.27004 0
M  V30 4123 C 382.733 -4.58407 -4.42879 0
M  V30 4124 C 380.42 -3.93974 -4.67149 0
M  V30 4125 C 381.418 -4.90727 -4.75053 0
M  V30 4126 O 381.106 -6.17865 -5.14294 0
M  V30 4127 H 380.838 -0.249251 -0.628371 0
M  V30 4128 H 383.392 -1.32106 -1.5728 0
M  V30 4129 H 381.622 -0.187962 -3.86243 0
M  V30 4130 H 383.311 -0.576957 -4.01779 0
M  V30 4131 H 384.077 -3.04823 -3.77237 0
M  V30 4132 H 379.956 -1.89923 -4.2006 0
M  V30 4133 H 383.5 -5.33926 -4.48964 0
M  V30 4134 H 379.397 -4.18122 -4.91777 0
M  V30 4135 H 380.165 -6.21694 -5.32389 0
M  V30 4136 N 382.828 1.3818 -0.7579 0
M  V30 4137 C 384.058 2.04004 -0.326463 0
M  V30 4138 C 384.466 1.57286 1.05156 0
M  V30 4139 O 383.809 0.743144 1.67997 0
M  V30 4140 C 383.871 3.58444 -0.275402 0
M  V30 4141 C 383.535 4.28237 -1.59569 0
M  V30 4142 C 384.532 4.53312 -2.54566 0
M  V30 4143 C 382.217 4.66341 -1.86631 0
M  V30 4144 C 384.211 5.15531 -3.74842 0
M  V30 4145 C 381.898 5.28283 -3.0718 0
M  V30 4146 C 382.896 5.52814 -4.01106 0
M  V30 4147 O 382.584 6.13465 -5.19534 0
M  V30 4148 H 382.316 0.662026 -0.136739 0
M  V30 4149 H 384.87 1.7777 -1.02893 0
M  V30 4150 H 383.1 3.83667 0.483337 0
M  V30 4151 H 384.789 4.05701 0.127099 0
M  V30 4152 H 385.555 4.24299 -2.34936 0
M  V30 4153 H 381.434 4.46591 -1.14358 0
M  V30 4154 H 384.978 5.34594 -4.48168 0
M  V30 4155 H 380.875 5.56719 -3.26702 0
M  V30 4156 H 381.643 6.31951 -5.20173 0
M  V30 4157 N 384.306 0.507319 1.49211 0
M  V30 4158 C 385.269 -0.256763 2.27757 0
M  V30 4159 C 386.269 -0.888287 1.34038 0
M  V30 4160 O 387.459 -0.751841 1.5714 0
M  V30 4161 C 384.591 -1.36905 3.12202 0
M  V30 4162 H 385.784 0.432557 2.96764 0
M  V30 4163 H 383.337 0.262488 1.5408 0
M  V30 4164 H 384.072 -2.09233 2.47775 0
M  V30 4165 H 383.857 -0.921599 3.81115 0
M  V30 4166 H 385.347 -1.9071 3.7151 0
M  V30 4167 N 385.784 -1.5574 0.241426 0
M  V30 4168 C 387.03 -1.99104 -0.385406 0
M  V30 4169 C 387.363 -1.1293 -1.57988 0
M  V30 4170 O 386.638 -0.191449 -1.93555 0
M  V30 4171 C 386.921 -3.51087 -0.800616 0
M  V30 4172 C 386.774 -4.48028 0.398874 0
M  V30 4173 C 388.093 -4.08015 -1.64959 0
M  V30 4174 H 385.212 -0.723848 -0.138614 0
M  V30 4175 H 387.854 -1.86903 0.341642 0
M  V30 4176 H 386.004 -3.61615 -1.4201 0
M  V30 4177 H 387.676 -4.49487 1.03726 0
M  V30 4178 H 385.919 -4.21077 1.04293 0
M  V30 4179 H 386.59 -5.51962 0.0651056 0
M  V30 4180 H 389.066 -4.00555 -1.12672 0
M  V30 4181 H 387.942 -5.14635 -1.90898 0
M  V30 4182 H 388.203 -3.56131 -2.61961 0
M  V30 4183 N 387.262 0.0317525 -1.57568 0
M  V30 4184 C 388.492 0.733884 -1.93126 0
M  V30 4185 C 388.9 1.69563 -0.839352 0
M  V30 4186 O 388.243 1.82681 0.193175 0
M  V30 4187 C 388.305 1.54798 -3.24465 0
M  V30 4188 C 387.969 0.751304 -4.50782 0
M  V30 4189 C 388.966 0.0527632 -5.19873 0
M  V30 4190 C 386.651 0.706639 -4.97305 0
M  V30 4191 C 388.645 -0.679774 -6.33765 0
M  V30 4192 C 386.332 -0.0296449 -6.11093 0
M  V30 4193 C 387.33 -0.721614 -6.79177 0
M  V30 4194 O 387.018 -1.44595 -7.90789 0
M  V30 4195 H 386.75 0.211459 -0.642076 0
M  V30 4196 H 389.304 -0.00585615 -2.05399 0
M  V30 4197 H 387.534 2.33147 -3.08512 0
M  V30 4198 H 389.223 2.13247 -3.4537 0
M  V30 4199 H 389.989 0.0783188 -4.84937 0
M  V30 4200 H 385.868 1.23474 -4.44157 0
M  V30 4201 H 389.412 -1.22042 -6.86842 0
M  V30 4202 H 385.309 -0.0571331 -6.45475 0
M  V30 4203 H 386.077 -1.35935 -8.07133 0
M  V30 4204 N 388.74 1.54641 0.303973 0
M  V30 4205 C 390.017 1.64455 1.05896 0
M  V30 4206 C 390.397 0.490923 2.05312 0
M  V30 4207 O 389.745 -0.512685 2.22674 0
M  V30 4208 C 389.955 3.02331 1.74347 0
M  V30 4209 C 391.303 3.59045 2.26653 0
M  V30 4210 O 392.327 3.04764 1.84384 0
M  V30 4211 O 391.186 4.54081 3.04093 0
M  V30 4212 H 388.28 0.666729 0.489287 0
M  V30 4213 H 390.826 1.66986 0.302298 0
M  V30 4214 H 389.598 3.77734 1.02142 0
M  V30 4215 H 389.221 3.03565 2.56777 0
M  V30 4216 N 390.218 -0.567019 1.47046 0
M  V30 4217 C 391.151 -1.69016 1.53326 0
M  V30 4218 C 392.129 -1.57949 0.386126 0
M  V30 4219 O 393.313 -1.78945 0.592529 0
M  V30 4220 C 390.44 -3.07191 1.42658 0
M  V30 4221 C 389.486 -3.36733 2.6175 0
M  V30 4222 S 390.319 -3.27069 4.24012 0
M  V30 4223 C 391.475 -4.67755 4.1588 0
M  V30 4224 H 391.708 -1.63434 2.48348 0
M  V30 4225 H 389.241 -0.747048 1.35124 0
M  V30 4226 H 391.199 -3.86897 1.37191 0
M  V30 4227 H 389.86 -3.10249 0.490369 0
M  V30 4228 H 389.053 -4.37441 2.50323 0
M  V30 4229 H 388.655 -2.64627 2.64289 0
M  V30 4230 H 390.947 -5.58491 3.83529 0
M  V30 4231 H 391.89 -4.84239 5.16641 0
M  V30 4232 H 392.298 -4.45341 3.46889 0
M  V30 4233 N 391.696 -1.35014 -0.812953 0
M  V30 4234 C 392.942 -1.2812 -1.57204 0
M  V30 4235 C 393.275 0.145869 -1.93651 0
M  V30 4236 O 392.55 1.0937 -1.60836 0
M  V30 4237 C 392.833 -2.18162 -2.86492 0
M  V30 4238 C 392.686 -3.69454 -2.56561 0
M  V30 4239 C 394.005 -2.07439 -3.88145 0
M  V30 4240 H 391.124 -0.466746 -0.570366 0
M  V30 4241 H 393.766 -1.65357 -0.935783 0
M  V30 4242 H 391.916 -1.86535 -3.40789 0
M  V30 4243 H 393.588 -4.11493 -2.08497 0
M  V30 4244 H 391.831 -3.9005 -1.89851 0
M  V30 4245 H 392.502 -4.27835 -3.48799 0
M  V30 4246 H 394.978 -2.35228 -3.4323 0
M  V30 4247 H 393.854 -2.7265 -4.76396 0
M  V30 4248 H 394.115 -1.05439 -4.29343 0
M  V30 4249 N 393.175 1.03435 -1.18907 0
M  V30 4250 C 394.421 1.77005 -0.989798 0
M  V30 4251 C 394.754 1.88205 0.478816 0
M  V30 4252 O 394.029 1.39481 1.35556 0
M  V30 4253 C 394.312 3.19925 -1.65287 0
M  V30 4254 C 394.165 3.1663 -3.19477 0
M  V30 4255 C 395.484 4.18189 -1.37134 0
M  V30 4256 H 392.603 0.642538 -0.360991 0
M  V30 4257 H 395.245 1.20784 -1.46667 0
M  V30 4258 H 393.395 3.67929 -1.24741 0
M  V30 4259 H 395.067 2.76567 -3.692 0
M  V30 4260 H 393.31 2.54491 -3.51307 0
M  V30 4261 H 393.981 4.1758 -3.61013 0
M  V30 4262 H 396.457 3.78761 -1.72276 0
M  V30 4263 H 395.333 5.16394 -1.86087 0
M  V30 4264 H 395.594 4.41112 -0.295424 0
M  V30 4265 N 394.653 0.992116 1.22453 0
M  V30 4266 C 396.069 0.702713 1.43297 0
M  V30 4267 C 396.269 -0.726909 1.87932 0
M  V30 4268 O 395.325 -1.49792 2.0327 0
M  V30 4269 C 396.638 1.70762 2.47509 0
M  V30 4270 C 398.186 1.72298 2.61309 0
M  V30 4271 C 398.661 2.71649 3.68742 0
M  V30 4272 N 400.152 2.70239 3.76199 0
M  V30 4273 C 400.887 3.43778 4.58917 0
M  V30 4274 N 400.383 4.26914 5.45633 0
M  V30 4275 N 402.176 3.32487 4.5322 0
M  V30 4276 H 394.327 1.91543 0.917871 0
M  V30 4277 H 396.59 0.826031 0.465162 0
M  V30 4278 H 396.296 2.73059 2.21657 0
M  V30 4279 H 396.17 1.49985 3.46099 0
M  V30 4280 H 398.557 0.706989 2.86506 0
M  V30 4281 H 398.638 1.97143 1.62997 0
M  V30 4282 H 398.282 3.73397 3.44292 0
M  V30 4283 H 398.212 2.44074 4.66622 0
M  V30 4284 H 400.703 2.09912 3.14237 0
M  V30 4285 H 401.016 4.79855 6.05771 0
M  V30 4286 H 399.361 4.31002 5.45218 0
M  V30 4287 H 402.552 2.6698 3.84499 0
M  V30 4288 H 402.725 3.90058 5.17454 0
M  V30 4289 N 396.131 -1.37776 0.765217 0
M  V30 4290 C 397.379 -1.99454 0.325943 0
M  V30 4291 C 397.7 -1.61049 -1.09947 0
M  V30 4292 O 396.97 -0.872821 -1.75381 0
M  V30 4293 H 395.55 -0.737697 0.117525 0
M  V30 4294 H 398.212 -1.68359 0.981895 0
M  V30 4295 H 397.308 -3.09547 0.398353 0
M  V30 4296 N 397.609 -0.515225 -1.4894 0
M  V30 4297 C 398.557 0.269115 -2.31038 0
M  V30 4298 C 399.551 0.949443 -1.40292 0
M  V30 4299 O 400.757 0.87551 -1.57273 0
M  V30 4300 H 397.132 0.10565 -0.744542 0
M  V30 4301 H 399.103 -0.443096 -2.95092 0
M  V30 4302 C 397.852 1.31213 -3.21991 0
M  V30 4303 H 397.175 0.798034 -3.91754 0
M  V30 4304 H 398.615 1.83263 -3.82349 0
M  V30 4305 C 397.074 2.33791 -2.42576 0
M  V30 4306 O 397.604 3.3995 -2.14003 0
M  V30 4307 N 395.81 2.06625 -2.0434 0
M  V30 4308 H 395.357 1.20314 -2.27777 0
M  V30 4309 H 395.315 2.75483 -1.51514 0
M  V30 4310 N 399.087 1.5561 -0.249682 0
M  V30 4311 C 400.327 2.00916 0.37579 0
M  V30 4312 C 400.691 1.13409 1.54927 0
M  V30 4313 O 401.892 1.48183 2.24266 0
M  V30 4314 C 400.163 3.48949 0.772633 0
M  V30 4315 S 401.722 4.16261 1.38824 0
M  V30 4316 H 398.54 0.70112 0.118117 0
M  V30 4317 H 401.142 1.92052 -0.365567 0
M  V30 4318 H 399.846 4.103 -0.090683 0
M  V30 4319 H 399.377 3.61745 1.5461 0
M  V30 4320 H 401.392 4.17778 2.67724 0
M  V30 4321 N 400.565 -0.0233959 1.57583 0
M  V30 4322 C 401.812 -0.713063 1.8953 0
M  V30 4323 C 402.14 -1.75056 0.847673 0
M  V30 4324 O 401.395 -1.95119 -0.150636 0
M  V30 4325 C 401.694 -1.41428 3.28227 0
M  V30 4326 C 401.36 -0.512222 4.47981 0
M  V30 4327 C 400.022 -0.263785 4.80476 0
M  V30 4328 C 402.374 0.110248 5.21083 0
M  V30 4329 C 399.702 0.615804 5.83459 0
M  V30 4330 C 402.054 0.977573 6.25001 0
M  V30 4331 C 400.718 1.23542 6.55968 0
M  V30 4332 H 399.988 -0.260928 0.69354 0
M  V30 4333 H 402.635 0.0271047 1.91481 0
M  V30 4334 H 400.94 -2.22791 3.22291 0
M  V30 4335 H 402.637 -1.95355 3.50196 0
M  V30 4336 H 399.227 -0.716013 4.22577 0
M  V30 4337 H 403.411 -0.0687137 4.96252 0
M  V30 4338 H 398.667 0.82382 6.05824 0
M  V30 4339 H 402.841 1.46638 6.80786 0
M  V30 4340 H 400.468 1.91871 7.35588 0
M  V30 4341 N 402.043 -1.548 -0.295768 0
M  V30 4342 C 403.283 -1.76069 -1.03823 0
M  V30 4343 C 403.647 -0.537992 -1.84309 0
M  V30 4344 O 404.848 -0.628514 -2.61349 0
M  V30 4345 C 403.119 -3.01705 -1.91596 0
M  V30 4346 S 404.678 -3.43998 -2.72416 0
M  V30 4347 H 401.496 -0.618852 -0.350062 0
M  V30 4348 H 404.098 -1.93009 -0.31106 0
M  V30 4349 H 402.802 -3.88812 -1.31351 0
M  V30 4350 H 402.333 -2.87366 -2.68671 0
M  V30 4351 H 404.348 -3.0148 -3.94112 0
M  V30 4352 N 403.521 0.559213 -1.47345 0
M  V30 4353 C 404.751 1.33999 -1.57251 0
M  V30 4354 C 405.159 1.87905 -0.220978 0
M  V30 4355 O 404.502 1.65577 0.795617 0
M  V30 4356 C 404.564 2.54798 -2.53611 0
M  V30 4357 C 404.228 2.22192 -3.99349 0
M  V30 4358 C 405.225 1.79607 -4.87891 0
M  V30 4359 C 402.91 2.33613 -4.44669 0
M  V30 4360 C 404.904 1.48868 -6.19772 0
M  V30 4361 C 402.591 2.02487 -5.76578 0
M  V30 4362 C 403.589 1.60183 -6.63951 0
M  V30 4363 O 403.277 1.29451 -7.93409 0
M  V30 4364 H 403.009 0.414858 -0.533731 0
M  V30 4365 H 405.563 0.684465 -1.9366 0
M  V30 4366 H 403.793 3.23235 -2.12265 0
M  V30 4367 H 405.482 3.16873 -2.53666 0
M  V30 4368 H 406.248 1.70278 -4.54126 0
M  V30 4369 H 402.127 2.65501 -3.76869 0
M  V30 4370 H 405.671 1.15775 -6.87926 0
M  V30 4371 H 401.568 2.11448 -6.09885 0
M  V30 4372 H 402.336 1.43098 -8.05894 0
M  V30 4373 N 404.999 1.35443 0.805782 0
M  V30 4374 C 406.247 1.28507 1.55982 0
M  V30 4375 C 406.568 -0.140046 1.94496 0
M  V30 4376 O 405.838 -1.07666 1.63661 0
M  V30 4377 H 404.418 0.472676 0.578434 0
M  V30 4378 H 407.08 1.69555 0.961098 0
M  V30 4379 H 406.176 1.90148 2.47488 0
M  V30 4380 N 406.477 -1.02803 1.19454 0
M  V30 4381 C 407.427 -2.0945 0.900827 0
M  V30 4382 C 408.411 -1.60335 -0.134715 0
M  V30 4383 O 409.603 -1.76857 0.0710924 0
M  V30 4384 C 406.732 -3.4044 0.442229 0
M  V30 4385 C 405.818 -3.96286 1.51056 0
M  V30 4386 N 406.209 -4.25785 2.73021 0
M  V30 4387 C 404.507 -4.24307 1.37404 0
M  V30 4388 C 405.208 -4.70654 3.41848 0
M  V30 4389 N 404.184 -4.72238 2.69243 0
M  V30 4390 H 407.986 -2.3015 1.82779 0
M  V30 4391 H 405.5 -1.20672 1.08683 0
M  V30 4392 H 407.497 -4.16354 0.21326 0
M  V30 4393 H 406.157 -3.21159 -0.478238 0
M  V30 4394 H 407.168 -4.15041 3.09776 0
M  V30 4395 H 403.845 -4.14285 0.517103 0
M  V30 4396 H 405.235 -5.02392 4.46152 0
M  V30 4397 N 407.956 -0.998596 -1.21925 0
M  V30 4398 C 408.919 -0.558679 -2.22287 0
M  V30 4399 C 409.919 0.361525 -1.56683 0
M  V30 4400 O 411.109 0.152695 -1.73529 0
M  V30 4401 C 408.241 0.18661 -3.40389 0
M  V30 4402 H 409.434 -1.4463 -2.62721 0
M  V30 4403 H 406.987 -0.786413 -1.35075 0
M  V30 4404 H 407.722 1.08996 -3.05435 0
M  V30 4405 H 407.507 -0.474188 -3.89222 0
M  V30 4406 H 408.997 0.482367 -4.14805 0
M  V30 4407 N 409.434 1.37368 -0.772513 0
M  V30 4408 C 410.659 2.0447 -0.347386 0
M  V30 4409 C 411.084 1.57882 1.0225 0
M  V30 4410 O 410.442 0.73941 1.65537 0
M  V30 4411 C 410.49 3.58369 -0.400479 0
M  V30 4412 O 409.594 4.0803 0.598789 0
M  V30 4413 H 408.935 0.646773 -0.15027 0
M  V30 4414 H 411.465 1.75667 -1.04892 0
M  V30 4415 H 411.475 4.07183 -0.258045 0
M  V30 4416 H 410.15 3.91633 -1.39986 0
M  V30 4417 H 408.727 3.70534 0.419411 0
M  V30 4418 N 410.912 0.523116 1.48665 0
M  V30 4419 C 411.822 -0.247406 2.33292 0
M  V30 4420 C 412.838 -0.945769 1.46052 0
M  V30 4421 O 414.014 -0.922253 1.79043 0
M  V30 4422 C 411.079 -1.28487 3.22012 0
M  V30 4423 C 410.14 -0.597592 4.2512 0
M  V30 4424 C 409.373 -1.58563 5.09601 0
M  V30 4425 O 409.596 -2.81763 4.95949 0
M  V30 4426 O 408.53 -1.12879 5.91221 0
M  V30 4427 H 412.356 0.445869 3.00409 0
M  V30 4428 H 409.941 0.284128 1.46673 0
M  V30 4429 H 411.823 -1.88459 3.7691 0
M  V30 4430 H 410.498 -1.96068 2.57564 0
M  V30 4431 H 409.405 0.0424407 3.74076 0
M  V30 4432 H 410.738 0.0361517 4.92187 0
M  V30 4433 N 412.39 -1.55475 0.257931 0
M  V30 4434 C 413.63 -2.01112 -0.365129 0
M  V30 4435 C 413.994 -1.1423 -1.54323 0
M  V30 4436 O 415.195 -1.49371 -2.23477 0
M  V30 4437 C 413.466 -3.49353 -0.754117 0
M  V30 4438 S 415.025 -4.16992 -1.36614 0
M  V30 4439 H 411.843 -0.701737 -0.114397 0
M  V30 4440 H 414.445 -1.91855 0.375747 0
M  V30 4441 H 413.149 -4.10246 0.112441 0
M  V30 4442 H 412.68 -3.6256 -1.52689 0
M  V30 4443 H 414.695 -4.19191 -2.65505 0
M  V30 4444 N 413.868 0.0150385 -1.57593 0
M  V30 4445 C 414.831 0.995996 -2.06428 0
M  V30 4446 C 415.831 1.2818 -0.970903 0
M  V30 4447 O 417.021 1.22949 -1.23406 0
M  V30 4448 C 414.153 2.32506 -2.49307 0
M  V30 4449 H 415.346 0.573873 -2.94358 0
M  V30 4450 H 412.899 0.262186 -1.54085 0
M  V30 4451 H 413.634 2.79438 -1.64575 0
M  V30 4452 H 413.419 2.13087 -3.29145 0
M  V30 4453 H 414.909 3.02906 -2.87468 0
M  V30 4454 N 415.346 1.54954 0.287554 0
M  V30 4455 C 416.757 1.65732 0.859634 0
M  V30 4456 C 417.108 0.574767 1.87592 0
M  V30 4457 O 416.233 -0.286299 2.14498 0
M  V30 4458 C 416.828 3.00438 1.56597 0
M  V30 4459 C 415.387 3.13292 2.08627 0
M  V30 4460 C 414.534 2.61473 0.923416 0
M  V30 4461 H 417.485 1.5857 0.0642338 0
M  V30 4462 H 417.506 2.92613 2.43224 0
M  V30 4463 H 417.018 3.79207 0.826053 0
M  V30 4464 H 415.119 2.39268 2.85625 0
M  V30 4465 H 415.232 4.19647 2.31157 0
M  V30 4466 H 413.596 2.18264 1.31275 0
M  V30 4467 H 414.379 3.42733 0.197241 0
M  V30 4468 N 416.824 -0.551391 1.4764 0
M  V30 4469 C 418.07 -1.31024 1.54792 0
M  V30 4470 C 418.403 -1.9304 0.211967 0
M  V30 4471 O 417.678 -1.78175 -0.77999 0
M  V30 4472 C 417.961 -2.41593 2.67029 0
M  V30 4473 C 417.814 -1.84408 4.10261 0
M  V30 4474 C 419.133 -3.43488 2.75143 0
M  V30 4475 H 416.252 -0.475031 0.563485 0
M  V30 4476 H 418.894 -0.616454 1.79722 0
M  V30 4477 H 417.044 -3.00772 2.45904 0
M  V30 4478 H 418.716 -1.29445 4.42766 0
M  V30 4479 H 416.959 -1.15051 4.18265 0
M  V30 4480 H 417.63 -2.64367 4.84576 0
M  V30 4481 H 420.106 -2.94236 2.94218 0
M  V30 4482 H 418.982 -4.18274 3.55441 0
M  V30 4483 H 419.243 -4.02703 1.82435 0
M  V30 4484 N 418.302 -1.35869 -0.798587 0
M  V30 4485 C 419.579 -1.20145 -1.54352 0
M  V30 4486 C 419.959 0.216161 -2.0999 0
M  V30 4487 O 419.307 1.22068 -1.93162 0
M  V30 4488 C 419.517 -2.27602 -2.64572 0
M  V30 4489 C 420.865 -2.63811 -3.32699 0
M  V30 4490 O 421.889 -2.26576 -2.74849 0
M  V30 4491 O 420.748 -3.27866 -4.37226 0
M  V30 4492 H 417.842 -0.467248 -0.682355 0
M  V30 4493 H 420.388 -1.47574 -0.837859 0
M  V30 4494 H 419.16 -3.2265 -2.21388 0
M  V30 4495 H 418.783 -2.01488 -3.42766 0
M  V30 4496 N 419.78 1.02168 -1.19998 0
M  V30 4497 C 421.028 1.75338 -1.00504 0
M  V30 4498 C 421.349 1.89387 0.464506 0
M  V30 4499 O 420.619 1.43268 1.33608 0
M  V30 4500 H 419.199 0.649564 -0.368885 0
M  V30 4501 H 421.861 1.23205 -1.51018 0
M  V30 4502 H 420.957 2.75892 -1.45912 0
M  V30 4503 N 421.258 1.00505 1.21394 0
M  V30 4504 C 422.505 0.687774 1.90462 0
M  V30 4505 C 422.833 -0.78147 1.7811 0
M  V30 4506 O 422.088 -1.58208 1.1519 0
M  V30 4507 C 422.387 1.0546 3.41486 0
M  V30 4508 C 422.053 2.51812 3.74034 0
M  V30 4509 C 420.715 2.91804 3.82628 0
M  V30 4510 C 423.067 3.46614 3.8924 0
M  V30 4511 C 420.395 4.2556 4.03876 0
M  V30 4512 C 422.747 4.80044 4.11995 0
M  V30 4513 C 421.411 5.19759 4.18816 0
M  V30 4514 H 420.681 0.251674 0.696951 0
M  V30 4515 H 423.328 1.26349 1.43903 0
M  V30 4516 H 421.633 0.397133 3.89782 0
M  V30 4517 H 423.33 0.786976 3.93202 0
M  V30 4518 H 419.92 2.1982 3.67936 0
M  V30 4519 H 424.104 3.16883 3.81967 0
M  V30 4520 H 419.36 4.55901 4.07387 0
M  V30 4521 H 423.534 5.53439 4.22704 0
M  V30 4522 H 421.161 6.23418 4.35033 0
M  V30 4523 N 422.737 -1.36956 0.779787 0
M  V30 4524 C 423.685 -2.32053 0.15942 0
M  V30 4525 C 424.679 -1.55333 -0.675878 0
M  V30 4526 O 425.885 -1.70668 -0.57204 0
M  V30 4527 H 422.26 -0.751286 0.0327707 0
M  V30 4528 H 424.231 -2.8195 0.977078 0
M  V30 4529 C 422.98 -3.40602 -0.698977 0
M  V30 4530 H 422.303 -3.99746 -0.0655966 0
M  V30 4531 H 423.743 -4.09486 -1.09989 0
M  V30 4532 C 422.202 -2.81359 -1.85307 0
M  V30 4533 O 422.732 -2.72751 -2.94906 0
M  V30 4534 N 420.938 -2.38786 -1.65619 0
M  V30 4535 H 420.485 -2.45987 -0.764725 0
M  V30 4536 H 420.443 -1.99493 -2.43002 0
M  V30 4537 N 424.215 -0.530993 -1.48385 0
M  V30 4538 C 425.125 0.23503 -2.3342 0
M  V30 4539 C 426.141 0.93801 -1.46552 0
M  V30 4540 O 427.317 0.912745 -1.7953 0
M  V30 4541 C 424.382 1.26778 -3.22689 0
M  V30 4542 C 423.443 0.575038 -4.25431 0
M  V30 4543 C 422.676 1.55858 -5.10435 0
M  V30 4544 O 422.899 2.79129 -4.97437 0
M  V30 4545 O 421.833 1.09742 -5.91811 0
M  V30 4546 H 425.659 -0.461794 -3.00169 0
M  V30 4547 H 423.244 -0.291903 -1.46521 0
M  V30 4548 H 425.126 1.86457 -3.77904 0
M  V30 4549 H 423.801 1.94699 -2.586 0
M  V30 4550 H 422.708 -0.0622782 -3.74048 0
M  V30 4551 H 424.041 -0.062253 -4.92161 0
M  V30 4552 N 425.693 1.55336 -0.266172 0
M  V30 4553 C 426.603 2.2583 0.635458 0
M  V30 4554 C 427.619 1.28106 1.17749 0
M  V30 4555 O 428.795 1.61024 1.20968 0
M  V30 4556 C 425.86 2.95879 1.80712 0
M  V30 4557 C 424.921 4.09059 1.30265 0
M  V30 4558 C 424.154 4.75759 2.41846 0
M  V30 4559 O 424.377 4.41622 3.61007 0
M  V30 4560 O 423.311 5.63888 2.1051 0
M  V30 4561 H 427.137 3.03631 0.0646693 0
M  V30 4562 H 424.722 1.49361 -0.0339177 0
M  V30 4563 H 426.604 3.39932 2.49047 0
M  V30 4564 H 425.279 2.21002 2.36516 0
M  V30 4565 H 424.186 3.69482 0.586019 0
M  V30 4566 H 425.519 4.85811 0.790458 0
M  V30 4567 N 427.171 -0.0066808 1.57599 0
M  V30 4568 C 428.417 -0.693947 1.90558 0
M  V30 4569 C 428.75 -1.73792 0.866594 0
M  V30 4570 O 428.025 -1.94156 -0.115548 0
M  V30 4571 C 428.308 -1.34317 3.34112 0
M  V30 4572 C 428.161 -0.311189 4.48722 0
M  V30 4573 C 429.48 -2.27116 3.7697 0
M  V30 4574 H 426.599 -0.250803 0.693013 0
M  V30 4575 H 429.241 0.043242 1.89951 0
M  V30 4576 H 427.391 -1.9715 3.3476 0
M  V30 4577 H 429.063 0.316944 4.6021 0
M  V30 4578 H 427.306 0.367253 4.32243 0
M  V30 4579 H 427.977 -0.804366 5.46108 0
M  V30 4580 H 430.453 -1.74306 3.77831 0
M  V30 4581 H 429.329 -2.69511 4.78179 0
M  V30 4582 H 429.59 -3.14743 3.10466 0
M  V30 4583 N 428.649 -1.55105 -0.279332 0
M  V30 4584 C 429.559 -1.90638 -1.36727 0
M  V30 4585 C 430.575 -0.802899 -1.54368 0
M  V30 4586 O 431.751 -1.10138 -1.68616 0
M  V30 4587 C 428.816 -2.16547 -2.70755 0
M  V30 4588 C 427.877 -3.40146 -2.61915 0
M  V30 4589 C 427.11 -3.6481 -3.8955 0
M  V30 4590 O 427.333 -2.92095 -4.89935 0
M  V30 4591 O 426.267 -4.58343 -3.90135 0
M  V30 4592 H 430.093 -2.83237 -1.09591 0
M  V30 4593 H 427.678 -1.4157 -0.477306 0
M  V30 4594 H 429.56 -2.34665 -3.50014 0
M  V30 4595 H 428.235 -1.27131 -2.9769 0
M  V30 4596 H 427.142 -3.2737 -1.81052 0
M  V30 4597 H 428.475 -4.29761 -2.3993 0
M  V30 4598 N 430.127 0.543554 -1.4793 0
M  V30 4599 C 431.375 1.29752 -1.54948 0
M  V30 4600 C 431.696 1.93764 -0.219242 0
M  V30 4601 O 430.966 1.80639 0.75805 0
M  V30 4602 H 429.546 0.481874 -0.570795 0
M  V30 4603 H 432.208 0.633636 -1.84312 0
M  V30 4604 H 431.304 2.08392 -2.32334 0
M  V30 4605 N 431.605 1.3629 0.791371 0
M  V30 4606 C 432.538 1.24816 1.9104 0
M  V30 4607 C 433.516 0.132739 1.62057 0
M  V30 4608 O 434.7 0.303527 1.8604 0
M  V30 4609 C 431.827 0.925355 3.25814 0
M  V30 4610 C 430.873 2.05495 3.7373 0
M  V30 4611 S 431.706 3.67255 3.89723 0
M  V30 4612 C 432.862 3.37084 5.27376 0
M  V30 4613 H 433.095 2.19533 2.00481 0
M  V30 4614 H 430.628 1.21684 0.950393 0
M  V30 4615 H 432.586 0.745924 4.03666 0
M  V30 4616 H 431.247 -0.00400098 3.141 0
M  V30 4617 H 430.44 1.7836 4.71385 0
M  V30 4618 H 430.042 2.1935 3.02922 0
M  V30 4619 H 432.334 2.90856 6.1189 0
M  V30 4620 H 433.277 4.33995 5.59512 0
M  V30 4621 H 433.685 2.7248 4.94383 0
M  V30 4622 N 433.083 -1.0153 1.20538 0
M  V30 4623 C 434.329 -1.75408 1.01783 0
M  V30 4624 C 434.662 -1.88943 -0.448814 0
M  V30 4625 O 433.937 -1.4162 -1.33319 0
M  V30 4626 C 434.22 -3.17255 1.70356 0
M  V30 4627 C 434.073 -3.11508 3.24473 0
M  V30 4628 C 435.392 -4.15955 1.43769 0
M  V30 4629 H 432.511 -0.636713 0.371167 0
M  V30 4630 H 435.153 -1.18436 1.4857 0
M  V30 4631 H 433.303 -3.65898 1.30578 0
M  V30 4632 H 434.975 -2.70658 3.73553 0
M  V30 4633 H 433.218 -2.4887 3.55311 0
M  V30 4634 H 433.889 -4.11784 3.67611 0
M  V30 4635 H 436.365 -3.75973 1.7828 0
M  V30 4636 H 435.241 -5.13368 1.94279 0
M  V30 4637 H 435.502 -4.40586 0.365564 0
M  V30 4638 N 434.561 -1.01147 -1.20859 0
M  V30 4639 C 435.511 -0.548247 -2.2131 0
M  V30 4640 C 436.495 0.393646 -1.5601 0
M  V30 4641 O 437.687 0.217445 -1.75659 0
M  V30 4642 C 434.816 0.117252 -3.431 0
M  V30 4643 C 433.902 -0.846043 -4.15575 0
M  V30 4644 N 434.293 -2.00149 -4.64515 0
M  V30 4645 C 432.591 -0.665783 -4.41003 0
M  V30 4646 C 433.292 -2.60764 -5.19978 0
M  V30 4647 N 432.268 -1.88868 -5.09735 0
M  V30 4648 H 436.07 -1.42921 -2.56809 0
M  V30 4649 H 433.584 -0.876142 -1.36739 0
M  V30 4650 H 435.581 0.46662 -4.1428 0
M  V30 4651 H 434.241 0.994115 -3.09107 0
M  V30 4652 H 435.252 -2.38162 -4.5989 0
M  V30 4653 H 431.929 0.163456 -4.1718 0
M  V30 4654 H 433.319 -3.58519 -5.68255 0
M  V30 4655 N 436.039 1.36541 -0.78704 0
M  V30 4656 C 437.287 1.98911 -0.357633 0
M  V30 4657 C 437.608 1.62778 1.07371 0
M  V30 4658 O 436.878 0.900612 1.73971 0
M  V30 4659 H 435.458 0.735734 -0.129246 0
M  V30 4660 H 438.12 1.66776 -1.00855 0
M  V30 4661 H 437.216 3.08874 -0.447549 0
M  V30 4662 N 437.518 0.538854 1.48102 0
M  V30 4663 C 438.468 -0.23907 2.26743 0
M  V30 4664 C 439.452 -0.901923 1.33245 0
M  V30 4665 O 440.644 -0.803263 1.57723 0
M  V30 4666 C 437.773 -1.2799 3.18549 0
M  V30 4667 C 436.859 -0.621388 4.19523 0
M  V30 4668 N 437.25 0.298004 5.04921 0
M  V30 4669 C 435.548 -0.877533 4.37282 0
M  V30 4670 C 436.249 0.678757 5.77726 0
M  V30 4671 N 435.225 0.0377881 5.43587 0
M  V30 4672 H 439.027 0.468096 2.90148 0
M  V30 4673 H 436.541 0.357497 1.58416 0
M  V30 4674 H 438.538 -1.851 3.73555 0
M  V30 4675 H 437.198 -1.98835 2.567 0
M  V30 4676 H 438.209 0.671126 5.13533 0
M  V30 4677 H 434.886 -1.57588 3.86616 0
M  V30 4678 H 436.276 1.43316 6.56437 0
M  V30 4679 N 438.996 -1.55193 0.274407 0
M  V30 4680 C 440.236 -2.01488 -0.343778 0
M  V30 4681 C 440.6 -1.1586 -1.53103 0
M  V30 4682 O 441.801 -1.51732 -2.2188 0
M  V30 4683 C 440.072 -3.50134 -0.717021 0
M  V30 4684 S 441.631 -4.18417 -1.32184 0
M  V30 4685 H 438.449 -0.70291 -0.106948 0
M  V30 4686 H 441.051 -1.91446 0.396075 0
M  V30 4687 H 439.755 -4.10104 0.155947 0
M  V30 4688 H 439.286 -3.64159 -1.48835 0
M  V30 4689 H 441.301 -4.21984 -2.61044 0
M  V30 4690 N 440.474 -0.00167713 -1.576 0
M  V30 4691 C 441.407 1.02317 -2.03977 0
M  V30 4692 C 442.385 1.33381 -0.929963 0
M  V30 4693 O 443.569 1.45517 -1.19822 0
M  V30 4694 C 440.696 2.35035 -2.43878 0
M  V30 4695 C 439.742 2.19621 -3.65607 0
M  V30 4696 S 440.575 1.52068 -5.13455 0
M  V30 4697 C 441.731 2.86212 -5.56627 0
M  V30 4698 H 441.964 0.628285 -2.90585 0
M  V30 4699 H 439.497 0.209239 -1.52976 0
M  V30 4700 H 441.455 3.11345 -2.67534 0
M  V30 4701 H 440.116 2.71663 -1.57665 0
M  V30 4702 H 439.309 3.1767 -3.91282 0
M  V30 4703 H 438.911 1.51455 -3.41961 0
M  V30 4704 H 441.203 3.82509 -5.59189 0
M  V30 4705 H 442.146 2.65235 -6.56549 0
M  V30 4706 H 442.554 2.90199 -4.84195 0
M  V30 4707 N 441.952 1.55251 0.271103 0
M  V30 4708 C 443.192 1.77698 1.01008 0
M  V30 4709 C 443.556 0.567246 1.83429 0
M  V30 4710 O 444.757 0.670013 2.60316 0
M  V30 4711 C 443.028 3.04715 1.86772 0
M  V30 4712 S 444.587 3.48289 2.66909 0
M  V30 4713 H 441.405 0.624343 0.340172 0
M  V30 4714 H 444.007 1.9348 0.280315 0
M  V30 4715 H 442.711 3.90853 1.25149 0
M  V30 4716 H 442.242 2.91604 2.64066 0
M  V30 4717 H 444.257 3.07712 3.89266 0
M  V30 4718 N 443.43 -0.535701 1.48216 0
M  V30 4719 C 444.846 -0.863701 1.3421 0
M  V30 4720 C 445.046 -1.98458 0.34879 0
M  V30 4721 O 444.102 -2.51432 -0.23204 0
M  V30 4722 C 445.415 -1.23662 2.74095 0
M  V30 4723 C 446.963 -1.34683 2.82541 0
M  V30 4724 C 447.438 -1.75322 4.23115 0
M  V30 4725 N 448.929 -1.82434 4.2576 0
M  V30 4726 C 449.664 -2.15252 5.31464 0
M  V30 4727 N 449.16 -2.46533 6.47452 0
M  V30 4728 N 450.953 -2.16209 5.18855 0
M  V30 4729 H 443.104 0.203965 2.11418 0
M  V30 4730 H 445.367 0.0286033 0.947568 0
M  V30 4731 H 445.073 -0.486674 3.48316 0
M  V30 4732 H 444.947 -2.18805 3.07253 0
M  V30 4733 H 447.334 -2.08756 2.08579 0
M  V30 4734 H 447.415 -0.376756 2.5301 0
M  V30 4735 H 447.059 -1.01812 4.97591 0
M  V30 4736 H 446.989 -2.7337 4.50085 0
M  V30 4737 H 449.48 -1.6056 3.42095 0
M  V30 4738 H 449.793 -2.70662 7.23852 0
M  V30 4739 H 448.138 -2.44065 6.50736 0
M  V30 4740 H 451.329 -1.91224 4.2726 0
M  V30 4741 H 451.502 -2.41453 6.01335 0
M  V30 4742 N 444.908 -1.36708 -0.784132 0
M  V30 4743 C 445.858 -1.2799 -1.88686 0
M  V30 4744 C 446.842 -0.170282 -1.59996 0
M  V30 4745 O 448.034 -0.403571 -1.72338 0
M  V30 4746 C 445.163 -1.07674 -3.25977 0
M  V30 4747 C 444.249 -2.23127 -3.60659 0
M  V30 4748 N 444.64 -3.48467 -3.66612 0
M  V30 4749 C 442.938 -2.15009 -3.90752 0
M  V30 4750 C 443.639 -4.24525 -3.97685 0
M  V30 4751 N 442.615 -3.53524 -4.12943 0
M  V30 4752 H 446.417 -2.22927 -1.91522 0
M  V30 4753 H 443.931 -1.29503 -0.979933 0
M  V30 4754 H 445.928 -0.995151 -4.04849 0
M  V30 4755 H 444.588 -0.13643 -3.24413 0
M  V30 4756 H 445.599 -3.82534 -3.49125 0
M  V30 4757 H 442.276 -1.28963 -3.97083 0
M  V30 4758 H 443.666 -5.32944 -4.0917 0
M  V30 4759 N 446.386 1.0089 -1.21074 0
M  V30 4760 C 447.334 2.11707 -0.963476 0
M  V30 4761 C 448.328 1.69172 0.0879032 0
M  V30 4762 O 449.534 1.79889 -0.0631415 0
M  V30 4763 H 445.909 0.692026 -0.294287 0
M  V30 4764 H 447.88 2.29743 -1.90422 0
M  V30 4765 C 446.629 3.43473 -0.540509 0
M  V30 4766 H 445.952 3.76634 -1.34114 0
M  V30 4767 H 447.392 4.22044 -0.406777 0
M  V30 4768 C 445.851 3.2849 0.748079 0
M  V30 4769 O 446.381 3.58883 1.8046 0
M  V30 4770 N 444.587 2.81715 0.713081 0
M  V30 4771 H 444.134 2.5718 -0.146973 0
M  V30 4772 H 444.092 2.72071 1.57558 0
M  V30 4773 N 447.864 1.01787 1.20321 0
M  V30 4774 C 449.092 0.727194 1.937 0
M  V30 4775 C 449.507 -0.712305 1.74848 0
M  V30 4776 O 448.864 -1.48327 1.06327 0
M  V30 4777 C 448.915 1.05497 3.45764 0
M  V30 4778 O 448.636 2.43794 3.64 0
M  V30 4779 C 450.137 0.785534 4.36285 0
M  V30 4780 H 447.357 0.266939 0.615617 0
M  V30 4781 H 449.901 1.35939 1.52777 0
M  V30 4782 H 448.056 0.468158 3.84561 0
M  V30 4783 H 448.47 2.55656 4.57974 0
M  V30 4784 H 449.944 1.06495 5.4163 0
M  V30 4785 H 450.421 -0.280273 4.38305 0
M  V30 4786 H 451.027 1.35456 4.03152 0
M  V30 4787 N 449.342 -1.36122 0.79427 0
M  V30 4788 C 450.289 -2.29982 0.194101 0
M  V30 4789 C 451.259 -1.52214 -0.664833 0
M  V30 4790 O 452.444 -1.80702 -0.612498 0
M  V30 4791 C 449.584 -3.38706 -0.661244 0
M  V30 4792 C 448.697 -4.31456 0.216766 0
M  V30 4793 C 447.832 -5.27265 -0.645411 0
M  V30 4794 C 446.871 -6.11653 0.233756 0
M  V30 4795 N 446.008 -6.99636 -0.587682 0
M  V30 4796 H 450.848 -2.80722 0.999965 0
M  V30 4797 H 448.385 -1.38172 0.504677 0
M  V30 4798 H 450.343 -4.00394 -1.17219 0
M  V30 4799 H 448.973 -2.89274 -1.43249 0
M  V30 4800 H 448.025 -3.7088 0.845724 0
M  V30 4801 H 449.337 -4.90724 0.893973 0
M  V30 4802 H 448.491 -5.94266 -1.22198 0
M  V30 4803 H 447.23 -4.68463 -1.35623 0
M  V30 4804 H 446.235 -5.4361 0.82269 0
M  V30 4805 H 447.46 -6.72531 0.942247 0
M  V30 4806 H 445.406 -6.43337 -1.2827 0
M  V30 4807 H 445.323 -7.55993 0.0317402 0
M  V30 4808 H 446.591 -7.71001 -1.14792 0
M  V30 4809 N 450.82 -0.546701 -1.47814 0
M  V30 4810 C 452.068 -0.0187037 -2.02091 0
M  V30 4811 C 452.389 1.33168 -1.42447 0
M  V30 4812 O 451.659 1.86619 -0.595839 0
M  V30 4813 H 450.239 -0.00392531 -0.74699 0
M  V30 4814 H 452.901 -0.714327 -1.81338 0
M  V30 4815 H 451.997 0.0772219 -3.12004 0
M  V30 4816 N 452.299 1.55045 -0.282633 0
M  V30 4817 C 453.229 2.2579 0.595066 0
M  V30 4818 C 454.21 1.25074 1.15284 0
M  V30 4819 O 455.395 1.5381 1.18559 0
M  V30 4820 C 452.525 2.98472 1.77572 0
M  V30 4821 C 451.479 4.0618 1.34914 0
M  V30 4822 C 450.805 4.66477 2.6135 0
M  V30 4823 C 452.105 5.1996 0.493821 0
M  V30 4824 H 453.799 2.994 0.00505653 0
M  V30 4825 H 451.345 1.44 0.000992001 0
M  V30 4826 H 453.298 3.46677 2.39568 0
M  V30 4827 H 452.022 2.2241 2.39168 0
M  V30 4828 H 450.681 3.58797 0.752338 0
M  V30 4829 H 450.329 3.87074 3.2122 0
M  V30 4830 H 450.029 5.39207 2.33516 0
M  V30 4831 H 451.553 5.17435 3.24181 0
M  V30 4832 H 452.967 5.64172 1.01898 0
M  V30 4833 H 451.364 5.99299 0.310047 0
M  V30 4834 H 452.434 4.82462 -0.485593 0
M  V30 4835 N 453.777 0.010035 1.57597 0
M  V30 4836 C 454.725 -0.996272 2.10184 0
M  V30 4837 C 455.719 -1.34942 1.02406 0
M  V30 4838 O 456.925 -1.33389 1.20861 0
M  V30 4839 H 453.3 -0.338982 0.671264 0
M  V30 4840 H 455.271 -0.527272 2.93705 0
M  V30 4841 C 454.02 -2.27599 2.62857 0
M  V30 4842 H 453.343 -2.01295 3.45428 0
M  V30 4843 H 454.783 -2.96265 3.0332 0
M  V30 4844 C 453.242 -2.99269 1.54725 0
M  V30 4845 O 453.772 -3.90644 0.93597 0
M  V30 4846 N 451.978 -2.61269 1.27228 0
M  V30 4847 H 451.525 -1.87043 1.77123 0
M  V30 4848 H 451.483 -3.09534 0.550999 0
M  V30 4849 N 455.255 -1.55392 -0.262866 0
M  V30 4850 C 456.495 -1.78231 -1.00064 0
M  V30 4851 C 456.859 -0.576966 -1.83126 0
M  V30 4852 O 458.06 -0.683809 -2.59957 0
M  V30 4853 C 456.331 -3.05701 -1.85153 0
M  V30 4854 S 457.89 -3.49699 -2.65058 0
M  V30 4855 H 454.708 -0.626138 -0.336856 0
M  V30 4856 H 457.31 -1.93626 -0.27005 0
M  V30 4857 H 456.014 -3.91511 -1.23074 0
M  V30 4858 H 455.545 -2.93 -2.62515 0
M  V30 4859 H 457.56 -3.09772 -3.87629 0
M  V30 4860 N 456.733 0.527833 -1.48498 0
M  V30 4861 C 457.643 1.65907 -1.65867 0
M  V30 4862 C 458.659 1.6537 -0.541192 0
M  V30 4863 O 459.835 1.84282 -0.812534 0
M  V30 4864 C 456.9 3.02364 -1.69637 0
M  V30 4865 C 455.961 3.1374 -2.93028 0
M  V30 4866 C 455.194 4.43688 -2.96609 0
M  V30 4867 O 455.417 5.30913 -2.08538 0
M  V30 4868 O 454.351 4.59475 -3.88802 0
M  V30 4869 H 458.177 1.5419 -2.61647 0
M  V30 4870 H 455.762 0.701163 -1.31924 0
M  V30 4871 H 457.644 3.83515 -1.74625 0
M  V30 4872 H 456.319 3.14401 -0.770312 0
M  V30 4873 H 455.226 2.31877 -2.93571 0
M  V30 4874 H 456.559 3.06621 -3.85026 0
M  V30 4875 N 458.211 1.37122 0.776871 0
M  V30 4876 C 459.141 1.35164 1.90402 0
M  V30 4877 C 460.122 0.221069 1.68657 0
M  V30 4878 O 461.307 0.420642 1.8959 0
M  V30 4879 C 458.437 1.15274 3.27611 0
M  V30 4880 C 457.391 2.25289 3.63908 0
M  V30 4881 C 456.717 1.90527 4.99603 0
M  V30 4882 C 458.017 3.67446 3.71188 0
M  V30 4883 H 459.711 2.29482 1.92297 0
M  V30 4884 H 457.257 1.10465 0.923773 0
M  V30 4885 H 459.21 1.12536 4.06096 0
M  V30 4886 H 457.934 0.174102 3.26136 0
M  V30 4887 H 456.593 2.27174 2.87728 0
M  V30 4888 H 456.241 0.91206 4.94662 0
M  V30 4889 H 455.941 2.64193 5.24858 0
M  V30 4890 H 457.465 1.89367 5.80493 0
M  V30 4891 H 458.879 3.67719 4.39836 0
M  V30 4892 H 457.276 4.40123 4.07936 0
M  V30 4893 H 458.346 4.01443 2.71977 0
M  V30 4894 N 459.689 -1.00246 1.21608 0
M  V30 4895 C 460.929 -1.75589 1.04631 0
M  V30 4896 C 461.293 -1.87513 -0.412648 0
M  V30 4897 O 462.494 -2.59444 -0.703003 0
M  V30 4898 C 460.765 -3.12893 1.72722 0
M  V30 4899 S 462.324 -4.04095 1.71034 0
M  V30 4900 H 459.142 -0.604133 0.374892 0
M  V30 4901 H 461.744 -1.19927 1.54395 0
M  V30 4902 H 460.448 -3.0185 2.78055 0
M  V30 4903 H 459.979 -3.73628 1.23149 0
M  V30 4904 H 461.994 -4.9045 0.753231 0
M  V30 4905 N 461.167 -1.02423 -1.1978 0
M  V30 4906 C 462.1 -0.545641 -2.21581 0
M  V30 4907 C 463.078 0.411024 -1.57319 0
M  V30 4908 O 464.262 0.329223 -1.85603 0
M  V30 4909 C 461.389 0.204973 -3.38079 0
M  V30 4910 C 460.435 -0.70241 -4.20676 0
M  V30 4911 S 461.268 -2.17595 -4.89298 0
M  V30 4912 C 462.424 -1.43572 -6.09211 0
M  V30 4913 H 462.657 -1.4082 -2.61834 0
M  V30 4914 H 460.19 -0.833771 -1.29952 0
M  V30 4915 H 462.148 0.631924 -4.05607 0
M  V30 4916 H 460.809 1.0432 -2.9627 0
M  V30 4917 H 460.002 -0.123193 -5.03849 0
M  V30 4918 H 459.604 -1.06747 -3.58442 0
M  V30 4919 H 461.896 -0.719806 -6.73665 0
M  V30 4920 H 462.839 -2.24388 -6.71607 0
M  V30 4921 H 463.247 -0.935252 -5.56699 0
M  V30 4922 N 462.645 1.35699 -0.801477 0
M  V30 4923 C 463.922 1.9324 -0.302937 0
M  V30 4924 C 464.302 1.73209 1.20672 0
M  V30 4925 O 463.65 1.09809 2.00385 0
M  V30 4926 C 463.86 3.41728 -0.708747 0
M  V30 4927 C 465.208 4.18868 -0.695328 0
M  V30 4928 O 466.232 3.5022 -0.649971 0
M  V30 4929 O 465.091 5.41342 -0.749081 0
M  V30 4930 H 462.185 0.82331 -0.0780367 0
M  V30 4931 H 464.731 1.44806 -0.884832 0
M  V30 4932 H 463.503 3.50015 -1.74944 0
M  V30 4933 H 463.126 3.97471 -0.101384 0
M  V30 4934 N 464.123 0.554532 1.47522 0
M  V30 4935 C 465.37 0.029479 2.02479 0
M  V30 4936 C 465.698 -1.31929 1.42916 0
M  V30 4937 O 464.953 -1.87112 0.573385 0
M  V30 4938 C 465.252 -0.115927 3.57212 0
M  V30 4939 C 464.918 1.16161 4.3568 0
M  V30 4940 C 463.58 1.51168 4.56839 0
M  V30 4941 C 465.932 2.0083 4.80954 0
M  V30 4942 C 463.26 2.70696 5.2052 0
M  V30 4943 C 465.612 3.19559 5.45953 0
M  V30 4944 C 464.276 3.54882 5.65345 0
M  V30 4945 H 463.546 0.0107871 0.740921 0
M  V30 4946 H 466.193 0.725506 1.77225 0
M  V30 4947 H 464.498 -0.894902 3.81443 0
M  V30 4948 H 466.195 -0.53749 3.97381 0
M  V30 4949 H 462.785 0.879026 4.19489 0
M  V30 4950 H 466.969 1.75093 4.64388 0
M  V30 4951 H 462.225 2.98236 5.33728 0
M  V30 4952 H 466.399 3.85456 5.79997 0
M  V30 4953 H 464.026 4.47596 6.1446 0
M  V30 4954 N 465.601 -1.54893 0.290851 0
M  V30 4955 C 466.831 -2.04047 -0.323818 0
M  V30 4956 C 467.239 -1.16809 -1.48837 0
M  V30 4957 O 466.582 -0.184145 -1.82775 0
M  V30 4958 C 466.644 -3.49248 -0.852395 0
M  V30 4959 C 466.308 -4.56623 0.185557 0
M  V30 4960 C 467.305 -5.09985 1.01053 0
M  V30 4961 C 464.99 -5.01252 0.324332 0
M  V30 4962 C 466.984 -6.06507 1.96031 0
M  V30 4963 C 464.671 -5.97596 1.27757 0
M  V30 4964 C 465.669 -6.50107 2.09405 0
M  V30 4965 O 465.357 -7.44565 3.03114 0
M  V30 4966 H 465.089 -0.671735 -0.0758129 0
M  V30 4967 H 467.643 -2.00947 0.425393 0
M  V30 4968 H 465.873 -3.49639 -1.65195 0
M  V30 4969 H 467.562 -3.81654 -1.38185 0
M  V30 4970 H 468.328 -4.76307 0.914129 0
M  V30 4971 H 464.207 -4.60015 -0.301213 0
M  V30 4972 H 467.751 -6.47418 2.598 0
M  V30 4973 H 463.648 -6.30691 1.37473 0
M  V30 4974 H 464.416 -7.62334 2.97976 0
M  V30 4975 N 467.08 -0.0183926 -1.57589 0
M  V30 4976 C 468.03 0.975944 -2.06057 0
M  V30 4977 C 469.014 1.29204 -0.958908 0
M  V30 4978 O 470.206 1.27995 -1.22255 0
M  V30 4979 C 467.335 2.26194 -2.58247 0
M  V30 4980 C 466.421 1.97467 -3.75323 0
M  V30 4981 N 466.812 1.38968 -4.86335 0
M  V30 4982 C 465.11 2.27515 -3.83605 0
M  V30 4983 C 465.811 1.27131 -5.67638 0
M  V30 4984 N 464.787 1.76319 -5.14211 0
M  V30 4985 H 468.589 0.518444 -2.89291 0
M  V30 4986 H 466.103 0.18688 -1.61321 0
M  V30 4987 H 468.1 2.98289 -2.91255 0
M  V30 4988 H 466.76 2.7258 -1.76438 0
M  V30 4989 H 467.771 1.06608 -5.06809 0
M  V30 4990 H 464.448 2.76649 -3.12684 0
M  V30 4991 H 465.838 0.819882 -6.66879 0
M  V30 4992 N 468.558 1.5553 0.254621 0
M  V30 4993 C 469.835 1.6774 1.00611 0
M  V30 4994 C 470.215 0.555993 2.03647 0
M  V30 4995 O 469.563 -0.441583 2.24193 0
M  V30 4996 C 469.773 3.07725 1.6464 0
M  V30 4997 C 471.121 3.66074 2.15116 0
M  V30 4998 O 472.145 3.10476 1.74595 0
M  V30 4999 O 471.004 4.63526 2.89493 0
M  V30 5000 H 468.098 0.681958 0.467828 0
M  V30 5001 H 470.644 1.67863 0.24902 0
M  V30 5002 H 469.416 3.80792 0.900734 0
M  V30 5003 H 469.039 3.1158 2.46989 0
M  V30 5004 N 470.036 -0.519951 1.48776 0
M  V30 5005 C 470.966 -1.63253 1.66945 0
M  V30 5006 C 471.947 -1.62014 0.518224 0
M  V30 5007 O 473.132 -1.79053 0.751919 0
M  V30 5008 C 470.262 -3.0181 1.71836 0
M  V30 5009 C 469.216 -3.17911 2.8656 0
M  V30 5010 C 468.542 -4.5763 2.76548 0
M  V30 5011 C 469.842 -2.99729 4.27738 0
M  V30 5012 H 471.536 -1.48302 2.6009 0
M  V30 5013 H 469.082 -0.712026 1.25165 0
M  V30 5014 H 471.035 -3.79525 1.83135 0
M  V30 5015 H 469.759 -3.17806 0.752775 0
M  V30 5016 H 468.418 -2.42616 2.74833 0
M  V30 5017 H 468.066 -4.70476 1.77937 0
M  V30 5018 H 467.766 -4.69346 3.53536 0
M  V30 5019 H 469.29 -5.37431 2.89828 0
M  V30 5020 H 470.704 -3.67228 4.40246 0
M  V30 5021 H 469.101 -3.22932 5.05801 0
M  V30 5022 H 470.171 -1.96047 4.43502 0
M  V30 5023 N 471.514 -1.37532 -0.769588 0
M  V30 5024 C 472.925 -1.29382 -1.346 0
M  V30 5025 C 473.276 0.0576039 -1.96115 0
M  V30 5026 O 472.401 0.95947 -1.93967 0
M  V30 5027 C 472.996 -2.34298 -2.44724 0
M  V30 5028 C 471.555 -2.29776 -2.98128 0
M  V30 5029 C 470.702 -2.18013 -1.71364 0
M  V30 5030 H 473.653 -1.48123 -0.56968 0
M  V30 5031 H 473.674 -1.99089 -3.24259 0
M  V30 5032 H 473.186 -3.32645 -1.99922 0
M  V30 5033 H 471.287 -1.34959 -3.47299 0
M  V30 5034 H 471.4 -3.23276 -3.53595 0
M  V30 5035 H 469.764 -1.64595 -1.94372 0
M  V30 5036 H 470.547 -3.18278 -1.28662 0
M  V30 5037 N 472.992 0.995999 -1.22138 0
M  V30 5038 C 474.238 1.7386 -1.05567 0
M  V30 5039 C 474.593 1.8808 0.405418 0
M  V30 5040 O 473.886 1.41062 1.29661 0
M  V30 5041 C 474.08 3.14553 -1.6968 0
M  V30 5042 C 473.909 3.14053 -3.21871 0
M  V30 5043 C 472.679 3.20121 -3.90961 0
M  V30 5044 C 474.877 2.98451 -4.18845 0
M  V30 5045 N 472.859 3.09342 -5.30265 0
M  V30 5046 C 474.23 2.95667 -5.4496 0
M  V30 5047 C 476.285 2.8282 -4.09777 0
M  V30 5048 C 474.988 2.78852 -6.63049 0
M  V30 5049 C 477.014 2.67364 -5.27513 0
M  V30 5050 C 476.376 2.65264 -6.52544 0
M  V30 5051 H 472.475 0.645989 -0.440706 0
M  V30 5052 H 475.059 1.1831 -1.54631 0
M  V30 5053 H 473.23 3.68353 -1.2317 0
M  V30 5054 H 474.962 3.77358 -1.4623 0
M  V30 5055 H 471.717 3.27679 -3.4194 0
M  V30 5056 H 472.141 3.0727 -6.03253 0
M  V30 5057 H 476.783 2.83243 -3.139 0
M  V30 5058 H 474.501 2.77175 -7.59078 0
M  V30 5059 H 478.087 2.56256 -5.22326 0
M  V30 5060 H 476.967 2.5345 -7.42114 0
M  V30 5061 N 474.47 1.03057 1.19235 0
M  V30 5062 C 475.886 0.747947 1.40989 0
M  V30 5063 C 476.086 -0.666752 1.90149 0
M  V30 5064 O 475.142 -1.43249 2.07933 0
M  V30 5065 C 476.455 1.7855 2.41951 0
M  V30 5066 C 478.003 1.80524 2.55695 0
M  V30 5067 C 478.478 2.83243 3.59913 0
M  V30 5068 N 479.969 2.8207 3.67411 0
M  V30 5069 C 480.704 3.58204 4.47747 0
M  V30 5070 N 480.2 4.44057 5.31775 0
M  V30 5071 N 481.993 3.46738 4.42413 0
M  V30 5072 H 474.144 1.94367 0.856468 0
M  V30 5073 H 476.407 0.840412 0.438647 0
M  V30 5074 H 476.113 2.79973 2.12857 0
M  V30 5075 H 475.987 1.6092 3.41152 0
M  V30 5076 H 478.374 0.79778 2.84112 0
M  V30 5077 H 478.455 2.02229 1.56643 0
M  V30 5078 H 478.099 3.84161 3.32239 0
M  V30 5079 H 478.029 2.58795 4.5862 0
M  V30 5080 H 480.52 2.19803 3.074 0
M  V30 5081 H 480.833 4.98884 5.90199 0
M  V30 5082 H 479.178 4.48129 5.3123 0
M  V30 5083 H 482.369 2.79077 3.75811 0
M  V30 5084 H 482.542 4.06322 5.04783 0
M  V30 5085 N 475.948 -1.35272 0.808662 0
M  V30 5086 C 477.359 -1.81179 0.450688 0
M  V30 5087 C 477.71 -1.67143 -1.02751 0
M  V30 5088 O 476.835 -1.20325 -1.79864 0
M  V30 5089 C 477.43 -3.28943 0.811275 0
M  V30 5090 C 475.989 -3.72985 0.505871 0
M  V30 5091 C 475.136 -2.57229 1.03578 0
M  V30 5092 H 478.087 -1.2322 1.00012 0
M  V30 5093 H 478.108 -3.80342 0.109588 0
M  V30 5094 H 477.62 -3.39127 1.88718 0
M  V30 5095 H 475.721 -3.68349 -0.561209 0
M  V30 5096 H 475.834 -4.67677 1.03995 0
M  V30 5097 H 474.198 -2.50548 0.458005 0
M  V30 5098 H 474.981 -2.7019 2.11784 0
M  V30 5099 N 477.426 -0.562348 -1.47226 0
M  V30 5100 C 478.389 0.172056 -2.28553 0
M  V30 5101 C 479.389 0.837928 -1.37242 0
M  V30 5102 O 480.579 0.693001 -1.59822 0
M  V30 5103 C 477.711 1.25223 -3.17068 0
M  V30 5104 H 478.904 -0.542401 -2.94954 0
M  V30 5105 H 476.457 -0.319493 -1.53 0
M  V30 5106 H 477.192 1.99892 -2.55369 0
M  V30 5107 H 476.977 0.779515 -3.84273 0
M  V30 5108 H 478.467 1.76791 -3.78332 0
M  V30 5109 N 478.904 1.54736 -0.299062 0
M  V30 5110 C 479.814 2.27127 0.587413 0
M  V30 5111 C 480.83 1.30575 1.15005 0
M  V30 5112 O 482.006 1.63554 1.17525 0
M  V30 5113 C 479.071 2.99645 1.74395 0
M  V30 5114 C 478.132 4.11731 1.21559 0
M  V30 5115 C 477.365 4.80781 2.317 0
M  V30 5116 O 477.588 4.4918 3.51558 0
M  V30 5117 O 476.522 5.68226 1.98501 0
M  V30 5118 H 480.348 3.037 0.000250109 0
M  V30 5119 H 477.933 1.49256 -0.0655919 0
M  V30 5120 H 479.815 3.45138 2.4178 0
M  V30 5121 H 478.49 2.25969 2.31775 0
M  V30 5122 H 477.397 3.70641 0.507514 0
M  V30 5123 H 478.73 4.87379 0.687233 0
M  V30 5124 N 480.382 0.0267497 1.57577 0
M  V30 5125 C 481.63 -0.651116 1.91324 0
M  V30 5126 C 481.951 -1.72804 0.90353 0
M  V30 5127 O 481.221 -1.95822 -0.0552946 0
M  V30 5128 H 479.801 -0.243491 0.706202 0
M  V30 5129 H 482.463 0.0739935 1.94759 0
M  V30 5130 H 481.559 -1.10536 2.9187 0
M  V30 5131 N 481.861 -1.55662 -0.24637 0
M  V30 5132 C 483.277 -1.48098 -0.594907 0
M  V30 5133 C 483.477 -0.717044 -1.8831 0
M  V30 5134 O 482.533 -0.246618 -2.51293 0
M  V30 5135 C 483.846 -2.92507 -0.697146 0
M  V30 5136 C 485.394 -3.02881 -0.789436 0
M  V30 5137 C 485.869 -4.48598 -0.923232 0
M  V30 5138 N 487.36 -4.52538 -0.988088 0
M  V30 5139 C 488.095 -5.62536 -1.11089 0
M  V30 5140 N 487.591 -6.82342 -1.19919 0
M  V30 5141 N 489.384 -5.50334 -1.14408 0
M  V30 5142 H 481.535 -2.0377 0.599278 0
M  V30 5143 H 483.798 -0.925145 0.20691 0
M  V30 5144 H 483.504 -3.51242 0.179396 0
M  V30 5145 H 483.378 -3.43024 -1.5689 0
M  V30 5146 H 485.765 -2.44226 -1.65643 0
M  V30 5147 H 485.846 -2.55574 0.107482 0
M  V30 5148 H 485.49 -5.07864 -0.0607927 0
M  V30 5149 H 485.42 -4.93587 -1.8352 0
M  V30 5150 H 487.911 -3.66248 -0.931167 0
M  V30 5151 H 488.224 -7.61924 -1.29197 0
M  V30 5152 H 486.569 -6.85102 -1.16876 0
M  V30 5153 H 489.76 -4.5567 -1.07158 0
M  V30 5154 H 489.933 -6.36096 -1.23634 0
M  V30 5155 N 483.339 0.512053 -1.4905 0
M  V30 5156 C 484.287 1.63568 -1.65373 0
M  V30 5157 C 485.281 1.61228 -0.519806 0
M  V30 5158 O 486.487 1.65869 -0.699101 0
M  V30 5159 H 482.862 0.542019 -0.521267 0
M  V30 5160 H 484.833 1.4695 -2.59708 0
M  V30 5161 C 483.582 3.01761 -1.7273 0
M  V30 5162 H 482.905 3.04263 -2.59353 0
M  V30 5163 H 484.345 3.79948 -1.8819 0
M  V30 5164 C 482.804 3.33609 -0.46973 0
M  V30 5165 O 483.334 3.99607 0.409492 0
M  V30 5166 N 481.54 2.88651 -0.336003 0
M  V30 5167 H 481.087 2.35119 -1.05247 0
M  V30 5168 H 481.045 3.10328 0.504363 0
M  V30 5169 N 484.817 1.37938 0.762283 0
M  V30 5170 C 486.042 1.37059 1.55659 0
M  V30 5171 C 486.467 -0.0396123 1.88058 0
M  V30 5172 O 485.825 -1.01929 1.49934 0
M  V30 5173 C 485.873 2.22494 2.83776 0
M  V30 5174 O 484.977 1.63607 3.78559 0
M  V30 5175 H 484.318 0.467892 0.47114 0
M  V30 5176 H 486.848 1.81587 0.942725 0
M  V30 5177 H 486.858 2.36045 3.32786 0
M  V30 5178 H 485.533 3.24993 2.59524 0
M  V30 5179 H 484.11 1.5915 3.37233 0
M  V30 5180 N 486.295 -0.989507 1.22664 0
M  V30 5181 C 487.243 -2.10148 0.997035 0
M  V30 5182 C 488.237 -1.6929 -0.0609783 0
M  V30 5183 O 489.443 -1.79766 0.0917523 0
M  V30 5184 H 485.818 -0.687256 0.305259 0
M  V30 5185 H 487.789 -2.26685 1.94053 0
M  V30 5186 C 486.538 -3.4257 0.595085 0
M  V30 5187 H 485.861 -3.74453 1.40089 0
M  V30 5188 H 487.301 -4.21344 0.473869 0
M  V30 5189 C 485.76 -3.29638 -0.695725 0
M  V30 5190 O 486.29 -3.61709 -1.74727 0
M  V30 5191 N 484.496 -2.82814 -0.668173 0
M  V30 5192 H 484.043 -2.56914 0.18787 0
M  V30 5193 H 484.001 -2.74544 -1.5321 0
M  V30 5194 N 487.773 -1.03688 -1.18687 0
M  V30 5195 C 488.736 -0.629115 -2.20397 0
M  V30 5196 C 489.736 0.311495 -1.57754 0
M  V30 5197 O 490.926 0.0974107 -1.73927 0
M  V30 5198 C 488.058 0.0782231 -3.4081 0
M  V30 5199 H 489.251 -1.52915 -2.57987 0
M  V30 5200 H 486.804 -0.828988 -1.32505 0
M  V30 5201 H 487.539 0.992233 -3.08748 0
M  V30 5202 H 487.324 -0.597776 -3.87517 0
M  V30 5203 H 488.814 0.350156 -4.16129 0
M  V30 5204 N 489.251 1.34841 -0.815825 0
M  V30 5205 C 490.491 2.00321 -0.406297 0
M  V30 5206 C 490.855 1.63293 1.00992 0
M  V30 5207 O 492.056 2.21563 1.52195 0
M  V30 5208 C 490.327 3.52421 -0.594469 0
M  V30 5209 S 491.886 4.37926 -0.276735 0
M  V30 5210 H 488.704 0.694155 -0.153848 0
M  V30 5211 H 491.306 1.64263 -1.06009 0
M  V30 5212 H 490.01 3.76858 -1.625 0
M  V30 5213 H 489.541 3.9333 0.0743157 0
M  V30 5214 H 491.556 4.87743 0.912215 0
M  V30 5215 N 490.729 0.570148 1.46925 0
M  V30 5216 C 491.676 -0.170257 2.30171 0
M  V30 5217 C 492.646 -0.896099 1.39855 0
M  V30 5218 O 493.831 -0.889248 1.68811 0
M  V30 5219 C 490.971 -1.18605 3.24079 0
M  V30 5220 C 490.084 -0.464947 4.29491 0
M  V30 5221 C 489.219 -1.46716 5.10537 0
M  V30 5222 C 488.258 -0.731758 6.0771 0
M  V30 5223 N 487.395 -1.68142 6.81669 0
M  V30 5224 H 492.235 0.545713 2.92961 0
M  V30 5225 H 489.772 0.280938 1.44392 0
M  V30 5226 H 491.73 -1.78771 3.76957 0
M  V30 5227 H 490.36 -1.86989 2.63125 0
M  V30 5228 H 489.412 0.251506 3.79568 0
M  V30 5229 H 490.724 0.110548 4.98677 0
M  V30 5230 H 489.878 -2.14199 5.6763 0
M  V30 5231 H 488.617 -2.07658 4.41282 0
M  V30 5232 H 487.622 -0.0430787 5.49783 0
M  V30 5233 H 488.847 -0.127904 6.7898 0
M  V30 5234 H 486.793 -2.27918 6.15134 0
M  V30 5235 H 486.71 -1.15841 7.47072 0
M  V30 5236 H 487.978 -2.347 7.43328 0
M  V30 5237 N 492.207 -1.54576 0.307264 0
M  V30 5238 C 493.154 -2.23751 -0.56604 0
M  V30 5239 C 494.124 -1.22235 -1.12462 0
M  V30 5240 O 495.309 -1.50873 -1.16799 0
M  V30 5241 C 492.449 -2.98661 -1.72903 0
M  V30 5242 C 491.562 -4.14963 -1.20124 0
M  V30 5243 C 490.697 -4.77441 -2.3286 0
M  V30 5244 C 489.736 -5.85875 -1.77247 0
M  V30 5245 N 488.873 -6.42282 -2.8358 0
M  V30 5246 H 493.713 -2.97984 0.0304578 0
M  V30 5247 H 491.25 -1.47076 0.0268015 0
M  V30 5248 H 493.208 -3.40329 -2.41313 0
M  V30 5249 H 491.838 -2.26793 -2.29706 0
M  V30 5250 H 490.89 -3.78193 -0.409198 0
M  V30 5251 H 492.202 -4.93066 -0.754171 0
M  V30 5252 H 491.356 -5.21993 -3.09205 0
M  V30 5253 H 490.095 -3.98684 -2.80896 0
M  V30 5254 H 489.1 -5.40741 -0.993926 0
M  V30 5255 H 490.325 -6.6652 -1.30107 0
M  V30 5256 H 488.271 -5.66406 -3.30939 0
M  V30 5257 H 488.188 -7.1575 -2.43388 0
M  V30 5258 H 489.456 -6.91492 -3.59804 0
M  V30 5259 N 493.685 -0.035106 -1.57561 0
M  V30 5260 C 494.925 0.646316 -1.93913 0
M  V30 5261 C 495.289 1.68947 -0.912185 0
M  V30 5262 O 496.49 2.42381 -1.1621 0
M  V30 5263 C 494.761 1.24136 -3.35149 0
M  V30 5264 S 496.32 1.94302 -3.93436 0
M  V30 5265 H 493.138 0.212642 -0.678457 0
M  V30 5266 H 495.74 -0.100203 -1.95243 0
M  V30 5267 H 494.444 0.46979 -4.07702 0
M  V30 5268 H 493.975 2.02505 -3.37276 0
M  V30 5269 H 495.99 3.22205 -3.77357 0
M  V30 5270 N 495.163 1.55791 0.238111 0
M  V30 5271 C 496.111 1.91885 1.31464 0
M  V30 5272 C 497.105 0.798929 1.49377 0
M  V30 5273 O 498.311 0.983626 1.50747 0
M  V30 5274 H 494.686 0.609551 0.440399 0
M  V30 5275 H 496.657 2.81747 0.982925 0
M  V30 5276 C 495.406 2.23763 2.6613 0
M  V30 5277 H 494.729 3.09444 2.53149 0
M  V30 5278 H 496.169 2.52915 3.40309 0
M  V30 5279 C 494.628 1.05699 3.1989 0
M  V30 5280 O 495.158 0.309524 4.00506 0
M  V30 5281 N 493.364 0.845251 2.78036 0
M  V30 5282 H 492.911 1.4548 2.12588 0
M  V30 5283 H 492.869 0.0569973 3.14348 0
M  V30 5284 N 496.642 -0.504142 1.49319 0
M  V30 5285 C 497.882 -1.26867 1.60263 0
M  V30 5286 C 498.246 -1.89924 0.281578 0
M  V30 5287 O 499.447 -2.67479 0.266176 0
M  V30 5288 C 497.718 -2.30956 2.72753 0
M  V30 5289 S 499.277 -3.1679 3.03628 0
M  V30 5290 H 496.095 -0.431198 0.565322 0
M  V30 5291 H 498.697 -0.571407 1.86963 0
M  V30 5292 H 497.401 -1.83156 3.67263 0
M  V30 5293 H 496.932 -3.05356 2.48035 0
M  V30 5294 H 498.947 -4.31549 2.44908 0
M  V30 5295 N 498.12 -1.38341 -0.754957 0
M  V30 5296 C 499.068 -1.35573 -1.89005 0
M  V30 5297 C 500.062 -0.241824 -1.67665 0
M  V30 5298 O 501.268 -0.410785 -1.7525 0
M  V30 5299 H 497.643 -0.422898 -0.621821 0
M  V30 5300 H 499.614 -2.31359 -1.88455 0
M  V30 5301 C 498.363 -1.19631 -3.26471 0
M  V30 5302 H 497.686 -2.04605 -3.43477 0
M  V30 5303 H 499.126 -1.21748 -4.06144 0
M  V30 5304 C 497.585 0.0968705 -3.36761 0
M  V30 5305 O 498.115 1.07439 -3.87066 0
M  V30 5306 N 496.321 0.153242 -2.90196 0
M  V30 5307 H 495.868 -0.642908 -2.49448 0
M  V30 5308 H 495.826 1.01807 -2.9746 0
M  V30 5309 N 499.598 0.982988 -1.23187 0
M  V30 5310 C 500.508 2.10907 -1.02739 0
M  V30 5311 C 501.524 1.73979 0.0273188 0
M  V30 5312 O 502.7 2.00702 -0.16757 0
M  V30 5313 C 499.765 3.41142 -0.618304 0
M  V30 5314 C 498.826 3.92112 -1.74777 0
M  V30 5315 C 498.059 5.16131 -1.3581 0
M  V30 5316 O 498.282 5.6989 -0.241201 0
M  V30 5317 O 497.216 5.61103 -2.17824 0
M  V30 5318 H 501.042 2.31046 -1.97108 0
M  V30 5319 H 498.627 1.09284 -1.01869 0
M  V30 5320 H 500.509 4.19488 -0.400982 0
M  V30 5321 H 499.184 3.2234 0.296421 0
M  V30 5322 H 498.091 3.14895 -2.0197 0
M  V30 5323 H 499.424 4.15364 -2.64071 0
M  V30 5324 N 501.076 1.04316 1.18135 0
M  V30 5325 C 502.026 0.606731 2.19779 0
M  V30 5326 C 503.01 -0.352144 1.56999 0
M  V30 5327 O 504.202 -0.170795 1.76174 0
M  V30 5328 C 501.331 -0.0262443 3.4329 0
M  V30 5329 C 500.417 0.955928 4.13186 0
M  V30 5330 N 500.808 2.12395 4.59045 0
M  V30 5331 C 499.106 0.782473 4.39082 0
M  V30 5332 C 499.807 2.74458 5.12882 0
M  V30 5333 N 498.783 2.02316 5.04548 0
M  V30 5334 H 502.585 1.49679 2.5293 0
M  V30 5335 H 500.099 0.912088 1.34368 0
M  V30 5336 H 502.096 -0.356617 4.15372 0
M  V30 5337 H 500.756 -0.911811 3.11635 0
M  V30 5338 H 501.767 2.50272 4.53414 0
M  V30 5339 H 498.444 -0.0527906 4.17467 0
M  V30 5340 H 499.834 3.73459 5.5855 0
M  V30 5341 N 502.554 -1.34406 0.822964 0
M  V30 5342 C 503.779 -2.0304 0.423034 0
M  V30 5343 C 504.204 -1.61568 -0.963196 0
M  V30 5344 O 503.562 -0.800339 -1.62678 0
M  V30 5345 C 503.61 -3.56636 0.53321 0
M  V30 5346 O 502.714 -4.09971 -0.446939 0
M  V30 5347 H 502.055 -0.64075 0.174171 0
M  V30 5348 H 504.585 -1.71653 1.11339 0
M  V30 5349 H 504.595 -4.05945 0.408991 0
M  V30 5350 H 503.27 -3.86168 1.54425 0
M  V30 5351 H 501.847 -3.71835 -0.281601 0
M  V30 5352 N 504.032 -0.577932 -1.46621 0
M  V30 5353 C 505.281 -0.0594281 -2.01612 0
M  V30 5354 C 505.594 1.30663 -1.45556 0
M  V30 5355 O 506.8 1.91621 -1.92337 0
M  V30 5356 C 505.256 -0.0556666 -3.59857 0
M  V30 5357 C 504.864 -1.41975 -4.24908 0
M  V30 5358 C 506.608 0.409143 -4.22524 0
M  V30 5359 C 504.515 -1.37397 -5.75218 0
M  V30 5360 H 503.445 -0.0184469 -0.753774 0
M  V30 5361 H 506.096 -0.728869 -1.68404 0
M  V30 5362 H 504.478 0.679843 -3.90121 0
M  V30 5363 H 505.652 -2.17461 -4.0626 0
M  V30 5364 H 503.967 -1.82419 -3.74316 0
M  V30 5365 H 506.564 0.46211 -5.32699 0
M  V30 5366 H 506.907 1.42565 -3.91128 0
M  V30 5367 H 507.44 -0.272152 -3.96868 0
M  V30 5368 H 504.179 -2.36714 -6.11267 0
M  V30 5369 H 503.699 -0.661239 -5.96144 0
M  V30 5370 H 505.378 -1.08484 -6.3784 0
M  V30 5371 N 505.51 1.54411 -0.315457 0
M  V30 5372 C 506.735 2.05299 0.294496 0
M  V30 5373 C 507.16 1.19052 1.4563 0
M  V30 5374 O 506.518 0.197804 1.80218 0
M  V30 5375 C 506.566 3.5345 0.714549 0
M  V30 5376 O 505.67 3.70175 1.81781 0
M  V30 5377 H 505.011 0.661743 0.0547019 0
M  V30 5378 H 507.541 1.99327 -0.461508 0
M  V30 5379 H 507.551 3.9557 0.999426 0
M  V30 5380 H 506.226 4.1568 -0.135244 0
M  V30 5381 H 504.803 3.3996 1.53236 0
M  V30 5382 N 506.988 0.0434614 1.5754 0
M  V30 5383 C 508.228 -0.636023 1.94253 0
M  V30 5384 C 508.592 -1.68461 0.921132 0
M  V30 5385 O 509.793 -2.41762 1.17494 0
M  V30 5386 C 508.064 -1.22357 3.35803 0
M  V30 5387 S 509.623 -1.92213 3.94461 0
M  V30 5388 H 506.441 -0.209041 0.679575 0
M  V30 5389 H 509.043 0.110556 1.95187 0
M  V30 5390 H 507.747 -0.448162 4.07946 0
M  V30 5391 H 507.278 -2.00713 3.38346 0
M  V30 5392 H 509.293 -3.20199 3.79061 0
M  V30 5393 N 508.466 -1.55915 -0.229846 0
M  V30 5394 C 509.416 -1.8813 -1.28807 0
M  V30 5395 C 510.4 -0.743621 -1.42685 0
M  V30 5396 O 511.592 -1.00588 -1.4564 0
M  V30 5397 C 508.721 -2.19431 -2.64017 0
M  V30 5398 C 507.807 -3.39569 -2.54074 0
M  V30 5399 N 508.198 -4.58404 -2.13774 0
M  V30 5400 C 506.496 -3.43019 -2.85051 0
M  V30 5401 C 507.197 -5.40557 -2.1488 0
M  V30 5402 N 506.173 -4.80054 -2.55047 0
M  V30 5403 H 509.975 -2.77527 -0.967261 0
M  V30 5404 H 507.489 -1.5637 -0.438433 0
M  V30 5405 H 509.486 -2.40681 -3.40409 0
M  V30 5406 H 508.146 -1.31341 -2.9695 0
M  V30 5407 H 509.157 -4.83716 -1.8504 0
M  V30 5408 H 505.834 -2.65249 -3.22411 0
M  V30 5409 H 507.224 -6.45666 -1.85918 0
M  V30 5410 N 509.944 0.496216 -1.49584 0
M  V30 5411 C 511.191 1.25003 -1.59312 0
M  V30 5412 C 511.519 1.92445 -0.28198 0
M  V30 5413 O 510.774 1.81557 0.730452 0
M  V30 5414 C 511.073 2.3359 -2.705 0
M  V30 5415 C 510.739 1.83574 -4.11839 0
M  V30 5416 C 509.401 1.69653 -4.50302 0
M  V30 5417 C 511.753 1.46193 -5.00277 0
M  V30 5418 C 509.081 1.16736 -5.74969 0
M  V30 5419 C 511.433 0.947265 -6.25468 0
M  V30 5420 C 510.097 0.794485 -6.62755 0
M  V30 5421 H 509.367 0.45742 -0.582965 0
M  V30 5422 H 512.014 0.549996 -1.83432 0
M  V30 5423 H 510.319 3.09401 -2.40371 0
M  V30 5424 H 512.016 2.91627 -2.75235 0
M  V30 5425 H 508.606 1.9537 -3.81482 0
M  V30 5426 H 512.79 1.55793 -4.71214 0
M  V30 5427 H 508.046 1.03623 -6.02555 0
M  V30 5428 H 512.22 0.648846 -6.93371 0
M  V30 5429 H 509.847 0.382271 -7.59238 0
M  V30 5430 N 511.423 1.38739 0.74761 0
M  V30 5431 C 512.7 1.25791 1.49786 0
M  V30 5432 C 513.08 -0.138075 2.10648 0
M  V30 5433 O 512.428 -1.14815 1.9756 0
M  V30 5434 C 512.638 2.37265 2.55942 0
M  V30 5435 C 513.986 2.75978 3.22679 0
M  V30 5436 O 515.01 2.36621 2.6625 0
M  V30 5437 O 513.869 3.43867 4.24756 0
M  V30 5438 H 510.963 0.492251 0.664543 0
M  V30 5439 H 513.509 1.50582 0.782511 0
M  V30 5440 H 512.281 3.30644 2.0926 0
M  V30 5441 H 511.904 2.14071 3.35051 0
M  V30 5442 N 512.901 -0.976442 1.23707 0
M  V30 5443 C 513.834 -2.06793 0.964973 0
M  V30 5444 C 514.812 -1.62304 -0.0981472 0
M  V30 5445 O 515.996 -1.88464 0.0369477 0
M  V30 5446 C 513.123 -3.35636 0.454522 0
M  V30 5447 C 512.169 -3.99069 1.50485 0
M  V30 5448 S 513.002 -4.37814 3.0835 0
M  V30 5449 C 514.158 -5.69805 2.58985 0
M  V30 5450 H 514.391 -2.29556 1.88922 0
M  V30 5451 H 511.924 -1.11317 1.06995 0
M  V30 5452 H 513.882 -4.10162 0.166626 0
M  V30 5453 H 512.543 -3.10876 -0.448871 0
M  V30 5454 H 511.736 -4.91896 1.09792 0
M  V30 5455 H 511.338 -3.30938 1.7423 0
M  V30 5456 H 513.63 -6.46919 2.01252 0
M  V30 5457 H 514.573 -6.15345 3.50366 0
M  V30 5458 H 514.981 -5.27994 1.99705 0
M  V30 5459 N 514.379 -1.04941 -1.1758 0
M  V30 5460 C 515.342 -0.652456 -2.19717 0
M  V30 5461 C 516.342 0.294745 -1.58076 0
M  V30 5462 O 517.532 0.0789579 -1.74021 0
M  V30 5463 C 514.664 0.0420712 -3.40874 0
M  V30 5464 H 515.857 -1.55642 -2.5635 0
M  V30 5465 H 513.41 -0.842995 -1.31618 0
M  V30 5466 H 514.145 0.95943 -3.09783 0
M  V30 5467 H 513.93 -0.638844 -3.86861 0
M  V30 5468 H 515.42 0.306 -4.16477 0
M  V30 5469 N 515.857 1.33968 -0.830081 0
M  V30 5470 C 517.103 1.98357 -0.422191 0
M  V30 5471 C 517.436 1.65633 1.01387 0
M  V30 5472 O 516.711 0.931648 1.70735 0
M  V30 5473 C 516.994 3.54492 -0.633043 0
M  V30 5474 C 516.847 3.96934 -2.11574 0
M  V30 5475 C 518.166 4.40039 -0.0735584 0
M  V30 5476 H 515.285 0.720544 -0.154871 0
M  V30 5477 H 517.927 1.58749 -1.04397 0
M  V30 5478 H 516.077 3.88361 -0.103775 0
M  V30 5479 H 517.749 3.73363 -2.7092 0
M  V30 5480 H 515.992 3.46984 -2.60354 0
M  V30 5481 H 516.663 5.05651 -2.21406 0
M  V30 5482 H 519.139 4.12764 -0.52585 0
M  V30 5483 H 518.015 5.48327 -0.250841 0
M  V30 5484 H 518.276 4.30124 1.02202 0
M  V30 5485 N 517.335 0.585699 1.46312 0
M  V30 5486 C 518.565 0.0780166 2.06453 0
M  V30 5487 C 518.973 -1.2336 1.43454 0
M  V30 5488 O 518.316 -1.75734 0.535086 0
M  V30 5489 C 518.378 -0.158951 3.59148 0
M  V30 5490 C 518.042 1.06752 4.44357 0
M  V30 5491 C 519.039 1.98031 4.80708 0
M  V30 5492 C 516.724 1.2902 4.85447 0
M  V30 5493 C 518.718 3.09924 5.5698 0
M  V30 5494 C 516.405 2.41218 5.61478 0
M  V30 5495 C 517.403 3.31499 5.97158 0
M  V30 5496 O 517.091 4.41747 6.71651 0
M  V30 5497 H 516.823 0.0558894 0.673686 0
M  V30 5498 H 519.377 0.806994 1.88883 0
M  V30 5499 H 517.607 -0.942575 3.75037 0
M  V30 5500 H 519.296 -0.615513 4.01206 0
M  V30 5501 H 520.062 1.82043 4.49539 0
M  V30 5502 H 515.941 0.596567 4.57124 0
M  V30 5503 H 519.485 3.80415 5.84748 0
M  V30 5504 H 515.382 2.57167 5.9206 0
M  V30 5505 H 516.15 4.40152 6.90079 0
M  V30 5506 N 518.813 -1.54241 0.323641 0
M  V30 5507 C 519.743 -2.27289 -0.534993 0
M  V30 5508 C 520.724 -1.28087 -1.11927 0
M  V30 5509 O 521.909 -1.56899 -1.14439 0
M  V30 5510 C 519.039 -3.03075 -1.69596 0
M  V30 5511 C 517.993 -4.09614 -1.24098 0
M  V30 5512 C 517.319 -4.73242 -2.4889 0
M  V30 5513 C 518.619 -5.21087 -0.355789 0
M  V30 5514 H 520.313 -2.99308 0.0743257 0
M  V30 5515 H 517.859 -1.43952 0.0371874 0
M  V30 5516 H 519.812 -3.52907 -2.30293 0
M  V30 5517 H 518.536 -2.28673 -2.33187 0
M  V30 5518 H 517.195 -3.60666 -0.656945 0
M  V30 5519 H 516.843 -3.95455 -3.10845 0
M  V30 5520 H 516.543 -5.45209 -2.19138 0
M  V30 5521 H 518.067 -5.25848 -3.10348 0
M  V30 5522 H 519.481 -5.66675 -0.869042 0
M  V30 5523 H 517.878 -5.9991 -0.151045 0
M  V30 5524 H 518.948 -4.81005 0.613339 0
M  V30 5525 N 520.291 -0.0518155 -1.57515 0
M  V30 5526 C 521.254 0.907547 -2.10467 0
M  V30 5527 C 522.254 1.23947 -1.02439 0
M  V30 5528 O 523.444 1.17604 -1.2851 0
M  V30 5529 C 520.576 2.21723 -2.58944 0
M  V30 5530 H 521.769 0.44851 -2.96527 0
M  V30 5531 H 519.322 0.196598 -1.55059 0
M  V30 5532 H 520.057 2.72206 -1.76279 0
M  V30 5533 H 519.842 1.98935 -3.37886 0
M  V30 5534 H 521.332 2.90441 -3.00056 0
M  V30 5535 N 521.769 1.56035 0.221574 0
M  V30 5536 C 522.997 1.8313 0.962864 0
M  V30 5537 C 523.412 0.630934 1.77946 0
M  V30 5538 O 522.769 -0.400519 1.78051 0
M  V30 5539 C 522.82 3.08742 1.88045 0
M  V30 5540 O 522.541 4.24147 1.09686 0
M  V30 5541 C 524.042 3.48824 2.73563 0
M  V30 5542 H 521.262 0.608775 0.282194 0
M  V30 5543 H 523.806 2.03124 0.23681 0
M  V30 5544 H 521.961 2.90723 2.56045 0
M  V30 5545 H 522.375 4.95505 1.71974 0
M  V30 5546 H 523.849 4.39752 3.3365 0
M  V30 5547 H 524.326 2.70575 3.45956 0
M  V30 5548 H 524.932 3.69282 2.10976 0
M  V30 5549 N 523.247 -0.488276 1.49845 0
M  V30 5550 C 524.495 -1.23911 1.59657 0
M  V30 5551 C 524.816 -1.92816 0.291005 0
M  V30 5552 O 524.086 -1.83328 -0.690485 0
M  V30 5553 H 522.666 -0.460357 0.588286 0
M  V30 5554 H 525.328 -0.564794 1.86537 0
M  V30 5555 H 524.424 -1.99625 2.39909 0
M  V30 5556 N 524.725 -1.39134 -0.740242 0
M  V30 5557 C 525.673 -1.3757 -1.87556 0
M  V30 5558 C 526.667 -0.259593 -1.67399 0
M  V30 5559 O 527.873 -0.429349 -1.74804 0
M  V30 5560 H 524.248 -0.42947 -0.6173 0
M  V30 5561 H 526.219 -2.33345 -1.85991 0
M  V30 5562 C 524.968 -1.23087 -3.25184 0
M  V30 5563 H 524.291 -2.08237 -3.41288 0
M  V30 5564 H 525.731 -1.26049 -4.0483 0
M  V30 5565 C 524.19 0.0611471 -3.36845 0
M  V30 5566 O 524.72 1.03328 -3.88183 0
M  V30 5567 N 522.926 0.122454 -2.90342 0
M  V30 5568 H 522.473 -0.669329 -2.48752 0
M  V30 5569 H 522.431 0.986463 -2.98523 0
M  V30 5570 N 526.204 0.969867 -1.24223 0
M  V30 5571 C 527.45 1.7151 -1.08223 0
M  V30 5572 C 527.783 1.90478 0.37838 0
M  V30 5573 O 527.058 1.4647 1.27971 0
M  V30 5574 C 527.341 3.10714 -1.82013 0
M  V30 5575 C 527.194 2.9925 -3.35811 0
M  V30 5576 C 528.513 4.10332 -1.59108 0
M  V30 5577 H 525.632 0.622499 -0.394543 0
M  V30 5578 H 528.274 1.1284 -1.52863 0
M  V30 5579 H 526.424 3.608 -1.44068 0
M  V30 5580 H 528.096 2.56608 -3.83341 0
M  V30 5581 H 526.339 2.35512 -3.64303 0
M  V30 5582 H 527.01 3.97857 -3.82641 0
M  V30 5583 H 529.486 3.69097 -1.92111 0
M  V30 5584 H 528.362 5.05804 -2.13198 0
M  V30 5585 H 528.623 4.38926 -0.528832 0
M  V30 5586 N 527.682 1.05563 1.17022 0
M  V30 5587 C 528.907 0.788437 1.91829 0
M  V30 5588 C 529.332 -0.650356 1.76499 0
M  V30 5589 O 528.69 -1.45229 1.08527 0
M  V30 5590 C 528.738 1.1786 3.40795 0
M  V30 5591 O 527.842 0.312965 4.11211 0
M  V30 5592 H 527.183 0.288794 0.597908 0
M  V30 5593 H 529.713 1.40948 1.48307 0
M  V30 5594 H 529.723 1.14697 3.91546 0
M  V30 5595 H 528.398 2.22666 3.51273 0
M  V30 5596 H 526.975 0.405515 3.70689 0
M  V30 5597 N 529.16 -1.33526 0.837174 0
M  V30 5598 C 530.408 -1.97446 0.431211 0
M  V30 5599 C 530.729 -1.6665 -1.01255 0
M  V30 5600 O 529.999 -0.964559 -1.70508 0
M  V30 5601 H 528.579 -0.73043 0.156463 0
M  V30 5602 H 531.241 -1.62918 1.06976 0
M  V30 5603 H 530.337 -3.07001 0.561877 0
M  V30 5604 N 530.638 -0.59345 -1.46 0
M  V30 5605 C 531.886 -0.082988 -2.0193 0
M  V30 5606 C 532.207 1.28569 -1.46612 0
M  V30 5607 O 531.477 1.84629 -0.654909 0
M  V30 5608 H 530.057 -0.0276882 -0.746487 0
M  V30 5609 H 532.719 -0.771657 -1.78973 0
M  V30 5610 H 531.815 -0.022079 -3.12092 0
M  V30 5611 N 532.116 1.54067 -0.331816 0
M  V30 5612 C 533.362 2.01012 0.268667 0
M  V30 5613 C 533.695 1.2195 1.51136 0
M  V30 5614 O 532.97 0.303972 1.9211 0
M  V30 5615 C 533.253 3.55158 0.59456 0
M  V30 5616 C 533.106 4.4494 -0.659409 0
M  V30 5617 C 534.425 4.16939 1.4089 0
M  V30 5618 H 531.544 0.730698 0.0961756 0
M  V30 5619 H 534.186 1.84593 -0.450031 0
M  V30 5620 H 532.336 3.6928 1.20685 0
M  V30 5621 H 534.008 4.42675 -1.29756 0
M  V30 5622 H 532.251 4.1428 -1.28665 0
M  V30 5623 H 532.922 5.50643 -0.386804 0
M  V30 5624 H 535.398 4.06443 0.891272 0
M  V30 5625 H 534.274 5.24889 1.60569 0
M  V30 5626 H 534.535 3.70798 2.40752 0
M  V30 5627 N 533.594 0.0601682 1.57485 0
M  V30 5628 C 534.834 -0.615384 1.94916 0
M  V30 5629 C 535.198 -1.67475 0.938948 0
M  V30 5630 O 536.399 -2.40502 1.20051 0
M  V30 5631 C 534.67 -1.18788 3.37082 0
M  V30 5632 S 536.229 -1.88018 3.96478 0
M  V30 5633 H 533.047 -0.201821 0.681754 0
M  V30 5634 H 535.649 0.131252 1.95059 0
M  V30 5635 H 534.353 -0.404869 4.08398 0
M  V30 5636 H 533.884 -1.97114 3.40455 0
M  V30 5637 H 535.899 -3.16161 3.82435 0
M  V30 5638 N 535.072 -1.5615 -0.213296 0
M  V30 5639 C 536.349 -1.70349 -0.961281 0
M  V30 5640 C 536.729 -0.609791 -2.02101 0
M  V30 5641 O 536.077 0.381987 -2.25285 0
M  V30 5642 C 536.287 -3.11982 -1.56424 0
M  V30 5643 C 537.635 -3.71649 -2.05334 0
M  V30 5644 O 538.659 -3.14995 -1.66302 0
M  V30 5645 O 537.518 -4.71038 -2.77102 0
M  V30 5646 H 534.612 -0.694121 -0.449582 0
M  V30 5647 H 537.158 -1.68464 -0.204426 0
M  V30 5648 H 535.93 -3.83046 -0.799457 0
M  V30 5649 H 535.553 -3.18019 -2.38641 0
M  V30 5650 N 536.55 0.480323 -1.50102 0
M  V30 5651 C 537.827 1.24159 -1.51142 0
M  V30 5652 C 538.207 2.09605 -0.250818 0
M  V30 5653 O 537.555 2.15274 0.766118 0
M  V30 5654 C 537.765 2.08057 -2.80202 0
M  V30 5655 C 539.113 2.66556 -3.30504 0
M  V30 5656 O 540.137 2.18308 -2.81461 0
M  V30 5657 O 538.996 3.54442 -4.15973 0
M  V30 5658 H 536.09 0.562928 -0.605839 0
M  V30 5659 H 538.636 0.492899 -1.62384 0
M  V30 5660 H 537.408 1.45032 -3.6343 0
M  V30 5661 H 537.031 2.90079 -2.71919 0
M  V30 5662 N 538.028 1.39524 0.732853 0
M  V30 5663 C 539.268 1.383 1.50508 0
M  V30 5664 C 539.632 -0.0208271 1.91989 0
M  V30 5665 O 540.833 -0.158091 2.68335 0
M  V30 5666 C 539.104 2.33007 2.71003 0
M  V30 5667 S 540.663 2.49989 3.60626 0
M  V30 5668 H 537.481 0.490417 0.514794 0
M  V30 5669 H 540.083 1.75641 0.858524 0
M  V30 5670 H 538.787 3.33862 2.38672 0
M  V30 5671 H 538.318 1.96889 3.40585 0
M  V30 5672 H 540.333 1.7394 4.64714 0
M  V30 5673 N 539.506 -0.963266 1.24736 0
M  V30 5674 C 540.438 -2.06162 1.0015 0
M  V30 5675 C 541.451 -1.62771 -0.0305905 0
M  V30 5676 O 542.64 -1.77296 0.206966 0
M  V30 5677 C 539.74 -3.35333 0.490385 0
M  V30 5678 C 538.913 -4.07609 1.58663 0
M  V30 5679 C 537.972 -5.15052 1.0774 0
M  V30 5680 O 536.998 -5.4098 1.77002 0
M  V30 5681 N 538.2 -5.80436 -0.0858605 0
M  V30 5682 H 540.965 -2.27825 1.94719 0
M  V30 5683 H 538.526 -1.13121 1.15825 0
M  V30 5684 H 540.518 -4.04477 0.134371 0
M  V30 5685 H 539.088 -3.10507 -0.361155 0
M  V30 5686 H 538.308 -3.32681 2.11463 0
M  V30 5687 H 539.596 -4.52656 2.32336 0
M  V30 5688 H 538.994 -5.6178 -0.664806 0
M  V30 5689 H 537.551 -6.50674 -0.382981 0
M  V30 5690 N 540.985 -1.06182 -1.16461 0
M  V30 5691 C 541.935 -0.641619 -2.18786 0
M  V30 5692 C 542.919 0.327122 -1.5754 0
M  V30 5693 O 544.111 0.142746 -1.76423 0
M  V30 5694 C 541.24 -0.0283734 -3.43288 0
M  V30 5695 C 540.326 -1.02154 -4.11613 0
M  V30 5696 N 540.717 -2.19671 -4.55608 0
M  V30 5697 C 539.015 -0.852229 -4.37782 0
M  V30 5698 C 539.716 -2.82583 -5.0845 0
M  V30 5699 N 538.692 -2.10318 -5.01266 0
M  V30 5700 H 542.494 -1.53684 -2.50516 0
M  V30 5701 H 540.008 -0.933349 -1.329 0
M  V30 5702 H 542.005 0.29049 -4.15887 0
M  V30 5703 H 540.665 0.862118 -3.13046 0
M  V30 5704 H 541.676 -2.57453 -4.49375 0
M  V30 5705 H 538.353 -0.0136314 -4.17498 0
M  V30 5706 H 539.743 -3.82298 -5.52538 0
M  V30 5707 N 542.463 1.3308 -0.844243 0
M  V30 5708 C 543.411 2.31028 -0.269954 0
M  V30 5709 C 544.405 1.58381 0.600997 0
M  V30 5710 O 545.611 1.73203 0.48996 0
M  V30 5711 H 541.986 0.748866 -0.0685782 0
M  V30 5712 H 543.957 2.76967 -1.11049 0
M  V30 5713 C 542.706 3.43549 0.535676 0
M  V30 5714 H 542.029 3.99604 -0.125202 0
M  V30 5715 H 543.469 4.14267 0.903262 0
M  V30 5716 C 541.928 2.8988 1.71672 0
M  V30 5717 O 542.458 2.86511 2.81557 0
M  V30 5718 N 540.664 2.46416 1.54037 0
M  V30 5719 H 540.211 2.49356 0.64649 0
M  V30 5720 H 540.169 2.1086 2.33207 0
M  V30 5721 N 543.941 0.601185 1.45683 0
M  V30 5722 C 545.169 0.100054 2.06658 0
M  V30 5723 C 545.584 -1.21285 1.44691 0
M  V30 5724 O 544.941 -1.73735 0.558772 0
M  V30 5725 C 544.992 -0.0528579 3.61461 0
M  V30 5726 O 544.713 1.20809 4.21114 0
M  V30 5727 C 546.214 -0.586193 4.39407 0
M  V30 5728 H 543.434 0.065905 0.667756 0
M  V30 5729 H 545.978 0.827101 1.87028 0
M  V30 5730 H 544.133 -0.730203 3.80456 0
M  V30 5731 H 544.547 1.03368 5.14213 0
M  V30 5732 H 546.021 -0.642297 5.4825 0
M  V30 5733 H 546.498 -1.60713 4.0874 0
M  V30 5734 H 547.104 0.0568935 4.25262 0
M  V30 5735 N 545.419 -1.53889 0.339982 0
M  V30 5736 C 546.352 -2.21187 -0.561405 0
M  V30 5737 C 547.33 -1.19463 -1.10306 0
M  V30 5738 O 548.514 -1.48268 -1.164 0
M  V30 5739 C 545.641 -2.8865 -1.77198 0
M  V30 5740 C 544.687 -4.04232 -1.3601 0
M  V30 5741 S 545.52 -5.34129 -0.382909 0
M  V30 5742 C 546.676 -6.05094 -1.60039 0
M  V30 5743 H 546.909 -2.97298 0.0102092 0
M  V30 5744 H 544.442 -1.53901 0.124056 0
M  V30 5745 H 546.4 -3.28138 -2.4665 0
M  V30 5746 H 545.061 -2.12311 -2.3148 0
M  V30 5747 H 544.254 -4.50358 -2.2626 0
M  V30 5748 H 543.856 -3.66503 -0.745098 0
M  V30 5749 H 546.148 -6.2827 -2.53541 0
M  V30 5750 H 547.091 -6.98182 -1.18099 0
M  V30 5751 H 547.499 -5.35207 -1.79483 0
M  V30 5752 N 546.897 -0.0685191 -1.57451 0
M  V30 5753 C 548.145 0.60016 -1.92983 0
M  V30 5754 C 548.466 1.70348 -0.949028 0
M  V30 5755 O 547.736 1.959 0.00335647 0
M  V30 5756 H 546.316 0.224682 -0.712409 0
M  V30 5757 H 548.978 -0.125605 -1.94495 0
M  V30 5758 H 548.074 1.02759 -2.94698 0
M  V30 5759 N 548.375 1.56261 0.205012 0
M  V30 5760 C 549.791 1.49623 0.555433 0
M  V30 5761 C 549.991 0.766719 1.86343 0
M  V30 5762 O 549.047 0.313158 2.50551 0
M  V30 5763 C 550.36 2.94253 0.619347 0
M  V30 5764 C 551.908 3.04868 0.708855 0
M  V30 5765 C 552.383 4.50888 0.803969 0
M  V30 5766 N 553.874 4.54999 0.867758 0
M  V30 5767 C 554.609 5.65284 0.96135 0
M  V30 5768 N 554.105 6.85282 1.01786 0
M  V30 5769 N 555.898 5.53174 0.997771 0
M  V30 5770 H 548.049 2.0211 -0.653094 0
M  V30 5771 H 550.312 0.919333 -0.231366 0
M  V30 5772 H 550.018 3.50643 -0.272458 0
M  V30 5773 H 549.892 3.47063 1.47741 0
M  V30 5774 H 552.279 2.48532 1.5911 0
M  V30 5775 H 552.36 2.55199 -0.175205 0
M  V30 5776 H 552.004 5.07846 -0.0738798 0
M  V30 5777 H 551.934 4.98279 1.70369 0
M  V30 5778 H 554.425 3.68588 0.833735 0
M  V30 5779 H 554.738 7.65081 1.08951 0
M  V30 5780 H 553.083 6.8796 0.986706 0
M  V30 5781 H 556.274 4.5835 0.950392 0
M  V30 5782 H 556.447 6.39151 1.06725 0
M  V30 5783 N 549.853 -0.472356 1.50355 0
M  V30 5784 C 550.801 -1.59126 1.69651 0
M  V30 5785 C 551.795 -1.59793 0.56237 0
M  V30 5786 O 553.001 -1.63957 0.742832 0
M  V30 5787 H 549.376 -0.528008 0.535454 0
M  V30 5788 H 551.347 -1.40013 2.63513 0
M  V30 5789 C 550.096 -2.97075 1.8067 0
M  V30 5790 H 549.419 -2.9728 2.67329 0
M  V30 5791 H 550.859 -3.74825 1.98197 0
M  V30 5792 C 549.318 -3.32247 0.558016 0
M  V30 5793 O 549.848 -4.00553 -0.303399 0
M  V30 5794 N 548.054 -2.87659 0.412415 0
M  V30 5795 H 547.601 -2.32246 1.11443 0
M  V30 5796 H 547.559 -3.11556 -0.421908 0
M  V30 5797 N 551.331 -1.39911 -0.725443 0
M  V30 5798 C 552.571 -1.39096 -1.49772 0
M  V30 5799 C 552.935 0.0106452 -1.91997 0
M  V30 5800 O 554.136 0.143859 -2.68415 0
M  V30 5801 C 552.407 -2.34441 -2.69764 0
M  V30 5802 S 553.966 -2.51898 -3.59295 0
M  V30 5803 H 550.784 -0.49314 -0.512186 0
M  V30 5804 H 553.386 -1.76093 -0.849197 0
M  V30 5805 H 552.09 -3.35123 -2.36898 0
M  V30 5806 H 551.621 -1.98692 -3.39537 0
M  V30 5807 H 553.636 -1.76402 -4.63785 0
M  V30 5808 N 552.809 0.956637 -1.25245 0
M  V30 5809 C 553.719 2.0868 -1.0719 0
M  V30 5810 C 554.735 1.73997 -0.00959074 0
M  V30 5811 O 555.911 2.00301 -0.210104 0
M  V30 5812 C 552.976 3.39754 -0.690526 0
M  V30 5813 C 552.037 3.88316 -1.83055 0
M  V30 5814 C 551.27 5.13134 -1.46728 0
M  V30 5815 O 551.493 5.6925 -0.362029 0
M  V30 5816 O 550.427 5.56356 -2.29677 0
M  V30 5817 H 554.253 2.26813 -2.01965 0
M  V30 5818 H 551.838 1.07098 -1.04165 0
M  V30 5819 H 553.72 4.18543 -0.489871 0
M  V30 5820 H 552.395 3.22896 0.227981 0
M  V30 5821 H 551.302 3.1054 -2.08604 0
M  V30 5822 H 552.635 4.09669 -2.72822 0
M  V30 5823 N 554.287 1.06798 1.15896 0
M  V30 5824 C 555.219 0.641263 2.20046 0
M  V30 5825 C 556.232 -0.303355 1.59949 0
M  V30 5826 O 557.421 -0.0935478 1.78255 0
M  V30 5827 C 554.521 -0.0794029 3.38807 0
M  V30 5828 C 553.694 0.879986 4.28457 0
M  V30 5829 C 552.753 0.197638 5.25829 0
M  V30 5830 O 551.779 0.836913 5.63014 0
M  V30 5831 N 552.981 -1.05886 5.70761 0
M  V30 5832 H 555.746 1.53718 2.57276 0
M  V30 5833 H 553.307 0.951951 1.30956 0
M  V30 5834 H 555.299 -0.546418 4.00994 0
M  V30 5835 H 553.869 -0.877193 3.0004 0
M  V30 5836 H 553.089 1.52625 3.63454 0
M  V30 5837 H 554.377 1.53065 4.8523 0
M  V30 5838 H 553.775 -1.59828 5.42652 0
M  V30 5839 H 552.332 -1.46965 6.35015 0
M  V30 5840 N 555.766 -1.3263 0.851289 0
M  V30 5841 C 557.006 -1.99174 0.459266 0
M  V30 5842 C 557.37 -1.65913 -0.966273 0
M  V30 5843 O 558.571 -2.2552 -1.46267 0
M  V30 5844 C 556.842 -3.50721 0.687698 0
M  V30 5845 S 558.401 -4.37039 0.392746 0
M  V30 5846 H 555.219 -0.689832 0.172199 0
M  V30 5847 H 557.821 -1.61395 1.10327 0
M  V30 5848 H 556.525 -3.72417 1.72435 0
M  V30 5849 H 556.056 -3.93389 0.0299949 0
M  V30 5850 H 558.071 -4.8999 -0.782578 0
M  V30 5851 N 557.244 -0.608902 -1.45362 0
M  V30 5852 C 558.191 0.109172 -2.30542 0
M  V30 5853 C 559.161 0.858704 -1.42181 0
M  V30 5854 O 560.346 0.844178 -1.71109 0
M  V30 5855 C 557.486 1.09971 -3.27109 0
M  V30 5856 C 556.599 0.350911 -4.30572 0
M  V30 5857 C 555.734 1.33129 -5.14247 0
M  V30 5858 C 554.773 0.570377 -6.09437 0
M  V30 5859 N 553.91 1.5001 -6.85887 0
M  V30 5860 H 558.75 -0.623195 -2.91411 0
M  V30 5861 H 556.287 -0.319122 -1.43597 0
M  V30 5862 H 558.245 1.68714 -3.81564 0
M  V30 5863 H 556.875 1.79947 -2.67991 0
M  V30 5864 H 555.927 -0.352054 -3.78767 0
M  V30 5865 H 557.239 -0.242725 -4.98209 0
M  V30 5866 H 556.393 1.99074 -5.73109 0
M  V30 5867 H 555.132 1.95885 -4.46632 0
M  V30 5868 H 554.137 -0.102702 -5.49704 0
M  V30 5869 H 555.362 -0.0521607 -6.7908 0
M  V30 5870 H 553.308 2.11529 -6.2096 0
M  V30 5871 H 553.225 0.959934 -7.49881 0
M  V30 5872 H 554.493 2.14909 -7.49289 0
M  V30 5873 N 558.722 1.53707 -0.348139 0
M  V30 5874 C 560.133 1.86213 0.134797 0
M  V30 5875 C 560.484 1.26925 1.49614 0
M  V30 5876 O 559.609 0.584573 2.08355 0
M  V30 5877 C 560.204 3.37866 0.251371 0
M  V30 5878 C 558.763 3.70233 0.678543 0
M  V30 5879 C 557.91 2.76683 -0.184925 0
M  V30 5880 H 560.861 1.48204 -0.567571 0
M  V30 5881 H 560.882 3.64908 1.07806 0
M  V30 5882 H 560.394 3.80988 -0.739581 0
M  V30 5883 H 558.495 3.32659 1.67835 0
M  V30 5884 H 558.608 4.76836 0.465251 0
M  V30 5885 H 556.972 2.52374 0.343465 0
M  V30 5886 H 557.755 3.22635 -1.1731 0
M  V30 5887 N 560.2 0.0768682 1.57412 0
M  V30 5888 C 561.447 -0.591085 1.93681 0
M  V30 5889 C 561.775 -1.69311 0.957286 0
M  V30 5890 O 561.03 -1.95682 -0.0262428 0
M  V30 5891 C 561.329 -1.20268 3.36557 0
M  V30 5892 C 560.995 -0.226286 4.50332 0
M  V30 5893 C 559.657 0.0423142 4.81181 0
M  V30 5894 C 562.009 0.441415 5.19327 0
M  V30 5895 C 559.337 0.985616 5.78362 0
M  V30 5896 C 561.689 1.37307 6.17519 0
M  V30 5897 C 560.353 1.65009 6.46783 0
M  V30 5898 H 559.623 -0.216293 0.70873 0
M  V30 5899 H 562.27 0.148824 1.90921 0
M  V30 5900 H 560.575 -2.01844 3.35807 0
M  V30 5901 H 562.272 -1.72688 3.61911 0
M  V30 5902 H 558.862 -0.445821 4.26275 0
M  V30 5903 H 563.046 0.247023 4.95685 0
M  V30 5904 H 558.302 1.20743 5.99359 0
M  V30 5905 H 562.476 1.89637 6.70083 0
M  V30 5906 H 560.103 2.38263 7.21897 0
M  V30 5907 N 561.678 -1.56367 -0.196722 0
M  V30 5908 C 562.908 -1.84371 -0.932254 0
M  V30 5909 C 563.316 -0.657013 -1.77426 0
M  V30 5910 O 562.659 0.383576 -1.79651 0
M  V30 5911 C 562.721 -3.06454 -1.87952 0
M  V30 5912 C 562.385 -4.40425 -1.21962 0
M  V30 5913 C 563.382 -5.16457 -0.597343 0
M  V30 5914 C 561.067 -4.8716 -1.22396 0
M  V30 5915 C 563.061 -6.37399 0.0117913 0
M  V30 5916 C 560.748 -6.08038 -0.610995 0
M  V30 5917 C 561.746 -6.83 0.00580487 0
M  V30 5918 O 561.434 -8.01589 0.609173 0
M  V30 5919 H 561.166 -0.616377 -0.277589 0
M  V30 5920 H 563.72 -2.04329 -0.209452 0
M  V30 5921 H 561.95 -2.82377 -2.64197 0
M  V30 5922 H 563.639 -3.21118 -2.48271 0
M  V30 5923 H 564.405 -4.81445 -0.586142 0
M  V30 5924 H 560.284 -4.2877 -1.69345 0
M  V30 5925 H 563.828 -6.9585 0.493836 0
M  V30 5926 H 559.725 -6.42519 -0.619693 0
M  V30 5927 H 560.493 -8.16935 0.505919 0
M  V30 5928 N 563.156 0.464375 -1.50603 0
M  V30 5929 C 564.386 1.23727 -1.65454 0
M  V30 5930 C 564.794 1.86119 -0.340032 0
M  V30 5931 O 564.137 1.70301 0.688706 0
M  V30 5932 C 564.199 2.38153 -2.69301 0
M  V30 5933 C 563.863 1.96345 -4.12671 0
M  V30 5934 C 564.86 1.48215 -4.98326 0
M  V30 5935 C 562.545 2.04861 -4.58625 0
M  V30 5936 C 564.539 1.09152 -6.27985 0
M  V30 5937 C 562.226 1.65409 -5.88288 0
M  V30 5938 C 563.224 1.17634 -6.72794 0
M  V30 5939 O 562.912 0.787312 -8.00035 0
M  V30 5940 H 562.644 0.380075 -0.559034 0
M  V30 5941 H 565.198 0.559919 -1.97621 0
M  V30 5942 H 563.428 3.09081 -2.32392 0
M  V30 5943 H 565.117 3.00099 -2.73304 0
M  V30 5944 H 565.883 1.41052 -4.64036 0
M  V30 5945 H 561.762 2.40996 -3.92991 0
M  V30 5946 H 565.306 0.717909 -6.93896 0
M  V30 5947 H 561.203 1.72233 -6.22098 0
M  V30 5948 H 561.971 0.915567 -8.13363 0
M  V30 5949 N 564.634 1.40294 0.718013 0
M  V30 5950 C 565.566 1.36281 1.84283 0
M  V30 5951 C 566.579 0.268621 1.60569 0
M  V30 5952 O 567.768 0.528798 1.70487 0
M  V30 5953 C 564.868 1.09741 3.2064 0
M  V30 5954 C 564.041 2.30767 3.71571 0
M  V30 5955 C 563.1 2.00424 4.86535 0
M  V30 5956 O 562.126 2.73268 4.99313 0
M  V30 5957 N 563.328 0.980724 5.72156 0
M  V30 5958 H 566.093 2.3322 1.88225 0
M  V30 5959 H 563.654 1.34616 0.899453 0
M  V30 5960 H 565.646 0.874322 3.95143 0
M  V30 5961 H 564.216 0.214771 3.11861 0
M  V30 5962 H 563.436 2.68921 2.88228 0
M  V30 5963 H 564.724 3.11455 4.02335 0
M  V30 5964 H 564.122 0.377375 5.6444 0
M  V30 5965 H 562.679 0.817538 6.46653 0
M  V30 5966 N 566.112 -0.949982 1.2575 0
M  V30 5967 C 567.062 -2.03297 1.03221 0
M  V30 5968 C 568.046 -1.60867 -0.0324751 0
M  V30 5969 O 569.238 -1.76047 0.183423 0
M  V30 5970 C 566.367 -3.36938 0.657841 0
M  V30 5971 C 565.453 -3.85878 1.75952 0
M  V30 5972 N 565.844 -4.0756 2.99547 0
M  V30 5973 C 564.142 -4.14709 1.64111 0
M  V30 5974 C 564.843 -4.47961 3.71087 0
M  V30 5975 N 563.819 -4.5416 2.98731 0
M  V30 5976 H 567.621 -2.1806 1.97045 0
M  V30 5977 H 565.135 -1.13516 1.16138 0
M  V30 5978 H 567.132 -4.14155 0.477614 0
M  V30 5979 H 565.792 -3.2355 -0.273025 0
M  V30 5980 H 566.803 -3.94501 3.35544 0
M  V30 5981 H 563.48 -4.10158 0.779527 0
M  V30 5982 H 564.87 -4.73002 4.77199 0
M  V30 5983 N 567.59 -1.07411 -1.15328 0
M  V30 5984 C 569.001 -0.820261 -1.67716 0
M  V30 5985 C 569.352 0.654539 -1.8496 0
M  V30 5986 O 568.477 1.50664 -1.55337 0
M  V30 5987 C 569.072 -1.48242 -3.04647 0
M  V30 5988 C 567.631 -1.27606 -3.5411 0
M  V30 5989 C 566.778 -1.5517 -2.29821 0
M  V30 5990 H 569.729 -1.23608 -0.995332 0
M  V30 5991 H 569.75 -0.903984 -3.69606 0
M  V30 5992 H 569.262 -2.55578 -2.92064 0
M  V30 5993 H 567.363 -0.222948 -3.71932 0
M  V30 5994 H 567.476 -1.99667 -4.35511 0
M  V30 5995 H 565.84 -0.972747 -2.35393 0
M  V30 5996 H 566.623 -2.63689 -2.19824 0
M  V30 5997 N 569.068 1.32177 -0.85831 0
M  V30 5998 C 569.978 2.32561 -0.308606 0
M  V30 5999 C 570.994 1.64209 0.575462 0
M  V30 6000 O 572.17 1.95719 0.474961 0
M  V30 6001 C 569.235 3.43207 0.490909 0
M  V30 6002 C 568.296 4.27243 -0.419733 0
M  V30 6003 C 567.529 5.32605 0.341719 0
M  V30 6004 O 567.752 5.48332 1.57125 0
M  V30 6005 O 566.686 6.0118 -0.294379 0
M  V30 6006 H 570.512 2.81477 -1.14037 0
M  V30 6007 H 568.097 1.35866 -0.621349 0
M  V30 6008 H 569.979 4.10677 0.944574 0
M  V30 6009 H 568.654 2.96474 1.29941 0
M  V30 6010 H 567.561 3.62569 -0.921652 0
M  V30 6011 H 568.894 4.7751 -1.19352 0
M  V30 6012 N 570.547 0.616602 1.45037 0
M  V30 6013 C 571.963 0.280994 1.57107 0
M  V30 6014 C 572.163 -1.21627 1.60653 0
M  V30 6015 O 571.219 -1.9997 1.54169 0
M  V30 6016 C 572.532 0.960116 2.8496 0
M  V30 6017 C 574.08 0.936884 2.98649 0
M  V30 6018 C 574.555 1.59619 4.29285 0
M  V30 6019 N 576.046 1.5621 4.36065 0
M  V30 6020 C 576.781 2.04131 5.35834 0
M  V30 6021 N 576.277 2.60177 6.4209 0
M  V30 6022 N 578.07 1.94845 5.27249 0
M  V30 6023 H 570.221 1.58867 1.40979 0
M  V30 6024 H 572.484 0.666024 0.674623 0
M  V30 6025 H 572.19 2.01473 2.88273 0
M  V30 6026 H 572.064 0.488921 3.74018 0
M  V30 6027 H 574.451 -0.109209 2.94898 0
M  V30 6028 H 574.532 1.44643 2.10979 0
M  V30 6029 H 574.176 2.64166 4.33796 0
M  V30 6030 H 574.106 1.06159 5.15789 0
M  V30 6031 H 576.597 1.15276 3.59889 0
M  V30 6032 H 576.91 2.94513 7.1448 0
M  V30 6033 H 575.255 2.64221 6.42816 0
M  V30 6034 H 578.446 1.50792 4.43147 0
M  V30 6035 H 578.619 2.32504 6.04852 0
M  V30 6036 N 572.025 -1.5352 0.356285 0
M  V30 6037 C 573.302 -1.93405 -0.292223 0
M  V30 6038 C 573.682 -1.28901 -1.67176 0
M  V30 6039 O 573.03 -0.444632 -2.24132 0
M  V30 6040 C 573.24 -3.47223 -0.35175 0
M  V30 6041 C 574.588 -4.20389 -0.596534 0
M  V30 6042 O 575.612 -3.53554 -0.433344 0
M  V30 6043 O 574.471 -5.3881 -0.913589 0
M  V30 6044 H 571.565 -0.808666 -0.173172 0
M  V30 6045 H 574.111 -1.64713 0.408391 0
M  V30 6046 H 572.883 -3.86423 0.615841 0
M  V30 6047 H 572.506 -3.8212 -1.09864 0
M  V30 6048 N 573.503 -0.0852151 -1.57369 0
M  V30 6049 C 574.752 0.580443 -1.93168 0
M  V30 6050 C 575.065 1.6995 -0.968319 0
M  V30 6051 O 576.271 2.42564 -1.21963 0
M  V30 6052 C 574.727 1.08386 -3.43192 0
M  V30 6053 C 574.335 -0.00491388 -4.48 0
M  V30 6054 C 576.079 1.72281 -3.87968 0
M  V30 6055 C 573.986 0.513299 -5.89168 0
M  V30 6056 H 572.916 0.22059 -0.72101 0
M  V30 6057 H 575.567 -0.159621 -1.82804 0
M  V30 6058 H 573.949 1.8773 -3.48674 0
M  V30 6059 H 575.123 -0.780032 -4.5415 0
M  V30 6060 H 573.438 -0.548453 -4.12772 0
M  V30 6061 H 576.035 2.12108 -4.9083 0
M  V30 6062 H 576.378 2.58811 -3.26071 0
M  V30 6063 H 576.911 0.995359 -3.85146 0
M  V30 6064 H 573.65 -0.315153 -6.54742 0
M  V30 6065 H 573.17 1.25564 -5.8651 0
M  V30 6066 H 574.849 0.985433 -6.39451 0
M  V30 6067 N 574.981 1.5647 0.188427 0
M  V30 6068 C 576.397 1.50204 0.539532 0
M  V30 6069 C 576.597 0.78644 1.85519 0
M  V30 6070 O 575.653 0.339714 2.50204 0
M  V30 6071 C 576.966 2.94893 0.588103 0
M  V30 6072 C 578.514 3.05602 0.67648 0
M  V30 6073 C 578.989 4.51716 0.756101 0
M  V30 6074 N 580.48 4.55894 0.819451 0
M  V30 6075 C 581.215 5.66272 0.90134 0
M  V30 6076 N 580.711 6.86323 0.945118 0
M  V30 6077 N 582.504 5.54201 0.939043 0
M  V30 6078 H 574.655 2.01406 -0.674493 0
M  V30 6079 H 576.918 0.916828 -0.241103 0
M  V30 6080 H 576.624 3.50334 -0.309633 0
M  V30 6081 H 576.498 3.4861 1.44051 0
M  V30 6082 H 578.885 2.50206 1.56465 0
M  V30 6083 H 578.966 2.54999 -0.202262 0
M  V30 6084 H 578.61 5.07739 -0.12774 0
M  V30 6085 H 578.54 5.00058 1.65074 0
M  V30 6086 H 581.031 3.69452 0.794594 0
M  V30 6087 H 581.344 7.66194 1.0083 0
M  V30 6088 H 579.689 6.88968 0.913683 0
M  V30 6089 H 582.88 4.59333 0.901725 0
M  V30 6090 H 583.053 6.40247 0.999402 0
M  V30 6091 N 576.459 -0.456382 1.50847 0
M  V30 6092 C 577.736 -1.21739 1.53098 0
M  V30 6093 C 578.116 -2.09179 0.284132 0
M  V30 6094 O 577.464 -2.16466 -0.731773 0
M  V30 6095 C 577.674 -2.03573 2.83477 0
M  V30 6096 C 579.022 -2.61264 3.34703 0
M  V30 6097 O 580.046 -2.13802 2.84898 0
M  V30 6098 O 578.905 -3.47779 4.21559 0
M  V30 6099 H 575.999 -0.553219 0.614718 0
M  V30 6100 H 578.545 -0.467003 1.63148 0
M  V30 6101 H 577.317 -1.39232 3.65691 0
M  V30 6102 H 576.94 -2.85716 2.76499 0
M  V30 6103 N 577.937 -1.40673 -0.710563 0
M  V30 6104 C 579.348 -1.34975 -1.28991 0
M  V30 6105 C 579.699 -0.0256272 -1.96183 0
M  V30 6106 O 578.824 0.876339 -1.97862 0
M  V30 6107 C 579.419 -2.44467 -2.34567 0
M  V30 6108 C 577.978 -2.42213 -2.88114 0
M  V30 6109 C 577.125 -2.25085 -1.61963 0
M  V30 6110 H 580.076 -1.50406 -0.506343 0
M  V30 6111 H 580.097 -2.12663 -3.15523 0
M  V30 6112 H 579.609 -3.40825 -1.85634 0
M  V30 6113 H 577.71 -1.49568 -3.41263 0
M  V30 6114 H 577.823 -3.37983 -3.39565 0
M  V30 6115 H 576.187 -1.72691 -1.87216 0
M  V30 6116 H 576.97 -3.23449 -1.15047 0
M  V30 6117 N 579.415 0.9433 -1.26252 0
M  V30 6118 C 580.363 2.06302 -1.07434 0
M  V30 6119 C 581.357 1.694 -0.00189471 0
M  V30 6120 O 582.563 1.79302 -0.158408 0
M  V30 6121 H 578.938 0.675453 -0.330556 0
M  V30 6122 H 580.909 2.19326 -2.02333 0
M  V30 6123 C 579.658 3.40125 -0.721817 0
M  V30 6124 H 578.981 3.68996 -1.5389 0
M  V30 6125 H 580.421 4.19295 -0.629922 0
M  V30 6126 C 578.88 3.31993 0.572902 0
M  V30 6127 O 579.41 3.67945 1.61182 0
M  V30 6128 N 577.616 2.85099 0.562748 0
M  V30 6129 H 577.163 2.5604 -0.283092 0
M  V30 6130 H 577.121 2.80041 1.42915 0
M  V30 6131 N 580.893 1.08022 1.14757 0
M  V30 6132 C 582.14 0.807509 1.85703 0
M  V30 6133 C 582.468 -0.666617 1.8272 0
M  V30 6134 O 581.723 -1.50562 1.25018 0
M  V30 6135 C 582.022 1.26964 3.34088 0
M  V30 6136 C 581.688 2.7509 3.57262 0
M  V30 6137 C 580.35 3.15547 3.63296 0
M  V30 6138 C 582.702 3.70667 3.66409 0
M  V30 6139 C 580.03 4.50384 3.75994 0
M  V30 6140 C 582.382 5.05274 3.80632 0
M  V30 6141 C 581.046 5.45342 3.84913 0
M  V30 6142 H 580.316 0.295488 0.679535 0
M  V30 6143 H 582.963 1.35245 1.35577 0
M  V30 6144 H 581.268 0.644216 3.86467 0
M  V30 6145 H 582.965 1.03544 3.87401 0
M  V30 6146 H 579.555 2.42775 3.53212 0
M  V30 6147 H 583.739 3.40533 3.61041 0
M  V30 6148 H 578.995 4.80886 3.77569 0
M  V30 6149 H 583.169 5.79201 3.86652 0
M  V30 6150 H 580.796 6.49823 3.94505 0
M  V30 6151 N 582.371 -1.3172 0.865308 0
M  V30 6152 C 583.611 -1.98675 0.480365 0
M  V30 6153 C 583.975 -1.66929 -0.948621 0
M  V30 6154 O 585.176 -2.27059 -1.43867 0
M  V30 6155 C 583.447 -3.49972 0.724858 0
M  V30 6156 S 585.006 -4.36598 0.439078 0
M  V30 6157 H 581.824 -0.687967 0.179506 0
M  V30 6158 H 584.426 -1.60215 1.12033 0
M  V30 6159 H 583.13 -3.70567 1.76375 0
M  V30 6160 H 582.661 -3.93335 0.0717173 0
M  V30 6161 H 584.676 -4.90792 -0.730564 0
M  V30 6162 N 583.85 -0.624285 -1.44708 0
M  V30 6163 C 584.76 0.0861083 -2.34442 0
M  V30 6164 C 585.776 0.84291 -1.5222 0
M  V30 6165 O 586.952 0.796723 -1.84971 0
M  V30 6166 C 584.017 1.05999 -3.30099 0
M  V30 6167 C 583.077 0.303316 -4.28227 0
M  V30 6168 C 582.311 1.23081 -5.19314 0
M  V30 6169 O 582.534 2.46929 -5.14181 0
M  V30 6170 O 581.468 0.71883 -5.97592 0
M  V30 6171 H 585.293 -0.651756 -2.96624 0
M  V30 6172 H 582.879 -0.384493 -1.44368 0
M  V30 6173 H 584.76 1.62046 -3.88997 0
M  V30 6174 H 583.436 1.77859 -2.70459 0
M  V30 6175 H 582.343 -0.300033 -3.72895 0
M  V30 6176 H 583.676 -0.375123 -4.90768 0
M  V30 6177 N 585.328 1.53329 -0.364422 0
M  V30 6178 C 586.744 1.59594 -0.0133165 0
M  V30 6179 C 586.944 1.37959 1.46865 0
M  V30 6180 O 586 1.18418 2.2301 0
M  V30 6181 C 587.313 2.97032 -0.468213 0
M  V30 6182 C 588.861 3.10138 -0.422334 0
M  V30 6183 C 589.336 4.49986 -0.853024 0
M  V30 6184 N 590.827 4.56098 -0.808037 0
M  V30 6185 C 591.562 5.62495 -1.11299 0
M  V30 6186 N 591.058 6.7665 -1.48717 0
M  V30 6187 N 592.851 5.52473 -1.03586 0
M  V30 6188 H 585.002 1.65644 -1.32951 0
M  V30 6189 H 587.265 0.77684 -0.543345 0
M  V30 6190 H 586.971 3.18 -1.5023 0
M  V30 6191 H 586.845 3.76918 0.145775 0
M  V30 6192 H 589.232 2.88881 0.602622 0
M  V30 6193 H 589.313 2.32263 -1.0718 0
M  V30 6194 H 588.957 4.7198 -1.87609 0
M  V30 6195 H 588.887 5.26289 -0.180819 0
M  V30 6196 H 591.378 3.74131 -0.532361 0
M  V30 6197 H 591.691 7.53776 -1.70415 0
M  V30 6198 H 590.036 6.78044 -1.52581 0
M  V30 6199 H 593.227 4.6217 -0.742736 0
M  V30 6200 H 593.4 6.35295 -1.27686 0
M  V30 6201 N 586.806 0.0935595 1.57322 0
M  V30 6202 C 588.046 -0.573901 1.96178 0
M  V30 6203 C 588.41 -1.65445 0.97426 0
M  V30 6204 O 589.611 -2.37901 1.25126 0
M  V30 6205 C 587.882 -1.11612 3.39526 0
M  V30 6206 S 589.441 -1.79566 4.00377 0
M  V30 6207 H 586.259 -0.187315 0.685882 0
M  V30 6208 H 588.861 0.172597 1.94737 0
M  V30 6209 H 587.565 -0.31815 4.09165 0
M  V30 6210 H 587.096 -1.89848 3.4456 0
M  V30 6211 H 589.111 -3.07978 3.89056 0
M  V30 6212 N 588.284 -1.56567 -0.180126 0
M  V30 6213 C 589.512 -1.85618 -0.913972 0
M  V30 6214 C 589.927 -0.677892 -1.7621 0
M  V30 6215 O 589.284 0.353171 -1.7905 0
M  V30 6216 C 589.335 -3.13619 -1.79793 0
M  V30 6217 O 589.056 -4.26906 -0.98402 0
M  V30 6218 C 590.557 -3.55954 -2.64219 0
M  V30 6219 H 587.777 -0.616043 -0.265954 0
M  V30 6220 H 590.321 -2.03681 -0.182872 0
M  V30 6221 H 588.476 -2.97409 -2.48247 0
M  V30 6222 H 588.89 -4.9989 -1.58776 0
M  V30 6223 H 590.364 -4.48444 -3.21873 0
M  V30 6224 H 590.841 -2.79653 -3.38661 0
M  V30 6225 H 591.447 -3.74746 -2.01111 0
M  V30 6226 N 589.762 0.448376 -1.51087 0
M  V30 6227 C 591.002 1.20832 -1.64861 0
M  V30 6228 C 591.366 1.88748 -0.351873 0
M  V30 6229 O 592.567 2.66307 -0.365265 0
M  V30 6230 C 590.838 2.20674 -2.81137 0
M  V30 6231 S 592.397 3.05303 -3.15176 0
M  V30 6232 H 589.215 0.40992 -0.580936 0
M  V30 6233 H 591.817 0.501624 -1.88955 0
M  V30 6234 H 590.521 1.69399 -3.73808 0
M  V30 6235 H 590.052 2.9594 -2.59198 0
M  V30 6236 H 592.067 4.22162 -2.60756 0
M  V30 6237 N 591.24 1.41047 0.703093 0
M  V30 6238 C 592.517 1.30493 1.45708 0
M  V30 6239 C 592.897 -0.0709892 2.10981 0
M  V30 6240 O 592.245 -1.08471 2.01113 0
M  V30 6241 C 592.455 2.45287 2.48265 0
M  V30 6242 C 593.803 2.86104 3.13735 0
M  V30 6243 O 594.827 2.44971 2.58587 0
M  V30 6244 O 593.686 3.57206 4.13601 0
M  V30 6245 H 590.78 0.513144 0.648546 0
M  V30 6246 H 593.326 1.52995 0.734208 0
M  V30 6247 H 592.098 3.37135 1.98635 0
M  V30 6248 H 591.721 2.24622 3.28071 0
M  V30 6249 N 592.718 -0.936591 1.26751 0
M  V30 6250 C 594.129 -1.49816 1.1141 0
M  V30 6251 C 594.48 -1.9383 -0.304015 0
M  V30 6252 O 593.605 -1.80346 -1.196 0
M  V30 6253 C 594.2 -2.72271 2.01629 0
M  V30 6254 C 592.759 -3.2468 1.9042 0
M  V30 6255 C 591.906 -1.97444 1.94708 0
M  V30 6256 H 594.857 -0.751604 1.39773 0
M  V30 6257 H 594.878 -3.46741 1.56688 0
M  V30 6258 H 594.39 -2.40205 3.04833 0
M  V30 6259 H 592.491 -3.61525 0.901674 0
M  V30 6260 H 592.604 -3.91476 2.76195 0
M  V30 6261 H 590.968 -2.13545 1.38818 0
M  V30 6262 H 591.751 -1.67703 2.9955 0
M  V30 6263 N 594.196 -1.08629 -1.14182 0
M  V30 6264 C 595.159 -0.722027 -2.1753 0
M  V30 6265 C 596.159 0.244305 -1.58933 0
M  V30 6266 O 597.349 0.0235545 -1.74184 0
M  V30 6267 C 594.481 -0.0663966 -3.40835 0
M  V30 6268 H 595.674 -1.63719 -2.51269 0
M  V30 6269 H 593.227 -0.884442 -1.28869 0
M  V30 6270 H 593.962 0.860389 -3.12678 0
M  V30 6271 H 593.747 -0.761598 -3.84632 0
M  V30 6272 H 595.237 0.173346 -4.1724 0
M  V30 6273 N 595.674 1.31259 -0.872281 0
M  V30 6274 C 596.922 1.96233 -0.483409 0
M  V30 6275 C 597.243 1.69276 0.968012 0
M  V30 6276 O 596.513 1.00943 1.67891 0
M  V30 6277 H 595.093 0.726025 -0.175774 0
M  V30 6278 H 597.755 1.60024 -1.11258 0
M  V30 6279 H 596.851 3.05403 -0.643075 0
M  V30 6280 N 597.152 0.631951 1.44375 0
M  V30 6281 C 598.377 0.142146 2.06912 0
M  V30 6282 C 598.802 -1.17456 1.4692 0
M  V30 6283 O 598.16 -1.72074 0.570975 0
M  V30 6284 C 598.208 0.0417952 3.60576 0
M  V30 6285 O 597.312 -1.00194 4.00044 0
M  V30 6286 H 596.653 0.0851491 0.658518 0
M  V30 6287 H 599.183 0.868863 1.85235 0
M  V30 6288 H 599.193 -0.148517 4.0773 0
M  V30 6289 H 597.868 1.0031 4.03622 0
M  V30 6290 H 596.445 -0.786131 3.64519 0
M  V30 6291 N 598.631 -1.53133 0.372548 0
M  V30 6292 C 599.563 -2.23557 -0.505444 0
M  V30 6293 C 600.576 -1.25211 -1.04049 0
M  V30 6294 O 601.765 -1.51391 -0.945675 0
M  V30 6295 C 598.865 -2.92516 -1.71136 0
M  V30 6296 C 598.038 -4.17428 -1.30661 0
M  V30 6297 C 597.097 -4.69535 -2.37536 0
M  V30 6298 O 596.123 -5.33042 -1.99637 0
M  V30 6299 N 597.325 -4.47947 -3.6922 0
M  V30 6300 H 600.09 -2.9954 0.0978259 0
M  V30 6301 H 597.651 -1.60684 0.198068 0
M  V30 6302 H 599.643 -3.24281 -2.42124 0
M  V30 6303 H 598.213 -2.19944 -2.22134 0
M  V30 6304 H 597.433 -3.91888 -0.426292 0
M  V30 6305 H 598.721 -4.98622 -1.01259 0
M  V30 6306 H 598.119 -3.97219 -4.02783 0
M  V30 6307 H 596.676 -4.84245 -4.36292 0
M  V30 6308 N 600.109 -0.101901 -1.5727 0
M  V30 6309 C 601.057 0.872034 -2.15635 0
M  V30 6310 C 602.051 1.28742 -1.10099 0
M  V30 6311 O 603.257 1.26116 -1.28432 0
M  V30 6312 H 599.632 0.299269 -0.689886 0
M  V30 6313 H 601.603 0.355137 -2.96279 0
M  V30 6314 C 600.352 2.11886 -2.7568 0
M  V30 6315 H 599.675 1.80813 -3.56576 0
M  V30 6316 H 601.115 2.78077 -3.20077 0
M  V30 6317 C 599.574 2.89739 -1.7191 0
M  V30 6318 O 600.104 3.84522 -1.16213 0
M  V30 6319 N 598.31 2.53407 -1.42245 0
M  V30 6320 H 597.857 1.76398 -1.87727 0
M  V30 6321 H 597.815 3.05795 -0.730529 0
M  V30 6322 N 601.587 1.56661 0.17182 0
M  V30 6323 C 602.497 1.99604 1.2327 0
M  V30 6324 C 603.513 0.907333 1.4847 0
M  V30 6325 O 604.689 1.21492 1.60629 0
M  V30 6326 C 601.754 2.34685 2.55194 0
M  V30 6327 C 600.815 3.57381 2.3786 0
M  V30 6328 C 600.048 3.90779 3.63494 0
M  V30 6329 O 600.271 3.25152 4.6865 0
M  V30 6330 O 599.205 4.84129 3.57634 0
M  V30 6331 H 603.031 2.90114 0.898192 0
M  V30 6332 H 600.616 1.44522 0.378647 0
M  V30 6333 H 602.498 2.5822 3.33017 0
M  V30 6334 H 601.173 1.47336 2.88225 0
M  V30 6335 H 600.08 3.39064 1.5807 0
M  V30 6336 H 601.413 4.45268 2.09754 0
M  V30 6337 N 603.065 -0.440357 1.51323 0
M  V30 6338 C 604.313 -1.18769 1.63518 0
M  V30 6339 C 604.634 -1.91793 0.352201 0
M  V30 6340 O 603.904 -1.85432 -0.631811 0
M  V30 6341 H 602.484 -0.441408 0.602634 0
M  V30 6342 H 605.146 -0.505162 1.8824 0
M  V30 6343 H 604.242 -1.91892 2.46138 0
M  V30 6344 N 604.543 -1.41418 -0.695603 0
M  V30 6345 C 605.792 -1.40073 -1.4513 0
M  V30 6346 C 606.105 -0.0130439 -1.95596 0
M  V30 6347 O 607.311 0.123032 -2.71221 0
M  V30 6348 C 605.767 -2.46286 -2.62433 0
M  V30 6349 C 605.375 -3.90962 -2.18753 0
M  V30 6350 C 607.119 -2.54077 -3.40066 0
M  V30 6351 C 605.026 -4.88728 -3.33015 0
M  V30 6352 H 603.956 -0.520903 -0.545138 0
M  V30 6353 H 606.607 -1.67242 -0.75515 0
M  V30 6354 H 604.989 -2.12248 -3.34315 0
M  V30 6355 H 606.163 -4.34248 -1.54161 0
M  V30 6356 H 604.478 -3.86831 -1.54114 0
M  V30 6357 H 607.075 -3.24303 -4.25125 0
M  V30 6358 H 607.418 -1.5776 -3.8525 0
M  V30 6359 H 607.951 -2.87206 -2.75241 0
M  V30 6360 H 604.69 -5.86449 -2.92844 0
M  V30 6361 H 604.21 -4.50091 -3.96457 0
M  V30 6362 H 605.889 -5.09483 -3.98793 0
M  V30 6363 N 606.021 0.929856 -1.27246 0
M  V30 6364 C 607.261 1.6919 -1.14691 0
M  V30 6365 C 607.625 1.896 0.302621 0
M  V30 6366 O 608.826 2.63102 0.550543 0
M  V30 6367 C 607.097 3.02291 -1.9067 0
M  V30 6368 S 608.656 3.93436 -1.94303 0
M  V30 6369 H 605.474 0.581248 -0.409477 0
M  V30 6370 H 608.076 1.10722 -1.61124 0
M  V30 6371 H 606.78 2.85125 -2.95181 0
M  V30 6372 H 606.311 3.65813 -1.44723 0
M  V30 6373 H 608.326 4.85224 -1.0379 0
M  V30 6374 N 607.499 1.09233 1.13605 0
M  V30 6375 C 608.776 0.739633 1.81077 0
M  V30 6376 C 609.156 -0.775595 1.96336 0
M  V30 6377 O 608.504 -1.69726 1.52988 0
M  V30 6378 C 608.714 1.47636 3.16235 0
M  V30 6379 C 610.062 1.64087 3.91613 0
M  V30 6380 O 611.086 1.43871 3.25852 0
M  V30 6381 O 609.945 1.97511 5.0956 0
M  V30 6382 H 607.039 0.265464 0.783236 0
M  V30 6383 H 609.585 1.19441 1.20549 0
M  V30 6384 H 608.357 2.50818 3.00344 0
M  V30 6385 H 607.98 1.01362 3.84462 0
M  V30 6386 N 608.977 -1.30795 0.87923 0
M  V30 6387 C 610.202 -2.01063 0.508769 0
M  V30 6388 C 610.627 -1.65508 -0.893803 0
M  V30 6389 O 609.985 -0.868616 -1.59138 0
M  V30 6390 C 610.033 -3.54054 0.683991 0
M  V30 6391 O 609.137 -4.11498 -0.272654 0
M  V30 6392 H 608.478 -0.632786 0.201191 0
M  V30 6393 H 611.008 -1.66776 1.18519 0
M  V30 6394 H 611.018 -4.03845 0.580798 0
M  V30 6395 H 609.693 -3.79271 1.70665 0
M  V30 6396 H 608.27 -3.72695 -0.12364 0
M  V30 6397 N 610.455 -0.639598 -1.44038 0
M  V30 6398 C 611.685 -0.154586 -2.06021 0
M  V30 6399 C 612.093 1.17951 -1.47933 0
M  V30 6400 O 611.436 1.73627 -0.59994 0
M  V30 6401 C 611.498 0.0255459 -3.59491 0
M  V30 6402 C 611.162 -1.2317 -4.40089 0
M  V30 6403 C 612.159 -2.15735 -4.73027 0
M  V30 6404 C 609.844 -1.46949 -4.80324 0
M  V30 6405 C 611.838 -3.30382 -5.45093 0
M  V30 6406 C 609.525 -2.61891 -5.52138 0
M  V30 6407 C 610.523 -3.53433 -5.84443 0
M  V30 6408 O 610.211 -4.6637 -6.54793 0
M  V30 6409 H 609.943 -0.0808543 -0.671147 0
M  V30 6410 H 612.497 -0.876541 -1.85758 0
M  V30 6411 H 610.727 0.802733 -3.78276 0
M  V30 6412 H 612.416 0.466184 -4.03214 0
M  V30 6413 H 613.182 -1.98602 -4.42473 0
M  V30 6414 H 609.061 -0.765815 -4.54595 0
M  V30 6415 H 612.605 -4.01856 -5.70226 0
M  V30 6416 H 608.502 -2.78964 -5.82108 0
M  V30 6417 H 609.27 -4.6546 -6.73267 0
M  V30 6418 N 611.933 1.52934 -0.380664 0
M  V30 6419 C 613.161 2.05886 0.204599 0
M  V30 6420 C 613.576 1.25305 1.41223 0
M  V30 6421 O 612.933 0.297504 1.80059 0
M  V30 6422 C 612.984 3.56764 0.583249 0
M  V30 6423 O 612.705 4.34292 -0.576398 0
M  V30 6424 C 614.206 4.2603 1.2253 0
M  V30 6425 H 611.426 0.670193 0.0328991 0
M  V30 6426 H 613.97 1.97148 -0.543397 0
M  V30 6427 H 612.125 3.65603 1.28115 0
M  V30 6428 H 612.539 5.23819 -0.267119 0
M  V30 6429 H 614.013 5.32868 1.44068 0
M  V30 6430 H 614.49 3.80698 2.19011 0
M  V30 6431 H 615.096 4.21485 0.568407 0
M  V30 6432 N 613.412 0.11024 1.57214 0
M  V30 6433 C 614.689 -0.592956 1.86396 0
M  V30 6434 C 615.069 -1.85379 1.00985 0
M  V30 6435 O 614.417 -2.28337 0.0863592 0
M  V30 6436 C 614.627 -0.893816 3.3736 0
M  V30 6437 C 615.975 -1.25069 4.05762 0
M  V30 6438 O 616.999 -0.984356 3.42329 0
M  V30 6439 O 615.858 -1.75017 5.17718 0
M  V30 6440 H 612.952 -0.29828 0.771335 0
M  V30 6441 H 615.498 0.144083 1.69087 0
M  V30 6442 H 614.27 2.6031e-05 3.913 0
M  V30 6443 H 613.893 -1.68631 3.60068 0
M  V30 6444 N 614.89 -1.56749 -0.16351 0
M  V30 6445 C 616.137 -1.82434 -0.878866 0
M  V30 6446 C 616.465 -0.688557 -1.81904 0
M  V30 6447 O 615.72 0.323644 -1.93005 0
M  V30 6448 C 616.019 -3.14342 -1.70071 0
M  V30 6449 C 615.685 -4.41647 -0.908775 0
M  V30 6450 C 614.347 -4.76224 -0.690236 0
M  V30 6451 C 616.699 -5.19998 -0.353815 0
M  V30 6452 C 614.027 -5.86624 0.0942374 0
M  V30 6453 C 616.379 -6.3122 0.41761 0
M  V30 6454 C 615.043 -6.64358 0.646879 0
M  V30 6455 H 614.313 -0.667574 -0.3216 0
M  V30 6456 H 616.96 -1.90963 -0.14337 0
M  V30 6457 H 615.265 -3.0119 -2.50583 0
M  V30 6458 H 616.962 -3.31426 -2.25738 0
M  V30 6459 H 613.552 -4.1453 -1.08916 0
M  V30 6460 H 617.736 -4.93673 -0.509975 0
M  V30 6461 H 612.992 -6.10751 0.281529 0
M  V30 6462 H 617.166 -6.91133 0.854849 0
M  V30 6463 H 614.793 -7.49742 1.25662 0
M  V30 6464 N 616.368 0.432326 -1.51554 0
M  V30 6465 C 617.593 1.20824 -1.68571 0
M  V30 6466 C 618.018 1.84126 -0.384596 0
M  V30 6467 O 617.376 1.69025 0.655751 0
M  V30 6468 C 617.424 2.26429 -2.80646 0
M  V30 6469 O 616.528 3.32032 -2.44598 0
M  V30 6470 H 615.869 0.353765 -0.561913 0
M  V30 6471 H 618.399 0.509916 -1.98144 0
M  V30 6472 H 618.409 2.71133 -3.04878 0
M  V30 6473 H 617.084 1.79733 -3.75058 0
M  V30 6474 H 615.661 2.92769 -2.30956 0
M  V30 6475 N 617.846 1.41785 0.688094 0
M  V30 6476 C 619.074 1.44915 1.47673 0
M  V30 6477 C 619.489 0.0565786 1.88715 0
M  V30 6478 O 618.846 -0.92579 1.57275 0
M  V30 6479 C 618.897 2.36452 2.73446 0
M  V30 6480 O 618.618 3.7029 2.34131 0
M  V30 6481 C 620.119 2.48463 3.67125 0
M  V30 6482 H 617.339 0.493324 0.454832 0
M  V30 6483 H 619.883 1.86153 0.846594 0
M  V30 6484 H 618.038 1.98502 3.3268 0
M  V30 6485 H 618.452 4.19183 3.15255 0
M  V30 6486 H 619.926 3.16662 4.52138 0
M  V30 6487 H 620.403 1.51826 4.12123 0
M  V30 6488 H 621.009 2.8708 3.13792 0
M  V30 6489 N 619.324 -0.923095 1.27737 0
M  V30 6490 C 620.572 -1.66797 1.14119 0
M  V30 6491 C 620.893 -1.92479 -0.312541 0
M  V30 6492 O 620.163 -1.53432 -1.218 0
M  V30 6493 H 618.743 -0.618196 0.419336 0
M  V30 6494 H 621.405 -1.10815 1.60331 0
M  V30 6495 H 620.501 -2.63424 1.67374 0
M  V30 6496 N 620.802 -1.09834 -1.13024 0
M  V30 6497 C 621.732 -0.763451 -2.20666 0
M  V30 6498 C 622.713 0.260778 -1.68089 0
M  V30 6499 O 623.898 0.127915 -1.93778 0
M  V30 6500 C 621.028 -0.187744 -3.46792 0
M  V30 6501 C 619.982 -1.14196 -4.12484 0
M  V30 6502 C 619.308 -0.427755 -5.32986 0
M  V30 6503 C 620.608 -2.48607 -4.59338 0
M  V30 6504 H 622.302 -1.66347 -2.48936 0
M  V30 6505 H 619.848 -0.801261 -1.19649 0
M  V30 6506 H 621.801 0.0586375 -4.21359 0
M  V30 6507 H 620.525 0.747485 -3.17931 0
M  V30 6508 H 619.184 -1.37369 -3.3989 0
M  V30 6509 H 618.832 0.511747 -5.0039 0
M  V30 6510 H 618.532 -1.06403 -5.77886 0
M  V30 6511 H 620.056 -0.189772 -6.10305 0
M  V30 6512 H 621.47 -2.29618 -5.25308 0
M  V30 6513 H 619.867 -3.08062 -5.14993 0
M  V30 6514 H 620.937 -3.09062 -3.73642 0
M  V30 6515 N 622.28 1.30327 -0.886154 0
M  V30 6516 C 623.529 1.95373 -0.501243 0
M  V30 6517 C 623.842 1.70722 0.954634 0
M  V30 6518 O 625.048 2.29761 1.44644 0
M  V30 6519 C 623.504 3.49828 -0.845493 0
M  V30 6520 C 623.112 3.83296 -2.31922 0
M  V30 6521 C 624.856 4.2118 -0.529838 0
M  V30 6522 C 622.763 5.30935 -2.60504 0
M  V30 6523 H 621.693 0.731274 -0.183722 0
M  V30 6524 H 624.344 1.48258 -1.08129 0
M  V30 6525 H 622.726 3.95522 -0.19452 0
M  V30 6526 H 623.9 3.48508 -3.01461 0
M  V30 6527 H 622.215 3.2505 -2.60253 0
M  V30 6528 H 624.812 5.29825 -0.720401 0
M  V30 6529 H 625.155 4.12902 0.530828 0
M  V30 6530 H 625.688 3.81173 -1.13806 0
M  V30 6531 H 622.427 5.44265 -3.65316 0
M  V30 6532 H 621.947 5.67019 -1.95575 0
M  V30 6533 H 623.626 5.98381 -2.46066 0
M  V30 6534 N 623.758 0.647228 1.43697 0
M  V30 6535 C 624.721 -0.0385101 2.29168 0
M  V30 6536 C 625.721 -0.756487 1.41894 0
M  V30 6537 O 626.911 -0.598641 1.63591 0
M  V30 6538 C 624.043 -1.06524 3.23829 0
M  V30 6539 H 625.236 0.713445 2.9129 0
M  V30 6540 H 622.789 0.408153 1.50877 0
M  V30 6541 H 623.524 -1.84664 2.66589 0
M  V30 6542 H 623.309 -0.554147 3.88164 0
M  V30 6543 H 624.799 -1.54432 3.87996 0
M  V30 6544 N 625.236 -1.5273 0.388769 0
M  V30 6545 C 626.484 -2.01174 -0.193208 0
M  V30 6546 C 626.805 -1.27705 -1.47365 0
M  V30 6547 O 626.075 -0.396966 -1.91836 0
M  V30 6548 H 624.655 -0.743287 -0.0743871 0
M  V30 6549 H 627.317 -1.87826 0.520336 0
M  V30 6550 H 626.413 -3.09477 -0.403803 0
M  V30 6551 N 626.714 -0.118576 -1.57153 0
M  V30 6552 C 627.646 0.862247 -2.12363 0
M  V30 6553 C 628.659 1.23025 -1.06625 0
M  V30 6554 O 629.848 1.17927 -1.33998 0
M  V30 6555 C 626.948 2.16425 -2.60794 0
M  V30 6556 C 626.121 1.96801 -3.90626 0
M  V30 6557 C 625.18 3.10726 -4.2466 0
M  V30 6558 O 624.206 2.83659 -4.93484 0
M  V30 6559 N 625.408 4.37147 -3.81946 0
M  V30 6560 H 628.173 0.390564 -2.97144 0
M  V30 6561 H 625.734 0.0658591 -1.61766 0
M  V30 6562 H 627.726 2.91633 -2.80593 0
M  V30 6563 H 626.296 2.54943 -1.80895 0
M  V30 6564 H 625.516 1.05787 -3.7974 0
M  V30 6565 H 626.804 1.80993 -4.7552 0
M  V30 6566 H 626.202 4.62014 -3.26435 0
M  V30 6567 H 624.759 5.09229 -4.06853 0
M  V30 6568 N 628.193 1.56834 0.155195 0
M  V30 6569 C 629.433 1.84701 0.875488 0
M  V30 6570 C 629.797 0.701747 1.78716 0
M  V30 6571 O 630.998 0.861263 2.54629 0
M  V30 6572 C 629.269 3.1773 1.63654 0
M  V30 6573 S 630.828 3.67128 2.40338 0
M  V30 6574 H 627.646 0.647856 0.292923 0
M  V30 6575 H 630.248 1.95026 0.136024 0
M  V30 6576 H 628.952 3.99059 0.958117 0
M  V30 6577 H 628.483 3.10388 2.41708 0
M  V30 6578 H 630.498 3.35739 3.65368 0
M  V30 6579 N 629.671 -0.424282 1.51781 0
M  V30 6580 C 631.087 -0.761768 1.40247 0
M  V30 6581 C 631.287 -1.95324 0.495041 0
M  V30 6582 O 630.343 -2.5246 -0.0448949 0
M  V30 6583 C 631.656 -1.0299 2.82513 0
M  V30 6584 C 633.204 -1.13354 2.91753 0
M  V30 6585 C 633.679 -1.43453 4.34954 0
M  V30 6586 N 635.17 -1.5035 4.3812 0
M  V30 6587 C 635.905 -1.75236 5.45967 0
M  V30 6588 N 635.401 -1.97827 6.63955 0
M  V30 6589 N 637.194 -1.77126 5.33463 0
M  V30 6590 H 629.345 0.360228 2.09323 0
M  V30 6591 H 631.608 0.0988128 0.942836 0
M  V30 6592 H 631.314 -0.226961 3.50967 0
M  V30 6593 H 631.188 -1.95411 3.22637 0
M  V30 6594 H 633.575 -1.92709 2.23489 0
M  V30 6595 H 633.656 -0.188041 2.55108 0
M  V30 6596 H 633.3 -0.646209 5.03772 0
M  V30 6597 H 633.23 -2.3923 4.69123 0
M  V30 6598 H 635.721 -1.34742 3.53062 0
M  V30 6599 H 636.034 -2.16223 7.41935 0
M  V30 6600 H 634.379 -1.95123 6.67047 0
M  V30 6601 H 637.57 -1.59005 4.40267 0
M  V30 6602 H 637.743 -1.96182 6.17589 0
M  V30 6603 N 631.149 -1.42148 -0.680565 0
M  V30 6604 C 632.389 -1.4379 -1.45271 0
M  V30 6605 C 632.753 -0.0504426 -1.91934 0
M  V30 6606 O 633.954 0.0583916 -2.68737 0
M  V30 6607 C 632.225 -2.42904 -2.62168 0
M  V30 6608 S 633.784 -2.63201 -3.51099 0
M  V30 6609 H 630.602 -0.509185 -0.496237 0
M  V30 6610 H 633.204 -1.78706 -0.792744 0
M  V30 6611 H 631.908 -3.4249 -2.26116 0
M  V30 6612 H 631.439 -2.09394 -3.33043 0
M  V30 6613 H 633.454 -1.91068 -4.57938 0
M  V30 6614 N 632.627 0.916307 -1.28225 0
M  V30 6615 C 633.574 2.01841 -1.11932 0
M  V30 6616 C 634.544 1.66091 -0.0171604 0
M  V30 6617 O 635.729 1.89934 -0.181617 0
M  V30 6618 C 632.869 3.36065 -0.784504 0
M  V30 6619 C 631.982 3.847 -1.96544 0
M  V30 6620 C 631.117 5.07423 -1.57149 0
M  V30 6621 C 630.156 5.48384 -2.71922 0
M  V30 6622 N 629.293 6.62298 -2.33037 0
M  V30 6623 H 634.133 2.1511 -2.06232 0
M  V30 6624 H 631.67 1.05366 -1.02647 0
M  V30 6625 H 633.628 4.13272 -0.571148 0
M  V30 6626 H 632.258 3.22571 0.121565 0
M  V30 6627 H 631.31 3.03673 -2.291 0
M  V30 6628 H 632.622 4.1102 -2.82603 0
M  V30 6629 H 631.776 5.92165 -1.32004 0
M  V30 6630 H 630.515 4.82906 -0.682153 0
M  V30 6631 H 629.52 4.62184 -2.97768 0
M  V30 6632 H 630.745 5.7489 -3.61494 0
M  V30 6633 H 628.691 6.39416 -1.4657 0
M  V30 6634 H 628.608 6.8833 -3.12631 0
M  V30 6635 H 629.876 7.50352 -2.11169 0
M  V30 6636 N 634.105 1.10431 1.1244 0
M  V30 6637 C 635.035 0.775143 2.20258 0
M  V30 6638 C 636.016 -0.25186 1.68225 0
M  V30 6639 O 637.201 -0.117637 1.93843 0
M  V30 6640 C 634.331 0.206133 3.46688 0
M  V30 6641 C 633.285 1.16382 4.11873 0
M  V30 6642 C 632.611 0.456014 5.32752 0
M  V30 6643 C 633.911 2.5104 4.58013 0
M  V30 6644 H 635.605 1.67665 2.4805 0
M  V30 6645 H 633.151 0.807595 1.19222 0
M  V30 6646 H 635.104 -0.036291 4.21384 0
M  V30 6647 H 633.828 -0.730614 3.18323 0
M  V30 6648 H 632.487 1.39169 3.39157 0
M  V30 6649 H 632.135 -0.485203 5.00654 0
M  V30 6650 H 631.835 1.09466 5.77314 0
M  V30 6651 H 633.359 0.222135 6.10196 0
M  V30 6652 H 634.773 2.32401 5.24083 0
M  V30 6653 H 633.17 3.10789 5.13352 0
M  V30 6654 H 634.24 3.11039 3.71998 0
M  V30 6655 N 635.583 -1.29855 0.893053 0
M  V30 6656 C 636.531 -2.29867 0.355512 0
M  V30 6657 C 637.525 -1.60502 -0.541801 0
M  V30 6658 O 638.731 -1.74902 -0.425339 0
M  V30 6659 H 635.106 -0.745805 0.0963247 0
M  V30 6660 H 637.077 -2.72655 1.21252 0
M  V30 6661 C 635.826 -3.453 -0.407801 0
M  V30 6662 H 635.149 -3.98864 0.273426 0
M  V30 6663 H 636.589 -4.17334 -0.748887 0
M  V30 6664 C 635.048 -2.96051 -1.60795 0
M  V30 6665 O 635.578 -2.96763 -2.7073 0
M  V30 6666 N 633.784 -2.51963 -1.44786 0
M  V30 6667 H 633.331 -2.51583 -0.553498 0
M  V30 6668 H 633.289 -2.1937 -2.2522 0
M  V30 6669 N 637.061 -0.65484 -1.43351 0
M  V30 6670 C 638.307 -0.169142 -2.02093 0
M  V30 6671 C 638.64 1.21431 -1.51553 0
M  V30 6672 O 637.915 1.81105 -0.709317 0
M  V30 6673 C 638.198 -0.181775 -3.59641 0
M  V30 6674 C 638.051 -1.59926 -4.20409 0
M  V30 6675 C 639.37 0.480945 -4.37464 0
M  V30 6676 H 636.489 -0.0629371 -0.734308 0
M  V30 6677 H 639.131 -0.835833 -1.70628 0
M  V30 6678 H 637.281 0.385918 -3.86578 0
M  V30 6679 H 638.953 -2.21766 -4.04497 0
M  V30 6680 H 637.196 -2.14605 -3.76998 0
M  V30 6681 H 637.867 -1.55994 -5.295 0
M  V30 6682 H 640.343 -0.00208273 -4.161 0
M  V30 6683 H 639.219 0.441384 -5.47122 0
M  V30 6684 H 639.48 1.55533 -4.13838 0
M  V30 6685 N 638.539 1.52521 -0.396863 0
M  V30 6686 C 639.449 2.30403 0.44178 0
M  V30 6687 C 640.465 1.37625 1.06468 0
M  V30 6688 O 641.641 1.70697 1.06886 0
M  V30 6689 C 638.706 3.1013 1.54986 0
M  V30 6690 C 637.767 4.18628 0.951279 0
M  V30 6691 C 637 4.94543 2.00655 0
M  V30 6692 O 637.223 4.70629 3.22281 0
M  V30 6693 O 636.157 5.797 1.61962 0
M  V30 6694 H 639.983 3.03087 -0.192892 0
M  V30 6695 H 637.568 1.48537 -0.16038 0
M  V30 6696 H 639.45 3.59816 2.19341 0
M  V30 6697 H 638.125 2.40251 2.16935 0
M  V30 6698 H 637.032 3.73119 0.270773 0
M  V30 6699 H 638.365 4.90763 0.375887 0
M  V30 6700 N 640.017 0.126909 1.57088 0
M  V30 6701 C 641.265 -0.528123 1.95078 0
M  V30 6702 C 641.586 -1.66708 1.0116 0
M  V30 6703 O 640.856 -1.95777 0.0693527 0
M  V30 6704 H 639.436 -0.198087 0.720257 0
M  V30 6705 H 642.098 0.197703 1.93895 0
M  V30 6706 H 641.194 -0.917507 2.98309 0
M  V30 6707 N 641.495 -1.56914 -0.146875 0
M  V30 6708 C 642.405 -2.0154 -1.20079 0
M  V30 6709 C 643.421 -0.930838 -1.47008 0
M  V30 6710 O 644.597 -1.24032 -1.58676 0
M  V30 6711 C 641.662 -2.38715 -2.51428 0
M  V30 6712 C 640.723 -3.6112 -2.32145 0
M  V30 6713 C 639.956 -3.96512 -3.57231 0
M  V30 6714 O 640.179 -3.32566 -4.63418 0
M  V30 6715 O 639.113 -4.89758 -3.49887 0
M  V30 6716 H 642.939 -2.91506 -0.851924 0
M  V30 6717 H 640.524 -1.45106 -0.355607 0
M  V30 6718 H 642.406 -2.63485 -3.28867 0
M  V30 6719 H 641.081 -1.51903 -2.85845 0
M  V30 6720 H 639.988 -3.41536 -1.52656 0
M  V30 6721 H 641.321 -4.48549 -2.02644 0
M  V30 6722 N 642.974 0.416227 -1.52004 0
M  V30 6723 C 643.924 1.50558 -1.7122 0
M  V30 6724 C 644.908 1.50613 -0.56609 0
M  V30 6725 O 646.1 1.56709 -0.822874 0
M  V30 6726 C 643.229 2.88556 -1.85984 0
M  V30 6727 C 642.315 2.93177 -3.06445 0
M  V30 6728 N 642.706 2.67505 -4.29272 0
M  V30 6729 C 641.004 3.24343 -3.06133 0
M  V30 6730 C 641.705 2.78511 -5.10692 0
M  V30 6731 N 640.681 3.11087 -4.45787 0
M  V30 6732 H 644.483 1.29494 -2.63834 0
M  V30 6733 H 641.997 0.62384 -1.4994 0
M  V30 6734 H 643.994 3.66954 -1.97865 0
M  V30 6735 H 642.654 3.10624 -0.945654 0
M  V30 6736 H 643.665 2.42033 -4.57865 0
M  V30 6737 H 640.342 3.52051 -2.24425 0
M  V30 6738 H 641.732 2.62438 -6.18527 0
M  V30 6739 N 644.452 1.42507 0.673017 0
M  V30 6740 C 645.692 1.44559 1.44507 0
M  V30 6741 C 646.056 0.0606206 1.91904 0
M  V30 6742 O 647.257 -0.044139 2.68764 0
M  V30 6743 C 645.528 2.44291 2.60877 0
M  V30 6744 S 647.087 2.65059 3.49699 0
M  V30 6745 H 643.905 0.51181 0.49353 0
M  V30 6746 H 646.507 1.79124 0.783256 0
M  V30 6747 H 645.211 3.43685 2.24297 0
M  V30 6748 H 644.742 2.11157 3.31928 0
M  V30 6749 H 646.757 1.93494 4.56919 0
M  V30 6750 N 645.93 -0.909495 1.28709 0
M  V30 6751 C 647.207 -1.63865 1.06806 0
M  V30 6752 C 647.587 -2.07445 -0.391143 0
M  V30 6753 O 646.935 -1.82269 -1.37805 0
M  V30 6754 C 647.145 -2.82692 2.04661 0
M  V30 6755 C 648.493 -3.5361 2.35042 0
M  V30 6756 O 649.517 -2.92847 2.02779 0
M  V30 6757 O 648.376 -4.63131 2.90124 0
M  V30 6758 H 645.47 -0.719065 0.408502 0
M  V30 6759 H 648.016 -0.958424 1.40044 0
M  V30 6760 H 646.788 -2.47614 3.0299 0
M  V30 6761 H 646.411 -3.58426 1.72095 0
M  V30 6762 N 647.408 -1.11026 -1.11852 0
M  V30 6763 C 648.654 -0.857729 -1.83768 0
M  V30 6764 C 648.987 0.615143 -1.842 0
M  V30 6765 O 648.262 1.45391 -1.29196 0
M  V30 6766 C 648.545 -1.41453 -3.31154 0
M  V30 6767 C 648.398 -2.95471 -3.39142 0
M  V30 6768 C 649.717 -1.0619 -4.27097 0
M  V30 6769 H 646.836 -0.313044 -0.667212 0
M  V30 6770 H 649.478 -1.37443 -1.31185 0
M  V30 6771 H 647.628 -0.975052 -3.76065 0
M  V30 6772 H 649.3 -3.4799 -3.02821 0
M  V30 6773 H 647.543 -3.31759 -2.79497 0
M  V30 6774 H 648.214 -3.29515 -4.42859 0
M  V30 6775 H 650.69 -1.44122 -3.90344 0
M  V30 6776 H 649.566 -1.47832 -5.28618 0
M  V30 6777 H 649.827 0.0278912 -4.42091 0
M  V30 6778 N 648.886 1.2938 -0.899927 0
M  V30 6779 C 650.126 1.97332 -0.532871 0
M  V30 6780 C 650.49 1.69385 0.904029 0
M  V30 6781 O 651.691 2.30793 1.37797 0
M  V30 6782 C 649.962 3.47927 -0.817393 0
M  V30 6783 S 651.521 4.3528 -0.55468 0
M  V30 6784 H 648.339 0.682966 -0.197683 0
M  V30 6785 H 650.941 1.57189 -1.16241 0
M  V30 6786 H 649.645 3.65761 -1.86138 0
M  V30 6787 H 649.176 3.93006 -0.175978 0
M  V30 6788 H 651.191 4.92557 0.600182 0
M  V30 6789 N 650.364 0.662433 1.43002 0
M  V30 6790 C 651.311 -0.0235324 2.30788 0
M  V30 6791 C 652.281 -0.805342 1.4527 0
M  V30 6792 O 653.466 -0.78009 1.74124 0
M  V30 6793 C 650.606 -0.977545 3.30965 0
M  V30 6794 C 649.719 -0.190865 4.31578 0
M  V30 6795 C 648.854 -1.13951 5.18834 0
M  V30 6796 C 647.893 -0.343796 6.11134 0
M  V30 6797 N 647.03 -1.2445 6.90982 0
M  V30 6798 H 651.87 0.730921 2.88897 0
M  V30 6799 H 649.407 0.372197 1.42313 0
M  V30 6800 H 651.365 -1.54437 3.87563 0
M  V30 6801 H 649.995 -1.69877 2.74484 0
M  V30 6802 H 649.047 0.492388 3.772 0
M  V30 6803 H 650.359 0.427464 4.96965 0
M  V30 6804 H 649.513 -1.77666 5.80103 0
M  V30 6805 H 648.252 -1.79174 4.53595 0
M  V30 6806 H 647.257 0.30665 5.48944 0
M  V30 6807 H 648.482 0.304161 6.78419 0
M  V30 6808 H 646.428 -1.88336 6.28383 0
M  V30 6809 H 646.345 -0.680959 7.52927 0
M  V30 6810 H 647.613 -1.86952 7.56749 0
M  V30 6811 N 651.842 -1.52309 0.404946 0
M  V30 6812 C 652.752 -2.30634 -0.429555 0
M  V30 6813 C 653.768 -1.38187 -1.05737 0
M  V30 6814 O 654.944 -1.71261 -1.05979 0
M  V30 6815 C 652.009 -3.10947 -1.53339 0
M  V30 6816 C 651.07 -4.19126 -0.929065 0
M  V30 6817 C 650.303 -4.95601 -1.9803 0
M  V30 6818 O 650.526 -4.72331 -3.1978 0
M  V30 6819 O 649.46 -5.80551 -1.58886 0
M  V30 6820 H 653.286 -3.0298 0.208963 0
M  V30 6821 H 650.871 -1.4845 0.168255 0
M  V30 6822 H 652.753 -3.60974 -2.1743 0
M  V30 6823 H 651.428 -2.41399 -2.15658 0
M  V30 6824 H 650.335 -3.73257 -0.250982 0
M  V30 6825 H 651.668 -4.90955 -0.349855 0
M  V30 6826 N 653.32 -0.135238 -1.57019 0
M  V30 6827 C 654.568 0.51777 -1.95355 0
M  V30 6828 C 654.889 1.6617 -1.02042 0
M  V30 6829 O 654.159 1.95738 -0.0797343 0
M  V30 6830 H 652.739 0.194264 -0.721298 0
M  V30 6831 H 655.401 -0.207983 -1.93787 0
M  V30 6832 H 654.497 0.901675 -2.98791 0
M  V30 6833 N 654.798 1.5699 0.138552 0
M  V30 6834 C 656.045 1.83809 0.849732 0
M  V30 6835 C 656.373 0.717409 1.80786 0
M  V30 6836 O 655.628 -0.292897 1.93496 0
M  V30 6837 C 655.927 3.17007 1.65049 0
M  V30 6838 C 655.593 4.43037 0.838398 0
M  V30 6839 C 654.255 4.77262 0.614385 0
M  V30 6840 C 656.607 5.20495 0.271044 0
M  V30 6841 C 653.935 5.864 -0.187552 0
M  V30 6842 C 656.287 6.30476 -0.517979 0
M  V30 6843 C 654.951 6.63245 -0.75249 0
M  V30 6844 H 654.221 0.672605 0.310939 0
M  V30 6845 H 656.868 1.91166 0.112971 0
M  V30 6846 H 655.173 3.05138 2.4576 0
M  V30 6847 H 656.87 3.34975 2.20437 0
M  V30 6848 H 653.46 4.16211 1.02307 0
M  V30 6849 H 657.644 4.94422 0.431371 0
M  V30 6850 H 652.9 6.10226 -0.378659 0
M  V30 6851 H 657.074 6.89686 -0.964694 0
M  V30 6852 H 654.701 7.47648 -1.37573 0
M  V30 6853 N 656.276 -0.40816 1.52223 0
M  V30 6854 C 657.506 -1.17501 1.69932 0
M  V30 6855 C 657.914 -1.84729 0.408874 0
M  V30 6856 O 657.257 -1.7274 -0.625025 0
M  V30 6857 C 657.319 -2.27994 2.77955 0
M  V30 6858 C 656.983 -1.80894 4.19674 0
M  V30 6859 C 657.98 -1.29618 5.03483 0
M  V30 6860 C 655.665 -1.87698 4.65913 0
M  V30 6861 C 657.659 -0.857695 6.31603 0
M  V30 6862 C 655.346 -1.43461 5.94022 0
M  V30 6863 C 656.344 -0.925822 6.76696 0
M  V30 6864 O 656.032 -0.489841 8.02406 0
M  V30 6865 H 655.764 -0.359065 0.572755 0
M  V30 6866 H 658.318 -0.486188 1.99563 0
M  V30 6867 H 656.548 -3.00243 2.43703 0
M  V30 6868 H 658.237 -2.89749 2.84254 0
M  V30 6869 H 659.003 -1.23733 4.68951 0
M  V30 6870 H 654.882 -2.26244 4.01665 0
M  V30 6871 H 658.426 -0.459879 6.96083 0
M  V30 6872 H 654.323 -1.49026 6.28062 0
M  V30 6873 H 655.091 -0.613062 8.16201 0
M  V30 6874 N 657.755 -1.42862 -0.66545 0
M  V30 6875 C 659.032 -1.3431 -1.42197 0
M  V30 6876 C 659.412 0.0150265 -2.11095 0
M  V30 6877 O 658.76 1.03101 -2.03918 0
M  V30 6878 C 658.97 -2.51783 -2.41674 0
M  V30 6879 C 660.318 -2.94321 -3.0604 0
M  V30 6880 O 661.342 -2.51741 -2.52001 0
M  V30 6881 O 660.201 -3.68047 -4.03985 0
M  V30 6882 H 657.295 -0.530159 -0.634713 0
M  V30 6883 H 659.841 -1.54888 -0.693386 0
M  V30 6884 H 658.613 -3.42282 -1.89627 0
M  V30 6885 H 658.236 -2.33241 -3.22001 0
M  V30 6886 N 659.233 0.902656 -1.29189 0
M  V30 6887 C 660.163 2.02294 -1.16616 0
M  V30 6888 C 661.144 1.6999 -0.0611175 0
M  V30 6889 O 662.329 1.9271 -0.240072 0
M  V30 6890 C 659.459 3.37018 -0.83882 0
M  V30 6891 C 658.413 3.83522 -1.89986 0
M  V30 6892 C 657.739 5.15337 -1.42589 0
M  V30 6893 C 659.039 4.04169 -3.30824 0
M  V30 6894 H 660.733 2.13071 -2.10336 0
M  V30 6895 H 658.279 1.02378 -1.01266 0
M  V30 6896 H 660.232 4.14895 -0.737584 0
M  V30 6897 H 658.956 3.26325 0.134071 0
M  V30 6898 H 657.615 3.07859 -1.99043 0
M  V30 6899 H 657.263 5.01056 -0.441759 0
M  V30 6900 H 656.963 5.47423 -2.13547 0
M  V30 6901 H 658.487 5.95758 -1.3381 0
M  V30 6902 H 659.901 4.72537 -3.24626 0
M  V30 6903 H 658.298 4.47604 -3.99713 0
M  V30 6904 H 659.368 3.08604 -3.74021 0
M  V30 6905 N 660.711 1.11618 1.11262 0
M  V30 6906 C 661.936 0.889013 1.8738 0
M  V30 6907 C 662.361 -0.555884 1.79698 0
M  V30 6908 O 661.719 -1.39272 1.16073 0
M  V30 6909 C 661.767 1.35759 3.34069 0
M  V30 6910 O 660.871 0.530499 4.08974 0
M  V30 6911 H 660.212 0.320082 0.581759 0
M  V30 6912 H 662.742 1.48611 1.40627 0
M  V30 6913 H 662.752 1.35291 3.84916 0
M  V30 6914 H 661.427 2.40973 3.38976 0
M  V30 6915 H 660.004 0.601439 3.68018 0
M  V30 6916 N 662.189 -1.289 0.906776 0
M  V30 6917 C 663.414 -1.99939 0.551303 0
M  V30 6918 C 663.839 -1.67366 -0.858496 0
M  V30 6919 O 663.197 -0.902176 -1.57259 0
M  V30 6920 C 663.245 -3.52523 0.758937 0
M  V30 6921 O 662.349 -4.11983 -0.185308 0
M  V30 6922 H 661.69 -0.628376 0.214568 0
M  V30 6923 H 664.22 -1.64225 1.2203 0
M  V30 6924 H 664.23 -4.02522 0.666329 0
M  V30 6925 H 662.905 -3.75566 1.78671 0
M  V30 6926 H 661.482 -3.72873 -0.0445577 0
M  V30 6927 N 663.667 -0.670007 -1.42649 0
M  V30 6928 C 664.577 0.0114788 -2.34597 0
M  V30 6929 C 665.593 0.794055 -1.54825 0
M  V30 6930 O 666.769 0.737472 -1.87412 0
M  V30 6931 C 663.834 0.954436 -3.33304 0
M  V30 6932 C 662.895 0.166925 -4.28975 0
M  V30 6933 C 662.128 1.06497 -5.22967 0
M  V30 6934 O 662.351 2.30446 -5.21777 0
M  V30 6935 O 661.285 0.528347 -5.99577 0
M  V30 6936 H 665.111 -0.745794 -2.944 0
M  V30 6937 H 662.696 -0.430228 -1.43071 0
M  V30 6938 H 664.578 1.49589 -3.93956 0
M  V30 6939 H 663.253 1.69164 -2.7598 0
M  V30 6940 H 662.16 -0.418515 -3.71752 0
M  V30 6941 H 663.493 -0.531067 -4.89327 0
M  V30 6942 N 665.145 1.52092 -0.413018 0
M  V30 6943 C 666.422 1.94356 0.22024 0
M  V30 6944 C 666.802 1.35017 1.62277 0
M  V30 6945 O 666.15 0.527511 2.22328 0
M  V30 6946 C 666.36 3.48289 0.222638 0
M  V30 6947 C 667.708 4.22313 0.440098 0
M  V30 6948 O 668.732 3.54919 0.301826 0
M  V30 6949 O 667.591 5.41829 0.712984 0
M  V30 6950 H 664.685 0.814536 0.14304 0
M  V30 6951 H 667.231 1.63083 -0.469242 0
M  V30 6952 H 666.003 3.83872 -0.758836 0
M  V30 6953 H 665.626 3.85934 0.956057 0
M  V30 6954 N 666.623 0.143563 1.56945 0
M  V30 6955 C 668.034 -0.37783 1.82837 0
M  V30 6956 C 668.385 -1.64967 1.06209 0
M  V30 6957 O 667.51 -2.14221 0.306291 0
M  V30 6958 C 668.105 -0.692274 3.31652 0
M  V30 6959 C 666.664 -1.1582 3.58138 0
M  V30 6960 C 665.811 -0.17951 2.76718 0
M  V30 6961 H 668.762 0.368317 1.54367 0
M  V30 6962 H 668.783 -1.54729 3.47619 0
M  V30 6963 H 668.295 0.233572 3.87397 0
M  V30 6964 H 666.396 -2.10011 3.07776 0
M  V30 6965 H 666.509 -1.08655 4.66616 0
M  V30 6966 H 664.873 -0.671458 2.4569 0
M  V30 6967 H 665.656 0.739865 3.35233 0
M  V30 6968 N 668.101 -1.57061 -0.130224 0
M  V30 6969 C 669.348 -1.84257 -0.839972 0
M  V30 6970 C 669.676 -0.726986 -1.80403 0
M  V30 6971 O 668.931 0.282632 -1.93648 0
M  V30 6972 C 669.23 -3.17878 -1.63365 0
M  V30 6973 C 668.896 -4.43475 -0.814891 0
M  V30 6974 C 667.558 -4.77581 -0.589066 0
M  V30 6975 C 669.91 -5.20631 -0.243437 0
M  V30 6976 C 667.238 -5.86292 0.218648 0
M  V30 6977 C 669.59 -6.30192 0.551408 0
M  V30 6978 C 668.254 -6.62837 0.787653 0
M  V30 6979 H 667.524 -0.674245 -0.307367 0
M  V30 6980 H 670.171 -1.91224 -0.102832 0
M  V30 6981 H 668.476 -3.06437 -2.44138 0
M  V30 6982 H 670.173 -3.3614 -2.18658 0
M  V30 6983 H 666.763 -4.16747 -1.00098 0
M  V30 6984 H 670.947 -4.94644 -0.405145 0
M  V30 6985 H 666.203 -6.10017 0.411016 0
M  V30 6986 H 670.377 -6.89165 1.00126 0
M  V30 6987 H 668.004 -7.46908 1.41537 0
M  V30 6988 N 669.579 0.400081 -1.52437 0
M  V30 6989 C 670.827 1.14392 -1.6661 0
M  V30 6990 C 671.148 1.90792 -0.402927 0
M  V30 6991 O 670.418 1.87042 0.582425 0
M  V30 6992 H 668.998 0.425275 -0.614125 0
M  V30 6993 H 671.66 0.455076 -1.89513 0
M  V30 6994 H 670.756 1.85298 -2.51139 0
M  V30 6995 N 671.057 1.43213 0.657864 0
M  V30 6996 C 672.297 1.46083 1.42965 0
M  V30 6997 C 672.661 0.0809712 1.91829 0
M  V30 6998 O 673.862 -0.0156305 2.68795 0
M  V30 6999 C 672.133 2.47044 2.58271 0
M  V30 7000 S 673.692 2.68753 3.46868 0
M  V30 7001 H 670.51 0.517015 0.488074 0
M  V30 7002 H 673.112 1.79945 0.764213 0
M  V30 7003 H 671.816 3.46044 2.20639 0
M  V30 7004 H 671.347 2.14665 3.2967 0
M  V30 7005 H 673.362 1.98329 4.54841 0
M  V30 7006 N 672.536 -0.895792 1.29666 0
M  V30 7007 C 673.483 -2.00035 1.15129 0
M  V30 7008 C 674.453 -1.66043 0.0435819 0
M  V30 7009 O 675.638 -1.89621 0.211811 0
M  V30 7010 C 672.778 -3.34774 0.83787 0
M  V30 7011 C 671.891 -3.81525 2.0264 0
M  V30 7012 C 671.026 -5.04858 1.65201 0
M  V30 7013 C 670.065 -5.43988 2.80612 0
M  V30 7014 N 669.202 -6.58507 2.43544 0
M  V30 7015 H 674.042 -2.11802 2.09628 0
M  V30 7016 H 671.579 -1.03719 1.04311 0
M  V30 7017 H 673.537 -4.12311 0.636824 0
M  V30 7018 H 672.167 -3.22724 -0.0702314 0
M  V30 7019 H 671.219 -2.9999 2.33903 0
M  V30 7020 H 672.531 -4.06472 2.89106 0
M  V30 7021 H 671.685 -5.8999 1.41408 0
M  V30 7022 H 670.424 -4.81759 0.758893 0
M  V30 7023 H 669.429 -4.57388 3.05083 0
M  V30 7024 H 670.654 -5.69066 3.70595 0
M  V30 7025 H 668.6 -6.37004 1.56724 0
M  V30 7026 H 668.517 -6.83269 3.23542 0
M  V30 7027 H 669.785 -7.46897 2.2308 0
M  V30 7028 N 674.014 -1.12206 -1.10668 0
M  V30 7029 C 675.239 -0.898938 -1.86906 0
M  V30 7030 C 675.664 0.546346 -1.79991 0
M  V30 7031 O 675.022 1.38655 -1.1681 0
M  V30 7032 C 675.07 -1.37529 -3.33344 0
M  V30 7033 O 674.174 -0.55218 -4.08687 0
M  V30 7034 H 673.515 -0.323163 -0.580053 0
M  V30 7035 H 676.045 -1.49355 -1.39837 0
M  V30 7036 H 676.055 -1.3733 -3.84193 0
M  V30 7037 H 674.73 -2.42767 -3.37693 0
M  V30 7038 H 673.307 -0.620947 -3.67694 0
M  V30 7039 N 675.492 1.28418 -0.913599 0
M  V30 7040 C 676.732 1.96756 -0.553771 0
M  V30 7041 C 677.096 1.70334 0.886013 0
M  V30 7042 O 678.297 2.32242 1.35341 0
M  V30 7043 C 676.568 3.47041 -0.854249 0
M  V30 7044 S 678.127 4.34667 -0.600816 0
M  V30 7045 H 674.945 0.680831 -0.204915 0
M  V30 7046 H 677.547 1.55947 -1.17902 0
M  V30 7047 H 676.251 3.63766 -1.90007 0
M  V30 7048 H 675.782 3.92797 -0.217651 0
M  V30 7049 H 677.797 4.93166 0.547906 0
M  V30 7050 N 676.97 0.677563 1.42291 0
M  V30 7051 C 677.933 0.0101085 2.29198 0
M  V30 7052 C 678.933 -0.726219 1.43467 0
M  V30 7053 O 680.123 -0.563807 1.64824 0
M  V30 7054 C 677.255 -0.996316 3.26016 0
M  V30 7055 H 678.448 0.775071 2.89711 0
M  V30 7056 H 676.001 0.440065 1.49977 0
M  V30 7057 H 676.736 -1.78967 2.70446 0
M  V30 7058 H 676.521 -0.471687 3.89253 0
M  V30 7059 H 678.011 -1.46167 3.91184 0
M  V30 7060 N 678.448 -1.51871 0.421078 0
M  V30 7061 C 679.688 -2.03848 -0.150167 0
M  V30 7062 C 680.052 -1.29925 -1.41363 0
M  V30 7063 O 681.253 -1.7219 -2.06408 0
M  V30 7064 C 679.524 -3.55374 -0.38003 0
M  V30 7065 S 681.083 -4.29111 -0.917011 0
M  V30 7066 H 677.901 -0.709904 -0.0394639 0
M  V30 7067 H 680.503 -1.86799 0.576746 0
M  V30 7068 H 679.207 -4.0675 0.546122 0
M  V30 7069 H 678.738 -3.76687 -1.13448 0
M  V30 7070 H 680.753 -4.44944 -2.19635 0
M  V30 7071 N 679.926 -0.151884 -1.56866 0
M  V30 7072 C 680.874 0.80299 -2.183 0
M  V30 7073 C 681.868 1.25174 -1.14139 0
M  V30 7074 O 683.074 1.21966 -1.3238 0
M  V30 7075 H 679.449 0.277169 -0.699057 0
M  V30 7076 H 681.42 0.260699 -2.97259 0
M  V30 7077 C 680.169 2.03009 -2.82281 0
M  V30 7078 H 679.492 1.69377 -3.62148 0
M  V30 7079 H 680.932 2.67753 -3.28762 0
M  V30 7080 C 679.391 2.84123 -1.81041 0
M  V30 7081 O 679.921 3.8063 -1.28388 0
M  V30 7082 N 678.127 2.48753 -1.50234 0
M  V30 7083 H 677.674 1.70337 -1.93244 0
M  V30 7084 H 677.632 3.03316 -0.827445 0
M  V30 7085 N 681.404 1.57128 0.121893 0
M  V30 7086 C 682.815 1.73902 0.679348 0
M  V30 7087 C 683.166 0.770135 1.80453 0
M  V30 7088 O 682.291 -0.0576083 2.16323 0
M  V30 7089 C 682.886 3.15328 1.2391 0
M  V30 7090 C 681.445 3.33618 1.74288 0
M  V30 7091 C 680.592 2.6978 0.641414 0
M  V30 7092 H 683.543 1.58359 -0.104 0
M  V30 7093 H 683.564 3.16718 2.10879 0
M  V30 7094 H 683.076 3.85821 0.419957 0
M  V30 7095 H 681.177 2.68162 2.58689 0
M  V30 7096 H 681.29 4.4176 1.85432 0
M  V30 7097 H 679.654 2.30935 1.0743 0
M  V30 7098 H 680.437 3.42895 -0.166707 0
M  V30 7099 N 682.882 -0.391992 1.52647 0
M  V30 7100 C 683.812 -1.48517 1.8018 0
M  V30 7101 C 684.793 -1.57039 0.653667 0
M  V30 7102 O 685.978 -1.72036 0.900962 0
M  V30 7103 C 683.108 -2.86161 1.96797 0
M  V30 7104 C 682.062 -2.92481 3.12472 0
M  V30 7105 C 681.388 -4.32546 3.14338 0
M  V30 7106 C 682.688 -2.624 4.51601 0
M  V30 7107 H 684.382 -1.25726 2.71723 0
M  V30 7108 H 681.928 -0.603387 1.30749 0
M  V30 7109 H 683.881 -3.62639 2.14641 0
M  V30 7110 H 682.605 -3.10283 1.01941 0
M  V30 7111 H 681.264 -2.18451 2.94406 0
M  V30 7112 H 680.912 -4.53703 2.1717 0
M  V30 7113 H 680.612 -4.37695 3.92042 0
M  V30 7114 H 682.136 -5.10934 3.34333 0
M  V30 7115 H 683.55 -3.28596 4.69785 0
M  V30 7116 H 681.947 -2.78903 5.3135 0
M  V30 7117 H 683.017 -1.57754 4.58521 0
M  V30 7118 N 684.36 -1.4356 -0.65026 0
M  V30 7119 C 685.608 -1.45046 -1.40734 0
M  V30 7120 C 685.929 -0.0769822 -1.94848 0
M  V30 7121 O 685.199 0.888098 -1.74613 0
M  V30 7122 H 683.779 -0.534034 -0.522318 0
M  V30 7123 H 686.441 -1.79186 -0.766703 0
M  V30 7124 H 685.537 -2.16476 -2.24822 0
M  V30 7125 N 685.838 0.888903 -1.30139 0
M  V30 7126 C 687.066 1.67358 -1.21651 0
M  V30 7127 C 687.481 1.87499 0.221246 0
M  V30 7128 O 686.838 1.41969 1.14677 0
M  V30 7129 C 686.889 3.05213 -1.93719 0
M  V30 7130 O 686.61 2.85984 -3.31881 0
M  V30 7131 C 688.111 3.9964 -1.9184 0
M  V30 7132 H 685.331 0.522365 -0.42116 0
M  V30 7133 H 687.875 1.11086 -1.71698 0
M  V30 7134 H 686.03 3.5823 -1.4748 0
M  V30 7135 H 686.444 3.73411 -3.68327 0
M  V30 7136 H 687.918 4.93749 -2.46811 0
M  V30 7137 H 688.395 4.29955 -0.896409 0
M  V30 7138 H 689.001 3.52558 -2.37872 0
M  V30 7139 N 687.317 1.12792 1.10072 0
M  V30 7140 C 688.566 0.880232 1.81479 0
M  V30 7141 C 688.879 -0.595575 1.86312 0
M  V30 7142 O 690.085 -0.959979 2.53962 0
M  V30 7143 C 688.541 1.52514 3.25987 0
M  V30 7144 C 688.149 3.036 3.29441 0
M  V30 7145 C 689.893 1.35788 4.02196 0
M  V30 7146 C 687.8 3.61007 4.68431 0
M  V30 7147 H 686.73 0.325654 0.680048 0
M  V30 7148 H 689.381 1.35485 1.23758 0
M  V30 7149 H 687.763 0.978188 3.83728 0
M  V30 7150 H 688.937 3.64819 2.81502 0
M  V30 7151 H 687.252 3.19765 2.66719 0
M  V30 7152 H 689.849 1.76096 5.0487 0
M  V30 7153 H 690.192 0.301972 4.15203 0
M  V30 7154 H 690.725 1.87426 3.50879 0
M  V30 7155 H 687.464 4.66375 4.60625 0
M  V30 7156 H 686.984 3.04564 5.16721 0
M  V30 7157 H 688.663 3.60289 5.37402 0
M  V30 7158 N 688.795 -1.27931 0.920396 0
M  V30 7159 C 690.206 -1.76707 0.602616 0
M  V30 7160 C 690.557 -1.75249 -0.882159 0
M  V30 7161 O 689.682 -1.35135 -1.69019 0
M  V30 7162 C 690.277 -3.20884 1.08714 0
M  V30 7163 C 688.836 -3.67356 0.820157 0
M  V30 7164 C 687.983 -2.47525 1.25006 0
M  V30 7165 H 690.934 -1.14301 1.10095 0
M  V30 7166 H 690.955 -3.78045 0.431535 0
M  V30 7167 H 690.467 -3.21913 2.1678 0
M  V30 7168 H 688.568 -3.7178 -0.247012 0
M  V30 7169 H 688.681 -4.57181 1.43257 0
M  V30 7170 H 687.045 -2.45765 0.668698 0
M  V30 7171 H 687.828 -2.51269 2.3392 0
M  V30 7172 N 690.273 -0.685099 -1.4193 0
M  V30 7173 C 691.521 -0.21124 -2.00993 0
M  V30 7174 C 691.842 1.18985 -1.54491 0
M  V30 7175 O 691.112 1.8009 -0.771 0
M  V30 7176 H 689.692 -0.0751059 -0.743215 0
M  V30 7177 H 692.354 -0.883915 -1.73704 0
M  V30 7178 H 691.45 -0.220513 -3.1132 0
M  V30 7179 N 691.751 1.51645 -0.429126 0
M  V30 7180 C 692.999 2.01616 0.139802 0
M  V30 7181 C 693.32 1.31568 1.43927 0
M  V30 7182 O 692.59 0.447688 1.90716 0
M  V30 7183 H 691.17 0.744998 0.054654 0
M  V30 7184 H 693.832 1.8638 -0.569952 0
M  V30 7185 H 692.928 3.10439 0.321609 0
M  V30 7186 N 693.229 0.160201 1.56784 0
M  V30 7187 C 694.177 -0.791402 2.18723 0
M  V30 7188 C 695.171 -1.24567 1.14801 0
M  V30 7189 O 696.377 -1.21262 1.33025 0
M  V30 7190 H 692.752 -0.273458 0.700517 0
M  V30 7191 H 694.723 -0.244931 2.97393 0
M  V30 7192 C 693.472 -2.01509 2.83354 0
M  V30 7193 H 692.795 -1.67454 3.63041 0
M  V30 7194 H 694.235 -2.66006 3.30177 0
M  V30 7195 C 692.694 -2.83159 1.82545 0
M  V30 7196 O 693.224 -3.79944 1.30405 0
M  V30 7197 N 691.43 -2.47953 1.51552 0
M  V30 7198 H 690.977 -1.69309 1.94144 0
M  V30 7199 H 690.935 -3.02873 0.843519 0
M  V30 7200 N 694.707 -1.5719 -0.113559 0
M  V30 7201 C 696.118 -1.74259 -0.670116 0
M  V30 7202 C 696.469 -0.779694 -1.80042 0
M  V30 7203 O 695.594 0.0461353 -2.16351 0
M  V30 7204 C 696.189 -3.15981 -1.22236 0
M  V30 7205 C 694.748 -3.34537 -1.72516 0
M  V30 7206 C 693.895 -2.70116 -0.627098 0
M  V30 7207 H 696.846 -1.58301 0.112396 0
M  V30 7208 H 696.867 -3.17832 -2.09197 0
M  V30 7209 H 696.379 -3.86038 -0.39949 0
M  V30 7210 H 694.48 -2.6953 -2.57263 0
M  V30 7211 H 694.593 -4.42737 -1.83086 0
M  V30 7212 H 692.957 -2.31501 -1.06204 0
M  V30 7213 H 693.74 -3.42802 0.184889 0
M  V30 7214 N 696.185 0.383891 -1.52853 0
M  V30 7215 C 697.425 1.13731 -1.69837 0
M  V30 7216 C 697.789 1.87086 -0.431611 0
M  V30 7217 O 698.99 2.64518 -0.477886 0
M  V30 7218 C 697.261 2.08551 -2.90243 0
M  V30 7219 S 698.82 2.9166 -3.27841 0
M  V30 7220 H 695.638 0.384911 -0.5978 0
M  V30 7221 H 698.24 0.42103 -1.90913 0
M  V30 7222 H 696.944 1.53392 -3.80656 0
M  V30 7223 H 696.475 2.8468 -2.71516 0
M  V30 7224 H 698.49 4.10723 -2.78426 0
M  V30 7225 N 697.663 1.43903 0.642637 0
M  V30 7226 C 698.94 1.36556 1.40043 0
M  V30 7227 C 699.32 0.0185588 2.11092 0
M  V30 7228 O 698.668 -0.998438 2.05532 0
M  V30 7229 C 698.878 2.55596 2.37638 0
M  V30 7230 C 700.226 2.99153 3.01318 0
M  V30 7231 O 701.25 2.55719 2.47965 0
M  V30 7232 O 700.109 3.74427 3.98078 0
M  V30 7233 H 697.203 0.540189 0.626198 0
M  V30 7234 H 699.749 1.55971 0.668657 0
M  V30 7235 H 698.521 3.45256 1.84158 0
M  V30 7236 H 698.144 2.38334 3.18249 0
M  V30 7237 N 699.141 -0.881989 1.30609 0
M  V30 7238 C 700.366 -1.67236 1.22665 0
M  V30 7239 C 700.791 -1.8696 -0.206777 0
M  V30 7240 O 700.149 -1.4027 -1.14865 0
M  V30 7241 C 700.197 -3.02446 1.96363 0
M  V30 7242 O 699.301 -3.91614 1.29276 0
M  V30 7243 H 698.642 -0.510902 0.424117 0
M  V30 7244 H 701.172 -1.10055 1.72479 0
M  V30 7245 H 701.182 -3.52468 2.055 0
M  V30 7246 H 699.857 -2.8741 3.00613 0
M  V30 7247 H 698.434 -3.50055 1.28514 0
M  V30 7248 N 700.619 -1.13374 -1.09472 0
M  V30 7249 C 701.529 -0.824029 -2.19652 0
M  V30 7250 C 702.545 0.19118 -1.72947 0
M  V30 7251 O 703.721 0.0223464 -2.01388 0
M  V30 7252 C 700.786 -0.294009 -3.45451 0
M  V30 7253 C 699.847 -1.3704 -4.0684 0
M  V30 7254 C 699.08 -0.86558 -5.26634 0
M  V30 7255 O 699.303 0.29702 -5.69626 0
M  V30 7256 O 698.237 -1.63968 -5.79136 0
M  V30 7257 H 702.063 -1.74454 -2.48595 0
M  V30 7258 H 699.648 -0.911155 -1.18399 0
M  V30 7259 H 701.53 -0.00381039 -4.214 0
M  V30 7260 H 700.205 0.598921 -3.18111 0
M  V30 7261 H 699.112 -1.71391 -3.3253 0
M  V30 7262 H 700.445 -2.23746 -4.38405 0
M  V30 7263 N 702.098 1.27442 -0.927168 0
M  V30 7264 C 703.326 1.98498 -0.583622 0
M  V30 7265 C 703.741 1.69171 0.838241 0
M  V30 7266 O 703.098 0.951969 1.55704 0
M  V30 7267 C 703.149 3.52552 -0.799341 0
M  V30 7268 O 702.87 3.80851 -2.16527 0
M  V30 7269 C 704.371 4.4086 -0.464436 0
M  V30 7270 H 701.591 0.633487 -0.221213 0
M  V30 7271 H 704.135 1.62308 -1.24404 0
M  V30 7272 H 702.29 3.86955 -0.185728 0
M  V30 7273 H 702.704 4.75441 -2.21487 0
M  V30 7274 H 704.178 5.47967 -0.666075 0
M  V30 7275 H 704.655 4.35082 0.599995 0
M  V30 7276 H 705.261 4.11977 -1.05617 0
M  V30 7277 N 703.576 0.692616 1.41565 0
M  V30 7278 C 704.824 0.221896 2.00878 0
M  V30 7279 C 705.145 -1.18164 1.5512 0
M  V30 7280 O 704.415 -1.79679 0.78054 0
M  V30 7281 H 702.995 0.0790463 0.742806 0
M  V30 7282 H 705.657 0.893115 1.73232 0
M  V30 7283 H 704.753 0.23702 3.11199 0
M  V30 7284 N 705.054 -1.51416 0.437162 0
M  V30 7285 C 706.004 -2.24599 -0.392311 0
M  V30 7286 C 706.988 -1.2682 -0.990221 0
M  V30 7287 O 708.18 -1.51912 -0.908391 0
M  V30 7288 C 705.309 -3.09134 -1.49301 0
M  V30 7289 C 704.395 -4.14342 -0.904503 0
M  V30 7290 N 704.786 -5.0578 -0.0451511 0
M  V30 7291 C 703.084 -4.30323 -1.1721 0
M  V30 7292 C 703.785 -5.81 0.285344 0
M  V30 7293 N 702.761 -5.42591 -0.330993 0
M  V30 7294 H 706.563 -2.92655 0.270221 0
M  V30 7295 H 704.077 -1.60476 0.249226 0
M  V30 7296 H 706.074 -3.6014 -2.10011 0
M  V30 7297 H 704.734 -2.42622 -2.15788 0
M  V30 7298 H 705.745 -5.16903 0.321271 0
M  V30 7299 H 702.422 -3.75037 -1.83448 0
M  V30 7300 H 703.812 -6.64646 0.984626 0
M  V30 7301 N 706.532 -0.168513 -1.56696 0
M  V30 7302 C 707.772 0.479648 -1.98693 0
M  V30 7303 C 708.136 1.60609 -1.05209 0
M  V30 7304 O 709.337 2.3166 -1.36334 0
M  V30 7305 C 707.608 0.952852 -3.44464 0
M  V30 7306 S 709.167 1.60259 -4.08488 0
M  V30 7307 H 705.985 0.154377 -0.694038 0
M  V30 7308 H 708.587 -0.265312 -1.93691 0
M  V30 7309 H 707.291 0.12257 -4.10217 0
M  V30 7310 H 706.822 1.73192 -3.53225 0
M  V30 7311 H 708.837 2.89065 -4.03307 0
M  V30 7312 N 708.01 1.57248 0.105221 0
M  V30 7313 C 709.24 1.89492 0.823175 0
M  V30 7314 C 709.648 0.75934 1.73294 0
M  V30 7315 O 708.991 -0.278182 1.81581 0
M  V30 7316 C 709.053 3.16891 1.69765 0
M  V30 7317 C 708.717 4.46787 0.960769 0
M  V30 7318 C 709.714 5.19061 0.295218 0
M  V30 7319 C 707.399 4.93467 0.937854 0
M  V30 7320 C 709.393 6.36246 -0.383393 0
M  V30 7321 C 707.08 6.10566 0.255452 0
M  V30 7322 C 708.078 6.81804 -0.404003 0
M  V30 7323 O 707.766 7.96673 -1.07549 0
M  V30 7324 H 707.498 0.631512 0.24118 0
M  V30 7325 H 710.052 2.05203 0.0899655 0
M  V30 7326 H 708.282 2.973 2.47285 0
M  V30 7327 H 709.971 3.35046 2.29126 0
M  V30 7328 H 710.737 4.84044 0.304448 0
M  V30 7329 H 706.616 4.37913 1.44058 0
M  V30 7330 H 710.16 6.91787 -0.898696 0
M  V30 7331 H 706.057 6.45039 0.244032 0
M  V30 7332 H 706.825 8.12596 -0.981355 0
M  V30 7333 N 709.488 -0.375779 1.53054 0
M  V30 7334 C 710.728 -1.12828 1.70438 0
M  V30 7335 C 711.092 -1.86854 0.441527 0
M  V30 7336 O 712.293 -2.64261 0.491908 0
M  V30 7337 C 710.564 -2.07009 2.91345 0
M  V30 7338 S 712.123 -2.89917 3.29383 0
M  V30 7339 H 708.941 -0.381736 0.599832 0
M  V30 7340 H 711.543 -0.4109 1.91133 0
M  V30 7341 H 710.247 -1.51371 3.81464 0
M  V30 7342 H 709.778 -2.83236 2.73022 0
M  V30 7343 H 711.793 -4.0924 2.80601 0
M  V30 7344 N 710.966 -1.44241 -0.634997 0
M  V30 7345 C 711.913 -1.5081 -1.74714 0
M  V30 7346 C 712.883 -0.356147 -1.62237 0
M  V30 7347 O 714.068 -0.565848 -1.82216 0
M  V30 7348 C 711.208 -1.45458 -3.12947 0
M  V30 7349 C 710.321 -2.70998 -3.36428 0
M  V30 7350 C 709.456 -2.57507 -4.64611 0
M  V30 7351 C 708.495 -3.78229 -4.81258 0
M  V30 7352 N 707.632 -3.63438 -6.00714 0
M  V30 7353 H 712.472 -2.45832 -1.68436 0
M  V30 7354 H 710.009 -1.2201 -0.821706 0
M  V30 7355 H 711.967 -1.40347 -3.92885 0
M  V30 7356 H 710.597 -0.540058 -3.1825 0
M  V30 7357 H 709.649 -2.86312 -2.50458 0
M  V30 7358 H 710.961 -3.60619 -3.44609 0
M  V30 7359 H 710.115 -2.50207 -5.52703 0
M  V30 7360 H 708.854 -1.65441 -4.58782 0
M  V30 7361 H 707.859 -3.85918 -3.91596 0
M  V30 7362 H 709.084 -4.71327 -4.88904 0
M  V30 7363 H 707.03 -2.7412 -5.95982 0
M  V30 7364 H 706.947 -4.46672 -6.09934 0
M  V30 7365 H 708.215 -3.60022 -6.91378 0
M  V30 7366 N 712.444 0.87505 -1.31075 0
M  V30 7367 C 713.86 1.15997 -1.09622 0
M  V30 7368 C 714.06 2.01036 0.136611 0
M  V30 7369 O 713.116 2.38559 0.827397 0
M  V30 7370 C 714.429 1.85702 -2.36506 0
M  V30 7371 C 715.977 1.98425 -2.42067 0
M  V30 7372 C 716.452 2.71544 -3.68819 0
M  V30 7373 N 717.943 2.79084 -3.69684 0
M  V30 7374 C 718.678 3.36259 -4.64454 0
M  V30 7375 N 718.174 3.94406 -5.69575 0
M  V30 7376 N 719.967 3.34169 -4.51982 0
M  V30 7377 H 712.118 0.308258 -2.10151 0
M  V30 7378 H 714.381 0.199145 -0.926847 0
M  V30 7379 H 714.087 1.30663 -3.26527 0
M  V30 7380 H 713.961 2.86017 -2.45915 0
M  V30 7381 H 716.348 2.5263 -1.52518 0
M  V30 7382 H 716.429 0.971682 -2.36626 0
M  V30 7383 H 716.073 2.18008 -4.58732 0
M  V30 7384 H 716.003 3.73198 -3.71525 0
M  V30 7385 H 718.494 2.3781 -2.93691 0
M  V30 7386 H 718.807 4.36129 -6.37974 0
M  V30 7387 H 717.152 3.92797 -5.73355 0
M  V30 7388 H 720.343 2.87977 -3.69035 0
M  V30 7389 H 720.516 3.78431 -5.26017 0
M  V30 7390 N 713.922 1.13953 1.08869 0
M  V30 7391 C 714.852 0.844824 2.17681 0
M  V30 7392 C 715.833 -0.198213 1.68941 0
M  V30 7393 O 717.018 -0.0559073 1.9412 0
M  V30 7394 C 714.148 0.316325 3.45856 0
M  V30 7395 C 713.102 1.29426 4.07962 0
M  V30 7396 C 712.428 0.625275 5.31031 0
M  V30 7397 C 713.728 2.65484 4.49795 0
M  V30 7398 H 715.422 1.75471 2.42591 0
M  V30 7399 H 712.968 0.845116 1.16592 0
M  V30 7400 H 714.921 0.0977876 4.21287 0
M  V30 7401 H 713.645 -0.628972 3.20486 0
M  V30 7402 H 712.304 1.49889 3.34558 0
M  V30 7403 H 711.952 -0.325678 5.01945 0
M  V30 7404 H 711.652 1.27777 5.73539 0
M  V30 7405 H 713.176 0.416152 6.0918 0
M  V30 7406 H 714.59 2.48957 5.16424 0
M  V30 7407 H 712.987 3.26963 5.03205 0
M  V30 7408 H 714.057 3.22717 3.61914 0
M  V30 7409 N 715.4 -1.26948 0.933913 0
M  V30 7410 C 716.646 -1.94374 0.57848 0
M  V30 7411 C 716.979 -1.73166 -0.879048 0
M  V30 7412 O 716.254 -1.06438 -1.62792 0
M  V30 7413 C 716.537 -3.4834 0.912739 0
M  V30 7414 C 716.39 -3.78866 2.42448 0
M  V30 7415 C 717.709 -4.38062 0.423003 0
M  V30 7416 H 714.828 -0.705959 0.211639 0
M  V30 7417 H 717.47 -1.49951 1.16682 0
M  V30 7418 H 715.62 -3.86309 0.412058 0
M  V30 7419 H 717.292 -3.50654 2.99733 0
M  V30 7420 H 715.535 -3.25198 2.87104 0
M  V30 7421 H 716.206 -4.86458 2.60887 0
M  V30 7422 H 718.682 -4.0728 0.852191 0
M  V30 7423 H 717.558 -5.44599 0.685776 0
M  V30 7424 H 717.819 -4.36886 -0.676994 0
M  V30 7425 N 716.879 -0.700114 -1.41195 0
M  V30 7426 C 718.107 -0.242179 -2.05478 0
M  V30 7427 C 718.522 1.11029 -1.52702 0
M  V30 7428 O 717.879 1.69473 -0.677127 0
M  V30 7429 C 717.93 -0.196271 -3.60967 0
M  V30 7430 O 717.651 -1.49532 -4.11791 0
M  V30 7431 C 719.152 0.282102 -4.42401 0
M  V30 7432 H 716.372 -0.111749 -0.661629 0
M  V30 7433 H 718.916 -0.953975 -1.80885 0
M  V30 7434 H 717.071 0.46638 -3.84582 0
M  V30 7435 H 717.485 -1.38545 -5.05871 0
M  V30 7436 H 718.959 0.263093 -5.51373 0
M  V30 7437 H 719.436 1.32174 -4.1884 0
M  V30 7438 H 720.042 -0.349712 -4.2386 0
M  V30 7439 N 718.357 1.51182 -0.445186 0
M  V30 7440 C 719.605 2.01753 0.11841 0
M  V30 7441 C 719.926 1.33087 1.42523 0
M  V30 7442 O 719.196 0.467891 1.9023 0
M  V30 7443 H 717.776 0.745536 0.0467492 0
M  V30 7444 H 720.438 1.85765 -0.589688 0
M  V30 7445 H 719.534 3.10762 0.288665 0
M  V30 7446 N 719.835 0.176821 1.56605 0
M  V30 7447 C 720.767 -0.782836 2.15417 0
M  V30 7448 C 721.78 -1.18982 1.11117 0
M  V30 7449 O 722.969 -1.12872 1.38283 0
M  V30 7450 C 720.069 -2.06596 2.68647 0
M  V30 7451 C 719.242 -1.82167 3.9766 0
M  V30 7452 C 718.301 -2.94751 4.35899 0
M  V30 7453 O 717.327 -2.65148 5.03672 0
M  V30 7454 N 718.529 -4.2267 3.97907 0
M  V30 7455 H 721.294 -0.280012 2.98389 0
M  V30 7456 H 718.855 -0.00577529 1.61899 0
M  V30 7457 H 720.847 -2.81018 2.91223 0
M  V30 7458 H 719.417 -2.48054 1.90232 0
M  V30 7459 H 718.637 -0.916208 3.83405 0
M  V30 7460 H 719.925 -1.6322 4.81909 0
M  V30 7461 H 719.323 -4.4958 3.43357 0
M  V30 7462 H 717.88 -4.93778 4.25472 0
M  V30 7463 N 721.313 -1.57302 -0.09688 0
M  V30 7464 C 722.263 -1.98369 -1.12399 0
M  V30 7465 C 723.247 -0.861872 -1.3587 0
M  V30 7466 O 724.439 -1.1257 -1.36591 0
M  V30 7467 C 721.568 -2.41017 -2.4447 0
M  V30 7468 C 720.654 -3.59881 -2.24381 0
M  V30 7469 N 721.045 -4.74872 -1.74155 0
M  V30 7470 C 719.343 -3.65943 -2.54954 0
M  V30 7471 C 720.044 -5.56823 -1.68294 0
M  V30 7472 N 719.02 -4.99942 -2.13444 0
M  V30 7473 H 722.822 -2.84726 -0.728575 0
M  V30 7474 H 720.336 -1.59523 -0.304332 0
M  V30 7475 H 722.333 -2.68665 -3.18786 0
M  V30 7476 H 720.993 -1.56036 -2.84751 0
M  V30 7477 H 722.004 -4.97657 -1.43379 0
M  V30 7478 H 718.681 -2.9162 -2.98771 0
M  V30 7479 H 720.071 -6.59099 -1.30528 0
M  V30 7480 N 722.791 0.367657 -1.53252 0
M  V30 7481 C 724.031 1.11923 -1.71034 0
M  V30 7482 C 724.395 1.86618 -0.45143 0
M  V30 7483 O 725.596 2.63996 -0.505915 0
M  V30 7484 C 723.867 2.05461 -2.92439 0
M  V30 7485 S 725.426 2.88167 -3.30916 0
M  V30 7486 H 722.244 0.378549 -0.601848 0
M  V30 7487 H 724.846 0.400757 -1.91348 0
M  V30 7488 H 723.55 1.49346 -3.82262 0
M  V30 7489 H 723.081 2.81784 -2.7452 0
M  V30 7490 H 725.096 4.07746 -2.82767 0
M  V30 7491 N 724.269 1.44576 0.627338 0
M  V30 7492 C 725.546 1.38033 1.38586 0
M  V30 7493 C 725.926 0.0409468 2.1106 0
M  V30 7494 O 725.274 -0.976582 2.0658 0
M  V30 7495 C 725.484 2.58102 2.34913 0
M  V30 7496 C 726.832 3.02332 2.98129 0
M  V30 7497 O 727.856 2.58334 2.45238 0
M  V30 7498 O 726.715 3.78628 3.94085 0
M  V30 7499 H 723.809 0.546801 0.620434 0
M  V30 7500 H 726.355 1.56672 0.652077 0
M  V30 7501 H 725.127 3.4719 1.80485 0
M  V30 7502 H 724.75 2.41696 3.15703 0
M  V30 7503 N 725.747 -0.868086 1.31537 0
M  V30 7504 C 726.679 -1.98165 1.15166 0
M  V30 7505 C 727.692 -1.6255 0.0902335 0
M  V30 7506 O 728.881 -1.75272 0.33791 0
M  V30 7507 C 725.981 -3.30772 0.737776 0
M  V30 7508 C 725.154 -3.94716 1.88462 0
M  V30 7509 C 724.213 -5.05641 1.45648 0
M  V30 7510 O 723.239 -5.2636 2.16642 0
M  V30 7511 N 724.441 -5.79474 0.34493 0
M  V30 7512 H 727.206 -2.12754 2.11083 0
M  V30 7513 H 724.767 -1.04217 1.23897 0
M  V30 7514 H 726.759 -4.02366 0.434032 0
M  V30 7515 H 725.329 -3.1233 -0.129834 0
M  V30 7516 H 724.549 -3.16079 2.35558 0
M  V30 7517 H 725.837 -4.34175 2.65273 0
M  V30 7518 H 725.235 -5.65164 -0.246259 0
M  V30 7519 H 723.792 -6.51722 0.100728 0
M  V30 7520 N 727.225 -1.14528 -1.08264 0
M  V30 7521 C 728.465 -0.924808 -1.82282 0
M  V30 7522 C 728.829 0.538881 -1.84283 0
M  V30 7523 O 730.03 0.877355 -2.54079 0
M  V30 7524 C 728.301 -1.51102 -3.23887 0
M  V30 7525 S 729.86 -1.43232 -4.14765 0
M  V30 7526 H 726.678 -0.333052 -0.62817 0
M  V30 7527 H 729.28 -1.45905 -1.30123 0
M  V30 7528 H 727.984 -2.56942 -3.20014 0
M  V30 7529 H 727.515 -0.975234 -3.8112 0
M  V30 7530 H 729.53 -0.418843 -4.94429 0
M  V30 7531 N 728.703 1.26451 -0.940633 0
M  V30 7532 C 729.633 2.28773 -0.467479 0
M  V30 7533 C 730.614 1.63218 0.478955 0
M  V30 7534 O 731.799 1.90427 0.380929 0
M  V30 7535 C 728.929 3.46259 0.268656 0
M  V30 7536 C 727.883 4.23898 -0.591171 0
M  V30 7537 C 727.209 5.33993 0.274891 0
M  V30 7538 C 728.509 4.87974 -1.86223 0
M  V30 7539 H 730.203 2.68601 -1.32265 0
M  V30 7540 H 727.749 1.29123 -0.637436 0
M  V30 7541 H 729.702 4.16951 0.610696 0
M  V30 7542 H 728.426 3.05383 1.15796 0
M  V30 7543 H 727.085 3.54969 -0.916098 0
M  V30 7544 H 726.733 4.89358 1.16353 0
M  V30 7545 H 726.433 5.86849 -0.297006 0
M  V30 7546 H 727.957 6.07523 0.612213 0
M  V30 7547 H 729.371 5.50883 -1.58747 0
M  V30 7548 H 727.768 5.50945 -2.37866 0
M  V30 7549 H 728.838 4.10945 -2.57394 0
M  V30 7550 N 730.181 0.707592 1.40822 0
M  V30 7551 C 731.592 0.317011 1.83989 0
M  V30 7552 C 731.943 -1.14697 1.59182 0
M  V30 7553 O 731.068 -1.8818 1.06852 0
M  V30 7554 C 731.663 0.568593 3.33995 0
M  V30 7555 C 730.222 0.231804 3.75686 0
M  V30 7556 C 729.369 0.844933 2.64114 0
M  V30 7557 H 732.32 0.907349 1.30203 0
M  V30 7558 H 732.341 -0.168798 3.80125 0
M  V30 7559 H 731.853 1.63417 3.52018 0
M  V30 7560 H 729.954 -0.82903 3.6326 0
M  V30 7561 H 730.067 0.695219 4.74029 0
M  V30 7562 H 728.431 0.273588 2.53226 0
M  V30 7563 H 729.214 1.91462 2.84951 0
M  V30 7564 N 731.66 -1.50943 0.453197 0
M  V30 7565 C 732.57 -2.31884 -0.355963 0
M  V30 7566 C 733.586 -1.41481 -1.01287 0
M  V30 7567 O 734.762 -1.74546 -1.00477 0
M  V30 7568 C 731.827 -3.15668 -1.43369 0
M  V30 7569 C 730.888 -4.2187 -0.795253 0
M  V30 7570 C 730.121 -5.0165 -1.82162 0
M  V30 7571 O 730.344 -4.82266 -3.04592 0
M  V30 7572 O 729.278 -5.85311 -1.40336 0
M  V30 7573 H 733.104 -3.02162 0.305248 0
M  V30 7574 H 730.689 -1.47839 0.215398 0
M  V30 7575 H 732.571 -3.67709 -2.05836 0
M  V30 7576 H 731.246 -2.48137 -2.07869 0
M  V30 7577 H 730.153 -3.73867 -0.132106 0
M  V30 7578 H 731.486 -4.9182 -0.193484 0
M  V30 7579 N 733.138 -0.185124 -1.56509 0
M  V30 7580 C 734.088 0.752315 -2.15231 0
M  V30 7581 C 735.072 1.18327 -1.0903 0
M  V30 7582 O 736.264 1.14333 -1.35119 0
M  V30 7583 C 733.393 1.97583 -2.80742 0
M  V30 7584 C 732.479 1.56623 -3.94119 0
M  V30 7585 N 732.87 0.867008 -4.98314 0
M  V30 7586 C 731.168 1.85626 -4.05535 0
M  V30 7587 C 731.869 0.663228 -5.77907 0
M  V30 7588 N 730.845 1.20891 -5.29987 0
M  V30 7589 H 734.647 0.209267 -2.93154 0
M  V30 7590 H 732.161 0.0150444 -1.62393 0
M  V30 7591 H 734.158 2.65779 -3.21197 0
M  V30 7592 H 732.818 2.52369 -2.04303 0
M  V30 7593 H 733.829 0.52355 -5.15247 0
M  V30 7594 H 730.506 2.41992 -3.40215 0
M  V30 7595 H 731.896 0.109273 -6.71811 0
M  V30 7596 N 734.616 1.57351 0.0885366 0
M  V30 7597 C 735.862 1.87564 0.786842 0
M  V30 7598 C 736.217 0.776774 1.76023 0
M  V30 7599 O 735.51 -0.220637 1.90325 0
M  V30 7600 C 735.704 3.22098 1.5488 0
M  V30 7601 C 735.533 4.44967 0.650706 0
M  V30 7602 C 734.303 5.04444 0.293957 0
M  V30 7603 C 736.501 5.1428 -0.0452187 0
M  V30 7604 N 734.483 6.10846 -0.611609 0
M  V30 7605 C 735.854 6.14704 -0.808603 0
M  V30 7606 C 737.909 4.97759 -0.118451 0
M  V30 7607 C 736.612 7.00392 -1.63839 0
M  V30 7608 C 738.638 5.8396 -0.935157 0
M  V30 7609 C 738 6.83909 -1.68664 0
M  V30 7610 H 734.099 0.73613 0.263887 0
M  V30 7611 H 736.683 1.94638 0.049074 0
M  V30 7612 H 734.854 3.16064 2.2574 0
M  V30 7613 H 736.586 3.40015 2.19481 0
M  V30 7614 H 733.341 4.69214 0.643086 0
M  V30 7615 H 733.765 6.68695 -1.05714 0
M  V30 7616 H 738.407 4.20418 0.448202 0
M  V30 7617 H 736.125 7.7712 -2.21608 0
M  V30 7618 H 739.711 5.73236 -0.994579 0
M  V30 7619 H 738.591 7.49454 -2.30842 0
M  V30 7620 N 736.094 -0.359525 1.53444 0
M  V30 7621 C 737.342 -1.09935 1.69584 0
M  V30 7622 C 737.663 -1.89656 0.453371 0
M  V30 7623 O 736.933 -1.8852 -0.53263 0
M  V30 7624 H 735.513 -0.408843 0.625185 0
M  V30 7625 H 738.175 -0.40467 1.90653 0
M  V30 7626 H 737.271 -1.78575 2.55964 0
M  V30 7627 N 737.572 -1.44907 -0.619662 0
M  V30 7628 C 738.502 -1.55488 -1.742 0
M  V30 7629 C 739.483 -0.407143 -1.65156 0
M  V30 7630 O 740.668 -0.628743 -1.8374 0
M  V30 7631 C 737.798 -1.5097 -3.1277 0
M  V30 7632 C 736.752 -2.64337 -3.36615 0
M  V30 7633 C 736.078 -2.44872 -4.75333 0
M  V30 7634 C 737.378 -4.06423 -3.28051 0
M  V30 7635 H 739.072 -2.49432 -1.65602 0
M  V30 7636 H 736.618 -1.20047 -0.795281 0
M  V30 7637 H 738.571 -1.56971 -3.91073 0
M  V30 7638 H 737.295 -0.535486 -3.2218 0
M  V30 7639 H 735.954 -2.57744 -2.60698 0
M  V30 7640 H 735.602 -1.45617 -4.81461 0
M  V30 7641 H 735.302 -3.20888 -4.92244 0
M  V30 7642 H 736.826 -2.52709 -5.55851 0
M  V30 7643 H 738.24 -4.14324 -3.96243 0
M  V30 7644 H 736.637 -4.82733 -3.56495 0
M  V30 7645 H 737.707 -4.29183 -2.25676 0
M  V30 7646 N 739.05 0.861098 -1.31996 0
M  V30 7647 C 740.275 1.65264 -1.2531 0
M  V30 7648 C 740.7 1.87265 0.177007 0
M  V30 7649 O 740.058 1.4208 1.12619 0
M  V30 7650 C 740.106 2.99284 -2.0115 0
M  V30 7651 O 739.21 3.89508 -1.3549 0
M  V30 7652 H 738.551 0.50409 -0.432192 0
M  V30 7653 H 741.081 1.07297 -1.74208 0
M  V30 7654 H 741.091 3.49154 -2.11081 0
M  V30 7655 H 739.766 2.82591 -3.05148 0
M  V30 7656 H 738.343 3.47966 -1.34066 0
M  V30 7657 N 740.528 1.15101 1.07655 0
M  V30 7658 C 741.476 0.840714 2.16875 0
M  V30 7659 C 742.47 -0.184594 1.68391 0
M  V30 7660 O 743.676 -0.0399315 1.79956 0
M  V30 7661 H 740.051 0.254192 0.707736 0
M  V30 7662 H 742.022 1.76959 2.40266 0
M  V30 7663 C 740.771 0.343018 3.46004 0
M  V30 7664 H 740.094 1.12335 3.83694 0
M  V30 7665 H 741.534 0.16453 4.23681 0
M  V30 7666 C 739.993 -0.934881 3.23669 0
M  V30 7667 O 740.523 -2.00706 3.47965 0
M  V30 7668 N 738.729 -0.873167 2.77172 0
M  V30 7669 H 738.276 -0.000479072 2.576 0
M  V30 7670 H 738.234 -1.72873 2.62607 0
M  V30 7671 N 742.006 -1.2595 0.947325 0
M  V30 7672 C 743.283 -1.88676 0.515824 0
M  V30 7673 C 743.663 -1.85547 -1.00675 0
M  V30 7674 O 743.011 -1.31399 -1.8694 0
M  V30 7675 C 743.221 -3.31734 1.08415 0
M  V30 7676 C 744.569 -4.08545 1.15654 0
M  V30 7677 O 745.593 -3.40826 1.03517 0
M  V30 7678 O 744.452 -5.29663 1.34608 0
M  V30 7679 H 741.546 -0.809537 0.169055 0
M  V30 7680 H 744.092 -1.34075 1.04029 0
M  V30 7681 H 742.864 -3.28404 2.1276 0
M  V30 7682 H 742.487 -3.93882 0.542499 0
M  V30 7683 N 743.484 -0.715051 -1.40445 0
M  V30 7684 C 744.414 -0.0768699 -2.33373 0
M  V30 7685 C 745.395 0.746109 -1.52863 0
M  V30 7686 O 746.58 0.695142 -1.81332 0
M  V30 7687 C 743.71 0.846014 -3.36838 0
M  V30 7688 C 742.664 0.128694 -4.27806 0
M  V30 7689 C 741.99 1.16726 -5.21804 0
M  V30 7690 C 743.29 -1.01679 -5.12307 0
M  V30 7691 H 744.984 -0.853061 -2.8699 0
M  V30 7692 H 742.53 -0.41167 -1.3799 0
M  V30 7693 H 744.483 1.30185 -4.00786 0
M  V30 7694 H 743.207 1.6541 -2.81615 0
M  V30 7695 H 741.866 -0.307314 -3.6531 0
M  V30 7696 H 741.514 1.96838 -4.62887 0
M  V30 7697 H 741.214 0.692188 -5.83509 0
M  V30 7698 H 742.738 1.62321 -5.88629 0
M  V30 7699 H 744.152 -0.640337 -5.69713 0
M  V30 7700 H 742.549 -1.4202 -5.83053 0
M  V30 7701 H 743.619 -1.84769 -4.48317 0
M  V30 7702 N 744.962 1.50701 -0.461195 0
M  V30 7703 C 746.239 1.94958 0.158296 0
M  V30 7704 C 746.619 1.40111 1.57899 0
M  V30 7705 O 745.967 0.597976 2.20537 0
M  V30 7706 C 746.177 3.48821 0.11172 0
M  V30 7707 C 747.525 4.23499 0.30552 0
M  V30 7708 O 748.549 3.557 0.188758 0
M  V30 7709 O 747.408 5.43823 0.540244 0
M  V30 7710 H 744.502 0.818674 0.117054 0
M  V30 7711 H 747.048 1.61508 -0.520888 0
M  V30 7712 H 745.82 3.81263 -0.880577 0
M  V30 7713 H 745.443 3.88781 0.832791 0
M  V30 7714 N 746.441 0.193421 1.56409 0
M  V30 7715 C 747.689 -0.444908 1.97142 0
M  V30 7716 C 748.01 -1.62268 1.08139 0
M  V30 7717 O 747.28 -1.95307 0.152326 0
M  V30 7718 H 745.86 -0.16736 0.728011 0
M  V30 7719 H 748.522 0.279763 1.92882 0
M  V30 7720 H 747.618 -0.790159 3.01932 0
M  V30 7721 N 747.919 -1.57396 -0.0801906 0
M  V30 7722 C 749.159 -1.88668 -0.786367 0
M  V30 7723 C 749.523 -0.786216 -1.75165 0
M  V30 7724 O 750.724 -0.981769 -2.50229 0
M  V30 7725 C 748.995 -3.25176 -1.48308 0
M  V30 7726 S 750.554 -3.78177 -2.22549 0
M  V30 7727 H 747.372 -0.661094 -0.261679 0
M  V30 7728 H 749.974 -1.95453 -0.0428196 0
M  V30 7729 H 748.678 -4.03176 -0.766629 0
M  V30 7730 H 748.209 -3.21567 -2.26623 0
M  V30 7731 H 750.224 -3.52789 -3.48934 0
M  V30 7732 N 749.397 0.351382 -1.53633 0
M  V30 7733 C 750.813 0.693987 -1.43722 0
M  V30 7734 C 751.013 1.9274 -0.587669 0
M  V30 7735 O 750.069 2.52387 -0.0756082 0
M  V30 7736 C 751.382 0.893937 -2.87105 0
M  V30 7737 C 752.93 0.993051 -2.96829 0
M  V30 7738 C 753.405 1.22537 -4.41303 0
M  V30 7739 N 754.896 1.29275 -4.44795 0
M  V30 7740 C 755.631 1.48988 -5.53706 0
M  V30 7741 N 755.127 1.65924 -6.72637 0
M  V30 7742 N 756.92 1.51472 -5.41306 0
M  V30 7743 H 749.071 -0.459688 -2.07366 0
M  V30 7744 H 751.334 -0.143684 -0.937048 0
M  V30 7745 H 751.04 0.0592517 -3.5165 0
M  V30 7746 H 750.914 1.79795 -3.31592 0
M  V30 7747 H 753.301 1.81827 -2.32429 0
M  V30 7748 H 753.382 0.0661119 -2.55715 0
M  V30 7749 H 753.026 0.405117 -5.06282 0
M  V30 7750 H 752.956 2.16575 -4.80003 0
M  V30 7751 H 755.447 1.17743 -3.59089 0
M  V30 7752 H 755.76 1.80578 -7.51406 0
M  V30 7753 H 754.105 1.63075 -6.75597 0
M  V30 7754 H 757.296 1.37818 -4.47352 0
M  V30 7755 H 757.469 1.66493 -6.26246 0
M  V30 7756 N 750.875 1.45233 0.611969 0
M  V30 7757 C 752.286 1.4354 1.19387 0
M  V30 7758 C 752.637 0.160713 1.95541 0
M  V30 7759 O 751.762 -0.737954 2.03429 0
M  V30 7760 C 752.357 2.60045 2.17169 0
M  V30 7761 C 750.916 2.61486 2.70744 0
M  V30 7762 C 750.063 2.35708 1.46072 0
M  V30 7763 H 753.014 1.53536 0.401529 0
M  V30 7764 H 753.035 2.33893 3.00124 0
M  V30 7765 H 752.547 3.52803 1.61714 0
M  V30 7766 H 750.648 1.72721 3.30149 0
M  V30 7767 H 750.761 3.60572 3.15476 0
M  V30 7768 H 749.125 1.85178 1.74875 0
M  V30 7769 H 749.908 3.30606 0.924922 0
M  V30 7770 N 752.353 -0.854086 1.3245 0
M  V30 7771 C 753.593 -1.62216 1.2436 0
M  V30 7772 C 753.957 -1.91042 -0.191564 0
M  V30 7773 O 755.158 -2.65864 -0.396211 0
M  V30 7774 C 753.429 -2.9066 2.0797 0
M  V30 7775 S 754.988 -3.81438 2.16911 0
M  V30 7776 H 751.806 -0.556386 0.442669 0
M  V30 7777 H 754.408 -1.01139 1.67305 0
M  V30 7778 H 753.112 -2.6743 3.11302 0
M  V30 7779 H 752.643 -3.56753 1.65805 0
M  V30 7780 H 754.658 -4.78347 1.31903 0
M  V30 7781 N 753.831 -1.1567 -1.07043 0
M  V30 7782 C 755.108 -0.843948 -1.76456 0
M  V30 7783 C 755.488 0.659806 -2.00524 0
M  V30 7784 O 754.836 1.60518 -1.62623 0
M  V30 7785 C 755.046 -1.65822 -3.0709 0
M  V30 7786 C 756.394 -1.8664 -3.8138 0
M  V30 7787 O 757.418 -1.62624 -3.1691 0
M  V30 7788 O 756.277 -2.26884 -4.97178 0
M  V30 7789 H 753.371 -0.310677 -0.766426 0
M  V30 7790 H 755.917 -1.26266 -1.1338 0
M  V30 7791 H 754.689 -2.67902 -2.85209 0
M  V30 7792 H 754.312 -1.23605 -3.77899 0
M  V30 7793 N 755.309 1.25446 -0.953992 0
M  V30 7794 C 756.549 1.94894 -0.616087 0
M  V30 7795 C 756.913 1.73067 0.831374 0
M  V30 7796 O 758.114 2.3643 1.27884 0
M  V30 7797 C 756.385 3.44147 -0.964225 0
M  V30 7798 S 757.944 4.32536 -0.738798 0
M  V30 7799 H 754.762 0.673967 -0.226472 0
M  V30 7800 H 757.364 1.52117 -1.22803 0
M  V30 7801 H 756.068 3.57537 -2.01484 0
M  V30 7802 H 755.599 3.91906 -0.342507 0
M  V30 7803 H 757.614 4.94659 0.390732 0
M  V30 7804 N 756.787 0.722489 1.40064 0
M  V30 7805 C 758.064 0.191829 1.94657 0
M  V30 7806 C 758.444 -1.30389 1.66018 0
M  V30 7807 O 757.792 -2.06342 0.981588 0
M  V30 7808 C 758.002 0.511978 3.45224 0
M  V30 7809 C 759.35 0.454426 4.22161 0
M  V30 7810 O 760.374 0.448438 3.53366 0
M  V30 7811 O 759.233 0.437986 5.44742 0
M  V30 7812 H 756.327 0.0307821 0.826427 0
M  V30 7813 H 758.873 0.800493 1.49634 0
M  V30 7814 H 757.645 1.54622 3.59455 0
M  V30 7815 H 757.268 -0.126296 3.97399 0
M  V30 7816 N 758.265 -1.50454 0.469181 0
M  V30 7817 C 759.195 -2.31353 -0.31592 0
M  V30 7818 C 760.176 -1.38172 -0.992094 0
M  V30 7819 O 761.361 -1.67093 -0.989633 0
M  V30 7820 C 758.491 -3.1786 -1.39937 0
M  V30 7821 C 757.445 -4.19578 -0.844909 0
M  V30 7822 C 756.771 -4.9481 -2.0265 0
M  V30 7823 C 758.071 -5.22106 0.142499 0
M  V30 7824 H 759.765 -2.97237 0.359269 0
M  V30 7825 H 757.311 -1.42942 0.174224 0
M  V30 7826 H 759.264 -3.7325 -1.95607 0
M  V30 7827 H 757.988 -2.49858 -2.1033 0
M  V30 7828 H 756.647 -3.65285 -0.310189 0
M  V30 7829 H 756.295 -4.23282 -2.71737 0
M  V30 7830 H 755.995 -5.63613 -1.66174 0
M  V30 7831 H 757.519 -5.53035 -2.58815 0
M  V30 7832 H 758.933 -5.72378 -0.324966 0
M  V30 7833 H 757.33 -5.98618 0.421441 0
M  V30 7834 H 758.4 -4.7297 1.06901 0
M  V30 7835 N 759.743 -0.201713 -1.56304 0
M  V30 7836 C 760.991 0.434447 -1.97375 0
M  V30 7837 C 761.312 1.61692 -1.08998 0
M  V30 7838 O 760.582 1.95223 -0.162682 0
M  V30 7839 H 759.162 0.163497 -0.728888 0
M  V30 7840 H 761.824 -0.289988 -1.92731 0
M  V30 7841 H 760.92 0.774136 -3.02347 0
M  V30 7842 N 761.222 1.57436 0.0718424 0
M  V30 7843 C 762.47 1.86878 0.769484 0
M  V30 7844 C 762.791 0.7937 1.78116 0
M  V30 7845 O 762.061 -0.177642 1.95093 0
M  V30 7846 H 760.641 0.689593 0.287177 0
M  V30 7847 H 763.303 1.94841 0.0479427 0
M  V30 7848 H 762.399 2.84387 1.28572 0
M  V30 7849 N 762.7 -0.34323 1.53817 0
M  V30 7850 C 763.663 -1.40444 1.8113 0
M  V30 7851 C 764.663 -1.45604 0.682366 0
M  V30 7852 O 765.853 -1.45974 0.950649 0
M  V30 7853 C 762.985 -2.79369 1.95361 0
M  V30 7854 H 764.178 -1.17489 2.75928 0
M  V30 7855 H 761.731 -0.577636 1.45234 0
M  V30 7856 H 762.466 -3.07607 1.02707 0
M  V30 7857 H 762.251 -2.7702 2.77493 0
M  V30 7858 H 763.741 -3.56178 2.18008 0
M  V30 7859 N 764.178 -1.45556 -0.604258 0
M  V30 7860 C 765.108 -1.57327 -1.72541 0
M  V30 7861 C 766.089 -0.424637 -1.64714 0
M  V30 7862 O 767.274 -0.648196 -1.83063 0
M  V30 7863 C 764.404 -1.54279 -3.11152 0
M  V30 7864 C 763.358 -2.67893 -3.33792 0
M  V30 7865 C 762.684 -2.499 -4.72709 0
M  V30 7866 C 763.984 -4.0988 -3.23722 0
M  V30 7867 H 765.678 -2.51175 -1.62947 0
M  V30 7868 H 763.224 -1.20884 -0.782504 0
M  V30 7869 H 765.177 -1.6111 -3.89386 0
M  V30 7870 H 763.901 -0.569627 -3.21594 0
M  V30 7871 H 762.56 -2.60495 -2.57949 0
M  V30 7872 H 762.208 -1.50715 -4.79889 0
M  V30 7873 H 761.908 -3.26091 -4.88813 0
M  V30 7874 H 763.432 -2.5859 -5.5314 0
M  V30 7875 H 764.846 -4.18503 -3.91826 0
M  V30 7876 H 763.243 -4.86487 -3.51355 0
M  V30 7877 H 764.313 -4.31553 -2.21111 0
M  V30 7878 N 765.656 0.84705 -1.32902 0
M  V30 7879 C 766.604 1.97765 -1.22441 0
M  V30 7880 C 767.598 1.68919 -0.127546 0
M  V30 7881 O 768.804 1.77633 -0.290973 0
M  V30 7882 H 765.179 0.649072 -0.379748 0
M  V30 7883 H 767.15 2.03713 -2.18044 0
M  V30 7884 C 765.899 3.33834 -0.972125 0
M  V30 7885 H 765.222 3.56564 -1.80837 0
M  V30 7886 H 766.662 4.13467 -0.939209 0
M  V30 7887 C 765.121 3.35328 0.325059 0
M  V30 7888 O 765.651 3.78887 1.33445 0
M  V30 7889 N 763.857 2.88488 0.349718 0
M  V30 7890 H 763.404 2.53234 -0.472236 0
M  V30 7891 H 763.362 2.8987 1.21748 0
M  V30 7892 N 767.134 1.16236 1.06428 0
M  V30 7893 C 768.082 0.863669 2.15971 0
M  V30 7894 C 769.076 -0.166723 1.68578 0
M  V30 7895 O 770.282 -0.0208425 1.79988 0
M  V30 7896 H 766.657 0.261684 0.705 0
M  V30 7897 H 768.628 1.79498 2.38376 0
M  V30 7898 C 767.377 0.379697 3.45621 0
M  V30 7899 H 766.7 1.16399 3.82481 0
M  V30 7900 H 768.14 0.209458 4.23482 0
M  V30 7901 C 766.599 -0.900499 3.24642 0
M  V30 7902 O 767.129 -1.97004 3.50074 0
M  V30 7903 N 765.335 -0.843721 2.78082 0
M  V30 7904 H 764.882 0.0268429 2.57586 0
M  V30 7905 H 764.84 -1.70078 2.64425 0
M  V30 7906 N 768.612 -1.24939 0.960631 0
M  V30 7907 C 769.837 -1.9742 0.635608 0
M  V30 7908 C 770.262 -1.70857 -0.786737 0
M  V30 7909 O 769.62 -0.968063 -1.53291 0
M  V30 7910 C 769.668 -3.48987 0.907771 0
M  V30 7911 O 768.772 -4.12399 -0.0104053 0
M  V30 7912 H 768.113 -0.61871 0.241027 0
M  V30 7913 H 770.643 -1.58901 1.28886 0
M  V30 7914 H 770.653 -3.99334 0.836453 0
M  V30 7915 H 769.328 -3.6765 1.94439 0
M  V30 7916 H 767.905 -3.72727 0.113631 0
M  V30 7917 N 770.09 -0.729906 -1.39679 0
M  V30 7918 C 771.33 -0.280232 -2.0247 0
M  V30 7919 C 771.694 1.11006 -1.56658 0
M  V30 7920 O 772.895 1.65753 -2.11612 0
M  V30 7921 C 771.166 -0.372922 -3.55449 0
M  V30 7922 S 772.725 -0.00233974 -4.388 0
M  V30 7923 H 769.543 -0.110139 -0.702418 0
M  V30 7924 H 772.145 -0.955296 -1.70571 0
M  V30 7925 H 770.849 -1.38616 -3.86282 0
M  V30 7926 H 770.38 0.320136 -3.92095 0
M  V30 7927 H 772.395 1.21544 -4.81084 0
M  V30 7928 N 771.568 1.50203 -0.477153 0
M  V30 7929 C 772.815 2.02358 0.0757385 0
M  V30 7930 C 773.143 1.3587 1.39174 0
M  V30 7931 O 772.398 0.475415 1.89838 0
M  V30 7932 C 772.697 3.56127 0.301325 0
M  V30 7933 C 772.363 4.41126 -0.933725 0
M  V30 7934 C 771.025 4.64075 -1.27233 0
M  V30 7935 C 773.377 4.90737 -1.75576 0
M  V30 7936 C 770.705 5.33878 -2.43292 0
M  V30 7937 C 773.057 5.61816 -2.90768 0
M  V30 7938 C 771.721 5.83016 -3.25036 0
M  V30 7939 H 770.991 0.740482 0.0277147 0
M  V30 7940 H 773.638 1.80754 -0.632467 0
M  V30 7941 H 771.943 3.76279 1.09183 0
M  V30 7942 H 773.64 3.94053 0.743184 0
M  V30 7943 H 770.23 4.23489 -0.659935 0
M  V30 7944 H 774.414 4.72856 -1.50734 0
M  V30 7945 H 769.67 5.48499 -2.70109 0
M  V30 7946 H 773.844 5.99237 -3.54807 0
M  V30 7947 H 771.471 6.36881 -4.15074 0
M  V30 7948 N 773.046 0.209999 1.56195 0
M  V30 7949 C 774.009 -0.691232 2.18528 0
M  V30 7950 C 775.009 -1.13013 1.14388 0
M  V30 7951 O 776.199 -1.04081 1.39688 0
M  V30 7952 C 773.331 -1.94551 2.79934 0
M  V30 7953 H 774.524 -0.147953 2.99535 0
M  V30 7954 H 772.077 -0.0396243 1.5625 0
M  V30 7955 H 772.812 -2.53094 2.02766 0
M  V30 7956 H 772.597 -1.63938 3.56184 0
M  V30 7957 H 774.087 -2.58785 3.2775 0
M  V30 7958 N 774.524 -1.57472 -0.0634922 0
M  V30 7959 C 775.434 -2.07621 -1.09227 0
M  V30 7960 C 776.45 -1.00746 -1.41867 0
M  V30 7961 O 777.626 -1.32269 -1.51878 0
M  V30 7962 C 774.691 -2.51707 -2.38421 0
M  V30 7963 C 773.752 -3.72917 -2.12676 0
M  V30 7964 C 772.985 -4.14891 -3.3571 0
M  V30 7965 O 773.208 -3.56663 -4.45137 0
M  V30 7966 O 772.142 -5.07616 -3.23434 0
M  V30 7967 H 775.968 -2.95612 -0.696205 0
M  V30 7968 H 773.553 -1.46787 -0.27819 0
M  V30 7969 H 775.435 -2.80547 -3.14438 0
M  V30 7970 H 774.11 -1.66842 -2.77391 0
M  V30 7971 H 773.017 -3.49148 -1.34337 0
M  V30 7972 H 774.35 -4.5866 -1.78583 0
M  V30 7973 N 776.003 0.335068 -1.53997 0
M  V30 7974 C 777.228 1.09859 -1.75914 0
M  V30 7975 C 777.653 1.81308 -0.500915 0
M  V30 7976 O 777.011 1.72854 0.54693 0
M  V30 7977 C 777.059 2.08122 -2.94478 0
M  V30 7978 O 776.163 3.15805 -2.65219 0
M  V30 7979 H 775.504 0.317313 -0.583274 0
M  V30 7980 H 778.034 0.382872 -2.00986 0
M  V30 7981 H 778.044 2.51195 -3.21504 0
M  V30 7982 H 776.719 1.55517 -3.8573 0
M  V30 7983 H 775.296 2.77489 -2.49107 0
M  V30 7984 N 777.481 1.45874 0.596531 0
M  V30 7985 C 778.729 1.5017 1.35253 0
M  V30 7986 C 779.05 0.149246 1.94428 0
M  V30 7987 O 778.32 -0.82268 1.77789 0
M  V30 7988 H 776.9 0.553052 0.502138 0
M  V30 7989 H 779.562 1.81908 0.699671 0
M  V30 7990 H 778.658 2.24671 2.16632 0
M  V30 7991 N 778.959 -0.83999 1.33349 0
M  V30 7992 C 779.891 -1.95678 1.19344 0
M  V30 7993 C 780.904 -1.62322 0.124692 0
M  V30 7994 O 782.093 -1.74516 0.375012 0
M  V30 7995 C 779.193 -3.29133 0.807771 0
M  V30 7996 C 778.366 -3.9063 1.96792 0
M  V30 7997 C 777.425 -5.02438 1.56341 0
M  V30 7998 O 776.451 -5.21646 2.27759 0
M  V30 7999 N 777.653 -5.78612 0.467767 0
M  V30 8000 H 780.418 -2.08229 2.15548 0
M  V30 8001 H 777.979 -1.01566 1.26079 0
M  V30 8002 H 779.971 -4.01355 0.519282 0
M  V30 8003 H 778.541 -3.12535 -0.063555 0
M  V30 8004 H 777.761 -3.11011 2.4221 0
M  V30 8005 H 779.049 -4.2845 2.74422 0
M  V30 8006 H 778.447 -5.65559 -0.126324 0
M  V30 8007 H 777.004 -6.51362 0.238945 0
M  V30 8008 N 780.437 -1.16799 -1.0581 0
M  V30 8009 C 781.677 -0.963264 -1.80279 0
M  V30 8010 C 782.041 0.499671 -1.85384 0
M  V30 8011 O 783.242 0.823264 -2.55882 0
M  V30 8012 C 781.513 -1.57938 -3.20609 0
M  V30 8013 S 783.072 -1.51997 -4.11634 0
M  V30 8014 H 779.89 -0.346302 -0.620964 0
M  V30 8015 H 782.492 -1.48632 -1.26999 0
M  V30 8016 H 781.196 -2.63672 -3.14492 0
M  V30 8017 H 780.727 -1.05586 -3.78966 0
M  V30 8018 H 782.742 -0.523625 -4.93429 0
M  V30 8019 N 781.915 1.24427 -0.967243 0
M  V30 8020 C 783.14 1.9708 -0.646069 0
M  V30 8021 C 783.565 1.71272 0.777665 0
M  V30 8022 O 782.923 0.976179 1.52776 0
M  V30 8023 C 782.971 3.48501 -0.926266 0
M  V30 8024 O 782.075 4.12398 -0.0114653 0
M  V30 8025 H 781.416 0.617423 -0.244304 0
M  V30 8026 H 783.946 1.58215 -1.29727 0
M  V30 8027 H 783.956 3.98885 -0.857619 0
M  V30 8028 H 782.631 3.66613 -1.96386 0
M  V30 8029 H 781.208 3.72661 -0.133396 0
M  V30 8030 N 783.393 0.737304 1.3929 0
M  V30 8031 C 784.633 0.290966 2.02318 0
M  V30 8032 C 784.997 -1.10174 1.57244 0
M  V30 8033 O 786.198 -1.64628 2.12488 0
M  V30 8034 C 784.469 0.391767 3.55246 0
M  V30 8035 S 786.028 0.0256103 4.38793 0
M  V30 8036 H 782.846 0.113862 0.701824 0
M  V30 8037 H 785.448 0.964329 1.70062 0
M  V30 8038 H 784.152 1.40662 3.85542 0
M  V30 8039 H 783.683 -0.299338 3.9226 0
M  V30 8040 H 785.698 -1.18991 4.81722 0
M  V30 8041 N 784.871 -1.49948 0.485112 0
M  V30 8042 C 786.287 -1.58984 0.140096 0
M  V30 8043 C 786.487 -1.49194 -1.35438 0
M  V30 8044 O 785.543 -1.35765 -2.12894 0
M  V30 8045 C 786.856 -2.92372 0.702769 0
M  V30 8046 C 788.404 -3.05801 0.66745 0
M  V30 8047 C 788.879 -4.41785 1.20791 0
M  V30 8048 N 790.37 -4.48234 1.16792 0
M  V30 8049 C 791.105 -5.51871 1.55646 0
M  V30 8050 N 790.601 -6.62692 2.02016 0
M  V30 8051 N 792.394 -5.42494 1.47161 0
M  V30 8052 H 784.545 -1.54555 1.45693 0
M  V30 8053 H 786.808 -0.731206 0.603359 0
M  V30 8054 H 786.514 -3.05056 1.75025 0
M  V30 8055 H 786.388 -3.76885 0.154205 0
M  V30 8056 H 788.775 -2.92757 -0.371157 0
M  V30 8057 H 788.856 -2.23011 1.25298 0
M  V30 8058 H 788.5 -4.55579 2.24522 0
M  V30 8059 H 788.43 -5.23188 0.598464 0
M  V30 8060 H 790.921 -3.68718 0.827982 0
M  V30 8061 H 791.234 -7.3785 2.29775 0
M  V30 8062 H 789.579 -6.63775 2.05979 0
M  V30 8063 H 792.77 -4.54806 1.10765 0
M  V30 8064 H 792.943 -6.2314 1.77766 0
M  V30 8065 N 786.349 -0.21828 -1.56081 0
M  V30 8066 C 787.76 0.290166 -1.84431 0
M  V30 8067 C 788.111 1.59712 -1.13958 0
M  V30 8068 O 787.236 2.12516 -0.40815 0
M  V30 8069 C 787.831 0.53325 -3.34577 0
M  V30 8070 C 786.39 0.986011 -3.63256 0
M  V30 8071 C 785.537 0.0472798 -2.7726 0
M  V30 8072 H 788.488 -0.441548 -1.52434 0
M  V30 8073 H 788.509 1.37967 -3.54606 0
M  V30 8074 H 788.021 -0.418137 -3.85841 0
M  V30 8075 H 786.122 1.95087 -3.17446 0
M  V30 8076 H 786.235 0.862684 -4.71269 0
M  V30 8077 H 784.599 0.553471 -2.48614 0
M  V30 8078 H 785.382 -0.898966 -3.31321 0
M  V30 8079 N 787.827 1.57504 0.0551401 0
M  V30 8080 C 788.777 2.0128 1.071 0
M  V30 8081 C 789.761 0.897592 1.33537 0
M  V30 8082 O 790.953 1.16151 1.33558 0
M  V30 8083 C 788.082 2.47414 2.37994 0
M  V30 8084 C 787.168 3.65703 2.14761 0
M  V30 8085 N 787.559 4.79323 1.61504 0
M  V30 8086 C 785.857 3.72574 2.45162 0
M  V30 8087 C 786.558 5.61089 1.53472 0
M  V30 8088 N 785.534 5.05426 2.00114 0
M  V30 8089 H 789.336 2.86558 0.652829 0
M  V30 8090 H 786.85 1.60274 0.26193 0
M  V30 8091 H 788.847 2.77023 3.11551 0
M  V30 8092 H 787.507 1.6353 2.80514 0
M  V30 8093 H 788.518 5.01284 1.30134 0
M  V30 8094 H 785.195 2.99439 2.90934 0
M  V30 8095 H 786.585 6.62328 1.13008 0
M  V30 8096 N 789.305 -0.326896 1.54172 0
M  V30 8097 C 790.238 -1.42591 1.78166 0
M  V30 8098 C 791.216 -1.49837 0.631484 0
M  V30 8099 O 792.4 -1.67298 0.868544 0
M  V30 8100 C 789.527 -2.8071 1.89524 0
M  V30 8101 C 788.573 -2.91012 3.11792 0
M  V30 8102 S 789.406 -2.55763 4.70474 0
M  V30 8103 C 790.562 -3.9596 4.84733 0
M  V30 8104 H 790.795 -1.22024 2.71104 0
M  V30 8105 H 788.328 -0.523539 1.45253 0
M  V30 8106 H 790.286 -3.60276 1.96753 0
M  V30 8107 H 788.947 -2.98562 0.975696 0
M  V30 8108 H 788.14 -3.92258 3.16464 0
M  V30 8109 H 787.742 -2.19414 3.02876 0
M  V30 8110 H 790.034 -4.90676 4.67166 0
M  V30 8111 H 790.977 -3.96273 5.86833 0
M  V30 8112 H 791.385 -3.8476 4.13062 0
M  V30 8113 N 790.784 -1.46188 -0.588786 0
M  V30 8114 C 792.033 -1.50452 -1.34339 0
M  V30 8115 C 792.346 -0.158096 -1.9496 0
M  V30 8116 O 793.552 -0.0784918 -2.71387 0
M  V30 8117 C 792.008 -2.65074 -2.43441 0
M  V30 8118 C 791.616 -4.06111 -1.8915 0
M  V30 8119 C 793.36 -2.78603 -3.20282 0
M  V30 8120 C 791.267 -5.12084 -2.95845 0
M  V30 8121 H 790.197 -0.559905 -0.504997 0
M  V30 8122 H 792.848 -1.72382 -0.629014 0
M  V30 8123 H 791.23 -2.36462 -3.1765 0
M  V30 8124 H 792.404 -4.44487 -1.21524 0
M  V30 8125 H 790.719 -3.97197 -1.24995 0
M  V30 8126 H 793.316 -3.54944 -3.99898 0
M  V30 8127 H 793.659 -1.85902 -3.72486 0
M  V30 8128 H 794.192 -3.06832 -2.53178 0
M  V30 8129 H 790.931 -6.06556 -2.48535 0
M  V30 8130 H 790.451 -4.78259 -3.61979 0
M  V30 8131 H 792.13 -5.37661 -3.59902 0
M  V30 8132 N 792.262 0.832906 -1.33792 0
M  V30 8133 C 793.51 1.58539 -1.25338 0
M  V30 8134 C 793.831 1.94175 0.179204 0
M  V30 8135 O 793.101 1.61458 1.10941 0
M  V30 8136 H 791.681 0.58784 -0.460926 0
M  V30 8137 H 794.343 0.995064 -1.67584 0
M  V30 8138 H 793.439 2.51268 -1.85123 0
M  V30 8139 N 793.74 1.17359 1.05189 0
M  V30 8140 C 795.156 0.920861 1.30355 0
M  V30 8141 C 795.356 -0.419993 1.97074 0
M  V30 8142 O 794.412 -1.15696 2.24434 0
M  V30 8143 C 795.725 2.07818 2.1733 0
M  V30 8144 C 797.273 2.1152 2.30712 0
M  V30 8145 C 797.748 3.26637 3.21048 0
M  V30 8146 N 799.239 3.26426 3.28634 0
M  V30 8147 C 799.974 4.12141 3.98657 0
M  V30 8148 N 799.47 5.07966 4.71107 0
M  V30 8149 N 801.263 4.00091 3.94821 0
M  V30 8150 H 793.414 2.03666 0.602821 0
M  V30 8151 H 795.677 0.889294 0.328421 0
M  V30 8152 H 795.383 3.04727 1.75597 0
M  V30 8153 H 795.257 2.02922 3.17966 0
M  V30 8154 H 797.644 1.15196 2.71687 0
M  V30 8155 H 797.725 2.20477 1.29706 0
M  V30 8156 H 797.369 4.23227 2.80788 0
M  V30 8157 H 797.299 3.14917 4.2206 0
M  V30 8158 H 799.79 2.57045 2.77013 0
M  V30 8159 H 800.103 5.69766 5.22099 0
M  V30 8160 H 798.448 5.11936 4.7005 0
M  V30 8161 H 801.639 3.24523 3.37346 0
M  V30 8162 H 801.812 4.6711 4.49123 0
M  V30 8163 N 795.218 -1.23913 0.973828 0
M  V30 8164 C 796.15 -2.24397 0.466763 0
M  V30 8165 C 797.163 -1.57078 -0.427828 0
M  V30 8166 O 798.352 -1.76973 -0.233019 0
M  V30 8167 C 795.452 -3.37141 -0.344798 0
M  V30 8168 C 794.625 -4.34037 0.541349 0
M  V30 8169 C 793.684 -5.2576 -0.215243 0
M  V30 8170 O 792.71 -5.67842 0.39291 0
M  V30 8171 N 793.912 -5.60702 -1.5031 0
M  V30 8172 H 796.677 -2.68536 1.33074 0
M  V30 8173 H 794.238 -1.38017 0.846346 0
M  V30 8174 H 796.23 -3.95476 -0.859133 0
M  V30 8175 H 794.8 -2.92239 -1.10974 0
M  V30 8176 H 794.02 -3.74302 1.23659 0
M  V30 8177 H 795.308 -4.95738 1.1455 0
M  V30 8178 H 794.706 -5.28451 -2.01882 0
M  V30 8179 H 793.263 -6.21538 -1.96301 0
M  V30 8180 N 796.696 -0.74468 -1.38897 0
M  V30 8181 C 797.936 -0.301691 -2.02161 0
M  V30 8182 C 798.3 1.09338 -1.57826 0
M  V30 8183 O 799.501 1.63499 -2.13358 0
M  V30 8184 C 797.772 -0.410601 -3.55034 0
M  V30 8185 S 799.331 -0.0488802 -4.38773 0
M  V30 8186 H 796.149 -0.117583 -0.70121 0
M  V30 8187 H 798.751 -0.973334 -1.69548 0
M  V30 8188 H 797.455 -1.42705 -3.8479 0
M  V30 8189 H 796.986 0.278531 -3.92413 0
M  V30 8190 H 799.001 1.16434 -4.82346 0
M  V30 8191 N 798.174 1.49689 -0.493057 0
M  V30 8192 C 799.122 2.30613 0.303383 0
M  V30 8193 C 800.116 1.38867 0.970165 0
M  V30 8194 O 801.322 1.55956 0.898761 0
M  V30 8195 H 797.697 0.742891 0.116691 0
M  V30 8196 H 799.668 2.95717 -0.39924 0
M  V30 8197 C 798.417 3.20008 1.35978 0
M  V30 8198 H 797.74 3.90526 0.856103 0
M  V30 8199 H 799.18 3.79586 1.88919 0
M  V30 8200 C 797.639 2.39079 2.37367 0
M  V30 8201 O 798.169 2.08933 3.43089 0
M  V30 8202 N 796.375 2.0125 2.09635 0
M  V30 8203 H 795.922 2.25966 1.23682 0
M  V30 8204 H 795.88 1.47408 2.77702 0
M  V30 8205 N 799.652 0.226554 1.55963 0
M  V30 8206 C 800.562 -0.692725 2.24139 0
M  V30 8207 C 801.578 -1.20971 1.25068 0
M  V30 8208 O 802.754 -1.25027 1.57893 0
M  V30 8209 C 799.819 -1.88183 2.91184 0
M  V30 8210 C 798.88 -1.40633 4.05612 0
M  V30 8211 C 798.113 -2.53875 4.6945 0
M  V30 8212 O 798.336 -3.72129 4.32292 0
M  V30 8213 O 797.27 -2.24792 5.58348 0
M  V30 8214 H 801.096 -0.141921 3.03368 0
M  V30 8215 H 798.681 -0.0041049 1.49399 0
M  V30 8216 H 800.563 -2.57617 3.33484 0
M  V30 8217 H 799.238 -2.42064 2.14911 0
M  V30 8218 H 798.145 -0.67986 3.67871 0
M  V30 8219 H 799.478 -0.913838 4.83642 0
M  V30 8220 N 801.13 -1.57531 -0.0467866 0
M  V30 8221 C 802.376 -1.8873 -0.742218 0
M  V30 8222 C 802.709 -0.822084 -1.75941 0
M  V30 8223 O 801.984 0.164922 -1.938 0
M  V30 8224 C 802.267 -3.30586 -1.42776 0
M  V30 8225 C 802.12 -4.47785 -0.425285 0
M  V30 8226 C 803.439 -3.71068 -2.36636 0
M  V30 8227 H 800.558 -0.686406 -0.268359 0
M  V30 8228 H 803.2 -1.89999 -0.00511341 0
M  V30 8229 H 801.35 -3.29634 -2.05605 0
M  V30 8230 H 803.022 -4.60867 0.199721 0
M  V30 8231 H 801.265 -4.33037 0.25713 0
M  V30 8232 H 801.936 -5.43884 -0.943086 0
M  V30 8233 H 804.412 -3.73273 -1.83866 0
M  V30 8234 H 803.288 -4.71165 -2.81593 0
M  V30 8235 H 803.549 -3.02355 -3.22542 0
M  V30 8236 N 802.608 0.318715 -1.54344 0
M  V30 8237 C 803.518 1.41535 -1.87097 0
M  V30 8238 C 804.534 1.56361 -0.763353 0
M  V30 8239 O 805.71 1.71365 -1.05811 0
M  V30 8240 C 802.775 2.76178 -2.09587 0
M  V30 8241 C 801.836 2.70486 -3.3337 0
M  V30 8242 C 801.069 3.98708 -3.54778 0
M  V30 8243 O 801.292 4.9721 -2.79532 0
M  V30 8244 O 800.226 4.01674 -4.48266 0
M  V30 8245 H 804.052 1.16764 -2.80357 0
M  V30 8246 H 801.637 0.51318 -1.4031 0
M  V30 8247 H 803.519 3.55873 -2.25682 0
M  V30 8248 H 802.194 3.00829 -1.19514 0
M  V30 8249 H 801.101 1.89325 -3.22656 0
M  V30 8250 H 802.434 2.50789 -4.23516 0
M  V30 8251 N 804.086 1.46499 0.581025 0
M  V30 8252 C 805.497 1.4604 1.16315 0
M  V30 8253 C 805.848 0.202154 1.95156 0
M  V30 8254 O 804.973 -0.694638 2.04948 0
M  V30 8255 C 805.568 2.64593 2.11604 0
M  V30 8256 C 804.127 2.6717 2.65136 0
M  V30 8257 C 803.274 2.38753 1.4104 0
M  V30 8258 H 806.225 1.54354 0.368871 0
M  V30 8259 H 806.246 2.40207 2.95095 0
M  V30 8260 H 805.758 3.56154 1.54194 0
M  V30 8261 H 803.859 1.79685 3.26411 0
M  V30 8262 H 803.972 3.67182 3.07757 0
M  V30 8263 H 802.336 1.88845 1.70908 0
M  V30 8264 H 803.119 3.32493 0.854588 0
M  V30 8265 N 805.565 -0.825799 1.34232 0
M  V30 8266 C 806.813 -1.57873 1.26177 0
M  V30 8267 C 807.134 -1.94267 -0.168904 0
M  V30 8268 O 806.404 -1.62045 -1.10084 0
M  V30 8269 H 804.984 -0.585388 0.464037 0
M  V30 8270 H 807.646 -0.986163 1.6811 0
M  V30 8271 H 806.742 -2.50283 1.86453 0
M  V30 8272 N 807.043 -1.17915 -1.04565 0
M  V30 8273 C 808.273 -0.994716 -1.81077 0
M  V30 8274 C 808.681 0.460146 -1.83519 0
M  V30 8275 O 808.024 1.33136 -1.26572 0
M  V30 8276 C 808.086 -1.46698 -3.28207 0
M  V30 8277 C 807.75 -2.94523 -3.49436 0
M  V30 8278 C 808.747 -3.92414 -3.41038 0
M  V30 8279 C 806.432 -3.32841 -3.76194 0
M  V30 8280 C 808.426 -5.2662 -3.59096 0
M  V30 8281 C 806.113 -4.67212 -3.93899 0
M  V30 8282 C 807.111 -5.6391 -3.8535 0
M  V30 8283 O 806.799 -6.95849 -4.02554 0
M  V30 8284 H 806.531 -0.351797 -0.577248 0
M  V30 8285 H 809.085 -1.56772 -1.32709 0
M  V30 8286 H 807.315 -0.837592 -3.7752 0
M  V30 8287 H 809.004 -1.24724 -3.86263 0
M  V30 8288 H 809.77 -3.64157 -3.20336 0
M  V30 8289 H 805.649 -2.58139 -3.81949 0
M  V30 8290 H 809.193 -6.02082 -3.52339 0
M  V30 8291 H 805.09 -4.95172 -4.14095 0
M  V30 8292 H 805.858 -7.02679 -4.19743 0
M  V30 8293 N 808.521 1.23394 -0.980386 0
M  V30 8294 C 809.751 1.9556 -0.666319 0
M  V30 8295 C 810.159 1.72786 0.770815 0
M  V30 8296 O 809.502 1.0162 1.53033 0
M  V30 8297 C 809.564 3.48643 -0.876825 0
M  V30 8298 C 809.228 3.95135 -2.29602 0
M  V30 8299 C 810.225 4.03806 -3.2747 0
M  V30 8300 C 807.91 4.28122 -2.62711 0
M  V30 8301 C 809.904 4.44818 -4.56526 0
M  V30 8302 C 807.591 4.68814 -3.9199 0
M  V30 8303 C 808.589 4.77129 -4.88709 0
M  V30 8304 O 808.277 5.16908 -6.15679 0
M  V30 8305 H 808.009 0.629422 -0.246585 0
M  V30 8306 H 810.563 1.57839 -1.31438 0
M  V30 8307 H 808.793 3.86319 -0.171587 0
M  V30 8308 H 810.482 4.0202 -0.55992 0
M  V30 8309 H 811.248 3.78526 -3.03222 0
M  V30 8310 H 807.127 4.20861 -1.8814 0
M  V30 8311 H 810.671 4.51223 -5.32018 0
M  V30 8312 H 806.568 4.93545 -4.16033 0
M  V30 8313 H 807.336 5.3502 -6.19432 0
M  V30 8314 N 809.999 0.752036 1.385 0
M  V30 8315 C 811.246 0.307503 2.00152 0
M  V30 8316 C 811.574 -1.11033 1.59693 0
M  V30 8317 O 810.829 -1.77455 0.825125 0
M  V30 8318 C 811.128 0.376155 3.55415 0
M  V30 8319 C 810.794 1.74942 4.15579 0
M  V30 8320 C 809.456 2.12525 4.31725 0
M  V30 8321 C 811.808 2.65031 4.48785 0
M  V30 8322 C 809.136 3.39671 4.78373 0
M  V30 8323 C 811.488 3.91567 4.96848 0
M  V30 8324 C 810.152 4.2922 5.11201 0
M  V30 8325 H 809.422 0.112523 0.732407 0
M  V30 8326 H 812.069 0.962213 1.65571 0
M  V30 8327 H 810.374 -0.362121 3.90123 0
M  V30 8328 H 812.071 0.0138065 4.00998 0
M  V30 8329 H 808.661 1.44726 4.03426 0
M  V30 8330 H 812.845 2.3726 4.35914 0
M  V30 8331 H 808.101 3.68765 4.8767 0
M  V30 8332 H 812.275 4.61517 5.21512 0
M  V30 8333 H 809.902 5.27805 5.47107 0
M  V30 8334 N 811.477 -1.49425 0.500989 0
M  V30 8335 C 812.44 -2.27646 -0.266416 0
M  V30 8336 C 813.44 -1.3366 -0.893961 0
M  V30 8337 O 814.63 -1.5682 -0.758495 0
M  V30 8338 C 811.762 -3.11618 -1.38227 0
M  V30 8339 H 812.955 -2.96945 0.419973 0
M  V30 8340 H 810.508 -1.5419 0.255954 0
M  V30 8341 H 811.243 -2.46885 -2.10281 0
M  V30 8342 H 811.028 -3.80721 -0.937746 0
M  V30 8343 H 812.518 -3.70698 -1.92283 0
M  V30 8344 N 812.955 -0.234822 -1.55841 0
M  V30 8345 C 814.183 0.397745 -2.03041 0
M  V30 8346 C 814.598 1.52405 -1.11437 0
M  V30 8347 O 813.955 1.82061 -0.126466 0
M  V30 8348 C 814.006 0.916919 -3.49678 0
M  V30 8349 O 813.727 -0.164493 -4.37791 0
M  V30 8350 C 815.228 1.62139 -4.12584 0
M  V30 8351 H 812.448 0.0959214 -0.664108 0
M  V30 8352 H 814.992 -0.355156 -2.01392 0
M  V30 8353 H 813.147 1.62004 -3.519 0
M  V30 8354 H 813.561 0.227794 -5.24005 0
M  V30 8355 H 815.035 1.93651 -5.16917 0
M  V30 8356 H 815.512 2.53918 -3.58361 0
M  V30 8357 H 816.118 0.963145 -4.14251 0
M  V30 8358 N 814.433 1.57553 0.0384317 0
M  V30 8359 C 815.363 2.0898 1.04161 0
M  V30 8360 C 816.344 0.99029 1.38301 0
M  V30 8361 O 817.529 1.26499 1.47349 0
M  V30 8362 C 814.659 2.56145 2.34536 0
M  V30 8363 C 813.613 3.70275 2.14663 0
M  V30 8364 C 812.939 4.03612 3.50715 0
M  V30 8365 C 814.239 4.99067 1.54045 0
M  V30 8366 H 815.933 2.93046 0.613548 0
M  V30 8367 H 813.479 1.40973 0.293684 0
M  V30 8368 H 815.432 2.90741 3.05037 0
M  V30 8369 H 814.156 1.6915 2.79385 0
M  V30 8370 H 812.815 3.36013 1.46597 0
M  V30 8371 H 812.463 3.13698 3.93195 0
M  V30 8372 H 812.163 4.80482 3.38247 0
M  V30 8373 H 813.687 4.40735 4.22593 0
M  V30 8374 H 815.101 5.3168 2.14451 0
M  V30 8375 H 813.498 5.80484 1.52178 0
M  V30 8376 H 814.568 4.8226 0.505259 0
M  V30 8377 N 815.911 -0.310526 1.54511 0
M  V30 8378 C 817.188 -1.06593 1.64004 0
M  V30 8379 C 817.568 -2.05519 0.482216 0
M  V30 8380 O 816.916 -2.22455 -0.52212 0
M  V30 8381 C 817.126 -1.75627 3.01589 0
M  V30 8382 C 818.474 -2.28173 3.58081 0
M  V30 8383 O 819.498 -1.85674 3.03979 0
M  V30 8384 O 818.357 -3.06015 4.52788 0
M  V30 8385 H 815.451 -0.492109 0.664649 0
M  V30 8386 H 817.997 -0.309374 1.66856 0
M  V30 8387 H 816.769 -1.03743 3.77297 0
M  V30 8388 H 816.392 -2.58061 3.02473 0
M  V30 8389 N 817.389 -1.46805 -0.573248 0
M  V30 8390 C 818.339 -1.54497 -1.67674 0
M  V30 8391 C 819.323 -0.405117 -1.55716 0
M  V30 8392 O 820.515 -0.654097 -1.64471 0
M  V30 8393 C 817.644 -1.54717 -3.0646 0
M  V30 8394 C 816.73 -2.7403 -3.2368 0
M  V30 8395 N 817.121 -3.98871 -3.11023 0
M  V30 8396 C 815.419 -2.70453 -3.54642 0
M  V30 8397 C 816.12 -4.78689 -3.30502 0
M  V30 8398 N 815.096 -4.10727 -3.56096 0
M  V30 8399 H 818.898 -2.48809 -1.56433 0
M  V30 8400 H 816.412 -1.42576 -0.777554 0
M  V30 8401 H 818.409 -1.58316 -3.8567 0
M  V30 8402 H 817.069 -0.614886 -3.18825 0
M  V30 8403 H 818.08 -4.29976 -2.88688 0
M  V30 8404 H 814.757 -1.86291 -3.73633 0
M  V30 8405 H 816.147 -5.87615 -3.2582 0
M  V30 8406 N 818.867 0.818669 -1.34668 0
M  V30 8407 C 820.097 1.60441 -1.30162 0
M  V30 8408 C 820.505 1.88783 0.125579 0
M  V30 8409 O 819.848 1.48281 1.08437 0
M  V30 8410 C 819.91 2.96794 -2.02864 0
M  V30 8411 C 819.574 2.91327 -3.52105 0
M  V30 8412 C 820.571 2.65611 -4.4693 0
M  V30 8413 C 818.256 3.10825 -3.9458 0
M  V30 8414 C 820.25 2.59452 -5.82206 0
M  V30 8415 C 817.937 3.0429 -5.29954 0
M  V30 8416 C 818.935 2.78637 -6.23579 0
M  V30 8417 O 818.623 2.72042 -7.56471 0
M  V30 8418 H 818.355 0.505278 -0.449077 0
M  V30 8419 H 820.909 1.02632 -1.77921 0
M  V30 8420 H 819.139 3.56538 -1.49725 0
M  V30 8421 H 820.828 3.57837 -1.91592 0
M  V30 8422 H 821.594 2.50278 -4.15434 0
M  V30 8423 H 817.473 3.29807 -3.221 0
M  V30 8424 H 821.017 2.39349 -6.55254 0
M  V30 8425 H 816.914 3.19177 -5.61067 0
M  V30 8426 H 817.682 2.87738 -7.66257 0
M  V30 8427 N 820.346 1.18468 1.03938 0
M  V30 8428 C 821.276 0.936389 2.13902 0
M  V30 8429 C 822.257 -0.126381 1.6963 0
M  V30 8430 O 823.442 0.0264757 1.94182 0
M  V30 8431 C 820.572 0.462729 3.44204 0
M  V30 8432 C 819.526 1.46613 4.02105 0
M  V30 8433 C 818.852 0.84994 5.27902 0
M  V30 8434 C 820.152 2.84323 4.3813 0
M  V30 8435 H 821.846 1.85602 2.3493 0
M  V30 8436 H 819.392 0.893806 1.12903 0
M  V30 8437 H 821.345 0.276382 4.20493 0
M  V30 8438 H 820.069 -0.492477 3.22866 0
M  V30 8439 H 818.728 1.63944 3.27899 0
M  V30 8440 H 818.376 -0.112493 5.02874 0
M  V30 8441 H 818.076 1.51988 5.67603 0
M  V30 8442 H 819.6 0.674152 6.06867 0
M  V30 8443 H 821.014 2.70636 5.054 0
M  V30 8444 H 819.411 3.48012 4.88884 0
M  V30 8445 H 820.481 3.37776 3.47901 0
M  V30 8446 N 821.824 -1.22873 0.986916 0
M  V30 8447 C 823.054 -1.95204 0.67668 0
M  V30 8448 C 823.462 -1.73193 -0.761641 0
M  V30 8449 O 822.805 -1.0243 -1.52492 0
M  V30 8450 C 822.867 -3.48173 0.895302 0
M  V30 8451 C 822.531 -3.93912 2.31695 0
M  V30 8452 C 823.528 -4.02064 3.29607 0
M  V30 8453 C 821.213 -4.26722 2.64978 0
M  V30 8454 C 823.207 -4.42391 4.58878 0
M  V30 8455 C 820.894 -4.66729 3.94471 0
M  V30 8456 C 821.892 -4.74531 4.91232 0
M  V30 8457 O 821.58 -5.13636 6.18412 0
M  V30 8458 H 821.312 -0.628105 0.24992 0
M  V30 8459 H 823.866 -1.5714 1.32274 0
M  V30 8460 H 822.096 -3.86223 0.192072 0
M  V30 8461 H 823.785 -4.01717 0.581233 0
M  V30 8462 H 824.551 -3.76912 3.05225 0
M  V30 8463 H 820.43 -4.19858 1.9037 0
M  V30 8464 H 823.974 -4.48395 5.34404 0
M  V30 8465 H 819.871 -4.91332 4.18645 0
M  V30 8466 H 820.639 -5.31728 6.2226 0
M  V30 8467 N 823.302 -0.75937 -1.38099 0
M  V30 8468 C 824.212 -0.13774 -2.34195 0
M  V30 8469 C 825.228 0.693985 -1.59561 0
M  V30 8470 O 826.404 0.616792 -1.91723 0
M  V30 8471 C 823.469 0.740535 -3.38699 0
M  V30 8472 C 822.53 -0.106225 -4.29169 0
M  V30 8473 C 821.763 0.730225 -5.28681 0
M  V30 8474 O 821.986 1.96796 -5.35376 0
M  V30 8475 O 820.92 0.145969 -6.01723 0
M  V30 8476 H 824.746 -0.931512 -2.89061 0
M  V30 8477 H 822.331 -0.520345 -1.40046 0
M  V30 8478 H 824.213 1.24232 -4.02672 0
M  V30 8479 H 822.888 1.51271 -2.8618 0
M  V30 8480 H 821.795 -0.654088 -3.68337 0
M  V30 8481 H 823.128 -0.841186 -4.84959 0
M  V30 8482 N 824.78 1.49157 -0.508906 0
M  V30 8483 C 825.743 2.27784 0.25434 0
M  V30 8484 C 826.743 1.34132 0.88686 0
M  V30 8485 O 827.933 1.5722 0.750168 0
M  V30 8486 C 825.065 3.12347 1.36573 0
M  V30 8487 H 826.258 2.96718 -0.435714 0
M  V30 8488 H 823.811 1.54052 -0.264128 0
M  V30 8489 H 824.546 2.47997 2.08969 0
M  V30 8490 H 824.331 3.81213 0.917543 0
M  V30 8491 H 825.821 3.71712 1.90315 0
M  V30 8492 N 826.258 0.243083 1.55714 0
M  V30 8493 C 827.168 -0.668913 2.24862 0
M  V30 8494 C 828.184 -1.19638 1.26344 0
M  V30 8495 O 829.36 -1.23345 1.5921 0
M  V30 8496 C 826.425 -1.85084 2.93163 0
M  V30 8497 C 825.486 -1.36323 4.07081 0
M  V30 8498 C 824.719 -2.48882 4.72116 0
M  V30 8499 O 824.942 -3.67523 4.36214 0
M  V30 8500 O 823.876 -2.18857 5.60701 0
M  V30 8501 H 827.702 -0.109737 3.03502 0
M  V30 8502 H 825.287 0.0117411 1.49395 0
M  V30 8503 H 827.169 -2.54065 3.36197 0
M  V30 8504 H 825.844 -2.39771 2.17466 0
M  V30 8505 H 824.751 -0.640804 3.68571 0
M  V30 8506 H 826.084 -0.86249 4.84584 0
M  V30 8507 N 827.736 -1.57571 -0.0300757 0
M  V30 8508 C 828.646 -2.09892 -1.04798 0
M  V30 8509 C 829.662 -1.03732 -1.39698 0
M  V30 8510 O 830.838 -1.35461 -1.49038 0
M  V30 8511 C 827.903 -2.56707 -2.33028 0
M  V30 8512 C 826.964 -3.77345 -2.04718 0
M  V30 8513 C 826.197 -4.21918 -3.26834 0
M  V30 8514 O 826.42 -3.66025 -4.37472 0
M  V30 8515 O 825.354 -5.14362 -3.12594 0
M  V30 8516 H 829.18 -2.97023 -0.633344 0
M  V30 8517 H 826.765 -1.47344 -0.246991 0
M  V30 8518 H 828.647 -2.87154 -3.08417 0
M  V30 8519 H 827.322 -1.72688 -2.73789 0
M  V30 8520 H 826.229 -3.51919 -1.26901 0
M  V30 8521 H 827.562 -4.62345 -1.68813 0
M  V30 8522 N 829.214 0.302327 -1.54673 0
M  V30 8523 C 830.177 1.35592 -1.8479 0
M  V30 8524 C 831.177 1.43743 -0.72073 0
M  V30 8525 O 832.367 1.43402 -0.989017 0
M  V30 8526 C 829.499 2.74091 -2.02699 0
M  V30 8527 H 830.692 1.10132 -2.78946 0
M  V30 8528 H 828.245 0.538926 -1.46715 0
M  V30 8529 H 828.98 3.04775 -1.10826 0
M  V30 8530 H 828.765 2.69565 -2.8474 0
M  V30 8531 H 830.255 3.50272 -2.27374 0
M  V30 8532 N 830.692 1.47107 0.565454 0
M  V30 8533 C 831.64 1.59368 1.69424 0
M  V30 8534 C 832.634 0.461344 1.62997 0
M  V30 8535 O 833.84 0.638849 1.68282 0
M  V30 8536 H 830.215 0.501387 0.560459 0
M  V30 8537 H 832.186 2.54242 1.56217 0
M  V30 8538 C 830.935 1.61739 3.07792 0
M  V30 8539 H 830.258 2.48215 3.13416 0
M  V30 8540 H 831.698 1.7437 3.86486 0
M  V30 8541 C 830.157 0.349156 3.35086 0
M  V30 8542 O 830.687 -0.553287 3.97871 0
M  V30 8543 N 828.893 0.231723 2.89675 0
M  V30 8544 H 828.44 0.967021 2.3876 0
M  V30 8545 H 828.398 -0.615911 3.08308 0
M  V30 8546 N 832.17 -0.811516 1.35101 0
M  V30 8547 C 833.1 -1.9378 1.30275 0
M  V30 8548 C 834.081 -1.69165 0.178075 0
M  V30 8549 O 835.266 -1.90599 0.372256 0
M  V30 8550 C 832.396 -3.30439 1.06899 0
M  V30 8551 C 831.35 -3.69523 2.15955 0
M  V30 8552 C 830.676 -5.0429 1.77751 0
M  V30 8553 C 831.976 -3.80419 3.57881 0
M  V30 8554 H 833.67 -1.98075 2.24514 0
M  V30 8555 H 831.216 -0.951586 1.08078 0
M  V30 8556 H 833.169 -4.08828 1.02164 0
M  V30 8557 H 831.893 -3.26473 0.0910462 0
M  V30 8558 H 830.552 -2.93416 2.19778 0
M  V30 8559 H 830.2 -4.96823 0.785876 0
M  V30 8560 H 829.9 -5.31411 2.5075 0
M  V30 8561 H 831.424 -5.85125 1.74533 0
M  V30 8562 H 832.838 -4.49051 3.56407 0
M  V30 8563 H 831.235 -4.19005 4.29598 0
M  V30 8564 H 832.305 -2.82105 3.94391 0
M  V30 8565 N 833.648 -1.19017 -1.03309 0
M  V30 8566 C 834.896 -0.988258 -1.76289 0
M  V30 8567 C 835.217 0.482557 -1.88935 0
M  V30 8568 O 834.487 1.34969 -1.41987 0
M  V30 8569 H 833.067 -0.36267 -0.653054 0
M  V30 8570 H 835.729 -1.49836 -1.2464 0
M  V30 8571 H 834.825 -1.43273 -2.77271 0
M  V30 8572 N 835.127 1.22348 -0.993418 0
M  V30 8573 C 836.538 1.72893 -0.704616 0
M  V30 8574 C 836.889 1.80095 0.778483 0
M  V30 8575 O 836.014 1.4476 1.60853 0
M  V30 8576 C 836.609 3.14 -1.27237 0
M  V30 8577 C 835.168 3.61949 -1.03294 0
M  V30 8578 C 834.315 2.39816 -1.39225 0
M  V30 8579 H 837.266 1.07688 -1.16572 0
M  V30 8580 H 837.287 3.74886 -0.651212 0
M  V30 8581 H 836.799 3.08727 -2.3518 0
M  V30 8582 H 834.9 3.72588 0.0298329 0
M  V30 8583 H 835.013 4.48051 -1.69668 0
M  V30 8584 H 833.377 2.41448 -0.810849 0
M  V30 8585 H 834.16 2.37203 -2.48172 0
M  V30 8586 N 836.605 0.766683 1.37694 0
M  V30 8587 C 837.853 0.328065 1.9942 0
M  V30 8588 C 838.174 -1.09775 1.61166 0
M  V30 8589 O 837.444 -1.75288 0.874686 0
M  V30 8590 H 836.024 0.11831 0.737572 0
M  V30 8591 H 838.686 0.983686 1.68255 0
M  V30 8592 H 837.782 0.401647 3.09505 0
M  V30 8593 N 838.083 -1.48885 0.516809 0
M  V30 8594 C 839.329 -2.02788 -0.0220928 0
M  V30 8595 C 839.662 -1.39433 -1.35175 0
M  V30 8596 O 838.937 -0.535459 -1.86984 0
M  V30 8597 C 839.22 -3.59753 -0.158012 0
M  V30 8598 C 839.073 -4.33611 1.19588 0
M  V30 8599 C 840.392 -4.30984 -0.891133 0
M  V30 8600 H 837.511 -0.736971 -0.00655488 0
M  V30 8601 H 840.153 -1.77746 0.671287 0
M  V30 8602 H 838.303 -3.8122 -0.748568 0
M  V30 8603 H 839.975 -4.23598 1.82653 0
M  V30 8604 H 838.218 -3.95547 1.78116 0
M  V30 8605 H 838.889 -5.41846 1.05391 0
M  V30 8606 H 841.365 -4.14267 -0.39012 0
M  V30 8607 H 840.241 -5.40527 -0.955107 0
M  V30 8608 H 840.502 -3.97336 -1.93847 0
M  V30 8609 N 839.561 -0.251338 -1.55583 0
M  V30 8610 C 840.786 0.379136 -2.03905 0
M  V30 8611 C 841.211 1.50428 -1.12929 0
M  V30 8612 O 840.569 1.80882 -0.123114 0
M  V30 8613 C 840.617 0.86009 -3.50193 0
M  V30 8614 O 839.721 1.96932 -3.62342 0
M  V30 8615 H 839.062 0.0820183 -0.658915 0
M  V30 8616 H 841.592 -0.378692 -2.01065 0
M  V30 8617 H 841.602 1.16214 -3.91099 0
M  V30 8618 H 840.277 0.0367559 -4.15884 0
M  V30 8619 H 838.854 1.67163 -3.33333 0
M  V30 8620 N 841.039 1.57585 0.0217189 0
M  V30 8621 C 842.288 1.88786 0.710125 0
M  V30 8622 C 842.601 0.850819 1.76126 0
M  V30 8623 O 843.807 1.0523 2.50277 0
M  V30 8624 C 842.263 3.3505 1.31413 0
M  V30 8625 C 841.871 4.47001 0.298959 0
M  V30 8626 C 843.615 3.7539 1.98199 0
M  V30 8627 C 841.522 5.8433 0.911727 0
M  V30 8628 H 840.452 0.704388 0.268986 0
M  V30 8629 H 843.103 1.83466 -0.0352638 0
M  V30 8630 H 841.485 3.35138 2.10947 0
M  V30 8631 H 842.659 4.58395 -0.470203 0
M  V30 8632 H 840.974 4.15542 -0.267222 0
M  V30 8633 H 843.571 4.75314 2.4491 0
M  V30 8634 H 843.914 3.07766 2.80331 0
M  V30 8635 H 844.447 3.77508 1.2543 0
M  V30 8636 H 841.186 6.55372 0.129659 0
M  V30 8637 H 840.706 5.76643 1.65056 0
M  V30 8638 H 842.385 6.31295 1.41688 0
M  V30 8639 N 842.517 -0.29412 1.54831 0
M  V30 8640 C 843.763 -1.02999 1.74697 0
M  V30 8641 C 844.096 -1.86687 0.534949 0
M  V30 8642 O 843.371 -1.88789 -0.467863 0
M  V30 8643 C 843.654 -1.93024 3.03996 0
M  V30 8644 C 843.507 -1.1247 4.35512 0
M  V30 8645 C 844.826 -2.92085 3.29203 0
M  V30 8646 H 841.945 -0.373039 0.635618 0
M  V30 8647 H 844.587 -0.304065 1.87551 0
M  V30 8648 H 842.737 -2.5492 2.93169 0
M  V30 8649 H 844.409 -0.528067 4.58268 0
M  V30 8650 H 842.652 -0.427574 4.31688 0
M  V30 8651 H 843.323 -1.78728 5.22265 0
M  V30 8652 H 845.799 -2.40319 3.39685 0
M  V30 8653 H 844.675 -3.52234 4.20978 0
M  V30 8654 H 844.936 -3.66107 2.47827 0
M  V30 8655 N 843.995 -1.47404 -0.557645 0
M  V30 8656 C 844.905 -1.62491 -1.69216 0
M  V30 8657 C 845.921 -0.507764 -1.66426 0
M  V30 8658 O 847.097 -0.775241 -1.85882 0
M  V30 8659 C 844.162 -1.63511 -3.05721 0
M  V30 8660 C 843.223 -2.86648 -3.1958 0
M  V30 8661 C 842.456 -2.87609 -4.49574 0
M  V30 8662 O 842.679 -1.97799 -5.35006 0
M  V30 8663 O 841.613 -3.79465 -4.67215 0
M  V30 8664 H 845.439 -2.58487 -1.59431 0
M  V30 8665 H 843.024 -1.30485 -0.7276 0
M  V30 8666 H 844.906 -1.66863 -3.86956 0
M  V30 8667 H 843.581 -0.706812 -3.15889 0
M  V30 8668 H 842.488 -2.8884 -2.37744 0
M  V30 8669 H 843.821 -3.7877 -3.14316 0
M  V30 8670 N 845.473 0.80434 -1.35529 0
M  V30 8671 C 846.889 1.10023 -1.15616 0
M  V30 8672 C 847.089 2.01478 0.0298535 0
M  V30 8673 O 846.145 2.42609 0.699778 0
M  V30 8674 C 847.458 1.72905 -2.46017 0
M  V30 8675 C 849.006 1.85315 -2.52245 0
M  V30 8676 C 849.481 2.51612 -3.82695 0
M  V30 8677 N 850.972 2.59095 -3.83958 0
M  V30 8678 C 851.707 3.11167 -4.81625 0
M  V30 8679 N 851.203 3.63659 -5.89681 0
M  V30 8680 N 852.996 3.09741 -4.6906 0
M  V30 8681 H 845.147 0.196428 -2.1149 0
M  V30 8682 H 847.41 0.149735 -0.9361 0
M  V30 8683 H 847.116 1.13171 -3.32994 0
M  V30 8684 H 846.99 2.72579 -2.6073 0
M  V30 8685 H 849.377 2.44191 -1.65695 0
M  V30 8686 H 849.458 0.844886 -2.41444 0
M  V30 8687 H 849.102 1.93385 -4.69643 0
M  V30 8688 H 849.032 3.5298 -3.90785 0
M  V30 8689 H 851.523 2.21908 -3.05884 0
M  V30 8690 H 851.836 4.01699 -6.60195 0
M  V30 8691 H 850.181 3.61852 -5.9337 0
M  V30 8692 H 853.372 2.68011 -3.83781 0
M  V30 8693 H 853.545 3.50016 -5.45338 0
M  V30 8694 N 846.951 1.19563 1.02676 0
M  V30 8695 C 847.883 0.893054 2.11086 0
M  V30 8696 C 848.896 -0.115101 1.62393 0
M  V30 8697 O 850.085 0.11459 1.78132 0
M  V30 8698 C 847.185 0.315533 3.37428 0
M  V30 8699 C 846.358 1.37276 4.153 0
M  V30 8700 C 845.417 0.808398 5.19953 0
M  V30 8701 O 844.443 1.48661 5.49444 0
M  V30 8702 N 845.645 -0.387253 5.79207 0
M  V30 8703 H 848.41 1.82622 2.37633 0
M  V30 8704 H 845.971 1.09792 1.18984 0
M  V30 8705 H 847.963 -0.0759166 4.04629 0
M  V30 8706 H 846.533 -0.521961 3.08211 0
M  V30 8707 H 845.753 1.93897 3.43217 0
M  V30 8708 H 847.041 2.08509 4.64114 0
M  V30 8709 H 846.439 -0.955725 5.57568 0
M  V30 8710 H 844.996 -0.720457 6.47806 0
M  V30 8711 N 848.429 -1.21819 0.999893 0
M  V30 8712 C 849.659 -1.94475 0.697346 0
M  V30 8713 C 850.067 -1.73991 -0.743228 0
M  V30 8714 O 849.41 -1.04042 -1.51397 0
M  V30 8715 C 849.472 -3.47204 0.932181 0
M  V30 8716 C 849.136 -3.91432 2.3586 0
M  V30 8717 C 850.133 -3.98545 3.33853 0
M  V30 8718 C 847.818 -4.23888 2.69489 0
M  V30 8719 C 849.812 -4.37499 4.63545 0
M  V30 8720 C 847.499 -4.62519 3.99399 0
M  V30 8721 C 848.497 -4.69294 4.96238 0
M  V30 8722 O 848.185 -5.07048 6.23825 0
M  V30 8723 H 847.917 -0.625419 0.256567 0
M  V30 8724 H 850.471 -1.55728 1.33933 0
M  V30 8725 H 848.701 -3.85997 0.233025 0
M  V30 8726 H 850.39 -4.01078 0.623807 0
M  V30 8727 H 851.156 -3.73654 3.09205 0
M  V30 8728 H 847.035 -4.17815 1.94812 0
M  V30 8729 H 850.579 -4.42702 5.3913 0
M  V30 8730 H 846.476 -4.86864 4.23833 0
M  V30 8731 H 847.244 -5.25098 6.27865 0
M  V30 8732 N 849.908 -0.773975 -1.37286 0
M  V30 8733 C 851.157 -0.335977 -1.98882 0
M  V30 8734 C 851.47 1.09416 -1.62134 0
M  V30 8735 O 852.676 1.63366 -2.1685 0
M  V30 8736 C 851.132 -0.549756 -3.55676 0
M  V30 8737 C 850.74 -1.9903 -4.01361 0
M  V30 8738 C 852.484 -0.175493 -4.24137 0
M  V30 8739 C 850.391 -2.15156 -5.50874 0
M  V30 8740 H 849.321 -0.121877 -0.744085 0
M  V30 8741 H 851.972 -0.953419 -1.56787 0
M  V30 8742 H 850.354 0.137175 -3.95762 0
M  V30 8743 H 851.528 -2.71237 -3.72515 0
M  V30 8744 H 849.843 -2.32137 -3.4569 0
M  V30 8745 H 852.44 -0.274463 -5.33995 0
M  V30 8746 H 852.783 0.874524 -4.07011 0
M  V30 8747 H 853.316 -0.815058 -3.89361 0
M  V30 8748 H 850.055 -3.18485 -5.72929 0
M  V30 8749 H 849.575 -1.47435 -5.81397 0
M  V30 8750 H 851.254 -1.95124 -6.16876 0
M  V30 8751 N 851.386 1.48609 -0.524698 0
M  V30 8752 C 852.318 2.27508 0.278 0
M  V30 8753 C 853.331 1.35042 0.909258 0
M  V30 8754 O 854.52 1.60136 0.788592 0
M  V30 8755 C 851.62 3.08247 1.40843 0
M  V30 8756 C 850.793 4.28455 0.880083 0
M  V30 8757 C 849.852 4.91048 1.891 0
M  V30 8758 O 848.878 5.5042 1.45005 0
M  V30 8759 N 850.08 4.82816 3.22288 0
M  V30 8760 H 852.845 2.97037 -0.398642 0
M  V30 8761 H 850.406 1.57876 -0.358698 0
M  V30 8762 H 852.398 3.46992 2.08276 0
M  V30 8763 H 850.968 2.41173 1.98883 0
M  V30 8764 H 850.188 3.94189 0.0299228 0
M  V30 8765 H 851.476 5.06279 0.505881 0
M  V30 8766 H 850.874 4.3572 3.60783 0
M  V30 8767 H 849.431 5.25676 3.85368 0
M  V30 8768 N 852.864 0.259585 1.55447 0
M  V30 8769 C 854.141 -0.412595 1.91199 0
M  V30 8770 C 854.521 -1.74909 1.18194 0
M  V30 8771 O 853.869 -2.26474 0.303603 0
M  V30 8772 C 854.079 -0.568195 3.44344 0
M  V30 8773 C 855.427 -0.858253 4.15836 0
M  V30 8774 O 856.451 -0.653588 3.50152 0
M  V30 8775 O 855.31 -1.24874 5.32042 0
M  V30 8776 H 852.404 -0.223403 0.796254 0
M  V30 8777 H 854.95 0.30459 1.66944 0
M  V30 8778 H 853.722 0.372989 3.89518 0
M  V30 8779 H 853.345 -1.33544 3.74502 0
M  V30 8780 N 854.342 -1.57594 -0.0133615 0
M  V30 8781 C 855.758 -1.5527 -0.369255 0
M  V30 8782 C 855.958 -0.987751 -1.7563 0
M  V30 8783 O 855.014 -0.615683 -2.44879 0
M  V30 8784 C 856.327 -2.99602 -0.25672 0
M  V30 8785 C 857.875 -3.11227 -0.332647 0
M  V30 8786 C 858.35 -4.57321 -0.249387 0
M  V30 8787 N 859.841 -4.62177 -0.3077 0
M  V30 8788 C 860.576 -5.72781 -0.26641 0
M  V30 8789 N 860.072 -6.92575 -0.176494 0
M  V30 8790 N 861.865 -5.61204 -0.317295 0
M  V30 8791 H 854.016 -1.92662 0.894154 0
M  V30 8792 H 856.279 -0.884352 0.341505 0
M  V30 8793 H 855.985 -3.44723 0.697072 0
M  V30 8794 H 855.859 -3.6246 -1.04415 0
M  V30 8795 H 858.246 -2.66045 -1.27688 0
M  V30 8796 H 858.327 -2.51171 0.484412 0
M  V30 8797 H 857.971 -5.03174 0.691242 0
M  V30 8798 H 857.901 -5.15306 -1.08476 0
M  V30 8799 H 860.392 -3.75994 -0.379069 0
M  V30 8800 H 860.705 -7.72653 -0.150518 0
M  V30 8801 H 859.05 -6.94854 -0.142314 0
M  V30 8802 H 862.241 -4.66509 -0.385643 0
M  V30 8803 H 862.414 -6.47388 -0.28165 0
M  V30 8804 N 855.82 0.285905 -1.54985 0
M  V30 8805 C 857.069 1.01691 -1.74189 0
M  V30 8806 C 857.382 1.87908 -0.543135 0
M  V30 8807 O 858.588 2.64389 -0.617305 0
M  V30 8808 C 857.044 1.85785 -3.0824 0
M  V30 8809 C 856.652 1.04497 -4.35642 0
M  V30 8810 C 858.396 2.58393 -3.36798 0
M  V30 8811 C 856.303 1.87955 -5.60738 0
M  V30 8812 H 855.233 0.383396 -0.649248 0
M  V30 8813 H 857.884 0.27317 -1.81455 0
M  V30 8814 H 856.266 2.64205 -2.94978 0
M  V30 8815 H 857.44 0.305847 -4.59784 0
M  V30 8816 H 855.755 0.434023 -4.14132 0
M  V30 8817 H 858.352 3.21214 -4.27464 0
M  V30 8818 H 858.695 3.28011 -2.56349 0
M  V30 8819 H 859.228 1.87012 -3.511 0
M  V30 8820 H 855.967 1.22781 -6.43898 0
M  V30 8821 H 855.487 2.59499 -5.40759 0
M  V30 8822 H 857.166 2.45636 -5.98558 0
M  V30 8823 N 857.298 1.47698 0.54982 0
M  V30 8824 C 858.709 1.48474 1.13191 0
M  V30 8825 C 859.06 0.243504 1.94683 0
M  V30 8826 O 858.185 -0.651009 2.06375 0
M  V30 8827 C 858.78 2.69022 2.05944 0
M  V30 8828 C 857.339 2.72733 2.5941 0
M  V30 8829 C 856.486 2.41691 1.35944 0
M  V30 8830 H 859.437 1.55101 0.336048 0
M  V30 8831 H 859.458 2.46412 2.89934 0
M  V30 8832 H 858.97 3.59345 1.46605 0
M  V30 8833 H 857.071 1.86568 3.22526 0
M  V30 8834 H 857.184 3.73628 2.99899 0
M  V30 8835 H 855.548 1.92428 1.66864 0
M  V30 8836 H 856.331 3.34231 0.783869 0
M  V30 8837 N 858.776 -0.797141 1.35954 0
M  V30 8838 C 860.001 -1.59097 1.33053 0
M  V30 8839 C 860.426 -1.87897 -0.0874592 0
M  V30 8840 O 859.784 -1.47291 -1.05712 0
M  V30 8841 C 859.832 -2.89346 2.152 0
M  V30 8842 O 858.936 -3.826 1.5392 0
M  V30 8843 H 858.277 -0.482895 0.45575 0
M  V30 8844 H 860.807 -0.988633 1.79129 0
M  V30 8845 H 860.817 -3.38686 2.27499 0
M  V30 8846 H 859.492 -2.6771 3.18283 0
M  V30 8847 H 858.069 -3.41174 1.50516 0
M  V30 8848 N 860.254 -1.20106 -1.0204 0
M  V30 8849 C 861.5 -1.02042 -1.75951 0
M  V30 8850 C 861.855 0.443229 -1.87225 0
M  V30 8851 O 861.148 1.32477 -1.38421 0
M  V30 8852 C 861.342 -1.63308 -3.17908 0
M  V30 8853 C 861.171 -3.15478 -3.20474 0
M  V30 8854 C 859.941 -3.84432 -3.27933 0
M  V30 8855 C 862.139 -4.12747 -3.06829 0
M  V30 8856 N 860.121 -5.23925 -3.19963 0
M  V30 8857 C 861.492 -5.38892 -3.06586 0
M  V30 8858 C 863.547 -4.03996 -2.91018 0
M  V30 8859 C 862.25 -6.57296 -2.92154 0
M  V30 8860 C 864.276 -5.22019 -2.77938 0
M  V30 8861 C 863.638 -6.47067 -2.78358 0
M  V30 8862 H 859.737 -0.427602 -0.654737 0
M  V30 8863 H 862.321 -1.52216 -1.21402 0
M  V30 8864 H 860.492 -1.15723 -3.7076 0
M  V30 8865 H 862.224 -1.38597 -3.80227 0
M  V30 8866 H 858.979 -3.35269 -3.34502 0
M  V30 8867 H 859.403 -5.9694 -3.19362 0
M  V30 8868 H 864.045 -3.0813 -2.8951 0
M  V30 8869 H 861.763 -7.5334 -2.92412 0
M  V30 8870 H 865.349 -5.17057 -2.66728 0
M  V30 8871 H 864.229 -7.36857 -2.6835 0
M  V30 8872 N 861.732 1.21287 -1.00634 0
M  V30 8873 C 862.96 1.94385 -0.708678 0
M  V30 8874 C 863.375 1.7416 0.728957 0
M  V30 8875 O 862.732 1.04906 1.49335 0
M  V30 8876 C 862.783 3.46755 -1.02193 0
M  V30 8877 O 862.504 3.6631 -2.40309 0
M  V30 8878 C 864.005 4.37014 -0.743867 0
M  V30 8879 H 861.225 0.618136 -0.261052 0
M  V30 8880 H 863.769 1.54067 -1.34475 0
M  V30 8881 H 861.924 3.8499 -0.431441 0
M  V30 8882 H 862.338 4.60393 -2.51274 0
M  V30 8883 H 863.812 5.42621 -1.01321 0
M  V30 8884 H 864.289 4.38017 0.322084 0
M  V30 8885 H 864.895 4.04426 -1.31603 0
M  V30 8886 N 863.21 0.781244 1.36873 0
M  V30 8887 C 864.458 0.349198 1.9906 0
M  V30 8888 C 864.779 -1.0806 1.62321 0
M  V30 8889 O 864.049 -1.74351 0.893229 0
M  V30 8890 H 862.629 0.126126 0.736275 0
M  V30 8891 H 865.291 1.00148 1.67202 0
M  V30 8892 H 864.387 0.434451 3.09061 0
M  V30 8893 N 864.689 -1.48329 0.532571 0
M  V30 8894 C 865.652 -2.2816 -0.218069 0
M  V30 8895 C 866.652 -1.35526 -0.865409 0
M  V30 8896 O 867.842 -1.58394 -0.725061 0
M  V30 8897 C 864.974 -3.1448 -1.31586 0
M  V30 8898 H 866.167 -2.95987 0.482865 0
M  V30 8899 H 863.72 -1.53612 0.288603 0
M  V30 8900 H 864.455 -2.5129 -2.04997 0
M  V30 8901 H 864.24 -3.82625 -0.856779 0
M  V30 8902 H 865.73 -3.74693 -1.84377 0
M  V30 8903 N 866.167 -0.267825 -1.55308 0
M  V30 8904 C 867.415 0.350343 -1.9904 0
M  V30 8905 C 867.736 1.56924 -1.15758 0
M  V30 8906 O 867.006 1.94358 -0.245336 0
M  V30 8907 H 865.586 0.132435 -0.735167 0
M  V30 8908 H 868.248 -0.371471 -1.91327 0
M  V30 8909 H 867.344 0.645203 -3.05358 0
M  V30 8910 N 867.645 1.57599 0.00500368 0
M  V30 8911 C 868.892 1.90349 0.690895 0
M  V30 8912 C 869.22 0.868045 1.74055 0
M  V30 8913 O 868.475 -0.127855 1.95282 0
M  V30 8914 C 868.774 3.29855 1.37588 0
M  V30 8915 C 868.44 4.48548 0.459906 0
M  V30 8916 C 867.102 4.80752 0.207693 0
M  V30 8917 C 869.454 5.20919 -0.171054 0
M  V30 8918 C 866.782 5.82701 -0.683855 0
M  V30 8919 C 869.134 6.23818 -1.05045 0
M  V30 8920 C 867.798 6.54481 -1.31189 0
M  V30 8921 H 867.068 0.696538 0.252816 0
M  V30 8922 H 869.715 1.91436 -0.0494495 0
M  V30 8923 H 868.02 3.24869 2.19015 0
M  V30 8924 H 869.717 3.52452 1.91255 0
M  V30 8925 H 866.307 4.23384 0.666648 0
M  V30 8926 H 870.491 4.96299 0.0107942 0
M  V30 8927 H 865.747 6.04822 -0.894467 0
M  V30 8928 H 869.921 6.79029 -1.54574 0
M  V30 8929 H 867.548 7.33299 -2.00442 0
M  V30 8930 N 869.123 -0.277682 1.55134 0
M  V30 8931 C 870.369 -1.0114 1.7578 0
M  V30 8932 C 870.702 -1.86109 0.554719 0
M  V30 8933 O 869.977 -1.89275 -0.447813 0
M  V30 8934 C 870.26 -1.89789 3.06027 0
M  V30 8935 C 870.113 -1.07844 4.3668 0
M  V30 8936 C 871.432 -2.88577 3.32282 0
M  V30 8937 H 868.551 -0.366277 0.639539 0
M  V30 8938 H 871.193 -0.284155 1.87863 0
M  V30 8939 H 869.343 -2.51796 2.95856 0
M  V30 8940 H 871.015 -0.479432 4.58802 0
M  V30 8941 H 869.258 -0.381764 4.32117 0
M  V30 8942 H 869.929 -1.73179 5.24131 0
M  V30 8943 H 872.405 -2.36702 3.42215 0
M  V30 8944 H 871.281 -3.47749 4.2469 0
M  V30 8945 H 871.542 -3.63458 2.51696 0
M  V30 8946 N 870.601 -1.47988 -0.541979 0
M  V30 8947 C 872.017 -1.33843 -0.869383 0
M  V30 8948 C 872.217 -0.340374 -1.98604 0
M  V30 8949 O 871.273 0.242696 -2.51331 0
M  V30 8950 C 872.586 -2.73568 -1.24823 0
M  V30 8951 C 874.134 -2.81967 -1.3588 0
M  V30 8952 C 874.609 -4.22368 -1.77114 0
M  V30 8953 N 876.1 -4.24983 -1.84237 0
M  V30 8954 C 876.835 -5.30547 -2.17503 0
M  V30 8955 N 876.331 -6.46401 -2.49275 0
M  V30 8956 N 878.124 -5.17933 -2.18406 0
M  V30 8957 H 870.275 -2.11503 0.195001 0
M  V30 8958 H 872.538 -0.947681 0.0245862 0
M  V30 8959 H 872.244 -3.48107 -0.501435 0
M  V30 8960 H 872.118 -3.06322 -2.20106 0
M  V30 8961 H 874.505 -2.07692 -2.09638 0
M  V30 8962 H 874.586 -2.52848 -0.387478 0
M  V30 8963 H 874.23 -4.97155 -1.0392 0
M  V30 8964 H 874.16 -4.48922 -2.75275 0
M  V30 8965 H 876.651 -3.41411 -1.62009 0
M  V30 8966 H 876.964 -7.22698 -2.73729 0
M  V30 8967 H 875.309 -6.49696 -2.46821 0
M  V30 8968 H 878.5 -4.26445 -1.93034 0
M  V30 8969 H 878.673 -6.00307 -2.44 0
M  V30 8970 N 872.079 0.78992 -1.36375 0
M  V30 8971 C 873.325 1.55007 -1.3077 0
M  V30 8972 C 873.658 1.93871 0.112979 0
M  V30 8973 O 872.933 1.6267 1.06625 0
M  V30 8974 C 873.216 2.82748 -2.22993 0
M  V30 8975 C 873.069 2.50253 -3.73756 0
M  V30 8976 C 874.388 3.84569 -2.13998 0
M  V30 8977 H 871.507 0.562362 -0.476359 0
M  V30 8978 H 874.149 0.907582 -1.66922 0
M  V30 8979 H 872.299 3.37573 -1.92292 0
M  V30 8980 H 873.971 2.01482 -4.14973 0
M  V30 8981 H 872.214 1.83203 -3.93216 0
M  V30 8982 H 872.885 3.41487 -4.33694 0
M  V30 8983 H 875.361 3.39188 -2.4102 0
M  V30 8984 H 874.237 4.717 -2.80697 0
M  V30 8985 H 874.498 4.27491 -1.12711 0
M  V30 8986 N 873.557 1.20646 1.01402 0
M  V30 8987 C 874.968 1.01823 1.56489 0
M  V30 8988 C 875.319 -0.42463 1.9155 0
M  V30 8989 O 874.444 -1.30644 1.72514 0
M  V30 8990 C 875.039 1.84208 2.84347 0
M  V30 8991 C 873.598 1.69743 3.35953 0
M  V30 8992 C 872.745 1.8198 2.09233 0
M  V30 8993 H 875.696 1.348 0.837539 0
M  V30 8994 H 875.717 1.34698 3.55861 0
M  V30 8995 H 875.229 2.89215 2.58798 0
M  V30 8996 H 873.33 0.673833 3.66456 0
M  V30 8997 H 873.443 2.51173 4.07981 0
M  V30 8998 H 871.807 1.25193 2.21808 0
M  V30 8999 H 872.59 2.88477 1.86107 0
M  V30 9000 N 875.035 -1.20752 1.01276 0
M  V30 9001 C 875.945 -2.27079 0.589277 0
M  V30 9002 C 876.961 -1.6999 -0.371389 0
M  V30 9003 O 878.137 -2.00044 -0.233294 0
M  V30 9004 C 875.202 -3.4663 -0.0696715 0
M  V30 9005 C 874.263 -4.18962 0.936454 0
M  V30 9006 C 873.496 -5.32806 0.308856 0
M  V30 9007 O 873.719 -5.63376 -0.8924 0
M  V30 9008 O 872.653 -5.93131 1.02367 0
M  V30 9009 H 876.479 -2.6551 1.47438 0
M  V30 9010 H 874.064 -1.27297 0.782045 0
M  V30 9011 H 875.946 -4.19119 -0.437873 0
M  V30 9012 H 874.621 -3.10082 -0.929029 0
M  V30 9013 H 873.528 -3.48661 1.35595 0
M  V30 9014 H 874.861 -4.59441 1.76565 0
M  V30 9015 N 876.513 -0.788492 -1.36457 0
M  V30 9016 C 877.761 -0.359749 -1.98872 0
M  V30 9017 C 878.082 1.07197 -1.62892 0
M  V30 9018 O 877.352 1.73875 -0.902463 0
M  V30 9019 H 875.932 -0.130029 -0.735596 0
M  V30 9020 H 878.594 -1.01033 -1.66668 0
M  V30 9021 H 877.69 -0.450835 -3.08827 0
M  V30 9022 N 877.991 1.48044 -0.54043 0
M  V30 9023 C 878.954 2.28273 0.205966 0
M  V30 9024 C 879.954 1.35983 0.858209 0
M  V30 9025 O 881.144 1.58776 0.716651 0
M  V30 9026 C 878.276 3.15174 1.29917 0
M  V30 9027 H 879.469 2.95727 -0.498555 0
M  V30 9028 H 877.022 1.53457 -0.296745 0
M  V30 9029 H 877.757 2.52374 2.03661 0
M  V30 9030 H 877.542 3.83074 0.836475 0
M  V30 9031 H 879.032 3.75666 1.82387 0
M  V30 9032 N 879.47 0.276058 1.55163 0
M  V30 9033 C 880.7 -0.343274 2.03728 0
M  V30 9034 C 881.108 -1.49945 1.15383 0
M  V30 9035 O 880.451 -1.82942 0.166696 0
M  V30 9036 C 880.513 -0.885683 3.48419 0
M  V30 9037 C 880.177 0.141976 4.56779 0
M  V30 9038 C 881.174 0.961816 5.10926 0
M  V30 9039 C 878.859 0.276487 5.01538 0
M  V30 9040 C 880.853 1.90234 6.0835 0
M  V30 9041 C 878.54 1.22049 5.98788 0
M  V30 9042 C 879.538 2.03192 6.52075 0
M  V30 9043 O 879.226 2.95996 7.47423 0
M  V30 9044 H 878.958 -0.0822192 0.670981 0
M  V30 9045 H 881.512 0.406199 2.01343 0
M  V30 9046 H 879.742 -1.68524 3.48047 0
M  V30 9047 H 881.431 -1.4182 3.80318 0
M  V30 9048 H 882.197 0.868637 4.77158 0
M  V30 9049 H 878.076 -0.345095 4.59707 0
M  V30 9050 H 881.62 2.5361 6.49867 0
M  V30 9051 H 877.517 1.31448 6.31974 0
M  V30 9052 H 878.285 2.90688 7.65142 0
M  V30 9053 N 880.948 -1.576 0.00335426 0
M  V30 9054 C 881.878 -2.11668 -0.985839 0
M  V30 9055 C 882.859 -1.02661 -1.35627 0
M  V30 9056 O 884.044 -1.30361 -1.43943 0
M  V30 9057 C 881.174 -2.62273 -2.27662 0
M  V30 9058 C 880.128 -3.75837 -2.0477 0
M  V30 9059 C 879.454 -4.12769 -3.39891 0
M  V30 9060 C 880.754 -5.02975 -1.40759 0
M  V30 9061 H 882.448 -2.9457 -0.535637 0
M  V30 9062 H 879.994 -1.41702 -0.256204 0
M  V30 9063 H 881.947 -2.98727 -2.97221 0
M  V30 9064 H 880.671 -1.76498 -2.74802 0
M  V30 9065 H 879.33 -3.39782 -1.37636 0
M  V30 9066 H 878.978 -3.24013 -3.8474 0
M  V30 9067 H 878.678 -4.89281 -3.25389 0
M  V30 9068 H 880.202 -4.51784 -4.1076 0
M  V30 9069 H 881.616 -5.37179 -2.00279 0
M  V30 9070 H 880.013 -5.84315 -1.36734 0
M  V30 9071 H 881.083 -4.83431 -0.377218 0
M  V30 9072 N 882.426 0.269451 -1.5528 0
M  V30 9073 C 883.336 1.35511 -1.91505 0
M  V30 9074 C 884.352 1.53854 -0.812712 0
M  V30 9075 O 885.528 1.67912 -1.1121 0
M  V30 9076 C 882.593 2.6937 -2.18267 0
M  V30 9077 C 881.654 2.59743 -3.41807 0
M  V30 9078 C 880.887 3.87219 -3.67283 0
M  V30 9079 O 881.11 4.88066 -2.95208 0
M  V30 9080 O 880.044 3.87209 -4.60818 0
M  V30 9081 H 883.87 1.07785 -2.8393 0
M  V30 9082 H 881.455 0.468282 -1.41871 0
M  V30 9083 H 883.337 3.48513 -2.36889 0
M  V30 9084 H 882.012 2.96874 -1.29024 0
M  V30 9085 H 880.919 1.78964 -3.28516 0
M  V30 9086 H 882.252 2.37188 -4.3128 0
M  V30 9087 N 883.904 1.48273 0.534124 0
M  V30 9088 C 885.151 1.56079 1.29017 0
M  V30 9089 C 885.479 0.232912 1.931 0
M  V30 9090 O 884.734 -0.77642 1.79639 0
M  V30 9091 C 885.033 2.64468 2.40398 0
M  V30 9092 C 884.699 4.07034 1.93995 0
M  V30 9093 C 883.361 4.45838 1.81058 0
M  V30 9094 C 885.713 4.96395 1.58877 0
M  V30 9095 C 883.041 5.71812 1.31331 0
M  V30 9096 C 885.393 6.22854 1.10614 0
M  V30 9097 C 884.057 6.60518 0.962895 0
M  V30 9098 H 883.327 0.571135 0.472108 0
M  V30 9099 H 885.974 1.81973 0.5965 0
M  V30 9100 H 884.279 2.32419 3.15418 0
M  V30 9101 H 885.976 2.67725 2.98537 0
M  V30 9102 H 882.566 3.76387 2.05015 0
M  V30 9103 H 886.75 4.67096 1.67734 0
M  V30 9104 H 882.006 5.99722 1.18924 0
M  V30 9105 H 886.18 6.91495 0.825095 0
M  V30 9106 H 883.807 7.58019 0.575369 0
M  V30 9107 N 885.382 -0.782676 1.36792 0
M  V30 9108 C 886.629 -1.54083 1.31395 0
M  V30 9109 C 886.957 -1.94217 -0.104797 0
M  V30 9110 O 886.212 -1.63491 -1.0756 0
M  V30 9111 C 886.511 -2.82542 2.18872 0
M  V30 9112 C 886.177 -2.61512 3.67317 0
M  V30 9113 C 884.839 -2.55486 4.07775 0
M  V30 9114 C 887.191 -2.42389 4.61407 0
M  V30 9115 C 884.519 -2.28311 5.40454 0
M  V30 9116 C 886.871 -2.1674 5.94312 0
M  V30 9117 C 885.535 -2.09151 6.33887 0
M  V30 9118 H 884.805 -0.563829 0.48081 0
M  V30 9119 H 887.452 -0.902436 1.68903 0
M  V30 9120 H 885.757 -3.50883 1.74323 0
M  V30 9121 H 887.454 -3.40367 2.12017 0
M  V30 9122 H 884.044 -2.67062 3.35225 0
M  V30 9123 H 888.228 -2.46043 4.31018 0
M  V30 9124 H 883.484 -2.20922 5.70091 0
M  V30 9125 H 887.658 -2.0094 6.6678 0
M  V30 9126 H 885.285 -1.87857 7.36623 0
M  V30 9127 N 886.86 -1.21182 -1.00761 0
M  V30 9128 C 888.109 -1.02166 -1.73911 0
M  V30 9129 C 888.422 0.445638 -1.90456 0
M  V30 9130 O 889.628 0.755132 -2.60787 0
M  V30 9131 C 888.084 -1.77936 -3.12837 0
M  V30 9132 C 887.692 -3.28819 -3.04273 0
M  V30 9133 C 889.436 -1.67319 -3.90134 0
M  V30 9134 C 887.343 -3.97089 -4.38262 0
M  V30 9135 H 886.273 -0.378665 -0.652019 0
M  V30 9136 H 888.924 -1.44891 -1.12601 0
M  V30 9137 H 887.306 -1.28003 -3.74742 0
M  V30 9138 H 888.48 -3.86035 -2.51622 0
M  V30 9139 H 886.795 -3.39949 -2.40465 0
M  V30 9140 H 889.392 -2.15659 -4.8928 0
M  V30 9141 H 889.735 -0.630959 -4.11491 0
M  V30 9142 H 890.268 -2.14716 -3.34876 0
M  V30 9143 H 887.007 -5.01503 -4.22107 0
M  V30 9144 H 886.527 -3.44662 -4.90885 0
M  V30 9145 H 888.206 -4.01854 -5.07072 0
M  V30 9146 N 888.338 1.20213 -1.01915 0
M  V30 9147 C 889.615 1.85348 -0.62495 0
M  V30 9148 C 889.995 1.91101 0.896854 0
M  V30 9149 O 889.343 1.42075 1.78961 0
M  V30 9150 C 889.553 3.24849 -1.27571 0
M  V30 9151 C 890.901 4.01107 -1.39277 0
M  V30 9152 O 891.925 3.34211 -1.23212 0
M  V30 9153 O 890.784 5.20914 -1.6526 0
M  V30 9154 H 887.878 0.798303 -0.215965 0
M  V30 9155 H 890.424 1.27782 -1.11669 0
M  V30 9156 H 889.196 3.1544 -2.31545 0
M  V30 9157 H 888.819 3.90049 -0.77122 0
M  V30 9158 N 889.816 0.795718 1.36037 0
M  V30 9159 C 890.764 0.18649 2.31851 0
M  V30 9160 C 891.758 -0.657704 1.56111 0
M  V30 9161 O 892.964 -0.552083 1.71324 0
M  V30 9162 H 889.339 0.0415363 0.750852 0
M  V30 9163 H 891.31 1.00992 2.8079 0
M  V30 9164 C 890.059 -0.65918 3.41394 0
M  V30 9165 H 889.382 -0.01894 3.99796 0
M  V30 9166 H 890.822 -1.05202 4.10741 0
M  V30 9167 C 889.281 -1.82011 2.83502 0
M  V30 9168 O 889.811 -2.91703 2.76174 0
M  V30 9169 N 888.017 -1.62821 2.40703 0
M  V30 9170 H 887.564 -0.735965 2.46863 0
M  V30 9171 H 887.522 -2.40657 2.02316 0
M  V30 9172 N 891.294 -1.47756 0.548274 0
M  V30 9173 C 892.543 -2.01691 0.0187961 0
M  V30 9174 C 892.856 -1.42894 -1.33569 0
M  V30 9175 O 894.062 -1.88438 -1.95457 0
M  V30 9176 C 892.518 -3.59896 -0.016847 0
M  V30 9177 C 892.126 -4.27683 1.33385 0
M  V30 9178 C 893.87 -4.21614 -0.494188 0
M  V30 9179 C 891.777 -5.7787 1.2578 0
M  V30 9180 H 890.707 -0.753993 0.00325648 0
M  V30 9181 H 893.358 -1.69838 0.694792 0
M  V30 9182 H 891.74 -3.88672 -0.758304 0
M  V30 9183 H 892.914 -4.10559 2.09232 0
M  V30 9184 H 891.229 -3.77915 1.7484 0
M  V30 9185 H 893.826 -5.3166 -0.569342 0
M  V30 9186 H 894.169 -3.88176 -1.50417 0
M  V30 9187 H 894.702 -3.97336 0.192138 0
M  V30 9188 H 891.441 -6.15912 2.2435 0
M  V30 9189 H 890.961 -5.97355 0.540997 0
M  V30 9190 H 892.64 -6.39897 0.956109 0
M  V30 9191 N 892.772 -0.284283 -1.55015 0
M  V30 9192 C 894.183 0.211681 -1.85496 0
M  V30 9193 C 894.534 1.54735 -1.2063 0
M  V30 9194 O 893.659 2.10594 -0.497918 0
M  V30 9195 C 894.254 0.390864 -3.36538 0
M  V30 9196 C 892.813 0.831055 -3.67111 0
M  V30 9197 C 891.96 -0.0703581 -2.77211 0
M  V30 9198 H 894.911 -0.505803 -1.50424 0
M  V30 9199 H 894.932 1.22803 -3.60138 0
M  V30 9200 H 894.444 -0.581409 -3.8372 0
M  V30 9201 H 892.545 1.81447 -3.25434 0
M  V30 9202 H 892.658 0.662026 -4.74504 0
M  V30 9203 H 891.022 0.447528 -2.50737 0
M  V30 9204 H 891.805 -1.03868 -3.2721 0
M  V30 9205 N 894.251 1.57596 -0.0117121 0
M  V30 9206 C 895.481 1.95077 0.680346 0
M  V30 9207 C 895.889 0.885793 1.67184 0
M  V30 9208 O 895.232 -0.142723 1.83145 0
M  V30 9209 C 895.294 3.28611 1.45791 0
M  V30 9210 C 894.958 4.52682 0.626706 0
M  V30 9211 C 895.955 5.19821 -0.0906223 0
M  V30 9212 C 893.64 4.99064 0.569229 0
M  V30 9213 C 895.634 6.31649 -0.854289 0
M  V30 9214 C 893.321 6.10779 -0.198155 0
M  V30 9215 C 894.319 6.76929 -0.908636 0
M  V30 9216 O 894.007 7.86501 -1.66348 0
M  V30 9217 H 893.739 0.647663 0.193672 0
M  V30 9218 H 896.293 2.05305 -0.0624969 0
M  V30 9219 H 894.523 3.14824 2.2455 0
M  V30 9220 H 896.212 3.51119 2.03642 0
M  V30 9221 H 896.978 4.84968 -0.0554421 0
M  V30 9222 H 892.857 4.47393 1.11178 0
M  V30 9223 H 896.401 6.83215 -1.40937 0
M  V30 9224 H 892.298 6.45072 -0.235114 0
M  V30 9225 H 893.066 8.03078 -1.58141 0
M  V30 9226 N 895.729 -0.261212 1.5542 0
M  V30 9227 C 896.954 -1.01341 1.80955 0
M  V30 9228 C 897.379 -1.78711 0.586849 0
M  V30 9229 O 896.737 -1.75266 -0.463837 0
M  V30 9230 C 896.785 -1.93835 3.04073 0
M  V30 9231 O 895.889 -3.02791 2.79985 0
M  V30 9232 H 895.23 -0.289123 0.597749 0
M  V30 9233 H 897.76 -0.286543 2.02584 0
M  V30 9234 H 897.77 -2.3557 3.33123 0
M  V30 9235 H 896.445 -1.36936 3.9271 0
M  V30 9236 H 895.022 -2.65287 2.62063 0
M  V30 9237 N 897.207 -1.48554 -0.526253 0
M  V30 9238 C 898.14 -1.57928 -1.64724 0
M  V30 9239 C 899.118 -0.429536 -1.56824 0
M  V30 9240 O 900.302 -0.641651 -1.77243 0
M  V30 9241 C 897.429 -1.51075 -3.0314 0
M  V30 9242 C 896.475 -2.70937 -3.29386 0
M  V30 9243 S 897.308 -4.3287 -3.15251 0
M  V30 9244 C 898.464 -4.28622 -4.56108 0
M  V30 9245 H 898.697 -2.52761 -1.56523 0
M  V30 9246 H 896.23 -1.37133 -0.7095 0
M  V30 9247 H 898.188 -1.47808 -3.82966 0
M  V30 9248 H 896.849 -0.57574 -3.08778 0
M  V30 9249 H 896.042 -2.62291 -4.30371 0
M  V30 9250 H 895.644 -2.71486 -2.57238 0
M  V30 9251 H 897.936 -3.98784 -5.47702 0
M  V30 9252 H 898.879 -5.29798 -4.69808 0
M  V30 9253 H 899.287 -3.59038 -4.35605 0
M  V30 9254 N 898.685 0.775411 -1.37205 0
M  V30 9255 C 899.595 1.91967 -1.34855 0
M  V30 9256 C 900.611 1.72214 -0.248656 0
M  V30 9257 O 901.787 1.95512 -0.483421 0
M  V30 9258 C 898.852 3.27038 -1.15096 0
M  V30 9259 C 897.913 3.5947 -2.34691 0
M  V30 9260 C 897.146 4.88097 -2.15865 0
M  V30 9261 O 897.369 5.58871 -1.14102 0
M  V30 9262 O 896.303 5.19507 -3.03967 0
M  V30 9263 H 900.129 1.969 -2.31223 0
M  V30 9264 H 897.714 0.917647 -1.17897 0
M  V30 9265 H 899.596 4.07837 -1.0605 0
M  V30 9266 H 898.271 3.22965 -0.217999 0
M  V30 9267 H 897.178 2.7892 -2.49308 0
M  V30 9268 H 898.511 3.68282 -3.26541 0
M  V30 9269 N 900.163 1.21714 1.00117 0
M  V30 9270 C 901.393 1.06124 1.77261 0
M  V30 9271 C 901.801 -0.391717 1.85101 0
M  V30 9272 O 901.144 -1.28347 1.31426 0
M  V30 9273 C 901.206 1.58778 3.22536 0
M  V30 9274 C 900.87 3.07289 3.38264 0
M  V30 9275 C 901.867 4.04801 3.26239 0
M  V30 9276 C 899.552 3.46574 3.63582 0
M  V30 9277 C 901.546 5.39585 3.39303 0
M  V30 9278 C 899.233 4.81509 3.76288 0
M  V30 9279 C 900.231 5.77824 3.64155 0
M  V30 9280 O 899.919 7.1031 3.7645 0
M  V30 9281 H 899.651 0.372979 0.563793 0
M  V30 9282 H 902.205 1.61589 1.26799 0
M  V30 9283 H 900.435 0.977129 3.74151 0
M  V30 9284 H 902.124 1.38974 3.81367 0
M  V30 9285 H 902.89 3.75795 3.066 0
M  V30 9286 H 898.769 2.72137 3.72106 0
M  V30 9287 H 902.313 6.14744 3.2975 0
M  V30 9288 H 898.21 5.102 3.95432 0
M  V30 9289 H 898.978 7.17774 3.93374 0
M  V30 9290 N 901.641 -1.19671 1.02551 0
M  V30 9291 C 902.918 -1.85014 0.634771 0
M  V30 9292 C 903.298 -1.91574 -0.886706 0
M  V30 9293 O 902.646 -1.43022 -1.78205 0
M  V30 9294 C 902.856 -3.24167 1.29292 0
M  V30 9295 C 904.204 -4.00363 1.41402 0
M  V30 9296 O 905.228 -3.33553 1.24983 0
M  V30 9297 O 904.087 -5.2003 1.6802 0
M  V30 9298 H 901.181 -0.797147 0.220196 0
M  V30 9299 H 903.727 -1.27188 1.12345 0
M  V30 9300 H 902.499 -3.14208 2.33215 0
M  V30 9301 H 902.122 -3.89634 0.791895 0
M  V30 9302 N 903.119 -0.802921 -1.35613 0
M  V30 9303 C 904.368 -0.378087 -1.98125 0
M  V30 9304 C 904.681 1.05953 -1.64418 0
M  V30 9305 O 905.887 1.58729 -2.20266 0
M  V30 9306 C 904.343 -0.625077 -3.5443 0
M  V30 9307 C 903.951 -2.07499 -3.97049 0
M  V30 9308 C 905.695 -0.265419 -4.23669 0
M  V30 9309 C 903.602 -2.26793 -5.46186 0
M  V30 9310 H 902.532 -0.137633 -0.741332 0
M  V30 9311 H 905.183 -0.986461 -1.54729 0
M  V30 9312 H 903.565 0.0531975 -3.95964 0
M  V30 9313 H 904.739 -2.79077 -3.66678 0
M  V30 9314 H 903.054 -2.39417 -3.40688 0
M  V30 9315 H 905.651 -0.387669 -5.33293 0
M  V30 9316 H 905.994 0.787994 -4.08774 0
M  V30 9317 H 906.527 -0.897464 -3.87544 0
M  V30 9318 H 903.266 -3.30566 -5.66045 0
M  V30 9319 H 902.786 -1.59735 -5.78139 0
M  V30 9320 H 904.465 -2.08165 -6.12598 0
M  V30 9321 N 904.597 1.47463 -0.556102 0
M  V30 9322 C 905.527 2.32801 0.180497 0
M  V30 9323 C 906.508 1.43721 0.909848 0
M  V30 9324 O 907.693 1.72578 0.89053 0
M  V30 9325 C 904.823 3.25478 1.21167 0
M  V30 9326 C 903.777 4.2379 0.598846 0
M  V30 9327 C 903.103 5.05783 1.73457 0
M  V30 9328 C 904.403 5.20387 -0.446659 0
M  V30 9329 H 906.097 2.94636 -0.531956 0
M  V30 9330 H 903.643 1.41683 -0.257267 0
M  V30 9331 H 905.596 3.8402 1.73513 0
M  V30 9332 H 904.32 2.61695 1.95405 0
M  V30 9333 H 902.979 3.66472 0.0966897 0
M  V30 9334 H 902.627 4.38405 2.46596 0
M  V30 9335 H 902.327 5.72343 1.33031 0
M  V30 9336 H 903.851 5.67183 2.26131 0
M  V30 9337 H 905.265 5.73299 -0.00930019 0
M  V30 9338 H 903.662 5.95143 -0.769735 0
M  V30 9339 H 904.732 4.65932 -1.34295 0
M  V30 9340 N 906.075 0.2925 1.54862 0
M  V30 9341 C 907.324 -0.319994 1.99146 0
M  V30 9342 C 907.637 -1.55658 1.18448 0
M  V30 9343 O 908.843 -2.24312 1.52959 0
M  V30 9344 C 907.299 -0.620665 3.54508 0
M  V30 9345 C 906.907 0.597098 4.44003 0
M  V30 9346 C 908.651 -1.19482 4.07338 0
M  V30 9347 C 906.558 0.270049 5.90783 0
M  V30 9348 H 905.488 -0.123342 0.743843 0
M  V30 9349 H 908.139 0.399876 1.7909 0
M  V30 9350 H 906.521 -1.3999 3.7043 0
M  V30 9351 H 907.695 1.37354 4.39853 0
M  V30 9352 H 906.01 1.0893 4.019 0
M  V30 9353 H 908.607 -1.45362 5.14562 0
M  V30 9354 H 908.95 -2.13435 3.57423 0
M  V30 9355 H 909.483 -0.477485 3.94924 0
M  V30 9356 H 906.222 1.17791 6.4483 0
M  V30 9357 H 905.742 -0.469292 5.97961 0
M  V30 9358 H 907.421 -0.131471 6.46866 0
M  V30 9359 N 907.553 -1.57587 0.0200696 0
M  V30 9360 C 908.969 -1.56018 -0.336237 0
M  V30 9361 C 909.169 -1.02478 -1.73495 0
M  V30 9362 O 908.225 -0.667487 -2.43518 0
M  V30 9363 C 909.538 -3.00079 -0.193112 0
M  V30 9364 C 911.086 -3.11863 -0.266557 0
M  V30 9365 C 911.561 -4.57747 -0.152326 0
M  V30 9366 N 913.052 -4.62726 -0.209596 0
M  V30 9367 C 913.787 -5.73217 -0.144855 0
M  V30 9368 N 913.283 -6.92794 -0.0295487 0
M  V30 9369 N 915.076 -5.61751 -0.198184 0
M  V30 9370 H 907.227 -1.90722 0.93482 0
M  V30 9371 H 909.49 -0.876909 0.360186 0
M  V30 9372 H 909.196 -3.43167 0.770036 0
M  V30 9373 H 909.07 -3.64593 -0.967029 0
M  V30 9374 H 911.457 -2.68693 -1.22016 0
M  V30 9375 H 911.538 -2.50087 0.53758 0
M  V30 9376 H 911.182 -5.01595 0.797817 0
M  V30 9377 H 911.112 -5.17491 -0.97521 0
M  V30 9378 H 913.603 -3.76713 -0.299229 0
M  V30 9379 H 913.916 -7.72799 0.0134071 0
M  V30 9380 H 912.261 -6.95 0.00510737 0
M  V30 9381 H 915.452 -4.67222 -0.286603 0
M  V30 9382 H 915.625 -6.47839 -0.144266 0
M  V30 9383 N 909.032 0.252966 -1.55557 0
M  V30 9384 C 910.262 0.998115 -1.8089 0
M  V30 9385 C 910.67 1.79679 -0.592623 0
M  V30 9386 O 910.013 1.78151 0.448093 0
M  V30 9387 C 910.075 1.98878 -2.99479 0
M  V30 9388 C 909.739 1.37761 -4.35742 0
M  V30 9389 C 910.736 0.783142 -5.13968 0
M  V30 9390 C 908.421 1.39879 -4.8243 0
M  V30 9391 C 910.415 0.218004 -6.37027 0
M  V30 9392 C 908.102 0.829801 -6.0544 0
M  V30 9393 C 909.1 0.240426 -6.82577 0
M  V30 9394 O 908.788 -0.319797 -8.03264 0
M  V30 9395 H 908.52 0.29963 -0.605969 0
M  V30 9396 H 911.074 0.282978 -2.03441 0
M  V30 9397 H 909.304 2.74206 -2.72669 0
M  V30 9398 H 910.993 2.59686 -3.11959 0
M  V30 9399 H 911.759 0.759326 -4.79019 0
M  V30 9400 H 907.638 1.84692 -4.22386 0
M  V30 9401 H 911.182 -0.242654 -6.97178 0
M  V30 9402 H 907.079 0.850924 -6.39867 0
M  V30 9403 H 907.847 -0.211078 -8.18228 0
M  V30 9404 N 910.51 1.48831 0.518367 0
M  V30 9405 C 911.42 1.6692 1.64848 0
M  V30 9406 C 912.436 0.551711 1.65022 0
M  V30 9407 O 913.612 0.824251 1.83761 0
M  V30 9408 C 910.677 1.71559 3.01278 0
M  V30 9409 C 909.738 2.9502 3.11868 0
M  V30 9410 C 908.971 2.99428 4.4179 0
M  V30 9411 O 909.194 2.11914 5.29574 0
M  V30 9412 O 908.128 3.91719 4.5699 0
M  V30 9413 H 911.954 2.62623 1.52521 0
M  V30 9414 H 909.539 1.32368 0.692749 0
M  V30 9415 H 911.421 1.77064 3.82396 0
M  V30 9416 H 910.096 0.790316 3.13904 0
M  V30 9417 H 909.003 2.95042 2.30003 0
M  V30 9418 H 910.336 3.8697 3.04163 0
M  V30 9419 N 911.988 -0.768124 1.37614 0
M  V30 9420 C 913.399 -1.34462 1.29525 0
M  V30 9421 C 913.75 -1.96121 -0.0555168 0
M  V30 9422 O 912.875 -1.94069 -0.957406 0
M  V30 9423 C 913.47 -2.44475 2.34558 0
M  V30 9424 C 912.029 -2.97883 2.30093 0
M  V30 9425 C 911.176 -1.71131 2.18196 0
M  V30 9426 H 914.127 -0.568103 1.48183 0
M  V30 9427 H 914.148 -3.24047 1.99434 0
M  V30 9428 H 913.66 -1.99568 3.32858 0
M  V30 9429 H 911.761 -3.47156 1.35328 0
M  V30 9430 H 911.874 -3.53251 3.23652 0
M  V30 9431 H 910.238 -1.94197 1.64802 0
M  V30 9432 H 911.021 -1.28323 3.18415 0
M  V30 9433 N 913.466 -1.22244 -0.994698 0
M  V30 9434 C 914.398 -0.948706 -2.08644 0
M  V30 9435 C 915.411 0.0720049 -1.62641 0
M  V30 9436 O 916.6 -0.161778 -1.77765 0
M  V30 9437 C 913.7 -0.404885 -3.36473 0
M  V30 9438 C 912.873 -1.48239 -4.11514 0
M  V30 9439 C 911.932 -0.94597 -5.17627 0
M  V30 9440 O 910.958 -1.63177 -5.45309 0
M  V30 9441 N 912.16 0.23355 -5.8003 0
M  V30 9442 H 914.925 -1.88858 -2.32707 0
M  V30 9443 H 912.486 -1.12908 -1.16032 0
M  V30 9444 H 914.478 -0.0313903 -4.04688 0
M  V30 9445 H 913.048 0.440061 -3.09487 0
M  V30 9446 H 912.268 -2.02928 -3.37955 0
M  V30 9447 H 913.556 -2.20741 -4.58422 0
M  V30 9448 H 912.954 0.80756 -5.59906 0
M  V30 9449 H 911.511 0.54845 -6.49488 0
M  V30 9450 N 914.944 1.19125 -1.03184 0
M  V30 9451 C 915.874 2.24675 -0.635889 0
M  V30 9452 C 916.855 1.66321 0.356565 0
M  V30 9453 O 918.04 1.92728 0.238625 0
M  V30 9454 C 915.17 3.47298 0.011069 0
M  V30 9455 C 914.124 4.18345 -0.903979 0
M  V30 9456 C 913.45 5.34561 -0.12197 0
M  V30 9457 C 914.75 4.72816 -2.21907 0
M  V30 9458 H 916.444 2.5805 -1.51825 0
M  V30 9459 H 913.99 1.24039 -0.73146 0
M  V30 9460 H 915.943 4.20333 0.299729 0
M  V30 9461 H 914.667 3.13131 0.928245 0
M  V30 9462 H 913.326 3.47196 -1.17688 0
M  V30 9463 H 912.974 4.9664 0.797334 0
M  V30 9464 H 912.674 5.83029 -0.731498 0
M  V30 9465 H 914.198 6.10391 0.159881 0
M  V30 9466 H 915.612 5.3759 -1.99173 0
M  V30 9467 H 914.009 5.31782 -2.78078 0
M  V30 9468 H 915.079 3.9072 -2.87168 0
M  V30 9469 N 916.422 0.810101 1.35185 0
M  V30 9470 C 917.833 0.452616 1.81131 0
M  V30 9471 C 918.184 -1.02573 1.67252 0
M  V30 9472 O 917.309 -1.79735 1.20516 0
M  V30 9473 C 917.904 0.814775 3.28857 0
M  V30 9474 C 916.463 0.509839 3.72931 0
M  V30 9475 C 915.61 1.03852 2.57119 0
M  V30 9476 H 918.561 1.00143 1.23114 0
M  V30 9477 H 918.582 0.113635 3.8033 0
M  V30 9478 H 918.094 1.89078 3.38926 0
M  V30 9479 H 916.195 -0.557289 3.68409 0
M  V30 9480 H 916.308 1.04493 4.67566 0
M  V30 9481 H 914.672 0.460671 2.50499 0
M  V30 9482 H 915.455 2.12071 2.69964 0
M  V30 9483 N 917.9 -1.47166 0.563914 0
M  V30 9484 C 919.177 -1.95586 -0.0236172 0
M  V30 9485 C 919.557 -1.50655 -1.47872 0
M  V30 9486 O 918.905 -0.748479 -2.15894 0
M  V30 9487 C 919.115 -3.48762 0.128841 0
M  V30 9488 C 920.463 -4.24598 -0.0130544 0
M  V30 9489 O 921.487 -3.56155 0.0567242 0
M  V30 9490 O 920.346 -5.46253 -0.164332 0
M  V30 9491 H 917.44 -0.824793 -0.0603789 0
M  V30 9492 H 919.986 -1.57536 0.63091 0
M  V30 9493 H 918.758 -3.74291 1.14113 0
M  V30 9494 H 918.381 -3.93594 -0.56299 0
M  V30 9495 N 919.378 -0.300708 -1.54705 0
M  V30 9496 C 920.328 0.590589 -2.20218 0
M  V30 9497 C 921.312 1.09913 -1.17507 0
M  V30 9498 O 922.504 1.03995 -1.43227 0
M  V30 9499 C 919.633 1.76214 -2.94625 0
M  V30 9500 C 918.719 1.26957 -4.04651 0
M  V30 9501 N 919.11 0.494982 -5.03372 0
M  V30 9502 C 917.408 1.55033 -4.18188 0
M  V30 9503 C 918.109 0.232724 -5.81234 0
M  V30 9504 N 917.085 0.812443 -5.37494 0
M  V30 9505 H 920.887 -0.00876354 -2.93899 0
M  V30 9506 H 918.401 -0.105456 -1.62057 0
M  V30 9507 H 920.398 2.41221 -3.40027 0
M  V30 9508 H 919.058 2.36519 -2.22461 0
M  V30 9509 H 920.069 0.13991 -5.17711 0
M  V30 9510 H 916.746 2.16089 -3.57228 0
M  V30 9511 H 918.136 -0.389362 -6.70771 0
M  V30 9512 N 920.856 1.57574 -0.0284266 0
M  V30 9513 C 922.102 1.92884 0.645544 0
M  V30 9514 C 922.457 0.905203 1.69776 0
M  V30 9515 O 921.75 -0.0788509 1.91438 0
M  V30 9516 C 921.944 3.32699 1.3056 0
M  V30 9517 C 921.773 4.48568 0.318848 0
M  V30 9518 C 920.543 5.05235 -0.0810373 0
M  V30 9519 C 922.741 5.12528 -0.426575 0
M  V30 9520 N 920.723 6.04626 -1.06303 0
M  V30 9521 C 922.094 6.07013 -1.26235 0
M  V30 9522 C 924.149 4.95509 -0.48735 0
M  V30 9523 C 922.852 6.8631 -2.15341 0
M  V30 9524 C 924.878 5.75414 -1.36575 0
M  V30 9525 C 924.24 6.69514 -2.1893 0
M  V30 9526 H 920.339 0.753677 0.208555 0
M  V30 9527 H 922.923 1.94466 -0.095439 0
M  V30 9528 H 921.094 3.31938 2.01673 0
M  V30 9529 H 922.826 3.55359 1.93655 0
M  V30 9530 H 919.581 4.72691 0.293264 0
M  V30 9531 H 920.005 6.59012 -1.55025 0
M  V30 9532 H 924.647 4.22584 0.135112 0
M  V30 9533 H 922.365 7.58541 -2.78642 0
M  V30 9534 H 925.951 5.64279 -1.41705 0
M  V30 9535 H 924.831 7.30266 -2.85799 0
M  V30 9536 N 922.334 -0.244713 1.55689 0
M  V30 9537 C 923.244 -1.32447 1.93636 0
M  V30 9538 C 924.26 -1.52541 0.837086 0
M  V30 9539 O 925.436 -1.66121 1.13867 0
M  V30 9540 C 922.501 -2.65864 2.22525 0
M  V30 9541 C 921.562 -2.54273 3.45896 0
M  V30 9542 C 920.795 -3.81327 3.73397 0
M  V30 9543 O 921.018 -4.83307 3.02936 0
M  V30 9544 O 919.952 -3.79829 4.66919 0
M  V30 9545 H 923.778 -1.03255 2.85608 0
M  V30 9546 H 921.363 -0.445652 1.42598 0
M  V30 9547 H 923.245 -3.447 2.42404 0
M  V30 9548 H 921.92 -2.94784 1.33731 0
M  V30 9549 H 920.827 -1.73715 3.31321 0
M  V30 9550 H 922.16 -2.30297 4.34999 0
M  V30 9551 N 923.813 -1.49104 -0.510467 0
M  V30 9552 C 924.76 -1.65074 -1.61305 0
M  V30 9553 C 925.73 -0.492362 -1.58635 0
M  V30 9554 O 926.915 -0.718241 -1.76765 0
M  V30 9555 C 924.055 -1.71457 -2.99493 0
M  V30 9556 C 923.168 -2.98536 -3.12251 0
M  V30 9557 C 922.303 -2.95957 -4.41116 0
M  V30 9558 C 921.342 -4.17655 -4.47471 0
M  V30 9559 N 920.479 -4.13041 -5.67751 0
M  V30 9560 H 925.319 -2.59222 -1.46996 0
M  V30 9561 H 922.856 -1.28535 -0.715346 0
M  V30 9562 H 924.814 -1.7314 -3.79577 0
M  V30 9563 H 923.444 -0.807834 -3.12528 0
M  V30 9564 H 922.496 -3.06509 -2.25292 0
M  V30 9565 H 923.808 -3.88527 -3.12807 0
M  V30 9566 H 922.962 -2.96149 -5.2951 0
M  V30 9567 H 921.701 -2.03728 -4.4311 0
M  V30 9568 H 920.706 -4.17717 -3.57481 0
M  V30 9569 H 921.931 -5.11066 -4.472 0
M  V30 9570 H 919.877 -3.23643 -5.70606 0
M  V30 9571 H 919.794 -4.96757 -5.69884 0
M  V30 9572 H 921.062 -4.17322 -6.58379 0
M  V30 9573 N 925.291 0.760815 -1.38019 0
M  V30 9574 C 926.254 1.85604 -1.34476 0
M  V30 9575 C 927.254 1.58897 -0.24666 0
M  V30 9576 O 928.444 1.66776 -0.50314 0
M  V30 9577 C 925.576 3.22945 -1.09176 0
M  V30 9578 H 926.769 1.90155 -2.31908 0
M  V30 9579 H 924.322 0.961746 -1.23208 0
M  V30 9580 H 925.057 3.24066 -0.123216 0
M  V30 9581 H 924.842 3.43723 -1.88672 0
M  V30 9582 H 926.332 4.03022 -1.09375 0
M  V30 9583 N 926.769 1.22769 0.988202 0
M  V30 9584 C 928.015 1.05665 1.73097 0
M  V30 9585 C 928.348 -0.406615 1.89895 0
M  V30 9586 O 927.623 -1.30132 1.44554 0
M  V30 9587 C 927.906 1.77381 3.13382 0
M  V30 9588 C 927.759 3.31332 3.04203 0
M  V30 9589 C 929.078 1.52999 4.12649 0
M  V30 9590 H 926.197 0.385258 0.628288 0
M  V30 9591 H 928.839 1.51171 1.15097 0
M  V30 9592 H 926.989 1.38696 3.62899 0
M  V30 9593 H 928.661 3.79489 2.6227 0
M  V30 9594 H 926.904 3.60767 2.40894 0
M  V30 9595 H 927.575 3.76692 4.03493 0
M  V30 9596 H 930.051 1.86611 3.71908 0
M  V30 9597 H 928.927 2.05666 5.08913 0
M  V30 9598 H 929.188 0.463615 4.39662 0
M  V30 9599 N 928.247 -1.18576 1.03814 0
M  V30 9600 C 929.496 -1.87822 0.735235 0
M  V30 9601 C 929.809 -1.81069 -0.739819 0
M  V30 9602 O 931.015 -2.45654 -1.15614 0
M  V30 9603 C 929.471 -3.36941 1.26486 0
M  V30 9604 C 929.079 -3.5223 2.76836 0
M  V30 9605 C 930.823 -4.11604 1.03836 0
M  V30 9606 C 928.73 -4.95294 3.23169 0
M  V30 9607 H 927.66 -0.703487 0.271333 0
M  V30 9608 H 930.311 -1.34 1.25365 0
M  V30 9609 H 928.693 -3.90217 0.674318 0
M  V30 9610 H 929.867 -3.09239 3.41625 0
M  V30 9611 H 928.182 -2.90969 2.97869 0
M  V30 9612 H 930.779 -5.17123 1.3597 0
M  V30 9613 H 931.122 -4.16293 -0.0244945 0
M  V30 9614 H 931.655 -3.64494 1.59338 0
M  V30 9615 H 928.394 -4.95772 4.28824 0
M  V30 9616 H 927.914 -5.3901 2.63113 0
M  V30 9617 H 929.593 -5.63996 3.17045 0
M  V30 9618 N 929.725 -0.817259 -1.34754 0
M  V30 9619 C 930.953 -0.415451 -2.02686 0
M  V30 9620 C 931.368 0.97688 -1.61563 0
M  V30 9621 O 930.725 1.63125 -0.818321 0
M  V30 9622 C 930.776 -0.501486 -3.58005 0
M  V30 9623 O 930.497 -1.83893 -3.97637 0
M  V30 9624 C 931.998 -0.0938504 -4.43201 0
M  V30 9625 H 929.218 -0.16742 -0.649778 0
M  V30 9626 H 931.762 -1.10384 -1.7215 0
M  V30 9627 H 929.917 0.138766 -3.87151 0
M  V30 9628 H 930.331 -1.8092 -4.92309 0
M  V30 9629 H 931.805 -0.205145 -5.51619 0
M  V30 9630 H 932.282 0.962011 -4.28535 0
M  V30 9631 H 932.888 -0.707677 -4.19371 0
M  V30 9632 N 931.203 1.46865 -0.571711 0
M  V30 9633 C 932.449 2.0273 -0.0531858 0
M  V30 9634 C 932.782 1.44353 1.29907 0
M  V30 9635 O 932.057 0.604488 1.84868 0
M  V30 9636 C 932.34 3.60092 0.0243831 0
M  V30 9637 C 932.193 4.28874 -1.35599 0
M  V30 9638 C 933.512 4.33994 0.730563 0
M  V30 9639 H 930.631 0.736706 -0.0208018 0
M  V30 9640 H 933.273 1.75132 -0.736794 0
M  V30 9641 H 931.423 3.83736 0.606565 0
M  V30 9642 H 933.095 4.16527 -1.98249 0
M  V30 9643 H 931.338 3.88664 -1.92674 0
M  V30 9644 H 932.009 5.37561 -1.25429 0
M  V30 9645 H 934.485 4.1543 0.236098 0
M  V30 9646 H 933.361 5.43699 0.753836 0
M  V30 9647 H 933.622 4.04257 1.78967 0
M  V30 9648 N 932.681 0.308908 1.54543 0
M  V30 9649 C 933.613 -0.597453 2.21276 0
M  V30 9650 C 934.626 -1.09137 1.20801 0
M  V30 9651 O 935.815 -1.00747 1.47351 0
M  V30 9652 C 932.915 -1.83085 2.85189 0
M  V30 9653 C 932.088 -1.4781 4.11669 0
M  V30 9654 C 931.147 -2.56748 4.59311 0
M  V30 9655 O 930.173 -2.21507 5.24331 0
M  V30 9656 N 931.375 -3.87427 4.32297 0
M  V30 9657 H 934.14 -0.0261183 2.99689 0
M  V30 9658 H 931.701 0.131456 1.61365 0
M  V30 9659 H 933.693 -2.55326 3.13992 0
M  V30 9660 H 932.263 -2.31039 2.1057 0
M  V30 9661 H 931.483 -0.587974 3.8979 0
M  V30 9662 H 932.771 -1.2179 4.94009 0
M  V30 9663 H 932.169 -4.18863 3.80224 0
M  V30 9664 H 930.726 -4.55942 4.6579 0
M  V30 9665 N 934.159 -1.57557 0.0367827 0
M  V30 9666 C 935.575 -1.56366 -0.31967 0
M  V30 9667 C 935.775 -1.04313 -1.72398 0
M  V30 9668 O 934.831 -0.693278 -2.42796 0
M  V30 9669 C 936.144 -3.00267 -0.161274 0
M  V30 9670 C 937.692 -3.12128 -0.233464 0
M  V30 9671 C 938.167 -4.57882 -0.103767 0
M  V30 9672 N 939.658 -4.62922 -0.160506 0
M  V30 9673 C 940.393 -5.73338 -0.0840493 0
M  V30 9674 N 939.889 -6.92786 0.043933 0
M  V30 9675 N 941.682 -5.61929 -0.138592 0
M  V30 9676 H 933.833 -1.8972 0.954996 0
M  V30 9677 H 936.096 -0.87304 0.369467 0
M  V30 9678 H 935.802 -3.42331 0.80639 0
M  V30 9679 H 935.676 -3.65599 -0.928304 0
M  V30 9680 H 938.063 -2.69972 -1.19159 0
M  V30 9681 H 938.144 -2.49503 0.564075 0
M  V30 9682 H 937.788 -5.0072 0.850973 0
M  V30 9683 H 937.718 -5.18496 -0.920268 0
M  V30 9684 H 940.209 -3.7701 -0.259257 0
M  V30 9685 H 940.522 -7.72741 0.095372 0
M  V30 9686 H 938.867 -6.94955 0.0788211 0
M  V30 9687 H 942.058 -4.67499 -0.237031 0
M  V30 9688 H 942.231 -6.47956 -0.075546 0
M  V30 9689 N 935.637 0.236453 -1.55816 0
M  V30 9690 C 937.048 0.80468 -1.68469 0
M  V30 9691 C 937.399 1.85601 -0.636133 0
M  V30 9692 O 936.524 2.15323 0.215622 0
M  V30 9693 C 937.119 1.46634 -3.05424 0
M  V30 9694 C 935.678 1.98214 -3.19981 0
M  V30 9695 C 934.825 0.83695 -2.64368 0
M  V30 9696 H 937.776 0.0120647 -1.58695 0
M  V30 9697 H 937.797 2.33472 -3.00451 0
M  V30 9698 H 937.309 0.700931 -3.81718 0
M  V30 9699 H 935.41 2.77604 -2.4853 0
M  V30 9700 H 935.523 2.17235 -4.2702 0
M  V30 9701 H 933.887 1.24028 -2.22462 0
M  V30 9702 H 934.67 0.084451 -3.43196 0
M  V30 9703 N 937.115 1.49373 0.502552 0
M  V30 9704 C 938.363 1.58467 1.25429 0
M  V30 9705 C 938.684 0.272593 1.93085 0
M  V30 9706 O 937.954 -0.707947 1.82661 0
M  V30 9707 H 936.534 0.583866 0.46595 0
M  V30 9708 H 939.196 1.8599 0.582568 0
M  V30 9709 H 938.292 2.37993 2.01906 0
M  V30 9710 N 938.594 -0.753485 1.38421 0
M  V30 9711 C 940.01 -1.05656 1.1962 0
M  V30 9712 C 940.21 -2.0145 0.0449443 0
M  V30 9713 O 939.266 -2.45039 -0.609253 0
M  V30 9714 C 940.579 -1.63655 2.52265 0
M  V30 9715 C 942.127 -1.75825 2.58949 0
M  V30 9716 C 942.602 -2.37236 3.91769 0
M  V30 9717 N 944.093 -2.44666 3.9331 0
M  V30 9718 C 944.828 -2.93077 4.92842 0
M  V30 9719 N 944.324 -3.41523 6.02772 0
M  V30 9720 N 946.117 -2.92118 4.80232 0
M  V30 9721 H 938.268 -0.117799 2.12073 0
M  V30 9722 H 940.531 -0.114889 0.941012 0
M  V30 9723 H 940.237 -1.00734 3.36965 0
M  V30 9724 H 940.111 -2.62715 2.70667 0
M  V30 9725 H 942.498 -2.37873 1.74644 0
M  V30 9726 H 942.579 -0.754693 2.44414 0
M  V30 9727 H 942.223 -1.75822 4.76497 0
M  V30 9728 H 942.153 -3.38233 4.03616 0
M  V30 9729 H 944.644 -2.10403 3.1391 0
M  V30 9730 H 944.957 -3.76919 6.74649 0
M  V30 9731 H 943.302 -3.3958 6.06391 0
M  V30 9732 H 946.493 -2.53582 3.93464 0
M  V30 9733 H 946.666 -3.29535 5.57952 0
M  V30 9734 N 940.072 -1.23292 -0.981677 0
M  V30 9735 C 941.321 -1.05832 -1.71705 0
M  V30 9736 C 941.634 0.40514 -1.91358 0
M  V30 9737 O 942.84 0.699645 -2.6233 0
M  V30 9738 C 941.296 -1.84532 -3.08992 0
M  V30 9739 C 940.904 -3.35199 -2.9723 0
M  V30 9740 C 942.648 -1.75557 -3.86497 0
M  V30 9741 C 940.555 -4.06296 -4.29741 0
M  V30 9742 H 939.485 -0.39241 -0.64384 0
M  V30 9743 H 942.136 -1.47247 -1.09502 0
M  V30 9744 H 940.518 -1.35923 -3.71942 0
M  V30 9745 H 941.692 -3.91286 -2.43377 0
M  V30 9746 H 940.007 -3.44973 -2.332 0
M  V30 9747 H 942.604 -2.25989 -4.84596 0
M  V30 9748 H 942.947 -0.718101 -4.1006 0
M  V30 9749 H 943.48 -2.21771 -3.30246 0
M  V30 9750 H 940.219 -5.10344 -4.11375 0
M  V30 9751 H 939.739 -3.54997 -4.83464 0
M  V30 9752 H 941.418 -4.12519 -4.98434 0
M  V30 9753 N 941.55 1.18024 -1.04442 0
M  V30 9754 C 942.961 1.69749 -0.777312 0
M  V30 9755 C 943.312 1.83234 0.701399 0
M  V30 9756 O 942.437 1.51452 1.54568 0
M  V30 9757 C 943.032 3.08321 -1.40441 0
M  V30 9758 C 941.591 3.57243 -1.18553 0
M  V30 9759 C 940.738 2.33695 -1.49271 0
M  V30 9760 H 943.689 1.02647 -1.21035 0
M  V30 9761 H 943.71 3.71787 -0.809628 0
M  V30 9762 H 943.222 2.98474 -2.48062 0
M  V30 9763 H 941.323 3.72379 -0.128221 0
M  V30 9764 H 941.436 4.40451 -1.88519 0
M  V30 9765 H 939.8 2.37792 -0.912526 0
M  V30 9766 H 940.583 2.26464 -2.5801 0
M  V30 9767 N 943.028 0.824394 1.34319 0
M  V30 9768 C 944.256 0.426194 2.02463 0
M  V30 9769 C 944.671 -0.968298 1.62078 0
M  V30 9770 O 944.028 -1.62689 0.82696 0
M  V30 9771 C 944.079 0.520465 3.57734 0
M  V30 9772 O 943.8 1.86 3.96656 0
M  V30 9773 C 945.301 0.117353 4.43145 0
M  V30 9774 H 942.521 0.170864 0.648881 0
M  V30 9775 H 945.065 1.11296 1.71562 0
M  V30 9776 H 943.22 -0.118233 3.8722 0
M  V30 9777 H 943.634 1.83528 4.91343 0
M  V30 9778 H 945.108 0.234395 5.51502 0
M  V30 9779 H 945.585 -0.939271 4.29039 0
M  V30 9780 H 946.191 0.729908 4.1899 0
M  V30 9781 N 944.506 -1.46559 0.579492 0
M  V30 9782 C 945.731 -2.0729 0.0674595 0
M  V30 9783 C 946.156 -1.4259 -1.22677 0
M  V30 9784 O 945.514 -0.50857 -1.74021 0
M  V30 9785 C 945.562 -3.60492 -0.0882227 0
M  V30 9786 O 944.666 -3.96172 -1.14551 0
M  V30 9787 H 944.007 -0.661159 0.0613536 0
M  V30 9788 H 946.537 -1.88247 0.801519 0
M  V30 9789 H 946.547 -4.06929 -0.295411 0
M  V30 9790 H 945.222 -4.06976 0.856943 0
M  V30 9791 H 943.799 -3.61448 -0.917033 0
M  V30 9792 N 945.984 -0.3171 -1.54377 0
M  V30 9793 C 947.209 0.292311 -2.0533 0
M  V30 9794 C 947.634 1.45503 -1.19207 0
M  V30 9795 O 946.992 1.80197 -0.199721 0
M  V30 9796 C 947.04 0.710787 -3.53525 0
M  V30 9797 O 946.144 1.81387 -3.70368 0
M  V30 9798 H 945.485 0.0539976 -0.661801 0
M  V30 9799 H 948.015 -0.463629 -1.99278 0
M  V30 9800 H 948.025 0.995216 -3.95676 0
M  V30 9801 H 946.7 -0.139668 -4.15665 0
M  V30 9802 H 945.277 1.52875 -3.40123 0
M  V30 9803 N 947.462 1.57535 -0.0451378 0
M  V30 9804 C 948.878 1.56533 0.311373 0
M  V30 9805 C 949.078 1.05225 1.71843 0
M  V30 9806 O 948.134 0.706144 2.42425 0
M  V30 9807 C 949.447 3.00349 0.145348 0
M  V30 9808 C 950.995 3.12248 0.216908 0
M  V30 9809 C 951.47 4.57931 0.0794834 0
M  V30 9810 N 952.961 4.63 0.135954 0
M  V30 9811 C 953.696 5.73375 0.0536426 0
M  V30 9812 N 953.192 6.92753 -0.0806725 0
M  V30 9813 N 954.985 5.61995 0.108789 0
M  V30 9814 H 947.136 1.89211 -0.965044 0
M  V30 9815 H 949.399 0.871068 -0.374091 0
M  V30 9816 H 949.105 3.41898 -0.824533 0
M  V30 9817 H 948.979 3.66086 0.908903 0
M  V30 9818 H 951.366 2.70601 1.17726 0
M  V30 9819 H 951.447 2.49201 -0.577299 0
M  V30 9820 H 951.091 5.00262 -0.877516 0
M  V30 9821 H 951.021 5.18977 0.892758 0
M  V30 9822 H 953.512 3.77142 0.23926 0
M  V30 9823 H 953.825 7.7268 -0.136351 0
M  V30 9824 H 952.17 6.94904 -0.115675 0
M  V30 9825 H 955.361 4.67619 0.212235 0
M  V30 9826 H 955.534 6.47987 0.0411822 0
M  V30 9827 N 948.94 -0.228186 1.55939 0
M  V30 9828 C 950.18 -0.960695 1.80416 0
M  V30 9829 C 950.544 -1.81795 0.617615 0
M  V30 9830 O 951.745 -2.58369 0.741545 0
M  V30 9831 C 950.016 -1.78298 3.09749 0
M  V30 9832 S 951.575 -2.57203 3.55517 0
M  V30 9833 H 948.393 -0.322825 0.633486 0
M  V30 9834 H 950.995 -0.226852 1.94179 0
M  V30 9835 H 949.699 -1.14323 3.94155 0
M  V30 9836 H 949.23 -2.55924 2.98775 0
M  V30 9837 H 951.245 -3.80632 3.1833 0
M  V30 9838 N 950.418 -1.49637 -0.494624 0
M  V30 9839 C 951.666 -1.5913 -1.24587 0
M  V30 9840 C 951.987 -0.282828 -1.92938 0
M  V30 9841 O 951.257 0.69825 -1.83034 0
M  V30 9842 H 949.837 -0.586329 -0.462847 0
M  V30 9843 H 952.499 -1.86296 -0.572696 0
M  V30 9844 H 951.595 -2.3906 -2.00641 0
M  V30 9845 N 951.896 0.746133 -1.38819 0
M  V30 9846 C 952.844 1.88137 -1.36774 0
M  V30 9847 C 953.838 1.67508 -0.252495 0
M  V30 9848 O 955.044 1.74985 -0.421935 0
M  V30 9849 H 951.419 0.619116 -0.426849 0
M  V30 9850 H 953.39 1.86978 -2.32555 0
M  V30 9851 C 952.139 3.25703 -1.21708 0
M  V30 9852 H 951.462 3.42168 -2.06788 0
M  V30 9853 H 952.902 4.05361 -1.24332 0
M  V30 9854 C 951.361 3.36816 0.0754257 0
M  V30 9855 O 951.891 3.87742 1.04972 0
M  V30 9856 N 950.097 2.90287 0.134761 0
M  V30 9857 H 949.644 2.49034 -0.658779 0
M  V30 9858 H 949.602 2.98103 0.999109 0
M  V30 9859 N 953.375 1.23811 0.975125 0
M  V30 9860 C 954.603 1.10019 1.75224 0
M  V30 9861 C 955.018 -0.34791 1.85567 0
M  V30 9862 O 954.375 -1.24043 1.33864 0
M  V30 9863 C 954.426 1.72572 3.1765 0
M  V30 9864 O 954.147 3.11719 3.07836 0
M  V30 9865 C 955.648 1.64292 4.11732 0
M  V30 9866 H 952.868 0.38476 0.549728 0
M  V30 9867 H 955.412 1.63768 1.22476 0
M  V30 9868 H 953.567 1.22843 3.67408 0
M  V30 9869 H 953.981 3.42152 3.97533 0
M  V30 9870 H 955.455 2.12754 5.09352 0
M  V30 9871 H 955.932 0.602722 4.35045 0
M  V30 9872 H 956.538 2.13411 3.6788 0
M  V30 9873 N 954.853 -1.17469 1.05066 0
M  V30 9874 C 956.102 -1.87032 0.755114 0
M  V30 9875 C 956.415 -1.81844 -0.720572 0
M  V30 9876 O 957.621 -2.46866 -1.13002 0
M  V30 9877 C 956.077 -3.35581 1.30052 0
M  V30 9878 C 955.685 -3.49274 2.80556 0
M  V30 9879 C 957.429 -4.1048 1.08196 0
M  V30 9880 C 955.336 -4.91838 3.28404 0
M  V30 9881 H 954.266 -0.70057 0.278779 0
M  V30 9882 H 956.917 -1.32663 1.26779 0
M  V30 9883 H 955.299 -3.89479 0.715667 0
M  V30 9884 H 956.473 -3.05598 3.44886 0
M  V30 9885 H 954.788 -2.87793 3.00939 0
M  V30 9886 H 957.385 -5.15652 1.41447 0
M  V30 9887 H 957.728 -4.16295 0.0196603 0
M  V30 9888 H 958.261 -3.62784 1.63195 0
M  V30 9889 H 955 -4.91196 4.34058 0
M  V30 9890 H 954.52 -5.36189 2.68815 0
M  V30 9891 H 956.199 -5.60602 3.23009 0
M  V30 9892 N 956.331 -0.831506 -1.3388 0
M  V30 9893 C 957.742 -0.481375 -1.80388 0
M  V30 9894 C 958.093 0.998993 -1.68863 0
M  V30 9895 O 957.218 1.77795 -1.2336 0
M  V30 9896 C 957.813 -0.86699 -3.27519 0
M  V30 9897 C 956.372 -0.569105 -3.72073 0
M  V30 9898 C 955.519 -1.07929 -2.55434 0
M  V30 9899 H 958.47 -1.02089 -1.21505 0
M  V30 9900 H 958.491 -0.174128 -3.80101 0
M  V30 9901 H 958.003 -1.94447 -3.35875 0
M  V30 9902 H 956.104 0.498607 -3.69249 0
M  V30 9903 H 956.217 -1.11918 -4.65845 0
M  V30 9904 H 954.581 -0.500465 -2.49735 0
M  V30 9905 H 955.364 -2.16339 -2.66556 0
M  V30 9906 N 957.809 1.4625 -0.587256 0
M  V30 9907 C 959.086 1.95599 -0.00750181 0
M  V30 9908 C 959.466 1.52989 1.45457 0
M  V30 9909 O 958.814 0.782731 2.14676 0
M  V30 9910 C 959.024 3.48513 -0.184309 0
M  V30 9911 C 960.372 4.24565 -0.0544972 0
M  V30 9912 O 961.396 3.5602 -0.113378 0
M  V30 9913 O 960.255 5.46445 0.0774075 0
M  V30 9914 H 957.349 0.825649 0.0472495 0
M  V30 9915 H 959.895 1.56512 -0.655893 0
M  V30 9916 H 958.667 3.72428 -1.20053 0
M  V30 9917 H 958.29 3.9444 0.500301 0
M  V30 9918 N 959.287 0.325282 1.54207 0
M  V30 9919 C 960.564 -0.33113 1.92777 0
M  V30 9920 C 960.944 -1.69739 1.25506 0
M  V30 9921 O 960.292 -2.24983 0.399385 0
M  V30 9922 C 960.502 -0.421636 3.46444 0
M  V30 9923 C 961.85 -0.681111 4.19101 0
M  V30 9924 O 962.874 -0.504488 3.52609 0
M  V30 9925 O 961.733 -1.02196 5.3686 0
M  V30 9926 H 958.827 -0.18943 0.805013 0
M  V30 9927 H 961.373 0.375123 1.65502 0
M  V30 9928 H 960.145 0.537862 3.87586 0
M  V30 9929 H 959.768 -1.1754 3.79829 0
M  V30 9930 N 960.765 -1.57509 0.0534917 0
M  V30 9931 C 962.042 -1.84137 -0.659767 0
M  V30 9932 C 962.422 -0.942362 -1.88899 0
M  V30 9933 O 961.77 -0.00398566 -2.285 0
M  V30 9934 C 961.98 -3.33919 -1.01486 0
M  V30 9935 C 963.328 -4.00989 -1.39616 0
M  V30 9936 O 964.352 -3.38557 -1.10713 0
M  V30 9937 O 963.211 -5.11071 -1.93567 0
M  V30 9938 H 960.305 -0.760081 -0.325893 0
M  V30 9939 H 962.851 -1.69497 0.0830315 0
M  V30 9940 H 961.623 -3.91046 -0.141041 0
M  V30 9941 H 961.246 -3.53755 -1.81503 0
M  V30 9942 N 962.243 0.219913 -1.56058 0
M  V30 9943 C 963.191 1.29215 -1.93407 0
M  V30 9944 C 964.185 1.48434 -0.816307 0
M  V30 9945 O 965.391 1.49589 -1.00115 0
M  V30 9946 H 961.766 0.433256 -0.614649 0
M  V30 9947 H 963.737 0.949977 -2.82875 0
M  V30 9948 C 962.486 2.63501 -2.26854 0
M  V30 9949 H 961.809 2.4952 -3.12377 0
M  V30 9950 H 963.249 3.37334 -2.56869 0
M  V30 9951 C 961.708 3.18634 -1.09425 0
M  V30 9952 O 962.238 4.00117 -0.356243 0
M  V30 9953 N 960.444 2.7703 -0.877642 0
M  V30 9954 H 959.991 2.10875 -1.47951 0
M  V30 9955 H 959.949 3.1426 -0.0936792 0
M  V30 9956 N 963.721 1.49897 0.486681 0
M  V30 9957 C 964.653 1.63755 1.60365 0
M  V30 9958 C 965.666 0.519614 1.54285 0
M  V30 9959 O 966.855 0.792219 1.59957 0
M  V30 9960 C 963.955 1.59153 2.99205 0
M  V30 9961 C 963.128 2.8672 3.30319 0
M  V30 9962 C 962.187 2.74974 4.48638 0
M  V30 9963 O 961.213 3.48922 4.49714 0
M  V30 9964 N 962.415 1.87479 5.49392 0
M  V30 9965 H 965.18 2.60094 1.48899 0
M  V30 9966 H 962.741 1.47166 0.674825 0
M  V30 9967 H 964.733 1.4893 3.76301 0
M  V30 9968 H 963.303 0.706133 3.0452 0
M  V30 9969 H 962.523 3.11188 2.41983 0
M  V30 9970 H 963.811 3.71262 3.47911 0
M  V30 9971 H 963.209 1.26684 5.51333 0
M  V30 9972 H 961.766 1.83169 6.25534 0
M  V30 9973 N 965.199 -0.738761 1.39212 0
M  V30 9974 C 966.445 -1.50046 1.36433 0
M  V30 9975 C 966.778 -1.94157 -0.0409474 0
M  V30 9976 O 966.053 -1.66515 -1.00514 0
M  V30 9977 C 966.336 -2.74277 2.33333 0
M  V30 9978 C 966.189 -2.36209 3.82786 0
M  V30 9979 C 967.508 -3.76361 2.28123 0
M  V30 9980 H 964.627 -0.544294 0.496903 0
M  V30 9981 H 967.269 -0.845005 1.70175 0
M  V30 9982 H 965.419 -3.30204 2.04689 0
M  V30 9983 H 967.091 -1.85942 4.22165 0
M  V30 9984 H 965.334 -1.68483 3.99745 0
M  V30 9985 H 966.005 -3.25156 4.46069 0
M  V30 9986 H 968.481 -3.30009 2.53443 0
M  V30 9987 H 967.357 -4.60957 2.9801 0
M  V30 9988 H 967.618 -4.23013 1.28499 0
M  V30 9989 N 966.677 -1.24326 -0.968545 0
M  V30 9990 C 967.923 -1.08406 -1.71394 0
M  V30 9991 C 968.256 0.376353 -1.90518 0
M  V30 9992 O 967.531 1.27816 -1.46606 0
M  V30 9993 C 967.814 -1.82344 -3.1052 0
M  V30 9994 C 967.667 -3.3613 -2.98893 0
M  V30 9995 C 968.986 -1.59545 -4.10163 0
M  V30 9996 H 966.105 -0.395205 -0.622079 0
M  V30 9997 H 968.747 -1.52983 -1.12677 0
M  V30 9998 H 966.897 -1.44452 -3.60646 0
M  V30 9999 H 968.569 -3.83614 -2.56199 0
M  V30 10000 H 966.812 -3.64553 -2.35124 0
M  V30 10001 H 967.483 -3.83064 -3.97449 0
M  V30 10002 H 969.959 -1.92504 -3.68892 0
M  V30 10003 H 968.835 -2.13736 -5.05577 0
M  V30 10004 H 969.096 -0.533503 -4.38869 0
M  V30 10005 N 968.156 1.1691 -1.05688 0
M  V30 10006 C 969.381 1.91745 -0.790478 0
M  V30 10007 C 969.806 1.76568 0.648478 0
M  V30 10008 O 969.164 1.08682 1.45114 0
M  V30 10009 C 969.212 3.4067 -1.18222 0
M  V30 10010 O 968.316 4.11177 -0.317341 0
M  V30 10011 H 967.657 0.5976 -0.28943 0
M  V30 10012 H 970.187 1.48157 -1.41105 0
M  V30 10013 H 970.197 3.91424 -1.15114 0
M  V30 10014 H 968.872 3.51036 -2.2304 0
M  V30 10015 H 967.449 3.70645 -0.409459 0
M  V30 10016 N 969.634 0.838594 1.33437 0
M  V30 10017 C 970.564 0.286672 2.31734 0
M  V30 10018 C 971.545 -0.605451 1.5896 0
M  V30 10019 O 972.73 -0.529059 1.86854 0
M  V30 10020 C 969.86 -0.539311 3.43087 0
M  V30 10021 C 968.814 0.256997 4.27228 0
M  V30 10022 C 968.14 -0.692718 5.30194 0
M  V30 10023 C 969.44 1.47391 5.01072 0
M  V30 10024 H 971.134 1.10798 2.78144 0
M  V30 10025 H 968.68 0.534235 1.33723 0
M  V30 10026 H 970.633 -0.935724 4.1088 0
M  V30 10027 H 969.357 -1.39383 2.95364 0
M  V30 10028 H 968.016 0.634967 3.61059 0
M  V30 10029 H 967.664 -1.54363 4.78729 0
M  V30 10030 H 967.364 -0.164023 5.87371 0
M  V30 10031 H 968.888 -1.08665 6.00853 0
M  V30 10032 H 970.302 1.15067 5.61634 0
M  V30 10033 H 968.699 1.93937 5.67898 0
M  V30 10034 H 969.769 2.24382 4.29861 0
M  V30 10035 N 971.112 -1.45937 0.595003 0
M  V30 10036 C 972.337 -2.07207 0.0894416 0
M  V30 10037 C 972.762 -1.43884 -1.21157 0
M  V30 10038 O 972.12 -0.526998 -1.73472 0
M  V30 10039 C 972.168 -3.60565 -0.0499828 0
M  V30 10040 O 971.272 -3.97364 -1.10342 0
M  V30 10041 H 970.613 -0.660471 0.0683627 0
M  V30 10042 H 973.143 -1.87386 0.82144 0
M  V30 10043 H 973.153 -4.0722 -0.252234 0
M  V30 10044 H 971.828 -4.06044 0.90006 0
M  V30 10045 H 970.405 -3.62401 -0.878645 0
M  V30 10046 N 972.59 -0.333456 -1.54032 0
M  V30 10047 C 974.001 0.15256 -1.86076 0
M  V30 10048 C 974.352 1.50819 -1.25492 0
M  V30 10049 O 973.477 2.08903 -0.564665 0
M  V30 10050 C 974.072 0.283599 -3.37611 0
M  V30 10051 C 972.631 0.713841 -3.69569 0
M  V30 10052 C 971.778 -0.158515 -2.76847 0
M  V30 10053 H 974.729 -0.553404 -1.48738 0
M  V30 10054 H 974.75 1.11284 -3.63863 0
M  V30 10055 H 974.262 -0.703193 -3.81676 0
M  V30 10056 H 972.363 1.71002 -3.31042 0
M  V30 10057 H 972.476 0.510731 -4.7637 0
M  V30 10058 H 970.84 0.367531 -2.52034 0
M  V30 10059 H 971.623 -1.14226 -3.2374 0
M  V30 10060 N 974.068 1.57479 -0.061844 0
M  V30 10061 C 975.316 1.92727 0.608336 0
M  V30 10062 C 975.637 0.941799 1.70749 0
M  V30 10063 O 974.907 -0.0116608 1.95897 0
M  V30 10064 H 973.487 0.71145 0.2277 0
M  V30 10065 H 976.149 1.94546 -0.117359 0
M  V30 10066 H 975.245 2.9426 1.04007 0
M  V30 10067 N 975.546 -0.211634 1.56173 0
M  V30 10068 C 976.771 -0.955324 1.84088 0
M  V30 10069 C 977.196 -1.76754 0.643407 0
M  V30 10070 O 976.554 -1.76653 -0.407842 0
M  V30 10071 C 976.602 -1.84063 3.10085 0
M  V30 10072 O 975.706 -2.9373 2.89476 0
M  V30 10073 H 975.047 -0.26996 0.606645 0
M  V30 10074 H 977.577 -0.221947 2.03393 0
M  V30 10075 H 977.587 -2.24852 3.40449 0
M  V30 10076 H 976.262 -1.24373 3.96868 0
M  V30 10077 H 974.839 -2.56816 2.7037 0
M  V30 10078 N 977.024 -1.50153 -0.478725 0
M  V30 10079 C 978.44 -1.3741 -0.811833 0
M  V30 10080 C 978.64 -0.424303 -1.96982 0
M  V30 10081 O 977.696 0.13588 -2.52134 0
M  V30 10082 C 979.009 -2.78616 -1.13108 0
M  V30 10083 C 980.557 -2.87477 -1.23798 0
M  V30 10084 C 981.032 -4.295 -1.5904 0
M  V30 10085 N 982.523 -4.32415 -1.66047 0
M  V30 10086 C 983.258 -5.39295 -1.94805 0
M  V30 10087 N 982.754 -6.56392 -2.21635 0
M  V30 10088 N 984.547 -5.26731 -1.96243 0
M  V30 10089 H 976.698 -2.10486 0.284531 0
M  V30 10090 H 978.961 -0.945786 0.0647585 0
M  V30 10091 H 978.667 -3.49921 -0.35334 0
M  V30 10092 H 978.541 -3.15382 -2.06915 0
M  V30 10093 H 980.928 -2.16396 -2.00641 0
M  V30 10094 H 981.009 -2.54264 -0.279888 0
M  V30 10095 H 980.653 -5.01115 -0.827404 0
M  V30 10096 H 980.583 -4.60194 -2.55987 0
M  V30 10097 H 983.074 -3.47975 -1.47383 0
M  V30 10098 H 983.387 -7.33658 -2.4283 0
M  V30 10099 H 981.732 -6.59579 -2.19043 0
M  V30 10100 H 984.923 -4.34249 -1.74773 0
M  V30 10101 H 985.096 -6.10115 -2.1832 0
M  V30 10102 N 978.502 0.731368 -1.39602 0
M  V30 10103 C 979.732 1.51839 -1.40102 0
M  V30 10104 C 980.14 1.89199 0.00526634 0
M  V30 10105 O 979.483 1.54877 0.987874 0
M  V30 10106 C 979.545 2.83292 -2.21328 0
M  V30 10107 C 979.209 2.68345 -3.69919 0
M  V30 10108 C 980.206 2.36651 -4.62917 0
M  V30 10109 C 977.891 2.85102 -4.13548 0
M  V30 10110 C 979.885 2.21901 -5.97527 0
M  V30 10111 C 977.572 2.69971 -5.48233 0
M  V30 10112 C 978.57 2.38416 -6.40037 0
M  V30 10113 O 978.258 2.23383 -7.72241 0
M  V30 10114 H 977.99 0.475695 -0.480302 0
M  V30 10115 H 980.544 0.911096 -1.84087 0
M  V30 10116 H 978.774 3.46294 -1.72096 0
M  V30 10117 H 980.463 3.44928 -2.13961 0
M  V30 10118 H 981.229 2.23352 -4.3051 0
M  V30 10119 H 977.108 3.08655 -3.42423 0
M  V30 10120 H 980.652 1.97193 -6.69149 0
M  V30 10121 H 976.549 2.82849 -5.8023 0
M  V30 10122 H 977.317 2.38425 -7.83004 0
M  V30 10123 N 979.98 1.24838 0.961938 0
M  V30 10124 C 981.226 1.09313 1.70817 0
M  V30 10125 C 981.559 -0.366244 1.90715 0
M  V30 10126 O 980.834 -1.27036 1.47282 0
M  V30 10127 C 981.117 1.83988 3.09549 0
M  V30 10128 C 980.97 3.3771 2.97106 0
M  V30 10129 C 982.289 1.61718 4.09311 0
M  V30 10130 H 979.408 0.398498 0.619974 0
M  V30 10131 H 982.05 1.53579 1.11864 0
M  V30 10132 H 980.2 1.46363 3.59875 0
M  V30 10133 H 981.872 3.84967 2.54161 0
M  V30 10134 H 980.115 3.65795 2.33187 0
M  V30 10135 H 980.786 3.85166 3.95412 0
M  V30 10136 H 983.262 1.94458 3.67866 0
M  V30 10137 H 982.138 2.16415 5.04436 0
M  V30 10138 H 982.399 0.55677 4.3858 0
M  V30 10139 N 981.458 -1.16348 1.06306 0
M  V30 10140 C 982.704 -1.87158 0.781007 0
M  V30 10141 C 983.037 -1.81499 -0.690784 0
M  V30 10142 O 982.312 -1.23074 -1.50609 0
M  V30 10143 C 982.595 -3.3672 1.27639 0
M  V30 10144 C 982.448 -3.51069 2.81194 0
M  V30 10145 C 983.767 -4.31122 0.884388 0
M  V30 10146 H 980.886 -0.679586 0.285187 0
M  V30 10147 H 983.528 -1.36756 1.31901 0
M  V30 10148 H 981.678 -3.79775 0.818715 0
M  V30 10149 H 983.35 -3.16952 3.35171 0
M  V30 10150 H 981.593 -2.92976 3.19918 0
M  V30 10151 H 982.264 -4.56105 3.10921 0
M  V30 10152 H 984.74 -3.95969 1.27858 0
M  V30 10153 H 983.616 -5.34279 1.25847 0
M  V30 10154 H 983.877 -4.41598 -0.210673 0
M  V30 10155 N 982.937 -0.845659 -1.3299 0
M  V30 10156 C 983.867 -0.298957 -2.31578 0
M  V30 10157 C 984.848 0.597012 -1.59279 0
M  V30 10158 O 986.033 0.519142 -1.87132 0
M  V30 10159 C 983.163 0.521109 -3.43368 0
M  V30 10160 C 982.117 -0.279651 -4.27085 0
M  V30 10161 C 981.443 0.664591 -5.30554 0
M  V30 10162 C 982.743 -1.50046 -5.00283 0
M  V30 10163 H 984.437 -1.12272 -2.77552 0
M  V30 10164 H 981.983 -0.54132 -1.33438 0
M  V30 10165 H 983.936 0.913921 -4.1137 0
M  V30 10166 H 982.66 1.37815 -2.96099 0
M  V30 10167 H 981.319 -0.654106 -3.60717 0
M  V30 10168 H 980.967 1.51822 -4.79541 0
M  V30 10169 H 980.667 0.132871 -5.8745 0
M  V30 10170 H 982.191 1.05477 -6.01421 0
M  V30 10171 H 983.605 -1.18044 -5.61016 0
M  V30 10172 H 982.002 -1.96946 -5.66862 0
M  V30 10173 H 983.072 -2.26659 -4.28665 0
M  V30 10174 N 984.415 1.45619 -0.602734 0
M  V30 10175 C 985.826 1.85814 -0.181636 0
M  V30 10176 C 986.177 1.5037 1.26029 0
M  V30 10177 O 985.302 0.928068 1.95489 0
M  V30 10178 C 985.897 3.37258 -0.322866 0
M  V30 10179 C 984.456 3.76375 0.043504 0
M  V30 10180 C 983.603 2.69585 -0.649561 0
M  V30 10181 H 986.554 1.36489 -0.809721 0
M  V30 10182 H 986.575 3.77874 0.446279 0
M  V30 10183 H 986.087 3.63024 -1.37241 0
M  V30 10184 H 984.188 3.56226 1.09241 0
M  V30 10185 H 984.301 4.77843 -0.346765 0
M  V30 10186 H 982.665 2.54549 -0.087706 0
M  V30 10187 H 983.448 2.98188 -1.70115 0
M  V30 10188 N 985.893 0.34162 1.53853 0
M  V30 10189 C 987.309 -0.0103769 1.59597 0
M  V30 10190 C 987.509 -1.48897 1.35764 0
M  V30 10191 O 986.565 -2.24743 1.15095 0
M  V30 10192 C 987.878 0.424067 2.97695 0
M  V30 10193 C 989.426 0.376247 3.1073 0
M  V30 10194 C 989.901 0.786129 4.51203 0
M  V30 10195 N 991.392 0.74024 4.57247 0
M  V30 10196 C 992.127 1.02937 5.64085 0
M  V30 10197 N 991.623 1.38655 6.78783 0
M  V30 10198 N 993.416 0.953734 5.5395 0
M  V30 10199 H 985.567 1.30477 1.67599 0
M  V30 10200 H 987.83 0.531753 0.78482 0
M  V30 10201 H 987.536 1.45493 3.20195 0
M  V30 10202 H 987.41 -0.201713 3.7666 0
M  V30 10203 H 989.797 -0.645441 2.87955 0
M  V30 10204 H 989.878 1.0372 2.33828 0
M  V30 10205 H 989.522 1.80582 4.74713 0
M  V30 10206 H 989.452 0.102671 5.265 0
M  V30 10207 H 991.943 0.476763 3.7488 0
M  V30 10208 H 992.256 1.59206 7.56223 0
M  V30 10209 H 990.601 1.42498 6.80235 0
M  V30 10210 H 993.792 0.674044 4.63222 0
M  V30 10211 H 993.965 1.18241 6.37121 0
M  V30 10212 N 987.371 -1.57444 0.0701946 0
M  V30 10213 C 988.782 -1.80875 -0.462709 0
M  V30 10214 C 989.133 -0.983975 -1.69742 0
M  V30 10215 O 988.258 -0.206027 -2.15417 0
M  V30 10216 C 988.853 -3.28062 -0.84623 0
M  V30 10217 C 987.412 -3.52345 -1.32401 0
M  V30 10218 C 986.559 -2.7558 -0.308399 0
M  V30 10219 H 989.51 -1.55917 0.295907 0
M  V30 10220 H 989.531 -3.40023 -1.70776 0
M  V30 10221 H 989.043 -3.88064 0.0526033 0
M  V30 10222 H 987.144 -2.97645 -2.24139 0
M  V30 10223 H 987.257 -4.6104 -1.30304 0
M  V30 10224 H 985.621 -2.4229 -0.785337 0
M  V30 10225 H 986.404 -3.38319 0.582679 0
M  V30 10226 N 988.849 0.203349 -1.56283 0
M  V30 10227 C 990.095 0.926381 -1.80405 0
M  V30 10228 C 990.428 1.8325 -0.642883 0
M  V30 10229 O 989.703 1.91196 0.356998 0
M  V30 10230 C 989.986 1.74972 -3.14733 0
M  V30 10231 C 989.839 0.868866 -4.41328 0
M  V30 10232 C 991.158 2.72394 -3.45672 0
M  V30 10233 H 988.277 0.335346 -0.656286 0
M  V30 10234 H 990.919 0.1942 -1.89005 0
M  V30 10235 H 989.069 2.37394 -3.07533 0
M  V30 10236 H 990.741 0.259986 -4.60567 0
M  V30 10237 H 988.984 0.175161 -4.33446 0
M  V30 10238 H 989.655 1.47975 -5.31796 0
M  V30 10239 H 992.131 2.20105 -3.53119 0
M  V30 10240 H 991.007 3.27091 -4.40798 0
M  V30 10241 H 991.268 3.51035 -2.6875 0
M  V30 10242 N 990.327 1.50405 0.470755 0
M  V30 10243 C 991.567 1.63049 1.23266 0
M  V30 10244 C 991.931 0.323815 1.8925 0
M  V30 10245 O 993.132 0.325692 2.6682 0
M  V30 10246 C 991.403 2.7783 2.24823 0
M  V30 10247 S 992.962 3.10609 3.09948 0
M  V30 10248 H 989.78 0.574787 0.418499 0
M  V30 10249 H 992.382 1.8819 0.529619 0
M  V30 10250 H 991.086 3.71252 1.74929 0
M  V30 10251 H 990.617 2.54776 2.99755 0
M  V30 10252 H 992.632 2.5446 4.25987 0
M  V30 10253 N 991.805 -0.723954 1.39988 0
M  V30 10254 C 993.052 -1.48371 1.37812 0
M  V30 10255 C 993.38 -1.94487 -0.0223285 0
M  V30 10256 O 992.635 -1.67906 -1.00529 0
M  V30 10257 C 992.934 -2.73004 2.30659 0
M  V30 10258 C 992.6 -2.45698 3.78078 0
M  V30 10259 C 991.262 -2.37961 4.18244 0
M  V30 10260 C 993.614 -2.22601 4.71273 0
M  V30 10261 C 990.942 -2.05183 5.49652 0
M  V30 10262 C 993.294 -1.91339 6.0297 0
M  V30 10263 C 991.958 -1.82078 6.42187 0
M  V30 10264 H 991.228 -0.542929 0.504291 0
M  V30 10265 H 993.875 -0.829986 1.72579 0
M  V30 10266 H 992.18 -3.43174 1.89048 0
M  V30 10267 H 993.877 -3.31068 2.26263 0
M  V30 10268 H 990.467 -2.52603 3.46251 0
M  V30 10269 H 994.651 -2.2754 4.41066 0
M  V30 10270 H 989.907 -1.96544 5.78948 0
M  V30 10271 H 994.081 -1.72479 6.74703 0
M  V30 10272 H 991.708 -1.56446 7.43928 0
M  V30 10273 N 993.283 -1.25346 -0.955304 0
M  V30 10274 C 994.193 -1.07412 -2.08566 0
M  V30 10275 C 995.209 -0.0114424 -1.73996 0
M  V30 10276 O 996.385 -0.212236 -2.00279 0
M  V30 10277 C 993.45 -0.694141 -3.3968 0
M  V30 10278 C 992.511 -1.83468 -3.88121 0
M  V30 10279 C 991.744 -1.47274 -5.12978 0
M  V30 10280 O 991.967 -0.368086 -5.69211 0
M  V30 10281 O 990.901 -2.30269 -5.56111 0
M  V30 10282 H 994.727 -2.02206 -2.26598 0
M  V30 10283 H 992.312 -1.04279 -1.06988 0
M  V30 10284 H 994.194 -0.494325 -4.18491 0
M  V30 10285 H 992.869 0.224545 -3.2292 0
M  V30 10286 H 991.776 -2.08935 -3.10318 0
M  V30 10287 H 993.109 -2.73258 -4.09379 0
M  V30 10288 N 994.761 1.15782 -1.06922 0
M  V30 10289 C 995.708 2.2038 -0.685659 0
M  V30 10290 C 996.678 1.62972 0.320816 0
M  V30 10291 O 997.863 1.8966 0.208258 0
M  V30 10292 C 995.003 3.44995 -0.084998 0
M  V30 10293 C 994.116 4.16621 -1.14242 0
M  V30 10294 C 993.251 5.28773 -0.507226 0
M  V30 10295 C 992.29 5.92209 -1.54774 0
M  V30 10296 N 991.427 6.9584 -0.935443 0
M  V30 10297 H 996.267 2.5254 -1.58201 0
M  V30 10298 H 993.804 1.24031 -0.790864 0
M  V30 10299 H 995.762 4.16254 0.280845 0
M  V30 10300 H 994.392 3.13365 0.774725 0
M  V30 10301 H 993.444 3.43903 -1.62589 0
M  V30 10302 H 994.756 4.59884 -1.93154 0
M  V30 10303 H 993.91 6.06635 -0.0887719 0
M  V30 10304 H 992.649 4.8669 0.313704 0
M  V30 10305 H 991.654 5.13063 -1.97602 0
M  V30 10306 H 992.879 6.3637 -2.37088 0
M  V30 10307 H 990.825 6.5586 -0.135339 0
M  V30 10308 H 990.742 7.37508 -1.66186 0
M  V30 10309 H 992.01 7.77611 -0.542346 0
M  V30 10310 N 996.239 0.8527 1.3254 0
M  V30 10311 C 997.487 0.454224 1.96929 0
M  V30 10312 C 997.808 -0.993034 1.67821 0
M  V30 10313 O 997.078 -1.69371 0.984393 0
M  V30 10314 H 995.658 0.164977 0.728554 0
M  V30 10315 H 998.32 1.0887 1.61658 0
M  V30 10316 H 997.416 0.597667 3.06324 0
M  V30 10317 N 997.718 -1.45297 0.610449 0
M  V30 10318 C 998.946 -2.0659 0.113211 0
M  V30 10319 C 999.361 -1.4546 -1.20361 0
M  V30 10320 O 998.718 -0.569823 -1.73376 0
M  V30 10321 C 998.769 -3.61488 -0.0298411 0
M  V30 10322 O 998.49 -4.20336 1.23488 0
M  V30 10323 C 999.991 -4.39772 -0.558202 0
M  V30 10324 H 997.211 -0.667322 0.0701555 0
M  V30 10325 H 999.755 -1.86497 0.838993 0
M  V30 10326 H 997.91 -3.80913 -0.705963 0
M  V30 10327 H 998.324 -5.13545 1.0664 0
M  V30 10328 H 999.798 -5.48648 -0.607375 0
M  V30 10329 H 1000.27 -4.09755 -1.58107 0
M  V30 10330 H 1000.88 -4.25217 0.0839704 0
M  V30 10331 N 999.196 -0.349774 -1.5367 0
M  V30 10332 C 1000.14 0.519396 -2.26727 0
M  V30 10333 C 1001.14 1.09673 -1.29105 0
M  V30 10334 O 1002.34 1.04176 -1.46791 0
M  V30 10335 H 998.719 0.186192 -0.728585 0
M  V30 10336 H 1000.69 -0.118736 -2.98164 0
M  V30 10337 C 999.439 1.65535 -3.05767 0
M  V30 10338 H 998.762 1.22038 -3.80719 0
M  V30 10339 H 1000.2 2.23856 -3.6009 0
M  V30 10340 C 998.661 2.58844 -2.15642 0
M  V30 10341 O 999.191 3.61254 -1.75665 0
M  V30 10342 N 997.397 2.27671 -1.80595 0
M  V30 10343 H 996.944 1.44429 -2.13302 0
M  V30 10344 H 996.902 2.90359 -1.20577 0
M  V30 10345 N 1000.67 1.57404 -0.0785433 0
M  V30 10346 C 1001.9 1.97787 0.596995 0
M  V30 10347 C 1002.31 0.955904 1.63276 0
M  V30 10348 O 1001.65 -0.0649169 1.83585 0
M  V30 10349 C 1001.72 3.34499 1.31723 0
M  V30 10350 C 1001.38 4.54933 0.434144 0
M  V30 10351 C 1002.38 5.18969 -0.311015 0
M  V30 10352 C 1000.06 5.01029 0.357046 0
M  V30 10353 C 1002.06 6.27457 -1.12142 0
M  V30 10354 C 999.744 6.09389 -0.457029 0
M  V30 10355 C 1000.74 6.72466 -1.19493 0
M  V30 10356 O 1000.43 7.78738 -1.99556 0
M  V30 10357 H 1000.16 0.655294 0.166028 0
M  V30 10358 H 1002.72 2.04855 -0.149517 0
M  V30 10359 H 1000.95 3.24064 2.10996 0
M  V30 10360 H 1002.63 3.5944 1.88567 0
M  V30 10361 H 1003.4 4.84297 -0.261084 0
M  V30 10362 H 999.28 4.51706 0.921026 0
M  V30 10363 H 1002.82 6.76622 -1.69788 0
M  V30 10364 H 998.721 6.43494 -0.508499 0
M  V30 10365 H 999.489 7.95648 -1.9206 0
M  V30 10366 N 1002.15 -0.195058 1.56388 0
M  V30 10367 C 1003.38 -0.931642 1.84738 0
M  V30 10368 C 1003.79 -1.76849 0.661046 0
M  V30 10369 O 1003.15 -1.78705 -0.370241 0
M  V30 10370 C 1003.2 -1.82777 3.11889 0
M  V30 10371 O 1002.92 -1.02471 4.25948 0
M  V30 10372 C 1004.42 -2.67603 3.53417 0
M  V30 10373 H 1001.64 -0.271821 0.613477 0
M  V30 10374 H 1004.19 -0.202299 2.03497 0
M  V30 10375 H 1002.34 -2.51074 2.95027 0
M  V30 10376 H 1002.76 -1.63539 4.98353 0
M  V30 10377 H 1004.23 -3.26138 4.45352 0
M  V30 10378 H 1004.71 -3.41314 2.76408 0
M  V30 10379 H 1005.31 -2.04678 3.7281 0
M  V30 10380 N 1003.63 -1.50653 -0.462772 0
M  V30 10381 C 1004.88 -1.62297 -1.21603 0
M  V30 10382 C 1005.21 -0.326191 -1.91441 0
M  V30 10383 O 1004.48 0.67284 -1.82491 0
M  V30 10384 C 1004.77 -2.80901 -2.25315 0
M  V30 10385 C 1004.62 -4.20484 -1.59728 0
M  V30 10386 C 1005.94 -2.95049 -3.26549 0
M  V30 10387 H 1003.06 -0.590691 -0.440741 0
M  V30 10388 H 1005.7 -1.83064 -0.508675 0
M  V30 10389 H 1003.85 -2.63325 -2.85643 0
M  V30 10390 H 1005.52 -4.49669 -1.02932 0
M  V30 10391 H 1003.76 -4.24357 -0.900181 0
M  V30 10392 H 1004.44 -4.99416 -2.35133 0
M  V30 10393 H 1006.91 -3.11166 -2.76251 0
M  V30 10394 H 1005.79 -3.79645 -3.96435 0
M  V30 10395 H 1006.05 -2.06019 -3.91163 0
M  V30 10396 N 1005.11 0.71652 -1.4037 0
M  V30 10397 C 1006.52 1.02447 -1.22379 0
M  V30 10398 C 1006.72 2.0126 -0.0983394 0
M  V30 10399 O 1005.78 2.46569 0.544071 0
M  V30 10400 C 1007.09 1.56909 -2.56515 0
M  V30 10401 C 1008.64 1.68898 -2.6352 0
M  V30 10402 C 1009.12 2.26765 -3.97922 0
M  V30 10403 N 1010.61 2.34152 -3.99658 0
M  V30 10404 C 1011.34 2.79907 -5.00439 0
M  V30 10405 N 1010.84 3.25422 -6.11615 0
M  V30 10406 N 1012.63 2.79283 -4.87809 0
M  V30 10407 H 1004.78 0.0615306 -2.12311 0
M  V30 10408 H 1007.05 0.0898994 -0.943728 0
M  V30 10409 H 1006.75 0.917649 -3.39517 0
M  V30 10410 H 1006.63 2.55446 -2.77538 0
M  V30 10411 H 1009.01 2.33159 -1.8089 0
M  V30 10412 H 1009.09 0.689626 -2.46329 0
M  V30 10413 H 1008.74 1.63126 -4.80991 0
M  V30 10414 H 1008.67 3.27413 -4.12442 0
M  V30 10415 H 1011.16 2.02006 -3.19378 0
M  V30 10416 H 1011.47 3.58899 -6.84406 0
M  V30 10417 H 1009.82 3.23383 -6.15181 0
M  V30 10418 H 1013.01 2.43061 -4.00049 0
M  V30 10419 H 1013.18 3.14626 -5.66493 0
M  V30 10420 N 1006.59 1.25851 0.948643 0
M  V30 10421 C 1007.52 1.09248 2.06367 0
M  V30 10422 C 1008.5 -0.000205168 1.701 0
M  V30 10423 O 1009.68 0.170442 1.93451 0
M  V30 10424 C 1006.81 0.716777 3.39823 0
M  V30 10425 C 1005.77 1.76036 3.90122 0
M  V30 10426 C 1005.09 1.23918 5.20143 0
M  V30 10427 C 1006.39 3.16039 4.15833 0
M  V30 10428 H 1008.09 2.02518 2.20515 0
M  V30 10429 H 1005.63 0.975093 1.05962 0
M  V30 10430 H 1007.59 0.587531 4.17284 0
M  V30 10431 H 1006.31 -0.251626 3.25629 0
M  V30 10432 H 1004.97 1.87815 3.14835 0
M  V30 10433 H 1004.62 0.260836 5.02323 0
M  V30 10434 H 1004.32 1.93673 5.54765 0
M  V30 10435 H 1005.84 1.12245 6.00194 0
M  V30 10436 H 1007.25 3.0738 4.83933 0
M  V30 10437 H 1005.65 3.83317 4.61723 0
M  V30 10438 H 1006.72 3.62652 3.21887 0
M  V30 10439 N 1008.06 -1.15214 1.07534 0
M  V30 10440 C 1008.97 -2.23636 0.708818 0
M  V30 10441 C 1009.99 -1.7172 -0.280759 0
M  V30 10442 O 1011.17 -2.01 -0.126927 0
M  V30 10443 C 1008.23 -3.46512 0.114167 0
M  V30 10444 C 1007.29 -4.13409 1.15722 0
M  V30 10445 C 1006.53 -5.30419 0.59085 0
M  V30 10446 O 1006.75 -5.67314 -0.592512 0
M  V30 10447 O 1005.68 -5.86871 1.33663 0
M  V30 10448 H 1009.51 -2.57322 1.61305 0
M  V30 10449 H 1007.09 -1.22972 0.848422 0
M  V30 10450 H 1008.98 -4.20851 -0.215091 0
M  V30 10451 H 1007.65 -3.1457 -0.763356 0
M  V30 10452 H 1006.56 -3.40984 1.53886 0
M  V30 10453 H 1007.89 -4.49435 2.00671 0
M  V30 10454 N 1009.54 -0.859717 -1.32086 0
M  V30 10455 C 1010.47 -0.323502 -2.31248 0
M  V30 10456 C 1011.45 0.580085 -1.59903 0
M  V30 10457 O 1012.64 0.499265 -1.87673 0
M  V30 10458 C 1009.77 0.484661 -3.43902 0
M  V30 10459 C 1008.72 -0.324933 -4.26765 0
M  V30 10460 C 1008.05 0.608281 -5.31229 0
M  V30 10461 C 1009.35 -1.55344 -4.98664 0
M  V30 10462 H 1011.04 -1.15209 -2.76346 0
M  V30 10463 H 1008.59 -0.555442 -1.32856 0
M  V30 10464 H 1010.54 0.870238 -4.12316 0
M  V30 10465 H 1009.27 1.34666 -2.97544 0
M  V30 10466 H 1007.92 -0.692328 -3.60003 0
M  V30 10467 H 1007.57 1.46727 -4.81124 0
M  V30 10468 H 1007.27 0.0705571 -5.87558 0
M  V30 10469 H 1008.8 0.990925 -6.02506 0
M  V30 10470 H 1010.21 -1.23987 -5.59732 0
M  V30 10471 H 1008.61 -2.02947 -5.64741 0
M  V30 10472 H 1009.68 -2.31192 -4.26237 0
M  V30 10473 N 1011.02 1.44971 -0.618145 0
M  V30 10474 C 1012.43 1.85611 -0.201334 0
M  V30 10475 C 1012.78 1.51698 1.24427 0
M  V30 10476 O 1011.91 0.94875 1.94493 0
M  V30 10477 C 1012.5 3.36897 -0.358619 0
M  V30 10478 C 1011.06 3.764 0.00358196 0
M  V30 10479 C 1010.21 2.68881 -0.678118 0
M  V30 10480 H 1013.16 1.35622 -0.824152 0
M  V30 10481 H 1013.18 3.78326 0.406176 0
M  V30 10482 H 1012.69 3.61548 -1.41084 0
M  V30 10483 H 1010.79 3.57365 1.05457 0
M  V30 10484 H 1010.91 4.77449 -0.397427 0
M  V30 10485 H 1009.27 2.54442 -0.114699 0
M  V30 10486 H 1010.05 2.96367 -1.73268 0
M  V30 10487 N 1012.5 0.357919 1.53482 0
M  V30 10488 C 1013.43 -0.526753 2.23065 0
M  V30 10489 C 1014.44 -1.05239 1.24212 0
M  V30 10490 O 1015.63 -0.960078 1.50482 0
M  V30 10491 C 1012.73 -1.73919 2.9087 0
M  V30 10492 C 1011.91 -1.34638 4.16163 0
M  V30 10493 C 1010.96 -2.42005 4.67247 0
M  V30 10494 O 1009.99 -2.04714 5.31113 0
M  V30 10495 N 1011.19 -3.73478 4.44404 0
M  V30 10496 H 1013.96 0.0692386 2.9962 0
M  V30 10497 H 1011.52 0.182726 1.60866 0
M  V30 10498 H 1013.51 -2.45207 3.21956 0
M  V30 10499 H 1012.08 -2.24223 2.17814 0
M  V30 10500 H 1011.3 -0.463667 3.91464 0
M  V30 10501 H 1012.59 -1.06012 4.97633 0
M  V30 10502 H 1011.99 -4.06555 3.93357 0
M  V30 10503 H 1010.54 -4.40893 4.80059 0
M  V30 10504 N 1013.98 -1.5736 0.0868897 0
M  V30 10505 C 1015.21 -1.981 -0.586498 0
M  V30 10506 C 1015.61 -0.96455 -1.62767 0
M  V30 10507 O 1014.96 0.0551801 -1.83617 0
M  V30 10508 C 1015.02 -3.35193 -1.29947 0
M  V30 10509 C 1014.68 -4.55157 -0.410012 0
M  V30 10510 C 1015.68 -5.18797 0.338532 0
M  V30 10511 C 1013.37 -5.01212 -0.33047 0
M  V30 10512 C 1015.36 -6.26854 1.15468 0
M  V30 10513 C 1013.05 -6.09138 0.48934 0
M  V30 10514 C 1014.04 -6.71823 1.23057 0
M  V30 10515 O 1013.73 -7.77669 2.03683 0
M  V30 10516 H 1013.46 -0.656166 -0.16255 0
M  V30 10517 H 1016.02 -2.04773 0.160379 0
M  V30 10518 H 1014.25 -3.25179 -2.09274 0
M  V30 10519 H 1015.94 -3.60435 -1.86658 0
M  V30 10520 H 1016.7 -4.84151 0.286764 0
M  V30 10521 H 1012.58 -4.52188 -0.897058 0
M  V30 10522 H 1016.13 -6.75712 1.73374 0
M  V30 10523 H 1012.02 -6.43215 0.542618 0
M  V30 10524 H 1012.79 -7.94618 1.96277 0
M  V30 10525 N 1015.45 0.186762 -1.56489 0
M  V30 10526 C 1016.68 0.921832 -1.85229 0
M  V30 10527 C 1017.1 1.76496 -0.670416 0
M  V30 10528 O 1016.45 1.78899 0.360758 0
M  V30 10529 C 1016.51 1.81121 -3.12854 0
M  V30 10530 O 1016.23 1.00211 -4.26485 0
M  V30 10531 C 1017.73 2.65725 -3.54831 0
M  V30 10532 H 1014.95 0.268563 -0.61491 0
M  V30 10533 H 1017.49 0.191505 -2.03601 0
M  V30 10534 H 1015.65 2.49506 -2.96354 0
M  V30 10535 H 1016.06 1.60893 -4.99213 0
M  V30 10536 H 1017.53 3.23771 -4.47075 0
M  V30 10537 H 1018.01 3.39843 -2.78215 0
M  V30 10538 H 1018.62 2.02698 -3.7389 0
M  V30 10539 N 1016.93 1.50896 0.454776 0
M  V30 10540 C 1018.16 1.66759 1.23313 0
M  V30 10541 C 1018.58 0.35722 1.84677 0
M  V30 10542 O 1017.94 -0.680771 1.68033 0
M  V30 10543 C 1017.99 2.77254 2.3057 0
M  V30 10544 O 1017.09 2.39642 3.35627 0
M  V30 10545 H 1016.43 0.556599 0.362068 0
M  V30 10546 H 1018.96 1.97365 0.539274 0
M  V30 10547 H 1018.97 3.0082 2.75629 0
M  V30 10548 H 1017.65 3.72349 1.85281 0
M  V30 10549 H 1016.23 2.26584 2.96165 0
M  V30 10550 N 1018.41 -0.709066 1.40748 0
M  V30 10551 C 1019.64 -1.50313 1.42901 0
M  V30 10552 C 1020.06 -1.88072 0.032213 0
M  V30 10553 O 1019.42 -1.53716 -0.96131 0
M  V30 10554 C 1019.47 -2.75074 2.33166 0
M  V30 10555 O 1018.57 -3.72036 1.7794 0
M  V30 10556 H 1017.91 -0.452934 0.485538 0
M  V30 10557 H 1020.44 -0.872712 1.85054 0
M  V30 10558 H 1020.45 -3.23532 2.48578 0
M  V30 10559 H 1019.13 -2.46927 3.34664 0
M  V30 10560 H 1017.7 -3.30911 1.71908 0
M  V30 10561 N 1019.89 -1.26353 -0.941956 0
M  V30 10562 C 1021.17 -1.02601 -1.6653 0
M  V30 10563 C 1021.55 0.44381 -2.06382 0
M  V30 10564 O 1020.89 1.42399 -1.78703 0
M  V30 10565 C 1021.1 -1.97401 -2.87809 0
M  V30 10566 C 1022.45 -2.25967 -3.59478 0
M  V30 10567 O 1023.48 -1.95261 -2.97912 0
M  V30 10568 O 1022.34 -2.78244 -4.70364 0
M  V30 10569 H 1019.43 -0.39007 -0.729228 0
M  V30 10570 H 1021.98 -1.37559 -0.993754 0
M  V30 10571 H 1020.75 -2.9659 -2.55245 0
M  V30 10572 H 1020.37 -1.62918 -3.62689 0
M  V30 10573 N 1021.37 1.14642 -1.08144 0
M  V30 10574 C 1022.59 1.90025 -0.830972 0
M  V30 10575 C 1023.02 1.77904 0.610879 0
M  V30 10576 O 1022.38 1.11735 1.42776 0
M  V30 10577 C 1022.42 3.38085 -1.25422 0
M  V30 10578 O 1021.53 4.10412 -0.404486 0
M  V30 10579 H 1020.87 0.591327 -0.302041 0
M  V30 10580 H 1023.4 1.4513 -1.44216 0
M  V30 10581 H 1023.41 3.88894 -1.23391 0
M  V30 10582 H 1022.08 3.46226 -2.30435 0
M  V30 10583 H 1020.66 3.69693 -0.487987 0
M  V30 10584 N 1022.85 0.866709 1.31628 0
M  V30 10585 C 1024.12 0.396828 1.91532 0
M  V30 10586 C 1024.5 -1.12081 1.78889 0
M  V30 10587 O 1023.85 -1.94791 1.19452 0
M  V30 10588 C 1024.06 0.874578 3.37864 0
M  V30 10589 C 1025.41 0.8988 4.14978 0
M  V30 10590 O 1026.43 0.820014 3.46633 0
M  V30 10591 O 1025.29 1.01223 5.37044 0
M  V30 10592 H 1022.39 0.1181 0.818524 0
M  V30 10593 H 1024.93 0.954407 1.40318 0
M  V30 10594 H 1023.7 1.91807 3.41066 0
M  V30 10595 H 1023.33 0.295126 3.96503 0
M  V30 10596 N 1024.32 -1.44642 0.625825 0
M  V30 10597 C 1025.57 -2.02393 0.128391 0
M  V30 10598 C 1025.9 -1.49075 -1.2446 0
M  V30 10599 O 1025.18 -0.672684 -1.82497 0
M  V30 10600 C 1025.46 -3.59934 0.109279 0
M  V30 10601 C 1025.31 -4.23546 1.51423 0
M  V30 10602 C 1026.63 -4.36406 -0.568985 0
M  V30 10603 H 1023.75 -0.735427 0.0481299 0
M  V30 10604 H 1026.39 -1.72277 0.801286 0
M  V30 10605 H 1024.54 -3.85722 -0.463726 0
M  V30 10606 H 1026.22 -4.08882 2.13572 0
M  V30 10607 H 1024.46 -3.81245 2.06966 0
M  V30 10608 H 1025.13 -5.32535 1.45294 0
M  V30 10609 H 1027.61 -4.1602 -0.0817516 0
M  V30 10610 H 1026.48 -5.46122 -0.551527 0
M  V30 10611 H 1026.74 -4.1062 -1.6384 0
M  V30 10612 N 1025.8 -0.366053 -1.5329 0
M  V30 10613 C 1026.71 0.488111 -2.29466 0
M  V30 10614 C 1027.73 1.09219 -1.35452 0
M  V30 10615 O 1028.9 1.10303 -1.68509 0
M  V30 10616 C 1025.97 1.61202 -3.06944 0
M  V30 10617 C 1025.03 1.03543 -4.16626 0
M  V30 10618 C 1024.26 2.10578 -4.904 0
M  V30 10619 O 1024.49 3.31697 -4.6404 0
M  V30 10620 O 1023.42 1.73609 -5.76319 0
M  V30 10621 H 1027.25 -0.131789 -3.03414 0
M  V30 10622 H 1024.83 -0.130421 -1.4883 0
M  V30 10623 H 1026.71 2.26546 -3.55324 0
M  V30 10624 H 1025.39 2.21732 -2.35832 0
M  V30 10625 H 1024.29 0.345892 -3.72498 0
M  V30 10626 H 1025.63 0.474687 -4.89906 0
M  V30 10627 N 1027.28 1.57312 -0.0952337 0
M  V30 10628 C 1028.5 1.99119 0.580206 0
M  V30 10629 C 1028.93 0.973955 1.60922 0
M  V30 10630 O 1028.29 -0.0575338 1.81209 0
M  V30 10631 C 1028.34 3.39893 1.20438 0
M  V30 10632 O 1027.44 3.40941 2.32019 0
M  V30 10633 H 1026.78 0.64748 0.147195 0
M  V30 10634 H 1029.31 2.03836 -0.176686 0
M  V30 10635 H 1029.32 3.7759 1.54564 0
M  V30 10636 H 1028 4.13453 0.450514 0
M  V30 10637 H 1026.57 3.1504 1.9951 0
M  V30 10638 N 1028.76 -0.17846 1.56586 0
M  V30 10639 C 1030.17 -0.741599 1.71339 0
M  V30 10640 C 1030.52 -1.83112 0.704579 0
M  V30 10641 O 1029.64 -2.15975 -0.135557 0
M  V30 10642 C 1030.24 -1.35198 3.10656 0
M  V30 10643 C 1028.8 -1.86202 3.27118 0
M  V30 10644 C 1027.95 -0.738255 2.67292 0
M  V30 10645 H 1030.9 0.0468424 1.58631 0
M  V30 10646 H 1030.92 -2.2216 3.0891 0
M  V30 10647 H 1030.43 -0.558776 3.84056 0
M  V30 10648 H 1028.53 -2.68188 2.58661 0
M  V30 10649 H 1028.64 -2.01237 4.34788 0
M  V30 10650 H 1027.01 -1.15686 2.26912 0
M  V30 10651 H 1027.79 0.0429821 3.43273 0
M  V30 10652 N 1030.24 -1.51135 -0.446768 0
M  V30 10653 C 1031.47 -1.66887 -1.21788 0
M  V30 10654 C 1031.87 -0.361729 -1.8571 0
M  V30 10655 O 1031.22 0.668784 -1.71093 0
M  V30 10656 C 1031.28 -2.72062 -2.34994 0
M  V30 10657 C 1030.94 -4.14935 -1.91516 0
M  V30 10658 C 1031.94 -5.00021 -1.42389 0
M  V30 10659 C 1029.62 -4.60985 -1.99495 0
M  V30 10660 C 1031.62 -6.29216 -1.01816 0
M  V30 10661 C 1029.31 -5.90179 -1.58532 0
M  V30 10662 C 1030.3 -6.74121 -1.09774 0
M  V30 10663 O 1029.99 -8.009 -0.69389 0
M  V30 10664 H 1029.72 -0.563431 -0.373525 0
M  V30 10665 H 1032.28 -1.98261 -0.536818 0
M  V30 10666 H 1030.51 -2.35983 -3.06348 0
M  V30 10667 H 1032.2 -2.76788 -2.96889 0
M  V30 10668 H 1032.96 -4.6565 -1.35627 0
M  V30 10669 H 1028.84 -3.95777 -2.36393 0
M  V30 10670 H 1032.39 -6.94687 -0.636879 0
M  V30 10671 H 1028.28 -6.24066 -1.64962 0
M  V30 10672 H 1029.05 -8.14376 -0.820582 0
M  V30 10673 N 1031.71 0.701592 -1.41122 0
M  V30 10674 C 1032.94 1.49049 -1.43499 0
M  V30 10675 C 1033.36 1.88761 -0.0385684 0
M  V30 10676 O 1032.71 1.56384 0.940755 0
M  V30 10677 C 1032.76 2.7569 -2.33832 0
M  V30 10678 O 1032.49 2.37653 -3.68039 0
M  V30 10679 C 1033.99 3.69479 -2.44949 0
M  V30 10680 H 1031.21 0.459519 -0.488961 0
M  V30 10681 H 1033.75 0.864318 -1.85337 0
M  V30 10682 H 1031.91 3.34559 -1.95318 0
M  V30 10683 H 1032.32 3.19241 -4.16156 0
M  V30 10684 H 1033.79 4.55139 -3.12334 0
M  V30 10685 H 1034.27 4.13553 -1.47887 0
M  V30 10686 H 1034.88 3.16517 -2.84072 0
M  V30 10687 N 1033.19 1.2685 0.935242 0
M  V30 10688 C 1034.12 1.1143 2.05196 0
M  V30 10689 C 1035.1 0.0178362 1.70091 0
M  V30 10690 O 1036.29 0.190951 1.93259 0
M  V30 10691 C 1033.42 0.752779 3.39044 0
M  V30 10692 C 1032.37 1.80164 3.88233 0
M  V30 10693 C 1031.7 1.29428 5.18799 0
M  V30 10694 C 1033 3.20431 4.12457 0
M  V30 10695 H 1034.69 2.04845 2.18355 0
M  V30 10696 H 1032.24 0.986276 1.04922 0
M  V30 10697 H 1034.19 0.631757 4.16637 0
M  V30 10698 H 1032.91 -0.217075 3.25878 0
M  V30 10699 H 1031.57 1.91144 3.12825 0
M  V30 10700 H 1031.22 0.3141 5.02018 0
M  V30 10701 H 1030.92 1.99546 5.5268 0
M  V30 10702 H 1032.45 1.18605 5.9897 0
M  V30 10703 H 1033.86 3.12495 4.80645 0
M  V30 10704 H 1032.26 3.88193 4.57631 0
M  V30 10705 H 1033.33 3.66046 3.18023 0
M  V30 10706 N 1034.67 -1.14067 1.0875 0
M  V30 10707 C 1035.92 -1.84535 0.814235 0
M  V30 10708 C 1036.23 -1.84044 -0.662355 0
M  V30 10709 O 1037.44 -2.50336 -1.05091 0
M  V30 10710 C 1035.89 -3.31273 1.40663 0
M  V30 10711 C 1035.5 -3.40171 2.91526 0
M  V30 10712 C 1037.25 -4.0683 1.21201 0
M  V30 10713 C 1035.15 -4.81141 3.43885 0
M  V30 10714 H 1034.08 -0.691346 0.300926 0
M  V30 10715 H 1036.73 -1.28562 1.30935 0
M  V30 10716 H 1035.12 -3.87005 0.839215 0
M  V30 10717 H 1036.29 -2.94471 3.54434 0
M  V30 10718 H 1034.61 -2.78073 3.09942 0
M  V30 10719 H 1037.2 -5.10891 1.57781 0
M  V30 10720 H 1037.55 -4.16022 0.152092 0
M  V30 10721 H 1038.08 -3.57408 1.74655 0
M  V30 10722 H 1034.82 -4.77138 4.49466 0
M  V30 10723 H 1034.34 -5.27365 2.85738 0
M  V30 10724 H 1036.02 -5.50042 3.40681 0
M  V30 10725 N 1036.15 -0.873678 -1.31166 0
M  V30 10726 C 1037.43 -0.40698 -1.91319 0
M  V30 10727 C 1037.81 1.1113 -1.79481 0
M  V30 10728 O 1037.15 1.94155 -1.20483 0
M  V30 10729 C 1037.36 -0.892484 -3.37396 0
M  V30 10730 C 1038.71 -0.920795 -4.14496 0
M  V30 10731 O 1039.74 -0.838386 -3.46193 0
M  V30 10732 O 1038.59 -1.04069 -5.365 0
M  V30 10733 H 1035.69 -0.122439 -0.817886 0
M  V30 10734 H 1038.23 -0.961835 -1.3981 0
M  V30 10735 H 1037.01 -1.93613 -3.40044 0
M  V30 10736 H 1036.63 -0.31615 -3.96341 0
M  V30 10737 N 1037.63 1.44308 -0.633487 0
M  V30 10738 C 1038.85 2.06897 -0.144347 0
M  V30 10739 C 1039.28 1.47045 1.173 0
M  V30 10740 O 1038.63 0.572806 1.72013 0
M  V30 10741 C 1038.68 3.60571 -0.0456324 0
M  V30 10742 O 1037.79 4.0015 0.997682 0
M  V30 10743 H 1037.13 0.658427 -0.0858499 0
M  V30 10744 H 1039.66 1.85142 -0.870833 0
M  V30 10745 H 1039.67 4.07745 0.144178 0
M  V30 10746 H 1038.34 4.03515 -1.0074 0
M  V30 10747 H 1036.92 3.64603 0.782252 0
M  V30 10748 N 1039.1 0.374177 1.53094 0
M  V30 10749 C 1040.03 -0.459976 2.28925 0
M  V30 10750 C 1041.02 -1.07656 1.31698 0
M  V30 10751 O 1042.2 -1.09219 1.60577 0
M  V30 10752 C 1039.33 -1.5954 3.08487 0
M  V30 10753 C 1038.28 -1.10563 4.13473 0
M  V30 10754 C 1037.61 -2.33196 4.81169 0
M  V30 10755 C 1038.91 -0.184275 5.21975 0
M  V30 10756 H 1040.6 0.172692 2.98902 0
M  V30 10757 H 1038.15 0.0844956 1.43752 0
M  V30 10758 H 1040.1 -2.18565 3.60288 0
M  V30 10759 H 1038.83 -2.25543 2.36216 0
M  V30 10760 H 1037.49 -0.53801 3.62631 0
M  V30 10761 H 1037.13 -2.97675 4.05461 0
M  V30 10762 H 1036.83 -2.01094 5.52119 0
M  V30 10763 H 1038.36 -2.92892 5.35767 0
M  V30 10764 H 1039.77 -0.682262 5.69226 0
M  V30 10765 H 1038.17 0.0462746 6.00082 0
M  V30 10766 H 1039.24 0.771152 4.78729 0
M  V30 10767 N 1040.58 -1.57259 0.103575 0
M  V30 10768 C 1041.83 -1.94945 -0.558953 0
M  V30 10769 C 1042.16 -0.986038 -1.67305 0
M  V30 10770 O 1041.44 -0.0205464 -1.94489 0
M  V30 10771 C 1041.72 -3.42689 -1.10617 0
M  V30 10772 C 1041.57 -4.498 0.00345246 0
M  V30 10773 C 1042.89 -3.91933 -2.00191 0
M  V30 10774 H 1040.01 -0.708859 -0.201713 0
M  V30 10775 H 1042.65 -1.89183 0.176006 0
M  V30 10776 H 1040.8 -3.4773 -1.73251 0
M  V30 10777 H 1042.47 -4.56866 0.638082 0
M  V30 10778 H 1040.72 -4.28615 0.668705 0
M  V30 10779 H 1041.39 -5.50397 -0.420396 0
M  V30 10780 H 1043.86 -3.89098 -1.4745 0
M  V30 10781 H 1042.74 -4.9586 -2.35402 0
M  V30 10782 H 1043 -3.31722 -2.92255 0
M  V30 10783 N 1042.06 0.170153 -1.56679 0
M  V30 10784 C 1042.99 1.21285 -1.9953 0
M  V30 10785 C 1043.97 1.46104 -0.871071 0
M  V30 10786 O 1045.16 1.57419 -1.13724 0
M  V30 10787 C 1042.29 2.5515 -2.35618 0
M  V30 10788 C 1041.24 2.44898 -3.51011 0
M  V30 10789 C 1040.57 3.83263 -3.72845 0
M  V30 10790 C 1041.87 1.95271 -4.84424 0
M  V30 10791 H 1043.56 0.856646 -2.86883 0
M  V30 10792 H 1041.11 0.410634 -1.38021 0
M  V30 10793 H 1043.06 3.28299 -2.64193 0
M  V30 10794 H 1041.78 2.92561 -1.45175 0
M  V30 10795 H 1040.44 1.74203 -3.22566 0
M  V30 10796 H 1040.09 4.18069 -2.79691 0
M  V30 10797 H 1039.79 3.77272 -4.50488 0
M  V30 10798 H 1041.31 4.57996 -4.03822 0
M  V30 10799 H 1042.73 2.58195 -5.11867 0
M  V30 10800 H 1041.13 2.00225 -5.65712 0
M  V30 10801 H 1042.2 0.90709 -4.7634 0
M  V30 10802 N 1043.54 1.5137 0.438746 0
M  V30 10803 C 1044.47 1.67264 1.55236 0
M  V30 10804 C 1045.45 0.520238 1.54053 0
M  V30 10805 O 1046.63 0.743897 1.73201 0
M  V30 10806 C 1043.76 1.68492 2.93816 0
M  V30 10807 C 1042.81 2.8968 3.1303 0
M  V30 10808 S 1043.64 4.50514 2.89478 0
M  V30 10809 C 1044.8 4.54485 4.30342 0
M  V30 10810 H 1045.03 2.61456 1.4152 0
M  V30 10811 H 1042.56 1.41036 0.628341 0
M  V30 10812 H 1044.52 1.69884 3.73697 0
M  V30 10813 H 1043.18 0.754787 3.04896 0
M  V30 10814 H 1042.37 2.86936 4.14347 0
M  V30 10815 H 1041.98 2.86022 2.40972 0
M  V30 10816 H 1044.27 4.30039 5.2352 0
M  V30 10817 H 1045.21 5.56288 4.3812 0
M  V30 10818 H 1045.62 3.83824 4.13931 0
M  V30 10819 N 1045.02 -0.694098 1.41492 0
M  V30 10820 C 1046.43 -1.27407 1.36471 0
M  V30 10821 C 1046.78 -1.9614 0.0485209 0
M  V30 10822 O 1045.9 -1.98871 -0.853188 0
M  V30 10823 C 1046.5 -2.31698 2.47188 0
M  V30 10824 C 1045.06 -2.85268 2.45559 0
M  V30 10825 C 1044.2 -1.59325 2.2696 0
M  V30 10826 H 1047.16 -0.488756 1.50986 0
M  V30 10827 H 1047.18 -3.1302 2.1633 0
M  V30 10828 H 1046.69 -1.81644 3.42968 0
M  V30 10829 H 1044.79 -3.39494 1.5354 0
M  V30 10830 H 1044.9 -3.35598 3.41922 0
M  V30 10831 H 1043.27 -1.85188 1.74864 0
M  V30 10832 H 1044.05 -1.11265 3.24769 0
M  V30 10833 N 1046.49 -1.27344 -0.928501 0
M  V30 10834 C 1047.72 -1.16278 -1.70772 0
M  V30 10835 C 1048.13 0.283131 -1.8707 0
M  V30 10836 O 1047.48 1.20466 -1.38685 0
M  V30 10837 C 1047.54 -1.77313 -3.1273 0
M  V30 10838 C 1047.2 -3.26488 -3.19773 0
M  V30 10839 C 1048.2 -4.23133 -3.02083 0
M  V30 10840 C 1045.88 -3.67182 -3.42757 0
M  V30 10841 C 1047.88 -5.5845 -3.07267 0
M  V30 10842 C 1045.56 -5.02629 -3.47574 0
M  V30 10843 C 1046.56 -5.98072 -3.29847 0
M  V30 10844 O 1046.25 -7.3105 -3.34397 0
M  V30 10845 H 1045.98 -0.405215 -0.541089 0
M  V30 10846 H 1048.54 -1.68707 -1.17163 0
M  V30 10847 H 1046.77 -1.19361 -3.67818 0
M  V30 10848 H 1048.46 -1.60972 -3.72616 0
M  V30 10849 H 1049.22 -3.93031 -2.84168 0
M  V30 10850 H 1045.1 -2.93369 -3.55606 0
M  V30 10851 H 1048.64 -6.32924 -2.93348 0
M  V30 10852 H 1044.54 -5.32387 -3.65013 0
M  V30 10853 H 1045.31 -7.39488 -3.50857 0
M  V30 10854 N 1047.97 1.13488 -1.09353 0
M  V30 10855 C 1049.21 1.86397 -0.83877 0
M  V30 10856 C 1049.58 1.81568 0.624259 0
M  V30 10857 O 1050.78 2.49709 0.994923 0
M  V30 10858 C 1049.05 3.30583 -1.35828 0
M  V30 10859 S 1050.61 4.20995 -1.23728 0
M  V30 10860 H 1047.43 0.643022 -0.303387 0
M  V30 10861 H 1050.03 1.36788 -1.39676 0
M  V30 10862 H 1048.73 3.31652 -2.41734 0
M  V30 10863 H 1048.26 3.85255 -0.796386 0
M  V30 10864 H 1050.28 4.95845 -0.187745 0
M  V30 10865 N 1049.45 0.880621 1.30701 0
M  V30 10866 C 1050.4 0.342397 2.28246 0
M  V30 10867 C 1051.37 -0.565023 1.56194 0
M  V30 10868 O 1052.55 -0.494377 1.84284 0
M  V30 10869 C 1049.69 -0.440859 3.42272 0
M  V30 10870 C 1048.81 0.495284 4.29151 0
M  V30 10871 C 1047.94 -0.303141 5.30334 0
M  V30 10872 C 1046.98 0.628751 6.08862 0
M  V30 10873 N 1046.12 -0.13408 7.01972 0
M  V30 10874 H 1050.96 1.17938 2.73669 0
M  V30 10875 H 1048.49 0.59296 1.34619 0
M  V30 10876 H 1050.45 -0.910854 4.07135 0
M  V30 10877 H 1049.08 -1.24245 2.97931 0
M  V30 10878 H 1048.13 1.08376 3.64635 0
M  V30 10879 H 1049.45 1.2094 4.83916 0
M  V30 10880 H 1048.6 -0.835181 6.00924 0
M  V30 10881 H 1047.34 -1.05049 4.76252 0
M  V30 10882 H 1046.34 1.17246 5.37153 0
M  V30 10883 H 1047.57 1.37512 6.65032 0
M  V30 10884 H 1045.52 -0.864046 6.50285 0
M  V30 10885 H 1045.43 0.520486 7.54206 0
M  V30 10886 H 1046.7 -0.647005 7.7681 0
M  V30 10887 N 1050.93 -1.4397 0.641131 0
M  V30 10888 C 1052.15 -2.06818 0.155318 0
M  V30 10889 C 1052.58 -1.47665 -1.16519 0
M  V30 10890 O 1051.94 -0.58192 -1.71707 0
M  V30 10891 C 1051.99 -3.60542 0.0647537 0
M  V30 10892 O 1051.09 -4.00674 -0.976447 0
M  V30 10893 H 1050.43 -0.657962 0.0893404 0
M  V30 10894 H 1052.96 -1.84678 0.88064 0
M  V30 10895 H 1052.97 -4.07816 -0.122552 0
M  V30 10896 H 1051.65 -4.02975 1.02878 0
M  V30 10897 H 1050.22 -3.65013 -0.762905 0
M  V30 10898 N 1052.41 -0.382291 -1.52893 0
M  V30 10899 C 1053.34 0.447829 -2.29165 0
M  V30 10900 C 1054.32 1.06956 -1.32267 0
M  V30 10901 O 1055.5 1.08365 -1.61154 0
M  V30 10902 C 1052.63 1.57902 -3.09329 0
M  V30 10903 C 1051.59 1.08369 -4.14053 0
M  V30 10904 C 1050.91 2.30641 -4.82399 0
M  V30 10905 C 1052.21 0.156591 -5.22065 0
M  V30 10906 H 1053.91 -0.188541 -2.98806 0
M  V30 10907 H 1051.45 -0.0921179 -1.43705 0
M  V30 10908 H 1053.41 2.16652 -3.61442 0
M  V30 10909 H 1052.13 2.24287 -2.37409 0
M  V30 10910 H 1050.79 0.518772 -3.62911 0
M  V30 10911 H 1050.44 2.9552 -4.07034 0
M  V30 10912 H 1050.14 1.98163 -5.53177 0
M  V30 10913 H 1051.66 2.90047 -5.37313 0
M  V30 10914 H 1053.08 0.652065 -5.6958 0
M  V30 10915 H 1051.47 -0.0780978 -6.00049 0
M  V30 10916 H 1052.54 -0.796529 -4.78313 0
M  V30 10917 N 1053.89 1.57202 -0.111913 0
M  V30 10918 C 1055.16 1.86459 0.590972 0
M  V30 10919 C 1055.54 1.01182 1.85271 0
M  V30 10920 O 1054.89 0.0887891 2.28327 0
M  V30 10921 C 1055.1 3.37455 0.890225 0
M  V30 10922 C 1056.45 4.05895 1.24638 0
M  V30 10923 O 1057.47 3.42433 0.980713 0
M  V30 10924 O 1056.33 5.17903 1.74466 0
M  V30 10925 H 1053.43 0.771652 0.297459 0
M  V30 10926 H 1055.97 1.69072 -0.145882 0
M  V30 10927 H 1054.74 3.913 -0.00419012 0
M  V30 10928 H 1054.37 3.60248 1.68248 0
M  V30 10929 N 1055.36 -0.161842 1.56767 0
M  V30 10930 C 1056.61 -0.875278 1.81719 0
M  V30 10931 C 1056.93 -1.82998 0.690739 0
M  V30 10932 O 1058.13 -2.58648 0.82545 0
M  V30 10933 C 1056.59 -1.60703 3.22029 0
M  V30 10934 C 1056.2 -0.695486 4.42569 0
M  V30 10935 C 1057.94 -2.30813 3.56266 0
M  V30 10936 C 1055.85 -1.42801 5.73901 0
M  V30 10937 H 1054.78 -0.330591 0.677662 0
M  V30 10938 H 1057.43 -0.128112 1.83052 0
M  V30 10939 H 1055.81 -2.39929 3.1504 0
M  V30 10940 H 1056.98 0.0604882 4.6076 0
M  V30 10941 H 1055.3 -0.10356 4.16271 0
M  V30 10942 H 1057.9 -2.86229 4.51638 0
M  V30 10943 H 1058.24 -3.06603 2.81604 0
M  V30 10944 H 1058.77 -1.5852 3.64851 0
M  V30 10945 H 1055.51 -0.712253 6.51619 0
M  V30 10946 H 1055.03 -2.15707 5.5967 0
M  V30 10947 H 1056.71 -1.97295 6.16185 0
M  V30 10948 N 1056.84 -1.516 -0.430713 0
M  V30 10949 C 1058.09 -1.64596 -1.17959 0
M  V30 10950 C 1058.42 -0.365382 -1.91037 0
M  V30 10951 O 1057.67 0.650826 -1.84561 0
M  V30 10952 C 1057.97 -2.804 -2.21609 0
M  V30 10953 C 1057.64 -4.19431 -1.65495 0
M  V30 10954 C 1056.3 -4.57252 -1.49915 0
M  V30 10955 C 1058.65 -5.0616 -1.24304 0
M  V30 10956 C 1055.98 -5.79501 -0.916276 0
M  V30 10957 C 1058.33 -6.28995 -0.674437 0
M  V30 10958 C 1056.99 -6.65582 -0.505591 0
M  V30 10959 H 1056.26 -0.602301 -0.431642 0
M  V30 10960 H 1058.91 -1.8565 -0.469726 0
M  V30 10961 H 1057.22 -2.53595 -2.98658 0
M  V30 10962 H 1058.91 -2.87654 -2.79385 0
M  V30 10963 H 1055.5 -3.89615 -1.78599 0
M  V30 10964 H 1059.69 -4.77541 -1.35159 0
M  V30 10965 H 1054.94 -6.0649 -0.77328 0
M  V30 10966 H 1059.12 -6.95536 -0.346779 0
M  V30 10967 H 1056.74 -7.60182 -0.0518188 0
M  V30 10968 N 1058.32 0.686584 -1.41858 0
M  V30 10969 C 1059.55 1.47519 -1.45072 0
M  V30 10970 C 1059.96 1.88709 -0.0585868 0
M  V30 10971 O 1059.32 1.57373 0.924116 0
M  V30 10972 C 1059.37 2.73195 -2.36742 0
M  V30 10973 O 1059.09 2.33736 -3.70539 0
M  V30 10974 C 1060.59 3.66861 -2.48854 0
M  V30 10975 H 1057.81 0.454307 -0.493808 0
M  V30 10976 H 1060.36 0.844612 -1.86243 0
M  V30 10977 H 1058.51 3.32468 -1.98856 0
M  V30 10978 H 1058.93 3.14809 -4.19518 0
M  V30 10979 H 1060.4 4.51801 -3.17143 0
M  V30 10980 H 1060.88 4.11961 -1.52265 0
M  V30 10981 H 1061.48 3.13486 -2.87414 0
M  V30 10982 N 1059.8 1.27835 0.921735 0
M  V30 10983 C 1061.04 1.14692 1.67253 0
M  V30 10984 C 1061.38 -0.305384 1.91784 0
M  V30 10985 O 1060.65 -1.22286 1.51249 0
M  V30 10986 C 1060.93 1.93743 3.03539 0
M  V30 10987 C 1060.79 3.46991 2.86212 0
M  V30 10988 C 1062.11 1.74658 4.03959 0
M  V30 10989 H 1059.23 0.418021 0.606983 0
M  V30 10990 H 1061.87 1.5706 1.06922 0
M  V30 10991 H 1060.02 1.57738 3.55037 0
M  V30 10992 H 1061.69 3.92858 2.41785 0
M  V30 10993 H 1059.93 3.73029 2.21432 0
M  V30 10994 H 1060.6 3.97551 3.82958 0
M  V30 10995 H 1063.08 2.06063 3.61493 0
M  V30 10996 H 1061.96 2.32353 4.97296 0
M  V30 10997 H 1062.22 0.696019 4.36587 0
M  V30 10998 N 1061.28 -1.12907 1.09954 0
M  V30 10999 C 1062.52 -1.83941 0.837255 0
M  V30 11000 C 1062.84 -1.84234 -0.638984 0
M  V30 11001 O 1062.11 -1.30193 -1.46378 0
M  V30 11002 H 1060.69 -0.681115 0.306743 0
M  V30 11003 H 1063.36 -1.36743 1.38879 0
M  V30 11004 H 1062.45 -2.88289 1.19565 0
M  V30 11005 N 1062.75 -0.88754 -1.30232 0
M  V30 11006 C 1064 -0.506277 -1.95656 0
M  V30 11007 C 1064.32 0.948191 -1.70395 0
M  V30 11008 O 1063.59 1.66701 -1.02895 0
M  V30 11009 H 1062.17 -0.184235 -0.723924 0
M  V30 11010 H 1064.83 -1.13118 -1.58715 0
M  V30 11011 H 1063.93 -0.678673 -3.04632 0
M  V30 11012 N 1064.23 1.43628 -0.648757 0
M  V30 11013 C 1065.46 2.06732 -0.166284 0
M  V30 11014 C 1065.88 1.48281 1.15734 0
M  V30 11015 O 1065.24 0.591018 1.71396 0
M  V30 11016 C 1065.29 3.60502 -0.0838732 0
M  V30 11017 O 1064.39 4.01186 0.955185 0
M  V30 11018 H 1063.73 0.657479 -0.0928285 0
M  V30 11019 H 1066.26 1.84208 -0.890421 0
M  V30 11020 H 1066.27 4.07875 0.100923 0
M  V30 11021 H 1064.95 4.02424 -1.05014 0
M  V30 11022 H 1063.53 3.65412 0.743537 0
M  V30 11023 N 1065.71 0.390394 1.52688 0
M  V30 11024 C 1066.96 -0.191067 2.01195 0
M  V30 11025 C 1067.28 -1.47229 1.27862 0
M  V30 11026 O 1066.55 -1.91793 0.399007 0
M  V30 11027 H 1065.13 -0.073596 0.743366 0
M  V30 11028 H 1067.79 0.522334 1.8777 0
M  V30 11029 H 1066.89 -0.40051 3.0952 0
M  V30 11030 N 1067.19 -1.57141 0.120249 0
M  V30 11031 C 1068.47 -1.8677 -0.581075 0
M  V30 11032 C 1068.85 -1.02163 -1.84732 0
M  V30 11033 O 1068.19 -0.100897 -2.28277 0
M  V30 11034 C 1068.4 -3.37923 -0.872316 0
M  V30 11035 C 1069.75 -4.0655 -1.22483 0
M  V30 11036 O 1070.78 -3.42948 -0.962539 0
M  V30 11037 O 1069.63 -5.18821 -1.71717 0
M  V30 11038 H 1066.73 -0.773219 -0.293362 0
M  V30 11039 H 1069.27 -1.68992 0.154846 0
M  V30 11040 H 1068.05 -3.91292 0.0249416 0
M  V30 11041 H 1067.67 -3.61135 -1.66335 0
M  V30 11042 N 1068.67 0.153526 -1.5685 0
M  V30 11043 C 1069.91 0.865519 -1.82629 0
M  V30 11044 C 1070.24 1.81999 -0.700105 0
M  V30 11045 O 1069.51 1.93907 0.278744 0
M  V30 11046 H 1068.09 0.32261 -0.673745 0
M  V30 11047 H 1070.75 0.149088 -1.94329 0
M  V30 11048 H 1069.84 1.43171 -2.77324 0
M  V30 11049 N 1070.14 1.51827 0.422667 0
M  V30 11050 C 1071.39 1.65464 1.17258 0
M  V30 11051 C 1071.72 0.376834 1.90509 0
M  V30 11052 O 1071 -0.624219 1.84211 0
M  V30 11053 C 1071.28 2.86776 2.17788 0
M  V30 11054 C 1071.13 4.24571 1.48523 0
M  V30 11055 C 1072.45 3.03603 3.18611 0
M  V30 11056 H 1069.57 0.602169 0.424925 0
M  V30 11057 H 1072.21 1.84349 0.45996 0
M  V30 11058 H 1070.36 2.70806 2.78561 0
M  V30 11059 H 1072.04 4.5224 0.909739 0
M  V30 11060 H 1070.28 4.26595 0.787354 0
M  V30 11061 H 1070.95 5.05475 2.2181 0
M  V30 11062 H 1073.43 3.18381 2.67904 0
M  V30 11063 H 1072.3 3.90022 3.8623 0
M  V30 11064 H 1072.56 2.16318 3.85563 0
M  V30 11065 N 1071.62 -0.679052 1.4222 0
M  V30 11066 C 1072.87 -1.44125 1.42674 0
M  V30 11067 C 1073.2 -1.94156 0.041438 0
M  V30 11068 O 1072.48 -1.70628 -0.93361 0
M  V30 11069 C 1072.76 -2.64133 2.44756 0
M  V30 11070 C 1072.61 -2.19761 3.9246 0
M  V30 11071 C 1073.93 -3.66347 2.43881 0
M  V30 11072 H 1071.05 -0.522729 0.519541 0
M  V30 11073 H 1073.69 -0.772067 1.73606 0
M  V30 11074 H 1071.84 -3.21225 2.1851 0
M  V30 11075 H 1073.51 -1.67869 4.29671 0
M  V30 11076 H 1071.76 -1.51377 4.06531 0
M  V30 11077 H 1072.43 -3.05944 4.59459 0
M  V30 11078 H 1074.9 -3.18963 2.67211 0
M  V30 11079 H 1073.78 -4.47902 3.17293 0
M  V30 11080 H 1074.04 -4.17183 1.46325 0
M  V30 11081 N 1073.1 -1.28322 -0.914942 0
M  V30 11082 C 1074.33 -1.18254 -1.69775 0
M  V30 11083 C 1074.74 0.258978 -1.87015 0
M  V30 11084 O 1074.1 1.17514 -1.3963 0
M  V30 11085 C 1074.15 -1.8753 -3.09054 0
M  V30 11086 O 1073.87 -3.26051 -2.92613 0
M  V30 11087 C 1075.37 -1.83749 -4.03424 0
M  V30 11088 H 1072.59 -0.41055 -0.530744 0
M  V30 11089 H 1075.14 -1.69425 -1.14523 0
M  V30 11090 H 1073.29 -1.40233 -3.61128 0
M  V30 11091 H 1073.71 -3.60729 -3.80756 0
M  V30 11092 H 1075.18 -2.36813 -4.98622 0
M  V30 11093 H 1075.66 -0.809601 -4.31674 0
M  V30 11094 H 1076.26 -2.3072 -3.57279 0
M  V30 11095 N 1074.58 1.12322 -1.10551 0
M  V30 11096 C 1075.53 2.20166 -0.750317 0
M  V30 11097 C 1076.52 1.67484 0.254066 0
M  V30 11098 O 1077.73 1.79637 0.114309 0
M  V30 11099 H 1074.1 0.717642 -0.22471 0
M  V30 11100 H 1076.07 2.47378 -1.66873 0
M  V30 11101 C 1074.82 3.47126 -0.199651 0
M  V30 11102 H 1074.14 3.88011 -0.963735 0
M  V30 11103 H 1075.58 4.23999 0.0108033 0
M  V30 11104 C 1074.04 3.19526 1.06792 0
M  V30 11105 O 1074.57 3.39368 2.14923 0
M  V30 11106 N 1072.78 2.73324 0.987032 0
M  V30 11107 H 1072.33 2.57378 0.106997 0
M  V30 11108 H 1072.28 2.55234 1.83584 0
M  V30 11109 N 1076.06 0.894434 1.2976 0
M  V30 11110 C 1077.28 0.5322 2.00455 0
M  V30 11111 C 1077.71 -0.874427 1.66539 0
M  V30 11112 O 1077.06 -1.58113 0.887129 0
M  V30 11113 C 1077.11 0.725264 3.53231 0
M  V30 11114 O 1076.22 -0.224612 4.11788 0
M  V30 11115 H 1075.56 0.208562 0.630395 0
M  V30 11116 H 1078.09 1.20458 1.65382 0
M  V30 11117 H 1078.1 0.627889 4.0314 0
M  V30 11118 H 1076.77 1.75079 3.77253 0
M  V30 11119 H 1075.35 -0.0801361 3.72814 0
M  V30 11120 N 1077.53 -1.43282 0.656365 0
M  V30 11121 C 1078.5 -2.29188 -0.0239173 0
M  V30 11122 C 1079.5 -1.42373 -0.747436 0
M  V30 11123 O 1080.69 -1.63969 -0.588213 0
M  V30 11124 C 1077.82 -3.24501 -1.0446 0
M  V30 11125 H 1079.01 -2.9083 0.731978 0
M  V30 11126 H 1076.57 -1.50614 0.417752 0
M  V30 11127 H 1077.3 -2.6776 -1.82962 0
M  V30 11128 H 1077.09 -3.88509 -0.52942 0
M  V30 11129 H 1078.58 -3.88971 -1.51958 0
M  V30 11130 N 1079.01 -0.398486 -1.52479 0
M  V30 11131 C 1080.26 0.17345 -2.02659 0
M  V30 11132 C 1080.61 1.43702 -1.27935 0
M  V30 11133 O 1079.91 1.87916 -0.37392 0
M  V30 11134 C 1080.1 0.485909 -3.54081 0
M  V30 11135 C 1079.93 -0.745833 -4.43472 0
M  V30 11136 C 1078.7 -1.26785 -4.89136 0
M  V30 11137 C 1080.9 -1.62085 -4.88091 0
M  V30 11138 N 1078.88 -2.45619 -5.62623 0
M  V30 11139 C 1080.25 -2.65552 -5.60252 0
M  V30 11140 C 1082.31 -1.63986 -4.7012 0
M  V30 11141 C 1081.01 -3.70818 -6.1635 0
M  V30 11142 C 1083.04 -2.68164 -5.27107 0
M  V30 11143 C 1082.4 -3.70353 -5.99181 0
M  V30 11144 H 1078.5 0.0253159 -0.78159 0
M  V30 11145 H 1081.08 -0.550442 -1.86757 0
M  V30 11146 H 1079.25 1.17885 -3.70078 0
M  V30 11147 H 1080.98 1.0458 -3.90954 0
M  V30 11148 H 1077.74 -0.827472 -4.66315 0
M  V30 11149 H 1078.16 -3.05771 -6.04014 0
M  V30 11150 H 1082.8 -0.863253 -4.13893 0
M  V30 11151 H 1080.52 -4.49341 -6.71653 0
M  V30 11152 H 1084.11 -2.7053 -5.15077 0
M  V30 11153 H 1082.99 -4.49642 -6.42489 0
M  V30 11154 N 1080.49 1.57075 -0.12858 0
M  V30 11155 C 1081.4 2.19369 0.831533 0
M  V30 11156 C 1082.42 1.17258 1.28555 0
M  V30 11157 O 1083.59 1.49766 1.34656 0
M  V30 11158 C 1080.66 2.78846 2.06024 0
M  V30 11159 C 1079.72 3.96024 1.65722 0
M  V30 11160 C 1078.95 4.52655 2.82735 0
M  V30 11161 O 1079.18 4.08175 3.98434 0
M  V30 11162 O 1078.11 5.43198 2.59268 0
M  V30 11163 H 1081.94 3.01887 0.331352 0
M  V30 11164 H 1079.52 1.49081 0.0975226 0
M  V30 11165 H 1081.4 3.16721 2.77967 0
M  V30 11166 H 1080.08 1.99353 2.5503 0
M  V30 11167 H 1078.98 3.62899 0.908574 0
M  V30 11168 H 1080.32 4.76981 1.21449 0
M  V30 11169 N 1081.97 -0.145205 1.5693 0
M  V30 11170 C 1083.2 -0.872398 1.87608 0
M  V30 11171 C 1083.61 -1.74657 0.716975 0
M  V30 11172 O 1082.97 -1.79792 -0.3132 0
M  V30 11173 C 1083.02 -1.72762 3.17546 0
M  V30 11174 O 1082.74 -0.888681 4.28992 0
M  V30 11175 C 1084.24 -2.56224 3.61751 0
M  V30 11176 H 1081.46 -0.252166 0.621815 0
M  V30 11177 H 1084.01 -0.137456 2.04038 0
M  V30 11178 H 1082.16 -2.41561 3.02865 0
M  V30 11179 H 1082.58 -1.47601 5.03303 0
M  V30 11180 H 1084.05 -3.11804 4.55502 0
M  V30 11181 H 1084.53 -3.32347 2.87127 0
M  V30 11182 H 1085.13 -1.92714 3.79133 0
M  V30 11183 N 1083.45 -1.52049 -0.414609 0
M  V30 11184 C 1084.69 -1.65838 -1.16206 0
M  V30 11185 C 1085.02 -0.385623 -1.90639 0
M  V30 11186 O 1084.28 0.631214 -1.85241 0
M  V30 11187 C 1084.58 -2.82735 -2.18622 0
M  V30 11188 C 1084.24 -4.21163 -1.61037 0
M  V30 11189 C 1082.9 -4.58816 -1.45056 0
M  V30 11190 C 1085.26 -5.0745 -1.18928 0
M  V30 11191 C 1082.58 -5.8044 -0.854761 0
M  V30 11192 C 1084.94 -6.29674 -0.607686 0
M  V30 11193 C 1083.6 -6.66081 -0.434968 0
M  V30 11194 H 1082.87 -0.606845 -0.425229 0
M  V30 11195 H 1085.52 -1.86137 -0.450009 0
M  V30 11196 H 1083.82 -2.56749 -2.95952 0
M  V30 11197 H 1085.52 -2.90601 -2.76319 0
M  V30 11198 H 1082.11 -3.91488 -1.74457 0
M  V30 11199 H 1086.29 -4.78948 -1.30086 0
M  V30 11200 H 1081.55 -6.07276 -0.70891 0
M  V30 11201 H 1085.72 -6.95865 -0.272988 0
M  V30 11202 H 1083.35 -7.60195 0.0288116 0
M  V30 11203 N 1084.93 0.6715 -1.42579 0
M  V30 11204 C 1085.86 1.79703 -1.42266 0
M  V30 11205 C 1086.87 1.59599 -0.321268 0
M  V30 11206 O 1088.06 1.68657 -0.584564 0
M  V30 11207 C 1085.16 3.16859 -1.20224 0
M  V30 11208 C 1084.33 3.63783 -2.42859 0
M  V30 11209 C 1083.39 4.79683 -2.16312 0
M  V30 11210 O 1082.42 4.90058 -2.89537 0
M  V30 11211 N 1083.62 5.68622 -1.16831 0
M  V30 11212 H 1086.38 1.80455 -2.39282 0
M  V30 11213 H 1083.95 0.854708 -1.375 0
M  V30 11214 H 1085.94 3.92054 -1.00376 0
M  V30 11215 H 1084.51 3.10987 -0.317188 0
M  V30 11216 H 1083.73 2.7923 -2.78252 0
M  V30 11217 H 1085.02 3.91877 -3.24514 0
M  V30 11218 H 1084.41 5.62894 -0.562746 0
M  V30 11219 H 1082.97 6.43615 -1.0297 0
M  V30 11220 N 1086.4 1.28806 0.908124 0
M  V30 11221 C 1087.82 1.06634 1.18749 0
M  V30 11222 C 1088.02 -0.187729 2.00624 0
M  V30 11223 O 1087.08 -0.88784 2.36376 0
M  V30 11224 C 1088.39 2.31703 1.91661 0
M  V30 11225 C 1089.94 2.36939 2.04521 0
M  V30 11226 C 1090.41 3.61789 2.80843 0
M  V30 11227 N 1091.9 3.62462 2.88402 0
M  V30 11228 C 1092.64 4.55746 3.47971 0
M  V30 11229 N 1092.13 5.59353 4.08774 0
M  V30 11230 N 1093.93 4.43331 3.45564 0
M  V30 11231 H 1086.08 2.09299 0.36164 0
M  V30 11232 H 1088.34 0.921479 0.222668 0
M  V30 11233 H 1088.05 3.23096 1.38931 0
M  V30 11234 H 1087.92 2.38556 2.92183 0
M  V30 11235 H 1090.31 1.4604 2.5643 0
M  V30 11236 H 1090.39 2.34077 1.03159 0
M  V30 11237 H 1090.03 4.53035 2.29612 0
M  V30 11238 H 1089.96 3.61907 3.82532 0
M  V30 11239 H 1092.45 2.87544 2.45208 0
M  V30 11240 H 1092.77 6.26668 4.52224 0
M  V30 11241 H 1091.11 5.63173 4.07261 0
M  V30 11242 H 1094.3 3.61587 2.97276 0
M  V30 11243 H 1094.48 5.16216 3.91695 0
M  V30 11244 N 1087.88 -1.11734 1.11145 0
M  V30 11245 C 1089.11 -1.86943 0.879534 0
M  V30 11246 C 1089.52 -1.80283 -0.574007 0
M  V30 11247 O 1088.86 -1.17998 -1.40791 0
M  V30 11248 C 1088.92 -3.36738 1.25887 0
M  V30 11249 C 1088.59 -3.67169 2.72095 0
M  V30 11250 C 1089.59 -3.6491 3.7032 0
M  V30 11251 C 1087.27 -3.96272 3.08665 0
M  V30 11252 C 1089.26 -3.91325 5.03134 0
M  V30 11253 C 1086.95 -4.22345 4.41665 0
M  V30 11254 C 1087.95 -4.19859 5.38709 0
M  V30 11255 O 1087.64 -4.4528 6.69314 0
M  V30 11256 H 1087.37 -0.598117 0.315011 0
M  V30 11257 H 1089.92 -1.42253 1.48166 0
M  V30 11258 H 1088.15 -3.82019 0.599873 0
M  V30 11259 H 1089.84 -3.93306 1.00325 0
M  V30 11260 H 1090.61 -3.42481 3.43412 0
M  V30 11261 H 1086.49 -3.97344 2.33749 0
M  V30 11262 H 1090.03 -3.893 5.78871 0
M  V30 11263 H 1085.93 -4.4425 4.68308 0
M  V30 11264 H 1086.7 -4.62863 6.75056 0
M  V30 11265 N 1089.36 -0.901303 -1.29284 0
M  V30 11266 C 1090.78 -0.597634 -1.47988 0
M  V30 11267 C 1090.98 0.860434 -1.82205 0
M  V30 11268 O 1090.03 1.64049 -1.91948 0
M  V30 11269 C 1091.34 -1.52484 -2.5917 0
M  V30 11270 C 1092.89 -1.53021 -2.73045 0
M  V30 11271 C 1093.37 -2.44373 -3.87357 0
M  V30 11272 N 1094.86 -2.42429 -3.94693 0
M  V30 11273 C 1095.59 -3.09817 -4.82495 0
M  V30 11274 N 1095.09 -3.86489 -5.74976 0
M  V30 11275 N 1096.88 -2.98966 -4.76 0
M  V30 11276 H 1089.03 -1.84432 -1.0535 0
M  V30 11277 H 1091.3 -0.790367 -0.523473 0
M  V30 11278 H 1091 -2.56378 -2.40756 0
M  V30 11279 H 1090.88 -1.24657 -3.56006 0
M  V30 11280 H 1093.26 -0.498709 -2.90855 0
M  V30 11281 H 1093.34 -1.84886 -1.76779 0
M  V30 11282 H 1092.99 -3.47618 -3.70302 0
M  V30 11283 H 1092.92 -2.09817 -4.82995 0
M  V30 11284 H 1095.41 -1.86724 -3.28546 0
M  V30 11285 H 1095.72 -4.34959 -6.38773 0
M  V30 11286 H 1094.07 -3.90596 -5.74857 0
M  V30 11287 H 1097.26 -2.38581 -4.02737 0
M  V30 11288 H 1097.43 -3.51758 -5.44215 0
M  V30 11289 N 1090.84 1.42931 -0.663954 0
M  V30 11290 C 1092.08 2.03557 -0.185479 0
M  V30 11291 C 1092.44 1.51309 1.18193 0
M  V30 11292 O 1093.64 2.03649 1.75444 0
M  V30 11293 C 1091.91 3.56802 -0.206705 0
M  V30 11294 S 1093.47 4.38333 0.202356 0
M  V30 11295 H 1090.29 0.706791 -0.0772523 0
M  V30 11296 H 1092.89 1.74841 -0.874688 0
M  V30 11297 H 1091.6 3.92328 -1.20445 0
M  V30 11298 H 1091.13 3.90175 0.502693 0
M  V30 11299 H 1093.14 4.7489 1.43853 0
M  V30 11300 N 1092.32 0.406567 1.52266 0
M  V30 11301 C 1093.25 -0.411314 2.29849 0
M  V30 11302 C 1094.23 -1.04838 1.33952 0
M  V30 11303 O 1095.41 -1.05788 1.62857 0
M  V30 11304 C 1092.54 -1.52961 3.11802 0
M  V30 11305 C 1091.5 -1.01768 4.15725 0
M  V30 11306 C 1090.82 -2.22938 4.86007 0
M  V30 11307 C 1092.12 -0.073515 5.22248 0
M  V30 11308 H 1093.82 0.236054 2.98468 0
M  V30 11309 H 1091.36 0.114968 1.4354 0
M  V30 11310 H 1093.31 -2.10874 3.64843 0
M  V30 11311 H 1092.04 -2.20482 2.40947 0
M  V30 11312 H 1090.7 -0.46097 3.6369 0
M  V30 11313 H 1090.35 -2.89007 4.11684 0
M  V30 11314 H 1090.05 -1.89338 5.5626 0
M  V30 11315 H 1091.57 -2.81462 5.41859 0
M  V30 11316 H 1092.98 -0.561367 5.70545 0
M  V30 11317 H 1091.38 0.173551 5.99849 0
M  V30 11318 H 1092.45 0.872524 4.76985 0
M  V30 11319 N 1093.79 -1.57004 0.136909 0
M  V30 11320 C 1094.7 -2.19807 -0.819887 0
M  V30 11321 C 1095.72 -1.17939 -1.27932 0
M  V30 11322 O 1096.9 -1.50478 -1.3386 0
M  V30 11323 C 1093.96 -2.79935 -2.04542 0
M  V30 11324 C 1093.02 -3.96897 -1.6362 0
M  V30 11325 C 1092.26 -4.54148 -2.80331 0
M  V30 11326 O 1092.48 -4.10282 -3.96264 0
M  V30 11327 O 1091.41 -5.44565 -2.56384 0
M  V30 11328 H 1095.24 -3.02058 -0.315337 0
M  V30 11329 H 1092.82 -1.49131 -0.0896151 0
M  V30 11330 H 1094.71 -3.18191 -2.76283 0
M  V30 11331 H 1093.38 -2.00703 -2.53969 0
M  V30 11332 H 1092.29 -3.63376 -0.889316 0
M  V30 11333 H 1093.62 -4.77618 -1.18918 0
M  V30 11334 N 1095.27 0.136881 -1.57004 0
M  V30 11335 C 1096.22 1.18782 -1.99984 0
M  V30 11336 C 1097.21 1.43899 -0.893841 0
M  V30 11337 O 1098.42 1.44072 -1.07904 0
M  V30 11338 H 1094.8 0.400065 -0.636751 0
M  V30 11339 H 1096.77 0.798696 -2.87512 0
M  V30 11340 C 1095.52 2.51105 -2.40502 0
M  V30 11341 H 1094.84 2.32611 -3.25165 0
M  V30 11342 H 1096.28 3.23244 -2.74389 0
M  V30 11343 C 1094.74 3.12386 -1.26161 0
M  V30 11344 O 1095.27 3.97666 -0.567836 0
M  V30 11345 N 1093.47 2.71989 -1.02326 0
M  V30 11346 H 1093.02 2.02736 -1.58921 0
M  V30 11347 H 1092.98 3.13322 -0.26013 0
M  V30 11348 N 1096.75 1.52266 0.40654 0
M  V30 11349 C 1097.98 1.70598 1.17945 0
M  V30 11350 C 1098.4 0.415793 1.83447 0
M  V30 11351 O 1097.76 -0.626968 1.70114 0
M  V30 11352 C 1097.81 2.84449 2.21633 0
M  V30 11353 O 1096.91 2.50199 3.27833 0
M  V30 11354 H 1096.25 0.567837 0.344177 0
M  V30 11355 H 1098.78 1.98981 0.476211 0
M  V30 11356 H 1098.79 3.09436 2.65919 0
M  V30 11357 H 1097.47 3.78055 1.73341 0
M  V30 11358 H 1096.04 2.35892 2.88807 0
M  V30 11359 N 1098.23 -0.663929 1.42933 0
M  V30 11360 C 1099.64 -0.978346 1.26097 0
M  V30 11361 C 1099.84 -2.00756 0.172968 0
M  V30 11362 O 1098.9 -2.48418 -0.452184 0
M  V30 11363 C 1100.21 -1.4728 2.62162 0
M  V30 11364 C 1101.76 -1.59001 2.69606 0
M  V30 11365 C 1102.24 -2.1184 4.06064 0
M  V30 11366 N 1103.73 -2.19158 4.08074 0
M  V30 11367 C 1104.46 -2.61141 5.10483 0
M  V30 11368 N 1103.96 -3.02498 6.23271 0
M  V30 11369 N 1105.75 -2.60986 4.97838 0
M  V30 11370 H 1097.9 0.0173096 2.12393 0
M  V30 11371 H 1100.17 -0.0548116 0.946414 0
M  V30 11372 H 1099.87 -0.791008 3.42689 0
M  V30 11373 H 1099.75 -2.4497 2.86827 0
M  V30 11374 H 1102.13 -2.26284 1.89418 0
M  V30 11375 H 1102.21 -0.597728 2.48718 0
M  V30 11376 H 1101.86 -1.45162 4.86714 0
M  V30 11377 H 1101.79 -3.1188 4.2431 0
M  V30 11378 H 1104.28 -1.90013 3.26655 0
M  V30 11379 H 1104.59 -3.33251 6.97254 0
M  V30 11380 H 1102.94 -3.00328 6.2676 0
M  V30 11381 H 1106.13 -2.28046 4.08794 0
M  V30 11382 H 1106.3 -2.93384 5.7778 0
M  V30 11383 N 1099.71 -1.29285 -0.901281 0
M  V30 11384 C 1100.93 -1.20169 -1.69039 0
M  V30 11385 C 1101.36 0.234509 -1.86632 0
M  V30 11386 O 1100.71 1.16935 -1.38549 0
M  V30 11387 C 1100.76 -1.91852 -3.05328 0
M  V30 11388 O 1099.87 -1.23448 -3.9349 0
M  V30 11389 H 1099.21 -0.416486 -0.517141 0
M  V30 11390 H 1101.74 -1.70826 -1.12603 0
M  V30 11391 H 1101.75 -2.00244 -3.5548 0
M  V30 11392 H 1100.42 -2.96313 -2.91841 0
M  V30 11393 H 1099 -1.23303 -3.51924 0
M  V30 11394 N 1101.18 1.11143 -1.11736 0
M  V30 11395 C 1102.43 1.83219 -0.869413 0
M  V30 11396 C 1102.76 1.84588 0.603402 0
M  V30 11397 O 1102.04 1.30119 1.44566 0
M  V30 11398 C 1102.32 3.30247 -1.43559 0
M  V30 11399 C 1102.17 3.37253 -2.97624 0
M  V30 11400 C 1103.49 4.26412 -1.08907 0
M  V30 11401 H 1100.61 0.665205 -0.317286 0
M  V30 11402 H 1103.25 1.30307 -1.38275 0
M  V30 11403 H 1101.4 3.75437 -0.998978 0
M  V30 11404 H 1103.08 3.00599 -3.49911 0
M  V30 11405 H 1101.32 2.77378 -3.33532 0
M  V30 11406 H 1101.99 4.40752 -3.32328 0
M  V30 11407 H 1104.47 3.89418 -1.46604 0
M  V30 11408 H 1103.34 5.27666 -1.51195 0
M  V30 11409 H 1103.6 4.421 -0.000259009 0
M  V30 11410 N 1102.66 0.908147 1.28804 0
M  V30 11411 C 1103.91 0.539201 1.95501 0
M  V30 11412 C 1104.24 -0.913759 1.7136 0
M  V30 11413 O 1103.52 -1.64904 1.03136 0
M  V30 11414 C 1103.8 0.842372 3.50109 0
M  V30 11415 C 1103.65 2.34765 3.83673 0
M  V30 11416 C 1104.97 0.334658 4.38826 0
M  V30 11417 H 1102.09 0.197373 0.71008 0
M  V30 11418 H 1104.73 1.13637 1.52272 0
M  V30 11419 H 1102.88 0.334143 3.8706 0
M  V30 11420 H 1104.55 2.92607 3.56621 0
M  V30 11421 H 1102.8 2.80494 3.30916 0
M  V30 11422 H 1103.47 2.51034 4.91616 0
M  V30 11423 H 1105.94 0.769961 4.08914 0
M  V30 11424 H 1104.82 0.575914 5.4587 0
M  V30 11425 H 1105.08 -0.764878 4.35433 0
M  V30 11426 N 1104.14 -1.42577 0.671525 0
M  V30 11427 C 1105.09 -2.30798 -0.00883676 0
M  V30 11428 C 1106.06 -1.4578 -0.796076 0
M  V30 11429 O 1107.24 -1.74617 -0.768987 0
M  V30 11430 C 1104.38 -3.31581 -0.956452 0
M  V30 11431 C 1103.5 -4.31691 -0.163381 0
M  V30 11432 C 1102.63 -5.19549 -1.10645 0
M  V30 11433 C 1101.67 -6.1134 -0.304876 0
M  V30 11434 N 1100.81 -6.91761 -1.20048 0
M  V30 11435 H 1105.65 -2.88426 0.749301 0
M  V30 11436 H 1103.18 -1.42074 0.381251 0
M  V30 11437 H 1105.14 -3.88539 -1.51966 0
M  V30 11438 H 1103.77 -2.75561 -1.68126 0
M  V30 11439 H 1102.82 -3.76879 0.516396 0
M  V30 11440 H 1104.14 -4.96683 0.459099 0
M  V30 11441 H 1103.29 -5.81223 -1.73969 0
M  V30 11442 H 1102.03 -4.54726 -1.76282 0
M  V30 11443 H 1101.03 -5.48738 0.341597 0
M  V30 11444 H 1102.26 -6.78211 0.347352 0
M  V30 11445 H 1100.2 -6.2957 -1.84331 0
M  V30 11446 H 1100.12 -7.53345 -0.633003 0
M  V30 11447 H 1101.39 -7.57924 -1.82129 0
M  V30 11448 N 1105.62 -0.414636 -1.52048 0
M  V30 11449 C 1106.85 0.158686 -2.06291 0
M  V30 11450 C 1107.26 1.38397 -1.2842 0
M  V30 11451 O 1106.62 1.79351 -0.337539 0
M  V30 11452 C 1106.67 0.503634 -3.57975 0
M  V30 11453 O 1106.39 -0.672996 -4.329 0
M  V30 11454 C 1107.89 1.13009 -4.28653 0
M  V30 11455 H 1105.11 0.0179622 -0.67076 0
M  V30 11456 H 1107.66 -0.587177 -1.95889 0
M  V30 11457 H 1105.81 1.19939 -3.68366 0
M  V30 11458 H 1106.22 -0.383735 -5.23094 0
M  V30 11459 H 1107.7 1.32162 -5.35945 0
M  V30 11460 H 1108.18 2.10476 -3.85482 0
M  V30 11461 H 1108.78 0.474379 -4.22646 0
M  V30 11462 N 1107.1 1.56929 -0.145233 0
M  V30 11463 C 1108.51 1.82877 0.375884 0
M  V30 11464 C 1108.86 1.06384 1.64854 0
M  V30 11465 O 1107.98 0.30857 2.14189 0
M  V30 11466 C 1108.58 3.31725 0.688744 0
M  V30 11467 C 1107.14 3.58261 1.15439 0
M  V30 11468 C 1106.28 2.76737 0.176565 0
M  V30 11469 H 1109.24 1.54328 -0.36996 0
M  V30 11470 H 1109.26 3.47784 1.54359 0
M  V30 11471 H 1108.77 3.87371 -0.237694 0
M  V30 11472 H 1106.87 3.08 2.09683 0
M  V30 11473 H 1106.98 4.66732 1.08158 0
M  V30 11474 H 1105.35 2.45761 0.668843 0
M  V30 11475 H 1106.13 3.35154 -0.743432 0
M  V30 11476 N 1108.58 -0.128553 1.57075 0
M  V30 11477 C 1109.51 -1.18822 1.94825 0
M  V30 11478 C 1110.49 -1.40609 0.816571 0
M  V30 11479 O 1111.67 -1.5492 1.07388 0
M  V30 11480 C 1108.8 -2.54383 2.23623 0
M  V30 11481 C 1107.84 -2.4908 3.4621 0
M  V30 11482 S 1108.68 -1.93974 4.99133 0
M  V30 11483 C 1109.83 -3.31228 5.31074 0
M  V30 11484 H 1110.07 -0.866246 2.844 0
M  V30 11485 H 1107.6 -0.334927 1.50724 0
M  V30 11486 H 1109.56 -3.32386 2.40893 0
M  V30 11487 H 1108.22 -2.83761 1.34678 0
M  V30 11488 H 1107.41 -3.48915 3.63695 0
M  V30 11489 H 1107.01 -1.79193 3.28277 0
M  V30 11490 H 1109.3 -4.27407 5.25671 0
M  V30 11491 H 1110.25 -3.18578 6.32387 0
M  V30 11492 H 1110.66 -3.29215 4.5856 0
M  V30 11493 N 1110.05 -1.5248 -0.398459 0
M  V30 11494 C 1111.28 -1.70925 -1.16586 0
M  V30 11495 C 1111.7 -0.42342 -1.83991 0
M  V30 11496 O 1111.05 0.601395 -1.72306 0
M  V30 11497 C 1111.1 -2.85226 -2.22099 0
M  V30 11498 O 1110.83 -4.08831 -1.57444 0
M  V30 11499 C 1112.33 -3.15272 -3.11639 0
M  V30 11500 H 1109.55 -0.572533 -0.349924 0
M  V30 11501 H 1112.09 -1.99087 -0.467416 0
M  V30 11502 H 1110.25 -2.59553 -2.87595 0
M  V30 11503 H 1110.66 -4.72603 -2.2748 0
M  V30 11504 H 1112.13 -3.98737 -3.81724 0
M  V30 11505 H 1112.61 -2.29262 -3.74614 0
M  V30 11506 H 1113.22 -3.42749 -2.518 0
M  V30 11507 N 1111.53 0.65634 -1.43283 0
M  V30 11508 C 1112.81 1.41339 -1.35213 0
M  V30 11509 C 1113.19 2.111 0.00158494 0
M  V30 11510 O 1112.54 2.0457 1.018 0
M  V30 11511 C 1112.75 2.40066 -2.53317 0
M  V30 11512 C 1114.09 3.04159 -2.96264 0
M  V30 11513 O 1115.12 2.50393 -2.53341 0
M  V30 11514 O 1113.98 4.01633 -3.70612 0
M  V30 11515 H 1111.07 0.631325 -0.534189 0
M  V30 11516 H 1113.62 0.68351 -1.55326 0
M  V30 11517 H 1112.39 1.87444 -3.43483 0
M  V30 11518 H 1112.01 3.20509 -2.35287 0
M  V30 11519 N 1113.01 1.29761 0.894412 0
M  V30 11520 C 1114.26 1.18214 1.64782 0
M  V30 11521 C 1114.59 -0.264635 1.92388 0
M  V30 11522 O 1113.86 -1.19051 1.53809 0
M  V30 11523 C 1114.15 2.00138 2.99361 0
M  V30 11524 C 1114 3.52984 2.78787 0
M  V30 11525 C 1115.32 1.83187 4.00163 0
M  V30 11526 H 1112.44 0.430802 0.597979 0
M  V30 11527 H 1115.08 1.59292 1.03566 0
M  V30 11528 H 1113.23 1.65233 3.51611 0
M  V30 11529 H 1114.9 3.97898 2.33398 0
M  V30 11530 H 1113.14 3.77642 2.13469 0
M  V30 11531 H 1113.82 4.05585 3.7444 0
M  V30 11532 H 1116.29 2.13684 3.57041 0
M  V30 11533 H 1115.17 2.42849 4.92255 0
M  V30 11534 H 1115.43 0.788469 4.35012 0
M  V30 11535 N 1114.49 -1.10549 1.12324 0
M  V30 11536 C 1115.73 -1.84108 0.887895 0
M  V30 11537 C 1116.09 -1.83159 -0.5759 0
M  V30 11538 O 1117.29 -2.52259 -0.928367 0
M  V30 11539 C 1115.56 -3.26866 1.44545 0
M  V30 11540 S 1117.12 -4.17567 1.34846 0
M  V30 11541 H 1113.94 -0.634752 0.320329 0
M  V30 11542 H 1116.54 -1.33036 1.43254 0
M  V30 11543 H 1115.25 -3.25126 2.50442 0
M  V30 11544 H 1114.78 -3.83008 0.89825 0
M  V30 11545 H 1116.79 -4.95173 0.319143 0
M  V30 11546 N 1115.97 -0.914965 -1.28321 0
M  V30 11547 C 1117.38 -0.613297 -1.47346 0
M  V30 11548 C 1117.58 0.84106 -1.83108 0
M  V30 11549 O 1116.64 1.62004 -1.93678 0
M  V30 11550 C 1117.95 -1.55224 -2.57538 0
M  V30 11551 C 1119.5 -1.55909 -2.71407 0
M  V30 11552 C 1119.97 -2.48468 -3.84744 0
M  V30 11553 N 1121.46 -2.46602 -3.92099 0
M  V30 11554 C 1122.2 -3.14917 -4.79182 0
M  V30 11555 N 1121.7 -3.92566 -5.70845 0
M  V30 11556 N 1123.49 -3.03998 -4.72802 0
M  V30 11557 H 1115.64 -1.85539 -1.03388 0
M  V30 11558 H 1117.9 -0.795875 -0.515061 0
M  V30 11559 H 1117.61 -2.58917 -2.38023 0
M  V30 11560 H 1117.48 -1.28426 -3.54664 0
M  V30 11561 H 1119.87 -0.52953 -2.9031 0
M  V30 11562 H 1119.95 -1.86751 -1.74808 0
M  V30 11563 H 1119.59 -3.51526 -3.66595 0
M  V30 11564 H 1119.52 -2.14928 -4.80743 0
M  V30 11565 H 1122.02 -1.90199 -3.26547 0
M  V30 11566 H 1122.33 -4.41709 -6.34123 0
M  V30 11567 H 1120.67 -3.96671 -5.70681 0
M  V30 11568 H 1123.86 -2.42839 -4.00184 0
M  V30 11569 H 1124.04 -3.57511 -5.40454 0
M  V30 11570 N 1117.44 1.42219 -0.679077 0
M  V30 11571 C 1118.39 2.32599 0.00820028 0
M  V30 11572 C 1119.39 1.50059 0.786046 0
M  V30 11573 O 1120.59 1.66103 0.693528 0
M  V30 11574 H 1116.97 0.751694 0.0214483 0
M  V30 11575 H 1118.94 2.88257 -0.77138 0
M  V30 11576 C 1117.69 3.3468 0.942581 0
M  V30 11577 H 1117.01 3.98234 0.353463 0
M  V30 11578 H 1118.45 4.00496 1.39208 0
M  V30 11579 C 1116.91 2.67275 2.05099 0
M  V30 11580 O 1117.44 2.50793 3.13793 0
M  V30 11581 N 1115.64 2.26232 1.82394 0
M  V30 11582 H 1115.19 2.39838 0.939983 0
M  V30 11583 H 1115.15 1.81465 2.56744 0
M  V30 11584 N 1118.92 0.422693 1.51826 0
M  V30 11585 C 1120.17 -0.150066 2.01141 0
M  V30 11586 C 1120.48 -1.45059 1.31214 0
M  V30 11587 O 1121.69 -2.10542 1.71419 0
M  V30 11588 C 1120.15 -0.317985 3.58492 0
M  V30 11589 C 1119.75 0.971244 4.37345 0
M  V30 11590 C 1121.5 -0.845303 4.15999 0
M  V30 11591 C 1119.4 0.769769 5.86369 0
M  V30 11592 H 1118.33 -0.0598567 0.75162 0
M  V30 11593 H 1120.99 0.550217 1.75057 0
M  V30 11594 H 1119.37 -1.08092 3.80962 0
M  V30 11595 H 1120.54 1.74138 4.26629 0
M  V30 11596 H 1118.86 1.42599 3.91222 0
M  V30 11597 H 1121.45 -1.01229 5.2503 0
M  V30 11598 H 1121.8 -1.82375 3.74226 0
M  V30 11599 H 1122.33 -0.141067 3.9755 0
M  V30 11600 H 1119.07 1.72017 6.32527 0
M  V30 11601 H 1118.59 0.0391717 5.99787 0
M  V30 11602 H 1120.27 0.417225 6.45653 0
M  V30 11603 N 1120.4 -1.5685 0.153553 0
M  V30 11604 C 1121.65 -1.95509 -0.495911 0
M  V30 11605 C 1121.96 -1.04129 -1.65579 0
M  V30 11606 O 1123.17 -1.32394 -2.37032 0
M  V30 11607 C 1121.62 -3.47579 -0.933622 0
M  V30 11608 C 1121.23 -4.47555 0.199684 0
M  V30 11609 C 1122.98 -3.95092 -1.55251 0
M  V30 11610 C 1120.88 -5.90843 -0.256663 0
M  V30 11611 H 1119.81 -0.729919 -0.189035 0
M  V30 11612 H 1122.46 -1.81938 0.238947 0
M  V30 11613 H 1120.85 -3.56506 -1.72394 0
M  V30 11614 H 1122.02 -4.50329 0.976744 0
M  V30 11615 H 1120.33 -4.09997 0.727394 0
M  V30 11616 H 1122.93 -4.99588 -1.90567 0
M  V30 11617 H 1123.27 -3.37015 -2.4439 0
M  V30 11618 H 1123.81 -3.89109 -0.826969 0
M  V30 11619 H 1120.55 -6.52753 0.599515 0
M  V30 11620 H 1120.07 -5.91414 -0.999458 0
M  V30 11621 H 1121.75 -6.43131 -0.70649 0
M  V30 11622 N 1121.88 0.120221 -1.57141 0
M  V30 11623 C 1123.12 0.828222 -1.84788 0
M  V30 11624 C 1123.45 1.79936 -0.738459 0
M  V30 11625 O 1122.71 1.93824 0.270295 0
M  V30 11626 C 1123.01 1.61338 -3.18912 0
M  V30 11627 C 1122.67 0.786637 -4.43985 0
M  V30 11628 C 1121.33 0.558645 -4.77946 0
M  V30 11629 C 1123.69 0.210281 -5.20776 0
M  V30 11630 C 1121.01 -0.255975 -5.86141 0
M  V30 11631 C 1123.37 -0.591523 -6.29828 0
M  V30 11632 C 1122.03 -0.829843 -6.62322 0
M  V30 11633 H 1121.3 0.303068 -0.676188 0
M  V30 11634 H 1123.95 0.0906538 -1.91285 0
M  V30 11635 H 1122.25 2.42182 -3.07986 0
M  V30 11636 H 1123.95 2.16513 -3.37525 0
M  V30 11637 H 1120.54 0.974426 -4.17376 0
M  V30 11638 H 1124.72 0.373641 -4.94892 0
M  V30 11639 H 1119.98 -0.449849 -6.09743 0
M  V30 11640 H 1124.15 -1.04512 -6.88513 0
M  V30 11641 H 1121.78 -1.4629 -7.45992 0
M  V30 11642 N 1123.36 1.52689 0.390367 0
M  V30 11643 C 1124.58 1.71839 1.16129 0
M  V30 11644 C 1125.01 0.435226 1.82996 0
M  V30 11645 O 1124.36 -0.60889 1.70769 0
M  V30 11646 C 1124.41 2.86784 2.18603 0
M  V30 11647 O 1123.52 2.53662 3.25161 0
M  V30 11648 H 1122.86 0.571455 0.338135 0
M  V30 11649 H 1125.39 1.99475 0.45508 0
M  V30 11650 H 1125.4 3.12239 2.62622 0
M  V30 11651 H 1124.07 3.79872 1.69322 0
M  V30 11652 H 1122.65 2.38942 2.86289 0
M  V30 11653 N 1124.83 -0.648732 1.43629 0
M  V30 11654 C 1126.08 -1.40446 1.44768 0
M  V30 11655 C 1126.4 -1.95447 0.0773445 0
M  V30 11656 O 1127.6 -2.71479 -0.0337942 0
M  V30 11657 C 1126.06 -2.54194 2.54781 0
M  V30 11658 C 1125.67 -2.05781 3.97942 0
M  V30 11659 C 1127.41 -3.31529 2.65121 0
M  V30 11660 C 1125.32 -3.16767 4.99412 0
M  V30 11661 H 1124.25 -0.527717 0.538545 0
M  V30 11662 H 1126.9 -0.699756 1.69634 0
M  V30 11663 H 1125.28 -3.27156 2.23125 0
M  V30 11664 H 1126.45 -1.398 4.39081 0
M  V30 11665 H 1124.77 -1.41312 3.91688 0
M  V30 11666 H 1127.37 -4.14233 3.38105 0
M  V30 11667 H 1127.71 -3.79855 1.70341 0
M  V30 11668 H 1128.24 -2.65649 2.961 0
M  V30 11669 H 1124.98 -2.73404 5.9576 0
M  V30 11670 H 1124.5 -3.81445 4.62882 0
M  V30 11671 H 1126.18 -3.81827 5.22319 0
M  V30 11672 N 1126.31 -1.30234 -0.887518 0
M  V30 11673 C 1127.54 -1.21955 -1.67755 0
M  V30 11674 C 1127.96 0.214701 -1.86871 0
M  V30 11675 O 1127.32 1.15459 -1.39782 0
M  V30 11676 C 1127.37 -1.95079 -3.03276 0
M  V30 11677 O 1126.47 -1.27615 -3.92158 0
M  V30 11678 H 1125.81 -0.421948 -0.512695 0
M  V30 11679 H 1128.34 -1.72011 -1.10785 0
M  V30 11680 H 1128.35 -2.04004 -3.53336 0
M  V30 11681 H 1127.03 -2.99392 -2.88682 0
M  V30 11682 H 1125.61 -1.27029 -3.50597 0
M  V30 11683 N 1127.79 1.09952 -1.12909 0
M  V30 11684 C 1128.75 2.14615 -0.804548 0
M  V30 11685 C 1129.75 1.5975 0.18345 0
M  V30 11686 O 1130.94 1.74147 -0.0429623 0
M  V30 11687 C 1128.08 3.40333 -0.196471 0
M  V30 11688 H 1129.27 2.44835 -1.73193 0
M  V30 11689 H 1126.82 1.25399 -0.932997 0
M  V30 11690 H 1127.56 3.15735 0.740388 0
M  V30 11691 H 1127.34 3.81444 -0.907886 0
M  V30 11692 H 1128.83 4.17598 0.0139264 0
M  V30 11693 N 1129.27 0.921757 1.27833 0
M  V30 11694 C 1130.2 0.433466 2.29441 0
M  V30 11695 C 1131.18 -0.503133 1.62489 0
M  V30 11696 O 1132.36 -0.409156 1.89841 0
M  V30 11697 C 1129.49 -0.320029 3.45822 0
M  V30 11698 C 1128.45 0.528178 4.24728 0
M  V30 11699 C 1127.77 -0.354132 5.33526 0
M  V30 11700 C 1129.07 1.78959 4.90684 0
M  V30 11701 H 1130.77 1.28263 2.70535 0
M  V30 11702 H 1128.31 0.618197 1.30055 0
M  V30 11703 H 1130.27 -0.672526 4.15999 0
M  V30 11704 H 1128.99 -1.20317 3.0363 0
M  V30 11705 H 1127.65 0.863302 3.5629 0
M  V30 11706 H 1127.3 -1.23605 4.87576 0
M  V30 11707 H 1127 0.209855 5.87225 0
M  V30 11708 H 1128.52 -0.702333 6.06547 0
M  V30 11709 H 1129.94 1.50552 5.53179 0
M  V30 11710 H 1128.33 2.29661 5.54415 0
M  V30 11711 H 1129.4 2.51265 4.14721 0
M  V30 11712 N 1130.75 -1.41857 0.686609 0
M  V30 11713 C 1131.68 -2.33481 0.0298353 0
M  V30 11714 C 1132.66 -1.51329 -0.776756 0
M  V30 11715 O 1133.84 -1.79895 -0.731535 0
M  V30 11716 C 1130.97 -3.35065 -0.913707 0
M  V30 11717 C 1129.93 -4.2746 -0.214861 0
M  V30 11718 C 1129.25 -5.19346 -1.27215 0
M  V30 11719 C 1130.55 -5.14252 0.913367 0
M  V30 11720 H 1132.25 -2.8865 0.795067 0
M  V30 11721 H 1129.79 -1.38792 0.383785 0
M  V30 11722 H 1131.75 -3.98082 -1.38234 0
M  V30 11723 H 1130.47 -2.78226 -1.7105 0
M  V30 11724 H 1129.13 -3.65855 0.233651 0
M  V30 11725 H 1128.78 -4.58827 -2.06124 0
M  V30 11726 H 1128.48 -5.81996 -0.80961 0
M  V30 11727 H 1130 -5.85239 -1.74147 0
M  V30 11728 H 1131.41 -5.70887 0.525424 0
M  V30 11729 H 1129.81 -5.85796 1.30244 0
M  V30 11730 H 1130.88 -4.51949 1.75699 0
M  V30 11731 N 1132.22 -0.430739 -1.51599 0
M  V30 11732 C 1133.17 0.401828 -2.24431 0
M  V30 11733 C 1134.16 0.995588 -1.264 0
M  V30 11734 O 1135.35 0.914822 -1.51526 0
M  V30 11735 C 1132.48 1.5061 -3.08499 0
M  V30 11736 C 1131.57 0.922059 -4.13955 0
M  V30 11737 N 1131.96 0.0665912 -5.05756 0
M  V30 11738 C 1130.25 1.19034 -4.29822 0
M  V30 11739 C 1130.96 -0.260713 -5.81115 0
M  V30 11740 N 1129.93 0.353991 -5.42446 0
M  V30 11741 H 1133.73 -0.257813 -2.92767 0
M  V30 11742 H 1131.25 -0.242421 -1.6058 0
M  V30 11743 H 1133.24 2.11535 -3.59247 0
M  V30 11744 H 1131.9 2.16815 -2.41706 0
M  V30 11745 H 1132.92 -0.299356 -5.17034 0
M  V30 11746 H 1129.59 1.85036 -3.74256 0
M  V30 11747 H 1130.98 -0.956442 -6.65058 0
M  V30 11748 N 1133.7 1.56767 -0.161869 0
M  V30 11749 C 1134.63 2.1466 0.803356 0
M  V30 11750 C 1135.65 1.09977 1.20037 0
M  V30 11751 O 1136.84 1.37199 1.14187 0
M  V30 11752 C 1133.94 2.66663 2.09151 0
M  V30 11753 C 1133.11 3.95904 1.85953 0
M  V30 11754 C 1132.17 4.33067 2.98897 0
M  V30 11755 O 1131.19 5.01119 2.69942 0
M  V30 11756 N 1132.4 3.93856 4.26448 0
M  V30 11757 H 1135.16 2.98108 0.308472 0
M  V30 11758 H 1132.72 1.61886 0.0212238 0
M  V30 11759 H 1134.71 2.88528 2.83784 0
M  V30 11760 H 1133.28 1.87856 2.49857 0
M  V30 11761 H 1132.5 3.82513 0.952751 0
M  V30 11762 H 1133.79 4.8033 1.67811 0
M  V30 11763 H 1133.19 3.39051 4.52836 0
M  V30 11764 H 1131.75 4.20741 4.97815 0
M  V30 11765 N 1135.18 -0.111886 1.57202 0
M  V30 11766 C 1136.41 -0.832407 1.89416 0
M  V30 11767 C 1136.82 -1.73096 0.753861 0
M  V30 11768 O 1136.18 -1.80416 -0.274992 0
M  V30 11769 C 1136.23 -1.65988 3.21139 0
M  V30 11770 O 1135.95 -0.797485 4.3078 0
M  V30 11771 C 1137.45 -2.48493 3.67105 0
M  V30 11772 H 1134.67 -0.238919 0.627024 0
M  V30 11773 H 1137.22 -0.0941456 2.04283 0
M  V30 11774 H 1135.37 -2.35082 3.07921 0
M  V30 11775 H 1135.79 -1.36892 5.06321 0
M  V30 11776 H 1137.26 -3.02072 4.62014 0
M  V30 11777 H 1137.74 -3.26182 2.94112 0
M  V30 11778 H 1138.34 -1.84628 3.83135 0
M  V30 11779 N 1136.66 -1.52894 -0.382264 0
M  V30 11780 C 1137.91 -1.67933 -1.1244 0
M  V30 11781 C 1138.23 -0.425166 -1.90309 0
M  V30 11782 O 1137.5 0.560557 -1.87709 0
M  V30 11783 H 1136.08 -0.619047 -0.418079 0
M  V30 11784 H 1138.74 -1.90031 -0.432928 0
M  V30 11785 H 1137.84 -2.53285 -1.82355 0
M  V30 11786 N 1138.14 0.641106 -1.43971 0
M  V30 11787 C 1139.07 1.76489 -1.52885 0
M  V30 11788 C 1140.05 1.65742 -0.38258 0
M  V30 11789 O 1141.23 1.84653 -0.601397 0
M  V30 11790 C 1138.36 3.14977 -1.4631 0
M  V30 11791 C 1137.32 3.40502 -2.59311 0
M  V30 11792 C 1136.64 4.78916 -2.37789 0
M  V30 11793 C 1137.94 3.34048 -4.01509 0
M  V30 11794 H 1139.64 1.69286 -2.46946 0
M  V30 11795 H 1137.18 0.813015 -1.18853 0
M  V30 11796 H 1139.14 3.9336 -1.51149 0
M  V30 11797 H 1137.86 3.2294 -0.487599 0
M  V30 11798 H 1136.52 2.64495 -2.53846 0
M  V30 11799 H 1136.17 4.8357 -1.38454 0
M  V30 11800 H 1135.87 4.96954 -3.13545 0
M  V30 11801 H 1137.39 5.59541 -2.4443 0
M  V30 11802 H 1138.81 4.0235 -4.08396 0
M  V30 11803 H 1137.2 3.63622 -4.77388 0
M  V30 11804 H 1138.27 2.32022 -4.25786 0
M  V30 11805 N 1139.62 1.30703 0.880598 0
M  V30 11806 C 1140.58 1.17429 1.96832 0
M  V30 11807 C 1141.58 0.104305 1.60461 0
M  V30 11808 O 1142.77 0.352758 1.70591 0
M  V30 11809 C 1139.9 0.800099 3.31378 0
M  V30 11810 H 1141.09 2.14069 2.10034 0
M  V30 11811 H 1138.65 1.14162 1.06755 0
M  V30 11812 H 1139.38 -0.165606 3.23877 0
M  V30 11813 H 1139.17 1.57341 3.59146 0
M  V30 11814 H 1140.66 0.730826 4.11155 0
M  V30 11815 N 1141.09 -1.09351 1.1349 0
M  V30 11816 C 1142.33 -1.83156 0.907372 0
M  V30 11817 C 1142.7 -1.8376 -0.556441 0
M  V30 11818 O 1143.9 -2.5323 -0.90156 0
M  V30 11819 C 1142.17 -3.25315 1.48004 0
M  V30 11820 S 1143.73 -4.16113 1.39268 0
M  V30 11821 H 1140.55 -0.631319 0.327043 0
M  V30 11822 H 1143.15 -1.31509 1.44657 0
M  V30 11823 H 1141.85 -3.22452 2.53876 0
M  V30 11824 H 1141.38 -3.82034 0.938822 0
M  V30 11825 H 1143.4 -4.94806 0.371645 0
M  V30 11826 N 1142.57 -0.928524 -1.27343 0
M  V30 11827 C 1143.48 -0.433901 -2.30553 0
M  V30 11828 C 1144.5 0.485832 -1.6708 0
M  V30 11829 O 1145.67 0.36844 -1.98001 0
M  V30 11830 C 1142.74 0.304617 -3.45359 0
M  V30 11831 C 1141.8 -0.650131 -4.24349 0
M  V30 11832 C 1141.03 0.0532372 -5.33673 0
M  V30 11833 O 1141.26 1.27246 -5.56026 0
M  V30 11834 O 1140.19 -0.619009 -5.98709 0
M  V30 11835 H 1144.02 -1.2909 -2.74899 0
M  V30 11836 H 1141.6 -0.693903 -1.32308 0
M  V30 11837 H 1143.48 0.721137 -4.15184 0
M  V30 11838 H 1142.16 1.13721 -3.03066 0
M  V30 11839 H 1141.06 -1.11635 -3.57055 0
M  V30 11840 H 1142.4 -1.44996 -4.70358 0
M  V30 11841 N 1144.05 1.41491 -0.694123 0
M  V30 11842 C 1145.29 2.03117 -0.228614 0
M  V30 11843 C 1145.65 1.53782 1.14957 0
M  V30 11844 O 1146.85 2.07325 1.71084 0
M  V30 11845 C 1145.13 3.56283 -0.282341 0
M  V30 11846 S 1146.68 4.38664 0.109333 0
M  V30 11847 H 1143.5 0.704993 -0.092227 0
M  V30 11848 H 1146.1 1.72947 -0.911578 0
M  V30 11849 H 1144.81 3.89685 -1.2874 0
M  V30 11850 H 1144.34 3.91154 0.419818 0
M  V30 11851 H 1146.35 4.77835 1.33747 0
M  V30 11852 N 1145.53 0.438773 1.51369 0
M  V30 11853 C 1146.8 -0.18722 1.94702 0
M  V30 11854 C 1147.18 -1.59962 1.37752 0
M  V30 11855 O 1146.53 -2.214 0.565171 0
M  V30 11856 C 1146.74 -0.163491 3.48617 0
M  V30 11857 C 1148.09 -0.368355 4.22999 0
M  V30 11858 O 1149.11 -0.241541 3.5538 0
M  V30 11859 O 1147.97 -0.620916 5.42961 0
M  V30 11860 H 1145.07 -0.129194 0.816846 0
M  V30 11861 H 1147.61 0.496855 1.62263 0
M  V30 11862 H 1146.39 0.823882 3.82528 0
M  V30 11863 H 1146.01 -0.890414 3.87501 0
M  V30 11864 N 1147.01 -1.56678 0.170181 0
M  V30 11865 C 1148.42 -1.83452 -0.346742 0
M  V30 11866 C 1148.77 -1.08993 -1.63141 0
M  V30 11867 O 1147.89 -0.342607 -2.13671 0
M  V30 11868 C 1148.49 -3.32779 -0.635882 0
M  V30 11869 C 1147.05 -3.60052 -1.09725 0
M  V30 11870 C 1146.19 -2.76983 -0.132516 0
M  V30 11871 H 1149.14 -1.53719 0.394465 0
M  V30 11872 H 1149.17 -3.50195 -1.48806 0
M  V30 11873 H 1148.68 -3.86944 0.299291 0
M  V30 11874 H 1146.78 -3.11297 -2.04756 0
M  V30 11875 H 1146.89 -4.68393 -1.00719 0
M  V30 11876 H 1145.26 -2.46794 -0.62966 0
M  V30 11877 H 1146.04 -3.33929 0.796658 0
M  V30 11878 N 1148.48 0.103547 -1.57259 0
M  V30 11879 C 1149.42 1.15225 -1.98131 0
M  V30 11880 C 1150.43 1.36793 -0.882692 0
M  V30 11881 O 1151.62 1.35595 -1.16088 0
M  V30 11882 C 1148.72 2.50941 -2.27776 0
M  V30 11883 C 1147.89 2.49765 -3.59077 0
M  V30 11884 C 1146.95 3.67344 -3.76756 0
M  V30 11885 O 1145.98 3.50221 -4.48702 0
M  V30 11886 N 1147.18 4.86504 -3.16692 0
M  V30 11887 H 1149.94 0.804448 -2.88702 0
M  V30 11888 H 1147.5 0.292636 -1.59233 0
M  V30 11889 H 1149.5 3.28186 -2.36804 0
M  V30 11890 H 1148.07 2.77843 -1.43255 0
M  V30 11891 H 1147.29 1.58125 -3.61096 0
M  V30 11892 H 1148.57 2.4605 -4.4535 0
M  V30 11893 H 1147.97 5.03319 -2.58236 0
M  V30 11894 H 1146.53 5.61371 -3.31218 0
M  V30 11895 N 1149.96 1.53094 0.37415 0
M  V30 11896 C 1151.21 1.68527 1.11548 0
M  V30 11897 C 1151.53 0.435253 1.9008 0
M  V30 11898 O 1150.8 -0.550594 1.88003 0
M  V30 11899 H 1149.38 0.621255 0.41479 0
M  V30 11900 H 1152.04 1.90258 0.422844 0
M  V30 11901 H 1151.14 2.54248 1.81009 0
M  V30 11902 N 1151.44 -0.633461 1.44309 0
M  V30 11903 C 1152.66 -1.42527 1.50668 0
M  V30 11904 C 1153.09 -1.87637 0.131861 0
M  V30 11905 O 1152.45 -1.58595 -0.878477 0
M  V30 11906 C 1152.5 -2.62328 2.47419 0
M  V30 11907 O 1151.6 -3.62081 1.97411 0
M  V30 11908 H 1150.94 -0.426559 0.508864 0
M  V30 11909 H 1153.47 -0.773392 1.8942 0
M  V30 11910 H 1153.48 -3.09901 2.65378 0
M  V30 11911 H 1152.16 -2.2884 3.47283 0
M  V30 11912 H 1150.73 -3.21333 1.89208 0
M  V30 11913 N 1152.92 -1.31168 -0.873655 0
M  V30 11914 C 1153.85 -1.21094 -1.99646 0
M  V30 11915 C 1154.83 -0.0989684 -1.69812 0
M  V30 11916 O 1156.01 -0.282939 -1.92128 0
M  V30 11917 C 1153.14 -0.913684 -3.35066 0
M  V30 11918 C 1152.1 -1.98482 -3.79195 0
M  V30 11919 C 1151.42 -1.54033 -5.12033 0
M  V30 11920 C 1152.72 -3.39745 -3.96699 0
M  V30 11921 H 1154.42 -2.1503 -2.08333 0
M  V30 11922 H 1151.96 -1.03521 -1.00097 0
M  V30 11923 H 1153.92 -0.829821 -4.13149 0
M  V30 11924 H 1152.64 0.0613471 -3.26542 0
M  V30 11925 H 1151.3 -2.05851 -3.03349 0
M  V30 11926 H 1150.95 -0.553261 -4.99948 0
M  V30 11927 H 1150.65 -2.25688 -5.4253 0
M  V30 11928 H 1152.17 -1.47047 -5.92629 0
M  V30 11929 H 1153.59 -3.35071 -4.65188 0
M  V30 11930 H 1151.98 -4.09585 -4.38589 0
M  V30 11931 H 1153.05 -3.80802 -3.00196 0
M  V30 11932 N 1154.4 1.08748 -1.14068 0
M  V30 11933 C 1155.62 1.85353 -0.930532 0
M  V30 11934 C 1156.05 1.80892 0.515717 0
M  V30 11935 O 1155.4 1.19146 1.36652 0
M  V30 11936 C 1155.45 3.30962 -1.43167 0
M  V30 11937 O 1154.56 4.0769 -0.621468 0
M  V30 11938 H 1153.9 0.574485 -0.332962 0
M  V30 11939 H 1156.43 1.37282 -1.51707 0
M  V30 11940 H 1156.44 3.81807 -1.43832 0
M  V30 11941 H 1155.11 3.33524 -2.48464 0
M  V30 11942 H 1153.69 3.66587 -0.683267 0
M  V30 11943 N 1155.87 0.935264 1.26849 0
M  V30 11944 C 1157.1 0.595704 1.98661 0
M  V30 11945 C 1157.52 -0.821001 1.69237 0
M  V30 11946 O 1156.88 -1.55211 0.936982 0
M  V30 11947 C 1156.93 0.837275 3.50745 0
M  V30 11948 O 1156.03 -0.0934914 4.12294 0
M  V30 11949 H 1155.38 0.228512 0.623441 0
M  V30 11950 H 1157.91 1.25658 1.61466 0
M  V30 11951 H 1157.92 0.755827 4.00938 0
M  V30 11952 H 1156.59 1.86993 3.71492 0
M  V30 11953 H 1155.17 0.0385124 3.7288 0
M  V30 11954 N 1157.35 -1.41121 0.701616 0
M  V30 11955 C 1158.6 -2.01428 0.235495 0
M  V30 11956 C 1158.93 -1.55463 -1.16382 0
M  V30 11957 O 1158.21 -0.768477 -1.78675 0
M  V30 11958 C 1158.49 -3.58849 0.299919 0
M  V30 11959 C 1158.34 -4.14924 1.73661 0
M  V30 11960 C 1159.66 -4.38809 -0.336856 0
M  V30 11961 H 1156.78 -0.731842 0.0870456 0
M  V30 11962 H 1159.42 -1.67787 0.891479 0
M  V30 11963 H 1157.57 -3.87638 -0.258611 0
M  V30 11964 H 1159.24 -3.96987 2.34945 0
M  V30 11965 H 1157.49 -3.69738 2.26884 0
M  V30 11966 H 1158.16 -5.24085 1.73318 0
M  V30 11967 H 1160.63 -4.15868 0.138886 0
M  V30 11968 H 1159.51 -5.48278 -0.261264 0
M  V30 11969 H 1159.77 -4.18728 -1.41843 0
M  V30 11970 N 1158.83 -0.446794 -1.51134 0
M  V30 11971 C 1160.07 0.115546 -2.04073 0
M  V30 11972 C 1160.43 1.39137 -1.32306 0
M  V30 11973 O 1161.64 2.03455 -1.75668 0
M  V30 11974 C 1159.91 0.319657 -3.55968 0
M  V30 11975 S 1161.47 0.844045 -4.30606 0
M  V30 11976 H 1158.28 0.0274089 -0.710471 0
M  V30 11977 H 1160.89 -0.608368 -1.85793 0
M  V30 11978 H 1159.59 -0.615082 -4.05765 0
M  V30 11979 H 1159.12 1.07038 -3.78558 0
M  V30 11980 H 1161.14 2.12051 -4.48608 0
M  V30 11981 N 1160.31 1.56586 -0.178487 0
M  V30 11982 C 1161.59 1.88798 0.511356 0
M  V30 11983 C 1161.97 1.08949 1.80813 0
M  V30 11984 O 1161.31 0.185551 2.27745 0
M  V30 11985 C 1161.52 3.40927 0.746298 0
M  V30 11986 C 1162.87 4.10816 1.0731 0
M  V30 11987 O 1163.9 3.46285 0.834592 0
M  V30 11988 O 1162.75 5.24837 1.52343 0
M  V30 11989 H 1159.85 0.783574 0.264463 0
M  V30 11990 H 1162.39 1.68301 -0.21746 0
M  V30 11991 H 1161.17 3.9093 -0.17015 0
M  V30 11992 H 1160.79 3.67059 1.52817 0
M  V30 11993 N 1161.79 -0.095206 1.57312 0
M  V30 11994 C 1163.2 -0.649733 1.7503 0
M  V30 11995 C 1163.55 -1.7912 0.800652 0
M  V30 11996 O 1162.67 -2.1639 -0.0208831 0
M  V30 11997 C 1163.27 -1.18541 3.17386 0
M  V30 11998 C 1161.83 -1.686 3.36528 0
M  V30 11999 C 1160.97 -0.595531 2.7083 0
M  V30 12000 H 1163.93 0.130863 1.5816 0
M  V30 12001 H 1163.95 -2.05473 3.20252 0
M  V30 12002 H 1163.46 -0.35441 3.86478 0
M  V30 12003 H 1161.56 -2.541 2.72514 0
M  V30 12004 H 1161.67 -1.77907 4.44844 0
M  V30 12005 H 1160.04 -1.03495 2.32725 0
M  V30 12006 H 1160.82 0.224883 3.42563 0
M  V30 12007 N 1163.26 -1.53291 -0.366026 0
M  V30 12008 C 1164.21 -1.80367 -1.4687 0
M  V30 12009 C 1165.21 -0.672767 -1.55468 0
M  V30 12010 O 1166.41 -0.8557 -1.5836 0
M  V30 12011 H 1162.79 -0.571076 -0.48926 0
M  V30 12012 H 1164.76 -2.72661 -1.21237 0
M  V30 12013 C 1163.51 -2.01008 -2.8371 0
M  V30 12014 H 1162.83 -2.87468 -2.77853 0
M  V30 12015 H 1164.27 -2.2393 -3.60043 0
M  V30 12016 C 1162.73 -0.789054 -3.27529 0
M  V30 12017 O 1163.26 0.0224712 -4.01694 0
M  V30 12018 N 1161.47 -0.612621 -2.84069 0
M  V30 12019 H 1161.01 -1.27416 -2.23881 0
M  V30 12020 H 1160.97 0.202943 -3.13744 0
M  V30 12021 N 1164.74 0.6258 -1.44643 0
M  V30 12022 C 1165.99 1.38251 -1.47414 0
M  V30 12023 C 1166.31 1.94689 -0.110043 0
M  V30 12024 O 1165.58 1.76095 0.858333 0
M  V30 12025 H 1164.16 0.513179 -0.542823 0
M  V30 12026 H 1166.82 0.736179 -1.80462 0
M  V30 12027 H 1165.92 2.21115 -2.2026 0
M  V30 12028 N 1166.22 1.31629 0.866686 0
M  V30 12029 C 1167.47 1.21263 1.61678 0
M  V30 12030 C 1167.79 -0.228562 1.93656 0
M  V30 12031 O 1167.06 -1.15014 1.58583 0
M  V30 12032 H 1165.64 0.445817 0.59938 0
M  V30 12033 H 1168.3 1.64998 1.03739 0
M  V30 12034 H 1167.4 1.78669 2.55898 0
M  V30 12035 N 1167.7 -1.08142 1.14644 0
M  V30 12036 C 1168.63 -2.15022 0.793614 0
M  V30 12037 C 1169.64 -1.61679 -0.190729 0
M  V30 12038 O 1170.83 -1.78472 0.0313696 0
M  V30 12039 C 1167.93 -3.38532 0.157785 0
M  V30 12040 C 1167.11 -4.21252 1.17753 0
M  V30 12041 C 1166.17 -5.23158 0.564968 0
M  V30 12042 O 1165.19 -5.5578 1.22869 0
M  V30 12043 N 1166.39 -5.7677 -0.657022 0
M  V30 12044 H 1169.16 -2.45893 1.71338 0
M  V30 12045 H 1166.72 -1.23976 1.04122 0
M  V30 12046 H 1168.71 -4.03834 -0.264586 0
M  V30 12047 H 1167.28 -3.05441 -0.665168 0
M  V30 12048 H 1166.5 -3.51888 1.77675 0
M  V30 12049 H 1167.79 -4.73335 1.86632 0
M  V30 12050 H 1167.19 -5.52503 -1.21478 0
M  V30 12051 H 1165.74 -6.4374 -1.02186 0
M  V30 12052 N 1169.18 -0.941978 -1.26351 0
M  V30 12053 C 1170.42 -0.597462 -1.95473 0
M  V30 12054 C 1170.78 0.847851 -1.72266 0
M  V30 12055 O 1171.98 1.30134 -2.35199 0
M  V30 12056 C 1170.25 -0.931342 -3.45052 0
M  V30 12057 S 1171.81 -0.697491 -4.33221 0
M  V30 12058 H 1168.63 -0.22003 -0.676097 0
M  V30 12059 H 1171.23 -1.21346 -1.53282 0
M  V30 12060 H 1169.94 -1.98063 -3.59443 0
M  V30 12061 H 1169.47 -0.305095 -3.92215 0
M  V30 12062 H 1171.48 0.437915 -4.94264 0
M  V30 12063 N 1170.66 1.40747 -0.709091 0
M  V30 12064 C 1171.59 2.29196 -0.0130359 0
M  V30 12065 C 1172.6 1.45491 0.730487 0
M  V30 12066 O 1173.79 1.6885 0.578944 0
M  V30 12067 C 1170.89 3.23632 1.00577 0
M  V30 12068 C 1170.06 4.3616 0.329105 0
M  V30 12069 C 1169.12 5.11079 1.25239 0
M  V30 12070 O 1168.15 5.64374 0.739641 0
M  V30 12071 N 1169.35 5.1982 2.58394 0
M  V30 12072 H 1172.11 2.89574 -0.772462 0
M  V30 12073 H 1169.68 1.52046 -0.556197 0
M  V30 12074 H 1171.67 3.70622 1.62546 0
M  V30 12075 H 1170.24 2.64467 1.66661 0
M  V30 12076 H 1169.46 3.9138 -0.470683 0
M  V30 12077 H 1170.75 5.08605 -0.140856 0
M  V30 12078 H 1170.14 4.77992 3.02556 0
M  V30 12079 H 1168.7 5.7034 3.15524 0
M  V30 12080 N 1172.13 0.454803 1.50895 0
M  V30 12081 C 1173.37 -0.104722 2.04132 0
M  V30 12082 C 1173.74 -1.38434 1.33042 0
M  V30 12083 O 1174.94 -2.02521 1.76745 0
M  V30 12084 C 1173.21 -0.300775 3.56132 0
M  V30 12085 S 1174.77 -0.821197 4.31047 0
M  V30 12086 H 1171.59 -0.0236407 0.710607 0
M  V30 12087 H 1174.19 0.618213 1.85468 0
M  V30 12088 H 1172.89 0.636592 4.05433 0
M  V30 12089 H 1172.42 -1.05029 3.79121 0
M  V30 12090 H 1174.44 -2.09669 4.49726 0
M  V30 12091 N 1173.61 -1.56489 0.186789 0
M  V30 12092 C 1175.03 -1.58701 -0.169176 0
M  V30 12093 C 1175.23 -1.2027 -1.61671 0
M  V30 12094 O 1174.28 -0.92154 -2.35083 0
M  V30 12095 C 1175.6 -3.00437 0.125657 0
M  V30 12096 C 1177.14 -3.12932 0.0651 0
M  V30 12097 C 1177.62 -4.56787 0.333131 0
M  V30 12098 N 1179.11 -4.62344 0.281453 0
M  V30 12099 C 1179.85 -5.71529 0.462805 0
M  V30 12100 N 1179.34 -6.89213 0.704054 0
M  V30 12101 N 1181.13 -5.60692 0.397636 0
M  V30 12102 H 1173.29 -1.79754 1.13148 0
M  V30 12103 H 1175.55 -0.83385 0.450997 0
M  V30 12104 H 1175.25 -3.33086 1.12901 0
M  V30 12105 H 1175.13 -3.72782 -0.575612 0
M  V30 12106 H 1177.52 -2.80101 -0.928845 0
M  V30 12107 H 1177.6 -2.42991 0.799318 0
M  V30 12108 H 1177.24 -4.9033 1.32436 0
M  V30 12109 H 1177.17 -5.24907 -0.421879 0
M  V30 12110 H 1179.66 -3.77764 0.101266 0
M  V30 12111 H 1179.97 -7.68314 0.831468 0
M  V30 12112 H 1178.32 -6.9104 0.740851 0
M  V30 12113 H 1181.51 -4.6763 0.20964 0
M  V30 12114 H 1181.68 -6.45726 0.54239 0
M  V30 12115 N 1175.09 0.086862 -1.5736 0
M  V30 12116 C 1176.5 0.640442 -1.75372 0
M  V30 12117 C 1176.85 1.78693 -0.81014 0
M  V30 12118 O 1175.98 2.16398 0.00940712 0
M  V30 12119 C 1176.57 1.16856 -3.1801 0
M  V30 12120 C 1175.13 1.66813 -3.37417 0
M  V30 12121 C 1174.28 0.58116 -2.71142 0
M  V30 12122 H 1177.23 -0.139249 -1.58088 0
M  V30 12123 H 1177.25 2.03772 -3.21337 0
M  V30 12124 H 1176.76 0.333909 -3.86661 0
M  V30 12125 H 1174.86 2.52652 -2.73858 0
M  V30 12126 H 1174.98 1.75545 -4.45781 0
M  V30 12127 H 1173.34 1.0226 -2.3327 0
M  V30 12128 H 1174.12 -0.243047 -3.42439 0
M  V30 12129 N 1176.57 1.53483 0.357892 0
M  V30 12130 C 1177.52 1.81143 1.45911 0
M  V30 12131 C 1178.51 0.681002 1.55109 0
M  V30 12132 O 1179.72 0.864086 1.57904 0
M  V30 12133 H 1176.09 0.573663 0.486225 0
M  V30 12134 H 1178.06 2.733 1.19789 0
M  V30 12135 C 1176.81 2.02509 2.8264 0
M  V30 12136 H 1176.13 2.88938 2.76324 0
M  V30 12137 H 1177.57 2.25837 3.58851 0
M  V30 12138 C 1176.03 0.806412 3.27106 0
M  V30 12139 O 1176.56 -0.00116809 4.017 0
M  V30 12140 N 1174.77 0.627677 2.8374 0
M  V30 12141 H 1174.32 1.28601 2.23203 0
M  V30 12142 H 1174.27 -0.186301 3.13848 0
M  V30 12143 N 1178.05 -0.61812 1.44973 0
M  V30 12144 C 1179.29 -1.37944 1.48658 0
M  V30 12145 C 1179.62 -1.93805 0.123749 0
M  V30 12146 O 1178.9 -1.74434 -0.860401 0
M  V30 12147 C 1179.18 -2.53515 2.55739 0
M  V30 12148 C 1179.04 -2.02918 4.01428 0
M  V30 12149 C 1180.35 -3.55674 2.59199 0
M  V30 12150 H 1177.47 -0.500223 0.541244 0
M  V30 12151 H 1180.12 -0.69774 1.76725 0
M  V30 12152 H 1178.27 -3.11669 2.31937 0
M  V30 12153 H 1179.94 -1.49494 4.36405 0
M  V30 12154 H 1178.18 -1.33999 4.12586 0
M  V30 12155 H 1178.85 -2.86181 4.72021 0
M  V30 12156 H 1181.33 -3.07343 2.80499 0
M  V30 12157 H 1180.2 -4.34042 3.36004 0
M  V30 12158 H 1180.46 -4.10601 1.63888 0
M  V30 12159 N 1179.52 -1.32087 -0.859693 0
M  V30 12160 C 1180.77 -1.22542 -1.6159 0
M  V30 12161 C 1181.1 0.213533 -1.93022 0
M  V30 12162 O 1180.38 1.14931 -1.56911 0
M  V30 12163 C 1180.66 -2.08004 -2.93949 0
M  V30 12164 C 1180.51 -3.60252 -2.6933 0
M  V30 12165 C 1181.83 -1.93732 -3.95166 0
M  V30 12166 H 1178.95 -0.446504 -0.586347 0
M  V30 12167 H 1181.59 -1.61982 -0.993064 0
M  V30 12168 H 1179.74 -1.74498 -3.47106 0
M  V30 12169 H 1181.42 -4.03947 -2.22766 0
M  V30 12170 H 1179.66 -3.83169 -2.03382 0
M  V30 12171 H 1180.33 -4.1537 -3.63555 0
M  V30 12172 H 1182.81 -2.23075 -3.5125 0
M  V30 12173 H 1181.68 -2.55815 -4.85644 0
M  V30 12174 H 1181.94 -0.903528 -4.32769 0
M  V30 12175 N 1181 1.07532 -1.15215 0
M  V30 12176 C 1182.25 1.79737 -0.924062 0
M  V30 12177 C 1182.57 1.87072 0.550356 0
M  V30 12178 O 1181.84 1.37029 1.4 0
M  V30 12179 H 1180.42 0.665704 -0.338891 0
M  V30 12180 H 1183.08 1.29961 -1.45245 0
M  V30 12181 H 1182.18 2.82256 -1.33184 0
M  V30 12182 N 1182.48 0.948665 1.2585 0
M  V30 12183 C 1183.9 0.652147 1.45668 0
M  V30 12184 C 1184.1 -0.792217 1.85273 0
M  V30 12185 O 1183.15 -1.56812 1.97905 0
M  V30 12186 C 1184.47 1.61998 2.53332 0
M  V30 12187 C 1186.01 1.6305 2.67178 0
M  V30 12188 C 1186.49 2.58582 3.78021 0
M  V30 12189 N 1187.98 2.56911 3.85423 0
M  V30 12190 C 1188.71 3.27511 4.70664 0
M  V30 12191 N 1188.21 4.07563 5.60236 0
M  V30 12192 N 1190 3.16427 4.64576 0
M  V30 12193 H 1182.15 1.88215 0.984325 0
M  V30 12194 H 1184.42 0.809251 0.493778 0
M  V30 12195 H 1184.12 2.65137 2.31075 0
M  V30 12196 H 1184 1.37784 3.51134 0
M  V30 12197 H 1186.38 0.606315 2.88804 0
M  V30 12198 H 1186.47 1.9132 1.69795 0
M  V30 12199 H 1186.11 3.61122 3.57146 0
M  V30 12200 H 1186.04 2.27598 4.74875 0
M  V30 12201 H 1188.53 1.9879 3.21389 0
M  V30 12202 H 1188.84 4.58367 6.22189 0
M  V30 12203 H 1187.19 4.11662 5.59964 0
M  V30 12204 H 1190.38 2.53364 3.93604 0
M  V30 12205 H 1190.55 3.71714 5.30785 0
M  V30 12206 N 1183.96 -1.40369 0.716545 0
M  V30 12207 C 1185.19 -2.05181 0.266143 0
M  V30 12208 C 1185.6 -1.53988 -1.09239 0
M  V30 12209 O 1184.96 -0.696859 -1.68672 0
M  V30 12210 C 1185.01 -3.60713 0.238384 0
M  V30 12211 O 1184.73 -4.10018 1.54328 0
M  V30 12212 C 1186.23 -4.42701 -0.230453 0
M  V30 12213 H 1183.45 -0.66028 0.119463 0
M  V30 12214 H 1186 -1.7976 0.97502 0
M  V30 12215 H 1184.15 -3.85101 -0.421466 0
M  V30 12216 H 1184.56 -5.0422 1.4444 0
M  V30 12217 H 1186.04 -5.51642 -0.198728 0
M  V30 12218 H 1186.52 -4.20354 -1.27276 0
M  V30 12219 H 1187.12 -4.23423 0.399155 0
M  V30 12220 N 1185.44 -0.462799 -1.50652 0
M  V30 12221 C 1186.68 0.0938945 -2.04184 0
M  V30 12222 C 1187.04 1.37726 -1.33774 0
M  V30 12223 O 1188.24 2.01581 -1.77817 0
M  V30 12224 C 1186.51 0.281884 -3.56287 0
M  V30 12225 S 1188.07 0.798326 -4.31477 0
M  V30 12226 H 1184.89 0.0198719 -0.710722 0
M  V30 12227 H 1187.49 -0.62804 -1.85138 0
M  V30 12228 H 1186.2 -0.658084 -4.05089 0
M  V30 12229 H 1185.73 1.03017 -3.79672 0
M  V30 12230 H 1187.74 2.07281 -4.50832 0
M  V30 12231 N 1186.91 1.56388 -0.195085 0
M  V30 12232 C 1187.86 2.20431 0.742484 0
M  V30 12233 C 1188.86 1.17548 1.21979 0
M  V30 12234 O 1190.06 1.35693 1.18269 0
M  V30 12235 H 1186.44 0.706435 0.257786 0
M  V30 12236 H 1188.41 2.97865 0.178624 0
M  V30 12237 C 1187.16 2.87772 1.95147 0
M  V30 12238 H 1186.48 3.66681 1.59326 0
M  V30 12239 H 1187.92 3.36021 2.58585 0
M  V30 12240 C 1186.38 1.88807 2.79022 0
M  V30 12241 O 1186.91 1.38836 3.76945 0
M  V30 12242 N 1185.12 1.57037 2.44515 0
M  V30 12243 H 1184.66 1.97868 1.64943 0
M  V30 12244 H 1184.62 0.910776 3.00919 0
M  V30 12245 N 1188.39 -0.0785156 1.57404 0
M  V30 12246 C 1189.81 -0.433143 1.5361 0
M  V30 12247 C 1190.01 -1.79564 0.914283 0
M  V30 12248 O 1189.06 -2.47215 0.513899 0
M  V30 12249 C 1190.38 -0.380387 2.98284 0
M  V30 12250 C 1191.93 -0.461056 3.09586 0
M  V30 12251 C 1192.4 -0.438276 4.55898 0
M  V30 12252 N 1193.89 -0.498548 4.60509 0
M  V30 12253 C 1194.63 -0.503028 5.71189 0
M  V30 12254 N 1194.12 -0.462724 6.91253 0
M  V30 12255 N 1195.92 -0.549083 5.59412 0
M  V30 12256 H 1188.07 0.813724 1.96195 0
M  V30 12257 H 1190.33 0.304644 0.897717 0
M  V30 12258 H 1190.04 0.553932 3.4731 0
M  V30 12259 H 1189.91 -1.19313 3.57833 0
M  V30 12260 H 1192.3 -1.3858 2.60537 0
M  V30 12261 H 1192.38 0.380138 2.5296 0
M  V30 12262 H 1192.02 0.482588 5.05602 0
M  V30 12263 H 1191.95 -1.29691 5.1038 0
M  V30 12264 H 1194.44 -0.534219 3.74105 0
M  V30 12265 H 1194.76 -0.469883 7.7137 0
M  V30 12266 H 1193.1 -0.429515 6.93672 0
M  V30 12267 H 1196.29 -0.578215 4.64515 0
M  V30 12268 H 1196.46 -0.549105 6.45669 0
M  V30 12269 N 1189.87 -1.5367 -0.349747 0
M  V30 12270 C 1191.11 -1.72329 -1.09919 0
M  V30 12271 C 1191.47 -0.473178 -1.86078 0
M  V30 12272 O 1192.68 -0.53669 -2.63388 0
M  V30 12273 C 1190.95 -2.94817 -2.02034 0
M  V30 12274 S 1192.51 -3.34257 -2.84285 0
M  V30 12275 H 1189.32 -0.606225 -0.3715 0
M  V30 12276 H 1191.93 -1.91803 -0.378399 0
M  V30 12277 H 1190.63 -3.83979 -1.44874 0
M  V30 12278 H 1190.16 -2.7779 -2.78561 0
M  V30 12279 H 1192.18 -2.87506 -4.04419 0
M  V30 12280 N 1191.35 0.610423 -1.45298 0
M  V30 12281 C 1192.31 1.70324 -1.5337 0
M  V30 12282 C 1193.31 1.55393 -0.413492 0
M  V30 12283 O 1194.5 1.60512 -0.676872 0
M  V30 12284 C 1191.63 3.09572 -1.42752 0
M  V30 12285 H 1192.83 1.64535 -2.50736 0
M  V30 12286 H 1190.38 0.825906 -1.32697 0
M  V30 12287 H 1191.11 3.2094 -0.465601 0
M  V30 12288 H 1190.9 3.21817 -2.24 0
M  V30 12289 H 1192.39 3.89178 -1.51427 0
M  V30 12290 N 1192.83 1.32541 0.852676 0
M  V30 12291 C 1194.24 1.20863 1.42299 0
M  V30 12292 C 1194.59 -0.178051 1.9539 0
M  V30 12293 O 1193.71 -1.07689 1.87702 0
M  V30 12294 C 1194.31 2.18811 2.58664 0
M  V30 12295 C 1192.87 2.11015 3.11689 0
M  V30 12296 C 1192.01 2.07067 1.84441 0
M  V30 12297 H 1194.97 1.44341 0.659657 0
M  V30 12298 H 1194.99 1.78779 3.35884 0
M  V30 12299 H 1194.5 3.19726 2.19993 0
M  V30 12300 H 1192.6 1.13354 3.54939 0
M  V30 12301 H 1192.71 3.00929 3.72799 0
M  V30 12302 H 1191.08 1.52335 2.04123 0
M  V30 12303 H 1191.86 3.09767 1.47984 0
M  V30 12304 N 1194.3 -1.0692 1.15784 0
M  V30 12305 C 1195.55 -1.79245 0.933581 0
M  V30 12306 C 1195.87 -1.87362 -0.540427 0
M  V30 12307 O 1195.14 -1.37769 -1.39271 0
M  V30 12308 H 1193.72 -0.663898 0.342416 0
M  V30 12309 H 1196.39 -1.29189 1.45932 0
M  V30 12310 H 1195.48 -2.81546 1.34679 0
M  V30 12311 N 1195.78 -0.955326 -1.25345 0
M  V30 12312 C 1197.01 -0.627693 -1.97149 0
M  V30 12313 C 1197.43 0.800349 -1.70997 0
M  V30 12314 O 1196.78 1.53545 -0.986417 0
M  V30 12315 C 1196.83 -0.877675 -3.50684 0
M  V30 12316 O 1196.55 -2.24957 -3.75934 0
M  V30 12317 C 1198.06 -0.562524 -4.39716 0
M  V30 12318 H 1195.28 -0.235269 -0.628402 0
M  V30 12319 H 1197.82 -1.27989 -1.59496 0
M  V30 12320 H 1195.97 -0.271878 -3.86445 0
M  V30 12321 H 1196.39 -2.32022 -4.70389 0
M  V30 12322 H 1197.86 -0.787972 -5.46347 0
M  V30 12323 H 1198.34 0.50293 -4.36311 0
M  V30 12324 H 1198.95 -1.14767 -4.09522 0
M  V30 12325 N 1197.26 1.39987 -0.723979 0
M  V30 12326 C 1198.51 2.00731 -0.267115 0
M  V30 12327 C 1198.84 1.57424 1.14228 0
M  V30 12328 O 1198.09 0.789205 1.79081 0
M  V30 12329 C 1198.39 3.56101 -0.304472 0
M  V30 12330 C 1198.06 4.1902 -1.66533 0
M  V30 12331 C 1196.72 4.3592 -2.03783 0
M  V30 12332 C 1199.07 4.54034 -2.55935 0
M  V30 12333 C 1196.4 4.85119 -3.29964 0
M  V30 12334 C 1198.75 5.04637 -3.81477 0
M  V30 12335 C 1197.41 5.19745 -4.18833 0
M  V30 12336 H 1196.68 0.734525 -0.0977442 0
M  V30 12337 H 1199.33 1.67476 -0.928659 0
M  V30 12338 H 1197.64 3.89314 0.440647 0
M  V30 12339 H 1199.33 4.00944 0.0669875 0
M  V30 12340 H 1195.92 4.0626 -1.36569 0
M  V30 12341 H 1200.11 4.40606 -2.2843 0
M  V30 12342 H 1195.36 4.95001 -3.58865 0
M  V30 12343 H 1199.54 5.30705 -4.50916 0
M  V30 12344 H 1197.16 5.5763 -5.16675 0
M  V30 12345 N 1198.74 0.470782 1.50404 0
M  V30 12346 C 1199.99 -0.0841494 2.01925 0
M  V30 12347 C 1200.31 -1.40244 1.35487 0
M  V30 12348 O 1199.58 -1.89409 0.500111 0
M  V30 12349 H 1198.16 -0.0340884 0.746222 0
M  V30 12350 H 1200.82 0.621133 1.84738 0
M  V30 12351 H 1199.92 -0.235877 3.11207 0
M  V30 12352 N 1200.22 -1.56282 0.203376 0
M  V30 12353 C 1201.46 -1.97812 -0.433202 0
M  V30 12354 C 1201.79 -1.09052 -1.61053 0
M  V30 12355 O 1201.05 -0.131417 -1.95258 0
M  V30 12356 C 1201.35 -3.45148 -0.927759 0
M  V30 12357 C 1201.01 -4.50692 0.137083 0
M  V30 12358 C 1199.67 -4.79278 0.429652 0
M  V30 12359 C 1202.03 -5.14086 0.858174 0
M  V30 12360 C 1199.35 -5.68547 1.44815 0
M  V30 12361 C 1201.71 -6.04457 1.86588 0
M  V30 12362 C 1200.37 -6.31395 2.16556 0
M  V30 12363 H 1199.64 -0.723846 -0.15852 0
M  V30 12364 H 1202.29 -1.89102 0.302082 0
M  V30 12365 H 1200.59 -3.5097 -1.74147 0
M  V30 12366 H 1202.29 -3.74642 -1.42984 0
M  V30 12367 H 1198.88 -4.28481 -0.101111 0
M  V30 12368 H 1203.06 -4.92086 0.645376 0
M  V30 12369 H 1198.32 -5.87689 1.68615 0
M  V30 12370 H 1202.49 -6.52636 2.4298 0
M  V30 12371 H 1200.12 -7.00366 2.9562 0
M  V30 12372 N 1201.7 0.070167 -1.57444 0
M  V30 12373 C 1202.94 0.767495 -1.8696 0
M  V30 12374 C 1203.26 1.78032 -0.795595 0
M  V30 12375 O 1202.53 1.95112 0.175566 0
M  V30 12376 H 1201.11 0.286443 -0.689898 0
M  V30 12377 H 1203.78 0.0458692 -1.94846 0
M  V30 12378 H 1202.87 1.28269 -2.84523 0
M  V30 12379 N 1203.17 1.53854 0.341593 0
M  V30 12380 C 1204.58 1.62623 0.917093 0
M  V30 12381 C 1204.94 0.508781 1.89488 0
M  V30 12382 O 1204.06 -0.361171 2.13365 0
M  V30 12383 C 1204.66 2.94775 1.67012 0
M  V30 12384 C 1203.21 3.058 2.19461 0
M  V30 12385 C 1202.36 2.58082 1.01433 0
M  V30 12386 H 1205.31 1.58248 0.119674 0
M  V30 12387 H 1205.33 2.83924 2.53313 0
M  V30 12388 H 1204.85 3.76085 0.958221 0
M  V30 12389 H 1202.95 2.29128 2.93821 0
M  V30 12390 H 1203.06 4.11302 2.45698 0
M  V30 12391 H 1201.42 2.13537 1.38831 0
M  V30 12392 H 1202.21 3.41833 0.317033 0
M  V30 12393 N 1204.65 -0.602709 1.4562 0
M  V30 12394 C 1205.88 -1.39299 1.53657 0
M  V30 12395 C 1206.3 -1.87315 0.171632 0
M  V30 12396 O 1205.66 -1.60423 -0.844639 0
M  V30 12397 C 1205.71 -2.57021 2.52928 0
M  V30 12398 O 1204.81 -3.57812 2.05047 0
M  V30 12399 H 1204.15 -0.41567 0.517798 0
M  V30 12400 H 1206.68 -0.73304 1.91018 0
M  V30 12401 H 1206.69 -3.04202 2.71892 0
M  V30 12402 H 1205.37 -2.21422 3.52058 0
M  V30 12403 H 1203.94 -3.17247 1.95981 0
M  V30 12404 N 1206.13 -1.32992 -0.845635 0
M  V30 12405 C 1207.38 -1.2382 -1.59728 0
M  V30 12406 C 1207.7 0.197724 -1.93995 0
M  V30 12407 O 1206.97 1.12477 -1.60392 0
M  V30 12408 H 1205.55 -0.455296 -0.592212 0
M  V30 12409 H 1208.21 -1.66627 -1.01101 0
M  V30 12410 H 1207.31 -1.82717 -2.53023 0
M  V30 12411 N 1207.61 1.06304 -1.1635 0
M  V30 12412 C 1208.85 1.80686 -0.955614 0
M  V30 12413 C 1209.21 1.85171 0.507525 0
M  V30 12414 O 1210.41 2.55531 0.834103 0
M  V30 12415 C 1208.68 3.21276 -1.56577 0
M  V30 12416 S 1210.24 4.12274 -1.50251 0
M  V30 12417 H 1207.06 0.622426 -0.343666 0
M  V30 12418 H 1209.66 1.27628 -1.48092 0
M  V30 12419 H 1208.37 3.15607 -2.62336 0
M  V30 12420 H 1207.9 3.7941 -1.03978 0
M  V30 12421 H 1209.91 4.93647 -0.502703 0
M  V30 12422 N 1209.09 0.96196 1.24836 0
M  V30 12423 C 1210.03 0.48686 2.25607 0
M  V30 12424 C 1211 -0.464546 1.59472 0
M  V30 12425 O 1212.19 -0.376179 1.87055 0
M  V30 12426 C 1209.33 -0.222294 3.44383 0
M  V30 12427 C 1208.44 0.767206 4.25133 0
M  V30 12428 C 1207.58 0.0347458 5.31189 0
M  V30 12429 C 1206.61 1.01469 6.03631 0
M  V30 12430 N 1205.75 0.312619 7.01404 0
M  V30 12431 H 1210.59 1.35104 2.65614 0
M  V30 12432 H 1208.13 0.677373 1.30576 0
M  V30 12433 H 1210.09 -0.650087 4.12104 0
M  V30 12434 H 1208.72 -1.05047 3.0523 0
M  V30 12435 H 1207.77 1.31346 3.57005 0
M  V30 12436 H 1209.08 1.5147 4.75245 0
M  V30 12437 H 1208.23 -0.451325 6.05019 0
M  V30 12438 H 1206.97 -0.745485 4.81969 0
M  V30 12439 H 1205.98 1.51169 5.28609 0
M  V30 12440 H 1207.2 1.79527 6.5494 0
M  V30 12441 H 1205.15 -0.44874 6.54463 0
M  V30 12442 H 1205.07 0.999079 7.49369 0
M  V30 12443 H 1206.33 -0.151673 7.79352 0
M  V30 12444 N 1210.56 -1.39601 0.731392 0
M  V30 12445 C 1211.97 -1.83424 0.348194 0
M  V30 12446 C 1212.33 -1.61106 -1.11979 0
M  V30 12447 O 1211.45 -1.1003 -1.86339 0
M  V30 12448 C 1212.05 -3.32982 0.6252 0
M  V30 12449 C 1210.6 -3.75238 0.295536 0
M  V30 12450 C 1209.75 -2.62642 0.88964 0
M  V30 12451 H 1212.7 -1.28644 0.929318 0
M  V30 12452 H 1212.72 -3.80357 -0.104254 0
M  V30 12453 H 1212.24 -3.49193 1.69368 0
M  V30 12454 H 1210.34 -3.64615 -0.767254 0
M  V30 12455 H 1210.45 -4.72781 0.775576 0
M  V30 12456 H 1208.81 -2.52726 0.316529 0
M  V30 12457 H 1209.6 -2.81661 1.96271 0
M  V30 12458 N 1212.04 -0.478751 -1.50152 0
M  V30 12459 C 1213.28 0.0722328 -2.04272 0
M  V30 12460 C 1213.65 1.36299 -1.35227 0
M  V30 12461 O 1214.85 1.99683 -1.79945 0
M  V30 12462 C 1213.12 0.24408 -3.56566 0
M  V30 12463 S 1214.68 0.752517 -4.32299 0
M  V30 12464 H 1211.5 0.0123326 -0.710893 0
M  V30 12465 H 1214.1 -0.647641 -1.84461 0
M  V30 12466 H 1212.8 -0.701012 -4.04369 0
M  V30 12467 H 1212.33 0.989845 -3.80744 0
M  V30 12468 H 1214.35 2.02488 -4.53005 0
M  V30 12469 N 1213.52 1.56172 -0.211661 0
M  V30 12470 C 1214.43 2.23468 0.714081 0
M  V30 12471 C 1215.45 1.23908 1.22159 0
M  V30 12472 O 1216.62 1.56693 1.26528 0
M  V30 12473 C 1213.69 2.89375 1.90953 0
M  V30 12474 C 1212.75 4.04251 1.44497 0
M  V30 12475 C 1211.98 4.67006 2.58343 0
M  V30 12476 O 1212.2 4.28721 3.76237 0
M  V30 12477 O 1211.14 5.56177 2.3011 0
M  V30 12478 H 1214.96 3.03219 0.170862 0
M  V30 12479 H 1212.55 1.49389 0.0183607 0
M  V30 12480 H 1214.43 3.3101 2.60787 0
M  V30 12481 H 1213.11 2.12591 2.44104 0
M  V30 12482 H 1212.01 3.67205 0.714932 0
M  V30 12483 H 1213.35 4.82748 0.959947 0
M  V30 12484 N 1215 -0.0618163 1.57479 0
M  V30 12485 C 1216.24 -0.764296 1.89573 0
M  V30 12486 C 1216.6 -1.74235 0.806605 0
M  V30 12487 O 1217.8 -2.49067 1.0109 0
M  V30 12488 C 1216.07 -1.44503 3.26885 0
M  V30 12489 S 1217.63 -2.1812 3.80748 0
M  V30 12490 H 1214.45 -0.253946 0.664103 0
M  V30 12491 H 1217.05 -0.0200064 1.9549 0
M  V30 12492 H 1215.76 -0.719525 4.04043 0
M  V30 12493 H 1215.29 -2.22855 3.2419 0
M  V30 12494 H 1217.3 -3.44793 3.56837 0
M  V30 12495 N 1216.48 -1.54033 -0.333429 0
M  V30 12496 C 1217.43 -1.7911 -1.4108 0
M  V30 12497 C 1218.41 -0.646699 -1.47332 0
M  V30 12498 O 1219.6 -0.906403 -1.52031 0
M  V30 12499 C 1216.73 -2.01314 -2.78078 0
M  V30 12500 C 1215.82 -3.21849 -2.76178 0
M  V30 12501 N 1216.21 -4.43109 -2.43903 0
M  V30 12502 C 1214.51 -3.23222 -3.07316 0
M  V30 12503 C 1215.21 -5.25004 -2.5049 0
M  V30 12504 N 1214.18 -4.61955 -2.86528 0
M  V30 12505 H 1217.99 -2.7045 -1.15039 0
M  V30 12506 H 1215.5 -1.53094 -0.541854 0
M  V30 12507 H 1217.5 -2.17417 -3.55718 0
M  V30 12508 H 1216.16 -1.11223 -3.05057 0
M  V30 12509 H 1217.17 -4.70282 -2.16922 0
M  V30 12510 H 1213.84 -2.43132 -3.39401 0
M  V30 12511 H 1215.23 -6.31812 -2.28611 0
M  V30 12512 N 1217.95 0.594978 -1.45938 0
M  V30 12513 C 1218.88 1.71536 -1.58422 0
M  V30 12514 C 1219.87 1.64441 -0.435116 0
M  V30 12515 O 1221.05 1.82647 -0.659839 0
M  V30 12516 C 1218.18 3.10163 -1.56257 0
M  V30 12517 C 1217.13 3.3208 -2.70013 0
M  V30 12518 C 1216.46 4.71108 -2.52905 0
M  V30 12519 C 1217.76 3.21105 -4.11933 0
M  V30 12520 H 1219.45 1.61344 -2.52207 0
M  V30 12521 H 1217 0.774791 -1.2138 0
M  V30 12522 H 1218.95 3.88352 -1.63587 0
M  V30 12523 H 1217.68 3.21225 -0.590093 0
M  V30 12524 H 1216.34 2.56286 -2.62132 0
M  V30 12525 H 1215.98 4.7892 -1.53768 0
M  V30 12526 H 1215.68 4.86727 -3.29197 0
M  V30 12527 H 1217.21 5.51482 -2.62107 0
M  V30 12528 H 1218.62 3.89153 -4.2099 0
M  V30 12529 H 1217.02 3.4825 -4.88715 0
M  V30 12530 H 1218.09 2.18359 -4.32952 0
M  V30 12531 N 1219.43 1.33438 0.838571 0
M  V30 12532 C 1220.36 1.19552 1.9555 0
M  V30 12533 C 1221.38 0.12642 1.62308 0
M  V30 12534 O 1222.57 0.376868 1.74476 0
M  V30 12535 C 1219.67 0.811273 3.29046 0
M  V30 12536 C 1218.84 1.97207 3.9042 0
M  V30 12537 C 1217.9 1.56875 5.02271 0
M  V30 12538 O 1216.92 2.28314 5.21403 0
M  V30 12539 N 1218.13 0.473924 5.78562 0
M  V30 12540 H 1220.89 2.15769 2.07999 0
M  V30 12541 H 1218.45 1.26187 1.01432 0
M  V30 12542 H 1220.44 0.523553 4.01299 0
M  V30 12543 H 1219.01 -0.0602291 3.12542 0
M  V30 12544 H 1218.23 2.4254 3.10754 0
M  V30 12545 H 1219.52 2.74878 4.28158 0
M  V30 12546 H 1218.92 -0.120306 5.65572 0
M  V30 12547 H 1217.48 0.245877 6.51336 0
M  V30 12548 N 1220.91 -1.05686 1.16912 0
M  V30 12549 C 1222.16 -1.78244 0.95254 0
M  V30 12550 C 1222.48 -1.87924 -0.520525 0
M  V30 12551 O 1221.75 -1.39239 -1.37802 0
M  V30 12552 H 1220.33 -0.660228 0.349439 0
M  V30 12553 H 1222.99 -1.27634 1.47294 0
M  V30 12554 H 1222.09 -2.80102 1.37657 0
M  V30 12555 N 1222.39 -0.968567 -1.24324 0
M  V30 12556 C 1223.61 -0.648166 -1.97012 0
M  V30 12557 C 1224.04 0.775842 -1.71354 0
M  V30 12558 O 1223.4 1.52672 -0.977804 0
M  V30 12559 C 1223.44 -0.929974 -3.48402 0
M  V30 12560 O 1222.55 -0.015854 -4.12397 0
M  V30 12561 H 1221.89 -0.244961 -0.617163 0
M  V30 12562 H 1224.42 -1.29895 -1.58077 0
M  V30 12563 H 1224.43 -0.861863 -3.98793 0
M  V30 12564 H 1223.1 -1.96776 -3.66404 0
M  V30 12565 H 1221.68 -0.137361 -3.72647 0
M  V30 12566 N 1223.87 1.39211 -0.738786 0
M  V30 12567 C 1225.11 2.00733 -0.288817 0
M  V30 12568 C 1225.45 1.58494 1.1222 0
M  V30 12569 O 1224.72 0.815579 1.76575 0
M  V30 12570 C 1225 3.57928 -0.394956 0
M  V30 12571 C 1224.86 4.10174 -1.84601 0
M  V30 12572 C 1226.18 4.39548 0.220395 0
M  V30 12573 H 1223.29 0.729276 -0.106418 0
M  V30 12574 H 1225.94 1.65365 -0.935652 0
M  V30 12575 H 1224.09 3.88188 0.155744 0
M  V30 12576 H 1225.76 3.90618 -2.45388 0
M  V30 12577 H 1224 3.63593 -2.36607 0
M  V30 12578 H 1224.67 5.19305 -1.87152 0
M  V30 12579 H 1227.15 4.15354 -0.249098 0
M  V30 12580 H 1226.02 5.48778 0.115806 0
M  V30 12581 H 1226.29 4.22341 1.30691 0
M  V30 12582 N 1225.34 0.486708 1.49896 0
M  V30 12583 C 1226.29 -0.313156 2.30482 0
M  V30 12584 C 1227.29 -0.976043 1.38455 0
M  V30 12585 O 1228.49 -0.905364 1.55574 0
M  V30 12586 H 1224.87 -0.119839 0.74239 0
M  V30 12587 H 1226.84 0.386701 2.95884 0
M  V30 12588 C 1225.59 -1.37334 3.19429 0
M  V30 12589 H 1224.91 -0.87265 3.9016 0
M  V30 12590 H 1226.35 -1.90526 3.78782 0
M  V30 12591 C 1224.81 -2.38378 2.38071 0
M  V30 12592 O 1225.34 -3.43972 2.07476 0
M  V30 12593 N 1223.55 -2.10486 2.00359 0
M  V30 12594 H 1223.09 -1.24638 2.2544 0
M  V30 12595 H 1223.05 -2.78324 1.46229 0
M  V30 12596 N 1226.82 -1.56058 0.219941 0
M  V30 12597 C 1227.79 -2.18964 -0.677303 0
M  V30 12598 C 1228.79 -1.15105 -1.12283 0
M  V30 12599 O 1229.98 -1.40348 -1.03189 0
M  V30 12600 C 1227.11 -2.81167 -1.92764 0
M  V30 12601 H 1228.3 -2.99623 -0.128877 0
M  V30 12602 H 1225.85 -1.56272 -0.0296744 0
M  V30 12603 H 1226.59 -2.04374 -2.51797 0
M  V30 12604 H 1226.37 -3.5722 -1.61666 0
M  V30 12605 H 1227.86 -3.29391 -2.56693 0
M  V30 12606 N 1228.3 0.053464 -1.57509 0
M  V30 12607 C 1229.55 0.749102 -1.88135 0
M  V30 12608 C 1229.88 1.76642 -0.814111 0
M  V30 12609 O 1229.13 1.94796 0.187845 0
M  V30 12610 C 1229.43 1.47666 -3.25468 0
M  V30 12611 C 1229.1 0.597619 -4.46922 0
M  V30 12612 C 1227.76 0.355429 -4.79886 0
M  V30 12613 C 1230.11 -0.0107869 -5.21199 0
M  V30 12614 C 1227.44 -0.504347 -5.84528 0
M  V30 12615 C 1229.79 -0.858123 -6.26753 0
M  V30 12616 C 1228.45 -1.11001 -6.58206 0
M  V30 12617 H 1227.72 0.274116 -0.688434 0
M  V30 12618 H 1230.37 0.00944162 -1.91498 0
M  V30 12619 H 1228.68 2.28901 -3.1798 0
M  V30 12620 H 1230.37 2.02002 -3.46404 0
M  V30 12621 H 1226.96 0.796526 -4.21134 0
M  V30 12622 H 1231.15 0.163404 -4.96031 0
M  V30 12623 H 1226.4 -0.708057 -6.07286 0
M  V30 12624 H 1230.58 -1.3362 -6.83461 0
M  V30 12625 H 1228.2 -1.77798 -7.39116 0
M  V30 12626 N 1229.78 1.54207 0.325255 0
M  V30 12627 C 1231.02 1.74055 1.07164 0
M  V30 12628 C 1231.38 0.502722 1.85302 0
M  V30 12629 O 1232.58 0.578525 2.62501 0
M  V30 12630 C 1230.86 2.97994 1.97319 0
M  V30 12631 S 1232.41 3.38737 2.78931 0
M  V30 12632 H 1229.23 0.612059 0.361808 0
M  V30 12633 H 1231.83 1.92381 0.347837 0
M  V30 12634 H 1230.54 3.86235 1.38747 0
M  V30 12635 H 1230.07 2.82187 2.74106 0
M  V30 12636 H 1232.08 2.93904 3.99794 0
M  V30 12637 N 1231.26 -0.58723 1.46251 0
M  V30 12638 C 1232.21 -1.71771 1.56836 0
M  V30 12639 C 1233.2 -1.63664 0.437096 0
M  V30 12640 O 1234.41 -1.69212 0.613797 0
M  V30 12641 H 1230.78 -0.567841 0.493012 0
M  V30 12642 H 1232.75 -1.59974 2.51895 0
M  V30 12643 C 1231.5 -3.10159 1.57152 0
M  V30 12644 H 1230.82 -3.17066 2.43535 0
M  V30 12645 H 1232.26 -3.89032 1.68613 0
M  V30 12646 C 1230.72 -3.35567 0.299374 0
M  V30 12647 O 1231.25 -3.97006 -0.612291 0
M  V30 12648 N 1229.46 -2.89987 0.188695 0
M  V30 12649 H 1229.01 -2.4017 0.93147 0
M  V30 12650 H 1228.96 -3.0736 -0.661612 0
M  V30 12651 N 1232.74 -1.33881 -0.831482 0
M  V30 12652 C 1234.15 -1.23112 -1.40358 0
M  V30 12653 C 1234.5 0.146944 -1.95649 0
M  V30 12654 O 1233.62 1.04689 -1.89391 0
M  V30 12655 C 1234.22 -2.22899 -2.5515 0
M  V30 12656 C 1232.78 -2.15946 -3.08292 0
M  V30 12657 C 1231.92 -2.09975 -1.81124 0
M  V30 12658 H 1234.87 -1.45372 -0.63661 0
M  V30 12659 H 1234.9 -1.841 -3.32997 0
M  V30 12660 H 1234.41 -3.23186 -2.14878 0
M  V30 12661 H 1232.51 -1.18987 -3.53091 0
M  V30 12662 H 1232.62 -3.06822 -3.67964 0
M  V30 12663 H 1230.99 -1.55564 -2.01673 0
M  V30 12664 H 1231.77 -3.12082 -1.43037 0
M  V30 12665 N 1234.21 1.05064 -1.1747 0
M  V30 12666 C 1235.46 1.78352 -0.965311 0
M  V30 12667 C 1235.79 1.87527 0.504707 0
M  V30 12668 O 1235.07 1.376 1.37465 0
M  V30 12669 C 1235.35 3.22173 -1.60862 0
M  V30 12670 C 1235.2 3.21003 -3.15083 0
M  V30 12671 C 1236.52 4.2004 -1.31358 0
M  V30 12672 H 1233.64 0.647452 -0.352101 0
M  V30 12673 H 1236.28 1.22794 -1.44988 0
M  V30 12674 H 1234.43 3.69613 -1.19658 0
M  V30 12675 H 1236.11 2.81629 -3.65353 0
M  V30 12676 H 1234.35 2.59309 -3.47766 0
M  V30 12677 H 1235.02 4.22516 -3.55224 0
M  V30 12678 H 1237.5 3.81099 -1.6704 0
M  V30 12679 H 1236.37 5.1891 -1.78953 0
M  V30 12680 H 1236.63 4.41477 -0.234606 0
M  V30 12681 N 1235.69 0.975146 1.23809 0
M  V30 12682 C 1236.92 0.658978 1.96125 0
M  V30 12683 C 1237.33 -0.773044 1.72248 0
M  V30 12684 O 1236.69 -1.51956 1.01072 0
M  V30 12685 C 1236.74 0.933355 3.49243 0
M  V30 12686 O 1236.46 2.30909 3.72307 0
M  V30 12687 C 1237.96 0.632408 4.38766 0
M  V30 12688 H 1235.18 0.245237 0.62458 0
M  V30 12689 H 1237.73 1.3051 1.5744 0
M  V30 12690 H 1235.88 0.333323 3.85963 0
M  V30 12691 H 1236.3 2.39476 4.66638 0
M  V30 12692 H 1237.77 0.874791 5.45024 0
M  V30 12693 H 1238.25 -0.433453 4.37056 0
M  V30 12694 H 1238.85 1.21268 4.07645 0
M  V30 12695 N 1237.17 -1.38817 0.746158 0
M  V30 12696 C 1238.42 -1.99885 0.298425 0
M  V30 12697 C 1238.74 -1.59518 -1.12156 0
M  V30 12698 O 1238.01 -0.848568 -1.76568 0
M  V30 12699 H 1236.59 -0.739247 0.107347 0
M  V30 12700 H 1239.25 -1.69696 0.9586 0
M  V30 12701 H 1238.35 -3.10067 0.355656 0
M  V30 12702 N 1238.65 -0.49465 -1.49636 0
M  V30 12703 C 1239.58 0.323781 -2.26902 0
M  V30 12704 C 1240.59 0.936281 -1.33183 0
M  V30 12705 O 1241.78 0.820695 -1.58514 0
M  V30 12706 C 1238.88 1.47025 -3.05347 0
M  V30 12707 C 1238.05 0.966228 -4.26594 0
M  V30 12708 C 1237.11 1.98955 -4.87138 0
M  V30 12709 O 1236.14 1.56065 -5.47387 0
M  V30 12710 N 1237.34 3.3195 -4.76224 0
M  V30 12711 H 1240.11 -0.338716 -2.9778 0
M  V30 12712 H 1237.67 -0.326817 -1.58567 0
M  V30 12713 H 1239.66 2.15225 -3.42725 0
M  V30 12714 H 1238.23 2.03702 -2.37117 0
M  V30 12715 H 1237.45 0.109336 -3.94048 0
M  V30 12716 H 1238.74 0.607781 -5.05157 0
M  V30 12717 H 1238.14 3.69488 -4.28363 0
M  V30 12718 H 1236.69 3.95881 -5.17805 0
M  V30 12719 N 1240.13 1.55939 -0.228214 0
M  V30 12720 C 1241.37 2.00379 0.403442 0
M  V30 12721 C 1241.73 1.11264 1.56475 0
M  V30 12722 O 1242.93 1.45079 2.26287 0
M  V30 12723 C 1241.2 3.47851 0.820649 0
M  V30 12724 S 1242.76 4.14309 1.44547 0
M  V30 12725 H 1239.58 0.699426 0.127768 0
M  V30 12726 H 1242.18 1.92537 -0.339066 0
M  V30 12727 H 1240.88 4.10386 -0.0341308 0
M  V30 12728 H 1240.42 3.5958 1.5958 0
M  V30 12729 H 1242.43 4.14048 2.73456 0
M  V30 12730 N 1241.6 -0.0451101 1.57535 0
M  V30 12731 C 1242.55 -1.05817 2.01958 0
M  V30 12732 C 1243.54 -1.32963 0.906077 0
M  V30 12733 O 1244.73 -1.32816 1.16999 0
M  V30 12734 C 1241.86 -2.36414 2.48924 0
M  V30 12735 C 1240.95 -2.12428 3.67063 0
M  V30 12736 N 1241.34 -1.58448 4.80341 0
M  V30 12737 C 1239.63 -2.42785 3.74128 0
M  V30 12738 C 1240.34 -1.49896 5.62055 0
M  V30 12739 N 1239.31 -1.96892 5.0669 0
M  V30 12740 H 1243.11 -0.634569 2.86968 0
M  V30 12741 H 1240.63 -0.251719 1.60437 0
M  V30 12742 H 1242.62 -3.09781 2.79001 0
M  V30 12743 H 1241.28 -2.79467 1.65313 0
M  V30 12744 H 1242.3 -1.26939 5.02102 0
M  V30 12745 H 1238.97 -2.89022 3.01285 0
M  V30 12746 H 1240.36 -1.08788 6.63035 0
M  V30 12747 N 1243.08 -1.54377 -0.317073 0
M  V30 12748 C 1244.32 -1.74621 -1.06239 0
M  V30 12749 C 1244.69 -0.512542 -1.85032 0
M  V30 12750 O 1245.89 -0.592438 -2.6219 0
M  V30 12751 C 1244.16 -2.99036 -1.95735 0
M  V30 12752 S 1245.72 -3.40212 -2.77131 0
M  V30 12753 H 1242.54 -0.613969 -0.358557 0
M  V30 12754 H 1245.14 -1.92562 -0.33763 0
M  V30 12755 H 1243.84 -3.86965 -1.36697 0
M  V30 12756 H 1243.37 -2.83636 -2.72606 0
M  V30 12757 H 1245.39 -2.9602 -3.98229 0
M  V30 12758 N 1244.56 0.579466 -1.4656 0
M  V30 12759 C 1245.81 1.33756 -1.52038 0
M  V30 12760 C 1246.14 1.93725 -0.173423 0
M  V30 12761 O 1245.39 1.77167 0.831293 0
M  V30 12762 C 1245.69 2.48417 -2.56951 0
M  V30 12763 C 1245.36 2.0642 -4.00876 0
M  V30 12764 C 1244.02 1.94682 -4.4006 0
M  V30 12765 C 1246.37 1.74066 -4.91274 0
M  V30 12766 C 1243.7 1.48852 -5.67503 0
M  V30 12767 C 1246.05 1.29714 -6.19158 0
M  V30 12768 C 1244.71 1.16555 -6.57245 0
M  V30 12769 H 1243.98 0.489447 -0.556347 0
M  V30 12770 H 1246.63 0.652176 -1.80053 0
M  V30 12771 H 1244.94 3.22416 -2.2261 0
M  V30 12772 H 1246.63 3.06629 -2.58418 0
M  V30 12773 H 1243.22 2.16492 -3.69904 0
M  V30 12774 H 1247.41 1.82019 -4.61717 0
M  V30 12775 H 1242.66 1.3731 -5.95782 0
M  V30 12776 H 1246.84 1.03734 -6.88631 0
M  V30 12777 H 1244.46 0.808193 -7.55892 0
M  V30 12778 N 1246.04 1.3432 0.824371 0
M  V30 12779 C 1246.97 1.21619 1.94271 0
M  V30 12780 C 1247.98 0.143628 1.62165 0
M  V30 12781 O 1249.17 0.395353 1.74067 0
M  V30 12782 C 1246.27 0.846128 3.28167 0
M  V30 12783 C 1245.45 2.01337 3.88307 0
M  V30 12784 C 1244.5 1.62194 5.00579 0
M  V30 12785 O 1243.53 2.33831 5.18953 0
M  V30 12786 N 1244.73 0.535262 5.78027 0
M  V30 12787 H 1247.5 2.17963 2.05699 0
M  V30 12788 H 1245.06 1.27256 1.00088 0
M  V30 12789 H 1247.05 0.566086 4.00721 0
M  V30 12790 H 1245.62 -0.0270764 3.12588 0
M  V30 12791 H 1244.84 2.45823 3.08164 0
M  V30 12792 H 1246.13 2.79404 4.25219 0
M  V30 12793 H 1245.53 -0.0603126 5.65668 0
M  V30 12794 H 1244.08 0.314946 6.51039 0
M  V30 12795 N 1247.52 -1.0444 1.18026 0
M  V30 12796 C 1248.76 -1.77224 0.971391 0
M  V30 12797 C 1249.09 -1.88466 -0.500564 0
M  V30 12798 O 1248.36 -1.40692 -1.36317 0
M  V30 12799 H 1246.94 -0.656485 0.356422 0
M  V30 12800 H 1249.6 -1.26064 1.4864 0
M  V30 12801 H 1248.69 -2.78626 1.4062 0
M  V30 12802 N 1248.99 -0.981699 -1.2329 0
M  V30 12803 C 1250.24 -0.652266 -1.92024 0
M  V30 12804 C 1250.57 0.812297 -1.76396 0
M  V30 12805 O 1249.85 1.5861 -1.12575 0
M  V30 12806 C 1250.13 -1.04506 -3.44602 0
M  V30 12807 C 1249.98 -2.56735 -3.69333 0
M  V30 12808 C 1251.3 -0.589937 -4.36128 0
M  V30 12809 H 1248.42 -0.238437 -0.697364 0
M  V30 12810 H 1251.06 -1.22322 -1.45387 0
M  V30 12811 H 1249.21 -0.559242 -3.84454 0
M  V30 12812 H 1250.89 -3.12901 -3.38955 0
M  V30 12813 H 1249.13 -2.9931 -3.14 0
M  V30 12814 H 1249.8 -2.79269 -4.76144 0
M  V30 12815 H 1252.28 -1.00706 -4.0373 0
M  V30 12816 H 1251.15 -0.893192 -5.41584 0
M  V30 12817 H 1251.41 0.509707 -4.39152 0
M  V30 12818 N 1250.47 1.3842 -0.753509 0
M  V30 12819 C 1251.7 2.04107 -0.319985 0
M  V30 12820 C 1252.11 1.56951 1.05655 0
M  V30 12821 O 1251.45 0.737807 1.68232 0
M  V30 12822 C 1251.52 3.58529 -0.26402 0
M  V30 12823 C 1251.18 4.28741 -1.58209 0
M  V30 12824 C 1252.18 4.54118 -2.53126 0
M  V30 12825 C 1249.86 4.66931 -1.8515 0
M  V30 12826 C 1251.86 5.16719 -3.73203 0
M  V30 12827 C 1249.54 5.29256 -3.05502 0
M  V30 12828 C 1250.54 5.54085 -3.99348 0
M  V30 12829 O 1250.23 6.15112 -5.17584 0
M  V30 12830 H 1249.96 0.662457 -0.134636 0
M  V30 12831 H 1252.51 1.78096 -1.02328 0
M  V30 12832 H 1250.74 3.83512 0.495516 0
M  V30 12833 H 1252.43 4.05659 0.139979 0
M  V30 12834 H 1253.2 4.25043 -2.33588 0
M  V30 12835 H 1249.08 4.46952 -1.12939 0
M  V30 12836 H 1252.62 5.36014 -4.46469 0
M  V30 12837 H 1248.52 5.57754 -3.24932 0
M  V30 12838 H 1249.29 6.33599 -5.18164 0
M  V30 12839 N 1251.95 0.502579 1.49372 0
M  V30 12840 C 1252.91 -0.263993 2.27675 0
M  V30 12841 C 1253.91 -0.892538 1.33755 0
M  V30 12842 O 1255.1 -0.756826 1.56901 0
M  V30 12843 C 1252.24 -1.37895 3.11765 0
M  V30 12844 H 1253.43 0.423132 2.969 0
M  V30 12845 H 1250.98 0.257595 1.54163 0
M  V30 12846 H 1251.72 -2.10018 2.47109 0
M  V30 12847 H 1251.5 -0.933694 3.80821 0
M  V30 12848 H 1252.99 -1.91889 3.70902 0
M  V30 12849 N 1253.43 -1.55816 0.23648 0
M  V30 12850 C 1254.84 -1.59159 -0.118601 0
M  V30 12851 C 1255.04 -1.25352 -1.57763 0
M  V30 12852 O 1254.1 -0.995863 -2.32032 0
M  V30 12853 C 1255.41 -2.99885 0.221175 0
M  V30 12854 C 1256.96 -3.12567 0.164624 0
M  V30 12855 C 1257.44 -4.55496 0.478285 0
M  V30 12856 N 1258.93 -4.61215 0.428402 0
M  V30 12857 C 1259.66 -5.69768 0.644398 0
M  V30 12858 N 1259.16 -6.86624 0.922966 0
M  V30 12859 N 1260.95 -5.59143 0.575814 0
M  V30 12860 H 1253.1 -1.76063 1.18809 0
M  V30 12861 H 1255.37 -0.819079 0.477297 0
M  V30 12862 H 1255.07 -3.29326 1.2344 0
M  V30 12863 H 1254.95 -3.74425 -0.456723 0
M  V30 12864 H 1257.33 -2.82914 -0.839263 0
M  V30 12865 H 1257.41 -2.40325 0.876219 0
M  V30 12866 H 1257.06 -4.85868 1.47968 0
M  V30 12867 H 1256.99 -5.25984 -0.254671 0
M  V30 12868 H 1259.48 -3.77251 0.221398 0
M  V30 12869 H 1259.79 -7.6528 1.07548 0
M  V30 12870 H 1258.14 -6.88333 0.960325 0
M  V30 12871 H 1261.33 -4.66727 0.358307 0
M  V30 12872 H 1261.5 -6.43674 0.747548 0
M  V30 12873 N 1254.91 0.036755 -1.57557 0
M  V30 12874 C 1255.84 1.06718 -2.0284 0
M  V30 12875 C 1256.85 1.32926 -0.939917 0
M  V30 12876 O 1258.04 1.30549 -1.21734 0
M  V30 12877 C 1255.14 2.41054 -2.38214 0
M  V30 12878 C 1254.31 2.3431 -3.69347 0
M  V30 12879 C 1253.37 3.51034 -3.91997 0
M  V30 12880 O 1252.4 3.30875 -4.63152 0
M  V30 12881 N 1253.6 4.72634 -3.37042 0
M  V30 12882 H 1256.37 0.681275 -2.91854 0
M  V30 12883 H 1253.93 0.224836 -1.60331 0
M  V30 12884 H 1255.92 3.17847 -2.5051 0
M  V30 12885 H 1254.49 2.71517 -1.5491 0
M  V30 12886 H 1253.71 1.42668 -3.67477 0
M  V30 12887 H 1255 2.2694 -4.55385 0
M  V30 12888 H 1254.39 4.91914 -2.79352 0
M  V30 12889 H 1252.95 5.46818 -3.5473 0
M  V30 12890 N 1256.39 1.54543 0.308881 0
M  V30 12891 C 1257.63 1.75182 1.05312 0
M  V30 12892 C 1257.99 0.522347 1.84758 0
M  V30 12893 O 1259.19 0.606334 2.61872 0
M  V30 12894 C 1257.46 3.0007 1.94147 0
M  V30 12895 S 1259.02 3.41676 2.75323 0
M  V30 12896 H 1255.84 0.615862 0.355296 0
M  V30 12897 H 1258.44 1.92739 0.327413 0
M  V30 12898 H 1257.14 3.87685 1.34643 0
M  V30 12899 H 1256.68 2.85078 2.71098 0
M  V30 12900 H 1258.69 2.98128 3.96654 0
M  V30 12901 N 1257.86 -0.571685 1.46866 0
M  V30 12902 C 1259.14 -1.33216 1.43223 0
M  V30 12903 C 1259.52 -2.1075 0.121495 0
M  V30 12904 O 1258.87 -2.10157 -0.897003 0
M  V30 12905 C 1259.08 -2.24888 2.66882 0
M  V30 12906 C 1260.43 -2.86369 3.13493 0
M  V30 12907 O 1261.45 -2.35197 2.67509 0
M  V30 12908 O 1260.31 -3.79342 3.93398 0
M  V30 12909 H 1257.4 -0.599106 0.570089 0
M  V30 12910 H 1259.95 -0.591788 1.59047 0
M  V30 12911 H 1258.72 -1.67099 3.53827 0
M  V30 12912 H 1258.34 -3.06246 2.53573 0
M  V30 12913 N 1259.34 -1.34755 -0.817236 0
M  V30 12914 C 1260.76 -1.14561 -1.11121 0
M  V30 12915 C 1260.96 0.0490776 -2.0144 0
M  V30 12916 O 1260.01 0.722897 -2.41931 0
M  V30 12917 C 1261.33 -2.44356 -1.75244 0
M  V30 12918 C 1262.87 -2.50465 -1.87713 0
M  V30 12919 C 1263.35 -3.80276 -2.55253 0
M  V30 12920 N 1264.84 -3.81468 -2.62747 0
M  V30 12921 C 1265.58 -4.78634 -3.15749 0
M  V30 12922 N 1265.07 -5.86184 -3.6927 0
M  V30 12923 N 1266.86 -4.66083 -3.14203 0
M  V30 12924 H 1259.02 -2.11293 -0.2166 0
M  V30 12925 H 1261.28 -0.934629 -0.158661 0
M  V30 12926 H 1260.98 -3.31899 -1.16344 0
M  V30 12927 H 1260.86 -2.58117 -2.75055 0
M  V30 12928 H 1263.25 -1.63358 -2.45761 0
M  V30 12929 H 1263.33 -2.40627 -0.867887 0
M  V30 12930 H 1262.97 -4.67776 -1.97858 0
M  V30 12931 H 1262.9 -3.87399 -3.56693 0
M  V30 12932 H 1265.39 -3.03753 -2.24817 0
M  V30 12933 H 1265.7 -6.56332 -4.0798 0
M  V30 12934 H 1264.05 -5.8989 -3.67498 0
M  V30 12935 H 1267.24 -3.81206 -2.7166 0
M  V30 12936 H 1267.41 -5.41973 -3.55203 0
M  V30 12937 N 1260.82 1.03812 -1.18578 0
M  V30 12938 C 1262.06 1.78618 -0.993725 0
M  V30 12939 C 1262.42 1.86206 0.468133 0
M  V30 12940 O 1263.62 2.57243 0.779714 0
M  V30 12941 C 1261.9 3.17883 -1.63357 0
M  V30 12942 S 1263.45 4.08994 -1.58962 0
M  V30 12943 H 1260.27 0.614997 -0.356792 0
M  V30 12944 H 1262.87 1.24458 -1.50766 0
M  V30 12945 H 1261.58 3.09972 -2.68972 0
M  V30 12946 H 1261.11 3.77119 -1.12003 0
M  V30 12947 H 1263.12 4.9247 -0.6073 0
M  V30 12948 N 1262.3 0.988223 1.22768 0
M  V30 12949 C 1263.23 0.554478 2.26821 0
M  V30 12950 C 1264.21 -0.416293 1.64927 0
M  V30 12951 O 1265.39 -0.30795 1.91743 0
M  V30 12952 C 1262.52 -0.136266 3.47033 0
M  V30 12953 C 1261.48 0.752575 4.21332 0
M  V30 12954 C 1260.8 -0.0708236 5.34653 0
M  V30 12955 C 1262.1 2.04717 4.80508 0
M  V30 12956 H 1263.8 1.42423 2.63355 0
M  V30 12957 H 1261.34 0.686267 1.26595 0
M  V30 12958 H 1263.3 -0.451068 4.18979 0
M  V30 12959 H 1262.02 -1.04053 3.09581 0
M  V30 12960 H 1260.68 1.05095 3.51213 0
M  V30 12961 H 1260.33 -0.975859 4.93443 0
M  V30 12962 H 1260.03 0.520835 5.85287 0
M  V30 12963 H 1261.55 -0.379828 6.09417 0
M  V30 12964 H 1262.97 1.79663 5.44421 0
M  V30 12965 H 1261.36 2.58726 5.41462 0
M  V30 12966 H 1262.43 2.72896 4.00819 0
M  V30 12967 N 1263.78 -1.38018 0.760839 0
M  V30 12968 C 1265.19 -1.82645 0.387022 0
M  V30 12969 C 1265.54 -1.63445 -1.08536 0
M  V30 12970 O 1264.66 -1.13958 -1.83963 0
M  V30 12971 C 1265.26 -3.3158 0.69569 0
M  V30 12972 C 1263.82 -3.74527 0.375063 0
M  V30 12973 C 1262.96 -2.60696 0.94515 0
M  V30 12974 H 1265.91 -1.26644 0.956396 0
M  V30 12975 H 1265.94 -3.80493 -0.0235511 0
M  V30 12976 H 1265.45 -3.45522 1.76737 0
M  V30 12977 H 1263.55 -3.6616 -0.689741 0
M  V30 12978 H 1263.66 -4.71029 0.875685 0
M  V30 12979 H 1262.03 -2.51997 0.370065 0
M  V30 12980 H 1262.81 -2.77434 2.02201 0
M  V30 12981 N 1265.25 -0.510493 -1.49103 0
M  V30 12982 C 1266.5 0.0305831 -2.02077 0
M  V30 12983 C 1266.82 1.36602 -1.39157 0
M  V30 12984 O 1266.09 1.88016 -0.550154 0
M  V30 12985 H 1264.67 0.0142916 -0.746863 0
M  V30 12986 H 1267.33 -0.669895 -1.83026 0
M  V30 12987 H 1266.43 0.153283 -3.11723 0
M  V30 12988 N 1266.73 1.55688 -0.24474 0
M  V30 12989 C 1267.68 2.17946 0.669596 0
M  V30 12990 C 1268.67 1.13468 1.14078 0
M  V30 12991 O 1269.86 1.39385 1.09091 0
M  V30 12992 C 1266.99 2.8808 1.86721 0
M  V30 12993 C 1266.07 3.99811 1.41463 0
M  V30 12994 N 1266.46 5.01261 0.676131 0
M  V30 12995 C 1264.76 4.12327 1.70008 0
M  V30 12996 C 1265.46 5.80017 0.442113 0
M  V30 12997 N 1264.44 5.34216 1.00569 0
M  V30 12998 H 1268.24 2.93739 0.0971953 0
M  V30 12999 H 1265.75 1.62332 -0.0469646 0
M  V30 13000 H 1267.75 3.31109 2.53322 0
M  V30 13001 H 1266.41 2.13789 2.44385 0
M  V30 13002 H 1267.42 5.1687 0.326459 0
M  V30 13003 H 1264.1 3.49206 2.28827 0
M  V30 13004 H 1265.49 6.71739 -0.14729 0
M  V30 13005 N 1268.21 -0.0283989 1.57574 0
M  V30 13006 C 1269.46 -0.714661 1.90432 0
M  V30 13007 C 1269.81 -1.72929 0.843409 0
M  V30 13008 O 1269.1 -1.91029 -0.147815 0
M  V30 13009 C 1269.3 -1.4247 3.27776 0
M  V30 13010 C 1269.13 -0.480353 4.47127 0
M  V30 13011 C 1267.9 -0.101157 5.05199 0
M  V30 13012 C 1270.09 0.241526 5.13733 0
M  V30 13013 N 1268.08 0.844371 6.08065 0
M  V30 13014 C 1269.45 1.04269 6.11169 0
M  V30 13015 C 1271.5 0.308398 4.96944 0
M  V30 13016 C 1270.21 1.90459 6.93627 0
M  V30 13017 C 1272.23 1.15742 5.79964 0
M  V30 13018 C 1271.59 1.94651 6.76971 0
M  V30 13019 H 1267.69 -0.23559 0.745668 0
M  V30 13020 H 1270.28 0.0252703 1.94684 0
M  V30 13021 H 1268.45 -2.13509 3.24451 0
M  V30 13022 H 1270.18 -2.0634 3.48146 0
M  V30 13023 H 1266.93 -0.463482 4.71327 0
M  V30 13024 H 1267.36 1.31166 6.64172 0
M  V30 13025 H 1272 -0.287369 4.21822 0
M  V30 13026 H 1269.72 2.51115 7.68093 0
M  V30 13027 H 1273.3 1.2127 5.69021 0
M  V30 13028 H 1272.18 2.59286 7.40095 0
M  V30 13029 N 1269.69 -1.54705 -0.300681 0
M  V30 13030 C 1270.94 -1.73658 -1.0338 0
M  V30 13031 C 1271.26 -0.525447 -1.87787 0
M  V30 13032 O 1270.53 0.460269 -1.90416 0
M  V30 13033 H 1269.11 -0.640338 -0.384677 0
M  V30 13034 H 1271.77 -1.92059 -0.331588 0
M  V30 13035 H 1270.86 -2.62595 -1.68672 0
M  V30 13036 N 1271.17 0.563888 -1.47167 0
M  V30 13037 C 1272.41 1.32136 -1.53448 0
M  V30 13038 C 1272.74 1.9353 -0.19396 0
M  V30 13039 O 1272 1.78038 0.812456 0
M  V30 13040 C 1272.3 2.45678 -2.59571 0
M  V30 13041 C 1271.96 2.02157 -4.03043 0
M  V30 13042 C 1270.62 1.90003 -4.421 0
M  V30 13043 C 1272.98 1.68846 -4.93093 0
M  V30 13044 C 1270.3 1.42825 -5.6905 0
M  V30 13045 C 1272.66 1.2314 -6.20499 0
M  V30 13046 C 1271.32 1.09578 -6.58444 0
M  V30 13047 H 1270.59 0.483519 -0.561507 0
M  V30 13048 H 1273.24 0.633042 -1.80734 0
M  V30 13049 H 1271.54 3.20037 -2.26017 0
M  V30 13050 H 1273.24 3.03871 -2.61655 0
M  V30 13051 H 1269.83 2.12557 -3.7218 0
M  V30 13052 H 1274.01 1.77111 -4.63622 0
M  V30 13053 H 1269.27 1.30983 -5.97205 0
M  V30 13054 H 1273.44 0.964247 -6.89692 0
M  V30 13055 H 1271.07 0.727975 -7.56706 0
M  V30 13056 N 1272.64 1.35187 0.810078 0
M  V30 13057 C 1274.06 1.25329 1.38381 0
M  V30 13058 C 1274.41 -0.115799 1.95858 0
M  V30 13059 O 1273.53 -1.01663 1.91033 0
M  V30 13060 C 1274.13 2.2693 2.51572 0
M  V30 13061 C 1272.69 2.20824 3.04818 0
M  V30 13062 C 1271.83 2.1283 1.7776 0
M  V30 13063 H 1274.78 1.46366 0.613402 0
M  V30 13064 H 1274.8 1.89375 3.30026 0
M  V30 13065 H 1274.32 3.26563 2.09709 0
M  V30 13066 H 1272.42 1.24589 3.51153 0
M  V30 13067 H 1272.53 3.12637 3.63036 0
M  V30 13068 H 1270.89 1.58752 1.99173 0
M  V30 13069 H 1271.68 3.14318 1.38054 0
M  V30 13070 N 1274.12 -1.03182 1.19127 0
M  V30 13071 C 1275.35 -1.80703 1.01791 0
M  V30 13072 C 1275.77 -1.83147 -0.428824 0
M  V30 13073 O 1275.13 -1.2553 -1.30812 0
M  V30 13074 C 1275.18 -3.23754 1.58794 0
M  V30 13075 O 1274.28 -4.04261 0.815274 0
M  V30 13076 H 1273.62 -0.557944 0.359992 0
M  V30 13077 H 1276.15 -1.29887 1.58084 0
M  V30 13078 H 1276.16 -3.7451 1.61884 0
M  V30 13079 H 1274.84 -3.2129 2.64094 0
M  V30 13080 H 1273.42 -3.62909 0.857392 0
M  V30 13081 N 1275.6 -0.99472 -1.22242 0
M  V30 13082 C 1276.84 -0.679831 -1.92763 0
M  V30 13083 C 1277.2 0.774024 -1.75707 0
M  V30 13084 O 1278.41 1.20041 -2.40507 0
M  V30 13085 C 1276.68 -1.07685 -3.40791 0
M  V30 13086 S 1278.24 -0.880607 -4.29873 0
M  V30 13087 H 1275.05 -0.248508 -0.666157 0
M  V30 13088 H 1277.66 -1.27738 -1.47997 0
M  V30 13089 H 1276.36 -2.1313 -3.50719 0
M  V30 13090 H 1275.89 -0.471172 -3.90568 0
M  V30 13091 H 1277.91 0.227887 -4.95676 0
M  V30 13092 N 1277.08 1.37613 -0.768148 0
M  V30 13093 C 1278.01 2.28935 -0.110234 0
M  V30 13094 C 1279.02 1.48459 0.668122 0
M  V30 13095 O 1280.21 1.71154 0.506808 0
M  V30 13096 C 1277.31 3.27606 0.867598 0
M  V30 13097 C 1276.49 4.37163 0.143819 0
M  V30 13098 C 1275.54 5.15931 1.03449 0
M  V30 13099 O 1274.57 5.67003 0.499605 0
M  V30 13100 N 1275.77 5.30311 2.36114 0
M  V30 13101 H 1278.54 2.86037 -0.894585 0
M  V30 13102 H 1276.1 1.4955 -0.620185 0
M  V30 13103 H 1278.09 3.77183 1.4668 0
M  V30 13104 H 1276.66 2.71298 1.55294 0
M  V30 13105 H 1275.88 3.89031 -0.636257 0
M  V30 13106 H 1277.17 5.0755 -0.356446 0
M  V30 13107 H 1276.57 4.90394 2.82011 0
M  V30 13108 H 1275.12 5.83209 2.9105 0
M  V30 13109 N 1278.56 0.518393 1.4883 0
M  V30 13110 C 1279.97 0.0749773 1.86549 0
M  V30 13111 C 1280.32 -1.34429 1.4291 0
M  V30 13112 O 1279.44 -2.00481 0.814648 0
M  V30 13113 C 1280.04 0.129289 3.38553 0
M  V30 13114 C 1278.6 -0.258871 3.75509 0
M  V30 13115 C 1277.74 0.494185 2.72861 0
M  V30 13116 H 1280.7 0.730266 1.409 0
M  V30 13117 H 1280.72 -0.661844 3.747 0
M  V30 13118 H 1280.23 1.16237 3.70285 0
M  V30 13119 H 1278.33 -1.29453 3.49389 0
M  V30 13120 H 1278.44 0.0726769 4.79045 0
M  V30 13121 H 1276.81 -0.0581428 2.54634 0
M  V30 13122 H 1277.59 1.52767 3.07436 0
M  V30 13123 N 1280.03 -1.55556 0.252993 0
M  V30 13124 C 1281.27 -2.00995 -0.371513 0
M  V30 13125 C 1281.64 -1.13739 -1.54685 0
M  V30 13126 O 1282.84 -1.4866 -2.2395 0
M  V30 13127 C 1281.11 -3.49112 -0.765205 0
M  V30 13128 S 1282.67 -4.16556 -1.37938 0
M  V30 13129 H 1279.49 -0.70137 -0.116625 0
M  V30 13130 H 1282.09 -1.91973 0.369654 0
M  V30 13131 H 1280.79 -4.1028 0.0994153 0
M  V30 13132 H 1280.32 -3.62073 -1.5384 0
M  V30 13133 H 1282.34 -4.18346 -2.66835 0
M  V30 13134 N 1281.51 0.0200419 -1.57587 0
M  V30 13135 C 1282.44 1.0456 -2.0396 0
M  V30 13136 C 1283.46 1.31922 -0.953962 0
M  V30 13137 O 1284.65 1.2925 -1.23112 0
M  V30 13138 C 1281.75 2.38514 -2.40758 0
M  V30 13139 C 1280.92 2.3038 -3.71812 0
M  V30 13140 C 1279.98 3.46856 -3.95698 0
M  V30 13141 O 1279 3.25944 -4.66636 0
M  V30 13142 N 1280.21 4.69033 -3.42036 0
M  V30 13143 H 1282.97 0.650282 -2.9256 0
M  V30 13144 H 1280.53 0.207818 -1.60561 0
M  V30 13145 H 1282.52 3.15172 -2.53868 0
M  V30 13146 H 1281.09 2.69859 -1.57781 0
M  V30 13147 H 1280.31 1.38762 -3.6897 0
M  V30 13148 H 1281.6 2.22097 -4.57767 0
M  V30 13149 H 1281 4.88923 -2.84553 0
M  V30 13150 H 1279.56 5.43025 -3.6051 0
M  V30 13151 N 1282.99 1.54862 0.292472 0
M  V30 13152 C 1284.23 1.76289 1.03448 0
M  V30 13153 C 1284.59 0.541914 1.84194 0
M  V30 13154 O 1285.8 0.634075 2.61214 0
M  V30 13155 C 1284.07 3.02112 1.90953 0
M  V30 13156 S 1285.63 3.44577 2.71683 0
M  V30 13157 H 1282.44 0.619596 0.348744 0
M  V30 13158 H 1285.05 1.93075 0.306952 0
M  V30 13159 H 1283.75 3.89091 1.30523 0
M  V30 13160 H 1283.28 2.87937 2.68059 0
M  V30 13161 H 1285.3 3.02318 3.93469 0
M  V30 13162 N 1284.47 -0.556076 1.47464 0
M  V30 13163 C 1285.42 -1.68406 1.60444 0
M  V30 13164 C 1286.41 -1.627 0.471713 0
M  V30 13165 O 1287.62 -1.67871 0.649551 0
M  V30 13166 H 1283.99 -0.557255 0.504946 0
M  V30 13167 H 1285.96 -1.54595 2.55231 0
M  V30 13168 C 1284.71 -3.06756 1.63695 0
M  V30 13169 H 1284.03 -3.11829 2.50206 0
M  V30 13170 H 1285.47 -3.85368 1.76827 0
M  V30 13171 C 1283.93 -3.34857 0.370485 0
M  V30 13172 O 1284.46 -3.98216 -0.527942 0
M  V30 13173 N 1282.67 -2.89521 0.250163 0
M  V30 13174 H 1282.22 -2.3814 0.982204 0
M  V30 13175 H 1282.17 -3.08694 -0.596268 0
M  V30 13176 N 1285.95 -1.35615 -0.802897 0
M  V30 13177 C 1287.2 -1.28839 -1.55708 0
M  V30 13178 C 1287.52 0.135906 -1.94526 0
M  V30 13179 O 1286.79 1.07317 -1.6389 0
M  V30 13180 H 1285.37 -0.473906 -0.577427 0
M  V30 13181 H 1288.03 -1.69759 -0.957487 0
M  V30 13182 H 1287.12 -1.90675 -2.47082 0
M  V30 13183 N 1287.43 1.02549 -1.19673 0
M  V30 13184 C 1288.38 2.09257 -0.905282 0
M  V30 13185 C 1289.36 1.60363 0.131302 0
M  V30 13186 O 1290.55 1.76842 -0.0748563 0
M  V30 13187 C 1287.68 3.40345 -0.449474 0
M  V30 13188 C 1286.77 3.95964 -1.51899 0
M  V30 13189 N 1287.16 4.25203 -2.73926 0
M  V30 13190 C 1285.46 4.24013 -1.38307 0
M  V30 13191 C 1286.16 4.69925 -3.42849 0
M  V30 13192 N 1285.13 4.71664 -2.70248 0
M  V30 13193 H 1288.93 2.29761 -1.83268 0
M  V30 13194 H 1286.45 1.2044 -1.0894 0
M  V30 13195 H 1288.45 4.16308 -0.222121 0
M  V30 13196 H 1287.11 3.2126 0.471402 0
M  V30 13197 H 1288.12 4.14381 -3.10658 0
M  V30 13198 H 1284.79 4.14174 -0.52592 0
M  V30 13199 H 1286.18 5.01442 -4.4722 0
M  V30 13200 N 1288.9 1.00119 1.21713 0
M  V30 13201 C 1289.87 0.563409 2.22167 0
M  V30 13202 C 1290.87 -0.35819 1.5676 0
M  V30 13203 O 1292.06 -0.149001 1.73562 0
M  V30 13204 C 1289.19 -0.179365 3.40428 0
M  V30 13205 H 1290.38 1.45189 2.62412 0
M  V30 13206 H 1287.93 0.789286 1.34907 0
M  V30 13207 H 1288.67 -1.08345 3.05666 0
M  V30 13208 H 1288.45 0.482471 3.8912 0
M  V30 13209 H 1289.94 -0.473537 4.14906 0
M  V30 13210 N 1290.38 -1.37203 0.775435 0
M  V30 13211 C 1291.66 -1.93783 0.266005 0
M  V30 13212 C 1292.04 -1.70875 -1.23956 0
M  V30 13213 O 1291.39 -1.05965 -2.02444 0
M  V30 13214 C 1291.6 -3.43018 0.643404 0
M  V30 13215 C 1292.94 -4.20119 0.615267 0
M  V30 13216 O 1293.97 -3.51396 0.583018 0
M  V30 13217 O 1292.83 -5.42673 0.645637 0
M  V30 13218 H 1289.92 -0.824649 0.0623107 0
M  V30 13219 H 1292.47 -1.46468 0.857036 0
M  V30 13220 H 1291.24 -3.5329 1.68232 0
M  V30 13221 H 1290.86 -3.97592 0.0255138 0
M  V30 13222 N 1291.86 -0.526279 -1.48553 0
M  V30 13223 C 1293.14 0.073385 -1.95462 0
M  V30 13224 C 1293.52 1.51658 -1.46843 0
M  V30 13225 O 1292.86 2.17729 -0.693293 0
M  V30 13226 C 1293.07 -0.040041 -3.48977 0
M  V30 13227 C 1294.42 0.121108 -4.24427 0
M  V30 13228 O 1295.45 0.0339335 -3.56184 0
M  V30 13229 O 1294.31 0.303297 -5.45658 0
M  V30 13230 H 1291.4 0.0813498 -0.822989 0
M  V30 13231 H 1293.95 -0.590614 -1.59091 0
M  V30 13232 H 1292.72 -1.0455 -3.77074 0
M  V30 13233 H 1292.34 0.662975 -3.92034 0
M  V30 13234 N 1293.34 1.5542 -0.261239 0
M  V30 13235 C 1294.58 2.0119 0.360848 0
M  V30 13236 C 1294.94 1.14558 1.5408 0
M  V30 13237 O 1296.14 1.49846 2.23158 0
M  V30 13238 C 1294.41 3.49513 0.74668 0
M  V30 13239 S 1295.97 4.17281 1.35726 0
M  V30 13240 H 1292.79 0.701978 0.112903 0
M  V30 13241 H 1295.39 1.91775 -0.379829 0
M  V30 13242 H 1294.1 4.10221 -0.121172 0
M  V30 13243 H 1293.63 3.62884 1.51917 0
M  V30 13244 H 1295.64 4.19756 2.64612 0
M  V30 13245 N 1294.82 -0.0116844 1.57596 0
M  V30 13246 C 1296.09 -0.735344 1.81251 0
M  V30 13247 C 1296.47 -1.92634 0.863446 0
M  V30 13248 O 1295.82 -2.28321 -0.0905028 0
M  V30 13249 C 1296.03 -1.15206 3.29437 0
M  V30 13250 C 1297.38 -1.56078 3.94873 0
M  V30 13251 O 1298.4 -1.24618 3.3369 0
M  V30 13252 O 1297.26 -2.14534 5.0263 0
M  V30 13253 H 1294.36 -0.357044 0.745955 0
M  V30 13254 H 1296.9 0.0128733 1.69695 0
M  V30 13255 H 1295.67 -0.302619 3.90128 0
M  V30 13256 H 1295.3 -1.95975 3.45947 0
M  V30 13257 N 1296.29 -1.55015 -0.284256 0
M  V30 13258 C 1297.7 -1.65915 -0.856104 0
M  V30 13259 C 1298.06 -0.578758 -1.8747 0
M  V30 13260 O 1297.18 0.281733 -2.14558 0
M  V30 13261 C 1297.78 -3.0077 -1.55957 0
M  V30 13262 C 1296.33 -3.13735 -2.0796 0
M  V30 13263 C 1295.48 -2.61669 -0.917849 0
M  V30 13264 H 1298.43 -1.58583 -0.0608587 0
M  V30 13265 H 1298.45 -2.9313 -2.42601 0
M  V30 13266 H 1297.97 -3.79382 -0.81798 0
M  V30 13267 H 1296.07 -2.39875 -2.85115 0
M  V30 13268 H 1296.18 -4.20138 -2.30263 0
M  V30 13269 H 1294.54 -2.18542 -1.3081 0
M  V30 13270 H 1295.33 -3.42774 -0.189946 0
M  V30 13271 N 1297.77 0.548248 -1.47757 0
M  V30 13272 C 1299.02 1.30694 -1.55071 0
M  V30 13273 C 1299.35 1.92994 -0.216075 0
M  V30 13274 O 1298.63 1.78341 0.776196 0
M  V30 13275 C 1298.91 2.41024 -2.67543 0
M  V30 13276 C 1298.76 1.83534 -4.10652 0
M  V30 13277 C 1300.08 3.42902 -2.75874 0
M  V30 13278 H 1297.2 0.47383 -0.564494 0
M  V30 13279 H 1299.84 0.612628 -1.79852 0
M  V30 13280 H 1297.99 3.00248 -2.46543 0
M  V30 13281 H 1299.66 1.28503 -4.4304 0
M  V30 13282 H 1297.91 1.14161 -4.18509 0
M  V30 13283 H 1298.58 2.63335 -4.85138 0
M  V30 13284 H 1301.05 2.9361 -2.94843 0
M  V30 13285 H 1299.93 4.17516 -3.5633 0
M  V30 13286 H 1300.19 4.02314 -1.83291 0
M  V30 13287 N 1299.25 1.36039 0.795694 0
M  V30 13288 C 1300.48 1.33059 1.58439 0
M  V30 13289 C 1300.89 -0.0895496 1.88588 0
M  V30 13290 O 1300.25 -1.04466 1.49643 0
M  V30 13291 C 1300.3 2.14594 2.90915 0
M  V30 13292 O 1300.02 3.51072 2.62069 0
M  V30 13293 C 1301.52 2.19324 3.85242 0
M  V30 13294 H 1298.74 0.456668 0.491625 0
M  V30 13295 H 1301.29 1.79048 0.988035 0
M  V30 13296 H 1299.44 1.72177 3.47036 0
M  V30 13297 H 1299.86 3.93545 3.46732 0
M  V30 13298 H 1301.33 2.80744 4.75276 0
M  V30 13299 H 1301.81 1.19496 4.22631 0
M  V30 13300 H 1302.41 2.6195 3.35056 0
M  V30 13301 N 1300.73 -1.01913 1.20215 0
M  V30 13302 C 1301.98 -1.75124 1.00876 0
M  V30 13303 C 1302.3 -1.89485 -0.460475 0
M  V30 13304 O 1301.57 -1.43552 -1.33302 0
M  V30 13305 H 1300.15 -0.648777 0.370266 0
M  V30 13306 H 1302.81 -1.22883 1.5128 0
M  V30 13307 H 1301.91 -2.7558 1.46499 0
M  V30 13308 N 1302.21 -1.00763 -1.2118 0
M  V30 13309 C 1303.12 -0.579646 -2.27326 0
M  V30 13310 C 1304.13 0.378592 -1.69831 0
M  V30 13311 O 1305.31 0.241772 -1.99944 0
M  V30 13312 C 1302.37 0.0843648 -3.46597 0
M  V30 13313 C 1301.43 -0.918685 -4.19355 0
M  V30 13314 C 1300.67 -0.286267 -5.32932 0
M  V30 13315 O 1300.89 0.916274 -5.62993 0
M  V30 13316 O 1299.82 -0.998513 -5.9356 0
M  V30 13317 H 1303.65 -1.46311 -2.66133 0
M  V30 13318 H 1301.24 -0.776641 -1.27627 0
M  V30 13319 H 1303.12 0.455636 -4.18929 0
M  V30 13320 H 1301.79 0.942166 -3.09685 0
M  V30 13321 H 1300.7 -1.34116 -3.49233 0
M  V30 13322 H 1302.03 -1.74616 -4.60185 0
M  V30 13323 N 1303.68 1.3679 -0.7827 0
M  V30 13324 C 1304.92 2.01252 -0.357327 0
M  V30 13325 C 1305.29 1.60782 1.04944 0
M  V30 13326 O 1306.49 2.17785 1.57553 0
M  V30 13327 C 1304.76 3.53766 -0.508352 0
M  V30 13328 S 1306.32 4.38471 -0.169862 0
M  V30 13329 H 1303.14 0.697701 -0.136875 0
M  V30 13330 H 1305.74 1.66799 -1.01972 0
M  V30 13331 H 1304.44 3.80708 -1.53262 0
M  V30 13332 H 1303.97 3.93032 0.170209 0
M  V30 13333 H 1305.99 4.85373 1.03088 0
M  V30 13334 N 1305.16 0.53415 1.48272 0
M  V30 13335 C 1306.09 -0.215037 2.32508 0
M  V30 13336 C 1307.07 -0.931083 1.42355 0
M  V30 13337 O 1308.26 -0.916051 1.71237 0
M  V30 13338 C 1305.39 -1.25985 3.23643 0
M  V30 13339 C 1304.34 -0.661692 4.22854 0
M  V30 13340 C 1303.67 -1.80946 5.03153 0
M  V30 13341 C 1304.97 0.369358 5.20992 0
M  V30 13342 H 1306.66 0.488158 2.95394 0
M  V30 13343 H 1304.21 0.236206 1.4205 0
M  V30 13344 H 1306.16 -1.79195 3.81402 0
M  V30 13345 H 1304.89 -1.99268 2.58766 0
M  V30 13346 H 1303.54 -0.151082 3.66289 0
M  V30 13347 H 1303.19 -2.53077 4.34696 0
M  V30 13348 H 1302.89 -1.41513 5.70305 0
M  V30 13349 H 1304.42 -2.34526 5.63764 0
M  V30 13350 H 1305.83 -0.0758076 5.7325 0
M  V30 13351 H 1304.23 0.681301 5.9622 0
M  V30 13352 H 1305.3 1.27363 4.67875 0
M  V30 13353 N 1306.64 -1.55279 0.269478 0
M  V30 13354 C 1307.59 -2.23723 -0.636468 0
M  V30 13355 C 1308.58 -1.23234 -1.16232 0
M  V30 13356 O 1309.79 -1.41181 -1.1166 0
M  V30 13357 H 1306.16 -0.71793 -0.223788 0
M  V30 13358 H 1308.13 -2.98378 -0.0363057 0
M  V30 13359 C 1306.88 -2.96755 -1.81195 0
M  V30 13360 H 1306.21 -3.73865 -1.4165 0
M  V30 13361 H 1307.65 -3.47975 -2.42258 0
M  V30 13362 C 1306.11 -2.01905 -2.69696 0
M  V30 13363 O 1306.64 -1.56662 -3.69892 0
M  V30 13364 N 1304.84 -1.68524 -2.36744 0
M  V30 13365 H 1304.39 -2.05512 -1.55314 0
M  V30 13366 H 1304.35 -1.05331 -2.96231 0
M  V30 13367 N 1308.12 0.00332656 -1.576 0
M  V30 13368 C 1309.36 0.69341 -1.92279 0
M  V30 13369 C 1309.72 1.71121 -0.870715 0
M  V30 13370 O 1310.92 2.45143 -1.10265 0
M  V30 13371 C 1309.19 1.32272 -3.32022 0
M  V30 13372 S 1310.75 2.03838 -3.88581 0
M  V30 13373 H 1307.57 0.229123 -0.67307 0
M  V30 13374 H 1310.17 -0.0525621 -1.95429 0
M  V30 13375 H 1308.88 0.569071 -4.06435 0
M  V30 13376 H 1308.41 2.10669 -3.32238 0
M  V30 13377 H 1310.42 3.31311 -3.69388 0
M  V30 13378 N 1309.6 1.55164 0.276031 0
M  V30 13379 C 1310.53 1.84243 1.36335 0
M  V30 13380 C 1311.54 0.726745 1.45679 0
M  V30 13381 O 1312.73 1.00456 1.4755 0
M  V30 13382 C 1309.83 1.98768 2.7449 0
M  V30 13383 C 1309 3.294 2.87775 0
M  V30 13384 C 1308.06 3.34029 4.06585 0
M  V30 13385 O 1307.09 4.07423 3.97486 0
M  V30 13386 N 1308.29 2.61213 5.18409 0
M  V30 13387 H 1311.06 2.78092 1.11736 0
M  V30 13388 H 1308.62 1.55044 0.466143 0
M  V30 13389 H 1310.61 1.99238 3.52259 0
M  V30 13390 H 1309.18 1.11799 2.91924 0
M  V30 13391 H 1308.4 3.41494 1.96914 0
M  V30 13392 H 1309.69 4.15558 2.93579 0
M  V30 13393 H 1309.08 2.01261 5.28687 0
M  V30 13394 H 1307.64 2.67409 5.9442 0
M  V30 13395 N 1311.07 -0.540404 1.48045 0
M  V30 13396 C 1312.35 -1.30148 1.46017 0
M  V30 13397 C 1312.73 -2.10445 0.166171 0
M  V30 13398 O 1312.08 -2.12013 -0.852223 0
M  V30 13399 C 1312.29 -2.19177 2.71593 0
M  V30 13400 C 1313.64 -2.79655 3.19497 0
M  V30 13401 O 1314.66 -2.2947 2.72437 0
M  V30 13402 O 1313.52 -3.70912 4.01356 0
M  V30 13403 H 1310.61 -0.586879 0.582668 0
M  V30 13404 H 1313.16 -0.557918 1.60267 0
M  V30 13405 H 1311.93 -1.59556 3.57292 0
M  V30 13406 H 1311.56 -3.00798 2.60012 0
M  V30 13407 N 1312.55 -1.36459 -0.788468 0
M  V30 13408 C 1313.78 -1.33703 -1.57502 0
M  V30 13409 C 1314.19 0.0834961 -1.89016 0
M  V30 13410 O 1313.53 1.05107 -1.50659 0
M  V30 13411 C 1313.6 -2.09424 -2.92201 0
M  V30 13412 C 1313.26 -3.58507 -2.83411 0
M  V30 13413 C 1314.26 -4.52736 -2.5559 0
M  V30 13414 C 1311.94 -4.01405 -3.01959 0
M  V30 13415 C 1313.94 -5.87841 -2.46419 0
M  V30 13416 C 1311.62 -5.366 -2.92409 0
M  V30 13417 C 1312.62 -6.29631 -2.64677 0
M  V30 13418 O 1312.31 -7.62343 -2.55124 0
M  V30 13419 H 1312.04 -0.460221 -0.495149 0
M  V30 13420 H 1314.59 -1.80163 -0.986437 0
M  V30 13421 H 1312.82 -1.5763 -3.53114 0
M  V30 13422 H 1314.51 -1.99515 -3.53481 0
M  V30 13423 H 1315.28 -4.20906 -2.40962 0
M  V30 13424 H 1311.16 -3.29367 -3.2255 0
M  V30 13425 H 1314.7 -6.60423 -2.24694 0
M  V30 13426 H 1310.6 -5.68038 -3.066 0
M  V30 13427 H 1311.37 -7.72476 -2.70598 0
M  V30 13428 N 1314.03 1.01274 -1.20754 0
M  V30 13429 C 1315.26 1.78524 -1.04579 0
M  V30 13430 C 1315.67 1.84409 0.404809 0
M  V30 13431 O 1315.03 1.29987 1.281 0
M  V30 13432 C 1315.08 3.22806 -1.62722 0
M  V30 13433 O 1314.8 3.17276 -3.02106 0
M  V30 13434 C 1316.3 4.16589 -1.51553 0
M  V30 13435 H 1313.52 0.561299 -0.367674 0
M  V30 13436 H 1316.07 1.27454 -1.59924 0
M  V30 13437 H 1314.22 3.71011 -1.11487 0
M  V30 13438 H 1314.64 4.07866 -3.29766 0
M  V30 13439 H 1316.11 5.15654 -1.9699 0
M  V30 13440 H 1316.59 4.36692 -0.468659 0
M  V30 13441 H 1317.19 3.74269 -2.01998 0
M  V30 13442 N 1315.51 1.01404 1.20644 0
M  V30 13443 C 1316.44 0.526835 2.22035 0
M  V30 13444 C 1317.42 -0.424347 1.56965 0
M  V30 13445 O 1318.6 -0.344947 1.85317 0
M  V30 13446 C 1315.73 -0.233628 3.37893 0
M  V30 13447 C 1314.78 0.666719 4.21257 0
M  V30 13448 S 1315.61 2.13439 4.91125 0
M  V30 13449 C 1316.77 1.38402 6.10406 0
M  V30 13450 H 1317 1.38595 2.63018 0
M  V30 13451 H 1314.53 0.822723 1.30655 0
M  V30 13452 H 1316.49 -0.666289 4.05057 0
M  V30 13453 H 1315.15 -1.06828 2.95375 0
M  V30 13454 H 1314.34 0.0804713 5.03936 0
M  V30 13455 H 1313.95 1.03705 3.59335 0
M  V30 13456 H 1316.24 0.662667 6.74251 0
M  V30 13457 H 1317.18 2.18686 6.73485 0
M  V30 13458 H 1317.59 0.888021 5.57471 0
M  V30 13459 N 1316.99 -1.36373 0.789944 0
M  V30 13460 C 1318.24 -1.98834 0.361866 0
M  V30 13461 C 1318.56 -1.63006 -1.07024 0
M  V30 13462 O 1317.83 -0.904312 -1.73779 0
M  V30 13463 H 1316.41 -0.735457 0.130812 0
M  V30 13464 H 1319.07 -1.66561 1.0121 0
M  V30 13465 H 1318.16 -3.08778 0.454122 0
M  V30 13466 N 1318.47 -0.542005 -1.47987 0
M  V30 13467 C 1319.42 0.234244 -2.26794 0
M  V30 13468 C 1320.4 0.899085 -1.33436 0
M  V30 13469 O 1321.59 0.799904 -1.57894 0
M  V30 13470 C 1318.72 1.27312 -3.18821 0
M  V30 13471 C 1317.81 0.612457 -4.19654 0
M  V30 13472 N 1318.2 -0.30875 -5.04857 0
M  V30 13473 C 1316.5 0.868224 -4.37468 0
M  V30 13474 C 1317.2 -0.691052 -5.77581 0
M  V30 13475 N 1316.17 -0.0493574 -5.43578 0
M  V30 13476 H 1319.97 -0.47427 -2.90048 0
M  V30 13477 H 1317.49 -0.360868 -1.5834 0
M  V30 13478 H 1319.49 1.84305 -3.73948 0
M  V30 13479 H 1318.15 1.98288 -2.57122 0
M  V30 13480 H 1319.16 -0.682054 -5.13389 0
M  V30 13481 H 1315.83 1.56765 -3.86951 0
M  V30 13482 H 1317.22 -1.44713 -6.56131 0
M  V30 13483 N 1319.94 1.55134 -0.277709 0
M  V30 13484 C 1320.89 2.24057 0.624594 0
M  V30 13485 C 1321.89 1.23848 1.15577 0
M  V30 13486 O 1323.09 1.41771 1.1091 0
M  V30 13487 H 1319.47 0.719106 0.219977 0
M  V30 13488 H 1321.44 2.98393 0.0204815 0
M  V30 13489 C 1320.19 2.97712 1.79618 0
M  V30 13490 H 1319.51 3.74611 1.39665 0
M  V30 13491 H 1320.95 3.49255 2.4041 0
M  V30 13492 C 1319.41 2.03332 2.68622 0
M  V30 13493 O 1319.94 1.58622 3.69056 0
M  V30 13494 N 1318.14 1.69778 2.35847 0
M  V30 13495 H 1317.69 2.06333 1.54222 0
M  V30 13496 H 1317.65 1.06901 2.95668 0
M  V30 13497 N 1321.42 0.00503138 1.57599 0
M  V30 13498 C 1322.66 -0.683203 1.92644 0
M  V30 13499 C 1323.03 -1.70657 0.879778 0
M  V30 13500 O 1324.23 -2.44555 1.11563 0
M  V30 13501 C 1322.5 -1.30509 3.32719 0
M  V30 13502 S 1324.06 -2.01775 3.89657 0
M  V30 13503 H 1320.87 -0.225551 0.674276 0
M  V30 13504 H 1323.48 0.0629255 1.95399 0
M  V30 13505 H 1322.18 -0.547509 4.06731 0
M  V30 13506 H 1321.71 -2.08904 3.3335 0
M  V30 13507 H 1323.73 -3.29348 3.7114 0
M  V30 13508 N 1322.9 -1.55308 -0.267798 0
M  V30 13509 C 1323.81 -1.91649 -1.35307 0
M  V30 13510 C 1324.83 -0.814349 -1.53767 0
M  V30 13511 O 1326 -1.11388 -1.67793 0
M  V30 13512 C 1323.07 -2.18553 -2.69138 0
M  V30 13513 C 1322.13 -3.42083 -2.5938 0
M  V30 13514 C 1321.36 -3.67695 -3.86828 0
M  V30 13515 O 1321.58 -2.95728 -4.87751 0
M  V30 13516 O 1320.52 -4.61229 -3.86718 0
M  V30 13517 H 1324.34 -2.84044 -1.07483 0
M  V30 13518 H 1321.93 -1.41921 -0.466772 0
M  V30 13519 H 1323.81 -2.3726 -3.48261 0
M  V30 13520 H 1322.49 -1.2934 -2.96737 0
M  V30 13521 H 1321.39 -3.28706 -1.78614 0
M  V30 13522 H 1322.73 -4.31532 -2.36729 0
M  V30 13523 N 1324.38 0.532545 -1.4833 0
M  V30 13524 C 1325.79 0.860843 -1.34394 0
M  V30 13525 C 1325.99 1.98384 -0.353013 0
M  V30 13526 O 1325.05 2.5148 0.226688 0
M  V30 13527 C 1326.36 1.23079 -2.74358 0
M  V30 13528 C 1327.91 1.34082 -2.82827 0
M  V30 13529 C 1328.39 1.74421 -4.23487 0
M  V30 13530 N 1329.88 1.81528 -4.26148 0
M  V30 13531 C 1330.61 2.1412 -5.31921 0
M  V30 13532 N 1330.11 2.45154 -6.47975 0
M  V30 13533 N 1331.9 2.15104 -5.19314 0
M  V30 13534 H 1324.05 -0.208464 -2.11375 0
M  V30 13535 H 1326.31 -0.03062 -0.947505 0
M  V30 13536 H 1326.02 0.47926 -3.48419 0
M  V30 13537 H 1325.89 2.18151 -3.07718 0
M  V30 13538 H 1328.28 2.08311 -2.09022 0
M  V30 13539 H 1328.36 0.37137 -2.5309 0
M  V30 13540 H 1328.01 1.00752 -4.97807 0
M  V30 13541 H 1327.94 2.72411 -4.50666 0
M  V30 13542 H 1330.43 1.59832 -3.42436 0
M  V30 13543 H 1330.74 2.69121 -7.24426 0
M  V30 13544 H 1329.09 2.42679 -6.51254 0
M  V30 13545 H 1332.28 1.90315 -4.27666 0
M  V30 13546 H 1332.45 2.40173 -6.01848 0
M  V30 13547 N 1325.86 1.36875 0.78122 0
M  V30 13548 C 1327.1 1.32949 1.55254 0
M  V30 13549 C 1327.46 -0.0879862 1.91798 0
M  V30 13550 O 1328.66 -0.251878 2.67617 0
M  V30 13551 C 1326.93 2.23382 2.78989 0
M  V30 13552 S 1328.49 2.37218 3.69152 0
M  V30 13553 H 1325.31 0.472105 0.531637 0
M  V30 13554 H 1327.91 1.72529 0.91945 0
M  V30 13555 H 1326.61 3.25307 2.50207 0
M  V30 13556 H 1326.15 1.84852 3.47266 0
M  V30 13557 H 1328.16 1.57575 4.70515 0
M  V30 13558 N 1327.33 -1.00632 1.21289 0
M  V30 13559 C 1328.26 -2.11238 0.995021 0
M  V30 13560 C 1329.24 -1.69914 -0.0795537 0
M  V30 13561 O 1330.43 -1.94035 0.0800152 0
M  V30 13562 C 1327.56 -3.42797 0.557475 0
M  V30 13563 C 1326.51 -3.97909 1.57646 0
M  V30 13564 C 1325.84 -5.25357 0.995197 0
M  V30 13565 C 1327.14 -4.30123 2.96297 0
M  V30 13566 H 1328.83 -2.29722 1.9201 0
M  V30 13567 H 1326.38 -1.10395 0.924602 0
M  V30 13568 H 1328.33 -4.19571 0.392236 0
M  V30 13569 H 1327.06 -3.24101 -0.403253 0
M  V30 13570 H 1325.72 -3.23254 1.72924 0
M  V30 13571 H 1325.36 -5.02993 0.026227 0
M  V30 13572 H 1325.06 -5.63196 1.67583 0
M  V30 13573 H 1326.59 -6.04777 0.841251 0
M  V30 13574 H 1328 -4.97744 2.8447 0
M  V30 13575 H 1326.4 -4.79101 3.61361 0
M  V30 13576 H 1327.47 -3.38454 3.47242 0
M  V30 13577 N 1328.81 -1.02043 -1.20104 0
M  V30 13578 C 1329.77 -0.598682 -2.21243 0
M  V30 13579 C 1330.77 0.333205 -1.5731 0
M  V30 13580 O 1331.96 0.12137 -1.73777 0
M  V30 13581 C 1329.1 0.125183 -3.4067 0
M  V30 13582 H 1330.29 -1.49345 -2.60069 0
M  V30 13583 H 1327.84 -0.810649 -1.33634 0
M  V30 13584 H 1328.58 1.03469 -3.07351 0
M  V30 13585 H 1328.36 -0.544316 -3.88304 0
M  V30 13586 H 1329.85 0.407469 -4.15607 0
M  V30 13587 N 1330.29 1.35952 -0.797165 0
M  V30 13588 C 1331.54 1.98639 -0.372405 0
M  V30 13589 C 1331.86 1.63571 1.06158 0
M  V30 13590 O 1331.13 0.913516 1.73297 0
M  V30 13591 H 1329.71 0.734753 -0.13471 0
M  V30 13592 H 1332.37 1.66022 -1.02092 0
M  V30 13593 H 1331.47 3.08533 -0.47049 0
M  V30 13594 N 1331.77 0.549846 1.47697 0
M  V30 13595 C 1333 0.0276487 2.06581 0
M  V30 13596 C 1333.41 -1.26821 1.40403 0
M  V30 13597 O 1332.75 -1.76987 0.492073 0
M  V30 13598 C 1332.81 -0.246484 3.58654 0
M  V30 13599 C 1332.48 0.958843 4.46828 0
M  V30 13600 C 1333.47 1.86249 4.85394 0
M  V30 13601 C 1331.16 1.17144 4.88449 0
M  V30 13602 C 1333.15 2.96249 5.64372 0
M  V30 13603 C 1330.84 2.27454 5.67193 0
M  V30 13604 C 1331.84 3.16838 6.05064 0
M  V30 13605 O 1331.52 4.25237 6.82224 0
M  V30 13606 H 1331.26 0.0394446 0.674848 0
M  V30 13607 H 1333.81 0.760694 1.90795 0
M  V30 13608 H 1332.04 -1.03375 3.72627 0
M  V30 13609 H 1333.73 -0.713167 3.99586 0
M  V30 13610 H 1334.5 1.71027 4.53844 0
M  V30 13611 H 1330.37 0.484917 4.58443 0
M  V30 13612 H 1333.92 3.66043 5.9385 0
M  V30 13613 H 1329.82 2.42653 5.98155 0
M  V30 13614 H 1330.58 4.23193 7.00607 0
M  V30 13615 N 1333.25 -1.54984 0.285932 0
M  V30 13616 C 1334.48 -2.03943 -0.330295 0
M  V30 13617 C 1334.88 -1.16336 -1.49207 0
M  V30 13618 O 1334.23 -0.178341 -1.82832 0
M  V30 13619 C 1334.29 -3.48976 -0.863479 0
M  V30 13620 C 1333.95 -4.5668 0.171058 0
M  V30 13621 C 1334.95 -5.10303 0.994329 0
M  V30 13622 C 1332.64 -5.01352 0.308416 0
M  V30 13623 C 1334.63 -6.07126 1.94104 0
M  V30 13624 C 1332.32 -5.97999 1.25859 0
M  V30 13625 C 1333.31 -6.50768 2.0734 0
M  V30 13626 O 1333 -7.45524 3.00749 0
M  V30 13627 H 1332.73 -0.671491 -0.0779452 0
M  V30 13628 H 1335.29 -2.01081 0.419011 0
M  V30 13629 H 1333.52 -3.49113 -1.66305 0
M  V30 13630 H 1335.21 -3.81213 -1.39396 0
M  V30 13631 H 1335.97 -4.76595 0.899002 0
M  V30 13632 H 1331.85 -4.59917 -0.315817 0
M  V30 13633 H 1335.4 -6.48239 2.57743 0
M  V30 13634 H 1331.29 -6.31125 1.35469 0
M  V30 13635 H 1332.06 -7.63276 2.95554 0
M  V30 13636 N 1334.72 -0.0133892 -1.57594 0
M  V30 13637 C 1335.97 0.667313 -1.90765 0
M  V30 13638 C 1336.29 1.73564 -0.888847 0
M  V30 13639 O 1335.56 1.95768 0.0718946 0
M  V30 13640 H 1334.14 0.24947 -0.704112 0
M  V30 13641 H 1336.81 -0.0574789 -1.94815 0
M  V30 13642 H 1335.9 1.13007 -2.90922 0
M  V30 13643 N 1336.2 1.55448 0.259558 0
M  V30 13644 C 1337.48 1.6742 1.01143 0
M  V30 13645 C 1337.86 0.549525 2.03822 0
M  V30 13646 O 1337.21 -0.448699 2.24051 0
M  V30 13647 C 1337.42 3.07201 1.65616 0
M  V30 13648 C 1338.77 3.6539 2.16277 0
M  V30 13649 O 1339.79 3.0992 1.7558 0
M  V30 13650 O 1338.65 4.62604 2.90963 0
M  V30 13651 H 1335.74 0.680469 0.469991 0
M  V30 13652 H 1338.29 1.67783 0.254348 0
M  V30 13653 H 1337.06 3.80504 0.912819 0
M  V30 13654 H 1336.68 3.10794 2.47977 0
M  V30 13655 N 1337.68 -0.524672 1.4861 0
M  V30 13656 C 1339.09 -1.10655 1.50374 0
M  V30 13657 C 1339.44 -1.94242 0.276512 0
M  V30 13658 O 1338.57 -2.07451 -0.615887 0
M  V30 13659 C 1339.16 -2.01348 2.72478 0
M  V30 13660 C 1337.72 -2.54743 2.77097 0
M  V30 13661 C 1336.87 -1.31822 2.43964 0
M  V30 13662 H 1339.82 -0.309674 1.55649 0
M  V30 13663 H 1339.84 -2.85709 2.51297 0
M  V30 13664 H 1339.35 -1.40485 3.61781 0
M  V30 13665 H 1337.45 -3.19313 1.92016 0
M  V30 13666 H 1337.57 -2.93514 3.78664 0
M  V30 13667 H 1335.93 -1.63574 1.95233 0
M  V30 13668 H 1336.71 -0.727026 3.35513 0
M  V30 13669 N 1339.16 -1.37287 -0.77395 0
M  V30 13670 C 1340.41 -1.31698 -1.52769 0
M  V30 13671 C 1340.72 0.0968585 -1.9536 0
M  V30 13672 O 1341.93 0.275205 -2.70102 0
M  V30 13673 C 1340.38 -2.31154 -2.75854 0
M  V30 13674 C 1339.99 -3.78055 -2.40371 0
M  V30 13675 C 1341.73 -2.34572 -3.53803 0
M  V30 13676 C 1339.64 -4.69248 -3.59945 0
M  V30 13677 H 1338.57 -0.489456 -0.573541 0
M  V30 13678 H 1341.22 -1.62735 -0.84791 0
M  V30 13679 H 1339.6 -1.93132 -3.45711 0
M  V30 13680 H 1340.78 -4.24902 -1.78312 0
M  V30 13681 H 1339.09 -3.77562 -1.75602 0
M  V30 13682 H 1341.69 -2.99908 -4.42673 0
M  V30 13683 H 1342.03 -1.35868 -3.93504 0
M  V30 13684 H 1342.57 -2.7129 -2.90941 0
M  V30 13685 H 1339.31 -5.69072 -3.25327 0
M  V30 13686 H 1338.83 -4.27108 -4.21117 0
M  V30 13687 H 1340.5 -4.86275 -4.26785 0
M  V30 13688 N 1340.64 0.999871 -1.21821 0
M  V30 13689 C 1341.89 1.73257 -1.03271 0
M  V30 13690 C 1342.2 1.90736 0.433502 0
M  V30 13691 O 1343.4 2.61263 0.738511 0
M  V30 13692 C 1341.86 3.11697 -1.79925 0
M  V30 13693 C 1341.47 3.02173 -3.3075 0
M  V30 13694 C 1343.21 3.89061 -1.698 0
M  V30 13695 C 1341.12 4.35725 -3.99872 0
M  V30 13696 H 1340.05 0.649595 -0.382809 0
M  V30 13697 H 1342.7 1.11676 -1.45605 0
M  V30 13698 H 1341.08 3.73919 -1.30386 0
M  V30 13699 H 1342.26 2.49158 -3.8763 0
M  V30 13700 H 1340.57 2.38296 -3.41473 0
M  V30 13701 H 1343.17 4.87897 -2.1877 0
M  V30 13702 H 1343.51 4.11081 -0.657148 0
M  V30 13703 H 1344.04 3.33502 -2.16844 0
M  V30 13704 H 1340.78 4.18906 -5.04181 0
M  V30 13705 H 1340.3 4.8868 -3.47781 0
M  V30 13706 H 1341.98 5.04503 -4.05075 0
M  V30 13707 N 1342.11 1.02678 1.19562 0
M  V30 13708 C 1343.36 0.72059 1.88817 0
M  V30 13709 C 1343.68 -0.752942 1.79877 0
M  V30 13710 O 1342.95 -1.54233 1.20785 0
M  V30 13711 H 1341.53 0.26355 0.698964 0
M  V30 13712 H 1344.2 1.30056 1.4516 0
M  V30 13713 H 1343.29 1.01303 2.95202 0
M  V30 13714 N 1343.59 -1.35528 0.804364 0
M  V30 13715 C 1344.82 -2.03604 0.395013 0
M  V30 13716 C 1345.24 -1.60225 -0.985371 0
M  V30 13717 O 1344.6 -0.777844 -1.63766 0
M  V30 13718 C 1344.65 -3.57337 0.484011 0
M  V30 13719 O 1343.75 -4.09316 -0.503395 0
M  V30 13720 H 1343.09 -0.643089 0.165325 0
M  V30 13721 H 1345.62 -1.73171 1.08963 0
M  V30 13722 H 1345.63 -4.0647 0.353009 0
M  V30 13723 H 1344.31 -3.8826 1.49088 0
M  V30 13724 H 1342.89 -3.71412 -0.332817 0
M  V30 13725 N 1345.07 -0.557671 -1.47404 0
M  V30 13726 C 1346.32 -0.0337216 -2.02072 0
M  V30 13727 C 1346.64 1.32106 -1.43433 0
M  V30 13728 O 1345.91 1.86171 -0.609692 0
M  V30 13729 H 1344.49 -0.00947648 -0.74694 0
M  V30 13730 H 1347.15 -0.727784 -1.80802 0
M  V30 13731 H 1346.25 0.0540331 -3.12053 0
M  V30 13732 N 1346.55 1.54831 -0.294147 0
M  V30 13733 C 1347.83 1.92071 0.369902 0
M  V30 13734 C 1348.21 1.22061 1.72233 0
M  V30 13735 O 1347.55 0.353975 2.25742 0
M  V30 13736 C 1347.76 3.45524 0.49135 0
M  V30 13737 C 1349.11 4.17644 0.765411 0
M  V30 13738 O 1350.14 3.51521 0.575428 0
M  V30 13739 O 1349 5.34692 1.12992 0
M  V30 13740 H 1346.09 0.801033 0.20561 0
M  V30 13741 H 1348.64 1.66224 -0.341702 0
M  V30 13742 H 1347.41 3.88591 -0.459663 0
M  V30 13743 H 1347.03 3.77384 1.25169 0
M  V30 13744 N 1348.03 0.0217466 1.57585 0
M  V30 13745 C 1348.98 -0.971557 2.06264 0
M  V30 13746 C 1349.96 -1.29 0.961656 0
M  V30 13747 O 1351.15 -1.27734 1.22527 0
M  V30 13748 C 1348.28 -2.25643 2.58728 0
M  V30 13749 C 1347.37 -1.96668 3.75743 0
M  V30 13750 N 1347.76 -1.37933 4.86629 0
M  V30 13751 C 1346.06 -2.26698 3.84088 0
M  V30 13752 C 1346.76 -1.25923 5.67907 0
M  V30 13753 N 1345.73 -1.75224 5.14585 0
M  V30 13754 H 1349.54 -0.512285 2.89401 0
M  V30 13755 H 1347.05 -0.183446 1.61361 0
M  V30 13756 H 1349.05 -2.97668 2.91889 0
M  V30 13757 H 1347.71 -2.72204 1.77018 0
M  V30 13758 H 1348.72 -1.05529 5.07034 0
M  V30 13759 H 1345.4 -2.75983 3.13272 0
M  V30 13760 H 1346.79 -0.805687 6.67052 0
M  V30 13761 N 1349.51 -1.55583 -0.251311 0
M  V30 13762 C 1350.75 -1.7897 -0.987372 0
M  V30 13763 C 1351.11 -0.590559 -1.82692 0
M  V30 13764 O 1352.31 -0.703109 -2.59441 0
M  V30 13765 C 1350.58 -3.07069 -1.82876 0
M  V30 13766 S 1352.14 -3.51659 -2.62452 0
M  V30 13767 H 1348.96 -0.628624 -0.332194 0
M  V30 13768 H 1351.56 -1.93821 -0.255653 0
M  V30 13769 H 1350.26 -3.92415 -1.20161 0
M  V30 13770 H 1349.8 -2.94943 -2.60331 0
M  V30 13771 H 1351.81 -3.12644 -3.85316 0
M  V30 13772 N 1350.98 0.516783 -1.48886 0
M  V30 13773 C 1352.4 0.84654 -1.35299 0
M  V30 13774 C 1352.6 1.97998 -0.374035 0
M  V30 13775 O 1351.66 2.51707 0.200003 0
M  V30 13776 C 1352.97 1.20162 -2.75648 0
M  V30 13777 C 1354.52 1.31074 -2.84233 0
M  V30 13778 C 1354.99 1.69919 -4.25313 0
M  V30 13779 N 1356.48 1.76998 -4.28049 0
M  V30 13780 C 1357.22 2.08466 -5.34162 0
M  V30 13781 N 1356.71 2.38268 -6.50538 0
M  V30 13782 N 1358.51 2.09584 -5.21566 0
M  V30 13783 H 1350.66 -0.230871 -2.11142 0
M  V30 13784 H 1352.92 -0.0406678 -0.947127 0
M  V30 13785 H 1352.63 0.442278 -3.48908 0
M  V30 13786 H 1352.5 2.14875 -3.10014 0
M  V30 13787 H 1354.89 2.06083 -2.1122 0
M  V30 13788 H 1354.97 0.344506 -2.5347 0
M  V30 13789 H 1354.61 0.954667 -4.98847 0
M  V30 13790 H 1354.54 2.67616 -4.5353 0
M  V30 13791 H 1357.03 1.56191 -3.44112 0
M  V30 13792 H 1357.35 2.61423 -7.2724 0
M  V30 13793 H 1355.69 2.35758 -6.53791 0
M  V30 13794 H 1358.88 1.85768 -4.2966 0
M  V30 13795 H 1359.06 2.33776 -6.04362 0
M  V30 13796 N 1352.46 1.37696 0.766659 0
M  V30 13797 C 1353.87 1.29668 1.34324 0
M  V30 13798 C 1354.22 -0.0534297 1.96127 0
M  V30 13799 O 1353.35 -0.95534 1.94171 0
M  V30 13800 C 1353.94 2.34818 2.44225 0
M  V30 13801 C 1352.5 2.3041 2.97638 0
M  V30 13802 C 1351.65 2.18378 1.70899 0
M  V30 13803 H 1354.6 1.48244 0.566526 0
M  V30 13804 H 1354.62 1.99778 3.23835 0
M  V30 13805 H 1354.13 3.3307 1.99214 0
M  V30 13806 H 1352.23 1.35698 3.47011 0
M  V30 13807 H 1352.35 3.24028 3.52906 0
M  V30 13808 H 1350.71 1.65008 1.94021 0
M  V30 13809 H 1351.49 3.18551 1.27985 0
M  V30 13810 N 1353.94 -0.993397 1.22349 0
M  V30 13811 C 1355.18 -1.74807 1.05933 0
M  V30 13812 C 1355.54 -1.87815 -0.398702 0
M  V30 13813 O 1356.74 -2.5996 -0.683703 0
M  V30 13814 C 1355.02 -3.11601 1.75042 0
M  V30 13815 S 1356.57 -4.02813 1.74032 0
M  V30 13816 H 1353.39 -0.601331 0.379371 0
M  V30 13817 H 1355.99 -1.18777 1.55282 0
M  V30 13818 H 1354.7 -2.99775 2.80291 0
M  V30 13819 H 1354.23 -3.72703 1.25922 0
M  V30 13820 H 1356.24 -4.89876 0.789658 0
M  V30 13821 N 1355.42 -1.03311 -1.19015 0
M  V30 13822 C 1356.83 -0.761079 -1.70483 0
M  V30 13823 C 1357.18 0.718851 -1.82557 0
M  V30 13824 O 1356.3 1.56006 -1.4997 0
M  V30 13825 C 1356.9 -1.37492 -3.09647 0
M  V30 13826 C 1355.46 -1.15138 -3.58358 0
M  V30 13827 C 1354.61 -1.47034 -2.35109 0
M  V30 13828 H 1357.56 -1.2005 -1.03797 0
M  V30 13829 H 1357.58 -0.774115 -3.72542 0
M  V30 13830 H 1357.09 -2.45203 -3.00828 0
M  V30 13831 H 1355.19 -0.0926822 -3.72485 0
M  V30 13832 H 1355.3 -1.84307 -4.4223 0
M  V30 13833 H 1353.67 -0.889794 -2.38652 0
M  V30 13834 H 1354.45 -2.55837 -2.28916 0
M  V30 13835 N 1356.9 1.35099 -0.81154 0
M  V30 13836 C 1358.14 2.00449 -0.399935 0
M  V30 13837 C 1358.5 1.62971 1.0151 0
M  V30 13838 O 1359.7 2.21078 1.52898 0
M  V30 13839 C 1357.97 3.52608 -0.583277 0
M  V30 13840 S 1359.53 4.38012 -0.26283 0
M  V30 13841 H 1356.35 0.69464 -0.151644 0
M  V30 13842 H 1358.95 1.64599 -1.05487 0
M  V30 13843 H 1357.65 3.77372 -1.61303 0
M  V30 13844 H 1357.19 3.93304 0.0868032 0
M  V30 13845 H 1359.2 4.87451 0.927696 0
M  V30 13846 N 1358.37 0.56548 1.47106 0
M  V30 13847 C 1359.78 0.134289 1.86216 0
M  V30 13848 C 1360.14 -1.29815 1.47114 0
M  V30 13849 O 1359.26 -1.97787 0.878017 0
M  V30 13850 C 1359.86 0.236931 3.37971 0
M  V30 13851 C 1358.41 -0.139275 3.76142 0
M  V30 13852 C 1357.56 0.580743 2.71151 0
M  V30 13853 H 1360.51 0.774723 1.38505 0
M  V30 13854 H 1360.53 -0.542301 3.76616 0
M  V30 13855 H 1360.05 1.27958 3.66399 0
M  V30 13856 H 1358.15 -1.18272 3.53331 0
M  V30 13857 H 1358.26 0.225045 4.78571 0
M  V30 13858 H 1356.62 0.0228963 2.5469 0
M  V30 13859 H 1357.41 1.62471 3.0242 0
M  V30 13860 N 1359.85 -1.54672 0.302354 0
M  V30 13861 C 1361.13 -1.92264 -0.359711 0
M  V30 13862 C 1361.51 -1.22973 -1.71583 0
M  V30 13863 O 1360.86 -0.365942 -2.25551 0
M  V30 13864 C 1361.07 -3.4578 -0.473019 0
M  V30 13865 C 1362.42 -4.18044 -0.743252 0
M  V30 13866 O 1363.44 -3.51822 -0.556778 0
M  V30 13867 O 1362.3 -5.35283 -1.10155 0
M  V30 13868 H 1359.39 -0.802112 -0.201359 0
M  V30 13869 H 1361.94 -1.66041 0.350513 0
M  V30 13870 H 1360.71 -3.88342 0.480265 0
M  V30 13871 H 1360.33 -3.78042 -1.23166 0
M  V30 13872 N 1361.33 -0.0301034 -1.57571 0
M  V30 13873 C 1362.58 0.647042 -1.91462 0
M  V30 13874 C 1362.9 1.72612 -0.907206 0
M  V30 13875 O 1362.17 1.95833 0.0511268 0
M  V30 13876 H 1360.75 0.241988 -0.706718 0
M  V30 13877 H 1363.41 -0.0781385 -1.94743 0
M  V30 13878 H 1362.51 1.09915 -2.92105 0
M  V30 13879 N 1362.81 1.55714 0.243056 0
M  V30 13880 C 1364.22 1.68126 0.811814 0
M  V30 13881 C 1364.57 0.628259 1.85869 0
M  V30 13882 O 1363.7 -0.224747 2.1523 0
M  V30 13883 C 1364.29 3.048 1.47928 0
M  V30 13884 C 1362.85 3.19138 1.99569 0
M  V30 13885 C 1362 2.64011 0.848149 0
M  V30 13886 H 1364.95 1.58689 0.0187918 0
M  V30 13887 H 1364.97 2.99459 2.34743 0
M  V30 13888 H 1364.48 3.81417 0.717106 0
M  V30 13889 H 1362.58 2.4735 2.78655 0
M  V30 13890 H 1362.69 4.26095 2.19043 0
M  V30 13891 H 1361.06 2.21934 1.2497 0
M  V30 13892 H 1361.84 3.43157 0.0989987 0
M  V30 13893 N 1364.29 -0.50888 1.49158 0
M  V30 13894 C 1365.56 -1.27021 1.48745 0
M  V30 13895 C 1365.94 -2.10045 0.210772 0
M  V30 13896 O 1365.29 -2.13773 -0.807061 0
M  V30 13897 C 1365.5 -2.13367 2.76181 0
M  V30 13898 C 1366.85 -2.72815 3.25357 0
M  V30 13899 O 1367.87 -2.23639 2.77243 0
M  V30 13900 O 1366.73 -3.62316 4.09133 0
M  V30 13901 H 1363.83 -0.574387 0.594986 0
M  V30 13902 H 1366.37 -0.523798 1.61414 0
M  V30 13903 H 1365.14 -1.51941 3.60596 0
M  V30 13904 H 1364.77 -2.95215 2.66334 0
M  V30 13905 N 1365.76 -1.381 -0.759346 0
M  V30 13906 C 1366.99 -1.37389 -1.55367 0
M  V30 13907 C 1367.41 0.0356097 -1.88066 0
M  V30 13908 O 1366.77 1.0161 -1.5015 0
M  V30 13909 C 1366.82 -2.23098 -2.83302 0
M  V30 13910 O 1365.92 -1.64412 -3.7821 0
M  V30 13911 H 1365.27 -0.468894 -0.470143 0
M  V30 13912 H 1367.8 -1.81787 -0.938858 0
M  V30 13913 H 1367.81 -2.36753 -3.32283 0
M  V30 13914 H 1366.48 -3.25544 -2.58831 0
M  V30 13915 H 1365.06 -1.59867 -3.36893 0
M  V30 13916 N 1367.24 0.986894 -1.22875 0
M  V30 13917 C 1368.49 1.72388 -1.05484 0
M  V30 13918 C 1368.81 1.90639 0.410074 0
M  V30 13919 O 1368.08 1.47036 1.2945 0
M  V30 13920 H 1366.66 0.638732 -0.387337 0
M  V30 13921 H 1369.32 1.18829 -1.54485 0
M  V30 13922 H 1368.42 2.71599 -1.53754 0
M  V30 13923 N 1368.72 1.0394 1.18466 0
M  V30 13924 C 1370.14 0.758404 1.40429 0
M  V30 13925 C 1370.34 -0.652603 1.90639 0
M  V30 13926 O 1369.39 -1.417 2.08991 0
M  V30 13927 C 1370.71 1.80343 2.40618 0
M  V30 13928 C 1372.25 1.82419 2.54347 0
M  V30 13929 C 1372.73 2.8591 3.57798 0
M  V30 13930 N 1374.22 2.84793 3.65304 0
M  V30 13931 C 1374.95 3.61521 4.45073 0
M  V30 13932 N 1374.45 4.47997 5.28461 0
M  V30 13933 N 1376.24 3.50016 4.39824 0
M  V30 13934 H 1368.39 1.94998 0.842 0
M  V30 13935 H 1370.66 0.843649 0.43239 0
M  V30 13936 H 1370.36 2.81547 2.10771 0
M  V30 13937 H 1370.24 1.63451 3.39947 0
M  V30 13938 H 1372.62 0.818872 2.83511 0
M  V30 13939 H 1372.71 2.03388 1.55136 0
M  V30 13940 H 1372.35 3.8662 3.29375 0
M  V30 13941 H 1372.28 2.62196 4.56684 0
M  V30 13942 H 1374.77 2.22082 3.05758 0
M  V30 13943 H 1375.08 5.03257 5.86475 0
M  V30 13944 H 1373.43 4.52065 5.27885 0
M  V30 13945 H 1376.62 2.81862 3.73726 0
M  V30 13946 H 1376.79 4.10063 5.0175 0
M  V30 13947 N 1370.2 -1.34667 0.818693 0
M  V30 13948 C 1371.13 -2.28368 0.195126 0
M  V30 13949 C 1372.14 -1.50836 -0.612562 0
M  V30 13950 O 1373.33 -1.72917 -0.442936 0
M  V30 13951 C 1370.43 -3.30601 -0.745411 0
M  V30 13952 C 1369.61 -4.37396 0.0185308 0
M  V30 13953 C 1368.66 -5.19415 -0.842298 0
M  V30 13954 O 1367.69 -5.68467 -0.288821 0
M  V30 13955 N 1368.89 -5.38709 -2.1627 0
M  V30 13956 H 1371.66 -2.8252 1.00013 0
M  V30 13957 H 1369.22 -1.47146 0.675262 0
M  V30 13958 H 1371.21 -3.82367 -1.3258 0
M  V30 13959 H 1369.78 -2.76875 -1.45118 0
M  V30 13960 H 1369 -3.86402 0.780205 0
M  V30 13961 H 1370.29 -5.05877 0.544575 0
M  V30 13962 H 1369.69 -5.00523 -2.63616 0
M  V30 13963 H 1368.24 -5.9361 -2.69204 0
M  V30 13964 N 1371.68 -0.573274 -1.46804 0
M  V30 13965 C 1372.92 -0.0552613 -2.02425 0
M  V30 13966 C 1373.25 1.30098 -1.44585 0
M  V30 13967 O 1372.51 1.86366 -0.597166 0
M  V30 13968 C 1372.81 0.0704285 -3.57331 0
M  V30 13969 C 1372.47 -1.217 -4.34166 0
M  V30 13970 C 1371.13 -1.56973 -4.54877 0
M  V30 13971 C 1373.49 -2.06939 -4.78357 0
M  V30 13972 C 1370.81 -2.77302 -5.1703 0
M  V30 13973 C 1373.17 -3.26486 -5.41839 0
M  V30 13974 C 1371.83 -3.62053 -5.6078 0
M  V30 13975 H 1371.1 -0.0202215 -0.740724 0
M  V30 13976 H 1373.75 -0.748016 -1.76287 0
M  V30 13977 H 1372.05 0.846254 -3.82552 0
M  V30 13978 H 1373.75 0.486841 -3.98034 0
M  V30 13979 H 1370.34 -0.932374 -4.18336 0
M  V30 13980 H 1374.52 -1.80992 -4.62121 0
M  V30 13981 H 1369.78 -3.05008 -5.29887 0
M  V30 13982 H 1373.95 -3.92811 -5.75042 0
M  V30 13983 H 1371.58 -4.55385 -6.08711 0
M  V30 13984 N 1373.15 1.5451 -0.310553 0
M  V30 13985 C 1374.12 2.2254 0.548489 0
M  V30 13986 C 1375.12 1.21456 1.05381 0
M  V30 13987 O 1376.31 1.46126 0.948311 0
M  V30 13988 C 1373.44 2.91927 1.76043 0
M  V30 13989 H 1374.63 2.99865 -0.0460306 0
M  V30 13990 H 1372.19 1.56179 -0.061487 0
M  V30 13991 H 1372.92 2.18706 2.39454 0
M  V30 13992 H 1372.71 3.66038 1.40564 0
M  V30 13993 H 1374.2 3.43797 2.37051 0
M  V30 13994 N 1374.63 0.0384594 1.57553 0
M  V30 13995 C 1376.05 -0.318006 1.564 0
M  V30 13996 C 1376.25 -1.72287 1.04496 0
M  V30 13997 O 1375.31 -2.42722 0.695861 0
M  V30 13998 C 1376.62 -0.158079 3.00284 0
M  V30 13999 C 1378.17 -0.230143 3.12153 0
M  V30 14000 C 1378.64 -0.0988948 4.57893 0
M  V30 14001 N 1380.13 -0.15558 4.62939 0
M  V30 14002 C 1380.87 -0.077948 5.73347 0
M  V30 14003 N 1380.36 0.0513054 6.92781 0
M  V30 14004 N 1382.16 -0.132612 5.61944 0
M  V30 14005 H 1374.31 0.957014 1.89618 0
M  V30 14006 H 1376.57 0.370396 0.872646 0
M  V30 14007 H 1376.28 0.810032 3.42245 0
M  V30 14008 H 1376.15 -0.924413 3.65697 0
M  V30 14009 H 1378.54 -1.18872 2.70099 0
M  V30 14010 H 1378.62 0.56673 2.49443 0
M  V30 14011 H 1378.26 0.856301 5.00629 0
M  V30 14012 H 1378.19 -0.91475 5.18594 0
M  V30 14013 H 1380.68 -0.255245 3.77037 0
M  V30 14014 H 1381 0.103595 7.72731 0
M  V30 14015 H 1379.34 0.0862166 6.94947 0
M  V30 14016 H 1382.53 -0.232056 4.67524 0
M  V30 14017 H 1382.71 -0.0686506 6.47964 0
M  V30 14018 N 1376.11 -1.55841 -0.234795 0
M  V30 14019 C 1377.34 -1.82649 -0.982547 0
M  V30 14020 C 1377.76 -0.617097 -1.77689 0
M  V30 14021 O 1377.12 0.434022 -1.76028 0
M  V30 14022 C 1377.17 -3.07319 -1.88646 0
M  V30 14023 O 1376.27 -2.85084 -2.97995 0
M  V30 14024 H 1375.61 -0.60257 -0.278936 0
M  V30 14025 H 1378.14 -2.03041 -0.252117 0
M  V30 14026 H 1378.15 -3.37073 -2.29882 0
M  V30 14027 H 1376.83 -3.94978 -1.30251 0
M  V30 14028 H 1375.4 -2.66528 -2.60801 0
M  V30 14029 N 1377.59 0.500963 -1.49426 0
M  V30 14030 C 1378.83 1.26526 -1.60532 0
M  V30 14031 C 1379.19 1.89864 -0.28562 0
M  V30 14032 O 1380.39 2.67422 -0.271868 0
M  V30 14033 C 1378.67 2.30375 -2.73244 0
M  V30 14034 S 1380.22 3.16143 -3.04301 0
M  V30 14035 H 1377.04 0.429994 -0.566238 0
M  V30 14036 H 1379.64 0.567427 -1.87084 0
M  V30 14037 H 1378.35 1.82373 -3.67652 0
M  V30 14038 H 1377.88 3.04827 -2.48685 0
M  V30 14039 H 1379.89 4.31027 -2.45826 0
M  V30 14040 N 1379.07 1.38501 0.752011 0
M  V30 14041 C 1380.3 1.37832 1.53902 0
M  V30 14042 C 1380.71 -0.0333526 1.89171 0
M  V30 14043 O 1380.05 -1.01076 1.53393 0
M  V30 14044 C 1380.11 2.17098 2.86546 0
M  V30 14045 C 1379.77 3.65895 2.73807 0
M  V30 14046 C 1380.77 4.59353 2.43497 0
M  V30 14047 C 1378.46 4.0927 2.9121 0
M  V30 14048 C 1380.45 5.94167 2.30746 0
M  V30 14049 C 1378.14 5.44165 2.78079 0
M  V30 14050 C 1379.14 6.36427 2.47891 0
M  V30 14051 O 1378.82 7.68839 2.34822 0
M  V30 14052 H 1378.56 0.473187 0.482773 0
M  V30 14053 H 1381.11 1.82715 0.938324 0
M  V30 14054 H 1379.34 1.66936 3.48811 0
M  V30 14055 H 1381.03 2.08817 3.48067 0
M  V30 14056 H 1381.79 4.27147 2.29718 0
M  V30 14057 H 1377.67 3.37803 3.13704 0
M  V30 14058 H 1381.22 6.66148 2.07105 0
M  V30 14059 H 1377.11 5.75967 2.91432 0
M  V30 14060 H 1377.88 7.79379 2.50022 0
M  V30 14061 N 1380.55 -0.980364 1.23396 0
M  V30 14062 C 1381.48 -2.07522 0.972991 0
M  V30 14063 C 1382.49 -1.62714 -0.0530191 0
M  V30 14064 O 1383.68 -1.77564 0.182513 0
M  V30 14065 C 1380.78 -3.35977 0.444126 0
M  V30 14066 C 1379.95 -4.09756 1.53031 0
M  V30 14067 C 1379.01 -5.16488 1.00631 0
M  V30 14068 O 1378.04 -5.43368 1.69529 0
M  V30 14069 N 1379.24 -5.80263 -0.165842 0
M  V30 14070 H 1382 -2.30487 1.91561 0
M  V30 14071 H 1379.57 -1.14706 1.14255 0
M  V30 14072 H 1381.56 -4.04624 0.078617 0
M  V30 14073 H 1380.13 -3.0998 -0.403912 0
M  V30 14074 H 1379.35 -3.35564 2.06858 0
M  V30 14075 H 1380.64 -4.55815 2.26076 0
M  V30 14076 H 1380.03 -5.60811 -0.742162 0
M  V30 14077 H 1378.59 -6.50084 -0.472614 0
M  V30 14078 N 1382.02 -1.04567 -1.17913 0
M  V30 14079 C 1383.3 -0.666082 -1.8391 0
M  V30 14080 C 1383.68 0.854062 -1.93052 0
M  V30 14081 O 1383.03 1.75752 -1.46026 0
M  V30 14082 C 1383.24 -1.34776 -3.21926 0
M  V30 14083 C 1384.59 -1.48177 -3.97905 0
M  V30 14084 O 1385.61 -1.30627 -3.31384 0
M  V30 14085 O 1384.47 -1.76822 -5.17104 0
M  V30 14086 H 1381.56 -0.233694 -0.793294 0
M  V30 14087 H 1384.11 -1.14487 -1.25263 0
M  V30 14088 H 1382.88 -2.38514 -3.10204 0
M  V30 14089 H 1382.5 -0.857914 -3.88234 0
M  V30 14090 N 1383.5 1.34231 -0.825823 0
M  V30 14091 C 1384.91 1.8059 -0.473724 0
M  V30 14092 C 1385.26 1.68438 1.00614 0
M  V30 14093 O 1384.39 1.22606 1.78317 0
M  V30 14094 C 1384.98 3.27884 -0.853099 0
M  V30 14095 C 1383.54 3.72311 -0.553327 0
M  V30 14096 C 1382.69 2.55889 -1.06845 0
M  V30 14097 H 1385.64 1.21937 -1.01573 0
M  V30 14098 H 1385.66 3.80172 -0.158014 0
M  V30 14099 H 1385.17 3.36696 -1.93021 0
M  V30 14100 H 1383.27 3.69034 0.514256 0
M  V30 14101 H 1383.39 4.66315 -1.09942 0
M  V30 14102 H 1381.75 2.49945 -0.489874 0
M  V30 14103 H 1382.53 2.67471 -2.15207 0
M  V30 14104 N 1384.98 0.581051 1.46498 0
M  V30 14105 C 1386.23 0.0660934 2.02692 0
M  V30 14106 C 1386.56 -1.28985 1.45178 0
M  V30 14107 O 1385.83 -1.84479 0.616247 0
M  V30 14108 C 1386.12 -0.00145411 3.601 0
M  V30 14109 C 1385.97 1.38327 4.28002 0
M  V30 14110 C 1387.29 -0.702914 4.3445 0
M  V30 14111 H 1384.41 0.0254923 0.736559 0
M  V30 14112 H 1387.05 0.74793 1.7466 0
M  V30 14113 H 1385.2 -0.582118 3.84114 0
M  V30 14114 H 1386.87 2.00897 4.15257 0
M  V30 14115 H 1385.11 1.95144 3.87429 0
M  V30 14116 H 1385.79 1.28849 5.36751 0
M  V30 14117 H 1388.26 -0.209641 4.15572 0
M  V30 14118 H 1387.14 -0.719202 5.44168 0
M  V30 14119 H 1387.4 -1.76389 4.05388 0
M  V30 14120 N 1386.46 -1.54343 0.318742 0
M  V30 14121 C 1387.69 -2.04894 -0.287378 0
M  V30 14122 C 1388.1 -1.19514 -1.46157 0
M  V30 14123 O 1387.46 -0.224722 -1.81111 0
M  V30 14124 C 1387.51 -3.54124 -0.726505 0
M  V30 14125 O 1387.23 -4.36261 0.400968 0
M  V30 14126 C 1388.73 -4.20748 -1.39594 0
M  V30 14127 H 1385.95 -0.668323 -0.0598724 0
M  V30 14128 H 1388.49 -1.99177 0.463531 0
M  V30 14129 H 1386.65 -3.60145 -1.4274 0
M  V30 14130 H 1387.06 -5.2447 0.0558714 0
M  V30 14131 H 1388.54 -5.26632 -1.65418 0
M  V30 14132 H 1389.01 -3.71566 -2.3417 0
M  V30 14133 H 1389.62 -4.18852 -0.737749 0
M  V30 14134 N 1387.94 -0.0468143 -1.5753 0
M  V30 14135 C 1388.87 0.927092 -2.14306 0
M  V30 14136 C 1389.85 1.32745 -1.06362 0
M  V30 14137 O 1391.03 1.40293 -1.34281 0
M  V30 14138 C 1388.16 2.20343 -2.68452 0
M  V30 14139 C 1387.12 1.94328 -3.81341 0
M  V30 14140 C 1386.44 3.28379 -4.21985 0
M  V30 14141 C 1387.74 1.26835 -5.06666 0
M  V30 14142 H 1389.44 0.454199 -2.95935 0
M  V30 14143 H 1386.98 0.217029 -1.42355 0
M  V30 14144 H 1388.93 2.8887 -3.0681 0
M  V30 14145 H 1387.66 2.6983 -1.84009 0
M  V30 14146 H 1386.32 1.28214 -3.43448 0
M  V30 14147 H 1385.97 3.75658 -3.34499 0
M  V30 14148 H 1385.67 3.11772 -4.98068 0
M  V30 14149 H 1387.19 3.98145 -4.6294 0
M  V30 14150 H 1388.6 1.85389 -5.42498 0
M  V30 14151 H 1387 1.20569 -5.87863 0
M  V30 14152 H 1388.07 0.243759 -4.84287 0
M  V30 14153 N 1389.41 1.55964 0.226527 0
M  V30 14154 C 1390.35 1.88487 1.30405 0
M  V30 14155 C 1391.36 0.772723 1.43293 0
M  V30 14156 O 1392.55 1.05099 1.44279 0
M  V30 14157 C 1389.65 2.074 2.68027 0
M  V30 14158 C 1388.82 3.38389 2.77149 0
M  V30 14159 C 1387.88 3.46795 3.95752 0
M  V30 14160 O 1386.91 4.19862 3.84323 0
M  V30 14161 N 1388.11 2.77573 5.09836 0
M  V30 14162 H 1390.87 2.81506 1.02833 0
M  V30 14163 H 1388.43 1.56449 0.416581 0
M  V30 14164 H 1390.43 2.10344 3.45742 0
M  V30 14165 H 1389 1.2103 2.8822 0
M  V30 14166 H 1388.22 3.47586 1.8595 0
M  V30 14167 H 1389.5 4.24688 2.8021 0
M  V30 14168 H 1388.9 2.17979 5.22017 0
M  V30 14169 H 1387.46 2.86185 5.85612 0
M  V30 14170 N 1390.89 -0.493031 1.4969 0
M  V30 14171 C 1391.82 -1.60215 1.69863 0
M  V30 14172 C 1392.8 -1.61053 0.547362 0
M  V30 14173 O 1393.99 -1.77667 0.784093 0
M  V30 14174 C 1391.12 -2.98662 1.77252 0
M  V30 14175 C 1390.07 -3.1269 2.92248 0
M  V30 14176 C 1389.4 -4.52567 2.84758 0
M  V30 14177 C 1390.7 -2.91965 4.33074 0
M  V30 14178 H 1392.39 -1.43587 2.62723 0
M  V30 14179 H 1389.94 -0.689334 1.26429 0
M  V30 14180 H 1391.89 -3.7616 1.89951 0
M  V30 14181 H 1390.62 -3.16397 0.809976 0
M  V30 14182 H 1389.27 -2.37619 2.79164 0
M  V30 14183 H 1388.92 -4.6719 1.86394 0
M  V30 14184 H 1388.62 -4.62893 3.61944 0
M  V30 14185 H 1390.15 -5.32116 2.99475 0
M  V30 14186 H 1391.56 -3.59228 4.46798 0
M  V30 14187 H 1389.96 -3.13756 5.11544 0
M  V30 14188 H 1391.03 -1.88015 4.46966 0
M  V30 14189 N 1392.37 -1.38898 -0.744656 0
M  V30 14190 C 1393.33 -1.36633 -1.84022 0
M  V30 14191 C 1394.33 -0.265187 -1.58598 0
M  V30 14192 O 1395.52 -0.522569 -1.66177 0
M  V30 14193 C 1392.66 -1.12938 -3.21649 0
M  V30 14194 H 1393.85 -2.34111 -1.87435 0
M  V30 14195 H 1391.4 -1.24322 -0.947302 0
M  V30 14196 H 1392.14 -0.161027 -3.239 0
M  V30 14197 H 1391.92 -1.9267 -3.41498 0
M  V30 14198 H 1393.41 -1.14071 -4.01718 0
M  V30 14199 N 1393.85 0.973806 -1.23914 0
M  V30 14200 C 1395.09 1.731 -1.08701 0
M  V30 14201 C 1395.45 1.88425 0.368772 0
M  V30 14202 O 1396.65 2.61014 0.642259 0
M  V30 14203 C 1394.92 3.08777 -1.79977 0
M  V30 14204 S 1396.48 3.99993 -1.80419 0
M  V30 14205 H 1393.3 0.595219 -0.38889 0
M  V30 14206 H 1395.9 1.16291 -1.57152 0
M  V30 14207 H 1394.61 2.95278 -2.85024 0
M  V30 14208 H 1394.14 3.70652 -1.31835 0
M  V30 14209 H 1396.15 4.88558 -0.867494 0
M  V30 14210 N 1395.33 1.05191 1.17357 0
M  V30 14211 C 1396.57 0.763113 1.87895 0
M  V30 14212 C 1396.91 -0.708071 1.80831 0
M  V30 14213 O 1396.18 -1.51777 1.21631 0
M  V30 14214 C 1396.46 1.2442 3.37923 0
M  V30 14215 C 1396.32 2.77832 3.53737 0
M  V30 14216 C 1397.64 0.843209 4.31947 0
M  V30 14217 H 1394.75 0.27869 0.682276 0
M  V30 14218 H 1397.4 1.3059 1.38008 0
M  V30 14219 H 1395.55 0.782438 3.80539 0
M  V30 14220 H 1397.22 3.32131 3.20135 0
M  V30 14221 H 1395.46 3.17108 2.96015 0
M  V30 14222 H 1396.13 3.06555 4.59052 0
M  V30 14223 H 1398.61 1.24073 3.97171 0
M  V30 14224 H 1397.48 1.20743 5.35455 0
M  V30 14225 H 1397.75 -0.252802 4.41377 0
M  V30 14226 N 1396.8 -1.33791 0.83293 0
M  V30 14227 C 1398.04 -1.99788 0.431774 0
M  V30 14228 C 1398.41 -1.64566 -0.989046 0
M  V30 14229 O 1399.61 -2.23483 -1.49361 0
M  V30 14230 C 1397.88 -3.51636 0.6393 0
M  V30 14231 S 1399.44 -4.37539 0.332481 0
M  V30 14232 H 1396.26 -0.69214 0.162676 0
M  V30 14233 H 1398.86 -1.629 1.08092 0
M  V30 14234 H 1397.56 -3.74758 1.67286 0
M  V30 14235 H 1397.09 -3.93393 -0.024221 0
M  V30 14236 H 1399.11 -4.88865 -0.850029 0
M  V30 14237 N 1398.28 -0.588812 -1.46187 0
M  V30 14238 C 1399.56 -0.00958331 -1.95598 0
M  V30 14239 C 1399.94 1.45294 -1.53144 0
M  V30 14240 O 1399.29 2.14592 -0.785015 0
M  V30 14241 C 1399.5 -0.188018 -3.48493 0
M  V30 14242 C 1400.85 -0.0590152 -4.24559 0
M  V30 14243 O 1401.87 -0.117167 -3.56007 0
M  V30 14244 O 1400.73 0.0715924 -5.46453 0
M  V30 14245 H 1397.82 0.0463708 -0.825699 0
M  V30 14246 H 1400.37 -0.657558 -1.56443 0
M  V30 14247 H 1399.14 -1.20449 -3.723 0
M  V30 14248 H 1398.76 0.496103 -3.94493 0
M  V30 14249 N 1399.76 1.54172 -0.326923 0
M  V30 14250 C 1401.17 1.86009 0.160446 0
M  V30 14251 C 1401.52 1.24851 1.51349 0
M  V30 14252 O 1400.65 0.555804 2.09141 0
M  V30 14253 C 1401.24 3.37488 0.297909 0
M  V30 14254 C 1399.8 3.69263 0.7295 0
M  V30 14255 C 1398.95 2.76911 -0.146778 0
M  V30 14256 H 1401.9 1.48972 -0.547093 0
M  V30 14257 H 1401.92 3.63388 1.12825 0
M  V30 14258 H 1401.43 3.81971 -0.687007 0
M  V30 14259 H 1399.53 3.30314 1.72404 0
M  V30 14260 H 1399.65 4.76149 0.53092 0
M  V30 14261 H 1398.01 2.51876 0.378212 0
M  V30 14262 H 1398.79 3.24221 -1.12852 0
M  V30 14263 N 1401.24 0.0551678 1.57503 0
M  V30 14264 C 1402.49 -0.6165 1.92467 0
M  V30 14265 C 1402.81 -1.71147 0.934552 0
M  V30 14266 O 1402.08 -1.9589 -0.0199649 0
M  V30 14267 H 1400.66 -0.230714 0.710479 0
M  V30 14268 H 1403.32 0.109111 1.94594 0
M  V30 14269 H 1402.42 -1.05254 2.93816 0
M  V30 14270 N 1402.72 -1.56081 -0.218252 0
M  V30 14271 C 1403.95 -1.83069 -0.957574 0
M  V30 14272 C 1404.35 -0.6325 -1.78315 0
M  V30 14273 O 1403.7 0.408298 -1.79105 0
M  V30 14274 C 1403.76 -3.03835 -1.92157 0
M  V30 14275 C 1403.42 -4.38702 -1.2802 0
M  V30 14276 C 1404.42 -5.15585 -0.66846 0
M  V30 14277 C 1402.11 -4.85427 -1.29098 0
M  V30 14278 C 1404.1 -6.37355 -0.0760499 0
M  V30 14279 C 1401.79 -6.07138 -0.69473 0
M  V30 14280 C 1402.78 -6.82943 -0.0883201 0
M  V30 14281 O 1402.47 -8.02352 0.498648 0
M  V30 14282 H 1402.2 -0.612493 -0.286057 0
M  V30 14283 H 1404.76 -2.04021 -0.23759 0
M  V30 14284 H 1402.99 -2.78709 -2.68064 0
M  V30 14285 H 1404.68 -3.17666 -2.52672 0
M  V30 14286 H 1405.44 -4.80592 -0.652434 0
M  V30 14287 H 1401.32 -4.26395 -1.75238 0
M  V30 14288 H 1404.87 -6.96464 0.397893 0
M  V30 14289 H 1400.76 -6.41604 -0.70818 0
M  V30 14290 H 1401.53 -8.17555 0.393289 0
M  V30 14291 N 1404.2 0.485086 -1.49949 0
M  V30 14292 C 1405.44 1.23486 -1.5948 0
M  V30 14293 C 1405.76 1.93377 -0.294082 0
M  V30 14294 O 1406.96 2.70173 -0.268133 0
M  V30 14295 C 1405.42 2.24303 -2.81454 0
M  V30 14296 C 1405.03 1.60279 -4.18347 0
M  V30 14297 C 1406.77 3.0001 -3.00324 0
M  V30 14298 C 1404.68 2.593 -5.31524 0
M  V30 14299 H 1403.61 0.464595 -0.593858 0
M  V30 14300 H 1406.26 0.506893 -1.7636 0
M  V30 14301 H 1404.64 3.00332 -2.58102 0
M  V30 14302 H 1405.82 0.901352 -4.51899 0
M  V30 14303 H 1404.13 0.969053 -4.04967 0
M  V30 14304 H 1406.73 3.74091 -3.82048 0
M  V30 14305 H 1407.07 3.5857 -2.11502 0
M  V30 14306 H 1407.6 2.31095 -3.2379 0
M  V30 14307 H 1404.34 2.05498 -6.22455 0
M  V30 14308 H 1403.86 3.27638 -5.02408 0
M  V30 14309 H 1405.54 3.21411 -5.61519 0
M  V30 14310 N 1405.67 1.39291 0.737279 0
M  V30 14311 C 1406.92 1.36121 1.49384 0
M  V30 14312 C 1407.24 -0.0429406 1.94953 0
M  V30 14313 O 1406.51 -0.993756 1.68823 0
M  V30 14314 H 1405.09 0.500916 0.554159 0
M  V30 14315 H 1407.75 1.74134 0.875402 0
M  V30 14316 H 1406.85 2.02246 2.37704 0
M  V30 14317 N 1407.15 -0.967221 1.24429 0
M  V30 14318 C 1408.38 -1.75053 1.11226 0
M  V30 14319 C 1408.8 -1.85162 -0.331139 0
M  V30 14320 O 1408.16 -1.32288 -1.23974 0
M  V30 14321 C 1408.21 -3.14882 1.75733 0
M  V30 14322 O 1407.31 -3.99371 1.02842 0
M  V30 14323 H 1406.65 -0.538078 0.389061 0
M  V30 14324 H 1409.18 -1.21325 1.64746 0
M  V30 14325 H 1409.19 -3.65402 1.81509 0
M  V30 14326 H 1407.87 -3.06839 2.80754 0
M  V30 14327 H 1406.44 -3.57854 1.04856 0
M  V30 14328 N 1408.63 -1.05812 -1.16797 0
M  V30 14329 C 1410.05 -0.780649 -1.39205 0
M  V30 14330 C 1410.25 0.622191 -1.91653 0
M  V30 14331 O 1409.3 1.38357 -2.11219 0
M  V30 14332 C 1410.61 -1.84148 -2.37718 0
M  V30 14333 C 1412.16 -1.86442 -2.51413 0
M  V30 14334 C 1412.64 -2.91566 -3.53204 0
M  V30 14335 N 1414.13 -2.90568 -3.60727 0
M  V30 14336 C 1414.86 -3.68556 -4.39265 0
M  V30 14337 N 1414.36 -4.56348 -5.21266 0
M  V30 14338 N 1416.15 -3.56969 -4.342 0
M  V30 14339 H 1408.3 -1.96313 -0.810871 0
M  V30 14340 H 1410.57 -0.850421 -0.418913 0
M  V30 14341 H 1410.27 -2.84864 -2.06265 0
M  V30 14342 H 1410.15 -1.68838 -3.37303 0
M  V30 14343 H 1412.53 -0.863873 -2.82172 0
M  V30 14344 H 1412.61 -2.0583 -1.5188 0
M  V30 14345 H 1412.26 -3.91811 -3.23182 0
M  V30 14346 H 1412.19 -2.69429 -4.52455 0
M  V30 14347 H 1414.68 -2.26918 -3.02186 0
M  V30 14348 H 1414.99 -5.12523 -5.78394 0
M  V30 14349 H 1413.34 -4.60406 -5.20626 0
M  V30 14350 H 1416.53 -2.87772 -3.69195 0
M  V30 14351 H 1416.7 -4.17993 -4.95162 0
M  V30 14352 N 1410.11 1.33347 -0.840014 0
M  V30 14353 C 1411.35 1.99556 -0.442363 0
M  V30 14354 C 1411.71 1.65088 0.980304 0
M  V30 14355 O 1412.91 2.24272 1.48174 0
M  V30 14356 C 1411.18 3.51292 -0.657939 0
M  V30 14357 S 1412.74 4.37356 -0.35568 0
M  V30 14358 H 1409.56 0.691267 -0.166344 0
M  V30 14359 H 1412.16 1.62324 -1.08955 0
M  V30 14360 H 1410.87 3.73866 -1.69271 0
M  V30 14361 H 1410.4 3.934 0.00335805 0
M  V30 14362 H 1412.41 4.89309 0.824091 0
M  V30 14363 N 1411.59 0.596556 1.45873 0
M  V30 14364 C 1412.86 0.0199562 1.9559 0
M  V30 14365 C 1413.24 -1.44479 1.53912 0
M  V30 14366 O 1412.59 -2.14173 0.796384 0
M  V30 14367 C 1412.8 0.206497 3.48389 0
M  V30 14368 C 1414.15 0.0815298 4.24522 0
M  V30 14369 O 1415.17 0.136045 3.5594 0
M  V30 14370 O 1414.03 -0.0426117 5.46483 0
M  V30 14371 H 1411.13 -0.0419913 0.825933 0
M  V30 14372 H 1413.67 0.665846 1.56092 0
M  V30 14373 H 1412.44 1.22422 3.71656 0
M  V30 14374 H 1412.07 -0.475175 3.9475 0
M  V30 14375 N 1413.06 -1.53996 0.335095 0
M  V30 14376 C 1414.34 -1.92984 -0.318848 0
M  V30 14377 C 1414.72 -1.26585 -1.68936 0
M  V30 14378 O 1414.07 -0.413702 -2.24724 0
M  V30 14379 C 1414.28 -3.46705 -0.399568 0
M  V30 14380 C 1415.63 -4.19527 -0.654411 0
M  V30 14381 O 1416.65 -3.52923 -0.482026 0
M  V30 14382 O 1415.51 -5.37499 -0.987756 0
M  V30 14383 H 1412.6 -0.806202 -0.1843 0
M  V30 14384 H 1415.15 -1.6526 0.385653 0
M  V30 14385 H 1413.92 -3.87235 0.56253 0
M  V30 14386 H 1413.54 -3.8057 -1.15119 0
M  V30 14387 N 1414.54 -0.0635198 -1.57472 0
M  V30 14388 C 1415.78 0.611234 -1.95047 0
M  V30 14389 C 1416.15 1.67274 -0.94251 0
M  V30 14390 O 1417.35 2.40246 -1.20563 0
M  V30 14391 C 1415.62 1.18071 -3.37334 0
M  V30 14392 S 1417.18 1.87174 -3.96877 0
M  V30 14393 H 1413.99 0.20037 -0.682182 0
M  V30 14394 H 1416.6 -0.135403 -1.95031 0
M  V30 14395 H 1415.3 0.396176 -4.08483 0
M  V30 14396 H 1414.83 1.96388 -3.40874 0
M  V30 14397 H 1416.85 3.15346 -3.83107 0
M  V30 14398 N 1416.02 1.56195 0.209972 0
M  V30 14399 C 1416.98 1.92514 1.24383 0
M  V30 14400 C 1417.98 0.804793 1.39211 0
M  V30 14401 O 1419.17 1.0724 1.37278 0
M  V30 14402 C 1416.3 2.18613 2.61574 0
M  V30 14403 H 1417.5 2.84992 0.933781 0
M  V30 14404 H 1415.05 1.49656 0.450878 0
M  V30 14405 H 1415.79 1.28724 2.97659 0
M  V30 14406 H 1415.57 3.00241 2.52186 0
M  V30 14407 H 1417.06 2.47767 3.36156 0
M  V30 14408 N 1417.5 -0.477127 1.50204 0
M  V30 14409 C 1418.72 -1.25775 1.6491 0
M  V30 14410 C 1419.15 -1.85187 0.329765 0
M  V30 14411 O 1418.51 -1.67004 -0.705641 0
M  V30 14412 C 1418.55 -2.3466 2.73801 0
M  V30 14413 O 1417.66 -3.39147 2.34634 0
M  V30 14414 H 1417 -0.370291 0.551163 0
M  V30 14415 H 1419.53 -0.568514 1.96543 0
M  V30 14416 H 1419.54 -2.80065 2.96695 0
M  V30 14417 H 1418.21 -1.90788 3.69557 0
M  V30 14418 H 1416.79 -2.99496 2.22163 0
M  V30 14419 N 1418.98 -1.3968 -0.729882 0
M  V30 14420 C 1420.22 -1.36911 -1.4866 0
M  V30 14421 C 1420.55 0.0326011 -1.94973 0
M  V30 14422 O 1419.82 0.984789 -1.69348 0
M  V30 14423 H 1418.4 -0.503848 -0.551495 0
M  V30 14424 H 1421.06 -1.74596 -0.866155 0
M  V30 14425 H 1420.15 -2.03504 -2.36628 0
M  V30 14426 N 1420.45 0.960609 -1.2494 0
M  V30 14427 C 1421.68 1.73676 -1.11894 0
M  V30 14428 C 1422.09 1.86288 0.330648 0
M  V30 14429 O 1421.44 1.35575 1.23957 0
M  V30 14430 C 1421.5 3.17142 -1.69297 0
M  V30 14431 C 1421.16 3.27978 -3.18244 0
M  V30 14432 C 1422.16 3.12754 -4.15308 0
M  V30 14433 C 1419.84 3.51991 -3.5834 0
M  V30 14434 C 1421.84 3.21379 -5.50449 0
M  V30 14435 C 1419.52 3.60253 -4.9362 0
M  V30 14436 C 1420.52 3.44961 -5.89484 0
M  V30 14437 O 1420.21 3.52893 -7.22303 0
M  V30 14438 H 1419.94 0.551226 -0.391313 0
M  V30 14439 H 1422.5 1.21418 -1.65671 0
M  V30 14440 H 1420.73 3.70736 -1.09961 0
M  V30 14441 H 1422.42 3.76592 -1.51437 0
M  V30 14442 H 1423.18 2.94079 -3.85672 0
M  V30 14443 H 1419.06 3.62957 -2.84224 0
M  V30 14444 H 1422.6 3.0936 -6.25254 0
M  V30 14445 H 1418.5 3.78444 -5.22925 0
M  V30 14446 H 1419.27 3.69563 -7.30319 0
M  V30 14447 N 1421.93 1.0643 1.16234 0
M  V30 14448 C 1423.18 0.78184 1.86798 0
M  V30 14449 C 1423.51 -0.691734 1.81784 0
M  V30 14450 O 1422.76 -1.52271 1.22931 0
M  V30 14451 C 1423.06 1.22348 3.35806 0
M  V30 14452 C 1422.73 2.7014 3.61019 0
M  V30 14453 C 1421.39 3.1051 3.6761 0
M  V30 14454 C 1423.74 3.65582 3.71482 0
M  V30 14455 C 1421.07 4.45159 3.82165 0
M  V30 14456 C 1423.42 4.99981 3.87559 0
M  V30 14457 C 1422.09 5.39986 3.92392 0
M  V30 14458 H 1421.36 0.286096 0.683542 0
M  V30 14459 H 1424 1.33364 1.37427 0
M  V30 14460 H 1422.31 0.590896 3.87319 0
M  V30 14461 H 1424 0.981959 3.88791 0
M  V30 14462 H 1420.59 2.37884 3.56524 0
M  V30 14463 H 1424.78 3.35525 3.657 0
M  V30 14464 H 1420.03 4.75637 3.8416 0
M  V30 14465 H 1424.21 5.73817 3.94597 0
M  V30 14466 H 1421.84 6.44324 4.03423 0
M  V30 14467 N 1423.41 -1.329 0.847073 0
M  V30 14468 C 1424.66 -1.9712 0.445872 0
M  V30 14469 C 1424.98 -1.67398 -1.00014 0
M  V30 14470 O 1424.25 -0.977204 -1.69787 0
M  V30 14471 H 1422.83 -0.729247 0.161887 0
M  V30 14472 H 1425.49 -1.62118 1.08184 0
M  V30 14473 H 1424.59 -3.06575 0.584676 0
M  V30 14474 N 1424.89 -0.604284 -1.45555 0
M  V30 14475 C 1425.84 0.129013 -2.32242 0
M  V30 14476 C 1426.83 0.862933 -1.45773 0
M  V30 14477 O 1428.04 0.778874 -1.62276 0
M  V30 14478 H 1424.41 0.0604661 -0.749565 0
M  V30 14479 H 1426.38 -0.620603 -2.91875 0
M  V30 14480 C 1425.13 1.11516 -3.29332 0
M  V30 14481 H 1424.45 0.559849 -3.95861 0
M  V30 14482 H 1425.89 1.59824 -3.92724 0
M  V30 14483 C 1424.35 2.18706 -2.5626 0
M  V30 14484 O 1424.88 3.26397 -2.34154 0
M  V30 14485 N 1423.09 1.93899 -2.16452 0
M  V30 14486 H 1422.64 1.0633 -2.34631 0
M  V30 14487 H 1422.59 2.65824 -1.67884 0
M  V30 14488 N 1426.37 1.53816 -0.343257 0
M  V30 14489 C 1427.78 1.86169 0.140709 0
M  V30 14490 C 1428.13 1.26449 1.50017 0
M  V30 14491 O 1427.25 0.577955 2.08539 0
M  V30 14492 C 1427.85 3.37785 0.262097 0
M  V30 14493 C 1426.41 3.70016 0.690294 0
M  V30 14494 C 1425.55 2.7674 -0.17614 0
M  V30 14495 H 1428.51 1.48383 -0.562863 0
M  V30 14496 H 1428.53 3.64564 1.08964 0
M  V30 14497 H 1428.04 3.81221 -0.727481 0
M  V30 14498 H 1426.14 3.32124 1.68891 0
M  V30 14499 H 1426.25 4.76686 0.480388 0
M  V30 14500 H 1424.62 2.52263 0.351476 0
M  V30 14501 H 1425.4 3.23006 -1.16285 0
M  V30 14502 N 1427.84 0.0718701 1.57436 0
M  V30 14503 C 1429.07 -0.609701 1.98236 0
M  V30 14504 C 1429.49 -1.6235 0.949959 0
M  V30 14505 O 1428.85 -1.81103 -0.0844281 0
M  V30 14506 C 1428.9 -1.2547 3.38068 0
M  V30 14507 O 1428 -2.37055 3.37459 0
M  V30 14508 H 1427.35 -0.15679 0.645223 0
M  V30 14509 H 1429.88 0.146407 2.04076 0
M  V30 14510 H 1429.89 -1.60152 3.75254 0
M  V30 14511 H 1428.56 -0.511842 4.12738 0
M  V30 14512 H 1427.14 -2.04165 3.12043 0
M  V30 14513 N 1429.32 -1.56304 -0.201686 0
M  V30 14514 C 1430.23 -1.97215 -1.27057 0
M  V30 14515 C 1431.25 -0.878834 -1.50175 0
M  V30 14516 O 1432.42 -1.18405 -1.62918 0
M  V30 14517 C 1429.49 -2.29772 -2.59626 0
M  V30 14518 C 1428.55 -3.52776 -2.44637 0
M  V30 14519 C 1427.78 -3.83771 -3.70885 0
M  V30 14520 O 1428.01 -3.16149 -4.7477 0
M  V30 14521 O 1426.94 -4.77216 -3.66808 0
M  V30 14522 H 1430.77 -2.88347 -0.953393 0
M  V30 14523 H 1428.35 -1.43773 -0.406158 0
M  V30 14524 H 1430.23 -2.51817 -3.37885 0
M  V30 14525 H 1428.91 -1.41809 -2.90984 0
M  V30 14526 H 1427.82 -3.35986 -1.64512 0
M  V30 14527 H 1429.15 -4.41184 -2.18214 0
M  V30 14528 N 1430.8 0.469154 -1.50455 0
M  V30 14529 C 1432.05 1.2229 -1.6178 0
M  V30 14530 C 1432.38 1.91577 -0.318073 0
M  V30 14531 O 1431.65 1.82205 0.68057 0
M  V30 14532 C 1431.94 2.26504 -2.79943 0
M  V30 14533 C 1431.79 1.61509 -4.19804 0
M  V30 14534 C 1433.11 3.27796 -2.93662 0
M  V30 14535 H 1430.23 0.443241 -0.588817 0
M  V30 14536 H 1432.87 0.516431 -1.82847 0
M  V30 14537 H 1431.02 2.86757 -2.62112 0
M  V30 14538 H 1432.69 1.04838 -4.49229 0
M  V30 14539 H 1430.94 0.918162 -4.23972 0
M  V30 14540 H 1431.61 2.37248 -4.98415 0
M  V30 14541 H 1434.08 2.77568 -3.09992 0
M  V30 14542 H 1432.96 3.98041 -3.77961 0
M  V30 14543 H 1433.22 3.92033 -2.04359 0
M  V30 14544 N 1432.28 1.40065 0.722464 0
M  V30 14545 C 1433.53 1.37698 1.47932 0
M  V30 14546 C 1433.85 -0.0222608 1.94987 0
M  V30 14547 O 1433.12 -0.975795 1.69868 0
M  V30 14548 H 1431.7 0.506766 0.548815 0
M  V30 14549 H 1434.36 1.75053 0.856884 0
M  V30 14550 H 1433.46 2.04756 2.35545 0
M  V30 14551 N 1433.76 -0.95397 1.25448 0
M  V30 14552 C 1435.01 -1.6953 1.10018 0
M  V30 14553 C 1435.33 -1.9166 -0.359385 0
M  V30 14554 O 1434.6 -1.50417 -1.25506 0
M  V30 14555 H 1433.18 -0.628238 0.404136 0
M  V30 14556 H 1435.84 -1.14691 1.57581 0
M  V30 14557 H 1434.93 -2.67427 1.60901 0
M  V30 14558 N 1435.24 -1.07045 -1.15668 0
M  V30 14559 C 1436.46 -0.812802 -1.9081 0
M  V30 14560 C 1436.89 0.627827 -1.77313 0
M  V30 14561 O 1436.24 1.43836 -1.10368 0
M  V30 14562 C 1436.29 -1.2219 -3.39267 0
M  V30 14563 O 1435.4 -0.365305 -4.10779 0
M  V30 14564 H 1434.74 -0.296385 -0.594182 0
M  V30 14565 H 1437.27 -1.42825 -1.465 0
M  V30 14566 H 1437.28 -1.19674 -3.90054 0
M  V30 14567 H 1435.95 -2.27121 -3.48409 0
M  V30 14568 H 1434.53 -0.452687 -3.70142 0
M  V30 14569 N 1436.71 1.32449 -0.85411 0
M  V30 14570 C 1437.95 1.99075 -0.463504 0
M  V30 14571 C 1438.32 1.66118 0.962739 0
M  V30 14572 O 1439.52 2.25831 1.45787 0
M  V30 14573 C 1437.79 3.50574 -0.695161 0
M  V30 14574 S 1439.35 4.36954 -0.402047 0
M  V30 14575 H 1436.17 0.689464 -0.173666 0
M  V30 14576 H 1438.77 1.61159 -1.1067 0
M  V30 14577 H 1437.47 3.72049 -1.73227 0
M  V30 14578 H 1437 3.93381 -0.0383675 0
M  V30 14579 H 1439.02 4.90155 0.772147 0
M  V30 14580 N 1438.19 0.611994 1.45232 0
M  V30 14581 C 1439.12 -0.142449 2.28757 0
M  V30 14582 C 1440.14 -0.827486 1.40202 0
M  V30 14583 O 1441.33 -0.692136 1.64535 0
M  V30 14584 C 1438.43 -1.22296 3.16065 0
M  V30 14585 C 1437.6 -0.624178 4.32924 0
M  V30 14586 C 1436.66 -1.59615 5.01408 0
M  V30 14587 O 1435.68 -1.12073 5.58058 0
M  V30 14588 N 1436.89 -2.93057 5.01097 0
M  V30 14589 H 1439.65 0.574276 2.94147 0
M  V30 14590 H 1437.21 0.451789 1.55469 0
M  V30 14591 H 1439.2 -1.87309 3.58744 0
M  V30 14592 H 1437.77 -1.84215 2.52554 0
M  V30 14593 H 1436.99 0.204141 3.93671 0
M  V30 14594 H 1438.28 -0.204435 5.08389 0
M  V30 14595 H 1437.68 -3.3428 4.5637 0
M  V30 14596 H 1436.24 -3.53481 5.47626 0
M  V30 14597 N 1439.67 -1.53632 0.351409 0
M  V30 14598 C 1441.08 -1.86241 -0.130834 0
M  V30 14599 C 1441.43 -1.27243 -1.49344 0
M  V30 14600 O 1440.56 -0.589006 -2.0823 0
M  V30 14601 C 1441.15 -3.37919 -0.244179 0
M  V30 14602 C 1439.71 -3.70377 -0.670662 0
M  V30 14603 C 1438.86 -2.76643 0.190813 0
M  V30 14604 H 1441.81 -1.48083 0.570724 0
M  V30 14605 H 1441.83 -3.65137 -1.07029 0
M  V30 14606 H 1441.34 -3.8083 0.747688 0
M  V30 14607 H 1439.44 -3.33015 -1.67127 0
M  V30 14608 H 1439.56 -4.76934 -0.455102 0
M  V30 14609 H 1437.92 -2.52446 -0.338092 0
M  V30 14610 H 1438.7 -3.22385 1.17996 0
M  V30 14611 N 1441.15 -0.0802183 -1.57396 0
M  V30 14612 C 1442.39 0.590512 -1.95684 0
M  V30 14613 C 1442.75 1.66265 -0.960199 0
M  V30 14614 O 1443.95 2.38954 -1.23104 0
M  V30 14615 C 1442.22 1.14486 -3.38567 0
M  V30 14616 S 1443.78 1.82954 -3.9884 0
M  V30 14617 H 1440.6 0.193123 -0.684269 0
M  V30 14618 H 1443.2 -0.156081 -1.94876 0
M  V30 14619 H 1441.91 0.352828 -4.08881 0
M  V30 14620 H 1441.44 1.92762 -3.42938 0
M  V30 14621 H 1443.45 3.11265 -3.86431 0
M  V30 14622 N 1442.63 1.56409 0.193394 0
M  V30 14623 C 1443.56 1.91211 1.26377 0
M  V30 14624 C 1444.57 0.802944 1.41622 0
M  V30 14625 O 1445.76 1.08136 1.42017 0
M  V30 14626 C 1442.86 2.13039 2.63567 0
M  V30 14627 C 1442.03 3.44192 2.69909 0
M  V30 14628 C 1441.09 3.55111 3.88307 0
M  V30 14629 O 1440.12 4.2792 3.75331 0
M  V30 14630 N 1441.32 2.88325 5.03834 0
M  V30 14631 H 1444.08 2.83624 0.968383 0
M  V30 14632 H 1441.65 1.57297 0.383302 0
M  V30 14633 H 1443.64 2.1763 3.41202 0
M  V30 14634 H 1442.21 1.27116 2.85588 0
M  V30 14635 H 1441.43 3.51452 1.78535 0
M  V30 14636 H 1442.72 4.30536 2.71139 0
M  V30 14637 H 1442.11 2.29003 5.17276 0
M  V30 14638 H 1440.67 2.98542 5.7941 0
M  V30 14639 N 1444.1 -0.461169 1.50702 0
M  V30 14640 C 1445.34 -1.22225 1.6383 0
M  V30 14641 C 1445.71 -1.8904 0.335858 0
M  V30 14642 O 1446.91 -2.66607 0.342674 0
M  V30 14643 C 1445.18 -2.2305 2.79256 0
M  V30 14644 S 1446.74 -3.07964 3.12576 0
M  V30 14645 H 1443.56 -0.41483 0.57744 0
M  V30 14646 H 1446.16 -0.517625 1.88523 0
M  V30 14647 H 1444.86 -1.72562 3.72358 0
M  V30 14648 H 1444.39 -2.98126 2.56679 0
M  V30 14649 H 1446.41 -4.24358 2.57167 0
M  V30 14650 N 1445.58 -1.40446 -0.715026 0
M  V30 14651 C 1446.53 -1.37235 -1.82073 0
M  V30 14652 C 1447.52 -0.249808 -1.58949 0
M  V30 14653 O 1448.71 -0.488958 -1.70112 0
M  V30 14654 C 1445.84 -1.23786 -3.20206 0
M  V30 14655 C 1444.92 -2.40824 -3.49091 0
M  V30 14656 N 1445.31 -3.66305 -3.4879 0
M  V30 14657 C 1443.61 -2.34215 -3.79551 0
M  V30 14658 C 1444.31 -4.43817 -3.76034 0
M  V30 14659 N 1443.29 -3.73664 -3.94811 0
M  V30 14660 H 1447.09 -2.32195 -1.80174 0
M  V30 14661 H 1444.6 -1.34226 -0.914175 0
M  V30 14662 H 1446.6 -1.19568 -3.99386 0
M  V30 14663 H 1445.26 -0.297938 -3.2333 0
M  V30 14664 H 1446.27 -3.99458 -3.29626 0
M  V30 14665 H 1442.95 -1.48592 -3.90162 0
M  V30 14666 H 1444.34 -5.52674 -3.82101 0
M  V30 14667 N 1447.06 0.947303 -1.25952 0
M  V30 14668 C 1448.01 2.06642 -1.06779 0
M  V30 14669 C 1449 1.694 0.00348362 0
M  V30 14670 O 1450.21 1.79351 -0.152715 0
M  V30 14671 H 1446.58 0.676499 -0.32841 0
M  V30 14672 H 1448.55 2.19968 -2.01635 0
M  V30 14673 C 1447.3 3.40353 -0.711015 0
M  V30 14674 H 1446.63 3.69483 -1.52718 0
M  V30 14675 H 1448.07 4.19493 -0.616606 0
M  V30 14676 C 1446.52 3.3181 0.58344 0
M  V30 14677 O 1447.05 3.67431 1.6235 0
M  V30 14678 N 1445.26 2.84919 0.571797 0
M  V30 14679 H 1444.81 2.56128 -0.274962 0
M  V30 14680 H 1444.77 2.79586 1.43803 0
M  V30 14681 N 1448.54 1.07657 1.15099 0
M  V30 14682 C 1449.49 0.694043 2.22004 0
M  V30 14683 C 1450.48 -0.296607 1.66783 0
M  V30 14684 O 1451.69 -0.159989 1.79288 0
M  V30 14685 H 1448.06 0.206374 0.723128 0
M  V30 14686 H 1450.03 1.60523 2.51545 0
M  V30 14687 C 1448.78 0.111245 3.47522 0
M  V30 14688 H 1448.1 0.864677 3.90338 0
M  V30 14689 H 1449.54 -0.118705 4.23834 0
M  V30 14690 C 1448 -1.14889 3.16705 0
M  V30 14691 O 1448.53 -2.2349 3.33789 0
M  V30 14692 N 1446.74 -1.05627 2.70724 0
M  V30 14693 H 1446.29 -0.172463 2.57022 0
M  V30 14694 H 1446.24 -1.9002 2.50479 0
M  V30 14695 N 1450.02 -1.31994 0.861122 0
M  V30 14696 C 1451.27 -1.96294 0.463868 0
M  V30 14697 C 1451.58 -1.68869 -0.98704 0
M  V30 14698 O 1452.78 -2.26959 -1.49003 0
M  V30 14699 C 1451.24 -3.51377 0.77858 0
M  V30 14700 C 1450.85 -3.87653 2.24565 0
M  V30 14701 C 1452.59 -4.22115 0.449365 0
M  V30 14702 C 1450.5 -5.35809 2.50324 0
M  V30 14703 H 1449.43 -0.734647 0.169733 0
M  V30 14704 H 1452.08 -1.50294 1.0528 0
M  V30 14705 H 1450.46 -3.95821 0.119005 0
M  V30 14706 H 1451.64 -3.54197 2.94755 0
M  V30 14707 H 1449.95 -3.29957 2.54003 0
M  V30 14708 H 1452.55 -5.31103 0.61916 0
M  V30 14709 H 1452.89 -4.11814 -0.609528 0
M  V30 14710 H 1453.42 -3.83276 1.06511 0
M  V30 14711 H 1450.16 -5.51138 3.54863 0
M  V30 14712 H 1449.68 -5.70648 1.84719 0
M  V30 14713 H 1451.36 -6.02968 2.34602 0
M  V30 14714 N 1451.49 -0.619688 -1.44906 0
M  V30 14715 C 1452.77 -0.0510703 -1.95533 0
M  V30 14716 C 1453.15 1.42013 -1.56191 0
M  V30 14717 O 1452.5 2.12879 -0.830356 0
M  V30 14718 C 1452.71 -0.261896 -3.48016 0
M  V30 14719 C 1454.06 -0.149057 -4.24338 0
M  V30 14720 O 1455.08 -0.192655 -3.55679 0
M  V30 14721 O 1453.94 -0.0443345 -5.46482 0
M  V30 14722 H 1451.03 0.0288461 -0.826497 0
M  V30 14723 H 1453.58 -0.690594 -1.55013 0
M  V30 14724 H 1452.35 -1.28319 -3.69662 0
M  V30 14725 H 1451.98 0.412314 -3.95456 0
M  V30 14726 N 1452.97 1.53444 -0.359552 0
M  V30 14727 C 1454.2 2.05584 0.232953 0
M  V30 14728 C 1454.62 1.23347 1.42937 0
M  V30 14729 O 1453.97 0.272662 1.80452 0
M  V30 14730 C 1454.02 3.55926 0.632359 0
M  V30 14731 O 1453.74 4.35045 -0.516494 0
M  V30 14732 C 1455.25 4.24301 1.28389 0
M  V30 14733 H 1452.47 0.669676 0.042132 0
M  V30 14734 H 1455.01 1.97878 -0.516176 0
M  V30 14735 H 1453.16 3.63802 1.33141 0
M  V30 14736 H 1453.58 5.24138 -0.194906 0
M  V30 14737 H 1455.05 5.30832 1.51397 0
M  V30 14738 H 1455.53 3.77644 2.24236 0
M  V30 14739 H 1456.14 4.20661 0.626438 0
M  V30 14740 N 1454.45 0.0885642 1.57351 0
M  V30 14741 C 1455.68 -0.585238 1.9845 0
M  V30 14742 C 1456.09 -1.62127 0.967483 0
M  V30 14743 O 1455.45 -1.82448 -0.0437565 0
M  V30 14744 C 1455.5 -1.23881 3.39611 0
M  V30 14745 O 1455.22 -0.244223 4.37419 0
M  V30 14746 C 1456.72 -1.99885 3.95678 0
M  V30 14747 H 1453.94 -0.157396 0.652279 0
M  V30 14748 H 1456.49 0.165923 2.03826 0
M  V30 14749 H 1454.64 -1.94094 3.3527 0
M  V30 14750 H 1455.06 -0.715149 5.19602 0
M  V30 14751 H 1456.53 -2.40983 4.9662 0
M  V30 14752 H 1457.01 -2.8621 3.33137 0
M  V30 14753 H 1457.61 -1.34501 4.03472 0
M  V30 14754 N 1455.93 -1.56509 -0.185096 0
M  V30 14755 C 1457.21 -1.72055 -0.930398 0
M  V30 14756 C 1457.59 -0.646145 -2.00968 0
M  V30 14757 O 1456.93 0.34129 -2.25937 0
M  V30 14758 C 1457.14 -3.14752 -1.50771 0
M  V30 14759 C 1458.49 -3.75292 -1.98597 0
M  V30 14760 O 1459.52 -3.17944 -1.60593 0
M  V30 14761 O 1458.37 -4.7596 -2.68561 0
M  V30 14762 H 1455.47 -0.702118 -0.436989 0
M  V30 14763 H 1458.01 -1.68806 -0.174007 0
M  V30 14764 H 1456.79 -3.84426 -0.730236 0
M  V30 14765 H 1456.41 -3.22272 -2.32866 0
M  V30 14766 N 1457.41 0.45317 -1.50944 0
M  V30 14767 C 1458.82 1.03354 -1.55482 0
M  V30 14768 C 1459.17 1.92701 -0.368873 0
M  V30 14769 O 1458.29 2.10153 0.516208 0
M  V30 14770 C 1458.89 1.88118 -2.81775 0
M  V30 14771 C 1457.45 2.41232 -2.88936 0
M  V30 14772 C 1456.59 1.20032 -2.49975 0
M  V30 14773 H 1459.55 0.235059 -1.5695 0
M  V30 14774 H 1459.57 2.73394 -2.64643 0
M  V30 14775 H 1459.08 1.23064 -3.68072 0
M  V30 14776 H 1457.18 3.09788 -2.07032 0
M  V30 14777 H 1457.29 2.75113 -3.92237 0
M  V30 14778 H 1455.66 1.54072 -2.02815 0
M  V30 14779 H 1456.44 0.56612 -3.386 0
M  V30 14780 N 1458.88 1.40823 0.707568 0
M  V30 14781 C 1459.79 1.44058 1.85161 0
M  V30 14782 C 1460.81 0.332357 1.70796 0
M  V30 14783 O 1461.99 0.578205 1.92922 0
M  V30 14784 C 1459.05 1.3091 3.21035 0
M  V30 14785 C 1458.11 2.51944 3.47595 0
M  V30 14786 C 1457.35 2.39414 4.76987 0
M  V30 14787 O 1457.57 1.41224 5.52641 0
M  V30 14788 O 1456.5 3.28944 5.04063 0
M  V30 14789 H 1460.33 2.40551 1.85388 0
M  V30 14790 H 1457.91 1.22232 0.859052 0
M  V30 14791 H 1459.8 1.25816 4.02179 0
M  V30 14792 H 1458.47 0.375263 3.21517 0
M  V30 14793 H 1457.38 2.62615 2.66428 0
M  V30 14794 H 1458.71 3.44115 3.51917 0
M  V30 14795 N 1460.36 -0.94061 1.26453 0
M  V30 14796 C 1461.33 -2.02096 1.0812 0
M  V30 14797 C 1462.33 -1.60773 0.0293393 0
M  V30 14798 O 1463.52 -1.72051 0.272796 0
M  V30 14799 C 1460.65 -3.34749 0.644646 0
M  V30 14800 H 1461.84 -2.19792 2.04038 0
M  V30 14801 H 1459.39 -1.11965 1.09058 0
M  V30 14802 H 1460.13 -3.22752 -0.316509 0
M  V30 14803 H 1459.91 -3.66095 1.40416 0
M  V30 14804 H 1461.4 -4.14117 0.538233 0
M  V30 14805 N 1461.84 -1.08266 -1.14527 0
M  V30 14806 C 1463.08 -0.820945 -1.87189 0
M  V30 14807 C 1463.44 0.641556 -1.80964 0
M  V30 14808 O 1464.65 1.01871 -2.48749 0
M  V30 14809 C 1462.92 -1.32668 -3.31865 0
M  V30 14810 S 1464.48 -1.19705 -4.22157 0
M  V30 14811 H 1461.29 -0.297237 -0.645888 0
M  V30 14812 H 1463.9 -1.38364 -1.38114 0
M  V30 14813 H 1462.6 -2.38558 -3.33943 0
M  V30 14814 H 1462.13 -0.759588 -3.85997 0
M  V30 14815 H 1464.15 -0.140421 -4.96001 0
M  V30 14816 N 1463.32 1.31536 -0.86811 0
M  V30 14817 C 1464.6 1.9149 -0.398866 0
M  V30 14818 C 1464.98 1.79008 1.1189 0
M  V30 14819 O 1464.32 1.19659 1.94664 0
M  V30 14820 C 1464.53 3.37771 -0.878173 0
M  V30 14821 C 1465.88 4.14882 -0.903216 0
M  V30 14822 O 1466.91 3.46545 -0.823703 0
M  V30 14823 O 1465.77 5.36936 -1.01794 0
M  V30 14824 H 1462.86 0.818398 -0.118971 0
M  V30 14825 H 1465.41 1.40216 -0.955899 0
M  V30 14826 H 1464.18 3.40861 -1.9217 0
M  V30 14827 H 1463.8 3.96472 -0.299346 0
M  V30 14828 N 1464.8 0.627364 1.44575 0
M  V30 14829 C 1465.74 -0.0798044 2.30662 0
M  V30 14830 C 1466.71 -0.840528 1.43263 0
M  V30 14831 O 1467.9 -0.82232 1.7217 0
M  V30 14832 C 1465.04 -1.05796 3.28483 0
M  V30 14833 C 1464.15 -0.296052 4.30984 0
M  V30 14834 C 1463.29 -1.26569 5.15901 0
M  V30 14835 C 1462.33 -0.492722 6.10114 0
M  V30 14836 N 1461.46 -1.41263 6.87742 0
M  V30 14837 H 1466.3 0.660254 2.90594 0
M  V30 14838 H 1463.84 0.337382 1.43179 0
M  V30 14839 H 1465.8 -1.63842 3.83682 0
M  V30 14840 H 1464.43 -1.7652 2.7026 0
M  V30 14841 H 1463.48 0.400259 3.78288 0
M  V30 14842 H 1464.79 0.306149 4.9786 0
M  V30 14843 H 1463.95 -1.9176 5.75598 0
M  V30 14844 H 1462.69 -1.90182 4.4909 0
M  V30 14845 H 1461.69 0.172696 5.49529 0
M  V30 14846 H 1462.92 0.138634 6.78958 0
M  V30 14847 H 1460.86 -2.03604 6.23604 0
M  V30 14848 H 1460.78 -0.864362 7.51042 0
M  V30 14849 H 1462.05 -2.0535 7.51965 0
M  V30 14850 N 1466.28 -1.53251 0.367684 0
M  V30 14851 C 1467.19 -2.29518 -0.485669 0
M  V30 14852 C 1468.2 -1.35568 -1.09075 0
M  V30 14853 O 1469.38 -1.68626 -1.10124 0
M  V30 14854 C 1466.44 -3.07115 -1.60876 0
M  V30 14855 C 1465.5 -4.16736 -1.031 0
M  V30 14856 C 1464.74 -4.90624 -2.10056 0
M  V30 14857 O 1464.96 -4.64393 -3.31203 0
M  V30 14858 O 1463.89 -5.76503 -1.72996 0
M  V30 14859 H 1467.72 -3.034 0.135017 0
M  V30 14860 H 1465.3 -1.48816 0.132005 0
M  V30 14861 H 1467.19 -3.55564 -2.26168 0
M  V30 14862 H 1465.86 -2.36068 -2.21481 0
M  V30 14863 H 1464.77 -3.72534 -0.341928 0
M  V30 14864 H 1466.1 -4.89956 -0.469473 0
M  V30 14865 N 1467.75 -0.0969077 -1.57302 0
M  V30 14866 C 1468.98 0.574705 -1.98758 0
M  V30 14867 C 1469.4 1.61612 -0.976067 0
M  V30 14868 O 1468.75 1.82468 0.0340803 0
M  V30 14869 C 1468.8 1.22078 -3.40263 0
M  V30 14870 O 1468.53 0.221022 -4.37542 0
M  V30 14871 C 1470.03 1.97783 -3.96732 0
M  V30 14872 H 1467.25 0.153934 -0.653104 0
M  V30 14873 H 1469.79 -0.17673 -2.03735 0
M  V30 14874 H 1467.95 1.92314 -3.36295 0
M  V30 14875 H 1468.36 0.687583 -5.19974 0
M  V30 14876 H 1469.83 2.38346 -4.97891 0
M  V30 14877 H 1470.31 2.8444 -3.3465 0
M  V30 14878 H 1470.92 1.3236 -4.04179 0
M  V30 14879 N 1469.23 1.56605 0.176793 0
M  V30 14880 C 1470.48 1.81324 0.892535 0
M  V30 14881 C 1470.8 0.67301 1.83018 0
M  V30 14882 O 1470.07 -0.307498 1.93472 0
M  V30 14883 H 1468.65 0.668881 0.332576 0
M  V30 14884 H 1471.31 1.94086 0.17792 0
M  V30 14885 H 1470.41 2.75168 1.47272 0
M  V30 14886 N 1470.71 -0.445159 1.51182 0
M  V30 14887 C 1472.13 -0.781023 1.39184 0
M  V30 14888 C 1472.33 -1.95988 0.468076 0
M  V30 14889 O 1471.38 -2.52374 -0.0796822 0
M  V30 14890 C 1472.69 -1.06874 2.81067 0
M  V30 14891 C 1474.24 -1.17364 2.90163 0
M  V30 14892 C 1474.72 -1.49433 4.32936 0
M  V30 14893 N 1476.21 -1.56373 4.36006 0
M  V30 14894 C 1476.94 -1.82743 5.435 0
M  V30 14895 N 1476.44 -2.06958 6.61166 0
M  V30 14896 N 1478.23 -1.84461 5.30971 0
M  V30 14897 H 1470.38 0.331347 2.098 0
M  V30 14898 H 1472.65 0.0858102 0.944108 0
M  V30 14899 H 1472.35 -0.275306 3.50621 0
M  V30 14900 H 1472.23 -1.99839 3.19913 0
M  V30 14901 H 1474.61 -1.95771 2.20812 0
M  V30 14902 H 1474.69 -0.22318 2.54825 0
M  V30 14903 H 1474.34 -0.715573 5.02834 0
M  V30 14904 H 1474.27 -2.45673 4.65782 0
M  V30 14905 H 1476.76 -1.39595 3.51172 0
M  V30 14906 H 1477.07 -2.26427 7.38885 0
M  V30 14907 H 1475.42 -2.04297 6.64295 0
M  V30 14908 H 1478.61 -1.65057 4.38034 0
M  V30 14909 H 1478.78 -2.04675 6.14827 0
M  V30 14910 N 1472.19 -1.41197 -0.700089 0
M  V30 14911 C 1473.43 -1.41775 -1.47239 0
M  V30 14912 C 1473.79 -0.0239874 -1.91985 0
M  V30 14913 O 1474.99 0.0954207 -2.68631 0
M  V30 14914 C 1473.26 -2.39268 -2.65491 0
M  V30 14915 S 1474.82 -2.58337 -3.54693 0
M  V30 14916 H 1471.64 -0.502298 -0.503207 0
M  V30 14917 H 1474.24 -1.77596 -0.817296 0
M  V30 14918 H 1472.95 -3.39342 -2.30815 0
M  V30 14919 H 1472.48 -2.04784 -3.35897 0
M  V30 14920 H 1474.49 -1.84739 -4.60528 0
M  V30 14921 N 1473.67 0.933891 -1.2695 0
M  V30 14922 C 1474.6 2.05078 -1.11649 0
M  V30 14923 C 1475.58 1.70089 -0.0196463 0
M  V30 14924 O 1476.76 1.93239 -0.193007 0
M  V30 14925 C 1473.89 3.38963 -0.756387 0
M  V30 14926 C 1472.85 3.88041 -1.80577 0
M  V30 14927 C 1472.17 5.18661 -1.2998 0
M  V30 14928 C 1473.47 4.12116 -3.2087 0
M  V30 14929 H 1475.17 2.18137 -2.05077 0
M  V30 14930 H 1472.71 1.04817 -0.987392 0
M  V30 14931 H 1474.66 4.1657 -0.63619 0
M  V30 14932 H 1473.39 3.25901 0.213607 0
M  V30 14933 H 1472.05 3.12622 -1.91477 0
M  V30 14934 H 1471.7 5.01985 -0.319442 0
M  V30 14935 H 1471.4 5.52467 -2.00134 0
M  V30 14936 H 1472.92 5.98844 -1.19242 0
M  V30 14937 H 1474.33 4.80312 -3.13006 0
M  V30 14938 H 1472.73 4.57218 -3.88679 0
M  V30 14939 H 1473.8 3.17633 -3.66384 0
M  V30 14940 N 1475.14 1.08871 1.13951 0
M  V30 14941 C 1476.09 0.722966 2.19184 0
M  V30 14942 C 1477.06 -0.293108 1.63493 0
M  V30 14943 O 1478.25 -0.176036 1.89986 0
M  V30 14944 C 1475.39 0.143542 3.44801 0
M  V30 14945 C 1474.5 1.21297 4.14622 0
M  V30 14946 C 1473.63 0.596902 5.27836 0
M  V30 14947 C 1472.67 1.64803 5.89497 0
M  V30 14948 N 1471.81 1.05341 6.94152 0
M  V30 14949 H 1476.65 1.62464 2.49819 0
M  V30 14950 H 1474.19 0.811803 1.22671 0
M  V30 14951 H 1476.14 -0.210153 4.1667 0
M  V30 14952 H 1474.77 -0.721426 3.14635 0
M  V30 14953 H 1473.83 1.68403 3.41093 0
M  V30 14954 H 1475.14 2.00931 4.56539 0
M  V30 14955 H 1474.29 0.191724 6.06397 0
M  V30 14956 H 1473.03 -0.231052 4.87152 0
M  V30 14957 H 1472.04 2.06282 5.09635 0
M  V30 14958 H 1473.26 2.47855 6.32254 0
M  V30 14959 H 1471.21 0.24664 6.55536 0
M  V30 14960 H 1471.12 1.7868 7.34581 0
M  V30 14961 H 1472.39 0.674253 7.76578 0
M  V30 14962 N 1476.62 -1.31073 0.875073 0
M  V30 14963 C 1477.86 -1.98313 0.495116 0
M  V30 14964 C 1478.23 -1.67629 -0.93619 0
M  V30 14965 O 1479.43 -2.28122 -1.42176 0
M  V30 14966 C 1477.7 -3.49424 0.750847 0
M  V30 14967 S 1479.26 -4.36259 0.471512 0
M  V30 14968 H 1476.07 -0.686614 0.184613 0
M  V30 14969 H 1478.68 -1.59378 1.1322 0
M  V30 14970 H 1477.38 -3.69246 1.79124 0
M  V30 14971 H 1476.91 -3.9327 0.100946 0
M  V30 14972 H 1478.93 -4.91322 -0.69407 0
M  V30 14973 N 1478.1 -0.635022 -1.4424 0
M  V30 14974 C 1479.03 0.0543561 -2.33437 0
M  V30 14975 C 1480.01 0.830807 -1.48431 0
M  V30 14976 O 1481.2 0.795913 -1.77141 0
M  V30 14977 C 1478.33 1.03391 -3.31553 0
M  V30 14978 C 1477.28 0.368824 -4.26408 0
M  V30 14979 C 1476.61 1.45855 -5.14422 0
M  V30 14980 C 1477.91 -0.727381 -5.1721 0
M  V30 14981 H 1479.6 -0.690489 -2.91329 0
M  V30 14982 H 1477.15 -0.3335 -1.40085 0
M  V30 14983 H 1479.1 1.52495 -3.9284 0
M  V30 14984 H 1477.82 1.80969 -2.71878 0
M  V30 14985 H 1476.48 -0.101605 -3.66459 0
M  V30 14986 H 1476.13 2.22531 -4.51098 0
M  V30 14987 H 1475.83 1.0189 -5.78699 0
M  V30 14988 H 1477.35 1.95132 -5.78581 0
M  V30 14989 H 1478.77 -0.319272 -5.7241 0
M  V30 14990 H 1477.17 -1.09041 -5.9011 0
M  V30 14991 H 1478.24 -1.59292 -4.57989 0
M  V30 14992 N 1479.58 1.53054 -0.375806 0
M  V30 14993 C 1480.81 2.05521 0.210828 0
M  V30 14994 C 1481.22 1.24837 1.4217 0
M  V30 14995 O 1480.56 0.284634 1.81481 0
M  V30 14996 C 1480.62 3.53417 0.658548 0
M  V30 14997 C 1480.29 4.54906 -0.437025 0
M  V30 14998 C 1481.28 5.03638 -1.29016 0
M  V30 14999 C 1478.97 4.98701 -0.600194 0
M  V30 15000 C 1480.96 5.94777 -2.29171 0
M  V30 15001 C 1478.65 5.89644 -1.6051 0
M  V30 15002 C 1479.65 6.37573 -2.44929 0
M  V30 15003 O 1479.33 7.26721 -3.43703 0
M  V30 15004 H 1479.07 0.674893 0.0386627 0
M  V30 15005 H 1481.62 1.98296 -0.535534 0
M  V30 15006 H 1479.85 3.58215 1.45667 0
M  V30 15007 H 1481.54 3.88692 1.16933 0
M  V30 15008 H 1482.31 4.70543 -1.17534 0
M  V30 15009 H 1478.18 4.60976 0.0471346 0
M  V30 15010 H 1481.73 6.3211 -2.95099 0
M  V30 15011 H 1477.63 6.22153 -1.72035 0
M  V30 15012 H 1478.39 7.44746 -3.39553 0
M  V30 15013 N 1481.06 0.105248 1.57248 0
M  V30 15014 C 1482.01 -0.860855 2.11124 0
M  V30 15015 C 1482.99 -1.23721 1.02868 0
M  V30 15016 O 1484.18 -1.2106 1.29126 0
M  V30 15017 C 1481.31 -2.11612 2.70325 0
M  V30 15018 C 1480.4 -1.76474 3.85639 0
M  V30 15019 N 1480.79 -1.11944 4.93257 0
M  V30 15020 C 1479.09 -2.0602 3.95565 0
M  V30 15021 C 1479.79 -0.956421 5.73783 0
M  V30 15022 N 1478.76 -1.47701 5.23149 0
M  V30 15023 H 1482.57 -0.35816 2.91709 0
M  V30 15024 H 1480.08 -0.0976543 1.62106 0
M  V30 15025 H 1482.08 -2.81778 3.07257 0
M  V30 15026 H 1480.74 -2.62438 1.91198 0
M  V30 15027 H 1481.75 -0.785042 5.11916 0
M  V30 15028 H 1478.42 -2.58989 3.27461 0
M  V30 15029 H 1479.81 -0.450964 6.70385 0
M  V30 15030 N 1482.53 -1.56697 -0.168486 0
M  V30 15031 C 1483.76 -1.86292 -0.900152 0
M  V30 15032 C 1484.18 -0.690968 -1.75702 0
M  V30 15033 O 1483.53 0.339855 -1.79308 0
M  V30 15034 C 1483.59 -3.14946 -1.77457 0
M  V30 15035 O 1483.31 -4.27625 -0.952267 0
M  V30 15036 C 1484.81 -3.57908 -2.61566 0
M  V30 15037 H 1482.03 -0.618003 -0.261369 0
M  V30 15038 H 1484.57 -2.03811 -0.16773 0
M  V30 15039 H 1482.73 -2.99246 -2.4603 0
M  V30 15040 H 1483.14 -5.01057 -1.55056 0
M  V30 15041 H 1484.61 -4.50823 -3.18532 0
M  V30 15042 H 1485.09 -2.82162 -3.36573 0
M  V30 15043 H 1485.7 -3.7623 -1.98321 0
M  V30 15044 N 1484.01 0.437135 -1.51416 0
M  V30 15045 C 1484.92 1.55581 -1.75589 0
M  V30 15046 C 1485.94 1.61797 -0.640132 0
M  V30 15047 O 1487.11 1.79035 -0.922406 0
M  V30 15048 C 1484.18 2.91561 -1.87598 0
M  V30 15049 C 1483.24 2.9546 -3.11451 0
M  V30 15050 C 1482.47 4.24954 -3.22878 0
M  V30 15051 O 1482.7 5.17341 -2.40238 0
M  V30 15052 O 1481.63 4.35141 -4.15856 0
M  V30 15053 H 1485.46 1.38098 -2.70486 0
M  V30 15054 H 1483.04 0.620163 -1.3592 0
M  V30 15055 H 1484.92 3.72262 -1.97481 0
M  V30 15056 H 1483.6 3.09171 -0.958889 0
M  V30 15057 H 1482.51 2.13713 -3.07046 0
M  V30 15058 H 1483.84 2.82794 -4.0285 0
M  V30 15059 N 1485.49 1.41566 0.692592 0
M  V30 15060 C 1486.74 1.40805 1.44978 0
M  V30 15061 C 1487.06 0.0191039 1.94991 0
M  V30 15062 O 1486.33 -0.939544 1.71899 0
M  V30 15063 H 1484.91 0.518293 0.537942 0
M  V30 15064 H 1487.57 1.76831 0.81956 0
M  V30 15065 H 1486.67 2.09706 2.31149 0
M  V30 15066 N 1486.97 -0.927146 1.27443 0
M  V30 15067 C 1487.88 -2.06122 1.12031 0
M  V30 15068 C 1488.89 -1.73928 0.0501979 0
M  V30 15069 O 1490.07 -1.99756 0.256796 0
M  V30 15070 C 1487.14 -3.3805 0.769634 0
M  V30 15071 C 1486.2 -3.83938 1.92068 0
M  V30 15072 C 1485.43 -5.0957 1.58664 0
M  V30 15073 O 1485.65 -5.6825 0.494789 0
M  V30 15074 O 1484.59 -5.50844 2.42599 0
M  V30 15075 H 1488.41 -2.22037 2.07203 0
M  V30 15076 H 1486 -1.04638 1.06636 0
M  V30 15077 H 1487.88 -4.17286 0.587423 0
M  V30 15078 H 1486.55 -3.2334 -0.152557 0
M  V30 15079 H 1485.46 -3.05587 2.15795 0
M  V30 15080 H 1486.79 -4.0319 2.8231 0
M  V30 15081 N 1488.45 -1.09474 -1.13372 0
M  V30 15082 C 1489.4 -0.704018 -2.16858 0
M  V30 15083 C 1490.38 0.281867 -1.58412 0
M  V30 15084 O 1491.57 0.0921582 -1.7676 0
M  V30 15085 C 1488.7 -0.126682 -3.43066 0
M  V30 15086 C 1487.79 -1.13901 -4.08518 0
M  V30 15087 N 1488.18 -2.3263 -4.49129 0
M  V30 15088 C 1486.48 -0.977263 -4.35162 0
M  V30 15089 C 1487.18 -2.9703 -5.00148 0
M  V30 15090 N 1486.15 -2.24588 -4.95037 0
M  V30 15091 H 1489.96 -1.60796 -2.46012 0
M  V30 15092 H 1487.47 -0.97103 -1.30172 0
M  V30 15093 H 1489.47 0.171257 -4.16548 0
M  V30 15094 H 1488.13 0.772105 -3.15386 0
M  V30 15095 H 1489.14 -2.70218 -4.41817 0
M  V30 15096 H 1485.81 -0.1332 -4.17287 0
M  V30 15097 H 1487.2 -3.97966 -5.41362 0
M  V30 15098 N 1489.92 1.30607 -0.882012 0
M  V30 15099 C 1491.16 1.98047 -0.505626 0
M  V30 15100 C 1491.53 1.68123 0.927287 0
M  V30 15101 O 1492.73 2.28872 1.40964 0
M  V30 15102 C 1491 3.49021 -0.769367 0
M  V30 15103 S 1492.56 4.36003 -0.494641 0
M  V30 15104 H 1489.38 0.685625 -0.188252 0
M  V30 15105 H 1491.98 1.58776 -1.14064 0
M  V30 15106 H 1490.68 3.68291 -1.8108 0
M  V30 15107 H 1490.21 3.93211 -0.121801 0
M  V30 15108 H 1492.23 4.91683 0.668004 0
M  V30 15109 N 1491.4 0.642663 1.43901 0
M  V30 15110 C 1492.33 -0.0938945 2.29008 0
M  V30 15111 C 1493.35 -0.797561 1.41925 0
M  V30 15112 O 1494.54 -0.65708 1.65966 0
M  V30 15113 C 1491.64 -1.15564 3.18588 0
M  V30 15114 C 1490.81 -0.532208 4.3415 0
M  V30 15115 C 1489.87 -1.48943 5.0468 0
M  V30 15116 O 1488.89 -1.00211 5.60309 0
M  V30 15117 N 1490.1 -2.82362 5.072 0
M  V30 15118 H 1492.86 0.636539 2.92862 0
M  V30 15119 H 1490.42 0.484665 1.54475 0
M  V30 15120 H 1492.41 -1.79658 3.62636 0
M  V30 15121 H 1490.98 -1.78816 2.56405 0
M  V30 15122 H 1490.2 0.287598 3.93149 0
M  V30 15123 H 1491.49 -0.0965526 5.08708 0
M  V30 15124 H 1490.89 -3.24524 4.63358 0
M  V30 15125 H 1489.45 -3.41786 5.55001 0
M  V30 15126 N 1492.88 -1.52852 0.383918 0
M  V30 15127 C 1494.13 -2.0151 -0.199989 0
M  V30 15128 C 1494.46 -1.27058 -1.47263 0
M  V30 15129 O 1493.71 -0.357819 -1.92401 0
M  V30 15130 C 1494.01 -3.53602 -0.519674 0
M  V30 15131 C 1493.68 -4.46032 0.660789 0
M  V30 15132 C 1492.34 -4.71018 0.984646 0
M  V30 15133 C 1494.69 -5.00602 1.45077 0
M  V30 15134 C 1492.02 -5.47824 2.10013 0
M  V30 15135 C 1494.37 -5.78627 2.55682 0
M  V30 15136 C 1493.03 -6.01894 2.88582 0
M  V30 15137 H 1492.3 -0.737377 -0.0731812 0
M  V30 15138 H 1494.95 -1.843 0.520157 0
M  V30 15139 H 1493.26 -3.68856 -1.32108 0
M  V30 15140 H 1494.95 -3.88739 -0.984011 0
M  V30 15141 H 1491.54 -4.26745 0.398359 0
M  V30 15142 H 1495.73 -4.81228 1.21381 0
M  V30 15143 H 1490.98 -5.64066 2.3588 0
M  V30 15144 H 1495.16 -6.19914 3.173 0
M  V30 15145 H 1492.78 -6.61192 3.75138 0
M  V30 15146 N 1494.36 -0.113586 -1.5719 0
M  V30 15147 C 1495.6 0.548872 -1.96893 0
M  V30 15148 C 1495.96 1.64191 -0.99525 0
M  V30 15149 O 1497.16 2.36289 -1.28145 0
M  V30 15150 C 1495.44 1.07279 -3.40919 0
M  V30 15151 S 1496.99 1.74453 -4.02631 0
M  V30 15152 H 1493.81 0.178565 -0.688212 0
M  V30 15153 H 1496.41 -0.197382 -1.94501 0
M  V30 15154 H 1495.12 0.266019 -4.09537 0
M  V30 15155 H 1494.65 1.85444 -3.46949 0
M  V30 15156 H 1496.66 3.02998 -3.92946 0
M  V30 15157 N 1495.84 1.56784 0.160173 0
M  V30 15158 C 1497.25 1.51153 0.512352 0
M  V30 15159 C 1497.45 0.819774 1.84071 0
M  V30 15160 O 1496.51 0.384789 2.49551 0
M  V30 15161 C 1497.82 2.95906 0.534817 0
M  V30 15162 C 1499.37 3.06773 0.621248 0
M  V30 15163 C 1499.85 4.53006 0.674501 0
M  V30 15164 N 1501.34 4.57298 0.737087 0
M  V30 15165 C 1502.07 5.67805 0.799054 0
M  V30 15166 N 1501.57 6.87916 0.821171 0
M  V30 15167 N 1503.36 5.55804 0.838928 0
M  V30 15168 H 1495.51 2.00157 -0.710712 0
M  V30 15169 H 1497.77 0.91233 -0.257601 0
M  V30 15170 H 1497.48 3.49719 -0.372773 0
M  V30 15171 H 1497.35 3.51152 1.3774 0
M  V30 15172 H 1499.74 2.52987 1.51926 0
M  V30 15173 H 1499.82 2.54593 -0.248224 0
M  V30 15174 H 1499.47 5.07426 -0.219301 0
M  V30 15175 H 1499.4 5.02954 1.56028 0
M  V30 15176 H 1501.89 3.70825 0.727827 0
M  V30 15177 H 1502.2 7.67888 0.869938 0
M  V30 15178 H 1500.55 6.90504 0.789264 0
M  V30 15179 H 1503.74 4.60884 0.818728 0
M  V30 15180 H 1503.91 6.41945 0.883757 0
M  V30 15181 N 1497.32 -0.429099 1.51646 0
M  V30 15182 C 1498.56 -1.17784 1.64722 0
M  V30 15183 C 1498.89 -1.90998 0.367415 0
M  V30 15184 O 1498.15 -1.8463 -0.648862 0
M  V30 15185 C 1498.44 -2.2131 2.80636 0
M  V30 15186 C 1498.11 -1.65048 4.19607 0
M  V30 15187 C 1496.77 -1.49428 4.57411 0
M  V30 15188 C 1499.12 -1.23765 5.06292 0
M  V30 15189 C 1496.45 -0.910109 5.79598 0
M  V30 15190 C 1498.8 -0.667743 6.29066 0
M  V30 15191 C 1497.47 -0.498507 6.65636 0
M  V30 15192 H 1496.74 -0.431001 0.60276 0
M  V30 15193 H 1499.39 -0.46775 1.857 0
M  V30 15194 H 1497.69 -2.98388 2.53913 0
M  V30 15195 H 1499.39 -2.79079 2.87951 0
M  V30 15196 H 1495.98 -1.78185 3.89805 0
M  V30 15197 H 1500.16 -1.3465 4.77685 0
M  V30 15198 H 1495.42 -0.766825 6.06572 0
M  V30 15199 H 1499.59 -0.339377 6.95573 0
M  V30 15200 H 1497.22 -0.0437292 7.60187 0
M  V30 15201 N 1498.79 -1.41931 -0.685074 0
M  V30 15202 C 1500.04 -1.41571 -1.44229 0
M  V30 15203 C 1500.36 -0.0294445 -1.94978 0
M  V30 15204 O 1499.63 0.930414 -1.72395 0
M  V30 15205 H 1498.21 -0.521138 -0.535186 0
M  V30 15206 H 1500.87 -1.77263 -0.81017 0
M  V30 15207 H 1499.97 -2.10929 -2.30034 0
M  V30 15208 N 1500.27 0.920374 -1.27933 0
M  V30 15209 C 1501.5 1.70028 -1.17363 0
M  V30 15210 C 1501.91 1.87246 0.271214 0
M  V30 15211 O 1501.25 1.39449 1.19581 0
M  V30 15212 C 1501.31 3.11595 -1.79301 0
M  V30 15213 C 1500.98 3.17687 -3.28518 0
M  V30 15214 C 1501.98 2.99383 -4.25048 0
M  V30 15215 C 1499.66 3.40412 -3.69357 0
M  V30 15216 C 1501.65 3.03704 -5.60395 0
M  V30 15217 C 1499.34 3.44367 -5.04832 0
M  V30 15218 C 1500.34 3.26032 -6.0016 0
M  V30 15219 O 1500.03 3.29735 -7.33164 0
M  V30 15220 H 1499.76 0.538497 -0.408652 0
M  V30 15221 H 1502.31 1.16086 -1.6945 0
M  V30 15222 H 1500.54 3.6705 -1.217 0
M  V30 15223 H 1502.23 3.71584 -1.63341 0
M  V30 15224 H 1503 2.8166 -3.94833 0
M  V30 15225 H 1498.88 3.53731 -2.95627 0
M  V30 15226 H 1502.42 2.89312 -6.34779 0
M  V30 15227 H 1498.32 3.61616 -5.347 0
M  V30 15228 H 1499.09 3.46141 -7.41707 0
M  V30 15229 N 1501.75 1.10074 1.1279 0
M  V30 15230 C 1502.98 0.861655 1.87774 0
M  V30 15231 C 1503.39 -0.591184 1.79727 0
M  V30 15232 O 1502.73 -1.4191 1.1665 0
M  V30 15233 C 1502.79 1.22668 3.37924 0
M  V30 15234 C 1502.46 2.68579 3.69749 0
M  V30 15235 C 1503.45 3.66821 3.68427 0
M  V30 15236 C 1501.14 3.04869 3.99199 0
M  V30 15237 C 1503.13 4.99377 3.96108 0
M  V30 15238 C 1500.82 4.37615 4.2654 0
M  V30 15239 C 1501.82 5.34678 4.24981 0
M  V30 15240 O 1501.51 6.65034 4.51647 0
M  V30 15241 H 1501.24 0.309289 0.601096 0
M  V30 15242 H 1503.79 1.46802 1.43661 0
M  V30 15243 H 1502.02 0.563393 3.82574 0
M  V30 15244 H 1503.71 0.965675 3.94246 0
M  V30 15245 H 1504.48 3.40128 3.45742 0
M  V30 15246 H 1500.36 2.29947 3.99557 0
M  V30 15247 H 1503.9 5.7513 3.94806 0
M  V30 15248 H 1499.8 4.64047 4.48698 0
M  V30 15249 H 1500.56 6.70608 4.69283 0
M  V30 15250 N 1503.23 -1.30138 0.888926 0
M  V30 15251 C 1504.48 -1.95602 0.508359 0
M  V30 15252 C 1504.8 -1.70495 -0.946377 0
M  V30 15253 O 1504.07 -1.03073 -1.66592 0
M  V30 15254 H 1502.65 -0.723728 0.185006 0
M  V30 15255 H 1505.31 -1.58594 1.13286 0
M  V30 15256 H 1504.4 -3.04559 0.681915 0
M  V30 15257 N 1504.71 -0.650285 -1.43559 0
M  V30 15258 C 1505.98 -0.0925343 -1.95381 0
M  V30 15259 C 1506.36 1.38668 -1.59168 0
M  V30 15260 O 1505.71 2.11069 -0.875324 0
M  V30 15261 C 1505.92 -0.335657 -3.47382 0
M  V30 15262 C 1507.27 -0.239032 -4.23927 0
M  V30 15263 O 1508.29 -0.268056 -3.5519 0
M  V30 15264 O 1507.15 -0.160241 -5.46265 0
M  V30 15265 H 1504.25 0.0113084 -0.826923 0
M  V30 15266 H 1506.79 -0.723319 -1.53513 0
M  V30 15267 H 1505.56 -1.36132 -3.66857 0
M  V30 15268 H 1505.19 0.328339 -3.96242 0
M  V30 15269 N 1506.18 1.52647 -0.392018 0
M  V30 15270 C 1507.15 2.25135 0.429754 0
M  V30 15271 C 1508.15 1.26871 0.987946 0
M  V30 15272 O 1509.34 1.50947 0.86952 0
M  V30 15273 C 1506.47 3.00849 1.60321 0
M  V30 15274 H 1507.66 2.99199 -0.204918 0
M  V30 15275 H 1505.21 1.55634 -0.144188 0
M  V30 15276 H 1505.95 2.31092 2.27524 0
M  V30 15277 H 1505.73 3.72975 1.20964 0
M  V30 15278 H 1507.22 3.55879 2.18494 0
M  V30 15279 N 1507.66 0.121921 1.57128 0
M  V30 15280 C 1508.59 -0.823788 2.18486 0
M  V30 15281 C 1509.57 -1.27519 1.12574 0
M  V30 15282 O 1510.76 -1.33727 1.40822 0
M  V30 15283 C 1507.89 -2.07284 2.78659 0
M  V30 15284 C 1506.84 -1.75912 3.90178 0
M  V30 15285 C 1506.17 -3.07871 4.37172 0
M  V30 15286 C 1507.47 -1.02517 5.1214 0
M  V30 15287 H 1509.16 -0.312488 2.97765 0
M  V30 15288 H 1506.71 -0.148862 1.43228 0
M  V30 15289 H 1508.66 -2.73903 3.20242 0
M  V30 15290 H 1507.39 -2.60743 1.96673 0
M  V30 15291 H 1506.04 -1.11681 3.49174 0
M  V30 15292 H 1505.69 -3.59271 3.52041 0
M  V30 15293 H 1505.39 -2.87653 5.12376 0
M  V30 15294 H 1506.92 -3.75604 4.81409 0
M  V30 15295 H 1508.33 -1.59295 5.50725 0
M  V30 15296 H 1506.73 -0.923836 5.92946 0
M  V30 15297 H 1507.8 -0.0124219 4.84898 0
M  V30 15298 N 1509.14 -1.56867 -0.151857 0
M  V30 15299 C 1510.07 -1.94494 -1.21263 0
M  V30 15300 C 1511.09 -0.84021 -1.39443 0
M  V30 15301 O 1512.27 -1.11863 -1.391 0
M  V30 15302 C 1509.37 -2.19952 -2.57826 0
M  V30 15303 C 1508.55 -3.51227 -2.60689 0
M  V30 15304 C 1507.61 -3.65282 -3.78756 0
M  V30 15305 O 1506.63 -4.3772 -3.63854 0
M  V30 15306 N 1507.83 -3.01582 -4.96012 0
M  V30 15307 H 1510.6 -2.86092 -0.892845 0
M  V30 15308 H 1508.16 -1.58258 -0.341463 0
M  V30 15309 H 1510.15 -2.266 -3.35312 0
M  V30 15310 H 1508.72 -1.34643 -2.82117 0
M  V30 15311 H 1507.94 -3.56062 -1.69155 0
M  V30 15312 H 1509.23 -4.37574 -2.59628 0
M  V30 15313 H 1508.63 -2.42637 -5.11022 0
M  V30 15314 H 1507.19 -3.13799 -5.71291 0
M  V30 15315 N 1510.62 0.421051 -1.51871 0
M  V30 15316 C 1511.55 1.53094 -1.70572 0
M  V30 15317 C 1512.56 1.5188 -0.586201 0
M  V30 15318 O 1513.75 1.56361 -0.861013 0
M  V30 15319 C 1510.85 2.92002 -1.72011 0
M  V30 15320 C 1510.03 3.17541 -3.0081 0
M  V30 15321 C 1509.08 4.36259 -2.94219 0
M  V30 15322 O 1508.11 4.34118 -3.68144 0
M  V30 15323 N 1509.31 5.40722 -2.11188 0
M  V30 15324 H 1512.08 1.3745 -2.66322 0
M  V30 15325 H 1509.64 0.610204 -1.4996 0
M  V30 15326 H 1511.63 3.6947 -1.65149 0
M  V30 15327 H 1510.2 3.01162 -0.837861 0
M  V30 15328 H 1509.42 2.28225 -3.21414 0
M  V30 15329 H 1510.71 3.3144 -3.86037 0
M  V30 15330 H 1510.11 5.45304 -1.50534 0
M  V30 15331 H 1508.66 6.16979 -2.10192 0
M  V30 15332 N 1512.1 1.42293 0.677538 0
M  V30 15333 C 1513.37 1.331 1.43331 0
M  V30 15334 C 1513.75 -0.0329227 2.11074 0
M  V30 15335 O 1513.1 -1.04826 2.03036 0
M  V30 15336 C 1513.31 2.49725 2.438 0
M  V30 15337 C 1514.66 2.91716 3.08524 0
M  V30 15338 O 1515.68 2.49596 2.54127 0
M  V30 15339 O 1514.54 3.64609 4.07091 0
M  V30 15340 H 1511.64 0.524758 0.639185 0
M  V30 15341 H 1514.18 1.54294 0.706493 0
M  V30 15342 H 1512.95 3.40663 1.92522 0
M  V30 15343 H 1512.58 2.30503 3.23966 0
M  V30 15344 N 1513.57 -0.913576 1.28419 0
M  V30 15345 C 1514.81 -1.67716 1.16836 0
M  V30 15346 C 1515.18 -1.8997 -0.278452 0
M  V30 15347 O 1516.38 -2.63781 -0.516994 0
M  V30 15348 C 1514.65 -2.99838 1.94504 0
M  V30 15349 S 1516.21 -3.9093 1.99297 0
M  V30 15350 H 1513.03 -0.575987 0.416845 0
M  V30 15351 H 1515.63 -1.08661 1.62521 0
M  V30 15352 H 1514.33 -2.81343 2.98788 0
M  V30 15353 H 1513.86 -3.6394 1.4937 0
M  V30 15354 H 1515.88 -4.83863 1.0996 0
M  V30 15355 N 1515.05 -1.1067 -1.12204 0
M  V30 15356 C 1516.47 -0.838988 -1.35769 0
M  V30 15357 C 1516.67 0.540345 -1.9412 0
M  V30 15358 O 1515.72 1.29274 -2.16897 0
M  V30 15359 C 1517.04 -1.94065 -2.29694 0
M  V30 15360 C 1518.59 -1.96938 -2.43279 0
M  V30 15361 C 1519.06 -3.06284 -3.4052 0
M  V30 15362 N 1520.55 -3.05607 -3.48079 0
M  V30 15363 C 1521.29 -3.86855 -4.23238 0
M  V30 15364 N 1520.78 -4.78046 -5.01442 0
M  V30 15365 N 1522.58 -3.75064 -4.18669 0
M  V30 15366 H 1514.73 -1.99575 -0.726878 0
M  V30 15367 H 1516.99 -0.867423 -0.382467 0
M  V30 15368 H 1516.7 -2.93356 -1.93997 0
M  V30 15369 H 1516.57 -1.82992 -3.29839 0
M  V30 15370 H 1518.96 -0.982774 -2.78254 0
M  V30 15371 H 1519.04 -2.12087 -1.43014 0
M  V30 15372 H 1518.68 -4.05165 -3.06273 0
M  V30 15373 H 1518.61 -2.88376 -4.40621 0
M  V30 15374 H 1521.1 -2.39531 -2.9229 0
M  V30 15375 H 1521.42 -5.36594 -5.56136 0
M  V30 15376 H 1519.76 -4.82073 -5.0063 0
M  V30 15377 H 1522.95 -3.03172 -3.56657 0
M  V30 15378 H 1523.12 -4.38618 -4.76988 0
M  V30 15379 N 1516.53 1.29665 -0.895815 0
M  V30 15380 C 1517.48 2.27831 -0.369011 0
M  V30 15381 C 1518.45 1.56843 0.546756 0
M  V30 15382 O 1519.63 1.84848 0.472837 0
M  V30 15383 C 1516.77 3.42764 0.400884 0
M  V30 15384 C 1515.89 4.28544 -0.545335 0
M  V30 15385 C 1515.02 5.30652 0.241228 0
M  V30 15386 C 1514.06 6.08087 -0.699765 0
M  V30 15387 N 1513.2 7.02081 0.0521477 0
M  V30 15388 H 1518.04 2.72274 -1.21124 0
M  V30 15389 H 1515.57 1.33918 -0.608631 0
M  V30 15390 H 1517.53 4.08171 0.863277 0
M  V30 15391 H 1516.16 2.99361 1.2076 0
M  V30 15392 H 1515.21 3.63346 -1.12624 0
M  V30 15393 H 1516.53 4.82472 -1.26579 0
M  V30 15394 H 1515.68 6.01858 0.764994 0
M  V30 15395 H 1514.42 4.77446 0.994838 0
M  V30 15396 H 1513.42 5.35748 -1.23507 0
M  V30 15397 H 1514.65 6.63382 -1.45264 0
M  V30 15398 H 1512.59 6.51249 0.788096 0
M  V30 15399 H 1512.51 7.53547 -0.60847 0
M  V30 15400 H 1513.78 7.77512 0.556304 0
M  V30 15401 N 1518.01 0.657889 1.43212 0
M  V30 15402 C 1519.25 0.176848 2.03634 0
M  V30 15403 C 1519.61 -1.18833 1.50807 0
M  V30 15404 O 1520.81 -1.76305 2.02904 0
M  V30 15405 C 1519.08 0.191578 3.56886 0
M  V30 15406 S 1520.64 -0.220935 4.38243 0
M  V30 15407 H 1517.46 0.0742555 0.707112 0
M  V30 15408 H 1520.06 0.867268 1.7521 0
M  V30 15409 H 1518.77 1.18781 3.92835 0
M  V30 15410 H 1518.3 -0.519229 3.89958 0
M  V30 15411 H 1520.31 -1.45865 4.74276 0
M  V30 15412 N 1519.49 -1.52437 0.400108 0
M  V30 15413 C 1520.73 -2.0201 -0.17887 0
M  V30 15414 C 1521.07 -1.2856 -1.45554 0
M  V30 15415 O 1520.34 -0.389236 -1.90565 0
M  V30 15416 C 1520.62 -3.57453 -0.435784 0
M  V30 15417 C 1520.48 -4.41562 0.85693 0
M  V30 15418 C 1521.8 -4.228 -1.2218 0
M  V30 15419 H 1518.91 -0.734256 -0.063535 0
M  V30 15420 H 1521.56 -1.82406 0.531801 0
M  V30 15421 H 1519.71 -3.74288 -1.04117 0
M  V30 15422 H 1521.38 -4.36456 1.49344 0
M  V30 15423 H 1519.62 -4.08138 1.46989 0
M  V30 15424 H 1520.29 -5.48374 0.631675 0
M  V30 15425 H 1522.77 -4.10009 -0.709359 0
M  V30 15426 H 1521.64 -5.3152 -1.37031 0
M  V30 15427 H 1521.91 -3.81153 -2.23998 0
M  V30 15428 N 1520.96 -0.130252 -1.57061 0
M  V30 15429 C 1522.2 0.527958 -1.97464 0
M  V30 15430 C 1522.57 1.63126 -1.01261 0
M  V30 15431 O 1523.77 2.34916 -1.30644 0
M  V30 15432 C 1522.04 1.03657 -3.42038 0
M  V30 15433 S 1523.6 1.70173 -4.04459 0
M  V30 15434 H 1520.42 0.171256 -0.690067 0
M  V30 15435 H 1523.02 -0.218 -1.94281 0
M  V30 15436 H 1521.72 0.222568 -4.09796 0
M  V30 15437 H 1521.25 1.81754 -3.48897 0
M  V30 15438 H 1523.27 2.98813 -3.96138 0
M  V30 15439 N 1522.44 1.56945 0.143535 0
M  V30 15440 C 1523.39 1.99479 1.19628 0
M  V30 15441 C 1524.39 0.887733 1.44276 0
M  V30 15442 O 1525.59 1.07292 1.44528 0
M  V30 15443 H 1521.97 0.635049 0.402761 0
M  V30 15444 H 1523.94 2.87171 0.810877 0
M  V30 15445 C 1522.69 2.39436 2.52123 0
M  V30 15446 H 1522.01 3.24176 2.33987 0
M  V30 15447 H 1523.45 2.73017 3.24404 0
M  V30 15448 C 1521.91 1.24836 3.12918 0
M  V30 15449 O 1522.44 0.550973 3.97903 0
M  V30 15450 N 1520.64 1.01172 2.7242 0
M  V30 15451 H 1520.19 1.5806 2.03408 0
M  V30 15452 H 1520.15 0.246846 3.13429 0
M  V30 15453 N 1523.92 -0.412991 1.52093 0
M  V30 15454 C 1525.15 -1.1804 1.69558 0
M  V30 15455 C 1525.56 -1.84858 0.403007 0
M  V30 15456 O 1524.9 -1.72541 -0.630506 0
M  V30 15457 C 1524.96 -2.28876 2.7723 0
M  V30 15458 C 1524.63 -1.82226 4.19098 0
M  V30 15459 C 1525.63 -1.31216 5.03069 0
M  V30 15460 C 1523.31 -1.89177 4.65314 0
M  V30 15461 C 1525.3 -0.877743 6.31328 0
M  V30 15462 C 1522.99 -1.45347 5.93563 0
M  V30 15463 C 1523.99 -0.947302 6.76399 0
M  V30 15464 O 1523.68 -0.515315 8.02247 0
M  V30 15465 H 1523.41 -0.360882 0.571612 0
M  V30 15466 H 1525.96 -0.492521 1.99408 0
M  V30 15467 H 1524.19 -3.01015 2.42748 0
M  V30 15468 H 1525.88 -2.9065 2.83333 0
M  V30 15469 H 1526.65 -1.25221 4.68556 0
M  V30 15470 H 1522.53 -2.27518 4.00945 0
M  V30 15471 H 1526.07 -0.481977 6.95933 0
M  V30 15472 H 1521.97 -1.51019 6.27585 0
M  V30 15473 H 1522.74 -0.638973 8.16002 0
M  V30 15474 N 1525.4 -1.4265 -0.669982 0
M  V30 15475 C 1526.33 -1.49298 -1.79534 0
M  V30 15476 C 1527.31 -0.34911 -1.66479 0
M  V30 15477 O 1528.5 -0.564072 -1.85828 0
M  V30 15478 C 1525.63 -1.39935 -3.17861 0
M  V30 15479 C 1524.58 -2.52398 -3.45657 0
M  V30 15480 C 1523.91 -2.28092 -4.8361 0
M  V30 15481 C 1525.21 -3.94697 -3.4207 0
M  V30 15482 H 1526.9 -2.43486 -1.74227 0
M  V30 15483 H 1524.45 -1.17191 -0.836796 0
M  V30 15484 H 1526.4 -1.43193 -3.96325 0
M  V30 15485 H 1525.12 -0.422436 -3.23857 0
M  V30 15486 H 1523.78 -2.48465 -2.69556 0
M  V30 15487 H 1523.43 -1.28683 -4.86261 0
M  V30 15488 H 1523.13 -3.03469 -5.0317 0
M  V30 15489 H 1524.65 -2.33107 -5.64352 0
M  V30 15490 H 1526.07 -4.00207 -4.10496 0
M  V30 15491 H 1524.46 -4.69965 -3.73166 0
M  V30 15492 H 1525.53 -4.21025 -2.40554 0
M  V30 15493 N 1526.88 0.906753 -1.28902 0
M  V30 15494 C 1528.13 1.6533 -1.16234 0
M  V30 15495 C 1528.45 1.92861 0.288004 0
M  V30 15496 O 1527.72 1.54971 1.19837 0
M  V30 15497 H 1526.3 0.612806 -0.427174 0
M  V30 15498 H 1528.96 1.08764 -1.6173 0
M  V30 15499 H 1528.05 2.61271 -1.70715 0
M  V30 15500 N 1528.36 1.11264 1.11616 0
M  V30 15501 C 1529.58 0.882802 1.87121 0
M  V30 15502 C 1530 -0.567279 1.80076 0
M  V30 15503 O 1529.36 -1.39158 1.18074 0
M  V30 15504 C 1529.41 1.33355 3.36004 0
M  V30 15505 O 1529.13 2.72678 3.42897 0
M  V30 15506 C 1530.63 1.13886 4.28421 0
M  V30 15507 H 1527.85 0.316275 0.591786 0
M  V30 15508 H 1530.39 1.4795 1.41177 0
M  V30 15509 H 1528.55 0.780347 3.79459 0
M  V30 15510 H 1528.96 2.92168 4.35589 0
M  V30 15511 H 1530.44 1.50329 5.31136 0
M  V30 15512 H 1530.91 0.078259 4.3913 0
M  V30 15513 H 1531.52 1.67896 3.90757 0
M  V30 15514 N 1529.83 -1.29188 0.902679 0
M  V30 15515 C 1531.08 -1.95727 0.530909 0
M  V30 15516 C 1531.41 -1.70971 -0.921014 0
M  V30 15517 O 1530.69 -1.02436 -1.65339 0
M  V30 15518 C 1530.97 -3.50463 0.827523 0
M  V30 15519 C 1530.82 -3.84665 2.33137 0
M  V30 15520 C 1532.14 -4.38964 0.316053 0
M  V30 15521 H 1529.26 -0.71091 0.194361 0
M  V30 15522 H 1531.9 -1.52752 1.1299 0
M  V30 15523 H 1530.05 -3.87199 0.317732 0
M  V30 15524 H 1531.73 -3.57859 2.91093 0
M  V30 15525 H 1529.97 -3.32102 2.79088 0
M  V30 15526 H 1530.64 -4.92676 2.48947 0
M  V30 15527 H 1533.12 -4.09237 0.75262 0
M  V30 15528 H 1531.99 -5.4611 0.552769 0
M  V30 15529 H 1532.25 -4.35105 -0.783329 0
M  V30 15530 N 1531.31 -0.665475 -1.42861 0
M  V30 15531 C 1532.24 0.0574495 -2.29128 0
M  V30 15532 C 1533.26 0.774881 -1.43176 0
M  V30 15533 O 1534.45 0.630593 -1.6699 0
M  V30 15534 C 1531.55 1.10481 -3.20386 0
M  V30 15535 C 1530.72 0.463071 -4.34942 0
M  V30 15536 C 1529.78 1.40896 -5.06986 0
M  V30 15537 O 1528.8 0.912839 -5.61833 0
M  V30 15538 N 1530.01 2.74257 -5.11628 0
M  V30 15539 H 1532.77 -0.683051 -2.91812 0
M  V30 15540 H 1530.33 -0.509179 -1.53685 0
M  V30 15541 H 1532.32 1.73866 -3.65449 0
M  V30 15542 H 1530.89 1.74715 -2.59217 0
M  V30 15543 H 1530.11 -0.350109 -3.92642 0
M  V30 15544 H 1531.4 0.0156092 -5.08798 0
M  V30 15545 H 1530.8 3.17112 -4.68462 0
M  V30 15546 H 1529.36 3.32913 -5.60368 0
M  V30 15547 N 1532.79 1.52222 -0.408187 0
M  V30 15548 C 1533.7 2.30725 0.424645 0
M  V30 15549 C 1534.72 1.38412 1.05442 0
M  V30 15550 O 1535.89 1.71486 1.05614 0
M  V30 15551 C 1532.96 3.11273 1.52677 0
M  V30 15552 C 1532.02 4.19323 0.920143 0
M  V30 15553 C 1531.25 4.96021 1.96974 0
M  V30 15554 O 1531.47 4.73011 3.18774 0
M  V30 15555 O 1530.41 5.80887 1.5765 0
M  V30 15556 H 1534.23 3.02935 -0.215411 0
M  V30 15557 H 1531.82 1.48413 -0.171414 0
M  V30 15558 H 1533.7 3.61436 2.16661 0
M  V30 15559 H 1532.38 2.41857 2.15144 0
M  V30 15560 H 1531.28 3.7331 0.243037 0
M  V30 15561 H 1532.62 4.91028 0.339405 0
M  V30 15562 N 1534.27 0.138579 1.5699 0
M  V30 15563 C 1535.22 -0.815878 2.12902 0
M  V30 15564 C 1536.2 -1.21511 1.0547 0
M  V30 15565 O 1537.39 -1.18294 1.31665 0
M  V30 15566 C 1534.52 -2.0583 2.74752 0
M  V30 15567 C 1533.61 -1.68255 3.89296 0
M  V30 15568 N 1534 -1.01456 4.9552 0
M  V30 15569 C 1532.3 -1.97583 3.99846 0
M  V30 15570 C 1533 -0.834498 5.75683 0
M  V30 15571 N 1531.97 -1.36571 5.26165 0
M  V30 15572 H 1535.78 -0.296204 2.92404 0
M  V30 15573 H 1533.29 -0.0632473 1.62277 0
M  V30 15574 H 1535.29 -2.75197 3.13165 0
M  V30 15575 H 1533.95 -2.58323 1.96721 0
M  V30 15576 H 1534.96 -0.67628 5.13466 0
M  V30 15577 H 1531.64 -2.51985 3.32881 0
M  V30 15578 H 1533.03 -0.308664 6.71191 0
M  V30 15579 N 1535.75 -1.57019 -0.13521 0
M  V30 15580 C 1536.99 -1.85801 -0.851896 0
M  V30 15581 C 1537.35 -0.724449 -1.77808 0
M  V30 15582 O 1538.55 -0.893619 -2.53511 0
M  V30 15583 C 1536.82 -3.19788 -1.59595 0
M  V30 15584 S 1538.38 -3.70159 -2.35644 0
M  V30 15585 H 1535.2 -0.651534 -0.284649 0
M  V30 15586 H 1537.8 -1.95184 -0.111177 0
M  V30 15587 H 1536.5 -4.00247 -0.907221 0
M  V30 15588 H 1536.04 -3.13441 -2.37735 0
M  V30 15589 H 1538.05 -3.40364 -3.61063 0
M  V30 15590 N 1537.22 0.404919 -1.52309 0
M  V30 15591 C 1538.17 1.51412 -1.7657 0
M  V30 15592 C 1539.17 1.5713 -0.632983 0
M  V30 15593 O 1540.37 1.60486 -0.815121 0
M  V30 15594 H 1536.75 0.503636 -0.55844 0
M  V30 15595 H 1538.72 1.28137 -2.69488 0
M  V30 15596 C 1537.47 2.88733 -1.93722 0
M  V30 15597 H 1536.79 2.85078 -2.80304 0
M  V30 15598 H 1538.23 3.65626 -2.14695 0
M  V30 15599 C 1536.69 3.29431 -0.705444 0
M  V30 15600 O 1537.22 4.01506 0.124693 0
M  V30 15601 N 1535.43 2.85536 -0.540128 0
M  V30 15602 H 1534.97 2.27052 -1.21677 0
M  V30 15603 H 1534.93 3.13126 0.282723 0
M  V30 15604 N 1538.7 1.43003 0.662408 0
M  V30 15605 C 1539.95 1.43848 1.41958 0
M  V30 15606 C 1540.27 0.06046 1.94906 0
M  V30 15607 O 1539.54 -0.90287 1.73854 0
M  V30 15608 H 1538.12 0.529587 0.526827 0
M  V30 15609 H 1540.78 1.7853 0.781867 0
M  V30 15610 H 1539.88 2.14562 2.26649 0
M  V30 15611 N 1540.18 -0.899904 1.29381 0
M  V30 15612 C 1541.41 -1.68911 1.20349 0
M  V30 15613 C 1541.83 -1.86657 -0.232523 0
M  V30 15614 O 1541.19 -1.38674 -1.16787 0
M  V30 15615 C 1541.24 -3.05124 1.92177 0
M  V30 15616 O 1540.34 -3.93358 1.23867 0
M  V30 15617 H 1539.68 -0.516698 0.417036 0
M  V30 15618 H 1542.21 -1.12422 1.70946 0
M  V30 15619 H 1542.22 -3.55267 2.00623 0
M  V30 15620 H 1540.9 -2.91525 2.96624 0
M  V30 15621 H 1539.47 -3.51793 1.23677 0
M  V30 15622 N 1541.66 -1.11854 -1.11024 0
M  V30 15623 C 1542.94 -0.781693 -1.79301 0
M  V30 15624 C 1543.32 0.72956 -1.98092 0
M  V30 15625 O 1542.66 1.66109 -1.56908 0
M  V30 15626 C 1542.87 -1.54976 -3.12703 0
M  V30 15627 C 1544.22 -1.73183 -3.87676 0
M  V30 15628 O 1545.25 -1.51437 -3.22406 0
M  V30 15629 O 1544.1 -2.0935 -5.04812 0
M  V30 15630 H 1541.2 -0.283672 -0.776826 0
M  V30 15631 H 1543.74 -1.22222 -1.17728 0
M  V30 15632 H 1542.52 -2.57759 -2.94408 0
M  V30 15633 H 1542.14 -1.10308 -3.81992 0
M  V30 15634 N 1543.14 1.28707 -0.909517 0
M  V30 15635 C 1544.38 1.9693 -0.547521 0
M  V30 15636 C 1544.74 1.70052 0.891417 0
M  V30 15637 O 1545.94 2.31811 1.36078 0
M  V30 15638 C 1544.21 3.4731 -0.843226 0
M  V30 15639 S 1545.77 4.34856 -0.587013 0
M  V30 15640 H 1542.59 0.681478 -0.202753 0
M  V30 15641 H 1545.19 1.5632 -1.17406 0
M  V30 15642 H 1543.9 3.64367 -1.88851 0
M  V30 15643 H 1543.43 3.92865 -0.205179 0
M  V30 15644 H 1545.44 4.92989 0.563561 0
M  V30 15645 N 1544.61 0.673042 1.42506 0
M  V30 15646 C 1545.55 -0.0452975 2.29155 0
M  V30 15647 C 1546.56 -0.767277 1.43585 0
M  V30 15648 O 1547.75 -0.621728 1.67322 0
M  V30 15649 C 1544.85 -1.0878 3.20967 0
M  V30 15650 C 1544.02 -0.439999 4.35181 0
M  V30 15651 C 1543.08 -1.38205 5.07726 0
M  V30 15652 O 1542.11 -0.883031 5.62309 0
M  V30 15653 N 1543.31 -2.7154 5.13075 0
M  V30 15654 H 1546.07 0.698517 2.91446 0
M  V30 15655 H 1543.63 0.517322 1.53412 0
M  V30 15656 H 1545.63 -1.71925 3.66366 0
M  V30 15657 H 1544.2 -1.73337 2.6014 0
M  V30 15658 H 1543.42 0.370926 3.92451 0
M  V30 15659 H 1544.7 0.0113738 5.08799 0
M  V30 15660 H 1544.1 -3.14623 4.70137 0
M  V30 15661 H 1542.66 -3.29937 5.62126 0
M  V30 15662 N 1546.09 -1.52004 0.416254 0
M  V30 15663 C 1547.33 -2.03799 -0.156638 0
M  V30 15664 C 1547.7 -1.29476 -1.41775 0
M  V30 15665 O 1548.9 -1.71534 -2.06953 0
M  V30 15666 C 1547.17 -3.55251 -0.391311 0
M  V30 15667 S 1548.73 -4.28818 -0.93063 0
M  V30 15668 H 1545.55 -0.709775 -0.0417176 0
M  V30 15669 H 1548.15 -1.86981 0.570812 0
M  V30 15670 H 1546.85 -4.06921 0.533206 0
M  V30 15671 H 1546.38 -3.76325 -1.14644 0
M  V30 15672 H 1548.4 -4.44244 -2.21046 0
M  V30 15673 N 1547.57 -0.146903 -1.56914 0
M  V30 15674 C 1548.85 0.549291 -1.87729 0
M  V30 15675 C 1549.23 1.82971 -1.05284 0
M  V30 15676 O 1548.58 2.28073 -0.139628 0
M  V30 15677 C 1548.79 0.814835 -3.39354 0
M  V30 15678 C 1550.13 1.15565 -4.0857 0
M  V30 15679 O 1551.16 0.904191 -3.44533 0
M  V30 15680 O 1550.02 1.62886 -5.21661 0
M  V30 15681 H 1547.11 0.280196 -0.778087 0
M  V30 15682 H 1549.66 -0.183507 -1.68705 0
M  V30 15683 H 1548.43 -0.0913527 -3.91193 0
M  V30 15684 H 1548.05 1.60182 -3.63906 0
M  V30 15685 N 1549.05 1.57088 0.126881 0
M  V30 15686 C 1550 1.99764 1.15599 0
M  V30 15687 C 1550.97 0.868468 1.41587 0
M  V30 15688 O 1552.15 1.13209 1.53585 0
M  V30 15689 C 1549.29 2.40038 2.47943 0
M  V30 15690 C 1548.4 3.66336 2.28958 0
M  V30 15691 C 1547.54 3.95626 3.54477 0
M  V30 15692 C 1546.58 5.15131 3.30616 0
M  V30 15693 N 1545.71 5.4033 4.48317 0
M  V30 15694 H 1550.55 2.87473 0.785078 0
M  V30 15695 H 1548.09 1.42209 0.376169 0
M  V30 15696 H 1550.05 2.61423 3.25136 0
M  V30 15697 H 1548.68 1.55382 2.82942 0
M  V30 15698 H 1547.73 3.52612 1.4272 0
M  V30 15699 H 1549.04 4.53684 2.07298 0
M  V30 15700 H 1548.2 4.17617 4.40092 0
M  V30 15701 H 1546.94 3.06738 3.79161 0
M  V30 15702 H 1545.94 4.92992 2.43391 0
M  V30 15703 H 1547.17 6.05588 3.0731 0
M  V30 15704 H 1545.11 4.54399 4.73136 0
M  V30 15705 H 1545.03 6.21985 4.29733 0
M  V30 15706 H 1546.3 5.66835 5.35088 0
M  V30 15707 N 1550.53 -0.396836 1.52522 0
M  V30 15708 C 1551.49 -1.46695 1.76106 0
M  V30 15709 C 1552.49 -1.47902 0.631005 0
M  V30 15710 O 1553.68 -1.4921 0.898995 0
M  V30 15711 C 1550.81 -2.86033 1.85467 0
M  V30 15712 H 1552 -1.27071 2.71649 0
M  V30 15713 H 1549.56 -0.628096 1.43125 0
M  V30 15714 H 1550.29 -3.11012 0.918816 0
M  V30 15715 H 1550.08 -2.86559 2.67631 0
M  V30 15716 H 1551.57 -3.63587 2.05412 0
M  V30 15717 N 1552.01 -1.43353 -0.654814 0
M  V30 15718 C 1553.23 -1.48322 -1.4425 0
M  V30 15719 C 1553.65 -0.100608 -1.88532 0
M  V30 15720 O 1553.01 0.888831 -1.59393 0
M  V30 15721 C 1553.06 -2.42769 -2.67853 0
M  V30 15722 O 1552.78 -3.75653 -2.25424 0
M  V30 15723 C 1554.28 -2.56964 -3.61226 0
M  V30 15724 H 1551.5 -0.503805 -0.443195 0
M  V30 15725 H 1554.04 -1.88078 -0.802916 0
M  V30 15726 H 1552.2 -2.06212 -3.27956 0
M  V30 15727 H 1552.61 -4.26427 -3.05386 0
M  V30 15728 H 1554.09 -3.27129 -4.44624 0
M  V30 15729 H 1554.56 -1.61404 -4.08467 0
M  V30 15730 H 1555.17 -2.94325 -3.07006 0
M  V30 15731 N 1553.48 0.89303 -1.29857 0
M  V30 15732 C 1554.73 1.64088 -1.17981 0
M  V30 15733 C 1555.05 1.93156 0.267533 0
M  V30 15734 O 1554.32 1.56233 1.18186 0
M  V30 15735 H 1552.9 0.608241 -0.43365 0
M  V30 15736 H 1555.56 1.07042 -1.62874 0
M  V30 15737 H 1554.66 2.59446 -1.73477 0
M  V30 15738 N 1554.96 1.12442 1.10429 0
M  V30 15739 C 1555.89 0.750131 2.16577 0
M  V30 15740 C 1556.91 -0.223265 1.61262 0
M  V30 15741 O 1558.1 -0.00459454 1.78499 0
M  V30 15742 C 1555.2 0.0895474 3.38782 0
M  V30 15743 C 1554.37 1.09242 4.23539 0
M  V30 15744 C 1553.43 0.45945 5.2419 0
M  V30 15745 O 1552.45 1.11646 5.58143 0
M  V30 15746 N 1553.66 -0.773093 5.75329 0
M  V30 15747 H 1556.42 1.66349 2.49295 0
M  V30 15748 H 1553.98 1.01603 1.26049 0
M  V30 15749 H 1555.97 -0.345895 4.03219 0
M  V30 15750 H 1554.54 -0.726572 3.04039 0
M  V30 15751 H 1553.76 1.70549 3.55396 0
M  V30 15752 H 1555.05 1.77057 4.76999 0
M  V30 15753 H 1554.45 -1.32585 5.49943 0
M  V30 15754 H 1553.01 -1.15135 6.41551 0
M  V30 15755 N 1556.44 -1.28223 0.91633 0
M  V30 15756 C 1557.68 -1.96637 0.557957 0
M  V30 15757 C 1558.04 -1.70523 -0.882386 0
M  V30 15758 O 1559.24 -2.32529 -1.34846 0
M  V30 15759 C 1557.52 -3.46858 0.861633 0
M  V30 15760 S 1559.07 -4.34538 0.610066 0
M  V30 15761 H 1555.89 -0.680393 0.206364 0
M  V30 15762 H 1558.49 -1.55696 1.18233 0
M  V30 15763 H 1557.2 -3.63361 1.90781 0
M  V30 15764 H 1556.73 -3.9275 0.226011 0
M  V30 15765 H 1558.74 -4.93281 -0.537408 0
M  V30 15766 N 1557.92 -0.68059 -1.42147 0
M  V30 15767 C 1558.85 -0.0199376 -2.33491 0
M  V30 15768 C 1559.83 0.783164 -1.50999 0
M  V30 15769 O 1561.01 0.739154 -1.79583 0
M  V30 15770 C 1558.14 0.927902 -3.34675 0
M  V30 15771 C 1557.1 0.232979 -4.27365 0
M  V30 15772 C 1556.42 1.29415 -5.18802 0
M  V30 15773 C 1557.72 -0.891559 -5.14634 0
M  V30 15774 H 1559.42 -0.782823 -2.88985 0
M  V30 15775 H 1556.96 -0.377898 -1.38953 0
M  V30 15776 H 1558.92 1.3992 -3.97493 0
M  V30 15777 H 1557.64 1.72228 -2.77498 0
M  V30 15778 H 1556.3 -0.21814 -3.6595 0
M  V30 15779 H 1555.95 2.08067 -4.57949 0
M  V30 15780 H 1555.65 0.834274 -5.81647 0
M  V30 15781 H 1557.17 1.76627 -5.84496 0
M  V30 15782 H 1558.59 -0.501219 -5.71105 0
M  V30 15783 H 1556.98 -1.27759 -5.86343 0
M  V30 15784 H 1558.05 -1.73781 -4.5269 0
M  V30 15785 N 1559.4 1.51781 -0.424309 0
M  V30 15786 C 1560.64 2.03879 0.145828 0
M  V30 15787 C 1561 1.30226 1.41086 0
M  V30 15788 O 1562.2 1.72629 2.06041 0
M  V30 15789 C 1560.47 3.55454 0.372466 0
M  V30 15790 S 1562.03 4.29305 0.907876 0
M  V30 15791 H 1558.85 0.709986 0.0379529 0
M  V30 15792 H 1561.45 1.86676 -0.58072 0
M  V30 15793 H 1560.15 4.06633 -0.554778 0
M  V30 15794 H 1559.69 3.76928 1.12646 0
M  V30 15795 H 1561.7 4.4541 2.18687 0
M  V30 15796 N 1560.87 0.155222 1.56834 0
M  V30 15797 C 1561.8 -0.777258 2.20184 0
M  V30 15798 C 1562.78 -1.25102 1.15254 0
M  V30 15799 O 1563.97 -1.3071 1.43627 0
M  V30 15800 C 1561.1 -2.01326 2.82993 0
M  V30 15801 C 1560.05 -1.67596 3.93822 0
M  V30 15802 C 1559.38 -2.98529 4.43604 0
M  V30 15803 C 1560.68 -0.916302 5.142 0
M  V30 15804 H 1562.37 -0.249257 2.98361 0
M  V30 15805 H 1559.92 -0.118448 1.43512 0
M  V30 15806 H 1561.87 -2.67048 3.2598 0
M  V30 15807 H 1560.6 -2.56513 2.0216 0
M  V30 15808 H 1559.26 -1.0425 3.51465 0
M  V30 15809 H 1558.9 -3.51723 3.59583 0
M  V30 15810 H 1558.6 -2.76721 5.18362 0
M  V30 15811 H 1560.13 -3.65308 4.89267 0
M  V30 15812 H 1561.54 -1.47577 5.5398 0
M  V30 15813 H 1559.94 -0.797856 5.94772 0
M  V30 15814 H 1561.01 0.0904351 4.84816 0
M  V30 15815 N 1562.35 -1.57153 -0.118549 0
M  V30 15816 C 1563.76 -1.74046 -0.675645 0
M  V30 15817 C 1564.11 -0.773974 -1.80289 0
M  V30 15818 O 1563.24 0.0530041 -2.16335 0
M  V30 15819 C 1563.83 -3.15591 -1.23239 0
M  V30 15820 C 1562.39 -3.33988 -1.73577 0
M  V30 15821 C 1561.54 -2.69916 -0.63567 0
M  V30 15822 H 1564.49 -1.58336 0.10737 0
M  V30 15823 H 1564.51 -3.17166 -2.10205 0
M  V30 15824 H 1564.02 -3.8591 -0.411744 0
M  V30 15825 H 1562.12 -2.68712 -2.58118 0
M  V30 15826 H 1562.24 -4.42154 -1.84491 0
M  V30 15827 H 1560.6 -2.31163 -1.06939 0
M  V30 15828 H 1561.38 -3.42859 0.174005 0
M  V30 15829 N 1563.83 0.388742 -1.5273 0
M  V30 15830 C 1564.78 1.49531 -1.78166 0
M  V30 15831 C 1565.77 1.56449 -0.649613 0
M  V30 15832 O 1566.98 1.59612 -0.832097 0
M  V30 15833 H 1563.35 0.497684 -0.56375 0
M  V30 15834 H 1565.32 1.25271 -2.70831 0
M  V30 15835 C 1564.07 2.86663 -1.96774 0
M  V30 15836 H 1563.4 2.82089 -2.83312 0
M  V30 15837 H 1564.84 3.63328 -2.18561 0
M  V30 15838 C 1563.29 3.28665 -0.740345 0
M  V30 15839 O 1563.82 4.01616 0.0821005 0
M  V30 15840 N 1562.03 2.84947 -0.570383 0
M  V30 15841 H 1561.58 2.25748 -1.24078 0
M  V30 15842 H 1561.54 3.13408 0.249496 0
M  V30 15843 N 1565.31 1.43698 0.647203 0
M  V30 15844 C 1566.55 1.45849 1.40911 0
M  V30 15845 C 1566.89 0.0846767 1.94015 0
M  V30 15846 O 1566.16 -0.89537 1.72665 0
M  V30 15847 C 1566.44 2.50579 2.58616 0
M  V30 15848 C 1566.3 3.97258 2.10965 0
M  V30 15849 C 1567.62 2.51981 3.60824 0
M  V30 15850 H 1564.74 0.531056 0.511027 0
M  V30 15851 H 1567.38 1.75283 0.733204 0
M  V30 15852 H 1565.53 2.25611 3.16278 0
M  V30 15853 H 1567.2 4.33304 1.58257 0
M  V30 15854 H 1565.44 4.09802 1.42284 0
M  V30 15855 H 1566.11 4.6616 2.95633 0
M  V30 15856 H 1568.59 2.7425 3.12932 0
M  V30 15857 H 1567.47 3.27191 4.40723 0
M  V30 15858 H 1567.73 1.55582 4.1382 0
M  V30 15859 N 1566.79 -0.886131 1.30328 0
M  V30 15860 C 1568.04 -1.63255 1.18451 0
M  V30 15861 C 1568.35 -1.93864 -0.260016 0
M  V30 15862 O 1569.55 -2.66851 -0.500288 0
M  V30 15863 C 1568.01 -2.94232 2.07257 0
M  V30 15864 C 1567.62 -2.71168 3.56612 0
M  V30 15865 C 1569.36 -3.72193 2.04139 0
M  V30 15866 C 1567.27 -3.97954 4.37478 0
M  V30 15867 H 1566.2 -0.612491 0.439739 0
M  V30 15868 H 1568.85 -0.981129 1.55068 0
M  V30 15869 H 1567.23 -3.60661 1.63522 0
M  V30 15870 H 1568.41 -2.13247 4.08488 0
M  V30 15871 H 1566.72 -2.06584 3.61541 0
M  V30 15872 H 1569.32 -4.66219 2.61809 0
M  V30 15873 H 1569.66 -4.03495 1.02459 0
M  V30 15874 H 1570.19 -3.12624 2.45989 0
M  V30 15875 H 1566.93 -3.71811 5.39849 0
M  V30 15876 H 1566.45 -4.55384 3.90366 0
M  V30 15877 H 1568.13 -4.65984 4.48852 0
M  V30 15878 N 1568.26 -1.13026 -1.09832 0
M  V30 15879 C 1569.51 -0.887662 -1.81563 0
M  V30 15880 C 1569.83 0.587935 -1.85926 0
M  V30 15881 O 1569.1 1.42732 -1.3418 0
M  V30 15882 H 1567.68 -0.32541 -0.672397 0
M  V30 15883 H 1570.35 -1.42597 -1.32861 0
M  V30 15884 H 1569.44 -1.2747 -2.84882 0
M  V30 15885 N 1569.74 1.27735 -0.923117 0
M  V30 15886 C 1570.67 2.26095 -0.375982 0
M  V30 15887 C 1571.69 1.55227 0.490763 0
M  V30 15888 O 1572.88 1.7589 0.304127 0
M  V30 15889 C 1569.98 3.35479 0.480342 0
M  V30 15890 C 1569.15 4.35866 -0.36605 0
M  V30 15891 C 1568.21 5.24466 0.42688 0
M  V30 15892 O 1567.23 5.68964 -0.163825 0
M  V30 15893 N 1568.44 5.54192 1.72777 0
M  V30 15894 H 1571.2 2.73679 -1.22147 0
M  V30 15895 H 1568.76 1.41314 -0.790056 0
M  V30 15896 H 1570.75 3.91693 1.01776 0
M  V30 15897 H 1569.32 2.87531 1.22657 0
M  V30 15898 H 1568.54 3.7898 -1.08479 0
M  V30 15899 H 1569.83 4.9995 -0.944849 0
M  V30 15900 H 1569.23 5.19888 2.23008 0
M  V30 15901 H 1567.79 6.13125 2.21181 0
M  V30 15902 N 1571.22 0.688118 1.41784 0
M  V30 15903 C 1572.17 0.00661035 2.32599 0
M  V30 15904 C 1573.16 -0.776475 1.50556 0
M  V30 15905 O 1574.37 -0.682937 1.66541 0
M  V30 15906 H 1570.74 -0.0166615 0.751815 0
M  V30 15907 H 1572.71 0.789718 2.8776 0
M  V30 15908 C 1571.46 -0.921251 3.35273 0
M  V30 15909 H 1570.79 -0.328099 3.98451 0
M  V30 15910 H 1572.23 -1.36655 4.01374 0
M  V30 15911 C 1570.69 -2.03393 2.68576 0
M  V30 15912 O 1571.22 -3.1219 2.52785 0
M  V30 15913 N 1569.42 -1.8095 2.27389 0
M  V30 15914 H 1568.97 -0.924692 2.40431 0
M  V30 15915 H 1568.93 -2.55584 1.83096 0
M  V30 15916 N 1572.7 -1.51554 0.432352 0
M  V30 15917 C 1573.94 -2.03954 -0.135014 0
M  V30 15918 C 1574.3 -1.30972 -1.40393 0
M  V30 15919 O 1575.5 -1.73719 -2.05122 0
M  V30 15920 C 1573.77 -3.55646 -0.35361 0
M  V30 15921 S 1575.33 -4.29781 -0.885096 0
M  V30 15922 H 1572.15 -0.710178 -0.0341871 0
M  V30 15923 H 1574.75 -1.86365 0.590612 0
M  V30 15924 H 1573.46 -4.06333 0.576335 0
M  V30 15925 H 1572.99 -3.7752 -1.10646 0
M  V30 15926 H 1575 -4.46564 -2.16322 0
M  V30 15927 N 1574.18 -0.163538 -1.56749 0
M  V30 15928 C 1575.45 0.529349 -1.88301 0
M  V30 15929 C 1575.83 1.81844 -1.07219 0
M  V30 15930 O 1575.18 2.27912 -0.16381 0
M  V30 15931 C 1575.39 0.778796 -3.402 0
M  V30 15932 C 1576.74 1.11225 -4.09773 0
M  V30 15933 O 1577.76 0.867598 -3.45472 0
M  V30 15934 O 1576.62 1.57344 -5.2336 0
M  V30 15935 H 1573.72 0.271928 -0.781015 0
M  V30 15936 H 1576.26 -0.20139 -1.68501 0
M  V30 15937 H 1575.03 -0.132839 -3.91074 0
M  V30 15938 H 1574.66 1.56313 -3.65584 0
M  V30 15939 N 1575.65 1.57214 0.110213 0
M  V30 15940 C 1577.07 1.52706 0.464004 0
M  V30 15941 C 1577.27 0.87792 1.81369 0
M  V30 15942 O 1576.33 0.463987 2.482 0
M  V30 15943 C 1577.64 2.97457 0.440406 0
M  V30 15944 C 1579.19 3.08594 0.523336 0
M  V30 15945 C 1579.66 4.54923 0.53004 0
M  V30 15946 N 1581.15 4.59411 0.591228 0
M  V30 15947 C 1581.89 5.7006 0.618007 0
M  V30 15948 N 1581.38 6.9018 0.601901 0
M  V30 15949 N 1583.18 5.58192 0.661679 0
M  V30 15950 H 1575.33 1.97794 -0.77403 0
M  V30 15951 H 1577.59 0.903673 -0.286496 0
M  V30 15952 H 1577.3 3.48356 -0.483845 0
M  V30 15953 H 1577.17 3.55356 1.26498 0
M  V30 15954 H 1579.56 2.57692 1.43801 0
M  V30 15955 H 1579.64 2.53674 -0.329095 0
M  V30 15956 H 1579.28 5.06472 -0.380623 0
M  V30 15957 H 1579.21 5.07663 1.39948 0
M  V30 15958 H 1581.7 3.72953 0.609483 0
M  V30 15959 H 1582.02 7.70267 0.6252 0
M  V30 15960 H 1580.36 6.92665 0.569186 0
M  V30 15961 H 1583.55 4.63256 0.671686 0
M  V30 15962 H 1583.73 6.44432 0.67908 0
M  V30 15963 N 1577.13 -0.380637 1.52934 0
M  V30 15964 C 1578.37 -1.13369 1.70079 0
M  V30 15965 C 1578.74 -1.86994 0.435592 0
M  V30 15966 O 1579.94 -2.64416 0.483515 0
M  V30 15967 C 1578.21 -2.07933 2.90686 0
M  V30 15968 S 1579.77 -2.90962 3.28461 0
M  V30 15969 H 1576.59 -0.383638 0.598617 0
M  V30 15970 H 1579.19 -0.416966 1.91002 0
M  V30 15971 H 1577.89 -1.52581 3.80982 0
M  V30 15972 H 1577.42 -2.84101 2.72121 0
M  V30 15973 H 1579.44 -4.10129 2.793 0
M  V30 15974 N 1578.61 -1.44039 -0.639573 0
M  V30 15975 C 1579.57 -1.49907 -1.7338 0
M  V30 15976 C 1580.57 -0.382101 -1.56194 0
M  V30 15977 O 1581.76 -0.644396 -1.61843 0
M  V30 15978 C 1578.9 -1.36486 -3.12385 0
M  V30 15979 H 1580.09 -2.4737 -1.69553 0
M  V30 15980 H 1577.64 -1.31006 -0.852474 0
M  V30 15981 H 1578.38 -0.400845 -3.21813 0
M  V30 15982 H 1578.16 -2.17471 -3.26265 0
M  V30 15983 H 1579.65 -1.43555 -3.9215 0
M  V30 15984 N 1580.09 0.879207 -1.30796 0
M  V30 15985 C 1581.5 1.44705 -1.17972 0
M  V30 15986 C 1581.85 1.94992 0.217381 0
M  V30 15987 O 1580.98 1.85494 1.11449 0
M  V30 15988 C 1581.57 2.6302 -2.13555 0
M  V30 15989 C 1580.13 3.15877 -2.04692 0
M  V30 15990 C 1579.28 1.88576 -2.03309 0
M  V30 15991 H 1582.23 0.688604 -1.42982 0
M  V30 15992 H 1582.25 3.39418 -1.71976 0
M  V30 15993 H 1581.76 2.2639 -3.15229 0
M  V30 15994 H 1579.86 3.57151 -1.0618 0
M  V30 15995 H 1579.97 3.78786 -2.93357 0
M  V30 15996 H 1578.34 2.0715 -1.48192 0
M  V30 15997 H 1579.12 1.54195 -3.06723 0
M  V30 15998 N 1581.57 1.13606 1.09231 0
M  V30 15999 C 1582.52 0.810747 2.18013 0
M  V30 16000 C 1583.51 -0.207782 1.68121 0
M  V30 16001 O 1584.72 -0.0647274 1.79884 0
M  V30 16002 H 1581.09 0.244415 0.711172 0
M  V30 16003 H 1583.06 1.73632 2.42682 0
M  V30 16004 C 1581.81 0.295302 3.46444 0
M  V30 16005 H 1581.13 1.07037 3.85205 0
M  V30 16006 H 1582.57 0.106127 4.23867 0
M  V30 16007 C 1581.03 -0.979398 3.2235 0
M  V30 16008 O 1581.56 -2.05483 3.45166 0
M  V30 16009 N 1579.77 -0.911282 2.75942 0
M  V30 16010 H 1579.32 -0.035979 2.57575 0
M  V30 16011 H 1579.27 -1.76476 2.60199 0
M  V30 16012 N 1583.05 -1.27244 0.929878 0
M  V30 16013 C 1584.27 -1.98373 0.587845 0
M  V30 16014 C 1584.69 -1.69349 -0.834638 0
M  V30 16015 O 1584.05 -0.955281 -1.55501 0
M  V30 16016 C 1584.1 -3.52381 0.806843 0
M  V30 16017 O 1583.82 -3.8039 2.17337 0
M  V30 16018 C 1585.32 -4.40761 0.473818 0
M  V30 16019 H 1582.54 -0.633015 0.22256 0
M  V30 16020 H 1585.08 -1.62043 1.2475 0
M  V30 16021 H 1583.24 -3.86914 0.193963 0
M  V30 16022 H 1583.65 -4.74968 2.22498 0
M  V30 16023 H 1585.13 -5.47824 0.677736 0
M  V30 16024 H 1585.6 -4.35209 -0.590734 0
M  V30 16025 H 1586.21 -4.11751 1.06493 0
M  V30 16026 N 1584.52 -0.695628 -1.41417 0
M  V30 16027 C 1585.77 -0.235709 -2.0203 0
M  V30 16028 C 1586.12 1.15186 -1.5411 0
M  V30 16029 O 1585.42 1.76628 -0.742491 0
M  V30 16030 C 1585.61 -0.232664 -3.56642 0
M  V30 16031 C 1585.44 -1.61841 -4.19569 0
M  V30 16032 C 1584.21 -2.22126 -4.53859 0
M  V30 16033 C 1586.41 -2.56502 -4.4577 0
M  V30 16034 N 1584.39 -3.53264 -5.02073 0
M  V30 16035 C 1585.76 -3.72319 -4.9576 0
M  V30 16036 C 1587.82 -2.54768 -4.27782 0
M  V30 16037 C 1586.52 -4.86684 -5.29652 0
M  V30 16038 C 1588.55 -3.68245 -4.62763 0
M  V30 16039 C 1587.91 -4.82792 -5.12924 0
M  V30 16040 H 1584.01 -0.131642 -0.77084 0
M  V30 16041 H 1586.59 -0.913121 -1.7196 0
M  V30 16042 H 1584.76 0.414235 -3.86185 0
M  V30 16043 H 1586.49 0.242088 -4.03975 0
M  V30 16044 H 1583.25 -1.74412 -4.40315 0
M  V30 16045 H 1583.67 -4.20485 -5.30586 0
M  V30 16046 H 1588.31 -1.67424 -3.88238 0
M  V30 16047 H 1586.03 -5.74687 -5.6812 0
M  V30 16048 H 1589.62 -3.68155 -4.50504 0
M  V30 16049 H 1588.5 -5.69145 -5.39485 0
M  V30 16050 N 1586 1.51322 -0.440383 0
M  V30 16051 C 1586.93 2.25587 0.40537 0
M  V30 16052 C 1587.95 1.29721 0.983686 0
M  V30 16053 O 1589.14 1.55453 0.877308 0
M  V30 16054 C 1586.24 2.99848 1.57938 0
M  V30 16055 C 1585.41 4.22834 1.11939 0
M  V30 16056 C 1584.47 4.79649 2.16387 0
M  V30 16057 O 1583.49 5.41405 1.75697 0
M  V30 16058 N 1584.7 4.63948 3.48902 0
M  V30 16059 H 1587.46 2.98807 -0.231143 0
M  V30 16060 H 1585.02 1.59642 -0.26944 0
M  V30 16061 H 1587.01 3.34743 2.2744 0
M  V30 16062 H 1585.58 2.29619 2.12117 0
M  V30 16063 H 1584.8 3.93398 0.251323 0
M  V30 16064 H 1586.09 5.02637 0.7895 0
M  V30 16065 H 1585.49 4.14764 3.84691 0
M  V30 16066 H 1584.05 5.03196 4.14291 0
M  V30 16067 N 1587.48 0.171848 1.5666 0
M  V30 16068 C 1588.41 -0.753861 2.20996 0
M  V30 16069 C 1589.39 -1.23873 1.16574 0
M  V30 16070 O 1590.58 -1.29179 1.45005 0
M  V30 16071 C 1587.71 -1.98314 2.85112 0
M  V30 16072 C 1586.66 -1.6341 3.95577 0
M  V30 16073 C 1585.99 -2.93807 4.46745 0
M  V30 16074 C 1587.29 -0.861713 5.15142 0
M  V30 16075 H 1588.98 -0.217598 2.98608 0
M  V30 16076 H 1586.53 -0.10322 1.4363 0
M  V30 16077 H 1588.48 -2.63576 3.28794 0
M  V30 16078 H 1587.2 -2.54354 2.04869 0
M  V30 16079 H 1585.86 -1.00516 3.52551 0
M  V30 16080 H 1585.51 -3.47889 3.63293 0
M  V30 16081 H 1585.21 -2.71207 5.21268 0
M  V30 16082 H 1586.73 -3.60098 4.93114 0
M  V30 16083 H 1588.15 -1.41693 5.55514 0
M  V30 16084 H 1586.54 -0.734727 5.95585 0
M  V30 16085 H 1587.61 0.141851 4.84692 0
M  V30 16086 N 1588.96 -1.5727 -0.101874 0
M  V30 16087 C 1589.92 -2.00625 -1.10826 0
M  V30 16088 C 1590.92 -0.89878 -1.33336 0
M  V30 16089 O 1592.11 -1.16442 -1.29564 0
M  V30 16090 C 1589.24 -2.36113 -2.45893 0
M  V30 16091 H 1590.44 -2.90748 -0.735238 0
M  V30 16092 H 1587.99 -1.52406 -0.346713 0
M  V30 16093 H 1588.72 -1.48923 -2.88084 0
M  V30 16094 H 1588.51 -3.169 -2.30904 0
M  V30 16095 H 1590 -2.70336 -3.1829 0
M  V30 16096 N 1590.44 0.372521 -1.53134 0
M  V30 16097 C 1591.66 1.14116 -1.73183 0
M  V30 16098 C 1592.09 1.82475 -0.456553 0
M  V30 16099 O 1591.44 1.71468 0.588919 0
M  V30 16100 C 1591.49 2.15241 -2.89316 0
M  V30 16101 O 1590.6 3.22178 -2.57439 0
M  V30 16102 H 1589.94 0.331442 -0.575362 0
M  V30 16103 H 1592.47 0.431769 -1.99992 0
M  V30 16104 H 1592.48 2.58961 -3.15283 0
M  V30 16105 H 1591.15 1.64877 -3.81822 0
M  V30 16106 H 1589.73 2.83481 -2.42267 0
M  V30 16107 N 1591.91 1.44376 0.631925 0
M  V30 16108 C 1593.16 1.46827 1.38875 0
M  V30 16109 C 1593.48 0.101789 1.94734 0
M  V30 16110 O 1592.75 -0.86579 1.7573 0
M  V30 16111 H 1591.33 0.540642 0.515475 0
M  V30 16112 H 1593.99 1.80148 0.743822 0
M  V30 16113 H 1593.09 2.19321 2.22047 0
M  V30 16114 N 1593.39 -0.872258 1.31261 0
M  V30 16115 C 1594.62 -1.65795 1.23772 0
M  V30 16116 C 1595.03 -1.87766 -0.197351 0
M  V30 16117 O 1594.39 -1.43418 -1.1286 0
M  V30 16118 C 1594.44 -3.02722 1.9759 0
M  V30 16119 O 1594.16 -2.81734 3.35496 0
M  V30 16120 C 1595.66 -3.97165 1.96913 0
M  V30 16121 H 1592.88 -0.516959 0.427778 0
M  V30 16122 H 1595.43 -1.0889 1.73099 0
M  V30 16123 H 1593.58 -3.56322 1.5203 0
M  V30 16124 H 1594 -3.6869 3.73052 0
M  V30 16125 H 1595.47 -4.90566 2.53079 0
M  V30 16126 H 1595.95 -4.28778 0.951089 0
M  V30 16127 H 1596.55 -3.495 2.42342 0
M  V30 16128 N 1594.87 -1.14184 -1.08627 0
M  V30 16129 C 1596.12 -0.906869 -1.80611 0
M  V30 16130 C 1596.44 0.568182 -1.86539 0
M  V30 16131 O 1595.71 1.41301 -1.35687 0
M  V30 16132 H 1594.29 -0.332523 -0.668908 0
M  V30 16133 H 1596.95 -1.43998 -1.31341 0
M  V30 16134 H 1596.05 -1.30484 -2.83514 0
M  V30 16135 N 1596.35 1.26749 -0.936613 0
M  V30 16136 C 1597.59 1.95725 -0.58917 0
M  V30 16137 C 1597.95 1.71905 0.855145 0
M  V30 16138 O 1599.15 2.34645 1.3113 0
M  V30 16139 C 1597.42 3.45444 -0.916706 0
M  V30 16140 S 1598.98 4.33513 -0.67912 0
M  V30 16141 H 1595.8 0.677024 -0.217162 0
M  V30 16142 H 1598.4 1.53795 -1.20695 0
M  V30 16143 H 1597.11 3.60279 -1.96537 0
M  V30 16144 H 1596.64 3.92341 -0.288466 0
M  V30 16145 H 1598.65 4.94074 0.458864 0
M  V30 16146 N 1597.83 0.703118 1.41046 0
M  V30 16147 C 1599.1 0.164985 1.94903 0
M  V30 16148 C 1599.48 -1.32665 1.64205 0
M  V30 16149 O 1598.83 -2.07675 0.953058 0
M  V30 16150 C 1599.04 0.464354 3.45897 0
M  V30 16151 C 1600.39 0.396205 4.22747 0
M  V30 16152 O 1601.41 0.399698 3.5395 0
M  V30 16153 O 1600.27 0.362874 5.45294 0
M  V30 16154 H 1597.37 0.0193901 0.826773 0
M  V30 16155 H 1599.91 0.779796 1.50722 0
M  V30 16156 H 1598.68 1.49653 3.61552 0
M  V30 16157 H 1598.31 -0.18105 3.97188 0
M  V30 16158 N 1599.3 -1.51086 0.448402 0
M  V30 16159 C 1600.72 -1.86696 -0.0121264 0
M  V30 16160 C 1601.07 -1.36483 -1.40949 0
M  V30 16161 O 1600.19 -0.72024 -2.04062 0
M  V30 16162 C 1600.79 -3.38788 -0.0287814 0
M  V30 16163 C 1599.35 -3.73892 -0.433758 0
M  V30 16164 C 1598.49 -2.74869 0.366362 0
M  V30 16165 H 1601.44 -1.44153 0.663744 0
M  V30 16166 H 1601.46 -3.71204 -0.835915 0
M  V30 16167 H 1600.98 -3.75304 0.988368 0
M  V30 16168 H 1599.08 -3.4297 -1.4561 0
M  V30 16169 H 1599.19 -4.78862 -0.150869 0
M  V30 16170 H 1597.55 -2.54085 -0.176862 0
M  V30 16171 H 1598.34 -3.14228 1.3826 0
M  V30 16172 N 1600.78 -0.180154 -1.56567 0
M  V30 16173 C 1602.02 0.464869 -1.99044 0
M  V30 16174 C 1602.39 1.59822 -1.06399 0
M  V30 16175 O 1603.59 2.30641 -1.38052 0
M  V30 16176 C 1601.86 0.927227 -3.45163 0
M  V30 16177 S 1603.42 1.57219 -4.09668 0
M  V30 16178 H 1600.24 0.149215 -0.695166 0
M  V30 16179 H 1602.84 -0.279699 -1.93489 0
M  V30 16180 H 1601.54 0.0920814 -4.10297 0
M  V30 16181 H 1601.07 1.70562 -3.54503 0
M  V30 16182 H 1603.09 2.86059 -4.05444 0
M  V30 16183 N 1602.26 1.57322 0.0935319 0
M  V30 16184 C 1603.21 2.03184 1.13222 0
M  V30 16185 C 1604.2 0.933184 1.41379 0
M  V30 16186 O 1605.41 1.11836 1.41042 0
M  V30 16187 H 1601.78 0.647541 0.382354 0
M  V30 16188 H 1603.75 2.89606 0.719105 0
M  V30 16189 C 1602.5 2.47336 2.44378 0
M  V30 16190 H 1601.83 3.31456 2.23556 0
M  V30 16191 H 1603.27 2.83199 3.15554 0
M  V30 16192 C 1601.73 1.34728 3.08788 0
M  V30 16193 O 1602.26 0.677285 3.95949 0
M  V30 16194 N 1600.46 1.09787 2.69063 0
M  V30 16195 H 1600.01 1.64451 1.98277 0
M  V30 16196 H 1599.97 0.346436 3.12485 0
M  V30 16197 N 1603.74 -0.364395 1.53329 0
M  V30 16198 C 1604.98 -1.11559 1.71272 0
M  V30 16199 C 1605.34 -1.86521 0.455401 0
M  V30 16200 O 1606.54 -2.63888 0.511533 0
M  V30 16201 C 1604.81 -2.04838 2.92875 0
M  V30 16202 S 1606.37 -2.87462 3.31529 0
M  V30 16203 H 1603.19 -0.377267 0.602653 0
M  V30 16204 H 1605.79 -0.396684 1.91433 0
M  V30 16205 H 1604.5 -1.48532 3.82579 0
M  V30 16206 H 1604.03 -2.81199 2.75119 0
M  V30 16207 H 1606.04 -4.07144 2.83634 0
M  V30 16208 N 1605.22 -1.44709 -0.62426 0
M  V30 16209 C 1606.16 -1.52413 -1.75707 0
M  V30 16210 C 1607.16 -0.395303 -1.64723 0
M  V30 16211 O 1608.36 -0.570535 -1.70719 0
M  V30 16212 H 1604.74 -0.478401 -0.580204 0
M  V30 16213 H 1606.71 -2.47742 -1.66333 0
M  V30 16214 C 1605.46 -1.49208 -3.14058 0
M  V30 16215 H 1604.78 -2.35387 -3.23161 0
M  V30 16216 H 1606.22 -1.58658 -3.93197 0
M  V30 16217 C 1604.68 -0.213877 -3.3622 0
M  V30 16218 O 1605.21 0.713128 -3.95319 0
M  V30 16219 N 1603.42 -0.114834 -2.90373 0
M  V30 16220 H 1602.96 -0.870047 -2.42462 0
M  V30 16221 H 1602.92 0.739619 -3.05576 0
M  V30 16222 N 1606.69 0.865285 -1.31722 0
M  V30 16223 C 1607.66 1.95449 -1.19718 0
M  V30 16224 C 1608.66 1.60329 -0.123025 0
M  V30 16225 O 1609.85 1.70168 -0.372643 0
M  V30 16226 C 1606.98 3.30421 -0.838718 0
M  V30 16227 H 1608.17 2.07522 -2.16506 0
M  V30 16228 H 1605.73 1.05416 -1.154 0
M  V30 16229 H 1606.46 3.24048 0.127797 0
M  V30 16230 H 1606.25 3.57286 -1.61522 0
M  V30 16231 H 1607.74 4.10274 -0.77876 0
M  V30 16232 N 1608.17 1.14759 1.0802 0
M  V30 16233 C 1609.14 0.840859 2.13219 0
M  V30 16234 C 1610.14 -0.156309 1.60038 0
M  V30 16235 O 1611.33 0.0725143 1.74049 0
M  V30 16236 C 1608.46 0.254208 3.39951 0
M  V30 16237 H 1609.65 1.77323 2.4186 0
M  V30 16238 H 1607.2 0.954146 1.23797 0
M  V30 16239 H 1607.94 -0.686692 3.16946 0
M  V30 16240 H 1607.72 0.972499 3.79848 0
M  V30 16241 H 1609.21 0.0569551 4.17561 0
M  V30 16242 N 1609.65 -1.26251 0.943322 0
M  V30 16243 C 1610.6 -2.23996 0.425437 0
M  V30 16244 C 1611.58 -1.53604 -0.479033 0
M  V30 16245 O 1612.78 -1.74194 -0.313929 0
M  V30 16246 C 1609.91 -3.41932 -0.306175 0
M  V30 16247 C 1608.99 -4.19607 0.615711 0
M  V30 16248 N 1609.38 -4.7484 1.74243 0
M  V30 16249 C 1607.68 -4.44002 0.421711 0
M  V30 16250 C 1608.38 -5.3356 2.31709 0
M  V30 16251 N 1607.36 -5.1937 1.60487 0
M  V30 16252 H 1611.16 -2.64296 1.28549 0
M  V30 16253 H 1608.67 -1.4136 0.799446 0
M  V30 16254 H 1610.67 -4.11079 -0.694243 0
M  V30 16255 H 1609.33 -3.03159 -1.16297 0
M  V30 16256 H 1610.34 -4.72318 2.12453 0
M  V30 16257 H 1607.02 -4.15645 -0.393138 0
M  V30 16258 H 1608.41 -5.87151 3.26654 0
M  V30 16259 N 1611.13 -0.710588 -1.40671 0
M  V30 16260 C 1612.35 -0.256007 -2.05814 0
M  V30 16261 C 1612.78 1.09178 -1.53173 0
M  V30 16262 O 1612.14 1.68665 -0.664977 0
M  V30 16263 C 1612.19 -0.240528 -3.59797 0
M  V30 16264 O 1611.29 0.779859 -4.04959 0
M  V30 16265 H 1610.63 -0.121326 -0.652822 0
M  V30 16266 H 1613.16 -0.969667 -1.80163 0
M  V30 16267 H 1613.17 -0.0765027 -4.07928 0
M  V30 16268 H 1611.85 -1.22411 -3.97478 0
M  V30 16269 H 1610.42 0.583965 -3.68299 0
M  V30 16270 N 1612.61 1.50847 -0.456408 0
M  V30 16271 C 1613.85 2.02235 0.103618 0
M  V30 16272 C 1614.18 1.33939 1.41034 0
M  V30 16273 O 1613.44 0.449209 1.90475 0
M  V30 16274 C 1613.74 3.55678 0.350374 0
M  V30 16275 C 1613.4 4.42371 -0.872844 0
M  V30 16276 C 1612.06 4.65784 -1.20825 0
M  V30 16277 C 1614.42 4.9311 -1.68797 0
M  V30 16278 C 1611.74 5.3718 -2.35911 0
M  V30 16279 C 1614.1 5.65769 -2.82998 0
M  V30 16280 C 1612.76 5.8744 -3.16971 0
M  V30 16281 H 1612.03 0.740029 0.0379167 0
M  V30 16282 H 1614.68 1.81609 -0.607497 0
M  V30 16283 H 1612.98 3.74739 1.14359 0
M  V30 16284 H 1614.68 3.92991 0.797418 0
M  V30 16285 H 1611.27 4.24358 -0.601511 0
M  V30 16286 H 1615.45 4.74889 -1.44203 0
M  V30 16287 H 1610.71 5.52169 -2.62524 0
M  V30 16288 H 1614.88 6.04069 -3.46516 0
M  V30 16289 H 1612.51 6.42541 -4.06258 0
M  V30 16290 N 1614.09 0.188454 1.56469 0
M  V30 16291 C 1615.33 -0.451165 1.97 0
M  V30 16292 C 1615.65 -1.6261 1.07624 0
M  V30 16293 O 1614.92 -1.95354 0.146125 0
M  V30 16294 H 1613.5 -0.16967 0.727476 0
M  V30 16295 H 1616.17 0.273638 1.9297 0
M  V30 16296 H 1615.26 -0.799741 3.0168 0
M  V30 16297 N 1615.56 -1.5737 -0.0851874 0
M  V30 16298 C 1616.97 -1.7544 -0.638575 0
M  V30 16299 C 1617.33 -0.812041 -1.78607 0
M  V30 16300 O 1616.45 0.00710428 -2.16399 0
M  V30 16301 C 1617.05 -3.18134 -1.16517 0
M  V30 16302 C 1615.6 -3.37594 -1.66454 0
M  V30 16303 C 1614.75 -2.71203 -0.578274 0
M  V30 16304 H 1617.7 -1.58073 0.140931 0
M  V30 16305 H 1617.72 -3.21553 -2.0343 0
M  V30 16306 H 1617.24 -3.86696 -0.329794 0
M  V30 16307 H 1615.34 -2.74126 -2.5236 0
M  V30 16308 H 1615.45 -4.45968 -1.75071 0
M  V30 16309 H 1613.81 -2.33379 -1.02011 0
M  V30 16310 H 1614.6 -3.42413 0.246691 0
M  V30 16311 N 1617.04 0.356258 -1.53521 0
M  V30 16312 C 1618.27 1.12273 -1.74383 0
M  V30 16313 C 1618.69 1.81981 -0.475881 0
M  V30 16314 O 1618.05 1.72083 0.570699 0
M  V30 16315 C 1618.1 2.12161 -2.91582 0
M  V30 16316 O 1617.2 3.1943 -2.60842 0
M  V30 16317 H 1616.54 0.325321 -0.578845 0
M  V30 16318 H 1619.07 0.410533 -2.00439 0
M  V30 16319 H 1619.08 2.55602 -3.18012 0
M  V30 16320 H 1617.76 1.60818 -3.8355 0
M  V30 16321 H 1616.33 2.80895 -2.4526 0
M  V30 16322 N 1618.52 1.45038 0.616577 0
M  V30 16323 C 1619.76 1.50118 1.38723 0
M  V30 16324 C 1620.12 0.135879 1.91519 0
M  V30 16325 O 1621.32 0.0613609 2.6873 0
M  V30 16326 C 1619.6 2.5434 2.51089 0
M  V30 16327 S 1621.15 2.78577 3.39028 0
M  V30 16328 H 1617.97 0.530782 0.473066 0
M  V30 16329 H 1620.57 1.82059 0.712362 0
M  V30 16330 H 1619.28 3.52222 2.10638 0
M  V30 16331 H 1618.81 2.24019 3.23387 0
M  V30 16332 H 1620.82 2.11275 4.48974 0
M  V30 16333 N 1620 -0.858287 1.32179 0
M  V30 16334 C 1620.95 -1.98796 1.2076 0
M  V30 16335 C 1621.94 -1.69021 0.11322 0
M  V30 16336 O 1623.15 -1.77873 0.275903 0
M  V30 16337 H 1619.52 -0.652269 0.374232 0
M  V30 16338 H 1621.49 -2.05555 2.1631 0
M  V30 16339 C 1620.24 -3.34646 0.943787 0
M  V30 16340 H 1619.56 -3.58084 1.77808 0
M  V30 16341 H 1621 -4.14248 0.904121 0
M  V30 16342 C 1619.46 -3.35041 -0.353477 0
M  V30 16343 O 1619.99 -3.77742 -1.36652 0
M  V30 16344 N 1618.2 -2.88181 -0.374164 0
M  V30 16345 H 1617.75 -2.53626 0.45075 0
M  V30 16346 H 1617.7 -2.88828 -1.24201 0
M  V30 16347 N 1621.48 -1.1533 -1.07409 0
M  V30 16348 C 1622.39 -0.863514 -2.1813 0
M  V30 16349 C 1623.4 0.159954 -1.73263 0
M  V30 16350 O 1624.58 -0.0139818 -2.01395 0
M  V30 16351 C 1621.64 -0.356271 -3.44865 0
M  V30 16352 C 1620.7 -1.44356 -4.04302 0
M  V30 16353 C 1619.94 -0.960429 -5.24987 0
M  V30 16354 O 1620.16 0.194227 -5.70069 0
M  V30 16355 O 1619.09 -1.74387 -5.76084 0
M  V30 16356 H 1622.92 -1.78909 -2.45408 0
M  V30 16357 H 1620.5 -0.932362 -1.16736 0
M  V30 16358 H 1622.39 -0.0798183 -4.21324 0
M  V30 16359 H 1621.06 0.541445 -3.1914 0
M  V30 16360 H 1619.97 -1.77361 -3.29384 0
M  V30 16361 H 1621.3 -2.31617 -4.34298 0
M  V30 16362 N 1622.95 1.25748 -0.950004 0
M  V30 16363 C 1624.2 1.93336 -0.602294 0
M  V30 16364 C 1624.53 1.74454 0.859994 0
M  V30 16365 O 1623.78 1.08032 1.6318 0
M  V30 16366 C 1624.08 3.45843 -0.901521 0
M  V30 16367 C 1623.75 3.84874 -2.3491 0
M  V30 16368 C 1622.41 3.9524 -2.74479 0
M  V30 16369 C 1624.76 4.04286 -3.28941 0
M  V30 16370 C 1622.09 4.22422 -4.07157 0
M  V30 16371 C 1624.44 4.32959 -4.61225 0
M  V30 16372 C 1623.11 4.41541 -5.00597 0
M  V30 16373 H 1622.38 0.707465 -0.220395 0
M  V30 16374 H 1625.02 1.49386 -1.19817 0
M  V30 16375 H 1623.33 3.91164 -0.2232 0
M  V30 16376 H 1625.03 3.96316 -0.611134 0
M  V30 16377 H 1621.62 3.77358 -2.03221 0
M  V30 16378 H 1625.8 3.95697 -2.99563 0
M  V30 16379 H 1621.06 4.27281 -4.37311 0
M  V30 16380 H 1625.23 4.46925 -5.3407 0
M  V30 16381 H 1622.86 4.62358 -6.03431 0
M  V30 16382 N 1624.43 0.718038 1.40292 0
M  V30 16383 C 1625.66 0.268326 2.05153 0
M  V30 16384 C 1626.07 -1.09075 1.54104 0
M  V30 16385 O 1625.43 -1.68597 0.698654 0
M  V30 16386 C 1625.48 0.242222 3.60688 0
M  V30 16387 O 1625.2 1.54764 4.09853 0
M  V30 16388 C 1626.7 -0.225741 4.42725 0
M  V30 16389 H 1623.92 0.120165 0.660153 0
M  V30 16390 H 1626.47 0.976933 1.79656 0
M  V30 16391 H 1624.62 -0.417367 3.85145 0
M  V30 16392 H 1625.04 1.44976 5.04066 0
M  V30 16393 H 1626.51 -0.192857 5.51663 0
M  V30 16394 H 1626.99 -1.26829 4.20489 0
M  V30 16395 H 1627.59 0.40366 4.2338 0
M  V30 16396 N 1625.91 -1.50602 0.464402 0
M  V30 16397 C 1627.16 -2.01887 -0.0927084 0
M  V30 16398 C 1627.48 -1.34891 -1.40817 0
M  V30 16399 O 1626.75 -0.492078 -1.89619 0
M  V30 16400 H 1625.33 -0.746071 -0.0372514 0
M  V30 16401 H 1627.99 -1.84999 0.613296 0
M  V30 16402 H 1627.09 -3.11105 -0.249067 0
M  V30 16403 N 1627.39 -0.19675 -1.56367 0
M  V30 16404 C 1628.32 0.75534 -2.16396 0
M  V30 16405 C 1629.33 1.17558 -1.12623 0
M  V30 16406 O 1630.52 1.11102 -1.39709 0
M  V30 16407 C 1627.62 2.03159 -2.71256 0
M  V30 16408 C 1626.8 1.77088 -3.99948 0
M  V30 16409 C 1625.85 2.89176 -4.39618 0
M  V30 16410 O 1624.88 2.58712 -5.07007 0
M  V30 16411 N 1626.08 4.17569 -4.03257 0
M  V30 16412 H 1628.85 0.241991 -2.98721 0
M  V30 16413 H 1626.41 -0.0148423 -1.61893 0
M  V30 16414 H 1628.4 2.77287 -2.94778 0
M  V30 16415 H 1626.97 2.45611 -1.93375 0
M  V30 16416 H 1626.19 0.867309 -3.84541 0
M  V30 16417 H 1627.48 1.5707 -4.83949 0
M  V30 16418 H 1626.88 4.45171 -3.49054 0
M  V30 16419 H 1625.43 4.88319 -4.31726 0
M  V30 16420 N 1628.87 1.57413 0.0768405 0
M  V30 16421 C 1630.11 1.88835 0.78235 0
M  V30 16422 C 1630.47 0.789942 1.74997 0
M  V30 16423 O 1631.67 0.987092 2.5002 0
M  V30 16424 C 1629.94 3.25491 1.47616 0
M  V30 16425 S 1631.5 3.78649 2.21743 0
M  V30 16426 H 1628.32 0.661649 0.260272 0
M  V30 16427 H 1630.92 1.95462 0.0386596 0
M  V30 16428 H 1629.63 4.03338 0.758047 0
M  V30 16429 H 1629.16 3.22049 2.25938 0
M  V30 16430 H 1631.17 3.53531 3.48182 0
M  V30 16431 N 1630.34 -0.348112 1.53707 0
M  V30 16432 C 1631.28 -1.44781 1.77682 0
M  V30 16433 C 1632.29 -1.4891 0.657997 0
M  V30 16434 O 1633.48 -1.52075 0.934635 0
M  V30 16435 C 1630.58 -2.83463 1.85747 0
M  V30 16436 C 1629.75 -3.02827 3.15618 0
M  V30 16437 C 1628.81 -4.21724 3.14698 0
M  V30 16438 O 1627.84 -4.16059 3.88437 0
M  V30 16439 N 1629.04 -5.3003 2.36746 0
M  V30 16440 H 1631.8 -1.24587 2.72577 0
M  V30 16441 H 1629.36 -0.537961 1.52701 0
M  V30 16442 H 1631.36 -3.6117 1.82589 0
M  V30 16443 H 1629.93 -2.96822 0.980595 0
M  V30 16444 H 1629.15 -2.1263 3.31937 0
M  V30 16445 H 1630.43 -3.12645 4.01411 0
M  V30 16446 H 1629.83 -5.375 1.7638 0
M  V30 16447 H 1628.39 -6.06247 2.39389 0
M  V30 16448 N 1631.82 -1.45363 -0.608876 0
M  V30 16449 C 1633.06 -1.50852 -1.37925 0
M  V30 16450 C 1633.43 -0.146034 -1.91444 0
M  V30 16451 O 1634.63 -0.0756115 -2.68694 0
M  V30 16452 C 1632.9 -2.55668 -2.49737 0
M  V30 16453 S 1634.46 -2.80371 -3.37546 0
M  V30 16454 H 1631.28 -0.533283 -0.470244 0
M  V30 16455 H 1633.88 -1.82435 -0.702697 0
M  V30 16456 H 1632.58 -3.53334 -2.08767 0
M  V30 16457 H 1632.11 -2.25731 -3.22194 0
M  V30 16458 H 1634.13 -2.13653 -4.47847 0
M  V30 16459 N 1633.3 0.851265 -1.32632 0
M  V30 16460 C 1634.23 1.96408 -1.16187 0
M  V30 16461 C 1635.21 1.62488 -0.0604559 0
M  V30 16462 O 1636.4 1.87207 -0.220397 0
M  V30 16463 C 1633.52 3.29611 -0.779378 0
M  V30 16464 C 1632.57 3.82509 -1.88652 0
M  V30 16465 S 1633.4 4.05687 -3.4954 0
M  V30 16466 C 1634.56 5.4186 -3.1327 0
M  V30 16467 H 1634.79 2.10056 -2.10389 0
M  V30 16468 H 1632.32 1.00363 -1.17332 0
M  V30 16469 H 1634.28 4.06587 -0.565463 0
M  V30 16470 H 1632.94 3.1377 0.143841 0
M  V30 16471 H 1632.14 4.78858 -1.57196 0
M  V30 16472 H 1631.74 3.12388 -2.05645 0
M  V30 16473 H 1634.03 6.24233 -2.63325 0
M  V30 16474 H 1634.97 5.7828 -4.08654 0
M  V30 16475 H 1635.38 5.06025 -2.50199 0
M  V30 16476 N 1634.78 1.15898 1.06796 0
M  V30 16477 C 1636.19 0.945837 1.60968 0
M  V30 16478 C 1636.54 -0.511507 1.89415 0
M  V30 16479 O 1635.67 -1.38372 1.66379 0
M  V30 16480 C 1636.26 1.71054 2.92448 0
M  V30 16481 C 1634.82 1.54252 3.43341 0
M  V30 16482 C 1633.97 1.72253 2.17311 0
M  V30 16483 H 1636.92 1.30842 0.898118 0
M  V30 16484 H 1636.94 1.18336 3.61631 0
M  V30 16485 H 1636.45 2.77117 2.71712 0
M  V30 16486 H 1634.55 0.506082 3.69147 0
M  V30 16487 H 1634.66 2.32314 4.19007 0
M  V30 16488 H 1633.03 1.14952 2.27284 0
M  V30 16489 H 1633.81 2.79693 1.99064 0
M  V30 16490 N 1636.26 -1.25243 0.956659 0
M  V30 16491 C 1637.5 -1.92632 0.611328 0
M  V30 16492 C 1637.83 -1.75272 -0.85467 0
M  V30 16493 O 1637.1 -1.11758 -1.60894 0
M  V30 16494 H 1635.68 -0.712904 0.223109 0
M  V30 16495 H 1638.34 -1.52366 1.21534 0
M  V30 16496 H 1637.43 -3.00516 0.842396 0
M  V30 16497 N 1637.73 -0.725468 -1.3991 0
M  V30 16498 C 1638.98 -0.269251 -2.00702 0
M  V30 16499 C 1639.31 1.1406 -1.57545 0
M  V30 16500 O 1638.56 1.78997 -0.79111 0
M  V30 16501 C 1638.86 -0.308261 -3.56068 0
M  V30 16502 C 1638.53 -1.66979 -4.18842 0
M  V30 16503 C 1637.19 -2.04247 -4.35702 0
M  V30 16504 C 1639.54 -2.56418 -4.53761 0
M  V30 16505 C 1636.87 -3.3048 -4.84768 0
M  V30 16506 C 1639.22 -3.82014 -5.0423 0
M  V30 16507 C 1637.89 -4.19386 -5.19299 0
M  V30 16508 H 1637.16 -0.0985258 -0.734421 0
M  V30 16509 H 1639.8 -0.930441 -1.67377 0
M  V30 16510 H 1638.11 0.436504 -3.89361 0
M  V30 16511 H 1639.81 0.0627207 -4.00951 0
M  V30 16512 H 1636.4 -1.37001 -4.06114 0
M  V30 16513 H 1640.58 -2.28898 -4.40363 0
M  V30 16514 H 1635.84 -3.59392 -4.94619 0
M  V30 16515 H 1640.01 -4.51481 -5.30225 0
M  V30 16516 H 1637.64 -5.17268 -5.5708 0
M  V30 16517 N 1639.21 1.50354 -0.472382 0
M  V30 16518 C 1640.46 2.01934 0.0820006 0
M  V30 16519 C 1640.78 1.35636 1.401 0
M  V30 16520 O 1640.05 0.502127 1.89355 0
M  V30 16521 H 1638.63 0.746258 0.0332943 0
M  V30 16522 H 1641.29 1.84671 -0.623099 0
M  V30 16523 H 1640.39 3.11232 0.232565 0
M  V30 16524 N 1640.69 0.205039 1.56261 0
M  V30 16525 C 1641.94 -0.430245 1.97467 0
M  V30 16526 C 1642.26 -1.6146 1.09342 0
M  V30 16527 O 1641.53 -1.95188 0.166836 0
M  V30 16528 H 1640.11 -0.161945 0.729234 0
M  V30 16529 H 1642.77 0.294089 1.92668 0
M  V30 16530 H 1641.87 -0.767699 3.02511 0
M  V30 16531 N 1642.17 -1.57451 -0.0684915 0
M  V30 16532 C 1643.59 -1.53883 -0.423354 0
M  V30 16533 C 1643.79 -0.925698 -1.78978 0
M  V30 16534 O 1642.84 -0.529629 -2.46883 0
M  V30 16535 C 1644.15 -2.98521 -0.361386 0
M  V30 16536 C 1645.7 -3.09873 -0.441334 0
M  V30 16537 C 1646.18 -4.56168 -0.409239 0
M  V30 16538 N 1647.67 -4.60817 -0.469216 0
M  V30 16539 C 1648.4 -5.71498 -0.466648 0
M  V30 16540 N 1647.9 -6.91534 -0.4187 0
M  V30 16541 N 1649.69 -5.5975 -0.513452 0
M  V30 16542 H 1641.84 -1.95672 0.8262 0
M  V30 16543 H 1644.11 -0.895759 0.310354 0
M  V30 16544 H 1643.81 -3.46951 0.576035 0
M  V30 16545 H 1643.69 -3.58585 -1.17032 0
M  V30 16546 H 1646.07 -2.61414 -1.36918 0
M  V30 16547 H 1646.15 -2.52712 0.396237 0
M  V30 16548 H 1645.8 -5.05285 0.514772 0
M  V30 16549 H 1645.73 -5.11195 -1.26439 0
M  V30 16550 H 1648.22 -3.74438 -0.510387 0
M  V30 16551 H 1648.53 -7.71654 -0.420757 0
M  V30 16552 H 1646.88 -6.93931 -0.385338 0
M  V30 16553 H 1650.07 -4.64874 -0.548626 0
M  V30 16554 H 1650.24 -6.46006 -0.507982 0
M  V30 16555 N 1643.65 0.339955 -1.5389 0
M  V30 16556 C 1644.88 1.09975 -1.75251 0
M  V30 16557 C 1645.29 1.8224 -0.493355 0
M  V30 16558 O 1644.65 1.74477 0.535173 0
M  V30 16559 C 1644.7 2.11048 -2.93498 0
M  V30 16560 O 1644.42 1.41721 -4.14544 0
M  V30 16561 C 1645.92 2.99375 -3.26939 0
M  V30 16562 H 1643.14 0.327811 -0.585475 0
M  V30 16563 H 1645.68 0.391068 -2.00726 0
M  V30 16564 H 1643.84 2.77476 -2.70344 0
M  V30 16565 H 1644.25 2.09271 -4.80943 0
M  V30 16566 H 1645.73 3.66223 -4.13019 0
M  V30 16567 H 1646.2 3.65588 -2.43397 0
M  V30 16568 H 1646.81 2.38531 -3.52112 0
M  V30 16569 N 1645.13 1.45684 0.601159 0
M  V30 16570 C 1646.37 1.51581 1.37123 0
M  V30 16571 C 1646.73 0.156185 1.91364 0
M  V30 16572 O 1647.93 0.0898599 2.6865 0
M  V30 16573 C 1646.2 2.56989 2.48378 0
M  V30 16574 S 1647.76 2.82158 3.36054 0
M  V30 16575 H 1644.58 0.53577 0.46741 0
M  V30 16576 H 1647.18 1.82805 0.693012 0
M  V30 16577 H 1645.88 3.54436 2.0689 0
M  V30 16578 H 1645.42 2.27437 3.20992 0
M  V30 16579 H 1647.43 2.16025 4.46708 0
M  V30 16580 N 1646.6 -0.84422 1.33082 0
M  V30 16581 C 1647.83 -1.63654 1.27405 0
M  V30 16582 C 1648.25 -1.87476 -0.153146 0
M  V30 16583 O 1647.61 -1.43502 -1.10801 0
M  V30 16584 C 1647.66 -2.96698 2.04945 0
M  V30 16585 O 1646.76 -3.87751 1.40439 0
M  V30 16586 H 1646.1 -0.498545 0.438576 0
M  V30 16587 H 1648.63 -1.0507 1.7556 0
M  V30 16588 H 1648.64 -3.46438 2.1551 0
M  V30 16589 H 1647.32 -2.78682 3.08722 0
M  V30 16590 H 1645.9 -3.46231 1.38487 0
M  V30 16591 N 1648.08 -1.16463 -1.0618 0
M  V30 16592 C 1648.99 -0.886601 -2.17202 0
M  V30 16593 C 1650.01 0.141568 -1.73423 0
M  V30 16594 O 1651.18 -0.0353417 -2.01369 0
M  V30 16595 C 1648.25 -0.392829 -3.44467 0
M  V30 16596 C 1647.31 -1.48636 -4.02748 0
M  V30 16597 C 1646.54 -1.01606 -5.23939 0
M  V30 16598 O 1646.77 0.133753 -5.70243 0
M  V30 16599 O 1645.7 -1.80487 -5.74202 0
M  V30 16600 H 1649.53 -1.81502 -2.43497 0
M  V30 16601 H 1647.11 -0.944691 -1.15741 0
M  V30 16602 H 1648.99 -0.124501 -4.21216 0
M  V30 16603 H 1647.67 0.507566 -3.19696 0
M  V30 16604 H 1646.57 -1.80845 -3.27484 0
M  V30 16605 H 1647.91 -2.3621 -4.31817 0
M  V30 16606 N 1649.56 1.24734 -0.963288 0
M  V30 16607 C 1650.8 1.94431 -0.630554 0
M  V30 16608 C 1651.16 1.7368 0.818489 0
M  V30 16609 O 1652.36 2.37374 1.26123 0
M  V30 16610 C 1650.64 3.43421 -0.989774 0
M  V30 16611 S 1652.19 4.31975 -0.770922 0
M  V30 16612 H 1649.01 0.672265 -0.231474 0
M  V30 16613 H 1651.61 1.512 -1.2393 0
M  V30 16614 H 1650.32 3.5603 -2.04135 0
M  V30 16615 H 1649.85 3.91641 -0.371622 0
M  V30 16616 H 1651.86 4.94936 0.35396 0
M  V30 16617 N 1651.04 0.732878 1.39523 0
M  V30 16618 C 1651.97 0.0519358 2.29141 0
M  V30 16619 C 1652.98 -0.705687 1.4671 0
M  V30 16620 O 1654.17 -0.550202 1.69809 0
M  V30 16621 C 1651.27 -0.950691 3.25292 0
M  V30 16622 C 1650.44 -0.255028 4.36656 0
M  V30 16623 C 1649.5 -1.16546 5.13131 0
M  V30 16624 O 1648.53 -0.643742 5.65548 0
M  V30 16625 N 1649.73 -2.49534 5.24131 0
M  V30 16626 H 1652.5 0.8215 2.88221 0
M  V30 16627 H 1650.06 0.581924 1.5108 0
M  V30 16628 H 1652.05 -1.56232 3.73328 0
M  V30 16629 H 1650.62 -1.62148 2.67258 0
M  V30 16630 H 1649.84 0.537045 3.90525 0
M  V30 16631 H 1651.13 0.227162 5.08293 0
M  V30 16632 H 1650.53 -2.944 4.83058 0
M  V30 16633 H 1649.08 -3.05798 5.75613 0
M  V30 16634 N 1652.52 -1.50101 0.480349 0
M  V30 16635 C 1653.43 -2.32488 -0.31408 0
M  V30 16636 C 1654.44 -1.43285 -0.987186 0
M  V30 16637 O 1655.62 -1.7633 -0.973123 0
M  V30 16638 C 1652.68 -3.18203 -1.37651 0
M  V30 16639 C 1651.74 -4.23236 -0.71903 0
M  V30 16640 C 1650.98 -5.04854 -1.73084 0
M  V30 16641 O 1651.2 -4.87681 -2.95843 0
M  V30 16642 O 1650.13 -5.87748 -1.29755 0
M  V30 16643 H 1653.96 -3.01562 0.3597 0
M  V30 16644 H 1651.54 -1.47427 0.242029 0
M  V30 16645 H 1653.43 -3.71362 -1.9917 0
M  V30 16646 H 1652.1 -2.51846 -2.0336 0
M  V30 16647 H 1651.01 -3.74044 -0.0646492 0
M  V30 16648 H 1652.34 -4.92089 -0.104743 0
M  V30 16649 N 1653.99 -0.213323 -1.5615 0
M  V30 16650 C 1654.92 0.695003 -2.22917 0
M  V30 16651 C 1655.9 1.20738 -1.19818 0
M  V30 16652 O 1657.09 1.25289 -1.48379 0
M  V30 16653 C 1654.22 1.90685 -2.9027 0
M  V30 16654 C 1653.17 1.52865 -3.9977 0
M  V30 16655 C 1652.5 2.81859 -4.54378 0
M  V30 16656 C 1653.8 0.724829 -5.17246 0
M  V30 16657 H 1655.49 0.138351 -2.9908 0
M  V30 16658 H 1653.04 0.0651029 -1.43853 0
M  V30 16659 H 1654.99 2.54766 -3.35667 0
M  V30 16660 H 1653.72 2.48833 -2.11541 0
M  V30 16661 H 1652.38 0.911336 -3.55092 0
M  V30 16662 H 1652.02 3.38135 -3.72389 0
M  V30 16663 H 1651.72 2.57291 -5.28275 0
M  V30 16664 H 1653.25 3.46897 -5.02489 0
M  V30 16665 H 1654.66 1.26915 -5.59076 0
M  V30 16666 H 1653.06 0.57656 -5.97324 0
M  V30 16667 H 1654.13 -0.270309 -4.84146 0
M  V30 16668 N 1655.47 1.57485 0.0601405 0
M  V30 16669 C 1656.72 1.87816 0.75707 0
M  V30 16670 C 1657.05 0.806616 1.76986 0
M  V30 16671 O 1656.3 -0.196101 1.94715 0
M  V30 16672 C 1656.6 3.24839 1.49045 0
M  V30 16673 C 1656.27 4.46665 0.616559 0
M  V30 16674 C 1654.93 4.79731 0.375769 0
M  V30 16675 C 1657.28 5.21199 0.0113073 0
M  V30 16676 C 1654.61 5.84737 -0.479564 0
M  V30 16677 C 1656.96 6.27111 -0.831546 0
M  V30 16678 C 1655.63 6.58671 -1.0821 0
M  V30 16679 H 1654.9 0.687266 0.277032 0
M  V30 16680 H 1657.54 1.91492 0.0175593 0
M  V30 16681 H 1655.85 3.17007 2.30247 0
M  V30 16682 H 1657.54 3.45545 2.03469 0
M  V30 16683 H 1654.13 4.20792 0.814371 0
M  V30 16684 H 1658.32 4.95957 0.18443 0
M  V30 16685 H 1653.57 6.07581 -0.682308 0
M  V30 16686 H 1657.75 6.84021 -1.30721 0
M  V30 16687 H 1655.38 7.39863 -1.74663 0
M  V30 16688 N 1656.95 -0.331789 1.54068 0
M  V30 16689 C 1658.2 -1.06854 1.73072 0
M  V30 16690 C 1658.55 -1.85949 0.494034 0
M  V30 16691 O 1657.84 -1.84591 -0.513489 0
M  V30 16692 C 1658.04 -2.03015 2.94142 0
M  V30 16693 C 1657.87 -1.33374 4.29467 0
M  V30 16694 C 1656.64 -1.07367 4.93762 0
M  V30 16695 C 1658.84 -0.753877 5.08745 0
M  V30 16696 N 1656.82 -0.344298 6.12934 0
M  V30 16697 C 1658.19 -0.155685 6.19805 0
M  V30 16698 C 1660.24 -0.655879 4.93561 0
M  V30 16699 C 1658.95 0.530985 7.17337 0
M  V30 16700 C 1660.97 0.0170729 5.91398 0
M  V30 16701 C 1660.33 0.604244 7.01804 0
M  V30 16702 H 1656.43 -0.374988 0.686227 0
M  V30 16703 H 1659.02 -0.350703 1.91515 0
M  V30 16704 H 1657.19 -2.72078 2.77178 0
M  V30 16705 H 1658.92 -2.69615 3.01811 0
M  V30 16706 H 1655.68 -1.36386 4.53537 0
M  V30 16707 H 1656.1 0.00600404 6.77 0
M  V30 16708 H 1660.74 -1.09557 4.08359 0
M  V30 16709 H 1658.46 0.982531 8.02105 0
M  V30 16710 H 1662.05 0.0924259 5.81727 0
M  V30 16711 H 1660.93 1.11671 7.76208 0
M  V30 16712 N 1658.43 -1.46001 -0.593424 0
M  V30 16713 C 1659.68 -1.50457 -1.34933 0
M  V30 16714 C 1660 -0.153383 -1.94396 0
M  V30 16715 O 1659.27 0.818894 -1.77963 0
M  V30 16716 H 1657.85 -0.554119 -0.50096 0
M  V30 16717 H 1660.51 -1.82057 -0.695798 0
M  V30 16718 H 1659.61 -2.25131 -2.16154 0
M  V30 16719 N 1659.91 0.83715 -1.33527 0
M  V30 16720 C 1661.18 1.57727 -1.15678 0
M  V30 16721 C 1661.56 2.09286 0.276178 0
M  V30 16722 O 1660.91 1.89589 1.27547 0
M  V30 16723 C 1661.12 2.70978 -2.19936 0
M  V30 16724 C 1662.47 3.40114 -2.5418 0
M  V30 16725 O 1663.49 2.81221 -2.18616 0
M  V30 16726 O 1662.35 4.46431 -3.15217 0
M  V30 16727 H 1659.45 0.69545 -0.447525 0
M  V30 16728 H 1661.99 0.879756 -1.45115 0
M  V30 16729 H 1660.76 2.30532 -3.16181 0
M  V30 16730 H 1660.39 3.48393 -1.91594 0
M  V30 16731 N 1661.38 1.17024 1.05561 0
M  V30 16732 C 1662.8 0.962856 1.59956 0
M  V30 16733 C 1663.15 -0.491388 1.89947 0
M  V30 16734 O 1662.27 -1.366 1.67838 0
M  V30 16735 C 1662.87 1.74146 2.90617 0
M  V30 16736 C 1661.43 1.57885 3.41686 0
M  V30 16737 C 1660.57 1.74548 2.15472 0
M  V30 16738 H 1663.52 1.31787 0.88419 0
M  V30 16739 H 1663.54 1.22165 3.60355 0
M  V30 16740 H 1663.06 2.79984 2.68758 0
M  V30 16741 H 1661.16 0.545207 3.6859 0
M  V30 16742 H 1661.27 2.36745 4.16519 0
M  V30 16743 H 1659.63 1.17356 2.26052 0
M  V30 16744 H 1660.42 2.81789 1.96087 0
M  V30 16745 N 1662.86 -1.24221 0.969889 0
M  V30 16746 C 1664.14 -1.87715 0.549772 0
M  V30 16747 C 1664.52 -1.87333 -0.973114 0
M  V30 16748 O 1663.87 -1.3475 -1.84539 0
M  V30 16749 C 1664.08 -3.29724 1.14381 0
M  V30 16750 C 1665.43 -4.06393 1.23005 0
M  V30 16751 O 1666.45 -3.38904 1.09648 0
M  V30 16752 O 1665.31 -5.27149 1.4414 0
M  V30 16753 H 1662.4 -0.806356 0.183629 0
M  V30 16754 H 1664.95 -1.32177 1.0643 0
M  V30 16755 H 1663.72 -3.24513 2.18649 0
M  V30 16756 H 1663.34 -3.92839 0.613456 0
M  V30 16757 N 1664.34 -0.740267 -1.39132 0
M  V30 16758 C 1665.59 -0.290953 -2.00702 0
M  V30 16759 C 1665.92 1.12051 -1.58613 0
M  V30 16760 O 1665.19 1.76488 -0.817457 0
M  V30 16761 C 1665.48 -0.398765 -3.57885 0
M  V30 16762 C 1665.33 -1.85038 -4.09977 0
M  V30 16763 C 1666.65 0.215717 -4.39571 0
M  V30 16764 H 1663.77 -0.107194 -0.729163 0
M  V30 16765 H 1666.41 -0.937411 -1.65265 0
M  V30 16766 H 1664.56 0.151613 -3.88204 0
M  V30 16767 H 1666.23 -2.45804 -3.90357 0
M  V30 16768 H 1664.48 -2.36994 -3.63341 0
M  V30 16769 H 1665.15 -1.87705 -5.19106 0
M  V30 16770 H 1667.62 -0.253518 -4.15327 0
M  V30 16771 H 1666.5 0.109966 -5.4879 0
M  V30 16772 H 1666.76 1.30242 -4.2248 0
M  V30 16773 N 1665.82 1.49844 -0.488302 0
M  V30 16774 C 1666.73 2.32651 0.301746 0
M  V30 16775 C 1667.74 1.43807 0.979573 0
M  V30 16776 O 1668.92 1.76844 0.963758 0
M  V30 16777 C 1665.99 3.18928 1.35962 0
M  V30 16778 C 1665.05 4.23611 0.696575 0
M  V30 16779 C 1664.28 5.05765 1.70404 0
M  V30 16780 O 1664.5 4.89243 2.93253 0
M  V30 16781 O 1663.44 5.88427 1.26637 0
M  V30 16782 H 1667.26 3.01367 -0.375687 0
M  V30 16783 H 1664.85 1.47296 -0.249844 0
M  V30 16784 H 1666.73 3.72413 1.97198 0
M  V30 16785 H 1665.4 2.52921 2.02021 0
M  V30 16786 H 1664.31 3.74073 0.0448118 0
M  V30 16787 H 1665.64 4.92137 0.0786446 0
M  V30 16788 N 1667.3 0.221601 1.56034 0
M  V30 16789 C 1668.54 -0.411933 2.00206 0
M  V30 16790 C 1668.9 -1.56945 1.10599 0
M  V30 16791 O 1670.1 -2.269 1.44118 0
M  V30 16792 C 1668.37 -0.835387 3.475 0
M  V30 16793 S 1669.93 -1.46302 4.13692 0
M  V30 16794 H 1666.75 -0.130732 0.698878 0
M  V30 16795 H 1669.35 0.330901 1.92679 0
M  V30 16796 H 1668.06 0.0167339 4.10397 0
M  V30 16797 H 1667.59 -1.61103 3.589 0
M  V30 16798 H 1669.6 -2.75209 4.12885 0
M  V30 16799 N 1668.77 -1.57515 -0.0517878 0
M  V30 16800 C 1670.19 -1.54323 -0.407009 0
M  V30 16801 C 1670.39 -0.944629 -1.77986 0
M  V30 16802 O 1669.45 -0.555785 -2.46307 0
M  V30 16803 C 1670.76 -2.98887 -0.329703 0
M  V30 16804 C 1672.31 -3.10324 -0.408443 0
M  V30 16805 C 1672.78 -4.56576 -0.360833 0
M  V30 16806 N 1674.27 -4.61289 -0.420313 0
M  V30 16807 C 1675.01 -5.71961 -0.406007 0
M  V30 16808 N 1674.5 -6.91939 -0.34533 0
M  V30 16809 N 1676.3 -5.60263 -0.454054 0
M  V30 16810 H 1668.45 -1.94785 0.846907 0
M  V30 16811 H 1670.71 -0.892417 0.319838 0
M  V30 16812 H 1670.42 -3.4632 0.612802 0
M  V30 16813 H 1670.29 -3.59806 -1.13222 0
M  V30 16814 H 1672.68 -2.62852 -1.34138 0
M  V30 16815 H 1672.76 -2.52278 0.423018 0
M  V30 16816 H 1672.4 -5.0471 0.568335 0
M  V30 16817 H 1672.33 -5.12508 -1.2101 0
M  V30 16818 H 1674.82 -3.74958 -0.470644 0
M  V30 16819 H 1675.14 -7.72057 -0.338889 0
M  V30 16820 H 1673.48 -6.94301 -0.311715 0
M  V30 16821 H 1676.67 -4.6543 -0.499289 0
M  V30 16822 H 1676.85 -6.46508 -0.439435 0
M  V30 16823 N 1670.25 0.323614 -1.54242 0
M  V30 16824 C 1671.22 1.38126 -1.82904 0
M  V30 16825 C 1672.22 1.44723 -0.700853 0
M  V30 16826 O 1673.41 1.44751 -0.969161 0
M  V30 16827 C 1670.54 2.76858 -1.98903 0
M  V30 16828 H 1671.73 1.13966 -2.77402 0
M  V30 16829 H 1669.28 0.559094 -1.45958 0
M  V30 16830 H 1670.02 3.06274 -1.06616 0
M  V30 16831 H 1669.8 2.73464 -2.80998 0
M  V30 16832 H 1671.29 3.53372 -2.22526 0
M  V30 16833 N 1671.73 1.46313 0.585673 0
M  V30 16834 C 1672.97 1.53027 1.35507 0
M  V30 16835 C 1673.34 0.176473 1.91187 0
M  V30 16836 O 1674.54 0.118349 2.68539 0
M  V30 16837 C 1672.81 2.59609 2.45638 0
M  V30 16838 S 1674.37 2.85706 3.33043 0
M  V30 16839 H 1671.18 0.540697 0.461701 0
M  V30 16840 H 1673.79 1.8353 0.673585 0
M  V30 16841 H 1672.49 3.5661 2.03119 0
M  V30 16842 H 1672.02 2.30829 3.18562 0
M  V30 16843 H 1674.04 2.20751 4.44391 0
M  V30 16844 N 1673.21 -0.830057 1.33969 0
M  V30 16845 C 1674.49 -1.57112 1.16513 0
M  V30 16846 C 1674.87 -2.09429 -0.265075 0
M  V30 16847 O 1674.21 -1.90263 -1.26539 0
M  V30 16848 C 1674.42 -2.69808 2.2137 0
M  V30 16849 C 1675.77 -3.38761 2.55981 0
M  V30 16850 O 1676.8 -2.80058 2.20104 0
M  V30 16851 O 1675.66 -4.44753 3.1758 0
M  V30 16852 H 1672.75 -0.693066 0.451207 0
M  V30 16853 H 1675.3 -0.872048 1.4558 0
M  V30 16854 H 1674.07 -2.28852 3.17399 0
M  V30 16855 H 1673.69 -3.47372 1.93439 0
M  V30 16856 N 1674.69 -1.17582 -1.04939 0
M  V30 16857 C 1675.93 -0.976635 -1.79558 0
M  V30 16858 C 1676.29 0.48588 -1.8575 0
M  V30 16859 O 1677.49 0.804225 -2.56487 0
M  V30 16860 C 1675.76 -1.60316 -3.19427 0
M  V30 16861 S 1677.32 -1.55052 -4.10493 0
M  V30 16862 H 1674.14 -0.350907 -0.618373 0
M  V30 16863 H 1676.74 -1.49572 -1.25891 0
M  V30 16864 H 1675.45 -2.66002 -3.12524 0
M  V30 16865 H 1674.98 -1.08399 -3.78171 0
M  V30 16866 H 1676.99 -0.56028 -4.93027 0
M  V30 16867 N 1676.17 1.23705 -0.976463 0
M  V30 16868 C 1677.44 1.87421 -0.559719 0
M  V30 16869 C 1677.82 1.87847 0.963166 0
M  V30 16870 O 1677.17 1.35726 1.83822 0
M  V30 16871 C 1677.38 3.29113 -1.16128 0
M  V30 16872 C 1678.73 4.05735 -1.25158 0
M  V30 16873 O 1679.75 3.38317 -1.11444 0
M  V30 16874 O 1678.61 5.26377 -1.46933 0
M  V30 16875 H 1675.71 0.80537 -0.187903 0
M  V30 16876 H 1678.25 1.31611 -1.07129 0
M  V30 16877 H 1677.02 3.23348 -2.20367 0
M  V30 16878 H 1676.65 3.92508 -0.63428 0
M  V30 16879 N 1677.64 0.747635 1.38738 0
M  V30 16880 C 1679.05 0.369576 1.83006 0
M  V30 16881 C 1679.41 -1.10091 1.62402 0
M  V30 16882 O 1678.53 -1.85042 1.12198 0
M  V30 16883 C 1679.13 0.664018 3.32229 0
M  V30 16884 C 1677.68 0.339308 3.74868 0
M  V30 16885 C 1676.83 0.920231 2.61586 0
M  V30 16886 H 1679.78 0.944268 1.27551 0
M  V30 16887 H 1679.8 -0.0598575 3.80453 0
M  V30 16888 H 1679.32 1.73432 3.47193 0
M  V30 16889 H 1677.42 -0.724649 3.65485 0
M  V30 16890 H 1677.53 0.830699 4.71843 0
M  V30 16891 H 1675.89 0.346002 2.52339 0
M  V30 16892 H 1676.68 1.99544 2.79351 0
M  V30 16893 N 1679.12 -1.49583 0.496242 0
M  V30 16894 C 1680.54 -1.58875 0.151907 0
M  V30 16895 C 1680.74 -1.50196 -1.34326 0
M  V30 16896 O 1679.79 -1.37344 -2.11879 0
M  V30 16897 C 1681.11 -2.91842 0.724478 0
M  V30 16898 C 1682.65 -3.05296 0.690157 0
M  V30 16899 C 1683.13 -4.40875 1.24071 0
M  V30 16900 N 1684.62 -4.47354 1.2012 0
M  V30 16901 C 1685.36 -5.50699 1.59743 0
M  V30 16902 N 1684.85 -6.61173 2.06936 0
M  V30 16903 N 1686.64 -5.41386 1.51189 0
M  V30 16904 H 1678.8 -1.53468 1.46838 0
M  V30 16905 H 1681.06 -0.726702 0.608776 0
M  V30 16906 H 1680.76 -3.03747 1.77287 0
M  V30 16907 H 1680.64 -3.7676 0.182209 0
M  V30 16908 H 1683.03 -2.93024 -0.34939 0
M  V30 16909 H 1683.11 -2.22074 1.26952 0
M  V30 16910 H 1682.75 -4.53898 2.27901 0
M  V30 16911 H 1682.68 -5.22729 0.637328 0
M  V30 16912 H 1685.17 -3.68092 0.855361 0
M  V30 16913 H 1685.48 -7.36122 2.35252 0
M  V30 16914 H 1683.83 -6.62226 2.10906 0
M  V30 16915 H 1687.02 -4.53971 1.14142 0
M  V30 16916 H 1687.19 -6.21802 1.82392 0
M  V30 16917 N 1680.6 -0.229873 -1.55915 0
M  V30 16918 C 1681.85 0.398775 -1.98127 0
M  V30 16919 C 1682.17 1.597 -1.11897 0
M  V30 16920 O 1681.44 1.94898 -0.197868 0
M  V30 16921 H 1680.02 0.150323 -0.731719 0
M  V30 16922 H 1682.68 -0.324704 -1.92176 0
M  V30 16923 H 1681.78 0.719475 -3.03694 0
M  V30 16924 N 1682.08 1.5754 0.0434337 0
M  V30 16925 C 1683.33 1.87789 0.736074 0
M  V30 16926 C 1683.64 0.826466 1.77282 0
M  V30 16927 O 1684.85 1.01771 2.51704 0
M  V30 16928 C 1683.3 3.33207 1.36018 0
M  V30 16929 C 1682.91 4.46547 0.360532 0
M  V30 16930 C 1684.65 3.72623 2.03353 0
M  V30 16931 C 1682.56 5.83018 0.992167 0
M  V30 16932 H 1681.49 0.700614 0.278667 0
M  V30 16933 H 1684.14 1.83497 -0.00997697 0
M  V30 16934 H 1682.52 3.32199 2.15546 0
M  V30 16935 H 1683.7 4.58999 -0.406987 0
M  V30 16936 H 1682.01 4.1587 -0.209931 0
M  V30 16937 H 1684.61 4.71893 2.51437 0
M  V30 16938 H 1684.95 3.03874 2.84546 0
M  V30 16939 H 1685.49 3.75744 1.3062 0
M  V30 16940 H 1682.22 6.55131 0.219964 0
M  V30 16941 H 1681.74 5.74313 1.72987 0
M  V30 16942 H 1683.42 6.29283 1.50374 0
M  V30 16943 N 1683.56 -0.31543 1.54411 0
M  V30 16944 C 1684.47 -1.41136 1.87397 0
M  V30 16945 C 1685.48 -1.56199 0.76668 0
M  V30 16946 O 1686.66 -1.71139 1.06176 0
M  V30 16947 C 1683.72 -2.75731 2.10174 0
M  V30 16948 C 1682.78 -2.69776 3.33945 0
M  V30 16949 C 1682.02 -3.97952 3.55626 0
M  V30 16950 O 1682.24 -4.96614 2.80589 0
M  V30 16951 O 1681.17 -4.00719 4.49119 0
M  V30 16952 H 1685 -1.16167 2.80605 0
M  V30 16953 H 1682.58 -0.510193 1.40419 0
M  V30 16954 H 1684.47 -3.55392 2.26439 0
M  V30 16955 H 1683.14 -3.00574 1.20154 0
M  V30 16956 H 1682.05 -1.88638 3.23058 0
M  V30 16957 H 1683.38 -2.49887 4.24049 0
M  V30 16958 N 1685.03 -1.46622 -0.577906 0
M  V30 16959 C 1686.26 -1.5576 -1.36185 0
M  V30 16960 C 1686.68 -0.200403 -1.87733 0
M  V30 16961 O 1686.03 0.803091 -1.6388 0
M  V30 16962 C 1686.09 -2.56626 -2.54608 0
M  V30 16963 O 1685.81 -3.87074 -2.05195 0
M  V30 16964 C 1687.31 -2.75751 -3.47097 0
M  V30 16965 H 1684.53 -0.526589 -0.415866 0
M  V30 16966 H 1687.07 -1.9207 -0.702091 0
M  V30 16967 H 1685.23 -2.23307 -3.16564 0
M  V30 16968 H 1685.64 -4.42015 -2.82352 0
M  V30 16969 H 1687.11 -3.50237 -4.26659 0
M  V30 16970 H 1687.59 -1.82829 -3.99337 0
M  V30 16971 H 1688.2 -3.10185 -2.90973 0
M  V30 16972 N 1686.51 0.822941 -1.34408 0
M  V30 16973 C 1687.92 1.39571 -1.24003 0
M  V30 16974 C 1688.27 1.95739 0.134483 0
M  V30 16975 O 1687.4 1.90054 1.03481 0
M  V30 16976 C 1687.99 2.53726 -2.24519 0
M  V30 16977 C 1686.55 3.06911 -2.17905 0
M  V30 16978 C 1685.7 1.79783 -2.11124 0
M  V30 16979 H 1688.65 0.62734 -1.45774 0
M  V30 16980 H 1688.67 3.31818 -1.86217 0
M  V30 16981 H 1688.18 2.12816 -3.24547 0
M  V30 16982 H 1686.29 3.52326 -1.21233 0
M  V30 16983 H 1686.4 3.66003 -3.09158 0
M  V30 16984 H 1684.76 2.00679 -1.56845 0
M  V30 16985 H 1685.55 1.41047 -3.12987 0
M  V30 16986 N 1687.99 1.18137 1.04314 0
M  V30 16987 C 1688.92 0.863879 2.12296 0
M  V30 16988 C 1689.94 -0.137469 1.62219 0
M  V30 16989 O 1691.12 0.0900306 1.78273 0
M  V30 16990 C 1688.22 0.269002 3.37831 0
M  V30 16991 C 1687.4 1.3154 4.17152 0
M  V30 16992 C 1686.46 0.736666 5.21018 0
M  V30 16993 O 1685.48 1.41075 5.5144 0
M  V30 16994 N 1686.68 -0.467037 5.78618 0
M  V30 16995 H 1689.45 1.7933 2.40127 0
M  V30 16996 H 1687.01 1.08142 1.20486 0
M  V30 16997 H 1689 -0.131671 4.04486 0
M  V30 16998 H 1687.57 -0.564386 3.07463 0
M  V30 16999 H 1686.79 1.89148 3.45856 0
M  V30 17000 H 1688.08 2.02093 4.66943 0
M  V30 17001 H 1687.48 -1.03247 5.56198 0
M  V30 17002 H 1686.04 -0.809663 6.46752 0
M  V30 17003 N 1689.47 -1.23186 0.98301 0
M  V30 17004 C 1690.71 -1.93403 0.661406 0
M  V30 17005 C 1691.07 -1.7496 -0.790755 0
M  V30 17006 O 1692.27 -2.3935 -1.22331 0
M  V30 17007 C 1690.54 -3.41803 1.04428 0
M  V30 17008 S 1692.1 -4.30694 0.839548 0
M  V30 17009 H 1688.92 -0.668498 0.24214 0
M  V30 17010 H 1691.52 -1.49209 1.2632 0
M  V30 17011 H 1690.23 -3.52737 2.09773 0
M  V30 17012 H 1689.76 -3.91 0.433882 0
M  V30 17013 H 1691.77 -4.95436 -0.275175 0
M  V30 17014 N 1690.95 -0.754982 -1.38339 0
M  V30 17015 C 1692.22 -0.237208 -1.94156 0
M  V30 17016 C 1692.6 1.26479 -1.69016 0
M  V30 17017 O 1691.95 2.03995 -1.02948 0
M  V30 17018 C 1692.16 -0.592412 -3.43935 0
M  V30 17019 C 1693.51 -0.552832 -4.20986 0
M  V30 17020 O 1694.53 -0.530789 -3.52223 0
M  V30 17021 O 1693.39 -0.565006 -5.43571 0
M  V30 17022 H 1690.49 -0.0500619 -0.825483 0
M  V30 17023 H 1693.03 -0.835199 -1.47724 0
M  V30 17024 H 1691.8 -1.62969 -3.55748 0
M  V30 17025 H 1691.43 0.0335119 -3.97586 0
M  V30 17026 N 1692.42 1.49318 -0.504168 0
M  V30 17027 C 1693.36 2.27103 0.309327 0
M  V30 17028 C 1694.37 1.33776 0.927781 0
M  V30 17029 O 1695.56 1.59034 0.810585 0
M  V30 17030 C 1692.66 3.06277 1.45078 0
M  V30 17031 C 1691.83 4.27201 0.939045 0
M  V30 17032 C 1690.89 4.88395 1.95849 0
M  V30 17033 O 1689.92 5.4837 1.52576 0
M  V30 17034 N 1691.12 4.78328 3.28911 0
M  V30 17035 H 1693.88 2.97558 -0.35767 0
M  V30 17036 H 1691.44 1.58356 -0.336907 0
M  V30 17037 H 1693.44 3.44088 2.13038 0
M  V30 17038 H 1692.01 2.38409 2.02188 0
M  V30 17039 H 1691.23 3.9411 0.0842433 0
M  V30 17040 H 1692.51 5.05534 0.575603 0
M  V30 17041 H 1691.91 4.30707 3.66753 0
M  V30 17042 H 1690.47 5.20315 3.92576 0
M  V30 17043 N 1693.9 0.238138 1.5579 0
M  V30 17044 C 1695.13 -0.396409 2.03576 0
M  V30 17045 C 1695.55 -1.5138 1.11649 0
M  V30 17046 O 1694.91 -1.80979 0.107774 0
M  V30 17047 C 1694.96 -0.889749 3.49451 0
M  V30 17048 O 1694.06 -1.99997 3.60659 0
M  V30 17049 H 1693.4 -0.0876017 0.658196 0
M  V30 17050 H 1695.93 0.361632 2.01379 0
M  V30 17051 H 1695.94 -1.19526 3.901 0
M  V30 17052 H 1694.62 -0.0720136 4.15838 0
M  V30 17053 H 1693.2 -1.69983 3.31904 0
M  V30 17054 N 1695.38 -1.57561 -0.0350783 0
M  V30 17055 C 1696.61 -1.93251 -0.73903 0
M  V30 17056 C 1697.02 -0.83739 -1.69214 0
M  V30 17057 O 1696.38 0.186669 -1.81543 0
M  V30 17058 C 1696.43 -3.28853 -1.50127 0
M  V30 17059 O 1696.15 -4.34157 -0.586426 0
M  V30 17060 C 1697.65 -3.78788 -2.30292 0
M  V30 17061 H 1694.87 -0.63793 -0.208053 0
M  V30 17062 H 1697.42 -2.04499 0.00560398 0
M  V30 17063 H 1695.57 -3.1902 -2.19784 0
M  V30 17064 H 1695.99 -5.12395 -1.12034 0
M  V30 17065 H 1697.46 -4.76197 -2.79178 0
M  V30 17066 H 1697.94 -3.09671 -3.11449 0
M  V30 17067 H 1698.54 -3.91684 -1.65721 0
M  V30 17068 N 1696.86 0.307236 -1.54576 0
M  V30 17069 C 1698.11 1.04115 -1.73218 0
M  V30 17070 C 1698.43 1.88008 -0.517482 0
M  V30 17071 O 1697.7 1.90219 0.468336 0
M  V30 17072 H 1696.28 0.387388 -0.638701 0
M  V30 17073 H 1698.94 0.339727 -1.91916 0
M  V30 17074 H 1698.04 1.69784 -2.61877 0
M  V30 17075 N 1698.34 1.46926 0.570122 0
M  V30 17076 C 1699.27 1.54487 1.69311 0
M  V30 17077 C 1700.28 0.432119 1.5696 0
M  V30 17078 O 1701.47 0.701107 1.64155 0
M  V30 17079 C 1698.57 1.42093 3.07673 0
M  V30 17080 C 1697.74 2.6771 3.45905 0
M  V30 17081 C 1696.8 2.49336 4.63377 0
M  V30 17082 O 1695.83 3.23107 4.68605 0
M  V30 17083 N 1697.03 1.56319 5.59057 0
M  V30 17084 H 1699.8 2.51319 1.63276 0
M  V30 17085 H 1697.36 1.43142 0.756434 0
M  V30 17086 H 1699.35 1.27554 3.84073 0
M  V30 17087 H 1697.92 0.533945 3.08006 0
M  V30 17088 H 1697.14 2.97102 2.59083 0
M  V30 17089 H 1698.43 3.51131 3.68218 0
M  V30 17090 H 1697.82 0.955109 5.57579 0
M  V30 17091 H 1696.38 1.47738 6.34836 0
M  V30 17092 N 1699.82 -0.815801 1.34842 0
M  V30 17093 C 1701.06 -1.58588 1.28955 0
M  V30 17094 C 1701.42 -1.91512 -0.136769 0
M  V30 17095 O 1702.62 -2.6689 -0.319903 0
M  V30 17096 C 1700.89 -2.84584 2.1621 0
M  V30 17097 S 1702.45 -3.75069 2.27747 0
M  V30 17098 H 1699.27 -0.543479 0.458422 0
M  V30 17099 H 1701.87 -0.96306 1.70133 0
M  V30 17100 H 1700.57 -2.58405 3.18834 0
M  V30 17101 H 1700.11 -3.51857 1.75954 0
M  V30 17102 H 1702.12 -4.74373 1.45549 0
M  V30 17103 N 1701.29 -1.18689 -1.03686 0
M  V30 17104 C 1702.54 -0.98606 -1.77214 0
M  V30 17105 C 1702.87 0.482788 -1.88103 0
M  V30 17106 O 1702.15 1.3585 -1.39194 0
M  V30 17107 C 1702.43 -1.64611 -3.20274 0
M  V30 17108 C 1702.28 -3.18808 -3.17304 0
M  V30 17109 C 1703.6 -1.36251 -4.18478 0
M  V30 17110 H 1700.72 -0.359634 -0.643298 0
M  V30 17111 H 1703.36 -1.46412 -1.21094 0
M  V30 17112 H 1701.51 -1.23964 -3.68192 0
M  V30 17113 H 1703.19 -3.68615 -2.77346 0
M  V30 17114 H 1701.43 -3.50769 -2.55232 0
M  V30 17115 H 1702.1 -3.60131 -4.18341 0
M  V30 17116 H 1704.58 -1.71476 -3.79124 0
M  V30 17117 H 1703.45 -1.84997 -5.16786 0
M  V30 17118 H 1703.71 -0.286113 -4.41173 0
M  V30 17119 N 1702.77 1.22662 -0.989529 0
M  V30 17120 C 1704.01 1.9305 -0.671653 0
M  V30 17121 C 1704.38 1.75377 0.781465 0
M  V30 17122 O 1705.58 2.39996 1.2106 0
M  V30 17123 C 1703.85 3.41245 -1.0624 0
M  V30 17124 S 1705.41 4.30242 -0.862376 0
M  V30 17125 H 1702.22 0.667204 -0.245682 0
M  V30 17126 H 1704.83 1.48537 -1.2711 0
M  V30 17127 H 1703.53 3.51619 -2.11641 0
M  V30 17128 H 1703.06 3.90764 -0.454611 0
M  V30 17129 H 1705.08 4.95575 0.248897 0
M  V30 17130 N 1704.25 0.762308 1.37937 0
M  V30 17131 C 1705.5 0.322846 2.00214 0
M  V30 17132 C 1705.83 -1.09513 1.60376 0
M  V30 17133 O 1705.1 -1.75165 0.845432 0
M  V30 17134 C 1705.39 0.455651 3.57206 0
M  V30 17135 C 1705.24 1.91537 4.06981 0
M  V30 17136 C 1706.56 -0.145758 4.39859 0
M  V30 17137 H 1703.68 0.118781 0.727365 0
M  V30 17138 H 1706.32 0.963585 1.63753 0
M  V30 17139 H 1704.47 -0.0898341 3.88396 0
M  V30 17140 H 1706.14 2.51983 3.86397 0
M  V30 17141 H 1704.38 2.42744 3.59524 0
M  V30 17142 H 1705.06 1.9594 5.16054 0
M  V30 17143 H 1707.53 0.31956 4.14871 0
M  V30 17144 H 1706.41 -0.0226441 5.48895 0
M  V30 17145 H 1706.67 -1.23504 4.24499 0
M  V30 17146 N 1705.73 -1.49049 0.51208 0
M  V30 17147 C 1706.64 -2.33102 -0.264695 0
M  V30 17148 C 1707.65 -1.45347 -0.956571 0
M  V30 17149 O 1708.83 -1.78355 -0.935501 0
M  V30 17150 C 1705.89 -3.21051 -1.30871 0
M  V30 17151 C 1704.96 -4.24666 -0.629094 0
M  V30 17152 C 1704.19 -5.08412 -1.62337 0
M  V30 17153 O 1704.41 -4.93847 -2.85432 0
M  V30 17154 O 1703.35 -5.90368 -1.17259 0
M  V30 17155 H 1707.17 -3.00732 0.423585 0
M  V30 17156 H 1704.76 -1.4688 0.273246 0
M  V30 17157 H 1706.64 -3.75503 -1.91248 0
M  V30 17158 H 1705.31 -2.56103 -1.97972 0
M  V30 17159 H 1704.22 -3.74097 0.0147056 0
M  V30 17160 H 1705.55 -4.922 -0.000339859 0
M  V30 17161 N 1707.21 -0.246397 -1.55662 0
M  V30 17162 C 1708.45 0.377739 -1.98539 0
M  V30 17163 C 1708.77 1.58504 -1.13585 0
M  V30 17164 O 1708.04 1.94677 -0.218528 0
M  V30 17165 H 1706.62 0.142554 -0.733272 0
M  V30 17166 H 1709.29 -0.345069 -1.91821 0
M  V30 17167 H 1708.38 0.687224 -3.0444 0
M  V30 17168 N 1708.68 1.57577 0.026722 0
M  V30 17169 C 1709.93 1.8966 0.718124 0
M  V30 17170 C 1710.26 0.844423 1.7488 0
M  V30 17171 O 1709.54 -0.14023 1.93994 0
M  V30 17172 C 1709.82 3.32377 1.38555 0
M  V30 17173 C 1709.67 4.4829 0.368227 0
M  V30 17174 C 1710.99 3.74051 2.31891 0
M  V30 17175 H 1708.11 0.689767 0.259596 0
M  V30 17176 H 1710.75 1.8999 -0.0190825 0
M  V30 17177 H 1708.9 3.32226 2.01391 0
M  V30 17178 H 1710.58 4.60576 -0.258394 0
M  V30 17179 H 1708.82 4.32675 -0.312255 0
M  V30 17180 H 1709.49 5.45041 0.873749 0
M  V30 17181 H 1711.97 3.75584 1.79097 0
M  V30 17182 H 1710.84 4.74713 2.7557 0
M  V30 17183 H 1711.1 3.06438 3.18666 0
M  V30 17184 N 1710.16 -0.299034 1.54737 0
M  V30 17185 C 1711.07 -1.39141 1.88884 0
M  V30 17186 C 1712.09 -1.55377 0.783203 0
M  V30 17187 O 1713.26 -1.70003 1.07985 0
M  V30 17188 C 1710.33 -2.73487 2.13087 0
M  V30 17189 C 1709.39 -2.66219 3.36788 0
M  V30 17190 C 1708.62 -3.94158 3.59827 0
M  V30 17191 O 1708.85 -4.9361 2.85841 0
M  V30 17192 O 1707.78 -3.95933 4.53344 0
M  V30 17193 H 1711.61 -1.13184 2.81821 0
M  V30 17194 H 1709.19 -0.495271 1.40952 0
M  V30 17195 H 1711.07 -3.5297 2.30195 0
M  V30 17196 H 1709.75 -2.99283 1.23335 0
M  V30 17197 H 1708.65 -1.85201 3.25041 0
M  V30 17198 H 1709.99 -2.45376 4.26675 0
M  V30 17199 N 1711.64 -1.47227 -0.562322 0
M  V30 17200 C 1712.89 -1.53286 -1.31712 0
M  V30 17201 C 1713.21 -0.194583 -1.94027 0
M  V30 17202 O 1712.48 0.780961 -1.7966 0
M  V30 17203 H 1711.06 -0.564621 -0.489094 0
M  V30 17204 H 1713.72 -1.83492 -0.657024 0
M  V30 17205 H 1712.82 -2.29665 -2.1133 0
M  V30 17206 N 1713.12 0.808639 -1.35273 0
M  V30 17207 C 1714.53 1.38248 -1.25477 0
M  V30 17208 C 1714.88 1.9587 0.113715 0
M  V30 17209 O 1714 1.91141 1.0146 0
M  V30 17210 C 1714.6 2.5133 -2.27197 0
M  V30 17211 C 1713.16 3.04582 -2.21148 0
M  V30 17212 C 1712.31 1.77534 -2.13019 0
M  V30 17213 H 1715.26 0.611844 -1.46431 0
M  V30 17214 H 1715.28 3.29825 -1.89726 0
M  V30 17215 H 1714.79 2.09362 -3.26786 0
M  V30 17216 H 1712.89 3.5102 -1.24963 0
M  V30 17217 H 1713 3.62703 -3.13023 0
M  V30 17218 H 1711.37 1.99004 -1.58964 0
M  V30 17219 H 1712.15 1.3772 -3.14465 0
M  V30 17220 N 1714.6 1.19237 1.03055 0
M  V30 17221 C 1716.01 0.944224 1.28672 0
M  V30 17222 C 1716.21 -0.384378 1.978 0
M  V30 17223 O 1715.27 -1.11629 2.26484 0
M  V30 17224 C 1716.58 2.11704 2.13546 0
M  V30 17225 C 1718.13 2.15647 2.2686 0
M  V30 17226 C 1718.6 3.32375 3.15105 0
M  V30 17227 N 1720.1 3.323 3.22693 0
M  V30 17228 C 1720.83 4.19265 3.91158 0
M  V30 17229 N 1720.33 5.16381 4.61868 0
M  V30 17230 N 1722.12 4.07147 3.87541 0
M  V30 17231 H 1714.27 2.0472 0.565987 0
M  V30 17232 H 1716.53 0.895073 0.312328 0
M  V30 17233 H 1716.24 3.07845 1.70072 0
M  V30 17234 H 1716.11 2.08624 3.14254 0
M  V30 17235 H 1718.5 1.20078 2.69565 0
M  V30 17236 H 1718.58 2.22781 1.25708 0
M  V30 17237 H 1718.23 4.28222 2.73108 0
M  V30 17238 H 1718.16 3.22478 4.16312 0
M  V30 17239 H 1720.65 2.62 2.72331 0
M  V30 17240 H 1720.96 5.7909 5.11737 0
M  V30 17241 H 1719.3 5.20331 4.60739 0
M  V30 17242 H 1722.5 3.30555 3.31438 0
M  V30 17243 H 1722.67 4.75135 4.40625 0
M  V30 17244 N 1716.07 -1.22136 0.99602 0
M  V30 17245 C 1717.31 -1.92691 0.681882 0
M  V30 17246 C 1717.68 -1.75789 -0.772154 0
M  V30 17247 O 1718.88 -2.40634 -1.19785 0
M  V30 17248 C 1717.15 -3.40676 1.08048 0
M  V30 17249 S 1718.71 -4.29779 0.885181 0
M  V30 17250 H 1715.53 -0.665892 0.249217 0
M  V30 17251 H 1718.13 -1.47861 1.27896 0
M  V30 17252 H 1716.83 -3.50492 2.13503 0
M  V30 17253 H 1716.36 -3.90518 0.475328 0
M  V30 17254 H 1718.38 -4.957 -0.222612 0
M  V30 17255 N 1717.55 -0.769612 -1.37531 0
M  V30 17256 C 1718.83 -0.257788 -1.93894 0
M  V30 17257 C 1719.21 1.24679 -1.70348 0
M  V30 17258 O 1718.56 2.02892 -1.05106 0
M  V30 17259 C 1718.77 -0.628857 -3.43288 0
M  V30 17260 C 1720.12 -0.597452 -4.20376 0
M  V30 17261 O 1721.14 -0.568117 -3.5164 0
M  V30 17262 O 1720 -0.622627 -5.42942 0
M  V30 17263 H 1717.09 -0.0588144 -0.824906 0
M  V30 17264 H 1719.64 -0.85082 -1.4683 0
M  V30 17265 H 1718.41 -1.66733 -3.54 0
M  V30 17266 H 1718.03 -0.00865929 -3.97599 0
M  V30 17267 N 1719.03 1.48775 -0.519977 0
M  V30 17268 C 1719.98 2.29461 0.248242 0
M  V30 17269 C 1720.95 1.36734 0.943027 0
M  V30 17270 O 1722.13 1.65697 0.946003 0
M  V30 17271 C 1719.27 3.19868 1.29531 0
M  V30 17272 C 1718.39 4.27666 0.610379 0
M  V30 17273 C 1717.52 5.05266 1.63951 0
M  V30 17274 C 1716.56 6.04878 0.937496 0
M  V30 17275 N 1715.7 6.75573 1.91171 0
M  V30 17276 H 1720.54 2.94643 -0.446016 0
M  V30 17277 H 1718.07 1.45262 -0.231792 0
M  V30 17278 H 1720.03 3.70675 1.91456 0
M  V30 17279 H 1718.66 2.5663 1.95808 0
M  V30 17280 H 1717.71 3.80202 -0.122598 0
M  V30 17281 H 1719.03 4.98765 0.0586864 0
M  V30 17282 H 1718.18 5.60037 2.33332 0
M  V30 17283 H 1716.92 4.33983 2.22509 0
M  V30 17284 H 1715.92 5.49321 0.229562 0
M  V30 17285 H 1717.15 6.78155 0.358166 0
M  V30 17286 H 1715.09 6.07048 2.48655 0
M  V30 17287 H 1715.01 7.42712 1.41118 0
M  V30 17288 H 1716.28 7.34938 2.59781 0
M  V30 17289 N 1720.51 0.254649 1.55529 0
M  V30 17290 C 1721.75 -0.369374 2.01035 0
M  V30 17291 C 1722.11 -1.54564 1.13904 0
M  V30 17292 O 1723.31 -2.23792 1.48899 0
M  V30 17293 C 1721.58 -0.761489 3.49194 0
M  V30 17294 S 1723.14 -1.37494 4.16702 0
M  V30 17295 H 1719.96 -0.115878 0.701494 0
M  V30 17296 H 1722.56 0.371696 1.91934 0
M  V30 17297 H 1721.27 0.103781 4.10269 0
M  V30 17298 H 1720.8 -1.53454 3.62237 0
M  V30 17299 H 1722.81 -2.66389 4.1863 0
M  V30 17300 N 1721.99 -1.57589 -0.0183649 0
M  V30 17301 C 1723.21 -1.94024 -0.718491 0
M  V30 17302 C 1723.63 -0.85529 -1.68316 0
M  V30 17303 O 1722.99 0.167403 -1.81731 0
M  V30 17304 C 1723.04 -3.30427 -1.4663 0
M  V30 17305 O 1722.76 -4.34755 -0.540345 0
M  V30 17306 C 1724.26 -3.81209 -2.26262 0
M  V30 17307 H 1721.48 -0.640101 -0.201275 0
M  V30 17308 H 1724.02 -2.04482 0.0272935 0
M  V30 17309 H 1722.18 -3.21333 -2.16388 0
M  V30 17310 H 1722.59 -5.13554 -1.06593 0
M  V30 17311 H 1724.07 -4.79131 -2.74112 0
M  V30 17312 H 1724.54 -3.12957 -3.08147 0
M  V30 17313 H 1725.15 -3.9342 -1.61558 0
M  V30 17314 N 1723.46 0.290824 -1.54893 0
M  V30 17315 C 1724.88 0.637054 -1.46334 0
M  V30 17316 C 1725.08 1.90285 -0.66285 0
M  V30 17317 O 1724.14 2.51896 -0.174589 0
M  V30 17318 C 1725.45 0.780585 -2.90392 0
M  V30 17319 C 1727 0.875807 -3.00497 0
M  V30 17320 C 1727.47 1.05126 -4.45772 0
M  V30 17321 N 1728.96 1.11721 -4.49525 0
M  V30 17322 C 1729.7 1.27145 -5.59126 0
M  V30 17323 N 1729.19 1.39401 -6.7863 0
M  V30 17324 N 1730.99 1.30114 -5.46833 0
M  V30 17325 H 1723.14 -0.540707 -2.05402 0
M  V30 17326 H 1725.4 -0.180344 -0.930688 0
M  V30 17327 H 1725.11 -0.0787855 -3.51612 0
M  V30 17328 H 1724.98 1.66644 -3.38392 0
M  V30 17329 H 1727.37 1.72566 -2.39385 0
M  V30 17330 H 1727.45 -0.0342844 -2.55777 0
M  V30 17331 H 1727.09 0.206135 -5.07482 0
M  V30 17332 H 1727.02 1.97573 -4.88132 0
M  V30 17333 H 1729.51 1.03562 -3.63433 0
M  V30 17334 H 1729.83 1.50953 -7.57914 0
M  V30 17335 H 1728.17 1.36438 -6.81476 0
M  V30 17336 H 1731.36 1.20157 -4.52416 0
M  V30 17337 H 1731.54 1.4179 -6.32297 0
M  V30 17338 N 1724.94 1.47523 0.554506 0
M  V30 17339 C 1726.19 1.53982 1.30897 0
M  V30 17340 C 1726.51 0.20487 1.93921 0
M  V30 17341 O 1725.78 -0.771422 1.80072 0
M  V30 17342 H 1724.36 0.567206 0.486092 0
M  V30 17343 H 1727.02 1.83838 0.647284 0
M  V30 17344 H 1726.12 2.30783 2.10109 0
M  V30 17345 N 1726.42 -0.801453 1.357 0
M  V30 17346 C 1727.65 -1.58771 1.32194 0
M  V30 17347 C 1728.06 -1.88927 -0.101529 0
M  V30 17348 O 1727.4 -1.49649 -1.0654 0
M  V30 17349 C 1727.46 -2.94186 2.06627 0
M  V30 17350 C 1727.13 -2.86819 3.55786 0
M  V30 17351 C 1728.12 -2.59898 4.50276 0
M  V30 17352 C 1725.81 -3.05775 3.98506 0
M  V30 17353 C 1727.8 -2.52017 5.85462 0
M  V30 17354 C 1725.49 -2.97516 5.33786 0
M  V30 17355 C 1726.49 -2.70673 6.27076 0
M  V30 17356 O 1726.18 -2.62387 7.59874 0
M  V30 17357 H 1725.91 -0.499518 0.455475 0
M  V30 17358 H 1728.46 -1.00358 1.79213 0
M  V30 17359 H 1726.69 -3.54602 1.54253 0
M  V30 17360 H 1728.38 -3.55368 1.96133 0
M  V30 17361 H 1729.15 -2.44968 4.18588 0
M  V30 17362 H 1725.03 -3.25678 3.26274 0
M  V30 17363 H 1728.57 -2.30985 6.58249 0
M  V30 17364 H 1724.47 -3.12006 5.65086 0
M  V30 17365 H 1725.24 -2.77957 7.69859 0
M  V30 17366 N 1727.9 -1.19782 -1.02421 0
M  V30 17367 C 1729.12 -1.02939 -1.80051 0
M  V30 17368 C 1729.55 0.417153 -1.83416 0
M  V30 17369 O 1728.91 1.3001 -1.26361 0
M  V30 17370 C 1728.95 -1.60853 -3.22736 0
M  V30 17371 O 1728.06 -0.840999 -4.03734 0
M  V30 17372 H 1727.4 -0.363537 -0.555641 0
M  V30 17373 H 1729.93 -1.58908 -1.28878 0
M  V30 17374 H 1729.94 -1.64266 -3.73471 0
M  V30 17375 H 1728.61 -2.66135 -3.19602 0
M  V30 17376 H 1727.19 -0.880482 -3.62356 0
M  V30 17377 N 1729.38 1.21606 -1.00248 0
M  V30 17378 C 1730.63 1.90231 -0.682401 0
M  V30 17379 C 1730.95 1.78324 0.78903 0
M  V30 17380 O 1730.22 1.17653 1.56635 0
M  V30 17381 H 1728.8 0.704132 -0.249414 0
M  V30 17382 H 1731.46 1.47751 -1.27105 0
M  V30 17383 H 1730.55 2.97183 -0.953351 0
M  V30 17384 N 1730.86 0.776895 1.37121 0
M  V30 17385 C 1732.1 0.344063 1.9986 0
M  V30 17386 C 1732.43 -1.07806 1.61529 0
M  V30 17387 O 1731.71 -1.74258 0.863963 0
M  V30 17388 C 1731.99 0.493512 3.56702 0
M  V30 17389 C 1731.85 1.95842 4.04927 0
M  V30 17390 C 1733.16 -0.099097 4.39988 0
M  V30 17391 H 1730.28 0.126489 0.726064 0
M  V30 17392 H 1732.93 0.980899 1.62722 0
M  V30 17393 H 1731.08 -0.0486344 3.8847 0
M  V30 17394 H 1732.75 2.56067 3.83702 0
M  V30 17395 H 1730.99 2.46544 3.56929 0
M  V30 17396 H 1731.66 2.01402 5.13947 0
M  V30 17397 H 1734.14 0.363545 4.14509 0
M  V30 17398 H 1733.01 0.0355748 5.48888 0
M  V30 17399 H 1733.27 -1.18995 4.25785 0
M  V30 17400 N 1732.33 -1.48497 0.527859 0
M  V30 17401 C 1733.58 -2.02499 -0.00701157 0
M  V30 17402 C 1733.91 -1.40516 -1.34483 0
M  V30 17403 O 1733.16 -0.539575 -1.88115 0
M  V30 17404 C 1733.46 -3.56945 -0.180276 0
M  V30 17405 C 1733.13 -4.37703 1.08291 0
M  V30 17406 C 1731.79 -4.59489 1.42911 0
M  V30 17407 C 1734.14 -4.84495 1.92131 0
M  V30 17408 C 1731.47 -5.25313 2.61272 0
M  V30 17409 C 1733.82 -5.51623 3.09669 0
M  V30 17410 C 1732.49 -5.71648 3.44637 0
M  V30 17411 H 1731.76 -0.740996 -0.00256572 0
M  V30 17412 H 1734.4 -1.78503 0.693453 0
M  V30 17413 H 1732.71 -3.79768 -0.963491 0
M  V30 17414 H 1734.41 -3.96348 -0.609009 0
M  V30 17415 H 1731 -4.21005 0.803293 0
M  V30 17416 H 1735.18 -4.67468 1.66696 0
M  V30 17417 H 1730.44 -5.39015 2.8857 0
M  V30 17418 H 1734.61 -5.86849 3.74942 0
M  V30 17419 H 1732.24 -6.22426 4.36451 0
M  V30 17420 N 1733.81 -0.262893 -1.55392 0
M  V30 17421 C 1735.22 0.237224 -1.85187 0
M  V30 17422 C 1735.57 1.56383 -1.18486 0
M  V30 17423 O 1734.7 2.1126 -0.468849 0
M  V30 17424 C 1735.29 0.437206 -3.35967 0
M  V30 17425 C 1733.85 0.881568 -3.65931 0
M  V30 17426 C 1733 -0.0321489 -2.77281 0
M  V30 17427 H 1735.95 -0.485025 -1.51107 0
M  V30 17428 H 1735.97 1.27755 -3.58412 0
M  V30 17429 H 1735.48 -0.528474 -3.84485 0
M  V30 17430 H 1733.58 1.85915 -3.22903 0
M  V30 17431 H 1733.7 0.727355 -4.73547 0
M  V30 17432 H 1732.06 0.48204 -2.50097 0
M  V30 17433 H 1732.84 -0.99349 -3.2861 0
M  V30 17434 N 1735.29 1.57597 0.0100073 0
M  V30 17435 C 1736.57 1.81329 0.733415 0
M  V30 17436 C 1736.95 0.865495 1.92542 0
M  V30 17437 O 1736.29 -0.088073 2.2833 0
M  V30 17438 C 1736.5 3.29559 1.14856 0
M  V30 17439 C 1737.85 3.95039 1.55658 0
M  V30 17440 O 1738.88 3.33822 1.24262 0
M  V30 17441 O 1737.74 5.02858 2.13999 0
M  V30 17442 H 1734.83 0.746334 0.35625 0
M  V30 17443 H 1737.38 1.69694 -0.0146791 0
M  V30 17444 H 1736.15 3.9016 0.298467 0
M  V30 17445 H 1735.77 3.46156 1.95607 0
M  V30 17446 N 1736.77 -0.282606 1.55045 0
M  V30 17447 C 1738.01 -1.02323 1.76945 0
M  V30 17448 C 1738.37 -1.83845 0.553631 0
M  V30 17449 O 1739.57 -2.60805 0.650695 0
M  V30 17450 C 1737.84 -1.89026 3.03322 0
M  V30 17451 S 1739.4 -2.69484 3.463 0
M  V30 17452 H 1736.22 -0.344792 0.621804 0
M  V30 17453 H 1738.82 -0.294652 1.93267 0
M  V30 17454 H 1737.53 -1.28043 3.89914 0
M  V30 17455 H 1737.06 -2.6622 2.89638 0
M  V30 17456 H 1739.07 -3.91537 3.04817 0
M  V30 17457 N 1738.25 -1.47815 -0.546675 0
M  V30 17458 C 1739.47 -1.58613 -1.32851 0
M  V30 17459 C 1739.89 -0.240179 -1.87266 0
M  V30 17460 O 1739.25 0.768148 -1.65547 0
M  V30 17461 C 1739.3 -2.61969 -2.49107 0
M  V30 17462 O 1739.02 -3.9134 -1.96938 0
M  V30 17463 C 1740.52 -2.83051 -3.4117 0
M  V30 17464 H 1737.74 -0.535292 -0.404603 0
M  V30 17465 H 1740.28 -1.93516 -0.661192 0
M  V30 17466 H 1738.44 -2.29971 -3.11756 0
M  V30 17467 H 1738.85 -4.47905 -2.72913 0
M  V30 17468 H 1740.33 -3.59209 -4.19134 0
M  V30 17469 H 1740.8 -1.91258 -3.95369 0
M  V30 17470 H 1741.41 -3.16287 -2.84328 0
M  V30 17471 N 1739.72 0.794246 -1.36123 0
M  V30 17472 C 1741.13 1.36909 -1.26936 0
M  V30 17473 C 1741.49 1.9598 0.0929337 0
M  V30 17474 O 1740.61 1.92206 0.994266 0
M  V30 17475 C 1741.21 2.48906 -2.2985 0
M  V30 17476 C 1739.76 3.0222 -2.24366 0
M  V30 17477 C 1738.91 1.75264 -2.1489 0
M  V30 17478 H 1741.86 0.596278 -1.47072 0
M  V30 17479 H 1741.88 3.27794 -1.93213 0
M  V30 17480 H 1741.4 2.05884 -3.28988 0
M  V30 17481 H 1739.5 3.49675 -1.28679 0
M  V30 17482 H 1739.61 3.59363 -3.16852 0
M  V30 17483 H 1737.97 1.97306 -1.61066 0
M  V30 17484 H 1738.76 1.34377 -3.15908 0
M  V30 17485 N 1741.2 1.20323 1.01785 0
M  V30 17486 C 1742.44 1.0239 1.76906 0
M  V30 17487 C 1742.81 -0.436461 1.86973 0
M  V30 17488 O 1744.01 -0.735939 2.58529 0
M  V30 17489 C 1742.28 1.68729 3.15064 0
M  V30 17490 S 1743.84 1.65881 4.06237 0
M  V30 17491 H 1740.65 0.367179 0.608852 0
M  V30 17492 H 1743.26 1.52857 1.21881 0
M  V30 17493 H 1741.96 2.74194 3.05362 0
M  V30 17494 H 1741.49 1.18387 3.75164 0
M  V30 17495 H 1743.51 0.6908 4.91368 0
M  V30 17496 N 1742.68 -1.21073 1.00892 0
M  V30 17497 C 1743.63 -2.21426 0.543574 0
M  V30 17498 C 1744.61 -1.55927 -0.396938 0
M  V30 17499 O 1745.81 -1.75613 -0.221152 0
M  V30 17500 C 1742.93 -3.43074 -0.124494 0
M  V30 17501 C 1742.02 -4.15753 0.837269 0
M  V30 17502 N 1742.41 -4.64936 1.99168 0
M  V30 17503 C 1740.71 -4.41142 0.656473 0
M  V30 17504 C 1741.41 -5.20527 2.59666 0
M  V30 17505 N 1740.39 -5.10133 1.87792 0
M  V30 17506 H 1744.19 -2.5711 1.42378 0
M  V30 17507 H 1741.7 -1.36923 0.873254 0
M  V30 17508 H 1743.7 -4.14181 -0.475363 0
M  V30 17509 H 1742.36 -3.08897 -1.00064 0
M  V30 17510 H 1743.37 -4.60392 2.37191 0
M  V30 17511 H 1740.05 -4.17144 -0.172261 0
M  V30 17512 H 1741.44 -5.69011 3.57318 0
M  V30 17513 N 1744.16 -0.784156 -1.36707 0
M  V30 17514 C 1745.09 -0.136944 -2.28791 0
M  V30 17515 C 1746.1 0.65075 -1.49228 0
M  V30 17516 O 1747.29 0.486799 -1.71734 0
M  V30 17517 C 1744.39 0.829306 -3.28597 0
M  V30 17518 C 1743.57 0.09279 -4.37302 0
M  V30 17519 C 1742.62 0.974213 -5.17103 0
M  V30 17520 O 1741.65 0.433399 -5.67548 0
M  V30 17521 N 1742.85 2.29909 -5.33031 0
M  V30 17522 H 1745.62 -0.927906 -2.84974 0
M  V30 17523 H 1743.18 -0.637596 -1.48816 0
M  V30 17524 H 1745.17 1.42268 -3.78869 0
M  V30 17525 H 1743.74 1.52117 -2.73092 0
M  V30 17526 H 1742.96 -0.681615 -3.88262 0
M  V30 17527 H 1744.25 -0.415655 -5.07099 0
M  V30 17528 H 1743.65 2.76268 -4.93652 0
M  V30 17529 H 1742.2 2.84224 -5.86566 0
M  V30 17530 N 1745.64 1.48215 -0.535727 0
M  V30 17531 C 1746.88 2.04399 -0.0058065 0
M  V30 17532 C 1747.24 1.40332 1.31037 0
M  V30 17533 O 1748.44 1.87437 1.92668 0
M  V30 17534 C 1746.71 3.57237 0.107773 0
M  V30 17535 S 1748.27 4.34857 0.586926 0
M  V30 17536 H 1745.09 0.710846 -0.0148167 0
M  V30 17537 H 1747.69 1.81854 -0.717592 0
M  V30 17538 H 1746.4 4.01398 -0.85488 0
M  V30 17539 H 1745.93 3.84245 0.843764 0
M  V30 17540 H 1747.94 4.60405 1.85045 0
M  V30 17541 N 1747.11 0.27113 1.5525 0
M  V30 17542 C 1748.36 -0.346791 1.99508 0
M  V30 17543 C 1748.69 -1.56159 1.15951 0
M  V30 17544 O 1747.94 -1.94502 0.216185 0
M  V30 17545 C 1748.24 -0.776823 3.48856 0
M  V30 17546 C 1747.91 0.332899 4.49669 0
M  V30 17547 C 1746.57 0.63762 4.76957 0
M  V30 17548 C 1748.92 1.08087 5.09869 0
M  V30 17549 C 1746.25 1.69396 5.61713 0
M  V30 17550 C 1748.6 2.12691 5.95773 0
M  V30 17551 C 1747.27 2.43802 6.21383 0
M  V30 17552 H 1746.54 -0.1269 0.730053 0
M  V30 17553 H 1749.18 0.384012 1.8761 0
M  V30 17554 H 1747.49 -1.58723 3.5821 0
M  V30 17555 H 1749.19 -1.26561 3.80504 0
M  V30 17556 H 1745.78 0.0852733 4.28515 0
M  V30 17557 H 1749.96 0.858708 4.88815 0
M  V30 17558 H 1745.22 1.94007 5.79803 0
M  V30 17559 H 1749.39 2.71125 6.41455 0
M  V30 17560 H 1747.02 3.2579 6.86851 0
M  V30 17561 N 1748.59 -1.576 -0.00164943 0
M  V30 17562 C 1749.56 -2.07267 -0.978423 0
M  V30 17563 C 1750.56 -0.981758 -1.27351 0
M  V30 17564 O 1751.75 -1.24446 -1.21896 0
M  V30 17565 C 1748.88 -2.51273 -2.30379 0
M  V30 17566 H 1750.07 -2.94835 -0.548845 0
M  V30 17567 H 1747.62 -1.54302 -0.249086 0
M  V30 17568 H 1748.36 -1.66943 -2.7803 0
M  V30 17569 H 1748.14 -3.30943 -2.10283 0
M  V30 17570 H 1749.63 -2.90031 -3.00453 0
M  V30 17571 N 1750.07 0.274379 -1.55193 0
M  V30 17572 C 1751 1.34336 -1.90987 0
M  V30 17573 C 1751.98 1.51594 -0.771582 0
M  V30 17574 O 1753.17 1.6466 -1.0296 0
M  V30 17575 C 1750.3 2.70312 -2.18057 0
M  V30 17576 C 1749.25 2.67787 -3.33878 0
M  V30 17577 C 1748.58 4.07301 -3.46425 0
M  V30 17578 C 1749.88 2.27178 -4.70306 0
M  V30 17579 H 1751.57 1.04627 -2.80524 0
M  V30 17580 H 1749.12 0.501867 -1.34971 0
M  V30 17581 H 1751.07 3.45205 -2.41685 0
M  V30 17582 H 1749.79 3.01601 -1.25318 0
M  V30 17583 H 1748.45 1.95351 -3.10216 0
M  V30 17584 H 1748.1 4.3581 -2.51155 0
M  V30 17585 H 1747.8 4.06507 -4.24295 0
M  V30 17586 H 1749.32 4.83935 -3.72343 0
M  V30 17587 H 1750.74 2.91794 -4.93487 0
M  V30 17588 H 1749.14 2.37548 -5.51082 0
M  V30 17589 H 1750.21 1.22309 -4.69221 0
M  V30 17590 N 1751.55 1.48103 0.538828 0
M  V30 17591 C 1752.79 1.5688 1.29461 0
M  V30 17592 C 1753.15 0.235793 1.9095 0
M  V30 17593 O 1752.44 -0.760462 1.75862 0
M  V30 17594 C 1752.64 2.63703 2.41237 0
M  V30 17595 C 1752.47 4.07262 1.90704 0
M  V30 17596 C 1751.24 4.74503 1.73709 0
M  V30 17597 C 1753.43 4.93708 1.44073 0
M  V30 17598 N 1751.42 6.0251 1.17709 0
M  V30 17599 C 1752.79 6.11889 0.999608 0
M  V30 17600 C 1754.84 4.80003 1.32294 0
M  V30 17601 C 1753.54 7.17876 0.452385 0
M  V30 17602 C 1755.57 5.86104 0.789719 0
M  V30 17603 C 1754.93 7.03486 0.358624 0
M  V30 17604 H 1751.03 0.628668 0.465081 0
M  V30 17605 H 1753.62 1.84942 0.608641 0
M  V30 17606 H 1751.79 2.37478 3.07341 0
M  V30 17607 H 1753.52 2.62217 3.0826 0
M  V30 17608 H 1750.27 4.30696 1.96971 0
M  V30 17609 H 1750.7 6.70755 0.917441 0
M  V30 17610 H 1755.34 3.896 1.64231 0
M  V30 17611 H 1753.06 8.0801 0.120677 0
M  V30 17612 H 1756.64 5.77551 0.70188 0
M  V30 17613 H 1755.52 7.84186 -0.0475698 0
M  V30 17614 N 1753.03 -0.787016 1.36542 0
M  V30 17615 C 1754.3 -1.53325 1.21452 0
M  V30 17616 C 1754.68 -2.10166 -0.198313 0
M  V30 17617 O 1754.03 -1.94192 -1.20422 0
M  V30 17618 C 1754.24 -2.62629 2.29841 0
M  V30 17619 C 1755.59 -3.30446 2.66628 0
M  V30 17620 O 1756.61 -2.72914 2.28903 0
M  V30 17621 O 1755.47 -4.34424 3.31569 0
M  V30 17622 H 1752.57 -0.678361 0.473028 0
M  V30 17623 H 1755.11 -0.825292 1.4828 0
M  V30 17624 H 1753.88 -2.18639 3.24519 0
M  V30 17625 H 1753.51 -3.41042 2.04393 0
M  V30 17626 N 1754.5 -1.20861 -1.01145 0
M  V30 17627 C 1755.75 -1.02343 -1.75082 0
M  V30 17628 C 1756.08 0.44278 -1.89085 0
M  V30 17629 O 1755.36 1.32867 -1.42045 0
M  V30 17630 C 1755.64 -1.71368 -3.1671 0
M  V30 17631 C 1755.49 -3.25466 -3.1047 0
M  V30 17632 C 1756.81 -1.45097 -4.15494 0
M  V30 17633 H 1753.93 -0.373198 -0.635525 0
M  V30 17634 H 1756.57 -1.48947 -1.17961 0
M  V30 17635 H 1754.72 -1.31746 -3.6548 0
M  V30 17636 H 1756.4 -3.74415 -2.69464 0
M  V30 17637 H 1754.64 -3.56104 -2.47735 0
M  V30 17638 H 1755.31 -3.68924 -4.10608 0
M  V30 17639 H 1757.79 -1.7948 -3.75401 0
M  V30 17640 H 1756.66 -1.95917 -5.12745 0
M  V30 17641 H 1756.92 -0.379628 -4.40467 0
M  V30 17642 N 1755.98 1.20536 -1.01532 0
M  V30 17643 C 1757.23 1.89191 -0.699258 0
M  V30 17644 C 1757.54 1.79624 0.774238 0
M  V30 17645 O 1758.75 2.43402 1.20281 0
M  V30 17646 C 1757.21 3.39294 -1.20033 0
M  V30 17647 C 1756.81 3.57449 -2.70064 0
M  V30 17648 C 1758.56 4.13511 -0.959626 0
M  V30 17649 C 1756.47 5.01371 -3.13658 0
M  V30 17650 H 1755.4 0.708537 -0.257859 0
M  V30 17651 H 1758.05 1.36368 -1.22785 0
M  V30 17652 H 1756.43 3.91432 -0.599728 0
M  V30 17653 H 1757.6 3.15702 -3.35662 0
M  V30 17654 H 1755.92 2.966 -2.92262 0
M  V30 17655 H 1758.51 5.19624 -1.26077 0
M  V30 17656 H 1758.86 4.1617 0.103934 0
M  V30 17657 H 1759.39 3.67469 -1.52354 0
M  V30 17658 H 1756.13 5.03866 -4.19285 0
M  V30 17659 H 1755.65 5.43933 -2.52779 0
M  V30 17660 H 1757.33 5.69944 -3.06224 0
M  V30 17661 N 1757.46 0.791395 1.36289 0
M  V30 17662 C 1758.71 0.361277 1.98438 0
M  V30 17663 C 1759.02 -1.07343 1.63514 0
M  V30 17664 O 1760.23 -1.60591 2.18913 0
M  V30 17665 C 1758.68 0.595005 3.54947 0
M  V30 17666 C 1758.29 2.04125 3.98794 0
M  V30 17667 C 1760.04 0.22949 4.23879 0
M  V30 17668 C 1757.94 2.22154 5.48089 0
M  V30 17669 H 1756.87 0.131343 0.742472 0
M  V30 17670 H 1759.52 0.973308 1.5556 0
M  V30 17671 H 1757.91 -0.0867658 3.95905 0
M  V30 17672 H 1759.08 2.75959 3.6903 0
M  V30 17673 H 1757.4 2.3652 3.42706 0
M  V30 17674 H 1759.99 0.342442 5.33602 0
M  V30 17675 H 1760.34 -0.822622 4.08091 0
M  V30 17676 H 1760.87 0.864575 3.88291 0
M  V30 17677 H 1757.61 3.25755 5.68827 0
M  V30 17678 H 1757.13 1.54827 5.79473 0
M  V30 17679 H 1758.81 2.02964 6.14341 0
M  V30 17680 N 1758.94 -1.47929 0.54358 0
M  V30 17681 C 1759.9 -2.28316 -0.201107 0
M  V30 17682 C 1760.9 -1.36165 -0.855313 0
M  V30 17683 O 1762.09 -1.58928 -0.71327 0
M  V30 17684 C 1759.22 -3.1545 -1.29245 0
M  V30 17685 H 1760.42 -2.9562 0.504848 0
M  V30 17686 H 1757.97 -1.53394 0.300011 0
M  V30 17687 H 1758.71 -2.52807 -2.03124 0
M  V30 17688 H 1758.49 -3.83251 -0.82832 0
M  V30 17689 H 1759.98 -3.76053 -1.81587 0
M  V30 17690 N 1760.42 -0.27936 -1.55104 0
M  V30 17691 C 1761.33 0.616249 -2.26361 0
M  V30 17692 C 1762.34 1.16656 -1.29102 0
M  V30 17693 O 1763.52 1.19596 -1.62046 0
M  V30 17694 C 1760.58 1.78191 -2.97403 0
M  V30 17695 C 1759.65 1.26785 -4.10151 0
M  V30 17696 C 1758.88 2.37795 -4.77796 0
M  V30 17697 O 1759.1 3.57242 -4.44673 0
M  V30 17698 O 1758.04 2.05711 -5.65656 0
M  V30 17699 H 1761.86 0.0388715 -3.03675 0
M  V30 17700 H 1759.45 -0.0466058 -1.49327 0
M  V30 17701 H 1761.33 2.4615 -3.42036 0
M  V30 17702 H 1760 2.3463 -2.23003 0
M  V30 17703 H 1758.91 0.554608 -3.69966 0
M  V30 17704 H 1760.24 0.749157 -4.86465 0
M  V30 17705 N 1761.9 1.57599 -0.0067085 0
M  V30 17706 C 1762.83 2.11878 0.981331 0
M  V30 17707 C 1763.81 1.02949 1.35408 0
M  V30 17708 O 1764.99 1.30667 1.43665 0
M  V30 17709 C 1762.12 2.62757 2.27104 0
M  V30 17710 C 1761.08 3.76272 2.0397 0
M  V30 17711 C 1760.4 4.13491 3.39012 0
M  V30 17712 C 1761.7 5.03274 1.39688 0
M  V30 17713 H 1763.4 2.94683 0.529366 0
M  V30 17714 H 1760.94 1.41757 0.253187 0
M  V30 17715 H 1762.89 2.99359 2.96585 0
M  V30 17716 H 1761.62 1.77082 2.74426 0
M  V30 17717 H 1760.28 3.40074 1.36913 0
M  V30 17718 H 1759.93 3.24831 3.8405 0
M  V30 17719 H 1759.63 4.89972 3.24347 0
M  V30 17720 H 1761.15 4.52657 4.09797 0
M  V30 17721 H 1762.56 5.37604 1.99136 0
M  V30 17722 H 1760.96 5.84604 1.3549 0
M  V30 17723 H 1762.03 4.8351 0.366928 0
M  V30 17724 N 1763.37 -0.266145 1.55336 0
M  V30 17725 C 1764.6 -1.01489 1.80299 0
M  V30 17726 C 1765.02 -1.79679 0.579742 0
M  V30 17727 O 1764.37 -1.76831 -0.451319 0
M  V30 17728 C 1764.42 -1.96805 3.03233 0
M  V30 17729 O 1764.15 -1.21782 4.20834 0
M  V30 17730 C 1765.65 -2.83436 3.40851 0
M  V30 17731 H 1762.87 -0.299504 0.600449 0
M  V30 17732 H 1765.41 -0.294854 2.02363 0
M  V30 17733 H 1763.57 -2.64262 2.83275 0
M  V30 17734 H 1763.98 -1.86086 4.9038 0
M  V30 17735 H 1765.45 -3.461 4.30022 0
M  V30 17736 H 1765.93 -3.53559 2.60562 0
M  V30 17737 H 1766.54 -2.2146 3.63092 0
M  V30 17738 N 1764.85 -1.48386 -0.530967 0
M  V30 17739 C 1765.8 -1.63279 -1.65658 0
M  V30 17740 C 1766.79 -0.499261 -1.61876 0
M  V30 17741 O 1768 -0.677951 -1.66745 0
M  V30 17742 H 1764.37 -0.514332 -0.548605 0
M  V30 17743 H 1766.35 -2.57818 -1.50241 0
M  V30 17744 C 1765.09 -1.68878 -3.03933 0
M  V30 17745 H 1764.42 -2.55462 -3.07537 0
M  V30 17746 H 1765.86 -1.83343 -3.82311 0
M  V30 17747 C 1764.32 -0.427267 -3.3418 0
M  V30 17748 O 1764.85 0.460276 -3.99054 0
M  V30 17749 N 1763.05 -0.299268 -2.89055 0
M  V30 17750 H 1762.6 -1.02248 -2.36438 0
M  V30 17751 H 1762.56 0.543787 -3.09662 0
M  V30 17752 N 1766.33 0.779763 -1.36958 0
M  V30 17753 C 1767.75 1.07919 -1.17582 0
M  V30 17754 C 1767.95 2.01499 -0.00649229 0
M  V30 17755 O 1767 2.43832 0.655905 0
M  V30 17756 C 1768.31 1.68439 -2.49096 0
M  V30 17757 C 1769.86 1.80735 -2.55546 0
M  V30 17758 C 1770.34 2.44669 -3.87171 0
M  V30 17759 N 1771.83 2.52127 -3.88569 0
M  V30 17760 C 1772.56 3.02429 -4.87159 0
M  V30 17761 N 1772.06 3.52964 -5.96144 0
M  V30 17762 N 1773.85 3.0123 -4.7457 0
M  V30 17763 H 1766 0.158249 -2.1181 0
M  V30 17764 H 1768.27 0.132826 -0.938649 0
M  V30 17765 H 1767.97 1.07147 -3.34981 0
M  V30 17766 H 1767.85 2.67832 -2.65604 0
M  V30 17767 H 1770.23 2.41162 -1.70073 0
M  V30 17768 H 1770.31 0.801199 -2.42929 0
M  V30 17769 H 1769.96 1.84883 -4.73055 0
M  V30 17770 H 1769.89 3.45874 -3.97088 0
M  V30 17771 H 1772.38 2.16355 -3.09837 0
M  V30 17772 H 1772.69 3.89725 -6.67334 0
M  V30 17773 H 1771.04 3.5109 -5.998 0
M  V30 17774 H 1774.23 2.61045 -3.88553 0
M  V30 17775 H 1774.4 3.40122 -5.51562 0
M  V30 17776 N 1767.81 1.21396 1.00503 0
M  V30 17777 C 1769.04 1.05714 1.77855 0
M  V30 17778 C 1769.45 -0.393058 1.84663 0
M  V30 17779 O 1768.81 -1.2727 1.308 0
M  V30 17780 C 1768.86 1.64774 3.21763 0
M  V30 17781 O 1768.58 3.0412 3.15346 0
M  V30 17782 C 1770.08 1.54202 4.15616 0
M  V30 17783 H 1767.3 0.371241 0.558947 0
M  V30 17784 H 1769.84 1.60733 1.26433 0
M  V30 17785 H 1768 1.13847 3.70294 0
M  V30 17786 H 1768.41 3.32356 4.05758 0
M  V30 17787 H 1769.89 2.00269 5.14389 0
M  V30 17788 H 1770.36 0.496455 4.36385 0
M  V30 17789 H 1770.97 2.04377 3.72975 0
M  V30 17790 N 1769.29 -1.19996 1.0217 0
M  V30 17791 C 1770.24 -2.20837 0.567029 0
M  V30 17792 C 1771.22 -1.56339 -0.380377 0
M  V30 17793 O 1772.41 -1.75838 -0.202513 0
M  V30 17794 C 1769.54 -3.43187 -0.0880995 0
M  V30 17795 C 1768.63 -4.14842 0.881318 0
M  V30 17796 N 1769.02 -4.62798 2.04088 0
M  V30 17797 C 1767.32 -4.40421 0.703226 0
M  V30 17798 C 1768.02 -5.17744 2.65172 0
M  V30 17799 N 1766.99 -5.08112 1.93192 0
M  V30 17800 H 1770.79 -2.55586 1.45097 0
M  V30 17801 H 1768.31 -1.3599 0.887727 0
M  V30 17802 H 1770.31 -4.14662 -0.431407 0
M  V30 17803 H 1768.97 -3.09941 -0.967819 0
M  V30 17804 H 1769.98 -4.57851 2.42061 0
M  V30 17805 H 1766.65 -4.17304 -0.128008 0
M  V30 17806 H 1768.04 -5.65189 3.63333 0
M  V30 17807 N 1770.76 -0.798611 -1.35867 0
M  V30 17808 C 1772.18 -0.481385 -1.52167 0
M  V30 17809 C 1772.38 0.99878 -1.75005 0
M  V30 17810 O 1771.44 1.78404 -1.78685 0
M  V30 17811 C 1772.75 -1.31982 -2.70188 0
M  V30 17812 C 1774.3 -1.31445 -2.84062 0
M  V30 17813 C 1774.77 -2.13682 -4.05098 0
M  V30 17814 N 1776.26 -2.11176 -4.12261 0
M  V30 17815 C 1777 -2.71571 -5.05012 0
M  V30 17816 N 1776.49 -3.40861 -6.03147 0
M  V30 17817 N 1778.29 -2.61255 -4.97697 0
M  V30 17818 H 1770.44 -1.75731 -1.19299 0
M  V30 17819 H 1772.7 -0.747512 -0.583034 0
M  V30 17820 H 1772.41 -2.36989 -2.59864 0
M  V30 17821 H 1772.28 -0.967488 -3.64581 0
M  V30 17822 H 1774.67 -0.272258 -2.93841 0
M  V30 17823 H 1774.75 -1.7066 -1.90549 0
M  V30 17824 H 1774.39 -3.17937 -3.96079 0
M  V30 17825 H 1774.32 -1.71832 -4.97776 0
M  V30 17826 H 1776.81 -1.60754 -3.42004 0
M  V30 17827 H 1777.13 -3.84251 -6.705 0
M  V30 17828 H 1775.47 -3.44964 -6.03345 0
M  V30 17829 H 1778.66 -2.06717 -4.19983 0
M  V30 17830 H 1778.84 -3.08613 -5.69791 0
M  V30 17831 N 1772.24 1.47639 -0.551417 0
M  V30 17832 C 1773.49 2.02484 -0.0252051 0
M  V30 17833 C 1773.82 1.42638 1.3223 0
M  V30 17834 O 1773.07 0.569434 1.87232 0
M  V30 17835 C 1773.37 3.57187 0.123467 0
M  V30 17836 C 1773.04 4.35925 -1.15241 0
M  V30 17837 C 1771.7 4.57157 -1.50203 0
M  V30 17838 C 1774.05 4.81377 -1.99815 0
M  V30 17839 C 1771.38 5.2109 -2.69597 0
M  V30 17840 C 1773.73 5.46626 -3.18406 0
M  V30 17841 C 1772.39 5.66093 -3.53688 0
M  V30 17842 H 1771.66 0.740943 -0.0092232 0
M  V30 17843 H 1774.31 1.77378 -0.721764 0
M  V30 17844 H 1772.62 3.81253 0.902951 0
M  V30 17845 H 1774.31 3.97267 0.545876 0
M  V30 17846 H 1770.9 4.19674 -0.870169 0
M  V30 17847 H 1775.09 4.64756 -1.74112 0
M  V30 17848 H 1770.34 5.34356 -2.97108 0
M  V30 17849 H 1774.52 5.8081 -3.84231 0
M  V30 17850 H 1772.14 6.15404 -4.46298 0
M  V30 17851 N 1773.72 0.287581 1.54954 0
M  V30 17852 C 1774.65 -0.587855 2.25979 0
M  V30 17853 C 1775.63 -1.14884 1.25442 0
M  V30 17854 O 1776.82 -1.18067 1.54188 0
M  V30 17855 C 1773.95 -1.76618 2.99037 0
M  V30 17856 C 1772.9 -1.33617 4.06609 0
M  V30 17857 C 1772.23 -2.59859 4.67309 0
M  V30 17858 C 1773.53 -0.477219 5.20115 0
M  V30 17859 H 1775.22 0.00450183 2.994 0
M  V30 17860 H 1772.77 0.00360521 1.44 0
M  V30 17861 H 1774.72 -2.38461 3.4744 0
M  V30 17862 H 1773.44 -2.38457 2.23172 0
M  V30 17863 H 1772.1 -0.74088 3.59036 0
M  V30 17864 H 1771.75 -3.19983 3.88098 0
M  V30 17865 H 1771.45 -2.31793 5.3995 0
M  V30 17866 H 1772.97 -3.22528 5.18467 0
M  V30 17867 H 1774.39 -1.00096 5.64494 0
M  V30 17868 H 1772.79 -0.290913 5.99394 0
M  V30 17869 H 1773.86 0.500993 4.82305 0
M  V30 17870 N 1775.2 -1.57593 0.0150662 0
M  V30 17871 C 1776.11 -2.12807 -0.987437 0
M  V30 17872 C 1777.12 -1.07691 -1.3667 0
M  V30 17873 O 1778.3 -1.39674 -1.45097 0
M  V30 17874 C 1775.37 -2.63276 -2.2558 0
M  V30 17875 C 1774.43 -3.83053 -1.93827 0
M  V30 17876 C 1773.66 -4.31106 -3.14616 0
M  V30 17877 O 1773.88 -3.78405 -4.26809 0
M  V30 17878 O 1772.82 -5.23104 -2.97734 0
M  V30 17879 H 1776.64 -2.98715 -0.548015 0
M  V30 17880 H 1774.23 -1.47991 -0.20469 0
M  V30 17881 H 1776.11 -2.95869 -3.00066 0
M  V30 17882 H 1774.78 -1.80459 -2.68731 0
M  V30 17883 H 1773.69 -3.55409 -1.1677 0
M  V30 17884 H 1775.02 -4.6699 -1.55502 0
M  V30 17885 N 1776.68 0.257904 -1.55475 0
M  V30 17886 C 1777.62 1.31912 -1.89388 0
M  V30 17887 C 1778.59 1.48358 -0.746927 0
M  V30 17888 O 1779.78 1.62521 -0.999584 0
M  V30 17889 C 1776.92 2.67162 -2.18446 0
M  V30 17890 C 1776.03 2.58814 -3.45889 0
M  V30 17891 C 1775.17 3.86343 -3.64571 0
M  V30 17892 C 1774.21 3.72567 -4.85654 0
M  V30 17893 N 1773.34 4.91964 -5.00915 0
M  V30 17894 H 1778.18 1.02291 -2.79894 0
M  V30 17895 H 1775.72 0.493864 -1.38562 0
M  V30 17896 H 1777.68 3.45874 -2.33296 0
M  V30 17897 H 1776.31 2.94954 -1.31157 0
M  V30 17898 H 1775.36 1.7173 -3.39431 0
M  V30 17899 H 1776.67 2.4454 -4.34743 0
M  V30 17900 H 1775.83 4.73498 -3.79321 0
M  V30 17901 H 1774.56 4.03501 -2.7393 0
M  V30 17902 H 1773.57 2.83795 -4.70893 0
M  V30 17903 H 1774.79 3.56914 -5.77745 0
M  V30 17904 H 1772.74 5.09505 -4.13208 0
M  V30 17905 H 1772.66 4.80279 -5.83839 0
M  V30 17906 H 1773.93 5.80649 -5.20064 0
M  V30 17907 N 1778.15 1.48666 0.52309 0
M  V30 17908 C 1779.12 1.63211 1.60919 0
M  V30 17909 C 1780.12 0.505012 1.52664 0
M  V30 17910 O 1781.31 0.770967 1.56211 0
M  V30 17911 C 1778.44 1.60878 3.00551 0
M  V30 17912 H 1779.63 2.60061 1.4936 0
M  V30 17913 H 1777.19 1.37366 0.745674 0
M  V30 17914 H 1777.92 0.655306 3.1761 0
M  V30 17915 H 1777.71 2.4271 3.07952 0
M  V30 17916 H 1779.2 1.74263 3.79502 0
M  V30 17917 N 1779.63 -0.772489 1.37369 0
M  V30 17918 C 1780.58 -1.88575 1.33073 0
M  V30 17919 C 1781.55 -1.64935 0.19641 0
M  V30 17920 O 1782.73 -1.86862 0.385651 0
M  V30 17921 C 1779.87 -3.25628 1.14281 0
M  V30 17922 C 1778.99 -3.61227 2.36936 0
M  V30 17923 C 1778.12 -4.87486 2.11023 0
M  V30 17924 C 1777.16 -5.15814 3.29548 0
M  V30 17925 N 1776.3 -6.33261 3.03191 0
M  V30 17926 H 1781.14 -1.91583 2.28255 0
M  V30 17927 H 1778.68 -0.936654 1.13425 0
M  V30 17928 H 1780.63 -4.04688 1.01407 0
M  V30 17929 H 1779.26 -3.21998 0.227467 0
M  V30 17930 H 1778.32 -2.77158 2.60552 0
M  V30 17931 H 1779.63 -3.781 3.25333 0
M  V30 17932 H 1778.78 -5.74449 1.95176 0
M  V30 17933 H 1777.52 -4.72716 1.19962 0
M  V30 17934 H 1776.53 -4.27328 3.45935 0
M  V30 17935 H 1777.75 -5.32493 4.21459 0
M  V30 17936 H 1775.7 -6.19851 2.14759 0
M  V30 17937 H 1775.61 -6.50546 3.85131 0
M  V30 17938 H 1776.88 -7.23162 2.9096 0
M  V30 17939 N 1781.11 -1.21927 -0.998575 0
M  V30 17940 C 1782.07 -0.985744 -2.0692 0
M  V30 17941 C 1783.07 0.0456907 -1.60735 0
M  V30 17942 O 1784.26 -0.192241 -1.73136 0
M  V30 17943 C 1781.4 -0.48779 -3.37392 0
M  V30 17944 H 1782.59 -1.93563 -2.2907 0
M  V30 17945 H 1780.14 -1.03716 -1.1693 0
M  V30 17946 H 1780.88 0.466723 -3.20924 0
M  V30 17947 H 1780.66 -1.23186 -3.72247 0
M  V30 17948 H 1782.15 -0.344469 -4.16177 0
M  V30 17949 N 1782.59 1.19452 -1.02805 0
M  V30 17950 C 1783.52 2.24875 -0.628752 0
M  V30 17951 C 1784.5 1.66207 0.361844 0
M  V30 17952 O 1785.68 1.92652 0.244743 0
M  V30 17953 C 1782.81 3.47293 0.0220954 0
M  V30 17954 C 1781.77 4.1863 -0.890693 0
M  V30 17955 C 1781.09 5.34597 -0.104997 0
M  V30 17956 C 1782.39 4.73518 -2.20405 0
M  V30 17957 H 1784.09 2.5853 -1.51005 0
M  V30 17958 H 1781.63 1.24271 -0.727518 0
M  V30 17959 H 1783.59 4.20235 0.313073 0
M  V30 17960 H 1782.31 3.12835 0.938182 0
M  V30 17961 H 1780.97 3.47568 -1.16585 0
M  V30 17962 H 1780.62 4.96385 0.813098 0
M  V30 17963 H 1780.32 5.83258 -0.712983 0
M  V30 17964 H 1781.84 6.10337 0.179259 0
M  V30 17965 H 1783.26 5.3822 -1.97465 0
M  V30 17966 H 1781.65 5.32663 -2.76388 0
M  V30 17967 H 1782.72 3.9163 -2.85926 0
M  V30 17968 N 1784.07 0.805805 1.35442 0
M  V30 17969 C 1785.01 0.213632 2.29809 0
M  V30 17970 C 1785.98 -0.651878 1.52774 0
M  V30 17971 O 1787.17 -0.597124 1.81216 0
M  V30 17972 C 1784.31 -0.632444 3.39255 0
M  V30 17973 C 1783.42 0.253414 4.31256 0
M  V30 17974 C 1782.56 -0.600593 5.27794 0
M  V30 17975 C 1781.6 0.285712 6.11433 0
M  V30 17976 N 1780.73 -0.528222 7.0011 0
M  V30 17977 H 1785.57 1.02378 2.79862 0
M  V30 17978 H 1783.11 0.516397 1.37738 0
M  V30 17979 H 1785.07 -1.13814 4.01376 0
M  V30 17980 H 1783.7 -1.40786 2.90481 0
M  V30 17981 H 1782.75 0.877202 3.70148 0
M  V30 17982 H 1784.06 0.935631 4.89946 0
M  V30 17983 H 1783.22 -1.17145 5.95283 0
M  V30 17984 H 1781.95 -1.31638 4.69598 0
M  V30 17985 H 1780.96 0.868843 5.42891 0
M  V30 17986 H 1782.18 0.999349 6.71707 0
M  V30 17987 H 1780.13 -1.228 6.44404 0
M  V30 17988 H 1780.05 0.0959658 7.55939 0
M  V30 17989 H 1781.32 -1.08238 7.71949 0
M  V30 17990 N 1785.54 -1.47344 0.559239 0
M  V30 17991 C 1786.79 -2.01672 0.0337843 0
M  V30 17992 C 1787.11 -1.43883 -1.32503 0
M  V30 17993 O 1788.31 -1.89885 -1.94051 0
M  V30 17994 C 1786.77 -3.59899 0.00989925 0
M  V30 17995 C 1786.38 -4.2668 1.3656 0
M  V30 17996 C 1788.12 -4.21969 -0.462842 0
M  V30 17997 C 1786.03 -5.76919 1.30071 0
M  V30 17998 H 1784.96 -0.753948 0.00885972 0
M  V30 17999 H 1787.61 -1.69317 0.707394 0
M  V30 18000 H 1785.99 -3.89225 -0.729399 0
M  V30 18001 H 1787.16 -4.08993 2.12277 0
M  V30 18002 H 1785.48 -3.76605 1.77644 0
M  V30 18003 H 1788.08 -5.32069 -0.529816 0
M  V30 18004 H 1788.42 -3.89283 -1.47528 0
M  V30 18005 H 1788.95 -3.97182 0.221661 0
M  V30 18006 H 1785.69 -6.14227 2.28921 0
M  V30 18007 H 1785.21 -5.96937 0.585375 0
M  V30 18008 H 1786.89 -6.39168 1.00364 0
M  V30 18009 N 1787.02 -0.295795 -1.54799 0
M  V30 18010 C 1788.25 0.32058 -2.04907 0
M  V30 18011 C 1788.67 1.47132 -1.17191 0
M  V30 18012 O 1788.03 1.80455 -0.174869 0
M  V30 18013 C 1788.08 0.759439 -3.52512 0
M  V30 18014 O 1787.18 1.86474 -3.67833 0
M  V30 18015 H 1786.52 0.0631128 -0.660994 0
M  V30 18016 H 1789.05 -0.436123 -1.99898 0
M  V30 18017 H 1789.06 1.04965 -3.94267 0
M  V30 18018 H 1787.74 -0.0823715 -4.15818 0
M  V30 18019 H 1786.32 1.57547 -3.37984 0
M  V30 18020 N 1788.5 1.57583 -0.0234236 0
M  V30 18021 C 1789.75 1.91186 0.655152 0
M  V30 18022 C 1790.07 0.89988 1.72995 0
M  V30 18023 O 1789.34 -0.0594278 1.9581 0
M  V30 18024 H 1787.92 0.705686 0.244982 0
M  V30 18025 H 1790.58 1.94775 -0.0698824 0
M  V30 18026 H 1789.68 2.91636 1.11152 0
M  V30 18027 N 1789.98 -0.249655 1.5561 0
M  V30 18028 C 1791.23 -0.979529 1.77576 0
M  V30 18029 C 1791.56 -1.85078 0.588198 0
M  V30 18030 O 1790.83 -1.90052 -0.4136 0
M  V30 18031 C 1791.12 -1.84238 3.094 0
M  V30 18032 C 1790.97 -0.9995 4.38554 0
M  V30 18033 C 1792.29 -2.82536 3.37433 0
M  V30 18034 H 1789.41 -0.354681 0.646042 0
M  V30 18035 H 1792.05 -0.250224 1.88345 0
M  V30 18036 H 1790.2 -2.46419 3.0035 0
M  V30 18037 H 1791.87 -0.396599 4.59592 0
M  V30 18038 H 1790.11 -0.30376 4.32735 0
M  V30 18039 H 1790.79 -1.63697 5.27169 0
M  V30 18040 H 1793.26 -2.30491 3.46429 0
M  V30 18041 H 1792.14 -3.40033 4.30893 0
M  V30 18042 H 1792.4 -3.58859 2.58211 0
M  V30 18043 N 1791.46 -1.48941 -0.515198 0
M  V30 18044 C 1792.71 -1.5696 -1.26674 0
M  V30 18045 C 1793.02 -0.255062 -1.9393 0
M  V30 18046 O 1794.23 -0.213645 -2.70658 0
M  V30 18047 C 1792.68 -2.76877 -2.29928 0
M  V30 18048 C 1792.29 -4.15033 -1.68676 0
M  V30 18049 C 1794.03 -2.94218 -3.06 0
M  V30 18050 C 1791.94 -5.26191 -2.69957 0
M  V30 18051 H 1790.87 -0.584377 -0.476465 0
M  V30 18052 H 1793.52 -1.75303 -0.542322 0
M  V30 18053 H 1791.9 -2.51999 -3.05471 0
M  V30 18054 H 1793.08 -4.49991 -0.992215 0
M  V30 18055 H 1791.39 -4.02932 -1.05045 0
M  V30 18056 H 1793.99 -3.74433 -3.81712 0
M  V30 18057 H 1794.33 -2.04235 -3.62759 0
M  V30 18058 H 1794.87 -3.19068 -2.37572 0
M  V30 18059 H 1791.6 -6.18189 -2.17998 0
M  V30 18060 H 1791.12 -4.95705 -3.37694 0
M  V30 18061 H 1792.8 -5.54929 -3.32659 0
M  V30 18062 N 1792.94 0.765193 -1.37777 0
M  V30 18063 C 1794.18 1.52096 -1.33084 0
M  V30 18064 C 1794.5 1.94827 0.08221 0
M  V30 18065 O 1793.77 1.66787 1.02757 0
M  V30 18066 H 1792.35 0.564139 -0.489649 0
M  V30 18067 H 1795.02 0.910308 -1.72335 0
M  V30 18068 H 1794.11 2.4173 -1.97416 0
M  V30 18069 N 1794.41 1.22455 0.992094 0
M  V30 18070 C 1795.82 1.04629 1.54627 0
M  V30 18071 C 1796.18 -0.390011 1.92285 0
M  V30 18072 O 1795.3 -1.27511 1.74842 0
M  V30 18073 C 1795.9 1.89306 2.80978 0
M  V30 18074 C 1794.45 1.75775 3.32836 0
M  V30 18075 C 1793.6 1.85724 2.05917 0
M  V30 18076 H 1796.55 1.36288 0.813089 0
M  V30 18077 H 1796.57 1.41095 3.53373 0
M  V30 18078 H 1796.09 2.93836 2.53539 0
M  V30 18079 H 1794.19 0.739821 3.65181 0
M  V30 18080 H 1794.3 2.58491 4.03385 0
M  V30 18081 H 1792.66 1.29173 2.19514 0
M  V30 18082 H 1793.45 2.91787 1.80874 0
M  V30 18083 N 1795.89 -1.18905 1.03437 0
M  V30 18084 C 1797.12 -1.92398 0.752759 0
M  V30 18085 C 1797.53 -1.76048 -0.693091 0
M  V30 18086 O 1796.87 -1.08335 -1.48355 0
M  V30 18087 C 1796.93 -3.44392 1.03124 0
M  V30 18088 C 1796.6 -3.84516 2.46974 0
M  V30 18089 C 1797.6 -3.8882 3.4513 0
M  V30 18090 C 1795.28 -4.15996 2.81519 0
M  V30 18091 C 1797.27 -4.24043 4.75885 0
M  V30 18092 C 1794.96 -4.5089 4.12482 0
M  V30 18093 C 1795.96 -4.54889 5.09475 0
M  V30 18094 O 1795.65 -4.88973 6.38091 0
M  V30 18095 H 1795.38 -0.617814 0.274375 0
M  V30 18096 H 1797.93 -1.51828 1.38338 0
M  V30 18097 H 1796.16 -3.85172 0.343482 0
M  V30 18098 H 1797.85 -3.99127 0.738423 0
M  V30 18099 H 1798.62 -3.64645 3.1978 0
M  V30 18100 H 1794.5 -4.12064 2.06699 0
M  V30 18101 H 1798.04 -4.27079 5.51588 0
M  V30 18102 H 1793.94 -4.74525 4.37603 0
M  V30 18103 H 1794.71 -5.069 6.42647 0
M  V30 18104 N 1797.37 -0.812977 -1.35013 0
M  V30 18105 C 1798.79 -0.497497 -1.51648 0
M  V30 18106 C 1798.99 0.980162 -1.76054 0
M  V30 18107 O 1798.04 1.76498 -1.80567 0
M  V30 18108 C 1799.35 -1.3484 -2.68772 0
M  V30 18109 C 1800.9 -1.3445 -2.82652 0
M  V30 18110 C 1801.38 -2.17966 -4.02808 0
M  V30 18111 N 1802.87 -2.15537 -4.09998 0
M  V30 18112 C 1803.6 -2.76912 -5.02103 0
M  V30 18113 N 1803.1 -3.47239 -5.99497 0
M  V30 18114 N 1804.89 -2.66519 -4.94898 0
M  V30 18115 H 1797.04 -1.76987 -1.17429 0
M  V30 18116 H 1799.31 -0.753654 -0.575073 0
M  V30 18117 H 1799.01 -2.39732 -2.57336 0
M  V30 18118 H 1798.89 -1.0061 -3.63535 0
M  V30 18119 H 1801.27 -0.303409 -2.93536 0
M  V30 18120 H 1801.35 -1.72671 -1.88728 0
M  V30 18121 H 1801 -3.2212 -3.92685 0
M  V30 18122 H 1800.93 -1.77102 -4.95926 0
M  V30 18123 H 1803.42 -1.64373 -3.40279 0
M  V30 18124 H 1803.73 -3.91341 -6.66387 0
M  V30 18125 H 1802.08 -3.51344 -5.99652 0
M  V30 18126 H 1805.27 -2.1116 -4.17767 0
M  V30 18127 H 1805.44 -3.14639 -5.66486 0
M  V30 18128 N 1798.85 1.47045 -0.567045 0
M  V30 18129 C 1799.76 2.33924 0.177998 0
M  V30 18130 C 1800.77 1.48797 0.901967 0
M  V30 18131 O 1801.95 1.81704 0.868662 0
M  V30 18132 C 1799.01 3.25687 1.18865 0
M  V30 18133 C 1798.08 4.26708 0.471049 0
M  V30 18134 C 1797.31 5.14087 1.43355 0
M  V30 18135 O 1797.53 5.041 2.66907 0
M  V30 18136 O 1796.47 5.94313 0.952674 0
M  V30 18137 H 1800.29 2.98952 -0.534907 0
M  V30 18138 H 1797.88 1.45765 -0.327571 0
M  V30 18139 H 1799.76 3.82342 1.7718 0
M  V30 18140 H 1798.43 2.63274 1.8833 0
M  V30 18141 H 1797.34 3.73785 -0.153539 0
M  V30 18142 H 1798.67 4.91862 -0.182337 0
M  V30 18143 N 1800.33 0.304 1.5464 0
M  V30 18144 C 1801.55 -0.306916 2.04611 0
M  V30 18145 C 1801.97 -1.4729 1.18114 0
M  V30 18146 O 1801.33 -1.81317 0.20743 0
M  V30 18147 C 1801.38 -0.760263 3.53415 0
M  V30 18148 O 1801.1 0.359321 4.36624 0
M  V30 18149 C 1802.6 -1.43602 4.19396 0
M  V30 18150 H 1799.82 -0.066247 0.667722 0
M  V30 18151 H 1802.36 0.444504 1.99611 0
M  V30 18152 H 1800.52 -1.4617 3.58766 0
M  V30 18153 H 1800.93 0.00582275 5.245 0
M  V30 18154 H 1802.41 -1.70436 5.25029 0
M  V30 18155 H 1802.88 -2.37705 3.69314 0
M  V30 18156 H 1803.49 -0.777683 4.18129 0
M  V30 18157 N 1801.8 -1.57568 0.0317802 0
M  V30 18158 C 1803.05 -1.92194 -0.647238 0
M  V30 18159 C 1803.38 -0.908747 -1.71626 0
M  V30 18160 O 1802.66 0.0681334 -1.94381 0
M  V30 18161 C 1802.94 -3.3729 -1.26124 0
M  V30 18162 C 1802.79 -4.49348 -0.201594 0
M  V30 18163 C 1804.11 -3.824 -2.17849 0
M  V30 18164 H 1801.23 -0.698927 -0.233817 0
M  V30 18165 H 1803.87 -1.89789 0.0895831 0
M  V30 18166 H 1802.02 -3.39471 -1.88922 0
M  V30 18167 H 1803.7 -4.59299 0.429155 0
M  V30 18168 H 1801.94 -4.31218 0.472624 0
M  V30 18169 H 1802.61 -5.47908 -0.670859 0
M  V30 18170 H 1805.09 -3.81972 -1.65034 0
M  V30 18171 H 1803.96 -4.84614 -2.57761 0
M  V30 18172 H 1804.22 -3.18054 -3.07073 0
M  V30 18173 N 1803.28 0.241399 -1.5574 0
M  V30 18174 C 1804.56 0.991821 -1.68589 0
M  V30 18175 C 1804.94 2.03167 -0.573274 0
M  V30 18176 O 1804.29 2.2456 0.422521 0
M  V30 18177 C 1804.5 1.6202 -3.09112 0
M  V30 18178 C 1805.85 2.11998 -3.67889 0
M  V30 18179 O 1806.87 1.71951 -3.11948 0
M  V30 18180 O 1805.73 2.85545 -4.65968 0
M  V30 18181 H 1802.82 0.462017 -0.685907 0
M  V30 18182 H 1805.37 0.23475 -1.68068 0
M  V30 18183 H 1804.14 0.86835 -3.81543 0
M  V30 18184 H 1803.76 2.44333 -3.13667 0
M  V30 18185 N 1804.76 1.49212 0.507292 0
M  V30 18186 C 1805.99 1.62343 1.29072 0
M  V30 18187 C 1806.41 0.292387 1.85814 0
M  V30 18188 O 1805.77 -0.739145 1.65549 0
M  V30 18189 C 1805.82 2.69017 2.40129 0
M  V30 18190 O 1804.92 2.27753 3.43806 0
M  V30 18191 H 1804.26 0.543591 0.38132 0
M  V30 18192 H 1806.79 1.95358 0.607997 0
M  V30 18193 H 1806.8 2.90992 2.85985 0
M  V30 18194 H 1805.48 3.65638 1.98195 0
M  V30 18195 H 1804.05 2.16084 3.03912 0
M  V30 18196 N 1806.24 -0.757876 1.38181 0
M  V30 18197 C 1807.48 -1.51912 1.34352 0
M  V30 18198 C 1807.82 -1.94082 -0.0677003 0
M  V30 18199 O 1807.09 -1.65114 -1.02799 0
M  V30 18200 C 1807.38 -2.77466 2.29531 0
M  V30 18201 C 1807.23 -2.41462 3.79495 0
M  V30 18202 C 1808.55 -3.79469 2.22915 0
M  V30 18203 H 1805.67 -0.551091 0.489355 0
M  V30 18204 H 1808.31 -0.868376 1.68995 0
M  V30 18205 H 1806.46 -3.32994 2.00119 0
M  V30 18206 H 1808.13 -1.91742 4.19562 0
M  V30 18207 H 1806.37 -1.73976 3.97385 0
M  V30 18208 H 1807.04 -3.31272 4.41546 0
M  V30 18209 H 1809.52 -3.33471 2.48871 0
M  V30 18210 H 1808.4 -4.6502 2.91629 0
M  V30 18211 H 1808.66 -4.24744 1.22658 0
M  V30 18212 N 1807.72 -1.22979 -0.985586 0
M  V30 18213 C 1808.63 -1.02294 -2.11124 0
M  V30 18214 C 1809.64 0.030991 -1.73972 0
M  V30 18215 O 1810.82 -0.163333 -2.00737 0
M  V30 18216 C 1807.88 -0.611102 -3.41272 0
M  V30 18217 C 1806.94 -1.73949 -3.9248 0
M  V30 18218 C 1806.18 -1.34721 -5.16417 0
M  V30 18219 O 1806.4 -0.229171 -5.69939 0
M  V30 18220 O 1805.33 -2.16639 -5.61561 0
M  V30 18221 H 1809.16 -1.9662 -2.31461 0
M  V30 18222 H 1806.75 -1.01639 -1.09499 0
M  V30 18223 H 1808.63 -0.392127 -4.19572 0
M  V30 18224 H 1807.3 0.303224 -3.22277 0
M  V30 18225 H 1806.21 -2.01305 -3.1532 0
M  V30 18226 H 1807.54 -2.63194 -4.1592 0
M  V30 18227 N 1809.19 1.18355 -1.04066 0
M  V30 18228 C 1810.61 1.40349 -0.759898 0
M  V30 18229 C 1810.81 1.90709 0.650574 0
M  V30 18230 O 1809.87 2.09142 1.41477 0
M  V30 18231 C 1811.18 2.40426 -1.80599 0
M  V30 18232 C 1812.73 2.54153 -1.8269 0
M  V30 18233 C 1813.2 3.57494 -2.8629 0
M  V30 18234 N 1814.69 3.65001 -2.85181 0
M  V30 18235 C 1815.43 4.44688 -3.61995 0
M  V30 18236 N 1814.92 5.27984 -4.48559 0
M  V30 18237 N 1816.72 4.39451 -3.50484 0
M  V30 18238 H 1808.87 0.839924 -1.95087 0
M  V30 18239 H 1811.13 0.431492 -0.844108 0
M  V30 18240 H 1810.84 2.10471 -2.81771 0
M  V30 18241 H 1810.71 3.39773 -1.63812 0
M  V30 18242 H 1813.1 2.83424 -0.821889 0
M  V30 18243 H 1813.18 1.54919 -2.03553 0
M  V30 18244 H 1812.82 3.28963 -3.8697 0
M  V30 18245 H 1812.75 4.56405 -2.62682 0
M  V30 18246 H 1815.24 3.05522 -2.22407 0
M  V30 18247 H 1815.56 5.85939 -5.0388 0
M  V30 18248 H 1813.9 5.27404 -4.52626 0
M  V30 18249 H 1817.09 3.73426 -2.8226 0
M  V30 18250 H 1817.27 5.01313 -4.10596 0
M  V30 18251 N 1810.67 0.820125 1.3458 0
M  V30 18252 C 1811.62 0.237994 2.2957 0
M  V30 18253 C 1812.59 -0.635637 1.53456 0
M  V30 18254 O 1813.77 -0.57787 1.81839 0
M  V30 18255 C 1810.91 -0.596426 3.39907 0
M  V30 18256 C 1810.03 0.29914 4.30963 0
M  V30 18257 C 1809.16 -0.54458 5.28401 0
M  V30 18258 C 1808.2 0.350546 6.11095 0
M  V30 18259 N 1807.34 -0.453936 7.00631 0
M  V30 18260 H 1812.18 1.0534 2.7876 0
M  V30 18261 H 1809.72 0.530977 1.37183 0
M  V30 18262 H 1811.67 -1.0955 4.0256 0
M  V30 18263 H 1810.3 -1.37697 2.91958 0
M  V30 18264 H 1809.36 0.916412 3.69196 0
M  V30 18265 H 1810.67 0.987544 4.88926 0
M  V30 18266 H 1809.82 -1.10825 5.96492 0
M  V30 18267 H 1808.56 -1.2665 4.70968 0
M  V30 18268 H 1807.57 0.926375 5.41939 0
M  V30 18269 H 1808.79 1.07054 6.70609 0
M  V30 18270 H 1806.74 -1.15958 6.4567 0
M  V30 18271 H 1806.65 0.176138 7.55795 0
M  V30 18272 H 1807.92 -1.00044 7.73053 0
M  V30 18273 N 1812.15 -1.46743 0.574835 0
M  V30 18274 C 1813.4 -2.02718 0.0575005 0
M  V30 18275 C 1813.73 -1.4463 -1.29599 0
M  V30 18276 O 1813 -0.608422 -1.84739 0
M  V30 18277 C 1813.29 -3.60096 -0.016719 0
M  V30 18278 C 1813.14 -4.28584 1.36511 0
M  V30 18279 C 1814.46 -4.34149 -0.721324 0
M  V30 18280 H 1811.58 -0.73666 0.0223697 0
M  V30 18281 H 1814.22 -1.74975 0.74052 0
M  V30 18282 H 1812.37 -3.83864 -0.598396 0
M  V30 18283 H 1814.04 -4.16104 1.99135 0
M  V30 18284 H 1812.29 -3.88253 1.935 0
M  V30 18285 H 1812.96 -5.37293 1.26573 0
M  V30 18286 H 1815.43 -4.15479 -0.227256 0
M  V30 18287 H 1814.31 -5.43858 -0.742263 0
M  V30 18288 H 1814.57 -4.04637 -1.78106 0
M  V30 18289 N 1813.63 -0.312197 -1.54477 0
M  V30 18290 C 1814.85 0.298829 -2.05236 0
M  V30 18291 C 1815.28 1.45881 -1.18745 0
M  V30 18292 O 1814.64 1.80259 -0.193999 0
M  V30 18293 C 1814.68 0.722008 -3.53298 0
M  V30 18294 O 1813.79 1.82562 -3.6979 0
M  V30 18295 H 1813.13 0.0560985 -0.661626 0
M  V30 18296 H 1815.66 -0.4573 -1.99424 0
M  V30 18297 H 1815.67 1.00777 -3.95358 0
M  V30 18298 H 1814.34 -0.12647 -4.15708 0
M  V30 18299 H 1812.92 1.53954 -3.39636 0
M  V30 18300 N 1815.11 1.57549 -0.040136 0
M  V30 18301 C 1816.02 2.14351 0.953457 0
M  V30 18302 C 1817.03 1.09851 1.3494 0
M  V30 18303 O 1818.21 1.41965 1.42857 0
M  V30 18304 C 1815.27 2.66832 2.21363 0
M  V30 18305 C 1814.33 3.86088 1.87708 0
M  V30 18306 C 1813.57 4.36057 3.07718 0
M  V30 18307 O 1813.79 3.85147 4.20735 0
M  V30 18308 O 1812.72 5.27775 2.89374 0
M  V30 18309 H 1816.55 2.99549 0.500423 0
M  V30 18310 H 1814.14 1.48298 0.18112 0
M  V30 18311 H 1816.02 3.00605 2.95321 0
M  V30 18312 H 1814.69 1.84711 2.65826 0
M  V30 18313 H 1813.6 3.57222 1.11101 0
M  V30 18314 H 1814.93 4.69405 1.48053 0
M  V30 18315 N 1816.58 -0.233136 1.55866 0
M  V30 18316 C 1817.83 -0.957205 1.7754 0
M  V30 18317 C 1818.15 -1.85956 0.606601 0
M  V30 18318 O 1819.35 -2.62142 0.706687 0
M  V30 18319 C 1817.81 -1.75215 3.14369 0
M  V30 18320 C 1817.42 -0.896509 4.38938 0
M  V30 18321 C 1819.16 -2.46813 3.45374 0
M  V30 18322 C 1817.07 -1.68814 5.66794 0
M  V30 18323 H 1816 -0.361139 0.661887 0
M  V30 18324 H 1818.65 -0.211424 1.82278 0
M  V30 18325 H 1817.03 -2.54041 3.03775 0
M  V30 18326 H 1818.2 -0.149614 4.60557 0
M  V30 18327 H 1816.52 -0.293211 4.15366 0
M  V30 18328 H 1819.12 -3.0652 4.38121 0
M  V30 18329 H 1819.46 -3.19121 2.67334 0
M  V30 18330 H 1819.99 -1.74987 3.57245 0
M  V30 18331 H 1816.73 -1.00855 6.47695 0
M  V30 18332 H 1816.25 -2.40995 5.49255 0
M  V30 18333 H 1817.93 -2.25178 6.06551 0
M  V30 18334 N 1818.06 -1.49479 -0.499372 0
M  V30 18335 C 1819.01 -1.66268 -1.60073 0
M  V30 18336 C 1819.98 -0.504137 -1.58265 0
M  V30 18337 O 1821.17 -0.731358 -1.76227 0
M  V30 18338 C 1818.31 -1.73678 -2.98211 0
M  V30 18339 C 1817.42 -3.00848 -3.10023 0
M  V30 18340 C 1816.55 -2.99227 -4.38904 0
M  V30 18341 C 1815.59 -4.20969 -4.44355 0
M  V30 18342 N 1814.73 -4.17249 -5.64666 0
M  V30 18343 H 1819.57 -2.60308 -1.45065 0
M  V30 18344 H 1817.11 -1.29063 -0.705774 0
M  V30 18345 H 1819.06 -1.75956 -3.7828 0
M  V30 18346 H 1817.69 -0.831037 -3.11919 0
M  V30 18347 H 1816.75 -3.08175 -2.23008 0
M  V30 18348 H 1818.06 -3.90841 -3.09911 0
M  V30 18349 H 1817.21 -3.00076 -5.27294 0
M  V30 18350 H 1815.95 -2.07015 -4.41584 0
M  V30 18351 H 1814.96 -4.20362 -3.54366 0
M  V30 18352 H 1816.18 -5.14376 -4.4339 0
M  V30 18353 H 1814.13 -3.27875 -5.68185 0
M  V30 18354 H 1814.04 -5.00979 -5.66177 0
M  V30 18355 H 1815.31 -4.22203 -6.55259 0
M  V30 18356 N 1819.54 0.750537 -1.38581 0
M  V30 18357 C 1820.82 1.50051 -1.25475 0
M  V30 18358 C 1821.2 2.10618 0.142521 0
M  V30 18359 O 1820.55 1.97317 1.15231 0
M  V30 18360 C 1820.76 2.56443 -2.36724 0
M  V30 18361 C 1822.1 3.23261 -2.75296 0
M  V30 18362 O 1823.13 2.66749 -2.36058 0
M  V30 18363 O 1821.99 4.25481 -3.4297 0
M  V30 18364 H 1819.08 0.665581 -0.490847 0
M  V30 18365 H 1821.63 0.785688 -1.50416 0
M  V30 18366 H 1820.4 2.09958 -3.30202 0
M  V30 18367 H 1820.02 3.35503 -2.13363 0
M  V30 18368 N 1821.02 1.235 0.979051 0
M  V30 18369 C 1822.27 1.06197 1.71479 0
M  V30 18370 C 1822.58 -0.401066 1.91444 0
M  V30 18371 O 1823.79 -0.69406 2.62479 0
M  V30 18372 C 1822.24 1.85189 3.08598 0
M  V30 18373 C 1821.85 3.35831 2.96516 0
M  V30 18374 C 1823.6 1.76379 3.86122 0
M  V30 18375 C 1821.5 4.0721 4.28875 0
M  V30 18376 H 1820.43 0.393779 0.643004 0
M  V30 18377 H 1823.08 1.47479 1.09188 0
M  V30 18378 H 1821.47 1.36714 3.71652 0
M  V30 18379 H 1822.64 3.91803 2.42543 0
M  V30 18380 H 1820.95 3.45469 2.32466 0
M  V30 18381 H 1823.55 2.2702 4.84114 0
M  V30 18382 H 1823.89 0.726826 4.09906 0
M  V30 18383 H 1824.43 2.22473 3.29773 0
M  V30 18384 H 1821.17 5.11218 4.10288 0
M  V30 18385 H 1820.69 3.56025 4.82707 0
M  V30 18386 H 1822.37 4.13579 4.97555 0
M  V30 18387 N 1822.5 -1.17802 1.04693 0
M  V30 18388 C 1823.43 -2.23847 0.664448 0
M  V30 18389 C 1824.41 -1.66761 -0.335356 0
M  V30 18390 O 1825.59 -1.93017 -0.214062 0
M  V30 18391 C 1822.72 -3.47284 0.0331587 0
M  V30 18392 C 1821.68 -4.1716 0.95718 0
M  V30 18393 C 1821 -5.34362 0.190034 0
M  V30 18394 C 1822.3 -4.69951 2.2791 0
M  V30 18395 H 1824 -2.56095 1.55099 0
M  V30 18396 H 1821.54 -1.23097 0.747196 0
M  V30 18397 H 1823.5 -4.2068 -0.246178 0
M  V30 18398 H 1822.22 -3.14288 -0.888294 0
M  V30 18399 H 1820.88 -3.45669 1.221 0
M  V30 18400 H 1820.53 -4.97615 -0.734025 0
M  V30 18401 H 1820.23 -5.8205 0.805684 0
M  V30 18402 H 1821.75 -6.10545 -0.0821372 0
M  V30 18403 H 1823.17 -5.3501 2.06003 0
M  V30 18404 H 1821.56 -5.28198 2.84828 0
M  V30 18405 H 1822.63 -3.87032 2.9212 0
M  V30 18406 N 1823.98 -0.827251 -1.34143 0
M  V30 18407 C 1824.94 -0.257543 -2.27748 0
M  V30 18408 C 1825.94 0.567053 -1.5047 0
M  V30 18409 O 1827.13 0.382529 -1.69948 0
M  V30 18410 C 1824.26 0.638449 -3.34868 0
M  V30 18411 H 1825.45 -1.08338 -2.79648 0
M  V30 18412 H 1823.01 -0.599441 -1.44348 0
M  V30 18413 H 1823.74 1.48717 -2.8819 0
M  V30 18414 H 1823.53 0.0486033 -3.9207 0
M  V30 18415 H 1825.02 1.03071 -4.0468 0
M  V30 18416 N 1825.45 1.46436 -0.582609 0
M  V30 18417 C 1826.39 2.28423 0.188509 0
M  V30 18418 C 1827.4 1.38506 0.855565 0
M  V30 18419 O 1828.59 1.63107 0.725145 0
M  V30 18420 C 1825.69 3.13537 1.28639 0
M  V30 18421 C 1824.86 4.31578 0.711275 0
M  V30 18422 C 1823.92 4.9809 1.69685 0
M  V30 18423 O 1822.95 5.55686 1.23294 0
M  V30 18424 N 1824.15 4.95091 3.03093 0
M  V30 18425 H 1826.91 2.95244 -0.514896 0
M  V30 18426 H 1824.47 1.56347 -0.420374 0
M  V30 18427 H 1826.47 3.54897 1.94499 0
M  V30 18428 H 1825.04 2.48792 1.89266 0
M  V30 18429 H 1824.26 3.94002 -0.124784 0
M  V30 18430 H 1825.54 5.07874 0.306822 0
M  V30 18431 H 1824.94 4.49542 3.43407 0
M  V30 18432 H 1823.5 5.40393 3.64443 0
M  V30 18433 N 1826.93 0.320385 1.54309 0
M  V30 18434 C 1828.16 -0.28794 2.05391 0
M  V30 18435 C 1828.58 -1.45249 1.19517 0
M  V30 18436 O 1827.94 -1.80154 0.203556 0
M  V30 18437 C 1827.99 -0.703261 3.53676 0
M  V30 18438 O 1827.09 -1.80598 3.70753 0
M  V30 18439 H 1826.43 -0.052589 0.661914 0
M  V30 18440 H 1828.96 0.46787 1.99179 0
M  V30 18441 H 1828.97 -0.986793 3.95887 0
M  V30 18442 H 1827.65 0.148514 4.15635 0
M  V30 18443 H 1826.22 -1.5215 3.40448 0
M  V30 18444 N 1828.41 -1.57525 0.0484906 0
M  V30 18445 C 1829.82 -1.80221 -0.487592 0
M  V30 18446 C 1830.17 -0.96049 -1.71082 0
M  V30 18447 O 1829.3 -0.17632 -2.1568 0
M  V30 18448 C 1829.89 -3.26864 -0.89136 0
M  V30 18449 C 1828.45 -3.50487 -1.37244 0
M  V30 18450 C 1827.6 -2.75129 -0.346348 0
M  V30 18451 H 1830.55 -1.5631 0.274392 0
M  V30 18452 H 1830.57 -3.37637 -1.75446 0
M  V30 18453 H 1830.08 -3.881 -0.000880924 0
M  V30 18454 H 1828.18 -2.94528 -2.2822 0
M  V30 18455 H 1828.3 -4.592 -1.36645 0
M  V30 18456 H 1826.66 -2.41185 -0.818653 0
M  V30 18457 H 1827.44 -3.3909 0.536 0
M  V30 18458 N 1829.89 0.224867 -1.55988 0
M  V30 18459 C 1830.85 1.26214 -1.91318 0
M  V30 18460 C 1831.85 1.39973 -0.791472 0
M  V30 18461 O 1833.04 1.38295 -1.05926 0
M  V30 18462 C 1830.17 2.63648 -2.16107 0
M  V30 18463 H 1831.37 0.960933 -2.84088 0
M  V30 18464 H 1828.92 0.465138 -1.49218 0
M  V30 18465 H 1829.65 2.98873 -1.25878 0
M  V30 18466 H 1829.44 2.5504 -2.97821 0
M  V30 18467 H 1830.93 3.38505 -2.44548 0
M  V30 18468 N 1831.37 1.49742 0.491438 0
M  V30 18469 C 1832.33 1.66587 1.57421 0
M  V30 18470 C 1833.33 0.537281 1.51558 0
M  V30 18471 O 1834.52 0.803928 1.5454 0
M  V30 18472 C 1831.65 1.67217 2.97071 0
M  V30 18473 H 1832.84 2.63171 1.4381 0
M  V30 18474 H 1830.4 1.38917 0.716368 0
M  V30 18475 H 1831.13 0.722529 3.16149 0
M  V30 18476 H 1830.92 2.49187 3.02734 0
M  V30 18477 H 1832.41 1.82274 3.75721 0
M  V30 18478 N 1832.84 -0.743177 1.38977 0
M  V30 18479 C 1833.75 -1.88767 1.39299 0
M  V30 18480 C 1834.77 -1.71587 0.288782 0
M  V30 18481 O 1835.95 -1.94331 0.52892 0
M  V30 18482 C 1833.01 -3.24263 1.22697 0
M  V30 18483 C 1832.07 -3.53895 2.43017 0
M  V30 18484 C 1831.31 -4.82925 2.27198 0
M  V30 18485 O 1831.53 -5.56056 1.27114 0
M  V30 18486 O 1830.46 -5.12271 3.16009 0
M  V30 18487 H 1834.29 -1.9145 2.35755 0
M  V30 18488 H 1831.87 -0.889881 1.20006 0
M  V30 18489 H 1833.76 -4.05251 1.1554 0
M  V30 18490 H 1832.43 -3.22368 0.293317 0
M  V30 18491 H 1831.34 -2.73026 2.5575 0
M  V30 18492 H 1832.67 -3.6056 3.35048 0
M  V30 18493 N 1834.32 -1.24018 -0.972487 0
M  V30 18494 C 1835.73 -1.07076 -1.52943 0
M  V30 18495 C 1836.08 0.35937 -1.92881 0
M  V30 18496 O 1835.21 1.24713 -1.76849 0
M  V30 18497 C 1835.8 -1.93753 -2.7793 0
M  V30 18498 C 1834.36 -1.81048 -3.29998 0
M  V30 18499 C 1833.51 -1.88977 -2.02936 0
M  V30 18500 H 1836.46 -1.37565 -0.791304 0
M  V30 18501 H 1836.48 -1.46699 -3.51084 0
M  V30 18502 H 1835.99 -2.97833 -2.48832 0
M  V30 18503 H 1834.1 -0.797825 -3.63958 0
M  V30 18504 H 1834.21 -2.64876 -3.99221 0
M  V30 18505 H 1832.57 -1.32649 -2.17431 0
M  V30 18506 H 1833.36 -2.94627 -1.76209 0
M  V30 18507 N 1835.8 1.17245 -1.05316 0
M  V30 18508 C 1836.73 2.23491 -0.67631 0
M  V30 18509 C 1837.71 1.66937 0.326507 0
M  V30 18510 O 1838.9 1.93127 0.203823 0
M  V30 18511 C 1836.03 3.47262 -0.0515755 0
M  V30 18512 C 1834.98 4.16646 -0.97929 0
M  V30 18513 C 1834.31 5.34254 -0.218369 0
M  V30 18514 C 1835.61 4.68736 -2.30399 0
M  V30 18515 H 1837.3 2.55269 -1.56455 0
M  V30 18516 H 1834.85 1.22699 -0.753714 0
M  V30 18517 H 1836.8 4.20805 0.223865 0
M  V30 18518 H 1835.52 3.14755 0.871614 0
M  V30 18519 H 1834.18 3.45017 -1.23931 0
M  V30 18520 H 1833.83 4.97998 0.707624 0
M  V30 18521 H 1833.53 5.81615 -0.83654 0
M  V30 18522 H 1835.05 6.1058 0.0497574 0
M  V30 18523 H 1836.47 5.3391 -2.08837 0
M  V30 18524 H 1834.87 5.2668 -2.87625 0
M  V30 18525 H 1835.94 3.85477 -2.94169 0
M  V30 18526 N 1837.28 0.834353 1.33702 0
M  V30 18527 C 1838.23 0.26233 2.29304 0
M  V30 18528 C 1839.2 -0.619326 1.54122 0
M  V30 18529 O 1840.38 -0.558551 1.82441 0
M  V30 18530 C 1837.52 -0.560341 3.4052 0
M  V30 18531 C 1836.63 0.344832 4.30622 0
M  V30 18532 C 1835.77 -0.488505 5.28949 0
M  V30 18533 C 1834.81 0.415341 6.10689 0
M  V30 18534 N 1833.94 -0.3796 7.01073 0
M  V30 18535 H 1838.78 1.08291 2.77628 0
M  V30 18536 H 1836.32 0.545497 1.36612 0
M  V30 18537 H 1838.28 -1.05274 4.03699 0
M  V30 18538 H 1836.91 -1.34593 2.93402 0
M  V30 18539 H 1835.96 0.955519 3.68204 0
M  V30 18540 H 1837.27 1.03935 4.87851 0
M  V30 18541 H 1836.43 -1.04492 5.97634 0
M  V30 18542 H 1835.17 -1.21648 4.72285 0
M  V30 18543 H 1834.17 0.983803 5.40926 0
M  V30 18544 H 1835.4 1.1416 6.69436 0
M  V30 18545 H 1833.34 -1.09103 6.46864 0
M  V30 18546 H 1833.26 0.25629 7.55565 0
M  V30 18547 H 1834.53 -0.918394 7.74071 0
M  V30 18548 N 1838.76 -1.46125 0.590367 0
M  V30 18549 C 1839.7 -2.32108 -0.151168 0
M  V30 18550 C 1840.7 -1.44943 -0.876804 0
M  V30 18551 O 1841.9 -1.61526 -0.794323 0
M  V30 18552 H 1838.28 -0.748954 -0.0676159 0
M  V30 18553 H 1840.25 -2.92454 0.592723 0
M  V30 18554 C 1839 -3.28253 -1.14653 0
M  V30 18555 H 1838.32 -3.95309 -0.597597 0
M  V30 18556 H 1839.76 -3.91181 -1.63564 0
M  V30 18557 C 1838.22 -2.54162 -2.21141 0
M  V30 18558 O 1838.75 -2.31029 -3.28616 0
M  V30 18559 N 1836.96 -2.14592 -1.95956 0
M  V30 18560 H 1836.5 -2.33606 -1.08564 0
M  V30 18561 H 1836.46 -1.65339 -2.67414 0
M  V30 18562 N 1840.23 -0.328564 -1.54137 0
M  V30 18563 C 1841.48 0.273427 -1.99838 0
M  V30 18564 C 1841.8 1.52851 -1.22049 0
M  V30 18565 O 1843 2.20681 -1.58152 0
M  V30 18566 C 1841.46 0.537757 -3.5586 0
M  V30 18567 C 1841.07 -0.700562 -4.42489 0
M  V30 18568 C 1842.81 1.09943 -4.10016 0
M  V30 18569 C 1840.72 -0.40786 -5.89992 0
M  V30 18570 H 1839.65 0.105947 -0.746519 0
M  V30 18571 H 1842.3 -0.441565 -1.78108 0
M  V30 18572 H 1840.68 1.31307 -3.73597 0
M  V30 18573 H 1841.85 -1.47583 -4.36527 0
M  V30 18574 H 1840.17 -1.1828 -3.99248 0
M  V30 18575 H 1842.77 1.33312 -5.17815 0
M  V30 18576 H 1843.11 2.05035 -3.62307 0
M  V30 18577 H 1843.64 0.385182 -3.95931 0
M  V30 18578 H 1840.38 -1.32809 -6.41905 0
M  V30 18579 H 1839.9 0.329604 -5.98894 0
M  V30 18580 H 1841.58 -0.0195391 -6.46997 0
M  V30 18581 N 1841.71 1.57497 -0.0568439 0
M  V30 18582 C 1842.96 1.92533 0.614452 0
M  V30 18583 C 1843.28 0.936373 1.71047 0
M  V30 18584 O 1842.55 -0.0178803 1.95892 0
M  V30 18585 H 1841.13 0.710724 0.229958 0
M  V30 18586 H 1843.79 1.94583 -0.111181 0
M  V30 18587 H 1842.89 2.93928 1.04941 0
M  V30 18588 N 1843.19 -0.216591 1.56105 0
M  V30 18589 C 1844.14 -1.28803 1.93681 0
M  V30 18590 C 1845.13 -1.4826 0.819464 0
M  V30 18591 O 1846.34 -1.49376 1.00433 0
M  V30 18592 H 1842.71 -0.431947 0.61557 0
M  V30 18593 H 1844.68 -0.943954 2.83076 0
M  V30 18594 C 1843.43 -2.63017 2.27414 0
M  V30 18595 H 1842.76 -2.48855 3.12908 0
M  V30 18596 H 1844.2 -3.36787 2.57587 0
M  V30 18597 C 1842.66 -3.18401 1.10103 0
M  V30 18598 O 1843.19 -4.00041 0.364758 0
M  V30 18599 N 1841.39 -2.76843 0.883536 0
M  V30 18600 H 1840.94 -2.1056 1.48399 0
M  V30 18601 H 1840.9 -3.1424 0.100368 0
M  V30 18602 N 1844.67 -1.5 -0.48349 0
M  V30 18603 C 1845.6 -1.70879 -1.5913 0
M  V30 18604 C 1846.58 -0.557606 -1.60701 0
M  V30 18605 O 1847.76 -0.79539 -1.77164 0
M  V30 18606 C 1844.89 -1.7915 -2.97527 0
M  V30 18607 C 1843.85 -2.94233 -3.10823 0
M  V30 18608 C 1843.17 -2.87634 -4.50745 0
M  V30 18609 C 1844.47 -4.34925 -2.89202 0
M  V30 18610 H 1846.17 -2.63632 -1.41911 0
M  V30 18611 H 1843.71 -1.26865 -0.68127 0
M  V30 18612 H 1845.67 -1.92342 -3.74943 0
M  V30 18613 H 1844.39 -0.830106 -3.15875 0
M  V30 18614 H 1843.05 -2.80672 -2.35837 0
M  V30 18615 H 1842.7 -1.89365 -4.65993 0
M  V30 18616 H 1842.4 -3.64885 -4.60579 0
M  V30 18617 H 1843.92 -3.02857 -5.30198 0
M  V30 18618 H 1845.34 -4.49076 -3.56376 0
M  V30 18619 H 1843.73 -5.13531 -3.10492 0
M  V30 18620 H 1844.8 -4.48154 -1.85165 0
M  V30 18621 N 1846.15 0.735796 -1.39369 0
M  V30 18622 C 1847.39 1.49534 -1.3655 0
M  V30 18623 C 1847.72 1.94461 0.0388165 0
M  V30 18624 O 1846.98 1.67048 1.01949 0
M  V30 18625 C 1847.28 2.7495 -2.28336 0
M  V30 18626 C 1846.94 2.48894 -3.75982 0
M  V30 18627 C 1845.6 2.41498 -4.16212 0
M  V30 18628 C 1847.96 2.26589 -4.69369 0
M  V30 18629 C 1845.28 2.09836 -5.47892 0
M  V30 18630 C 1847.64 1.96444 -6.01326 0
M  V30 18631 C 1846.3 1.87515 -6.4062 0
M  V30 18632 H 1845.57 0.547184 -0.49967 0
M  V30 18633 H 1848.22 0.844587 -1.71869 0
M  V30 18634 H 1846.52 3.44764 -1.86132 0
M  V30 18635 H 1848.22 3.32975 -2.23448 0
M  V30 18636 H 1844.81 2.5553 -3.44097 0
M  V30 18637 H 1848.99 2.31272 -4.39121 0
M  V30 18638 H 1844.25 2.01445 -5.77261 0
M  V30 18639 H 1848.42 1.78193 -6.73216 0
M  V30 18640 H 1846.05 1.62747 -7.42575 0
M  V30 18641 N 1847.63 1.24532 0.965897 0
M  V30 18642 C 1848.54 1.0564 2.09469 0
M  V30 18643 C 1849.55 -0.00330962 1.74 0
M  V30 18644 O 1850.73 0.195248 2.00451 0
M  V30 18645 C 1847.79 0.665318 3.40256 0
M  V30 18646 C 1846.85 1.80171 3.89663 0
M  V30 18647 C 1846.09 1.42919 5.14208 0
M  V30 18648 O 1846.31 0.319815 5.69503 0
M  V30 18649 O 1845.24 2.25546 5.58044 0
M  V30 18650 H 1849.07 2.00277 2.28304 0
M  V30 18651 H 1846.65 1.03368 1.07868 0
M  V30 18652 H 1848.54 0.458827 4.18895 0
M  V30 18653 H 1847.21 -0.251914 3.22718 0
M  V30 18654 H 1846.12 2.06296 3.12078 0
M  V30 18655 H 1847.45 2.69778 4.11681 0
M  V30 18656 N 1849.1 -1.16685 1.05936 0
M  V30 18657 C 1850.01 -2.24591 0.677931 0
M  V30 18658 C 1851.03 -1.71317 -0.304397 0
M  V30 18659 O 1852.21 -2.00806 -0.154615 0
M  V30 18660 C 1849.27 -3.46636 0.0664037 0
M  V30 18661 C 1848.33 -4.14964 1.10014 0
M  V30 18662 C 1847.56 -5.31183 0.517697 0
M  V30 18663 O 1847.79 -5.66444 -0.670637 0
M  V30 18664 O 1846.72 -5.88657 1.25563 0
M  V30 18665 H 1850.55 -2.5952 1.57743 0
M  V30 18666 H 1848.13 -1.2413 0.831395 0
M  V30 18667 H 1850.01 -4.20514 -0.273069 0
M  V30 18668 H 1848.69 -3.13489 -0.806634 0
M  V30 18669 H 1847.6 -3.43072 1.49173 0
M  V30 18670 H 1848.93 -4.52158 1.94458 0
M  V30 18671 N 1850.58 -0.841432 -1.33258 0
M  V30 18672 C 1851.54 -0.281685 -2.27462 0
M  V30 18673 C 1852.54 0.551062 -1.51063 0
M  V30 18674 O 1853.73 0.364482 -1.70344 0
M  V30 18675 C 1850.87 0.602896 -3.35526 0
M  V30 18676 H 1852.06 -1.11298 -2.78483 0
M  V30 18677 H 1849.61 -0.614717 -1.43704 0
M  V30 18678 H 1850.35 1.45652 -2.89751 0
M  V30 18679 H 1850.13 0.00701634 -3.92099 0
M  V30 18680 H 1851.62 0.987735 -4.05751 0
M  V30 18681 N 1852.06 1.4581 -0.598108 0
M  V30 18682 C 1852.97 2.34249 0.12834 0
M  V30 18683 C 1853.99 1.50677 0.870202 0
M  V30 18684 O 1855.16 1.83505 0.829924 0
M  V30 18685 C 1852.23 3.28135 1.1193 0
M  V30 18686 C 1851.29 4.27611 0.380432 0
M  V30 18687 C 1850.52 5.17012 1.32419 0
M  V30 18688 O 1850.74 5.09648 2.56154 0
M  V30 18689 O 1849.68 5.962 0.826397 0
M  V30 18690 H 1853.5 2.9775 -0.598199 0
M  V30 18691 H 1851.09 1.45037 -0.358416 0
M  V30 18692 H 1852.97 3.86014 1.6903 0
M  V30 18693 H 1851.65 2.6721 1.82703 0
M  V30 18694 H 1850.55 3.73375 -0.23279 0
M  V30 18695 H 1851.89 4.91365 -0.286627 0
M  V30 18696 N 1853.54 0.336733 1.53961 0
M  V30 18697 C 1854.48 -0.523198 2.24792 0
M  V30 18698 C 1855.45 -1.10107 1.24361 0
M  V30 18699 O 1856.64 -1.13895 1.53077 0
M  V30 18700 C 1853.78 -1.67166 3.0191 0
M  V30 18701 C 1852.89 -1.12176 4.17182 0
M  V30 18702 C 1852.03 -2.23697 4.81802 0
M  V30 18703 C 1851.07 -1.66023 5.89154 0
M  V30 18704 N 1850.2 -2.7126 6.47582 0
M  V30 18705 H 1855.04 0.0873707 2.97872 0
M  V30 18706 H 1852.58 0.0548897 1.46998 0
M  V30 18707 H 1854.54 -2.34768 3.44876 0
M  V30 18708 H 1853.17 -2.25332 2.31139 0
M  V30 18709 H 1852.22 -0.336885 3.78905 0
M  V30 18710 H 1853.53 -0.659852 4.94416 0
M  V30 18711 H 1852.69 -2.99178 5.27804 0
M  V30 18712 H 1851.43 -2.7323 4.03976 0
M  V30 18713 H 1850.43 -0.890457 5.42541 0
M  V30 18714 H 1851.66 -1.17352 6.68884 0
M  V30 18715 H 1849.6 -3.20059 5.72624 0
M  V30 18716 H 1849.52 -2.29671 7.20269 0
M  V30 18717 H 1850.79 -3.4653 6.98239 0
M  V30 18718 N 1855.02 -1.57465 0.0651956 0
M  V30 18719 C 1855.95 -2.15374 -0.902018 0
M  V30 18720 C 1856.93 -1.07904 -1.31494 0
M  V30 18721 O 1858.11 -1.35909 -1.38717 0
M  V30 18722 C 1855.24 -2.71005 -2.17195 0
M  V30 18723 C 1854.2 -3.83583 -1.89864 0
M  V30 18724 C 1853.52 -4.25789 -3.23432 0
M  V30 18725 C 1854.82 -5.08112 -1.20913 0
M  V30 18726 H 1856.52 -2.96445 -0.419631 0
M  V30 18727 H 1854.06 -1.42599 -0.200401 0
M  V30 18728 H 1856.01 -3.1016 -2.8527 0
M  V30 18729 H 1854.74 -1.87146 -2.67664 0
M  V30 18730 H 1853.4 -3.44921 -1.24197 0
M  V30 18731 H 1853.05 -3.38861 -3.71729 0
M  V30 18732 H 1852.75 -5.01673 -3.05938 0
M  V30 18733 H 1854.27 -4.67555 -3.92715 0
M  V30 18734 H 1855.68 -5.44624 -1.79046 0
M  V30 18735 H 1854.08 -5.8923 -1.137 0
M  V30 18736 H 1855.15 -4.84538 -0.187224 0
M  V30 18737 N 1856.49 0.20831 -1.56217 0
M  V30 18738 C 1857.74 0.928839 -1.7904 0
M  V30 18739 C 1858.06 1.84968 -0.636108 0
M  V30 18740 O 1859.26 2.60984 -0.748302 0
M  V30 18741 C 1857.72 1.70192 -3.17116 0
M  V30 18742 C 1857.33 0.826564 -4.40309 0
M  V30 18743 C 1859.07 2.41287 -3.49257 0
M  V30 18744 C 1856.98 1.59775 -5.69408 0
M  V30 18745 H 1855.91 0.350563 -0.667549 0
M  V30 18746 H 1858.56 0.182398 -1.82591 0
M  V30 18747 H 1856.94 2.49176 -3.07778 0
M  V30 18748 H 1858.11 0.076324 -4.60737 0
M  V30 18749 H 1856.43 0.227092 -4.1578 0
M  V30 18750 H 1859.03 2.99511 -4.42942 0
M  V30 18751 H 1859.37 3.14827 -2.72377 0
M  V30 18752 H 1859.9 1.69282 -3.59984 0
M  V30 18753 H 1856.64 0.905384 -6.49217 0
M  V30 18754 H 1856.16 2.32227 -5.5302 0
M  V30 18755 H 1857.84 2.155 -6.10056 0
M  V30 18756 N 1857.97 1.50255 0.475528 0
M  V30 18757 C 1858.92 1.68794 1.57408 0
M  V30 18758 C 1859.89 0.529252 1.57442 0
M  V30 18759 O 1861.07 0.759301 1.75041 0
M  V30 18760 C 1858.21 1.78401 2.9541 0
M  V30 18761 C 1857.33 3.05742 3.05198 0
M  V30 18762 C 1856.46 3.06172 4.34088 0
M  V30 18763 C 1855.5 4.27985 4.37602 0
M  V30 18764 N 1854.64 4.26179 5.57957 0
M  V30 18765 H 1859.48 2.62583 1.40905 0
M  V30 18766 H 1857.01 1.30169 0.685152 0
M  V30 18767 H 1858.97 1.81952 3.75432 0
M  V30 18768 H 1857.6 0.880556 3.10558 0
M  V30 18769 H 1856.65 3.11683 2.18077 0
M  V30 18770 H 1857.97 3.95722 3.03654 0
M  V30 18771 H 1857.12 3.08427 5.22454 0
M  V30 18772 H 1855.86 2.14014 4.38234 0
M  V30 18773 H 1854.86 4.25947 3.47634 0
M  V30 18774 H 1856.09 5.21364 4.35151 0
M  V30 18775 H 1854.04 3.36873 5.62897 0
M  V30 18776 H 1853.95 5.09923 5.58135 0
M  V30 18777 H 1855.22 4.32574 6.4846 0
M  V30 18778 N 1859.45 -0.728395 1.39758 0
M  V30 18779 C 1860.73 -1.48036 1.27846 0
M  V30 18780 C 1861.11 -2.10818 -0.108996 0
M  V30 18781 O 1860.45 -1.99125 -1.12078 0
M  V30 18782 C 1860.66 -2.52644 2.40774 0
M  V30 18783 C 1862.01 -3.1884 2.80404 0
M  V30 18784 O 1863.04 -2.6296 2.40272 0
M  V30 18785 O 1861.9 -4.19971 3.49696 0
M  V30 18786 H 1858.99 -0.657688 0.501374 0
M  V30 18787 H 1861.54 -0.761658 1.51647 0
M  V30 18788 H 1860.31 -2.04678 3.335 0
M  V30 18789 H 1859.93 -3.32066 2.18674 0
M  V30 18790 N 1860.93 -1.25042 -0.959279 0
M  V30 18791 C 1862.17 -1.09677 -1.70584 0
M  V30 18792 C 1862.51 0.362184 -1.90793 0
M  V30 18793 O 1861.78 1.26722 -1.47552 0
M  V30 18794 C 1862.06 -1.84646 -3.09157 0
M  V30 18795 C 1861.92 -3.38342 -2.96387 0
M  V30 18796 C 1863.24 -1.62588 -4.08966 0
M  V30 18797 H 1860.36 -0.399817 -0.619125 0
M  V30 18798 H 1863 -1.53816 -1.11537 0
M  V30 18799 H 1861.15 -1.47129 -3.59563 0
M  V30 18800 H 1862.82 -3.85507 -2.53342 0
M  V30 18801 H 1861.06 -3.66291 -2.32408 0
M  V30 18802 H 1861.73 -3.86007 -3.94592 0
M  V30 18803 H 1864.21 -1.9524 -3.67451 0
M  V30 18804 H 1863.09 -2.17488 -5.03975 0
M  V30 18805 H 1863.35 -0.566103 -4.38461 0
M  V30 18806 N 1862.41 1.16121 -1.06553 0
M  V30 18807 C 1863.63 1.90611 -0.804673 0
M  V30 18808 C 1864.05 1.77576 0.641255 0
M  V30 18809 O 1863.41 1.12218 1.43921 0
M  V30 18810 C 1863.46 3.41231 -1.19348 0
M  V30 18811 O 1863.18 3.53879 -2.58266 0
M  V30 18812 C 1864.68 4.32764 -0.960738 0
M  V30 18813 H 1861.9 0.604358 -0.291534 0
M  V30 18814 H 1864.44 1.47174 -1.41986 0
M  V30 18815 H 1862.6 3.82361 -0.622772 0
M  V30 18816 H 1863.01 4.47298 -2.73907 0
M  V30 18817 H 1864.49 5.36898 -1.28238 0
M  V30 18818 H 1864.96 4.39078 0.103389 0
M  V30 18819 H 1865.57 3.97365 -1.51595 0
M  V30 18820 N 1863.88 0.848487 1.3281 0
M  V30 18821 C 1864.79 0.291355 2.32784 0
M  V30 18822 C 1865.81 -0.587621 1.63777 0
M  V30 18823 O 1866.99 -0.489458 1.95362 0
M  V30 18824 C 1864.05 -0.51634 3.42834 0
M  V30 18825 C 1863.11 0.388046 4.27543 0
M  V30 18826 C 1862.35 -0.381197 5.32337 0
M  V30 18827 O 1862.57 -1.61186 5.47152 0
M  V30 18828 O 1861.5 0.2498 6.01381 0
M  V30 18829 H 1865.33 1.11947 2.82315 0
M  V30 18830 H 1862.91 0.611259 1.36323 0
M  V30 18831 H 1864.8 -0.974995 4.09966 0
M  V30 18832 H 1863.47 -1.32136 2.95503 0
M  V30 18833 H 1862.38 0.894745 3.63243 0
M  V30 18834 H 1863.71 1.15808 4.78382 0
M  V30 18835 N 1865.36 -1.4549 0.605832 0
M  V30 18836 C 1866.3 -2.27618 -0.162864 0
M  V30 18837 C 1867.27 -1.37031 -0.875291 0
M  V30 18838 O 1868.46 -1.66459 -0.884517 0
M  V30 18839 C 1865.58 -3.15357 -1.23561 0
M  V30 18840 C 1864.63 -4.21873 -0.626513 0
M  V30 18841 S 1865.46 -5.32519 0.564279 0
M  V30 18842 C 1866.62 -6.23826 -0.509106 0
M  V30 18843 H 1866.85 -2.92466 0.533923 0
M  V30 18844 H 1864.39 -1.49307 0.393306 0
M  V30 18845 H 1866.34 -3.66465 -1.84969 0
M  V30 18846 H 1865 -2.49778 -1.90446 0
M  V30 18847 H 1864.2 -4.83181 -1.43361 0
M  V30 18848 H 1863.8 -3.73897 -0.0876196 0
M  V30 18849 H 1866.09 -6.63116 -1.38865 0
M  V30 18850 H 1867.03 -7.08068 0.0677653 0
M  V30 18851 H 1867.44 -5.58459 -0.823646 0
M  V30 18852 N 1866.84 -0.344893 -1.5378 0
M  V30 18853 C 1867.77 0.55434 -2.21365 0
M  V30 18854 C 1868.75 1.09924 -1.19814 0
M  V30 18855 O 1869.94 1.15926 -1.48639 0
M  V30 18856 C 1867.06 1.76275 -2.89214 0
M  V30 18857 C 1866.11 1.34719 -4.04664 0
M  V30 18858 S 1866.94 0.365855 -5.34249 0
M  V30 18859 C 1868.1 1.58107 -6.05601 0
M  V30 18860 H 1868.33 -0.0197004 -2.97293 0
M  V30 18861 H 1865.86 -0.128969 -1.5386 0
M  V30 18862 H 1867.82 2.45601 -3.28923 0
M  V30 18863 H 1866.48 2.30801 -2.13049 0
M  V30 18864 H 1865.68 2.24821 -4.51078 0
M  V30 18865 H 1865.28 0.733393 -3.66739 0
M  V30 18866 H 1867.57 2.51534 -6.29076 0
M  V30 18867 H 1868.51 1.15869 -6.98556 0
M  V30 18868 H 1868.92 1.77773 -5.35777 0
M  V30 18869 N 1868.32 1.57428 -0.0735454 0
M  V30 18870 C 1869.28 2.11699 0.878419 0
M  V30 18871 C 1870.28 1.0414 1.22521 0
M  V30 18872 O 1871.47 1.30121 1.1582 0
M  V30 18873 C 1868.6 2.61979 2.18129 0
M  V30 18874 H 1869.8 2.97118 0.40755 0
M  V30 18875 H 1867.35 1.55315 0.175183 0
M  V30 18876 H 1868.08 1.80018 2.69748 0
M  V30 18877 H 1867.87 3.40599 1.94254 0
M  V30 18878 H 1869.36 3.04035 2.86273 0
M  V30 18879 N 1869.8 -0.200022 1.56326 0
M  V30 18880 C 1870.73 -1.27187 1.90673 0
M  V30 18881 C 1871.74 -1.41961 0.796933 0
M  V30 18882 O 1872.93 -1.42474 1.07533 0
M  V30 18883 C 1870.03 -2.64468 2.11919 0
M  V30 18884 C 1869.2 -2.71366 3.43044 0
M  V30 18885 C 1868.26 -3.89809 3.53462 0
M  V30 18886 O 1867.29 -3.77142 4.26325 0
M  V30 18887 N 1868.49 -5.05052 2.86187 0
M  V30 18888 H 1871.26 -0.980397 2.83211 0
M  V30 18889 H 1868.82 -0.389967 1.57133 0
M  V30 18890 H 1870.81 -3.42122 2.16182 0
M  V30 18891 H 1869.38 -2.86124 1.25904 0
M  V30 18892 H 1868.6 -1.80024 3.50692 0
M  V30 18893 H 1869.89 -2.72961 4.29383 0
M  V30 18894 H 1869.28 -5.18242 2.26808 0
M  V30 18895 H 1867.84 -5.8067 2.96083 0
M  V30 18896 N 1871.27 -1.50505 -0.467553 0
M  V30 18897 C 1872.52 -1.6191 -1.22118 0
M  V30 18898 C 1872.85 -0.320112 -1.91544 0
M  V30 18899 O 1872.13 0.678631 -1.82277 0
M  V30 18900 C 1872.41 -2.80184 -2.26206 0
M  V30 18901 C 1872.26 -4.19975 -1.61062 0
M  V30 18902 C 1873.58 -2.94011 -3.27484 0
M  V30 18903 H 1870.7 -0.589289 -0.442615 0
M  V30 18904 H 1873.34 -1.82902 -0.514484 0
M  V30 18905 H 1871.49 -2.62417 -2.86478 0
M  V30 18906 H 1873.17 -4.4934 -1.04359 0
M  V30 18907 H 1871.41 -4.24069 -0.91365 0
M  V30 18908 H 1872.08 -4.98667 -2.36718 0
M  V30 18909 H 1874.56 -3.10288 -2.77238 0
M  V30 18910 H 1873.43 -3.78384 -3.97639 0
M  V30 18911 H 1873.69 -2.04777 -3.91815 0
M  V30 18912 N 1872.75 0.720973 -1.40142 0
M  V30 18913 C 1873.66 1.86527 -1.42284 0
M  V30 18914 C 1874.68 1.71106 -0.316044 0
M  V30 18915 O 1875.85 1.93465 -0.55977 0
M  V30 18916 C 1872.92 3.2227 -1.27841 0
M  V30 18917 C 1871.98 3.49984 -2.48616 0
M  V30 18918 C 1871.21 4.7925 -2.34852 0
M  V30 18919 O 1871.44 5.53963 -1.35945 0
M  V30 18920 O 1870.37 5.07179 -3.24119 0
M  V30 18921 H 1874.2 1.87675 -2.38771 0
M  V30 18922 H 1871.78 0.870677 -1.21407 0
M  V30 18923 H 1873.66 4.03362 -1.21973 0
M  V30 18924 H 1872.34 3.21861 -0.344566 0
M  V30 18925 H 1871.25 2.68922 -2.60061 0
M  V30 18926 H 1872.58 3.55184 -3.40742 0
M  V30 18927 N 1874.23 1.25549 0.952634 0
M  V30 18928 C 1875.48 1.1058 1.7 0
M  V30 18929 C 1875.81 -0.35206 1.90982 0
M  V30 18930 O 1875.08 -1.25938 1.48222 0
M  V30 18931 C 1875.37 1.86283 3.08173 0
M  V30 18932 C 1875.22 3.39909 2.94588 0
M  V30 18933 C 1876.54 1.64755 4.08098 0
M  V30 18934 H 1873.66 0.403095 0.616996 0
M  V30 18935 H 1876.3 1.54406 1.1072 0
M  V30 18936 H 1874.45 1.49033 3.58778 0
M  V30 18937 H 1876.12 3.86845 2.51294 0
M  V30 18938 H 1874.37 3.67518 2.30462 0
M  V30 18939 H 1875.04 3.88094 3.92539 0
M  V30 18940 H 1877.51 1.97186 3.66411 0
M  V30 18941 H 1876.39 2.20157 5.02814 0
M  V30 18942 H 1876.65 0.589348 4.38154 0
M  V30 18943 N 1875.71 -1.15554 1.07168 0
M  V30 18944 C 1876.66 -2.20234 0.690348 0
M  V30 18945 C 1877.63 -1.6304 -0.317346 0
M  V30 18946 O 1878.81 -1.89704 -0.20422 0
M  V30 18947 C 1875.95 -3.44976 0.0923404 0
M  V30 18948 C 1875.06 -4.16377 1.15128 0
M  V30 18949 C 1874.2 -5.28664 0.518478 0
M  V30 18950 C 1873.24 -5.91878 1.56034 0
M  V30 18951 N 1872.37 -6.9564 0.950251 0
M  V30 18952 H 1877.21 -2.52203 1.58738 0
M  V30 18953 H 1874.75 -1.23863 0.793502 0
M  V30 18954 H 1876.71 -4.16312 -0.271985 0
M  V30 18955 H 1875.34 -3.1353 -0.768054 0
M  V30 18956 H 1874.39 -3.43556 1.63321 0
M  V30 18957 H 1875.7 -4.59472 1.94132 0
M  V30 18958 H 1874.86 -6.06615 0.101683 0
M  V30 18959 H 1873.6 -4.86756 -0.303345 0
M  V30 18960 H 1872.6 -5.12641 1.98694 0
M  V30 18961 H 1873.83 -6.35864 2.38442 0
M  V30 18962 H 1871.77 -6.5583 0.149298 0
M  V30 18963 H 1871.69 -7.37153 1.67755 0
M  V30 18964 H 1872.96 -7.77494 0.558895 0
M  V30 18965 N 1877.19 -0.855519 -1.32358 0
M  V30 18966 C 1878.12 -0.316159 -2.3135 0
M  V30 18967 C 1879.1 0.585159 -1.59718 0
M  V30 18968 O 1880.28 0.505221 -1.87513 0
M  V30 18969 C 1877.41 0.495577 -3.43746 0
M  V30 18970 C 1876.37 -0.311382 -4.26866 0
M  V30 18971 C 1875.69 0.625144 -5.31033 0
M  V30 18972 C 1876.99 -1.5376 -4.99154 0
M  V30 18973 H 1878.69 -1.14331 -2.7671 0
M  V30 18974 H 1876.23 -0.551221 -1.33032 0
M  V30 18975 H 1878.19 0.883325 -4.12038 0
M  V30 18976 H 1876.91 1.3561 -2.97115 0
M  V30 18977 H 1875.57 -0.680895 -3.60221 0
M  V30 18978 H 1875.22 1.48254 -4.80656 0
M  V30 18979 H 1874.92 0.0892112 -5.87532 0
M  V30 18980 H 1876.44 1.01005 -6.02188 0
M  V30 18981 H 1877.86 -1.2221 -5.60123 0
M  V30 18982 H 1876.25 -2.01153 -5.65382 0
M  V30 18983 H 1877.32 -2.29838 -4.26969 0
M  V30 18984 N 1878.67 1.45167 -0.61354 0
M  V30 18985 C 1879.89 2.07076 -0.115821 0
M  V30 18986 C 1880.32 1.45415 1.19315 0
M  V30 18987 O 1879.67 0.549046 1.72786 0
M  V30 18988 C 1879.72 3.606 0.00406239 0
M  V30 18989 O 1878.83 3.98737 1.05273 0
M  V30 18990 H 1878.17 0.659547 -0.0767679 0
M  V30 18991 H 1880.7 1.86325 -0.845236 0
M  V30 18992 H 1880.71 4.07508 0.200356 0
M  V30 18993 H 1879.38 4.04865 -0.951695 0
M  V30 18994 H 1877.96 3.6349 0.832424 0
M  V30 18995 N 1880.14 0.353044 1.53595 0
M  V30 18996 C 1881.42 -0.296304 1.93343 0
M  V30 18997 C 1881.8 -1.67448 1.28548 0
M  V30 18998 O 1881.15 -2.24226 0.4399 0
M  V30 18999 C 1881.36 -0.359079 3.47148 0
M  V30 19000 C 1882.71 -0.605406 4.20262 0
M  V30 19001 O 1883.73 -0.440805 3.53462 0
M  V30 19002 O 1882.59 -0.92496 5.38616 0
M  V30 19003 H 1879.68 -0.174879 0.808298 0
M  V30 19004 H 1882.23 0.404914 1.64798 0
M  V30 19005 H 1881 0.607684 3.86553 0
M  V30 19006 H 1880.62 -1.1067 3.81887 0
M  V30 19007 N 1881.62 -1.57387 0.0818932 0
M  V30 19008 C 1882.85 -1.98201 -0.593645 0
M  V30 19009 C 1883.26 -0.960602 -1.62536 0
M  V30 19010 O 1882.62 0.0514903 -1.82427 0
M  V30 19011 C 1882.67 -3.39083 -1.2532 0
M  V30 19012 O 1882.39 -4.37311 -0.262763 0
M  V30 19013 C 1883.89 -3.94827 -2.0156 0
M  V30 19014 H 1881.11 -0.651606 -0.160159 0
M  V30 19015 H 1883.66 -2.03894 0.157281 0
M  V30 19016 H 1881.81 -3.34444 -1.95514 0
M  V30 19017 H 1882.23 -5.19294 -0.737169 0
M  V30 19018 H 1883.7 -4.95594 -2.43086 0
M  V30 19019 H 1884.18 -3.31921 -2.8762 0
M  V30 19020 H 1884.78 -4.02898 -1.36211 0
M  V30 19021 N 1883.1 0.191729 -1.56429 0
M  V30 19022 C 1884.33 0.927708 -1.84936 0
M  V30 19023 C 1884.74 1.76708 -0.664809 0
M  V30 19024 O 1884.1 1.78783 0.366436 0
M  V30 19025 C 1884.15 1.82113 -3.12277 0
M  V30 19026 O 1883.87 1.01564 -4.26165 0
M  V30 19027 C 1885.37 2.6685 -3.53986 0
M  V30 19028 H 1882.59 0.270514 -0.614055 0
M  V30 19029 H 1885.14 0.197968 -2.0354 0
M  V30 19030 H 1883.29 2.50445 -2.9556 0
M  V30 19031 H 1883.71 1.62478 -4.987 0
M  V30 19032 H 1885.18 3.25189 -4.46045 0
M  V30 19033 H 1885.66 3.40725 -2.77134 0
M  V30 19034 H 1886.26 2.03884 -3.73245 0
M  V30 19035 N 1884.58 1.50751 0.459565 0
M  V30 19036 C 1885.8 1.66367 1.23842 0
M  V30 19037 C 1886.23 0.351355 1.84789 0
M  V30 19038 O 1885.59 -0.686103 1.67816 0
M  V30 19039 C 1885.63 2.76521 2.31449 0
M  V30 19040 O 1884.74 2.38576 3.36386 0
M  V30 19041 H 1884.08 0.555447 0.363833 0
M  V30 19042 H 1886.61 1.97193 0.545538 0
M  V30 19043 H 1886.62 2.99943 2.76583 0
M  V30 19044 H 1885.29 3.71759 1.86462 0
M  V30 19045 H 1883.87 2.25643 2.96883 0
M  V30 19046 N 1886.06 -0.713531 1.40522 0
M  V30 19047 C 1886.99 -1.83847 1.36868 0
M  V30 19048 C 1888 -1.60482 0.273746 0
M  V30 19049 O 1889.19 -1.70318 0.534238 0
M  V30 19050 C 1886.29 -3.20288 1.10764 0
M  V30 19051 C 1885.46 -3.70833 2.31952 0
M  V30 19052 C 1884.52 -4.85893 2.01977 0
M  V30 19053 O 1883.55 -4.98438 2.74861 0
M  V30 19054 N 1884.75 -5.7184 0.998985 0
M  V30 19055 H 1887.51 -1.87479 2.3382 0
M  V30 19056 H 1885.08 -0.895151 1.34902 0
M  V30 19057 H 1887.07 -3.94861 0.886932 0
M  V30 19058 H 1885.64 -3.11791 0.224726 0
M  V30 19059 H 1884.86 -2.87368 2.6984 0
M  V30 19060 H 1886.15 -4.01339 3.12738 0
M  V30 19061 H 1885.54 -5.64317 0.395392 0
M  V30 19062 H 1884.1 -6.46388 0.838178 0
M  V30 19063 N 1887.53 -1.26053 -0.945962 0
M  V30 19064 C 1888.76 -1.14181 -1.7314 0
M  V30 19065 C 1889.18 0.299663 -1.85698 0
M  V30 19066 O 1888.54 1.21711 -1.34373 0
M  V30 19067 C 1888.59 -1.81052 -3.11854 0
M  V30 19068 O 1887.69 -1.09606 -3.97568 0
M  V30 19069 H 1887.03 -0.398138 -0.531397 0
M  V30 19070 H 1889.56 -1.66782 -1.18511 0
M  V30 19071 H 1889.57 -1.87685 -3.62269 0
M  V30 19072 H 1888.25 -2.85921 -3.0203 0
M  V30 19073 H 1886.83 -1.10915 -3.56023 0
M  V30 19074 N 1889.01 1.14984 -1.07779 0
M  V30 19075 C 1889.96 2.2193 -0.696405 0
M  V30 19076 C 1890.95 1.66815 0.294832 0
M  V30 19077 O 1892.16 1.79305 0.158081 0
M  V30 19078 H 1888.53 0.722908 -0.207143 0
M  V30 19079 H 1890.51 2.51374 -1.60791 0
M  V30 19080 C 1889.25 3.4751 -0.114943 0
M  V30 19081 H 1888.58 3.90245 -0.86883 0
M  V30 19082 H 1890.02 4.23846 0.114195 0
M  V30 19083 C 1888.48 3.16827 1.14552 0
M  V30 19084 O 1889.01 3.34026 2.23135 0
M  V30 19085 N 1887.21 2.70836 1.05339 0
M  V30 19086 H 1886.76 2.5704 0.169728 0
M  V30 19087 H 1886.72 2.50681 1.89754 0
M  V30 19088 N 1890.49 0.862526 1.31902 0
M  V30 19089 C 1891.71 0.483159 2.01694 0
M  V30 19090 C 1892.14 -0.914778 1.64358 0
M  V30 19091 O 1891.5 -1.60229 0.848308 0
M  V30 19092 C 1891.55 0.638911 3.54895 0
M  V30 19093 O 1890.65 -0.324962 4.11118 0
M  V30 19094 H 1889.99 0.193128 0.635293 0
M  V30 19095 H 1892.52 1.16389 1.6827 0
M  V30 19096 H 1892.53 0.529394 4.04551 0
M  V30 19097 H 1891.21 1.65828 3.81411 0
M  V30 19098 H 1889.78 -0.171025 3.72508 0
M  V30 19099 N 1891.97 -1.4484 0.62123 0
M  V30 19100 C 1893.2 -2.065 0.128561 0
M  V30 19101 C 1893.61 -1.46351 -1.19277 0
M  V30 19102 O 1892.97 -0.582692 -1.72948 0
M  V30 19103 C 1893.02 -3.615 -0.00297622 0
M  V30 19104 O 1892.74 -4.19407 1.26609 0
M  V30 19105 C 1894.24 -4.40174 -0.525505 0
M  V30 19106 H 1891.46 -0.666783 0.0751128 0
M  V30 19107 H 1894.01 -1.85868 0.852829 0
M  V30 19108 H 1892.16 -3.81427 -0.677635 0
M  V30 19109 H 1892.57 -5.12738 1.10454 0
M  V30 19110 H 1894.05 -5.49085 -0.566585 0
M  V30 19111 H 1894.53 -4.10918 -1.55057 0
M  V30 19112 H 1895.13 -4.25143 0.115568 0
M  V30 19113 N 1893.45 -0.361184 -1.53405 0
M  V30 19114 C 1894.41 0.475026 -2.24223 0
M  V30 19115 C 1895.41 1.01331 -1.24855 0
M  V30 19116 O 1896.6 0.899756 -1.49164 0
M  V30 19117 C 1893.73 1.6635 -2.97557 0
M  V30 19118 H 1894.92 -0.144595 -2.99551 0
M  V30 19119 H 1892.48 -0.112802 -1.55892 0
M  V30 19120 H 1893.21 2.32133 -2.26461 0
M  V30 19121 H 1893 1.28454 -3.70462 0
M  V30 19122 H 1894.49 2.2562 -3.51405 0
M  V30 19123 N 1894.92 1.57341 -0.0902386 0
M  V30 19124 C 1895.87 2.13756 0.870448 0
M  V30 19125 C 1896.84 1.05483 1.28306 0
M  V30 19126 O 1898.03 1.33245 1.36567 0
M  V30 19127 C 1895.17 2.71839 2.12597 0
M  V30 19128 C 1894.28 3.94329 1.76433 0
M  V30 19129 C 1893.41 4.40593 2.96734 0
M  V30 19130 C 1892.45 5.55684 2.56674 0
M  V30 19131 N 1891.59 5.96822 3.69794 0
M  V30 19132 H 1896.43 2.95535 0.3825 0
M  V30 19133 H 1893.97 1.4603 0.177134 0
M  V30 19134 H 1895.93 3.03632 2.86118 0
M  V30 19135 H 1894.56 1.92797 2.589 0
M  V30 19136 H 1893.61 3.68882 0.928996 0
M  V30 19137 H 1894.92 4.77871 1.42973 0
M  V30 19138 H 1894.07 4.74143 3.78514 0
M  V30 19139 H 1892.81 3.55942 3.33401 0
M  V30 19140 H 1891.82 5.21767 1.7332 0
M  V30 19141 H 1893.04 6.4208 2.21156 0
M  V30 19142 H 1890.99 5.15118 4.06189 0
M  V30 19143 H 1890.91 6.75148 3.40163 0
M  V30 19144 H 1892.17 6.35002 4.52099 0
M  V30 19145 N 1896.4 -0.183431 1.56529 0
M  V30 19146 C 1897.31 -1.24746 1.98684 0
M  V30 19147 C 1898.33 -1.49139 0.8963 0
M  V30 19148 O 1899.5 -1.61525 1.20298 0
M  V30 19149 C 1896.57 -2.56927 2.32786 0
M  V30 19150 C 1895.63 -2.40503 3.55607 0
M  V30 19151 C 1894.86 -3.66381 3.88073 0
M  V30 19152 O 1895.09 -4.71048 3.21668 0
M  V30 19153 O 1894.02 -3.61214 4.81465 0
M  V30 19154 H 1897.85 -0.919676 2.8944 0
M  V30 19155 H 1895.43 -0.389352 1.44237 0
M  V30 19156 H 1897.31 -3.34923 2.55744 0
M  V30 19157 H 1895.99 -2.89309 1.45196 0
M  V30 19158 H 1894.9 -1.6058 3.37883 0
M  V30 19159 H 1896.23 -2.1305 4.43701 0
M  V30 19160 N 1897.88 -1.50992 -0.451564 0
M  V30 19161 C 1898.81 -1.74216 -1.5547 0
M  V30 19162 C 1899.79 -0.591568 -1.59482 0
M  V30 19163 O 1900.98 -0.83279 -1.75437 0
M  V30 19164 C 1898.11 -1.85421 -2.9366 0
M  V30 19165 C 1897.06 -3.0076 -3.04512 0
M  V30 19166 C 1896.39 -2.9713 -4.44542 0
M  V30 19167 C 1897.69 -4.40961 -2.79911 0
M  V30 19168 H 1899.38 -2.66582 -1.36287 0
M  V30 19169 H 1896.93 -1.28281 -0.654207 0
M  V30 19170 H 1898.88 -2.00252 -3.70779 0
M  V30 19171 H 1897.6 -0.896921 -3.14043 0
M  V30 19172 H 1896.26 -2.85611 -2.2983 0
M  V30 19173 H 1895.91 -1.99207 -4.61872 0
M  V30 19174 H 1895.61 -3.74572 -4.52736 0
M  V30 19175 H 1897.13 -3.14035 -5.23655 0
M  V30 19176 H 1898.55 -4.56534 -3.4677 0
M  V30 19177 H 1896.95 -5.20002 -2.9953 0
M  V30 19178 H 1898.02 -4.51981 -1.75618 0
M  V30 19179 N 1899.36 0.706069 -1.40899 0
M  V30 19180 C 1900.64 1.45984 -1.30185 0
M  V30 19181 C 1901.02 2.10965 0.0754423 0
M  V30 19182 O 1900.36 2.00883 1.08896 0
M  V30 19183 C 1900.57 2.48782 -2.44762 0
M  V30 19184 C 1901.92 3.14339 -2.85441 0
M  V30 19185 O 1902.95 2.59104 -2.44425 0
M  V30 19186 O 1901.8 4.14354 -3.56333 0
M  V30 19187 H 1898.9 0.649628 -0.511774 0
M  V30 19188 H 1901.44 0.737436 -1.5284 0
M  V30 19189 H 1900.22 1.99346 -3.36715 0
M  V30 19190 H 1899.84 3.28545 -2.23929 0
M  V30 19191 N 1900.84 1.26553 0.939264 0
M  V30 19192 C 1902.06 1.15098 1.72532 0
M  V30 19193 C 1902.49 -0.289811 1.85854 0
M  V30 19194 O 1901.84 -1.20997 1.35017 0
M  V30 19195 C 1901.89 1.82703 3.10889 0
M  V30 19196 O 1901 1.11712 3.96981 0
M  V30 19197 H 1900.34 0.40095 0.529278 0
M  V30 19198 H 1902.87 1.67408 1.17625 0
M  V30 19199 H 1902.88 1.89603 3.61268 0
M  V30 19200 H 1901.55 2.87519 3.00509 0
M  V30 19201 H 1900.13 1.12801 3.5543 0
M  V30 19202 N 1902.31 -1.14411 1.08387 0
M  V30 19203 C 1903.24 -2.21619 0.735327 0
M  V30 19204 C 1904.23 -1.67744 -0.282132 0
M  V30 19205 O 1905.41 -1.936 -0.152547 0
M  V30 19206 C 1902.54 -3.47003 0.143628 0
M  V30 19207 C 1901.49 -4.13903 1.08941 0
M  V30 19208 C 1900.82 -5.33487 0.359941 0
M  V30 19209 C 1902.12 -4.62463 2.42746 0
M  V30 19210 H 1903.81 -2.51031 1.63168 0
M  V30 19211 H 1901.36 -1.20658 0.785981 0
M  V30 19212 H 1903.31 -4.21251 -0.112217 0
M  V30 19213 H 1902.04 -3.16955 -0.787856 0
M  V30 19214 H 1900.7 -3.4161 1.33035 0
M  V30 19215 H 1900.34 -4.99699 -0.57534 0
M  V30 19216 H 1900.04 -5.79192 0.990451 0
M  V30 19217 H 1901.57 -6.10497 0.112145 0
M  V30 19218 H 1902.98 -5.28185 2.22919 0
M  V30 19219 H 1901.38 -5.18869 3.01488 0
M  V30 19220 H 1902.45 -3.77542 3.04286 0
M  V30 19221 N 1903.79 -0.869509 -1.31443 0
M  V30 19222 C 1904.72 -0.282169 -2.27456 0
M  V30 19223 C 1905.74 0.55453 -1.53065 0
M  V30 19224 O 1906.93 0.376597 -1.74482 0
M  V30 19225 C 1904.03 0.618652 -3.33206 0
M  V30 19226 C 1903.2 -0.185505 -4.37006 0
M  V30 19227 C 1902.26 0.643383 -5.22252 0
M  V30 19228 O 1901.28 0.0715827 -5.69155 0
M  V30 19229 N 1902.49 1.95545 -5.46573 0
M  V30 19230 H 1905.25 -1.10726 -2.78496 0
M  V30 19231 H 1902.81 -0.730947 -1.4446 0
M  V30 19232 H 1904.8 1.17886 -3.8715 0
M  V30 19233 H 1903.37 1.34442 -2.82213 0
M  V30 19234 H 1902.59 -0.927156 -3.83142 0
M  V30 19235 H 1903.88 -0.73731 -5.03429 0
M  V30 19236 H 1903.28 2.44315 -5.10222 0
M  V30 19237 H 1901.84 2.46345 -6.03455 0
M  V30 19238 N 1905.27 1.44508 -0.628902 0
M  V30 19239 C 1906.5 2.06429 -0.13951 0
M  V30 19240 C 1906.91 1.46981 1.18499 0
M  V30 19241 O 1906.27 0.591856 1.72636 0
M  V30 19242 C 1906.32 3.61496 -0.016195 0
M  V30 19243 O 1906.04 4.18729 -1.28831 0
M  V30 19244 C 1907.54 4.40447 0.502154 0
M  V30 19245 H 1904.76 0.666375 -0.0786479 0
M  V30 19246 H 1907.31 1.85414 -0.862674 0
M  V30 19247 H 1905.46 3.81781 0.657398 0
M  V30 19248 H 1905.88 5.12145 -1.13171 0
M  V30 19249 H 1907.35 5.49377 0.537458 0
M  V30 19250 H 1907.83 4.11735 1.52876 0
M  V30 19251 H 1908.43 4.25076 -0.138113 0
M  V30 19252 N 1906.75 0.369315 1.53212 0
M  V30 19253 C 1907.66 -0.483226 2.29569 0
M  V30 19254 C 1908.68 -1.08931 1.35684 0
M  V30 19255 O 1909.85 -1.09944 1.68743 0
M  V30 19256 C 1906.92 -1.60549 3.07286 0
M  V30 19257 C 1905.98 -1.02656 4.16846 0
M  V30 19258 C 1905.21 -2.09534 4.90847 0
M  V30 19259 O 1905.43 -3.30709 4.64745 0
M  V30 19260 O 1904.37 -1.72382 5.76687 0
M  V30 19261 H 1908.19 0.138246 3.03385 0
M  V30 19262 H 1905.78 0.133589 1.48802 0
M  V30 19263 H 1907.66 -2.25789 3.55805 0
M  V30 19264 H 1906.34 -2.21229 2.36303 0
M  V30 19265 H 1905.24 -0.337963 3.7257 0
M  V30 19266 H 1906.58 -0.464259 4.90006 0
M  V30 19267 N 1908.23 -1.57291 0.0985816 0
M  V30 19268 C 1909.19 -2.1307 -0.844628 0
M  V30 19269 C 1910.19 -1.06076 -1.20849 0
M  V30 19270 O 1911.38 -1.31947 -1.13735 0
M  V30 19271 C 1908.51 -2.65416 -2.13933 0
M  V30 19272 H 1909.71 -2.97729 -0.36023 0
M  V30 19273 H 1907.26 -1.55574 -0.150451 0
M  V30 19274 H 1907.99 -1.84287 -2.6685 0
M  V30 19275 H 1907.78 -3.43647 -1.88811 0
M  V30 19276 H 1909.27 -3.08551 -2.814 0
M  V30 19277 N 1909.71 0.175127 -1.56624 0
M  V30 19278 C 1910.62 1.23691 -1.99343 0
M  V30 19279 C 1911.63 1.48662 -0.904197 0
M  V30 19280 O 1912.81 1.60885 -1.21153 0
M  V30 19281 C 1909.87 2.55689 -2.34145 0
M  V30 19282 C 1908.93 2.38614 -3.56878 0
M  V30 19283 C 1908.17 3.64318 -3.9001 0
M  V30 19284 O 1908.39 4.69335 -3.24162 0
M  V30 19285 O 1907.32 3.58655 -4.83373 0
M  V30 19286 H 1911.15 0.904314 -2.89924 0
M  V30 19287 H 1908.73 0.381697 -1.44442 0
M  V30 19288 H 1910.62 3.33562 -2.57516 0
M  V30 19289 H 1909.29 2.88535 -1.46728 0
M  V30 19290 H 1908.2 1.58786 -3.3873 0
M  V30 19291 H 1909.53 2.10694 -4.44825 0
M  V30 19292 N 1911.18 1.5123 0.44355 0
M  V30 19293 C 1912.41 1.67671 1.2207 0
M  V30 19294 C 1912.83 0.370934 1.84406 0
M  V30 19295 O 1912.19 -0.668265 1.68535 0
M  V30 19296 C 1912.24 2.7896 2.28503 0
M  V30 19297 O 1911.34 2.4213 3.33837 0
M  V30 19298 H 1910.68 0.559275 0.357921 0
M  V30 19299 H 1913.21 1.9776 0.524592 0
M  V30 19300 H 1913.22 3.0286 2.73386 0
M  V30 19301 H 1911.9 3.73716 1.82509 0
M  V30 19302 H 1910.48 2.28779 2.94473 0
M  V30 19303 N 1912.66 -0.698586 1.41271 0
M  V30 19304 C 1913.59 -1.82505 1.4565 0
M  V30 19305 C 1914.57 -1.67149 0.315497 0
M  V30 19306 O 1915.76 -1.86926 0.526518 0
M  V30 19307 C 1912.89 -3.20616 1.33502 0
M  V30 19308 C 1911.84 -3.50672 2.45383 0
M  V30 19309 C 1911.17 -4.88107 2.18302 0
M  V30 19310 C 1912.47 -3.49952 3.87725 0
M  V30 19311 H 1914.16 -1.79098 2.39926 0
M  V30 19312 H 1911.71 -0.860237 1.15481 0
M  V30 19313 H 1913.66 -3.9913 1.35179 0
M  V30 19314 H 1912.38 -3.24642 0.357101 0
M  V30 19315 H 1911.04 -2.74507 2.42984 0
M  V30 19316 H 1910.69 -4.88755 1.1886 0
M  V30 19317 H 1910.39 -5.09182 2.9327 0
M  V30 19318 H 1911.92 -5.68934 2.21689 0
M  V30 19319 H 1913.33 -4.18476 3.91855 0
M  V30 19320 H 1911.73 -3.82559 4.62351 0
M  V30 19321 H 1912.8 -2.48988 4.16093 0
M  V30 19322 N 1914.14 -1.27049 -0.93254 0
M  V30 19323 C 1915.42 -1.03836 -1.65763 0
M  V30 19324 C 1915.8 0.428461 -2.06706 0
M  V30 19325 O 1915.14 1.41067 -1.79756 0
M  V30 19326 C 1915.35 -1.99534 -2.86334 0
M  V30 19327 C 1916.7 -2.28632 -3.57788 0
M  V30 19328 O 1917.73 -1.97469 -2.96453 0
M  V30 19329 O 1916.59 -2.81732 -4.68284 0
M  V30 19330 H 1913.68 -0.395479 -0.72631 0
M  V30 19331 H 1916.23 -1.38294 -0.983504 0
M  V30 19332 H 1915 -2.98479 -2.53033 0
M  V30 19333 H 1914.62 -1.65608 -3.61469 0
M  V30 19334 N 1915.62 1.13835 -1.08993 0
M  V30 19335 C 1916.57 2.21179 -0.719905 0
M  V30 19336 C 1917.56 1.67118 0.277123 0
M  V30 19337 O 1918.77 1.79462 0.139054 0
M  V30 19338 H 1915.14 0.72067 -0.214799 0
M  V30 19339 H 1917.11 2.49654 -1.63448 0
M  V30 19340 C 1915.86 3.47368 -0.151794 0
M  V30 19341 H 1915.18 3.89302 -0.910172 0
M  V30 19342 H 1916.62 4.23943 0.0692336 0
M  V30 19343 C 1915.08 3.18024 1.11185 0
M  V30 19344 O 1915.61 3.36374 2.1958 0
M  V30 19345 N 1913.82 2.71938 1.0246 0
M  V30 19346 H 1913.37 2.57206 0.142456 0
M  V30 19347 H 1913.32 2.52679 1.87084 0
M  V30 19348 N 1917.1 0.876467 1.3098 0
M  V30 19349 C 1918.32 0.505315 2.00634 0
M  V30 19350 C 1918.74 -0.903951 1.65753 0
M  V30 19351 O 1918.1 -1.59318 0.890164 0
M  V30 19352 C 1918.15 0.660442 3.55416 0
M  V30 19353 O 1917.87 2.01422 3.89051 0
M  V30 19354 C 1919.37 0.291158 4.42343 0
M  V30 19355 H 1916.59 0.196195 0.641676 0
M  V30 19356 H 1919.13 1.17942 1.67062 0
M  V30 19357 H 1917.29 0.0338076 3.87385 0
M  V30 19358 H 1917.7 2.02668 4.83762 0
M  V30 19359 H 1919.18 0.450631 5.50158 0
M  V30 19360 H 1919.65 -0.770188 4.32394 0
M  V30 19361 H 1920.26 0.893762 4.15803 0
M  V30 19362 N 1918.57 -1.44173 0.636557 0
M  V30 19363 C 1919.82 -2.02292 0.143429 0
M  V30 19364 C 1920.15 -1.49996 -1.23348 0
M  V30 19365 O 1919.43 -0.686228 -1.81992 0
M  V30 19366 C 1919.71 -3.59843 0.136025 0
M  V30 19367 C 1919.56 -4.22409 1.54566 0
M  V30 19368 C 1920.88 -4.36817 -0.536538 0
M  V30 19369 H 1918 -0.735049 0.0535939 0
M  V30 19370 H 1920.64 -1.71677 0.814066 0
M  V30 19371 H 1918.79 -3.86056 -0.435048 0
M  V30 19372 H 1920.47 -4.07284 2.16604 0
M  V30 19373 H 1918.71 -3.79696 2.09793 0
M  V30 19374 H 1919.38 -5.31441 1.49247 0
M  V30 19375 H 1921.86 -4.16069 -0.0508327 0
M  V30 19376 H 1920.73 -5.46517 -0.510926 0
M  V30 19377 H 1920.99 -4.11827 -1.60783 0
M  V30 19378 N 1920.05 -0.377435 -1.53014 0
M  V30 19379 C 1921 0.463415 -2.261 0
M  V30 19380 C 1921.97 1.06771 -1.27237 0
M  V30 19381 O 1923.15 1.09797 -1.56043 0
M  V30 19382 C 1920.29 1.59103 -3.06236 0
M  V30 19383 C 1919.41 1.01076 -4.20009 0
M  V30 19384 C 1918.54 2.10845 -4.87563 0
M  V30 19385 C 1917.58 1.50345 -5.93349 0
M  V30 19386 N 1916.72 2.53995 -6.54546 0
M  V30 19387 H 1921.56 -0.166315 -2.97536 0
M  V30 19388 H 1919.09 -0.0938442 -1.468 0
M  V30 19389 H 1921.05 2.25542 -3.5098 0
M  V30 19390 H 1919.68 2.19125 -2.37032 0
M  V30 19391 H 1918.73 0.236306 -3.79665 0
M  V30 19392 H 1920.05 0.528534 -4.95992 0
M  V30 19393 H 1919.2 2.85079 -5.35551 0
M  V30 19394 H 1917.94 2.62423 -4.11079 0
M  V30 19395 H 1916.94 0.746299 -5.44711 0
M  V30 19396 H 1918.17 0.995763 -6.7176 0
M  V30 19397 H 1916.12 3.04765 -5.80908 0
M  V30 19398 H 1916.03 2.10494 -7.26105 0
M  V30 19399 H 1917.3 3.27896 -7.07181 0
M  V30 19400 N 1921.53 1.57237 -0.106922 0
M  V30 19401 C 1922.44 2.18202 0.861685 0
M  V30 19402 C 1923.46 1.15476 1.30159 0
M  V30 19403 O 1924.63 1.47896 1.36707 0
M  V30 19404 C 1921.7 2.7598 2.09847 0
M  V30 19405 C 1920.76 3.93702 1.71164 0
M  V30 19406 C 1919.99 4.48716 2.88946 0
M  V30 19407 O 1920.21 4.02645 4.04021 0
M  V30 19408 O 1919.15 5.39573 2.66729 0
M  V30 19409 H 1922.97 3.01402 0.372924 0
M  V30 19410 H 1920.56 1.48933 0.118058 0
M  V30 19411 H 1922.44 3.12861 2.82305 0
M  V30 19412 H 1921.12 1.9582 2.57753 0
M  V30 19413 H 1920.02 3.61613 0.958499 0
M  V30 19414 H 1921.36 4.75262 1.28011 0
M  V30 19415 N 1923.01 -0.166818 1.56715 0
M  V30 19416 C 1923.94 -1.2086 1.99787 0
M  V30 19417 C 1924.92 -1.45918 0.874178 0
M  V30 19418 O 1926.1 -1.57176 1.14058 0
M  V30 19419 C 1923.23 -2.54648 2.3616 0
M  V30 19420 C 1922.19 -2.44151 3.51532 0
M  V30 19421 C 1921.51 -3.82469 3.7366 0
M  V30 19422 C 1922.81 -1.9424 4.84838 0
M  V30 19423 H 1924.51 -0.850538 2.87065 0
M  V30 19424 H 1922.05 -0.407696 1.38108 0
M  V30 19425 H 1924.01 -3.27736 2.64891 0
M  V30 19426 H 1922.73 -2.92251 1.45797 0
M  V30 19427 H 1921.39 -1.73516 3.22936 0
M  V30 19428 H 1921.04 -4.17473 2.8058 0
M  V30 19429 H 1920.74 -3.76312 4.5129 0
M  V30 19430 H 1922.26 -4.57136 4.04796 0
M  V30 19431 H 1923.68 -2.57105 5.12416 0
M  V30 19432 H 1922.07 -1.99021 5.66137 0
M  V30 19433 H 1923.14 -0.89695 4.76532 0
M  V30 19434 N 1924.49 -1.51463 -0.435524 0
M  V30 19435 C 1925.45 -1.72315 -1.51129 0
M  V30 19436 C 1926.45 -0.593161 -1.4946 0
M  V30 19437 O 1927.64 -0.860731 -1.5145 0
M  V30 19438 C 1924.77 -1.78127 -2.9066 0
M  V30 19439 H 1925.96 -2.68327 -1.33943 0
M  V30 19440 H 1923.52 -1.4148 -0.664317 0
M  V30 19441 H 1924.25 -0.839367 -3.13249 0
M  V30 19442 H 1924.04 -2.60252 -2.93277 0
M  V30 19443 H 1925.53 -1.96093 -3.68697 0
M  V30 19444 N 1925.96 0.691085 -1.4164 0
M  V30 19445 C 1926.87 1.83467 -1.46209 0
M  V30 19446 C 1927.89 1.70397 -0.352267 0
M  V30 19447 O 1929.07 1.92234 -0.60068 0
M  V30 19448 C 1926.13 3.19485 -1.34648 0
M  V30 19449 C 1925.19 3.44631 -2.55984 0
M  V30 19450 C 1924.43 4.7416 -2.44964 0
M  V30 19451 O 1924.65 5.50955 -1.47664 0
M  V30 19452 O 1923.58 5.0019 -3.34804 0
M  V30 19453 H 1927.41 1.82568 -2.42698 0
M  V30 19454 H 1924.99 0.844729 -1.23226 0
M  V30 19455 H 1926.88 4.00684 -1.30501 0
M  V30 19456 H 1925.55 3.21058 -0.41276 0
M  V30 19457 H 1924.46 2.63345 -2.65707 0
M  V30 19458 H 1925.79 3.47877 -3.48199 0
M  V30 19459 N 1927.44 1.27542 0.925789 0
M  V30 19460 C 1928.37 1.06229 2.03096 0
M  V30 19461 C 1929.39 0.0177734 1.6279 0
M  V30 19462 O 1930.58 0.259539 1.76603 0
M  V30 19463 C 1927.68 0.589777 3.33729 0
M  V30 19464 C 1926.85 1.70701 4.02716 0
M  V30 19465 C 1925.91 1.22991 5.11624 0
M  V30 19466 O 1924.93 1.92993 5.35483 0
M  V30 19467 N 1926.14 0.086593 5.80435 0
M  V30 19468 H 1928.9 2.01401 2.21941 0
M  V30 19469 H 1926.46 1.19134 1.0963 0
M  V30 19470 H 1928.45 0.254459 4.03899 0
M  V30 19471 H 1927.02 -0.268762 3.11443 0
M  V30 19472 H 1926.24 2.21252 3.26253 0
M  V30 19473 H 1927.53 2.45679 4.45555 0
M  V30 19474 H 1926.93 -0.497638 5.63507 0
M  V30 19475 H 1925.49 -0.189533 6.51524 0
M  V30 19476 N 1928.92 -1.13255 1.09595 0
M  V30 19477 C 1929.85 -2.20827 0.758791 0
M  V30 19478 C 1930.83 -1.68034 -0.264325 0
M  V30 19479 O 1932.02 -1.93751 -0.132005 0
M  V30 19480 C 1929.15 -3.46831 0.180424 0
M  V30 19481 C 1928.1 -4.12724 1.13325 0
M  V30 19482 C 1927.43 -5.33075 0.416504 0
M  V30 19483 C 1928.73 -4.59862 2.47637 0
M  V30 19484 H 1930.42 -2.49287 1.65821 0
M  V30 19485 H 1927.97 -1.19818 0.798734 0
M  V30 19486 H 1929.92 -4.21346 -0.0675313 0
M  V30 19487 H 1928.64 -3.17773 -0.754194 0
M  V30 19488 H 1927.3 -3.40179 1.36651 0
M  V30 19489 H 1926.95 -5.00281 -0.522308 0
M  V30 19490 H 1926.65 -5.78109 1.05183 0
M  V30 19491 H 1928.17 -6.10344 0.17689 0
M  V30 19492 H 1929.59 -5.25791 2.28509 0
M  V30 19493 H 1927.99 -5.15642 3.06974 0
M  V30 19494 H 1929.06 -3.74294 3.08273 0
M  V30 19495 N 1930.4 -0.883401 -1.30514 0
M  V30 19496 C 1931.31 -0.352971 -2.31929 0
M  V30 19497 C 1932.32 0.543992 -1.65278 0
M  V30 19498 O 1933.5 0.437489 -1.96591 0
M  V30 19499 C 1930.57 0.425263 -3.44082 0
M  V30 19500 C 1929.63 -0.501265 -4.26363 0
M  V30 19501 C 1928.86 0.239923 -5.3316 0
M  V30 19502 O 1929.08 1.46622 -5.51233 0
M  V30 19503 O 1928.02 -0.409158 -6.00508 0
M  V30 19504 H 1931.84 -1.19393 -2.79247 0
M  V30 19505 H 1929.43 -0.647187 -1.34655 0
M  V30 19506 H 1931.31 0.865957 -4.12407 0
M  V30 19507 H 1929.98 1.24255 -2.98902 0
M  V30 19508 H 1928.89 -0.990738 -3.60743 0
M  V30 19509 H 1930.22 -1.28451 -4.75143 0
M  V30 19510 N 1931.88 1.43833 -0.644194 0
M  V30 19511 C 1933.12 2.01914 -0.153927 0
M  V30 19512 C 1933.45 1.50758 1.22891 0
M  V30 19513 O 1932.71 0.687354 1.83232 0
M  V30 19514 C 1933.01 3.57249 -0.103941 0
M  V30 19515 C 1932.67 4.27713 -1.42731 0
M  V30 19516 C 1931.33 4.46679 -1.78972 0
M  V30 19517 C 1933.69 4.67695 -2.30024 0
M  V30 19518 C 1931.01 5.0289 -3.0219 0
M  V30 19519 C 1933.37 5.2527 -3.52525 0
M  V30 19520 C 1932.03 5.42453 -3.88974 0
M  V30 19521 H 1931.3 0.738856 -0.0563257 0
M  V30 19522 H 1933.95 1.72428 -0.833108 0
M  V30 19523 H 1932.25 3.86224 0.65866 0
M  V30 19524 H 1933.95 3.99935 0.292124 0
M  V30 19525 H 1930.54 4.1329 -1.1353 0
M  V30 19526 H 1934.72 4.52743 -2.03317 0
M  V30 19527 H 1929.98 5.14379 -3.3049 0
M  V30 19528 H 1934.15 5.55198 -4.2039 0
M  V30 19529 H 1931.78 5.85775 -4.84532 0
M  V30 19530 N 1933.35 0.385544 1.52811 0
M  V30 19531 C 1934.6 -0.19907 2.00715 0
M  V30 19532 C 1934.92 -1.48216 1.27638 0
M  V30 19533 O 1936.12 -2.14659 1.66234 0
M  V30 19534 C 1934.58 -0.405311 3.5761 0
M  V30 19535 C 1934.19 0.864306 4.39584 0
M  V30 19536 C 1935.93 -0.946495 4.13814 0
M  V30 19537 C 1933.84 0.626551 5.88072 0
M  V30 19538 H 1932.77 -0.0781676 0.749937 0
M  V30 19539 H 1935.42 0.507365 1.76346 0
M  V30 19540 H 1933.8 -1.1735 3.78213 0
M  V30 19541 H 1934.97 1.63683 4.30749 0
M  V30 19542 H 1933.29 1.33017 3.94583 0
M  V30 19543 H 1935.89 -1.14002 5.22406 0
M  V30 19544 H 1936.23 -1.91447 3.69667 0
M  V30 19545 H 1936.76 -0.23797 3.97088 0
M  V30 19546 H 1933.5 1.56542 6.36534 0
M  V30 19547 H 1933.02 -0.107102 5.99704 0
M  V30 19548 H 1934.7 0.259654 6.46479 0
M  V30 19549 N 1934.83 -1.57178 0.115259 0
M  V30 19550 C 1935.78 -2.15114 -0.836331 0
M  V30 19551 C 1936.75 -1.07511 -1.26612 0
M  V30 19552 O 1937.93 -1.354 -1.3443 0
M  V30 19553 C 1935.07 -2.75187 -2.08245 0
M  V30 19554 C 1934.19 -3.97086 -1.70137 0
M  V30 19555 C 1933.32 -4.45258 -2.89687 0
M  V30 19556 C 1932.36 -5.59697 -2.47801 0
M  V30 19557 N 1931.5 -6.0263 -3.60252 0
M  V30 19558 H 1936.34 -2.96106 -0.335434 0
M  V30 19559 H 1933.88 -1.46293 -0.15388 0
M  V30 19560 H 1935.83 -3.08145 -2.81252 0
M  V30 19561 H 1934.46 -1.96891 -2.558 0
M  V30 19562 H 1933.52 -3.70313 -0.870192 0
M  V30 19563 H 1934.83 -4.80085 -1.35352 0
M  V30 19564 H 1933.98 -4.80105 -3.70923 0
M  V30 19565 H 1932.72 -3.61201 -3.27696 0
M  V30 19566 H 1931.73 -5.24458 -1.64997 0
M  V30 19567 H 1932.95 -6.45517 -2.10913 0
M  V30 19568 H 1930.9 -5.21515 -3.97942 0
M  V30 19569 H 1930.81 -6.80474 -3.29379 0
M  V30 19570 H 1932.08 -6.42114 -4.41939 0
M  V30 19571 N 1936.31 0.158505 -1.56801 0
M  V30 19572 C 1937.26 1.21526 -1.98328 0
M  V30 19573 C 1938.25 1.45117 -0.873926 0
M  V30 19574 O 1939.46 1.45545 -1.05908 0
M  V30 19575 H 1935.83 0.408803 -0.631177 0
M  V30 19576 H 1937.81 0.838242 -2.86384 0
M  V30 19577 C 1936.55 2.54396 -2.37019 0
M  V30 19578 H 1935.88 2.3707 -3.21928 0
M  V30 19579 H 1937.32 3.26994 -2.69909 0
M  V30 19580 C 1935.78 3.14095 -1.21845 0
M  V30 19581 O 1936.31 3.98411 -0.51298 0
M  V30 19582 N 1934.51 2.73373 -0.985675 0
M  V30 19583 H 1934.06 2.04907 -1.56112 0
M  V30 19584 H 1934.02 3.13651 -0.216926 0
M  V30 19585 N 1937.79 1.51692 0.427485 0
M  V30 19586 C 1939.01 1.68956 1.20285 0
M  V30 19587 C 1939.44 0.390472 1.84003 0
M  V30 19588 O 1938.8 -0.650352 1.69234 0
M  V30 19589 C 1938.85 2.81368 2.25532 0
M  V30 19590 O 1937.95 2.45657 3.3125 0
M  V30 19591 H 1937.29 0.56304 0.351969 0
M  V30 19592 H 1939.82 1.98306 0.503588 0
M  V30 19593 H 1939.83 3.05742 2.70158 0
M  V30 19594 H 1938.51 3.7563 1.78535 0
M  V30 19595 H 1937.08 2.31889 2.9203 0
M  V30 19596 N 1939.27 -0.683564 1.42004 0
M  V30 19597 C 1940.54 -1.43894 1.32491 0
M  V30 19598 C 1940.92 -2.11058 -0.0418701 0
M  V30 19599 O 1940.27 -2.0259 -1.05686 0
M  V30 19600 C 1940.48 -2.44856 2.48689 0
M  V30 19601 C 1941.83 -3.09758 2.90405 0
M  V30 19602 O 1942.85 -2.55182 2.48516 0
M  V30 19603 O 1941.71 -4.08633 3.6288 0
M  V30 19604 H 1938.81 -0.641404 0.522044 0
M  V30 19605 H 1941.35 -0.713027 1.53994 0
M  V30 19606 H 1940.13 -1.93964 3.39843 0
M  V30 19607 H 1939.75 -3.24941 2.29127 0
M  V30 19608 N 1940.75 -1.28031 -0.919012 0
M  V30 19609 C 1941.99 -1.14258 -1.66217 0
M  V30 19610 C 1942.31 0.309269 -1.9314 0
M  V30 19611 O 1943.51 0.568038 -2.65491 0
M  V30 19612 C 1941.97 -1.99702 -2.99411 0
M  V30 19613 C 1941.58 -3.49596 -2.80155 0
M  V30 19614 C 1943.32 -1.94601 -3.77267 0
M  V30 19615 C 1941.23 -4.27209 -4.08958 0
M  V30 19616 H 1940.16 -0.424009 -0.623484 0
M  V30 19617 H 1942.81 -1.52521 -1.02028 0
M  V30 19618 H 1941.19 -1.5429 -3.64706 0
M  V30 19619 H 1942.37 -4.02929 -2.23574 0
M  V30 19620 H 1940.68 -3.56167 -2.15718 0
M  V30 19621 H 1943.28 -2.49859 -4.72731 0
M  V30 19622 H 1943.62 -0.92157 -4.05971 0
M  V30 19623 H 1944.15 -2.37954 -3.18783 0
M  V30 19624 H 1940.89 -5.30212 -3.8543 0
M  V30 19625 H 1940.41 -3.7865 -4.65171 0
M  V30 19626 H 1942.09 -4.36847 -4.77256 0
M  V30 19627 N 1942.22 1.12672 -1.10194 0
M  V30 19628 C 1943.64 1.36123 -0.833225 0
M  V30 19629 C 1943.84 1.93889 0.548569 0
M  V30 19630 O 1942.9 2.16347 1.30192 0
M  V30 19631 C 1944.21 2.30515 -1.93089 0
M  V30 19632 C 1945.76 2.44111 -1.95905 0
M  V30 19633 C 1946.23 3.41816 -3.04838 0
M  V30 19634 N 1947.72 3.49371 -3.04128 0
M  V30 19635 C 1948.46 4.24874 -3.85058 0
M  V30 19636 N 1947.95 5.03464 -4.75916 0
M  V30 19637 N 1949.75 4.20255 -3.73285 0
M  V30 19638 H 1941.9 0.735332 -1.99265 0
M  V30 19639 H 1944.16 0.386141 -0.865794 0
M  V30 19640 H 1943.87 1.95239 -2.92531 0
M  V30 19641 H 1943.74 3.30611 -1.81593 0
M  V30 19642 H 1946.13 2.78669 -0.97097 0
M  V30 19643 H 1946.21 1.43911 -2.11479 0
M  V30 19644 H 1945.85 3.07988 -4.03864 0
M  V30 19645 H 1945.78 4.41839 -2.86506 0
M  V30 19646 H 1948.27 2.93303 -2.38289 0
M  V30 19647 H 1948.59 5.58406 -5.34231 0
M  V30 19648 H 1946.93 5.02669 -4.79946 0
M  V30 19649 H 1950.12 3.57939 -3.01658 0
M  V30 19650 H 1950.3 4.78843 -4.36593 0
M  V30 19651 N 1943.7 0.89031 1.30043 0
M  V30 19652 C 1944.95 0.51044 1.95548 0
M  V30 19653 C 1945.27 -0.944562 1.70596 0
M  V30 19654 O 1944.54 -1.66482 1.0325 0
M  V30 19655 H 1943.12 0.185776 0.723531 0
M  V30 19656 H 1945.78 1.13455 1.58474 0
M  V30 19657 H 1944.88 0.685155 3.04487 0
M  V30 19658 N 1945.18 -1.43489 0.651812 0
M  V30 19659 C 1946.14 -2.29179 -0.0311937 0
M  V30 19660 C 1947.14 -1.42135 -0.751953 0
M  V30 19661 O 1948.33 -1.63781 -0.593416 0
M  V30 19662 C 1945.46 -3.24168 -1.0549 0
M  V30 19663 H 1946.66 -2.91061 0.722741 0
M  V30 19664 H 1944.21 -1.50746 0.412968 0
M  V30 19665 H 1944.95 -2.67177 -1.83812 0
M  V30 19666 H 1944.73 -3.88339 -0.541752 0
M  V30 19667 H 1946.22 -3.88487 -1.53193 0
M  V30 19668 N 1946.66 -0.393643 -1.52605 0
M  V30 19669 C 1947.59 0.430786 -2.29492 0
M  V30 19670 C 1948.57 1.0597 -1.33058 0
M  V30 19671 O 1949.75 1.07165 -1.61955 0
M  V30 19672 C 1946.88 1.55599 -3.10494 0
M  V30 19673 C 1945.84 1.05289 -4.14847 0
M  V30 19674 C 1945.16 2.2705 -4.841 0
M  V30 19675 C 1946.46 0.117789 -5.22167 0
M  V30 19676 H 1948.16 -0.210741 -2.98657 0
M  V30 19677 H 1945.7 -0.102795 -1.43633 0
M  V30 19678 H 1947.66 2.1396 -3.63042 0
M  V30 19679 H 1946.38 2.22517 -2.39069 0
M  V30 19680 H 1945.04 0.491788 -3.63286 0
M  V30 19681 H 1944.69 2.92487 -4.09219 0
M  V30 19682 H 1944.39 1.94047 -5.54635 0
M  V30 19683 H 1945.91 2.86045 -5.39454 0
M  V30 19684 H 1947.33 0.609718 -5.70049 0
M  V30 19685 H 1945.72 -0.122689 -5.99975 0
M  V30 19686 H 1946.79 -0.832053 -4.77708 0
M  V30 19687 N 1948.14 1.57115 -0.123593 0
M  V30 19688 C 1949.41 1.86893 0.577099 0
M  V30 19689 C 1949.79 1.02556 1.84514 0
M  V30 19690 O 1949.14 0.105755 2.28255 0
M  V30 19691 C 1949.35 3.38107 0.865122 0
M  V30 19692 C 1950.7 4.0681 1.21618 0
M  V30 19693 O 1951.72 3.43153 0.955237 0
M  V30 19694 O 1950.58 5.19186 1.70612 0
M  V30 19695 H 1947.68 0.773842 0.291716 0
M  V30 19696 H 1950.22 1.68959 -0.158443 0
M  V30 19697 H 1948.99 3.91286 -0.0332696 0
M  V30 19698 H 1948.62 3.61488 1.65566 0
M  V30 19699 N 1949.61 -0.150187 1.56883 0
M  V30 19700 C 1950.84 -0.88235 1.87695 0
M  V30 19701 C 1951.26 -1.74093 0.712272 0
M  V30 19702 O 1950.62 -1.78118 -0.338207 0
M  V30 19703 C 1950.67 -1.71754 3.1707 0
M  V30 19704 O 1949.77 -2.82145 3.00779 0
M  V30 19705 H 1949.11 -0.245947 0.616771 0
M  V30 19706 H 1951.64 -0.141963 2.04107 0
M  V30 19707 H 1951.65 -2.1132 3.4901 0
M  V30 19708 H 1950.33 -1.08704 4.01443 0
M  V30 19709 H 1948.91 -2.46008 2.8024 0
M  V30 19710 N 1951.09 -1.51916 -0.419434 0
M  V30 19711 C 1952.34 -1.64698 -1.16436 0
M  V30 19712 C 1952.65 -0.377878 -1.91915 0
M  V30 19713 O 1953.86 -0.385341 -2.68752 0
M  V30 19714 C 1952.32 -2.90939 -2.11854 0
M  V30 19715 C 1951.92 -4.2492 -1.4194 0
M  V30 19716 C 1953.67 -3.13083 -2.86669 0
M  V30 19717 C 1951.58 -5.42294 -2.35946 0
M  V30 19718 H 1950.51 -0.613496 -0.438337 0
M  V30 19719 H 1953.16 -1.78397 -0.429738 0
M  V30 19720 H 1951.54 -2.70916 -2.88826 0
M  V30 19721 H 1952.71 -4.5539 -0.70403 0
M  V30 19722 H 1951.03 -4.08797 -0.792071 0
M  V30 19723 H 1953.62 -3.97951 -3.57127 0
M  V30 19724 H 1953.97 -2.26891 -3.49036 0
M  V30 19725 H 1954.5 -3.33531 -2.168 0
M  V30 19726 H 1951.24 -6.30801 -1.78242 0
M  V30 19727 H 1950.76 -5.16177 -3.05485 0
M  V30 19728 H 1952.44 -5.74962 -2.96695 0
M  V30 19729 N 1952.57 0.676023 -1.42365 0
M  V30 19730 C 1953.8 1.46436 -1.46164 0
M  V30 19731 C 1954.21 1.8866 -0.0726092 0
M  V30 19732 O 1953.57 1.58056 0.912395 0
M  V30 19733 C 1953.62 2.71428 -2.38766 0
M  V30 19734 O 1953.34 2.30976 -3.72266 0
M  V30 19735 C 1954.84 3.65001 -2.51573 0
M  V30 19736 H 1952.06 0.450625 -0.49717 0
M  V30 19737 H 1954.61 0.830748 -1.86866 0
M  V30 19738 H 1952.76 3.30981 -2.01321 0
M  V30 19739 H 1953.18 3.11682 -4.21846 0
M  V30 19740 H 1954.65 4.49432 -3.20492 0
M  V30 19741 H 1955.13 4.10818 -1.55322 0
M  V30 19742 H 1955.73 3.11342 -2.89735 0
M  V30 19743 N 1954.05 1.28517 0.912209 0
M  V30 19744 C 1955 1.12575 2.01483 0
M  V30 19745 C 1955.97 0.0224628 1.66085 0
M  V30 19746 O 1957.15 0.18768 1.89875 0
M  V30 19747 C 1954.29 0.795229 3.35813 0
M  V30 19748 C 1953.4 1.97772 3.84071 0
M  V30 19749 C 1952.54 1.58768 5.06918 0
M  V30 19750 C 1951.58 2.73672 5.47513 0
M  V30 19751 N 1950.71 2.3515 6.6155 0
M  V30 19752 H 1955.55 2.06918 2.1445 0
M  V30 19753 H 1953.09 1.02983 1.05037 0
M  V30 19754 H 1955.05 0.584339 4.13088 0
M  V30 19755 H 1953.68 -0.111266 3.22608 0
M  V30 19756 H 1952.73 2.30069 3.0294 0
M  V30 19757 H 1954.04 2.83913 4.10115 0
M  V30 19758 H 1953.2 1.33894 5.91741 0
M  V30 19759 H 1951.94 0.697566 4.82686 0
M  V30 19760 H 1950.94 2.99242 4.61231 0
M  V30 19761 H 1952.17 3.63328 5.73733 0
M  V30 19762 H 1950.11 1.4861 6.38945 0
M  V30 19763 H 1950.03 3.14827 6.87328 0
M  V30 19764 H 1951.3 2.13564 7.49674 0
M  V30 19765 N 1955.53 -1.12086 1.1079 0
M  V30 19766 C 1956.76 -1.87222 0.873594 0
M  V30 19767 C 1957.16 -1.80099 -0.579728 0
M  V30 19768 O 1956.51 -1.17551 -1.41165 0
M  V30 19769 C 1956.57 -3.37136 1.24817 0
M  V30 19770 C 1956.23 -3.68031 2.70928 0
M  V30 19771 C 1957.23 -3.66084 3.69159 0
M  V30 19772 C 1954.92 -3.9725 3.07405 0
M  V30 19773 C 1956.91 -3.9292 5.01889 0
M  V30 19774 C 1954.6 -4.23745 4.40322 0
M  V30 19775 C 1955.59 -4.21567 5.37373 0
M  V30 19776 O 1955.28 -4.47403 6.67897 0
M  V30 19777 H 1955.01 -0.599114 0.31311 0
M  V30 19778 H 1957.57 -1.42723 1.47714 0
M  V30 19779 H 1955.8 -3.82207 0.587742 0
M  V30 19780 H 1957.49 -3.93623 0.990758 0
M  V30 19781 H 1958.25 -3.4357 3.42323 0
M  V30 19782 H 1954.13 -3.98085 2.32486 0
M  V30 19783 H 1957.68 -3.91136 5.77632 0
M  V30 19784 H 1953.57 -4.45734 4.66895 0
M  V30 19785 H 1954.34 -4.65004 6.73583 0
M  V30 19786 N 1957 -0.897194 -1.29569 0
M  V30 19787 C 1958.25 -0.521834 -1.95661 0
M  V30 19788 C 1958.58 0.931396 -1.70749 0
M  V30 19789 O 1957.83 1.67507 -1.01192 0
M  V30 19790 C 1958.13 -0.757743 -3.49275 0
M  V30 19791 C 1957.8 -2.18794 -3.94259 0
M  V30 19792 C 1956.46 -2.57901 -4.06252 0
M  V30 19793 C 1958.81 -3.11942 -4.17542 0
M  V30 19794 C 1956.14 -3.89341 -4.38897 0
M  V30 19795 C 1958.49 -4.42928 -4.51661 0
M  V30 19796 C 1957.16 -4.81911 -4.61864 0
M  V30 19797 H 1956.43 -0.190953 -0.715974 0
M  V30 19798 H 1959.07 -1.13537 -1.54212 0
M  V30 19799 H 1957.38 -0.0612622 -3.91752 0
M  V30 19800 H 1959.08 -0.446734 -3.98504 0
M  V30 19801 H 1955.67 -1.87443 -3.85439 0
M  V30 19802 H 1959.85 -2.82944 -4.07745 0
M  V30 19803 H 1955.11 -4.19269 -4.44998 0
M  V30 19804 H 1959.28 -5.15133 -4.68627 0
M  V30 19805 H 1956.91 -5.83797 -4.86914 0
M  V30 19806 N 1958.48 1.43142 -0.659413 0
M  V30 19807 C 1959.41 2.29102 0.0671619 0
M  V30 19808 C 1960.43 1.42846 0.780943 0
M  V30 19809 O 1961.62 1.66722 0.637666 0
M  V30 19810 C 1958.72 3.19915 1.11838 0
M  V30 19811 C 1957.89 4.34742 0.481505 0
M  V30 19812 C 1956.95 5.06384 1.43043 0
M  V30 19813 O 1955.97 5.61441 0.936648 0
M  V30 19814 N 1957.18 5.10461 2.76423 0
M  V30 19815 H 1959.94 2.92099 -0.670674 0
M  V30 19816 H 1957.5 1.53899 -0.50266 0
M  V30 19817 H 1959.49 3.64708 1.75413 0
M  V30 19818 H 1958.06 2.58474 1.75812 0
M  V30 19819 H 1957.28 3.92787 -0.333461 0
M  V30 19820 H 1958.57 5.08786 0.0371775 0
M  V30 19821 H 1957.97 4.67114 3.19095 0
M  V30 19822 H 1956.53 5.58952 3.35285 0
M  V30 19823 N 1959.96 0.40173 1.52394 0
M  V30 19824 C 1960.89 -0.4718 2.2327 0
M  V30 19825 C 1961.87 -1.05401 1.23812 0
M  V30 19826 O 1963.06 -1.10329 1.52839 0
M  V30 19827 C 1960.18 -1.6542 2.95557 0
M  V30 19828 C 1959.23 -1.19607 4.09385 0
M  V30 19829 S 1960.06 -0.16732 5.35239 0
M  V30 19830 C 1961.22 -1.35521 6.11052 0
M  V30 19831 H 1961.45 0.130025 2.97016 0
M  V30 19832 H 1958.98 0.185984 1.53276 0
M  V30 19833 H 1960.94 -2.33224 3.37812 0
M  V30 19834 H 1959.6 -2.22735 2.21468 0
M  V30 19835 H 1958.8 -2.07925 4.59111 0
M  V30 19836 H 1958.4 -0.596775 3.69208 0
M  V30 19837 H 1960.69 -2.28013 6.37978 0
M  V30 19838 H 1961.63 -0.898632 7.02375 0
M  V30 19839 H 1962.04 -1.57765 5.42006 0
M  V30 19840 N 1961.44 -1.57047 0.131923 0
M  V30 19841 C 1962.66 -2.00419 -0.533574 0
M  V30 19842 C 1963.09 -1.01125 -1.58605 0
M  V30 19843 O 1962.45 0.0152254 -1.81294 0
M  V30 19844 C 1962.49 -3.42611 -1.12472 0
M  V30 19845 O 1961.6 -3.46263 -2.23999 0
M  V30 19846 H 1960.94 -0.650739 -0.132043 0
M  V30 19847 H 1963.47 -2.03368 0.224211 0
M  V30 19848 H 1963.48 -3.81094 -1.45709 0
M  V30 19849 H 1962.15 -4.14392 -0.353895 0
M  V30 19850 H 1960.73 -3.1961 -1.92103 0
M  V30 19851 N 1962.92 0.141865 -1.5696 0
M  V30 19852 C 1963.85 1.17667 -2.01685 0
M  V30 19853 C 1964.83 1.44509 -0.897282 0
M  V30 19854 O 1966.01 1.55342 -1.16544 0
M  V30 19855 C 1963.14 2.50859 -2.40182 0
M  V30 19856 C 1962.1 2.38527 -3.55371 0
M  V30 19857 C 1961.42 3.76476 -3.79697 0
M  V30 19858 C 1962.72 1.86502 -4.87867 0
M  V30 19859 H 1964.42 0.804761 -2.88382 0
M  V30 19860 H 1961.96 0.385672 -1.38739 0
M  V30 19861 H 1963.92 3.2348 -2.70071 0
M  V30 19862 H 1962.64 2.89895 -1.50428 0
M  V30 19863 H 1961.3 1.68357 -3.25656 0
M  V30 19864 H 1960.95 4.12957 -2.87186 0
M  V30 19865 H 1960.65 3.69085 -4.5722 0
M  V30 19866 H 1962.17 4.50638 -4.12017 0
M  V30 19867 H 1963.58 2.48921 -5.16441 0
M  V30 19868 H 1961.98 1.89989 -5.69231 0
M  V30 19869 H 1963.05 0.821025 -4.77899 0
M  V30 19870 N 1964.39 1.52136 0.411372 0
M  V30 19871 C 1965.3 1.78205 1.52579 0
M  V30 19872 C 1966.32 0.667501 1.60687 0
M  V30 19873 O 1967.5 0.952661 1.77444 0
M  V30 19874 C 1964.56 1.9252 2.88335 0
M  V30 19875 C 1963.62 3.16421 2.90131 0
M  V30 19876 C 1962.86 3.30044 4.19412 0
M  V30 19877 O 1963.08 2.48985 5.13189 0
M  V30 19878 O 1962.01 4.23182 4.2802 0
M  V30 19879 H 1965.84 2.72791 1.33487 0
M  V30 19880 H 1963.42 1.36953 0.597004 0
M  V30 19881 H 1965.31 2.03771 3.68857 0
M  V30 19882 H 1963.98 1.01123 3.07499 0
M  V30 19883 H 1962.89 3.1063 2.08471 0
M  V30 19884 H 1964.22 4.07592 2.75916 0
M  V30 19885 N 1965.87 -0.668464 1.42721 0
M  V30 19886 C 1966.84 -1.76365 1.46384 0
M  V30 19887 C 1967.84 -1.56932 0.350554 0
M  V30 19888 O 1969.03 -1.63109 0.611658 0
M  V30 19889 C 1966.16 -3.15071 1.30164 0
M  V30 19890 H 1967.35 -1.74503 2.43903 0
M  V30 19891 H 1964.9 -0.878695 1.29262 0
M  V30 19892 H 1965.64 -3.22555 0.335926 0
M  V30 19893 H 1965.42 -3.3058 2.10853 0
M  V30 19894 H 1966.91 -3.94963 1.35625 0
M  V30 19895 N 1967.35 -1.28999 -0.905381 0
M  V30 19896 C 1968.26 -1.15513 -2.04191 0
M  V30 19897 C 1969.28 -0.0797116 -1.73817 0
M  V30 19898 O 1970.45 -0.290664 -1.99292 0
M  V30 19899 C 1967.52 -0.826901 -3.36695 0
M  V30 19900 C 1966.58 -1.98557 -3.80623 0
M  V30 19901 C 1965.81 -1.6729 -5.06803 0
M  V30 19902 O 1966.04 -0.591168 -5.67328 0
M  V30 19903 O 1964.97 -2.51914 -5.46647 0
M  V30 19904 H 1968.8 -2.10942 -2.18488 0
M  V30 19905 H 1966.38 -1.08397 -1.02813 0
M  V30 19906 H 1968.26 -0.658165 -4.16228 0
M  V30 19907 H 1966.94 0.0976541 -3.23553 0
M  V30 19908 H 1965.84 -2.20951 -3.0188 0
M  V30 19909 H 1967.18 -2.89112 -3.9834 0
M  V30 19910 N 1968.83 1.11497 -1.11383 0
M  V30 19911 C 1969.74 2.21101 -0.784315 0
M  V30 19912 C 1970.76 1.72574 0.222313 0
M  V30 19913 O 1971.93 2.01315 0.058632 0
M  V30 19914 C 1969 3.45925 -0.231713 0
M  V30 19915 C 1968.06 4.09243 -1.29687 0
M  V30 19916 C 1967.29 5.28108 -0.770542 0
M  V30 19917 O 1967.51 5.68998 0.399616 0
M  V30 19918 O 1966.45 5.81996 -1.53505 0
M  V30 19919 H 1970.27 2.51699 -1.69946 0
M  V30 19920 H 1967.86 1.20022 -0.889672 0
M  V30 19921 H 1969.74 4.21338 0.0721248 0
M  V30 19922 H 1968.42 3.1698 0.656146 0
M  V30 19923 H 1967.32 3.35564 -1.65371 0
M  V30 19924 H 1968.66 4.42365 -2.1581 0
M  V30 19925 N 1970.31 0.904053 1.29092 0
M  V30 19926 C 1971.72 0.600783 1.47861 0
M  V30 19927 C 1971.92 -0.856554 1.82388 0
M  V30 19928 O 1970.98 -1.6364 1.92297 0
M  V30 19929 C 1972.29 1.53035 2.58845 0
M  V30 19930 C 1973.84 1.53602 2.72719 0
M  V30 19931 C 1974.32 2.45197 3.86836 0
M  V30 19932 N 1975.81 2.43269 3.94176 0
M  V30 19933 C 1976.54 3.10843 4.81834 0
M  V30 19934 N 1976.04 3.87712 5.74153 0
M  V30 19935 N 1977.83 2.99979 4.75362 0
M  V30 19936 H 1969.98 1.84656 1.04957 0
M  V30 19937 H 1972.24 0.791479 0.52179 0
M  V30 19938 H 1971.95 2.5689 2.4021 0
M  V30 19939 H 1971.82 1.25414 3.5574 0
M  V30 19940 H 1974.21 0.504899 2.90749 0
M  V30 19941 H 1974.29 1.85262 1.76385 0
M  V30 19942 H 1973.94 3.48406 3.69562 0
M  V30 19943 H 1973.87 2.10844 4.82548 0
M  V30 19944 H 1976.36 1.87423 3.28148 0
M  V30 19945 H 1976.67 4.36317 6.37846 0
M  V30 19946 H 1975.02 3.91818 5.74024 0
M  V30 19947 H 1978.21 2.39437 4.02228 0
M  V30 19948 H 1978.38 3.52916 5.43465 0
M  V30 19949 N 1971.79 -1.4279 0.666995 0
M  V30 19950 C 1973.03 -2.01942 0.186305 0
M  V30 19951 C 1973.36 -1.52579 -1.20139 0
M  V30 19952 O 1972.64 -0.724677 -1.80496 0
M  V30 19953 C 1972.92 -3.59474 0.212322 0
M  V30 19954 C 1972.78 -4.19035 1.63491 0
M  V30 19955 C 1974.09 -4.37857 -0.443762 0
M  V30 19956 H 1971.21 -0.733747 0.0691733 0
M  V30 19957 H 1973.86 -1.69912 0.850298 0
M  V30 19958 H 1972.01 -3.86892 -0.353062 0
M  V30 19959 H 1973.68 -4.02598 2.25195 0
M  V30 19960 H 1971.92 -3.75161 2.178 0
M  V30 19961 H 1972.59 -5.28155 1.60486 0
M  V30 19962 H 1975.07 -4.16083 0.0374331 0
M  V30 19963 H 1973.94 -5.47478 -0.394887 0
M  V30 19964 H 1974.2 -4.15144 -1.52012 0
M  V30 19965 N 1973.26 -0.409806 -1.52179 0
M  V30 19966 C 1974.21 0.430025 -2.2859 0
M  V30 19967 C 1975.21 1.04523 -1.33309 0
M  V30 19968 O 1976.41 0.98335 -1.50765 0
M  V30 19969 H 1972.79 0.157459 -0.73533 0
M  V30 19970 H 1974.76 -0.235647 -2.97468 0
M  V30 19971 C 1973.51 1.53409 -3.12027 0
M  V30 19972 H 1972.83 1.07004 -3.85214 0
M  V30 19973 H 1974.27 2.09553 -3.68597 0
M  V30 19974 C 1972.73 2.50183 -2.25633 0
M  V30 19975 O 1973.26 3.54083 -1.89705 0
M  V30 19976 N 1971.46 2.20409 -1.8939 0
M  V30 19977 H 1971.01 1.35948 -2.18806 0
M  V30 19978 H 1970.97 2.85404 -1.31878 0
M  V30 19979 N 1974.74 1.56975 -0.14025 0
M  V30 19980 C 1975.7 2.15234 0.78784 0
M  V30 19981 C 1976.7 1.09243 1.17994 0
M  V30 19982 O 1977.89 1.34916 1.10197 0
M  V30 19983 C 1975.03 2.70994 2.06821 0
M  V30 19984 H 1976.22 2.98579 0.281166 0
M  V30 19985 H 1973.77 1.55918 0.109151 0
M  V30 19986 H 1974.51 1.91297 2.6187 0
M  V30 19987 H 1974.29 3.48532 1.79633 0
M  V30 19988 H 1975.78 3.15904 2.7312 0
M  V30 19989 N 1976.22 -0.133539 1.57033 0
M  V30 19990 C 1977.44 -0.862393 1.8862 0
M  V30 19991 C 1977.87 -1.73328 0.730696 0
M  V30 19992 O 1977.23 -1.78466 -0.319297 0
M  V30 19993 C 1977.28 -1.68381 3.18873 0
M  V30 19994 O 1976.38 -2.78939 3.03755 0
M  V30 19995 H 1975.72 -0.239391 0.619345 0
M  V30 19996 H 1978.25 -0.120306 2.04246 0
M  V30 19997 H 1978.26 -2.07606 3.51232 0
M  V30 19998 H 1976.94 -1.0444 4.02573 0
M  V30 19999 H 1975.51 -2.43022 2.82833 0
M  V30 20000 N 1977.7 -1.52352 -0.403298 0
M  V30 20001 C 1978.93 -1.70554 -1.17128 0
M  V30 20002 C 1979.34 -0.417576 -1.84124 0
M  V30 20003 O 1978.7 0.606862 -1.72115 0
M  V30 20004 C 1978.75 -2.8452 -2.23004 0
M  V30 20005 O 1978.47 -4.08329 -1.58742 0
M  V30 20006 C 1979.97 -3.14281 -3.12638 0
M  V30 20007 H 1977.19 -0.571419 -0.35174 0
M  V30 20008 H 1979.73 -1.98937 -0.473734 0
M  V30 20009 H 1977.89 -2.58639 -2.88417 0
M  V30 20010 H 1978.3 -4.71878 -2.28979 0
M  V30 20011 H 1979.78 -3.97523 -3.82988 0
M  V30 20012 H 1980.25 -2.28071 -3.7534 0
M  V30 20013 H 1980.86 -3.41948 -2.52887 0
M  V30 20014 N 1979.18 0.660885 -1.43074 0
M  V30 20015 C 1980.4 1.44878 -1.47709 0
M  V30 20016 C 1980.82 1.88573 -0.092615 0
M  V30 20017 O 1980.18 1.59015 0.89558 0
M  V30 20018 C 1980.23 2.6888 -2.41632 0
M  V30 20019 O 1979.95 2.27015 -3.74694 0
M  V30 20020 C 1981.45 3.62312 -2.5543 0
M  V30 20021 H 1978.67 0.445326 -0.501922 0
M  V30 20022 H 1981.21 0.810882 -1.87736 0
M  V30 20023 H 1979.37 3.28827 -2.0482 0
M  V30 20024 H 1979.78 3.07191 -4.25128 0
M  V30 20025 H 1981.26 4.46007 -3.25241 0
M  V30 20026 H 1981.73 4.09148 -1.59671 0
M  V30 20027 H 1982.34 3.08251 -2.93021 0
M  V30 20028 N 1980.65 1.29477 0.898527 0
M  V30 20029 C 1981.56 1.16595 2.03575 0
M  V30 20030 C 1982.58 0.0889285 1.73773 0
M  V30 20031 O 1983.76 0.301228 1.99135 0
M  V30 20032 C 1980.82 0.844745 3.36251 0
M  V30 20033 C 1979.88 2.00573 3.79564 0
M  V30 20034 C 1979.12 1.69975 5.05909 0
M  V30 20035 O 1979.34 0.621246 5.67007 0
M  V30 20036 O 1978.27 2.54809 5.45303 0
M  V30 20037 H 1982.1 2.12098 2.17367 0
M  V30 20038 H 1979.68 1.0894 1.02237 0
M  V30 20039 H 1981.57 0.680229 4.15874 0
M  V30 20040 H 1980.24 -0.080494 3.236 0
M  V30 20041 H 1979.15 2.22549 3.00704 0
M  V30 20042 H 1980.48 2.91221 3.96801 0
M  V30 20043 N 1982.13 -1.10905 1.11972 0
M  V30 20044 C 1983.54 -1.64274 0.887191 0
M  V30 20045 C 1983.89 -1.87448 -0.57946 0
M  V30 20046 O 1983.02 -1.61283 -1.4428 0
M  V30 20047 C 1983.61 -2.98425 1.604 0
M  V30 20048 C 1982.17 -3.48679 1.41774 0
M  V30 20049 C 1981.32 -2.2338 1.64307 0
M  V30 20050 H 1984.27 -0.944703 1.27519 0
M  V30 20051 H 1984.29 -3.65662 1.05222 0
M  V30 20052 H 1983.8 -2.81526 2.67142 0
M  V30 20053 H 1981.91 -3.70732 0.372672 0
M  V30 20054 H 1982.02 -4.2711 2.17058 0
M  V30 20055 H 1980.38 -2.31281 1.06683 0
M  V30 20056 H 1981.17 -2.09018 2.72335 0
M  V30 20057 N 1983.61 -0.910886 -1.2861 0
M  V30 20058 C 1984.56 -0.387197 -2.29355 0
M  V30 20059 C 1985.55 0.519603 -1.61234 0
M  V30 20060 O 1986.76 0.401165 -1.75473 0
M  V30 20061 H 1983.13 -0.106607 -0.744405 0
M  V30 20062 H 1985.1 -1.25002 -2.70956 0
M  V30 20063 C 1983.85 0.360115 -3.4583 0
M  V30 20064 H 1983.18 -0.328438 -3.98449 0
M  V30 20065 H 1984.62 0.69123 -4.18328 0
M  V30 20066 C 1983.08 1.56695 -2.98242 0
M  V30 20067 O 1983.61 2.66609 -3.00471 0
M  V30 20068 N 1981.81 1.41295 -2.53937 0
M  V30 20069 H 1981.36 0.51873 -2.52323 0
M  V30 20070 H 1981.32 2.22172 -2.22457 0
M  V30 20071 N 1985.09 1.42434 -0.674558 0
M  V30 20072 C 1986.31 2.06399 -0.203545 0
M  V30 20073 C 1986.74 1.50345 1.1304 0
M  V30 20074 O 1986.1 0.621837 1.70302 0
M  V30 20075 C 1986.14 3.60293 -0.148884 0
M  V30 20076 O 1985.25 4.02843 0.882667 0
M  V30 20077 H 1984.59 0.655698 -0.104672 0
M  V30 20078 H 1987.12 1.82572 -0.923502 0
M  V30 20079 H 1987.13 4.07991 0.0273375 0
M  V30 20080 H 1985.8 4.00464 -1.12256 0
M  V30 20081 H 1984.38 3.66694 0.677506 0
M  V30 20082 N 1986.57 0.417871 1.51959 0
M  V30 20083 C 1987.79 -0.154295 2.06324 0
M  V30 20084 C 1988.21 -1.38123 1.28714 0
M  V30 20085 O 1987.57 -1.79279 0.341355 0
M  V30 20086 C 1987.62 -0.496014 3.58081 0
M  V30 20087 O 1987.34 0.682208 4.32756 0
M  V30 20088 C 1988.84 -1.12097 4.28893 0
M  V30 20089 H 1986.06 -0.0165345 0.670796 0
M  V30 20090 H 1988.6 0.591345 1.95764 0
M  V30 20091 H 1986.76 -1.19155 3.6862 0
M  V30 20092 H 1987.17 0.394868 5.23012 0
M  V30 20093 H 1988.65 -1.31021 5.36225 0
M  V30 20094 H 1989.12 -2.09655 3.85929 0
M  V30 20095 H 1989.73 -0.465383 4.22746 0
M  V30 20096 N 1988.04 -1.56898 0.148573 0
M  V30 20097 C 1989.29 -1.96466 -0.50289 0
M  V30 20098 C 1989.62 -1.03355 -1.64412 0
M  V30 20099 O 1988.9 -0.0762411 -1.94351 0
M  V30 20100 C 1989.18 -3.45717 -1.00757 0
M  V30 20101 C 1989.03 -4.49605 0.132277 0
M  V30 20102 C 1990.35 -3.97506 -1.88883 0
M  V30 20103 H 1987.47 -0.714345 -0.181328 0
M  V30 20104 H 1990.11 -1.88601 0.230117 0
M  V30 20105 H 1988.26 -3.5255 -1.6322 0
M  V30 20106 H 1989.94 -4.54851 0.76867 0
M  V30 20107 H 1988.18 -4.26524 0.791189 0
M  V30 20108 H 1988.85 -5.51375 -0.262585 0
M  V30 20109 H 1991.33 -3.93162 -1.36246 0
M  V30 20110 H 1990.2 -5.02399 -2.21104 0
M  V30 20111 H 1990.46 -3.39956 -2.82635 0
M  V30 20112 N 1989.52 0.125209 -1.57102 0
M  V30 20113 C 1990.43 1.17286 -2.03177 0
M  V30 20114 C 1991.45 1.4571 -0.951035 0
M  V30 20115 O 1992.62 1.56949 -1.2621 0
M  V30 20116 C 1989.69 2.4811 -2.42161 0
M  V30 20117 C 1988.75 2.2714 -3.64288 0
M  V30 20118 C 1987.98 3.51726 -4.01404 0
M  V30 20119 O 1988.21 4.58785 -3.38929 0
M  V30 20120 O 1987.14 3.43096 -4.94539 0
M  V30 20121 H 1990.97 0.811619 -2.92654 0
M  V30 20122 H 1988.55 0.335551 -1.45583 0
M  V30 20123 H 1990.43 3.252 -2.67998 0
M  V30 20124 H 1989.11 2.83721 -1.55833 0
M  V30 20125 H 1988.02 1.47929 -3.4361 0
M  V30 20126 H 1989.35 1.96435 -4.51303 0
M  V30 20127 N 1991 1.52564 0.395213 0
M  V30 20128 C 1991.93 1.73146 1.50177 0
M  V30 20129 C 1992.95 0.611895 1.50863 0
M  V30 20130 O 1994.13 0.887429 1.54877 0
M  V30 20131 C 1991.23 1.76943 2.89041 0
M  V30 20132 C 1990.41 3.06156 3.12389 0
M  V30 20133 C 1989.47 3.01581 4.31202 0
M  V30 20134 O 1988.49 3.75459 4.27807 0
M  V30 20135 N 1989.69 2.20335 5.37059 0
M  V30 20136 H 1992.46 2.68617 1.3291 0
M  V30 20137 H 1990.02 1.50975 0.584663 0
M  V30 20138 H 1992.01 1.71396 3.66613 0
M  V30 20139 H 1990.58 0.888857 2.99697 0
M  V30 20140 H 1989.8 3.25242 2.22737 0
M  V30 20141 H 1991.09 3.91607 3.2484 0
M  V30 20142 H 1990.49 1.59768 5.4267 0
M  V30 20143 H 1989.05 2.20634 6.13322 0
M  V30 20144 N 1992.48 -0.653289 1.43422 0
M  V30 20145 C 1993.7 -1.4459 1.4869 0
M  V30 20146 C 1994.13 -1.87801 0.10599 0
M  V30 20147 O 1993.49 -1.5737 -0.90025 0
M  V30 20148 C 1993.53 -2.65713 2.43781 0
M  V30 20149 O 1992.64 -3.64767 1.92402 0
M  V30 20150 H 1991.98 -0.433532 0.502938 0
M  V30 20151 H 1994.51 -0.799423 1.88336 0
M  V30 20152 H 1994.52 -3.13528 2.61082 0
M  V30 20153 H 1993.19 -2.33604 3.44096 0
M  V30 20154 H 1991.77 -3.2391 1.84761 0
M  V30 20155 N 1993.96 -1.29952 -0.891648 0
M  V30 20156 C 1994.92 -1.15756 -1.97821 0
M  V30 20157 C 1995.92 -0.0906975 -1.60544 0
M  V30 20158 O 1997.11 -0.338283 -1.70884 0
M  V30 20159 C 1994.24 -0.771976 -3.32044 0
M  V30 20160 H 1995.43 -2.12281 -2.11842 0
M  V30 20161 H 1992.99 -1.13253 -1.07719 0
M  V30 20162 H 1993.72 0.193059 -3.23725 0
M  V30 20163 H 1993.51 -1.54291 -3.60467 0
M  V30 20164 H 1995 -0.695941 -4.1176 0
M  V30 20165 N 1995.44 1.1031 -1.12559 0
M  V30 20166 C 1996.37 2.18738 -0.817073 0
M  V30 20167 C 1997.35 1.68675 0.219681 0
M  V30 20168 O 1998.53 1.94033 0.0805889 0
M  V30 20169 C 1995.66 3.46231 -0.272317 0
M  V30 20170 C 1994.62 4.09575 -1.24228 0
M  V30 20171 C 1993.94 5.31784 -0.557693 0
M  V30 20172 C 1995.24 4.53135 -2.59743 0
M  V30 20173 H 1996.94 2.44802 -1.72372 0
M  V30 20174 H 1994.48 1.17658 -0.830221 0
M  V30 20175 H 1996.43 4.21377 -0.0442049 0
M  V30 20176 H 1995.16 3.19661 0.669677 0
M  V30 20177 H 1993.82 3.36437 -1.45622 0
M  V30 20178 H 1993.47 5.0149 0.389484 0
M  V30 20179 H 1993.17 5.75117 -1.20473 0
M  V30 20180 H 1994.69 6.0966 -0.338649 0
M  V30 20181 H 1996.1 5.19548 -2.42369 0
M  V30 20182 H 1994.5 5.07322 -3.20537 0
M  V30 20183 H 1995.57 3.65989 -3.18088 0
M  V30 20184 N 1996.91 0.917694 1.28125 0
M  V30 20185 C 1997.85 0.353528 2.25445 0
M  V30 20186 C 1998.82 -0.544478 1.53213 0
M  V30 20187 O 2000.01 -0.487244 1.82094 0
M  V30 20188 C 1997.14 -0.494267 3.35074 0
M  V30 20189 C 1996.18 0.338908 4.25151 0
M  V30 20190 S 1997.01 1.74815 5.06162 0
M  V30 20191 C 1998.17 0.907763 6.19282 0
M  V30 20192 H 1998.4 1.17837 2.7295 0
M  V30 20193 H 1995.94 0.719206 1.36626 0
M  V30 20194 H 1997.89 -0.977577 3.9869 0
M  V30 20195 H 1996.56 -1.29354 2.86228 0
M  V30 20196 H 1995.75 -0.309531 5.03049 0
M  V30 20197 H 1995.35 0.756018 3.66279 0
M  V30 20198 H 1997.64 0.139193 6.77357 0
M  V30 20199 H 1998.59 1.65941 6.88382 0
M  V30 20200 H 1998.99 0.454194 5.6267 0
M  V30 20201 N 1998.39 -1.42074 0.682102 0
M  V30 20202 C 1999.81 -1.55662 0.352347 0
M  V30 20203 C 2000.01 -1.66032 -1.14174 0
M  V30 20204 O 1999.06 -1.63128 -1.92732 0
M  V30 20205 C 2000.38 -2.80285 1.08907 0
M  V30 20206 C 2001.92 -2.94066 1.0721 0
M  V30 20207 C 2002.4 -4.2156 1.7903 0
M  V30 20208 N 2003.89 -4.28488 1.75933 0
M  V30 20209 C 2004.63 -5.25968 2.28354 0
M  V30 20210 N 2004.12 -6.29557 2.89188 0
M  V30 20211 N 2005.91 -5.17815 2.18686 0
M  V30 20212 H 1998.07 -1.33588 1.65131 0
M  V30 20213 H 2000.33 -0.643549 0.696096 0
M  V30 20214 H 2000.03 -2.78786 2.14409 0
M  V30 20215 H 1999.91 -3.71399 0.658975 0
M  V30 20216 H 2002.3 -2.95089 0.0253867 0
M  V30 20217 H 2002.38 -2.04163 1.54114 0
M  V30 20218 H 2002.02 -4.21298 2.83673 0
M  V30 20219 H 2001.95 -5.10411 1.2957 0
M  V30 20220 H 2004.44 -3.54257 1.31568 0
M  V30 20221 H 2004.75 -7.00306 3.26789 0
M  V30 20222 H 2003.1 -6.30098 2.9326 0
M  V30 20223 H 2006.29 -4.3581 1.70843 0
M  V30 20224 H 2006.46 -5.9362 2.59845 0
M  V30 20225 N 1999.87 -0.425924 -1.51735 0
M  V30 20226 C 2001.15 0.203721 -1.94536 0
M  V30 20227 C 2001.53 1.61124 -1.3639 0
M  V30 20228 O 2000.87 2.21871 -0.54638 0
M  V30 20229 C 2001.08 0.193041 -3.48466 0
M  V30 20230 C 2002.43 0.404204 -4.22672 0
M  V30 20231 O 2003.46 0.271662 -3.55163 0
M  V30 20232 O 2002.32 0.666926 -5.42415 0
M  V30 20233 H 1999.41 0.136115 -0.815722 0
M  V30 20234 H 2001.96 -0.48308 -1.62679 0
M  V30 20235 H 2000.73 -0.791421 -3.83213 0
M  V30 20236 H 2000.35 0.923235 -3.86733 0
M  V30 20237 N 2001.35 1.56817 -0.156891 0
M  V30 20238 C 2002.76 1.58349 0.199431 0
M  V30 20239 C 2002.96 1.17163 1.63937 0
M  V30 20240 O 2002.02 0.87651 2.36799 0
M  V30 20241 C 2003.33 3.00622 -0.0682996 0
M  V30 20242 C 2004.88 3.13 -0.00536951 0
M  V30 20243 C 2005.36 4.57339 -0.245899 0
M  V30 20244 N 2006.85 4.62797 -0.19317 0
M  V30 20245 C 2007.58 5.72308 -0.353652 0
M  V30 20246 N 2007.08 6.90431 -0.5724 0
M  V30 20247 N 2008.87 5.61349 -0.290563 0
M  V30 20248 H 2001.02 1.8188 -1.09697 0
M  V30 20249 H 2003.28 0.842304 -0.435002 0
M  V30 20250 H 2002.99 3.3518 -1.06524 0
M  V30 20251 H 2002.86 3.71616 0.646647 0
M  V30 20252 H 2005.25 2.78277 0.98213 0
M  V30 20253 H 2005.33 2.44472 -0.752801 0
M  V30 20254 H 2004.98 4.92768 -1.23054 0
M  V30 20255 H 2004.91 5.24007 0.521974 0
M  V30 20256 H 2007.4 3.77889 -0.0291566 0
M  V30 20257 H 2007.71 7.69761 -0.684694 0
M  V30 20258 H 2006.06 6.92328 -0.608841 0
M  V30 20259 H 2009.25 4.67945 -0.120361 0
M  V30 20260 H 2009.42 6.46644 -0.419064 0
M  V30 20261 N 2002.83 -0.116876 1.57166 0
M  V30 20262 C 2004.07 -0.825509 1.85238 0
M  V30 20263 C 2004.4 -1.79427 0.742936 0
M  V30 20264 O 2003.68 -1.92873 -0.251043 0
M  V30 20265 C 2003.96 -1.57353 3.23901 0
M  V30 20266 C 2003.82 -0.624227 4.45447 0
M  V30 20267 C 2005.13 -2.52922 3.60164 0
M  V30 20268 H 2002.25 -0.298653 0.673777 0
M  V30 20269 H 2004.9 -0.0897002 1.89788 0
M  V30 20270 H 2003.05 -2.20078 3.20153 0
M  V30 20271 H 2004.72 -0.00566556 4.613 0
M  V30 20272 H 2002.96 0.0640779 4.33753 0
M  V30 20273 H 2003.63 -1.1843 5.39146 0
M  V30 20274 H 2006.11 -2.00302 3.64717 0
M  V30 20275 H 2004.98 -3.02291 4.58161 0
M  V30 20276 H 2005.24 -3.35684 2.87695 0
M  V30 20277 N 2004.3 -1.52772 -0.387116 0
M  V30 20278 C 2005.21 -1.8061 -1.49724 0
M  V30 20279 C 2006.23 -0.692981 -1.59605 0
M  V30 20280 O 2007.41 -0.98077 -1.75906 0
M  V30 20281 C 2004.47 -1.97083 -2.85236 0
M  V30 20282 C 2003.53 -3.20997 -2.8506 0
M  V30 20283 C 2002.76 -3.36675 -4.14108 0
M  V30 20284 O 2002.99 -2.57118 -5.09163 0
M  V30 20285 O 2001.92 -4.29938 -4.21233 0
M  V30 20286 H 2005.75 -2.7488 -1.2913 0
M  V30 20287 H 2003.33 -1.37886 -0.57514 0
M  V30 20288 H 2005.21 -2.09614 -3.65568 0
M  V30 20289 H 2003.89 -1.06002 -3.05852 0
M  V30 20290 H 2002.8 -3.13907 -2.03503 0
M  V30 20291 H 2004.13 -4.1193 -2.69396 0
M  V30 20292 N 2005.78 0.645673 -1.43767 0
M  V30 20293 C 2007.06 1.40331 -1.3626 0
M  V30 20294 C 2007.44 2.11095 -0.0141031 0
M  V30 20295 O 2006.79 2.05321 1.00277 0
M  V30 20296 C 2007 2.38177 -2.55094 0
M  V30 20297 C 2008.34 3.01949 -2.98516 0
M  V30 20298 O 2009.37 2.48504 -2.55195 0
M  V30 20299 O 2008.23 3.98868 -3.73586 0
M  V30 20300 H 2005.32 0.627337 -0.538866 0
M  V30 20301 H 2007.87 0.671948 -1.5583 0
M  V30 20302 H 2006.64 1.84886 -3.44866 0
M  V30 20303 H 2006.26 3.18752 -2.37662 0
M  V30 20304 N 2007.26 1.30423 0.884744 0
M  V30 20305 C 2008.51 1.19435 1.63899 0
M  V30 20306 C 2008.84 -0.25033 1.9258 0
M  V30 20307 O 2008.11 -1.17904 1.5469 0
M  V30 20308 C 2008.4 2.02357 2.97865 0
M  V30 20309 C 2008.25 3.55046 2.76156 0
M  V30 20310 C 2009.57 1.86156 3.98791 0
M  V30 20311 H 2006.69 0.435234 0.594761 0
M  V30 20312 H 2009.33 1.60058 1.0238 0
M  V30 20313 H 2007.48 1.67842 3.50373 0
M  V30 20314 H 2009.15 3.99622 2.30434 0
M  V30 20315 H 2007.39 3.79218 2.10657 0
M  V30 20316 H 2008.07 4.08356 3.71415 0
M  V30 20317 H 2010.54 2.16332 3.55443 0
M  V30 20318 H 2009.42 2.46501 4.90437 0
M  V30 20319 H 2009.68 0.820775 4.34414 0
M  V30 20320 N 2008.74 -1.09711 1.13142 0
M  V30 20321 C 2009.67 -2.1553 0.749806 0
M  V30 20322 C 2010.65 -1.60466 -0.262593 0
M  V30 20323 O 2011.83 -1.87863 -0.154785 0
M  V30 20324 C 2008.96 -3.38518 0.111052 0
M  V30 20325 C 2008.01 -4.12297 1.09147 0
M  V30 20326 S 2008.84 -4.66885 2.62257 0
M  V30 20327 C 2009.99 -5.93176 1.99733 0
M  V30 20328 H 2010.23 -2.47568 1.64613 0
M  V30 20329 H 2007.76 -1.21615 0.951273 0
M  V30 20330 H 2009.72 -4.09731 -0.251096 0
M  V30 20331 H 2008.38 -3.04704 -0.762499 0
M  V30 20332 H 2007.57 -5.00507 0.592307 0
M  V30 20333 H 2007.17 -3.46932 1.39694 0
M  V30 20334 H 2009.47 -6.64023 1.34461 0
M  V30 20335 H 2010.41 -6.47767 2.86013 0
M  V30 20336 H 2010.82 -5.45557 1.45009 0
M  V30 20337 N 2010.22 -0.924476 -1.27637 0
M  V30 20338 C 2011.15 -0.365478 -2.25254 0
M  V30 20339 C 2012.13 0.536345 -1.535 0
M  V30 20340 O 2013.31 0.47758 -1.8235 0
M  V30 20341 C 2010.44 0.47649 -3.35332 0
M  V30 20342 C 2009.48 -0.36145 -4.24966 0
M  V30 20343 S 2010.32 -1.77496 -5.05228 0
M  V30 20344 C 2011.47 -0.940592 -6.18792 0
M  V30 20345 H 2011.71 -1.19283 -2.72321 0
M  V30 20346 H 2009.24 -0.726442 -1.36243 0
M  V30 20347 H 2011.2 0.95642 -3.99203 0
M  V30 20348 H 2009.86 1.27834 -2.8691 0
M  V30 20349 H 2009.05 0.282848 -5.03206 0
M  V30 20350 H 2008.65 -0.775432 -3.65873 0
M  V30 20351 H 2010.95 -0.175113 -6.77274 0
M  V30 20352 H 2011.89 -1.69589 -6.87492 0
M  V30 20353 H 2012.3 -0.484027 -5.62421 0
M  V30 20354 N 2011.69 1.41711 -0.689627 0
M  V30 20355 C 2012.6 2.34591 -0.0208935 0
M  V30 20356 C 2013.62 1.55906 0.772616 0
M  V30 20357 O 2014.8 1.88412 0.711542 0
M  V30 20358 C 2011.86 3.34589 0.908354 0
M  V30 20359 C 2010.92 4.29165 0.107717 0
M  V30 20360 C 2010.16 5.24386 0.992705 0
M  V30 20361 O 2010.38 5.24907 2.23224 0
M  V30 20362 O 2009.31 6.00249 0.445563 0
M  V30 20363 H 2013.14 2.93343 -0.786347 0
M  V30 20364 H 2010.72 1.42464 -0.449929 0
M  V30 20365 H 2012.61 3.95982 1.44138 0
M  V30 20366 H 2011.28 2.78288 1.6534 0
M  V30 20367 H 2010.19 3.71139 -0.469771 0
M  V30 20368 H 2011.52 4.88547 -0.598537 0
M  V30 20369 N 2013.17 0.433965 1.51507 0
M  V30 20370 C 2014.59 0.0860823 1.59368 0
M  V30 20371 C 2014.79 -1.40421 1.44513 0
M  V30 20372 O 2013.84 -2.17377 1.28465 0
M  V30 20373 C 2015.16 0.603181 2.94588 0
M  V30 20374 C 2016.71 0.563326 3.07889 0
M  V30 20375 C 2017.18 1.05734 4.45628 0
M  V30 20376 N 2018.67 1.01519 4.51938 0
M  V30 20377 C 2019.41 1.36835 5.56834 0
M  V30 20378 N 2018.9 1.79419 6.69164 0
M  V30 20379 N 2020.7 1.28673 5.47174 0
M  V30 20380 H 2012.85 1.40366 1.59408 0
M  V30 20381 H 2015.11 0.578206 0.751253 0
M  V30 20382 H 2014.82 1.64576 3.10818 0
M  V30 20383 H 2014.69 0.0262621 3.77191 0
M  V30 20384 H 2017.08 -0.470257 2.91329 0
M  V30 20385 H 2017.16 1.17661 2.27134 0
M  V30 20386 H 2016.8 2.08938 4.62934 0
M  V30 20387 H 2016.73 0.420634 5.24917 0
M  V30 20388 H 2019.22 0.702422 3.71314 0
M  V30 20389 H 2019.54 2.04612 7.45221 0
M  V30 20390 H 2017.88 1.83343 6.70381 0
M  V30 20391 H 2021.07 0.952726 4.58302 0
M  V30 20392 H 2021.24 1.56524 6.28812 0
M  V30 20393 N 2014.65 -1.56732 0.165206 0
M  V30 20394 C 2015.56 -2.2125 -0.780107 0
M  V30 20395 C 2016.58 -1.20227 -1.25784 0
M  V30 20396 O 2017.75 -1.52868 -1.31124 0
M  V30 20397 C 2014.82 -2.83579 -1.99459 0
M  V30 20398 C 2013.88 -3.99784 -1.56434 0
M  V30 20399 C 2013.11 -4.5913 -2.72094 0
M  V30 20400 O 2013.33 -4.17363 -3.88799 0
M  V30 20401 O 2012.27 -5.49101 -2.46519 0
M  V30 20402 H 2016.09 -3.02578 -0.260803 0
M  V30 20403 H 2013.68 -1.49268 -0.0627015 0
M  V30 20404 H 2015.56 -3.23123 -2.70499 0
M  V30 20405 H 2014.24 -2.05251 -2.50307 0
M  V30 20406 H 2013.14 -3.64921 -0.823629 0
M  V30 20407 H 2014.48 -4.79686 -1.10284 0
M  V30 20408 N 2016.13 0.10854 -1.57226 0
M  V30 20409 C 2017.35 0.832276 -1.89968 0
M  V30 20410 C 2017.78 1.72143 -0.758179 0
M  V30 20411 O 2017.14 1.78952 0.290864 0
M  V30 20412 C 2017.18 1.63287 -3.21512 0
M  V30 20413 O 2016.29 2.74071 -3.08154 0
M  V30 20414 H 2015.63 0.229508 -0.623075 0
M  V30 20415 H 2018.16 0.0877974 -2.04412 0
M  V30 20416 H 2018.17 2.01992 -3.5449 0
M  V30 20417 H 2016.84 0.98022 -4.04184 0
M  V30 20418 H 2015.42 2.38492 -2.86664 0
M  V30 20419 N 2017.61 1.52975 0.379009 0
M  V30 20420 C 2018.54 1.74729 1.48332 0
M  V30 20421 C 2019.55 0.627862 1.50206 0
M  V30 20422 O 2020.74 0.903805 1.53927 0
M  V30 20423 C 2017.84 1.79998 2.87148 0
M  V30 20424 C 2017.01 3.09452 3.09125 0
M  V30 20425 C 2016.07 3.06138 4.27979 0
M  V30 20426 O 2015.1 3.79976 4.23801 0
M  V30 20427 N 2016.3 2.26019 5.34692 0
M  V30 20428 H 2019.07 2.70011 1.30054 0
M  V30 20429 H 2016.63 1.51586 0.568617 0
M  V30 20430 H 2018.62 1.75275 3.64775 0
M  V30 20431 H 2017.19 0.920593 2.98737 0
M  V30 20432 H 2016.41 3.27586 2.19274 0
M  V30 20433 H 2017.7 3.9503 3.20669 0
M  V30 20434 H 2017.09 1.65515 5.40945 0
M  V30 20435 H 2015.65 2.27126 6.10948 0
M  V30 20436 N 2019.08 -0.63804 1.44107 0
M  V30 20437 C 2020.33 -1.39772 1.46526 0
M  V30 20438 C 2020.66 -1.94267 0.0952359 0
M  V30 20439 O 2019.91 -1.73674 -0.901993 0
M  V30 20440 C 2020.21 -2.58567 2.46734 0
M  V30 20441 C 2019.88 -2.22403 3.92234 0
M  V30 20442 C 2018.54 -2.12252 4.31859 0
M  V30 20443 C 2020.89 -1.93717 4.83863 0
M  V30 20444 C 2018.22 -1.71594 5.61046 0
M  V30 20445 C 2020.57 -1.54553 6.1343 0
M  V30 20446 C 2019.24 -1.42939 6.52016 0
M  V30 20447 H 2018.51 -0.511463 0.536177 0
M  V30 20448 H 2021.15 -0.724184 1.77279 0
M  V30 20449 H 2019.46 -3.31123 2.0944 0
M  V30 20450 H 2021.16 -3.16791 2.45855 0
M  V30 20451 H 2017.75 -2.31219 3.60882 0
M  V30 20452 H 2021.93 -2.00472 4.5401 0
M  V30 20453 H 2017.19 -1.612 5.89766 0
M  V30 20454 H 2021.36 -1.31393 6.83892 0
M  V30 20455 H 2018.99 -1.11206 7.52022 0
M  V30 20456 N 2020.56 -1.3089 -0.877815 0
M  V30 20457 C 2021.51 -1.17878 -1.98427 0
M  V30 20458 C 2022.48 -0.0664893 -1.65967 0
M  V30 20459 O 2023.66 -0.237956 -1.8931 0
M  V30 20460 C 2020.8 -0.883984 -3.33586 0
M  V30 20461 C 2019.92 -2.07885 -3.78692 0
M  V30 20462 C 2019.05 -1.72152 -5.02531 0
M  V30 20463 C 2018.09 -2.88092 -5.40064 0
M  V30 20464 N 2017.23 -2.52607 -6.55083 0
M  V30 20465 H 2022.07 -2.12531 -2.08889 0
M  V30 20466 H 2019.61 -1.05732 -1.0227 0
M  V30 20467 H 2021.56 -0.693656 -4.11393 0
M  V30 20468 H 2020.19 0.0256933 -3.2279 0
M  V30 20469 H 2019.25 -2.3802 -2.96733 0
M  V30 20470 H 2020.56 -2.94687 -4.02444 0
M  V30 20471 H 2019.71 -1.49536 -5.87983 0
M  V30 20472 H 2018.45 -0.825297 -4.80666 0
M  V30 20473 H 2017.46 -3.11366 -4.53135 0
M  V30 20474 H 2018.68 -3.78412 -5.63898 0
M  V30 20475 H 2016.63 -1.65499 -6.3478 0
M  V30 20476 H 2016.54 -3.3294 -6.78739 0
M  V30 20477 H 2017.81 -2.33365 -7.43748 0
M  V30 20478 N 2022.04 1.0911 -1.13723 0
M  V30 20479 C 2022.95 2.19388 -0.831037 0
M  V30 20480 C 2023.97 1.73007 0.185658 0
M  V30 20481 O 2025.14 2.01394 0.015917 0
M  V30 20482 C 2022.21 3.45355 -0.305036 0
M  V30 20483 C 2021.27 4.064 -1.38338 0
M  V30 20484 C 2020.5 5.26355 -0.882388 0
M  V30 20485 O 2020.72 5.69718 0.278833 0
M  V30 20486 O 2019.66 5.78609 -1.65816 0
M  V30 20487 H 2023.48 2.48037 -1.75246 0
M  V30 20488 H 2021.07 1.18108 -0.91493 0
M  V30 20489 H 2022.95 4.21396 -0.0172636 0
M  V30 20490 H 2021.63 3.18301 0.588762 0
M  V30 20491 H 2020.53 3.31981 -1.72452 0
M  V30 20492 H 2021.87 4.37688 -2.25144 0
M  V30 20493 N 2023.52 0.931232 1.27145 0
M  V30 20494 C 2024.47 0.4317 2.26727 0
M  V30 20495 C 2025.44 -0.503295 1.58291 0
M  V30 20496 O 2026.62 -0.421681 1.86082 0
M  V30 20497 C 2023.76 -0.306208 3.43739 0
M  V30 20498 C 2022.87 0.663307 4.26877 0
M  V30 20499 C 2022.01 -0.0947979 5.31115 0
M  V30 20500 C 2021.05 0.867191 6.05926 0
M  V30 20501 N 2020.18 0.141485 7.01957 0
M  V30 20502 H 2025.02 1.28587 2.6883 0
M  V30 20503 H 2022.56 0.64533 1.32189 0
M  V30 20504 H 2024.52 -0.750387 4.10396 0
M  V30 20505 H 2023.15 -1.12458 3.02577 0
M  V30 20506 H 2022.2 1.22601 3.60102 0
M  V30 20507 H 2023.51 1.39836 4.78798 0
M  V30 20508 H 2022.67 -0.598728 6.03738 0
M  V30 20509 H 2021.41 -0.862794 4.80007 0
M  V30 20510 H 2020.41 1.38234 5.32139 0
M  V30 20511 H 2021.64 1.63503 6.59123 0
M  V30 20512 H 2019.58 -0.608201 6.53174 0
M  V30 20513 H 2019.5 0.816044 7.51583 0
M  V30 20514 H 2020.77 -0.341677 7.78751 0
M  V30 20515 N 2025 -1.41343 0.697132 0
M  V30 20516 C 2025.93 -2.29199 -0.00639609 0
M  V30 20517 C 2026.94 -1.44867 -0.742796 0
M  V30 20518 O 2028.13 -1.68354 -0.593239 0
M  V30 20519 C 2025.23 -3.22767 -1.03317 0
M  V30 20520 C 2024.4 -4.35865 -0.366071 0
M  V30 20521 C 2023.46 -5.09999 -1.29567 0
M  V30 20522 O 2022.49 -5.63727 -0.787462 0
M  V30 20523 N 2023.69 -5.1761 -2.62792 0
M  V30 20524 H 2026.46 -2.90219 0.747884 0
M  V30 20525 H 2024.02 -1.52512 0.543287 0
M  V30 20526 H 2026.01 -3.69231 -1.65682 0
M  V30 20527 H 2024.58 -2.63045 -1.68897 0
M  V30 20528 H 2023.8 -3.91765 0.437484 0
M  V30 20529 H 2025.09 -5.08706 0.0977313 0
M  V30 20530 H 2024.49 -4.7541 -3.06598 0
M  V30 20531 H 2023.04 -5.67645 -3.20348 0
M  V30 20532 N 2026.48 -0.441993 -1.51275 0
M  V30 20533 C 2027.39 0.373145 -2.31613 0
M  V30 20534 C 2028.4 1.02333 -1.40726 0
M  V30 20535 O 2029.58 1.01768 -1.73796 0
M  V30 20536 C 2026.64 1.45705 -3.14597 0
M  V30 20537 C 2025.7 0.826508 -4.21269 0
M  V30 20538 C 2024.94 1.85876 -5.00286 0
M  V30 20539 O 2025.16 3.08159 -4.79994 0
M  V30 20540 O 2024.09 1.44671 -5.84255 0
M  V30 20541 H 2027.92 -0.282837 -3.0238 0
M  V30 20542 H 2025.5 -0.204432 -1.47995 0
M  V30 20543 H 2027.39 2.08556 -3.66172 0
M  V30 20544 H 2026.06 2.09703 -2.46589 0
M  V30 20545 H 2024.97 0.15982 -3.73758 0
M  V30 20546 H 2026.3 0.229942 -4.91663 0
M  V30 20547 N 2027.95 1.56642 -0.173515 0
M  V30 20548 C 2028.86 2.2166 0.768363 0
M  V30 20549 C 2029.88 1.20892 1.25144 0
M  V30 20550 O 2031.06 1.53561 1.30311 0
M  V30 20551 C 2028.12 2.84632 1.97953 0
M  V30 20552 C 2027.18 4.00608 1.54312 0
M  V30 20553 C 2026.41 4.60567 2.69655 0
M  V30 20554 O 2026.64 4.19419 3.8658 0
M  V30 20555 O 2025.57 5.50401 2.43604 0
M  V30 20556 H 2029.4 3.02712 0.244753 0
M  V30 20557 H 2026.98 1.493 0.0547846 0
M  V30 20558 H 2028.86 3.24553 2.68782 0
M  V30 20559 H 2027.54 2.06575 2.49215 0
M  V30 20560 H 2026.45 3.65352 0.804264 0
M  V30 20561 H 2027.78 4.80264 1.07738 0
M  V30 20562 N 2029.43 -0.1002 1.57281 0
M  V30 20563 C 2030.36 -1.14803 1.98376 0
M  V30 20564 C 2031.38 -1.36605 0.885602 0
M  V30 20565 O 2032.57 -1.35347 1.16376 0
M  V30 20566 C 2029.67 -2.50456 2.2831 0
M  V30 20567 C 2028.84 -2.49 3.59608 0
M  V30 20568 C 2027.9 -3.66541 3.77537 0
M  V30 20569 O 2026.92 -3.49266 4.49447 0
M  V30 20570 N 2028.13 -4.85829 3.17727 0
M  V30 20571 H 2030.89 -0.798301 2.88872 0
M  V30 20572 H 2028.45 -0.289246 1.59295 0
M  V30 20573 H 2030.44 -3.27681 2.37502 0
M  V30 20574 H 2029.01 -2.77538 1.43846 0
M  V30 20575 H 2028.23 -1.57357 3.61431 0
M  V30 20576 H 2029.52 -2.45101 4.45873 0
M  V30 20577 H 2028.92 -5.02769 2.59307 0
M  V30 20578 H 2027.48 -5.60665 3.32412 0
M  V30 20579 N 2030.91 -1.53174 -0.370891 0
M  V30 20580 C 2031.87 -1.7857 -1.43685 0
M  V30 20581 C 2032.87 -0.656018 -1.4681 0
M  V30 20582 O 2034.06 -0.924191 -1.47663 0
M  V30 20583 C 2031.19 -1.90295 -2.82844 0
M  V30 20584 H 2032.39 -2.73766 -1.22442 0
M  V30 20585 H 2029.94 -1.4417 -0.603713 0
M  V30 20586 H 2030.68 -0.971472 -3.09407 0
M  V30 20587 H 2030.46 -2.72456 -2.81975 0
M  V30 20588 H 2031.95 -2.11554 -3.60048 0
M  V30 20589 N 2032.39 0.630389 -1.44443 0
M  V30 20590 C 2033.8 0.948649 -1.28346 0
M  V30 20591 C 2034 2.00298 -0.219776 0
M  V30 20592 O 2033.06 2.49406 0.394082 0
M  V30 20593 C 2034.37 1.41121 -2.65528 0
M  V30 20594 C 2035.92 1.52665 -2.73244 0
M  V30 20595 C 2036.4 2.02305 -4.10897 0
M  V30 20596 N 2037.89 2.09574 -4.13077 0
M  V30 20597 C 2038.62 2.49156 -5.16439 0
M  V30 20598 N 2038.12 2.87869 -6.30161 0
M  V30 20599 N 2039.91 2.49296 -5.03794 0
M  V30 20600 H 2032.06 -0.0668759 -2.12295 0
M  V30 20601 H 2034.32 0.032708 -0.947436 0
M  V30 20602 H 2034.03 0.710811 -3.44442 0
M  V30 20603 H 2033.9 2.38208 -2.92466 0
M  V30 20604 H 2036.29 2.21802 -1.94648 0
M  V30 20605 H 2036.37 0.539516 -2.50046 0
M  V30 20606 H 2036.02 1.33763 -4.89969 0
M  V30 20607 H 2035.95 3.01892 -4.31473 0
M  V30 20608 H 2038.44 1.82338 -3.31001 0
M  V30 20609 H 2038.75 3.16887 -7.04842 0
M  V30 20610 H 2037.1 2.85619 -6.33598 0
M  V30 20611 H 2040.29 2.18443 -4.14005 0
M  V30 20612 H 2040.46 2.79819 -5.8447 0
M  V30 20613 N 2033.87 1.31354 0.870861 0
M  V30 20614 C 2034.8 1.21518 1.99388 0
M  V30 20615 C 2035.78 0.102582 1.6979 0
M  V30 20616 O 2036.96 0.287028 1.92067 0
M  V30 20617 C 2034.09 0.920813 3.34871 0
M  V30 20618 C 2033.05 1.99289 3.78772 0
M  V30 20619 C 2032.37 1.55123 5.11704 0
M  V30 20620 C 2033.67 3.40589 3.95975 0
M  V30 20621 H 2035.37 2.15473 2.07875 0
M  V30 20622 H 2032.91 1.03734 0.998761 0
M  V30 20623 H 2034.86 0.838612 4.12971 0
M  V30 20624 H 2033.59 -0.0543971 3.26555 0
M  V30 20625 H 2032.25 2.06496 3.0291 0
M  V30 20626 H 2031.9 0.563901 4.99829 0
M  V30 20627 H 2031.6 2.26842 5.42048 0
M  V30 20628 H 2033.12 1.48308 5.92315 0
M  V30 20629 H 2034.53 3.36061 4.64474 0
M  V30 20630 H 2032.93 4.10517 4.37716 0
M  V30 20631 H 2034 3.8144 2.99385 0
M  V30 20632 N 2035.34 -1.08505 1.143 0
M  V30 20633 C 2036.27 -2.1741 0.851769 0
M  V30 20634 C 2037.25 -1.69004 -0.192818 0
M  V30 20635 O 2038.44 -1.94136 -0.0497098 0
M  V30 20636 C 2035.57 -3.45754 0.327364 0
M  V30 20637 C 2034.52 -4.07547 1.30728 0
M  V30 20638 C 2033.85 -5.30829 0.642225 0
M  V30 20639 C 2035.15 -4.48945 2.66919 0
M  V30 20640 H 2036.84 -2.42029 1.76245 0
M  V30 20641 H 2034.39 -1.16322 0.848834 0
M  V30 20642 H 2036.34 -4.21253 0.111237 0
M  V30 20643 H 2035.07 -3.20686 -0.618737 0
M  V30 20644 H 2033.73 -3.34077 1.50956 0
M  V30 20645 H 2033.37 -5.02046 -0.309652 0
M  V30 20646 H 2033.07 -5.73128 1.29608 0
M  V30 20647 H 2034.6 -6.09044 0.435598 0
M  V30 20648 H 2036.01 -5.15626 2.50604 0
M  V30 20649 H 2034.41 -5.02158 3.28568 0
M  V30 20650 H 2035.48 -3.60882 3.23871 0
M  V30 20651 N 2036.82 -0.937962 -1.26649 0
M  V30 20652 C 2038.1 -0.501822 -1.89053 0
M  V30 20653 C 2038.48 1.02047 -1.84796 0
M  V30 20654 O 2037.83 1.87909 -1.3001 0
M  V30 20655 C 2038.04 -1.05952 -3.32528 0
M  V30 20656 C 2039.38 -1.12622 -4.09391 0
M  V30 20657 O 2040.41 -1.00988 -3.41584 0
M  V30 20658 O 2039.27 -1.30677 -5.30646 0
M  V30 20659 H 2036.36 -0.163048 -0.810768 0
M  V30 20660 H 2038.91 -1.03032 -1.34843 0
M  V30 20661 H 2037.68 -2.10319 -3.29972 0
M  V30 20662 H 2037.3 -0.513282 -3.94273 0
M  V30 20663 N 2038.3 1.40971 -0.704618 0
M  V30 20664 C 2039.21 2.34555 -0.0457738 0
M  V30 20665 C 2040.23 1.56717 0.756037 0
M  V30 20666 O 2041.4 1.89156 0.691518 0
M  V30 20667 C 2038.47 3.35534 0.872815 0
M  V30 20668 C 2037.53 4.29255 0.062192 0
M  V30 20669 C 2036.76 5.2541 0.937031 0
M  V30 20670 O 2036.98 5.27245 2.17644 0
M  V30 20671 O 2035.92 6.00687 0.381874 0
M  V30 20672 H 2039.74 2.92493 -0.817415 0
M  V30 20673 H 2037.33 1.41979 -0.465014 0
M  V30 20674 H 2039.21 3.97489 1.3993 0
M  V30 20675 H 2037.89 2.80026 1.62379 0
M  V30 20676 H 2036.79 3.7062 -0.509109 0
M  V30 20677 H 2038.13 4.87885 -0.65032 0
M  V30 20678 N 2039.78 0.45001 1.51039 0
M  V30 20679 C 2040.71 -0.345315 2.30933 0
M  V30 20680 C 2041.69 -1.00959 1.36899 0
M  V30 20681 O 2042.87 -1.0108 1.6582 0
M  V30 20682 C 2040 -1.43968 3.16055 0
M  V30 20683 C 2038.96 -0.898198 4.18469 0
M  V30 20684 C 2038.28 -2.08927 4.92193 0
M  V30 20685 C 2039.58 0.0760911 5.22245 0
M  V30 20686 H 2041.28 0.321441 2.97669 0
M  V30 20687 H 2038.82 0.156032 1.43152 0
M  V30 20688 H 2040.78 -2.00338 3.70732 0
M  V30 20689 H 2039.5 -2.1349 2.47163 0
M  V30 20690 H 2038.16 -0.356617 3.64861 0
M  V30 20691 H 2037.81 -2.77098 4.19792 0
M  V30 20692 H 2037.51 -1.73328 5.61454 0
M  V30 20693 H 2039.03 -2.65827 5.49698 0
M  V30 20694 H 2040.45 -0.397728 5.71919 0
M  V30 20695 H 2038.84 0.345281 5.99106 0
M  V30 20696 H 2039.91 1.00878 4.74291 0
M  V30 20697 N 2041.26 -1.56548 0.18182 0
M  V30 20698 C 2042.22 -2.17247 -0.730497 0
M  V30 20699 C 2043.22 -1.12333 -1.15056 0
M  V30 20700 O 2044.41 -1.3779 -1.06581 0
M  V30 20701 C 2041.54 -2.76383 -1.99563 0
M  V30 20702 H 2042.73 -2.9922 -0.201904 0
M  V30 20703 H 2040.29 -1.56153 -0.0677734 0
M  V30 20704 H 2041.02 -1.98173 -2.56706 0
M  V30 20705 H 2040.81 -3.53172 -1.70329 0
M  V30 20706 H 2042.3 -3.23034 -2.64649 0
M  V30 20707 N 2042.73 0.0918577 -1.57332 0
M  V30 20708 C 2043.98 0.793187 -1.85884 0
M  V30 20709 C 2044.3 1.79111 -0.770985 0
M  V30 20710 O 2043.57 1.94851 0.202438 0
M  V30 20711 H 2042.15 0.295923 -0.685885 0
M  V30 20712 H 2044.82 0.0727166 -1.94764 0
M  V30 20713 H 2043.91 1.32178 -2.82728 0
M  V30 20714 N 2044.21 1.53368 0.362763 0
M  V30 20715 C 2045.16 1.80005 1.44454 0
M  V30 20716 C 2046.13 0.644581 1.53083 0
M  V30 20717 O 2047.31 0.887051 1.68926 0
M  V30 20718 C 2044.45 1.99822 2.81363 0
M  V30 20719 C 2043.57 3.27539 2.81678 0
M  V30 20720 C 2042.7 3.37528 4.10181 0
M  V30 20721 C 2041.74 4.59266 4.04649 0
M  V30 20722 N 2040.88 4.66393 5.24806 0
M  V30 20723 H 2045.72 2.72311 1.2104 0
M  V30 20724 H 2043.26 1.34893 0.586708 0
M  V30 20725 H 2045.21 2.09299 3.60901 0
M  V30 20726 H 2043.84 1.10849 3.0317 0
M  V30 20727 H 2042.9 3.27001 1.94356 0
M  V30 20728 H 2044.21 4.17156 2.73464 0
M  V30 20729 H 2043.36 3.46331 4.98136 0
M  V30 20730 H 2042.1 2.45932 4.21152 0
M  V30 20731 H 2041.11 4.5056 3.15081 0
M  V30 20732 H 2042.33 5.52206 3.95278 0
M  V30 20733 H 2040.28 3.77699 5.36358 0
M  V30 20734 H 2040.19 5.49919 5.18773 0
M  V30 20735 H 2041.46 4.79484 6.14586 0
M  V30 20736 N 2045.69 -0.62272 1.44776 0
M  V30 20737 C 2046.62 -1.74528 1.5512 0
M  V30 20738 C 2047.6 -1.65241 0.403656 0
M  V30 20739 O 2048.79 -1.83873 0.624863 0
M  V30 20740 C 2045.92 -3.13088 1.5031 0
M  V30 20741 C 2044.87 -3.37172 2.63626 0
M  V30 20742 C 2044.2 -4.75849 2.43868 0
M  V30 20743 C 2045.5 -3.28908 4.0573 0
M  V30 20744 H 2047.19 -1.66128 2.49082 0
M  V30 20745 H 2044.74 -0.797813 1.19879 0
M  V30 20746 H 2046.69 -3.91403 1.56146 0
M  V30 20747 H 2045.41 -3.22293 0.528684 0
M  V30 20748 H 2044.07 -2.61241 2.57194 0
M  V30 20749 H 2043.72 -4.81767 1.446 0
M  V30 20750 H 2043.42 -4.92921 3.19849 0
M  V30 20751 H 2044.94 -5.56383 2.51535 0
M  V30 20752 H 2046.36 -3.97117 4.13487 0
M  V30 20753 H 2044.76 -3.57513 4.8198 0
M  V30 20754 H 2045.83 -2.26581 4.28706 0
M  V30 20755 N 2047.17 -1.31814 -0.863883 0
M  V30 20756 C 2048.1 -1.15798 -1.97796 0
M  V30 20757 C 2049.11 -0.0954225 -1.6252 0
M  V30 20758 O 2050.3 -0.343504 -1.75164 0
M  V30 20759 C 2047.4 -0.748332 -3.30535 0
M  V30 20760 C 2046.58 -1.89721 -3.94113 0
M  V30 20761 C 2045.63 -1.47262 -5.05174 0
M  V30 20762 O 2044.66 -2.18322 -5.25666 0
M  V30 20763 N 2045.86 -0.363428 -5.79361 0
M  V30 20764 H 2048.63 -2.11761 -2.12079 0
M  V30 20765 H 2046.19 -1.24229 -1.03821 0
M  V30 20766 H 2048.18 -0.446875 -4.02225 0
M  V30 20767 H 2046.75 0.119862 -3.1237 0
M  V30 20768 H 2045.97 -2.36566 -3.15326 0
M  V30 20769 H 2047.26 -2.66657 -4.33326 0
M  V30 20770 H 2046.66 0.228215 -5.65239 0
M  V30 20771 H 2045.21 -0.121534 -6.51687 0
M  V30 20772 N 2048.65 1.07897 -1.14873 0
M  V30 20773 C 2049.87 1.84657 -0.944281 0
M  V30 20774 C 2050.3 1.8127 0.50226 0
M  V30 20775 O 2049.65 1.20159 1.35763 0
M  V30 20776 C 2049.7 3.29889 -1.45622 0
M  V30 20777 O 2048.81 4.07217 -0.651748 0
M  V30 20778 H 2048.15 0.571994 -0.337222 0
M  V30 20779 H 2050.68 1.36151 -1.52723 0
M  V30 20780 H 2050.69 3.80727 -1.46665 0
M  V30 20781 H 2049.36 3.31668 -2.50936 0
M  V30 20782 H 2047.94 3.66069 -0.710491 0
M  V30 20783 N 2050.12 0.944665 1.2615 0
M  V30 20784 C 2051.05 0.47478 2.28622 0
M  V30 20785 C 2052.04 -0.473742 1.6337 0
M  V30 20786 O 2053.22 -0.374847 1.90548 0
M  V30 20787 C 2050.35 -0.2576 3.46343 0
M  V30 20788 C 2049.3 0.604701 4.23707 0
M  V30 20789 C 2048.63 -0.257841 5.34078 0
M  V30 20790 C 2049.93 1.8778 4.87377 0
M  V30 20791 H 2051.62 1.33122 2.68177 0
M  V30 20792 H 2049.17 0.641555 1.28919 0
M  V30 20793 H 2051.12 -0.597382 4.17144 0
M  V30 20794 H 2049.85 -1.14821 3.05751 0
M  V30 20795 H 2048.51 0.927426 3.54675 0
M  V30 20796 H 2048.15 -1.1479 4.89727 0
M  V30 20797 H 2047.85 0.315739 5.86751 0
M  V30 20798 H 2049.38 -0.592815 6.07715 0
M  V30 20799 H 2050.79 1.60505 5.50374 0
M  V30 20800 H 2049.19 2.39623 5.50182 0
M  V30 20801 H 2050.26 2.58705 4.10122 0
M  V30 20802 N 2051.6 -1.40596 0.712085 0
M  V30 20803 C 2052.88 -1.94794 0.177392 0
M  V30 20804 C 2053.26 -1.65047 -1.31616 0
M  V30 20805 O 2052.61 -0.966262 -2.07064 0
M  V30 20806 C 2052.82 -3.45594 0.486369 0
M  V30 20807 C 2054.17 -4.22487 0.423115 0
M  V30 20808 O 2055.19 -3.53689 0.422227 0
M  V30 20809 O 2054.05 -5.45052 0.397587 0
M  V30 20810 H 2051.14 -0.826632 0.0246541 0
M  V30 20811 H 2053.69 -1.50223 0.789377 0
M  V30 20812 H 2052.46 -3.60591 1.51953 0
M  V30 20813 H 2052.08 -3.97295 -0.155756 0
M  V30 20814 N 2053.08 -0.458013 -1.50798 0
M  V30 20815 C 2054.01 0.333063 -2.31112 0
M  V30 20816 C 2054.99 1.00231 -1.37433 0
M  V30 20817 O 2056.18 1.00199 -1.66354 0
M  V30 20818 C 2053.31 1.4229 -3.16814 0
M  V30 20819 C 2052.26 0.875993 -4.1894 0
M  V30 20820 C 2051.59 2.06313 -4.93294 0
M  V30 20821 C 2052.89 -0.103786 -5.22197 0
M  V30 20822 H 2054.58 -0.337222 -2.97495 0
M  V30 20823 H 2052.13 -0.163622 -1.43067 0
M  V30 20824 H 2054.08 1.98369 -3.7179 0
M  V30 20825 H 2052.8 2.12177 -2.48291 0
M  V30 20826 H 2051.46 0.337263 -3.65045 0
M  V30 20827 H 2051.11 2.74868 -4.21256 0
M  V30 20828 H 2050.81 1.70348 -5.62366 0
M  V30 20829 H 2052.33 2.62908 -5.511 0
M  V30 20830 H 2053.75 0.367392 -5.72122 0
M  V30 20831 H 2052.15 -0.377048 -5.98914 0
M  V30 20832 H 2053.22 -1.03392 -4.73749 0
M  V30 20833 N 2054.56 1.56449 -0.190119 0
M  V30 20834 C 2055.78 2.02261 0.458823 0
M  V30 20835 C 2056.21 1.06942 1.54742 0
M  V30 20836 O 2055.57 0.0520711 1.81225 0
M  V30 20837 C 2055.62 3.46549 0.996786 0
M  V30 20838 O 2054.72 3.54338 2.10993 0
M  V30 20839 H 2054.06 0.655191 0.1078 0
M  V30 20840 H 2056.59 2.02396 -0.299535 0
M  V30 20841 H 2056.6 3.8624 1.31465 0
M  V30 20842 H 2055.28 4.1542 0.199852 0
M  V30 20843 H 2053.85 3.2652 1.80109 0
M  V30 20844 N 2056.04 -0.0835127 1.57379 0
M  V30 20845 C 2057 -1.08477 2.01905 0
M  V30 20846 C 2058 -1.32278 0.91428 0
M  V30 20847 O 2059.19 -1.28196 1.17947 0
M  V30 20848 C 2056.32 -2.43121 2.38967 0
M  V30 20849 H 2057.52 -0.701256 2.91586 0
M  V30 20850 H 2055.07 -0.328903 1.528 0
M  V30 20851 H 2055.8 -2.86326 1.52275 0
M  V30 20852 H 2055.59 -2.2719 3.19573 0
M  V30 20853 H 2057.08 -3.15113 2.74032 0
M  V30 20854 N 2057.52 -1.53558 -0.354624 0
M  V30 20855 C 2058.48 -1.80084 -1.41783 0
M  V30 20856 C 2059.48 -0.671552 -1.46105 0
M  V30 20857 O 2060.67 -0.939801 -1.46674 0
M  V30 20858 C 2057.8 -1.93284 -2.8081 0
M  V30 20859 H 2058.99 -2.75049 -1.19532 0
M  V30 20860 H 2056.55 -1.44802 -0.588388 0
M  V30 20861 H 2057.28 -1.00423 -3.0836 0
M  V30 20862 H 2057.07 -2.75432 -2.7907 0
M  V30 20863 H 2058.56 -2.15361 -3.57784 0
M  V30 20864 N 2058.99 0.615033 -1.45104 0
M  V30 20865 C 2059.96 1.7081 -1.52828 0
M  V30 20866 C 2060.96 1.55523 -0.408557 0
M  V30 20867 O 2062.15 1.60726 -0.671773 0
M  V30 20868 C 2059.28 3.10023 -1.41768 0
M  V30 20869 H 2060.47 1.6533 -2.50212 0
M  V30 20870 H 2058.02 0.830115 -1.32434 0
M  V30 20871 H 2058.76 3.21086 -0.455409 0
M  V30 20872 H 2058.54 3.22527 -2.22977 0
M  V30 20873 H 2060.03 3.89657 -1.5019 0
M  V30 20874 N 2060.47 1.3227 0.85688 0
M  V30 20875 C 2061.38 1.23012 1.99763 0
M  V30 20876 C 2062.4 0.144168 1.73402 0
M  V30 20877 O 2063.57 0.364429 1.98075 0
M  V30 20878 C 2060.64 0.951293 3.33394 0
M  V30 20879 C 2059.7 2.12547 3.72991 0
M  V30 20880 C 2058.93 1.85984 5.00245 0
M  V30 20881 O 2059.16 0.801321 5.64743 0
M  V30 20882 O 2058.09 2.72029 5.36921 0
M  V30 20883 H 2061.92 2.18906 2.10509 0
M  V30 20884 H 2059.5 1.12138 0.987193 0
M  V30 20885 H 2061.38 0.812192 4.13499 0
M  V30 20886 H 2060.06 0.0224976 3.23692 0
M  V30 20887 H 2058.96 2.32003 2.93471 0
M  V30 20888 H 2060.3 3.03697 3.87336 0
M  V30 20889 N 2061.95 -1.07287 1.15444 0
M  V30 20890 C 2062.88 -2.13891 0.795354 0
M  V30 20891 C 2063.86 -1.60987 -0.228497 0
M  V30 20892 O 2065.04 -1.88149 -0.114901 0
M  V30 20893 C 2062.17 -3.38206 0.182831 0
M  V30 20894 C 2061.22 -4.09889 1.17868 0
M  V30 20895 S 2062.05 -4.61217 2.72101 0
M  V30 20896 C 2063.21 -5.88806 2.1227 0
M  V30 20897 H 2063.44 -2.4402 1.69827 0
M  V30 20898 H 2060.97 -1.1957 0.976855 0
M  V30 20899 H 2062.93 -4.10172 -0.164129 0
M  V30 20900 H 2061.59 -3.06253 -0.697695 0
M  V30 20901 H 2060.78 -4.99138 0.698339 0
M  V30 20902 H 2060.39 -3.43891 1.47021 0
M  V30 20903 H 2062.68 -6.61021 1.48516 0
M  V30 20904 H 2063.62 -6.41555 2.99689 0
M  V30 20905 H 2064.03 -5.42358 1.56549 0
M  V30 20906 N 2063.43 -0.951342 -1.25647 0
M  V30 20907 C 2064.66 -0.621431 -1.97347 0
M  V30 20908 C 2065.07 0.805774 -1.70742 0
M  V30 20909 O 2064.43 1.53857 -0.981537 0
M  V30 20910 C 2064.48 -0.866537 -3.50961 0
M  V30 20911 O 2064.2 -2.23762 -3.76646 0
M  V30 20912 C 2065.7 -0.548561 -4.39893 0
M  V30 20913 H 2062.92 -0.233273 -0.629146 0
M  V30 20914 H 2065.46 -1.27482 -1.59902 0
M  V30 20915 H 2063.62 -0.259607 -3.86529 0
M  V30 20916 H 2064.03 -2.30528 -4.71123 0
M  V30 20917 H 2065.51 -0.770622 -5.46594 0
M  V30 20918 H 2065.98 0.51678 -4.36149 0
M  V30 20919 H 2066.59 -1.13467 -4.09885 0
M  V30 20920 N 2064.91 1.40216 -0.719531 0
M  V30 20921 C 2066.15 2.02672 -0.265214 0
M  V30 20922 C 2066.51 1.55831 1.12164 0
M  V30 20923 O 2067.71 2.10377 1.67317 0
M  V30 20924 C 2065.98 3.55716 -0.346559 0
M  V30 20925 S 2067.54 4.3879 0.0301928 0
M  V30 20926 H 2064.36 0.703215 -0.104928 0
M  V30 20927 H 2066.96 1.71274 -0.942624 0
M  V30 20928 H 2065.66 3.87299 -1.35748 0
M  V30 20929 H 2065.2 3.91847 0.349197 0
M  V30 20930 H 2067.21 4.80169 1.25107 0
M  V30 20931 N 2066.38 0.466004 1.50553 0
M  V30 20932 C 2067.63 -0.09056 2.01897 0
M  V30 20933 C 2067.95 -1.40673 1.35041 0
M  V30 20934 O 2067.22 -1.89567 0.494095 0
M  V30 20935 H 2065.8 -0.0364574 0.74611 0
M  V30 20936 H 2068.46 0.615265 1.84934 0
M  V30 20937 H 2067.56 -0.245757 3.11131 0
M  V30 20938 N 2067.86 -1.56346 0.198413 0
M  V30 20939 C 2069.09 -2.02058 -0.444989 0
M  V30 20940 C 2069.5 -1.07852 -1.54963 0
M  V30 20941 O 2068.86 -0.0839717 -1.82307 0
M  V30 20942 C 2068.91 -3.47445 -0.99822 0
M  V30 20943 O 2068.63 -4.38056 0.0623476 0
M  V30 20944 C 2070.13 -4.08691 -1.71717 0
M  V30 20945 H 2067.35 -0.661691 -0.111383 0
M  V30 20946 H 2069.9 -2.02166 0.308092 0
M  V30 20947 H 2068.05 -3.48026 -1.70167 0
M  V30 20948 H 2068.47 -5.23331 -0.349939 0
M  V30 20949 H 2069.94 -5.1226 -2.05654 0
M  V30 20950 H 2070.42 -3.52341 -2.62207 0
M  V30 20951 H 2071.02 -4.11892 -1.05949 0
M  V30 20952 N 2069.34 0.0751653 -1.57421 0
M  V30 20953 C 2070.75 0.627391 -1.75843 0
M  V30 20954 C 2071.1 1.78086 -0.823397 0
M  V30 20955 O 2070.23 2.16399 -0.00667483 0
M  V30 20956 C 2070.82 1.14489 -3.18869 0
M  V30 20957 C 2069.38 1.64301 -3.38648 0
M  V30 20958 C 2068.53 0.560994 -2.71566 0
M  V30 20959 H 2071.48 -0.150994 -1.5798 0
M  V30 20960 H 2071.5 2.01378 -3.22842 0
M  V30 20961 H 2071.01 0.305165 -3.86898 0
M  V30 20962 H 2069.11 2.50609 -2.75728 0
M  V30 20963 H 2069.23 1.72227 -4.47073 0
M  V30 20964 H 2067.59 1.00523 -2.34024 0
M  V30 20965 H 2068.37 -0.268489 -3.42248 0
M  V30 20966 N 2070.82 1.53744 0.346476 0
M  V30 20967 C 2072.23 1.62331 0.922251 0
M  V30 20968 C 2072.58 0.502763 1.89649 0
M  V30 20969 O 2071.71 -0.367943 2.13249 0
M  V30 20970 C 2072.3 2.94243 1.67948 0
M  V30 20971 C 2070.86 3.05102 2.20431 0
M  V30 20972 C 2070.01 2.57759 1.02252 0
M  V30 20973 H 2072.96 1.58209 0.124698 0
M  V30 20974 H 2072.98 2.83118 2.54213 0
M  V30 20975 H 2072.49 3.75779 0.970157 0
M  V30 20976 H 2070.59 2.28194 2.94547 0
M  V30 20977 H 2070.7 4.1052 2.47003 0
M  V30 20978 H 2069.07 2.13095 1.39508 0
M  V30 20979 H 2069.85 3.41731 0.327885 0
M  V30 20980 N 2072.3 -0.607329 1.45428 0
M  V30 20981 C 2073.54 -1.36363 1.49163 0
M  V30 20982 C 2073.87 -1.94533 0.134827 0
M  V30 20983 O 2073.14 -1.77174 -0.835838 0
M  V30 20984 H 2071.72 -0.506225 0.549314 0
M  V30 20985 H 2074.38 -0.713138 1.81385 0
M  V30 20986 H 2073.47 -2.18292 2.23058 0
M  V30 20987 N 2073.77 -1.32722 -0.849853 0
M  V30 20988 C 2074.74 -1.21991 -1.94038 0
M  V30 20989 C 2075.74 -0.141727 -1.60174 0
M  V30 20990 O 2076.93 -0.392477 -1.69721 0
M  V30 20991 C 2074.06 -0.877223 -3.2942 0
M  V30 20992 H 2075.25 -2.18913 -2.04981 0
M  V30 20993 H 2072.81 -1.16623 -1.04062 0
M  V30 20994 H 2073.54 0.0899704 -3.24175 0
M  V30 20995 H 2073.33 -1.65681 -3.55376 0
M  V30 20996 H 2074.82 -0.826588 -4.09338 0
M  V30 20997 N 2075.25 1.06673 -1.16011 0
M  V30 20998 C 2076.48 1.83645 -0.963814 0
M  V30 20999 C 2076.9 1.81793 0.483005 0
M  V30 21000 O 2076.26 1.21592 1.34481 0
M  V30 21001 C 2076.31 3.28326 -1.49113 0
M  V30 21002 O 2075.41 4.06503 -0.694902 0
M  V30 21003 H 2074.75 0.568386 -0.343269 0
M  V30 21004 H 2077.28 1.34523 -1.54158 0
M  V30 21005 H 2077.29 3.7915 -1.50695 0
M  V30 21006 H 2075.97 3.28988 -2.5444 0
M  V30 21007 H 2074.55 3.65295 -0.749278 0
M  V30 21008 N 2076.73 0.957992 1.25141 0
M  V30 21009 C 2077.97 0.622306 1.94696 0
M  V30 21010 C 2078.33 -0.825845 1.73331 0
M  V30 21011 O 2079.54 -1.27128 2.36837 0
M  V30 21012 C 2077.81 0.975207 3.43838 0
M  V30 21013 S 2079.37 0.752603 4.32298 0
M  V30 21014 H 2076.18 0.228622 0.673241 0
M  V30 21015 H 2078.79 1.23288 1.51724 0
M  V30 21016 H 2077.49 2.02624 3.56892 0
M  V30 21017 H 2077.02 0.355017 3.91795 0
M  V30 21018 H 2079.04 -0.374938 4.94781 0
M  V30 21019 N 2078.21 -1.39832 0.726957 0
M  V30 21020 C 2079.43 -2.05501 0.280008 0
M  V30 21021 C 2079.86 -1.54436 -1.07383 0
M  V30 21022 O 2079.22 -0.684615 -1.67877 0
M  V30 21023 C 2079.26 -3.59492 0.282502 0
M  V30 21024 O 2078.37 -4.05842 -0.732546 0
M  V30 21025 H 2077.71 -0.651361 0.128936 0
M  V30 21026 H 2080.24 -1.79019 0.990626 0
M  V30 21027 H 2080.25 -4.07811 0.124104 0
M  V30 21028 H 2078.92 -3.96022 1.27041 0
M  V30 21029 H 2077.5 -3.68956 -0.540943 0
M  V30 21030 N 2079.69 -0.473982 -1.50304 0
M  V30 21031 C 2080.6 0.323933 -2.32353 0
M  V30 21032 C 2081.61 0.993251 -1.42865 0
M  V30 21033 O 2082.79 0.980589 -1.75916 0
M  V30 21034 C 2079.85 1.38999 -3.17616 0
M  V30 21035 C 2078.91 0.736965 -4.22927 0
M  V30 21036 C 2078.15 1.75223 -5.04116 0
M  V30 21037 O 2078.37 2.97908 -4.86423 0
M  V30 21038 O 2077.3 1.32246 -5.87192 0
M  V30 21039 H 2081.13 -0.346913 -3.01712 0
M  V30 21040 H 2078.72 -0.235777 -1.47528 0
M  V30 21041 H 2080.6 2.00742 -3.70514 0
M  V30 21042 H 2079.27 2.04425 -2.50982 0
M  V30 21043 H 2078.18 0.0805047 -3.74013 0
M  V30 21044 H 2079.51 0.125602 -4.9204 0
M  V30 21045 N 2081.16 1.56239 -0.206702 0
M  V30 21046 C 2082.39 2.02291 0.434267 0
M  V30 21047 C 2082.81 1.08672 1.54388 0
M  V30 21048 O 2082.16 0.0936387 1.8226 0
M  V30 21049 C 2082.22 3.47969 0.97978 0
M  V30 21050 O 2081.94 4.38016 -0.0855779 0
M  V30 21051 C 2083.44 4.09596 1.69548 0
M  V30 21052 H 2080.66 0.662272 0.107873 0
M  V30 21053 H 2083.2 2.02 -0.318809 0
M  V30 21054 H 2081.36 3.48923 1.68319 0
M  V30 21055 H 2081.77 5.2351 0.32218 0
M  V30 21056 H 2083.24 5.13343 2.02935 0
M  V30 21057 H 2083.72 3.53727 2.60334 0
M  V30 21058 H 2084.33 4.12448 1.03764 0
M  V30 21059 N 2082.64 -0.0668159 1.57458 0
M  V30 21060 C 2083.55 -1.09665 2.0739 0
M  V30 21061 C 2084.57 -1.4208 1.00446 0
M  V30 21062 O 2085.74 -1.52157 1.31948 0
M  V30 21063 C 2082.81 -2.38952 2.51203 0
M  V30 21064 C 2081.87 -2.13463 3.72468 0
M  V30 21065 C 2081.1 -3.36585 4.14181 0
M  V30 21066 O 2081.33 -4.45889 3.55723 0
M  V30 21067 O 2080.26 -3.24505 5.06932 0
M  V30 21068 H 2084.09 -0.702443 2.95465 0
M  V30 21069 H 2081.67 -0.281287 1.46728 0
M  V30 21070 H 2083.55 -3.1503 2.79883 0
M  V30 21071 H 2082.23 -2.77742 1.66256 0
M  V30 21072 H 2081.14 -1.35074 3.48864 0
M  V30 21073 H 2082.47 -1.7955 4.58282 0
M  V30 21074 N 2084.12 -1.53926 -0.338317 0
M  V30 21075 C 2085.36 -1.73141 -1.08635 0
M  V30 21076 C 2085.73 -0.486994 -1.85721 0
M  V30 21077 O 2086.93 -0.556249 -2.62982 0
M  V30 21078 C 2085.2 -2.9631 -1.99838 0
M  V30 21079 S 2086.76 -3.3636 -2.81793 0
M  V30 21080 H 2083.57 -0.608969 -0.366984 0
M  V30 21081 H 2086.18 -1.92079 -0.364135 0
M  V30 21082 H 2084.88 -3.85045 -1.42017 0
M  V30 21083 H 2084.41 -2.79853 -2.76489 0
M  V30 21084 H 2086.43 -2.90504 -4.02271 0
M  V30 21085 N 2085.6 0.599608 -1.45748 0
M  V30 21086 C 2086.85 1.3557 -1.49884 0
M  V30 21087 C 2087.17 1.94459 -0.145141 0
M  V30 21088 O 2086.44 1.77615 0.82643 0
M  V30 21089 H 2085.02 0.503305 -0.551991 0
M  V30 21090 H 2087.68 0.703509 -1.8176 0
M  V30 21091 H 2086.78 2.17106 -2.24213 0
M  V30 21092 N 2087.08 1.33171 0.842803 0
M  V30 21093 C 2088.33 1.24159 1.59464 0
M  V30 21094 C 2088.65 -0.193595 1.94037 0
M  V30 21095 O 2087.92 -1.12135 1.60632 0
M  V30 21096 H 2086.5 0.456555 0.591241 0
M  V30 21097 H 2089.16 1.66842 1.00746 0
M  V30 21098 H 2088.25 1.83255 2.52634 0
M  V30 21099 N 2088.56 -1.06056 1.16576 0
M  V30 21100 C 2089.97 -1.60363 0.956067 0
M  V30 21101 C 2090.32 -1.89737 -0.499436 0
M  V30 21102 O 2089.44 -1.67257 -1.3731 0
M  V30 21103 C 2090.04 -2.91353 1.72913 0
M  V30 21104 C 2088.6 -3.42352 1.56436 0
M  V30 21105 C 2087.74 -2.1621 1.73633 0
M  V30 21106 H 2090.69 -0.889768 1.31411 0
M  V30 21107 H 2090.72 -3.6087 1.20636 0
M  V30 21108 H 2090.23 -2.69942 2.78842 0
M  V30 21109 H 2088.33 -3.68817 0.529577 0
M  V30 21110 H 2088.44 -4.17519 2.34978 0
M  V30 21111 H 2086.81 -2.26548 1.16396 0
M  V30 21112 H 2087.59 -1.97279 2.80955 0
M  V30 21113 N 2090.03 -0.964615 -1.24631 0
M  V30 21114 C 2090.98 -0.484126 -2.27506 0
M  V30 21115 C 2091.98 0.45075 -1.63293 0
M  V30 21116 O 2093.18 0.32638 -1.77016 0
M  V30 21117 H 2089.56 -0.138083 -0.739214 0
M  V30 21118 H 2091.53 -1.36382 -2.6541 0
M  V30 21119 C 2090.28 0.213113 -3.47046 0
M  V30 21120 H 2089.6 -0.497138 -3.96697 0
M  V30 21121 H 2091.04 0.513181 -4.20883 0
M  V30 21122 C 2089.5 1.43904 -3.0462 0
M  V30 21123 O 2090.03 2.53625 -3.11508 0
M  V30 21124 N 2088.23 1.30398 -2.59701 0
M  V30 21125 H 2087.78 0.411244 -2.54296 0
M  V30 21126 H 2087.74 2.12537 -2.3168 0
M  V30 21127 N 2091.51 1.39445 -0.734362 0
M  V30 21128 C 2092.75 2.02379 -0.286695 0
M  V30 21129 C 2093.12 1.57011 1.10505 0
M  V30 21130 O 2094.32 2.1214 1.65076 0
M  V30 21131 C 2092.59 3.55328 -0.384267 0
M  V30 21132 S 2094.15 4.38797 -0.0163484 0
M  V30 21133 H 2090.96 0.702062 -0.112381 0
M  V30 21134 H 2093.57 1.70265 -0.960737 0
M  V30 21135 H 2092.27 3.85838 -1.39848 0
M  V30 21136 H 2091.8 3.92195 0.307617 0
M  V30 21137 H 2093.82 4.81469 1.20007 0
M  V30 21138 N 2092.99 0.481946 1.5005 0
M  V30 21139 C 2094.41 0.13674 1.59013 0
M  V30 21140 C 2094.61 -1.35753 1.48908 0
M  V30 21141 O 2093.66 -2.1318 1.35316 0
M  V30 21142 C 2094.97 0.696597 2.9252 0
M  V30 21143 C 2096.52 0.660993 3.05941 0
M  V30 21144 C 2097 1.19858 4.42038 0
M  V30 21145 N 2098.49 1.15846 4.4848 0
M  V30 21146 C 2099.22 1.54481 5.52199 0
M  V30 21147 N 2098.72 2.00617 6.63117 0
M  V30 21148 N 2100.51 1.46016 5.42804 0
M  V30 21149 H 2092.66 1.45367 1.54862 0
M  V30 21150 H 2094.93 0.601814 0.732478 0
M  V30 21151 H 2094.63 1.74381 3.05425 0
M  V30 21152 H 2094.51 0.146249 3.76916 0
M  V30 21153 H 2096.89 -0.377335 2.92678 0
M  V30 21154 H 2096.97 1.24827 2.23275 0
M  V30 21155 H 2096.62 2.2356 4.56052 0
M  V30 21156 H 2096.55 0.587419 5.23313 0
M  V30 21157 H 2099.04 0.820197 3.68892 0
M  V30 21158 H 2099.35 2.28217 7.38334 0
M  V30 21159 H 2097.7 2.04578 6.64209 0
M  V30 21160 H 2100.89 1.09805 4.55039 0
M  V30 21161 H 2101.06 1.7645 6.23514 0
M  V30 21162 N 2094.47 -1.56127 0.214985 0
M  V30 21163 C 2095.7 -2.02519 -0.423533 0
M  V30 21164 C 2096.11 -1.0949 -1.5381 0
M  V30 21165 O 2095.47 -0.103303 -1.82207 0
M  V30 21166 C 2095.52 -3.48484 -0.961313 0
M  V30 21167 O 2095.24 -4.37965 0.108806 0
M  V30 21168 C 2096.74 -4.10489 -1.67373 0
M  V30 21169 H 2093.96 -0.662835 -0.104359 0
M  V30 21170 H 2096.5 -2.01828 0.329517 0
M  V30 21171 H 2094.66 -3.49811 -1.66466 0
M  V30 21172 H 2095.07 -5.23673 -0.294413 0
M  V30 21173 H 2096.55 -5.14412 -2.00209 0
M  V30 21174 H 2097.02 -3.55102 -2.58455 0
M  V30 21175 H 2097.63 -4.12992 -1.01575 0
M  V30 21176 N 2095.95 0.0584645 -1.57492 0
M  V30 21177 C 2097.22 0.788828 -1.78988 0
M  V30 21178 C 2097.6 1.95112 -0.805878 0
M  V30 21179 O 2096.95 2.27951 0.158244 0
M  V30 21180 C 2097.16 1.24936 -3.25871 0
M  V30 21181 C 2098.51 1.67732 -3.90066 0
M  V30 21182 O 2099.53 1.34469 -3.29843 0
M  V30 21183 O 2098.39 2.29361 -4.9604 0
M  V30 21184 H 2095.49 0.379032 -0.735027 0
M  V30 21185 H 2098.03 0.0375096 -1.69659 0
M  V30 21186 H 2096.8 0.418302 -3.89058 0
M  V30 21187 H 2096.43 2.06159 -3.39977 0
M  V30 21188 N 2097.42 1.54103 0.330149 0
M  V30 21189 C 2098.33 1.86042 1.42918 0
M  V30 21190 C 2099.35 0.75174 1.56923 0
M  V30 21191 O 2100.53 1.04538 1.72145 0
M  V30 21192 C 2097.59 2.07533 2.77724 0
M  V30 21193 C 2096.65 3.31356 2.7295 0
M  V30 21194 C 2095.88 3.51812 4.01328 0
M  V30 21195 O 2096.11 2.75838 4.99269 0
M  V30 21196 O 2095.04 4.45275 4.04986 0
M  V30 21197 H 2098.87 2.79483 1.18839 0
M  V30 21198 H 2096.45 1.39925 0.523569 0
M  V30 21199 H 2098.33 2.23037 3.57537 0
M  V30 21200 H 2097.01 1.1728 3.01707 0
M  V30 21201 H 2095.92 3.21243 1.91712 0
M  V30 21202 H 2097.25 4.21645 2.53922 0
M  V30 21203 N 2098.9 -0.59187 1.46064 0
M  V30 21204 C 2100.15 -1.34773 1.50601 0
M  V30 21205 C 2100.47 -1.94379 0.155452 0
M  V30 21206 O 2099.74 -1.7805 -0.816999 0
M  V30 21207 H 2098.32 -0.50037 0.554652 0
M  V30 21208 H 2100.98 -0.69386 1.82131 0
M  V30 21209 H 2100.08 -2.15914 2.25361 0
M  V30 21210 N 2100.38 -1.33616 -0.835729 0
M  V30 21211 C 2101.29 -1.26175 -1.9778 0
M  V30 21212 C 2102.31 -0.171736 -1.7315 0
M  V30 21213 O 2103.48 -0.395895 -1.97471 0
M  V30 21214 C 2100.55 -1.00421 -3.31838 0
M  V30 21215 C 2099.61 -2.18454 -3.69563 0
M  V30 21216 C 2098.84 -1.93919 -4.97223 0
M  V30 21217 O 2099.06 -0.891065 -5.63397 0
M  V30 21218 O 2098 -2.80536 -5.32525 0
M  V30 21219 H 2101.82 -2.22227 -2.07 0
M  V30 21220 H 2099.41 -1.13694 -0.969228 0
M  V30 21221 H 2101.29 -0.877873 -4.12155 0
M  V30 21222 H 2099.97 -0.0739914 -3.23615 0
M  V30 21223 H 2098.87 -2.36642 -2.89743 0
M  V30 21224 H 2100.21 -3.09821 -3.82455 0
M  V30 21225 N 2101.86 1.05436 -1.17136 0
M  V30 21226 C 2103.27 1.30549 -0.918108 0
M  V30 21227 C 2103.47 1.96985 0.424152 0
M  V30 21228 O 2102.53 2.24189 1.1617 0
M  V30 21229 C 2103.84 2.17768 -2.07358 0
M  V30 21230 C 2105.39 2.31158 -2.11033 0
M  V30 21231 C 2105.87 3.21737 -3.25959 0
M  V30 21232 N 2107.36 3.29322 -3.25731 0
M  V30 21233 C 2108.09 3.99526 -4.11299 0
M  V30 21234 N 2107.59 4.72178 -5.06971 0
M  V30 21235 N 2109.38 3.95665 -3.99256 0
M  V30 21236 H 2101.53 0.607118 -2.03538 0
M  V30 21237 H 2103.8 0.330298 -0.888599 0
M  V30 21238 H 2103.5 1.7624 -3.04356 0
M  V30 21239 H 2103.38 3.18394 -2.02251 0
M  V30 21240 H 2105.76 2.71929 -1.14623 0
M  V30 21241 H 2105.84 1.30171 -2.20203 0
M  V30 21242 H 2105.49 2.8168 -4.22633 0
M  V30 21243 H 2105.42 4.22724 -3.14025 0
M  V30 21244 H 2107.91 2.77555 -2.5646 0
M  V30 21245 H 2108.22 5.233 -5.68662 0
M  V30 21246 H 2106.57 4.71129 -5.10943 0
M  V30 21247 H 2109.76 3.3803 -3.2381 0
M  V30 21248 H 2109.93 4.50108 -4.66161 0
M  V30 21249 N 2103.34 0.971211 1.24118 0
M  V30 21250 C 2104.28 0.503612 2.25239 0
M  V30 21251 C 2105.25 -0.452682 1.59812 0
M  V30 21252 O 2106.44 -0.362267 1.87329 0
M  V30 21253 C 2103.58 -0.196695 3.44539 0
M  V30 21254 C 2102.69 0.798779 4.24551 0
M  V30 21255 C 2101.83 0.0742204 5.31148 0
M  V30 21256 C 2100.87 1.05952 6.0286 0
M  V30 21257 N 2100 0.364736 7.01152 0
M  V30 21258 H 2104.84 1.37074 2.64603 0
M  V30 21259 H 2102.38 0.687058 1.30069 0
M  V30 21260 H 2104.34 -0.619443 4.12576 0
M  V30 21261 H 2102.97 -1.02775 3.06002 0
M  V30 21262 H 2102.02 1.33995 3.56019 0
M  V30 21263 H 2103.33 1.54998 4.74107 0
M  V30 21264 H 2102.49 -0.40635 6.05338 0
M  V30 21265 H 2101.22 -0.709647 4.82509 0
M  V30 21266 H 2100.23 1.55093 5.27471 0
M  V30 21267 H 2101.45 1.8439 6.53588 0
M  V30 21268 H 2099.4 -0.400091 6.54779 0
M  V30 21269 H 2099.32 1.05474 7.48606 0
M  V30 21270 H 2100.59 -0.0937508 7.79444 0
M  V30 21271 N 2104.81 -1.39054 0.741747 0
M  V30 21272 C 2106.05 -2.02225 0.297424 0
M  V30 21273 C 2106.42 -1.57595 -1.09671 0
M  V30 21274 O 2107.62 -2.13012 -1.63949 0
M  V30 21275 C 2105.89 -3.55119 0.403106 0
M  V30 21276 S 2107.45 -4.38782 0.0396187 0
M  V30 21277 H 2104.27 -0.701457 0.116102 0
M  V30 21278 H 2106.87 -1.69753 0.969753 0
M  V30 21279 H 2105.57 -3.85091 1.41892 0
M  V30 21280 H 2105.1 -3.92353 -0.286813 0
M  V30 21281 H 2107.12 -4.82099 -1.17452 0
M  V30 21282 N 2106.29 -0.489897 -1.49792 0
M  V30 21283 C 2107.54 0.0584284 -2.02016 0
M  V30 21284 C 2107.86 1.38507 -1.37262 0
M  V30 21285 O 2107.13 1.88757 -0.524191 0
M  V30 21286 H 2105.71 0.0245828 -0.746595 0
M  V30 21287 H 2108.37 -0.644608 -1.83932 0
M  V30 21288 H 2107.47 0.196227 -3.11483 0
M  V30 21289 N 2107.77 1.56011 -0.223262 0
M  V30 21290 C 2109.02 1.97956 0.407171 0
M  V30 21291 C 2109.34 1.11219 1.60173 0
M  V30 21292 O 2108.61 0.189604 1.9498 0
M  V30 21293 H 2107.19 0.731075 0.153424 0
M  V30 21294 H 2109.85 1.92312 -0.316554 0
M  V30 21295 H 2108.95 3.03386 0.732342 0
M  V30 21296 N 2109.25 -0.0501116 1.5752 0
M  V30 21297 C 2110.66 -0.599337 1.76819 0
M  V30 21298 C 2111.01 -1.76753 0.851625 0
M  V30 21299 O 2110.14 -2.16361 0.0411012 0
M  V30 21300 C 2110.73 -1.09402 3.2065 0
M  V30 21301 C 2109.29 -1.58893 3.41219 0
M  V30 21302 C 2108.44 -0.517719 2.72424 0
M  V30 21303 H 2111.39 0.176108 1.5772 0
M  V30 21304 H 2111.41 -1.96217 3.26005 0
M  V30 21305 H 2110.92 -0.243574 3.87335 0
M  V30 21306 H 2109.02 -2.46191 2.7968 0
M  V30 21307 H 2109.13 -1.65093 4.49757 0
M  V30 21308 H 2107.5 -0.967874 2.35594 0
M  V30 21309 H 2108.28 0.322904 3.41778 0
M  V30 21310 N 2110.73 -1.54276 -0.321972 0
M  V30 21311 C 2111.97 -1.72216 -1.05764 0
M  V30 21312 C 2112.3 -0.499518 -1.88494 0
M  V30 21313 O 2111.57 0.486466 -1.89764 0
M  V30 21314 H 2110.15 -0.634976 -0.393465 0
M  V30 21315 H 2112.81 -1.91583 -0.358025 0
M  V30 21316 H 2111.9 -2.60245 -1.72275 0
M  V30 21317 N 2112.2 0.584116 -1.46376 0
M  V30 21318 C 2113.44 1.35344 -1.53171 0
M  V30 21319 C 2113.81 1.91168 -0.178507 0
M  V30 21320 O 2115.01 2.68527 -0.121206 0
M  V30 21321 C 2113.28 2.45362 -2.5987 0
M  V30 21322 S 2114.84 3.32739 -2.8606 0
M  V30 21323 H 2111.66 0.461125 -0.541188 0
M  V30 21324 H 2114.26 0.671631 -1.83601 0
M  V30 21325 H 2112.96 2.02739 -3.56826 0
M  V30 21326 H 2112.49 3.18316 -2.31167 0
M  V30 21327 H 2114.51 4.44156 -2.21223 0
M  V30 21328 N 2113.68 1.34058 0.828631 0
M  V30 21329 C 2114.93 1.25844 1.58138 0
M  V30 21330 C 2115.25 -0.173004 1.94231 0
M  V30 21331 O 2114.52 -1.10425 1.61812 0
M  V30 21332 H 2113.1 0.4628 0.586366 0
M  V30 21333 H 2115.76 1.67901 0.989709 0
M  V30 21334 H 2114.86 1.85925 2.50676 0
M  V30 21335 N 2115.16 -1.04814 1.17694 0
M  V30 21336 C 2116.41 -1.77532 0.96576 0
M  V30 21337 C 2116.73 -1.88306 -0.506545 0
M  V30 21338 O 2116 -1.40259 -1.36763 0
M  V30 21339 H 2114.58 -0.657613 0.354336 0
M  V30 21340 H 2117.24 -1.26536 1.48239 0
M  V30 21341 H 2116.34 -2.79071 1.39735 0
M  V30 21342 N 2116.64 -0.977779 -1.23601 0
M  V30 21343 C 2117.57 -0.535228 -2.27283 0
M  V30 21344 C 2118.55 0.430261 -1.64568 0
M  V30 21345 O 2119.74 0.324195 -1.91475 0
M  V30 21346 C 2116.87 0.165683 -3.46905 0
M  V30 21347 C 2115.82 -0.716827 -4.21954 0
M  V30 21348 C 2115.15 0.116149 -5.34574 0
M  V30 21349 C 2116.45 -2.00636 -4.82227 0
M  V30 21350 H 2118.14 -1.40185 -2.64553 0
M  V30 21351 H 2115.69 -0.67551 -1.27173 0
M  V30 21352 H 2117.64 0.486573 -4.18581 0
M  V30 21353 H 2116.36 1.06674 -3.08688 0
M  V30 21354 H 2115.02 -1.02114 -3.52091 0
M  V30 21355 H 2114.67 1.01766 -4.92598 0
M  V30 21356 H 2114.37 -0.471195 -5.85708 0
M  V30 21357 H 2115.89 0.431481 -6.09074 0
M  V30 21358 H 2117.31 -1.75041 -5.45925 0
M  V30 21359 H 2115.7 -2.54126 -5.43636 0
M  V30 21360 H 2116.77 -2.69488 -4.03118 0
M  V30 21361 N 2118.12 1.38658 -0.749111 0
M  V30 21362 C 2119.36 2.00513 -0.303727 0
M  V30 21363 C 2119.7 1.59324 1.11039 0
M  V30 21364 O 2118.97 0.828679 1.75964 0
M  V30 21365 C 2119.25 3.57624 -0.421545 0
M  V30 21366 C 2119.11 4.0879 -1.87644 0
M  V30 21367 C 2120.43 4.39699 0.187724 0
M  V30 21368 H 2117.55 0.728465 -0.111835 0
M  V30 21369 H 2120.19 1.64665 -0.947915 0
M  V30 21370 H 2118.34 3.88293 0.126892 0
M  V30 21371 H 2120.01 3.88784 -2.48284 0
M  V30 21372 H 2118.25 3.61824 -2.39303 0
M  V30 21373 H 2118.92 5.179 -1.91006 0
M  V30 21374 H 2121.4 4.15157 -0.279958 0
M  V30 21375 H 2120.28 5.48849 0.0750199 0
M  V30 21376 H 2120.54 4.23301 1.27549 0
M  V30 21377 N 2119.6 0.497834 1.49531 0
M  V30 21378 C 2120.82 -0.0447105 2.06852 0
M  V30 21379 C 2121.24 -1.31106 1.35855 0
M  V30 21380 O 2120.6 -1.77218 0.435907 0
M  V30 21381 C 2120.65 -0.305505 3.60207 0
M  V30 21382 O 2120.37 0.910643 4.28531 0
M  V30 21383 C 2121.87 -0.892044 4.34232 0
M  V30 21384 H 2119.09 0.0190462 0.67073 0
M  V30 21385 H 2121.63 0.694284 1.92354 0
M  V30 21386 H 2119.79 -0.994475 3.74418 0
M  V30 21387 H 2120.2 0.67155 5.20183 0
M  V30 21388 H 2121.68 -1.02413 5.42416 0
M  V30 21389 H 2122.15 -1.88903 3.965 0
M  V30 21390 H 2122.76 -0.24064 4.24619 0
M  V30 21391 N 2121.07 -1.5589 0.231532 0
M  V30 21392 C 2122.32 -1.98855 -0.398041 0
M  V30 21393 C 2122.65 -1.11925 -1.58702 0
M  V30 21394 O 2121.93 -0.179155 -1.93673 0
M  V30 21395 C 2122.21 -3.50572 -0.822893 0
M  V30 21396 C 2122.06 -4.48272 0.370417 0
M  V30 21397 C 2123.38 -4.0696 -1.67547 0
M  V30 21398 H 2120.5 -0.722953 -0.143207 0
M  V30 21399 H 2123.14 -1.87116 0.329767 0
M  V30 21400 H 2121.29 -3.60706 -1.44303 0
M  V30 21401 H 2122.97 -4.50137 1.0087 0
M  V30 21402 H 2121.21 -4.2173 1.01617 0
M  V30 21403 H 2121.88 -5.51992 0.0300558 0
M  V30 21404 H 2124.36 -3.99831 -1.15214 0
M  V30 21405 H 2123.23 -5.13412 -1.94162 0
M  V30 21406 H 2123.49 -3.5446 -2.64217 0
M  V30 21407 N 2122.55 0.0417572 -1.57545 0
M  V30 21408 C 2123.51 1.03085 -2.0471 0
M  V30 21409 C 2124.51 1.29808 -0.94903 0
M  V30 21410 O 2125.7 1.25024 -1.21304 0
M  V30 21411 C 2122.84 2.367 -2.45329 0
M  V30 21412 H 2124.03 0.623701 -2.93343 0
M  V30 21413 H 2121.58 0.288275 -1.53619 0
M  V30 21414 H 2122.32 2.82188 -1.59813 0
M  V30 21415 H 2122.1 2.18637 -3.25485 0
M  V30 21416 H 2123.59 3.07737 -2.8229 0
M  V30 21417 N 2124.03 1.54445 0.313786 0
M  V30 21418 C 2124.98 1.80892 1.38787 0
M  V30 21419 C 2125.96 0.665408 1.46496 0
M  V30 21420 O 2127.16 0.92569 1.50864 0
M  V30 21421 C 2124.28 2.04839 2.75492 0
M  V30 21422 C 2123.37 3.25339 2.72057 0
M  V30 21423 N 2123.76 4.46179 2.3824 0
M  V30 21424 C 2122.06 3.2711 3.03175 0
M  V30 21425 C 2122.76 5.28152 2.43784 0
M  V30 21426 N 2121.74 4.65566 2.80622 0
M  V30 21427 H 2125.54 2.71893 1.11586 0
M  V30 21428 H 2123.05 1.53771 0.522315 0
M  V30 21429 H 2125.05 2.2193 3.52921 0
M  V30 21430 H 2123.71 1.15098 3.03616 0
M  V30 21431 H 2124.72 4.73006 2.10915 0
M  V30 21432 H 2121.4 2.47434 3.36277 0
M  V30 21433 H 2122.79 6.34672 2.20546 0
M  V30 21434 N 2125.51 -0.576345 1.46683 0
M  V30 21435 C 2126.46 -1.70601 1.58108 0
M  V30 21436 C 2127.45 -1.63334 0.449247 0
M  V30 21437 O 2128.66 -1.68751 0.626355 0
M  V30 21438 H 2125.03 -0.564161 0.497218 0
M  V30 21439 H 2127 -1.58098 2.53076 0
M  V30 21440 C 2125.75 -3.08983 1.59452 0
M  V30 21441 H 2125.07 -3.15247 2.45885 0
M  V30 21442 H 2126.51 -3.87768 1.715 0
M  V30 21443 C 2124.97 -3.35335 0.324303 0
M  V30 21444 O 2125.5 -3.9745 -0.58277 0
M  V30 21445 N 2123.71 -2.89838 0.21024 0
M  V30 21446 H 2123.26 -2.39471 0.949293 0
M  V30 21447 H 2123.21 -3.07843 -0.638752 0
M  V30 21448 N 2126.99 -1.34495 -0.82151 0
M  V30 21449 C 2127.95 -1.2608 -1.91407 0
M  V30 21450 C 2128.95 -0.175671 -1.59838 0
M  V30 21451 O 2130.14 -0.428389 -1.6885 0
M  V30 21452 C 2127.27 -0.9469 -3.27485 0
M  V30 21453 H 2128.46 -2.23212 -2.00291 0
M  V30 21454 H 2126.02 -1.18804 -1.01565 0
M  V30 21455 H 2126.75 0.0211878 -3.24293 0
M  V30 21456 H 2126.54 -1.73181 -3.51782 0
M  V30 21457 H 2128.03 -0.913228 -4.07492 0
M  V30 21458 N 2128.46 1.04188 -1.18248 0
M  V30 21459 C 2129.71 1.77762 -0.988552 0
M  V30 21460 C 2130.07 1.86396 0.476895 0
M  V30 21461 O 2129.36 1.36012 1.34949 0
M  V30 21462 C 2129.55 3.20799 -1.57553 0
M  V30 21463 C 2129.38 3.26107 -3.09652 0
M  V30 21464 C 2128.15 3.34807 -3.7846 0
M  V30 21465 C 2130.35 3.14217 -4.07151 0
M  V30 21466 N 2128.33 3.29352 -5.18074 0
M  V30 21467 C 2129.7 3.16247 -5.3328 0
M  V30 21468 C 2131.76 2.98251 -3.98686 0
M  V30 21469 C 2130.46 3.03951 -6.51925 0
M  V30 21470 C 2132.49 2.873 -5.16926 0
M  V30 21471 C 2131.85 2.89972 -6.41947 0
M  V30 21472 H 2127.95 0.662336 -0.415734 0
M  V30 21473 H 2130.53 1.24125 -1.50004 0
M  V30 21474 H 2128.7 3.72785 -1.09024 0
M  V30 21475 H 2130.43 3.82663 -1.31723 0
M  V30 21476 H 2127.19 3.40489 -3.29187 0
M  V30 21477 H 2127.61 3.30067 -5.91088 0
M  V30 21478 H 2132.26 2.95015 -3.02863 0
M  V30 21479 H 2129.97 3.05939 -7.47948 0
M  V30 21480 H 2133.56 2.76001 -5.12166 0
M  V30 21481 H 2132.44 2.81584 -7.31902 0
M  V30 21482 N 2129.94 0.98432 1.23081 0
M  V30 21483 C 2130.87 0.48581 2.23992 0
M  V30 21484 C 2131.89 -0.414468 1.57436 0
M  V30 21485 O 2133.08 -0.217976 1.77164 0
M  V30 21486 C 2130.18 -0.316143 3.37422 0
M  V30 21487 C 2129.35 0.578204 4.33561 0
M  V30 21488 C 2128.41 -0.170568 5.25923 0
M  V30 21489 O 2127.43 0.441138 5.67488 0
M  V30 21490 N 2128.64 -1.45541 5.61959 0
M  V30 21491 H 2131.4 1.3535 2.67396 0
M  V30 21492 H 2128.96 0.858041 1.37293 0
M  V30 21493 H 2130.95 -0.825504 3.96191 0
M  V30 21494 H 2129.52 -1.08487 2.93171 0
M  V30 21495 H 2128.74 1.26835 3.73238 0
M  V30 21496 H 2130.03 1.18757 4.94747 0
M  V30 21497 H 2129.43 -1.97385 5.30147 0
M  V30 21498 H 2127.99 -1.91013 6.23183 0
M  V30 21499 N 2131.42 -1.38259 0.756453 0
M  V30 21500 C 2132.37 -2.3043 0.130645 0
M  V30 21501 C 2133.34 -1.50324 -0.70653 0
M  V30 21502 O 2134.52 -1.78945 -0.662065 0
M  V30 21503 C 2131.66 -3.36755 -0.754338 0
M  V30 21504 C 2130.78 -4.31889 0.0977771 0
M  V30 21505 C 2129.91 -5.25286 -0.790477 0
M  V30 21506 C 2128.95 -6.12065 0.0650988 0
M  V30 21507 N 2128.09 -6.97751 -0.780275 0
M  V30 21508 H 2132.93 -2.83371 0.92222 0
M  V30 21509 H 2130.46 -1.3951 0.466406 0
M  V30 21510 H 2132.42 -3.97012 -1.2821 0
M  V30 21511 H 2131.05 -2.85216 -1.51167 0
M  V30 21512 H 2130.1 -3.73069 0.743191 0
M  V30 21513 H 2131.42 -4.93001 0.758393 0
M  V30 21514 H 2130.57 -5.90673 -1.38529 0
M  V30 21515 H 2129.31 -4.64548 -1.48482 0
M  V30 21516 H 2128.31 -5.45671 0.672561 0
M  V30 21517 H 2129.54 -6.74873 0.756543 0
M  V30 21518 H 2127.48 -6.39558 -1.45951 0
M  V30 21519 H 2127.4 -7.55794 -0.176619 0
M  V30 21520 H 2128.67 -7.67545 -1.35997 0
M  V30 21521 N 2132.9 -0.505757 -1.49264 0
M  V30 21522 C 2133.86 0.259147 -2.2773 0
M  V30 21523 C 2134.86 0.88969 -1.33945 0
M  V30 21524 O 2136.05 0.753485 -1.57061 0
M  V30 21525 C 2133.18 1.37232 -3.12058 0
M  V30 21526 H 2134.38 -0.42945 -2.96809 0
M  V30 21527 H 2131.93 -0.260876 -1.54108 0
M  V30 21528 H 2132.66 2.09492 -2.47555 0
M  V30 21529 H 2132.45 0.925587 -3.81019 0
M  V30 21530 H 2133.94 1.91099 -3.7131 0
M  V30 21531 N 2134.38 1.55765 -0.239796 0
M  V30 21532 C 2135.31 2.17095 0.703207 0
M  V30 21533 C 2136.29 1.12083 1.17797 0
M  V30 21534 O 2137.47 1.40434 1.2574 0
M  V30 21535 C 2134.6 2.76592 1.95486 0
M  V30 21536 C 2133.64 3.94595 1.61855 0
M  V30 21537 S 2134.48 5.30537 0.727373 0
M  V30 21538 C 2135.63 5.93483 1.98818 0
M  V30 21539 H 2135.87 2.96742 0.181988 0
M  V30 21540 H 2133.4 1.54381 -0.0243142 0
M  V30 21541 H 2135.36 3.11508 2.67345 0
M  V30 21542 H 2134.02 1.96904 2.4472 0
M  V30 21543 H 2133.21 4.34791 2.54898 0
M  V30 21544 H 2132.81 3.6092 0.98045 0
M  V30 21545 H 2135.11 6.10567 2.93622 0
M  V30 21546 H 2136.05 6.89088 1.62983 0
M  V30 21547 H 2136.46 5.22486 2.13703 0
M  V30 21548 N 2135.85 -0.0334016 1.57565 0
M  V30 21549 C 2137.13 -0.760253 1.80221 0
M  V30 21550 C 2137.51 -1.93806 0.836817 0
M  V30 21551 O 2136.86 -2.28174 -0.121959 0
M  V30 21552 C 2137.07 -1.19735 3.27818 0
M  V30 21553 C 2138.42 -1.61505 3.92685 0
M  V30 21554 O 2139.44 -1.29204 3.31941 0
M  V30 21555 O 2138.3 -2.21441 4.99626 0
M  V30 21556 H 2135.39 -0.36729 0.740964 0
M  V30 21557 H 2137.94 -0.0105137 1.69697 0
M  V30 21558 H 2136.71 -0.356354 3.89674 0
M  V30 21559 H 2136.34 -2.00724 3.43214 0
M  V30 21560 N 2137.33 -1.54609 -0.305591 0
M  V30 21561 C 2138.26 -1.88242 -1.38157 0
M  V30 21562 C 2139.24 -0.740883 -1.53117 0
M  V30 21563 O 2140.43 -0.996214 -1.66701 0
M  V30 21564 C 2137.56 -2.12567 -2.7465 0
M  V30 21565 C 2136.51 -3.28415 -2.74459 0
M  V30 21566 C 2135.84 -3.38148 -4.14198 0
M  V30 21567 C 2137.14 -4.65633 -2.36607 0
M  V30 21568 H 2138.83 -2.78359 -1.10258 0
M  V30 21569 H 2136.38 -1.33933 -0.528959 0
M  V30 21570 H 2138.33 -2.34681 -3.50004 0
M  V30 21571 H 2137.06 -1.19216 -3.04064 0
M  V30 21572 H 2135.71 -3.06217 -2.01561 0
M  V30 21573 H 2135.36 -2.42323 -4.40782 0
M  V30 21574 H 2135.06 -4.16019 -4.14973 0
M  V30 21575 H 2136.59 -3.62517 -4.91339 0
M  V30 21576 H 2138 -4.87508 -3.01677 0
M  V30 21577 H 2136.4 -5.46184 -2.48603 0
M  V30 21578 H 2137.47 -4.66662 -1.31738 0
M  V30 21579 N 2138.81 0.568558 -1.46987 0
M  V30 21580 C 2140.09 1.3291 -1.43507 0
M  V30 21581 C 2140.47 2.10724 -0.12598 0
M  V30 21582 O 2139.82 2.10348 0.892528 0
M  V30 21583 C 2140.03 2.2432 -2.6736 0
M  V30 21584 C 2141.37 2.85701 -3.14102 0
M  V30 21585 O 2142.4 2.34627 -2.68009 0
M  V30 21586 O 2141.26 3.78504 -3.94204 0
M  V30 21587 H 2138.35 0.597891 -0.571363 0
M  V30 21588 H 2140.9 0.588401 -1.59173 0
M  V30 21589 H 2139.67 1.66345 -3.54182 0
M  V30 21590 H 2139.29 3.05705 -2.54224 0
M  V30 21591 N 2140.29 1.34929 0.814366 0
M  V30 21592 C 2141.22 1.2306 1.93362 0
M  V30 21593 C 2142.23 0.155675 1.62054 0
M  V30 21594 O 2143.42 0.408278 1.73768 0
M  V30 21595 C 2140.52 0.870492 3.2753 0
M  V30 21596 C 2139.7 2.04217 3.868 0
M  V30 21597 C 2138.75 1.65909 4.9936 0
M  V30 21598 O 2137.78 2.37681 5.172 0
M  V30 21599 N 2138.98 0.578203 5.77613 0
M  V30 21600 H 2141.75 2.19486 2.04074 0
M  V30 21601 H 2139.31 1.27996 0.991391 0
M  V30 21602 H 2141.3 0.59585 4.0029 0
M  V30 21603 H 2139.87 -0.00384556 3.126 0
M  V30 21604 H 2139.09 2.48106 3.06328 0
M  V30 21605 H 2140.38 2.82556 4.23131 0
M  V30 21606 H 2139.78 -0.0182731 5.65697 0
M  V30 21607 H 2138.33 0.363319 6.50787 0
M  V30 21608 N 2141.77 -1.0356 1.18799 0
M  V30 21609 C 2143.04 -1.73872 0.895991 0
M  V30 21610 C 2143.42 -2.02395 -0.59995 0
M  V30 21611 O 2142.77 -1.6732 -1.55616 0
M  V30 21612 C 2142.98 -3.02028 1.74871 0
M  V30 21613 C 2144.33 -3.75667 1.97887 0
M  V30 21614 O 2145.35 -3.11939 1.71966 0
M  V30 21615 O 2144.21 -4.90219 2.41553 0
M  V30 21616 H 2141.31 -0.756859 0.333306 0
M  V30 21617 H 2143.85 -1.09579 1.29578 0
M  V30 21618 H 2142.62 -2.77126 2.76256 0
M  V30 21619 H 2142.25 -3.7406 1.34776 0
M  V30 21620 N 2143.25 -0.990834 -1.22557 0
M  V30 21621 C 2144.49 -0.666519 -1.91534 0
M  V30 21622 C 2144.82 0.799165 -1.76994 0
M  V30 21623 O 2144.1 1.57769 -1.13751 0
M  V30 21624 C 2144.38 -1.07064 -3.43816 0
M  V30 21625 C 2144.24 -2.59473 -3.67415 0
M  V30 21626 C 2145.55 -0.622332 -4.35678 0
M  V30 21627 H 2142.67 -0.243613 -0.695573 0
M  V30 21628 H 2145.32 -1.23399 -1.44474 0
M  V30 21629 H 2143.47 -0.587797 -3.84028 0
M  V30 21630 H 2145.14 -3.15412 -3.3662 0
M  V30 21631 H 2143.38 -3.01635 -3.11767 0
M  V30 21632 H 2144.05 -2.828 -4.74055 0
M  V30 21633 H 2146.53 -1.03704 -4.0297 0
M  V30 21634 H 2145.4 -0.933416 -5.40905 0
M  V30 21635 H 2145.66 0.477057 -4.39519 0
M  V30 21636 N 2144.72 1.37856 -0.763775 0
M  V30 21637 C 2145.65 2.32961 -0.158515 0
M  V30 21638 C 2146.63 1.55381 0.692142 0
M  V30 21639 O 2147.82 1.83655 0.631241 0
M  V30 21640 C 2144.95 3.39593 0.727585 0
M  V30 21641 C 2143.9 4.27995 -0.0211379 0
M  V30 21642 C 2143.23 5.2557 0.983884 0
M  V30 21643 C 2144.53 5.08434 -1.1955 0
M  V30 21644 H 2146.22 2.83828 -0.952999 0
M  V30 21645 H 2143.77 1.36465 -0.459721 0
M  V30 21646 H 2145.72 4.05098 1.16076 0
M  V30 21647 H 2144.45 2.87233 1.5545 0
M  V30 21648 H 2143.11 3.6401 -0.435002 0
M  V30 21649 H 2142.75 4.69493 1.80514 0
M  V30 21650 H 2142.45 5.85574 0.487507 0
M  V30 21651 H 2143.98 5.9395 1.41616 0
M  V30 21652 H 2145.39 5.67122 -0.839372 0
M  V30 21653 H 2143.79 5.77724 -1.62342 0
M  V30 21654 H 2144.86 4.41575 -2.00349 0
M  V30 21655 N 2146.2 0.513665 1.48994 0
M  V30 21656 C 2147.43 -0.0248975 2.07385 0
M  V30 21657 C 2147.85 -1.28903 1.36987 0
M  V30 21658 O 2147.21 -1.76113 0.430588 0
M  V30 21659 C 2147.26 -0.248634 3.59742 0
M  V30 21660 O 2146.36 -1.32076 3.90679 0
M  V30 21661 H 2145.7 0.0318565 0.663235 0
M  V30 21662 H 2148.23 0.716913 1.91629 0
M  V30 21663 H 2148.24 -0.476291 4.0521 0
M  V30 21664 H 2146.92 0.674899 4.10388 0
M  V30 21665 H 2145.49 -1.07705 3.57007 0
M  V30 21666 N 2147.68 -1.55636 0.248053 0
M  V30 21667 C 2148.64 -2.2015 -0.637698 0
M  V30 21668 C 2149.64 -1.17112 -1.10188 0
M  V30 21669 O 2150.83 -1.42187 -1.00641 0
M  V30 21670 C 2147.96 -2.84598 -1.87661 0
M  V30 21671 H 2149.16 -2.99807 -0.0748129 0
M  V30 21672 H 2146.71 -1.563 -0.00148259 0
M  V30 21673 H 2147.45 -2.08882 -2.4807 0
M  V30 21674 H 2147.23 -3.60078 -1.55197 0
M  V30 21675 H 2148.72 -3.33968 -2.50709 0
M  V30 21676 N 2149.16 0.0250451 -1.5758 0
M  V30 21677 C 2150.09 1.02382 -2.09857 0
M  V30 21678 C 2151.07 1.37455 -1.002 0
M  V30 21679 O 2152.25 1.46269 -1.27746 0
M  V30 21680 C 2149.38 2.32351 -2.58128 0
M  V30 21681 C 2148.34 2.11509 -3.72086 0
M  V30 21682 C 2147.66 3.47274 -4.06577 0
M  V30 21683 C 2148.96 1.49799 -5.00357 0
M  V30 21684 H 2150.66 0.58863 -2.93557 0
M  V30 21685 H 2148.2 0.281696 -1.41218 0
M  V30 21686 H 2150.16 3.02556 -2.93322 0
M  V30 21687 H 2148.88 2.77938 -1.71518 0
M  V30 21688 H 2147.54 1.43737 -3.37247 0
M  V30 21689 H 2147.19 3.90516 -3.17027 0
M  V30 21690 H 2146.89 3.34153 -4.83338 0
M  V30 21691 H 2148.41 4.18834 -4.44309 0
M  V30 21692 H 2149.83 2.09927 -5.33483 0
M  V30 21693 H 2148.22 1.47241 -5.81756 0
M  V30 21694 H 2149.29 0.464269 -4.82672 0
M  V30 21695 N 2150.64 1.54769 0.297388 0
M  V30 21696 C 2151.6 1.85222 1.35002 0
M  V30 21697 C 2152.6 0.725316 1.43512 0
M  V30 21698 O 2153.79 0.993591 1.43085 0
M  V30 21699 C 2150.92 2.03573 2.73443 0
M  V30 21700 H 2152.11 2.79296 1.09241 0
M  V30 21701 H 2149.67 1.46886 0.53424 0
M  V30 21702 H 2150.4 1.11799 3.0442 0
M  V30 21703 H 2150.19 2.85599 2.68655 0
M  V30 21704 H 2151.68 2.28492 3.49545 0
M  V30 21705 N 2152.11 -0.560755 1.47286 0
M  V30 21706 C 2153.02 -1.69558 1.62133 0
M  V30 21707 C 2154.04 -1.66533 0.50425 0
M  V30 21708 O 2155.22 -1.86045 0.771315 0
M  V30 21709 C 2152.28 -3.06065 1.62865 0
M  V30 21710 C 2151.34 -3.20185 2.85972 0
M  V30 21711 C 2150.57 -4.5018 2.8666 0
M  V30 21712 O 2150.8 -5.35423 1.96669 0
M  V30 21713 O 2149.73 -4.68015 3.78478 0
M  V30 21714 H 2153.56 -1.59976 2.5815 0
M  V30 21715 H 2151.14 -0.730353 1.30331 0
M  V30 21716 H 2153.02 -3.87307 1.66046 0
M  V30 21717 H 2151.7 -3.16037 0.700143 0
M  V30 21718 H 2150.61 -2.38353 2.88337 0
M  V30 21719 H 2151.94 -3.15114 3.78106 0
M  V30 21720 N 2153.59 -1.35359 -0.807199 0
M  V30 21721 C 2154.84 -1.28788 -1.56657 0
M  V30 21722 C 2155.17 0.137625 -1.93712 0
M  V30 21723 O 2154.45 1.08685 -1.61301 0
M  V30 21724 C 2154.73 -2.19379 -2.85561 0
M  V30 21725 C 2154.58 -3.70543 -2.54986 0
M  V30 21726 C 2155.9 -2.0909 -3.87259 0
M  V30 21727 H 2153.02 -0.469169 -0.568374 0
M  V30 21728 H 2155.66 -1.65754 -0.928736 0
M  V30 21729 H 2153.81 -1.87984 -3.39992 0
M  V30 21730 H 2155.48 -4.12377 -2.06743 0
M  V30 21731 H 2153.73 -3.90855 -1.88189 0
M  V30 21732 H 2154.4 -4.29316 -3.46975 0
M  V30 21733 H 2156.87 -2.36687 -3.42226 0
M  V30 21734 H 2155.75 -2.74675 -4.75231 0
M  V30 21735 H 2156.01 -1.07265 -4.2889 0
M  V30 21736 N 2155.07 1.02928 -1.19346 0
M  V30 21737 C 2155.98 2.14674 -0.946161 0
M  V30 21738 C 2157 1.73748 0.0936895 0
M  V30 21739 O 2158.17 2.01195 -0.0908598 0
M  V30 21740 C 2155.24 3.43253 -0.487673 0
M  V30 21741 C 2154.3 3.98496 -1.59686 0
M  V30 21742 C 2153.53 5.20938 -1.16016 0
M  V30 21743 O 2153.75 5.70395 -0.0235541 0
M  V30 21744 O 2152.69 5.69006 -1.96254 0
M  V30 21745 H 2156.51 2.38399 -1.88148 0
M  V30 21746 H 2154.1 1.13092 -0.97625 0
M  V30 21747 H 2155.98 4.20713 -0.240612 0
M  V30 21748 H 2154.66 3.20974 0.41921 0
M  V30 21749 H 2153.56 3.22373 -1.89807 0
M  V30 21750 H 2154.9 4.25138 -2.48029 0
M  V30 21751 N 2156.55 0.997319 1.2203 0
M  V30 21752 C 2157.48 0.50954 2.23464 0
M  V30 21753 C 2158.49 -0.397746 1.57866 0
M  V30 21754 O 2159.68 -0.199173 1.77385 0
M  V30 21755 C 2156.78 -0.280337 3.37739 0
M  V30 21756 C 2155.95 0.624157 4.32924 0
M  V30 21757 C 2155.01 -0.114778 5.26075 0
M  V30 21758 O 2154.04 0.501303 5.66988 0
M  V30 21759 N 2155.24 -1.39573 5.63471 0
M  V30 21760 H 2158.01 1.38179 2.65945 0
M  V30 21761 H 2155.57 0.872554 1.36375 0
M  V30 21762 H 2157.56 -0.783436 3.97045 0
M  V30 21763 H 2156.13 -1.05371 2.94305 0
M  V30 21764 H 2155.35 1.30786 3.71872 0
M  V30 21765 H 2156.64 1.23998 4.93459 0
M  V30 21766 H 2156.04 -1.91751 5.3221 0
M  V30 21767 H 2154.59 -1.84393 6.25174 0
M  V30 21768 N 2158.03 -1.37449 0.771075 0
M  V30 21769 C 2158.96 -2.32874 0.170867 0
M  V30 21770 C 2159.94 -1.55746 -0.683892 0
M  V30 21771 O 2161.12 -1.83987 -0.621492 0
M  V30 21772 C 2158.25 -3.39974 -0.709566 0
M  V30 21773 C 2157.21 -4.27978 0.0438353 0
M  V30 21774 C 2156.53 -5.26084 -0.955998 0
M  V30 21775 C 2157.83 -5.07793 1.22245 0
M  V30 21776 H 2159.53 -2.83319 0.968038 0
M  V30 21777 H 2157.07 -1.36219 0.466952 0
M  V30 21778 H 2159.03 -4.05708 -1.13926 0
M  V30 21779 H 2157.75 -2.88053 -1.53925 0
M  V30 21780 H 2156.41 -3.63774 0.454301 0
M  V30 21781 H 2156.06 -4.70444 -1.78021 0
M  V30 21782 H 2155.76 -5.85824 -0.456445 0
M  V30 21783 H 2157.28 -5.94693 -1.38465 0
M  V30 21784 H 2158.69 -5.66669 0.869436 0
M  V30 21785 H 2157.09 -5.76855 1.65404 0
M  V30 21786 H 2158.16 -4.40506 2.02688 0
M  V30 21787 N 2159.5 -0.52156 -1.4872 0
M  V30 21788 C 2160.73 0.013899 -2.07395 0
M  V30 21789 C 2161.15 1.28175 -1.37669 0
M  V30 21790 O 2160.51 1.75882 -0.439921 0
M  V30 21791 C 2160.56 0.229553 -3.59869 0
M  V30 21792 O 2159.66 1.30002 -3.91374 0
M  V30 21793 H 2159.01 -0.0353734 -0.663057 0
M  V30 21794 H 2161.54 -0.727065 -1.91246 0
M  V30 21795 H 2161.55 0.454795 -4.05457 0
M  V30 21796 H 2160.22 -0.696653 -4.10024 0
M  V30 21797 H 2158.8 1.0581 -3.57573 0
M  V30 21798 N 2160.98 1.55502 -0.256304 0
M  V30 21799 C 2161.93 2.2177 0.63926 0
M  V30 21800 C 2162.9 1.18474 1.16418 0
M  V30 21801 O 2164.08 1.46954 1.21693 0
M  V30 21802 C 2161.22 2.92819 1.82623 0
M  V30 21803 C 2160.34 4.10791 1.33695 0
M  V30 21804 C 2159.47 4.69531 2.48423 0
M  V30 21805 C 2158.51 5.79735 1.96403 0
M  V30 21806 N 2157.65 6.32617 3.04533 0
M  V30 21807 H 2162.49 2.97924 0.0674772 0
M  V30 21808 H 2160.03 1.47084 0.0215424 0
M  V30 21809 H 2161.98 3.32216 2.52366 0
M  V30 21810 H 2160.61 2.19122 2.37034 0
M  V30 21811 H 2159.67 3.76644 0.533253 0
M  V30 21812 H 2160.98 4.90321 0.915786 0
M  V30 21813 H 2160.13 5.11551 3.26191 0
M  V30 21814 H 2158.87 3.89238 2.93845 0
M  V30 21815 H 2157.88 5.37183 1.17108 0
M  V30 21816 H 2159.1 6.61885 1.51939 0
M  V30 21817 H 2157.05 5.55225 3.49372 0
M  V30 21818 H 2156.96 7.07366 2.66776 0
M  V30 21819 H 2158.23 6.79295 3.82332 0
M  V30 21820 N 2162.46 -0.0166879 1.57591 0
M  V30 21821 C 2163.39 -1.04687 2.02771 0
M  V30 21822 C 2164.37 -1.34455 0.914357 0
M  V30 21823 O 2165.56 -1.46903 1.18118 0
M  V30 21824 C 2162.68 -2.37861 2.41122 0
M  V30 21825 C 2161.73 -2.23867 3.63023 0
M  V30 21826 S 2162.56 -1.58041 5.11648 0
M  V30 21827 C 2163.72 -2.92679 5.53254 0
M  V30 21828 H 2163.95 -0.662104 2.89834 0
M  V30 21829 H 2161.48 -0.227051 1.52721 0
M  V30 21830 H 2163.44 -3.14441 2.63888 0
M  V30 21831 H 2162.1 -2.73481 1.54488 0
M  V30 21832 H 2161.3 -3.22208 3.87554 0
M  V30 21833 H 2160.9 -1.5543 3.40173 0
M  V30 21834 H 2163.19 -3.89 5.54694 0
M  V30 21835 H 2164.13 -2.72868 6.53413 0
M  V30 21836 H 2164.54 -2.95821 4.80781 0
M  V30 21837 N 2163.94 -1.54924 -0.289176 0
M  V30 21838 C 2165.18 -1.75025 -1.0244 0
M  V30 21839 C 2165.52 -0.540906 -1.86515 0
M  V30 21840 O 2164.79 0.461833 -1.88937 0
M  V30 21841 C 2165.08 -3.04611 -1.92052 0
M  V30 21842 C 2164.93 -4.35869 -1.11079 0
M  V30 21843 C 2166.25 -3.30134 -2.91032 0
M  V30 21844 H 2163.37 -0.636806 -0.371008 0
M  V30 21845 H 2166.01 -1.87647 -0.298076 0
M  V30 21846 H 2164.16 -2.93981 -2.53983 0
M  V30 21847 H 2165.83 -4.58434 -0.513434 0
M  V30 21848 H 2164.07 -4.31822 -0.41379 0
M  V30 21849 H 2164.74 -5.22832 -1.7706 0
M  V30 21850 H 2167.22 -3.40451 -2.39233 0
M  V30 21851 H 2166.1 -4.221 -3.50889 0
M  V30 21852 H 2166.36 -2.48995 -3.65314 0
M  V30 21853 N 2165.42 0.552936 -1.47582 0
M  V30 21854 C 2166.64 1.34003 -1.58297 0
M  V30 21855 C 2167.07 1.86625 -0.23511 0
M  V30 21856 O 2166.42 1.63197 0.789702 0
M  V30 21857 C 2166.47 2.48288 -2.61506 0
M  V30 21858 O 2165.58 3.50647 -2.17073 0
M  V30 21859 H 2164.92 0.397855 -0.531608 0
M  V30 21860 H 2167.45 0.667783 -1.93395 0
M  V30 21861 H 2167.46 2.94798 -2.8206 0
M  V30 21862 H 2166.13 2.09345 -3.59371 0
M  V30 21863 H 2164.71 3.10413 -2.06636 0
M  V30 21864 N 2166.89 1.35785 0.800009 0
M  V30 21865 C 2167.8 1.31374 1.94366 0
M  V30 21866 C 2168.82 0.217584 1.72634 0
M  V30 21867 O 2170 0.448112 1.96352 0
M  V30 21868 C 2167.06 1.09184 3.29059 0
M  V30 21869 C 2166.12 2.28175 3.63641 0
M  V30 21870 C 2165.36 2.07034 4.91907 0
M  V30 21871 O 2165.58 1.04013 5.60836 0
M  V30 21872 O 2164.51 2.94557 5.249 0
M  V30 21873 H 2168.34 2.27637 2.01035 0
M  V30 21874 H 2165.92 1.16224 0.938743 0
M  V30 21875 H 2167.81 0.98684 4.09682 0
M  V30 21876 H 2166.48 0.159766 3.23305 0
M  V30 21877 H 2165.39 2.44241 2.83367 0
M  V30 21878 H 2166.72 3.19852 3.74106 0
M  V30 21879 N 2168.37 -1.02294 1.19891 0
M  V30 21880 C 2169.34 -2.08864 0.943854 0
M  V30 21881 C 2170.34 -1.6061 -0.0780656 0
M  V30 21882 O 2171.53 -1.73488 0.157319 0
M  V30 21883 C 2168.66 -3.38306 0.419714 0
M  V30 21884 H 2169.85 -2.32924 1.88909 0
M  V30 21885 H 2167.4 -1.18996 1.01339 0
M  V30 21886 H 2168.14 -3.19918 -0.531286 0
M  V30 21887 H 2167.92 -3.74653 1.15661 0
M  V30 21888 H 2169.41 -4.16786 0.26055 0
M  V30 21889 N 2169.85 -1.00378 -1.21499 0
M  V30 21890 C 2170.8 -0.563153 -2.23824 0
M  V30 21891 C 2171.77 0.410151 -1.60956 0
M  V30 21892 O 2172.95 0.312473 -1.88224 0
M  V30 21893 C 2170.09 0.105277 -3.44939 0
M  V30 21894 C 2169.21 -0.91106 -4.22284 0
M  V30 21895 C 2168.34 -0.215019 -5.30765 0
M  V30 21896 C 2167.38 -1.21899 -5.99839 0
M  V30 21897 N 2166.52 -0.550506 -6.99938 0
M  V30 21898 H 2171.36 -1.44041 -2.60876 0
M  V30 21899 H 2168.89 -0.721302 -1.28202 0
M  V30 21900 H 2170.85 0.509838 -4.14073 0
M  V30 21901 H 2169.48 0.946261 -3.08619 0
M  V30 21902 H 2168.53 -1.43387 -3.52341 0
M  V30 21903 H 2169.85 -1.67513 -4.69831 0
M  V30 21904 H 2169 0.245713 -6.06202 0
M  V30 21905 H 2167.74 0.581469 -4.84221 0
M  V30 21906 H 2166.74 -1.69024 -5.23174 0
M  V30 21907 H 2167.97 -2.01654 -6.48469 0
M  V30 21908 H 2165.91 0.226347 -6.55609 0
M  V30 21909 H 2165.83 -1.25285 -7.45547 0
M  V30 21910 H 2167.1 -0.112938 -7.79418 0
M  V30 21911 N 2171.33 1.37038 -0.778354 0
M  V30 21912 C 2172.26 2.3278 -0.183215 0
M  V30 21913 C 2173.24 1.56107 0.675623 0
M  V30 21914 O 2174.42 1.84314 0.611726 0
M  V30 21915 C 2171.55 3.40346 0.691526 0
M  V30 21916 C 2170.51 4.27948 -0.0665313 0
M  V30 21917 C 2169.83 5.26584 0.928085 0
M  V30 21918 C 2171.13 5.07137 -1.24936 0
M  V30 21919 H 2172.83 2.82801 -0.983049 0
M  V30 21920 H 2170.37 1.35969 -0.474169 0
M  V30 21921 H 2172.33 4.06306 1.11773 0
M  V30 21922 H 2171.05 2.88866 1.52395 0
M  V30 21923 H 2169.71 3.63528 -0.473586 0
M  V30 21924 H 2169.36 4.71381 1.75524 0
M  V30 21925 H 2169.06 5.86058 0.425371 0
M  V30 21926 H 2170.58 5.95419 1.35309 0
M  V30 21927 H 2172 5.662 -0.899476 0
M  V30 21928 H 2170.39 5.7597 -1.68461 0
M  V30 21929 H 2171.46 4.39425 -2.05021 0
M  V30 21930 N 2172.81 0.529439 1.48441 0
M  V30 21931 C 2174.22 0.18726 1.58498 0
M  V30 21932 C 2174.42 -1.30947 1.53151 0
M  V30 21933 O 2173.48 -2.08768 1.42029 0
M  V30 21934 C 2174.79 0.789307 2.90156 0
M  V30 21935 C 2176.34 0.757992 3.03683 0
M  V30 21936 C 2176.82 1.33861 4.38002 0
M  V30 21937 N 2178.31 1.30055 4.44567 0
M  V30 21938 C 2179.04 1.7197 5.47004 0
M  V30 21939 N 2178.54 2.21612 6.56399 0
M  V30 21940 N 2180.33 1.63211 5.37884 0
M  V30 21941 H 2172.48 1.5022 1.50159 0
M  V30 21942 H 2174.74 0.624813 0.712961 0
M  V30 21943 H 2174.45 1.84009 2.99722 0
M  V30 21944 H 2174.32 0.266088 3.7626 0
M  V30 21945 H 2176.71 -0.284031 2.9373 0
M  V30 21946 H 2176.79 1.31867 2.19191 0
M  V30 21947 H 2176.44 2.37955 4.48709 0
M  V30 21948 H 2176.37 0.75361 5.2118 0
M  V30 21949 H 2178.86 0.937142 3.66096 0
M  V30 21950 H 2179.17 2.51591 7.30699 0
M  V30 21951 H 2177.52 2.25605 6.57364 0
M  V30 21952 H 2180.71 1.24226 4.51315 0
M  V30 21953 H 2180.88 1.96197 6.17584 0
M  V30 21954 N 2174.29 -1.55364 0.264547 0
M  V30 21955 C 2175.25 -2.20814 -0.614312 0
M  V30 21956 C 2176.25 -1.18274 -1.0894 0
M  V30 21957 O 2177.44 -1.43246 -0.991274 0
M  V30 21958 C 2174.57 -2.86572 -1.84632 0
M  V30 21959 H 2175.76 -2.99869 -0.0430102 0
M  V30 21960 H 2173.32 -1.56293 0.0150952 0
M  V30 21961 H 2174.05 -2.11501 -2.45841 0
M  V30 21962 H 2173.84 -3.61704 -1.51369 0
M  V30 21963 H 2175.33 -3.36608 -2.47153 0
M  V30 21964 N 2175.76 0.00833021 -1.57598 0
M  V30 21965 C 2177.04 0.731485 -1.81407 0
M  V30 21966 C 2177.42 1.9245 -0.867544 0
M  V30 21967 O 2176.77 2.28339 0.0856431 0
M  V30 21968 C 2176.98 1.14505 -3.29681 0
M  V30 21969 C 2178.33 1.55237 -3.95205 0
M  V30 21970 O 2179.35 1.23907 -3.33954 0
M  V30 21971 O 2178.21 2.13464 -5.03086 0
M  V30 21972 H 2175.3 0.355455 -0.746713 0
M  V30 21973 H 2177.85 -0.0164849 -1.69692 0
M  V30 21974 H 2176.62 0.294315 -3.90192 0
M  V30 21975 H 2176.24 1.95238 -3.46364 0
M  V30 21976 N 2177.24 1.55075 0.280956 0
M  V30 21977 C 2178.15 1.90495 1.36927 0
M  V30 21978 C 2179.17 0.801283 1.54452 0
M  V30 21979 O 2180.34 1.09962 1.68732 0
M  V30 21980 C 2177.41 2.16264 2.70981 0
M  V30 21981 C 2176.47 3.39872 2.6227 0
M  V30 21982 C 2175.7 3.64402 3.89932 0
M  V30 21983 O 2175.93 2.91582 4.90241 0
M  V30 21984 O 2174.86 4.57934 3.90615 0
M  V30 21985 H 2178.69 2.83123 1.09888 0
M  V30 21986 H 2176.27 1.4152 0.478787 0
M  V30 21987 H 2178.15 2.34299 3.5026 0
M  V30 21988 H 2176.83 1.2682 2.97823 0
M  V30 21989 H 2175.73 3.2718 1.81395 0
M  V30 21990 H 2177.07 4.2951 2.40379 0
M  V30 21991 N 2178.72 -0.545102 1.47873 0
M  V30 21992 C 2179.68 -1.63324 1.60804 0
M  V30 21993 C 2180.68 -1.53397 0.482294 0
M  V30 21994 O 2181.87 -1.57338 0.747692 0
M  V30 21995 C 2179 -3.02906 1.56399 0
M  V30 21996 H 2180.2 -1.53204 2.57815 0
M  V30 21997 H 2177.75 -0.765983 1.36244 0
M  V30 21998 H 2178.49 -3.18548 0.608084 0
M  V30 21999 H 2178.27 -3.11521 2.38112 0
M  V30 22000 H 2179.76 -3.82048 1.6861 0
M  V30 22001 N 2180.2 -1.36208 -0.792797 0
M  V30 22002 C 2181.14 -1.30258 -1.90529 0
M  V30 22003 C 2182.11 -0.171903 -1.65208 0
M  V30 22004 O 2183.3 -0.357869 -1.87414 0
M  V30 22005 C 2180.44 -1.09434 -3.27289 0
M  V30 22006 C 2179.55 -2.31548 -3.64705 0
M  V30 22007 C 2178.69 -2.03763 -4.90565 0
M  V30 22008 C 2177.73 -3.21855 -5.20649 0
M  V30 22009 N 2176.86 -2.93756 -6.37692 0
M  V30 22010 H 2181.7 -2.25385 -1.9495 0
M  V30 22011 H 2179.24 -1.12022 -0.953389 0
M  V30 22012 H 2181.2 -0.953883 -4.06149 0
M  V30 22013 H 2179.83 -0.179641 -3.223 0
M  V30 22014 H 2178.88 -2.56409 -2.80996 0
M  V30 22015 H 2180.19 -3.19685 -3.82888 0
M  V30 22016 H 2179.35 -1.86627 -5.77283 0
M  V30 22017 H 2178.09 -1.12931 -4.74445 0
M  V30 22018 H 2177.09 -3.39553 -4.32416 0
M  V30 22019 H 2178.32 -4.13507 -5.38691 0
M  V30 22020 H 2176.26 -2.05533 -6.2297 0
M  V30 22021 H 2176.18 -3.75431 -6.56192 0
M  V30 22022 H 2177.45 -2.80192 -7.27401 0
M  V30 22023 N 2181.68 1.01656 -1.20431 0
M  V30 22024 C 2182.61 2.10319 -0.910955 0
M  V30 22025 C 2183.62 1.62485 0.1013 0
M  V30 22026 O 2184.81 1.78028 -0.129719 0
M  V30 22027 C 2181.91 3.37148 -0.344189 0
M  V30 22028 C 2181.08 4.14119 -1.40799 0
M  V30 22029 C 2180.14 5.19248 -0.852542 0
M  V30 22030 O 2179.17 5.48161 -1.53324 0
M  V30 22031 N 2180.37 5.79515 0.338032 0
M  V30 22032 H 2183.13 2.36073 -1.84634 0
M  V30 22033 H 2180.7 1.18047 -1.10799 0
M  V30 22034 H 2182.69 4.04679 0.0415379 0
M  V30 22035 H 2181.26 3.08644 0.495757 0
M  V30 22036 H 2180.48 3.41557 -1.96805 0
M  V30 22037 H 2181.77 4.62326 -2.12444 0
M  V30 22038 H 2181.16 5.5836 0.908322 0
M  V30 22039 H 2179.72 6.48395 0.665396 0
M  V30 22040 N 2183.15 1.01021 1.20965 0
M  V30 22041 C 2184.38 0.714661 1.94698 0
M  V30 22042 C 2184.8 -0.717235 1.73889 0
M  V30 22043 O 2184.16 -1.49265 1.02906 0
M  V30 22044 C 2184.21 1.04769 3.45045 0
M  V30 22045 O 2183.31 0.155818 4.12106 0
M  V30 22046 H 2182.65 0.265768 0.608493 0
M  V30 22047 H 2185.18 1.35186 1.53577 0
M  V30 22048 H 2185.19 0.996722 3.95638 0
M  V30 22049 H 2183.87 2.09099 3.59514 0
M  V30 22050 H 2182.45 0.263764 3.71966 0
M  V30 22051 N 2184.63 -1.36623 0.78561 0
M  V30 22052 C 2185.59 -2.28433 0.187388 0
M  V30 22053 C 2186.59 -1.48655 -0.613055 0
M  V30 22054 O 2187.78 -1.68691 -0.434608 0
M  V30 22055 C 2184.92 -3.32746 -0.741121 0
M  V30 22056 H 2186.11 -2.82847 0.996872 0
M  V30 22057 H 2183.66 -1.46123 0.554769 0
M  V30 22058 H 2184.4 -2.83481 -1.57509 0
M  V30 22059 H 2184.18 -3.91735 -0.169144 0
M  V30 22060 H 2185.67 -4.01319 -1.15467 0
M  V30 22061 N 2186.11 -0.537304 -1.48158 0
M  V30 22062 C 2187.02 0.225092 -2.33518 0
M  V30 22063 C 2188.04 0.931763 -1.4695 0
M  V30 22064 O 2189.21 0.905094 -1.79917 0
M  V30 22065 C 2186.28 1.25403 -3.23226 0
M  V30 22066 C 2185.34 0.556924 -4.25672 0
M  V30 22067 C 2184.57 1.53684 -5.11094 0
M  V30 22068 O 2184.79 2.77009 -4.9862 0
M  V30 22069 O 2183.73 1.07222 -5.92273 0
M  V30 22070 H 2187.55 -0.474567 -2.99969 0
M  V30 22071 H 2185.14 -0.298137 -1.46395 0
M  V30 22072 H 2187.02 1.84847 -3.78695 0
M  V30 22073 H 2185.7 1.93596 -2.59427 0
M  V30 22074 H 2184.6 -0.0781996 -3.74018 0
M  V30 22075 H 2185.94 -0.0832021 -4.9213 0
M  V30 22076 N 2187.59 1.55221 -0.272782 0
M  V30 22077 C 2188.87 1.91543 0.396336 0
M  V30 22078 C 2189.25 1.19676 1.73899 0
M  V30 22079 O 2188.59 0.322832 2.26208 0
M  V30 22080 C 2188.8 3.44814 0.53892 0
M  V30 22081 C 2190.15 4.1655 0.822894 0
M  V30 22082 O 2191.18 3.50695 0.623816 0
M  V30 22083 O 2190.03 5.33084 1.2035 0
M  V30 22084 H 2187.13 0.798123 0.21663 0
M  V30 22085 H 2189.67 1.66679 -0.318762 0
M  V30 22086 H 2188.45 3.89187 -0.406068 0
M  V30 22087 H 2188.07 3.75623 1.30358 0
M  V30 22088 N 2189.07 2.77022e-05 1.576 0
M  V30 22089 C 2190.32 -0.684007 1.89748 0
M  V30 22090 C 2190.63 -1.74935 0.875041 0
M  V30 22091 O 2191.83 -2.48802 1.08674 0
M  V30 22092 C 2190.29 -1.26778 3.36831 0
M  V30 22093 C 2189.9 -0.23725 4.47371 0
M  V30 22094 C 2191.64 -1.93 3.78089 0
M  V30 22095 C 2189.55 -0.831011 5.85532 0
M  V30 22096 H 2188.48 -0.259241 0.708033 0
M  V30 22097 H 2191.13 0.0605762 1.834 0
M  V30 22098 H 2189.51 -2.06303 3.38017 0
M  V30 22099 H 2190.69 0.53341 4.57702 0
M  V30 22100 H 2189 0.324536 4.15133 0
M  V30 22101 H 2191.6 -2.38328 4.78648 0
M  V30 22102 H 2191.94 -2.76058 3.11605 0
M  V30 22103 H 2192.47 -1.20209 3.79203 0
M  V30 22104 H 2189.21 -0.0392145 6.55488 0
M  V30 22105 H 2188.73 -1.57083 5.78865 0
M  V30 22106 H 2190.41 -1.32963 6.3319 0
M  V30 22107 N 2190.54 -1.55222 -0.272728 0
M  V30 22108 C 2191.47 -1.9113 -1.34133 0
M  V30 22109 C 2192.46 -0.773195 -1.51511 0
M  V30 22110 O 2193.64 -1.03135 -1.6455 0
M  V30 22111 C 2190.77 -2.18345 -2.70079 0
M  V30 22112 C 2189.72 -3.34162 -2.67431 0
M  V30 22113 C 2189.05 -3.46858 -4.06932 0
M  V30 22114 C 2190.35 -4.70547 -2.26677 0
M  V30 22115 H 2192.04 -2.80635 -1.04328 0
M  V30 22116 H 2189.59 -1.35025 -0.50043 0
M  V30 22117 H 2191.54 -2.42052 -3.44948 0
M  V30 22118 H 2190.27 -1.25639 -3.01467 0
M  V30 22119 H 2188.93 -3.10423 -1.9502 0
M  V30 22120 H 2188.57 -2.51618 -4.35542 0
M  V30 22121 H 2188.27 -4.24727 -4.06055 0
M  V30 22122 H 2189.8 -3.72858 -4.83539 0
M  V30 22123 H 2191.21 -4.93797 -2.91268 0
M  V30 22124 H 2189.61 -5.51334 -2.36961 0
M  V30 22125 H 2190.68 -4.69351 -1.2181 0
M  V30 22126 N 2192.02 0.537252 -1.4816 0
M  V30 22127 C 2192.95 1.65187 -1.65032 0
M  V30 22128 C 2193.93 1.62607 -0.499309 0
M  V30 22129 O 2195.12 1.79917 -0.731003 0
M  V30 22130 C 2192.25 3.03792 -1.68308 0
M  V30 22131 C 2191.2 3.21229 -2.82836 0
M  V30 22132 C 2190.53 4.60821 -2.71197 0
M  V30 22133 C 2191.83 3.04693 -4.24216 0
M  V30 22134 H 2193.52 1.51323 -2.58344 0
M  V30 22135 H 2191.07 0.726563 -1.24326 0
M  V30 22136 H 2193.02 3.81634 -1.787 0
M  V30 22137 H 2191.75 3.18662 -0.715691 0
M  V30 22138 H 2190.4 2.45802 -2.71987 0
M  V30 22139 H 2190.05 4.72517 -1.72443 0
M  V30 22140 H 2189.75 4.73434 -3.48043 0
M  V30 22141 H 2191.28 5.40772 -2.83546 0
M  V30 22142 H 2192.69 3.72334 -4.35936 0
M  V30 22143 H 2191.09 3.28804 -5.02004 0
M  V30 22144 H 2192.16 2.01201 -4.41187 0
M  V30 22145 N 2193.5 1.36626 0.785562 0
M  V30 22146 C 2194.45 1.31267 1.89836 0
M  V30 22147 C 2195.42 0.180662 1.65115 0
M  V30 22148 O 2196.6 0.367802 1.87221 0
M  V30 22149 C 2193.74 1.11168 3.26704 0
M  V30 22150 C 2192.86 2.33478 3.63472 0
M  V30 22151 C 2191.99 2.06361 4.89478 0
M  V30 22152 C 2191.03 3.24611 5.18935 0
M  V30 22153 N 2190.17 2.97134 6.36126 0
M  V30 22154 H 2195.01 2.26416 1.93752 0
M  V30 22155 H 2192.54 1.12526 0.947434 0
M  V30 22156 H 2194.5 0.975408 4.05637 0
M  V30 22157 H 2193.13 0.196731 3.222 0
M  V30 22158 H 2192.18 2.57896 2.79632 0
M  V30 22159 H 2193.5 3.21711 3.81187 0
M  V30 22160 H 2192.65 1.89685 5.76285 0
M  V30 22161 H 2191.39 1.15446 4.73839 0
M  V30 22162 H 2190.39 3.41842 4.30609 0
M  V30 22163 H 2191.62 4.16358 5.36491 0
M  V30 22164 H 2189.56 2.08834 6.21872 0
M  V30 22165 H 2189.48 3.78906 6.54191 0
M  V30 22166 H 2190.75 2.84046 7.25905 0
M  V30 22167 N 2194.98 -1.01016 1.20969 0
M  V30 22168 C 2196.21 -1.78301 1.04959 0
M  V30 22169 C 2196.62 -1.84495 -0.400883 0
M  V30 22170 O 2195.98 -1.30259 -1.27823 0
M  V30 22171 C 2196.03 -3.22459 1.63409 0
M  V30 22172 O 2195.75 -3.16632 3.0278 0
M  V30 22173 C 2197.25 -4.16266 1.52439 0
M  V30 22174 H 2194.47 -0.560515 0.368868 0
M  V30 22175 H 2197.02 -1.27113 1.60195 0
M  V30 22176 H 2195.17 -3.70773 1.12276 0
M  V30 22177 H 2195.58 -4.07164 3.30633 0
M  V30 22178 H 2197.06 -5.15233 1.98087 0
M  V30 22179 H 2197.54 -4.36592 0.477952 0
M  V30 22180 H 2198.14 -3.73838 2.02794 0
M  V30 22181 N 2196.46 -1.01661 -1.20428 0
M  V30 22182 C 2197.4 -0.580183 -2.25248 0
M  V30 22183 C 2198.4 0.381086 -1.65058 0
M  V30 22184 O 2199.6 0.251007 -1.78241 0
M  V30 22185 H 2195.98 -0.169312 -0.732692 0
M  V30 22186 H 2197.95 -1.47516 -2.59387 0
M  V30 22187 C 2196.7 0.0657269 -3.47638 0
M  V30 22188 H 2196.02 -0.664944 -3.94232 0
M  V30 22189 H 2197.46 0.334208 -4.22681 0
M  V30 22190 C 2195.92 1.30855 -3.10449 0
M  V30 22191 O 2196.45 2.40185 -3.21985 0
M  V30 22192 N 2194.66 1.19265 -2.64998 0
M  V30 22193 H 2194.2 0.303019 -2.55812 0
M  V30 22194 H 2194.16 2.02519 -2.40486 0
M  V30 22195 N 2197.93 1.36205 -0.792844 0
M  V30 22196 C 2198.9 2.2833 -0.199499 0
M  V30 22197 C 2199.9 1.48978 0.605163 0
M  V30 22198 O 2201.09 1.6892 0.425656 0
M  V30 22199 C 2198.22 3.33135 0.723465 0
M  V30 22200 H 2199.41 2.82314 -1.01186 0
M  V30 22201 H 2196.97 1.45827 -0.562511 0
M  V30 22202 H 2197.7 2.84312 1.56003 0
M  V30 22203 H 2197.49 3.91819 0.148367 0
M  V30 22204 H 2198.98 4.01926 1.13337 0
M  V30 22205 N 2199.41 0.545154 1.47871 0
M  V30 22206 C 2200.64 0.0211204 2.06889 0
M  V30 22207 C 2201.06 -1.26718 1.39957 0
M  V30 22208 O 2200.41 -1.75741 0.492067 0
M  V30 22209 C 2200.46 -0.190754 3.60996 0
M  V30 22210 O 2200.18 1.04652 4.25417 0
M  V30 22211 C 2201.69 -0.753445 4.3685 0
M  V30 22212 H 2198.91 0.0403753 0.669784 0
M  V30 22213 H 2201.45 0.755128 1.90048 0
M  V30 22214 H 2199.6 -0.874854 3.77392 0
M  V30 22215 H 2200.02 0.836702 5.17783 0
M  V30 22216 H 2201.49 -0.851043 5.454 0
M  V30 22217 H 2201.97 -1.76193 4.02309 0
M  V30 22218 H 2202.58 -0.105429 4.25169 0
M  V30 22219 N 2200.89 -1.55074 0.28101 0
M  V30 22220 C 2201.84 -2.22759 -0.603897 0
M  V30 22221 C 2202.81 -1.20311 -1.14518 0
M  V30 22222 O 2203.99 -1.48871 -1.1934 0
M  V30 22223 C 2201.13 -2.95687 -1.77942 0
M  V30 22224 C 2200.25 -4.12866 -1.27143 0
M  V30 22225 C 2199.38 -4.73424 -2.40921 0
M  V30 22226 C 2198.42 -5.82786 -1.87155 0
M  V30 22227 N 2197.56 -6.37382 -2.9443 0
M  V30 22228 H 2202.4 -2.97993 -0.0200716 0
M  V30 22229 H 2199.93 -1.471 0.00186011 0
M  V30 22230 H 2201.89 -3.36189 -2.47049 0
M  V30 22231 H 2200.52 -2.22866 -2.33518 0
M  V30 22232 H 2199.57 -3.77445 -0.473264 0
M  V30 22233 H 2200.89 -4.91716 -0.837664 0
M  V30 22234 H 2200.04 -5.16676 -3.18012 0
M  V30 22235 H 2198.78 -3.93864 -2.87616 0
M  V30 22236 H 2197.78 -5.38978 -1.08547 0
M  V30 22237 H 2199.01 -6.64218 -1.41389 0
M  V30 22238 H 2196.95 -5.60713 -3.40495 0
M  V30 22239 H 2196.87 -7.11521 -2.55488 0
M  V30 22240 H 2198.14 -6.85292 -3.71477 0
M  V30 22241 N 2202.37 -0.00838561 -1.57598 0
M  V30 22242 C 2203.28 0.99645 -2.12387 0
M  V30 22243 C 2204.3 1.37125 -1.0711 0
M  V30 22244 O 2205.47 1.45688 -1.39058 0
M  V30 22245 C 2202.54 2.26694 -2.62318 0
M  V30 22246 C 2201.6 1.95449 -3.82228 0
M  V30 22247 C 2200.83 3.16441 -4.29768 0
M  V30 22248 O 2201.05 4.2841 -3.76592 0
M  V30 22249 O 2199.99 2.99949 -5.21837 0
M  V30 22250 H 2203.81 0.560673 -2.9848 0
M  V30 22251 H 2201.4 0.210961 -1.47903 0
M  V30 22252 H 2203.28 3.01317 -2.94594 0
M  V30 22253 H 2201.96 2.69494 -1.79318 0
M  V30 22254 H 2200.86 1.18275 -3.54911 0
M  V30 22255 H 2202.2 1.57481 -4.66327 0
M  V30 22256 N 2203.85 1.55365 0.264492 0
M  V30 22257 C 2204.79 1.88827 1.32714 0
M  V30 22258 C 2205.76 0.740631 1.48674 0
M  V30 22259 O 2206.95 0.992686 1.62943 0
M  V30 22260 C 2204.09 2.17311 2.68086 0
M  V30 22261 C 2203.2 3.44789 2.60278 0
M  V30 22262 C 2202.34 3.6293 3.87885 0
M  V30 22263 C 2201.38 4.84071 3.74623 0
M  V30 22264 N 2200.51 4.98825 4.94083 0
M  V30 22265 H 2205.35 2.79458 1.03477 0
M  V30 22266 H 2202.89 1.38351 0.499733 0
M  V30 22267 H 2204.85 2.31827 3.4686 0
M  V30 22268 H 2203.48 1.29906 2.95507 0
M  V30 22269 H 2202.53 3.387 1.73167 0
M  V30 22270 H 2203.84 4.33703 2.46381 0
M  V30 22271 H 2203 3.7731 4.75102 0
M  V30 22272 H 2201.74 2.72217 4.04659 0
M  V30 22273 H 2200.74 4.69686 2.85789 0
M  V30 22274 H 2201.97 5.76227 3.5936 0
M  V30 22275 H 2199.91 4.11045 5.11252 0
M  V30 22276 H 2199.83 5.81798 4.8275 0
M  V30 22277 H 2201.1 5.17598 5.82848 0
M  V30 22278 N 2205.33 -0.529387 1.48443 0
M  V30 22279 C 2206.26 -1.65057 1.5758 0
M  V30 22280 C 2207.24 -1.56914 0.426225 0
M  V30 22281 O 2208.42 -1.77378 0.637908 0
M  V30 22282 C 2205.55 -3.03458 1.50435 0
M  V30 22283 C 2204.59 -3.29958 2.70241 0
M  V30 22284 S 2205.43 -3.16164 4.32204 0
M  V30 22285 C 2206.58 -4.57012 4.27658 0
M  V30 22286 H 2206.82 -1.57056 2.5243 0
M  V30 22287 H 2204.35 -0.712393 1.36983 0
M  V30 22288 H 2206.31 -3.83277 1.46999 0
M  V30 22289 H 2204.97 -3.08899 0.569221 0
M  V30 22290 H 2204.16 -4.30924 2.61382 0
M  V30 22291 H 2203.76 -2.5781 2.70943 0
M  V30 22292 H 2206.05 -5.48542 3.97628 0
M  V30 22293 H 2207 -4.70925 5.28806 0
M  V30 22294 H 2207.41 -4.36362 3.58118 0
M  V30 22295 N 2206.8 -1.37041 -0.778305 0
M  V30 22296 C 2208.08 -1.22426 -1.52549 0
M  V30 22297 C 2208.46 0.184927 -2.10288 0
M  V30 22298 O 2207.81 1.19183 -1.94955 0
M  V30 22299 C 2208.02 -2.31509 -2.6116 0
M  V30 22300 C 2209.37 -2.68727 -3.28741 0
M  V30 22301 O 2210.39 -2.30636 -2.71451 0
M  V30 22302 O 2209.25 -3.34328 -4.32304 0
M  V30 22303 H 2206.34 -0.477338 -0.675335 0
M  V30 22304 H 2208.89 -1.48803 -0.815833 0
M  V30 22305 H 2207.66 -3.25905 -2.16568 0
M  V30 22306 H 2207.28 -2.0656 -3.39733 0
M  V30 22307 N 2208.28 1.00373 -1.21503 0
M  V30 22308 C 2209.23 2.09175 -0.975424 0
M  V30 22309 C 2210.2 1.65805 0.0990324 0
M  V30 22310 O 2211.38 1.90739 -0.0483483 0
M  V30 22311 C 2208.52 3.40728 -0.547567 0
M  V30 22312 C 2207.64 3.97503 -1.6916 0
M  V30 22313 C 2206.77 5.1717 -1.21279 0
M  V30 22314 C 2205.81 5.66057 -2.32907 0
M  V30 22315 N 2204.95 6.76973 -1.8615 0
M  V30 22316 H 2209.79 2.29005 -1.90684 0
M  V30 22317 H 2207.32 1.12286 -0.950277 0
M  V30 22318 H 2209.28 4.16254 -0.280741 0
M  V30 22319 H 2207.91 3.20931 0.346848 0
M  V30 22320 H 2206.96 3.18951 -2.07303 0
M  V30 22321 H 2208.28 4.29776 -2.53167 0
M  V30 22322 H 2207.43 5.99947 -0.902697 0
M  V30 22323 H 2206.17 4.86494 -0.342777 0
M  V30 22324 H 2205.17 4.81876 -2.64718 0
M  V30 22325 H 2206.4 5.98763 -3.20406 0
M  V30 22326 H 2204.35 6.48101 -1.01495 0
M  V30 22327 H 2204.26 7.08507 -2.6373 0
M  V30 22328 H 2205.53 7.63282 -1.58179 0
M  V30 22329 N 2209.76 1.02298 1.19887 0
M  V30 22330 C 2210.98 0.735271 1.93929 0
M  V30 22331 C 2211.41 -0.698751 1.7464 0
M  V30 22332 O 2210.77 -1.48165 1.04483 0
M  V30 22333 C 2210.82 1.08423 3.43914 0
M  V30 22334 O 2209.92 0.199519 4.11917 0
M  V30 22335 H 2209.26 0.272207 0.60564 0
M  V30 22336 H 2211.79 1.36807 1.52135 0
M  V30 22337 H 2211.8 1.03863 3.94559 0
M  V30 22338 H 2210.48 2.12901 3.57276 0
M  V30 22339 H 2209.05 0.303201 3.71665 0
M  V30 22340 N 2211.24 -1.35782 0.800057 0
M  V30 22341 C 2212.19 -2.3179 0.193891 0
M  V30 22342 C 2213.18 -1.5632 -0.652717 0
M  V30 22343 O 2214.39 -1.715 -0.546611 0
M  V30 22344 H 2210.76 -0.750716 0.0439332 0
M  V30 22345 H 2212.73 -2.80467 1.01888 0
M  V30 22346 C 2211.48 -3.41603 -0.648278 0
M  V30 22347 H 2210.8 -3.998 -0.00617638 0
M  V30 22348 H 2212.24 -4.11075 -1.0389 0
M  V30 22349 C 2210.7 -2.84082 -1.81105 0
M  V30 22350 O 2211.23 -2.77104 -2.9082 0
M  V30 22351 N 2209.44 -2.41221 -1.62051 0
M  V30 22352 H 2208.99 -2.47097 -0.72808 0
M  V30 22353 H 2208.94 -2.03083 -2.4001 0
M  V30 22354 N 2212.72 -0.552988 -1.4758 0
M  V30 22355 C 2213.63 0.200312 -2.33743 0
M  V30 22356 C 2214.64 0.916125 -1.4793 0
M  V30 22357 O 2215.82 0.885961 -1.80867 0
M  V30 22358 C 2212.88 1.21968 -3.24538 0
M  V30 22359 C 2211.94 0.511745 -4.26239 0
M  V30 22360 C 2211.18 1.48254 -5.12695 0
M  V30 22361 O 2211.4 2.71705 -5.0153 0
M  V30 22362 O 2210.33 1.00934 -5.93377 0
M  V30 22363 H 2214.16 -0.506356 -2.99449 0
M  V30 22364 H 2211.74 -0.313647 -1.46071 0
M  V30 22365 H 2213.63 1.8082 -3.80634 0
M  V30 22366 H 2212.3 1.90834 -2.61465 0
M  V30 22367 H 2211.21 -0.117865 -3.73914 0
M  V30 22368 H 2212.54 -0.135394 -4.92014 0
M  V30 22369 N 2214.19 1.54923 -0.28923 0
M  V30 22370 C 2215.1 2.26749 0.601824 0
M  V30 22371 C 2216.12 1.29842 1.15832 0
M  V30 22372 O 2217.3 1.62804 1.18561 0
M  V30 22373 C 2214.36 2.98532 1.76294 0
M  V30 22374 C 2213.42 4.1095 1.2417 0
M  V30 22375 C 2212.65 4.793 2.34748 0
M  V30 22376 O 2212.88 4.46939 3.54404 0
M  V30 22377 O 2211.81 5.66954 2.02105 0
M  V30 22378 H 2215.64 3.03694 0.0195345 0
M  V30 22379 H 2213.22 1.49295 -0.0561131 0
M  V30 22380 H 2215.1 3.43596 2.43967 0
M  V30 22381 H 2213.78 2.24493 2.33205 0
M  V30 22382 H 2212.69 3.70312 0.531039 0
M  V30 22383 H 2214.02 4.86932 0.718166 0
M  V30 22384 N 2215.67 0.0167433 1.57591 0
M  V30 22385 C 2216.6 -0.96782 2.12498 0
M  V30 22386 C 2217.58 -1.3475 1.03809 0
M  V30 22387 O 2218.77 -1.4283 1.31579 0
M  V30 22388 C 2215.9 -2.25426 2.64198 0
M  V30 22389 C 2214.85 -2.0157 3.77563 0
M  V30 22390 C 2214.18 -3.36372 4.15642 0
M  V30 22391 C 2215.48 -1.36481 5.04153 0
M  V30 22392 H 2217.17 -0.510591 2.95014 0
M  V30 22393 H 2214.72 -0.244156 1.41915 0
M  V30 22394 H 2216.67 -2.94672 3.01241 0
M  V30 22395 H 2215.39 -2.73292 1.78826 0
M  V30 22396 H 2214.05 -1.34745 3.40939 0
M  V30 22397 H 2213.7 -3.81973 3.27269 0
M  V30 22398 H 2213.4 -3.2122 4.92028 0
M  V30 22399 H 2214.93 -4.06907 4.55258 0
M  V30 22400 H 2216.34 -1.95708 5.38861 0
M  V30 22401 H 2214.74 -1.31765 5.85455 0
M  V30 22402 H 2215.81 -0.336134 4.83734 0
M  V30 22403 N 2217.15 -1.55503 -0.256249 0
M  V30 22404 C 2218.57 -1.47717 -0.604299 0
M  V30 22405 C 2218.77 -0.705072 -1.88762 0
M  V30 22406 O 2217.82 -0.230657 -2.51444 0
M  V30 22407 C 2219.14 -2.92058 -0.715705 0
M  V30 22408 C 2220.68 -3.02374 -0.808653 0
M  V30 22409 C 2221.16 -4.48003 -0.951698 0
M  V30 22410 N 2222.65 -4.51902 -1.0168 0
M  V30 22411 C 2223.38 -5.61819 -1.14658 0
M  V30 22412 N 2222.88 -6.81567 -1.24249 0
M  V30 22413 N 2224.67 -5.49596 -1.17901 0
M  V30 22414 H 2216.82 -2.04147 0.586327 0
M  V30 22415 H 2219.09 -0.92644 0.201031 0
M  V30 22416 H 2218.79 -3.51349 0.157089 0
M  V30 22417 H 2218.67 -3.42021 -1.59065 0
M  V30 22418 H 2221.05 -2.43169 -1.6719 0
M  V30 22419 H 2221.14 -2.55637 0.0912512 0
M  V30 22420 H 2220.78 -5.07815 -0.0930398 0
M  V30 22421 H 2220.71 -4.92412 -1.8665 0
M  V30 22422 H 2223.2 -3.65649 -0.954404 0
M  V30 22423 H 2223.51 -7.61088 -1.34033 0
M  V30 22424 H 2221.86 -6.84346 -1.21224 0
M  V30 22425 H 2225.05 -4.5498 -1.10049 0
M  V30 22426 H 2225.22 -6.35299 -1.2767 0
M  V30 22427 N 2218.63 0.521507 -1.48721 0
M  V30 22428 C 2219.58 1.64615 -1.64331 0
M  V30 22429 C 2220.57 1.61555 -0.509558 0
M  V30 22430 O 2221.78 1.6631 -0.688554 0
M  V30 22431 H 2218.15 0.545319 -0.517814 0
M  V30 22432 H 2220.12 1.48596 -2.5877 0
M  V30 22433 C 2218.87 3.02852 -1.7081 0
M  V30 22434 H 2218.19 3.05904 -2.57415 0
M  V30 22435 H 2219.63 3.81136 -1.85773 0
M  V30 22436 C 2218.09 3.33901 -0.448537 0
M  V30 22437 O 2218.62 3.99339 0.434858 0
M  V30 22438 N 2216.83 2.88859 -0.317667 0
M  V30 22439 H 2216.38 2.35782 -1.03752 0
M  V30 22440 H 2216.33 3.10002 0.524058 0
M  V30 22441 N 2220.11 1.37452 0.771027 0
M  V30 22442 C 2221.04 1.35974 1.89825 0
M  V30 22443 C 2222.02 0.228246 1.68562 0
M  V30 22444 O 2223.2 0.428708 1.89409 0
M  V30 22445 C 2220.33 1.16668 3.27118 0
M  V30 22446 C 2219.29 2.26836 3.62946 0
M  V30 22447 C 2218.61 1.92652 4.98788 0
M  V30 22448 C 2219.91 3.69023 3.6962 0
M  V30 22449 H 2221.61 2.30299 1.91319 0
M  V30 22450 H 2219.15 1.10857 0.919062 0
M  V30 22451 H 2221.11 1.14263 4.05613 0
M  V30 22452 H 2219.83 0.187983 3.26059 0
M  V30 22453 H 2218.49 2.28397 2.86759 0
M  V30 22454 H 2218.14 0.933108 4.94269 0
M  V30 22455 H 2217.84 2.66425 5.23729 0
M  V30 22456 H 2219.36 1.91836 5.79682 0
M  V30 22457 H 2220.77 3.69588 4.38266 0
M  V30 22458 H 2219.17 4.41855 4.06059 0
M  V30 22459 H 2220.24 4.02597 2.70266 0
M  V30 22460 N 2221.58 -0.997276 1.22033 0
M  V30 22461 C 2222.83 -1.73037 1.0364 0
M  V30 22462 C 2223.15 -1.90828 -0.429442 0
M  V30 22463 O 2224.35 -2.61419 -0.732949 0
M  V30 22464 C 2222.81 -3.11314 1.80588 0
M  V30 22465 C 2222.42 -3.01469 3.31392 0
M  V30 22466 C 2224.16 -3.88698 1.70628 0
M  V30 22467 C 2222.07 -4.34873 4.00798 0
M  V30 22468 H 2221 -0.648779 0.38419 0
M  V30 22469 H 2223.65 -1.11366 1.45842 0
M  V30 22470 H 2222.03 -3.73641 1.31182 0
M  V30 22471 H 2223.2 -2.48333 3.88159 0
M  V30 22472 H 2221.52 -2.37569 3.4198 0
M  V30 22473 H 2224.12 -4.87431 2.19808 0
M  V30 22474 H 2224.46 -4.1094 0.665895 0
M  V30 22475 H 2224.99 -3.3304 2.17553 0
M  V30 22476 H 2221.73 -4.17832 5.05071 0
M  V30 22477 H 2221.25 -4.87939 3.4882 0
M  V30 22478 H 2222.93 -5.0364 4.06147 0
M  V30 22479 N 2223.06 -1.02932 -1.19343 0
M  V30 22480 C 2224.01 -0.610503 -2.22579 0
M  V30 22481 C 2224.98 0.375917 -1.6179 0
M  V30 22482 O 2226.16 0.272478 -1.88844 0
M  V30 22483 C 2223.3 0.0320867 -3.45085 0
M  V30 22484 C 2222.42 -1.00043 -4.20256 0
M  V30 22485 C 2221.55 -0.327553 -5.30189 0
M  V30 22486 C 2220.59 -1.34595 -5.97119 0
M  V30 22487 N 2219.73 -0.698849 -6.98613 0
M  V30 22488 H 2224.57 -1.49542 -2.57762 0
M  V30 22489 H 2222.11 -0.748333 -1.26643 0
M  V30 22490 H 2224.06 0.421893 -4.15061 0
M  V30 22491 H 2222.69 0.880585 -3.10557 0
M  V30 22492 H 2221.75 -1.50829 -3.4922 0
M  V30 22493 H 2223.06 -1.77441 -4.66172 0
M  V30 22494 H 2222.21 0.117073 -6.06587 0
M  V30 22495 H 2220.95 0.478627 -4.85346 0
M  V30 22496 H 2219.96 -1.80083 -5.19471 0
M  V30 22497 H 2221.18 -2.15363 -6.44046 0
M  V30 22498 H 2219.13 0.0872318 -6.55942 0
M  V30 22499 H 2219.04 -1.41071 -7.42721 0
M  V30 22500 H 2220.31 -0.278239 -7.79003 0
M  V30 22501 N 2224.54 1.35356 -0.807246 0
M  V30 22502 C 2225.47 2.28525 -0.175758 0
M  V30 22503 C 2226.49 1.50311 0.625328 0
M  V30 22504 O 2227.67 1.72535 0.45758 0
M  V30 22505 C 2224.77 3.29957 0.773413 0
M  V30 22506 C 2223.95 4.37396 0.0185527 0
M  V30 22507 C 2223.01 5.18682 0.886304 0
M  V30 22508 O 2222.03 5.68201 0.337006 0
M  V30 22509 N 2223.23 5.36856 2.20829 0
M  V30 22510 H 2226 2.83358 -0.976141 0
M  V30 22511 H 2223.56 1.47713 -0.662763 0
M  V30 22512 H 2225.55 3.81229 1.35817 0
M  V30 22513 H 2224.12 2.75634 1.4746 0
M  V30 22514 H 2223.34 3.87049 -0.747417 0
M  V30 22515 H 2224.63 5.06321 -0.501666 0
M  V30 22516 H 2224.03 4.9827 2.6785 0
M  V30 22517 H 2222.59 5.91306 2.74227 0
M  V30 22518 N 2226.02 0.560807 1.47284 0
M  V30 22519 C 2227.27 0.0359304 2.01668 0
M  V30 22520 C 2227.58 -1.3235 1.44024 0
M  V30 22521 O 2228.79 -1.93849 1.90091 0
M  V30 22522 C 2227.24 0.0137292 3.59897 0
M  V30 22523 C 2226.85 1.37014 4.26534 0
M  V30 22524 C 2228.59 -0.458351 4.22018 0
M  V30 22525 C 2226.5 1.30685 5.7678 0
M  V30 22526 H 2225.43 0.00966204 0.753938 0
M  V30 22527 H 2228.08 0.709195 1.69241 0
M  V30 22528 H 2226.46 -0.725257 3.89302 0
M  V30 22529 H 2227.64 2.12712 4.08767 0
M  V30 22530 H 2225.95 1.78045 3.76416 0
M  V30 22531 H 2228.55 -0.524154 5.32125 0
M  V30 22532 H 2228.89 -1.47113 3.8944 0
M  V30 22533 H 2229.43 0.225887 3.97158 0
M  V30 22534 H 2226.17 2.29575 6.13984 0
M  V30 22535 H 2225.69 0.591727 5.96874 0
M  V30 22536 H 2227.36 1.01044 6.39061 0
M  V30 22537 N 2227.5 -1.54768 0.297442 0
M  V30 22538 C 2228.91 -1.59502 -0.0560543 0
M  V30 22539 C 2229.11 -1.31446 -1.52722 0
M  V30 22540 O 2228.17 -1.08615 -2.27945 0
M  V30 22541 C 2229.48 -2.98787 0.338683 0
M  V30 22542 C 2231.03 -3.1168 0.287152 0
M  V30 22543 C 2231.5 -4.53268 0.656659 0
M  V30 22544 N 2233 -4.59178 0.609058 0
M  V30 22545 C 2233.73 -5.668 0.867485 0
M  V30 22546 N 2233.23 -6.82474 1.19169 0
M  V30 22547 N 2235.02 -5.56453 0.794785 0
M  V30 22548 H 2227.17 -1.71265 1.25627 0
M  V30 22549 H 2229.43 -0.799719 0.509071 0
M  V30 22550 H 2229.14 -3.24228 1.36268 0
M  V30 22551 H 2229.01 -3.75929 -0.309442 0
M  V30 22552 H 2231.4 -2.8599 -0.727598 0
M  V30 22553 H 2231.48 -2.36701 0.96985 0
M  V30 22554 H 2231.13 -4.79688 1.6692 0
M  V30 22555 H 2231.06 -5.26578 -0.0480724 0
M  V30 22556 H 2233.55 -3.76092 0.369265 0
M  V30 22557 H 2233.86 -7.6047 1.37496 0
M  V30 22558 H 2232.2 -6.84035 1.2297 0
M  V30 22559 H 2235.4 -4.64961 0.54118 0
M  V30 22560 H 2235.57 -6.40244 0.999557 0
M  V30 22561 N 2228.97 -0.0251005 -1.5758 0
M  V30 22562 C 2229.92 0.976133 -2.11127 0
M  V30 22563 C 2230.92 1.33957 -1.03691 0
M  V30 22564 O 2232.12 1.32227 -1.22131 0
M  V30 22565 H 2228.5 0.33255 -0.674474 0
M  V30 22566 H 2230.47 0.499171 -2.94195 0
M  V30 22567 C 2229.22 2.25076 -2.65021 0
M  V30 22568 H 2228.54 1.97984 -3.47336 0
M  V30 22569 H 2229.98 2.93352 -3.06138 0
M  V30 22570 C 2228.44 2.97776 -1.57579 0
M  V30 22571 O 2228.97 3.89731 -0.973272 0
M  V30 22572 N 2227.18 2.60041 -1.2972 0
M  V30 22573 H 2226.72 1.85342 -1.78903 0
M  V30 22574 H 2226.68 3.08993 -0.580564 0
M  V30 22575 N 2230.45 1.55637 0.247999 0
M  V30 22576 C 2231.7 1.77417 0.976193 0
M  V30 22577 C 2232.03 0.589226 1.8536 0
M  V30 22578 O 2231.28 -0.427495 1.90974 0
M  V30 22579 C 2231.58 3.04689 1.86813 0
M  V30 22580 C 2231.25 4.36089 1.14617 0
M  V30 22581 C 2229.91 4.71797 0.94664 0
M  V30 22582 C 2232.26 5.17325 0.634372 0
M  V30 22583 C 2229.59 5.86276 0.222988 0
M  V30 22584 C 2231.94 6.32555 -0.0758071 0
M  V30 22585 C 2230.61 6.66883 -0.286828 0
M  V30 22586 H 2229.88 0.649214 0.357214 0
M  V30 22587 H 2232.52 1.89908 0.246381 0
M  V30 22588 H 2230.83 2.87205 2.66497 0
M  V30 22589 H 2232.52 3.1874 2.43323 0
M  V30 22590 H 2229.11 4.08037 1.31163 0
M  V30 22591 H 2233.3 4.90195 0.776074 0
M  V30 22592 H 2228.55 6.1138 0.0490111 0
M  V30 22593 H 2232.73 6.94744 -0.480022 0
M  V30 22594 H 2230.36 7.55438 -0.849522 0
M  V30 22595 N 2231.93 -0.513613 1.48996 0
M  V30 22596 C 2232.86 -1.62541 1.67639 0
M  V30 22597 C 2233.84 -1.61792 0.525116 0
M  V30 22598 O 2235.03 -1.78731 0.759534 0
M  V30 22599 C 2232.16 -3.01076 1.7312 0
M  V30 22600 C 2231.11 -3.16688 2.87911 0
M  V30 22601 C 2230.44 -4.56448 2.78494 0
M  V30 22602 C 2231.74 -2.97906 4.2901 0
M  V30 22603 H 2233.43 -1.47194 2.60719 0
M  V30 22604 H 2230.98 -0.706692 1.25467 0
M  V30 22605 H 2232.93 -3.78742 1.84749 0
M  V30 22606 H 2231.65 -3.17483 0.766297 0
M  V30 22607 H 2230.31 -2.41444 2.75863 0
M  V30 22608 H 2229.96 -4.69714 1.79938 0
M  V30 22609 H 2229.66 -4.67837 3.55531 0
M  V30 22610 H 2231.19 -5.36192 2.92113 0
M  V30 22611 H 2232.6 -3.65351 4.41805 0
M  V30 22612 H 2231 -3.20776 5.07172 0
M  V30 22613 H 2232.07 -1.94157 4.44332 0
M  V30 22614 N 2233.41 -1.37859 -0.763727 0
M  V30 22615 C 2234.64 -1.36721 -1.5529 0
M  V30 22616 C 2235.05 0.0455102 -1.88745 0
M  V30 22617 O 2234.41 1.00945 -1.52041 0
M  V30 22618 C 2234.46 -2.21325 -2.85827 0
M  V30 22619 O 2234.18 -3.57093 -2.53803 0
M  V30 22620 C 2235.68 -2.28256 -3.80019 0
M  V30 22621 H 2232.9 -0.468018 -0.480833 0
M  V30 22622 H 2235.45 -1.81305 -0.945977 0
M  V30 22623 H 2233.6 -1.8023 -3.42923 0
M  V30 22624 H 2234.02 -4.0153 -3.37452 0
M  V30 22625 H 2235.49 -2.9176 -4.68594 0
M  V30 22626 H 2235.97 -1.29328 -4.19727 0
M  V30 22627 H 2236.57 -2.69699 -3.28851 0
M  V30 22628 N 2234.89 0.990791 -1.22561 0
M  V30 22629 C 2235.82 2.0834 -0.955362 0
M  V30 22630 C 2236.83 1.62663 0.0668122 0
M  V30 22631 O 2238.02 1.77713 -0.167452 0
M  V30 22632 C 2235.12 3.36342 -0.415625 0
M  V30 22633 C 2234.29 4.11039 -1.49552 0
M  V30 22634 C 2233.35 5.17322 -0.96249 0
M  V30 22635 O 2232.38 5.44785 -1.64917 0
M  V30 22636 N 2233.58 5.80102 0.215032 0
M  V30 22637 H 2236.35 2.32103 -1.896 0
M  V30 22638 H 2233.91 1.15671 -1.13278 0
M  V30 22639 H 2235.9 4.04676 -0.0443098 0
M  V30 22640 H 2234.47 3.09626 0.430178 0
M  V30 22641 H 2233.69 3.37306 -2.04006 0
M  V30 22642 H 2234.98 4.57715 -2.22203 0
M  V30 22643 H 2234.38 5.60161 0.789681 0
M  V30 22644 H 2232.93 6.4966 0.527712 0
M  V30 22645 N 2236.37 1.03564 1.18795 0
M  V30 22646 C 2237.64 0.650466 1.84468 0
M  V30 22647 C 2238.02 -0.870399 1.92321 0
M  V30 22648 O 2237.37 -1.76983 1.44531 0
M  V30 22649 C 2237.58 1.32042 3.23057 0
M  V30 22650 C 2238.93 1.44799 3.99147 0
M  V30 22651 O 2239.95 1.27812 3.32479 0
M  V30 22652 O 2238.81 1.72432 5.18584 0
M  V30 22653 H 2235.91 0.22696 0.795247 0
M  V30 22654 H 2238.45 1.13421 1.26229 0
M  V30 22655 H 2237.22 2.35876 3.12215 0
M  V30 22656 H 2236.85 0.824968 3.88947 0
M  V30 22657 N 2237.84 -1.34926 0.814413 0
M  V30 22658 C 2239.07 -2.03304 0.410133 0
M  V30 22659 C 2239.49 -1.60953 -0.973436 0
M  V30 22660 O 2238.85 -0.789993 -1.63183 0
M  V30 22661 C 2238.9 -3.56967 0.510553 0
M  V30 22662 O 2238 -4.09679 -0.472963 0
M  V30 22663 H 2237.34 -0.641843 0.170099 0
M  V30 22664 H 2239.87 -1.72356 1.10247 0
M  V30 22665 H 2239.88 -4.06196 0.383206 0
M  V30 22666 H 2238.56 -3.87141 1.5197 0
M  V30 22667 H 2237.14 -3.71649 -0.305206 0
M  V30 22668 N 2239.32 -0.56861 -1.46985 0
M  V30 22669 C 2240.28 0.162326 -2.28624 0
M  V30 22670 C 2241.28 0.832078 -1.37598 0
M  V30 22671 O 2242.47 0.686192 -1.60116 0
M  V30 22672 C 2239.61 1.23873 -3.17598 0
M  V30 22673 H 2240.8 -0.554951 -2.94721 0
M  V30 22674 H 2238.35 -0.326003 -1.52862 0
M  V30 22675 H 2239.09 1.98804 -2.56218 0
M  V30 22676 H 2238.87 0.763151 -3.84602 0
M  V30 22677 H 2240.36 1.75178 -3.79081 0
M  V30 22678 N 2240.8 1.54608 -0.305646 0
M  V30 22679 C 2242.08 1.9234 0.355618 0
M  V30 22680 C 2242.46 1.23338 1.71321 0
M  V30 22681 O 2241.8 0.370742 2.25472 0
M  V30 22682 C 2242.01 3.45879 0.465659 0
M  V30 22683 C 2243.36 4.18201 0.734353 0
M  V30 22684 O 2244.39 3.51939 0.549288 0
M  V30 22685 O 2243.25 5.35517 1.09015 0
M  V30 22686 H 2240.34 0.802539 0.199652 0
M  V30 22687 H 2242.89 1.65966 -0.354046 0
M  V30 22688 H 2241.66 3.88238 -0.488529 0
M  V30 22689 H 2241.28 3.78304 1.22361 0
M  V30 22690 N 2242.28 0.033457 1.57564 0
M  V30 22691 C 2243.21 -0.945228 2.13513 0
M  V30 22692 C 2244.19 -1.33642 1.05233 0
M  V30 22693 O 2245.37 -1.41427 1.33087 0
M  V30 22694 C 2242.5 -2.22611 2.66574 0
M  V30 22695 C 2241.46 -1.97554 3.79679 0
M  V30 22696 C 2240.78 -3.31945 4.19186 0
M  V30 22697 C 2242.08 -1.31126 5.05572 0
M  V30 22698 H 2243.78 -0.479273 2.95539 0
M  V30 22699 H 2241.32 -0.22909 1.42166 0
M  V30 22700 H 2243.28 -2.91461 3.04349 0
M  V30 22701 H 2242 -2.7138 1.81715 0
M  V30 22702 H 2240.66 -1.31121 3.42349 0
M  V30 22703 H 2240.31 -3.78481 3.31302 0
M  V30 22704 H 2240.01 -3.15983 4.95407 0
M  V30 22705 H 2241.53 -4.02055 4.59548 0
M  V30 22706 H 2242.95 -1.89982 5.40906 0
M  V30 22707 H 2241.34 -1.25548 5.8682 0
M  V30 22708 H 2242.41 -0.284809 4.84063 0
M  V30 22709 N 2243.76 -1.55766 -0.239741 0
M  V30 22710 C 2245.03 -1.68695 -0.990026 0
M  V30 22711 C 2245.41 -0.575436 -2.03106 0
M  V30 22712 O 2244.76 0.420131 -2.24604 0
M  V30 22713 C 2244.97 -3.09285 -1.61691 0
M  V30 22714 C 2246.32 -3.68114 -2.11606 0
M  V30 22715 O 2247.34 -3.1213 -1.71619 0
M  V30 22716 O 2246.2 -4.66272 -2.85049 0
M  V30 22717 H 2243.3 -0.686399 -0.461287 0
M  V30 22718 H 2245.84 -1.68093 -0.232961 0
M  V30 22719 H 2244.61 -3.81636 -0.86429 0
M  V30 22720 H 2244.24 -3.13927 -2.43999 0
M  V30 22721 N 2245.23 0.505704 -1.49266 0
M  V30 22722 C 2246.46 1.28899 -1.6248 0
M  V30 22723 C 2246.88 1.85782 -0.294365 0
M  V30 22724 O 2246.24 1.65627 0.737383 0
M  V30 22725 C 2246.29 2.39843 -2.69273 0
M  V30 22726 O 2245.39 3.43563 -2.28119 0
M  V30 22727 H 2244.73 0.380741 -0.543996 0
M  V30 22728 H 2247.26 0.605918 -1.95422 0
M  V30 22729 H 2247.27 2.85676 -2.91296 0
M  V30 22730 H 2245.95 1.97806 -3.65849 0
M  V30 22731 H 2244.53 3.03682 -2.16407 0
M  V30 22732 N 2246.71 1.38262 0.756405 0
M  V30 22733 C 2247.96 1.33633 1.5108 0
M  V30 22734 C 2248.27 -0.0719725 1.95468 0
M  V30 22735 O 2249.48 -0.240786 2.7043 0
M  V30 22736 C 2247.94 2.34648 2.72888 0
M  V30 22737 C 2247.54 3.81085 2.35537 0
M  V30 22738 C 2249.29 2.39058 3.50787 0
M  V30 22739 C 2247.2 4.73794 3.5394 0
M  V30 22740 H 2246.13 0.49672 0.567261 0
M  V30 22741 H 2248.78 1.63802 0.827118 0
M  V30 22742 H 2247.16 1.97519 3.43223 0
M  V30 22743 H 2248.33 4.27138 1.72887 0
M  V30 22744 H 2246.65 3.79767 1.7078 0
M  V30 22745 H 2249.24 3.05521 4.38818 0
M  V30 22746 H 2249.59 1.40868 3.91742 0
M  V30 22747 H 2250.12 2.74973 2.87462 0
M  V30 22748 H 2246.86 5.73169 3.18053 0
M  V30 22749 H 2246.38 4.32436 4.15643 0
M  V30 22750 H 2248.06 4.91671 4.20558 0
M  V30 22751 N 2248.19 -0.984277 1.23084 0
M  V30 22752 C 2249.1 -2.11015 1.02518 0
M  V30 22753 C 2250.12 -1.73976 -0.0291397 0
M  V30 22754 O 2251.29 -2.00719 0.165469 0
M  V30 22755 C 2248.36 -3.41207 0.614733 0
M  V30 22756 C 2247.42 -3.92294 1.74366 0
M  V30 22757 C 2246.65 -5.16273 1.3527 0
M  V30 22758 O 2246.87 -5.69915 0.235236 0
M  V30 22759 O 2245.81 -5.6133 2.17237 0
M  V30 22760 H 2249.63 -2.31252 1.96866 0
M  V30 22761 H 2247.22 -1.0939 1.01755 0
M  V30 22762 H 2249.1 -4.1953 0.396591 0
M  V30 22763 H 2247.78 -3.22309 -0.299794 0
M  V30 22764 H 2246.68 -3.15106 2.01641 0
M  V30 22765 H 2248.02 -4.1564 2.63637 0
M  V30 22766 N 2249.67 -1.04192 -1.18244 0
M  V30 22767 C 2250.63 -0.638491 -2.20127 0
M  V30 22768 C 2251.63 0.304777 -1.57885 0
M  V30 22769 O 2252.82 0.0900063 -1.73967 0
M  V30 22770 C 2249.95 0.0637152 -3.4084 0
M  V30 22771 H 2251.15 -1.54012 -2.57333 0
M  V30 22772 H 2248.7 -0.834621 -1.32151 0
M  V30 22773 H 2249.43 0.979081 -3.09167 0
M  V30 22774 H 2249.22 -0.614266 -3.87259 0
M  V30 22775 H 2250.71 0.332439 -4.16275 0
M  V30 22776 N 2251.15 1.34492 -0.821557 0
M  V30 22777 C 2252.39 1.98621 -0.409587 0
M  V30 22778 C 2252.73 1.64986 1.02437 0
M  V30 22779 O 2252 0.920788 1.71324 0
M  V30 22780 C 2252.28 3.54887 -0.610521 0
M  V30 22781 C 2252.14 3.98269 -2.0905 0
M  V30 22782 C 2253.46 4.40076 -0.0456153 0
M  V30 22783 H 2250.57 0.721513 -0.150292 0
M  V30 22784 H 2253.22 1.59409 -1.03387 0
M  V30 22785 H 2251.37 3.88419 -0.0791123 0
M  V30 22786 H 2253.04 3.75076 -2.68544 0
M  V30 22787 H 2251.28 3.48631 -2.58146 0
M  V30 22788 H 2251.95 5.07047 -2.18191 0
M  V30 22789 H 2254.43 4.13089 -0.49963 0
M  V30 22790 H 2253.3 5.48475 -0.216018 0
M  V30 22791 H 2253.57 4.29467 1.04932 0
M  V30 22792 N 2252.62 0.576397 1.46681 0
M  V30 22793 C 2253.59 -0.150199 2.28707 0
M  V30 22794 C 2254.59 -0.82477 1.38037 0
M  V30 22795 O 2255.78 -0.677691 1.60477 0
M  V30 22796 C 2252.91 -1.22187 3.1825 0
M  V30 22797 H 2254.1 0.570573 2.94422 0
M  V30 22798 H 2251.66 0.334105 1.52687 0
M  V30 22799 H 2252.39 -1.97442 2.57269 0
M  V30 22800 H 2252.18 -0.742744 3.85001 0
M  V30 22801 H 2253.67 -1.73166 3.80004 0
M  V30 22802 N 2254.1 -1.54444 0.313841 0
M  V30 22803 C 2255.05 -2.25454 -0.572131 0
M  V30 22804 C 2256.04 -1.26512 -1.12655 0
M  V30 22805 O 2257.25 -1.44321 -1.07571 0
M  V30 22806 H 2253.63 -0.724045 -0.203134 0
M  V30 22807 H 2255.6 -2.98359 0.0491669 0
M  V30 22808 C 2254.35 -3.01823 -1.72621 0
M  V30 22809 H 2253.67 -3.77769 -1.30884 0
M  V30 22810 H 2255.11 -3.54771 -2.32193 0
M  V30 22811 C 2253.57 -2.09546 -2.63803 0
M  V30 22812 O 2254.1 -1.67192 -3.65253 0
M  V30 22813 N 2252.3 -1.75236 -2.31821 0
M  V30 22814 H 2251.85 -2.09876 -1.49365 0
M  V30 22815 H 2251.81 -1.13772 -2.93093 0
M  V30 22816 N 2255.58 -0.0418125 -1.57545 0
M  V30 22817 C 2256.49 0.951175 -2.14452 0
M  V30 22818 C 2257.51 1.34823 -1.09995 0
M  V30 22819 O 2258.68 1.42705 -1.42117 0
M  V30 22820 C 2255.75 2.21079 -2.67067 0
M  V30 22821 C 2254.81 1.87297 -3.86288 0
M  V30 22822 C 2254.04 3.07254 -4.36384 0
M  V30 22823 O 2254.26 4.20325 -3.85594 0
M  V30 22824 O 2253.2 2.88812 -5.28082 0
M  V30 22825 H 2257.02 0.497235 -2.99602 0
M  V30 22826 H 2254.61 0.179541 -1.48317 0
M  V30 22827 H 2256.49 2.95001 -3.0092 0
M  V30 22828 H 2255.17 2.65629 -1.84994 0
M  V30 22829 H 2254.07 1.10721 -3.5734 0
M  V30 22830 H 2255.41 1.47554 -4.69562 0
M  V30 22831 N 2257.06 1.55891 0.231477 0
M  V30 22832 C 2258.3 1.78707 0.958738 0
M  V30 22833 C 2258.64 0.609757 1.84379 0
M  V30 22834 O 2257.91 -0.391392 1.90521 0
M  V30 22835 C 2258.2 3.11529 1.80614 0
M  V30 22836 C 2258.05 4.39691 0.948251 0
M  V30 22837 C 2259.37 3.40708 2.78579 0
M  V30 22838 H 2256.49 0.650137 0.347118 0
M  V30 22839 H 2259.13 1.88624 0.228226 0
M  V30 22840 H 2257.28 3.03205 2.42897 0
M  V30 22841 H 2258.95 4.60024 0.342936 0
M  V30 22842 H 2257.19 4.3306 0.253237 0
M  V30 22843 H 2257.86 5.29044 1.57533 0
M  V30 22844 H 2260.34 3.49095 2.26433 0
M  V30 22845 H 2259.22 4.34832 3.34981 0
M  V30 22846 H 2259.48 2.62381 3.55821 0
M  V30 22847 N 2258.54 -0.497781 1.49532 0
M  V30 22848 C 2259.47 -1.60754 1.69353 0
M  V30 22849 C 2260.45 -1.61226 0.542246 0
M  V30 22850 O 2261.63 -1.77915 0.778448 0
M  V30 22851 C 2258.76 -2.99223 1.76303 0
M  V30 22852 C 2257.72 -3.13617 2.91253 0
M  V30 22853 C 2257.04 -4.53469 2.8332 0
M  V30 22854 C 2258.34 -2.93339 4.32145 0
M  V30 22855 H 2260.04 -1.4442 2.62265 0
M  V30 22856 H 2257.58 -0.693345 1.26209 0
M  V30 22857 H 2259.54 -3.76762 1.88756 0
M  V30 22858 H 2258.26 -3.16652 0.799927 0
M  V30 22859 H 2256.92 -2.38504 2.78409 0
M  V30 22860 H 2256.57 -4.67779 1.8491 0
M  V30 22861 H 2256.27 -4.6404 3.60473 0
M  V30 22862 H 2257.79 -5.33064 2.97784 0
M  V30 22863 H 2259.2 -3.60645 4.45655 0
M  V30 22864 H 2257.6 -3.15378 5.10545 0
M  V30 22865 H 2258.67 -1.89433 4.46367 0
M  V30 22866 N 2260.01 -1.38661 -0.749062 0
M  V30 22867 C 2260.96 -1.36254 -1.86289 0
M  V30 22868 C 2261.93 -0.224376 -1.64578 0
M  V30 22869 O 2263.12 -0.417312 -1.8618 0
M  V30 22870 C 2260.26 -1.19791 -3.23642 0
M  V30 22871 C 2259.37 -2.43033 -3.57154 0
M  V30 22872 C 2258.5 -2.19266 -4.83834 0
M  V30 22873 C 2257.54 -3.38256 -5.10146 0
M  V30 22874 N 2256.68 -3.13895 -6.28024 0
M  V30 22875 H 2261.52 -2.31473 -1.87681 0
M  V30 22876 H 2259.06 -1.14998 -0.917267 0
M  V30 22877 H 2261.02 -1.08261 -4.02909 0
M  V30 22878 H 2259.65 -0.282087 -3.21565 0
M  V30 22879 H 2258.7 -2.65219 -2.72696 0
M  V30 22880 H 2260.01 -3.31704 -3.72524 0
M  V30 22881 H 2259.16 -2.04898 -5.71053 0
M  V30 22882 H 2257.9 -1.27968 -4.70612 0
M  V30 22883 H 2256.91 -3.53138 -4.21395 0
M  V30 22884 H 2258.13 -4.30436 -5.25263 0
M  V30 22885 H 2256.08 -2.25249 -6.16116 0
M  V30 22886 H 2256 -3.96117 -6.43915 0
M  V30 22887 H 2257.26 -3.03192 -7.18119 0
M  V30 22888 N 2261.49 0.977736 -1.23605 0
M  V30 22889 C 2262.43 2.06894 -0.962808 0
M  V30 22890 C 2263.4 1.62293 0.0998458 0
M  V30 22891 O 2264.59 1.88468 -0.0349752 0
M  V30 22892 C 2261.72 3.35684 -0.451009 0
M  V30 22893 C 2260.76 3.99227 -1.50068 0
M  V30 22894 S 2261.59 4.38136 -3.07891 0
M  V30 22895 C 2262.75 5.70076 -2.58388 0
M  V30 22896 H 2262.98 2.29753 -1.88681 0
M  V30 22897 H 2260.52 1.11429 -1.06878 0
M  V30 22898 H 2262.47 4.10179 -0.162333 0
M  V30 22899 H 2261.14 3.10829 0.452124 0
M  V30 22900 H 2260.33 4.92011 -1.09277 0
M  V30 22901 H 2259.93 3.3112 -1.73884 0
M  V30 22902 H 2262.22 6.47129 -2.00574 0
M  V30 22903 H 2263.17 6.15711 -3.49722 0
M  V30 22904 H 2263.57 5.28203 -1.99152 0
M  V30 22905 N 2262.97 1.04818 1.1769 0
M  V30 22906 C 2263.88 0.65647 2.25228 0
M  V30 22907 C 2264.9 -0.320731 1.71018 0
M  V30 22908 O 2266.07 -0.173769 2.00649 0
M  V30 22909 C 2263.14 0.0333239 3.46684 0
M  V30 22910 C 2262.2 1.06049 4.15995 0
M  V30 22911 C 2261.43 0.466987 5.31653 0
M  V30 22912 O 2261.66 -0.724658 5.65778 0
M  V30 22913 O 2260.59 1.1994 5.89829 0
M  V30 22914 H 2264.42 1.5526 2.61014 0
M  V30 22915 H 2262 0.819512 1.24917 0
M  V30 22916 H 2263.88 -0.313183 4.20235 0
M  V30 22917 H 2262.56 -0.836511 3.12705 0
M  V30 22918 H 2261.46 1.45892 3.4448 0
M  V30 22919 H 2262.8 1.90135 4.53993 0
M  V30 22920 N 2264.45 -1.34055 0.828678 0
M  V30 22921 C 2265.38 -2.27324 0.199803 0
M  V30 22922 C 2266.36 -1.49167 -0.647142 0
M  V30 22923 O 2267.54 -1.7837 -0.609629 0
M  V30 22924 C 2264.67 -3.3095 -0.720396 0
M  V30 22925 C 2263.72 -4.26471 0.0497638 0
M  V30 22926 S 2264.55 -5.16854 1.40081 0
M  V30 22927 C 2265.71 -6.24013 0.485637 0
M  V30 22928 H 2265.94 -2.80314 0.990527 0
M  V30 22929 H 2263.47 -1.4119 0.624881 0
M  V30 22930 H 2265.43 -3.91141 -1.24574 0
M  V30 22931 H 2264.09 -2.76795 -1.48469 0
M  V30 22932 H 2263.28 -4.99791 -0.650017 0
M  V30 22933 H 2262.89 -3.70563 0.505844 0
M  V30 22934 H 2265.18 -6.76741 -0.320553 0
M  V30 22935 H 2266.12 -6.98052 1.18868 0
M  V30 22936 H 2266.53 -5.64455 0.0715101 0
M  V30 22937 N 2265.93 -0.584167 -1.46374 0
M  V30 22938 C 2267.34 -0.157992 -1.8603 0
M  V30 22939 C 2267.69 1.27931 -1.48755 0
M  V30 22940 O 2266.81 1.96653 -0.903133 0
M  V30 22941 C 2267.41 -0.279951 -3.37641 0
M  V30 22942 C 2265.97 0.0913639 -3.76289 0
M  V30 22943 C 2265.12 -0.615226 -2.70389 0
M  V30 22944 H 2268.07 -0.792298 -1.37508 0
M  V30 22945 H 2268.09 0.494297 -3.77276 0
M  V30 22946 H 2267.6 -1.32614 -3.6474 0
M  V30 22947 H 2265.7 1.13763 -3.54808 0
M  V30 22948 H 2265.81 -0.28597 -4.78246 0
M  V30 22949 H 2264.18 -0.055328 -2.5464 0
M  V30 22950 H 2264.96 -1.66309 -3.00327 0
M  V30 22951 N 2267.41 1.54275 -0.322027 0
M  V30 22952 C 2268.63 2.05422 0.285755 0
M  V30 22953 C 2269.06 1.19671 1.45122 0
M  V30 22954 O 2268.41 0.205473 1.80132 0
M  V30 22955 C 2268.46 3.5375 0.699497 0
M  V30 22956 O 2267.57 3.70945 1.80203 0
M  V30 22957 H 2266.91 0.66197 0.0518846 0
M  V30 22958 H 2269.44 1.99129 -0.469989 0
M  V30 22959 H 2269.45 3.95992 0.982579 0
M  V30 22960 H 2268.12 4.15619 -0.152937 0
M  V30 22961 H 2266.7 3.40609 1.51788 0
M  V30 22962 N 2268.88 0.0501669 1.5752 0
M  V30 22963 C 2270.11 -0.633457 1.96964 0
M  V30 22964 C 2270.53 -1.64438 0.92766 0
M  V30 22965 O 2269.88 -1.82287 -0.0882344 0
M  V30 22966 C 2269.93 -1.32126 3.36489 0
M  V30 22967 O 2269.66 -0.350817 4.36693 0
M  V30 22968 C 2271.16 -2.09474 3.90686 0
M  V30 22969 H 2268.38 -0.173255 0.648247 0
M  V30 22970 H 2270.92 0.116169 2.0417 0
M  V30 22971 H 2269.08 -2.02212 3.30437 0
M  V30 22972 H 2269.49 -0.841644 5.17703 0
M  V30 22973 H 2270.96 -2.53021 4.90596 0
M  V30 22974 H 2271.44 -2.94249 3.26059 0
M  V30 22975 H 2272.05 -1.443 4.00072 0
M  V30 22976 N 2270.36 -1.56011 -0.223207 0
M  V30 22977 C 2271.77 -1.69147 -0.790338 0
M  V30 22978 C 2272.12 -0.651878 -1.85054 0
M  V30 22979 O 2271.25 0.197321 -2.15499 0
M  V30 22980 C 2271.84 -3.06659 -1.44034 0
M  V30 22981 C 2270.4 -3.21654 -1.95489 0
M  V30 22982 C 2269.55 -2.6507 -0.81446 0
M  V30 22983 H 2272.5 -1.587 0.001418 0
M  V30 22984 H 2272.52 -3.02424 -2.30911 0
M  V30 22985 H 2272.03 -3.823 -0.668476 0
M  V30 22986 H 2270.13 -2.50879 -2.75482 0
M  V30 22987 H 2270.25 -4.2885 -2.13599 0
M  V30 22988 H 2268.61 -2.23507 -1.22133 0
M  V30 22989 H 2269.39 -3.43255 -0.0552912 0
M  V30 22990 N 2271.84 0.489844 -1.49794 0
M  V30 22991 C 2272.77 1.6071 -1.63416 0
M  V30 22992 C 2273.78 1.54394 -0.516356 0
M  V30 22993 O 2274.97 1.60124 -0.78884 0
M  V30 22994 C 2272.07 2.9954 -1.58521 0
M  V30 22995 C 2271.25 3.30923 -2.86022 0
M  V30 22996 C 2270.31 4.49217 -2.74026 0
M  V30 22997 O 2269.33 4.50449 -3.47972 0
M  V30 22998 N 2270.53 5.49787 -1.86319 0
M  V30 22999 H 2273.3 1.49448 -2.5978 0
M  V30 23000 H 2270.86 0.677929 -1.47023 0
M  V30 23001 H 2272.85 3.76614 -1.48135 0
M  V30 23002 H 2271.42 3.04669 -0.699704 0
M  V30 23003 H 2270.64 2.42639 -3.10676 0
M  V30 23004 H 2271.93 3.48693 -3.70527 0
M  V30 23005 H 2271.33 5.51599 -1.2552 0
M  V30 23006 H 2269.88 6.25919 -1.81848 0
M  V30 23007 N 2273.32 1.39056 0.741698 0
M  V30 23008 C 2274.25 1.33136 1.86567 0
M  V30 23009 C 2275.26 0.241357 1.61001 0
M  V30 23010 O 2276.45 0.499814 1.7136 0
M  V30 23011 C 2273.55 1.04288 3.22455 0
M  V30 23012 C 2272.72 2.24434 3.75431 0
M  V30 23013 C 2271.78 1.92146 4.89864 0
M  V30 23014 O 2270.81 2.64763 5.03874 0
M  V30 23015 N 2272.01 0.883571 5.73736 0
M  V30 23016 H 2274.78 2.29995 1.92152 0
M  V30 23017 H 2272.34 1.33072 0.922149 0
M  V30 23018 H 2274.33 0.807197 3.96568 0
M  V30 23019 H 2272.9 0.161862 3.12181 0
M  V30 23020 H 2272.12 2.63995 2.92746 0
M  V30 23021 H 2273.41 3.04588 4.07558 0
M  V30 23022 H 2272.81 0.281616 5.64999 0
M  V30 23023 H 2271.36 0.707776 6.47946 0
M  V30 23024 N 2274.8 -0.971167 1.24121 0
M  V30 23025 C 2275.73 -2.08302 1.05511 0
M  V30 23026 C 2276.71 -1.70072 -0.0308565 0
M  V30 23027 O 2277.89 -1.93726 0.135556 0
M  V30 23028 C 2275.02 -3.41059 0.655425 0
M  V30 23029 C 2273.98 -3.93231 1.68978 0
M  V30 23030 C 2273.3 -5.22291 1.14525 0
M  V30 23031 C 2274.6 -4.2146 3.08494 0
M  V30 23032 H 2276.3 -2.24129 1.98511 0
M  V30 23033 H 2273.84 -1.07702 0.95584 0
M  V30 23034 H 2275.79 -4.18275 0.512243 0
M  V30 23035 H 2274.52 -3.25123 -0.310263 0
M  V30 23036 H 2273.18 -3.18168 1.82111 0
M  V30 23037 H 2272.83 -5.02712 0.170277 0
M  V30 23038 H 2272.53 -5.58165 1.83645 0
M  V30 23039 H 2274.05 -6.0212 1.01412 0
M  V30 23040 H 2275.46 -4.89393 2.98609 0
M  V30 23041 H 2273.86 -4.68555 3.74935 0
M  V30 23042 H 2274.93 -3.2837 3.56793 0
M  V30 23043 N 2276.27 -1.05441 -1.17133 0
M  V30 23044 C 2277.21 -0.615578 -2.20779 0
M  V30 23045 C 2278.22 0.321973 -1.59584 0
M  V30 23046 O 2279.41 0.114313 -1.78134 0
M  V30 23047 C 2276.51 0.118878 -3.38691 0
M  V30 23048 C 2275.68 -0.829999 -4.29453 0
M  V30 23049 C 2274.74 -0.13635 -5.26023 0
M  V30 23050 O 2273.77 -0.771249 -5.63951 0
M  V30 23051 N 2274.97 1.1253 -5.69489 0
M  V30 23052 H 2277.73 -1.5071 -2.59049 0
M  V30 23053 H 2275.29 -0.936627 -1.32056 0
M  V30 23054 H 2277.29 0.593108 -4.0033 0
M  V30 23055 H 2275.86 0.912097 -2.98998 0
M  V30 23056 H 2275.08 -1.4838 -3.65208 0
M  V30 23057 H 2276.36 -1.474 -4.86981 0
M  V30 23058 H 2275.76 1.6614 -5.40753 0
M  V30 23059 H 2274.32 1.54355 -6.3326 0
M  V30 23060 N 2277.75 1.33613 -0.835776 0
M  V30 23061 C 2278.7 2.31195 -0.255278 0
M  V30 23062 C 2279.69 1.57996 0.611042 0
M  V30 23063 O 2280.9 1.72889 0.500948 0
M  V30 23064 H 2277.28 0.749287 -0.0638217 0
M  V30 23065 H 2279.25 2.77667 -1.09288 0
M  V30 23066 C 2278 3.43202 0.55748 0
M  V30 23067 H 2277.32 3.99675 -0.0998256 0
M  V30 23068 H 2278.76 4.13685 0.929549 0
M  V30 23069 C 2277.22 2.88784 1.7351 0
M  V30 23070 O 2277.75 2.84717 2.83371 0
M  V30 23071 N 2275.95 2.45433 1.55599 0
M  V30 23072 H 2275.5 2.4894 0.662311 0
M  V30 23073 H 2275.46 2.09375 2.34541 0
M  V30 23074 N 2279.23 0.591922 1.46062 0
M  V30 23075 C 2280.16 -0.123632 2.33172 0
M  V30 23076 C 2281.14 -0.874505 1.45899 0
M  V30 23077 O 2282.33 -0.84815 1.747 0
M  V30 23078 C 2279.46 -1.13188 3.28338 0
M  V30 23079 C 2278.41 -0.495249 4.25125 0
M  V30 23080 C 2277.74 -1.61063 5.09866 0
M  V30 23081 C 2279.04 0.573516 5.19142 0
M  V30 23082 H 2280.73 0.603698 2.9325 0
M  V30 23083 H 2278.28 0.291766 1.41013 0
M  V30 23084 H 2280.23 -1.6409 3.8814 0
M  V30 23085 H 2278.95 -1.8896 2.66386 0
M  V30 23086 H 2277.61 -0.00723008 3.66599 0
M  V30 23087 H 2277.26 -2.35824 4.44293 0
M  V30 23088 H 2276.96 -1.19025 5.75419 0
M  V30 23089 H 2278.48 -2.12223 5.72533 0
M  V30 23090 H 2279.9 0.149201 5.73106 0
M  V30 23091 H 2278.3 0.91474 5.93087 0
M  V30 23092 H 2279.37 1.45625 4.62516 0
M  V30 23093 N 2280.71 -1.54102 0.330204 0
M  V30 23094 C 2281.94 -2.05102 -0.272143 0
M  V30 23095 C 2282.35 -1.20597 -1.45264 0
M  V30 23096 O 2281.71 -0.238175 -1.80939 0
M  V30 23097 C 2281.76 -3.54655 -0.700168 0
M  V30 23098 O 2281.48 -4.35951 0.433378 0
M  V30 23099 C 2282.98 -4.21773 -1.36463 0
M  V30 23100 H 2280.2 -0.66875 -0.0549041 0
M  V30 23101 H 2282.75 -1.98827 0.47832 0
M  V30 23102 H 2280.9 -3.61195 -1.40059 0
M  V30 23103 H 2281.31 -5.24414 0.0948461 0
M  V30 23104 H 2282.79 -5.27846 -1.615 0
M  V30 23105 H 2283.27 -3.73296 -2.31402 0
M  V30 23106 H 2283.87 -4.19389 -0.706601 0
M  V30 23107 N 2282.19 -0.0585199 -1.57491 0
M  V30 23108 C 2283.1 0.928376 -2.15449 0
M  V30 23109 C 2284.11 1.33648 -1.11419 0
M  V30 23110 O 2285.29 1.4119 -1.43622 0
M  V30 23111 C 2282.35 2.18234 -2.69397 0
M  V30 23112 C 2281.41 1.8319 -3.88253 0
M  V30 23113 C 2280.65 3.02608 -4.39618 0
M  V30 23114 O 2280.87 4.16212 -3.90031 0
M  V30 23115 O 2279.8 2.83195 -5.31116 0
M  V30 23116 H 2283.63 0.46543 -3.00112 0
M  V30 23117 H 2281.22 0.1638 -1.48499 0
M  V30 23118 H 2283.1 2.91792 -3.04032 0
M  V30 23119 H 2281.77 2.63652 -1.87801 0
M  V30 23120 H 2280.68 1.06924 -3.58494 0
M  V30 23121 H 2282.01 1.42565 -4.71101 0
M  V30 23122 N 2283.66 1.56128 0.21493 0
M  V30 23123 C 2284.94 1.70248 0.963063 0
M  V30 23124 C 2285.32 0.607676 2.02165 0
M  V30 23125 O 2284.67 -0.384345 2.25244 0
M  V30 23126 C 2284.88 3.11818 1.5675 0
M  V30 23127 C 2286.23 3.71434 2.05723 0
M  V30 23128 O 2287.25 3.14821 1.66631 0
M  V30 23129 O 2286.11 4.70748 2.77595 0
M  V30 23130 H 2283.2 0.693651 0.450309 0
M  V30 23131 H 2285.75 1.68443 0.206189 0
M  V30 23132 H 2284.52 3.82962 0.803465 0
M  V30 23133 H 2284.15 3.17769 2.38974 0
M  V30 23134 N 2285.14 -0.481893 1.50052 0
M  V30 23135 C 2286.39 -1.23147 1.59743 0
M  V30 23136 C 2286.7 -1.93314 0.298197 0
M  V30 23137 O 2287.91 -2.70115 0.273883 0
M  V30 23138 C 2286.37 -2.23703 2.8193 0
M  V30 23139 C 2285.97 -1.59389 4.18688 0
M  V30 23140 C 2287.72 -2.9937 3.00962 0
M  V30 23141 C 2285.63 -2.58168 5.32074 0
M  V30 23142 H 2284.56 -0.46333 0.594846 0
M  V30 23143 H 2287.21 -0.503138 1.76467 0
M  V30 23144 H 2285.59 -2.99782 2.58741 0
M  V30 23145 H 2286.76 -0.891732 4.52089 0
M  V30 23146 H 2285.08 -0.960432 4.05172 0
M  V30 23147 H 2287.67 -3.73277 3.82843 0
M  V30 23148 H 2288.02 -3.58119 2.12265 0
M  V30 23149 H 2288.55 -2.30406 3.24281 0
M  V30 23150 H 2285.29 -2.04173 6.22891 0
M  V30 23151 H 2284.81 -3.26568 5.03104 0
M  V30 23152 H 2286.49 -3.20216 5.62202 0
M  V30 23153 N 2286.62 -1.39448 -0.734313 0
M  V30 23154 C 2288.04 -1.21067 -1.03995 0
M  V30 23155 C 2288.24 -0.0727373 -2.01369 0
M  V30 23156 O 2287.29 0.575383 -2.45857 0
M  V30 23157 C 2288.61 -2.54499 -1.60158 0
M  V30 23158 C 2290.15 -2.6135 -1.72235 0
M  V30 23159 C 2290.63 -3.95006 -2.31807 0
M  V30 23160 N 2292.12 -3.96648 -2.39216 0
M  V30 23161 C 2292.85 -4.96839 -2.86249 0
M  V30 23162 N 2292.35 -6.07427 -3.33173 0
M  V30 23163 N 2294.14 -4.84218 -2.85464 0
M  V30 23164 H 2286.29 -2.12215 -0.0885251 0
M  V30 23165 H 2288.56 -0.942508 -0.101893 0
M  V30 23166 H 2288.26 -3.38323 -0.960752 0
M  V30 23167 H 2288.14 -2.74267 -2.58955 0
M  V30 23168 H 2290.52 -1.7791 -2.3544 0
M  V30 23169 H 2290.61 -2.45432 -0.720896 0
M  V30 23170 H 2290.25 -4.78877 -1.6923 0
M  V30 23171 H 2290.18 -4.08245 -3.32631 0
M  V30 23172 H 2292.67 -3.16783 -2.06051 0
M  V30 23173 H 2292.98 -6.79786 -3.67574 0
M  V30 23174 H 2291.33 -6.11019 -3.3118 0
M  V30 23175 H 2294.52 -3.96925 -2.48129 0
M  V30 23176 H 2294.69 -5.62446 -3.21804 0
M  V30 23177 N 2288.1 0.964571 -1.24635 0
M  V30 23178 C 2289.01 2.09357 -1.05863 0
M  V30 23179 C 2290.02 1.74 0.00145797 0
M  V30 23180 O 2291.2 2.0043 -0.197381 0
M  V30 23181 C 2288.27 3.40185 -0.668938 0
M  V30 23182 C 2287.33 3.89471 -1.80585 0
M  V30 23183 C 2286.56 5.14056 -1.43466 0
M  V30 23184 O 2286.78 5.69468 -0.325875 0
M  V30 23185 O 2285.72 5.57803 -2.26139 0
M  V30 23186 H 2289.54 2.28091 -2.0052 0
M  V30 23187 H 2287.13 1.07758 -1.03482 0
M  V30 23188 H 2289.01 4.18846 -0.463285 0
M  V30 23189 H 2287.68 3.22745 0.24848 0
M  V30 23190 H 2286.59 3.11858 -2.06628 0
M  V30 23191 H 2287.92 4.11393 -2.70216 0
M  V30 23192 N 2289.58 1.0606 1.16572 0
M  V30 23193 C 2290.99 0.78361 1.39039 0
M  V30 23194 C 2291.19 -0.618111 1.91785 0
M  V30 23195 O 2290.25 -1.37907 2.11513 0
M  V30 23196 C 2291.56 1.84654 2.37326 0
M  V30 23197 C 2293.11 1.86977 2.51015 0
M  V30 23198 C 2293.58 2.92317 3.52583 0
M  V30 23199 N 2295.08 2.91336 3.60108 0
M  V30 23200 C 2295.81 3.6949 4.3848 0
M  V30 23201 N 2295.31 4.57456 5.20294 0
M  V30 23202 N 2297.1 3.57892 4.33439 0
M  V30 23203 H 2289.25 1.96485 0.806691 0
M  V30 23204 H 2291.51 0.851311 0.417102 0
M  V30 23205 H 2291.22 2.85303 2.05658 0
M  V30 23206 H 2291.09 1.69556 3.36943 0
M  V30 23207 H 2293.48 0.869876 2.81988 0
M  V30 23208 H 2293.56 2.06153 1.51442 0
M  V30 23209 H 2293.21 3.92498 3.22348 0
M  V30 23210 H 2293.14 2.70391 4.51881 0
M  V30 23211 H 2295.63 2.27561 3.01703 0
M  V30 23212 H 2295.94 5.13753 5.77302 0
M  V30 23213 H 2294.28 4.61513 5.19645 0
M  V30 23214 H 2297.48 2.88557 3.68581 0
M  V30 23215 H 2297.65 4.19046 4.94272 0
M  V30 23216 N 2291.06 -1.33168 0.84285 0
M  V30 23217 C 2292.3 -1.97944 0.441134 0
M  V30 23218 C 2292.63 -1.66594 -0.997994 0
M  V30 23219 O 2291.91 -0.947927 -1.69837 0
M  V30 23220 C 2292.19 -3.53871 0.666903 0
M  V30 23221 C 2292.05 -3.94893 2.15359 0
M  V30 23222 C 2293.36 -4.39948 0.115622 0
M  V30 23223 H 2290.48 -0.719031 0.161752 0
M  V30 23224 H 2293.13 -1.57744 1.0591 0
M  V30 23225 H 2291.28 -3.88244 0.140896 0
M  V30 23226 H 2292.95 -3.70756 2.74477 0
M  V30 23227 H 2291.19 -3.4448 2.63659 0
M  V30 23228 H 2291.86 -5.03512 2.2623 0
M  V30 23229 H 2294.34 -4.12242 0.565286 0
M  V30 23230 H 2293.21 -5.48062 0.303249 0
M  V30 23231 H 2293.47 -4.31082 -0.980859 0
M  V30 23232 N 2292.53 -0.599659 -1.45746 0
M  V30 23233 C 2293.44 0.125847 -2.34262 0
M  V30 23234 C 2294.46 0.868598 -1.50769 0
M  V30 23235 O 2295.64 0.827971 -1.83594 0
M  V30 23236 C 2292.7 1.11581 -3.28254 0
M  V30 23237 C 2291.76 0.375881 -4.27651 0
M  V30 23238 C 2290.99 1.31868 -5.17152 0
M  V30 23239 O 2291.22 2.55612 -5.0992 0
M  V30 23240 O 2290.15 0.820052 -5.96287 0
M  V30 23241 H 2293.98 -0.601368 -2.97687 0
M  V30 23242 H 2291.56 -0.35996 -1.44999 0
M  V30 23243 H 2293.44 1.68619 -3.86194 0
M  V30 23244 H 2292.12 1.82419 -2.67404 0
M  V30 23245 H 2291.03 -0.236763 -3.7335 0
M  V30 23246 H 2292.36 -0.291856 -4.91334 0
M  V30 23247 N 2294.01 1.53925 -0.338371 0
M  V30 23248 C 2295.24 2.05714 0.263951 0
M  V30 23249 C 2295.66 1.21204 1.43845 0
M  V30 23250 O 2295.02 0.224567 1.79904 0
M  V30 23251 C 2295.07 3.54472 0.661938 0
M  V30 23252 O 2294.17 3.72836 1.76259 0
M  V30 23253 H 2293.51 0.662483 0.0448606 0
M  V30 23254 H 2296.04 1.98619 -0.491083 0
M  V30 23255 H 2296.05 3.97012 0.940524 0
M  V30 23256 H 2294.73 4.15433 -0.19701 0
M  V30 23257 H 2293.3 3.422 1.48167 0
M  V30 23258 N 2295.49 0.0668712 1.57458 0
M  V30 23259 C 2296.42 -0.899726 2.1547 0
M  V30 23260 C 2297.4 -1.31379 1.08044 0
M  V30 23261 O 2298.59 -1.38572 1.36057 0
M  V30 23262 C 2295.72 -2.16907 2.71236 0
M  V30 23263 C 2294.67 -1.89456 3.83784 0
M  V30 23264 C 2294 -3.22978 4.26133 0
M  V30 23265 C 2295.3 -1.20372 5.0824 0
M  V30 23266 H 2296.99 -0.416477 2.96489 0
M  V30 23267 H 2294.54 -0.198883 1.4262 0
M  V30 23268 H 2296.49 -2.84939 3.10463 0
M  V30 23269 H 2295.21 -2.67465 1.8743 0
M  V30 23270 H 2293.87 -1.2383 3.45053 0
M  V30 23271 H 2293.52 -3.71368 3.39256 0
M  V30 23272 H 2293.22 -3.05404 5.01998 0
M  V30 23273 H 2294.74 -3.92217 4.67973 0
M  V30 23274 H 2296.16 -1.78466 5.44814 0
M  V30 23275 H 2294.55 -1.13073 5.89351 0
M  V30 23276 H 2295.62 -0.182068 4.84558 0
M  V30 23277 N 2296.97 -1.56239 -0.206647 0
M  V30 23278 C 2298.19 -1.84392 -0.949442 0
M  V30 23279 C 2298.62 -0.649047 -1.76547 0
M  V30 23280 O 2297.98 0.4022 -1.76782 0
M  V30 23281 C 2298.02 -3.10672 -1.83073 0
M  V30 23282 O 2297.13 -2.90412 -2.92805 0
M  V30 23283 H 2296.47 -0.607503 -0.268022 0
M  V30 23284 H 2299 -2.03462 -0.215453 0
M  V30 23285 H 2299.01 -3.41165 -2.23764 0
M  V30 23286 H 2297.68 -3.97263 -1.23105 0
M  V30 23287 H 2296.26 -2.71189 -2.55951 0
M  V30 23288 N 2298.45 0.473929 -1.50305 0
M  V30 23289 C 2299.38 1.58968 -1.65112 0
M  V30 23290 C 2300.39 1.53838 -0.532703 0
M  V30 23291 O 2301.58 1.59278 -0.805779 0
M  V30 23292 C 2298.68 2.97842 -1.61689 0
M  V30 23293 C 2297.85 3.27871 -2.89516 0
M  V30 23294 C 2296.91 4.46285 -2.78775 0
M  V30 23295 O 2295.94 4.46733 -3.5273 0
M  V30 23296 N 2297.14 5.4778 -1.9214 0
M  V30 23297 H 2299.9 1.46684 -2.6135 0
M  V30 23298 H 2297.47 0.662298 -1.47734 0
M  V30 23299 H 2299.46 3.75022 -1.52121 0
M  V30 23300 H 2298.03 3.03909 -0.731979 0
M  V30 23301 H 2297.25 2.39331 -3.13232 0
M  V30 23302 H 2298.54 3.44744 -3.74205 0
M  V30 23303 H 2297.93 5.50237 -1.31363 0
M  V30 23304 H 2296.49 6.23955 -1.88477 0
M  V30 23305 N 2299.92 1.39835 0.726907 0
M  V30 23306 C 2301.17 1.37703 1.48882 0
M  V30 23307 C 2301.5 -0.024451 1.94185 0
M  V30 23308 O 2300.78 -0.990956 1.67363 0
M  V30 23309 C 2301.06 2.35655 2.72284 0
M  V30 23310 C 2300.91 3.84779 2.32949 0
M  V30 23311 C 2302.23 2.31312 3.7441 0
M  V30 23312 H 2299.35 0.501509 0.540053 0
M  V30 23313 H 2301.99 1.70887 0.830516 0
M  V30 23314 H 2300.14 2.07487 3.28453 0
M  V30 23315 H 2301.82 4.23729 1.82349 0
M  V30 23316 H 2300.06 4.01162 1.65081 0
M  V30 23317 H 2300.73 4.48816 3.21354 0
M  V30 23318 H 2303.21 2.56237 3.27844 0
M  V30 23319 H 2302.08 3.01916 4.58408 0
M  V30 23320 H 2302.34 1.32089 4.21906 0
M  V30 23321 N 2301.4 -0.957948 1.25144 0
M  V30 23322 C 2302.31 -2.08792 1.06971 0
M  V30 23323 C 2303.33 -1.73998 0.00776969 0
M  V30 23324 O 2304.5 -2.00323 0.208008 0
M  V30 23325 C 2301.57 -3.39826 0.68697 0
M  V30 23326 C 2300.63 -3.88508 1.82648 0
M  V30 23327 C 2299.86 -5.13287 1.4619 0
M  V30 23328 O 2300.09 -5.69288 0.356071 0
M  V30 23329 O 2299.02 -5.56596 2.29094 0
M  V30 23330 H 2302.85 -2.27024 2.01727 0
M  V30 23331 H 2300.43 -1.07207 1.04053 0
M  V30 23332 H 2302.31 -4.18594 0.485491 0
M  V30 23333 H 2300.99 -3.22872 -0.23136 0
M  V30 23334 H 2299.89 -3.10758 2.08279 0
M  V30 23335 H 2301.23 -4.09954 2.72394 0
M  V30 23336 N 2302.88 -1.06677 -1.16008 0
M  V30 23337 C 2304.13 -0.786978 -1.86908 0
M  V30 23338 C 2304.46 0.684986 -1.81718 0
M  V30 23339 O 2303.73 1.50215 -1.23554 0
M  V30 23340 C 2304.02 -1.28713 -3.36311 0
M  V30 23341 C 2303.87 -2.82314 -3.5017 0
M  V30 23342 C 2305.19 -0.898147 -4.30838 0
M  V30 23343 H 2302.31 -0.287355 -0.678672 0
M  V30 23344 H 2304.95 -1.32337 -1.36334 0
M  V30 23345 H 2303.1 -0.830835 -3.79512 0
M  V30 23346 H 2304.77 -3.36181 -3.1588 0
M  V30 23347 H 2303.01 -3.20852 -2.91953 0
M  V30 23348 H 2303.69 -3.12376 -4.5511 0
M  V30 23349 H 2306.16 -1.29121 -3.95559 0
M  V30 23350 H 2305.04 -1.27552 -5.33874 0
M  V30 23351 H 2305.3 0.196574 -4.41663 0
M  V30 23352 N 2304.36 1.32719 -0.8499 0
M  V30 23353 C 2305.61 1.9668 -0.447209 0
M  V30 23354 C 2305.92 1.68027 1.00132 0
M  V30 23355 O 2307.13 2.25688 1.50922 0
M  V30 23356 C 2305.58 3.52025 -0.748762 0
M  V30 23357 C 2305.19 3.89542 -2.21271 0
M  V30 23358 C 2306.93 4.22481 -0.413562 0
M  V30 23359 C 2304.84 5.37912 -2.45773 0
M  V30 23360 H 2303.77 0.73606 -0.163499 0
M  V30 23361 H 2306.42 1.51181 -1.04002 0
M  V30 23362 H 2304.8 3.95908 -0.0854423 0
M  V30 23363 H 2305.98 3.56684 -2.91742 0
M  V30 23364 H 2304.29 3.32099 -2.51196 0
M  V30 23365 H 2306.89 5.31609 -0.574111 0
M  V30 23366 H 2307.23 4.11282 0.64442 0
M  V30 23367 H 2307.77 3.84165 -1.03257 0
M  V30 23368 H 2304.5 5.54126 -3.50177 0
M  V30 23369 H 2304.02 5.72193 -1.79874 0
M  V30 23370 H 2305.7 6.04936 -2.29482 0
M  V30 23371 N 2305.84 0.60738 1.45426 0
M  V30 23372 C 2306.77 -0.0988942 2.3329 0
M  V30 23373 C 2307.75 -0.858981 1.46818 0
M  V30 23374 O 2308.93 -0.829573 1.7559 0
M  V30 23375 C 2306.06 -1.09699 3.2952 0
M  V30 23376 C 2305.02 -0.450131 4.25626 0
M  V30 23377 C 2304.34 -1.55646 5.11545 0
M  V30 23378 C 2305.64 0.628546 5.18504 0
M  V30 23379 H 2307.34 0.634767 2.92594 0
M  V30 23380 H 2304.88 0.306706 1.40696 0
M  V30 23381 H 2306.84 -1.59964 3.89858 0
M  V30 23382 H 2305.56 -1.86124 2.68375 0
M  V30 23383 H 2304.22 0.0316531 3.66586 0
M  V30 23384 H 2303.87 -2.31099 4.46769 0
M  V30 23385 H 2303.57 -1.12915 5.76649 0
M  V30 23386 H 2305.09 -2.06138 5.74752 0
M  V30 23387 H 2306.5 0.209978 5.72915 0
M  V30 23388 H 2304.9 0.977593 5.92084 0
M  V30 23389 H 2305.97 1.50522 4.60946 0
M  V30 23390 N 2307.31 -1.53743 0.34653 0
M  V30 23391 C 2308.25 -2.22668 -0.543277 0
M  V30 23392 C 2309.26 -1.23428 -1.06157 0
M  V30 23393 O 2310.45 -1.49766 -0.971208 0
M  V30 23394 C 2307.55 -2.89572 -1.76071 0
M  V30 23395 C 2306.72 -4.15153 -1.3772 0
M  V30 23396 C 2305.78 -4.6544 -2.45463 0
M  V30 23397 O 2304.81 -5.2958 -2.08646 0
M  V30 23398 N 2306.01 -4.41623 -3.76762 0
M  V30 23399 H 2308.77 -2.99663 0.047023 0
M  V30 23400 H 2306.33 -1.60997 0.170795 0
M  V30 23401 H 2308.33 -3.20129 -2.47588 0
M  V30 23402 H 2306.9 -2.16146 -2.25831 0
M  V30 23403 H 2306.12 -3.91109 -0.492678 0
M  V30 23404 H 2307.4 -4.96834 -1.09699 0
M  V30 23405 H 2306.8 -3.90332 -4.0946 0
M  V30 23406 H 2305.36 -4.76777 -4.4444 0
M  V30 23407 N 2308.79 -0.0752207 -1.5742 0
M  V30 23408 C 2309.74 0.900988 -2.09443 0
M  V30 23409 C 2310.73 1.25662 -1.00489 0
M  V30 23410 O 2311.92 1.23502 -1.26792 0
M  V30 23411 C 2309.05 2.16732 -2.66237 0
M  V30 23412 C 2308.13 1.83801 -3.82201 0
M  V30 23413 N 2308.52 1.21337 -4.91031 0
M  V30 23414 C 2306.82 2.13531 -3.91561 0
M  V30 23415 C 2307.52 1.06575 -5.71854 0
M  V30 23416 N 2306.5 1.57658 -5.20236 0
M  V30 23417 H 2310.3 0.413763 -2.90973 0
M  V30 23418 H 2307.82 0.128572 -1.6189 0
M  V30 23419 H 2309.81 2.8759 -3.01824 0
M  V30 23420 H 2308.47 2.66039 -1.86155 0
M  V30 23421 H 2309.48 0.88259 -5.10324 0
M  V30 23422 H 2306.16 2.65191 -3.22459 0
M  V30 23423 H 2307.55 0.578816 -6.69402 0
M  V30 23424 N 2310.27 1.56347 0.198358 0
M  V30 23425 C 2311.5 1.84893 0.93965 0
M  V30 23426 C 2311.92 0.6584 1.76201 0
M  V30 23427 O 2311.28 -0.39282 1.76993 0
M  V30 23428 C 2311.33 3.11638 1.81422 0
M  V30 23429 O 2310.43 2.91961 2.9126 0
M  V30 23430 H 2309.77 0.608916 0.264796 0
M  V30 23431 H 2312.3 2.03574 0.20466 0
M  V30 23432 H 2312.31 3.42347 2.21952 0
M  V30 23433 H 2310.99 3.9791 1.20997 0
M  V30 23434 H 2309.56 2.72542 2.54509 0
M  V30 23435 N 2311.75 -0.465951 1.50554 0
M  V30 23436 C 2312.71 -1.54571 1.69235 0
M  V30 23437 C 2313.71 -1.50625 0.562928 0
M  V30 23438 O 2314.9 -1.53153 0.830042 0
M  V30 23439 C 2312.03 -2.9419 1.72235 0
M  V30 23440 H 2313.23 -1.39322 2.65574 0
M  V30 23441 H 2310.78 -0.692687 1.40113 0
M  V30 23442 H 2311.51 -3.14877 0.776085 0
M  V30 23443 H 2311.3 -2.98461 2.5429 0
M  V30 23444 H 2312.79 -3.72573 1.88625 0
M  V30 23445 N 2313.23 -1.40218 -0.719481 0
M  V30 23446 C 2314.19 -1.3993 -1.81527 0
M  V30 23447 C 2315.19 -0.29375 -1.58094 0
M  V30 23448 O 2316.38 -0.552458 -1.65208 0
M  V30 23449 C 2313.51 -1.18721 -3.19559 0
M  V30 23450 H 2314.7 -2.37454 -1.83182 0
M  V30 23451 H 2312.26 -1.2601 -0.924724 0
M  V30 23452 H 2312.99 -0.219423 -3.23557 0
M  V30 23453 H 2312.78 -1.98799 -3.37967 0
M  V30 23454 H 2314.27 -1.21298 -3.99595 0
M  V30 23455 N 2314.7 0.951297 -1.25651 0
M  V30 23456 C 2315.98 1.67286 -1.01364 0
M  V30 23457 C 2316.36 2.06047 0.459099 0
M  V30 23458 O 2315.71 1.77642 1.4372 0
M  V30 23459 C 2315.92 2.89264 -1.95262 0
M  V30 23460 C 2317.27 3.61143 -2.23296 0
M  V30 23461 O 2318.29 2.99352 -1.93046 0
M  V30 23462 O 2317.15 4.72414 -2.74749 0
M  V30 23463 H 2314.24 0.7321 -0.384653 0
M  V30 23464 H 2316.79 1.00393 -1.36819 0
M  V30 23465 H 2315.56 2.57437 -2.9469 0
M  V30 23466 H 2315.19 3.63887 -1.60224 0
M  V30 23467 N 2316.18 1.07291 1.1544 0
M  V30 23468 C 2317.43 0.790702 1.85555 0
M  V30 23469 C 2317.74 -0.685706 1.83187 0
M  V30 23470 O 2318.95 -1.08266 2.48979 0
M  V30 23471 C 2317.41 1.36439 3.33035 0
M  V30 23472 C 2317.01 2.87176 3.43851 0
M  V30 23473 C 2318.76 1.16017 4.08338 0
M  V30 23474 C 2316.67 3.37739 4.85476 0
M  V30 23475 H 2315.6 0.29211 0.695117 0
M  V30 23476 H 2318.25 1.2929 1.30217 0
M  V30 23477 H 2316.63 0.789932 3.88041 0
M  V30 23478 H 2317.8 3.5066 2.98955 0
M  V30 23479 H 2316.12 3.06381 2.81992 0
M  V30 23480 H 2318.71 1.51271 5.12856 0
M  V30 23481 H 2319.06 0.0991739 4.16182 0
M  V30 23482 H 2319.59 1.70095 3.596 0
M  V30 23483 H 2316.33 4.43361 4.82816 0
M  V30 23484 H 2315.85 2.79008 5.30956 0
M  V30 23485 H 2317.53 3.33658 5.5433 0
M  V30 23486 N 2317.66 -1.32267 0.856927 0
M  V30 23487 C 2318.62 -2.27118 0.308211 0
M  V30 23488 C 2319.62 -1.51696 -0.533394 0
M  V30 23489 O 2320.81 -1.70758 -0.344577 0
M  V30 23490 C 2317.95 -3.36207 -0.563698 0
M  V30 23491 H 2319.14 -2.77165 1.1454 0
M  V30 23492 H 2316.69 -1.42977 0.631446 0
M  V30 23493 H 2317.43 -2.91432 -1.42261 0
M  V30 23494 H 2317.21 -3.92081 0.0387439 0
M  V30 23495 H 2318.7 -4.06876 -0.940315 0
M  V30 23496 N 2319.14 -0.615084 -1.45102 0
M  V30 23497 C 2320.55 -0.27935 -1.57136 0
M  V30 23498 C 2320.75 1.21795 -1.60525 0
M  V30 23499 O 2319.81 2.00132 -1.5396 0
M  V30 23500 C 2321.12 -0.957134 -2.8506 0
M  V30 23501 C 2322.67 -0.933758 -2.98747 0
M  V30 23502 C 2323.15 -1.5917 -4.29452 0
M  V30 23503 N 2324.64 -1.55753 -4.36228 0
M  V30 23504 C 2325.37 -2.0357 -5.36048 0
M  V30 23505 N 2324.87 -2.59505 -6.42362 0
M  V30 23506 N 2326.66 -1.94293 -5.27453 0
M  V30 23507 H 2318.81 -1.58719 -1.41145 0
M  V30 23508 H 2321.08 -0.665318 -0.67532 0
M  V30 23509 H 2320.78 -2.01171 -2.88484 0
M  V30 23510 H 2320.66 -0.485006 -3.74069 0
M  V30 23511 H 2323.04 0.112295 -2.94886 0
M  V30 23512 H 2323.12 -1.44422 -2.1113 0
M  V30 23513 H 2322.77 -2.63712 -4.34072 0
M  V30 23514 H 2322.7 -1.05619 -5.15899 0
M  V30 23515 H 2325.19 -1.14899 -3.60009 0
M  V30 23516 H 2325.5 -2.93765 -7.14788 0
M  V30 23517 H 2323.85 -2.63548 -6.43092 0
M  V30 23518 H 2327.04 -1.50328 -4.43305 0
M  V30 23519 H 2327.21 -2.31871 -6.05095 0
M  V30 23520 N 2320.62 1.53557 -0.354678 0
M  V30 23521 C 2321.58 2.2402 0.484526 0
M  V30 23522 C 2322.58 1.24424 1.01859 0
M  V30 23523 O 2323.77 1.48782 0.906071 0
M  V30 23524 C 2320.9 2.9685 1.6761 0
M  V30 23525 H 2322.1 2.9961 -0.131895 0
M  V30 23526 H 2319.65 1.55939 -0.106193 0
M  V30 23527 H 2320.38 2.25475 2.33091 0
M  V30 23528 H 2320.17 3.69914 1.30023 0
M  V30 23529 H 2321.66 3.50445 2.27108 0
M  V30 23530 N 2322.1 0.083568 1.57378 0
M  V30 23531 C 2323.01 -0.893982 2.16899 0
M  V30 23532 C 2324.02 -1.31859 1.13531 0
M  V30 23533 O 2325.2 -1.38887 1.4585 0
M  V30 23534 C 2322.26 -2.13921 2.72835 0
M  V30 23535 C 2321.32 -1.7699 3.91118 0
M  V30 23536 C 2320.56 -2.95576 4.44377 0
M  V30 23537 O 2320.78 -4.09954 3.96603 0
M  V30 23538 O 2319.71 -2.7471 5.35554 0
M  V30 23539 H 2323.54 -0.417626 3.00815 0
M  V30 23540 H 2321.12 -0.140155 1.48741 0
M  V30 23541 H 2323.01 -2.86919 3.08635 0
M  V30 23542 H 2321.68 -2.60631 1.91972 0
M  V30 23543 H 2320.59 -1.01208 3.6015 0
M  V30 23544 H 2321.92 -1.35052 4.73309 0
M  V30 23545 N 2323.57 -1.5645 -0.190064 0
M  V30 23546 C 2324.51 -1.90014 -1.26372 0
M  V30 23547 C 2325.48 -0.760791 -1.43704 0
M  V30 23548 O 2326.67 -1.01229 -1.59013 0
M  V30 23549 C 2323.8 -2.13473 -2.62958 0
M  V30 23550 C 2322.84 -3.36174 -2.62468 0
M  V30 23551 S 2323.67 -4.91141 -2.13403 0
M  V30 23552 C 2324.83 -5.17673 -3.51803 0
M  V30 23553 H 2325.06 -2.80784 -0.977131 0
M  V30 23554 H 2322.6 -1.49294 -0.393788 0
M  V30 23555 H 2324.55 -2.2767 -3.41579 0
M  V30 23556 H 2323.22 -1.23444 -2.88826 0
M  V30 23557 H 2322.41 -3.4973 -3.62912 0
M  V30 23558 H 2322.01 -3.20996 -1.91932 0
M  V30 23559 H 2324.3 -5.08502 -4.47697 0
M  V30 23560 H 2325.25 -6.19405 -3.43138 0
M  V30 23561 H 2325.65 -4.45294 -3.46948 0
M  V30 23562 N 2325.05 0.45796 -1.50799 0
M  V30 23563 C 2325.98 1.56207 -1.73556 0
M  V30 23564 C 2326.96 1.59731 -0.584802 0
M  V30 23565 O 2328.15 1.75789 -0.825345 0
M  V30 23566 C 2325.28 2.94444 -1.84175 0
M  V30 23567 C 2324.23 3.05784 -2.99466 0
M  V30 23568 C 2323.56 4.45798 -2.95243 0
M  V30 23569 C 2324.86 2.81778 -4.39771 0
M  V30 23570 H 2326.55 1.37416 -2.66002 0
M  V30 23571 H 2324.1 0.659639 -1.28003 0
M  V30 23572 H 2326.05 3.71625 -1.98678 0
M  V30 23573 H 2324.77 3.1442 -0.8836 0
M  V30 23574 H 2323.43 2.31039 -2.84634 0
M  V30 23575 H 2323.08 4.62712 -1.97248 0
M  V30 23576 H 2322.78 4.54319 -3.72649 0
M  V30 23577 H 2324.31 5.24981 -3.11813 0
M  V30 23578 H 2325.72 3.48702 -4.5506 0
M  V30 23579 H 2324.12 3.01731 -5.18727 0
M  V30 23580 H 2325.19 1.77532 -4.51232 0
M  V30 23581 N 2326.53 1.40598 0.712035 0
M  V30 23582 C 2327.46 1.43902 1.83887 0
M  V30 23583 C 2328.44 0.299533 1.67442 0
M  V30 23584 O 2329.63 0.508657 1.8742 0
M  V30 23585 C 2326.76 1.30437 3.21875 0
M  V30 23586 C 2325.71 2.42026 3.52998 0
M  V30 23587 C 2325.04 2.13634 4.90168 0
M  V30 23588 C 2326.34 3.84368 3.53636 0
M  V30 23589 H 2328.03 2.38206 1.81379 0
M  V30 23590 H 2325.58 1.14655 0.871217 0
M  V30 23591 H 2327.53 1.31364 4.00402 0
M  V30 23592 H 2326.25 0.326107 3.24968 0
M  V30 23593 H 2324.91 2.40354 2.76813 0
M  V30 23594 H 2324.56 1.14191 4.89867 0
M  V30 23595 H 2324.26 2.88398 5.11957 0
M  V30 23596 H 2325.78 2.1625 5.71024 0
M  V30 23597 H 2327.2 3.87844 4.22196 0
M  V30 23598 H 2325.59 4.5868 3.86953 0
M  V30 23599 H 2326.66 4.13698 2.52947 0
M  V30 23600 N 2328.01 -0.94462 1.26153 0
M  V30 23601 C 2328.92 -2.07646 1.0918 0
M  V30 23602 C 2329.93 -1.7398 0.0262241 0
M  V30 23603 O 2331.11 -2.00091 0.229243 0
M  V30 23604 C 2328.17 -3.39078 0.722974 0
M  V30 23605 C 2327.24 -3.86549 1.86758 0
M  V30 23606 C 2326.47 -5.11708 1.51626 0
M  V30 23607 O 2326.69 -5.68878 0.416431 0
M  V30 23608 O 2325.63 -5.54135 2.34985 0
M  V30 23609 H 2329.45 -2.24872 2.04124 0
M  V30 23610 H 2327.04 -1.06098 1.05184 0
M  V30 23611 H 2328.92 -4.18056 0.529861 0
M  V30 23612 H 2327.59 -3.23099 -0.197102 0
M  V30 23613 H 2326.5 -3.08531 2.11564 0
M  V30 23614 H 2327.83 -4.07042 2.76726 0
M  V30 23615 N 2329.49 -1.07901 -1.1487 0
M  V30 23616 C 2330.4 -0.715954 -2.23408 0
M  V30 23617 C 2331.41 0.275275 -1.71809 0
M  V30 23618 O 2332.59 0.12051 -2.01039 0
M  V30 23619 C 2329.65 -0.125229 -3.46474 0
M  V30 23620 C 2328.71 -1.17041 -4.13037 0
M  V30 23621 C 2327.95 -0.607781 -5.30228 0
M  V30 23622 O 2328.17 0.574397 -5.67501 0
M  V30 23623 O 2327.1 -1.35536 -5.86441 0
M  V30 23624 H 2330.93 -1.62125 -2.56805 0
M  V30 23625 H 2328.51 -0.852344 -1.22701 0
M  V30 23626 H 2330.4 0.201655 -4.20917 0
M  V30 23627 H 2329.07 0.753309 -3.14813 0
M  V30 23628 H 2327.98 -1.54974 -3.40491 0
M  V30 23629 H 2329.31 -2.02105 -4.48792 0
M  V30 23630 N 2330.96 1.31811 -0.863929 0
M  V30 23631 C 2331.93 2.26952 -0.320252 0
M  V30 23632 C 2332.93 1.51976 0.525342 0
M  V30 23633 O 2334.12 1.70938 0.335517 0
M  V30 23634 C 2331.25 3.36501 0.54586 0
M  V30 23635 H 2332.44 2.76554 -1.16008 0
M  V30 23636 H 2329.99 1.4264 -0.63902 0
M  V30 23637 H 2330.73 2.92182 1.40713 0
M  V30 23638 H 2330.51 3.92055 -0.0595363 0
M  V30 23639 H 2332 4.07369 0.918724 0
M  V30 23640 N 2332.44 0.62277 1.44773 0
M  V30 23641 C 2333.39 -0.0871274 2.30635 0
M  V30 23642 C 2334.36 -0.845072 1.42996 0
M  V30 23643 O 2335.54 -0.827782 1.71908 0
M  V30 23644 C 2332.68 -1.06839 3.28146 0
M  V30 23645 C 2331.8 -0.309733 4.30888 0
M  V30 23646 C 2330.93 -1.28206 5.15496 0
M  V30 23647 C 2329.97 -0.51209 6.09954 0
M  V30 23648 N 2329.11 -1.43446 6.8729 0
M  V30 23649 H 2333.95 0.651025 2.90802 0
M  V30 23650 H 2331.48 0.332835 1.43285 0
M  V30 23651 H 2333.44 -1.65059 3.8316 0
M  V30 23652 H 2332.07 -1.77377 2.69699 0
M  V30 23653 H 2331.12 0.388247 3.78414 0
M  V30 23654 H 2332.44 0.290341 4.97954 0
M  V30 23655 H 2331.59 -1.93586 5.74986 0
M  V30 23656 H 2330.33 -1.91607 4.48484 0
M  V30 23657 H 2329.33 0.155248 5.49581 0
M  V30 23658 H 2330.56 0.117077 6.78999 0
M  V30 23659 H 2328.51 -2.05583 6.22954 0
M  V30 23660 H 2328.42 -0.888203 7.50764 0
M  V30 23661 H 2329.69 -2.07736 7.51309 0
M  V30 23662 N 2333.92 -1.53367 0.362817 0
M  V30 23663 C 2335.34 -1.59596 0.0116462 0
M  V30 23664 C 2335.54 -1.37806 -1.4701 0
M  V30 23665 O 2334.59 -1.18185 -2.23133 0
M  V30 23666 C 2335.9 -2.97081 0.465104 0
M  V30 23667 C 2337.45 -3.10182 0.419088 0
M  V30 23668 C 2337.93 -4.50075 0.848314 0
M  V30 23669 N 2339.42 -4.56182 0.803263 0
M  V30 23670 C 2340.15 -5.62611 1.1071 0
M  V30 23671 N 2339.65 -6.76805 1.48008 0
M  V30 23672 N 2341.44 -5.52581 1.03008 0
M  V30 23673 H 2333.59 -1.65783 1.32777 0
M  V30 23674 H 2335.86 -0.777408 0.542532 0
M  V30 23675 H 2335.56 -3.18157 1.49897 0
M  V30 23676 H 2335.44 -3.76903 -0.14972 0
M  V30 23677 H 2337.82 -2.88818 -0.605646 0
M  V30 23678 H 2337.9 -2.32375 1.06937 0
M  V30 23679 H 2337.55 -4.72176 1.87115 0
M  V30 23680 H 2337.48 -5.26308 0.175311 0
M  V30 23681 H 2339.97 -3.74187 0.528446 0
M  V30 23682 H 2340.28 -7.53954 1.69626 0
M  V30 23683 H 2338.63 -6.78204 1.51871 0
M  V30 23684 H 2341.82 -4.62247 0.737898 0
M  V30 23685 H 2341.99 -6.35429 1.27021 0
M  V30 23686 N 2335.4 -0.091913 -1.57332 0
M  V30 23687 C 2336.36 0.853653 -2.1271 0
M  V30 23688 C 2337.36 1.21298 -1.05563 0
M  V30 23689 O 2338.55 1.14294 -1.31463 0
M  V30 23690 C 2335.68 2.15056 -2.64506 0
M  V30 23691 H 2336.88 0.372848 -2.97573 0
M  V30 23692 H 2334.43 0.157045 -1.55509 0
M  V30 23693 H 2335.16 2.67629 -1.83154 0
M  V30 23694 H 2334.95 1.90266 -3.42843 0
M  V30 23695 H 2336.44 2.82705 -3.07356 0
M  V30 23696 N 2336.88 1.56548 0.181765 0
M  V30 23697 C 2338.1 1.85879 0.919987 0
M  V30 23698 C 2338.53 0.677052 1.75493 0
M  V30 23699 O 2337.88 -0.374025 1.774 0
M  V30 23700 C 2337.93 3.13545 1.78107 0
M  V30 23701 O 2337.04 2.95034 2.88147 0
M  V30 23702 H 2336.38 0.61169 0.258323 0
M  V30 23703 H 2338.91 2.03779 0.183056 0
M  V30 23704 H 2338.92 3.44682 2.18308 0
M  V30 23705 H 2337.59 3.99171 1.1677 0
M  V30 23706 H 2336.17 2.75226 2.51604 0
M  V30 23707 N 2338.35 -0.449957 1.5104 0
M  V30 23708 C 2339.3 -1.5452 1.71441 0
M  V30 23709 C 2340.27 -1.56521 0.555899 0
M  V30 23710 O 2341.46 -1.73727 0.788902 0
M  V30 23711 C 2338.6 -2.9234 1.83389 0
M  V30 23712 C 2337.71 -2.99965 3.10878 0
M  V30 23713 C 2336.84 -4.28829 3.13495 0
M  V30 23714 C 2335.88 -4.30274 4.35351 0
M  V30 23715 N 2335.02 -5.50643 4.35588 0
M  V30 23716 H 2339.86 -1.36428 2.64936 0
M  V30 23717 H 2337.4 -0.662959 1.31314 0
M  V30 23718 H 2339.36 -3.7229 1.88298 0
M  V30 23719 H 2337.99 -3.09018 0.93314 0
M  V30 23720 H 2337.04 -2.12755 3.1534 0
M  V30 23721 H 2338.35 -2.96893 4.00819 0
M  V30 23722 H 2337.5 -5.17143 3.1725 0
M  V30 23723 H 2336.24 -4.34539 2.21421 0
M  V30 23724 H 2335.25 -3.40354 4.31786 0
M  V30 23725 H 2336.47 -4.26239 5.28675 0
M  V30 23726 H 2334.42 -5.57098 3.46378 0
M  V30 23727 H 2334.34 -5.494 5.19323 0
M  V30 23728 H 2335.6 -6.41024 4.43518 0
M  V30 23729 N 2339.83 -1.40974 -0.704569 0
M  V30 23730 C 2341.06 -1.4338 -1.49856 0
M  V30 23731 C 2341.48 -0.0382171 -1.88061 0
M  V30 23732 O 2340.84 0.956398 -1.54022 0
M  V30 23733 C 2340.89 -2.34043 -2.74329 0
M  V30 23734 O 2339.99 -1.79127 -3.71466 0
M  V30 23735 H 2339.33 -0.486982 -0.451381 0
M  V30 23736 H 2341.86 -1.85331 -0.8668 0
M  V30 23737 H 2341.87 -2.49609 -3.22737 0
M  V30 23738 H 2340.55 -3.35451 -2.45857 0
M  V30 23739 H 2339.13 -1.72964 -3.3036 0
M  V30 23740 N 2341.31 0.937917 -1.26653 0
M  V30 23741 C 2342.27 2.01865 -1.08549 0
M  V30 23742 C 2343.27 1.60767 -0.032761 0
M  V30 23743 O 2344.46 1.71992 -0.276458 0
M  V30 23744 C 2341.6 3.34611 -0.651769 0
M  V30 23745 H 2342.79 2.19357 -2.04506 0
M  V30 23746 H 2340.34 1.11732 -1.09296 0
M  V30 23747 H 2341.08 3.22818 0.309639 0
M  V30 23748 H 2340.86 3.65795 -1.41195 0
M  V30 23749 H 2342.35 4.14001 -0.547046 0
M  V30 23750 N 2342.79 1.08509 1.14296 0
M  V30 23751 C 2344.02 0.836909 1.89218 0
M  V30 23752 C 2344.43 -0.611022 1.78639 0
M  V30 23753 O 2343.79 -1.41996 1.14645 0
M  V30 23754 C 2343.84 1.25122 3.39156 0
M  V30 23755 O 2343.56 2.64235 3.49444 0
M  V30 23756 C 2345.06 1.03405 4.31071 0
M  V30 23757 H 2342.28 0.30175 0.599323 0
M  V30 23758 H 2344.83 1.44463 1.44743 0
M  V30 23759 H 2342.98 0.687581 3.81249 0
M  V30 23760 H 2343.39 2.81459 4.42584 0
M  V30 23761 H 2344.87 1.37332 5.34644 0
M  V30 23762 H 2345.35 -0.0288487 4.39191 0
M  V30 23763 H 2345.95 1.58318 3.94735 0
M  V30 23764 N 2344.27 -1.31351 0.870907 0
M  V30 23765 C 2345.54 -1.91405 0.40294 0
M  V30 23766 C 2345.92 -1.79246 -1.11509 0
M  V30 23767 O 2345.27 -1.20073 -1.94409 0
M  V30 23768 C 2345.48 -3.37583 0.88536 0
M  V30 23769 C 2346.83 -4.14689 0.912044 0
M  V30 23770 O 2347.85 -3.46369 0.831076 0
M  V30 23771 O 2346.71 -5.36718 1.02936 0
M  V30 23772 H 2343.81 -0.818143 0.120713 0
M  V30 23773 H 2346.35 -1.40013 0.958881 0
M  V30 23774 H 2345.12 -3.40451 1.92895 0
M  V30 23775 H 2344.75 -3.96407 0.307783 0
M  V30 23776 N 2345.74 -0.630439 -1.44441 0
M  V30 23777 C 2346.99 -0.134852 -2.02351 0
M  V30 23778 C 2347.32 1.23983 -1.49472 0
M  V30 23779 O 2346.6 1.82281 -0.678507 0
M  V30 23780 C 2346.88 -0.12077 -3.59897 0
M  V30 23781 C 2346.73 -1.52774 -4.2306 0
M  V30 23782 C 2348.05 0.55505 -4.36586 0
M  V30 23783 H 2345.17 -0.0504775 -0.735269 0
M  V30 23784 H 2347.81 -0.806781 -1.7202 0
M  V30 23785 H 2345.96 0.451409 -3.85869 0
M  V30 23786 H 2347.64 -2.14876 -4.08199 0
M  V30 23787 H 2345.88 -2.08182 -3.80582 0
M  V30 23788 H 2346.55 -1.46993 -5.32069 0
M  V30 23789 H 2349.03 0.0684697 -4.16044 0
M  V30 23790 H 2347.9 0.534089 -5.46295 0
M  V30 23791 H 2348.16 1.62528 -4.11141 0
M  V30 23792 N 2347.22 1.53172 -0.370945 0
M  V30 23793 C 2348.17 2.25901 0.472995 0
M  V30 23794 C 2349.14 1.26783 1.07309 0
M  V30 23795 O 2350.32 1.55576 1.10457 0
M  V30 23796 C 2347.46 3.05558 1.604 0
M  V30 23797 C 2346.58 4.19577 1.02855 0
M  V30 23798 C 2345.71 4.86665 2.1291 0
M  V30 23799 C 2344.75 5.92706 1.52859 0
M  V30 23800 N 2343.89 6.53464 2.56768 0
M  V30 23801 H 2348.73 2.97603 -0.153701 0
M  V30 23802 H 2346.27 1.46839 -0.0876204 0
M  V30 23803 H 2348.22 3.5002 2.27028 0
M  V30 23804 H 2346.85 2.36101 2.20127 0
M  V30 23805 H 2345.91 3.79562 0.252398 0
M  V30 23806 H 2347.22 4.95763 0.549555 0
M  V30 23807 H 2346.37 5.34338 2.87347 0
M  V30 23808 H 2345.11 4.09962 2.64163 0
M  V30 23809 H 2344.12 5.4439 0.769383 0
M  V30 23810 H 2345.34 6.71332 1.02423 0
M  V30 23811 H 2343.29 5.79611 3.07224 0
M  V30 23812 H 2343.2 7.25206 2.1357 0
M  V30 23813 H 2344.47 7.05784 3.30891 0
M  V30 23814 N 2348.7 0.100255 1.57281 0
M  V30 23815 C 2349.95 -0.563067 1.94827 0
M  V30 23816 C 2350.28 -1.67513 0.982505 0
M  V30 23817 O 2349.55 -1.94493 0.0164411 0
M  V30 23818 C 2349.84 -1.1134 3.42455 0
M  V30 23819 C 2349.69 -0.00604174 4.498 0
M  V30 23820 C 2351.01 -2.01018 3.9151 0
M  V30 23821 H 2348.13 -0.203209 0.708431 0
M  V30 23822 H 2350.77 0.172012 1.8922 0
M  V30 23823 H 2348.92 -1.73984 3.47364 0
M  V30 23824 H 2350.59 0.628437 4.56999 0
M  V30 23825 H 2348.84 0.659656 4.28755 0
M  V30 23826 H 2349.51 -0.432012 5.50307 0
M  V30 23827 H 2351.98 -1.48271 3.88786 0
M  V30 23828 H 2350.86 -2.36448 4.95362 0
M  V30 23829 H 2351.12 -2.92955 3.31104 0
M  V30 23830 N 2350.18 -1.56643 -0.17346 0
M  V30 23831 C 2351.41 -1.86006 -0.906062 0
M  V30 23832 C 2351.82 -0.685386 -1.7592 0
M  V30 23833 O 2351.18 0.345547 -1.79199 0
M  V30 23834 C 2351.23 -3.14381 -1.78456 0
M  V30 23835 O 2350.95 -4.27321 -0.965839 0
M  V30 23836 C 2352.45 -3.57076 -2.62701 0
M  V30 23837 H 2349.67 -0.61717 -0.26333 0
M  V30 23838 H 2352.22 -2.03757 -0.1742 0
M  V30 23839 H 2350.37 -2.98463 -2.46979 0
M  V30 23840 H 2350.79 -5.00562 -1.56646 0
M  V30 23841 H 2352.26 -4.4981 -3.19961 0
M  V30 23842 H 2352.74 -2.81092 -3.37467 0
M  V30 23843 H 2353.34 -3.75599 -1.99514 0
M  V30 23844 N 2351.66 0.44194 -1.51277 0
M  V30 23845 C 2352.62 1.51859 -1.71673 0
M  V30 23846 C 2353.62 1.4971 -0.58682 0
M  V30 23847 O 2354.81 1.51813 -0.854303 0
M  V30 23848 C 2351.94 2.91413 -1.76894 0
M  V30 23849 H 2353.14 1.3508 -2.67756 0
M  V30 23850 H 2350.69 0.670308 -1.41197 0
M  V30 23851 H 2351.42 3.13602 -0.826081 0
M  V30 23852 H 2351.21 2.94378 -2.59006 0
M  V30 23853 H 2352.7 3.69525 -1.94528 0
M  V30 23854 N 2353.14 1.41345 0.697083 0
M  V30 23855 C 2354.41 1.31112 1.45152 0
M  V30 23856 C 2354.79 -0.0620078 2.11009 0
M  V30 23857 O 2354.14 -1.07614 2.01572 0
M  V30 23858 C 2354.35 2.46342 2.47218 0
M  V30 23859 C 2355.7 2.87436 3.12515 0
M  V30 23860 O 2356.72 2.4607 2.57542 0
M  V30 23861 O 2355.58 3.58964 4.12077 0
M  V30 23862 H 2352.68 0.5159 0.646356 0
M  V30 23863 H 2355.22 1.53306 0.727689 0
M  V30 23864 H 2353.99 3.37977 1.97198 0
M  V30 23865 H 2353.62 2.26016 3.27112 0
M  V30 23866 N 2354.61 -0.931187 1.27148 0
M  V30 23867 C 2355.55 -2.03178 1.03893 0
M  V30 23868 C 2356.52 -1.62552 -0.039543 0
M  V30 23869 O 2357.71 -1.88208 0.1049 0
M  V30 23870 C 2354.84 -3.33779 0.575285 0
M  V30 23871 C 2353.88 -3.93382 1.64781 0
M  V30 23872 S 2354.71 -4.26407 3.2394 0
M  V30 23873 C 2355.87 -5.60093 2.79368 0
M  V30 23874 H 2356.1 -2.22592 1.97079 0
M  V30 23875 H 2353.64 -1.07385 1.1094 0
M  V30 23876 H 2355.59 -4.09294 0.314457 0
M  V30 23877 H 2354.26 -3.12293 -0.33645 0
M  V30 23878 H 2353.45 -4.87616 1.27463 0
M  V30 23879 H 2353.05 -3.24438 1.86053 0
M  V30 23880 H 2355.34 -6.39239 2.24454 0
M  V30 23881 H 2356.29 -6.02307 3.72333 0
M  V30 23882 H 2356.69 -5.20448 2.18619 0
M  V30 23883 N 2356.09 -1.09114 -1.13719 0
M  V30 23884 C 2357.34 -0.826447 -1.85196 0
M  V30 23885 C 2357.67 0.646287 -1.8313 0
M  V30 23886 O 2356.95 1.47561 -1.26712 0
M  V30 23887 C 2357.23 -1.35818 -3.33505 0
M  V30 23888 C 2357.08 -2.89678 -3.44103 0
M  V30 23889 C 2358.4 -0.989332 -4.28836 0
M  V30 23890 H 2355.52 -0.301686 -0.672424 0
M  V30 23891 H 2358.16 -1.35199 -1.33496 0
M  V30 23892 H 2356.31 -0.911148 -3.77664 0
M  V30 23893 H 2357.98 -3.42806 -3.08678 0
M  V30 23894 H 2356.23 -3.26972 -2.85082 0
M  V30 23895 H 2356.9 -3.21959 -4.48382 0
M  V30 23896 H 2359.37 -1.37482 -3.92731 0
M  V30 23897 H 2358.25 -1.38848 -5.31049 0
M  V30 23898 H 2358.51 0.102846 -4.4198 0
M  V30 23899 N 2357.57 1.30887 -0.877861 0
M  V30 23900 C 2358.52 2.28318 -0.337578 0
M  V30 23901 C 2359.49 1.56075 0.568319 0
M  V30 23902 O 2360.67 1.84179 0.498266 0
M  V30 23903 C 2357.81 3.42179 0.448082 0
M  V30 23904 C 2356.92 4.29255 -0.486225 0
M  V30 23905 C 2356.06 5.30269 0.314334 0
M  V30 23906 C 2355.1 6.08994 -0.615898 0
M  V30 23907 N 2354.24 7.01942 0.148897 0
M  V30 23908 H 2359.08 2.73917 -1.1736 0
M  V30 23909 H 2356.61 1.34744 -0.590117 0
M  V30 23910 H 2358.57 4.06942 0.919445 0
M  V30 23911 H 2357.2 2.97668 1.24874 0
M  V30 23912 H 2356.25 3.64863 -1.07606 0
M  V30 23913 H 2357.56 4.84171 -1.19918 0
M  V30 23914 H 2356.72 6.00746 0.847863 0
M  V30 23915 H 2355.46 4.76029 1.06054 0
M  V30 23916 H 2354.46 5.37399 -1.16112 0
M  V30 23917 H 2355.69 6.6532 -1.36108 0
M  V30 23918 H 2353.63 6.50101 0.87777 0
M  V30 23919 H 2353.55 7.54314 -0.504565 0
M  V30 23920 H 2354.82 7.76672 0.6634 0
M  V30 23921 N 2359.05 0.638091 1.44105 0
M  V30 23922 C 2359.96 -0.0636922 2.34514 0
M  V30 23923 C 2360.97 -0.828319 1.53019 0
M  V30 23924 O 2362.15 -0.779003 1.85724 0
M  V30 23925 C 2359.21 -1.02839 3.31097 0
M  V30 23926 C 2358.28 -0.262364 4.28498 0
M  V30 23927 C 2357.51 -1.18111 5.20467 0
M  V30 23928 O 2357.73 -2.42002 5.16518 0
M  V30 23929 O 2356.67 -0.661668 5.98252 0
M  V30 23930 H 2360.49 0.680082 2.95987 0
M  V30 23931 H 2358.08 0.398277 1.43993 0
M  V30 23932 H 2359.96 -1.5832 3.90529 0
M  V30 23933 H 2358.63 -1.75265 2.72147 0
M  V30 23934 H 2357.54 0.335667 3.72591 0
M  V30 23935 H 2358.87 0.422022 4.90387 0
M  V30 23936 N 2360.53 -1.52973 0.379063 0
M  V30 23937 C 2361.49 -2.24763 -0.448826 0
M  V30 23938 C 2362.49 -1.26029 -0.998667 0
M  V30 23939 O 2363.68 -1.50204 -0.882286 0
M  V30 23940 C 2360.81 -2.99478 -1.62866 0
M  V30 23941 H 2362 -2.99362 0.179544 0
M  V30 23942 H 2359.56 -1.5575 0.130988 0
M  V30 23943 H 2360.29 -2.29155 -2.29475 0
M  V30 23944 H 2360.08 -3.71936 -1.24121 0
M  V30 23945 H 2361.57 -3.54014 -2.21504 0
M  V30 23946 N 2362 -0.108595 -1.57225 0
M  V30 23947 C 2362.93 0.842282 -2.17779 0
M  V30 23948 C 2363.91 1.28469 -1.11489 0
M  V30 23949 O 2365.1 1.34916 -1.39683 0
M  V30 23950 C 2362.23 2.09639 -2.76891 0
M  V30 23951 C 2361.18 1.79214 -3.88673 0
M  V30 23952 C 2360.51 3.11567 -4.34546 0
M  V30 23953 C 2361.81 1.06855 -5.11253 0
M  V30 23954 H 2363.5 0.337721 -2.97489 0
M  V30 23955 H 2361.05 0.161 -1.43097 0
M  V30 23956 H 2363 2.76608 -3.17909 0
M  V30 23957 H 2361.73 2.62401 -1.94456 0
M  V30 23958 H 2360.39 1.14638 -3.48215 0
M  V30 23959 H 2360.03 3.62243 -3.48983 0
M  V30 23960 H 2359.73 2.91987 -5.09919 0
M  V30 23961 H 2361.26 3.79672 -4.78207 0
M  V30 23962 H 2362.67 1.63958 -5.49355 0
M  V30 23963 H 2361.07 0.974074 -5.92142 0
M  V30 23964 H 2362.14 0.0535316 -4.8487 0
M  V30 23965 N 2363.48 1.56732 0.16515 0
M  V30 23966 C 2364.39 2.00127 1.22419 0
M  V30 23967 C 2365.41 0.913645 1.48083 0
M  V30 23968 O 2366.58 1.22175 1.6011 0
M  V30 23969 C 2363.65 2.35769 2.54193 0
M  V30 23970 C 2362.71 3.5839 2.36337 0
M  V30 23971 C 2361.94 3.92322 3.61827 0
M  V30 23972 O 2362.17 3.27143 4.67262 0
M  V30 23973 O 2361.1 4.85647 3.5557 0
M  V30 23974 H 2364.93 2.90494 0.885835 0
M  V30 23975 H 2362.51 1.44682 0.372492 0
M  V30 23976 H 2364.39 2.59635 3.31915 0
M  V30 23977 H 2363.07 1.48562 2.87595 0
M  V30 23978 H 2361.97 3.39734 1.56626 0
M  V30 23979 H 2363.31 4.46157 2.07857 0
M  V30 23980 N 2364.96 -0.433911 1.51509 0
M  V30 23981 C 2365.87 -1.55207 1.7592 0
M  V30 23982 C 2366.89 -1.61661 0.643574 0
M  V30 23983 O 2368.06 -1.78839 0.926214 0
M  V30 23984 C 2365.13 -2.91161 1.88218 0
M  V30 23985 C 2364.19 -2.94796 3.12079 0
M  V30 23986 C 2363.42 -4.24266 3.23782 0
M  V30 23987 O 2363.64 -5.16829 2.41339 0
M  V30 23988 O 2362.58 -4.34255 4.16781 0
M  V30 23989 H 2366.4 -1.37522 2.70779 0
M  V30 23990 H 2363.99 -0.617269 1.36052 0
M  V30 23991 H 2365.87 -3.71841 1.98273 0
M  V30 23992 H 2364.55 -3.08967 0.965467 0
M  V30 23993 H 2363.45 -2.13059 3.07501 0
M  V30 23994 H 2364.79 -2.81936 4.03451 0
M  V30 23995 N 2366.44 -1.41713 -0.689577 0
M  V30 23996 C 2367.4 -1.43749 -1.78518 0
M  V30 23997 C 2368.4 -0.327218 -1.57435 0
M  V30 23998 O 2369.59 -0.587377 -1.63999 0
M  V30 23999 C 2366.72 -1.25473 -3.16969 0
M  V30 24000 H 2367.92 -2.41286 -1.78104 0
M  V30 24001 H 2365.47 -1.27943 -0.897787 0
M  V30 24002 H 2366.2 -0.288005 -3.23019 0
M  V30 24003 H 2365.99 -2.05923 -3.33674 0
M  V30 24004 H 2367.48 -1.29747 -3.96933 0
M  V30 24005 N 2367.92 0.924431 -1.2764 0
M  V30 24006 C 2368.83 2.05883 -1.12469 0
M  V30 24007 C 2369.84 1.73916 -0.0538995 0
M  V30 24008 O 2371.02 1.99701 -0.261047 0
M  V30 24009 C 2368.08 3.37885 -0.776827 0
M  V30 24010 C 2367.14 3.83528 -1.92885 0
M  V30 24011 C 2366.38 5.09231 -1.59748 0
M  V30 24012 O 2366.6 5.68143 -0.506882 0
M  V30 24013 O 2365.53 5.50327 -2.43771 0
M  V30 24014 H 2369.36 2.21596 -2.07675 0
M  V30 24015 H 2366.95 1.04411 -1.06858 0
M  V30 24016 H 2368.83 4.1716 -0.596303 0
M  V30 24017 H 2367.5 3.23372 0.145675 0
M  V30 24018 H 2366.41 3.05127 -2.16445 0
M  V30 24019 H 2367.74 4.02588 -2.83167 0
M  V30 24020 N 2369.39 1.09715 1.13139 0
M  V30 24021 C 2370.34 0.739235 2.18641 0
M  V30 24022 C 2371.31 -0.28095 1.63707 0
M  V30 24023 O 2372.5 -0.161912 1.90112 0
M  V30 24024 C 2369.64 0.169162 3.44685 0
M  V30 24025 C 2368.75 1.24375 4.13709 0
M  V30 24026 C 2367.88 0.636112 5.27378 0
M  V30 24027 C 2366.92 1.6918 5.88256 0
M  V30 24028 N 2366.06 1.10497 6.9335 0
M  V30 24029 H 2370.9 1.64316 2.48604 0
M  V30 24030 H 2368.44 0.820896 1.22064 0
M  V30 24031 H 2370.4 -0.179182 4.16815 0
M  V30 24032 H 2369.03 -0.698024 3.15163 0
M  V30 24033 H 2368.08 1.70933 3.39832 0
M  V30 24034 H 2369.39 2.04319 4.55033 0
M  V30 24035 H 2368.54 0.236784 6.06238 0
M  V30 24036 H 2367.28 -0.194843 4.87311 0
M  V30 24037 H 2366.29 2.10064 5.08088 0
M  V30 24038 H 2367.51 2.52547 6.30394 0
M  V30 24039 H 2365.46 0.29535 6.55335 0
M  V30 24040 H 2365.38 1.84134 7.33233 0
M  V30 24041 H 2366.64 0.731946 7.76056 0
M  V30 24042 N 2370.87 -1.30419 0.88479 0
M  V30 24043 C 2371.84 -2.26413 0.356317 0
M  V30 24044 C 2372.84 -1.52793 -0.501097 0
M  V30 24045 O 2374.03 -1.71451 -0.308279 0
M  V30 24046 C 2371.16 -3.37327 -0.492256 0
M  V30 24047 H 2372.35 -2.74673 1.20393 0
M  V30 24048 H 2369.9 -1.41606 0.661632 0
M  V30 24049 H 2370.64 -2.94384 -1.36047 0
M  V30 24050 H 2370.42 -3.9191 0.121901 0
M  V30 24051 H 2371.91 -4.08779 -0.853799 0
M  V30 24052 N 2372.35 -0.645724 -1.43764 0
M  V30 24053 C 2373.28 0.0890203 -2.29027 0
M  V30 24054 C 2374.3 0.794538 -1.42095 0
M  V30 24055 O 2375.48 0.653546 -1.66105 0
M  V30 24056 C 2372.58 1.14886 -3.18833 0
M  V30 24057 C 2371.76 0.522967 -4.34262 0
M  V30 24058 C 2370.82 1.47869 -5.04996 0
M  V30 24059 O 2369.84 0.990179 -5.60521 0
M  V30 24060 N 2371.04 2.81282 -5.078 0
M  V30 24061 H 2373.81 -0.642771 -2.92726 0
M  V30 24062 H 2371.37 -0.487951 -1.54372 0
M  V30 24063 H 2373.36 1.78885 -3.63018 0
M  V30 24064 H 2371.93 1.7827 -2.56785 0
M  V30 24065 H 2371.15 -0.295965 -3.93087 0
M  V30 24066 H 2372.44 0.0857253 -5.08728 0
M  V30 24067 H 2371.84 3.23537 -4.64047 0
M  V30 24068 H 2370.4 3.40604 -5.55727 0
M  V30 24069 N 2373.83 1.5277 -0.38717 0
M  V30 24070 C 2375.07 2.01851 0.19599 0
M  V30 24071 C 2375.41 1.27321 1.46639 0
M  V30 24072 O 2374.68 0.373065 1.90889 0
M  V30 24073 C 2374.97 3.57071 0.466073 0
M  V30 24074 C 2374.82 4.42272 -0.819463 0
M  V30 24075 C 2376.14 4.21749 1.2576 0
M  V30 24076 H 2373.26 0.733691 0.0697579 0
M  V30 24077 H 2375.9 1.8285 -0.516318 0
M  V30 24078 H 2374.05 3.73392 1.07287 0
M  V30 24079 H 2375.72 4.37707 -1.45638 0
M  V30 24080 H 2373.96 4.09369 -1.43524 0
M  V30 24081 H 2374.63 5.4889 -0.585161 0
M  V30 24082 H 2377.11 4.09393 0.744095 0
M  V30 24083 H 2375.99 5.30339 1.41532 0
M  V30 24084 H 2376.25 3.7924 2.27221 0
M  V30 24085 N 2375.31 0.116931 1.57166 0
M  V30 24086 C 2376.27 -0.819705 2.14041 0
M  V30 24087 C 2377.27 -1.19603 1.07479 0
M  V30 24088 O 2378.46 -1.12188 1.33265 0
M  V30 24089 C 2375.59 -2.10821 2.67894 0
M  V30 24090 H 2376.78 -0.325459 2.98129 0
M  V30 24091 H 2374.34 -0.132285 1.55739 0
M  V30 24092 H 2375.07 -2.64681 1.87388 0
M  V30 24093 H 2374.86 -1.84787 3.45827 0
M  V30 24094 H 2376.35 -2.7778 3.11814 0
M  V30 24095 N 2376.78 -1.56818 -0.156836 0
M  V30 24096 C 2377.75 -1.96624 -1.17777 0
M  V30 24097 C 2378.75 -0.851579 -1.36399 0
M  V30 24098 O 2379.94 -1.11838 -1.33559 0
M  V30 24099 C 2377.07 -2.27365 -2.54004 0
M  V30 24100 H 2378.26 -2.87997 -0.836513 0
M  V30 24101 H 2375.82 -1.511 -0.399823 0
M  V30 24102 H 2376.55 -1.38753 -2.93118 0
M  V30 24103 H 2376.34 -3.08627 -2.4185 0
M  V30 24104 H 2377.83 -2.59034 -3.27553 0
M  V30 24105 N 2378.26 0.425871 -1.51737 0
M  V30 24106 C 2379.17 1.54272 -1.76741 0
M  V30 24107 C 2380.19 1.61317 -0.652138 0
M  V30 24108 O 2381.36 1.78345 -0.935686 0
M  V30 24109 C 2378.43 2.90159 -1.8976 0
M  V30 24110 C 2377.49 2.93137 -3.13638 0
M  V30 24111 C 2376.72 4.22542 -3.26027 0
M  V30 24112 O 2376.95 5.15541 -2.44076 0
M  V30 24113 O 2375.88 4.32038 -4.19078 0
M  V30 24114 H 2379.71 1.36084 -2.71505 0
M  V30 24115 H 2377.29 0.610045 -1.36377 0
M  V30 24116 H 2379.17 3.70784 -2.00242 0
M  V30 24117 H 2377.85 3.0845 -0.981839 0
M  V30 24118 H 2376.76 2.11425 -3.08626 0
M  V30 24119 H 2378.09 2.79792 -4.04941 0
M  V30 24120 N 2379.74 1.42077 0.682052 0
M  V30 24121 C 2380.69 1.44987 1.79576 0
M  V30 24122 C 2381.66 0.302643 1.6332 0
M  V30 24123 O 2382.84 0.505665 1.83977 0
M  V30 24124 C 2379.98 1.35096 3.17558 0
M  V30 24125 C 2379.1 2.59797 3.45152 0
M  V30 24126 C 2378.23 2.42101 4.72822 0
M  V30 24127 C 2377.27 3.6221 4.93427 0
M  V30 24128 N 2376.41 3.43502 6.12332 0
M  V30 24129 H 2381.25 2.40164 1.76423 0
M  V30 24130 H 2378.78 1.19244 0.861355 0
M  V30 24131 H 2380.74 1.27361 3.97284 0
M  V30 24132 H 2379.37 0.435189 3.19853 0
M  V30 24133 H 2378.42 2.77928 2.59731 0
M  V30 24134 H 2379.74 3.491 3.56273 0
M  V30 24135 H 2378.89 2.3191 5.60627 0
M  V30 24136 H 2377.63 1.50276 4.6397 0
M  V30 24137 H 2376.63 3.72841 4.04066 0
M  V30 24138 H 2377.86 4.55007 5.04128 0
M  V30 24139 H 2375.8 2.54388 6.04668 0
M  V30 24140 H 2375.72 4.26388 6.24283 0
M  V30 24141 H 2376.99 3.37109 7.02835 0
M  V30 24142 N 2381.22 -0.917649 1.28129 0
M  V30 24143 C 2382.18 -2.00113 1.11747 0
M  V30 24144 C 2383.18 -1.60694 0.0583334 0
M  V30 24145 O 2384.37 -1.71531 0.303785 0
M  V30 24146 C 2381.5 -3.33532 0.704921 0
M  V30 24147 H 2382.7 -2.16076 2.0797 0
M  V30 24148 H 2380.25 -1.09979 1.1106 0
M  V30 24149 H 2380.99 -3.2327 -0.258242 0
M  V30 24150 H 2380.77 -3.63503 1.46997 0
M  V30 24151 H 2382.26 -4.13079 0.612841 0
M  V30 24152 N 2382.7 -1.10314 -1.12555 0
M  V30 24153 C 2383.95 -0.839621 -1.83394 0
M  V30 24154 C 2384.26 0.636897 -1.8494 0
M  V30 24155 O 2385.47 1.01627 -2.51762 0
M  V30 24156 C 2383.92 -1.4522 -3.29301 0
M  V30 24157 C 2383.53 -2.96192 -3.36116 0
M  V30 24158 C 2385.27 -1.26803 -4.05119 0
M  V30 24159 C 2383.18 -3.50491 -4.7635 0
M  V30 24160 H 2382.11 -0.310437 -0.687128 0
M  V30 24161 H 2384.76 -1.32697 -1.26743 0
M  V30 24162 H 2383.14 -0.892537 -3.85811 0
M  V30 24163 H 2384.32 -3.58463 -2.89553 0
M  V30 24164 H 2382.63 -3.1375 -2.7377 0
M  V30 24165 H 2385.23 -1.64815 -5.08665 0
M  V30 24166 H 2385.57 -0.209482 -4.15773 0
M  V30 24167 H 2386.11 -1.7957 -3.54964 0
M  V30 24168 H 2382.84 -4.56007 -4.70891 0
M  V30 24169 H 2382.36 -2.92987 -5.23372 0
M  V30 24170 H 2384.04 -3.48238 -5.45288 0
M  V30 24171 N 2384.18 1.29948 -0.891694 0
M  V30 24172 C 2385.12 2.27947 -0.361776 0
M  V30 24173 C 2386.09 1.56669 0.551733 0
M  V30 24174 O 2387.28 1.84697 0.478703 0
M  V30 24175 C 2384.42 3.42635 0.411764 0
M  V30 24176 C 2383.53 4.28715 -0.531726 0
M  V30 24177 C 2382.67 5.30573 0.258074 0
M  V30 24178 C 2381.7 6.08306 -0.680455 0
M  V30 24179 N 2380.84 7.02061 0.0744379 0
M  V30 24180 H 2385.68 2.72657 -1.20259 0
M  V30 24181 H 2383.22 1.34111 -0.604376 0
M  V30 24182 H 2385.18 4.07895 0.876232 0
M  V30 24183 H 2383.81 2.98976 1.2171 0
M  V30 24184 H 2382.86 3.63701 -1.1147 0
M  V30 24185 H 2384.17 4.82871 -1.25046 0
M  V30 24186 H 2383.32 6.01612 0.784098 0
M  V30 24187 H 2382.06 4.77127 1.00999 0
M  V30 24188 H 2381.07 5.36138 -1.21805 0
M  V30 24189 H 2382.29 6.63839 -1.43157 0
M  V30 24190 H 2380.24 6.50995 0.808769 0
M  V30 24191 H 2380.16 7.53737 -0.584542 0
M  V30 24192 H 2381.42 7.77332 0.580986 0
M  V30 24193 N 2385.65 0.653339 1.4342 0
M  V30 24194 C 2386.59 -0.0768731 2.29071 0
M  V30 24195 C 2387.6 -0.786992 1.42514 0
M  V30 24196 O 2388.79 -0.644728 1.6645 0
M  V30 24197 C 2385.89 -1.13193 3.19438 0
M  V30 24198 C 2385.06 -0.49993 4.34534 0
M  V30 24199 C 2384.12 -1.45189 5.05773 0
M  V30 24200 O 2383.15 -0.960439 5.61039 0
M  V30 24201 N 2384.35 -2.78585 5.09285 0
M  V30 24202 H 2387.11 0.658286 2.92381 0
M  V30 24203 H 2384.67 0.496131 1.54111 0
M  V30 24204 H 2386.67 -1.76958 3.63962 0
M  V30 24205 H 2385.24 -1.76906 2.57727 0
M  V30 24206 H 2384.46 0.316807 3.92925 0
M  V30 24207 H 2385.74 -0.058745 5.08766 0
M  V30 24208 H 2385.14 -3.21072 4.65757 0
M  V30 24209 H 2383.7 -3.37652 5.57525 0
M  V30 24210 N 2387.13 -1.52563 0.395266 0
M  V30 24211 C 2388.09 -2.25226 -0.424961 0
M  V30 24212 C 2389.09 -1.27081 -0.985244 0
M  V30 24213 O 2390.28 -1.51132 -0.866305 0
M  V30 24214 C 2387.42 -3.01189 -1.59681 0
M  V30 24215 H 2388.61 -2.99155 0.211285 0
M  V30 24216 H 2386.16 -1.55602 0.1475 0
M  V30 24217 H 2386.9 -2.31576 -2.27031 0
M  V30 24218 H 2386.68 -3.73231 -1.2017 0
M  V30 24219 H 2388.17 -3.56343 -2.17736 0
M  V30 24220 N 2388.61 -0.125265 -1.57101 0
M  V30 24221 C 2389.89 0.575109 -1.86954 0
M  V30 24222 C 2390.27 1.84405 -1.02752 0
M  V30 24223 O 2389.61 2.28244 -0.108184 0
M  V30 24224 C 2389.82 0.861524 -3.38199 0
M  V30 24225 C 2391.17 1.21185 -4.06939 0
M  V30 24226 O 2392.2 0.951585 -3.43254 0
M  V30 24227 O 2391.06 1.70059 -5.19367 0
M  V30 24228 H 2388.15 0.290892 -0.774152 0
M  V30 24229 H 2390.7 -0.16024 -1.68942 0
M  V30 24230 H 2389.47 -0.0374335 -3.91282 0
M  V30 24231 H 2389.09 1.65181 -3.61664 0
M  V30 24232 N 2390.09 1.56899 0.148518 0
M  V30 24233 C 2391 2.01414 1.2029 0
M  V30 24234 C 2392.01 0.929299 1.47105 0
M  V30 24235 O 2393.19 1.23866 1.58805 0
M  V30 24236 C 2390.25 2.38452 2.51678 0
M  V30 24237 C 2389.32 3.60876 2.32523 0
M  V30 24238 C 2388.55 3.96138 3.57646 0
M  V30 24239 O 2388.77 3.32081 4.63765 0
M  V30 24240 O 2387.71 4.89391 3.50399 0
M  V30 24241 H 2391.53 2.91417 0.854974 0
M  V30 24242 H 2389.12 1.45069 0.357126 0
M  V30 24243 H 2391 2.63141 3.29143 0
M  V30 24244 H 2389.67 1.51604 2.86003 0
M  V30 24245 H 2388.58 3.41376 1.53013 0
M  V30 24246 H 2389.91 4.48337 2.03113 0
M  V30 24247 N 2391.57 -0.417818 1.51961 0
M  V30 24248 C 2392.84 -1.17801 1.56148 0
M  V30 24249 C 2393.22 -2.08388 0.337312 0
M  V30 24250 O 2392.57 -2.18259 -0.676408 0
M  V30 24251 C 2392.78 -1.96288 2.88569 0
M  V30 24252 C 2394.13 -2.52656 3.41248 0
M  V30 24253 O 2395.15 -2.06478 2.90251 0
M  V30 24254 O 2394.01 -3.36931 4.30279 0
M  V30 24255 H 2391.11 -0.537384 0.628607 0
M  V30 24256 H 2393.65 -0.425302 1.64284 0
M  V30 24257 H 2392.42 -1.29874 3.69119 0
M  V30 24258 H 2392.05 -2.78582 2.83686 0
M  V30 24259 N 2393.04 -1.42436 -0.674508 0
M  V30 24260 C 2394.29 -1.42214 -1.43032 0
M  V30 24261 C 2394.61 -0.0421131 -1.95555 0
M  V30 24262 O 2395.81 0.0827081 -2.71374 0
M  V30 24263 C 2394.27 -2.50159 -2.58744 0
M  V30 24264 C 2393.88 -3.9417 -2.12918 0
M  V30 24265 C 2395.62 -2.59104 -3.36252 0
M  V30 24266 C 2393.53 -4.93623 -3.25714 0
M  V30 24267 H 2392.46 -0.528948 -0.537336 0
M  V30 24268 H 2395.11 -1.68345 -0.73021 0
M  V30 24269 H 2393.49 -2.17194 -3.31124 0
M  V30 24270 H 2394.66 -4.36491 -1.4769 0
M  V30 24271 H 2392.98 -3.89078 -1.48348 0
M  V30 24272 H 2395.58 -3.30586 -4.20258 0
M  V30 24273 H 2395.92 -1.63468 -3.82863 0
M  V30 24274 H 2396.45 -2.91265 -2.70942 0
M  V30 24275 H 2393.19 -5.90737 -2.84095 0
M  V30 24276 H 2392.71 -4.55933 -3.89724 0
M  V30 24277 H 2394.39 -5.15354 -3.91177 0
M  V30 24278 N 2394.52 0.910841 -1.28614 0
M  V30 24279 C 2395.45 2.01842 -1.08592 0
M  V30 24280 C 2396.47 1.62758 -0.0367705 0
M  V30 24281 O 2397.66 1.76288 -0.280132 0
M  V30 24282 C 2394.76 3.33018 -0.628685 0
M  V30 24283 C 2393.93 4.00696 -1.75389 0
M  V30 24284 C 2392.99 5.10154 -1.28954 0
M  V30 24285 O 2392.01 5.33195 -1.99229 0
M  V30 24286 N 2393.22 5.80295 -0.154326 0
M  V30 24287 H 2395.98 2.19575 -2.03977 0
M  V30 24288 H 2393.54 1.08232 -1.20405 0
M  V30 24289 H 2395.53 4.03575 -0.301579 0
M  V30 24290 H 2394.1 3.11735 0.232397 0
M  V30 24291 H 2393.32 3.23649 -2.25044 0
M  V30 24292 H 2394.61 4.42657 -2.50862 0
M  V30 24293 H 2394.01 5.64049 0.431841 0
M  V30 24294 H 2392.57 6.51701 0.113484 0
M  V30 24295 N 2396 1.10909 1.11969 0
M  V30 24296 C 2397.25 0.852852 1.83224 0
M  V30 24297 C 2397.57 -0.623309 1.8477 0
M  V30 24298 O 2396.84 -1.45267 1.31432 0
M  V30 24299 H 2395.42 0.312519 0.678484 0
M  V30 24300 H 2398.08 1.40036 1.35558 0
M  V30 24301 H 2397.18 1.2201 2.87263 0
M  V30 24302 N 2397.48 -1.29474 0.898573 0
M  V30 24303 C 2398.71 -1.99748 0.539296 0
M  V30 24304 C 2399.12 -1.67264 -0.875687 0
M  V30 24305 O 2398.48 -0.917077 -1.57784 0
M  V30 24306 C 2398.53 -3.54244 0.720673 0
M  V30 24307 O 2398.25 -3.85577 2.07996 0
M  V30 24308 C 2399.75 -4.41785 0.366195 0
M  V30 24309 H 2396.97 -0.638254 0.207058 0
M  V30 24310 H 2399.52 -1.65036 1.20761 0
M  V30 24311 H 2397.67 -3.87272 0.0995543 0
M  V30 24312 H 2398.08 -4.80253 2.10849 0
M  V30 24313 H 2399.56 -5.49313 0.543945 0
M  V30 24314 H 2400.04 -4.33639 -0.696686 0
M  V30 24315 H 2400.64 -4.14226 0.964208 0
M  V30 24316 N 2398.96 -0.660936 -1.43071 0
M  V30 24317 C 2399.89 0.0647239 -2.29109 0
M  V30 24318 C 2400.9 0.779423 -1.4293 0
M  V30 24319 O 2402.09 0.635892 -1.66789 0
M  V30 24320 C 2399.19 1.11498 -3.20034 0
M  V30 24321 C 2398.36 0.476878 -4.34793 0
M  V30 24322 C 2397.42 1.42504 -5.06536 0
M  V30 24323 O 2396.45 0.930672 -5.6154 0
M  V30 24324 N 2397.65 2.7588 -5.10755 0
M  V30 24325 H 2400.42 -0.673782 -2.92028 0
M  V30 24326 H 2397.98 -0.504297 -1.53846 0
M  V30 24327 H 2399.97 1.75025 -3.64895 0
M  V30 24328 H 2398.54 1.75537 -2.58661 0
M  V30 24329 H 2397.76 -0.337641 -3.92751 0
M  V30 24330 H 2399.05 0.0317631 -5.0879 0
M  V30 24331 H 2398.44 3.18597 -4.67453 0
M  V30 24332 H 2397 3.3469 -5.59308 0
M  V30 24333 N 2400.43 1.52351 -0.403352 0
M  V30 24334 C 2401.38 2.28406 0.439712 0
M  V30 24335 C 2402.38 1.32865 1.05087 0
M  V30 24336 O 2403.58 1.50347 0.989733 0
M  V30 24337 H 2399.96 0.734656 0.160574 0
M  V30 24338 H 2401.93 2.97565 -0.223035 0
M  V30 24339 C 2400.68 3.11374 1.5473 0
M  V30 24340 H 2400 3.84757 1.08636 0
M  V30 24341 H 2401.44 3.67705 2.11114 0
M  V30 24342 C 2399.9 2.2457 2.51137 0
M  V30 24343 O 2400.43 1.88203 3.54884 0
M  V30 24344 N 2398.64 1.88454 2.21209 0
M  V30 24345 H 2398.18 2.18227 1.36874 0
M  V30 24346 H 2398.14 1.30667 2.85961 0
M  V30 24347 N 2401.91 0.133594 1.57033 0
M  V30 24348 C 2402.84 -0.807528 2.19092 0
M  V30 24349 C 2403.82 -1.26679 1.13519 0
M  V30 24350 O 2405.01 -1.32677 1.41812 0
M  V30 24351 C 2402.14 -2.05207 2.80191 0
M  V30 24352 C 2401.09 -1.73008 3.91475 0
M  V30 24353 C 2400.42 -3.04614 4.39448 0
M  V30 24354 C 2401.72 -0.987077 5.12888 0
M  V30 24355 H 2403.41 -0.290351 2.97989 0
M  V30 24356 H 2400.96 -0.138214 1.43335 0
M  V30 24357 H 2402.91 -2.71515 3.22269 0
M  V30 24358 H 2401.64 -2.59275 1.98606 0
M  V30 24359 H 2400.29 -1.09083 3.49995 0
M  V30 24360 H 2399.94 -3.56645 3.54702 0
M  V30 24361 H 2399.64 -2.83838 5.145 0
M  V30 24362 H 2401.17 -3.72016 4.84187 0
M  V30 24363 H 2402.58 -1.55198 5.51894 0
M  V30 24364 H 2400.98 -0.879746 5.93616 0
M  V30 24365 H 2402.05 0.0236139 4.84894 0
M  V30 24366 N 2403.39 -1.56975 -0.140195 0
M  V30 24367 C 2404.32 -2.0181 -1.17452 0
M  V30 24368 C 2405.3 -0.898819 -1.44413 0
M  V30 24369 O 2406.49 -1.1671 -1.55218 0
M  V30 24370 C 2403.62 -2.40449 -2.50603 0
M  V30 24371 C 2402.57 -3.55625 -2.38149 0
M  V30 24372 C 2401.9 -3.80098 -3.76072 0
M  V30 24373 C 2403.2 -4.88065 -1.85983 0
M  V30 24374 H 2404.89 -2.88467 -0.801692 0
M  V30 24375 H 2402.44 -1.3878 -0.384196 0
M  V30 24376 H 2404.39 -2.70416 -3.23193 0
M  V30 24377 H 2403.11 -1.50737 -2.89734 0
M  V30 24378 H 2401.77 -3.25834 -1.6801 0
M  V30 24379 H 2401.42 -2.87625 -4.12651 0
M  V30 24380 H 2401.12 -4.57613 -3.68598 0
M  V30 24381 H 2402.64 -4.12496 -4.50199 0
M  V30 24382 H 2404.06 -5.16706 -2.48371 0
M  V30 24383 H 2402.46 -5.69433 -1.89383 0
M  V30 24384 H 2403.53 -4.77986 -0.815938 0
M  V30 24385 N 2404.87 0.409753 -1.5218 0
M  V30 24386 C 2406.1 1.1785 -1.70056 0
M  V30 24387 C 2406.51 1.843 -0.409767 0
M  V30 24388 O 2405.87 1.71856 0.614153 0
M  V30 24389 C 2405.92 2.24208 -2.83572 0
M  V30 24390 O 2405.64 1.60471 -4.07653 0
M  V30 24391 C 2407.14 3.13968 -3.12952 0
M  V30 24392 H 2404.36 0.354159 -0.569923 0
M  V30 24393 H 2406.91 0.482163 -1.98735 0
M  V30 24394 H 2405.06 2.89511 -2.57414 0
M  V30 24395 H 2405.47 2.30977 -4.70903 0
M  V30 24396 H 2406.95 3.8467 -3.95896 0
M  V30 24397 H 2407.43 3.76303 -2.26478 0
M  V30 24398 H 2408.03 2.54334 -3.40873 0
M  V30 24399 N 2406.35 1.42792 0.666944 0
M  V30 24400 C 2407.57 1.47303 1.46002 0
M  V30 24401 C 2408 0.0880648 1.87894 0
M  V30 24402 O 2407.35 -0.915225 1.56503 0
M  V30 24403 C 2407.4 2.41234 2.68027 0
M  V30 24404 O 2406.51 1.88913 3.66587 0
M  V30 24405 H 2405.85 0.498778 0.438311 0
M  V30 24406 H 2408.38 1.87564 0.817358 0
M  V30 24407 H 2408.39 2.58079 3.16006 0
M  V30 24408 H 2407.06 3.41851 2.36877 0
M  V30 24409 H 2405.64 1.81662 3.25658 0
M  V30 24410 N 2407.82 -0.904008 1.29095 0
M  V30 24411 C 2409.07 -1.64872 1.1619 0
M  V30 24412 C 2409.39 -1.93487 -0.286708 0
M  V30 24413 O 2410.59 -2.66136 -0.537015 0
M  V30 24414 C 2409.05 -2.9706 2.03183 0
M  V30 24415 C 2408.66 -2.76056 3.52841 0
M  V30 24416 C 2410.4 -3.74971 1.98991 0
M  V30 24417 C 2408.31 -4.03945 4.31952 0
M  V30 24418 H 2407.24 -0.618493 0.431257 0
M  V30 24419 H 2409.89 -1.00241 1.53701 0
M  V30 24420 H 2408.27 -3.62881 1.58536 0
M  V30 24421 H 2409.44 -2.18856 4.0551 0
M  V30 24422 H 2407.76 -2.11547 3.5866 0
M  V30 24423 H 2410.36 -4.69783 2.55359 0
M  V30 24424 H 2410.7 -4.04868 0.968886 0
M  V30 24425 H 2411.23 -3.15985 2.41658 0
M  V30 24426 H 2407.97 -3.79215 5.34674 0
M  V30 24427 H 2407.49 -4.6072 3.84053 0
M  V30 24428 H 2409.17 -4.72126 4.42387 0
M  V30 24429 N 2409.3 -1.11501 -1.11379 0
M  V30 24430 C 2410.21 -0.786667 -2.21017 0
M  V30 24431 C 2411.23 0.220477 -1.72598 0
M  V30 24432 O 2412.4 0.0564897 -2.01321 0
M  V30 24433 C 2409.47 -0.235394 -3.459 0
M  V30 24434 C 2408.53 -1.30122 -4.09105 0
M  V30 24435 C 2407.76 -0.776161 -5.28026 0
M  V30 24436 O 2407.99 0.393561 -5.69041 0
M  V30 24437 O 2406.92 -1.54125 -5.81833 0
M  V30 24438 H 2410.75 -1.70213 -2.51518 0
M  V30 24439 H 2408.33 -0.890949 -1.19927 0
M  V30 24440 H 2410.21 0.067641 -4.21346 0
M  V30 24441 H 2408.89 0.652773 -3.1705 0
M  V30 24442 H 2407.8 -1.65728 -3.35388 0
M  V30 24443 H 2409.13 -2.1628 -4.42135 0
M  V30 24444 N 2410.78 1.28995 -0.905426 0
M  V30 24445 C 2412.01 1.99996 -0.54921 0
M  V30 24446 C 2412.43 1.67276 0.860247 0
M  V30 24447 O 2411.79 0.90053 1.57354 0
M  V30 24448 C 2411.84 3.52602 -0.755247 0
M  V30 24449 O 2410.94 4.11964 0.18962 0
M  V30 24450 H 2410.28 0.6286 -0.21391 0
M  V30 24451 H 2412.81 1.64352 -1.21858 0
M  V30 24452 H 2412.82 4.02592 -0.662116 0
M  V30 24453 H 2411.5 3.75752 -1.78278 0
M  V30 24454 H 2410.07 3.72869 0.0484602 0
M  V30 24455 N 2412.26 0.668514 1.42719 0
M  V30 24456 C 2413.17 -0.013934 2.34596 0
M  V30 24457 C 2414.19 -0.795675 1.54742 0
M  V30 24458 O 2415.36 -0.739433 1.87335 0
M  V30 24459 C 2412.43 -0.957924 3.33204 0
M  V30 24460 C 2411.49 -0.171415 4.28958 0
M  V30 24461 C 2410.72 -1.07044 5.22855 0
M  V30 24462 O 2410.94 -2.30991 5.21535 0
M  V30 24463 O 2409.88 -0.534621 5.99521 0
M  V30 24464 H 2413.7 0.742713 2.94478 0
M  V30 24465 H 2411.29 0.428731 1.43116 0
M  V30 24466 H 2413.17 -1.50001 3.93799 0
M  V30 24467 H 2411.85 -1.69453 2.75803 0
M  V30 24468 H 2410.75 0.414624 3.71795 0
M  V30 24469 H 2412.09 0.525946 4.89382 0
M  V30 24470 N 2413.74 -1.52135 0.411426 0
M  V30 24471 C 2414.97 -2.06257 -0.16304 0
M  V30 24472 C 2415.38 -1.28128 -1.38668 0
M  V30 24473 O 2414.74 -0.333753 -1.79422 0
M  V30 24474 C 2414.79 -3.57867 -0.511189 0
M  V30 24475 O 2414.51 -4.33041 0.663857 0
M  V30 24476 C 2416.01 -4.28414 -1.13914 0
M  V30 24477 H 2413.23 -0.67072 -0.0193779 0
M  V30 24478 H 2415.77 -1.96012 0.583041 0
M  V30 24479 H 2413.93 -3.68112 -1.20716 0
M  V30 24480 H 2414.34 -5.23174 0.372693 0
M  V30 24481 H 2415.82 -5.35665 -1.33293 0
M  V30 24482 H 2416.29 -3.85037 -2.11289 0
M  V30 24483 H 2416.9 -4.22545 -0.483299 0
M  V30 24484 N 2415.22 -0.14192 -1.5696 0
M  V30 24485 C 2416.18 0.785549 -2.15318 0
M  V30 24486 C 2417.18 1.17878 -1.09368 0
M  V30 24487 O 2418.37 1.10053 -1.35033 0
M  V30 24488 C 2415.5 2.06532 -2.71214 0
M  V30 24489 H 2416.69 0.277988 -2.98609 0
M  V30 24490 H 2414.25 0.107491 -1.5593 0
M  V30 24491 H 2414.98 2.61667 -1.91575 0
M  V30 24492 H 2414.77 1.79262 -3.48723 0
M  V30 24493 H 2416.26 2.72784 -3.16194 0
M  V30 24494 N 2416.69 1.57047 0.131868 0
M  V30 24495 C 2417.66 1.98473 1.14634 0
M  V30 24496 C 2418.66 0.873171 1.35027 0
M  V30 24497 O 2419.85 1.13949 1.31762 0
M  V30 24498 C 2416.98 2.31378 2.50354 0
M  V30 24499 H 2418.17 2.89292 0.790589 0
M  V30 24500 H 2415.72 1.51717 0.375734 0
M  V30 24501 H 2416.46 1.43398 2.90873 0
M  V30 24502 H 2416.24 3.12436 2.3691 0
M  V30 24503 H 2417.73 2.64213 3.23391 0
M  V30 24504 N 2418.17 -0.401677 1.52395 0
M  V30 24505 C 2419.4 -1.174 1.70974 0
M  V30 24506 C 2419.82 -1.83313 0.421647 0
M  V30 24507 O 2419.18 -1.70313 -0.621534 0
M  V30 24508 C 2419.23 -2.20723 2.85155 0
M  V30 24509 O 2418.33 -3.27032 2.51244 0
M  V30 24510 H 2417.67 -0.342362 0.568933 0
M  V30 24511 H 2420.2 -0.469856 1.99132 0
M  V30 24512 H 2420.21 -2.6493 3.10284 0
M  V30 24513 H 2418.89 -1.72133 3.78606 0
M  V30 24514 H 2417.46 -2.88052 2.36813 0
M  V30 24515 N 2419.65 -1.43144 -0.659362 0
M  V30 24516 C 2420.56 -1.50259 -1.80165 0
M  V30 24517 C 2421.58 -0.390136 -1.6957 0
M  V30 24518 O 2422.75 -0.643352 -1.90848 0
M  V30 24519 C 2419.82 -1.41731 -3.16407 0
M  V30 24520 C 2418.88 -2.63597 -3.38844 0
M  V30 24521 C 2418.11 -2.55466 -4.68586 0
M  V30 24522 O 2418.33 -1.59901 -5.47529 0
M  V30 24523 O 2417.27 -3.45863 -4.92608 0
M  V30 24524 H 2421.09 -2.46705 -1.77117 0
M  V30 24525 H 2418.68 -1.25077 -0.81707 0
M  V30 24526 H 2420.56 -1.39394 -3.97677 0
M  V30 24527 H 2419.24 -0.484174 -3.20058 0
M  V30 24528 H 2418.14 -2.71507 -2.57361 0
M  V30 24529 H 2419.48 -3.55862 -3.40034 0
M  V30 24530 N 2421.13 0.897149 -1.29572 0
M  V30 24531 C 2422.04 2.03451 -1.16811 0
M  V30 24532 C 2423.05 1.73763 -0.0907777 0
M  V30 24533 O 2424.23 1.99102 -0.303347 0
M  V30 24534 C 2421.29 3.36161 -0.848323 0
M  V30 24535 C 2420.36 3.79351 -2.00976 0
M  V30 24536 C 2419.59 5.05728 -1.70514 0
M  V30 24537 O 2419.81 5.6694 -0.62728 0
M  V30 24538 O 2418.75 5.45032 -2.55389 0
M  V30 24539 H 2422.57 2.17141 -2.12329 0
M  V30 24540 H 2420.16 1.02121 -1.09049 0
M  V30 24541 H 2422.04 4.15801 -0.684654 0
M  V30 24542 H 2420.71 3.23608 0.0770503 0
M  V30 24543 H 2419.62 3.00467 -2.22869 0
M  V30 24544 H 2420.95 3.96491 -2.91643 0
M  V30 24545 N 2422.61 1.1209 1.10786 0
M  V30 24546 C 2423.83 0.896684 1.8646 0
M  V30 24547 C 2424.25 -0.55388 1.80493 0
M  V30 24548 O 2423.61 -1.38276 1.19105 0
M  V30 24549 C 2423.66 1.35849 3.35004 0
M  V30 24550 O 2423.38 2.75219 3.40861 0
M  V30 24551 C 2424.88 1.17067 4.27563 0
M  V30 24552 H 2422.1 0.320664 0.58942 0
M  V30 24553 H 2424.64 1.48995 1.40074 0
M  V30 24554 H 2422.8 0.808525 3.78869 0
M  V30 24555 H 2423.21 2.95397 4.33406 0
M  V30 24556 H 2424.69 1.54272 5.30004 0
M  V30 24557 H 2425.16 0.110891 4.3906 0
M  V30 24558 H 2425.77 1.70796 3.89498 0
M  V30 24559 N 2424.08 -1.28513 0.912254 0
M  V30 24560 C 2425.01 -2.29756 0.416443 0
M  V30 24561 C 2425.99 -1.62111 -0.515166 0
M  V30 24562 O 2427.18 -1.89532 -0.423219 0
M  V30 24563 C 2424.31 -3.45576 -0.345659 0
M  V30 24564 C 2423.26 -4.25108 0.496674 0
M  V30 24565 C 2422.59 -5.33249 -0.393678 0
M  V30 24566 C 2423.89 -4.91998 1.75316 0
M  V30 24567 H 2425.58 -2.71478 1.26254 0
M  V30 24568 H 2423.13 -1.3051 0.608538 0
M  V30 24569 H 2425.08 -4.15489 -0.703349 0
M  V30 24570 H 2423.81 -3.0273 -1.22565 0
M  V30 24571 H 2422.47 -3.5692 0.836863 0
M  V30 24572 H 2422.11 -4.86647 -1.27217 0
M  V30 24573 H 2421.81 -5.87365 0.166312 0
M  V30 24574 H 2423.34 -6.0601 -0.747283 0
M  V30 24575 H 2424.75 -5.5428 1.46446 0
M  V30 24576 H 2423.15 -5.56102 2.25544 0
M  V30 24577 H 2424.22 -4.16573 2.48184 0
M  V30 24578 N 2425.56 -0.676073 -1.42362 0
M  V30 24579 C 2426.81 -0.198866 -2.01521 0
M  V30 24580 C 2427.14 1.19502 -1.53458 0
M  V30 24581 O 2426.39 1.81655 -0.727999 0
M  V30 24582 C 2426.69 -0.183493 -3.56929 0
M  V30 24583 C 2426.36 -1.52223 -4.24428 0
M  V30 24584 C 2425.02 -1.88878 -4.42582 0
M  V30 24585 C 2427.37 -2.40385 -4.62455 0
M  V30 24586 C 2424.7 -3.13317 -4.96033 0
M  V30 24587 C 2427.05 -3.64138 -5.17287 0
M  V30 24588 C 2425.72 -4.0096 -5.33654 0
M  V30 24589 H 2424.99 -0.0727701 -0.737418 0
M  V30 24590 H 2427.63 -0.871311 -1.7053 0
M  V30 24591 H 2425.94 0.572464 -3.87595 0
M  V30 24592 H 2427.63 0.202965 -4.00486 0
M  V30 24593 H 2424.22 -1.22709 -4.10659 0
M  V30 24594 H 2428.41 -2.13351 -4.48102 0
M  V30 24595 H 2423.66 -3.41866 -5.0689 0
M  V30 24596 H 2427.84 -4.32653 -5.45696 0
M  V30 24597 H 2425.47 -4.9746 -5.74837 0
M  V30 24598 N 2427.04 1.51915 -0.419488 0
M  V30 24599 C 2427.99 2.2886 0.415461 0
M  V30 24600 C 2428.98 1.33972 1.03672 0
M  V30 24601 O 2430.19 1.51389 0.973731 0
M  V30 24602 H 2426.56 0.736318 0.152773 0
M  V30 24603 H 2428.53 2.97312 -0.254584 0
M  V30 24604 C 2427.28 3.12998 1.51419 0
M  V30 24605 H 2426.61 3.85888 1.04549 0
M  V30 24606 H 2428.05 3.69924 2.07202 0
M  V30 24607 C 2426.51 2.27221 2.48741 0
M  V30 24608 O 2427.04 1.91956 3.52868 0
M  V30 24609 N 2425.24 1.90789 2.19198 0
M  V30 24610 H 2424.79 2.19667 1.34552 0
M  V30 24611 H 2424.75 1.33692 2.84559 0
M  V30 24612 N 2428.52 0.150242 1.56882 0
M  V30 24613 C 2429.48 -0.774119 2.15731 0
M  V30 24614 C 2430.48 -1.17296 1.09992 0
M  V30 24615 O 2431.67 -1.09336 1.35615 0
M  V30 24616 C 2428.8 -2.05091 2.72306 0
M  V30 24617 H 2430 -0.262148 2.98752 0
M  V30 24618 H 2427.55 -0.0992206 1.55985 0
M  V30 24619 H 2428.28 -2.60647 1.9296 0
M  V30 24620 H 2428.07 -1.7741 3.49668 0
M  V30 24621 H 2429.56 -2.71103 3.17636 0
M  V30 24622 N 2430 -1.57115 -0.123538 0
M  V30 24623 C 2431.22 -1.89165 -0.850365 0
M  V30 24624 C 2431.65 -0.741718 -1.72859 0
M  V30 24625 O 2431 0.307926 -1.78666 0
M  V30 24626 C 2431.05 -3.19939 -1.66347 0
M  V30 24627 O 2430.16 -3.05525 -2.76999 0
M  V30 24628 H 2429.5 -0.620856 -0.235443 0
M  V30 24629 H 2432.03 -2.04318 -0.107299 0
M  V30 24630 H 2432.04 -3.52547 -2.05365 0
M  V30 24631 H 2430.71 -4.0323 -1.01874 0
M  V30 24632 H 2429.29 -2.84375 -2.41216 0
M  V30 24633 N 2431.47 0.393589 -1.52606 0
M  V30 24634 C 2432.41 1.49992 -1.73306 0
M  V30 24635 C 2433.42 1.50798 -0.6135 0
M  V30 24636 O 2434.61 1.54783 -0.889076 0
M  V30 24637 C 2431.71 2.88852 -1.7725 0
M  V30 24638 C 2430.88 3.12063 -3.06488 0
M  V30 24639 C 2429.94 4.30881 -3.0204 0
M  V30 24640 O 2428.97 4.27407 -3.75914 0
M  V30 24641 N 2430.17 5.36825 -2.20906 0
M  V30 24642 H 2432.93 1.32624 -2.68758 0
M  V30 24643 H 2430.49 0.583056 -1.51037 0
M  V30 24644 H 2432.49 3.66431 -1.71786 0
M  V30 24645 H 2431.06 2.99602 -0.892045 0
M  V30 24646 H 2430.28 2.2239 -3.25478 0
M  V30 24647 H 2431.56 3.24423 -3.91953 0
M  V30 24648 H 2430.96 5.425 -1.60345 0
M  V30 24649 H 2429.52 6.13087 -2.21286 0
M  V30 24650 N 2432.95 1.43492 0.651762 0
M  V30 24651 C 2434.37 1.26924 0.967598 0
M  V30 24652 C 2434.57 0.190017 2.00602 0
M  V30 24653 O 2433.62 -0.431063 2.48793 0
M  V30 24654 C 2434.94 2.63404 1.45048 0
M  V30 24655 C 2436.49 2.70948 1.56705 0
M  V30 24656 C 2436.96 4.07849 2.08383 0
M  V30 24657 N 2438.45 4.09921 2.15683 0
M  V30 24658 C 2439.19 5.12683 2.56795 0
M  V30 24659 N 2438.68 6.25819 2.97192 0
M  V30 24660 N 2440.48 5.00037 2.56747 0
M  V30 24661 H 2432.63 2.12371 -0.0353532 0
M  V30 24662 H 2434.89 0.946846 0.0467692 0
M  V30 24663 H 2434.6 3.43349 0.761865 0
M  V30 24664 H 2434.47 2.88898 2.42524 0
M  V30 24665 H 2436.86 1.91334 2.24667 0
M  V30 24666 H 2436.94 2.49217 0.576576 0
M  V30 24667 H 2436.58 4.87929 1.41022 0
M  V30 24668 H 2436.51 4.26944 3.08264 0
M  V30 24669 H 2439 3.28257 1.87231 0
M  V30 24670 H 2439.32 7.0006 3.27315 0
M  V30 24671 H 2437.66 6.29289 2.94993 0
M  V30 24672 H 2440.85 4.10717 2.24565 0
M  V30 24673 H 2441.02 5.80252 2.88465 0
M  V30 24674 N 2434.43 -0.890264 1.30046 0
M  V30 24675 C 2435.68 -1.6363 1.17932 0
M  V30 24676 C 2435.99 -1.93781 -0.266169 0
M  V30 24677 O 2437.2 -2.66691 -0.508757 0
M  V30 24678 C 2435.65 -2.94889 2.06322 0
M  V30 24679 C 2435.26 -2.72298 3.55749 0
M  V30 24680 C 2437.01 -3.72839 2.02956 0
M  V30 24681 C 2434.91 -3.99341 4.36212 0
M  V30 24682 H 2433.84 -0.613884 0.437792 0
M  V30 24683 H 2436.49 -0.986047 1.54756 0
M  V30 24684 H 2434.88 -3.61179 1.62376 0
M  V30 24685 H 2436.05 -2.14543 4.07809 0
M  V30 24686 H 2434.37 -2.07731 3.60883 0
M  V30 24687 H 2436.96 -4.67048 2.60327 0
M  V30 24688 H 2437.31 -4.03818 1.01177 0
M  V30 24689 H 2437.84 -3.13404 2.44996 0
M  V30 24690 H 2434.58 -3.73523 5.38666 0
M  V30 24691 H 2434.1 -4.56621 3.88918 0
M  V30 24692 H 2435.78 -4.67407 4.4737 0
M  V30 24693 N 2435.91 -1.12676 -1.1019 0
M  V30 24694 C 2437.13 -0.906886 -1.86522 0
M  V30 24695 C 2437.56 0.538679 -1.80222 0
M  V30 24696 O 2436.92 1.38156 -1.17399 0
M  V30 24697 C 2436.96 -1.38946 -3.32756 0
M  V30 24698 O 2436.07 -0.569572 -4.08448 0
M  V30 24699 H 2435.41 -0.325629 -0.578672 0
M  V30 24700 H 2437.94 -1.49948 -1.392 0
M  V30 24701 H 2437.95 -1.38965 -3.83605 0
M  V30 24702 H 2436.62 -2.44203 -3.36657 0
M  V30 24703 H 2435.2 -0.636593 -3.67426 0
M  V30 24704 N 2437.39 1.28028 -0.919057 0
M  V30 24705 C 2438.3 2.30868 -0.416796 0
M  V30 24706 C 2439.31 1.66715 0.498206 0
M  V30 24707 O 2440.49 1.97723 0.383109 0
M  V30 24708 C 2437.55 3.45124 0.330213 0
M  V30 24709 C 2436.61 4.24819 -0.618652 0
M  V30 24710 C 2435.85 5.33619 0.0928021 0
M  V30 24711 O 2436.07 5.55067 1.31365 0
M  V30 24712 O 2435 5.99151 -0.574604 0
M  V30 24713 H 2438.83 2.75849 -1.27048 0
M  V30 24714 H 2436.42 1.32819 -0.684075 0
M  V30 24715 H 2438.3 4.14638 0.751899 0
M  V30 24716 H 2436.97 3.02215 1.15964 0
M  V30 24717 H 2435.88 3.57873 -1.08984 0
M  V30 24718 H 2437.21 4.7142 -1.41505 0
M  V30 24719 N 2438.86 0.683613 1.42002 0
M  V30 24720 C 2439.79 0.024907 2.33487 0
M  V30 24721 C 2440.78 -0.779948 1.51165 0
M  V30 24722 O 2441.96 -0.735331 1.7974 0
M  V30 24723 C 2439.09 -0.920777 3.34872 0
M  V30 24724 C 2438.04 -0.223883 4.27414 0
M  V30 24725 C 2437.37 -1.28311 5.19076 0
M  V30 24726 C 2438.67 0.90251 5.14443 0
M  V30 24727 H 2440.36 0.788972 2.88818 0
M  V30 24728 H 2437.91 0.380854 1.38872 0
M  V30 24729 H 2439.86 -1.39074 3.97789 0
M  V30 24730 H 2438.59 -1.71637 2.77864 0
M  V30 24731 H 2437.25 0.225928 3.65903 0
M  V30 24732 H 2436.89 -2.07092 4.58391 0
M  V30 24733 H 2436.59 -0.821893 5.81824 0
M  V30 24734 H 2438.12 -1.75382 5.8487 0
M  V30 24735 H 2439.53 0.513372 5.70997 0
M  V30 24736 H 2437.93 1.29007 5.86069 0
M  V30 24737 H 2439 1.74745 4.52319 0
M  V30 24738 N 2440.34 -1.5169 0.427538 0
M  V30 24739 C 2441.25 -2.31247 -0.395229 0
M  V30 24740 C 2442.27 -1.39744 -1.03671 0
M  V30 24741 O 2443.45 -1.72817 -1.03422 0
M  V30 24742 C 2440.51 -3.13192 -1.487 0
M  V30 24743 C 2439.57 -4.20461 -0.866669 0
M  V30 24744 C 2438.8 -4.98489 -1.90642 0
M  V30 24745 O 2439.03 -4.77032 -3.12725 0
M  V30 24746 O 2437.96 -5.82848 -1.5024 0
M  V30 24747 H 2441.79 -3.02636 0.253971 0
M  V30 24748 H 2439.37 -1.48183 0.1903 0
M  V30 24749 H 2441.25 -3.64166 -2.12041 0
M  V30 24750 H 2439.93 -2.44577 -2.12047 0
M  V30 24751 H 2438.84 -3.73589 -0.195478 0
M  V30 24752 H 2440.17 -4.91421 -0.276848 0
M  V30 24753 N 2441.82 -0.15856 -1.568 0
M  V30 24754 C 2443.24 0.197746 -1.5837 0
M  V30 24755 C 2443.44 1.63812 -1.17337 0
M  V30 24756 O 2442.49 2.36705 -0.879029 0
M  V30 24757 C 2443.81 -0.0714987 -3.00615 0
M  V30 24758 C 2445.35 -0.00870035 -3.12999 0
M  V30 24759 C 2445.83 -0.250765 -4.57313 0
M  V30 24760 N 2447.32 -0.198095 -4.62776 0
M  V30 24761 C 2448.06 -0.359742 -5.7227 0
M  V30 24762 N 2447.55 -0.579747 -6.9037 0
M  V30 24763 N 2449.34 -0.296537 -5.61317 0
M  V30 24764 H 2441.5 -1.0989 -1.81763 0
M  V30 24765 H 2443.76 -0.435899 -0.841841 0
M  V30 24766 H 2443.46 -1.0688 -3.35066 0
M  V30 24767 H 2443.34 0.642692 -3.71684 0
M  V30 24768 H 2445.73 0.979168 -2.78382 0
M  V30 24769 H 2445.81 -0.755402 -2.44392 0
M  V30 24770 H 2445.45 -1.23578 -4.92637 0
M  V30 24771 H 2445.38 0.516397 -5.24062 0
M  V30 24772 H 2447.87 -0.0331779 -3.77885 0
M  V30 24773 H 2448.18 -0.692886 -7.69688 0
M  V30 24774 H 2446.53 -0.616208 -6.92263 0
M  V30 24775 H 2449.72 -0.125341 -4.67932 0
M  V30 24776 H 2449.89 -0.425945 -6.46599 0
M  V30 24777 N 2443.3 1.57178 0.115204 0
M  V30 24778 C 2444.25 2.01604 1.16011 0
M  V30 24779 C 2445.24 0.913612 1.42652 0
M  V30 24780 O 2446.45 1.09882 1.42569 0
M  V30 24781 H 2442.82 0.642211 0.391241 0
M  V30 24782 H 2444.79 2.88587 0.758947 0
M  V30 24783 C 2443.54 2.43944 2.47763 0
M  V30 24784 H 2442.87 3.28343 2.28102 0
M  V30 24785 H 2444.31 2.78824 3.19427 0
M  V30 24786 C 2442.76 1.3046 3.10615 0
M  V30 24787 O 2443.29 0.622654 3.96845 0
M  V30 24788 N 2441.5 1.06069 2.70551 0
M  V30 24789 H 2441.05 1.61703 2.00524 0
M  V30 24790 H 2441.01 0.303339 3.12933 0
M  V30 24791 N 2444.78 -0.38549 1.52813 0
M  V30 24792 C 2446.02 -1.13185 1.68277 0
M  V30 24793 C 2446.36 -1.89532 0.423212 0
M  V30 24794 O 2445.63 -1.8568 -0.57908 0
M  V30 24795 C 2445.91 -2.10725 2.92005 0
M  V30 24796 C 2445.77 -1.38118 4.28069 0
M  V30 24797 C 2447.09 -3.11107 3.11288 0
M  V30 24798 H 2444.21 -0.410104 0.612359 0
M  V30 24799 H 2446.85 -0.414836 1.85416 0
M  V30 24800 H 2445 -2.7187 2.77523 0
M  V30 24801 H 2446.67 -0.799107 4.54326 0
M  V30 24802 H 2444.91 -0.683017 4.28389 0
M  V30 24803 H 2445.58 -2.09408 5.10737 0
M  V30 24804 H 2448.06 -2.60055 3.24824 0
M  V30 24805 H 2446.94 -3.76598 3.99331 0
M  V30 24806 H 2447.2 -3.80169 2.25663 0
M  V30 24807 N 2446.26 -1.43835 -0.644143 0
M  V30 24808 C 2447.17 -1.52162 -1.78561 0
M  V30 24809 C 2448.18 -0.408099 -1.69147 0
M  V30 24810 O 2449.36 -0.663558 -1.90155 0
M  V30 24811 C 2446.42 -1.45079 -3.14886 0
M  V30 24812 C 2445.48 -2.67176 -3.36029 0
M  V30 24813 C 2444.72 -2.60421 -4.6585 0
M  V30 24814 O 2444.94 -1.65699 -5.45802 0
M  V30 24815 O 2443.87 -3.51068 -4.88912 0
M  V30 24816 H 2447.7 -2.4857 -1.7449 0
M  V30 24817 H 2445.28 -1.25937 -0.803758 0
M  V30 24818 H 2447.17 -1.43604 -3.96176 0
M  V30 24819 H 2445.84 -0.518094 -3.19527 0
M  V30 24820 H 2444.75 -2.74221 -2.54467 0
M  V30 24821 H 2446.08 -3.59448 -3.36241 0
M  V30 24822 N 2447.73 0.883355 -1.30517 0
M  V30 24823 C 2448.64 2.02201 -1.18963 0
M  V30 24824 C 2449.66 1.73657 -0.109202 0
M  V30 24825 O 2450.84 1.98769 -0.324448 0
M  V30 24826 C 2447.9 3.35243 -0.883929 0
M  V30 24827 C 2446.96 3.77198 -2.04989 0
M  V30 24828 C 2446.19 5.03891 -1.75868 0
M  V30 24829 O 2446.42 5.66243 -0.687376 0
M  V30 24830 O 2445.35 5.42293 -2.61156 0
M  V30 24831 H 2449.18 2.14876 -2.1462 0
M  V30 24832 H 2446.76 1.00959 -1.10126 0
M  V30 24833 H 2448.64 4.15051 -0.728717 0
M  V30 24834 H 2447.32 3.23672 0.0427229 0
M  V30 24835 H 2446.23 2.98086 -2.26043 0
M  V30 24836 H 2447.56 3.93376 -2.95832 0
M  V30 24837 N 2449.21 1.13259 1.09591 0
M  V30 24838 C 2450.14 0.830984 2.18213 0
M  V30 24839 C 2451.12 -0.208936 1.68812 0
M  V30 24840 O 2452.31 -0.0682324 1.9408 0
M  V30 24841 C 2449.44 0.294357 3.4605 0
M  V30 24842 C 2448.39 1.26833 4.08775 0
M  V30 24843 C 2447.72 0.591542 5.31418 0
M  V30 24844 C 2449.02 2.62623 4.51472 0
M  V30 24845 H 2450.71 1.73927 2.437 0
M  V30 24846 H 2448.26 0.837695 1.17127 0
M  V30 24847 H 2450.21 0.0710347 4.2134 0
M  V30 24848 H 2448.93 -0.64931 3.20081 0
M  V30 24849 H 2447.59 1.47762 3.35503 0
M  V30 24850 H 2447.24 -0.357544 5.01728 0
M  V30 24851 H 2446.94 1.24133 5.74339 0
M  V30 24852 H 2448.47 0.377462 6.09432 0
M  V30 24853 H 2449.88 2.45672 5.17994 0
M  V30 24854 H 2448.28 3.23761 5.05271 0
M  V30 24855 H 2449.35 3.20412 3.63956 0
M  V30 24856 N 2450.69 -1.27539 0.925834 0
M  V30 24857 C 2451.64 -2.26908 0.422085 0
M  V30 24858 C 2452.61 -1.58077 -0.510001 0
M  V30 24859 O 2453.79 -1.85902 -0.429566 0
M  V30 24860 C 2450.93 -3.43606 -0.320776 0
M  V30 24861 C 2450.04 -4.27155 0.645205 0
M  V30 24862 C 2449.18 -5.3107 -0.117312 0
M  V30 24863 C 2448.22 -6.06288 0.841498 0
M  V30 24864 N 2447.36 -7.02011 0.111727 0
M  V30 24865 H 2452.2 -2.69373 1.27446 0
M  V30 24866 H 2449.73 -1.32461 0.63972 0
M  V30 24867 H 2451.69 -4.10074 -0.767778 0
M  V30 24868 H 2450.32 -3.02098 -1.1374 0
M  V30 24869 H 2449.37 -3.60618 1.21073 0
M  V30 24870 H 2450.68 -4.79386 1.37805 0
M  V30 24871 H 2449.84 -6.03479 -0.624316 0
M  V30 24872 H 2448.58 -4.79637 -0.883135 0
M  V30 24873 H 2447.58 -5.3272 1.35977 0
M  V30 24874 H 2448.81 -6.59811 1.60707 0
M  V30 24875 H 2446.75 -6.52911 -0.635884 0
M  V30 24876 H 2446.67 -7.51922 0.784176 0
M  V30 24877 H 2447.94 -7.78599 -0.374686 0
M  V30 24878 N 2452.17 -0.691135 -1.41637 0
M  V30 24879 C 2453.58 -0.362252 -1.55435 0
M  V30 24880 C 2453.78 1.13114 -1.66756 0
M  V30 24881 O 2452.84 1.91689 -1.64352 0
M  V30 24882 C 2454.15 -1.10689 -2.79586 0
M  V30 24883 C 2455.7 -1.0908 -2.93378 0
M  V30 24884 C 2456.18 -1.8171 -4.20411 0
M  V30 24885 N 2457.67 -1.78658 -4.27359 0
M  V30 24886 C 2458.4 -2.31698 -5.24503 0
M  V30 24887 N 2457.9 -2.9319 -6.27703 0
M  V30 24888 N 2459.69 -2.21979 -5.16412 0
M  V30 24889 H 2451.84 -1.65978 -1.32533 0
M  V30 24890 H 2454.1 -0.700179 -0.639103 0
M  V30 24891 H 2453.81 -2.1618 -2.77415 0
M  V30 24892 H 2453.68 -0.68261 -3.70972 0
M  V30 24893 H 2456.07 -0.0441757 -2.95067 0
M  V30 24894 H 2456.15 -1.55411 -2.03178 0
M  V30 24895 H 2455.8 -2.8635 -4.19483 0
M  V30 24896 H 2455.73 -1.32817 -5.09575 0
M  V30 24897 H 2458.22 -1.33821 -3.53412 0
M  V30 24898 H 2458.53 -3.31241 -6.98211 0
M  V30 24899 H 2456.88 -2.97266 -6.28218 0
M  V30 24900 H 2460.07 -1.73615 -4.34713 0
M  V30 24901 H 2460.24 -2.63619 -5.91953 0
M  V30 24902 N 2453.65 1.51461 -0.435577 0
M  V30 24903 C 2454.59 2.27704 0.376757 0
M  V30 24904 C 2455.56 1.3122 1.01835 0
M  V30 24905 O 2456.75 1.60121 1.03759 0
M  V30 24906 C 2453.89 3.12087 1.47296 0
M  V30 24907 C 2453 4.23562 0.849669 0
M  V30 24908 C 2452.14 4.95257 1.92077 0
M  V30 24909 C 2451.17 5.98656 1.27582 0
M  V30 24910 N 2450.31 6.63766 2.28821 0
M  V30 24911 H 2455.15 2.96684 -0.279787 0
M  V30 24912 H 2452.69 1.46335 -0.149821 0
M  V30 24913 H 2454.65 3.59334 2.11978 0
M  V30 24914 H 2453.28 2.45225 2.09915 0
M  V30 24915 H 2452.33 3.80291 0.091186 0
M  V30 24916 H 2453.64 4.97648 0.33879 0
M  V30 24917 H 2452.79 5.46044 2.64425 0
M  V30 24918 H 2451.53 4.20798 2.46537 0
M  V30 24919 H 2450.54 5.47163 0.537796 0
M  V30 24920 H 2451.76 6.75072 0.738574 0
M  V30 24921 H 2449.71 5.9212 2.82365 0
M  V30 24922 H 2449.63 7.33612 1.8262 0
M  V30 24923 H 2450.89 7.19184 3.00658 0
M  V30 24924 N 2455.12 0.166873 1.56714 0
M  V30 24925 C 2456.09 -0.751194 2.1654 0
M  V30 24926 C 2457.09 -1.16123 1.1123 0
M  V30 24927 O 2458.28 -1.07891 1.36767 0
M  V30 24928 C 2455.41 -2.02191 2.74466 0
M  V30 24929 H 2456.6 -0.230447 2.99013 0
M  V30 24930 H 2454.16 -0.0826708 1.56081 0
M  V30 24931 H 2454.89 -2.58586 1.95714 0
M  V30 24932 H 2454.68 -1.73691 3.5153 0
M  V30 24933 H 2456.17 -2.67719 3.20494 0
M  V30 24934 N 2456.6 -1.57237 -0.106866 0
M  V30 24935 C 2457.57 -2.00272 -1.11462 0
M  V30 24936 C 2458.57 -0.894542 -1.33621 0
M  V30 24937 O 2459.76 -1.1603 -1.29933 0
M  V30 24938 C 2456.89 -2.35331 -2.46642 0
M  V30 24939 H 2458.08 -2.90513 -0.744465 0
M  V30 24940 H 2455.63 -1.52295 -0.35155 0
M  V30 24941 H 2456.37 -1.48008 -2.88555 0
M  V30 24942 H 2456.15 -3.16165 -2.31909 0
M  V30 24943 H 2457.64 -2.69324 -3.19146 0
M  V30 24944 N 2458.08 0.377381 -1.53015 0
M  V30 24945 C 2459.01 1.48146 -1.74887 0
M  V30 24946 C 2460.03 1.50139 -0.62946 0
M  V30 24947 O 2461.21 1.53831 -0.905443 0
M  V30 24948 C 2458.31 2.86956 -1.80304 0
M  V30 24949 C 2457.49 3.08795 -3.09781 0
M  V30 24950 C 2456.55 4.27653 -3.06593 0
M  V30 24951 O 2455.57 4.23396 -3.80426 0
M  V30 24952 N 2456.77 5.34451 -2.26588 0
M  V30 24953 H 2459.54 1.29766 -2.7015 0
M  V30 24954 H 2457.1 0.567004 -1.51647 0
M  V30 24955 H 2459.09 3.64588 -1.75663 0
M  V30 24956 H 2457.66 2.98639 -0.923772 0
M  V30 24957 H 2456.88 2.18926 -3.27819 0
M  V30 24958 H 2458.17 3.20248 -3.95372 0
M  V30 24959 H 2457.57 5.40768 -1.6609 0
M  V30 24960 H 2456.13 6.10705 -2.27776 0
M  V30 24961 N 2459.56 1.44175 0.636506 0
M  V30 24962 C 2460.51 1.50918 1.76993 0
M  V30 24963 C 2461.5 0.381324 1.65052 0
M  V30 24964 O 2462.71 0.556041 1.71196 0
M  V30 24965 H 2459.08 0.473465 0.584239 0
M  V30 24966 H 2461.05 2.46323 1.68427 0
M  V30 24967 C 2459.8 1.4654 3.15312 0
M  V30 24968 H 2459.12 2.32639 3.25145 0
M  V30 24969 H 2460.56 1.55319 3.94528 0
M  V30 24970 C 2459.02 0.185364 3.3639 0
M  V30 24971 O 2459.55 -0.746618 3.94701 0
M  V30 24972 N 2457.76 0.0902117 2.9046 0
M  V30 24973 H 2457.31 0.849459 2.43191 0
M  V30 24974 H 2457.26 -0.7655 3.04938 0
M  V30 24975 N 2461.04 -0.876421 1.30983 0
M  V30 24976 C 2462.26 -1.66713 1.23376 0
M  V30 24977 C 2462.69 -1.87046 -0.198817 0
M  V30 24978 O 2462.04 -1.40758 -1.14267 0
M  V30 24979 C 2462.09 -3.01608 1.97649 0
M  V30 24980 O 2461.2 -3.9106 1.30942 0
M  V30 24981 H 2460.54 -0.509092 0.426288 0
M  V30 24982 H 2463.07 -1.0932 1.72946 0
M  V30 24983 H 2463.08 -3.5159 2.06998 0
M  V30 24984 H 2461.75 -2.86128 3.01834 0
M  V30 24985 H 2460.33 -3.49505 1.30003 0
M  V30 24986 N 2462.51 -1.13839 -1.08989 0
M  V30 24987 C 2463.76 -0.90113 -1.80898 0
M  V30 24988 C 2464.08 0.574101 -1.86357 0
M  V30 24989 O 2463.35 1.41731 -1.35237 0
M  V30 24990 H 2461.93 -0.330398 -0.66996 0
M  V30 24991 H 2464.6 -1.43581 -1.31798 0
M  V30 24992 H 2463.69 -1.29583 -2.83927 0
M  V30 24993 N 2463.99 1.27046 -0.932584 0
M  V30 24994 C 2464.9 2.30413 -0.441259 0
M  V30 24995 C 2465.92 1.67234 0.480496 0
M  V30 24996 O 2467.09 1.98118 0.362116 0
M  V30 24997 C 2464.16 3.45455 0.29359 0
M  V30 24998 C 2463.22 4.24139 -0.663675 0
M  V30 24999 C 2462.45 5.33688 0.0361994 0
M  V30 25000 O 2462.68 5.56429 1.2547 0
M  V30 25001 O 2461.61 5.98508 -0.63812 0
M  V30 25002 H 2465.44 2.74486 -1.29967 0
M  V30 25003 H 2463.02 1.32086 -0.698124 0
M  V30 25004 H 2464.9 4.15412 0.707878 0
M  V30 25005 H 2463.58 3.03428 1.12753 0
M  V30 25006 H 2462.49 3.56697 -1.12774 0
M  V30 25007 H 2463.82 4.69893 -1.46497 0
M  V30 25008 N 2465.47 0.698636 1.41269 0
M  V30 25009 C 2466.43 0.0441722 2.29157 0
M  V30 25010 C 2467.43 -0.704815 1.4453 0
M  V30 25011 O 2468.62 -0.539247 1.65643 0
M  V30 25012 C 2465.76 -0.947751 3.27461 0
M  V30 25013 H 2466.95 0.818044 2.88527 0
M  V30 25014 H 2464.5 0.462307 1.49306 0
M  V30 25015 H 2465.24 -1.74928 2.73076 0
M  V30 25016 H 2465.02 -0.413782 3.89911 0
M  V30 25017 H 2466.51 -1.40337 3.93313 0
M  V30 25018 N 2466.95 -1.51228 0.443603 0
M  V30 25019 C 2467.86 -2.31653 -0.37068 0
M  V30 25020 C 2468.87 -1.40835 -1.02183 0
M  V30 25021 O 2470.05 -1.73905 -1.01583 0
M  V30 25022 C 2467.12 -3.14751 -1.4537 0
M  V30 25023 C 2466.18 -4.21356 -0.822025 0
M  V30 25024 C 2465.41 -5.00483 -1.85344 0
M  V30 25025 O 2465.63 -4.80322 -3.07648 0
M  V30 25026 O 2464.57 -5.84409 -1.44049 0
M  V30 25027 H 2468.39 -3.0235 0.286055 0
M  V30 25028 H 2465.98 -1.47973 0.206006 0
M  V30 25029 H 2467.86 -3.66394 -2.08166 0
M  V30 25030 H 2466.53 -2.46812 -2.09441 0
M  V30 25031 H 2465.44 -3.73775 -0.155843 0
M  V30 25032 H 2466.77 -4.91687 -0.22471 0
M  V30 25033 N 2468.43 -0.175182 -1.56623 0
M  V30 25034 C 2469.66 0.474247 -2.01083 0
M  V30 25035 C 2470.06 1.57089 -1.05449 0
M  V30 25036 O 2469.41 1.83637 -0.0480918 0
M  V30 25037 C 2469.47 1.10905 -3.41965 0
M  V30 25038 C 2469.13 0.153586 -4.56742 0
M  V30 25039 C 2470.13 -0.629538 -5.16074 0
M  V30 25040 C 2467.82 0.0482894 -5.02277 0
M  V30 25041 C 2469.81 -1.50512 -6.19375 0
M  V30 25042 C 2467.5 -0.830875 -6.05425 0
M  V30 25043 C 2468.49 -1.60616 -6.63846 0
M  V30 25044 O 2468.18 -2.47063 -7.64994 0
M  V30 25045 H 2467.91 0.12542 -0.664263 0
M  V30 25046 H 2470.47 -0.275199 -2.03548 0
M  V30 25047 H 2468.7 1.9067 -3.36425 0
M  V30 25048 H 2470.39 1.66108 -3.70355 0
M  V30 25049 H 2471.15 -0.558382 -4.81775 0
M  V30 25050 H 2467.03 0.641531 -4.56514 0
M  V30 25051 H 2470.58 -2.11072 -6.64902 0
M  V30 25052 H 2466.47 -0.903219 -6.3915 0
M  V30 25053 H 2467.24 -2.40621 -7.82332 0
M  V30 25054 N 2469.91 1.57292 0.0985263 0
M  V30 25055 C 2471.15 1.85099 0.801326 0
M  V30 25056 C 2471.47 0.763934 1.80065 0
M  V30 25057 O 2472.67 0.929026 2.5511 0
M  V30 25058 C 2471.13 3.28244 1.47593 0
M  V30 25059 C 2470.74 4.45012 0.516546 0
M  V30 25060 C 2472.48 3.6528 2.16266 0
M  V30 25061 C 2470.39 5.7919 1.19554 0
M  V30 25062 H 2469.32 0.690436 0.30301 0
M  V30 25063 H 2471.97 1.8342 0.0542301 0
M  V30 25064 H 2470.35 3.24454 2.27036 0
M  V30 25065 H 2471.53 4.60142 -0.246146 0
M  V30 25066 H 2469.84 4.1635 -0.0643001 0
M  V30 25067 H 2472.44 4.62807 2.67794 0
M  V30 25068 H 2472.78 2.93732 2.95003 0
M  V30 25069 H 2473.31 3.70943 1.43686 0
M  V30 25070 H 2470.05 6.5396 0.449042 0
M  V30 25071 H 2469.57 5.67909 1.92974 0
M  V30 25072 H 2471.25 6.23636 1.72299 0
M  V30 25073 N 2471.38 -0.369261 1.53213 0
M  V30 25074 C 2472.29 -1.47606 1.82345 0
M  V30 25075 C 2473.31 -1.58785 0.71156 0
M  V30 25076 O 2474.49 -1.74749 1.00123 0
M  V30 25077 C 2471.55 -2.82916 2.00398 0
M  V30 25078 C 2470.61 -2.81295 3.24302 0
M  V30 25079 C 2469.84 -4.10151 3.41485 0
M  V30 25080 O 2470.07 -5.06127 2.63042 0
M  V30 25081 O 2469 -4.16187 4.34824 0
M  V30 25082 H 2472.83 -1.25913 2.76368 0
M  V30 25083 H 2470.41 -0.559009 1.38548 0
M  V30 25084 H 2472.29 -3.63097 2.13866 0
M  V30 25085 H 2470.97 -3.04594 1.09564 0
M  V30 25086 H 2469.88 -1.99825 3.1626 0
M  V30 25087 H 2471.21 -2.64571 4.15046 0
M  V30 25088 N 2472.86 -1.4451 -0.628851 0
M  V30 25089 C 2473.81 -1.51552 -1.74071 0
M  V30 25090 C 2474.78 -0.363049 -1.62084 0
M  V30 25091 O 2475.96 -0.573599 -1.81974 0
M  V30 25092 C 2473.1 -1.46789 -3.12325 0
M  V30 25093 C 2472.22 -2.72428 -3.35272 0
M  V30 25094 C 2471.35 -2.59483 -4.63511 0
M  V30 25095 C 2470.39 -3.80274 -4.79644 0
M  V30 25096 N 2469.53 -3.65991 -5.99162 0
M  V30 25097 H 2474.37 -2.46547 -1.67388 0
M  V30 25098 H 2471.9 -1.22359 -0.816505 0
M  V30 25099 H 2473.86 -1.42019 -3.92284 0
M  V30 25100 H 2472.49 -0.5536 -3.18017 0
M  V30 25101 H 2471.54 -2.87376 -2.49237 0
M  V30 25102 H 2472.86 -3.62082 -3.43071 0
M  V30 25103 H 2472.01 -2.52558 -5.51633 0
M  V30 25104 H 2470.75 -1.67392 -4.58073 0
M  V30 25105 H 2469.75 -3.87581 -3.8995 0
M  V30 25106 H 2470.98 -4.73404 -4.86894 0
M  V30 25107 H 2468.93 -2.76654 -5.9481 0
M  V30 25108 H 2468.84 -4.49264 -6.08028 0
M  V30 25109 H 2470.11 -3.62962 -6.8984 0
M  V30 25110 N 2474.34 0.869463 -1.31446 0
M  V30 25111 C 2475.59 1.62494 -1.2134 0
M  V30 25112 C 2475.92 1.92859 0.227838 0
M  V30 25113 O 2475.19 1.56055 1.16091 0
M  V30 25114 C 2475.48 2.95483 -2.05819 0
M  V30 25115 C 2475.33 2.71994 -3.58245 0
M  V30 25116 C 2476.65 3.96591 -1.90797 0
M  V30 25117 H 2473.77 0.589641 -0.442145 0
M  V30 25118 H 2476.41 1.00505 -1.61241 0
M  V30 25119 H 2474.56 3.48391 -1.71919 0
M  V30 25120 H 2476.23 2.25755 -4.02284 0
M  V30 25121 H 2474.47 2.06217 -3.8165 0
M  V30 25122 H 2475.15 3.66624 -4.12663 0
M  V30 25123 H 2477.62 3.52894 -2.20465 0
M  V30 25124 H 2476.5 4.87527 -2.52208 0
M  V30 25125 H 2476.76 4.33427 -0.871417 0
M  V30 25126 N 2475.82 1.14415 1.08383 0
M  V30 25127 C 2477.06 0.913865 1.81042 0
M  V30 25128 C 2477.4 -0.558177 1.86005 0
M  V30 25129 O 2476.67 -1.41347 1.33609 0
M  V30 25130 C 2476.95 1.51575 3.26645 0
M  V30 25131 C 2476.81 3.05766 3.2989 0
M  V30 25132 C 2478.13 1.19281 4.23627 0
M  V30 25133 H 2475.25 0.333425 0.657265 0
M  V30 25134 H 2477.89 1.41414 1.26894 0
M  V30 25135 H 2476.04 1.0903 3.72887 0
M  V30 25136 H 2477.71 3.57143 2.91971 0
M  V30 25137 H 2475.95 3.40202 2.69157 0
M  V30 25138 H 2476.62 3.42985 4.3251 0
M  V30 25139 H 2479.1 1.56063 3.85725 0
M  V30 25140 H 2477.98 1.64027 5.23819 0
M  V30 25141 H 2478.24 0.108145 4.41968 0
M  V30 25142 N 2477.3 -1.26549 0.939309 0
M  V30 25143 C 2478.53 -1.97644 0.601697 0
M  V30 25144 C 2478.93 -1.7016 -0.827176 0
M  V30 25145 O 2478.28 -0.965366 -1.56289 0
M  V30 25146 C 2478.34 -3.51336 0.761787 0
M  V30 25147 C 2478 -4.02466 2.16494 0
M  V30 25148 C 2479 -4.14349 3.14024 0
M  V30 25149 C 2476.68 -4.36523 2.48501 0
M  V30 25150 C 2478.68 -4.59579 4.41662 0
M  V30 25151 C 2476.37 -4.81442 3.76373 0
M  V30 25152 C 2477.36 -4.92931 4.72766 0
M  V30 25153 O 2477.05 -5.3686 5.98361 0
M  V30 25154 H 2476.78 -0.637185 0.225769 0
M  V30 25155 H 2479.34 -1.62073 1.26181 0
M  V30 25156 H 2477.57 -3.86674 0.0445488 0
M  V30 25157 H 2479.26 -4.03642 0.427513 0
M  V30 25158 H 2480.02 -3.88285 2.90619 0
M  V30 25159 H 2475.9 -4.26816 1.74209 0
M  V30 25160 H 2479.45 -4.68461 5.16904 0
M  V30 25161 H 2475.34 -5.06949 3.99591 0
M  V30 25162 H 2476.11 -5.55086 6.01516 0
M  V30 25163 N 2478.77 -0.706118 -1.40896 0
M  V30 25164 C 2480 -0.250923 -2.05373 0
M  V30 25165 C 2480.42 1.10378 -1.53174 0
M  V30 25166 O 2479.77 1.69184 -0.684335 0
M  V30 25167 C 2479.82 -0.211634 -3.6088 0
M  V30 25168 O 2479.55 -1.51283 -4.11151 0
M  V30 25169 C 2481.05 0.263268 -4.42518 0
M  V30 25170 H 2478.27 -0.114564 -0.661148 0
M  V30 25171 H 2480.81 -0.961666 -1.80478 0
M  V30 25172 H 2478.97 0.450005 -3.84777 0
M  V30 25173 H 2479.38 -1.40698 -5.05277 0
M  V30 25174 H 2480.85 0.239621 -5.5148 0
M  V30 25175 H 2481.33 1.30389 -4.19399 0
M  V30 25176 H 2481.94 -0.367751 -4.23707 0
M  V30 25177 N 2480.25 1.50991 -0.451617 0
M  V30 25178 C 2481.5 2.025 0.110202 0
M  V30 25179 C 2481.83 1.33426 1.41107 0
M  V30 25180 O 2481.11 0.453692 1.89135 0
M  V30 25181 C 2481.39 3.58727 0.314208 0
M  V30 25182 C 2481.24 4.38399 -1.00631 0
M  V30 25183 C 2482.56 4.26704 1.07759 0
M  V30 25184 H 2479.68 0.73599 0.0385767 0
M  V30 25185 H 2482.32 1.80496 -0.593406 0
M  V30 25186 H 2480.47 3.77607 0.913535 0
M  V30 25187 H 2482.14 4.31136 -1.64072 0
M  V30 25188 H 2480.39 4.02914 -1.60757 0
M  V30 25189 H 2481.06 5.45914 -0.817437 0
M  V30 25190 H 2483.53 4.1218 0.569788 0
M  V30 25191 H 2482.41 5.35865 1.18911 0
M  V30 25192 H 2482.67 3.88536 2.10932 0
M  V30 25193 N 2481.73 0.183486 1.56528 0
M  V30 25194 C 2482.68 -0.742016 2.18547 0
M  V30 25195 C 2483.65 -1.21818 1.12914 0
M  V30 25196 O 2484.83 -1.28416 1.41117 0
M  V30 25197 C 2481.97 -1.96084 2.83981 0
M  V30 25198 C 2481.08 -1.52712 4.04108 0
M  V30 25199 C 2480.22 -2.70055 4.57432 0
M  V30 25200 C 2479.26 -2.23233 5.69942 0
M  V30 25201 N 2478.4 -3.33712 6.17722 0
M  V30 25202 H 2483.24 -0.20638 2.97284 0
M  V30 25203 H 2480.77 -0.0901313 1.46824 0
M  V30 25204 H 2482.73 -2.67589 3.20082 0
M  V30 25205 H 2481.36 -2.46998 2.07826 0
M  V30 25206 H 2480.41 -0.70837 3.73746 0
M  V30 25207 H 2481.72 -1.14352 4.85515 0
M  V30 25208 H 2480.88 -3.49699 4.95778 0
M  V30 25209 H 2479.62 -3.11683 3.75107 0
M  V30 25210 H 2478.62 -1.42039 5.31136 0
M  V30 25211 H 2479.85 -1.82649 6.54077 0
M  V30 25212 H 2477.79 -3.74892 5.38323 0
M  V30 25213 H 2477.71 -2.99483 6.94151 0
M  V30 25214 H 2478.98 -4.13604 6.60721 0
M  V30 25215 N 2483.21 -1.57342 -0.0901833 0
M  V30 25216 C 2484.14 -1.99103 -1.13538 0
M  V30 25217 C 2485.15 -0.894282 -1.36038 0
M  V30 25218 O 2486.34 -1.17235 -1.34604 0
M  V30 25219 C 2483.44 -2.299 -2.48997 0
M  V30 25220 C 2482.61 -3.61186 -2.46705 0
M  V30 25221 C 2481.67 -3.79863 -3.6413 0
M  V30 25222 O 2480.7 -4.51661 -3.46397 0
M  V30 25223 N 2481.9 -3.20814 -4.83796 0
M  V30 25224 H 2484.67 -2.89375 -0.779891 0
M  V30 25225 H 2482.23 -1.59476 -0.279097 0
M  V30 25226 H 2484.22 -2.39584 -3.26162 0
M  V30 25227 H 2482.79 -1.4561 -2.76616 0
M  V30 25228 H 2482.01 -3.62426 -1.55052 0
M  V30 25229 H 2483.3 -4.47425 -2.42257 0
M  V30 25230 H 2482.7 -2.62503 -5.01107 0
M  V30 25231 H 2481.25 -3.35976 -5.58537 0
M  V30 25232 N 2484.69 0.36113 -1.53407 0
M  V30 25233 C 2485.91 1.12826 -1.74026 0
M  V30 25234 C 2486.34 1.82131 -0.470101 0
M  V30 25235 O 2485.69 1.71901 0.57616 0
M  V30 25236 C 2485.74 2.13085 -2.90907 0
M  V30 25237 O 2484.85 3.20256 -2.59826 0
M  V30 25238 H 2484.19 0.327157 -0.57781 0
M  V30 25239 H 2486.72 0.416895 -2.00308 0
M  V30 25240 H 2486.73 2.5661 -3.17199 0
M  V30 25241 H 2485.4 1.62035 -3.83037 0
M  V30 25242 H 2483.98 2.81672 -2.44367 0
M  V30 25243 N 2486.16 1.44842 0.621179 0
M  V30 25244 C 2487.13 1.52103 1.71457 0
M  V30 25245 C 2488.13 0.40196 1.55695 0
M  V30 25246 O 2489.32 0.664953 1.61009 0
M  V30 25247 C 2486.45 1.40453 3.10622 0
M  V30 25248 H 2487.64 2.49509 1.66389 0
M  V30 25249 H 2485.2 1.32081 0.835721 0
M  V30 25250 H 2485.93 0.441793 3.21277 0
M  V30 25251 H 2485.72 2.21608 3.23469 0
M  V30 25252 H 2487.21 1.48537 3.9029 0
M  V30 25253 N 2487.64 -0.862479 1.31905 0
M  V30 25254 C 2488.55 -2.00282 1.22164 0
M  V30 25255 C 2489.57 -1.73461 0.136816 0
M  V30 25256 O 2490.74 -1.98228 0.356029 0
M  V30 25257 C 2487.81 -3.33794 0.937152 0
M  V30 25258 C 2486.87 -3.73889 2.10963 0
M  V30 25259 C 2486.1 -5.01029 1.83862 0
M  V30 25260 O 2486.33 -5.65078 0.777373 0
M  V30 25261 O 2485.26 -5.38069 2.6975 0
M  V30 25262 H 2489.09 -2.11435 2.18011 0
M  V30 25263 H 2486.67 -0.991937 1.11718 0
M  V30 25264 H 2488.55 -4.1384 0.794656 0
M  V30 25265 H 2487.23 -3.23699 0.00877584 0
M  V30 25266 H 2486.14 -2.94452 2.30757 0
M  V30 25267 H 2487.47 -3.88619 3.02053 0
M  V30 25268 N 2489.12 -1.14988 -1.07775 0
M  V30 25269 C 2490.4 -0.832726 -1.76989 0
M  V30 25270 C 2490.78 0.672525 -2.00101 0
M  V30 25271 O 2490.13 1.61547 -1.61601 0
M  V30 25272 C 2490.34 -1.63869 -3.08136 0
M  V30 25273 C 2491.68 -1.84215 -3.82557 0
M  V30 25274 O 2492.71 -1.60609 -3.17936 0
M  V30 25275 O 2491.57 -2.23723 -4.98608 0
M  V30 25276 H 2488.66 -0.305804 -0.768383 0
M  V30 25277 H 2491.21 -1.25543 -1.14179 0
M  V30 25278 H 2489.98 -2.66085 -2.86905 0
M  V30 25279 H 2489.6 -1.21203 -3.78676 0
M  V30 25280 N 2490.6 1.26049 -0.946007 0
M  V30 25281 C 2491.84 1.93813 -0.597036 0
M  V30 25282 C 2492.18 1.73998 0.862454 0
M  V30 25283 O 2491.45 1.07989 1.61767 0
M  V30 25284 C 2491.74 3.47452 -0.945998 0
M  V30 25285 C 2491.59 3.76531 -2.46058 0
M  V30 25286 C 2492.91 4.37638 -0.464862 0
M  V30 25287 H 2490.03 0.703903 -0.218378 0
M  V30 25288 H 2492.67 1.48829 -1.1811 0
M  V30 25289 H 2490.82 3.85897 -0.44897 0
M  V30 25290 H 2492.49 3.47772 -3.03071 0
M  V30 25291 H 2490.73 3.22438 -2.902 0
M  V30 25292 H 2491.4 4.83942 -2.65526 0
M  V30 25293 H 2493.88 4.06447 -0.891087 0
M  V30 25294 H 2492.76 5.43919 -0.737808 0
M  V30 25295 H 2493.02 4.37513 0.635197 0
M  V30 25296 N 2492.08 0.71358 1.4052 0
M  V30 25297 C 2493.02 0.0597246 2.30723 0
M  V30 25298 C 2493.99 -0.752422 1.4808 0
M  V30 25299 O 2495.18 -0.716779 1.76825 0
M  V30 25300 C 2492.32 -0.857535 3.34276 0
M  V30 25301 C 2491.43 -0.0350776 4.31986 0
M  V30 25302 C 2490.57 -0.951632 5.22606 0
M  V30 25303 C 2489.61 -0.123146 6.11976 0
M  V30 25304 N 2488.74 -0.994468 6.95021 0
M  V30 25305 H 2493.58 0.834646 2.86073 0
M  V30 25306 H 2491.12 0.423285 1.40878 0
M  V30 25307 H 2493.08 -1.40357 3.92881 0
M  V30 25308 H 2491.71 -1.59866 2.80433 0
M  V30 25309 H 2490.76 0.628118 3.75178 0
M  V30 25310 H 2492.07 0.606434 4.951 0
M  V30 25311 H 2491.23 -1.56627 5.86134 0
M  V30 25312 H 2489.96 -1.62697 4.59762 0
M  V30 25313 H 2488.97 0.504446 5.47481 0
M  V30 25314 H 2490.19 0.548658 6.7688 0
M  V30 25315 H 2488.14 -1.65549 6.34767 0
M  V30 25316 H 2488.06 -0.408947 7.54893 0
M  V30 25317 H 2489.33 -1.59535 7.63 0
M  V30 25318 N 2493.55 -1.50749 0.459618 0
M  V30 25319 C 2494.5 -2.28275 -0.340484 0
M  V30 25320 C 2495.47 -1.32824 -0.997347 0
M  V30 25321 O 2496.66 -1.61751 -1.01199 0
M  V30 25322 C 2493.8 -3.1439 -1.42312 0
M  V30 25323 C 2492.91 -4.2486 -0.782177 0
M  V30 25324 C 2492.04 -4.9825 -1.84174 0
M  V30 25325 C 2491.08 -6.0061 -1.18042 0
M  V30 25326 N 2490.22 -6.67322 -2.18232 0
M  V30 25327 H 2495.06 -2.96201 0.326951 0
M  V30 25328 H 2492.6 -1.46078 0.173083 0
M  V30 25329 H 2494.56 -3.62661 -2.06234 0
M  V30 25330 H 2493.19 -2.48534 -2.05988 0
M  V30 25331 H 2492.24 -3.80388 -0.0306736 0
M  V30 25332 H 2493.55 -4.98124 -0.259576 0
M  V30 25333 H 2492.7 -5.50182 -2.55705 0
M  V30 25334 H 2491.44 -4.24667 -2.39812 0
M  V30 25335 H 2490.45 -5.4795 -0.450679 0
M  V30 25336 H 2491.67 -6.76161 -0.631083 0
M  V30 25337 H 2489.62 -5.96537 -2.72909 0
M  V30 25338 H 2489.54 -7.36424 -1.70925 0
M  V30 25339 H 2490.8 -7.23876 -2.89179 0
M  V30 25340 N 2495.03 -0.191784 -1.56429 0
M  V30 25341 C 2496.26 0.453551 -2.01868 0
M  V30 25342 C 2496.68 1.55418 -1.07194 0
M  V30 25343 O 2496.03 1.82341 -0.0762429 0
M  V30 25344 C 2496.08 1.01294 -3.47018 0
M  V30 25345 O 2495.8 -0.0437775 -4.38078 0
M  V30 25346 C 2497.31 1.73448 -4.07959 0
M  V30 25347 H 2494.53 0.114187 -0.661213 0
M  V30 25348 H 2497.07 -0.299519 -2.02295 0
M  V30 25349 H 2495.22 1.71641 -3.47301 0
M  V30 25350 H 2495.64 0.37212 -5.23178 0
M  V30 25351 H 2497.11 2.07824 -5.11384 0
M  V30 25352 H 2497.59 2.63698 -3.51227 0
M  V30 25353 H 2498.2 1.07694 -4.11439 0
M  V30 25354 N 2496.51 1.57387 0.0818378 0
M  V30 25355 C 2497.44 2.0603 1.09881 0
M  V30 25356 C 2498.42 0.951798 1.40978 0
M  V30 25357 O 2499.61 1.2239 1.50779 0
M  V30 25358 C 2496.74 2.49584 2.41506 0
M  V30 25359 C 2495.69 3.64219 2.24786 0
M  V30 25360 C 2495.02 3.93793 3.61705 0
M  V30 25361 C 2496.32 4.94632 1.6774 0
M  V30 25362 H 2498.01 2.91244 0.694077 0
M  V30 25363 H 2495.56 1.4011 0.332424 0
M  V30 25364 H 2497.51 2.82224 3.12934 0
M  V30 25365 H 2496.23 1.61386 2.8394 0
M  V30 25366 H 2494.89 3.31846 1.55801 0
M  V30 25367 H 2494.54 3.02743 4.01691 0
M  V30 25368 H 2494.24 4.70978 3.5136 0
M  V30 25369 H 2495.76 4.28921 4.34579 0
M  V30 25370 H 2497.18 5.25568 2.29023 0
M  V30 25371 H 2495.58 5.7607 1.68118 0
M  V30 25372 H 2496.65 4.80685 0.637975 0
M  V30 25373 N 2497.99 -0.35299 1.53596 0
M  V30 25374 C 2499.27 -1.11072 1.61004 0
M  V30 25375 C 2499.65 -2.06769 0.425393 0
M  V30 25376 O 2498.99 -2.20931 -0.583229 0
M  V30 25377 C 2499.2 -1.83872 2.96635 0
M  V30 25378 C 2500.55 -2.37955 3.51657 0
M  V30 25379 O 2501.58 -1.93981 2.98747 0
M  V30 25380 O 2500.43 -3.18378 4.44182 0
M  V30 25381 H 2497.53 -0.510239 0.650834 0
M  V30 25382 H 2500.07 -0.355241 1.6594 0
M  V30 25383 H 2498.85 -1.14101 3.74295 0
M  V30 25384 H 2498.47 -2.66299 2.95246 0
M  V30 25385 N 2499.47 -1.45169 -0.613489 0
M  V30 25386 C 2500.72 -1.48583 -1.36994 0
M  V30 25387 C 2501.04 -0.126579 -1.94589 0
M  V30 25388 O 2500.31 0.843341 -1.76818 0
M  V30 25389 H 2498.89 -0.547163 -0.508549 0
M  V30 25390 H 2501.55 -1.81081 -0.720821 0
M  V30 25391 H 2500.64 -2.22131 -2.19236 0
M  V30 25392 N 2500.95 0.855472 -1.32361 0
M  V30 25393 C 2501.86 1.99632 -1.23225 0
M  V30 25394 C 2502.87 1.73386 -0.146013 0
M  V30 25395 O 2504.05 1.98037 -0.366537 0
M  V30 25396 C 2501.11 3.33292 -0.95484 0
M  V30 25397 C 2500.17 3.72765 -2.12943 0
M  V30 25398 C 2499.41 5.00047 -1.86517 0
M  V30 25399 O 2499.63 5.64658 -0.80733 0
M  V30 25400 O 2498.56 5.36631 -2.726 0
M  V30 25401 H 2502.39 2.10276 -2.1913 0
M  V30 25402 H 2499.97 0.985999 -1.12243 0
M  V30 25403 H 2501.86 4.13412 -0.816592 0
M  V30 25404 H 2500.53 3.2369 -0.0259423 0
M  V30 25405 H 2499.44 2.93224 -2.32315 0
M  V30 25406 H 2500.77 3.87012 -3.04109 0
M  V30 25407 N 2502.42 1.15558 1.07164 0
M  V30 25408 C 2503.35 0.877084 2.16401 0
M  V30 25409 C 2504.33 -0.173082 1.69217 0
M  V30 25410 O 2505.52 -0.0270498 1.94181 0
M  V30 25411 C 2502.65 0.367693 3.45348 0
M  V30 25412 C 2501.6 1.35475 4.05993 0
M  V30 25413 C 2500.93 0.704131 5.30043 0
M  V30 25414 C 2502.23 2.7214 4.45799 0
M  V30 25415 H 2503.92 1.79057 2.39956 0
M  V30 25416 H 2501.47 0.862351 1.15323 0
M  V30 25417 H 2503.42 0.160391 4.21095 0
M  V30 25418 H 2502.15 -0.58127 3.21386 0
M  V30 25419 H 2500.81 1.54845 3.32293 0
M  V30 25420 H 2500.45 -0.25104 5.02373 0
M  V30 25421 H 2500.15 1.36287 5.71576 0
M  V30 25422 H 2501.68 0.506647 6.08494 0
M  V30 25423 H 2503.09 2.56604 5.12667 0
M  V30 25424 H 2501.49 3.34406 4.9829 0
M  V30 25425 H 2502.56 3.2806 3.57078 0
M  V30 25426 N 2503.9 -1.25546 0.952678 0
M  V30 25427 C 2505.18 -1.88455 0.523851 0
M  V30 25428 C 2505.56 -1.85974 -0.998838 0
M  V30 25429 O 2504.91 -1.32194 -1.86379 0
M  V30 25430 C 2505.12 -3.31269 1.09826 0
M  V30 25431 C 2506.46 -4.08049 1.17392 0
M  V30 25432 O 2507.49 -3.40383 1.04967 0
M  V30 25433 O 2506.35 -5.29085 1.36861 0
M  V30 25434 H 2503.44 -0.80881 0.172499 0
M  V30 25435 H 2505.99 -1.33631 1.04598 0
M  V30 25436 H 2504.76 -3.27495 2.14156 0
M  V30 25437 H 2504.38 -3.93647 0.55926 0
M  V30 25438 N 2505.38 -0.721022 -1.40139 0
M  V30 25439 C 2506.29 -0.0731443 -2.34486 0
M  V30 25440 C 2507.31 0.737696 -1.57588 0
M  V30 25441 O 2508.48 0.669396 -1.8995 0
M  V30 25442 C 2505.55 0.833597 -3.36529 0
M  V30 25443 C 2504.61 0.0120918 -4.29298 0
M  V30 25444 C 2503.84 0.875649 -5.26468 0
M  V30 25445 O 2504.06 2.11476 -5.29749 0
M  V30 25446 O 2503 0.311745 -6.01092 0
M  V30 25447 H 2506.82 -0.851495 -2.91519 0
M  V30 25448 H 2504.41 -0.481552 -1.41426 0
M  V30 25449 H 2506.29 1.35282 -3.99095 0
M  V30 25450 H 2504.97 1.591 -2.81902 0
M  V30 25451 H 2503.87 -0.552327 -3.7 0
M  V30 25452 H 2505.21 -0.707214 -4.87093 0
M  V30 25453 N 2506.86 1.50503 -0.467606 0
M  V30 25454 C 2507.8 2.28452 0.328373 0
M  V30 25455 C 2508.77 1.33351 0.990289 0
M  V30 25456 O 2509.96 1.62286 1.0034 0
M  V30 25457 C 2507.1 3.15141 1.40643 0
M  V30 25458 C 2506.21 4.25269 0.759634 0
M  V30 25459 C 2505.35 4.9922 1.81529 0
M  V30 25460 C 2504.39 6.01228 1.14855 0
M  V30 25461 N 2503.52 6.6847 2.1469 0
M  V30 25462 H 2508.36 2.96023 -0.342655 0
M  V30 25463 H 2505.9 1.45984 -0.180827 0
M  V30 25464 H 2507.86 3.6375 2.04308 0
M  V30 25465 H 2506.49 2.49623 2.04667 0
M  V30 25466 H 2505.54 3.80399 0.0105002 0
M  V30 25467 H 2506.85 4.98255 0.233155 0
M  V30 25468 H 2506.01 5.5153 2.52783 0
M  V30 25469 H 2504.75 4.25932 2.37556 0
M  V30 25470 H 2503.75 5.48181 0.421614 0
M  V30 25471 H 2504.98 6.76487 0.595216 0
M  V30 25472 H 2502.92 5.97976 2.69741 0
M  V30 25473 H 2502.84 7.3732 1.67017 0
M  V30 25474 H 2504.11 7.25399 2.85336 0
M  V30 25475 N 2508.34 0.200077 1.56325 0
M  V30 25476 C 2509.57 -0.442197 2.01812 0
M  V30 25477 C 2509.97 -1.55392 1.07935 0
M  V30 25478 O 2509.32 -1.83537 0.0773008 0
M  V30 25479 C 2509.38 -1.05451 3.43686 0
M  V30 25480 C 2509.04 -0.080903 4.56928 0
M  V30 25481 C 2510.04 0.711562 5.15008 0
M  V30 25482 C 2507.72 0.0316246 5.0229 0
M  V30 25483 C 2509.72 1.60347 6.16902 0
M  V30 25484 C 2507.41 0.927087 6.04027 0
M  V30 25485 C 2508.4 1.71157 6.61207 0
M  V30 25486 O 2508.09 2.59202 7.60966 0
M  V30 25487 H 2507.82 -0.114836 0.666175 0
M  V30 25488 H 2510.38 0.307547 2.03084 0
M  V30 25489 H 2508.61 -1.85293 3.39416 0
M  V30 25490 H 2510.3 -1.60195 3.72951 0
M  V30 25491 H 2511.06 0.634958 4.80826 0
M  V30 25492 H 2506.94 -0.568822 4.57477 0
M  V30 25493 H 2510.49 2.21623 6.6146 0
M  V30 25494 H 2506.38 1.00479 6.37632 0
M  V30 25495 H 2507.15 2.53037 7.78405 0
M  V30 25496 N 2509.81 -1.57429 -0.0734901 0
M  V30 25497 C 2510.76 -2.03572 -1.08752 0
M  V30 25498 C 2511.73 -0.916024 -1.38558 0
M  V30 25499 O 2512.92 -1.18357 -1.49654 0
M  V30 25500 C 2510.06 -2.48315 -2.39653 0
M  V30 25501 C 2509.17 -3.73896 -2.16392 0
M  V30 25502 C 2508.3 -4.07429 -3.40845 0
M  V30 25503 C 2507.34 -5.26056 -3.12941 0
M  V30 25504 N 2506.48 -5.55235 -4.29719 0
M  V30 25505 H 2511.32 -2.89972 -0.687053 0
M  V30 25506 H 2508.86 -1.43404 -0.327684 0
M  V30 25507 H 2510.81 -2.72308 -3.16076 0
M  V30 25508 H 2509.44 -1.64896 -2.77505 0
M  V30 25509 H 2508.5 -3.57253 -1.3067 0
M  V30 25510 H 2509.81 -4.60458 -1.9178 0
M  V30 25511 H 2508.96 -4.32314 -4.25664 0
M  V30 25512 H 2507.7 -3.19431 -3.68531 0
M  V30 25513 H 2506.71 -5.00969 -2.26517 0
M  V30 25514 H 2507.93 -6.1567 -2.86579 0
M  V30 25515 H 2505.88 -4.70196 -4.5744 0
M  V30 25516 H 2505.79 -6.36213 -4.08374 0
M  V30 25517 H 2507.06 -5.8467 -5.1554 0
M  V30 25518 N 2511.29 0.344839 -1.53781 0
M  V30 25519 C 2512.24 1.42343 -1.81679 0
M  V30 25520 C 2513.21 1.5232 -0.662402 0
M  V30 25521 O 2514.39 1.67879 -0.906705 0
M  V30 25522 C 2511.53 2.79012 -2.03092 0
M  V30 25523 C 2510.65 2.77836 -3.30804 0
M  V30 25524 C 2509.78 4.06214 -3.42292 0
M  V30 25525 C 2508.82 3.99262 -4.63957 0
M  V30 25526 N 2507.96 5.19328 -4.72486 0
M  V30 25527 H 2512.8 1.17853 -2.73705 0
M  V30 25528 H 2510.33 0.570925 -1.35569 0
M  V30 25529 H 2512.29 3.58434 -2.13497 0
M  V30 25530 H 2510.92 3.01856 -1.1438 0
M  V30 25531 H 2509.97 1.90527 -3.29247 0
M  V30 25532 H 2511.29 2.68577 -4.20319 0
M  V30 25533 H 2510.44 4.9406 -3.52121 0
M  V30 25534 H 2509.18 4.18253 -2.5083 0
M  V30 25535 H 2508.18 3.09801 -4.54206 0
M  V30 25536 H 2509.41 3.88807 -5.56782 0
M  V30 25537 H 2507.36 5.31913 -3.83933 0
M  V30 25538 H 2507.27 5.1232 -5.55936 0
M  V30 25539 H 2508.54 6.08948 -4.86623 0
M  V30 25540 N 2512.77 1.45492 0.605781 0
M  V30 25541 C 2514.02 1.49825 1.36676 0
M  V30 25542 C 2514.35 0.140209 1.93693 0
M  V30 25543 O 2513.62 -0.84555 1.75159 0
M  V30 25544 C 2513.91 2.57883 2.51333 0
M  V30 25545 C 2513.76 4.03137 1.995 0
M  V30 25546 C 2515.08 2.62212 3.53459 0
M  V30 25547 H 2512.2 0.545475 0.495607 0
M  V30 25548 H 2514.84 1.77311 0.682701 0
M  V30 25549 H 2512.99 2.34577 3.09687 0
M  V30 25550 H 2514.66 4.37659 1.45782 0
M  V30 25551 H 2512.9 4.13709 1.30489 0
M  V30 25552 H 2513.58 4.74436 2.82161 0
M  V30 25553 H 2516.05 2.831 3.04948 0
M  V30 25554 H 2514.93 3.3968 4.31172 0
M  V30 25555 H 2515.19 1.6737 4.09194 0
M  V30 25556 N 2514.25 -0.848441 1.32813 0
M  V30 25557 C 2515.16 -1.98975 1.24282 0
M  V30 25558 C 2516.17 -1.73306 0.155206 0
M  V30 25559 O 2517.35 -1.97839 0.377034 0
M  V30 25560 C 2514.42 -3.32781 0.972502 0
M  V30 25561 C 2513.48 -3.7163 2.14917 0
M  V30 25562 C 2512.71 -4.99051 1.89166 0
M  V30 25563 O 2512.93 -5.64222 0.837264 0
M  V30 25564 O 2511.87 -5.35178 2.75442 0
M  V30 25565 H 2515.69 -2.09111 2.20242 0
M  V30 25566 H 2513.28 -0.980032 1.12764 0
M  V30 25567 H 2515.16 -4.12973 0.838504 0
M  V30 25568 H 2513.83 -3.23671 0.0431079 0
M  V30 25569 H 2512.74 -2.91988 2.33867 0
M  V30 25570 H 2514.07 -3.85394 3.06157 0
M  V30 25571 N 2515.73 -1.16125 -1.06549 0
M  V30 25572 C 2516.67 -0.861409 -2.16061 0
M  V30 25573 C 2517.67 0.168487 -1.6856 0
M  V30 25574 O 2518.87 0.0227263 -1.79986 0
M  V30 25575 H 2515.25 -0.260946 -0.705274 0
M  V30 25576 H 2517.22 -1.79248 -2.38564 0
M  V30 25577 C 2515.97 -0.376079 -3.4566 0
M  V30 25578 H 2515.29 -1.15998 -3.82602 0
M  V30 25579 H 2516.73 -0.205026 -4.23504 0
M  V30 25580 C 2515.19 0.903897 -3.24548 0
M  V30 25581 O 2515.72 1.97371 -3.49868 0
M  V30 25582 N 2513.93 0.84663 -2.77994 0
M  V30 25583 H 2513.47 -0.024147 -2.57589 0
M  V30 25584 H 2513.43 1.70355 -2.64247 0
M  V30 25585 N 2517.2 1.25039 -0.959323 0
M  V30 25586 C 2518.13 2.28053 -0.501429 0
M  V30 25587 C 2519.12 1.63912 0.454644 0
M  V30 25588 O 2520.3 1.90972 0.352584 0
M  V30 25589 C 2517.43 3.4662 0.217163 0
M  V30 25590 C 2516.38 4.22972 -0.654108 0
M  V30 25591 C 2515.71 5.34343 0.195495 0
M  V30 25592 C 2517.01 4.85152 -1.93455 0
M  V30 25593 H 2518.7 2.66605 -1.36242 0
M  V30 25594 H 2516.25 1.28161 -0.656556 0
M  V30 25595 H 2518.2 4.17813 0.548659 0
M  V30 25596 H 2516.93 3.0707 1.11244 0
M  V30 25597 H 2515.59 3.53569 -0.968755 0
M  V30 25598 H 2515.23 4.91033 1.09067 0
M  V30 25599 H 2514.93 5.86343 -0.384194 0
M  V30 25600 H 2516.46 6.08366 0.521851 0
M  V30 25601 H 2517.87 5.48463 -1.66917 0
M  V30 25602 H 2516.27 5.47348 -2.46028 0
M  V30 25603 H 2517.34 4.07075 -2.63474 0
M  V30 25604 N 2518.68 0.728444 1.39755 0
M  V30 25605 C 2519.93 0.270443 1.99879 0
M  V30 25606 C 2520.24 -1.14685 1.58451 0
M  V30 25607 O 2521.45 -1.70403 2.11365 0
M  V30 25608 C 2519.91 0.432583 3.57291 0
M  V30 25609 C 2519.51 1.85734 4.07685 0
M  V30 25610 C 2521.26 0.0360253 4.24485 0
M  V30 25611 C 2519.17 1.96938 5.57646 0
M  V30 25612 H 2518.1 0.0973603 0.747688 0
M  V30 25613 H 2520.75 0.901384 1.59835 0
M  V30 25614 H 2519.13 -0.26715 3.95098 0
M  V30 25615 H 2520.3 2.58849 3.81226 0
M  V30 25616 H 2518.62 2.20652 3.53131 0
M  V30 25617 H 2521.21 0.0988423 5.34609 0
M  V30 25618 H 2521.56 -1.0078 4.03917 0
M  V30 25619 H 2522.09 0.686673 3.91829 0
M  V30 25620 H 2518.83 2.99486 5.83085 0
M  V30 25621 H 2518.35 1.28251 5.85928 0
M  V30 25622 H 2520.03 1.74748 6.22954 0
M  V30 25623 N 2520.16 -1.50253 0.475581 0
M  V30 25624 C 2521.12 -2.27162 -0.304976 0
M  V30 25625 C 2522.12 -1.32125 -0.916496 0
M  V30 25626 O 2523.31 -1.55511 -0.784976 0
M  V30 25627 C 2520.45 -3.0923 -1.43491 0
M  V30 25628 H 2521.64 -2.97614 0.369564 0
M  V30 25629 H 2519.19 -1.54602 0.229774 0
M  V30 25630 H 2519.93 -2.43284 -2.14437 0
M  V30 25631 H 2519.71 -3.79077 -1.00217 0
M  V30 25632 H 2521.2 -3.67384 -1.98541 0
M  V30 25633 N 2521.64 -0.208365 -1.56217 0
M  V30 25634 C 2522.59 0.707153 -2.197 0
M  V30 25635 C 2523.56 1.20006 -1.14838 0
M  V30 25636 O 2524.74 1.26155 -1.43142 0
M  V30 25637 C 2521.88 1.91541 -2.87064 0
M  V30 25638 C 2520.99 1.46264 -4.06486 0
M  V30 25639 C 2520.13 2.62744 -4.6167 0
M  V30 25640 C 2519.17 2.14137 -5.73421 0
M  V30 25641 N 2518.3 3.23842 -6.22953 0
M  V30 25642 H 2523.14 0.159059 -2.97575 0
M  V30 25643 H 2520.68 0.0667615 -1.46948 0
M  V30 25644 H 2522.64 2.62462 -3.24298 0
M  V30 25645 H 2521.27 2.4366 -2.1173 0
M  V30 25646 H 2520.32 0.648821 -3.74826 0
M  V30 25647 H 2521.63 1.06613 -4.87273 0
M  V30 25648 H 2520.79 3.41767 -5.01278 0
M  V30 25649 H 2519.53 3.05676 -3.80018 0
M  V30 25650 H 2518.53 1.33571 -5.33328 0
M  V30 25651 H 2519.76 1.7222 -6.569 0
M  V30 25652 H 2517.7 3.6628 -5.44219 0
M  V30 25653 H 2517.62 2.88402 -6.98828 0
M  V30 25654 H 2518.89 4.0304 -6.67217 0
M  V30 25655 N 2523.12 1.57465 0.0651402 0
M  V30 25656 C 2524.06 2.04146 1.07671 0
M  V30 25657 C 2525.03 0.923359 1.3807 0
M  V30 25658 O 2526.22 1.19149 1.49024 0
M  V30 25659 C 2523.36 2.49583 2.38333 0
M  V30 25660 C 2522.47 3.75039 2.14406 0
M  V30 25661 C 2521.61 4.09231 3.38679 0
M  V30 25662 C 2520.65 5.27708 3.10147 0
M  V30 25663 N 2519.78 5.57506 4.26768 0
M  V30 25664 H 2524.62 2.90332 0.671665 0
M  V30 25665 H 2522.16 1.43576 0.320075 0
M  V30 25666 H 2524.12 2.73981 3.14627 0
M  V30 25667 H 2522.75 1.66365 2.76627 0
M  V30 25668 H 2521.8 3.57941 1.28773 0
M  V30 25669 H 2523.11 4.61469 1.89335 0
M  V30 25670 H 2522.27 4.34565 4.23365 0
M  V30 25671 H 2521 3.21381 3.66832 0
M  V30 25672 H 2520.01 5.02163 2.23858 0
M  V30 25673 H 2521.23 6.17181 2.8331 0
M  V30 25674 H 2519.18 4.72616 4.5494 0
M  V30 25675 H 2519.1 6.3837 4.04994 0
M  V30 25676 H 2520.37 5.87395 5.12432 0
M  V30 25677 N 2524.59 -0.336679 1.53962 0
M  V30 25678 C 2525.82 -1.09602 1.75485 0
M  V30 25679 C 2526.24 -1.82135 0.497232 0
M  V30 25680 O 2525.59 -1.7459 -0.531459 0
M  V30 25681 C 2525.65 -2.10423 2.93946 0
M  V30 25682 O 2525.37 -1.40839 4.14845 0
M  V30 25683 C 2526.87 -2.98679 3.27576 0
M  V30 25684 H 2524.09 -0.326564 0.586171 0
M  V30 25685 H 2526.63 -0.386795 2.00809 0
M  V30 25686 H 2524.79 -2.769 2.70934 0
M  V30 25687 H 2525.2 -2.08247 4.81387 0
M  V30 25688 H 2526.67 -3.65343 4.13798 0
M  V30 25689 H 2527.15 -3.65069 2.44174 0
M  V30 25690 H 2527.76 -2.37781 3.52619 0
M  V30 25691 N 2526.07 -1.45812 -0.598057 0
M  V30 25692 C 2526.98 -1.57766 -1.73629 0
M  V30 25693 C 2528 -0.461705 -1.67763 0
M  V30 25694 O 2529.17 -0.723718 -1.87948 0
M  V30 25695 C 2526.24 -1.55023 -3.10111 0
M  V30 25696 C 2525.3 -2.77731 -3.27359 0
M  V30 25697 C 2524.53 -2.7511 -4.57329 0
M  V30 25698 O 2524.76 -1.82979 -5.40254 0
M  V30 25699 O 2523.69 -3.66445 -4.77495 0
M  V30 25700 H 2527.52 -2.53995 -1.66494 0
M  V30 25701 H 2525.1 -1.2843 -0.763285 0
M  V30 25702 H 2526.98 -1.56135 -3.91407 0
M  V30 25703 H 2525.66 -0.619486 -3.17717 0
M  V30 25704 H 2524.57 -2.82178 -2.45614 0
M  V30 25705 H 2525.9 -3.69964 -3.24635 0
M  V30 25706 N 2527.55 0.841385 -1.33261 0
M  V30 25707 C 2528.46 1.98314 -1.25335 0
M  V30 25708 C 2529.48 1.73222 -0.164395 0
M  V30 25709 O 2530.65 1.97637 -0.387521 0
M  V30 25710 C 2527.72 3.32261 -0.990137 0
M  V30 25711 C 2526.78 3.70485 -2.16885 0
M  V30 25712 C 2526.01 4.98041 -1.9181 0
M  V30 25713 O 2526.23 5.6377 -0.867174 0
M  V30 25714 O 2525.17 5.3371 -2.78276 0
M  V30 25715 H 2528.99 2.0794 -2.21348 0
M  V30 25716 H 2526.58 0.974038 -1.13282 0
M  V30 25717 H 2528.46 4.12523 -0.860394 0
M  V30 25718 H 2527.14 3.23644 -0.0602724 0
M  V30 25719 H 2526.04 2.90744 -2.35412 0
M  V30 25720 H 2527.38 3.83765 -3.08197 0
M  V30 25721 N 2529.03 1.16688 1.05932 0
M  V30 25722 C 2530.25 0.975487 1.83027 0
M  V30 25723 C 2530.68 -0.47142 1.82097 0
M  V30 25724 O 2530.04 -1.33704 1.22446 0
M  V30 25725 C 2530.09 1.51201 3.27369 0
M  V30 25726 O 2529.19 0.720772 4.06053 0
M  V30 25727 H 2528.53 0.346882 0.566188 0
M  V30 25728 H 2531.06 1.55011 1.33539 0
M  V30 25729 H 2531.07 1.53106 3.78183 0
M  V30 25730 H 2529.75 2.56529 3.27362 0
M  V30 25731 H 2528.32 0.772522 3.6481 0
M  V30 25732 N 2530.51 -1.24529 0.96594 0
M  V30 25733 C 2531.47 -2.23689 0.499586 0
M  V30 25734 C 2532.47 -1.5567 -0.402913 0
M  V30 25735 O 2533.66 -1.73064 -0.198619 0
M  V30 25736 C 2530.79 -3.39775 -0.276732 0
M  V30 25737 H 2531.99 -2.66461 1.37618 0
M  V30 25738 H 2529.54 -1.37111 0.750348 0
M  V30 25739 H 2530.27 -3.0244 -1.1705 0
M  V30 25740 H 2530.06 -3.90342 0.370895 0
M  V30 25741 H 2531.55 -4.13381 -0.592103 0
M  V30 25742 N 2531.99 -0.735845 -1.39367 0
M  V30 25743 C 2533.26 -0.210429 -1.94465 0
M  V30 25744 C 2533.64 1.28796 -1.67257 0
M  V30 25745 O 2532.99 2.05394 -1.00127 0
M  V30 25746 C 2533.2 -0.544958 -3.44719 0
M  V30 25747 C 2534.55 -0.494763 -4.21708 0
M  V30 25748 O 2535.57 -0.482199 -3.52921 0
M  V30 25749 O 2534.43 -0.490043 -5.44298 0
M  V30 25750 H 2531.53 -0.0386811 -0.826095 0
M  V30 25751 H 2534.07 -0.814761 -1.48861 0
M  V30 25752 H 2532.84 -1.58051 -3.5796 0
M  V30 25753 H 2532.47 0.0883001 -3.97502 0
M  V30 25754 N 2533.46 1.49999 -0.483543 0
M  V30 25755 C 2534.43 2.2732 0.292925 0
M  V30 25756 C 2535.43 1.32609 0.909476 0
M  V30 25757 O 2536.62 1.55925 0.776718 0
M  V30 25758 C 2533.75 3.09987 1.41849 0
M  V30 25759 H 2534.94 2.97414 -0.385342 0
M  V30 25760 H 2532.49 1.54478 -0.23797 0
M  V30 25761 H 2533.23 2.44418 2.13144 0
M  V30 25762 H 2533.01 3.79603 0.982048 0
M  V30 25763 H 2534.5 3.68432 1.9659 0
M  V30 25764 N 2534.94 0.216646 1.56104 0
M  V30 25765 C 2536.36 -0.138832 1.58995 0
M  V30 25766 C 2536.56 -1.59344 1.23336 0
M  V30 25767 O 2535.61 -2.3328 0.966275 0
M  V30 25768 C 2536.93 0.183021 3.00143 0
M  V30 25769 C 2538.47 0.124862 3.12751 0
M  V30 25770 C 2538.95 0.420321 4.56067 0
M  V30 25771 N 2540.44 0.369715 4.61722 0
M  V30 25772 C 2541.18 0.571889 5.70541 0
M  V30 25773 N 2540.67 0.835574 6.87743 0
M  V30 25774 N 2542.46 0.504662 5.5983 0
M  V30 25775 H 2534.62 1.16561 1.7756 0
M  V30 25776 H 2536.88 0.466843 0.825083 0
M  V30 25777 H 2536.58 1.19242 3.30869 0
M  V30 25778 H 2536.46 -0.504301 3.73814 0
M  V30 25779 H 2538.85 -0.875174 2.81824 0
M  V30 25780 H 2538.93 0.845586 2.4142 0
M  V30 25781 H 2538.57 1.41777 4.87711 0
M  V30 25782 H 2538.5 -0.321539 5.25617 0
M  V30 25783 H 2540.99 0.173405 3.77502 0
M  V30 25784 H 2541.3 0.978073 7.66586 0
M  V30 25785 H 2539.65 0.872713 6.89499 0
M  V30 25786 H 2542.84 0.298924 4.67145 0
M  V30 25787 H 2543.01 0.665632 6.44572 0
M  V30 25788 N 2536.42 -1.57498 -0.0567885 0
M  V30 25789 C 2537.84 -1.54193 -0.411906 0
M  V30 25790 C 2538.04 -0.938973 -1.78285 0
M  V30 25791 O 2537.09 -0.547962 -2.46483 0
M  V30 25792 C 2538.4 -2.98781 -0.339191 0
M  V30 25793 C 2539.95 -3.10192 -0.418294 0
M  V30 25794 C 2540.43 -4.5646 -0.375327 0
M  V30 25795 N 2541.92 -4.61153 -0.434957 0
M  V30 25796 C 2542.65 -5.71829 -0.424164 0
M  V30 25797 N 2542.15 -6.91826 -0.367297 0
M  V30 25798 N 2543.94 -5.60116 -0.471839 0
M  V30 25799 H 2536.09 -1.95053 0.840718 0
M  V30 25800 H 2538.36 -0.893428 0.317003 0
M  V30 25801 H 2538.06 -3.46513 0.601803 0
M  V30 25802 H 2537.94 -3.59445 -1.14364 0
M  V30 25803 H 2540.32 -2.62425 -1.34971 0
M  V30 25804 H 2540.4 -2.52411 0.415006 0
M  V30 25805 H 2540.05 -5.04888 0.552308 0
M  V30 25806 H 2539.98 -5.12121 -1.22636 0
M  V30 25807 H 2542.47 -3.74806 -0.482546 0
M  V30 25808 H 2542.78 -7.71945 -0.3634 0
M  V30 25809 H 2541.13 -6.94198 -0.333757 0
M  V30 25810 H 2544.32 -4.65269 -0.514064 0
M  V30 25811 H 2544.49 -6.46366 -0.459959 0
M  V30 25812 N 2537.9 0.328509 -1.54138 0
M  V30 25813 C 2538.84 1.40408 -1.83178 0
M  V30 25814 C 2539.81 1.51609 -0.678521 0
M  V30 25815 O 2541 1.66908 -0.924459 0
M  V30 25816 C 2538.14 2.76842 -2.0604 0
M  V30 25817 C 2537.25 2.74312 -3.33732 0
M  V30 25818 C 2536.39 4.02561 -3.46581 0
M  V30 25819 C 2535.43 3.94319 -4.68166 0
M  V30 25820 N 2534.56 5.14287 -4.77968 0
M  V30 25821 H 2539.4 1.14944 -2.7494 0
M  V30 25822 H 2536.94 0.556514 -1.36167 0
M  V30 25823 H 2538.9 3.5615 -2.17286 0
M  V30 25824 H 2537.53 3.00626 -1.17575 0
M  V30 25825 H 2536.58 1.87024 -3.31249 0
M  V30 25826 H 2537.89 2.64103 -4.23144 0
M  V30 25827 H 2537.05 4.90298 -3.57342 0
M  V30 25828 H 2535.79 4.15569 -2.55252 0
M  V30 25829 H 2534.79 3.04966 -4.57467 0
M  V30 25830 H 2536.02 3.8288 -5.60874 0
M  V30 25831 H 2533.96 5.27811 -3.89553 0
M  V30 25832 H 2533.88 5.06394 -5.61338 0
M  V30 25833 H 2535.15 6.03753 -4.93055 0
M  V30 25834 N 2539.38 1.46127 0.590316 0
M  V30 25835 C 2540.34 1.55706 1.68192 0
M  V30 25836 C 2541.34 0.434895 1.54807 0
M  V30 25837 O 2542.53 0.698956 1.59563 0
M  V30 25838 C 2539.66 1.4701 3.07573 0
M  V30 25839 H 2540.85 2.52982 1.61059 0
M  V30 25840 H 2538.41 1.33824 0.807517 0
M  V30 25841 H 2539.14 0.509842 3.20267 0
M  V30 25842 H 2538.93 2.2842 3.18696 0
M  V30 25843 H 2540.42 1.56782 3.87052 0
M  V30 25844 N 2540.85 -0.834306 1.33705 0
M  V30 25845 C 2541.76 -1.97646 1.26385 0
M  V30 25846 C 2542.78 -1.73132 0.173579 0
M  V30 25847 O 2543.96 -1.97428 0.397996 0
M  V30 25848 C 2541.02 -3.31731 1.00774 0
M  V30 25849 C 2540.08 -3.6933 2.18847 0
M  V30 25850 C 2539.31 -4.97017 1.94448 0
M  V30 25851 O 2539.54 -5.63302 0.89706 0
M  V30 25852 O 2538.47 -5.32226 2.81103 0
M  V30 25853 H 2542.3 -2.06763 2.22447 0
M  V30 25854 H 2539.88 -0.968017 1.13797 0
M  V30 25855 H 2541.76 -4.12061 0.882259 0
M  V30 25856 H 2540.44 -3.23607 0.0774352 0
M  V30 25857 H 2539.35 -2.89491 2.36951 0
M  V30 25858 H 2540.68 -3.82125 3.10228 0
M  V30 25859 N 2542.33 -1.17248 -1.05312 0
M  V30 25860 C 2543.26 -0.831544 -2.1251 0
M  V30 25861 C 2544.24 0.201139 -1.61351 0
M  V30 25862 O 2545.43 0.08295 -1.88317 0
M  V30 25863 C 2542.55 -0.240209 -3.37847 0
M  V30 25864 C 2541.6 -1.24808 -4.0783 0
M  V30 25865 S 2542.43 -2.7989 -4.56532 0
M  V30 25866 C 2543.59 -2.22233 -5.85118 0
M  V30 25867 H 2543.82 -1.73945 -2.41103 0
M  V30 25868 H 2541.35 -0.997009 -1.17894 0
M  V30 25869 H 2543.31 0.0944867 -4.10391 0
M  V30 25870 H 2541.97 0.645614 -3.07393 0
M  V30 25871 H 2541.17 -0.782958 -4.97881 0
M  V30 25872 H 2540.77 -1.52837 -3.41346 0
M  V30 25873 H 2543.06 -1.59714 -6.58405 0
M  V30 25874 H 2544 -3.10535 -6.36376 0
M  V30 25875 H 2544.41 -1.65732 -5.39623 0
M  V30 25876 N 2543.81 1.24015 -0.972531 0
M  V30 25877 C 2544.74 2.27508 -0.525588 0
M  V30 25878 C 2545.72 1.64385 0.437233 0
M  V30 25879 O 2546.91 1.91336 0.332309 0
M  V30 25880 C 2544.04 3.46831 0.180387 0
M  V30 25881 C 2542.99 4.22255 -0.698933 0
M  V30 25882 C 2542.32 5.3452 0.138809 0
M  V30 25883 C 2543.62 4.83073 -1.9859 0
M  V30 25884 H 2545.31 2.65145 -1.39063 0
M  V30 25885 H 2542.86 1.27458 -0.670113 0
M  V30 25886 H 2544.81 4.18371 0.504313 0
M  V30 25887 H 2543.53 3.08233 1.07981 0
M  V30 25888 H 2542.19 3.52521 -1.0062 0
M  V30 25889 H 2541.84 4.92162 1.03853 0
M  V30 25890 H 2541.54 5.85902 -0.446362 0
M  V30 25891 H 2543.06 6.08885 0.457297 0
M  V30 25892 H 2544.48 5.46662 -1.72725 0
M  V30 25893 H 2542.88 5.44708 -2.5182 0
M  V30 25894 H 2543.95 4.04257 -2.67776 0
M  V30 25895 N 2545.29 0.743226 1.38974 0
M  V30 25896 C 2546.22 0.0689631 2.29096 0
M  V30 25897 C 2547.23 -0.694765 1.47231 0
M  V30 25898 O 2548.42 -0.537567 1.70213 0
M  V30 25899 C 2545.52 -0.92649 3.2599 0
M  V30 25900 C 2544.7 -0.22257 4.36833 0
M  V30 25901 C 2543.75 -1.1273 5.13983 0
M  V30 25902 O 2542.78 -0.601695 5.66011 0
M  V30 25903 N 2543.98 -2.45632 5.25971 0
M  V30 25904 H 2546.75 0.842897 2.87603 0
M  V30 25905 H 2544.31 0.593136 1.50644 0
M  V30 25906 H 2546.3 -1.53453 3.74479 0
M  V30 25907 H 2544.87 -1.60157 2.68456 0
M  V30 25908 H 2544.09 0.566052 3.90115 0
M  V30 25909 H 2545.38 0.26493 5.0811 0
M  V30 25910 H 2544.78 -2.90802 4.85233 0
M  V30 25911 H 2543.33 -3.01512 5.7787 0
M  V30 25912 N 2546.77 -1.4974 0.491491 0
M  V30 25913 C 2547.71 -2.30581 -0.305796 0
M  V30 25914 C 2548.71 -1.38766 -0.971618 0
M  V30 25915 O 2549.91 -1.55862 -0.900392 0
M  V30 25916 H 2546.29 -0.742769 -0.117469 0
M  V30 25917 H 2548.26 -2.95759 0.396145 0
M  V30 25918 C 2547.01 -3.19866 -1.36313 0
M  V30 25919 H 2546.33 -3.90437 -0.86019 0
M  V30 25920 H 2547.77 -3.79388 -1.89316 0
M  V30 25921 C 2546.23 -2.3883 -2.37617 0
M  V30 25922 O 2546.76 -2.08573 -3.43308 0
M  V30 25923 N 2544.97 -2.0103 -2.09846 0
M  V30 25924 H 2544.51 -2.25836 -1.23918 0
M  V30 25925 H 2544.47 -1.47117 -2.77856 0
M  V30 25926 N 2548.24 -0.224922 -1.55987 0
M  V30 25927 C 2549.15 0.69507 -2.24067 0
M  V30 25928 C 2550.17 1.21102 -1.24941 0
M  V30 25929 O 2551.35 1.25192 -1.57762 0
M  V30 25930 C 2548.41 1.88488 -2.90987 0
M  V30 25931 C 2547.47 1.41057 -4.05464 0
M  V30 25932 C 2546.71 2.54367 -4.69184 0
M  V30 25933 O 2546.93 3.72581 -4.31902 0
M  V30 25934 O 2545.86 2.25376 -5.58112 0
M  V30 25935 H 2549.69 0.145096 -3.03353 0
M  V30 25936 H 2547.27 0.0056685 -1.49399 0
M  V30 25937 H 2549.16 2.57966 -3.33214 0
M  V30 25938 H 2547.83 2.42289 -2.14657 0
M  V30 25939 H 2546.74 0.68371 -3.67799 0
M  V30 25940 H 2548.07 0.9189 -4.83546 0
M  V30 25941 N 2549.72 1.57526 0.0484352 0
M  V30 25942 C 2550.69 2.04271 1.03952 0
M  V30 25943 C 2551.69 0.943519 1.30209 0
M  V30 25944 O 2552.88 1.20773 1.25537 0
M  V30 25945 C 2550.01 2.44323 2.37737 0
M  V30 25946 H 2551.2 2.93076 0.63613 0
M  V30 25947 H 2548.75 1.53495 0.294784 0
M  V30 25948 H 2549.49 1.58615 2.82863 0
M  V30 25949 H 2549.27 3.24555 2.20015 0
M  V30 25950 H 2550.76 2.80983 3.08931 0
M  V30 25951 N 2551.2 -0.32033 1.5431 0
M  V30 25952 C 2552.15 -1.39435 1.8392 0
M  V30 25953 C 2553.12 -1.51247 0.686551 0
M  V30 25954 O 2554.3 -1.66416 0.933298 0
M  V30 25955 C 2551.44 -2.75746 2.07505 0
M  V30 25956 C 2550.56 -2.72538 3.35182 0
M  V30 25957 C 2549.69 -4.00717 3.48711 0
M  V30 25958 C 2548.73 -3.9183 4.7025 0
M  V30 25959 N 2547.87 -5.11745 4.80688 0
M  V30 25960 H 2552.71 -1.13484 2.75546 0
M  V30 25961 H 2550.24 -0.549285 1.3646 0
M  V30 25962 H 2552.2 -3.54992 2.19172 0
M  V30 25963 H 2550.83 -2.99998 1.19168 0
M  V30 25964 H 2549.88 -1.85265 3.32237 0
M  V30 25965 H 2551.2 -2.61856 4.24539 0
M  V30 25966 H 2550.35 -4.88396 3.59937 0
M  V30 25967 H 2549.09 -4.1421 2.57452 0
M  V30 25968 H 2548.09 -3.02536 4.59078 0
M  V30 25969 H 2549.32 -3.799 5.62897 0
M  V30 25970 H 2547.26 -5.25738 3.92347 0
M  V30 25971 H 2547.18 -5.0341 5.64016 0
M  V30 25972 H 2548.45 -6.01129 4.9625 0
M  V30 25973 N 2552.68 -1.46438 -0.582558 0
M  V30 25974 C 2553.91 -1.55327 -1.36679 0
M  V30 25975 C 2554.32 -0.194442 -1.87796 0
M  V30 25976 O 2553.68 0.80829 -1.63624 0
M  V30 25977 C 2553.73 -2.55817 -2.55421 0
M  V30 25978 O 2553.45 -3.86421 -2.06423 0
M  V30 25979 C 2554.95 -2.74647 -3.47971 0
M  V30 25980 H 2552.17 -0.525266 -0.417536 0
M  V30 25981 H 2554.72 -1.91846 -0.708185 0
M  V30 25982 H 2552.87 -2.22301 -3.17272 0
M  V30 25983 H 2553.28 -4.41116 -2.83754 0
M  V30 25984 H 2554.76 -3.48881 -4.27769 0
M  V30 25985 H 2555.24 -1.8156 -3.99916 0
M  V30 25986 H 2555.84 -3.0926 -2.91956 0
M  V30 25987 N 2554.16 0.827204 -1.34146 0
M  V30 25988 C 2555.09 1.95285 -1.28008 0
M  V30 25989 C 2556.07 1.69361 -0.15835 0
M  V30 25990 O 2557.25 1.9102 -0.35002 0
M  V30 25991 C 2554.38 3.31662 -1.03041 0
M  V30 25992 C 2553.34 3.72015 -2.11634 0
M  V30 25993 C 2552.66 5.06327 -1.71863 0
M  V30 25994 C 2553.96 3.84563 -3.53424 0
M  V30 25995 H 2555.66 2.00678 -2.22191 0
M  V30 25996 H 2553.2 0.964116 -1.06962 0
M  V30 25997 H 2555.16 4.09991 -0.973935 0
M  V30 25998 H 2553.88 3.26557 -0.0529965 0
M  V30 25999 H 2552.54 2.95958 -2.16344 0
M  V30 26000 H 2552.19 4.97705 -0.727929 0
M  V30 26001 H 2551.89 5.34297 -2.44541 0
M  V30 26002 H 2553.41 5.87119 -1.67702 0
M  V30 26003 H 2554.82 4.53174 -3.5115 0
M  V30 26004 H 2553.22 4.23983 -4.24687 0
M  V30 26005 H 2554.29 2.86682 -3.91077 0
M  V30 26006 N 2555.63 1.17805 1.04688 0
M  V30 26007 C 2556.56 0.922788 2.14492 0
M  V30 26008 C 2557.55 -0.137149 1.69546 0
M  V30 26009 O 2558.73 0.014145 1.94195 0
M  V30 26010 C 2555.86 0.440864 3.4449 0
M  V30 26011 C 2554.81 1.44057 4.03028 0
M  V30 26012 C 2554.14 0.816403 5.28431 0
M  V30 26013 C 2555.44 2.81535 4.39927 0
M  V30 26014 H 2557.13 1.84107 2.36104 0
M  V30 26015 H 2554.68 0.886619 1.13468 0
M  V30 26016 H 2556.63 0.249676 4.2066 0
M  V30 26017 H 2555.36 -0.512968 3.22546 0
M  V30 26018 H 2554.02 1.61859 3.28934 0
M  V30 26019 H 2553.66 -0.144423 5.02793 0
M  V30 26020 H 2553.36 1.48381 5.68557 0
M  V30 26021 H 2554.89 0.635603 6.07283 0
M  V30 26022 H 2556.3 2.67421 5.07108 0
M  V30 26023 H 2554.7 3.449 4.91084 0
M  V30 26024 H 2555.77 3.35561 3.50039 0
M  V30 26025 N 2557.11 -1.23497 0.979094 0
M  V30 26026 C 2558.08 -2.23147 0.523283 0
M  V30 26027 C 2559.08 -1.56089 -0.386379 0
M  V30 26028 O 2560.27 -1.73265 -0.180252 0
M  V30 26029 C 2557.4 -3.40049 -0.240679 0
M  V30 26030 H 2558.59 -2.64986 1.40436 0
M  V30 26031 H 2556.14 -1.36308 0.764848 0
M  V30 26032 H 2556.88 -3.03664 -1.13836 0
M  V30 26033 H 2556.66 -3.89927 0.412275 0
M  V30 26034 H 2558.15 -4.13986 -0.548225 0
M  V30 26035 N 2558.59 -0.750586 -1.38578 0
M  V30 26036 C 2559.52 -0.0811117 -2.29056 0
M  V30 26037 C 2560.54 0.686947 -1.47597 0
M  V30 26038 O 2561.73 0.528533 -1.70496 0
M  V30 26039 C 2558.83 0.909189 -3.26477 0
M  V30 26040 C 2558 0.199401 -4.36945 0
M  V30 26041 C 2557.06 1.10002 -5.14574 0
M  V30 26042 O 2556.08 0.57167 -5.66322 0
M  V30 26043 N 2557.29 2.42839 -5.27266 0
M  V30 26044 H 2560.05 -0.858137 -2.87152 0
M  V30 26045 H 2557.61 -0.601116 -1.50327 0
M  V30 26046 H 2559.6 1.51465 -3.75287 0
M  V30 26047 H 2558.17 1.58731 -2.69301 0
M  V30 26048 H 2557.39 -0.586732 -3.89809 0
M  V30 26049 H 2558.68 -0.291873 -5.07962 0
M  V30 26050 H 2558.08 2.88224 -4.86768 0
M  V30 26051 H 2556.64 2.98443 -5.79461 0
M  V30 26052 N 2560.07 1.49477 -0.499425 0
M  V30 26053 C 2561.03 2.27618 0.268798 0
M  V30 26054 C 2562.03 1.33566 0.89536 0
M  V30 26055 O 2563.22 1.5674 0.760136 0
M  V30 26056 C 2560.35 3.11474 1.38553 0
M  V30 26057 H 2561.55 2.96989 -0.416865 0
M  V30 26058 H 2559.1 1.54217 -0.254341 0
M  V30 26059 H 2559.84 2.46665 2.10539 0
M  V30 26060 H 2559.62 3.80623 0.94173 0
M  V30 26061 H 2561.11 3.70496 1.92671 0
M  V30 26062 N 2561.55 0.233191 1.55865 0
M  V30 26063 C 2562.5 -0.688471 2.22177 0
M  V30 26064 C 2563.49 -1.19074 1.20489 0
M  V30 26065 O 2564.7 -1.14922 1.38538 0
M  V30 26066 H 2561.07 -0.24047 0.712515 0
M  V30 26067 H 2563.04 -0.105883 2.98212 0
M  V30 26068 C 2561.79 -1.88066 2.92449 0
M  V30 26069 H 2561.11 -1.5033 3.7046 0
M  V30 26070 H 2562.55 -2.50308 3.42231 0
M  V30 26071 C 2561.01 -2.74332 1.9556 0
M  V30 26072 O 2561.54 -3.73445 1.47993 0
M  V30 26073 N 2559.75 -2.4061 1.62957 0
M  V30 26074 H 2559.3 -1.60065 2.01834 0
M  V30 26075 H 2559.25 -2.98607 0.983939 0
M  V30 26076 N 2563.03 -1.57549 -0.0400806 0
M  V30 26077 C 2564.25 -1.93407 -0.748897 0
M  V30 26078 C 2564.68 -0.832304 -1.68684 0
M  V30 26079 O 2564.03 0.212787 -1.80047 0
M  V30 26080 C 2564.08 -3.28307 -1.49154 0
M  V30 26081 O 2563.19 -3.19778 -2.60414 0
M  V30 26082 H 2562.53 -0.632464 -0.202201 0
M  V30 26083 H 2565.06 -2.046 0.00115682 0
M  V30 26084 H 2565.07 -3.62937 -1.86389 0
M  V30 26085 H 2563.74 -4.08063 -0.803568 0
M  V30 26086 H 2562.32 -2.96762 -2.25803 0
M  V30 26087 N 2564.5 0.312142 -1.54478 0
M  V30 26088 C 2565.45 1.38457 -1.84657 0
M  V30 26089 C 2566.42 1.50881 -0.694563 0
M  V30 26090 O 2567.61 1.65918 -0.94211 0
M  V30 26091 C 2564.75 2.74641 -2.08965 0
M  V30 26092 C 2563.86 2.70757 -3.36622 0
M  V30 26093 C 2562.99 3.98862 -3.50831 0
M  V30 26094 C 2562.03 3.89331 -4.72322 0
M  V30 26095 N 2561.17 5.09189 -4.83396 0
M  V30 26096 H 2566.01 1.12021 -2.76144 0
M  V30 26097 H 2563.55 0.542041 -1.36749 0
M  V30 26098 H 2565.5 3.53825 -2.21051 0
M  V30 26099 H 2564.13 2.99362 -1.20757 0
M  V30 26100 H 2563.19 1.835 -3.33214 0
M  V30 26101 H 2564.5 2.59601 -4.25921 0
M  V30 26102 H 2563.65 4.8648 -3.62522 0
M  V30 26103 H 2562.39 4.12839 -2.59645 0
M  V30 26104 H 2561.4 3.00097 -4.60676 0
M  V30 26105 H 2562.62 3.76909 -5.64904 0
M  V30 26106 H 2560.57 5.2365 -3.95129 0
M  V30 26107 H 2560.48 5.00412 -5.66678 0
M  V30 26108 H 2561.75 5.98489 -4.99431 0
M  V30 26109 N 2565.98 1.46745 0.574784 0
M  V30 26110 C 2566.91 1.60774 1.69334 0
M  V30 26111 C 2567.89 0.457765 1.63825 0
M  V30 26112 O 2569.08 0.684979 1.81719 0
M  V30 26113 C 2566.21 1.60522 3.07977 0
M  V30 26114 C 2565.16 2.74569 3.28323 0
M  V30 26115 C 2564.49 2.59382 4.67574 0
M  V30 26116 C 2565.79 4.16324 3.15391 0
M  V30 26117 H 2567.48 2.54409 1.57849 0
M  V30 26118 H 2565.03 1.22437 0.757968 0
M  V30 26119 H 2566.98 1.6893 3.86058 0
M  V30 26120 H 2565.7 0.634361 3.2038 0
M  V30 26121 H 2564.36 2.65644 2.52644 0
M  V30 26122 H 2564.01 1.60362 4.76753 0
M  V30 26123 H 2563.71 3.35882 4.82138 0
M  V30 26124 H 2565.24 2.69692 5.47813 0
M  V30 26125 H 2566.65 4.2632 3.83307 0
M  V30 26126 H 2565.05 4.93474 3.41473 0
M  V30 26127 H 2566.12 4.35924 2.12364 0
M  V30 26128 N 2567.46 -0.820078 1.34583 0
M  V30 26129 C 2568.39 -1.93882 1.22239 0
M  V30 26130 C 2569.4 -1.62119 0.148804 0
M  V30 26131 O 2570.59 -1.7394 0.400908 0
M  V30 26132 C 2567.69 -3.27896 0.8566 0
M  V30 26133 C 2566.87 -3.87662 2.02576 0
M  V30 26134 C 2565.93 -5.00059 1.63791 0
M  V30 26135 O 2564.95 -5.18203 2.35486 0
M  V30 26136 N 2566.15 -5.77853 0.553713 0
M  V30 26137 H 2568.92 -2.05002 2.18619 0
M  V30 26138 H 2566.48 -0.996808 1.27575 0
M  V30 26139 H 2568.47 -4.00539 0.578876 0
M  V30 26140 H 2567.04 -3.12595 -0.0170969 0
M  V30 26141 H 2566.26 -3.07377 2.46805 0
M  V30 26142 H 2567.55 -4.24325 2.8076 0
M  V30 26143 H 2566.95 -5.65684 -0.0422534 0
M  V30 26144 H 2565.5 -6.50935 0.335729 0
M  V30 26145 N 2568.94 -1.18359 -1.04062 0
M  V30 26146 C 2569.87 -0.93415 -2.14 0
M  V30 26147 C 2570.85 0.128156 -1.69617 0
M  V30 26148 O 2572.03 -0.0244434 -1.94185 0
M  V30 26149 C 2569.16 -0.459127 -3.44252 0
M  V30 26150 C 2568.12 -1.46192 -4.02258 0
M  V30 26151 C 2567.44 -0.844415 -5.2799 0
M  V30 26152 C 2568.74 -2.83864 -4.38427 0
M  V30 26153 H 2570.44 -1.85356 -2.35124 0
M  V30 26154 H 2567.98 -0.892624 -1.12997 0
M  V30 26155 H 2569.94 -0.271981 -4.20521 0
M  V30 26156 H 2568.66 0.495856 -3.22814 0
M  V30 26157 H 2567.32 -1.63601 -3.28071 0
M  V30 26158 H 2566.97 0.117756 -5.02862 0
M  V30 26159 H 2566.67 -1.51394 -5.67762 0
M  V30 26160 H 2568.19 -0.6678 -6.06937 0
M  V30 26161 H 2569.61 -2.70107 -5.05683 0
M  V30 26162 H 2568 -3.475 -4.89248 0
M  V30 26163 H 2569.07 -3.37412 -3.48254 0
M  V30 26164 N 2570.42 1.22976 -0.98563 0
M  V30 26165 C 2571.35 2.26938 -0.549689 0
M  V30 26166 C 2572.33 1.64839 0.419774 0
M  V30 26167 O 2573.51 1.91677 0.311997 0
M  V30 26168 C 2570.64 3.47003 0.143591 0
M  V30 26169 C 2569.6 4.2149 -0.74368 0
M  V30 26170 C 2568.92 5.34637 0.0821087 0
M  V30 26171 C 2570.22 4.80939 -2.03703 0
M  V30 26172 H 2571.92 2.63655 -1.41867 0
M  V30 26173 H 2569.46 1.2674 -0.683594 0
M  V30 26174 H 2571.41 4.18883 0.459911 0
M  V30 26175 H 2570.14 3.09361 1.04706 0
M  V30 26176 H 2568.8 3.51434 -1.04353 0
M  V30 26177 H 2568.45 4.93236 0.986272 0
M  V30 26178 H 2568.15 5.85396 -0.50848 0
M  V30 26179 H 2569.67 6.09336 0.39269 0
M  V30 26180 H 2571.08 5.44799 -1.78513 0
M  V30 26181 H 2569.48 5.42007 -2.57583 0
M  V30 26182 H 2570.55 4.01394 -2.72049 0
M  V30 26183 N 2571.89 0.757924 1.38178 0
M  V30 26184 C 2572.84 0.133097 2.30416 0
M  V30 26185 C 2573.81 -0.70493 1.50399 0
M  V30 26186 O 2575 -0.660161 1.79015 0
M  V30 26187 C 2572.14 -0.750754 3.36835 0
M  V30 26188 C 2571.25 0.102373 4.31879 0
M  V30 26189 C 2570.38 -0.784887 5.25369 0
M  V30 26190 C 2569.42 0.0716122 6.12058 0
M  V30 26191 N 2568.56 -0.772849 6.97833 0
M  V30 26192 H 2573.4 0.925235 2.83273 0
M  V30 26193 H 2570.94 0.46789 1.3946 0
M  V30 26194 H 2572.89 -1.27787 3.97148 0
M  V30 26195 H 2571.52 -1.50863 2.85377 0
M  V30 26196 H 2570.58 0.74716 3.7299 0
M  V30 26197 H 2571.89 0.763639 4.9292 0
M  V30 26198 H 2571.04 -1.37901 5.9082 0
M  V30 26199 H 2569.78 -1.47987 4.64705 0
M  V30 26200 H 2568.79 0.678368 5.45599 0
M  V30 26201 H 2570.01 0.763725 6.74792 0
M  V30 26202 H 2567.96 -1.45271 6.39713 0
M  V30 26203 H 2567.87 -0.168576 7.55812 0
M  V30 26204 H 2569.14 -1.3518 7.67689 0
M  V30 26205 N 2573.37 -1.4921 0.507345 0
M  V30 26206 C 2574.65 -1.95353 -0.0982359 0
M  V30 26207 C 2575.03 -1.44903 -1.53513 0
M  V30 26208 O 2574.38 -0.665548 -2.18593 0
M  V30 26209 C 2574.59 -3.49 -0.00434148 0
M  V30 26210 C 2575.94 -4.24239 -0.175072 0
M  V30 26211 O 2576.96 -3.56112 -0.0792265 0
M  V30 26212 O 2575.82 -5.45228 -0.372664 0
M  V30 26213 H 2572.91 -0.821888 -0.0918091 0
M  V30 26214 H 2575.46 -1.59829 0.570335 0
M  V30 26215 H 2574.23 -3.78373 0.997468 0
M  V30 26216 H 2573.85 -3.91159 -0.712776 0
M  V30 26217 N 2574.85 -0.241454 -1.55739 0
M  V30 26218 C 2575.78 0.654682 -2.24134 0
M  V30 26219 C 2576.76 1.18558 -1.21976 0
M  V30 26220 O 2577.95 1.22592 -1.50615 0
M  V30 26221 C 2575.08 1.85418 -2.93662 0
M  V30 26222 C 2574.03 1.45629 -4.02463 0
M  V30 26223 C 2573.36 2.73618 -4.59388 0
M  V30 26224 C 2574.66 0.631415 -5.18469 0
M  V30 26225 H 2576.35 0.0843827 -2.99281 0
M  V30 26226 H 2573.9 0.0391454 -1.43947 0
M  V30 26227 H 2575.85 2.4867 -3.40208 0
M  V30 26228 H 2574.57 2.44977 -2.15995 0
M  V30 26229 H 2573.23 0.84714 -3.56678 0
M  V30 26230 H 2572.88 3.31363 -3.78428 0
M  V30 26231 H 2572.58 2.47721 -5.3283 0
M  V30 26232 H 2574.1 3.37777 -5.08664 0
M  V30 26233 H 2575.52 1.1681 -5.61274 0
M  V30 26234 H 2573.92 0.468726 -5.98267 0
M  V30 26235 H 2574.99 -0.357591 -4.8358 0
M  V30 26236 N 2576.33 1.57568 0.0317248 0
M  V30 26237 C 2577.24 2.09782 1.05018 0
M  V30 26238 C 2578.25 1.03586 1.39807 0
M  V30 26239 O 2579.43 1.35305 1.4918 0
M  V30 26240 C 2576.5 2.56463 2.33297 0
M  V30 26241 C 2575.56 3.7713 2.05113 0
M  V30 26242 C 2574.79 4.21576 3.27276 0
M  V30 26243 O 2575.01 3.65567 4.37855 0
M  V30 26244 O 2573.95 5.14035 3.13132 0
M  V30 26245 H 2577.77 2.96956 0.636453 0
M  V30 26246 H 2575.36 1.47318 0.248533 0
M  V30 26247 H 2577.24 2.86831 3.08717 0
M  V30 26248 H 2575.91 1.72401 2.7397 0
M  V30 26249 H 2574.82 3.51786 1.27269 0
M  V30 26250 H 2576.15 4.62168 1.69297 0
M  V30 26251 N 2577.81 -0.303946 1.54641 0
M  V30 26252 C 2579.22 -0.649437 1.45789 0
M  V30 26253 C 2579.42 -1.90841 0.646693 0
M  V30 26254 O 2578.48 -2.52035 0.153227 0
M  V30 26255 C 2579.79 -0.805176 2.8972 0
M  V30 26256 C 2581.34 -0.901252 2.99744 0
M  V30 26257 C 2581.81 -1.08901 4.44865 0
M  V30 26258 N 2583.31 -1.15529 4.48561 0
M  V30 26259 C 2584.04 -1.31881 5.58028 0
M  V30 26260 N 2583.54 -1.45149 6.77424 0
M  V30 26261 N 2585.33 -1.34745 5.45711 0
M  V30 26262 H 2577.48 0.523273 2.05853 0
M  V30 26263 H 2579.74 0.172447 0.932183 0
M  V30 26264 H 2579.45 0.0489726 3.51666 0
M  V30 26265 H 2579.32 -1.69507 3.36967 0
M  V30 26266 H 2581.71 -1.74589 2.37913 0
M  V30 26267 H 2581.79 0.0125981 2.55797 0
M  V30 26268 H 2581.44 -0.249152 5.07289 0
M  V30 26269 H 2581.37 -2.01704 4.86439 0
M  V30 26270 H 2583.86 -1.06639 3.62542 0
M  V30 26271 H 2584.17 -1.57373 7.56607 0
M  V30 26272 H 2582.51 -1.42211 6.80295 0
M  V30 26273 H 2585.71 -1.23988 4.51381 0
M  V30 26274 H 2585.88 -1.47146 6.31072 0
M  V30 26275 N 2579.28 -1.47047 -0.566994 0
M  V30 26276 C 2580.23 -1.58798 -1.67486 0
M  V30 26277 C 2581.2 -0.431468 -1.60398 0
M  V30 26278 O 2582.39 -0.650264 -1.79377 0
M  V30 26279 C 2579.53 -1.59904 -3.05818 0
M  V30 26280 C 2578.64 -2.86403 -3.23415 0
M  V30 26281 C 2577.77 -2.78908 -4.52088 0
M  V30 26282 C 2576.81 -4.00275 -4.63083 0
M  V30 26283 N 2575.95 -3.91075 -5.831 0
M  V30 26284 H 2580.79 -2.53424 -1.5678 0
M  V30 26285 H 2578.33 -1.25711 -0.763874 0
M  V30 26286 H 2580.29 -1.58529 -3.85907 0
M  V30 26287 H 2578.92 -0.687984 -3.15383 0
M  V30 26288 H 2577.97 -2.97688 -2.36824 0
M  V30 26289 H 2579.28 -3.76307 -3.27405 0
M  V30 26290 H 2578.43 -2.75727 -5.40425 0
M  V30 26291 H 2577.17 -1.8667 -4.50561 0
M  V30 26292 H 2576.18 -4.03771 -3.7316 0
M  V30 26293 H 2577.4 -4.93629 -4.66377 0
M  V30 26294 H 2575.35 -3.01633 -5.8254 0
M  V30 26295 H 2575.27 -4.74649 -5.88426 0
M  V30 26296 H 2576.53 -3.91894 -6.73824 0
M  V30 26297 N 2580.76 0.812929 -1.35016 0
M  V30 26298 C 2581.99 1.59886 -1.30844 0
M  V30 26299 C 2582.4 1.88835 0.117542 0
M  V30 26300 O 2581.74 1.48741 1.07805 0
M  V30 26301 C 2581.81 2.95928 -2.04125 0
M  V30 26302 C 2581.47 2.89826 -3.53341 0
M  V30 26303 C 2582.47 2.63707 -4.48057 0
M  V30 26304 C 2580.15 3.09143 -3.95899 0
M  V30 26305 C 2582.15 2.56971 -5.83305 0
M  V30 26306 C 2579.83 3.02031 -5.31244 0
M  V30 26307 C 2580.83 2.7598 -6.24759 0
M  V30 26308 O 2580.52 2.68819 -7.57622 0
M  V30 26309 H 2580.25 0.503362 -0.451224 0
M  V30 26310 H 2582.8 1.01874 -1.78356 0
M  V30 26311 H 2581.03 3.55898 -1.51241 0
M  V30 26312 H 2582.72 3.57018 -1.93113 0
M  V30 26313 H 2583.49 2.48508 -4.16496 0
M  V30 26314 H 2579.37 3.28433 -3.23501 0
M  V30 26315 H 2582.91 2.36558 -6.56267 0
M  V30 26316 H 2578.81 3.16786 -5.62421 0
M  V30 26317 H 2579.58 2.84474 -7.67474 0
M  V30 26318 N 2582.24 1.18909 1.03433 0
M  V30 26319 C 2583.15 0.937053 2.15073 0
M  V30 26320 C 2584.17 -0.101054 1.73706 0
M  V30 26321 O 2585.34 0.0823301 2.01232 0
M  V30 26322 C 2582.41 0.473118 3.43457 0
M  V30 26323 C 2581.47 1.57996 3.99169 0
M  V30 26324 C 2580.7 1.13806 5.21425 0
M  V30 26325 O 2580.92 -0.000625679 5.704 0
M  V30 26326 O 2579.86 1.9384 5.69833 0
M  V30 26327 H 2583.68 1.87136 2.39194 0
M  V30 26328 H 2581.27 0.971447 1.13504 0
M  V30 26329 H 2583.15 0.222776 4.20811 0
M  V30 26330 H 2581.83 -0.432813 3.20793 0
M  V30 26331 H 2580.73 1.88439 3.23174 0
M  V30 26332 H 2582.07 2.46224 4.26186 0
M  V30 26333 N 2583.72 -1.22452 0.992137 0
M  V30 26334 C 2585 -1.86693 0.583541 0
M  V30 26335 C 2585.38 -1.89058 -0.939166 0
M  V30 26336 O 2584.72 -1.38056 -1.82079 0
M  V30 26337 C 2584.93 -3.27607 1.20309 0
M  V30 26338 C 2586.28 -4.04108 1.30315 0
M  V30 26339 O 2587.31 -3.36871 1.15743 0
M  V30 26340 O 2586.16 -5.24463 1.53625 0
M  V30 26341 H 2583.26 -0.802912 0.198143 0
M  V30 26342 H 2585.8 -1.30236 1.08797 0
M  V30 26343 H 2584.58 -3.20516 2.24467 0
M  V30 26344 H 2584.2 -3.91669 0.684213 0
M  V30 26345 N 2585.2 -0.765242 -1.37774 0
M  V30 26346 C 2586.14 -0.134839 -2.32209 0
M  V30 26347 C 2587.14 0.692288 -1.54608 0
M  V30 26348 O 2588.34 0.590079 -1.70053 0
M  V30 26349 H 2584.72 -0.0248137 -0.75159 0
M  V30 26350 H 2586.69 -0.947168 -2.82969 0
M  V30 26351 C 2585.44 0.735004 -3.39843 0
M  V30 26352 H 2584.76 0.107921 -3.99654 0
M  V30 26353 H 2586.2 1.14318 -4.08298 0
M  V30 26354 C 2584.66 1.88276 -2.79381 0
M  V30 26355 O 2585.19 2.97778 -2.69613 0
M  V30 26356 N 2583.4 1.68138 -2.37019 0
M  V30 26357 H 2582.94 0.790729 -2.45164 0
M  V30 26358 H 2582.9 2.451 -1.96909 0
M  V30 26359 N 2586.67 1.48939 -0.515251 0
M  V30 26360 C 2587.61 2.27327 0.292441 0
M  V30 26361 C 2588.62 1.34462 0.917814 0
M  V30 26362 O 2589.81 1.59632 0.798744 0
M  V30 26363 C 2586.91 3.07347 1.42798 0
M  V30 26364 C 2586.08 4.27887 0.907272 0
M  V30 26365 C 2585.14 4.89837 1.92214 0
M  V30 26366 O 2584.17 5.49488 1.48497 0
M  V30 26367 N 2585.37 4.80759 3.25347 0
M  V30 26368 H 2588.13 2.97284 -0.379773 0
M  V30 26369 H 2585.69 1.58101 -0.348666 0
M  V30 26370 H 2587.69 3.45662 2.10475 0
M  V30 26371 H 2586.26 2.39905 2.0041 0
M  V30 26372 H 2585.48 3.94162 0.0549525 0
M  V30 26373 H 2586.76 5.05947 0.538019 0
M  V30 26374 H 2586.16 4.33421 3.63542 0
M  V30 26375 H 2584.72 5.23218 3.88698 0
M  V30 26376 N 2588.15 0.249709 1.55609 0
M  V30 26377 C 2589.57 -0.105075 1.59254 0
M  V30 26378 C 2589.77 -1.56692 1.26688 0
M  V30 26379 O 2588.83 -2.31178 1.01554 0
M  V30 26380 C 2590.14 0.246644 2.99687 0
M  V30 26381 C 2591.69 0.191173 3.12416 0
M  V30 26382 C 2592.16 0.516965 4.55073 0
M  V30 26383 N 2593.65 0.46757 4.60834 0
M  V30 26384 C 2594.39 0.69278 5.692 0
M  V30 26385 N 2593.88 0.981266 6.85816 0
M  V30 26386 N 2595.68 0.623296 5.58634 0
M  V30 26387 H 2587.83 1.20301 1.75047 0
M  V30 26388 H 2590.09 0.484239 0.814995 0
M  V30 26389 H 2589.8 1.26234 3.28265 0
M  V30 26390 H 2589.67 -0.424896 3.74799 0
M  V30 26391 H 2592.06 -0.815198 2.83617 0
M  V30 26392 H 2592.14 0.896605 2.39572 0
M  V30 26393 H 2591.78 1.5209 4.84594 0
M  V30 26394 H 2591.71 -0.209975 5.26181 0
M  V30 26395 H 2594.2 0.25344 3.77049 0
M  V30 26396 H 2594.52 1.14046 7.64339 0
M  V30 26397 H 2592.86 1.01877 6.87493 0
M  V30 26398 H 2596.05 0.397945 4.66405 0
M  V30 26399 H 2596.23 0.802206 6.43015 0
M  V30 26400 N 2589.63 -1.57583 -0.0233682 0
M  V30 26401 C 2590.86 -1.93514 -0.723597 0
M  V30 26402 C 2591.27 -0.848362 -1.69114 0
M  V30 26403 O 2590.61 0.183452 -1.82782 0
M  V30 26404 C 2590.67 -3.25285 -1.53069 0
M  V30 26405 C 2590.34 -4.51175 -0.727308 0
M  V30 26406 C 2591.34 -5.19894 -0.025101 0
M  V30 26407 C 2589.02 -4.97674 -0.680168 0
M  V30 26408 C 2591.01 -6.33394 0.713486 0
M  V30 26409 C 2588.7 -6.11068 0.0621597 0
M  V30 26410 C 2589.7 -6.78784 0.757741 0
M  V30 26411 O 2589.39 -7.90009 1.48801 0
M  V30 26412 H 2589.12 -0.643192 -0.208039 0
M  V30 26413 H 2591.67 -2.05393 0.016785 0
M  V30 26414 H 2589.9 -3.09748 -2.31502 0
M  V30 26415 H 2591.59 -3.465 -2.11407 0
M  V30 26416 H 2592.36 -4.84972 -0.0525151 0
M  V30 26417 H 2588.24 -4.44808 -1.21109 0
M  V30 26418 H 2591.78 -6.86183 1.25695 0
M  V30 26419 H 2587.68 -6.45435 0.0914768 0
M  V30 26420 H 2588.45 -8.06398 1.40228 0
M  V30 26421 N 2591.11 0.29574 -1.548 0
M  V30 26422 C 2592.04 1.36955 -1.89118 0
M  V30 26423 C 2593.02 1.52643 -0.750617 0
M  V30 26424 O 2594.21 1.66063 -1.00681 0
M  V30 26425 C 2591.34 2.73291 -2.14311 0
M  V30 26426 C 2590.29 2.72363 -3.30155 0
M  V30 26427 C 2589.62 4.12036 -3.40779 0
M  V30 26428 C 2590.92 2.33638 -4.6713 0
M  V30 26429 H 2592.61 1.08483 -2.79055 0
M  V30 26430 H 2590.16 0.52042 -1.34267 0
M  V30 26431 H 2592.11 3.48503 -2.36904 0
M  V30 26432 H 2590.83 3.03299 -1.2115 0
M  V30 26433 H 2589.49 1.99607 -3.07494 0
M  V30 26434 H 2589.14 4.3923 -2.45125 0
M  V30 26435 H 2588.84 4.12315 -4.18653 0
M  V30 26436 H 2590.36 4.8902 -3.65638 0
M  V30 26437 H 2591.78 2.98567 -4.89419 0
M  V30 26438 H 2590.17 2.4512 -5.47756 0
M  V30 26439 H 2591.24 1.28764 -4.67491 0
M  V30 26440 N 2592.59 1.47346 0.559187 0
M  V30 26441 C 2593.5 1.62314 1.69386 0
M  V30 26442 C 2594.51 0.506022 1.66479 0
M  V30 26443 O 2595.69 0.773295 1.85963 0
M  V30 26444 C 2592.75 1.63191 3.05892 0
M  V30 26445 C 2591.82 2.86313 3.1988 0
M  V30 26446 C 2591.05 2.87139 4.49874 0
M  V30 26447 O 2591.27 1.97239 5.35213 0
M  V30 26448 O 2590.21 3.78976 4.67612 0
M  V30 26449 H 2594.03 2.5832 1.59701 0
M  V30 26450 H 2591.62 1.30409 0.728966 0
M  V30 26451 H 2593.5 1.66458 3.8713 0
M  V30 26452 H 2592.17 0.703506 3.15963 0
M  V30 26453 H 2591.08 2.88591 2.38046 0
M  V30 26454 H 2592.41 3.78441 3.14712 0
M  V30 26455 N 2594.07 -0.805758 1.35445 0
M  V30 26456 C 2595.34 -1.54985 1.19328 0
M  V30 26457 C 2595.72 -2.09873 -0.227257 0
M  V30 26458 O 2595.07 -1.92514 -1.23087 0
M  V30 26459 C 2595.28 -2.65771 2.262 0
M  V30 26460 C 2596.63 -3.34089 2.62049 0
M  V30 26461 O 2597.65 -2.76042 2.2512 0
M  V30 26462 O 2596.51 -4.38953 3.2555 0
M  V30 26463 H 2593.61 -0.684815 0.463635 0
M  V30 26464 H 2596.15 -0.845648 1.47129 0
M  V30 26465 H 2594.92 -2.2309 3.21475 0
M  V30 26466 H 2594.55 -3.43826 1.99673 0
M  V30 26467 N 2595.54 -1.19456 -1.02801 0
M  V30 26468 C 2596.49 -0.933083 -2.11098 0
M  V30 26469 C 2597.46 0.132418 -1.65571 0
M  V30 26470 O 2598.65 -0.0099093 -1.90797 0
M  V30 26471 C 2595.79 -0.478807 -3.41762 0
M  V30 26472 C 2594.9 -1.61117 -4.00831 0
M  V30 26473 C 2594.03 -1.10834 -5.19509 0
M  V30 26474 C 2593.07 -2.21455 -5.70635 0
M  V30 26475 N 2592.21 -1.72473 -6.80586 0
M  V30 26476 H 2597.05 -1.86032 -2.32801 0
M  V30 26477 H 2594.59 -0.927461 -1.14178 0
M  V30 26478 H 2596.54 -0.196819 -4.16735 0
M  V30 26479 H 2595.17 0.411437 -3.20167 0
M  V30 26480 H 2594.23 -2.00835 -3.23063 0
M  V30 26481 H 2595.54 -2.44457 -4.3479 0
M  V30 26482 H 2594.69 -0.781639 -6.01644 0
M  V30 26483 H 2593.43 -0.244691 -4.87086 0
M  V30 26484 H 2592.44 -2.54955 -4.87112 0
M  V30 26485 H 2593.66 -3.08278 -6.05097 0
M  V30 26486 H 2591.61 -0.884171 -6.50014 0
M  V30 26487 H 2591.52 -2.49401 -7.13677 0
M  V30 26488 H 2592.79 -1.42768 -7.66314 0
M  V30 26489 N 2597.02 1.21924 -0.998617 0
M  V30 26490 C 2597.98 2.22286 -0.558718 0
M  V30 26491 C 2598.98 1.56684 0.361498 0
M  V30 26492 O 2600.17 1.7353 0.152665 0
M  V30 26493 C 2597.31 3.40389 0.18655 0
M  V30 26494 H 2598.5 2.62718 -1.44634 0
M  V30 26495 H 2596.05 1.35074 -0.786437 0
M  V30 26496 H 2596.79 3.05437 1.0899 0
M  V30 26497 H 2596.57 3.89221 -0.474257 0
M  V30 26498 H 2598.06 4.14806 0.482294 0
M  V30 26499 N 2598.5 0.772537 1.37367 0
M  V30 26500 C 2599.43 0.117542 2.28898 0
M  V30 26501 C 2600.44 -0.663379 1.48671 0
M  V30 26502 O 2601.63 -0.501341 1.71315 0
M  V30 26503 C 2598.73 -0.857135 3.27882 0
M  V30 26504 C 2597.91 -0.129861 4.37207 0
M  V30 26505 C 2596.97 -1.01802 5.16258 0
M  V30 26506 O 2595.99 -0.481501 5.6716 0
M  V30 26507 N 2597.19 -2.3442 5.31063 0
M  V30 26508 H 2599.96 0.903712 2.8575 0
M  V30 26509 H 2597.52 0.624956 1.49352 0
M  V30 26510 H 2599.51 -1.45475 3.77649 0
M  V30 26511 H 2598.08 -1.54427 2.71792 0
M  V30 26512 H 2597.3 0.648673 3.88826 0
M  V30 26513 H 2598.59 0.372648 5.07434 0
M  V30 26514 H 2597.99 -2.80444 4.91292 0
M  V30 26515 H 2596.54 -2.89187 5.84136 0
M  V30 26516 N 2599.98 -1.48664 0.523142 0
M  V30 26517 C 2600.89 -2.33292 -0.247365 0
M  V30 26518 C 2601.9 -1.46054 -0.945743 0
M  V30 26519 O 2603.08 -1.79045 -0.922221 0
M  V30 26520 C 2600.14 -3.22015 -1.28481 0
M  V30 26521 C 2599.21 -4.25121 -0.597517 0
M  V30 26522 C 2598.44 -5.09604 -1.58554 0
M  V30 26523 O 2598.66 -4.95954 -2.81754 0
M  V30 26524 O 2597.6 -5.91223 -1.12869 0
M  V30 26525 H 2601.42 -3.00408 0.445922 0
M  V30 26526 H 2599.01 -1.46673 0.284154 0
M  V30 26527 H 2600.89 -3.76914 -1.88452 0
M  V30 26528 H 2599.56 -2.57567 -1.96063 0
M  V30 26529 H 2598.47 -3.74076 0.0425064 0
M  V30 26530 H 2599.8 -4.92187 0.0362382 0
M  V30 26531 N 2601.46 -0.257958 -1.55475 0
M  V30 26532 C 2602.39 0.630873 -2.24816 0
M  V30 26533 C 2603.37 1.17257 -1.23226 0
M  V30 26534 O 2604.55 1.20988 -1.51906 0
M  V30 26535 C 2601.68 1.82293 -2.95612 0
M  V30 26536 C 2600.64 1.41352 -4.03985 0
M  V30 26537 C 2599.96 2.6873 -4.62264 0
M  V30 26538 C 2601.26 0.576389 -5.1911 0
M  V30 26539 H 2602.96 0.0526351 -2.99354 0
M  V30 26540 H 2600.5 0.0238757 -1.4398 0
M  V30 26541 H 2602.45 2.45047 -3.42826 0
M  V30 26542 H 2601.18 2.42672 -2.18581 0
M  V30 26543 H 2599.84 0.809261 -3.57556 0
M  V30 26544 H 2599.49 3.27331 -3.81921 0
M  V30 26545 H 2599.19 2.42055 -5.35428 0
M  V30 26546 H 2600.71 3.32363 -5.12218 0
M  V30 26547 H 2602.12 1.10851 -5.62481 0
M  V30 26548 H 2600.52 0.405246 -5.9873 0
M  V30 26549 H 2601.59 -0.408861 -4.83173 0
M  V30 26550 N 2602.93 1.57593 0.0150108 0
M  V30 26551 C 2603.9 2.0643 0.99596 0
M  V30 26552 C 2604.9 0.970926 1.28178 0
M  V30 26553 O 2606.09 1.23409 1.22947 0
M  V30 26554 C 2603.22 2.49311 2.32502 0
M  V30 26555 H 2604.41 2.94359 0.573822 0
M  V30 26556 H 2601.97 1.54086 0.262159 0
M  V30 26557 H 2602.7 1.6458 2.79435 0
M  V30 26558 H 2602.49 3.29149 2.13081 0
M  V30 26559 H 2603.98 2.87473 3.02901 0
M  V30 26560 N 2604.41 -0.287527 1.54955 0
M  V30 26561 C 2605.83 -0.633938 1.4647 0
M  V30 26562 C 2606.03 -1.90144 0.666898 0
M  V30 26563 O 2605.08 -2.51858 0.17995 0
M  V30 26564 C 2606.4 -0.774402 2.90557 0
M  V30 26565 C 2607.95 -0.86941 3.00683 0
M  V30 26566 C 2608.42 -1.04177 4.45995 0
M  V30 26567 N 2609.91 -1.10764 4.49762 0
M  V30 26568 C 2610.65 -1.25954 5.59395 0
M  V30 26569 N 2610.14 -1.37956 6.78926 0
M  V30 26570 N 2611.94 -1.2895 5.47109 0
M  V30 26571 H 2604.09 0.545077 2.05287 0
M  V30 26572 H 2606.35 0.182325 0.930302 0
M  V30 26573 H 2606.06 0.0862688 3.51594 0
M  V30 26574 H 2605.93 -1.65924 3.38746 0
M  V30 26575 H 2608.32 -1.72056 2.39752 0
M  V30 26576 H 2608.4 0.0397281 2.55769 0
M  V30 26577 H 2608.04 -0.195333 5.07524 0
M  V30 26578 H 2607.97 -1.96533 4.88551 0
M  V30 26579 H 2610.46 -1.02788 3.63652 0
M  V30 26580 H 2610.78 -1.4934 7.58233 0
M  V30 26581 H 2609.12 -1.34987 6.81765 0
M  V30 26582 H 2612.31 -1.19194 4.5267 0
M  V30 26583 H 2612.48 -1.40444 6.32597 0
M  V30 26584 N 2605.89 -1.47641 -0.551365 0
M  V30 26585 C 2606.82 -1.63448 -1.66755 0
M  V30 26586 C 2607.8 -0.48377 -1.63076 0
M  V30 26587 O 2608.99 -0.713802 -1.80606 0
M  V30 26588 C 2606.12 -1.65401 -3.05384 0
M  V30 26589 C 2605.07 -2.79758 -3.23913 0
M  V30 26590 C 2604.4 -2.66787 -4.63388 0
M  V30 26591 C 2605.7 -4.21289 -3.08727 0
M  V30 26592 H 2607.39 -2.56888 -1.53781 0
M  V30 26593 H 2604.94 -1.23627 -0.738394 0
M  V30 26594 H 2606.89 -1.7505 -3.83322 0
M  V30 26595 H 2605.61 -0.685251 -3.1933 0
M  V30 26596 H 2604.27 -2.69629 -2.48386 0
M  V30 26597 H 2603.92 -1.67926 -4.74141 0
M  V30 26598 H 2603.62 -3.4351 -4.76734 0
M  V30 26599 H 2605.14 -2.78373 -5.43453 0
M  V30 26600 H 2606.56 -4.32364 -3.76476 0
M  V30 26601 H 2604.96 -4.98844 -3.33579 0
M  V30 26602 H 2606.03 -4.39247 -2.05402 0
M  V30 26603 N 2607.37 0.798563 -1.3587 0
M  V30 26604 C 2608.28 1.94226 -1.31581 0
M  V30 26605 C 2609.29 1.72611 -0.219421 0
M  V30 26606 O 2610.47 1.96304 -0.450201 0
M  V30 26607 C 2607.54 3.28942 -1.09534 0
M  V30 26608 C 2606.6 3.63398 -2.28562 0
M  V30 26609 C 2605.83 4.91686 -2.07558 0
M  V30 26610 O 2606.05 5.60725 -1.04609 0
M  V30 26611 O 2604.99 5.24586 -2.95115 0
M  V30 26612 H 2608.81 2.00792 -2.27851 0
M  V30 26613 H 2606.4 0.937505 -1.16324 0
M  V30 26614 H 2608.28 4.09577 -0.991199 0
M  V30 26615 H 2606.95 3.23288 -0.163207 0
M  V30 26616 H 2605.86 2.83107 -2.44543 0
M  V30 26617 H 2607.19 3.73766 -3.2025 0
M  V30 26618 N 2608.85 1.19999 1.02166 0
M  V30 26619 C 2610.09 1.00507 1.75336 0
M  V30 26620 C 2610.42 -0.464473 1.89388 0
M  V30 26621 O 2609.69 -1.33605 1.43271 0
M  V30 26622 H 2608.27 0.368896 0.649557 0
M  V30 26623 H 2610.93 1.51021 1.23202 0
M  V30 26624 H 2610.02 1.45917 2.75889 0
M  V30 26625 N 2610.32 -1.21392 1.00507 0
M  V30 26626 C 2611.23 -2.27448 0.574846 0
M  V30 26627 C 2612.25 -1.69751 -0.382176 0
M  V30 26628 O 2613.43 -1.99892 -0.245992 0
M  V30 26629 C 2610.49 -3.46579 -0.0916805 0
M  V30 26630 C 2609.55 -4.19548 0.909831 0
M  V30 26631 C 2608.79 -5.32991 0.275017 0
M  V30 26632 O 2609.01 -5.62798 -0.928155 0
M  V30 26633 O 2607.94 -5.93769 0.985982 0
M  V30 26634 H 2611.77 -2.66441 1.45749 0
M  V30 26635 H 2609.35 -1.27791 0.773946 0
M  V30 26636 H 2611.24 -4.18832 -0.464477 0
M  V30 26637 H 2609.91 -3.09486 -0.9487 0
M  V30 26638 H 2608.82 -3.49515 1.33379 0
M  V30 26639 H 2610.15 -4.60552 1.73644 0
M  V30 26640 N 2611.8 -0.779811 -1.36955 0
M  V30 26641 C 2613.05 -0.348316 -1.99786 0
M  V30 26642 C 2613.38 1.07462 -1.61758 0
M  V30 26643 O 2612.66 1.74074 -0.867669 0
M  V30 26644 C 2612.94 -0.501102 -3.56596 0
M  V30 26645 C 2612.79 -1.96704 -4.04509 0
M  V30 26646 C 2614.11 0.0897324 -4.40009 0
M  V30 26647 H 2611.23 -0.128034 -0.725794 0
M  V30 26648 H 2613.87 -0.98436 -1.62513 0
M  V30 26649 H 2612.02 0.0403664 -3.88479 0
M  V30 26650 H 2613.69 -2.56883 -3.83156 0
M  V30 26651 H 2611.94 -2.47303 -3.56404 0
M  V30 26652 H 2612.61 -2.02495 -5.13517 0
M  V30 26653 H 2615.08 -0.372366 -4.14431 0
M  V30 26654 H 2613.96 -0.047257 -5.4888 0
M  V30 26655 H 2614.22 1.18088 -4.26037 0
M  V30 26656 N 2613.28 1.48384 -0.531019 0
M  V30 26657 C 2614.7 1.58478 -0.188946 0
M  V30 26658 C 2614.9 1.5329 1.30783 0
M  V30 26659 O 2613.95 1.42252 2.08616 0
M  V30 26660 C 2615.27 2.90072 -0.792394 0
M  V30 26661 C 2616.81 3.03602 -0.761223 0
M  V30 26662 C 2617.29 4.37859 -1.34327 0
M  V30 26663 N 2618.78 4.44428 -1.30528 0
M  V30 26664 C 2619.51 5.46821 -1.72552 0
M  V30 26665 N 2619.01 6.56163 -2.2231 0
M  V30 26666 N 2620.8 5.3771 -1.63783 0
M  V30 26667 H 2612.95 1.49999 -1.5038 0
M  V30 26668 H 2615.22 0.712295 -0.625571 0
M  V30 26669 H 2614.92 2.99526 -1.84328 0
M  V30 26670 H 2614.8 3.76232 -0.270092 0
M  V30 26671 H 2617.18 2.9376 0.280905 0
M  V30 26672 H 2617.27 2.19051 -1.321 0
M  V30 26673 H 2616.91 4.48455 -2.38433 0
M  V30 26674 H 2616.84 5.21099 -0.759156 0
M  V30 26675 H 2619.33 3.65996 -0.941038 0
M  V30 26676 H 2619.64 7.30431 -2.52369 0
M  V30 26677 H 2617.99 6.57123 -2.26305 0
M  V30 26678 H 2621.18 4.51183 -1.24706 0
M  V30 26679 H 2621.35 6.17375 -1.96854 0
M  V30 26680 N 2614.76 0.2662 1.55336 0
M  V30 26681 C 2615.98 -0.359625 2.04258 0
M  V30 26682 C 2616.41 -1.49342 1.14362 0
M  V30 26683 O 2615.77 -1.80756 0.1404 0
M  V30 26684 C 2615.81 -0.826573 3.50999 0
M  V30 26685 O 2614.92 -1.93459 3.64208 0
M  V30 26686 H 2614.26 -0.0757154 0.659669 0
M  V30 26687 H 2616.79 0.397896 2.00694 0
M  V30 26688 H 2616.8 -1.1247 3.92192 0
M  V30 26689 H 2615.47 0.00300343 4.159 0
M  V30 26690 H 2614.05 -1.63969 3.34916 0
M  V30 26691 N 2616.24 -1.57599 -0.0066531 0
M  V30 26692 C 2617.17 -2.11038 -0.999259 0
M  V30 26693 C 2618.15 -1.01798 -1.36276 0
M  V30 26694 O 2619.33 -1.29445 -1.44768 0
M  V30 26695 C 2616.46 -2.60822 -2.29323 0
M  V30 26696 C 2615.42 -3.74529 -2.07153 0
M  V30 26697 C 2614.74 -4.10602 -3.42505 0
M  V30 26698 C 2616.04 -5.02071 -1.4395 0
M  V30 26699 H 2617.74 -2.94224 -0.55433 0
M  V30 26700 H 2615.28 -1.41537 -0.265197 0
M  V30 26701 H 2617.24 -2.96833 -2.99112 0
M  V30 26702 H 2615.96 -1.7475 -2.75917 0
M  V30 26703 H 2614.62 -3.38901 -1.39791 0
M  V30 26704 H 2614.27 -3.21563 -3.8679 0
M  V30 26705 H 2613.97 -4.87205 -3.28489 0
M  V30 26706 H 2615.49 -4.49167 -4.1362 0
M  V30 26707 H 2616.9 -5.35896 -2.03686 0
M  V30 26708 H 2615.3 -5.83435 -1.40442 0
M  V30 26709 H 2616.37 -4.83181 -0.407908 0
M  V30 26710 N 2617.72 0.279305 -1.55105 0
M  V30 26711 C 2618.65 1.34942 -1.90559 0
M  V30 26712 C 2619.63 1.51838 -0.766765 0
M  V30 26713 O 2620.81 1.64986 -1.02437 0
M  V30 26714 C 2617.94 2.71002 -2.17198 0
M  V30 26715 C 2616.9 2.68845 -3.33026 0
M  V30 26716 C 2616.22 4.08399 -3.4513 0
M  V30 26717 C 2617.52 2.2867 -4.69582 0
M  V30 26718 H 2619.22 1.05517 -2.8019 0
M  V30 26719 H 2616.76 0.50615 -1.34811 0
M  V30 26720 H 2618.71 3.45971 -2.40587 0
M  V30 26721 H 2617.44 3.01997 -1.2436 0
M  V30 26722 H 2616.1 1.96335 -3.09594 0
M  V30 26723 H 2615.75 4.36605 -2.4977 0
M  V30 26724 H 2615.45 4.07852 -4.23002 0
M  V30 26725 H 2616.97 4.85115 -3.70805 0
M  V30 26726 H 2618.38 2.93359 -4.92558 0
M  V30 26727 H 2616.78 2.39296 -5.50325 0
M  V30 26728 H 2617.85 1.23798 -4.6883 0
M  V30 26729 N 2619.19 1.47931 0.543528 0
M  V30 26730 C 2620.14 1.61443 1.64939 0
M  V30 26731 C 2621.11 0.456931 1.59691 0
M  V30 26732 O 2622.3 0.678719 1.7832 0
M  V30 26733 C 2619.44 1.64749 3.03236 0
M  V30 26734 C 2618.55 2.91512 3.18818 0
M  V30 26735 C 2617.68 2.86065 4.47594 0
M  V30 26736 C 2616.72 4.07592 4.56657 0
M  V30 26737 N 2615.86 4.00302 5.76804 0
M  V30 26738 H 2620.7 2.55886 1.52729 0
M  V30 26739 H 2618.24 1.26911 0.743778 0
M  V30 26740 H 2620.19 1.64648 3.83336 0
M  V30 26741 H 2618.82 0.738072 3.14249 0
M  V30 26742 H 2617.88 3.01418 2.32059 0
M  V30 26743 H 2619.19 3.81468 3.21377 0
M  V30 26744 H 2618.34 2.8429 5.3597 0
M  V30 26745 H 2617.08 1.93815 4.47535 0
M  V30 26746 H 2616.09 4.09657 3.6669 0
M  V30 26747 H 2617.31 5.00986 4.58465 0
M  V30 26748 H 2615.26 3.10863 5.77668 0
M  V30 26749 H 2615.17 4.8395 5.808 0
M  V30 26750 H 2616.44 4.02564 6.67504 0
M  V30 26751 N 2620.67 -0.791347 1.36292 0
M  V30 26752 C 2621.95 -1.5371 1.20965 0
M  V30 26753 C 2622.33 -2.10102 -0.204984 0
M  V30 26754 O 2621.68 -1.93809 -1.21038 0
M  V30 26755 C 2621.89 -2.63357 2.29006 0
M  V30 26756 C 2623.23 -3.31291 2.65578 0
M  V30 26757 O 2624.26 -2.73639 2.28035 0
M  V30 26758 O 2623.12 -4.35475 3.30188 0
M  V30 26759 H 2620.21 -0.679859 0.470872 0
M  V30 26760 H 2622.76 -0.829995 1.48017 0
M  V30 26761 H 2621.53 -2.19668 3.23823 0
M  V30 26762 H 2621.15 -3.41689 2.03309 0
M  V30 26763 N 2622.15 -1.2054 -1.01528 0
M  V30 26764 C 2623.4 -1.0106 -1.74556 0
M  V30 26765 C 2623.71 0.457723 -1.90169 0
M  V30 26766 O 2624.92 0.771676 -2.60303 0
M  V30 26767 C 2623.37 -1.75946 -3.1396 0
M  V30 26768 C 2622.98 -3.2688 -3.06355 0
M  V30 26769 C 2624.73 -1.64839 -3.91188 0
M  V30 26770 C 2622.63 -3.94299 -4.40775 0
M  V30 26771 H 2621.56 -0.374517 -0.654411 0
M  V30 26772 H 2624.21 -1.44173 -1.13518 0
M  V30 26773 H 2622.6 -1.2562 -3.75547 0
M  V30 26774 H 2623.77 -3.8443 -2.54068 0
M  V30 26775 H 2622.08 -3.38415 -2.42619 0
M  V30 26776 H 2624.68 -2.12548 -4.9064 0
M  V30 26777 H 2625.02 -0.604818 -4.11883 0
M  V30 26778 H 2625.56 -2.12585 -3.36233 0
M  V30 26779 H 2622.3 -4.98813 -4.25283 0
M  V30 26780 H 2621.82 -3.41538 -4.93064 0
M  V30 26781 H 2623.5 -3.98626 -5.09614 0
M  V30 26782 N 2623.63 1.20858 -1.01149 0
M  V30 26783 C 2624.85 1.94622 -0.716732 0
M  V30 26784 C 2625.28 1.73965 0.715384 0
M  V30 26785 O 2624.64 1.03065 1.49155 0
M  V30 26786 C 2624.68 3.44933 -1.05136 0
M  V30 26787 O 2623.79 4.12089 -0.160204 0
M  V30 26788 H 2623.13 0.60821 -0.266415 0
M  V30 26789 H 2625.66 1.53433 -1.35349 0
M  V30 26790 H 2625.67 3.95532 -1.00093 0
M  V30 26791 H 2624.34 3.59291 -2.09482 0
M  V30 26792 H 2622.92 3.71938 -0.267722 0
M  V30 26793 N 2625.11 0.787064 1.3654 0
M  V30 26794 C 2626.04 0.141813 2.28761 0
M  V30 26795 C 2627.05 -0.647573 1.49366 0
M  V30 26796 O 2628.24 -0.483143 1.71837 0
M  V30 26797 C 2625.34 -0.82231 3.28772 0
M  V30 26798 C 2624.51 -0.0834825 4.3732 0
M  V30 26799 C 2623.57 -0.963205 5.17309 0
M  V30 26800 O 2622.6 -0.421319 5.67639 0
M  V30 26801 N 2623.8 -2.28774 5.33519 0
M  V30 26802 H 2626.56 0.933969 2.84776 0
M  V30 26803 H 2624.13 0.640761 1.4868 0
M  V30 26804 H 2626.12 -1.41462 3.79171 0
M  V30 26805 H 2624.69 -1.51536 2.73415 0
M  V30 26806 H 2623.91 0.689877 3.88116 0
M  V30 26807 H 2625.2 0.426447 5.0701 0
M  V30 26808 H 2624.59 -2.75217 4.94239 0
M  V30 26809 H 2623.15 -2.82975 5.8717 0
M  V30 26810 N 2626.58 -1.48101 0.53888 0
M  V30 26811 C 2627.53 -2.29759 -0.219001 0
M  V30 26812 C 2628.5 -1.37924 -0.925538 0
M  V30 26813 O 2629.69 -1.66888 -0.924826 0
M  V30 26814 C 2626.83 -3.21492 -1.25447 0
M  V30 26815 C 2625.94 -4.28409 -0.555868 0
M  V30 26816 C 2625.07 -5.07313 -1.57503 0
M  V30 26817 C 2624.11 -6.06023 -0.860391 0
M  V30 26818 N 2623.25 -6.77952 -1.82552 0
M  V30 26819 H 2628.09 -2.94051 0.483501 0
M  V30 26820 H 2625.63 -1.44955 0.250272 0
M  V30 26821 H 2627.58 -3.73083 -1.86721 0
M  V30 26822 H 2626.21 -2.59103 -1.92524 0
M  V30 26823 H 2625.27 -3.80015 0.171005 0
M  V30 26824 H 2626.58 -4.988 0.00483384 0
M  V30 26825 H 2625.73 -5.62963 -2.26181 0
M  V30 26826 H 2624.47 -4.36781 -2.16964 0
M  V30 26827 H 2623.48 -5.49568 -0.15959 0
M  V30 26828 H 2624.7 -6.78556 -0.271777 0
M  V30 26829 H 2622.65 -6.10165 -2.40904 0
M  V30 26830 H 2622.56 -7.44449 -1.31649 0
M  V30 26831 H 2623.83 -7.38187 -2.50401 0
M  V30 26832 N 2628.06 -0.274434 -1.55192 0
M  V30 26833 C 2629.31 0.343051 -1.99877 0
M  V30 26834 C 2629.64 1.55555 -1.16259 0
M  V30 26835 O 2628.92 1.93105 -0.232496 0
M  V30 26836 C 2629.2 0.725903 -3.52708 0
M  V30 26837 C 2629.05 -0.493896 -4.4708 0
M  V30 26838 C 2630.37 1.5626 -4.11425 0
M  V30 26839 H 2627.49 0.123216 -0.726627 0
M  V30 26840 H 2630.13 -0.381243 -1.86136 0
M  V30 26841 H 2628.28 1.34301 -3.64548 0
M  V30 26842 H 2629.95 -1.13245 -4.47184 0
M  V30 26843 H 2628.2 -1.13208 -4.18768 0
M  V30 26844 H 2628.87 -0.182267 -5.51699 0
M  V30 26845 H 2631.34 1.04144 -4.02856 0
M  V30 26846 H 2630.22 1.7993 -5.18572 0
M  V30 26847 H 2630.48 2.54341 -3.61611 0
M  V30 26848 N 2629.54 1.576 -0.00170483 0
M  V30 26849 C 2630.5 2.07475 0.974009 0
M  V30 26850 C 2631.5 0.984466 1.27141 0
M  V30 26851 O 2632.69 1.24706 1.21631 0
M  V30 26852 C 2629.82 2.51763 2.29844 0
M  V30 26853 H 2631.02 2.94951 0.542569 0
M  V30 26854 H 2628.57 1.54355 0.245802 0
M  V30 26855 H 2629.31 1.67534 2.77674 0
M  V30 26856 H 2629.09 3.3139 2.09578 0
M  V30 26857 H 2630.58 2.9067 2.99835 0
M  V30 26858 N 2631.02 -0.271076 1.55251 0
M  V30 26859 C 2632.26 -1.00391 1.76209 0
M  V30 26860 C 2632.6 -1.85871 0.562636 0
M  V30 26861 O 2631.87 -1.89464 -0.439752 0
M  V30 26862 C 2632.15 -1.88484 3.06832 0
M  V30 26863 C 2632.01 -1.05984 4.37135 0
M  V30 26864 C 2633.33 -2.8716 3.33508 0
M  V30 26865 H 2630.45 -0.363551 0.641093 0
M  V30 26866 H 2633.09 -0.276156 1.87982 0
M  V30 26867 H 2631.24 -2.50535 2.96925 0
M  V30 26868 H 2632.91 -0.459898 4.59002 0
M  V30 26869 H 2631.15 -0.363367 4.32275 0
M  V30 26870 H 2631.82 -1.70946 5.24863 0
M  V30 26871 H 2634.3 -2.35244 3.4322 0
M  V30 26872 H 2633.18 -3.45939 4.26166 0
M  V30 26873 H 2633.44 -3.62383 2.53241 0
M  V30 26874 N 2632.5 -1.48217 -0.535675 0
M  V30 26875 C 2633.73 -1.59365 -1.31478 0
M  V30 26876 C 2634.13 -0.250877 -1.87529 0
M  V30 26877 O 2633.48 0.769145 -1.66823 0
M  V30 26878 C 2633.54 -2.57637 -2.50726 0
M  V30 26879 C 2633.2 -4.02837 -2.15804 0
M  V30 26880 C 2634.2 -4.90689 -1.71813 0
M  V30 26881 C 2631.89 -4.48333 -2.26502 0
M  V30 26882 C 2633.88 -6.22064 -1.38979 0
M  V30 26883 C 2631.57 -5.7973 -1.93279 0
M  V30 26884 C 2632.56 -6.66418 -1.49588 0
M  V30 26885 O 2632.25 -7.9537 -1.16798 0
M  V30 26886 H 2631.98 -0.54027 -0.406305 0
M  V30 26887 H 2634.54 -1.94726 -0.653535 0
M  V30 26888 H 2632.77 -2.17386 -3.19813 0
M  V30 26889 H 2634.46 -2.5868 -3.12793 0
M  V30 26890 H 2635.22 -4.5678 -1.63023 0
M  V30 26891 H 2631.1 -3.8105 -2.59465 0
M  V30 26892 H 2634.65 -6.89682 -1.04804 0
M  V30 26893 H 2630.54 -6.13176 -2.01708 0
M  V30 26894 H 2631.31 -8.08071 -1.30245 0
M  V30 26895 N 2633.97 0.784108 -1.3671 0
M  V30 26896 C 2635.2 1.57817 -1.34568 0
M  V30 26897 C 2635.62 1.87972 0.0694927 0
M  V30 26898 O 2634.98 1.48295 1.04299 0
M  V30 26899 C 2635.03 2.87276 -2.17957 0
M  V30 26900 O 2634.13 3.81111 -1.5757 0
M  V30 26901 H 2633.48 0.478516 -0.460346 0
M  V30 26902 H 2636.01 0.971463 -1.80066 0
M  V30 26903 H 2636.02 3.36496 -2.30727 0
M  V30 26904 H 2634.69 2.64655 -3.20828 0
M  V30 26905 H 2633.27 3.39719 -1.5377 0
M  V30 26906 N 2635.45 1.21076 1.00888 0
M  V30 26907 C 2636.68 1.05148 1.78189 0
M  V30 26908 C 2637.1 -0.398919 1.84537 0
M  V30 26909 O 2636.45 -1.27685 1.30395 0
M  V30 26910 C 2636.5 1.63752 3.22285 0
M  V30 26911 O 2636.22 3.03117 3.1631 0
M  V30 26912 C 2637.73 1.52882 4.16103 0
M  V30 26913 H 2634.95 0.369464 0.560123 0
M  V30 26914 H 2637.49 1.60331 1.26942 0
M  V30 26915 H 2635.64 1.12671 3.70654 0
M  V30 26916 H 2636.06 3.31066 4.06811 0
M  V30 26917 H 2637.53 1.98635 5.15022 0
M  V30 26918 H 2638.01 0.482598 4.36541 0
M  V30 26919 H 2638.62 2.03191 3.73622 0
M  V30 26920 N 2636.93 -1.2032 1.01789 0
M  V30 26921 C 2638.17 -1.91429 0.716527 0
M  V30 26922 C 2638.53 -1.77153 -0.740321 0
M  V30 26923 O 2639.74 -2.42756 -1.15426 0
M  V30 26924 C 2638.01 -3.38672 1.14175 0
M  V30 26925 S 2639.57 -4.28112 0.962557 0
M  V30 26926 H 2636.38 -0.661288 0.261187 0
M  V30 26927 H 2638.99 -1.4553 1.30542 0
M  V30 26928 H 2637.69 -3.46584 2.1979 0
M  V30 26929 H 2637.22 -3.89597 0.545689 0
M  V30 26930 H 2639.24 -4.96021 -0.133166 0
M  V30 26931 N 2638.41 -0.794293 -1.3612 0
M  V30 26932 C 2639.34 -0.210369 -2.3255 0
M  V30 26933 C 2640.32 0.657359 -1.56885 0
M  V30 26934 O 2641.5 0.590174 -1.85015 0
M  V30 26935 C 2638.63 0.651759 -3.4113 0
M  V30 26936 C 2637.59 -0.11647 -4.27841 0
M  V30 26937 C 2636.91 0.866567 -5.27631 0
M  V30 26938 C 2638.21 -1.30846 -5.05645 0
M  V30 26939 H 2639.91 -1.01599 -2.81635 0
M  V30 26940 H 2637.45 -0.490005 -1.35407 0
M  V30 26941 H 2639.41 1.07023 -4.07583 0
M  V30 26942 H 2638.13 1.49013 -2.90624 0
M  V30 26943 H 2636.79 -0.515979 -3.62951 0
M  V30 26944 H 2636.44 1.70011 -4.73398 0
M  V30 26945 H 2636.14 0.356947 -5.86515 0
M  V30 26946 H 2637.66 1.28351 -5.96958 0
M  V30 26947 H 2639.08 -0.965492 -5.65112 0
M  V30 26948 H 2637.47 -1.75171 -5.73964 0
M  V30 26949 H 2638.54 -2.10136 -4.37002 0
M  V30 26950 O 2639.93 1.46117 -0.68791 0
M  V30 26951 H 2640.62 1.92398 -0.224212 0
M  V30 END ATOM
M  V30 BEGIN BOND
M  V30 END BOND
M  V30 END CTAB
M  END
$$$$
