drugbank_target|P07919 Cytochrome b-c1 complex subunit 6, mitochondrial (DB04141; DB04799; DB07401; DB07763; DB07778; DB08330; DB08453; DB08690)
 OpenBabel12092120423D

  0  0  0     0  0            999 V3000
M  V30 BEGIN CTAB
M  V30 COUNTS 1442 1450 0 0 0
M  V30 BEGIN ATOM
M  V30 1 H -0.908 1.98254 -0.117106 0
M  V30 2 N 0 1.576 0 0
M  V30 3 C 0.933 2.03868 1.02534 0
M  V30 4 C 1.911 0.928543 1.3348 0
M  V30 5 O 3.095 1.19667 1.45644 0
M  V30 6 C 0.222 2.43627 2.35294 0
M  V30 7 C -0.732 3.65373 2.2001 0
M  V30 8 S 0.101 5.13292 1.52614 0
M  V30 9 C 1.257 5.56322 2.86805 0
M  V30 10 H 1.49 2.90518 0.631377 0
M  V30 11 H -0.977 1.52953 0.210867 0
M  V30 12 H 0.981 2.67203 3.11629 0
M  V30 13 H -0.358 1.57376 2.7183 0
M  V30 14 H -1.165 3.90944 3.18086 0
M  V30 15 H -1.563 3.418 1.51819 0
M  V30 16 H 0.729 5.58782 3.83104 0
M  V30 17 H 1.672 6.56266 2.65933 0
M  V30 18 H 2.08 4.83886 2.90714 0
M  V30 19 N 1.4781 -0.272755 1.55222 0
M  V30 20 C 2.7261 -1.00234 1.75492 0
M  V30 21 C 3.0471 -1.8681 0.5592 0
M  V30 22 O 2.3171 -1.91215 -0.425882 0
M  V30 23 H 0.8971 -0.373076 0.647166 0
M  V30 24 H 3.5591 -0.296926 1.92625 0
M  V30 25 H 2.6551 -1.63913 2.65592 0
M  V30 26 N 2.9562 -1.48159 -0.537278 0
M  V30 27 C 3.8862 -1.65029 -1.6519 0
M  V30 28 C 4.8672 -0.499281 -1.62607 0
M  V30 29 O 6.0522 -0.730972 -1.79918 0
M  V30 30 C 3.1822 -1.68303 -3.03795 0
M  V30 31 C 2.1362 -2.8283 -3.21234 0
M  V30 32 C 1.4622 -2.71189 -4.60826 0
M  V30 33 C 2.7622 -4.24211 -3.04701 0
M  V30 34 H 4.4562 -2.58341 -1.51328 0
M  V30 35 H 2.0022 -1.24325 -0.726585 0
M  V30 36 H 3.9552 -1.78693 -3.81637 0
M  V30 37 H 2.6792 -0.715635 -3.18663 0
M  V30 38 H 1.3382 -2.71983 -2.45807 0
M  V30 39 H 0.9862 -1.72435 -4.7252 0
M  V30 40 H 0.6862 -3.48035 -4.7344 0
M  V30 41 H 2.2102 -2.83537 -5.40777 0
M  V30 42 H 3.6242 -4.3593 -3.72341 0
M  V30 43 H 2.0212 -5.01998 -3.28813 0
M  V30 44 H 3.0912 -4.41184 -2.01209 0
M  V30 45 N 4.4343 0.785586 -1.36625 0
M  V30 46 C 5.3443 1.92964 -1.33425 0
M  V30 47 C 6.3603 1.72394 -0.235851 0
M  V30 48 O 7.5363 1.95866 -0.468878 0
M  V30 49 C 4.6013 3.27884 -1.12662 0
M  V30 50 C 3.6623 3.61204 -2.32013 0
M  V30 51 C 2.8953 4.89687 -2.12231 0
M  V30 52 O 3.1183 5.59704 -1.09945 0
M  V30 53 O 2.0523 5.21752 -3.00098 0
M  V30 54 H 5.8783 1.98613 -2.29753 0
M  V30 55 H 3.4633 0.926384 -1.17211 0
M  V30 56 H 5.3453 4.08614 -1.03016 0
M  V30 57 H 4.0203 3.23118 -0.193991 0
M  V30 58 H 2.9273 2.80765 -2.47228 0
M  V30 59 H 4.2603 3.70698 -3.23796 0
M  V30 60 N 5.9124 1.20967 1.01018 0
M  V30 61 C 7.1894 0.93264 1.71934 0
M  V30 62 C 7.5694 -0.55692 2.03621 0
M  V30 63 O 6.9174 -1.52035 1.7058 0
M  V30 64 C 7.1274 1.81233 2.98254 0
M  V30 65 C 8.4754 2.05804 3.71389 0
M  V30 66 O 9.4994 1.78539 3.08225 0
M  V30 67 O 8.3584 2.51888 4.84989 0
M  V30 68 H 5.4524 0.349272 0.749625 0
M  V30 69 H 7.9984 1.31871 1.06808 0
M  V30 70 H 6.7704 2.82067 2.71208 0
M  V30 71 H 6.3934 1.42674 3.7112 0
M  V30 72 N 7.3905 -1.2043 1.01659 0
M  V30 73 C 8.3005 -2.2689 0.596484 0
M  V30 74 C 9.3165 -1.70107 -0.36599 0
M  V30 75 O 10.4925 -2.00117 -0.226942 0
M  V30 76 C 7.5575 -3.4665 -0.0586659 0
M  V30 77 C 6.6185 -4.18662 0.949751 0
M  V30 78 C 5.8515 -5.32705 0.32577 0
M  V30 79 O 6.0745 -5.63656 -0.874509 0
M  V30 80 O 5.0085 -5.92803 1.04249 0
M  V30 81 H 8.8345 -2.65041 1.4828 0
M  V30 82 H 6.4195 -1.27048 0.786082 0
M  V30 83 H 8.3015 -4.19256 -0.424564 0
M  V30 84 H 6.9765 -3.10375 -0.91918 0
M  V30 85 H 5.8835 -3.48229 1.36702 0
M  V30 86 H 7.2165 -4.58878 1.78023 0
M  V30 87 N 8.8686 -0.792821 -1.36206 0
M  V30 88 C 9.8006 -0.151469 -2.28699 0
M  V30 89 C 10.8136 0.641262 -1.49638 0
M  V30 90 O 12.0026 0.475885 -1.72039 0
M  V30 91 C 9.1026 0.808424 -3.29117 0
M  V30 92 C 8.2756 0.0650202 -4.37352 0
M  V30 93 C 7.3346 0.941358 -5.17711 0
M  V30 94 O 6.3606 0.397352 -5.67811 0
M  V30 95 N 7.5626 2.2652 -5.3448 0
M  V30 96 H 10.3276 -0.945982 -2.84379 0
M  V30 97 H 7.8886 -0.647032 -1.48409 0
M  V30 98 H 9.8806 1.3986 -3.79765 0
M  V30 99 H 8.4506 1.5038 -2.74052 0
M  V30 100 H 7.6706 -0.706255 -3.87822 0
M  V30 101 H 8.9586 -0.447847 -5.06825 0
M  V30 102 H 8.3566 2.73128 -4.95396 0
M  V30 103 H 6.9136 2.80493 -5.88359 0
M  V30 104 N 10.3467 1.47872 -0.545128 0
M  V30 105 C 11.2937 2.29849 0.2093 0
M  V30 106 C 12.2637 1.38313 0.919707 0
M  V30 107 O 13.4487 1.67277 0.917772 0
M  V30 108 C 10.5887 3.22019 1.24088 0
M  V30 109 C 9.7017 4.2864 0.537778 0
M  V30 110 C 8.8367 5.07973 1.5536 0
M  V30 111 C 7.8757 6.06381 0.8348 0
M  V30 112 N 7.0127 6.78717 1.79688 0
M  V30 113 H 11.8527 2.93845 -0.49591 0
M  V30 114 H 9.3897 1.44848 -0.256389 0
M  V30 115 H 11.3477 3.73868 1.85144 0
M  V30 116 H 9.9777 2.59914 1.91428 0
M  V30 117 H 9.0297 3.7994 -0.187046 0
M  V30 118 H 10.3417 4.98793 -0.0258907 0
M  V30 119 H 9.4957 5.63912 2.23803 0
M  V30 120 H 8.2347 4.37693 2.15118 0
M  V30 121 H 7.2397 5.49631 0.136388 0
M  V30 122 H 8.4647 6.78665 0.24313 0
M  V30 123 H 6.4107 6.11177 2.38326 0
M  V30 124 H 6.3277 7.44998 1.28505 0
M  V30 125 H 7.5957 7.39237 2.47282 0
M  V30 126 N 11.8248 0.280983 1.55075 0
M  V30 127 C 12.7578 -0.645439 2.18882 0
M  V30 128 C 13.7358 -1.14786 1.15165 0
M  V30 129 O 14.9198 -1.21975 1.43716 0
M  V30 130 C 12.0468 -1.88088 2.81674 0
M  V30 131 C 11.0928 -1.51343 3.98745 0
M  V30 132 S 11.9258 -0.586548 5.32278 0
M  V30 133 C 13.0818 -1.83024 5.98543 0
M  V30 134 H 13.3148 -0.1033 2.9712 0
M  V30 135 H 10.8478 0.0652099 1.54262 0
M  V30 136 H 12.8058 -2.58997 3.18482 0
M  V30 137 H 11.4668 -2.39417 2.03318 0
M  V30 138 H 10.6598 -2.43289 4.41392 0
M  V30 139 H 10.2618 -0.884477 3.63391 0
M  V30 140 H 12.5538 -2.77342 6.18133 0
M  V30 141 H 13.4968 -1.44668 6.93164 0
M  V30 142 H 13.9048 -1.99785 5.27964 0
M  V30 143 N 13.3029 -1.57598 0.00835791 0
M  V30 144 C 14.2329 -2.1198 -0.979113 0
M  V30 145 C 15.2139 -1.03091 -1.35301 0
M  V30 146 O 16.3989 -1.30818 -1.43528 0
M  V30 147 C 13.5289 -2.62995 -2.26828 0
M  V30 148 C 12.4829 -3.76485 -2.03576 0
M  V30 149 C 11.8089 -4.13846 -3.38579 0
M  V30 150 C 13.1089 -5.0342 -1.39161 0
M  V30 151 H 14.8029 -2.94738 -0.526281 0
M  V30 152 H 12.3489 -1.41783 -0.251704 0
M  V30 153 H 14.3019 -2.99669 -2.96271 0
M  V30 154 H 13.0259 -1.7737 -2.7424 0
M  V30 155 H 11.6849 -3.40217 -1.36557 0
M  V30 156 H 11.3329 -3.25232 -3.83709 0
M  V30 157 H 11.0329 -4.90312 -3.23834 0
M  V30 158 H 12.5569 -4.53086 -4.09323 0
M  V30 159 H 13.9709 -5.37812 -1.98573 0
M  V30 160 H 12.3679 -5.84746 -1.34878 0
M  V30 161 H 13.4379 -4.83548 -0.361868 0
M  V30 162 N 14.781 0.264519 -1.55364 0
M  V30 163 C 16.009 1.013 -1.80405 0
M  V30 164 C 16.424 1.79618 -0.581622 0
M  V30 165 O 15.781 1.76879 0.449468 0
M  V30 166 C 15.832 1.96487 -3.03439 0
M  V30 167 O 15.553 1.21341 -4.20961 0
M  V30 168 C 17.054 2.83079 -3.41147 0
M  V30 169 H 14.274 0.298875 -0.600762 0
M  V30 170 H 16.818 0.292736 -2.02394 0
M  V30 171 H 14.973 2.63965 -2.83551 0
M  V30 172 H 15.387 1.85573 -4.90574 0
M  V30 173 H 16.861 3.4565 -4.30384 0
M  V30 174 H 17.338 3.53286 -2.60932 0
M  V30 175 H 17.944 2.2108 -3.63323 0
M  V30 176 N 16.2591 1.48442 0.529413 0
M  V30 177 C 17.1691 1.6569 1.66084 0
M  V30 178 C 18.1851 0.539432 1.65427 0
M  V30 179 O 19.3611 0.810572 1.84368 0
M  V30 180 C 16.4261 1.69315 3.02545 0
M  V30 181 C 15.4871 2.92694 3.14052 0
M  V30 182 C 14.7201 2.96137 4.44003 0
M  V30 183 O 14.9431 2.07973 5.31134 0
M  V30 184 O 13.8771 3.88312 4.59888 0
M  V30 185 H 17.7031 2.61483 1.54469 0
M  V30 186 H 15.2881 1.3185 0.702567 0
M  V30 187 H 17.1701 1.74217 3.83701 0
M  V30 188 H 15.8451 0.766966 3.14483 0
M  V30 189 H 14.7521 2.93324 2.32189 0
M  V30 190 H 16.0851 3.84699 3.0703 0
M  V30 191 N 17.7372 -0.778329 1.37039 0
M  V30 192 C 18.9622 -1.57248 1.35233 0
M  V30 193 C 19.3872 -1.87999 -0.0615568 0
M  V30 194 O 18.7452 -1.48734 -1.03672 0
M  V30 195 C 18.7932 -2.86353 2.19167 0
M  V30 196 O 17.8972 -3.80442 1.59178 0
M  V30 197 H 17.2382 -0.476569 0.462362 0
M  V30 198 H 19.7682 -0.963853 1.80474 0
M  V30 199 H 19.7782 -3.35519 2.32145 0
M  V30 200 H 18.4532 -2.63299 3.21942 0
M  V30 201 H 17.0302 -3.39067 1.55203 0
M  V30 202 N 19.2153 -1.21501 -1.00376 0
M  V30 203 C 20.4633 -1.03095 -1.73827 0
M  V30 204 C 20.7843 0.436341 -1.90055 0
M  V30 205 O 20.0543 1.31466 -1.45236 0
M  V30 206 H 18.6343 -0.378487 -0.644016 0
M  V30 207 H 21.2963 -1.52831 -1.20949 0
M  V30 208 H 20.3923 -1.49991 -2.73695 0
M  V30 209 N 20.6934 1.19889 -1.02296 0
M  V30 210 C 21.9704 1.85148 -0.630832 0
M  V30 211 C 22.3504 1.91385 0.890782 0
M  V30 212 O 21.6984 1.42642 1.78509 0
M  V30 213 C 21.9084 3.24442 -1.28602 0
M  V30 214 C 23.2564 4.00663 -1.4055 0
M  V30 215 O 24.2804 3.33818 -1.24273 0
M  V30 216 O 23.1394 5.20387 -1.66913 0
M  V30 217 H 20.2334 0.797613 -0.218499 0
M  V30 218 H 22.7794 1.27427 -1.12074 0
M  V30 219 H 21.5514 3.14704 -2.32545 0
M  V30 220 H 21.1744 3.89802 -0.7836 0
M  V30 221 N 22.1715 0.800033 1.35784 0
M  V30 222 C 23.5825 0.439142 1.81462 0
M  V30 223 C 23.9335 -1.03813 1.66485 0
M  V30 224 O 23.0585 -1.80626 1.19177 0
M  V30 225 C 23.6535 0.790314 3.29453 0
M  V30 226 C 22.2125 0.482111 3.733 0
M  V30 227 C 21.3595 1.01938 2.57883 0
M  V30 228 H 24.3105 0.992254 1.23855 0
M  V30 229 H 24.3315 0.0853677 3.80404 0
M  V30 230 H 23.8435 1.86554 3.40322 0
M  V30 231 H 21.9445 -0.584652 3.67984 0
M  V30 232 H 22.0575 1.01015 4.6833 0
M  V30 233 H 20.4215 0.442043 2.50835 0
M  V30 234 H 21.2045 2.10059 2.71533 0
M  V30 235 N 23.6496 -1.47581 0.552962 0
M  V30 236 C 24.5596 -2.33743 -0.200353 0
M  V30 237 C 25.5756 -1.47928 -0.916151 0
M  V30 238 O 26.7516 -1.80865 -0.885993 0
M  V30 239 C 23.8166 -3.24536 -1.21973 0
M  V30 240 C 22.8776 -4.26238 -0.511819 0
M  V30 241 C 22.1106 -5.12693 -1.48263 0
M  V30 242 O 22.3336 -5.01525 -2.71714 0
M  V30 243 O 21.2676 -5.93375 -1.00945 0
M  V30 244 H 25.0936 -2.9945 0.506304 0
M  V30 245 H 22.6786 -1.46071 0.313622 0
M  V30 246 H 24.5606 -3.80631 -1.80827 0
M  V30 247 H 23.2356 -2.61462 -1.90839 0
M  V30 248 H 22.1426 -3.73914 0.117799 0
M  V30 249 H 23.4756 -4.92014 0.135308 0
M  V30 250 N 25.1277 -0.289203 -1.54924 0
M  V30 251 C 26.0377 0.601863 -2.26748 0
M  V30 252 C 27.0537 1.15834 -1.2984 0
M  V30 253 O 28.2297 1.18564 -1.62802 0
M  V30 254 C 25.2947 1.76299 -2.98529 0
M  V30 255 C 24.3557 1.24178 -4.10948 0
M  V30 256 C 23.5887 2.34757 -4.79296 0
M  V30 257 O 23.8117 3.54411 -4.46933 0
M  V30 258 O 22.7457 2.02115 -5.66951 0
M  V30 259 H 26.5717 0.0195879 -3.03694 0
M  V30 260 H 24.1567 -0.0560868 -1.49295 0
M  V30 261 H 26.0387 2.43973 -3.43592 0
M  V30 262 H 24.7137 2.33209 -2.24488 0
M  V30 263 H 23.6207 0.531104 -3.70311 0
M  V30 264 H 24.9537 0.718252 -4.86931 0
M  V30 265 N 26.6058 1.57591 -0.0167156 0
M  V30 266 C 27.5158 2.1291 0.98521 0
M  V30 267 C 28.5318 1.07834 1.36557 0
M  V30 268 O 29.7078 1.39826 1.44951 0
M  V30 269 C 26.7728 2.63512 2.25305 0
M  V30 270 C 25.8338 3.83256 1.93426 0
M  V30 271 C 25.0668 4.31435 3.14165 0
M  V30 272 O 25.2898 3.78851 4.26413 0
M  V30 273 O 24.2238 5.23416 2.97186 0
M  V30 274 H 28.0498 2.98772 0.544888 0
M  V30 275 H 25.6348 1.48012 0.203141 0
M  V30 276 H 27.5168 2.96183 2.99756 0
M  V30 277 H 26.1918 1.8074 2.68542 0
M  V30 278 H 25.0988 3.55531 1.16398 0
M  V30 279 H 26.4318 4.67153 1.55013 0
M  V30 280 N 28.0839 -0.256276 1.55502 0
M  V30 281 C 28.9939 -1.33882 1.92647 0
M  V30 282 C 30.0099 -1.53159 0.825727 0
M  V30 283 O 31.1859 -1.66963 1.12629 0
M  V30 284 C 28.2509 -2.6751 2.20543 0
M  V30 285 C 27.3119 -2.56836 3.43997 0
M  V30 286 C 26.5449 -3.84092 3.70553 0
M  V30 287 O 26.7679 -4.85545 2.99336 0
M  V30 288 O 25.7019 -3.83288 4.64084 0
M  V30 289 H 29.5279 -1.05374 2.84833 0
M  V30 290 H 27.1129 -0.456237 1.42263 0
M  V30 291 H 28.9949 -3.46492 2.39835 0
M  V30 292 H 27.6699 -2.9577 1.31536 0
M  V30 293 H 26.5769 -1.76172 3.30021 0
M  V30 294 H 27.9099 -2.33523 4.33275 0
M  V30 295 N 29.562 -1.4872 -0.521534 0
M  V30 296 C 30.472 -1.66569 -1.65203 0
M  V30 297 C 31.488 -0.548197 -1.65139 0
M  V30 298 O 32.664 -0.820339 -1.83936 0
M  V30 299 C 29.729 -1.70917 -3.01642 0
M  V30 300 C 28.79 -2.94356 -3.12495 0
M  V30 301 C 28.023 -2.98487 -4.42426 0
M  V30 302 O 28.246 -2.10786 -5.30024 0
M  V30 303 O 27.18 -3.90746 -4.57822 0
M  V30 304 H 31.006 -2.62298 -1.5308 0
M  V30 305 H 28.591 -1.3222 -0.695565 0
M  V30 306 H 30.473 -1.7625 -3.82771 0
M  V30 307 H 29.148 -0.783633 -3.14071 0
M  V30 308 H 28.055 -2.94552 -2.3063 0
M  V30 309 H 29.388 -3.86322 -3.04986 0
M  V30 310 N 31.0401 0.771051 -1.3745 0
M  V30 311 C 31.9501 1.91538 -1.35464 0
M  V30 312 C 32.9661 1.72134 -0.254123 0
M  V30 313 O 34.1421 1.95358 -0.489626 0
M  V30 314 C 31.2071 3.26671 -1.16134 0
M  V30 315 C 30.2681 3.58723 -2.35831 0
M  V30 316 C 29.5011 4.87409 -2.17413 0
M  V30 317 O 29.7241 5.58506 -1.15876 0
M  V30 318 O 28.6581 5.18539 -3.05615 0
M  V30 319 H 32.4841 1.96165 -2.31847 0
M  V30 320 H 30.0691 0.9139 -1.18187 0
M  V30 321 H 31.9511 4.07499 -1.07345 0
M  V30 322 H 30.6261 3.22894 -0.228251 0
M  V30 323 H 29.5331 2.78127 -2.50192 0
M  V30 324 H 30.8661 3.67243 -3.27709 0
M  V30 325 N 32.5182 1.22032 0.997298 0
M  V30 326 C 33.4282 1.00271 2.12092 0
M  V30 327 C 34.4442 -0.047621 1.73935 0
M  V30 328 O 35.6202 0.144136 2.00884 0
M  V30 329 C 32.6852 0.578449 3.4184 0
M  V30 330 C 31.7462 1.70189 3.94125 0
M  V30 331 C 30.9792 1.29778 5.17681 0
M  V30 332 O 31.2022 0.174676 5.70132 0
M  V30 333 O 30.1362 2.11261 5.63607 0
M  V30 334 H 33.9622 1.94398 2.3333 0
M  V30 335 H 31.5472 1.00587 1.10465 0
M  V30 336 H 33.4292 0.351998 4.19927 0
M  V30 337 H 32.1042 -0.334019 3.21972 0
M  V30 338 H 31.0112 1.98282 3.1723 0
M  V30 339 H 32.3442 2.59206 4.18417 0
M  V30 340 N 33.9963 -1.19345 1.0293 0
M  V30 341 C 34.9063 -2.26245 0.620515 0
M  V30 342 C 35.9223 -1.70486 -0.347928 0
M  V30 343 O 37.0983 -2.00347 -0.205704 0
M  V30 344 C 34.1633 -3.46693 -0.0218957 0
M  V30 345 C 33.2243 -4.17632 0.994102 0
M  V30 346 C 32.4573 -5.32329 0.382253 0
M  V30 347 O 32.6803 -5.64552 -0.814676 0
M  V30 348 O 31.6143 -5.91664 1.10531 0
M  V30 349 H 35.4403 -2.63453 1.51083 0
M  V30 350 H 33.0253 -1.26207 0.799513 0
M  V30 351 H 34.9073 -4.19683 -0.380072 0
M  V30 352 H 33.5823 -3.11333 -0.886209 0
M  V30 353 H 32.4893 -3.4676 1.40387 0
M  V30 354 H 33.8223 -4.56964 1.8288 0
M  V30 355 N 35.4744 -0.807222 -1.35358 0
M  V30 356 C 36.3844 -0.219594 -2.3357 0
M  V30 357 C 37.4004 0.637734 -1.61892 0
M  V30 358 O 38.5764 0.549336 -1.93763 0
M  V30 359 C 35.6414 0.62158 -3.41083 0
M  V30 360 C 34.7024 -0.256315 -4.28534 0
M  V30 361 C 33.9354 0.544807 -5.30912 0
M  V30 362 O 34.1584 1.77944 -5.41934 0
M  V30 363 O 33.0924 -0.0646478 -6.01865 0
M  V30 364 H 36.9184 -1.03208 -2.85625 0
M  V30 365 H 34.5034 -0.569025 -1.38139 0
M  V30 366 H 36.3854 1.10067 -4.06772 0
M  V30 367 H 35.0604 1.41165 -2.91297 0
M  V30 368 H 33.9674 -0.782559 -3.65823 0
M  V30 369 H 35.3004 -1.01034 -4.81719 0
M  V30 370 N 36.9525 1.47285 -0.560781 0
M  V30 371 C 37.8825 2.32857 0.173105 0
M  V30 372 C 38.8635 1.44009 0.905281 0
M  V30 373 O 40.0485 1.7286 0.885046 0
M  V30 374 C 37.1785 3.25861 1.20133 0
M  V30 375 C 36.1325 4.23978 0.585388 0
M  V30 376 C 35.4585 5.06332 1.7185 0
M  V30 377 C 36.7585 5.20242 -0.463178 0
M  V30 378 H 38.4525 2.94466 -0.541307 0
M  V30 379 H 35.9985 1.41601 -0.261764 0
M  V30 380 H 37.9515 3.84569 1.72293 0
M  V30 381 H 36.6755 2.62315 1.94573 0
M  V30 382 H 35.3345 3.66501 0.085054 0
M  V30 383 H 34.9825 4.39186 2.45203 0
M  V30 384 H 34.6825 5.72762 1.31213 0
M  V30 385 H 36.2065 5.67899 2.24329 0
M  V30 386 H 37.6205 5.73293 -0.027502 0
M  V30 387 H 36.0175 5.94896 -0.788627 0
M  V30 388 H 37.0875 4.65504 -1.35773 0
M  V30 389 N 38.4306 0.297415 1.54768 0
M  V30 390 C 39.6766 -0.313376 2.00364 0
M  V30 391 C 40.0096 -1.53815 1.18553 0
M  V30 392 O 39.2846 -1.92739 0.261103 0
M  V30 393 C 39.5676 -0.673525 3.53745 0
M  V30 394 C 39.4206 0.560133 4.46299 0
M  V30 395 C 40.7396 -1.50143 4.13697 0
M  V30 396 H 37.8586 -0.112428 0.728374 0
M  V30 397 H 40.5006 0.4088 1.8555 0
M  V30 398 H 38.6506 -1.28881 3.665 0
M  V30 399 H 40.3226 1.19863 4.45455 0
M  V30 400 H 38.5656 1.19405 4.17043 0
M  V30 401 H 39.2366 0.26405 5.51368 0
M  V30 402 H 41.7126 -0.981588 4.04356 0
M  V30 403 H 40.5886 -1.72221 5.21182 0
M  V30 404 H 40.8496 -2.48952 3.65343 0
M  V30 405 N 39.9087 -1.5758 0.0250728 0
M  V30 406 C 41.1857 -1.82917 -0.692873 0
M  V30 407 C 41.5657 -0.908137 -1.90568 0
M  V30 408 O 40.9137 0.0372298 -2.2847 0
M  V30 409 C 41.1237 -3.32034 -1.07492 0
M  V30 410 C 42.4717 -3.98406 -1.46826 0
M  V30 411 O 43.4957 -3.36505 -1.16801 0
M  V30 412 O 42.3547 -5.07497 -2.02754 0
M  V30 413 H 39.4487 -0.754079 -0.33955 0
M  V30 414 H 41.9947 -1.69619 0.0524456 0
M  V30 415 H 40.7667 -3.90728 -0.211552 0
M  V30 416 H 40.3897 -3.50424 -1.87854 0
M  V30 417 N 41.3868 0.248026 -1.55636 0
M  V30 418 C 42.7978 0.817177 -1.67866 0
M  V30 419 C 43.1488 1.86069 -0.622322 0
M  V30 420 O 42.2738 2.15157 0.231618 0
M  V30 421 C 42.8688 1.489 -3.04326 0
M  V30 422 C 41.4278 2.00587 -3.185 0
M  V30 423 C 40.5748 0.856573 -2.63739 0
M  V30 424 H 43.5258 0.0238579 -1.58682 0
M  V30 425 H 43.5468 2.35698 -2.98708 0
M  V30 426 H 43.0588 0.729279 -3.81186 0
M  V30 427 H 41.1598 2.79443 -2.4646 0
M  V30 428 H 41.2728 2.20402 -4.25393 0
M  V30 429 H 39.6368 1.25678 -2.21534 0
M  V30 430 H 40.4198 0.109953 -3.43124 0
M  V30 431 N 42.8649 1.48995 0.513639 0
M  V30 432 C 43.7949 1.67636 1.62544 0
M  V30 433 C 44.7759 0.525087 1.61793 0
M  V30 434 O 45.9609 0.759502 1.78732 0
M  V30 435 C 43.0909 1.73114 3.01079 0
M  V30 436 C 42.0449 2.87905 3.16693 0
M  V30 437 C 41.3709 2.78486 4.56453 0
M  V30 438 C 42.6709 4.29005 2.97913 0
M  V30 439 H 44.3649 2.60716 1.47198 0
M  V30 440 H 41.9109 1.25465 0.706714 0
M  V30 441 H 43.8639 1.84742 3.78746 0
M  V30 442 H 42.5879 0.766241 3.17484 0
M  V30 443 H 41.2469 2.75859 2.41448 0
M  V30 444 H 40.8949 1.7993 4.69717 0
M  V30 445 H 40.5949 3.55523 4.67843 0
M  V30 446 H 42.1189 2.92104 5.36197 0
M  V30 447 H 43.5329 4.41798 3.65359 0
M  V30 448 H 41.9299 5.07166 3.20785 0
M  V30 449 H 42.9999 4.44329 1.94165 0
M  V30 450 N 44.343 -0.763751 1.37857 0
M  V30 451 C 45.571 -1.55293 1.36718 0
M  V30 452 C 45.986 -1.88745 -0.0455434 0
M  V30 453 O 45.343 -1.52039 -1.00947 0
M  V30 454 C 45.394 -2.85831 2.2132 0
M  V30 455 O 45.115 -2.5381 3.57089 0
M  V30 456 C 46.616 -3.80023 2.28249 0
M  V30 457 H 43.836 -0.480841 0.468009 0
M  V30 458 H 46.38 -0.946009 1.81303 0
M  V30 459 H 44.535 -3.42926 1.80223 0
M  V30 460 H 44.949 -3.37459 4.01524 0
M  V30 461 H 46.423 -4.68599 2.91752 0
M  V30 462 H 46.9 -4.1973 1.2932 0
M  V30 463 H 47.506 -3.28855 2.69693 0
M  V30 464 N 45.8211 -1.22559 -0.990812 0
M  V30 465 C 47.0491 -1.07779 -1.76611 0
M  V30 466 C 47.4641 0.371513 -1.85109 0
M  V30 467 O 46.8211 1.25737 -1.32274 0
M  V30 468 C 46.8721 -1.68512 -3.19822 0
M  V30 469 O 46.5931 -3.07774 -3.1178 0
M  V30 470 C 48.0941 -1.59035 -4.13791 0
M  V30 471 H 45.3141 -0.377729 -0.554583 0
M  V30 472 H 47.8581 -1.62195 -1.24551 0
M  V30 473 H 46.0131 -1.18154 -3.68942 0
M  V30 474 H 46.4271 -3.37062 -4.01858 0
M  V30 475 H 47.9011 -2.0625 -5.1202 0
M  V30 476 H 48.3781 -0.547273 -4.35777 0
M  V30 477 H 48.9841 -2.08709 -3.70568 0
M  V30 478 N 47.2992 1.18797 -1.03562 0
M  V30 479 C 48.5452 1.8893 -0.737113 0
M  V30 480 C 48.8782 1.79837 0.732956 0
M  V30 481 O 48.1532 1.19525 1.5344 0
M  V30 482 C 48.4362 3.39607 -1.19745 0
M  V30 483 C 48.2892 3.57537 -2.72924 0
M  V30 484 C 49.6082 4.33069 -0.783526 0
M  V30 485 H 46.7272 0.686057 -0.269249 0
M  V30 486 H 49.3692 1.39797 -1.28673 0
M  V30 487 H 47.5192 3.81583 -0.729855 0
M  V30 488 H 49.1912 3.24688 -3.27682 0
M  V30 489 H 47.4342 3.00363 -3.12993 0
M  V30 490 H 48.1052 4.63238 -3.00191 0
M  V30 491 H 50.5812 3.98846 -1.18581 0
M  V30 492 H 49.4572 5.3707 -1.13343 0
M  V30 493 H 49.7182 4.40986 0.313681 0
M  V30 494 N 48.7773 0.814389 1.34928 0
M  V30 495 C 50.1933 0.499084 1.51596 0
M  V30 496 C 50.3933 -0.978319 1.76157 0
M  V30 497 O 49.4493 -1.76309 1.80752 0
M  V30 498 C 50.7623 1.35121 2.68631 0
M  V30 499 C 52.3103 1.34746 2.82511 0
M  V30 500 C 52.7853 2.18388 4.0258 0
M  V30 501 N 54.2763 2.15966 4.09772 0
M  V30 502 C 55.0113 2.77437 5.01813 0
M  V30 503 N 54.5073 3.47866 5.99134 0
M  V30 504 N 56.3003 2.67037 4.94619 0
M  V30 505 H 48.4513 1.7711 1.17243 0
M  V30 506 H 50.7143 0.754256 0.574284 0
M  V30 507 H 50.4203 2.40001 2.57085 0
M  V30 508 H 50.2943 1.00991 3.63429 0
M  V30 509 H 52.6813 0.30648 2.93504 0
M  V30 510 H 52.7623 1.72869 1.88547 0
M  V30 511 H 52.4063 3.2253 3.92347 0
M  V30 512 H 52.3363 1.77621 4.9574 0
M  V30 513 H 54.8273 1.64729 3.40107 0
M  V30 514 H 55.1403 3.92038 6.65977 0
M  V30 515 H 53.4853 3.51972 5.99284 0
M  V30 516 H 56.6763 2.11597 4.17546 0
M  V30 517 H 56.8493 3.15232 5.66156 0
M  V30 518 N 50.2554 -1.46986 0.568584 0
M  V30 519 C 51.1654 -2.33942 -0.17555 0
M  V30 520 C 52.1814 -1.48891 -0.90041 0
M  V30 521 O 53.3574 -1.81794 -0.86676 0
M  V30 522 C 50.4224 -3.25811 -1.18524 0
M  V30 523 C 49.4834 -4.26757 -0.466582 0
M  V30 524 C 48.7164 -5.14236 -1.42817 0
M  V30 525 O 48.9394 -5.04379 -2.66379 0
M  V30 526 O 47.8734 -5.94412 -0.946453 0
M  V30 527 H 51.6994 -2.98896 0.538036 0
M  V30 528 H 49.2844 -1.4573 0.329097 0
M  V30 529 H 51.1664 -3.82527 -1.76779 0
M  V30 530 H 49.8414 -2.63471 -1.88055 0
M  V30 531 H 48.7484 -3.73769 0.157451 0
M  V30 532 H 50.0814 -4.91843 0.187485 0
M  V30 533 N 51.7335 -0.305618 -1.54608 0
M  V30 534 C 52.6655 0.602161 -2.21149 0
M  V30 535 C 53.6785 1.09394 -1.20569 0
M  V30 536 O 54.8675 1.0106 -1.47136 0
M  V30 537 C 51.9675 1.83692 -2.84799 0
M  V30 538 C 51.1405 1.48686 -4.11353 0
M  V30 539 C 50.1995 2.57725 -4.58764 0
M  V30 540 O 49.2255 2.22623 -5.23858 0
M  V30 541 N 50.4275 3.88346 -4.31471 0
M  V30 542 H 53.1925 0.0324966 -2.99682 0
M  V30 543 H 50.7535 -0.128021 -1.61393 0
M  V30 544 H 52.7455 2.55994 -3.13448 0
M  V30 545 H 51.3155 2.31486 -2.10078 0
M  V30 546 H 50.5355 0.596269 -3.89664 0
M  V30 547 H 51.8235 1.22842 -4.93748 0
M  V30 548 H 51.2215 4.19671 -3.79331 0
M  V30 549 H 49.7785 4.56932 -4.64818 0
M  V30 550 N 53.2116 1.57565 -0.0334293 0
M  V30 551 C 54.4516 1.93844 0.648379 0
M  V30 552 C 54.8156 0.910387 1.69044 0
M  V30 553 O 56.0166 1.15952 2.42505 0
M  V30 554 C 54.2876 3.35017 1.24492 0
M  V30 555 S 55.8466 3.93229 1.94721 0
M  V30 556 H 52.6646 0.678231 0.213364 0
M  V30 557 H 55.2666 1.95254 -0.0981253 0
M  V30 558 H 53.9706 4.07652 0.474128 0
M  V30 559 H 53.5016 3.37061 2.02864 0
M  V30 560 H 55.5166 3.77014 3.22606 0
M  V30 561 N 54.6897 -0.239769 1.55765 0
M  V30 562 C 55.5997 -1.31831 1.94056 0
M  V30 563 C 56.6157 -1.52275 0.841925 0
M  V30 564 O 57.7917 -1.65759 1.14394 0
M  V30 565 C 54.8567 -2.65156 2.23368 0
M  V30 566 C 53.9177 -2.53173 3.46701 0
M  V30 567 C 53.1507 -3.8014 3.74606 0
M  V30 568 O 53.3737 -4.82343 3.04469 0
M  V30 569 O 52.3077 -3.78344 4.68123 0
M  V30 570 H 56.1337 -1.02347 2.85935 0
M  V30 571 H 53.7187 -0.441123 1.42739 0
M  V30 572 H 55.6007 -3.43929 2.43497 0
M  V30 573 H 54.2757 -2.94358 1.34666 0
M  V30 574 H 53.1827 -1.72662 3.31871 0
M  V30 575 H 54.5157 -2.28915 4.35728 0
M  V30 576 N 56.1678 -1.49265 -0.50573 0
M  V30 577 C 57.0998 -1.617 -1.62437 0
M  V30 578 C 58.1128 -0.499924 -1.54934 0
M  V30 579 O 59.3018 -0.771785 -1.60953 0
M  V30 580 C 56.4018 -1.5533 -3.01207 0
M  V30 581 C 55.5748 -2.8249 -3.33943 0
M  V30 582 C 54.6338 -2.69238 -4.52103 0
M  V30 583 O 53.6598 -3.43167 -4.5412 0
M  V30 584 N 54.8618 -1.80468 -5.51735 0
M  V30 585 H 57.6268 -2.58177 -1.52199 0
M  V30 586 H 55.1878 -1.46294 -0.693511 0
M  V30 587 H 57.1798 -1.44125 -3.78167 0
M  V30 588 H 55.7498 -0.667297 -3.05395 0
M  V30 589 H 54.9698 -3.08081 -2.45926 0
M  V30 590 H 56.2578 -3.66802 -3.5261 0
M  V30 591 H 55.6558 -1.19653 -5.52901 0
M  V30 592 H 54.2128 -1.75188 -6.27816 0
M  V30 593 N 57.6459 0.756429 -1.3826 0
M  V30 594 C 58.5759 1.88374 -1.37976 0
M  V30 595 C 59.5569 1.68311 -0.246082 0
M  V30 596 O 60.7419 1.88944 -0.44874 0
M  V30 597 C 57.8719 3.25864 -1.20125 0
M  V30 598 C 56.8259 3.60523 -2.30666 0
M  V30 599 C 56.1519 4.9672 -1.97923 0
M  V30 600 C 57.4519 3.65692 -3.72916 0
M  V30 601 H 59.1459 1.88869 -2.32312 0
M  V30 602 H 56.6919 0.907272 -1.11824 0
M  V30 603 H 58.6449 4.0438 -1.18552 0
M  V30 604 H 57.3689 3.25841 -0.222498 0
M  V30 605 H 56.0279 2.84324 -2.3142 0
M  V30 606 H 55.6759 4.93253 -0.985393 0
M  V30 607 H 55.3759 5.20878 -2.71955 0
M  V30 608 H 56.8999 5.77618 -1.97964 0
M  V30 609 H 58.3139 4.34328 -3.74208 0
M  V30 610 H 56.7109 4.01358 -4.4613 0
M  V30 611 H 57.7809 2.65987 -4.05436 0
M  V30 612 N 59.124 1.23083 0.984299 0
M  V30 613 C 60.034 1.02515 2.11016 0
M  V30 614 C 61.05 -0.0291702 1.73976 0
M  V30 615 O 62.226 0.165434 2.00719 0
M  V30 616 C 59.291 0.614673 3.41208 0
M  V30 617 C 58.352 1.74359 3.92297 0
M  V30 618 C 57.585 1.35261 5.16275 0
M  V30 619 O 57.808 0.235136 5.69915 0
M  V30 620 O 56.742 2.17227 5.61334 0
M  V30 621 H 60.568 1.96862 2.31255 0
M  V30 622 H 58.153 1.01753 1.09392 0
M  V30 623 H 60.035 0.396518 4.1953 0
M  V30 624 H 58.71 -0.299851 3.22308 0
M  V30 625 H 57.617 2.01635 3.1511 0
M  V30 626 H 58.95 2.63629 4.15645 0
M  V30 627 N 60.6021 -1.18246 1.0419 0
M  V30 628 C 61.5491 -2.2192 0.634037 0
M  V30 629 C 62.5191 -1.62179 -0.358765 0
M  V30 630 O 63.7041 -1.89122 -0.252466 0
M  V30 631 C 60.8441 -3.451 0.00445535 0
M  V30 632 C 59.9571 -4.19174 1.04487 0
M  V30 633 C 59.0921 -5.29813 0.383676 0
M  V30 634 C 58.1311 -5.9566 1.4091 0
M  V30 635 N 57.2681 -6.97834 0.772784 0
M  V30 636 H 62.1081 -2.56164 1.52263 0
M  V30 637 H 59.6451 -1.25843 0.761701 0
M  V30 638 H 61.6031 -4.15485 -0.377919 0
M  V30 639 H 60.2331 -3.11472 -0.847652 0
M  V30 640 H 59.2851 -3.47604 1.54518 0
M  V30 641 H 60.5971 -4.64267 1.82368 0
M  V30 642 H 59.7511 -6.06677 -0.0528366 0
M  V30 643 H 58.4901 -4.85825 -0.427208 0
M  V30 644 H 57.4951 -5.17535 1.85574 0
M  V30 645 H 58.7201 -6.4173 2.22171 0
M  V30 646 H 56.6661 -6.55998 -0.0177708 0
M  V30 647 H 56.5831 -7.41186 1.48928 0
M  V30 648 H 57.8511 -7.78665 0.36071 0
M  V30 649 N 62.0802 -0.821533 -1.34494 0
M  V30 650 C 63.3202 -0.414785 -2.00147 0
M  V30 651 C 63.6842 1.00299 -1.6372 0
M  V30 652 O 64.8852 1.51255 -2.22206 0
M  V30 653 C 63.1562 -0.609403 -3.52166 0
M  V30 654 S 64.7152 -0.295297 -4.37805 0
M  V30 655 H 61.5332 -0.15679 -0.693497 0
M  V30 656 H 64.1352 -1.06705 -1.63812 0
M  V30 657 H 62.8392 -1.64096 -3.76166 0
M  V30 658 H 62.3702 0.0576414 -3.93358 0
M  V30 659 H 64.3852 0.891531 -4.88125 0
M  V30 660 N 63.5583 1.46682 -0.576371 0
M  V30 661 C 64.8043 2.02712 -0.0596221 0
M  V30 662 C 65.1373 1.44765 1.29448 0
M  V30 663 O 64.4123 0.610355 1.84675 0
M  V30 664 C 64.6953 3.60098 0.0129503 0
M  V30 665 C 64.5483 4.28441 -1.3696 0
M  V30 666 C 65.8673 4.34224 0.71678 0
M  V30 667 H 62.9863 0.736637 -0.0231407 0
M  V30 668 H 65.6283 1.74898 -0.742351 0
M  V30 669 H 63.7783 3.83926 0.594378 0
M  V30 670 H 65.4503 4.15896 -1.9957 0
M  V30 671 H 63.6933 3.8805 -1.93907 0
M  V30 672 H 64.3643 5.3716 -1.27135 0
M  V30 673 H 66.8403 4.15503 0.222908 0
M  V30 674 H 65.7163 5.43936 0.73657 0
M  V30 675 H 65.9773 4.04823 1.77682 0
M  V30 676 N 65.0364 0.313813 1.54444 0
M  V30 677 C 65.9834 -0.55655 2.23989 0
M  V30 678 C 66.9534 -1.11943 1.22711 0
M  V30 679 O 68.1384 -1.16158 1.51367 0
M  V30 680 C 65.2784 -1.71635 2.99392 0
M  V30 681 C 64.3914 -1.18364 4.15468 0
M  V30 682 C 63.5264 -2.30834 4.78424 0
M  V30 683 C 62.5654 -1.74762 5.86622 0
M  V30 684 N 61.7024 -2.80855 6.43479 0
M  V30 685 H 66.5424 0.0430893 2.97969 0
M  V30 686 H 64.0794 0.0330359 1.47063 0
M  V30 687 H 66.0374 -2.39868 3.41349 0
M  V30 688 H 64.6674 -2.28742 2.27765 0
M  V30 689 H 63.7194 -0.393163 3.78363 0
M  V30 690 H 65.0314 -0.733262 4.93381 0
M  V30 691 H 64.1854 -3.0699 5.23299 0
M  V30 692 H 62.9244 -2.79204 3.99871 0
M  V30 693 H 61.9294 -0.970995 5.41158 0
M  V30 694 H 63.1544 -1.2728 6.67066 0
M  V30 695 H 61.1004 -3.28535 5.67804 0
M  V30 696 H 61.0174 -2.40351 7.16776 0
M  V30 697 H 62.2854 -3.5687 6.93011 0
M  V30 698 N 66.5145 -1.57545 0.0417849 0
M  V30 699 C 67.4775 -2.09885 -0.92093 0
M  V30 700 C 68.4775 -1.01648 -1.24596 0
M  V30 701 O 69.6675 -1.27759 -1.1842 0
M  V30 702 C 66.7995 -2.57527 -2.23367 0
M  V30 703 H 67.9925 -2.96236 -0.467382 0
M  V30 704 H 65.5455 -1.5493 -0.206467 0
M  V30 705 H 66.2805 -1.74542 -2.73323 0
M  V30 706 H 66.0655 -3.36613 -2.01083 0
M  V30 707 H 67.5555 -2.98201 -2.92346 0
M  V30 708 N 67.9926 0.231505 -1.5589 0
M  V30 709 C 69.4086 0.580748 -1.48659 0
M  V30 710 C 69.6086 1.87617 -0.73498 0
M  V30 711 O 68.6646 2.51046 -0.270586 0
M  V30 712 C 69.9776 0.669202 -2.93159 0
M  V30 713 C 71.5256 0.760499 -3.03621 0
M  V30 714 C 72.0006 0.880383 -4.49459 0
M  V30 715 N 73.4916 0.944861 -4.53461 0
M  V30 716 C 74.2266 1.05716 -5.63571 0
M  V30 717 N 73.7226 1.13403 -6.83456 0
M  V30 718 N 75.5156 1.09152 -5.514 0
M  V30 719 H 67.6666 -0.618695 -2.03189 0
M  V30 720 H 69.9296 -0.215728 -0.923128 0
M  V30 721 H 69.6356 -0.212904 -3.51055 0
M  V30 722 H 69.5096 1.5361 -3.44505 0
M  V30 723 H 71.8966 1.63305 -2.45796 0
M  V30 724 H 71.9776 -0.131864 -2.5546 0
M  V30 725 H 71.6216 0.0123284 -5.07899 0
M  V30 726 H 71.5516 1.78802 -4.95316 0
M  V30 727 H 74.0426 0.896176 -3.6712 0
M  V30 728 H 74.3556 1.21921 -7.63122 0
M  V30 729 H 72.7006 1.10333 -6.86186 0
M  V30 730 H 75.8916 1.02805 -4.56671 0
M  V30 731 H 76.0646 1.17558 -6.37247 0
M  V30 732 N 69.4707 1.49531 0.497807 0
M  V30 733 C 70.3807 1.69176 1.62532 0
M  V30 734 C 71.3967 0.5744 1.64246 0
M  V30 735 O 72.5727 0.849497 1.82608 0
M  V30 736 C 69.6377 1.75695 2.98885 0
M  V30 737 C 68.6987 2.9929 3.07773 0
M  V30 738 C 67.9317 3.05488 4.37622 0
M  V30 739 O 68.1547 2.19192 5.26603 0
M  V30 740 O 67.0887 3.9798 4.51548 0
M  V30 741 H 70.9147 2.647 1.48887 0
M  V30 742 H 68.4997 1.3331 0.674441 0
M  V30 743 H 70.3817 1.82317 3.79919 0
M  V30 744 H 69.0567 0.8335 3.12785 0
M  V30 745 H 67.9637 2.98183 2.25915 0
M  V30 746 H 69.2967 3.91125 2.98801 0
M  V30 747 N 70.9488 -0.749086 1.3866 0
M  V30 748 C 72.3648 -1.05276 1.19955 0
M  V30 749 C 72.5648 -2.01435 0.05134 0
M  V30 750 O 71.6208 -2.45232 -0.60147 0
M  V30 751 C 72.9338 -1.62853 2.52783 0
M  V30 752 C 74.4818 -1.75002 2.59506 0
M  V30 753 C 74.9568 -2.35991 3.92521 0
M  V30 754 N 76.4478 -2.43416 3.94085 0
M  V30 755 C 77.1828 -2.91511 4.9377 0
M  V30 756 N 76.6788 -3.39608 6.03853 0
M  V30 757 N 78.4718 -2.90592 4.81157 0
M  V30 758 H 70.6228 -0.111066 2.12109 0
M  V30 759 H 72.8858 -0.111901 0.941373 0
M  V30 760 H 72.5918 -0.99664 3.37283 0
M  V30 761 H 72.4658 -2.61854 2.715 0
M  V30 762 H 74.8528 -2.37317 1.75398 0
M  V30 763 H 74.9338 -0.74693 2.44652 0
M  V30 764 H 74.5778 -1.74308 4.77053 0
M  V30 765 H 74.5078 -3.3695 4.04688 0
M  V30 766 H 76.9988 -2.09405 3.14576 0
M  V30 767 H 77.3118 -3.74775 6.75843 0
M  V30 768 H 75.6568 -3.37653 6.07466 0
M  V30 769 H 78.8478 -2.52332 3.94267 0
M  V30 770 H 79.0208 -3.27762 5.58996 0
M  V30 771 N 72.4269 -1.23603 -0.977757 0
M  V30 772 C 73.3569 -1.04401 -2.0886 0
M  V30 773 C 74.3379 0.0399052 -1.70053 0
M  V30 774 O 75.5229 -0.125246 -1.93796 0
M  V30 775 C 72.6529 -0.637269 -3.41403 0
M  V30 776 C 71.6069 -1.66883 -3.94124 0
M  V30 777 C 70.9329 -1.11745 -5.22893 0
M  V30 778 C 72.2329 -3.06247 -4.23096 0
M  V30 779 H 73.9269 -1.97316 -2.25182 0
M  V30 780 H 71.4729 -0.950096 -1.08209 0
M  V30 781 H 73.4259 -0.48998 -4.18542 0
M  V30 782 H 72.1499 0.327557 -3.24953 0
M  V30 783 H 70.8089 -1.80416 -3.19133 0
M  V30 784 H 70.4569 -0.143527 -5.02795 0
M  V30 785 H 70.1569 -1.80672 -5.59134 0
M  V30 786 H 71.6809 -0.982067 -6.02651 0
M  V30 787 H 73.0949 -2.96001 -4.90975 0
M  V30 788 H 71.4919 -3.72436 -4.70544 0
M  V30 789 H 72.5619 -3.55041 -3.30263 0
M  V30 790 N 73.905 1.17692 -1.04816 0
M  V30 791 C 74.815 2.25229 -0.65643 0
M  V30 792 C 75.831 1.71018 0.320761 0
M  V30 793 O 77.007 2.00649 0.173805 0
M  V30 794 C 74.072 3.46684 -0.0332629 0
M  V30 795 C 73.133 4.15997 -1.06042 0
M  V30 796 C 72.366 5.31654 -0.466893 0
M  V30 797 O 72.589 5.65777 0.724758 0
M  V30 798 O 71.523 5.89831 -1.1993 0
M  V30 799 H 75.349 2.61016 -1.55255 0
M  V30 800 H 72.934 1.24919 -0.81949 0
M  V30 801 H 74.816 4.20234 0.313256 0
M  V30 802 H 73.491 3.12703 0.836566 0
M  V30 803 H 72.398 3.44482 -1.45886 0
M  V30 804 H 73.731 4.53996 -1.90127 0
M  V30 805 N 75.3831 0.828654 1.34056 0
M  V30 806 C 76.3131 0.269443 2.3194 0
M  V30 807 C 77.2941 -0.617247 1.58506 0
M  V30 808 O 78.4791 -0.542931 1.86456 0
M  V30 809 C 75.6091 -0.564793 3.42677 0
M  V30 810 C 74.5631 0.225241 4.27407 0
M  V30 811 C 73.8891 -0.7321 5.29664 0
M  V30 812 C 75.1891 1.43663 5.02154 0
M  V30 813 H 76.8831 1.08728 2.7896 0
M  V30 814 H 74.4291 0.524283 1.34117 0
M  V30 815 H 76.3821 -0.966233 4.10173 0
M  V30 816 H 75.1061 -1.41574 2.9432 0
M  V30 817 H 73.7651 0.608117 3.61521 0
M  V30 818 H 73.4131 -1.57916 4.77568 0
M  V30 819 H 73.1131 -0.20767 5.87233 0
M  V30 820 H 74.6371 -1.13128 6.00029 0
M  V30 821 H 76.0511 1.1089 5.62473 0
M  V30 822 H 74.4481 1.89711 5.69324 0
M  V30 823 H 75.5181 2.21181 4.31517 0
M  V30 824 N 76.8612 -1.46375 0.584142 0
M  V30 825 C 78.1012 -2.0427 0.0729695 0
M  V30 826 C 78.4652 -1.44563 -1.26355 0
M  V30 827 O 79.6662 -1.93667 -1.86405 0
M  V30 828 C 77.9372 -3.57399 0.00967464 0
M  V30 829 S 79.4962 -4.36551 -0.443714 0
M  V30 830 H 76.3142 -0.709975 0.0381673 0
M  V30 831 H 78.9162 -1.79398 0.776962 0
M  V30 832 H 77.6202 -3.98372 0.986319 0
M  V30 833 H 77.1512 -3.8681 -0.717044 0
M  V30 834 H 79.1662 -4.66237 -1.69816 0
M  V30 835 N 78.3393 -0.321999 -1.54275 0
M  V30 836 C 79.6163 0.335232 -1.92706 0
M  V30 837 C 79.9963 1.70006 -1.25145 0
M  V30 838 O 79.3443 2.25067 -0.394596 0
M  V30 839 C 79.5543 0.429008 -3.46353 0
M  V30 840 C 80.9023 0.690029 -4.18956 0
M  V30 841 O 81.9263 0.511992 -3.52501 0
M  V30 842 O 80.7853 1.03338 -5.36641 0
M  V30 843 H 77.8793 0.191143 -0.804608 0
M  V30 844 H 80.4253 -0.3716 -1.65581 0
M  V30 845 H 79.1973 -0.529611 -3.87699 0
M  V30 846 H 78.8203 1.18348 -3.79578 0
M  V30 847 N 79.8174 1.5752 -0.0501392 0
M  V30 848 C 80.7274 2.14952 0.939827 0
M  V30 849 C 81.7434 1.10706 1.34239 0
M  V30 850 O 82.9194 1.42869 1.41952 0
M  V30 851 C 79.9844 2.68232 2.19665 0
M  V30 852 C 79.0454 3.87272 1.85253 0
M  V30 853 C 78.2784 4.38002 3.04943 0
M  V30 854 O 78.5014 3.87811 4.18281 0
M  V30 855 O 77.4354 5.29602 2.86017 0
M  V30 856 H 81.2614 2.9986 0.481392 0
M  V30 857 H 78.8464 1.4841 0.171699 0
M  V30 858 H 80.7284 3.02475 2.93406 0
M  V30 859 H 79.4034 1.86395 2.64648 0
M  V30 860 H 78.3104 3.5792 1.0883 0
M  V30 861 H 79.6434 4.70336 1.4507 0
M  V30 862 N 81.2955 -0.223234 1.56011 0
M  V30 863 C 82.7115 -0.572856 1.48965 0
M  V30 864 C 82.9115 -1.87225 0.74492 0
M  V30 865 O 81.9675 -2.50899 0.283896 0
M  V30 866 C 83.2805 -0.653646 2.9351 0
M  V30 867 C 84.8285 -0.744386 3.0402 0
M  V30 868 C 85.3035 -0.856535 4.49919 0
M  V30 869 N 86.7945 -0.9208 4.53955 0
M  V30 870 C 87.5295 -1.02726 5.64123 0
M  V30 871 N 87.0255 -1.09777 6.84047 0
M  V30 872 N 88.8185 -1.06226 5.51971 0
M  V30 873 H 80.9695 0.629462 2.02858 0
M  V30 874 H 83.2325 0.220621 0.921971 0
M  V30 875 H 82.9385 0.231518 3.50937 0
M  V30 876 H 82.8125 -1.51781 3.45315 0
M  V30 877 H 85.1995 -1.61999 2.46658 0
M  V30 878 H 85.2805 0.14541 2.55386 0
M  V30 879 H 84.9245 0.0146069 5.07898 0
M  V30 880 H 84.8545 -1.76172 4.96257 0
M  V30 881 H 87.3455 -0.876694 3.6759 0
M  V30 882 H 87.6585 -1.17872 7.63758 0
M  V30 883 H 86.0035 -1.06693 6.86762 0
M  V30 884 H 89.1945 -1.00382 4.5721 0
M  V30 885 H 89.3675 -1.14177 6.37862 0
M  V30 886 N 82.7736 -1.49793 -0.48987 0
M  V30 887 C 84.0196 -1.60078 -1.24511 0
M  V30 888 C 84.3526 -0.291608 -1.91998 0
M  V30 889 O 83.6276 0.705647 -1.81248 0
M  V30 890 C 83.9106 -2.76791 -2.30345 0
M  V30 891 C 83.7636 -4.17535 -1.67286 0
M  V30 892 C 85.0826 -2.89111 -3.31817 0
M  V30 893 H 82.2016 -0.582645 -0.451324 0
M  V30 894 H 84.8436 -1.82117 -0.541612 0
M  V30 895 H 82.9936 -2.5813 -2.90346 0
M  V30 896 H 84.6656 -4.4774 -1.11026 0
M  V30 897 H 82.9086 -4.22665 -0.976577 0
M  V30 898 H 83.5796 -4.95094 -2.44103 0
M  V30 899 H 86.0556 -3.06133 -2.81819 0
M  V30 900 H 84.9316 -3.72433 -4.03219 0
M  V30 901 H 85.1926 -1.9893 -3.94815 0
M  V30 902 N 84.2517 0.741722 -1.39055 0
M  V30 903 C 85.4767 1.53607 -1.39354 0
M  V30 904 C 85.9017 1.88096 0.0116905 0
M  V30 905 O 85.2597 1.5143 0.996924 0
M  V30 906 C 85.3077 2.80441 -2.26682 0
M  V30 907 O 84.4117 3.76088 -1.69208 0
M  V30 908 H 83.7527 0.464142 -0.474835 0
M  V30 909 H 86.2827 0.915665 -1.82967 0
M  V30 910 H 86.2927 3.29246 -2.40959 0
M  V30 911 H 84.9677 2.5467 -3.2881 0
M  V30 912 H 83.5447 3.34833 -1.64138 0
M  V30 913 N 85.7298 1.2412 0.971189 0
M  V30 914 C 86.9548 1.10667 1.75407 0
M  V30 915 C 87.3798 -0.337048 1.85056 0
M  V30 916 O 86.7378 -1.24396 1.31892 0
M  V30 917 C 86.7858 1.74726 3.15441 0
M  V30 918 O 85.8898 1.01566 3.99697 0
M  V30 919 H 85.2308 0.387341 0.539317 0
M  V30 920 H 87.7608 1.64358 1.2185 0
M  V30 921 H 87.7708 1.80341 3.6598 0
M  V30 922 H 86.4458 2.79773 3.07734 0
M  V30 923 H 85.0228 1.03713 3.58187 0
M  V30 924 N 87.2079 -1.17134 1.05439 0
M  V30 925 C 88.6239 -1.39454 0.776201 0
M  V30 926 C 88.8239 -1.91454 -0.628307 0
M  V30 927 O 87.8799 -2.10777 -1.39031 0
M  V30 928 C 89.1929 -2.38305 1.83388 0
M  V30 929 C 90.7409 -2.52006 1.85639 0
M  V30 930 C 91.2159 -3.54133 2.90437 0
M  V30 931 N 92.7069 -3.61653 2.89415 0
M  V30 932 C 93.4419 -4.4044 3.67152 0
M  V30 933 N 92.9379 -5.22721 4.54681 0
M  V30 934 N 94.7309 -4.35337 3.55581 0
M  V30 935 H 86.8819 -0.817134 1.96053 0
M  V30 936 H 89.1449 -0.421626 0.849079 0
M  V30 937 H 88.8509 -2.07173 2.84204 0
M  V30 938 H 88.7249 -3.37841 1.67761 0
M  V30 939 H 91.1119 -2.82447 0.85486 0
M  V30 940 H 91.1929 -1.52537 2.05344 0
M  V30 941 H 90.8369 -3.24431 3.90777 0
M  V30 942 H 90.7669 -4.53313 2.67983 0
M  V30 943 H 93.2579 -3.02909 2.25952 0
M  V30 944 H 93.5709 -5.80027 5.10674 0
M  V30 945 H 91.9159 -5.22093 4.58741 0
M  V30 946 H 95.1069 -3.70112 2.86592 0
M  V30 947 H 95.2799 -4.96494 4.1641 0
M  V30 948 N 88.686 -0.835752 -1.33615 0
M  V30 949 C 89.911 -0.442389 -2.02627 0
M  V30 950 C 90.336 0.947735 -1.62479 0
M  V30 951 O 89.694 1.61907 -0.815826 0
M  V30 952 C 89.742 -0.567216 -3.56111 0
M  V30 953 O 88.846 0.407799 -4.10379 0
M  V30 954 H 88.187 -0.180278 -0.639059 0
M  V30 955 H 90.717 -1.12972 -1.70583 0
M  V30 956 H 90.727 -0.447708 -4.05536 0
M  V30 957 H 89.402 -1.58103 -3.84677 0
M  V30 958 H 87.979 0.246107 -3.72087 0
M  V30 959 N 90.1641 1.46063 -0.591896 0
M  V30 960 C 91.1141 2.27458 0.157172 0
M  V30 961 C 92.0981 1.3641 0.853301 0
M  V30 962 O 93.2901 1.60517 0.74588 0
M  V30 963 C 90.4191 3.22956 1.16423 0
M  V30 964 C 89.5051 4.2149 0.469742 0
M  V30 965 N 89.8961 5.03519 -0.479839 0
M  V30 966 C 88.1941 4.40161 0.719319 0
M  V30 967 C 88.8951 5.74904 -0.886591 0
M  V30 968 N 87.8711 5.43097 -0.233731 0
M  V30 969 H 91.6731 2.88272 -0.572392 0
M  V30 970 H 89.1871 1.57024 -0.414375 0
M  V30 971 H 91.1841 3.79986 1.71513 0
M  V30 972 H 89.8441 2.63701 1.89451 0
M  V30 973 H 90.8551 5.1078 -0.855823 0
M  V30 974 H 87.5321 3.92046 1.43548 0
M  V30 975 H 88.9221 6.50844 -1.66888 0
M  V30 976 N 91.6422 0.330177 1.54103 0
M  V30 977 C 92.8702 -0.272179 2.05102 0
M  V30 978 C 93.2852 -1.45267 1.20595 0
M  V30 979 O 92.6422 -1.8094 0.238144 0
M  V30 980 C 92.6932 -0.70023 3.54653 0
M  V30 981 O 92.4142 0.433301 4.35952 0
M  V30 982 C 93.9152 -1.3647 4.21771 0
M  V30 983 H 91.1352 -0.0549159 0.668749 0
M  V30 984 H 93.6792 0.478285 1.98828 0
M  V30 985 H 91.8342 -1.40066 3.61193 0
M  V30 986 H 92.2482 0.0947539 5.24414 0
M  V30 987 H 93.7222 -1.61509 5.27843 0
M  V30 988 H 94.1992 -2.31409 3.73292 0
M  V30 989 H 94.8052 -0.706675 4.19388 0
M  V30 990 N 93.1203 -1.57491 0.0584922 0
M  V30 991 C 94.0303 -2.15448 -0.928414 0
M  V30 992 C 95.0463 -1.11416 -1.3365 0
M  V30 993 O 96.2223 -1.4362 -1.41193 0
M  V30 994 C 93.2873 -2.69393 -2.18239 0
M  V30 995 C 92.3483 -3.88249 -1.83196 0
M  V30 996 C 91.5813 -4.39613 -3.02616 0
M  V30 997 O 91.8043 -3.90023 -4.16219 0
M  V30 998 O 90.7383 -5.31111 -2.83204 0
M  V30 999 H 94.5643 -3.00112 -0.465483 0
M  V30 1000 H 92.1493 -1.48499 -0.163826 0
M  V30 1001 H 94.0313 -3.04026 -2.91798 0
M  V30 1002 H 92.7063 -1.87796 -2.63656 0
M  V30 1003 H 91.6133 -3.58492 -1.06931 0
M  V30 1004 H 92.9463 -4.71098 -1.42573 0
M  V30 1005 N 94.5984 0.214957 -1.56127 0
M  V30 1006 C 95.5084 1.28727 -1.96129 0
M  V30 1007 C 96.5244 1.50916 -0.866044 0
M  V30 1008 O 97.7004 1.63918 -1.17016 0
M  V30 1009 C 94.7654 2.61569 -2.27558 0
M  V30 1010 C 93.8264 2.47625 -3.50685 0
M  V30 1011 C 93.0594 3.74132 -3.80606 0
M  V30 1012 O 93.2824 4.77438 -3.12104 0
M  V30 1013 O 92.2164 3.70849 -4.74083 0
M  V30 1014 H 96.0424 0.977855 -2.87527 0
M  V30 1015 H 93.6274 0.418358 -1.43423 0
M  V30 1016 H 95.5094 3.40012 -2.48938 0
M  V30 1017 H 94.1844 2.92178 -1.39332 0
M  V30 1018 H 93.0914 1.67361 -3.34576 0
M  V30 1019 H 94.4244 2.21954 -4.39315 0
M  V30 1020 N 96.0765 1.50051 0.48192 0
M  V30 1021 C 97.3535 1.51009 1.2432 0
M  V30 1022 C 97.7335 0.248587 2.09631 0
M  V30 1023 O 97.0815 -0.768409 2.15192 0
M  V30 1024 C 97.2915 2.79981 2.08355 0
M  V30 1025 C 98.6395 3.3022 2.66908 0
M  V30 1026 O 99.6635 2.81228 2.18607 0
M  V30 1027 O 98.5225 4.15595 3.54884 0
M  V30 1028 H 95.6165 0.605239 0.563573 0
M  V30 1029 H 98.1625 1.62332 0.494627 0
M  V30 1030 H 96.9345 3.63275 1.45419 0
M  V30 1031 H 96.5575 2.7161 2.90368 0
M  V30 1032 N 97.5546 -0.734337 1.39446 0
M  V30 1033 C 98.7946 -1.50655 1.38139 0
M  V30 1034 C 99.1586 -1.91986 -0.0228701 0
M  V30 1035 O 100.36 -2.68318 -0.160947 0
M  V30 1036 C 98.6306 -2.71251 2.32718 0
M  V30 1037 S 100.19 -3.60892 2.49605 0
M  V30 1038 H 97.0076 -0.515315 0.489869 0
M  V30 1039 H 99.6096 -0.860392 1.75549 0
M  V30 1040 H 98.3136 -2.39027 3.33608 0
M  V30 1041 H 97.8446 -3.40795 1.96526 0
M  V30 1042 H 99.8596 -4.64899 1.73446 0
M  V30 1043 N 99.0327 -1.24633 -0.964593 0
M  V30 1044 C 100.261 -1.11501 -1.74285 0
M  V30 1045 C 100.676 0.332165 -1.85855 0
M  V30 1046 O 100.033 1.22903 -1.34911 0
M  V30 1047 C 100.084 -1.75258 -3.16175 0
M  V30 1048 O 99.8047 -3.14318 -3.05182 0
M  V30 1049 C 101.306 -1.67776 -4.10324 0
M  V30 1050 H 98.5257 -0.389407 -0.546446 0
M  V30 1051 H 101.07 -1.64801 -1.21083 0
M  V30 1052 H 99.2247 -1.25954 -3.66353 0
M  V30 1053 H 99.6387 -3.4551 -3.94618 0
M  V30 1054 H 101.113 -2.17064 -5.0753 0
M  V30 1055 H 101.59 -0.639584 -4.34518 0
M  V30 1056 H 102.196 -2.16522 -3.66058 0
M  V30 1057 N 100.511 1.16574 -1.06058 0
M  V30 1058 C 101.421 2.2452 -0.680282 0
M  V30 1059 C 102.437 1.71348 0.302604 0
M  V30 1060 O 103.613 2.00822 0.152513 0
M  V30 1061 C 100.678 3.46629 -0.0700315 0
M  V30 1062 C 99.7388 4.14849 -1.10448 0
M  V30 1063 C 98.9718 5.31129 -0.523256 0
M  V30 1064 O 99.1948 5.66514 0.664709 0
M  V30 1065 O 98.1288 5.88526 -1.26179 0
M  V30 1066 H 101.955 2.59355 -1.58015 0
M  V30 1067 H 99.5398 1.24043 -0.832694 0
M  V30 1068 H 101.422 4.20543 0.268667 0
M  V30 1069 H 100.097 3.13573 0.803353 0
M  V30 1070 H 99.0038 3.42916 -1.49532 0
M  V30 1071 H 100.337 4.51954 -1.94931 0
M  V30 1072 N 101.989 0.842826 1.3317 0
M  V30 1073 C 102.899 0.281444 2.32906 0
M  V30 1074 C 103.915 -0.594587 1.63526 0
M  V30 1075 O 105.091 -0.49777 1.95152 0
M  V30 1076 C 102.156 -0.530929 3.42611 0
M  V30 1077 C 101.217 0.369843 4.27704 0
M  V30 1078 C 100.45 -0.403853 5.3217 0
M  V30 1079 O 100.673 -1.63513 5.46461 0
M  V30 1080 O 99.6069 0.224199 6.01482 0
M  V30 1081 H 103.433 1.10744 2.82789 0
M  V30 1082 H 101.018 0.60545 1.36582 0
M  V30 1083 H 102.9 -0.992437 4.09547 0
M  V30 1084 H 101.575 -1.33392 2.94938 0
M  V30 1085 H 100.482 0.879275 3.6362 0
M  V30 1086 H 101.815 1.13771 4.78871 0
M  V30 1087 N 103.467 -1.45747 0.599634 0
M  V30 1088 C 104.397 -2.33235 -0.111306 0
M  V30 1089 C 105.378 -1.46359 -0.866781 0
M  V30 1090 O 106.563 -1.75146 -0.838904 0
M  V30 1091 C 103.693 -3.28932 -1.11451 0
M  V30 1092 C 102.647 -4.25381 -0.472772 0
M  V30 1093 C 101.973 -5.1071 -1.58365 0
M  V30 1094 C 103.273 -5.18831 0.600948 0
M  V30 1095 H 104.967 -2.92927 0.61919 0
M  V30 1096 H 102.513 -1.40857 0.299215 0
M  V30 1097 H 104.466 -3.89002 -1.62036 0
M  V30 1098 H 103.19 -2.67381 -1.8755 0
M  V30 1099 H 101.849 -3.66598 0.0121472 0
M  V30 1100 H 101.497 -4.45533 -2.33473 0
M  V30 1101 H 101.197 -5.7604 -1.15982 0
M  V30 1102 H 102.721 -5.73647 -2.09194 0
M  V30 1103 H 104.135 -5.73019 0.179491 0
M  V30 1104 H 102.532 -5.92595 0.946076 0
M  V30 1105 H 103.602 -4.6174 1.48068 0
M  V30 1106 N 104.945 -0.338344 -1.53925 0
M  V30 1107 C 106.192 0.259758 -2.00827 0
M  V30 1108 C 106.52 1.50973 -1.22628 0
M  V30 1109 O 105.775 1.93379 -0.300509 0
M  V30 1110 C 106.074 0.62448 -3.51902 0
M  V30 1111 C 105.74 -0.528006 -4.47798 0
M  V30 1112 C 104.402 -0.844298 -4.73735 0
M  V30 1113 C 106.754 -1.30143 -5.0469 0
M  V30 1114 C 104.082 -1.93648 -5.53821 0
M  V30 1115 C 106.434 -2.38382 -5.85967 0
M  V30 1116 C 105.098 -2.70576 -6.10201 0
M  V30 1117 H 104.368 0.0950523 -0.734878 0
M  V30 1118 H 107.015 -0.465182 -1.85764 0
M  V30 1119 H 105.32 1.43006 -3.64769 0
M  V30 1120 H 107.017 1.09905 -3.85645 0
M  V30 1121 H 103.607 -0.271421 -4.2774 0
M  V30 1122 H 107.791 -1.07033 -4.84621 0
M  V30 1123 H 103.047 -2.19021 -5.70824 0
M  V30 1124 H 107.221 -2.98746 -6.29066 0
M  V30 1125 H 104.848 -3.55333 -6.72044 0
M  V30 1126 N 106.423 1.57458 -0.0668435 0
M  V30 1127 C 107.7 1.8469 0.644132 0
M  V30 1128 C 108.08 0.958343 1.88093 0
M  V30 1129 O 107.428 0.0233579 2.28488 0
M  V30 1130 C 107.638 3.34767 0.986509 0
M  V30 1131 C 108.986 4.02159 1.36212 0
M  V30 1132 O 110.01 3.39484 1.07839 0
M  V30 1133 O 108.869 5.12694 1.89227 0
M  V30 1134 H 105.963 0.762816 0.319437 0
M  V30 1135 H 108.509 1.6942 -0.0973986 0
M  V30 1136 H 107.281 3.91151 0.107883 0
M  V30 1137 H 106.904 3.55281 1.78497 0
M  V30 1138 N 107.901 -0.206675 1.56239 0
M  V30 1139 C 109.148 -0.928842 1.79941 0
M  V30 1140 C 109.476 -1.83734 0.638131 0
M  V30 1141 O 108.731 -1.92039 -0.376746 0
M  V30 1142 C 109.03 -1.78675 3.09532 0
M  V30 1143 C 108.696 -1.03022 4.38973 0
M  V30 1144 C 107.358 -0.821302 4.74139 0
M  V30 1145 C 109.71 -0.497081 5.18824 0
M  V30 1146 C 107.038 -0.0675719 5.86661 0
M  V30 1147 C 109.39 0.24338 6.32132 0
M  V30 1148 C 108.054 0.463422 6.65889 0
M  V30 1149 H 107.324 -0.339887 0.658451 0
M  V30 1150 H 109.971 -0.195977 1.90495 0
M  V30 1151 H 108.276 -2.58794 2.94165 0
M  V30 1152 H 109.973 -2.34792 3.25075 0
M  V30 1153 H 106.563 -1.20306 4.11369 0
M  V30 1154 H 110.747 -0.645921 4.92079 0
M  V30 1155 H 106.003 0.112995 6.11296 0
M  V30 1156 H 110.177 0.66393 6.93228 0
M  V30 1157 H 107.804 1.04938 7.52922 0
M  V30 1158 N 109.379 -1.50304 -0.473955 0
M  V30 1159 C 110.309 -1.71886 -1.58042 0
M  V30 1160 C 111.29 -0.567799 -1.60344 0
M  V30 1161 O 112.475 -0.806623 -1.76656 0
M  V30 1162 C 109.605 -1.81036 -2.96384 0
M  V30 1163 C 108.559 -2.962 -3.08949 0
M  V30 1164 C 107.885 -2.9049 -4.48909 0
M  V30 1165 C 109.185 -4.36752 -2.86434 0
M  V30 1166 H 110.879 -2.64527 -1.40234 0
M  V30 1167 H 108.425 -1.27295 -0.673201 0
M  V30 1168 H 110.378 -1.94719 -3.73714 0
M  V30 1169 H 109.102 -0.850147 -3.15341 0
M  V30 1170 H 107.761 -2.82164 -2.3405 0
M  V30 1171 H 107.409 -1.92321 -4.64781 0
M  V30 1172 H 107.109 -3.67802 -4.58253 0
M  V30 1173 H 108.633 -3.06218 -5.28264 0
M  V30 1174 H 110.047 -4.5133 -3.53517 0
M  V30 1175 H 108.444 -5.15493 -3.07225 0
M  V30 1176 H 109.514 -4.49321 -1.82316 0
M  V30 1177 N 110.857 0.726932 -1.39834 0
M  V30 1178 C 111.807 1.83232 -1.35683 0
M  V30 1179 C 112.791 1.59155 -0.236295 0
M  V30 1180 O 113.983 1.70522 -0.474488 0
M  V30 1181 C 111.112 3.21246 -1.21062 0
M  V30 1182 C 110.198 3.51125 -2.37849 0
M  V30 1183 N 110.589 3.51889 -3.63329 0
M  V30 1184 C 108.887 3.81527 -2.30982 0
M  V30 1185 C 109.588 3.79791 -4.40606 0
M  V30 1186 N 108.564 3.97971 -3.70297 0
M  V30 1187 H 112.366 1.8214 -2.30656 0
M  V30 1188 H 109.88 0.925545 -1.33444 0
M  V30 1189 H 111.877 4.00387 -1.16171 0
M  V30 1190 H 110.537 3.23572 -0.270458 0
M  V30 1191 H 111.548 3.33008 -3.96643 0
M  V30 1192 H 108.225 3.91411 -1.45272 0
M  V30 1193 H 109.615 3.86783 -5.49408 0
M  V30 1194 N 112.336 1.25143 0.95797 0
M  V30 1195 C 113.299 1.05321 2.03569 0
M  V30 1196 C 114.299 0.007152 1.60798 0
M  V30 1197 O 115.489 0.24903 1.72411 0
M  V30 1198 C 112.621 0.598394 3.35607 0
M  V30 1199 H 113.814 2.00986 2.22586 0
M  V30 1200 H 111.367 1.07502 1.13459 0
M  V30 1201 H 112.102 -0.361014 3.22284 0
M  V30 1202 H 111.887 1.35351 3.67998 0
M  V30 1203 H 113.377 0.48104 4.1482 0
M  V30 1204 N 113.814 -1.1601 1.06675 0
M  V30 1205 C 115.23 -1.38622 0.790948 0
M  V30 1206 C 115.43 -1.92109 -0.607965 0
M  V30 1207 O 114.486 -2.12239 -1.36787 0
M  V30 1208 C 115.799 -2.36347 1.85905 0
M  V30 1209 C 117.347 -2.50023 1.88301 0
M  V30 1210 C 117.822 -3.51033 2.94176 0
M  V30 1211 N 119.313 -3.58563 2.93235 0
M  V30 1212 C 120.048 -4.36521 3.71803 0
M  V30 1213 N 119.544 -5.17869 4.602 0
M  V30 1214 N 121.337 -4.31541 3.60178 0
M  V30 1215 H 113.488 -0.796294 1.96908 0
M  V30 1216 H 115.751 -0.412597 0.853503 0
M  V30 1217 H 115.457 -2.04147 2.86386 0
M  V30 1218 H 115.331 -3.36042 1.71334 0
M  V30 1219 H 117.718 -2.81524 0.884769 0
M  V30 1220 H 117.799 -1.5035 2.06951 0
M  V30 1221 H 117.443 -3.20268 3.94196 0
M  V30 1222 H 117.373 -4.50445 2.72776 0
M  V30 1223 H 119.864 -3.00496 2.29152 0
M  V30 1224 H 120.177 -5.74578 5.16797 0
M  V30 1225 H 118.522 -5.17199 4.64253 0
M  V30 1226 H 121.713 -3.67051 2.90502 0
M  V30 1227 H 121.886 -4.9205 4.21653 0
M  V30 1228 N 115.292 -0.849877 -1.32721 0
M  V30 1229 C 116.569 -0.372405 -1.92022 0
M  V30 1230 C 116.949 1.1435 -1.77447 0
M  V30 1231 O 116.297 1.96296 -1.16962 0
M  V30 1232 C 116.507 -0.831482 -3.3895 0
M  V30 1233 C 117.855 -0.845882 -4.16089 0
M  V30 1234 O 118.879 -0.775806 -3.47649 0
M  V30 1235 O 117.738 -0.943753 -5.38289 0
M  V30 1236 H 114.832 -0.107667 -0.819961 0
M  V30 1237 H 117.378 -0.93646 -1.41522 0
M  V30 1238 H 116.15 -1.87448 -3.4348 0
M  V30 1239 H 115.773 -0.24461 -3.96847 0
M  V30 1240 N 116.77 1.45427 -0.607355 0
M  V30 1241 C 117.72 2.27612 0.133038 0
M  V30 1242 C 118.704 1.37307 0.838785 0
M  V30 1243 O 119.896 1.61299 0.728813 0
M  V30 1244 C 117.025 3.24173 1.12991 0
M  V30 1245 C 116.111 4.21965 0.425011 0
M  V30 1246 N 116.502 5.02982 -0.533217 0
M  V30 1247 C 114.8 4.40899 0.672593 0
M  V30 1248 C 115.501 5.73931 -0.947518 0
M  V30 1249 N 114.477 5.42819 -0.291321 0
M  V30 1250 H 118.279 2.87649 -0.602935 0
M  V30 1251 H 115.793 1.56576 -0.431006 0
M  V30 1252 H 117.79 3.81783 1.67473 0
M  V30 1253 H 116.45 2.65696 1.86644 0
M  V30 1254 H 117.461 5.09843 -0.90995 0
M  V30 1255 H 114.138 3.93547 1.39382 0
M  V30 1256 H 115.528 6.49037 -1.73782 0
M  V30 1257 N 118.248 0.346503 1.53744 0
M  V30 1258 C 119.488 -0.249413 2.02873 0
M  V30 1259 C 119.852 -1.47532 1.22876 0
M  V30 1260 O 121.053 -2.1456 1.61918 0
M  V30 1261 C 119.324 -0.552909 3.53097 0
M  V30 1262 S 120.883 -1.12521 4.24128 0
M  V30 1263 H 117.701 -0.074042 0.707134 0
M  V30 1264 H 120.303 0.48495 1.8939 0
M  V30 1265 H 119.007 0.347083 4.0893 0
M  V30 1266 H 118.538 -1.31686 3.70705 0
M  V30 1267 H 120.553 -2.41075 4.33702 0
M  V30 1268 N 119.726 -1.57421 0.075193 0
M  V30 1269 C 120.972 -1.93905 -0.594025 0
M  V30 1270 C 121.305 -0.955701 -1.69056 0
M  V30 1271 O 120.58 0.0145373 -1.94495 0
M  V30 1272 C 120.863 -3.40638 -1.1678 0
M  V30 1273 C 120.716 -4.49733 -0.0776792 0
M  V30 1274 C 122.035 -3.88259 -2.07228 0
M  V30 1275 H 119.154 -0.705105 -0.214466 0
M  V30 1276 H 121.796 -1.8947 0.141854 0
M  V30 1277 H 119.946 -3.44549 -1.79494 0
M  V30 1278 H 121.618 -4.57942 0.555573 0
M  V30 1279 H 119.861 -4.29751 0.591286 0
M  V30 1280 H 120.532 -5.49549 -0.519603 0
M  V30 1281 H 123.008 -3.86376 -1.54445 0
M  V30 1282 H 121.884 -4.91533 -2.44308 0
M  V30 1283 H 122.145 -3.26396 -2.98191 0
M  V30 1284 N 121.204 0.198386 -1.56346 0
M  V30 1285 C 122.167 1.22952 -1.93431 0
M  V30 1286 C 123.167 1.38611 -0.815092 0
M  V30 1287 O 124.357 1.36479 -1.08255 0
M  V30 1288 C 121.489 2.59946 -2.20546 0
M  V30 1289 H 122.682 0.912626 -2.85677 0
M  V30 1290 H 120.235 0.43977 -1.49986 0
M  V30 1291 H 120.97 2.96696 -1.30927 0
M  V30 1292 H 120.755 2.49953 -3.02102 0
M  V30 1293 H 122.245 3.3431 -2.50253 0
M  V30 1294 N 122.682 1.50554 0.465978 0
M  V30 1295 C 123.632 1.66177 1.56106 0
M  V30 1296 C 124.616 0.516265 1.52393 0
M  V30 1297 O 125.808 0.770906 1.5933 0
M  V30 1298 C 122.937 1.76396 2.94515 0
M  V30 1299 C 122.023 2.9664 3.03093 0
M  V30 1300 N 122.414 4.20245 2.81474 0
M  V30 1301 C 120.712 2.95304 3.34233 0
M  V30 1302 C 121.413 5.01259 2.95151 0
M  V30 1303 N 120.389 4.35318 3.25576 0
M  V30 1304 H 124.191 2.59434 1.38099 0
M  V30 1305 H 121.705 1.47808 0.6728 0
M  V30 1306 H 123.702 1.85694 3.73261 0
M  V30 1307 H 122.362 0.843017 3.13565 0
M  V30 1308 H 123.373 4.4966 2.56956 0
M  V30 1309 H 120.05 2.12729 3.59239 0
M  V30 1310 H 121.44 6.09564 2.82632 0
M  V30 1311 N 124.16 -0.719506 1.40217 0
M  V30 1312 C 125.107 -1.83359 1.40172 0
M  V30 1313 C 126.077 -1.64065 0.259206 0
M  V30 1314 O 127.262 -1.85254 0.456677 0
M  V30 1315 C 124.402 -3.2103 1.26624 0
M  V30 1316 C 123.515 -3.51923 2.50548 0
M  V30 1317 C 122.65 -4.79079 2.29471 0
M  V30 1318 C 121.689 -5.02863 3.48992 0
M  V30 1319 N 120.826 -6.2123 3.27135 0
M  V30 1320 H 125.666 -1.82733 2.35399 0
M  V30 1321 H 123.203 -0.892688 1.16917 0
M  V30 1322 H 125.161 -4.00524 1.16776 0
M  V30 1323 H 123.791 -3.20895 0.350176 0
M  V30 1324 H 122.843 -2.67014 2.70939 0
M  V30 1325 H 124.155 -3.6541 3.39525 0
M  V30 1326 H 123.309 -5.66582 2.16955 0
M  V30 1327 H 122.048 -4.67794 1.37913 0
M  V30 1328 H 121.053 -4.13816 3.6199 0
M  V30 1329 H 122.278 -5.16023 4.41472 0
M  V30 1330 H 120.224 -6.11204 2.38256 0
M  V30 1331 H 120.141 -6.35375 4.09675 0
M  V30 1332 H 121.409 -7.11532 3.18344 0
M  V30 1333 N 125.638 -1.25649 -0.95132 0
M  V30 1334 C 126.568 -1.08808 -2.06599 0
M  V30 1335 C 127.549 0.00382547 -1.701 0
M  V30 1336 O 128.734 -0.166325 -1.93486 0
M  V30 1337 C 125.864 -0.709542 -3.39975 0
M  V30 1338 C 124.818 -1.75206 -3.90496 0
M  V30 1339 C 124.144 -1.22811 -5.20405 0
M  V30 1340 C 125.444 -3.15153 -4.16504 0
M  V30 1341 H 127.138 -2.02048 -2.20946 0
M  V30 1342 H 124.684 -0.972835 -1.06169 0
M  V30 1343 H 126.637 -0.578649 -4.17408 0
M  V30 1344 H 125.361 0.258556 -3.25575 0
M  V30 1345 H 124.02 -1.87145 -3.15234 0
M  V30 1346 H 123.668 -0.250145 -5.02378 0
M  V30 1347 H 123.368 -1.92492 -5.55176 0
M  V30 1348 H 124.892 -1.10968 -6.00432 0
M  V30 1349 H 126.306 -3.06349 -4.84586 0
M  V30 1350 H 124.703 -3.82333 -4.62538 0
M  V30 1351 H 125.773 -3.61966 -3.22658 0
M  V30 1352 N 127.117 1.15442 -1.07289 0
M  V30 1353 C 128.364 1.86213 -0.795668 0
M  V30 1354 C 128.692 1.82291 0.678238 0
M  V30 1355 O 127.947 1.24057 1.51355 0
M  V30 1356 C 128.246 3.3489 -1.24834 0
M  V30 1357 C 127.912 3.59007 -2.72809 0
M  V30 1358 C 126.574 3.65298 -3.13227 0
M  V30 1359 C 128.926 3.68762 -3.68326 0
M  V30 1360 C 126.254 3.78854 -4.4798 0
M  V30 1361 C 128.606 3.83842 -5.0284 0
M  V30 1362 C 127.27 3.88378 -5.4288 0
M  V30 1363 H 126.54 0.681403 -0.291155 0
M  V30 1364 H 129.187 1.36435 -1.34379 0
M  V30 1365 H 127.492 3.8687 -0.619595 0
M  V30 1366 H 129.189 3.88052 -1.01076 0
M  V30 1367 H 125.779 3.5475 -2.40521 0
M  V30 1368 H 129.963 3.63202 -3.38227 0
M  V30 1369 H 125.219 3.80623 -4.78472 0
M  V30 1370 H 129.393 3.90332 -5.76727 0
M  V30 1371 H 127.02 3.98635 -6.47298 0
M  V30 1372 N 128.595 0.856903 1.32268 0
M  V30 1373 C 129.543 0.291987 2.3076 0
M  V30 1374 C 130.537 -0.585857 1.58947 0
M  V30 1375 O 131.743 -0.47341 1.73663 0
M  V30 1376 H 128.118 0.075721 0.748178 0
M  V30 1377 H 130.089 1.13687 2.75895 0
M  V30 1378 C 128.838 -0.502869 3.44044 0
M  V30 1379 H 128.161 0.163328 3.99466 0
M  V30 1380 H 129.601 -0.863691 4.1511 0
M  V30 1381 C 128.06 -1.68898 2.91505 0
M  V30 1382 O 128.59 -2.78811 2.89184 0
M  V30 1383 N 126.796 -1.51679 2.47875 0
M  V30 1384 H 126.343 -0.622666 2.49961 0
M  V30 1385 H 126.301 -2.31184 2.13076 0
M  V30 1386 N 130.073 -1.45103 0.615059 0
M  V30 1387 C 131.021 -2.32331 -0.111791 0
M  V30 1388 C 132.015 -1.46409 -0.852102 0
M  V30 1389 O 133.221 -1.62849 -0.766821 0
M  V30 1390 H 129.596 -0.749993 -0.0549072 0
M  V30 1391 H 131.567 -2.91407 0.642225 0
M  V30 1392 C 130.316 -3.3015 -1.09071 0
M  V30 1393 H 129.639 -3.96265 -0.530485 0
M  V30 1394 H 131.079 -3.93898 -1.56908 0
M  V30 1395 C 129.538 -2.57875 -2.168 0
M  V30 1396 O 130.068 -2.36567 -3.24652 0
M  V30 1397 N 128.274 -2.17884 -1.92289 0
M  V30 1398 H 127.821 -2.35413 -1.04587 0
M  V30 1399 H 127.779 -1.6985 -2.64572 0
M  V30 1400 N 131.551 -0.354651 -1.53558 0
M  V30 1401 C 132.481 0.489091 -2.2832 0
M  V30 1402 C 133.462 1.09324 -1.30316 0
M  V30 1403 O 134.647 1.11255 -1.59173 0
M  V30 1404 C 131.777 1.63456 -3.0643 0
M  V30 1405 C 130.731 1.1582 -4.12031 0
M  V30 1406 C 130.057 2.39305 -4.7816 0
M  V30 1407 C 131.357 0.250731 -5.21698 0
M  V30 1408 H 133.051 -0.134614 -2.99097 0
M  V30 1409 H 130.597 -0.0661826 -1.43848 0
M  V30 1410 H 132.55 2.23136 -3.57475 0
M  V30 1411 H 131.274 2.28533 -2.33325 0
M  V30 1412 H 129.933 0.584146 -3.61916 0
M  V30 1413 H 129.581 3.02814 -4.01637 0
M  V30 1414 H 129.281 2.08109 -5.49513 0
M  V30 1415 H 130.805 2.99691 -5.31994 0
M  V30 1416 H 132.219 0.754695 -5.68311 0
M  V30 1417 H 130.616 0.0301468 -6.00092 0
M  V30 1418 H 131.686 -0.710125 -4.79672 0
M  V30 1419 N 133.029 1.57378 -0.0835403 0
M  V30 1420 C 133.976 2.13384 0.879539 0
M  V30 1421 C 134.946 1.04936 1.28754 0
M  V30 1422 O 136.131 1.32662 1.37133 0
M  V30 1423 C 133.271 2.70932 2.13752 0
M  V30 1424 C 132.384 3.93575 1.7811 0
M  V30 1425 C 131.519 4.39326 2.98607 0
M  V30 1426 C 130.558 5.54587 2.59037 0
M  V30 1427 N 129.695 5.95243 3.72331 0
M  V30 1428 H 134.535 2.9537 0.395076 0
M  V30 1429 H 132.072 1.45953 0.183349 0
M  V30 1430 H 134.03 3.02411 2.87408 0
M  V30 1431 H 132.66 1.91693 2.59718 0
M  V30 1432 H 131.712 3.68483 0.94469 0
M  V30 1433 H 133.024 4.77258 1.45005 0
M  V30 1434 H 132.178 4.72528 3.80529 0
M  V30 1435 H 130.917 3.5452 3.34913 0
M  V30 1436 H 129.922 5.21024 1.75539 0
M  V30 1437 H 131.147 6.41133 2.23887 0
M  V30 1438 H 129.093 5.13385 4.08378 0
M  V30 1439 H 129.01 6.73694 3.43034 0
M  V30 1440 H 130.278 6.33072 4.54797 0
M  V30 1441 O 134.546 -0.0567894 1.614 0
M  V30 1442 H 135.237 -0.680852 1.8134 0
M  V30 END ATOM
M  V30 BEGIN BOND
M  V30 END BOND
M  V30 END CTAB
M  END
$$$$
