drugbank_target|P07944 Beta-lactam-inducible penicillin-binding protein (DB02443; DB02968; DB04041)
 OpenBabel12092120013D

  0  0  0     0  0            999 V3000
M  V30 BEGIN CTAB
M  V30 COUNTS 10827 10921 0 0 0
M  V30 BEGIN ATOM
M  V30 1 H -0.908 1.98254 -0.117106 0
M  V30 2 N 0 1.576 0 0
M  V30 3 C 0.933 2.03868 1.02534 0
M  V30 4 C 1.911 0.928543 1.3348 0
M  V30 5 O 3.095 1.19667 1.45644 0
M  V30 6 C 0.222 2.43627 2.35294 0
M  V30 7 C -0.732 3.65373 2.2001 0
M  V30 8 S 0.101 5.13292 1.52614 0
M  V30 9 C 1.257 5.56322 2.86805 0
M  V30 10 H 1.49 2.90518 0.631377 0
M  V30 11 H -0.977 1.52953 0.210867 0
M  V30 12 H 0.981 2.67203 3.11629 0
M  V30 13 H -0.358 1.57376 2.7183 0
M  V30 14 H -1.165 3.90944 3.18086 0
M  V30 15 H -1.563 3.418 1.51819 0
M  V30 16 H 0.729 5.58782 3.83104 0
M  V30 17 H 1.672 6.56266 2.65933 0
M  V30 18 H 2.08 4.83886 2.90714 0
M  V30 19 N 1.4781 -0.272755 1.55222 0
M  V30 20 C 2.4251 -1.33716 1.88119 0
M  V30 21 C 3.3951 -1.49066 0.73271 0
M  V30 22 O 4.5801 -1.63469 0.984002 0
M  V30 23 C 1.7201 -2.69238 2.15882 0
M  V30 24 C 0.8331 -2.62108 3.43399 0
M  V30 25 C -0.0319 -3.89811 3.60861 0
M  V30 26 C -0.9929 -3.77193 4.8207 0
M  V30 27 N -1.8559 -4.9673 4.96189 0
M  V30 28 H 2.9841 -1.04962 2.78903 0
M  V30 29 H 0.5211 -0.507088 1.38083 0
M  V30 30 H 2.4791 -3.48089 2.29978 0
M  V30 31 H 1.1091 -2.96194 1.28331 0
M  V30 32 H 0.1611 -1.74967 3.37773 0
M  V30 33 H 1.4731 -2.48685 4.32386 0
M  V30 34 H 0.6271 -4.77103 3.74777 0
M  V30 35 H -0.6339 -4.06102 2.7006 0
M  V30 36 H -1.6289 -2.88284 4.68159 0
M  V30 37 H -0.4039 -3.62421 5.74307 0
M  V30 38 H -2.4579 -5.13431 4.08319 0
M  V30 39 H -2.5409 -4.85839 5.79221 0
M  V30 40 H -1.2729 -5.85594 5.1449 0
M  V30 41 N 2.9562 -1.48159 -0.537278 0
M  V30 42 C 3.9032 -1.62138 -1.64256 0
M  V30 43 C 4.8732 -0.463668 -1.59497 0
M  V30 44 O 6.0582 -0.686241 -1.78032 0
M  V30 45 C 3.1982 -1.66028 -3.02537 0
M  V30 46 C 2.3112 -2.92855 -3.17585 0
M  V30 47 C 1.4462 -2.87952 -4.46382 0
M  V30 48 C 0.4852 -4.09516 -4.54932 0
M  V30 49 N -0.3778 -4.02733 -5.75109 0
M  V30 50 H 4.4622 -2.56529 -1.51647 0
M  V30 51 H 1.9992 -1.27224 -0.738414 0
M  V30 52 H 3.9572 -1.66265 -3.82638 0
M  V30 53 H 2.5872 -0.751331 -3.13934 0
M  V30 54 H 1.6392 -3.02395 -2.30784 0
M  V30 55 H 2.9512 -3.82822 -3.19764 0
M  V30 56 H 2.1052 -2.8655 -5.34765 0
M  V30 57 H 0.8442 -1.95702 -4.46712 0
M  V30 58 H -0.1508 -4.11201 -3.64957 0
M  V30 59 H 1.0742 -5.02917 -4.56346 0
M  V30 60 H -0.9798 -3.13299 -5.76351 0
M  V30 61 H -1.0628 -4.86397 -5.78752 0
M  V30 62 H 0.2052 -4.05379 -6.65799 0
M  V30 63 N 4.4343 0.785586 -1.36625 0
M  V30 64 C 5.6833 1.53883 -1.30396 0
M  V30 65 C 5.9963 1.95271 0.113452 0
M  V30 66 O 7.2023 2.69858 0.298142 0
M  V30 67 C 5.6583 2.77808 -2.28802 0
M  V30 68 C 5.2663 2.43574 -3.75999 0
M  V30 69 C 7.0103 3.55783 -2.31558 0
M  V30 70 C 4.9173 3.63919 -4.66173 0
M  V30 71 H 3.8473 0.577678 -0.484566 0
M  V30 72 H 6.4983 0.861705 -1.62009 0
M  V30 73 H 4.8803 3.47339 -1.90188 0
M  V30 74 H 6.0543 1.81916 -4.23371 0
M  V30 75 H 4.3693 1.78803 -3.76056 0
M  V30 76 H 6.9663 4.45205 -2.96137 0
M  V30 77 H 7.3093 3.94644 -1.3252 0
M  V30 78 H 7.8423 2.93235 -2.68809 0
M  V30 79 H 4.5813 3.3015 -5.66287 0
M  V30 80 H 4.1013 4.2473 -4.23515 0
M  V30 81 H 5.7803 4.30901 -4.82632 0
M  V30 82 N 5.9124 1.20967 1.01018 0
M  V30 83 C 6.8594 0.964281 2.09691 0
M  V30 84 C 7.8294 -0.107853 1.65749 0
M  V30 85 O 9.0144 0.0381987 1.90762 0
M  V30 86 C 6.1544 0.52943 3.41015 0
M  V30 87 C 5.2674 1.67043 3.98398 0
M  V30 88 C 4.4024 1.18525 5.17808 0
M  V30 89 C 3.4414 2.29892 5.67288 0
M  V30 90 N 2.5784 1.82546 6.77954 0
M  V30 91 H 7.4184 1.89463 2.30017 0
M  V30 92 H 4.9554 0.944289 1.1279 0
M  V30 93 H 6.9134 0.258588 4.16398 0
M  V30 94 H 5.5434 -0.363919 3.20742 0
M  V30 95 H 4.5954 2.05603 3.20049 0
M  V30 96 H 5.9074 2.50877 4.31117 0
M  V30 97 H 5.0614 0.870762 6.00419 0
M  V30 98 H 3.8004 0.316887 4.86669 0
M  V30 99 H 2.8054 2.6215 4.83278 0
M  V30 100 H 4.0304 3.17216 6.00459 0
M  V30 101 H 1.9764 0.980454 6.48632 0
M  V30 102 H 1.8934 2.59956 7.09901 0
M  V30 103 H 3.1614 1.54115 7.64113 0
M  V30 104 N 7.3905 -1.2043 1.01659 0
M  V30 105 C 8.6395 -1.89118 0.701237 0
M  V30 106 C 8.9525 -1.79705 -0.772358 0
M  V30 107 O 10.1585 -2.43528 -1.20026 0
M  V30 108 C 8.6145 -3.39168 1.20388 0
M  V30 109 C 8.2225 -3.57166 2.70438 0
M  V30 110 C 9.9665 -4.1341 0.963953 0
M  V30 111 C 7.8735 -5.01042 3.14183 0
M  V30 112 H 6.8035 -0.708267 0.2586 0
M  V30 113 H 9.4545 -1.36239 1.22927 0
M  V30 114 H 7.8365 -3.91369 0.603824 0
M  V30 115 H 9.0105 -3.15351 3.35992 0
M  V30 116 H 7.3255 -2.96294 2.92572 0
M  V30 117 H 9.9225 -5.19491 1.26621 0
M  V30 118 H 10.2655 -4.16181 -0.099578 0
M  V30 119 H 10.7985 -3.67309 1.52738 0
M  V30 120 H 7.5375 -5.03426 4.19812 0
M  V30 121 H 7.0575 -5.43668 2.53348 0
M  V30 122 H 8.7365 -5.69623 3.0682 0
M  V30 123 N 8.8686 -0.792821 -1.36206 0
M  V30 124 C 10.1146 -0.36733 -1.99446 0
M  V30 125 C 10.4476 1.05917 -1.62774 0
M  V30 126 O 9.7226 1.7324 -0.88421 0
M  V30 127 C 10.0056 -0.535044 -3.56103 0
M  V30 128 C 9.8586 -2.00548 -4.02617 0
M  V30 129 C 11.1776 0.0478191 -4.40074 0
M  V30 130 H 8.2966 -0.134941 -0.724541 0
M  V30 131 H 10.9386 -0.999794 -1.61568 0
M  V30 132 H 9.0886 0.00336329 -3.885 0
M  V30 133 H 10.7606 -2.60521 -3.80692 0
M  V30 134 H 9.0036 -2.50686 -3.54032 0
M  V30 135 H 9.6746 -2.07377 -5.11565 0
M  V30 136 H 12.1506 -0.411822 -4.14057 0
M  V30 137 H 11.0266 -0.0995336 -5.4881 0
M  V30 138 H 11.2876 1.14025 -4.27142 0
M  V30 139 N 10.3467 1.47872 -0.545128 0
M  V30 140 C 11.7577 1.86384 -0.108581 0
M  V30 141 C 12.1087 1.45309 1.31832 0
M  V30 142 O 11.2337 0.850641 1.9898 0
M  V30 143 C 11.8287 3.38265 -0.190274 0
M  V30 144 C 10.3877 3.75914 0.191164 0
M  V30 145 C 9.5347 2.71926 -0.543273 0
M  V30 146 H 12.4857 1.39561 -0.755537 0
M  V30 147 H 12.5067 3.75831 0.594217 0
M  V30 148 H 12.0187 3.6813 -1.2289 0
M  V30 149 H 10.1197 3.51665 1.23136 0
M  V30 150 H 10.2327 4.78836 -0.158987 0
M  V30 151 H 8.5967 2.54697 0.0122495 0
M  V30 152 H 9.3797 3.04634 -1.58282 0
M  V30 153 N 11.8248 0.280983 1.55075 0
M  V30 154 C 12.7548 -0.597469 2.25727 0
M  V30 155 C 13.7358 -1.15417 1.24952 0
M  V30 156 O 14.9208 -1.18722 1.53684 0
M  V30 157 C 12.0508 -1.7789 2.98283 0
M  V30 158 C 11.0048 -1.35347 4.06036 0
M  V30 159 C 10.3308 -2.61846 4.66198 0
M  V30 160 C 11.6308 -0.499354 5.19907 0
M  V30 161 H 13.3248 -0.00824265 2.99399 0
M  V30 162 H 10.8708 -0.0025244 1.44 0
M  V30 163 H 12.8238 -2.39937 3.46422 0
M  V30 164 H 11.5478 -2.39405 2.22155 0
M  V30 165 H 10.2068 -0.756156 3.58717 0
M  V30 166 H 9.8548 -3.21632 3.86732 0
M  V30 167 H 9.5548 -2.3409 5.38958 0
M  V30 168 H 11.0788 -3.24732 5.1709 0
M  V30 169 H 12.4928 -1.02498 5.64063 0
M  V30 170 H 10.8898 -0.316424 5.99265 0
M  V30 171 H 11.9598 0.480459 4.82514 0
M  V30 172 N 13.3029 -1.57598 0.00835791 0
M  V30 173 C 14.5519 -1.90107 -0.673968 0
M  V30 174 C 14.8649 -0.884275 -1.7447 0
M  V30 175 O 16.0709 -1.09987 -2.48224 0
M  V30 176 C 14.5269 -3.37497 -1.24995 0
M  V30 177 C 14.1349 -4.47491 -0.2136 0
M  V30 178 C 15.8789 -3.79104 -1.90999 0
M  V30 179 C 13.7859 -5.85963 -0.80005 0
M  V30 180 H 12.7159 -0.709393 -0.255495 0
M  V30 181 H 15.3669 -1.83365 0.0702693 0
M  V30 182 H 13.7489 -3.39102 -2.04513 0
M  V30 183 H 14.9229 -4.57414 0.557596 0
M  V30 184 H 13.2379 -4.14956 0.346474 0
M  V30 185 H 15.8349 -4.79901 -2.35795 0
M  V30 186 H 16.1779 -3.1306 -2.74407 0
M  V30 187 H 16.7109 -3.79833 -1.18203 0
M  V30 188 H 13.4499 -6.555 -0.00456708 0
M  V30 189 H 12.9699 -5.79687 -1.54021 0
M  V30 190 H 14.6489 -6.33884 -1.29615 0
M  V30 191 N 14.781 0.264519 -1.55364 0
M  V30 192 C 15.711 1.33121 -1.91836 0
M  V30 193 C 16.692 1.51101 -0.781192 0
M  V30 194 O 17.877 1.64003 -1.04003 0
M  V30 195 C 15.007 2.68921 -2.19769 0
M  V30 196 C 13.961 2.65661 -3.35571 0
M  V30 197 C 13.287 4.05093 -3.49004 0
M  V30 198 C 14.587 2.24187 -4.71739 0
M  V30 199 H 16.281 1.02844 -2.81182 0
M  V30 200 H 13.827 0.493286 -1.35287 0
M  V30 201 H 15.78 3.43663 -2.43872 0
M  V30 202 H 14.504 3.00799 -1.27231 0
M  V30 203 H 13.163 1.93377 -3.1145 0
M  V30 204 H 12.811 4.34206 -2.53917 0
M  V30 205 H 12.511 4.03804 -4.26868 0
M  V30 206 H 14.035 4.81561 -3.75408 0
M  V30 207 H 15.449 2.88654 -4.9533 0
M  V30 208 H 13.846 2.34044 -5.52579 0
M  V30 209 H 14.916 1.19327 -4.69988 0
M  V30 210 N 16.2591 1.48442 0.529413 0
M  V30 211 C 17.5081 1.55742 1.28169 0
M  V30 212 C 17.8211 0.236511 1.94165 0
M  V30 213 O 19.0271 0.187761 2.7085 0
M  V30 214 C 17.4831 2.74667 2.32564 0
M  V30 215 C 17.0911 4.13402 1.72636 0
M  V30 216 C 18.8351 2.9128 3.08798 0
M  V30 217 C 16.7421 5.23587 2.74975 0
M  V30 218 H 15.6721 0.579796 0.48203 0
M  V30 219 H 18.3231 1.74776 0.559056 0
M  V30 220 H 16.7051 2.49067 3.07866 0
M  V30 221 H 17.8791 4.49022 1.03519 0
M  V30 222 H 16.1941 4.0191 1.08892 0
M  V30 223 H 18.7911 3.70767 3.85274 0
M  V30 224 H 19.1341 2.00757 3.64695 0
M  V30 225 H 19.6671 3.16782 2.40611 0
M  V30 226 H 16.4061 6.16076 2.23897 0
M  V30 227 H 15.9261 4.92454 3.42417 0
M  V30 228 H 17.6051 5.51724 3.37949 0
M  V30 229 N 17.7372 -0.778329 1.37039 0
M  V30 230 C 18.9832 -1.53892 1.32079 0
M  V30 231 C 19.3162 -1.9396 -0.0965386 0
M  V30 232 O 18.5912 -1.63568 -1.05242 0
M  V30 233 C 18.8742 -2.80847 2.25382 0
M  V30 234 C 18.7272 -2.47076 3.75864 0
M  V30 235 C 20.0462 -3.82741 2.1725 0
M  V30 236 H 17.1652 -0.558303 0.48111 0
M  V30 237 H 19.8072 -0.893397 1.67685 0
M  V30 238 H 17.9572 -3.35931 1.95148 0
M  V30 239 H 19.6292 -1.97957 4.16666 0
M  V30 240 H 17.8722 -1.79863 3.94755 0
M  V30 241 H 18.5432 -3.37798 4.36574 0
M  V30 242 H 21.0192 -3.37133 2.43887 0
M  V30 243 H 19.8952 -4.69303 2.84686 0
M  V30 244 H 20.1562 -4.2652 1.16331 0
M  V30 245 N 19.2153 -1.21501 -1.00376 0
M  V30 246 C 20.4613 -1.03452 -1.74429 0
M  V30 247 C 20.7943 0.430764 -1.89362 0
M  V30 248 O 20.0693 1.31962 -1.42886 0
M  V30 249 C 20.3523 -1.73375 -3.15615 0
M  V30 250 C 20.2053 -3.27431 -3.08397 0
M  V30 251 C 21.5243 -1.47732 -4.14564 0
M  V30 252 H 18.6433 -0.377226 -0.633143 0
M  V30 253 H 21.2853 -1.49693 -1.17013 0
M  V30 254 H 19.4353 -1.34064 -3.64636 0
M  V30 255 H 21.1073 -3.76119 -2.67081 0
M  V30 256 H 19.3503 -3.5767 -2.45468 0
M  V30 257 H 20.0213 -3.71524 -4.08258 0
M  V30 258 H 22.4973 -1.8186 -3.74254 0
M  V30 259 H 21.3733 -1.99169 -5.11491 0
M  V30 260 H 21.6343 -0.407589 -4.40217 0
M  V30 261 N 20.6934 1.19889 -1.02296 0
M  V30 262 C 21.9394 1.89701 -0.717033 0
M  V30 263 C 22.2724 1.7905 0.751989 0
M  V30 264 O 21.5474 1.17891 1.547 0
M  V30 265 C 21.8304 3.40858 -1.16136 0
M  V30 266 C 21.6834 3.60411 -2.69117 0
M  V30 267 C 23.0024 4.33876 -0.737549 0
M  V30 268 H 20.1214 0.688874 -0.261957 0
M  V30 269 H 22.7634 1.41154 -1.27183 0
M  V30 270 H 20.9134 3.82335 -0.689342 0
M  V30 271 H 22.5854 3.28145 -3.2422 0
M  V30 272 H 20.8284 3.03665 -3.0979 0
M  V30 273 H 21.4994 4.66396 -2.95261 0
M  V30 274 H 23.9754 4.00081 -1.14344 0
M  V30 275 H 22.8514 5.38242 -1.0764 0
M  V30 276 H 23.1124 4.40628 0.360436 0
M  V30 277 N 22.1715 0.800033 1.35784 0
M  V30 278 C 23.4175 0.377901 1.99248 0
M  V30 279 C 23.7505 -1.05052 1.63333 0
M  V30 280 O 23.0255 -1.72768 0.893385 0
M  V30 281 C 23.3085 0.553922 3.55814 0
M  V30 282 C 23.1615 2.0268 4.01548 0
M  V30 283 C 24.4805 -0.0244802 4.40093 0
M  V30 284 H 21.5995 0.138782 0.723815 0
M  V30 285 H 24.2415 1.00835 1.61035 0
M  V30 286 H 22.3915 0.0172398 3.88496 0
M  V30 287 H 24.0635 2.62536 3.79305 0
M  V30 288 H 22.3065 2.5256 3.52698 0
M  V30 289 H 22.9775 2.10087 5.10458 0
M  V30 290 H 25.4535 0.433775 4.13833 0
M  V30 291 H 24.3295 0.128637 5.48749 0
M  V30 292 H 24.5905 -1.11758 4.27741 0
M  V30 293 N 23.6496 -1.47581 0.552962 0
M  V30 294 C 24.8976 -2.02082 0.0272703 0
M  V30 295 C 25.2186 -1.4301 -1.32563 0
M  V30 296 O 24.4886 -0.603745 -1.86365 0
M  V30 297 H 23.0686 -0.746966 0.00709182 0
M  V30 298 H 25.7306 -1.81033 0.722008 0
M  V30 299 H 24.8266 -3.12034 -0.0639951 0
M  V30 300 N 25.1277 -0.289203 -1.54924 0
M  V30 301 C 26.3747 0.323519 -1.99899 0
M  V30 302 C 26.7027 1.54797 -1.17762 0
M  V30 303 O 25.9577 1.94237 -0.238835 0
M  V30 304 C 26.2567 0.736119 -3.49737 0
M  V30 305 C 25.9227 -0.385276 -4.49251 0
M  V30 306 C 24.5847 -0.693156 -4.76181 0
M  V30 307 C 26.9367 -1.14021 -5.08575 0
M  V30 308 C 24.2647 -1.7593 -5.59701 0
M  V30 309 C 26.6167 -2.19619 -5.93254 0
M  V30 310 C 25.2807 -2.51026 -6.185 0
M  V30 311 H 24.5507 0.118384 -0.731482 0
M  V30 312 H 27.1977 -0.405847 -1.8715 0
M  V30 313 H 25.5027 1.54539 -3.60035 0
M  V30 314 H 27.1997 1.22118 -3.81953 0
M  V30 315 H 23.7897 -0.135202 -4.28387 0
M  V30 316 H 27.9737 -0.915611 -4.87781 0
M  V30 317 H 23.2297 -2.0075 -5.77503 0
M  V30 318 H 27.4037 -2.78581 -6.38252 0
M  V30 319 H 25.0307 -3.33772 -6.83008 0
M  V30 320 N 26.6058 1.57591 -0.0167156 0
M  V30 321 C 27.8538 1.90906 0.663285 0
M  V30 322 C 28.1748 0.892509 1.73376 0
M  V30 323 O 27.4448 -0.0677623 1.95783 0
M  V30 324 H 26.0248 0.704637 0.247983 0
M  V30 325 H 28.6868 1.94803 -0.0615909 0
M  V30 326 H 27.7828 2.9116 1.12393 0
M  V30 327 N 28.0839 -0.256276 1.55502 0
M  V30 328 C 29.3329 -0.983486 1.76098 0
M  V30 329 C 29.6459 -1.86837 0.578896 0
M  V30 330 O 30.8519 -2.63163 0.667648 0
M  V30 331 C 29.3079 -1.79868 3.1173 0
M  V30 332 C 28.9159 -0.961648 4.37557 0
M  V30 333 C 30.6599 -2.51919 3.41668 0
M  V30 334 C 28.5669 -1.77219 5.64223 0
M  V30 335 H 27.4969 -0.370936 0.656447 0
M  V30 336 H 30.1479 -0.238492 1.81944 0
M  V30 337 H 28.5299 -2.58527 2.99966 0
M  V30 338 H 29.7039 -0.218048 4.60284 0
M  V30 339 H 28.0189 -0.354913 4.14885 0
M  V30 340 H 30.6159 -3.12998 4.33516 0
M  V30 341 H 30.9589 -3.23059 2.62562 0
M  V30 342 H 31.4919 -1.80278 3.54605 0
M  V30 343 H 28.2309 -1.10471 6.46124 0
M  V30 344 H 27.7509 -2.49132 5.45613 0
M  V30 345 H 29.4299 -2.34169 6.03137 0
M  V30 346 N 29.562 -1.4872 -0.521534 0
M  V30 347 C 30.792 -1.6061 -1.29954 0
M  V30 348 C 31.2 -0.268728 -1.87282 0
M  V30 349 O 30.543 0.753221 -1.67548 0
M  V30 350 C 30.605 -2.60013 -2.48261 0
M  V30 351 C 30.269 -4.04874 -2.11957 0
M  V30 352 C 31.266 -4.92304 -1.67132 0
M  V30 353 C 28.951 -4.5047 -2.22221 0
M  V30 354 C 30.945 -6.2336 -1.33047 0
M  V30 355 C 28.632 -5.81544 -1.87748 0
M  V30 356 C 29.63 -6.67812 -1.43234 0
M  V30 357 O 29.318 -7.96446 -1.09217 0
M  V30 358 H 29.05 -0.544116 -0.401141 0
M  V30 359 H 31.604 -1.95339 -0.634958 0
M  V30 360 H 29.834 -2.20422 -3.17728 0
M  V30 361 H 31.523 -2.61648 -3.10315 0
M  V30 362 H 32.289 -4.58312 -1.58665 0
M  V30 363 H 28.168 -3.83504 -2.55823 0
M  V30 364 H 31.712 -6.90649 -0.982299 0
M  V30 365 H 27.609 -6.15069 -1.95858 0
M  V30 366 H 28.377 -8.09275 -1.22542 0
M  V30 367 N 31.0401 0.771051 -1.3745 0
M  V30 368 C 32.2871 1.52963 -1.32697 0
M  V30 369 C 32.6151 1.94299 0.0883274 0
M  V30 370 O 31.8701 1.64397 1.0617 0
M  V30 371 C 32.1691 2.80676 -2.2126 0
M  V30 372 C 31.8351 2.58389 -3.69521 0
M  V30 373 C 30.4971 2.52019 -4.09927 0
M  V30 374 C 32.8491 2.38469 -4.63446 0
M  V30 375 C 30.1771 2.23721 -5.42371 0
M  V30 376 C 32.5291 2.11694 -5.96128 0
M  V30 377 C 31.1931 2.03769 -6.35637 0
M  V30 378 H 30.4631 0.559732 -0.485573 0
M  V30 379 H 33.1101 0.888083 -1.69662 0
M  V30 380 H 31.4151 3.49392 -1.77291 0
M  V30 381 H 33.1121 3.38557 -2.14895 0
M  V30 382 H 29.7021 2.6421 -3.37478 0
M  V30 383 H 33.8861 2.4238 -4.33089 0
M  V30 384 H 29.1421 2.16081 -5.71943 0
M  V30 385 H 33.3161 1.9528 -6.6846 0
M  V30 386 H 30.9431 1.81606 -7.38189 0
M  V30 387 N 32.5182 1.22032 0.997298 0
M  V30 388 C 33.7482 1.06686 1.76923 0
M  V30 389 C 34.1562 -0.385838 1.85224 0
M  V30 390 O 33.4992 -1.27929 1.31833 0
M  V30 391 C 33.5612 1.59802 3.22031 0
M  V30 392 C 33.2252 3.08362 3.37286 0
M  V30 393 C 34.2222 4.05835 3.24952 0
M  V30 394 C 31.9072 3.47727 3.6248 0
M  V30 395 C 33.9012 5.4066 3.37588 0
M  V30 396 C 31.5882 4.82701 3.74757 0
M  V30 397 C 32.5862 5.78977 3.62319 0
M  V30 398 O 32.2742 7.11502 3.74193 0
M  V30 399 H 32.0062 0.374767 0.562606 0
M  V30 400 H 34.5602 1.61991 1.26286 0
M  V30 401 H 32.7902 0.989003 3.73839 0
M  V30 402 H 34.4792 1.40184 3.80924 0
M  V30 403 H 35.2452 3.76766 3.05405 0
M  V30 404 H 31.1242 2.73317 3.7124 0
M  V30 405 H 34.6682 6.15788 3.27796 0
M  V30 406 H 30.5652 5.11453 3.9381 0
M  V30 407 H 31.3332 7.19019 3.91093 0
M  V30 408 N 33.9963 -1.19345 1.0293 0
M  V30 409 C 34.9593 -2.20793 0.615069 0
M  V30 410 C 35.9593 -1.57553 -0.321533 0
M  V30 411 O 37.1493 -1.73862 -0.108483 0
M  V30 412 C 34.2813 -3.40754 -0.0999222 0
M  V30 413 H 35.4743 -2.58955 1.51269 0
M  V30 414 H 33.0273 -1.3303 0.820534 0
M  V30 415 H 33.7623 -3.0811 -1.01187 0
M  V30 416 H 33.5473 -3.87889 0.57309 0
M  V30 417 H 35.0373 -4.15898 -0.376645 0
M  V30 418 N 35.4744 -0.807222 -1.35358 0
M  V30 419 C 36.6994 -0.399309 -2.0352 0
M  V30 420 C 37.1244 0.981986 -1.60433 0
M  V30 421 O 36.4824 1.63601 -0.781299 0
M  V30 422 C 36.5304 -0.491552 -3.57234 0
M  V30 423 O 35.6344 0.494754 -4.09421 0
M  V30 424 H 34.9754 -0.166682 -0.642739 0
M  V30 425 H 37.5054 -1.09328 -1.72941 0
M  V30 426 H 37.5154 -0.361588 -4.06395 0
M  V30 427 H 36.1904 -1.49907 -3.87944 0
M  V30 428 H 34.7674 0.324977 -3.71481 0
M  V30 429 N 36.9525 1.47285 -0.560781 0
M  V30 430 C 37.8995 2.30058 0.18491 0
M  V30 431 C 38.8695 1.39281 0.904986 0
M  V30 432 O 40.0545 1.68241 0.899979 0
M  V30 433 C 37.1945 3.23317 1.20666 0
M  V30 434 C 36.3075 4.29186 0.492285 0
M  V30 435 C 35.4425 5.09592 1.49964 0
M  V30 436 C 34.4815 6.07232 0.770439 0
M  V30 437 N 33.6185 6.80584 1.72479 0
M  V30 438 H 38.4585 2.93302 -0.527048 0
M  V30 439 H 35.9955 1.44568 -0.271738 0
M  V30 440 H 37.9535 3.75811 1.81168 0
M  V30 441 H 36.5835 2.61929 1.88661 0
M  V30 442 H 35.6355 3.7972 -0.227333 0
M  V30 443 H 36.9475 4.98738 -0.0787929 0
M  V30 444 H 36.1015 5.66254 2.17809 0
M  V30 445 H 34.8405 4.3995 2.10464 0
M  V30 446 H 33.8455 5.49745 0.0780846 0
M  V30 447 H 35.0705 6.78884 0.171134 0
M  V30 448 H 33.0165 6.1367 2.3183 0
M  V30 449 H 32.9335 7.46319 1.20596 0
M  V30 450 H 34.2015 7.41818 2.39428 0
M  V30 451 N 38.4306 0.297415 1.54768 0
M  V30 452 C 39.7076 -0.365847 1.92148 0
M  V30 453 C 40.0876 -1.71975 1.22424 0
M  V30 454 O 39.4356 -2.25666 0.358739 0
M  V30 455 C 39.6456 -0.484056 3.45627 0
M  V30 456 C 40.9936 -0.756594 4.17805 0
M  V30 457 O 42.0176 -0.568007 3.51642 0
M  V30 458 O 40.8766 -1.11863 5.34929 0
M  V30 459 H 37.9706 -0.203919 0.801465 0
M  V30 460 H 40.5166 0.34521 1.66152 0
M  V30 461 H 39.2886 0.467865 3.88493 0
M  V30 462 H 38.9116 -1.24372 3.77647 0
M  V30 463 N 39.9087 -1.5758 0.0250728 0
M  V30 464 C 40.8557 -2.09973 -0.958129 0
M  V30 465 C 41.8257 -1.00085 -1.3256 0
M  V30 466 O 43.0107 -1.27481 -1.41962 0
M  V30 467 C 40.1507 -2.62812 -2.2366 0
M  V30 468 C 39.2637 -3.86693 -1.92594 0
M  V30 469 C 38.3987 -4.27941 -3.14707 0
M  V30 470 C 37.4377 -5.44591 -2.79442 0
M  V30 471 N 36.5747 -5.81014 -3.94167 0
M  V30 472 H 41.4147 -2.937 -0.504428 0
M  V30 473 H 38.9517 -1.45172 -0.237392 0
M  V30 474 H 40.9097 -2.91536 -2.98434 0
M  V30 475 H 39.5397 -1.81922 -2.66654 0
M  V30 476 H 38.5917 -3.64723 -1.0808 0
M  V30 477 H 39.9037 -4.71547 -1.62619 0
M  V30 478 H 39.0577 -4.58079 -3.97804 0
M  V30 479 H 37.7967 -3.41845 -3.4784 0
M  V30 480 H 36.8017 -5.1415 -1.94755 0
M  V30 481 H 38.0267 -6.32382 -2.47528 0
M  V30 482 H 35.9727 -4.97874 -4.2715 0
M  V30 483 H 35.8897 -6.60498 -3.67801 0
M  V30 484 H 37.1577 -6.15756 -4.7798 0
M  V30 485 N 41.3868 0.248026 -1.55636 0
M  V30 486 C 42.2968 1.32859 -1.93354 0
M  V30 487 C 43.3128 1.52719 -0.833838 0
M  V30 488 O 44.4888 1.66363 -1.13513 0
M  V30 489 C 41.5538 2.66337 -2.21958 0
M  V30 490 C 40.6148 2.55008 -3.45354 0
M  V30 491 C 39.8478 3.82121 -3.72584 0
M  V30 492 O 40.0708 4.83951 -3.01907 0
M  V30 493 O 39.0048 3.80822 -4.6611 0
M  V30 494 H 42.8308 1.03862 -2.85388 0
M  V30 495 H 40.4158 0.448686 -1.42503 0
M  V30 496 H 42.2978 3.45216 -2.4167 0
M  V30 497 H 40.9728 2.95068 -1.33103 0
M  V30 498 H 39.8798 1.7442 -3.30951 0
M  V30 499 H 41.2128 2.31222 -4.34508 0
M  V30 500 N 42.8649 1.48995 0.513639 0
M  V30 501 C 44.1139 1.57093 1.2651 0
M  V30 502 C 44.4269 0.257091 1.93903 0
M  V30 503 O 45.6329 0.216478 2.70636 0
M  V30 504 C 44.0889 2.77118 2.29638 0
M  V30 505 C 43.6969 4.15209 1.68241 0
M  V30 506 C 45.4409 2.94538 3.05692 0
M  V30 507 C 43.3479 5.26474 2.69406 0
M  V30 508 H 42.2779 0.584876 0.475854 0
M  V30 509 H 44.9289 1.7536 0.540487 0
M  V30 510 H 43.3109 2.52319 3.05207 0
M  V30 511 H 44.4849 4.50094 0.987505 0
M  V30 512 H 42.7999 4.03042 1.04623 0
M  V30 513 H 45.3969 3.74832 3.8132 0
M  V30 514 H 45.7399 2.04614 3.62545 0
M  V30 515 H 46.2729 3.19316 2.37238 0
M  V30 516 H 43.0119 6.18417 2.17351 0
M  V30 517 H 42.5319 4.96058 3.37175 0
M  V30 518 H 44.2109 5.55277 3.32078 0
M  V30 519 N 44.343 -0.763751 1.37857 0
M  V30 520 C 45.291 -1.89864 1.34367 0
M  V30 521 C 46.285 -1.67816 0.231143 0
M  V30 522 O 47.491 -1.75508 0.399617 0
M  V30 523 H 43.866 -0.624501 0.41893 0
M  V30 524 H 45.837 -1.89925 2.30155 0
M  V30 525 C 44.586 -3.27227 1.1755 0
M  V30 526 H 43.909 -3.44773 2.02414 0
M  V30 527 H 45.349 -4.06911 1.1916 0
M  V30 528 C 43.808 -3.36692 -0.118311 0
M  V30 529 O 44.338 -3.86374 -1.09902 0
M  V30 530 N 42.544 -2.90092 -0.171717 0
M  V30 531 H 42.091 -2.49853 0.627012 0
M  V30 532 H 42.049 -2.96806 -1.03699 0
M  V30 533 N 45.8211 -1.22559 -0.990812 0
M  V30 534 C 46.7691 -0.994798 -2.10253 0
M  V30 535 C 47.7631 0.0627798 -1.69284 0
M  V30 536 O 48.9691 -0.0898392 -1.79776 0
M  V30 537 H 45.3441 -0.304527 -0.687581 0
M  V30 538 H 47.3151 -1.93812 -2.26891 0
M  V30 539 C 46.0641 -0.591439 -3.42633 0
M  V30 540 H 45.3871 -1.3969 -3.74602 0
M  V30 541 H 46.8271 -0.469385 -4.21394 0
M  V30 542 C 45.2861 0.699232 -3.29564 0
M  V30 543 O 45.8161 1.75112 -3.61523 0
M  V30 544 N 44.0221 0.671182 -2.82743 0
M  V30 545 H 43.5691 -0.185136 -2.56934 0
M  V30 546 H 43.5271 1.53502 -2.7438 0
M  V30 547 N 47.2992 1.18797 -1.03562 0
M  V30 548 C 48.5272 1.92599 -0.755869 0
M  V30 549 C 48.9422 1.75886 0.686271 0
M  V30 550 O 48.2992 1.08517 1.46732 0
M  V30 551 C 48.3502 3.44159 -1.10619 0
M  V30 552 O 48.0712 3.60341 -2.4917 0
M  V30 553 C 49.5722 4.3507 -0.850214 0
M  V30 554 H 46.7922 0.611587 -0.276048 0
M  V30 555 H 49.3362 1.50742 -1.38192 0
M  V30 556 H 47.4912 3.83823 -0.525194 0
M  V30 557 H 47.9052 4.54128 -2.62427 0
M  V30 558 H 49.3792 5.39989 -1.14523 0
M  V30 559 H 49.8562 4.38673 0.215176 0
M  V30 560 H 50.4622 4.01097 -1.41426 0
M  V30 561 N 48.7773 0.814389 1.34928 0
M  V30 562 C 50.0263 0.394871 1.97797 0
M  V30 563 C 50.3393 -1.04555 1.65311 0
M  V30 564 O 51.5453 -1.56856 2.21604 0
M  V30 565 C 50.0013 0.655103 3.53888 0
M  V30 566 C 49.6093 2.10858 3.95276 0
M  V30 567 C 51.3533 0.301329 4.23429 0
M  V30 568 C 49.2603 2.31415 5.44244 0
M  V30 569 H 48.1903 0.143913 0.740139 0
M  V30 570 H 50.8413 0.999544 1.53888 0
M  V30 571 H 49.2233 -0.0196253 3.95995 0
M  V30 572 H 50.3973 2.82176 3.64298 0
M  V30 573 H 48.7123 2.42297 3.38646 0
M  V30 574 H 51.3093 0.432869 5.32945 0
M  V30 575 H 51.6523 -0.75331 4.09428 0
M  V30 576 H 52.1853 0.930288 3.86769 0
M  V30 577 H 48.9243 3.35353 5.63222 0
M  V30 578 H 48.4443 1.6463 5.76764 0
M  V30 579 H 50.1233 2.13352 6.10811 0
M  V30 580 N 50.2554 -1.46986 0.568584 0
M  V30 581 C 51.5324 -1.95592 -0.0174074 0
M  V30 582 C 51.9124 -1.51124 -1.47393 0
M  V30 583 O 51.2604 -0.755329 -2.15655 0
M  V30 584 C 51.4704 -3.48719 0.139913 0
M  V30 585 C 52.8184 -4.246 0.000426376 0
M  V30 586 O 53.8424 -3.56135 0.0680316 0
M  V30 587 O 52.7014 -5.46302 -0.146988 0
M  V30 588 H 49.7954 -0.82498 -0.0577599 0
M  V30 589 H 52.3414 -1.57335 0.635909 0
M  V30 590 H 51.1134 -3.73927 1.15301 0
M  V30 591 H 50.7364 -3.93771 -0.550491 0
M  V30 592 N 51.7335 -0.305618 -1.54608 0
M  V30 593 C 52.6965 0.555591 -2.22364 0
M  V30 594 C 53.6965 1.05768 -1.21119 0
M  V30 595 O 54.8865 0.952972 -1.45822 0
M  V30 596 C 52.0185 1.76974 -2.91364 0
M  V30 597 H 53.2115 -0.0364572 -2.99878 0
M  V30 598 H 50.7645 -0.0565007 -1.56198 0
M  V30 599 H 51.4995 2.40151 -2.17941 0
M  V30 600 H 51.2845 1.41732 -3.65588 0
M  V30 601 H 52.7745 2.38148 -3.43038 0
M  V30 602 N 53.2116 1.57565 -0.0334293 0
M  V30 603 C 54.4606 1.91155 0.643639 0
M  V30 604 C 54.7736 0.91192 1.73042 0
M  V30 605 O 55.9796 1.13923 2.46442 0
M  V30 606 C 54.4356 3.39443 1.1961 0
M  V30 607 C 54.0436 4.47774 0.142381 0
M  V30 608 C 55.7876 3.82094 1.84944 0
M  V30 609 C 53.6946 5.87162 0.706727 0
M  V30 610 H 52.6246 0.713368 0.244176 0
M  V30 611 H 55.2756 1.8323 -0.0994323 0
M  V30 612 H 53.6576 3.42313 1.99092 0
M  V30 613 H 54.8316 4.56469 -0.630296 0
M  V30 614 H 53.1466 4.14352 -0.412446 0
M  V30 615 H 55.7436 4.83591 2.2813 0
M  V30 616 H 56.0866 3.17386 2.69392 0
M  V30 617 H 56.6196 3.81665 1.12145 0
M  V30 618 H 53.3586 6.55424 -0.0997178 0
M  V30 619 H 52.8786 5.82064 1.44779 0
M  V30 620 H 54.5576 6.35866 1.19514 0
M  V30 621 N 54.6897 -0.239769 1.55765 0
M  V30 622 C 55.5997 -1.31831 1.94056 0
M  V30 623 C 56.6157 -1.52275 0.841925 0
M  V30 624 O 57.7917 -1.65759 1.14394 0
M  V30 625 C 54.8567 -2.65156 2.23368 0
M  V30 626 C 53.9177 -2.53173 3.46701 0
M  V30 627 C 53.1507 -3.8014 3.74606 0
M  V30 628 O 53.3737 -4.82343 3.04469 0
M  V30 629 O 52.3077 -3.78344 4.68123 0
M  V30 630 H 56.1337 -1.02347 2.85935 0
M  V30 631 H 53.7187 -0.441123 1.42739 0
M  V30 632 H 55.6007 -3.43929 2.43497 0
M  V30 633 H 54.2757 -2.94358 1.34666 0
M  V30 634 H 53.1827 -1.72662 3.31871 0
M  V30 635 H 54.5157 -2.28915 4.35728 0
M  V30 636 N 56.1678 -1.49265 -0.50573 0
M  V30 637 C 57.4448 -1.49012 -1.26707 0
M  V30 638 C 57.8248 -0.215205 -2.1 0
M  V30 639 O 57.1728 0.802547 -2.13943 0
M  V30 640 C 57.3828 -2.7663 -2.12783 0
M  V30 641 C 58.7308 -3.25932 -2.72127 0
M  V30 642 O 59.7548 -2.77715 -2.23054 0
M  V30 643 O 58.6138 -4.09897 -3.61451 0
M  V30 644 H 55.7078 -0.596197 -0.57313 0
M  V30 645 H 58.2538 -1.61524 -0.52039 0
M  V30 646 H 57.0258 -3.60916 -1.5118 0
M  V30 647 H 56.6488 -2.66956 -2.94653 0
M  V30 648 N 57.6459 0.756429 -1.3826 0
M  V30 649 C 58.5929 1.87011 -1.35261 0
M  V30 650 C 59.5629 1.64695 -0.215616 0
M  V30 651 O 60.7479 1.864 -0.407399 0
M  V30 652 C 57.8879 3.24275 -1.18068 0
M  V30 653 C 57.0009 3.58442 -2.41129 0
M  V30 654 C 56.1359 4.84994 -2.16689 0
M  V30 655 C 55.1749 5.11939 -3.35537 0
M  V30 656 N 54.3119 6.29685 -3.10549 0
M  V30 657 H 59.1519 1.8891 -2.30472 0
M  V30 658 H 56.6889 0.923373 -1.14509 0
M  V30 659 H 58.6469 4.03479 -1.06116 0
M  V30 660 H 57.2769 3.21711 -0.264973 0
M  V30 661 H 56.3289 2.74103 -2.63764 0
M  V30 662 H 57.6409 3.74283 -3.29717 0
M  V30 663 H 56.7949 5.72135 -2.01857 0
M  V30 664 H 55.5339 4.71286 -1.25462 0
M  V30 665 H 54.5389 4.23268 -3.50891 0
M  V30 666 H 55.7639 5.27546 -4.27635 0
M  V30 667 H 53.7099 6.17306 -2.21967 0
M  V30 668 H 53.6269 6.46014 -3.92686 0
M  V30 669 H 54.8949 7.19722 -2.99367 0
M  V30 670 N 59.124 1.23083 0.984299 0
M  V30 671 C 60.072 1.00593 2.09723 0
M  V30 672 C 61.066 -0.0538014 1.69315 0
M  V30 673 O 62.272 0.0993719 1.79725 0
M  V30 674 H 58.647 0.30817 0.685956 0
M  V30 675 H 60.618 1.95012 2.2586 0
M  V30 676 C 59.367 0.609601 3.42314 0
M  V30 677 H 58.69 1.41675 3.73856 0
M  V30 678 H 60.13 0.491726 4.21139 0
M  V30 679 C 58.589 -0.681745 3.2993 0
M  V30 680 O 59.119 -1.73192 3.62446 0
M  V30 681 N 57.325 -0.656178 2.83095 0
M  V30 682 H 56.872 0.198759 2.56832 0
M  V30 683 H 56.83 -1.52044 2.75191 0
M  V30 684 N 60.6021 -1.18246 1.0419 0
M  V30 685 C 61.8491 -1.88257 0.746017 0
M  V30 686 C 62.1771 -1.80429 -0.726331 0
M  V30 687 O 61.4321 -1.2 -1.54591 0
M  V30 688 C 61.7311 -3.38082 1.15911 0
M  V30 689 C 61.3971 -3.66114 2.63195 0
M  V30 690 C 60.0591 -3.73474 3.03432 0
M  V30 691 C 62.4111 -3.78398 3.5842 0
M  V30 692 C 59.7391 -3.90599 4.37778 0
M  V30 693 C 62.0911 -3.97039 4.92487 0
M  V30 694 C 60.7551 -4.02635 5.32392 0
M  V30 695 H 60.0251 -0.688883 0.272987 0
M  V30 696 H 62.6721 -1.3995 1.30715 0
M  V30 697 H 60.9771 -3.88377 0.516806 0
M  V30 698 H 62.6741 -3.90596 0.907516 0
M  V30 699 H 59.2641 -3.61003 2.3103 0
M  V30 700 H 63.4481 -3.72042 3.28479 0
M  V30 701 H 58.7041 -3.93175 4.68213 0
M  V30 702 H 62.8781 -4.05486 5.66175 0
M  V30 703 H 60.5051 -4.15657 6.36501 0
M  V30 704 N 62.0802 -0.821533 -1.34494 0
M  V30 705 C 63.0272 -0.240397 -2.29545 0
M  V30 706 C 63.9972 0.634031 -1.53523 0
M  V30 707 O 65.1822 0.575966 -1.81899 0
M  V30 708 C 62.3222 0.592869 -3.39969 0
M  V30 709 C 61.4352 -0.30365 -4.30932 0
M  V30 710 C 60.5702 0.539049 -5.28458 0
M  V30 711 C 59.6092 -0.356942 -6.11058 0
M  V30 712 N 58.7462 0.446603 -7.00678 0
M  V30 713 H 63.5862 -1.05632 -2.7865 0
M  V30 714 H 61.1232 -0.532413 -1.37127 0
M  V30 715 H 63.0812 1.09129 -4.02675 0
M  V30 716 H 61.7112 1.37392 -2.92102 0
M  V30 717 H 60.7632 -0.920276 -3.691 0
M  V30 718 H 62.0752 -0.992661 -4.88823 0
M  V30 719 H 61.2292 1.102 -5.96608 0
M  V30 720 H 59.9682 1.26157 -4.71101 0
M  V30 721 H 58.9732 -0.932047 -5.41842 0
M  V30 722 H 60.1982 -1.07755 -6.70497 0
M  V30 723 H 58.1442 1.15282 -6.45791 0
M  V30 724 H 58.0612 -0.184048 -7.55776 0
M  V30 725 H 59.3292 0.992352 -7.73158 0
M  V30 726 N 63.5583 1.46682 -0.576371 0
M  V30 727 C 64.4903 2.28341 0.198231 0
M  V30 728 C 65.5033 1.38141 0.861453 0
M  V30 729 O 66.6923 1.62797 0.732082 0
M  V30 730 C 63.7923 3.12986 1.29972 0
M  V30 731 C 62.9653 4.31271 0.729639 0
M  V30 732 C 62.0243 4.97363 1.71803 0
M  V30 733 O 61.0503 5.55156 1.25658 0
M  V30 734 N 62.2523 4.93796 3.05198 0
M  V30 735 H 65.0173 2.9546 -0.502324 0
M  V30 736 H 62.5783 1.56525 -0.413715 0
M  V30 737 H 64.5703 3.54066 1.96008 0
M  V30 738 H 63.1403 2.47984 1.90323 0
M  V30 739 H 62.3603 3.94052 -0.108012 0
M  V30 740 H 63.6483 5.07739 0.328438 0
M  V30 741 H 63.0463 4.48077 3.45317 0
M  V30 742 H 61.6033 5.38837 3.6674 0
M  V30 743 N 65.0364 0.313813 1.54444 0
M  V30 744 C 66.2824 -0.292108 2.00685 0
M  V30 745 C 66.6154 -1.52548 1.20177 0
M  V30 746 O 65.8904 -1.92452 0.281531 0
M  V30 747 C 66.1734 -0.635968 3.5444 0
M  V30 748 C 66.0264 0.607437 4.4568 0
M  V30 749 C 67.3454 -1.45747 4.15266 0
M  V30 750 H 64.4644 -0.104697 0.729526 0
M  V30 751 H 67.1064 0.428457 1.85106 0
M  V30 752 H 65.2564 -1.24986 3.67846 0
M  V30 753 H 66.9284 1.24581 4.44159 0
M  V30 754 H 65.1714 1.23822 4.15753 0
M  V30 755 H 65.8424 0.322515 5.51057 0
M  V30 756 H 68.3184 -0.938645 4.05375 0
M  V30 757 H 67.1944 -1.66683 5.2298 0
M  V30 758 H 67.4554 -2.45063 3.67963 0
M  V30 759 N 66.5145 -1.57545 0.0417849 0
M  V30 760 C 67.7445 -1.96339 -0.642995 0
M  V30 761 C 68.1525 -0.917536 -1.65463 0
M  V30 762 O 67.4955 0.107747 -1.83384 0
M  V30 763 C 67.5575 -3.31333 -1.39494 0
M  V30 764 C 67.2215 -4.53796 -0.540204 0
M  V30 765 C 68.2185 -5.19553 0.189806 0
M  V30 766 C 65.9035 -5.0006 -0.473886 0
M  V30 767 C 67.8975 -6.29904 0.974674 0
M  V30 768 C 65.5845 -6.10289 0.314677 0
M  V30 769 C 66.5825 -6.75072 1.03765 0
M  V30 770 O 66.2705 -7.83183 1.81327 0
M  V30 771 H 66.0025 -0.651241 -0.181277 0
M  V30 772 H 68.5565 -2.05148 0.101665 0
M  V30 773 H 66.7865 -3.19052 -2.18502 0
M  V30 774 H 68.4755 -3.54942 -1.96904 0
M  V30 775 H 69.2415 -4.84774 0.147981 0
M  V30 776 H 65.1205 -4.49433 -1.0262 0
M  V30 777 H 68.6645 -6.80401 1.5395 0
M  V30 778 H 64.5615 -6.44506 0.358174 0
M  V30 779 H 65.3295 -7.99913 1.73438 0
M  V30 780 N 67.9926 0.231505 -1.5589 0
M  V30 781 C 68.9396 1.28682 -1.91598 0
M  V30 782 C 69.9096 1.47071 -0.771974 0
M  V30 783 O 71.0946 1.60802 -1.027 0
M  V30 784 C 68.2346 2.6342 -2.22944 0
M  V30 785 C 67.3476 2.52912 -3.50228 0
M  V30 786 C 66.4826 3.80106 -3.7107 0
M  V30 787 C 65.5216 3.64279 -4.91902 0
M  V30 788 N 64.6586 4.834 -5.09184 0
M  V30 789 H 69.4986 0.975305 -2.81588 0
M  V30 790 H 67.0356 0.470299 -1.39379 0
M  V30 791 H 68.9936 3.41869 -2.39126 0
M  V30 792 H 67.6236 2.92687 -1.36139 0
M  V30 793 H 66.6756 1.6595 -3.42294 0
M  V30 794 H 67.9876 2.37133 -4.38827 0
M  V30 795 H 67.1416 4.66999 -3.87295 0
M  V30 796 H 65.8806 3.98799 -2.80733 0
M  V30 797 H 64.8856 2.7577 -4.75637 0
M  V30 798 H 66.1106 3.47067 -5.83714 0
M  V30 799 H 64.0566 5.02425 -4.21788 0
M  V30 800 H 63.9736 4.70311 -5.91898 0
M  V30 801 H 65.2416 5.71747 -5.29835 0
M  V30 802 N 69.4707 1.49531 0.497807 0
M  V30 803 C 70.7477 1.49682 1.25915 0
M  V30 804 C 71.1277 0.226339 2.09883 0
M  V30 805 O 70.4757 -0.791189 2.14365 0
M  V30 806 C 70.6857 2.77755 2.11313 0
M  V30 807 C 72.0337 3.27371 2.70395 0
M  V30 808 O 73.0577 2.78894 2.21578 0
M  V30 809 O 71.9167 4.11808 3.59272 0
M  V30 810 H 69.0107 0.599228 0.56996 0
M  V30 811 H 71.5567 1.61798 0.511816 0
M  V30 812 H 70.3287 3.61713 1.49264 0
M  V30 813 H 69.9517 2.68515 2.93233 0
M  V30 814 N 70.9488 -0.749086 1.3866 0
M  V30 815 C 72.1738 -1.54344 1.38538 0
M  V30 816 C 72.5988 -1.88088 -0.0216655 0
M  V30 817 O 71.9568 -1.50899 -1.00494 0
M  V30 818 C 72.0048 -2.8164 2.25192 0
M  V30 819 O 71.1088 -3.7698 1.67212 0
M  V30 820 H 70.4498 -0.466654 0.472367 0
M  V30 821 H 72.9798 -0.925355 1.82478 0
M  V30 822 H 72.9898 -3.30519 2.3921 0
M  V30 823 H 71.6648 -2.56411 3.27454 0
M  V30 824 H 70.2418 -3.35699 1.6236 0
M  V30 825 N 72.4269 -1.23603 -0.977757 0
M  V30 826 C 73.6519 -1.09735 -1.75991 0
M  V30 827 C 74.0769 0.346858 -1.84874 0
M  V30 828 O 73.4349 1.25093 -1.3123 0
M  V30 829 C 73.4829 -1.73051 -3.16363 0
M  V30 830 O 72.5869 -0.994452 -4.0023 0
M  V30 831 H 71.9279 -0.384476 -0.541364 0
M  V30 832 H 74.4579 -1.6371 -1.2272 0
M  V30 833 H 74.4679 -1.78398 -3.66931 0
M  V30 834 H 73.1429 -2.78137 -3.09213 0
M  V30 835 H 71.7199 -1.01812 -3.58732 0
M  V30 836 N 73.905 1.17692 -1.04816 0
M  V30 837 C 75.135 1.91508 -0.775128 0
M  V30 838 C 75.543 1.76844 0.67253 0
M  V30 839 O 74.886 1.10057 1.47082 0
M  V30 840 C 74.948 3.43167 -1.0713 0
M  V30 841 C 74.612 3.81612 -2.51438 0
M  V30 842 C 75.609 3.84772 -3.49638 0
M  V30 843 C 73.294 4.12687 -2.86348 0
M  V30 844 C 75.288 4.18469 -4.80794 0
M  V30 845 C 72.975 4.46053 -4.17708 0
M  V30 846 C 73.973 4.48921 -5.14741 0
M  V30 847 O 73.661 4.81504 -6.43746 0
M  V30 848 H 73.393 0.614575 -0.281555 0
M  V30 849 H 75.947 1.50206 -1.40098 0
M  V30 850 H 74.177 3.84745 -0.388342 0
M  V30 851 H 75.866 3.98239 -0.784883 0
M  V30 852 H 76.632 3.60893 -3.24008 0
M  V30 853 H 72.511 4.09627 -2.11486 0
M  V30 854 H 76.055 4.20623 -5.56527 0
M  V30 855 H 71.952 4.69393 -4.43103 0
M  V30 856 H 72.72 4.99377 -6.4851 0
M  V30 857 N 75.3831 0.828654 1.34056 0
M  V30 858 C 76.6321 0.415828 1.97367 0
M  V30 859 C 76.9451 -1.02796 1.6641 0
M  V30 860 O 78.1511 -1.54497 2.23255 0
M  V30 861 C 76.6071 0.692601 3.53173 0
M  V30 862 C 76.2151 2.15038 3.93017 0
M  V30 863 C 77.9591 0.346222 4.23086 0
M  V30 864 C 75.8661 2.37174 5.41758 0
M  V30 865 H 74.7961 0.151755 0.738571 0
M  V30 866 H 77.4471 1.01581 1.52819 0
M  V30 867 H 75.8291 0.0223764 3.95994 0
M  V30 868 H 77.0031 2.86024 3.61285 0
M  V30 869 H 75.3181 2.45875 3.36057 0
M  V30 870 H 77.9151 0.48937 5.32456 0
M  V30 871 H 78.2581 -0.709842 4.10204 0
M  V30 872 H 78.7911 0.971258 3.85761 0
M  V30 873 H 75.5301 3.41308 5.59633 0
M  V30 874 H 75.0501 1.70738 5.74986 0
M  V30 875 H 76.7291 2.19818 6.08514 0
M  V30 876 N 76.8612 -1.46375 0.584142 0
M  V30 877 C 78.0862 -2.07268 0.0740405 0
M  V30 878 C 78.5112 -1.42979 -1.22223 0
M  V30 879 O 77.8692 -0.514092 -1.73859 0
M  V30 880 C 77.9172 -3.60518 -0.0767769 0
M  V30 881 O 77.0212 -3.96533 -1.13292 0
M  V30 882 H 76.3622 -0.660961 0.0634524 0
M  V30 883 H 78.8922 -1.87991 0.807492 0
M  V30 884 H 78.9022 -4.07021 -0.282489 0
M  V30 885 H 77.5772 -4.06702 0.86986 0
M  V30 886 H 76.1542 -3.61738 -0.905553 0
M  V30 887 N 78.3393 -0.321999 -1.54275 0
M  V30 888 C 79.2863 0.544664 -2.24281 0
M  V30 889 C 80.2563 1.1129 -1.23303 0
M  V30 890 O 81.4413 1.15354 -1.51981 0
M  V30 891 C 78.5813 1.70045 -3.00298 0
M  V30 892 C 77.6943 1.16159 -4.1609 0
M  V30 893 C 76.8293 2.28293 -4.79641 0
M  V30 894 C 75.8683 1.71648 -5.8754 0
M  V30 895 N 75.0053 2.77438 -6.44959 0
M  V30 896 H 79.8453 -0.0588907 -2.97942 0
M  V30 897 H 77.3823 -0.0408345 -1.47043 0
M  V30 898 H 79.3403 2.38054 -3.42616 0
M  V30 899 H 77.9703 2.27531 -2.28975 0
M  V30 900 H 77.0223 0.373092 -3.78566 0
M  V30 901 H 78.3343 0.707087 -4.93763 0
M  V30 902 H 77.4883 3.0421 -5.2492 0
M  V30 903 H 76.2273 2.77079 -4.01346 0
M  V30 904 H 75.2323 0.942282 -5.41665 0
M  V30 905 H 76.4573 1.23741 -6.67731 0
M  V30 906 H 74.4033 3.25519 -5.69538 0
M  V30 907 H 74.3203 2.36547 -7.1804 0
M  V30 908 H 75.5883 3.53189 -6.94894 0
M  V30 909 N 79.8174 1.5752 -0.0501392 0
M  V30 910 C 81.0424 1.97376 0.636997 0
M  V30 911 C 81.4674 0.927466 1.63645 0
M  V30 912 O 80.8254 -0.10941 1.8097 0
M  V30 913 C 80.8734 3.36304 1.30123 0
M  V30 914 O 79.9774 3.34156 2.41689 0
M  V30 915 H 79.3184 0.642998 0.165679 0
M  V30 916 H 81.8484 2.04258 -0.118233 0
M  V30 917 H 81.8584 3.73008 1.65315 0
M  V30 918 H 80.5334 4.11993 0.568746 0
M  V30 919 H 79.1104 3.09196 2.08451 0
M  V30 920 N 81.2955 -0.223234 1.56011 0
M  V30 921 C 82.5725 -0.972108 1.69733 0
M  V30 922 C 82.9525 -2.02485 0.59691 0
M  V30 923 O 82.3005 -2.25037 -0.396324 0
M  V30 924 C 82.5105 -1.58407 3.10979 0
M  V30 925 C 83.8585 -2.07696 3.70334 0
M  V30 926 O 84.8825 -1.68304 3.1393 0
M  V30 927 O 83.7415 -2.80096 4.69264 0
M  V30 928 H 80.8355 -0.453993 0.691245 0
M  V30 929 H 83.3815 -0.215149 1.68331 0
M  V30 930 H 82.1535 -0.823831 3.82529 0
M  V30 931 H 81.7765 -2.40661 3.16493 0
M  V30 932 N 82.7736 -1.49793 -0.48987 0
M  V30 933 C 83.7216 -1.67783 -1.61095 0
M  V30 934 C 84.7156 -0.543683 -1.60438 0
M  V30 935 O 85.9216 -0.723647 -1.64813 0
M  V30 936 H 82.2966 -0.529255 -0.534222 0
M  V30 937 H 84.2676 -2.61861 -1.43078 0
M  V30 938 C 83.0166 -1.77191 -2.99164 0
M  V30 939 H 82.3396 -2.63841 -3.0038 0
M  V30 940 H 83.7796 -1.93809 -3.77113 0
M  V30 941 C 82.2386 -0.519203 -3.32875 0
M  V30 942 O 82.7686 0.350124 -4.00171 0
M  V30 943 N 80.9746 -0.378816 -2.8812 0
M  V30 944 H 80.5216 -1.08725 -2.33531 0
M  V30 945 H 80.4796 0.458239 -3.11043 0
M  V30 946 N 84.2517 0.741722 -1.39055 0
M  V30 947 C 85.4997 1.49818 -1.35643 0
M  V30 948 C 85.8207 1.94938 0.0491642 0
M  V30 949 O 85.0907 1.68505 0.999141 0
M  V30 950 H 83.6707 0.555755 -0.499144 0
M  V30 951 H 86.3327 0.880957 -1.73854 0
M  V30 952 H 85.4287 2.38348 -2.01486 0
M  V30 953 N 85.7298 1.2412 0.971189 0
M  V30 954 C 86.6398 1.04747 2.09917 0
M  V30 955 C 87.6558 -0.0107162 1.73997 0
M  V30 956 O 88.8318 0.186714 2.00533 0
M  V30 957 C 85.8968 0.650828 3.40537 0
M  V30 958 C 84.9578 1.7851 3.90426 0
M  V30 959 C 84.1908 1.40729 5.14812 0
M  V30 960 O 84.4138 0.29557 5.69634 0
M  V30 961 O 83.3478 2.23168 5.58999 0
M  V30 962 H 87.1738 1.99304 2.29154 0
M  V30 963 H 84.7588 1.02908 1.08307 0
M  V30 964 H 86.6408 0.440992 4.19086 0
M  V30 965 H 85.3158 -0.265649 3.22608 0
M  V30 966 H 84.2228 2.04966 3.12953 0
M  V30 967 H 85.5558 2.68023 4.12825 0
M  V30 968 N 87.2079 -1.17134 1.05439 0
M  V30 969 C 88.4539 -1.87733 0.767077 0
M  V30 970 C 88.7869 -1.8098 -0.704253 0
M  V30 971 O 88.0619 -1.21951 -1.5152 0
M  V30 972 C 88.3449 -3.37659 1.25133 0
M  V30 973 C 88.1979 -3.53149 2.78578 0
M  V30 974 C 89.5169 -4.31768 0.852324 0
M  V30 975 H 86.6359 -0.681687 0.280129 0
M  V30 976 H 89.2779 -1.37732 1.30881 0
M  V30 977 H 87.4279 -3.80373 0.790469 0
M  V30 978 H 89.0999 -3.19434 3.32806 0
M  V30 979 H 87.3429 -2.95345 3.17732 0
M  V30 980 H 88.0139 -4.58403 3.07523 0
M  V30 981 H 90.4899 -3.96909 1.24911 0
M  V30 982 H 89.3659 -5.35199 1.21873 0
M  V30 983 H 89.6269 -4.41429 -0.243485 0
M  V30 984 N 88.686 -0.835752 -1.33615 0
M  V30 985 C 89.596 -0.269088 -2.33052 0
M  V30 986 C 90.612 0.603251 -1.63208 0
M  V30 987 O 91.788 0.508112 -1.94885 0
M  V30 988 C 88.853 0.549091 -3.42324 0
M  V30 989 C 87.914 -0.347156 -4.27894 0
M  V30 990 C 87.147 0.43207 -5.31948 0
M  V30 991 O 87.37 1.66409 -5.45586 0
M  V30 992 O 86.304 -0.192298 -6.01593 0
M  V30 993 H 90.13 -1.09243 -2.83372 0
M  V30 994 H 87.715 -0.598198 -1.36901 0
M  V30 995 H 89.597 1.01414 -4.09015 0
M  V30 996 H 88.272 1.34955 -2.94226 0
M  V30 997 H 87.179 -0.859979 -3.64081 0
M  V30 998 H 88.512 -1.1123 -4.79467 0
M  V30 999 N 90.1641 1.46063 -0.591896 0
M  V30 1000 C 91.0971 2.27452 0.184617 0
M  V30 1001 C 92.0751 1.36188 0.888351 0
M  V30 1002 O 93.2591 1.65606 0.90039 0
M  V30 1003 C 90.3861 3.14162 1.26571 0
M  V30 1004 C 89.4321 4.21255 0.666814 0
M  V30 1005 S 90.2651 5.33034 -0.513345 0
M  V30 1006 C 91.4211 6.23311 0.56872 0
M  V30 1007 H 91.6541 2.92963 -0.505939 0
M  V30 1008 H 89.1871 1.49676 -0.379014 0
M  V30 1009 H 91.1451 3.6468 1.88463 0
M  V30 1010 H 89.8061 2.47946 1.92826 0
M  V30 1011 H 88.9991 4.81788 1.47974 0
M  V30 1012 H 88.6011 3.73797 0.123359 0
M  V30 1013 H 90.8931 6.61758 1.45198 0
M  V30 1014 H 91.8361 7.081 -7.23824e-05 0
M  V30 1015 H 92.2441 5.57646 0.876996 0
M  V30 1016 N 91.6422 0.330177 1.54103 0
M  V30 1017 C 92.8702 -0.272179 2.05102 0
M  V30 1018 C 93.2852 -1.45267 1.20595 0
M  V30 1019 O 92.6422 -1.8094 0.238144 0
M  V30 1020 C 92.6932 -0.70023 3.54653 0
M  V30 1021 O 92.4142 0.433301 4.35952 0
M  V30 1022 C 93.9152 -1.3647 4.21771 0
M  V30 1023 H 91.1352 -0.0549159 0.668749 0
M  V30 1024 H 93.6792 0.478285 1.98828 0
M  V30 1025 H 91.8342 -1.40066 3.61193 0
M  V30 1026 H 92.2482 0.0947539 5.24414 0
M  V30 1027 H 93.7222 -1.61509 5.27843 0
M  V30 1028 H 94.1992 -2.31409 3.73292 0
M  V30 1029 H 94.8052 -0.706675 4.19388 0
M  V30 1030 N 93.1203 -1.57491 0.0584922 0
M  V30 1031 C 94.0303 -2.15448 -0.928414 0
M  V30 1032 C 95.0463 -1.11416 -1.3365 0
M  V30 1033 O 96.2223 -1.4362 -1.41193 0
M  V30 1034 C 93.2873 -2.69393 -2.18239 0
M  V30 1035 C 92.3483 -3.88249 -1.83196 0
M  V30 1036 C 91.5813 -4.39613 -3.02616 0
M  V30 1037 O 91.8043 -3.90023 -4.16219 0
M  V30 1038 O 90.7383 -5.31111 -2.83204 0
M  V30 1039 H 94.5643 -3.00112 -0.465483 0
M  V30 1040 H 92.1493 -1.48499 -0.163826 0
M  V30 1041 H 94.0313 -3.04026 -2.91798 0
M  V30 1042 H 92.7063 -1.87796 -2.63656 0
M  V30 1043 H 91.6133 -3.58492 -1.06931 0
M  V30 1044 H 92.9463 -4.71098 -1.42573 0
M  V30 1045 N 94.5984 0.214957 -1.56127 0
M  V30 1046 C 96.0144 0.564948 -1.49267 0
M  V30 1047 C 96.2144 1.86827 -0.754838 0
M  V30 1048 O 95.2704 2.50745 -0.297198 0
M  V30 1049 C 96.5834 0.638071 -2.93852 0
M  V30 1050 C 98.1314 0.728253 -3.0441 0
M  V30 1051 C 98.6064 0.832663 -4.50367 0
M  V30 1052 N 100.097 0.896712 -4.54437 0
M  V30 1053 C 100.832 0.997324 -5.6466 0
M  V30 1054 N 100.328 1.06147 -6.8462 0
M  V30 1055 N 102.121 1.03297 -5.52527 0
M  V30 1056 H 94.2724 -0.640211 -2.02522 0
M  V30 1057 H 96.5354 -0.225507 -0.920788 0
M  V30 1058 H 96.2414 -0.250126 -3.50809 0
M  V30 1059 H 96.1154 1.49947 -3.46115 0
M  V30 1060 H 98.5024 1.60689 -2.47514 0
M  V30 1061 H 98.5834 -0.158952 -2.55306 0
M  V30 1062 H 98.2274 -0.0415417 -5.07883 0
M  V30 1063 H 98.1574 1.73538 -4.97184 0
M  V30 1064 H 100.648 0.857188 -3.6805 0
M  V30 1065 H 100.961 1.1382 -7.64372 0
M  V30 1066 H 99.3064 1.03049 -6.87318 0
M  V30 1067 H 102.497 0.979558 -4.57736 0
M  V30 1068 H 102.67 1.10793 -6.38458 0
M  V30 1069 N 96.0765 1.50051 0.48192 0
M  V30 1070 C 97.4875 1.5348 1.06305 0
M  V30 1071 C 97.8385 0.331997 1.93371 0
M  V30 1072 O 96.9635 -0.556256 2.09129 0
M  V30 1073 C 97.5585 2.7813 1.93466 0
M  V30 1074 C 96.1175 2.84275 2.46707 0
M  V30 1075 C 95.2645 2.47637 1.24785 0
M  V30 1076 H 98.2155 1.56472 0.264995 0
M  V30 1077 H 98.2365 2.59372 2.78399 0
M  V30 1078 H 97.7485 3.65654 1.30072 0
M  V30 1079 H 95.8495 2.01077 3.13686 0
M  V30 1080 H 95.9625 3.8691 2.82555 0
M  V30 1081 H 94.3265 1.99835 1.57918 0
M  V30 1082 H 95.1095 3.37457 0.630694 0
M  V30 1083 N 97.5546 -0.734337 1.39446 0
M  V30 1084 C 98.8036 -1.48937 1.36017 0
M  V30 1085 C 99.1166 -1.95557 -0.0409005 0
M  V30 1086 O 100.323 -2.70779 -0.19778 0
M  V30 1087 C 98.7786 -2.69125 2.38955 0
M  V30 1088 C 98.3866 -2.29452 3.8478 0
M  V30 1089 C 100.131 -3.46944 2.44603 0
M  V30 1090 C 98.0376 -3.46366 4.79358 0
M  V30 1091 H 96.9676 -0.559296 0.505672 0
M  V30 1092 H 99.6186 -0.800983 1.65095 0
M  V30 1093 H 98.0006 -3.40041 2.02948 0
M  V30 1094 H 99.1746 -1.66077 4.29831 0
M  V30 1095 H 97.4896 -1.64723 3.82433 0
M  V30 1096 H 100.087 -4.33907 3.12456 0
M  V30 1097 H 100.43 -3.89454 1.47076 0
M  V30 1098 H 100.963 -2.83056 2.79507 0
M  V30 1099 H 97.7016 -3.08905 5.78151 0
M  V30 1100 H 97.2216 -4.08719 4.38986 0
M  V30 1101 H 98.9006 -4.12691 4.98292 0
M  V30 1102 N 99.0327 -1.24633 -0.964593 0
M  V30 1103 C 99.9797 -1.04144 -2.05968 0
M  V30 1104 C 100.95 0.046262 -1.66036 0
M  V30 1105 O 102.135 -0.108972 -1.90489 0
M  V30 1106 C 99.2747 -0.65563 -3.38815 0
M  V30 1107 C 98.3877 -1.81714 -3.91923 0
M  V30 1108 C 97.5227 -1.37662 -5.13052 0
M  V30 1109 C 96.5617 -2.50788 -5.58365 0
M  V30 1110 N 95.6987 -2.07582 -6.70712 0
M  V30 1111 H 100.539 -1.9787 -2.22827 0
M  V30 1112 H 98.0757 -0.9855 -1.09208 0
M  V30 1113 H 100.034 -0.412954 -4.15151 0
M  V30 1114 H 98.6637 0.244627 -3.21872 0
M  V30 1115 H 97.7157 -2.1734 -3.12198 0
M  V30 1116 H 99.0277 -2.66705 -4.21509 0
M  V30 1117 H 98.1817 -1.093 -5.96773 0
M  V30 1118 H 96.9207 -0.497293 -4.85158 0
M  V30 1119 H 95.9257 -2.79906 -4.73215 0
M  V30 1120 H 97.1507 -3.39283 -5.88272 0
M  V30 1121 H 95.0967 -1.22051 -6.44546 0
M  V30 1122 H 95.0137 -2.86125 -6.99763 0
M  V30 1123 H 96.2817 -1.82369 -7.57867 0
M  V30 1124 N 100.511 1.16574 -1.06058 0
M  V30 1125 C 101.76 1.86385 -0.770944 0
M  V30 1126 C 102.073 1.82448 0.705129 0
M  V30 1127 O 103.279 2.47815 1.10905 0
M  V30 1128 C 101.735 3.34466 -1.32893 0
M  V30 1129 C 101.343 3.46883 -2.83507 0
M  V30 1130 C 103.087 4.09548 -1.11672 0
M  V30 1131 C 100.994 4.89036 -3.32562 0
M  V30 1132 H 99.9238 0.698181 -0.284709 0
M  V30 1133 H 102.575 1.31583 -1.27899 0
M  V30 1134 H 100.957 3.88859 -0.748662 0
M  V30 1135 H 102.131 3.02663 -3.47465 0
M  V30 1136 H 100.446 2.85232 -3.03368 0
M  V30 1137 H 103.043 5.14434 -1.45814 0
M  V30 1138 H 103.386 4.16264 -0.0549535 0
M  V30 1139 H 103.919 3.61387 -1.66265 0
M  V30 1140 H 100.658 4.87499 -4.38207 0
M  V30 1141 H 100.178 5.3389 -2.73351 0
M  V30 1142 H 101.857 5.57843 -3.2775 0
M  V30 1143 N 101.989 0.842826 1.3317 0
M  V30 1144 C 103.219 0.453397 2.01564 0
M  V30 1145 C 103.627 -0.951147 1.63554 0
M  V30 1146 O 102.97 -1.63021 0.846746 0
M  V30 1147 C 103.032 0.499013 3.5602 0
M  V30 1148 C 102.696 1.86037 4.1742 0
M  V30 1149 C 103.693 2.82416 4.36506 0
M  V30 1150 C 101.378 2.15428 4.53757 0
M  V30 1151 C 103.372 4.06346 4.91082 0
M  V30 1152 C 101.059 3.39615 5.0804 0
M  V30 1153 C 102.057 4.3489 5.26649 0
M  V30 1154 O 101.745 5.5688 5.79776 0
M  V30 1155 H 101.477 0.177871 0.652179 0
M  V30 1156 H 104.031 1.13808 1.70988 0
M  V30 1157 H 102.261 -0.242467 3.85939 0
M  V30 1158 H 103.95 0.126852 4.05702 0
M  V30 1159 H 104.716 2.6101 4.08777 0
M  V30 1160 H 100.595 1.42061 4.38565 0
M  V30 1161 H 104.139 4.80722 5.05522 0
M  V30 1162 H 100.036 3.60876 5.352 0
M  V30 1163 H 100.804 5.58674 5.98185 0
M  V30 1164 N 103.467 -1.45747 0.599634 0
M  V30 1165 C 104.415 -2.322 -0.136426 0
M  V30 1166 C 105.409 -1.45497 -0.867583 0
M  V30 1167 O 106.615 -1.62027 -0.78405 0
M  V30 1168 H 102.99 -0.749368 -0.0628588 0
M  V30 1169 H 104.961 -2.92072 0.611281 0
M  V30 1170 C 103.71 -3.28974 -1.12567 0
M  V30 1171 H 103.033 -3.9568 -0.572484 0
M  V30 1172 H 104.473 -3.92212 -1.61077 0
M  V30 1173 C 102.932 -2.55561 -2.19523 0
M  V30 1174 O 103.462 -2.33111 -3.27143 0
M  V30 1175 N 101.668 -2.15832 -1.94589 0
M  V30 1176 H 101.215 -2.3429 -1.07078 0
M  V30 1177 H 101.173 -1.67034 -2.66359 0
M  V30 1178 N 104.945 -0.338344 -1.53925 0
M  V30 1179 C 106.17 0.263987 -2.05713 0
M  V30 1180 C 106.595 1.43847 -1.21201 0
M  V30 1181 O 105.953 1.79904 -0.224535 0
M  V30 1182 C 106.001 0.662 -3.54471 0
M  V30 1183 O 105.105 1.76265 -3.72833 0
M  V30 1184 H 104.446 0.0448722 -0.662482 0
M  V30 1185 H 106.976 -0.491048 -1.9862 0
M  V30 1186 H 106.986 0.940594 -3.9701 0
M  V30 1187 H 105.661 -0.196937 -4.15433 0
M  V30 1188 H 104.238 1.48173 -3.42198 0
M  V30 1189 N 106.423 1.57458 -0.0668435 0
M  V30 1190 C 107.353 2.15468 0.899764 0
M  V30 1191 C 108.334 1.08042 1.31381 0
M  V30 1192 O 109.519 1.36054 1.38574 0
M  V30 1193 C 106.649 2.71232 2.16911 0
M  V30 1194 C 105.603 3.83781 1.89463 0
M  V30 1195 C 104.929 4.26127 3.22986 0
M  V30 1196 C 106.229 5.08238 1.20381 0
M  V30 1197 H 107.923 2.96488 0.416529 0
M  V30 1198 H 105.469 1.4262 0.198908 0
M  V30 1199 H 107.422 3.10458 2.84945 0
M  V30 1200 H 106.146 1.87426 2.67468 0
M  V30 1201 H 104.805 3.45051 1.23836 0
M  V30 1202 H 104.453 3.39249 3.71374 0
M  V30 1203 H 104.153 5.01993 3.05413 0
M  V30 1204 H 105.677 4.67966 3.92225 0
M  V30 1205 H 107.091 5.44811 1.78475 0
M  V30 1206 H 105.488 5.89349 1.13083 0
M  V30 1207 H 106.558 4.84558 0.182153 0
M  V30 1208 N 107.901 -0.206675 1.56239 0
M  V30 1209 C 109.149 -0.927007 1.79586 0
M  V30 1210 C 109.47 -1.8427 0.637929 0
M  V30 1211 O 108.74 -1.92849 -0.344398 0
M  V30 1212 H 107.32 -0.345292 0.662407 0
M  V30 1213 H 109.982 -0.21496 1.93711 0
M  V30 1214 H 109.078 -1.52501 2.72305 0
M  V30 1215 N 109.379 -1.50304 -0.473955 0
M  V30 1216 C 110.625 -1.61389 -1.22806 0
M  V30 1217 C 110.958 -0.311955 -1.91678 0
M  V30 1218 O 110.233 0.686384 -1.81986 0
M  V30 1219 C 110.516 -2.79219 -2.27396 0
M  V30 1220 C 110.369 -4.19286 -1.62848 0
M  V30 1221 C 111.688 -2.92614 -3.28732 0
M  V30 1222 H 108.807 -0.587399 -0.445119 0
M  V30 1223 H 111.449 -1.82681 -0.522265 0
M  V30 1224 H 109.599 -2.61195 -2.87592 0
M  V30 1225 H 111.271 -4.48892 -1.06271 0
M  V30 1226 H 109.514 -4.23677 -0.931693 0
M  V30 1227 H 110.185 -4.97655 -2.38838 0
M  V30 1228 H 112.661 -3.09105 -2.78556 0
M  V30 1229 H 111.537 -3.76688 -3.99246 0
M  V30 1230 H 111.798 -2.03107 -3.92683 0
M  V30 1231 N 110.857 0.726932 -1.39834 0
M  V30 1232 C 111.804 1.841 -1.39197 0
M  V30 1233 C 112.774 1.642 -0.250502 0
M  V30 1234 O 113.959 1.85494 -0.446846 0
M  V30 1235 C 111.099 3.21697 -1.24919 0
M  V30 1236 C 110.212 3.53247 -2.48678 0
M  V30 1237 C 109.347 4.80289 -2.26928 0
M  V30 1238 C 108.386 5.04707 -3.4632 0
M  V30 1239 N 107.523 6.22956 -3.23836 0
M  V30 1240 H 112.363 1.83979 -2.34427 0
M  V30 1241 H 109.9 0.898876 -1.16442 0
M  V30 1242 H 111.858 4.01137 -1.1465 0
M  V30 1243 H 110.488 3.21076 -0.333153 0
M  V30 1244 H 109.54 2.68447 -2.69519 0
M  V30 1245 H 110.852 3.67205 -3.37582 0
M  V30 1246 H 110.006 5.67725 -2.13947 0
M  V30 1247 H 108.745 4.68519 -1.35431 0
M  V30 1248 H 107.75 4.1573 -3.5979 0
M  V30 1249 H 108.975 5.18357 -4.38729 0
M  V30 1250 H 106.921 6.12459 -2.35011 0
M  V30 1251 H 106.838 6.37539 -4.063 0
M  V30 1252 H 108.106 7.1321 -3.14566 0
M  V30 1253 N 112.336 1.25143 0.95797 0
M  V30 1254 C 113.613 1.00472 1.67823 0
M  V30 1255 C 113.993 -0.470056 2.058 0
M  V30 1256 O 113.341 -1.44663 1.76875 0
M  V30 1257 C 113.551 1.9372 2.90299 0
M  V30 1258 C 114.899 2.21371 3.62326 0
M  V30 1259 O 115.923 1.91451 3.00375 0
M  V30 1260 O 114.782 2.72231 4.7387 0
M  V30 1261 H 111.876 0.380752 0.734137 0
M  V30 1262 H 114.422 1.36283 1.01119 0
M  V30 1263 H 113.194 2.93316 2.59001 0
M  V30 1264 H 112.817 1.58286 3.64735 0
M  V30 1265 N 113.814 -1.1601 1.06675 0
M  V30 1266 C 115.063 -1.85973 0.780818 0
M  V30 1267 C 115.376 -1.82819 -0.695444 0
M  V30 1268 O 116.582 -2.484 -1.09589 0
M  V30 1269 C 115.038 -3.33757 1.34665 0
M  V30 1270 C 114.646 -3.45374 2.85343 0
M  V30 1271 C 116.39 -4.0895 1.13843 0
M  V30 1272 C 114.297 -4.87266 3.35151 0
M  V30 1273 H 113.227 -0.696661 0.288407 0
M  V30 1274 H 115.878 -1.30903 1.28595 0
M  V30 1275 H 114.26 -3.88456 0.769274 0
M  V30 1276 H 115.434 -3.00816 3.49065 0
M  V30 1277 H 113.749 -2.83619 3.04876 0
M  V30 1278 H 116.346 -5.13654 1.4854 0
M  V30 1279 H 116.689 -4.16229 0.0770282 0
M  V30 1280 H 117.222 -3.605 1.68179 0
M  V30 1281 H 113.961 -4.85168 4.40786 0
M  V30 1282 H 113.481 -5.32433 2.76179 0
M  V30 1283 H 115.16 -5.56097 3.30704 0
M  V30 1284 N 115.292 -0.849877 -1.32721 0
M  V30 1285 C 116.24 -0.279745 -2.30912 0
M  V30 1286 C 117.234 0.594278 -1.58634 0
M  V30 1287 O 118.44 0.482613 -1.73409 0
M  V30 1288 H 114.815 -0.0717521 -0.748569 0
M  V30 1289 H 116.786 -1.12222 -2.76494 0
M  V30 1290 C 115.535 0.521108 -3.43773 0
M  V30 1291 H 114.858 -0.142141 -3.99547 0
M  V30 1292 H 116.298 0.885693 -4.14646 0
M  V30 1293 C 114.757 1.70442 -2.90605 0
M  V30 1294 O 115.287 2.8034 -2.87702 0
M  V30 1295 N 113.493 1.52991 -2.47067 0
M  V30 1296 H 113.04 0.635914 -2.49628 0
M  V30 1297 H 112.998 2.32311 -2.11847 0
M  V30 1298 N 116.77 1.45427 -0.607355 0
M  V30 1299 C 118.019 2.01452 -0.100036 0
M  V30 1300 C 118.332 1.48159 1.27704 0
M  V30 1301 O 119.538 1.96159 1.87707 0
M  V30 1302 C 117.994 3.59672 -0.128158 0
M  V30 1303 C 117.602 4.21962 -1.50507 0
M  V30 1304 C 119.346 4.23262 0.323932 0
M  V30 1305 C 117.253 5.72333 -1.48959 0
M  V30 1306 H 116.183 0.75325 -0.0336299 0
M  V30 1307 H 118.834 1.66901 -0.76265 0
M  V30 1308 H 117.216 3.91411 0.601105 0
M  V30 1309 H 118.39 4.01796 -2.25602 0
M  V30 1310 H 116.705 3.70565 -1.89923 0
M  V30 1311 H 119.302 5.33522 0.354691 0
M  V30 1312 H 119.645 3.93921 1.34656 0
M  V30 1313 H 120.178 3.96239 -0.352056 0
M  V30 1314 H 116.917 6.06373 -2.48981 0
M  V30 1315 H 116.437 5.94691 -0.781214 0
M  V30 1316 H 118.116 6.35525 -1.21313 0
M  V30 1317 N 118.248 0.346503 1.53744 0
M  V30 1318 C 119.18 -0.543316 2.22667 0
M  V30 1319 C 120.193 -1.06159 1.23427 0
M  V30 1320 O 121.382 -0.971235 1.49764 0
M  V30 1321 C 118.482 -1.76076 2.89569 0
M  V30 1322 C 117.655 -1.37727 4.15151 0
M  V30 1323 C 116.714 -2.45471 4.65436 0
M  V30 1324 O 115.74 -2.08655 5.29577 0
M  V30 1325 N 116.942 -3.7677 4.41616 0
M  V30 1326 H 119.707 0.0469703 2.99663 0
M  V30 1327 H 117.268 0.170766 1.60997 0
M  V30 1328 H 119.26 -2.47593 3.20125 0
M  V30 1329 H 117.83 -2.25835 2.16142 0
M  V30 1330 H 117.05 -0.492746 3.91108 0
M  V30 1331 H 118.338 -1.09708 4.96832 0
M  V30 1332 H 117.736 -4.09467 3.90325 0
M  V30 1333 H 116.293 -4.44448 4.7677 0
M  V30 1334 N 119.726 -1.57421 0.075193 0
M  V30 1335 C 121.003 -1.85029 -0.634329 0
M  V30 1336 C 121.383 -0.968305 -1.87582 0
M  V30 1337 O 120.731 -0.0354749 -2.28472 0
M  V30 1338 C 120.941 -3.35286 -0.968742 0
M  V30 1339 C 122.289 -4.02875 -1.34077 0
M  V30 1340 O 123.313 -3.40051 -1.06037 0
M  V30 1341 O 122.172 -5.13691 -1.86506 0
M  V30 1342 H 119.266 -0.7645 -0.315387 0
M  V30 1343 H 121.812 -1.69366 0.106382 0
M  V30 1344 H 120.584 -3.91203 -0.0871376 0
M  V30 1345 H 120.207 -3.56223 -1.7661 0
M  V30 1346 N 121.204 0.198386 -1.56346 0
M  V30 1347 C 122.62 0.549085 -1.49857 0
M  V30 1348 C 122.82 1.86016 -0.774611 0
M  V30 1349 O 121.876 2.50416 -0.323776 0
M  V30 1350 C 123.189 0.606868 -2.94512 0
M  V30 1351 C 124.737 0.695925 -3.05165 0
M  V30 1352 C 125.212 0.784848 -4.51225 0
M  V30 1353 N 126.703 0.848463 -4.55363 0
M  V30 1354 C 127.438 0.937378 -5.65686 0
M  V30 1355 N 126.934 0.9888 -6.85707 0
M  V30 1356 N 128.727 0.974312 -5.53592 0
M  V30 1357 H 120.878 -0.661655 -2.01831 0
M  V30 1358 H 123.141 -0.235261 -0.918344 0
M  V30 1359 H 122.847 -0.28732 -3.50524 0
M  V30 1360 H 122.721 1.46268 -3.47686 0
M  V30 1361 H 125.108 1.58055 -2.49204 0
M  V30 1362 H 125.189 -0.186022 -2.55123 0
M  V30 1363 H 124.833 -0.0954072 -5.0781 0
M  V30 1364 H 124.763 1.68255 -4.98997 0
M  V30 1365 H 127.254 0.818103 -3.68938 0
M  V30 1366 H 127.567 1.05707 -7.65536 0
M  V30 1367 H 125.912 0.957534 -6.88372 0
M  V30 1368 H 129.103 0.930954 -4.58749 0
M  V30 1369 H 129.276 1.04015 -6.39597 0
M  V30 1370 N 122.682 1.50554 0.465978 0
M  V30 1371 C 123.629 1.6979 1.56333 0
M  V30 1372 C 124.599 0.539239 1.57103 0
M  V30 1373 O 125.784 0.770401 1.74555 0
M  V30 1374 C 122.924 1.80273 2.94271 0
M  V30 1375 C 122.037 3.07674 3.0325 0
M  V30 1376 C 121.172 3.08922 4.32135 0
M  V30 1377 C 120.211 4.30755 4.34875 0
M  V30 1378 N 119.348 4.29714 5.55239 0
M  V30 1379 H 124.188 2.63472 1.39235 0
M  V30 1380 H 121.725 1.30602 0.676873 0
M  V30 1381 H 123.683 1.84332 3.74269 0
M  V30 1382 H 122.313 0.900258 3.09992 0
M  V30 1383 H 121.365 3.13062 2.16094 0
M  V30 1384 H 122.677 3.97642 3.01135 0
M  V30 1385 H 121.831 3.11738 5.20485 0
M  V30 1386 H 120.57 2.16792 4.36866 0
M  V30 1387 H 119.575 4.28146 3.44922 0
M  V30 1388 H 120.8 5.24117 4.31831 0
M  V30 1389 H 118.746 3.4044 5.60746 0
M  V30 1390 H 118.663 5.13456 5.54886 0
M  V30 1391 H 119.931 4.36683 6.457 0
M  V30 1392 N 124.16 -0.719506 1.40217 0
M  V30 1393 C 125.409 -1.47486 1.37589 0
M  V30 1394 C 125.722 -1.9559 -0.0201568 0
M  V30 1395 O 126.928 -2.70973 -0.169049 0
M  V30 1396 C 125.384 -2.66575 2.41796 0
M  V30 1397 C 124.992 -2.25358 3.87192 0
M  V30 1398 C 126.736 -3.4433 2.48269 0
M  V30 1399 C 124.643 -3.41262 4.83005 0
M  V30 1400 H 123.573 -0.553901 0.511576 0
M  V30 1401 H 126.224 -0.783427 1.65936 0
M  V30 1402 H 124.606 -3.3787 2.06543 0
M  V30 1403 H 125.78 -1.61509 4.31569 0
M  V30 1404 H 124.095 -1.60657 3.84159 0
M  V30 1405 H 126.692 -4.30569 3.17041 0
M  V30 1406 H 127.035 -3.87872 1.51198 0
M  V30 1407 H 127.568 -2.80076 2.82493 0
M  V30 1408 H 124.307 -3.02755 5.81394 0
M  V30 1409 H 123.827 -4.0404 4.43297 0
M  V30 1410 H 125.506 -4.07383 5.02641 0
M  V30 1411 N 125.638 -1.25649 -0.95132 0
M  V30 1412 C 126.585 -1.06323 -2.04851 0
M  V30 1413 C 127.555 0.0286491 -1.66075 0
M  V30 1414 O 128.74 -0.12917 -1.90362 0
M  V30 1415 C 125.88 -0.691529 -3.381 0
M  V30 1416 C 124.993 -1.85861 -3.89974 0
M  V30 1417 C 124.128 -1.43096 -5.11563 0
M  V30 1418 C 123.167 -2.56696 -5.55674 0
M  V30 1419 N 122.304 -2.14684 -6.68472 0
M  V30 1420 H 127.144 -2.00222 -2.20715 0
M  V30 1421 H 124.681 -0.997027 -1.08156 0
M  V30 1422 H 126.639 -0.456963 -4.1469 0
M  V30 1423 H 125.269 0.210474 -3.22113 0
M  V30 1424 H 124.321 -2.20639 -3.09875 0
M  V30 1425 H 125.633 -2.71161 -4.18657 0
M  V30 1426 H 124.787 -1.15624 -5.9558 0
M  V30 1427 H 123.526 -0.548722 -4.84603 0
M  V30 1428 H 122.531 -2.84909 -4.7022 0
M  V30 1429 H 123.756 -3.45503 -5.8464 0
M  V30 1430 H 121.702 -1.28881 -6.43215 0
M  V30 1431 H 121.619 -2.9353 -6.96689 0
M  V30 1432 H 122.887 -1.90397 -7.5589 0
M  V30 1433 N 127.117 1.15442 -1.07289 0
M  V30 1434 C 128.064 2.20161 -0.692653 0
M  V30 1435 C 129.034 1.63073 0.31564 0
M  V30 1436 O 130.219 1.89725 0.202235 0
M  V30 1437 C 127.359 3.44967 -0.0959509 0
M  V30 1438 C 126.472 4.16256 -1.15564 0
M  V30 1439 C 125.607 5.28609 -0.524011 0
M  V30 1440 C 124.646 5.91715 -1.56653 0
M  V30 1441 N 123.783 6.9554 -0.957531 0
M  V30 1442 H 128.623 2.52037 -1.59002 0
M  V30 1443 H 126.16 1.2378 -0.794798 0
M  V30 1444 H 128.118 4.16341 0.267628 0
M  V30 1445 H 126.748 3.1361 0.764772 0
M  V30 1446 H 125.8 3.43385 -1.6368 0
M  V30 1447 H 127.112 4.59268 -1.94613 0
M  V30 1448 H 126.266 6.06604 -0.108032 0
M  V30 1449 H 125.005 4.86787 0.29825 0
M  V30 1450 H 124.01 5.12433 -1.9923 0
M  V30 1451 H 125.235 6.35614 -2.39107 0
M  V30 1452 H 123.181 6.55814 -0.156162 0
M  V30 1453 H 123.098 7.36977 -1.68526 0
M  V30 1454 H 124.366 7.77435 -0.567032 0
M  V30 1455 N 128.595 0.856903 1.32268 0
M  V30 1456 C 129.841 0.462069 1.97466 0
M  V30 1457 C 130.174 -0.980298 1.67642 0
M  V30 1458 O 129.449 -1.68824 0.965858 0
M  V30 1459 C 129.732 0.704336 3.53145 0
M  V30 1460 C 129.585 2.19529 3.9259 0
M  V30 1461 C 130.904 0.1622 4.39801 0
M  V30 1462 H 128.023 0.169357 0.717278 0
M  V30 1463 H 130.665 1.07574 1.56614 0
M  V30 1464 H 128.815 0.181999 3.88073 0
M  V30 1465 H 130.487 2.78387 3.67829 0
M  V30 1466 H 128.73 2.67292 3.41668 0
M  V30 1467 H 129.401 2.31549 5.01088 0
M  V30 1468 H 131.877 0.608905 4.11621 0
M  V30 1469 H 130.753 0.361265 5.4771 0
M  V30 1470 H 131.014 -0.935158 4.32096 0
M  V30 1471 N 130.073 -1.45103 0.615059 0
M  V30 1472 C 131.298 -2.07064 0.117988 0
M  V30 1473 C 131.723 -1.4554 -1.19163 0
M  V30 1474 O 131.081 -0.550855 -1.72729 0
M  V30 1475 C 131.129 -3.606 -0.000288387 0
M  V30 1476 O 130.233 -3.98847 -1.04856 0
M  V30 1477 H 129.574 -0.659467 0.0774581 0
M  V30 1478 H 132.104 -1.86236 0.847186 0
M  V30 1479 H 132.114 -4.07529 -0.196091 0
M  V30 1480 H 130.789 -4.04765 0.955932 0
M  V30 1481 H 129.366 -3.63577 -0.828619 0
M  V30 1482 N 131.551 -0.354651 -1.53558 0
M  V30 1483 C 132.498 0.496968 -2.25386 0
M  V30 1484 C 133.468 1.0865 -1.25636 0
M  V30 1485 O 134.653 1.12104 -1.54394 0
M  V30 1486 C 131.793 1.63637 -3.03837 0
M  V30 1487 C 130.906 1.07307 -4.18461 0
M  V30 1488 C 130.041 2.18068 -4.84376 0
M  V30 1489 C 129.08 1.59147 -5.91049 0
M  V30 1490 N 128.217 2.63695 -6.50699 0
M  V30 1491 H 133.057 -0.122075 -2.9775 0
M  V30 1492 H 130.594 -0.0720154 -1.46924 0
M  V30 1493 H 132.552 2.30734 -3.47589 0
M  V30 1494 H 131.182 2.22623 -2.33749 0
M  V30 1495 H 130.234 0.292708 -3.79272 0
M  V30 1496 H 131.546 0.602193 -4.95152 0
M  V30 1497 H 130.7 2.93007 -5.31255 0
M  V30 1498 H 129.439 2.68504 -4.07133 0
M  V30 1499 H 128.444 0.827175 -5.43542 0
M  V30 1500 H 129.669 1.09549 -6.70206 0
M  V30 1501 H 127.615 3.13365 -5.76315 0
M  V30 1502 H 127.532 2.21263 -7.22896 0
M  V30 1503 H 128.8 3.3837 -7.02229 0
M  V30 1504 N 133.029 1.57378 -0.0835403 0
M  V30 1505 C 133.977 2.14602 0.89714 0
M  V30 1506 C 134.971 1.08589 1.30018 0
M  V30 1507 O 136.177 1.26952 1.27606 0
M  V30 1508 H 132.552 0.686346 0.3073 0
M  V30 1509 H 134.523 2.95845 0.38969 0
M  V30 1510 C 133.272 2.73188 2.15089 0
M  V30 1511 H 132.595 3.54442 1.84962 0
M  V30 1512 H 134.035 3.1681 2.81793 0
M  V30 1513 C 132.494 1.68517 2.91725 0
M  V30 1514 O 133.024 1.11718 3.85852 0
M  V30 1515 N 131.23 1.39277 2.55049 0
M  V30 1516 H 130.777 1.85655 1.78577 0
M  V30 1517 H 130.735 0.694791 3.06627 0
M  V30 1518 N 134.507 -0.190092 1.56449 0
M  V30 1519 C 135.454 -1.23557 1.94942 0
M  V30 1520 C 136.424 -1.44972 0.810696 0
M  V30 1521 O 137.609 -1.58023 1.06927 0
M  V30 1522 C 134.749 -2.57416 2.2985 0
M  V30 1523 C 133.862 -2.43537 3.5681 0
M  V30 1524 C 132.997 -3.70134 3.81017 0
M  V30 1525 C 132.036 -3.51109 5.01387 0
M  V30 1526 N 131.173 -4.6973 5.21822 0
M  V30 1527 H 136.013 -0.900304 2.84075 0
M  V30 1528 H 133.55 -0.43318 1.40577 0
M  V30 1529 H 135.508 -3.35409 2.48106 0
M  V30 1530 H 134.138 -2.88975 1.43852 0
M  V30 1531 H 133.19 -1.56816 3.46573 0
M  V30 1532 H 134.502 -2.25415 4.4496 0
M  V30 1533 H 133.656 -4.56566 3.9954 0
M  V30 1534 H 132.395 -3.91215 2.91207 0
M  V30 1535 H 131.4 -2.63063 4.82782 0
M  V30 1536 H 132.625 -3.31468 5.9271 0
M  V30 1537 H 130.571 -4.91065 4.34961 0
M  V30 1538 H 130.488 -4.54452 6.0416 0
M  V30 1539 H 131.756 -5.57499 5.44808 0
M  V30 1540 N 135.985 -1.50799 -0.457987 0
M  V30 1541 C 136.932 -1.70617 -1.5543 0
M  V30 1542 C 137.902 -0.547562 -1.56815 0
M  V30 1543 O 139.087 -0.779647 -1.74144 0
M  V30 1544 C 136.227 -1.81831 -2.93311 0
M  V30 1545 C 135.34 -3.09278 -3.01615 0
M  V30 1546 C 134.475 -3.11209 -4.30491 0
M  V30 1547 C 133.514 -4.33055 -4.32585 0
M  V30 1548 N 132.651 -4.32652 -5.52952 0
M  V30 1549 H 137.491 -2.64207 -1.37836 0
M  V30 1550 H 135.028 -1.30959 -0.669937 0
M  V30 1551 H 136.986 -1.86314 -3.73287 0
M  V30 1552 H 135.616 -0.916685 -3.0951 0
M  V30 1553 H 134.668 -3.14203 -2.1443 0
M  V30 1554 H 135.98 -3.99233 -2.99022 0
M  V30 1555 H 135.134 -3.14494 -5.18824 0
M  V30 1556 H 133.873 -2.19106 -4.35711 0
M  V30 1557 H 132.878 -4.29969 -3.42647 0
M  V30 1558 H 134.103 -5.264 -4.29046 0
M  V30 1559 H 132.049 -3.43409 -5.58933 0
M  V30 1560 H 131.966 -5.16392 -5.52155 0
M  V30 1561 H 133.234 -4.40101 -6.43375 0
M  V30 1562 N 137.463 0.71206 -1.40597 0
M  V30 1563 C 138.879 1.02058 -1.22704 0
M  V30 1564 C 139.079 2.01228 -0.104729 0
M  V30 1565 O 138.135 2.4674 0.53624 0
M  V30 1566 C 139.448 1.56094 -2.57012 0
M  V30 1567 C 140.996 1.6806 -2.64054 0
M  V30 1568 C 141.471 2.25501 -3.9864 0
M  V30 1569 N 142.962 2.32882 -4.004 0
M  V30 1570 C 143.697 2.78317 -5.01325 0
M  V30 1571 N 143.193 3.23478 -6.12645 0
M  V30 1572 N 144.986 2.77733 -4.88693 0
M  V30 1573 H 137.137 0.0547896 -2.12329 0
M  V30 1574 H 139.4 0.0869027 -0.944008 0
M  V30 1575 H 139.106 0.906865 -3.39807 0
M  V30 1576 H 138.98 2.54564 -2.78347 0
M  V30 1577 H 141.367 2.32583 -1.81629 0
M  V30 1578 H 141.448 0.681802 -2.46546 0
M  V30 1579 H 141.092 1.61598 -4.81506 0
M  V30 1580 H 141.022 3.26102 -4.13479 0
M  V30 1581 H 143.513 2.00991 -3.20017 0
M  V30 1582 H 143.826 3.56725 -6.85542 0
M  V30 1583 H 142.171 3.21429 -6.16205 0
M  V30 1584 H 145.362 2.4179 -4.00818 0
M  V30 1585 H 145.535 3.12826 -5.67489 0
M  V30 1586 N 138.941 1.26152 0.944643 0
M  V30 1587 C 140.187 1.11657 1.69294 0
M  V30 1588 C 140.52 -0.339926 1.91202 0
M  V30 1589 O 139.795 -1.24994 1.49019 0
M  V30 1590 C 140.078 1.88236 3.06984 0
M  V30 1591 C 139.931 3.41772 2.92424 0
M  V30 1592 C 141.25 1.67343 4.07043 0
M  V30 1593 H 138.369 0.407004 0.614424 0
M  V30 1594 H 141.011 1.55106 1.09737 0
M  V30 1595 H 139.161 1.51308 3.57824 0
M  V30 1596 H 140.833 3.88433 2.48832 0
M  V30 1597 H 139.076 3.68974 2.28124 0
M  V30 1598 H 139.747 3.90579 3.90067 0
M  V30 1599 H 142.223 1.99509 3.65151 0
M  V30 1600 H 141.099 2.23346 5.01406 0
M  V30 1601 H 141.36 0.617158 4.37771 0
M  V30 1602 N 140.419 -1.14872 1.07899 0
M  V30 1603 C 141.696 -1.81928 0.71845 0
M  V30 1604 C 142.076 -1.95417 -0.798455 0
M  V30 1605 O 141.424 -1.50997 -1.715 0
M  V30 1606 C 141.634 -3.17937 1.43935 0
M  V30 1607 C 142.982 -3.93501 1.59506 0
M  V30 1608 O 144.006 -3.27509 1.40058 0
M  V30 1609 O 142.865 -5.1183 1.91551 0
M  V30 1610 H 139.959 -0.78628 0.256305 0
M  V30 1611 H 142.505 -1.21934 1.18026 0
M  V30 1612 H 141.277 -3.0325 2.47295 0
M  V30 1613 H 140.9 -3.85619 0.968687 0
M  V30 1614 N 141.898 -0.863906 -1.31812 0
M  V30 1615 C 142.861 -0.320212 -2.26952 0
M  V30 1616 C 143.861 0.525369 -1.51975 0
M  V30 1617 O 145.051 0.335547 -1.70938 0
M  V30 1618 C 142.183 0.545919 -3.365 0
M  V30 1619 H 143.376 -1.16004 -2.76556 0
M  V30 1620 H 140.929 -0.638995 -1.42641 0
M  V30 1621 H 141.664 1.40718 -2.92179 0
M  V30 1622 H 141.449 -0.0594674 -3.92055 0
M  V30 1623 H 142.939 0.918796 -4.07367 0
M  V30 1624 N 143.376 1.44774 -0.622745 0
M  V30 1625 C 144.308 2.28856 0.125485 0
M  V30 1626 C 145.321 1.40811 0.817069 0
M  V30 1627 O 146.51 1.65044 0.679918 0
M  V30 1628 C 143.61 3.16963 1.19949 0
M  V30 1629 C 142.783 4.33374 0.592064 0
M  V30 1630 C 141.842 5.02577 1.55893 0
M  V30 1631 O 140.868 5.58873 1.07933 0
M  V30 1632 N 142.07 5.03256 2.89334 0
M  V30 1633 H 144.835 2.93713 -0.596068 0
M  V30 1634 H 142.396 1.55129 -0.463303 0
M  V30 1635 H 144.388 3.60123 1.84644 0
M  V30 1636 H 142.958 2.53913 1.82337 0
M  V30 1637 H 142.178 3.93509 -0.233322 0
M  V30 1638 H 143.466 5.08527 0.166738 0
M  V30 1639 H 142.864 4.58836 3.30887 0
M  V30 1640 H 141.421 5.50232 3.49412 0
M  V30 1641 N 144.854 0.36279 1.53368 0
M  V30 1642 C 146.084 -0.228281 2.05335 0
M  V30 1643 C 146.492 -1.43226 1.23625 0
M  V30 1644 O 145.835 -1.81717 0.269206 0
M  V30 1645 C 145.897 -0.688549 3.52845 0
M  V30 1646 C 145.561 0.398362 4.5526 0
M  V30 1647 C 146.558 1.24732 5.04716 0
M  V30 1648 C 144.243 0.557805 4.99193 0
M  V30 1649 C 146.237 2.2411 5.96702 0
M  V30 1650 C 143.924 1.55495 5.90986 0
M  V30 1651 C 144.922 2.39503 6.39631 0
M  V30 1652 O 144.61 3.37517 7.29615 0
M  V30 1653 H 144.342 -0.044395 0.674541 0
M  V30 1654 H 146.896 0.518668 1.98744 0
M  V30 1655 H 145.126 -1.48706 3.56964 0
M  V30 1656 H 146.815 -1.20231 3.87685 0
M  V30 1657 H 147.581 1.13532 4.71525 0
M  V30 1658 H 143.46 -0.0862959 4.60919 0
M  V30 1659 H 147.004 2.89718 6.34594 0
M  V30 1660 H 142.901 1.66744 6.23592 0
M  V30 1661 H 143.669 3.33213 7.47604 0
M  V30 1662 N 146.332 -1.57332 0.0918853 0
M  V30 1663 C 147.279 -2.13847 -0.868211 0
M  V30 1664 C 148.249 -1.05618 -1.28196 0
M  V30 1665 O 149.434 -1.33387 -1.36427 0
M  V30 1666 C 146.574 -2.72062 -2.12312 0
M  V30 1667 C 145.687 -3.94514 -1.7602 0
M  V30 1668 C 144.822 -4.40903 -2.96273 0
M  V30 1669 C 143.861 -5.55953 -2.56092 0
M  V30 1670 N 142.998 -5.97209 -3.69169 0
M  V30 1671 H 147.838 -2.95575 -0.379406 0
M  V30 1672 H 145.375 -1.46048 -0.175606 0
M  V30 1673 H 147.333 -3.03931 -2.858 0
M  V30 1674 H 145.963 -1.93068 -2.58698 0
M  V30 1675 H 145.015 -3.68979 -0.925135 0
M  V30 1676 H 146.327 -4.7802 -1.42472 0
M  V30 1677 H 145.481 -4.74539 -3.78018 0
M  V30 1678 H 144.22 -3.56291 -3.33029 0
M  V30 1679 H 143.225 -5.21948 -1.72773 0
M  V30 1680 H 144.45 -6.42311 -2.20484 0
M  V30 1681 H 142.396 -5.15543 -4.05649 0
M  V30 1682 H 142.313 -6.75504 -3.39456 0
M  V30 1683 H 143.581 -6.35475 -4.51434 0
M  V30 1684 N 147.81 0.181792 -1.56548 0
M  V30 1685 C 149.059 0.898348 -1.8059 0
M  V30 1686 C 149.372 1.83862 -0.667379 0
M  V30 1687 O 150.578 2.59678 -0.792446 0
M  V30 1688 C 149.034 1.64791 -3.19956 0
M  V30 1689 C 148.642 0.751789 -4.41647 0
M  V30 1690 C 150.386 2.35331 -3.53298 0
M  V30 1691 C 148.293 1.50098 -5.72035 0
M  V30 1692 H 147.223 0.339194 -0.673397 0
M  V30 1693 H 149.874 0.151413 -1.82874 0
M  V30 1694 H 148.256 2.43921 -3.11959 0
M  V30 1695 H 149.43 -0.0018076 -4.608 0
M  V30 1696 H 147.745 0.156562 -4.16106 0
M  V30 1697 H 150.342 2.91958 -4.47956 0
M  V30 1698 H 150.685 3.10164 -2.77676 0
M  V30 1699 H 151.218 1.63154 -3.62803 0
M  V30 1700 H 147.957 0.795175 -6.50659 0
M  V30 1701 H 147.477 2.22817 -5.56878 0
M  V30 1702 H 149.156 2.05125 -6.13622 0
M  V30 1703 N 149.288 1.51039 0.449983 0
M  V30 1704 C 150.235 1.71439 1.54523 0
M  V30 1705 C 151.205 0.555871 1.56522 0
M  V30 1706 O 152.39 0.788871 1.73728 0
M  V30 1707 C 149.53 1.83384 2.92343 0
M  V30 1708 C 148.643 3.10873 2.9997 0
M  V30 1709 C 147.778 3.13488 4.28834 0
M  V30 1710 C 146.817 4.35343 4.30282 0
M  V30 1711 N 145.954 4.35579 5.5065 0
M  V30 1712 H 150.794 2.64934 1.36433 0
M  V30 1713 H 148.331 1.31312 0.662982 0
M  V30 1714 H 150.289 1.88291 3.72293 0
M  V30 1715 H 148.919 0.933086 3.0902 0
M  V30 1716 H 147.971 3.15336 2.12761 0
M  V30 1717 H 149.283 4.00814 2.96901 0
M  V30 1718 H 148.437 3.17241 5.17149 0
M  V30 1719 H 147.176 2.21414 4.34543 0
M  V30 1720 H 146.181 4.3178 3.40362 0
M  V30 1721 H 147.406 5.28668 4.26248 0
M  V30 1722 H 145.352 3.46369 5.57104 0
M  V30 1723 H 145.269 5.19313 5.49409 0
M  V30 1724 H 146.537 4.43507 6.41032 0
M  V30 1725 N 150.766 -0.704594 1.40972 0
M  V30 1726 C 151.994 -1.49354 1.43182 0
M  V30 1727 C 152.409 -1.88768 0.0345508 0
M  V30 1728 O 151.766 -1.56184 -0.944081 0
M  V30 1729 C 151.817 -2.76187 2.33244 0
M  V30 1730 O 151.538 -2.38436 3.67532 0
M  V30 1731 C 153.039 -3.7 2.44162 0
M  V30 1732 H 150.259 -0.460559 0.487982 0
M  V30 1733 H 152.803 -0.868261 1.85153 0
M  V30 1734 H 150.958 -3.34974 1.94606 0
M  V30 1735 H 151.372 -3.20126 4.15475 0
M  V30 1736 H 152.846 -4.55803 3.11364 0
M  V30 1737 H 153.323 -4.13867 1.47006 0
M  V30 1738 H 153.929 -3.17121 2.83398 0
M  V30 1739 N 152.244 -1.26651 -0.937939 0
M  V30 1740 C 153.192 -1.08308 -2.05845 0
M  V30 1741 C 154.186 -0.0090757 -1.69398 0
M  V30 1742 O 155.392 -0.166007 -1.79233 0
M  V30 1743 H 151.767 -0.333416 -0.674046 0
M  V30 1744 H 153.738 -2.03261 -2.18467 0
M  V30 1745 C 152.487 -0.736229 -3.39816 0
M  V30 1746 H 151.81 -1.55453 -3.6834 0
M  V30 1747 H 153.25 -0.64769 -4.19024 0
M  V30 1748 C 151.709 0.558824 -3.32233 0
M  V30 1749 O 152.239 1.59621 -3.68624 0
M  V30 1750 N 150.445 0.550657 -2.85335 0
M  V30 1751 H 149.992 -0.293943 -2.55917 0
M  V30 1752 H 149.95 1.41726 -2.80644 0
M  V30 1753 N 153.722 1.14298 -1.08507 0
M  V30 1754 C 154.952 1.88945 -0.835663 0
M  V30 1755 C 155.36 1.78894 0.615928 0
M  V30 1756 O 154.703 1.1468 1.43506 0
M  V30 1757 C 154.765 3.39585 -1.17994 0
M  V30 1758 C 154.429 3.7342 -2.63451 0
M  V30 1759 C 155.426 3.73454 -3.61702 0
M  V30 1760 C 153.111 4.03368 -2.99332 0
M  V30 1761 C 155.105 4.02961 -4.93864 0
M  V30 1762 C 152.792 4.32538 -4.31687 0
M  V30 1763 C 153.79 4.32318 -5.28763 0
M  V30 1764 O 153.478 4.6078 -6.58739 0
M  V30 1765 H 153.21 0.605307 -0.300965 0
M  V30 1766 H 155.764 1.45673 -1.44806 0
M  V30 1767 H 153.994 3.83315 -0.51055 0
M  V30 1768 H 155.683 3.9554 -0.911182 0
M  V30 1769 H 156.449 3.50403 -3.35325 0
M  V30 1770 H 152.328 4.02692 -2.24411 0
M  V30 1771 H 155.872 4.02704 -5.69627 0
M  V30 1772 H 151.769 4.55059 -4.57812 0
M  V30 1773 H 152.537 4.78492 -6.64069 0
M  V30 1774 N 155.201 0.870884 1.31352 0
M  V30 1775 C 156.449 0.48132 1.96285 0
M  V30 1776 C 156.77 -0.969813 1.69173 0
M  V30 1777 O 156.04 -1.67998 1.00764 0
M  V30 1778 H 154.62 0.175002 0.726212 0
M  V30 1779 H 157.282 1.11087 1.60143 0
M  V30 1780 H 156.378 0.639825 3.05471 0
M  V30 1781 N 156.679 -1.44442 0.630414 0
M  V30 1782 C 157.627 -2.32437 -0.0871428 0
M  V30 1783 C 158.621 -1.47304 -0.836525 0
M  V30 1784 O 159.827 -1.63653 -0.749506 0
M  V30 1785 H 156.202 -0.750533 -0.0469495 0
M  V30 1786 H 158.173 -2.90709 0.673096 0
M  V30 1787 C 156.922 -3.31288 -1.05563 0
M  V30 1788 H 156.245 -3.96805 -0.488426 0
M  V30 1789 H 157.685 -3.9554 -1.52721 0
M  V30 1790 C 156.144 -2.6016 -2.14052 0
M  V30 1791 O 156.674 -2.39997 -3.22124 0
M  V30 1792 N 154.88 -2.19911 -1.89967 0
M  V30 1793 H 154.427 -2.36509 -1.02085 0
M  V30 1794 H 154.385 -1.72646 -2.62756 0
M  V30 1795 N 158.157 -0.370918 -1.53173 0
M  V30 1796 C 159.406 0.218249 -2.00516 0
M  V30 1797 C 159.719 1.49429 -1.26215 0
M  V30 1798 O 160.925 2.16239 -1.64174 0
M  V30 1799 C 159.381 0.43948 -3.57207 0
M  V30 1800 C 158.989 -0.822244 -4.4039 0
M  V30 1801 C 160.733 0.986012 -4.1289 0
M  V30 1802 C 158.64 -0.570304 -5.88644 0
M  V30 1803 H 157.57 0.0853333 -0.749156 0
M  V30 1804 H 160.221 -0.490483 -1.76823 0
M  V30 1805 H 158.603 1.20961 -3.77074 0
M  V30 1806 H 159.777 -1.59557 -4.32294 0
M  V30 1807 H 158.092 -1.29238 -3.95836 0
M  V30 1808 H 160.689 1.18991 -5.21292 0
M  V30 1809 H 161.032 1.94972 -3.6782 0
M  V30 1810 H 161.565 0.27592 -3.96842 0
M  V30 1811 H 158.304 -1.50449 -6.38001 0
M  V30 1812 H 157.824 0.164427 -5.99575 0
M  V30 1813 H 159.503 -0.19784 -6.46697 0
M  V30 1814 N 159.635 1.57281 -0.100228 0
M  V30 1815 C 160.912 1.86014 0.604812 0
M  V30 1816 C 161.292 0.998025 1.86018 0
M  V30 1817 O 160.64 0.0718184 2.28387 0
M  V30 1818 C 160.85 3.36784 0.915278 0
M  V30 1819 C 162.198 4.04957 1.27651 0
M  V30 1820 O 163.222 3.41695 1.00613 0
M  V30 1821 O 162.081 5.16593 1.7831 0
M  V30 1822 H 159.175 0.76942 0.303185 0
M  V30 1823 H 161.721 1.69176 -0.133313 0
M  V30 1824 H 160.493 3.91292 0.0248896 0
M  V30 1825 H 160.116 3.58987 1.70921 0
M  V30 1826 N 161.113 -0.173488 1.56642 0
M  V30 1827 C 162.529 -0.525174 1.50712 0
M  V30 1828 C 162.729 -1.8476 0.804107 0
M  V30 1829 O 161.785 -2.49869 0.363574 0
M  V30 1830 C 163.098 -0.559937 2.95441 0
M  V30 1831 C 164.646 -0.647288 3.06234 0
M  V30 1832 C 165.121 -0.712963 4.52417 0
M  V30 1833 N 166.612 -0.775911 4.56655 0
M  V30 1834 C 167.347 -0.847264 5.67106 0
M  V30 1835 N 166.843 -0.879585 6.87194 0
M  V30 1836 N 168.636 -0.886117 5.55071 0
M  V30 1837 H 160.787 0.693681 2.00753 0
M  V30 1838 H 163.05 0.249841 0.914485 0
M  V30 1839 H 162.756 0.343049 3.50023 0
M  V30 1840 H 162.63 -1.40718 3.49969 0
M  V30 1841 H 165.017 -1.5407 2.51687 0
M  V30 1842 H 165.098 0.226586 2.54794 0
M  V30 1843 H 164.742 0.176183 5.07594 0
M  V30 1844 H 164.672 -1.60295 5.0161 0
M  V30 1845 H 167.163 -0.759304 3.70193 0
M  V30 1846 H 167.476 -0.935144 7.67121 0
M  V30 1847 H 165.821 -0.847898 6.89808 0
M  V30 1848 H 169.012 -0.857853 4.60172 0
M  V30 1849 H 169.185 -0.938263 6.41171 0
M  V30 1850 N 162.591 -1.51276 -0.441967 0
M  V30 1851 C 163.539 -1.72823 -1.55676 0
M  V30 1852 C 164.533 -0.59445 -1.58627 0
M  V30 1853 O 165.739 -0.775715 -1.62427 0
M  V30 1854 H 162.114 -0.545983 -0.517113 0
M  V30 1855 H 164.085 -2.6628 -1.34675 0
M  V30 1856 C 162.834 -1.86619 -2.93375 0
M  V30 1857 H 162.157 -2.73264 -2.91834 0
M  V30 1858 H 163.597 -2.05709 -3.70756 0
M  V30 1859 C 162.056 -0.624842 -3.31055 0
M  V30 1860 O 162.586 0.222636 -4.01083 0
M  V30 1861 N 160.792 -0.470288 -2.86769 0
M  V30 1862 H 160.339 -1.161 -2.29953 0
M  V30 1863 H 160.297 0.359051 -3.12343 0
M  V30 1864 N 164.069 0.697108 -1.41344 0
M  V30 1865 C 165.315 1.4593 -1.40827 0
M  V30 1866 C 165.648 1.94193 -0.0167098 0
M  V30 1867 O 164.923 1.69425 0.955263 0
M  V30 1868 C 165.206 2.67229 -2.41373 0
M  V30 1869 C 165.059 2.24741 -3.8963 0
M  V30 1870 C 166.378 3.69423 -2.39196 0
M  V30 1871 H 163.497 0.529303 -0.512842 0
M  V30 1872 H 166.139 0.794112 -1.72609 0
M  V30 1873 H 164.289 3.23982 -2.14401 0
M  V30 1874 H 165.961 1.73327 -4.27499 0
M  V30 1875 H 164.204 1.56542 -4.0457 0
M  V30 1876 H 164.875 3.1177 -4.55525 0
M  V30 1877 H 167.351 3.2234 -2.63128 0
M  V30 1878 H 166.227 4.51907 -3.11563 0
M  V30 1879 H 166.488 4.19012 -1.41001 0
M  V30 1880 N 165.547 1.27147 0.931209 0
M  V30 1881 C 166.479 1.05364 2.03546 0
M  V30 1882 C 167.492 0.0108438 1.62796 0
M  V30 1883 O 168.681 0.25202 1.76712 0
M  V30 1884 C 165.781 0.575566 3.33977 0
M  V30 1885 C 164.954 1.68985 4.03439 0
M  V30 1886 C 164.013 1.20813 5.12143 0
M  V30 1887 O 163.039 1.90712 5.363 0
M  V30 1888 N 164.241 0.0618851 5.80467 0
M  V30 1889 H 167.006 2.00454 2.22796 0
M  V30 1890 H 164.567 1.18666 1.10136 0
M  V30 1891 H 166.559 0.237264 4.04004 0
M  V30 1892 H 165.129 -0.282016 3.11325 0
M  V30 1893 H 164.349 2.19861 3.27192 0
M  V30 1894 H 165.637 2.4378 4.46597 0
M  V30 1895 H 165.035 -0.521621 5.6329 0
M  V30 1896 H 163.592 -0.217264 6.51438 0
M  V30 1897 N 167.025 -1.13721 1.09112 0
M  V30 1898 C 168.272 -1.84924 0.825192 0
M  V30 1899 C 168.6 -1.83347 -0.649151 0
M  V30 1900 O 167.855 -1.26449 -1.49362 0
M  V30 1901 C 168.154 -3.32861 1.30146 0
M  V30 1902 C 167.82 -3.54621 2.78486 0
M  V30 1903 C 166.482 -3.60268 3.18999 0
M  V30 1904 C 168.834 -3.62855 3.74146 0
M  V30 1905 C 166.162 -3.71679 4.53951 0
M  V30 1906 C 168.514 -3.75793 5.08883 0
M  V30 1907 C 167.178 -3.79692 5.4899 0
M  V30 1908 H 166.448 -0.676684 0.301959 0
M  V30 1909 H 169.095 -1.3428 1.36533 0
M  V30 1910 H 167.4 -3.85835 0.681064 0
M  V30 1911 H 169.097 -3.86395 1.07236 0
M  V30 1912 H 165.687 -3.50879 2.46134 0
M  V30 1913 H 169.871 -3.57775 3.43963 0
M  V30 1914 H 165.127 -3.72963 4.84467 0
M  V30 1915 H 169.301 -3.81107 5.82864 0
M  V30 1916 H 166.928 -3.88287 6.53558 0
M  V30 1917 N 168.503 -0.877838 -1.30888 0
M  V30 1918 C 169.451 -0.328662 -2.30266 0
M  V30 1919 C 170.445 0.560496 -1.59859 0
M  V30 1920 O 171.651 0.445722 -1.74394 0
M  V30 1921 H 168.026 -0.0876142 -0.746879 0
M  V30 1922 H 169.997 -1.18061 -2.74051 0
M  V30 1923 C 168.746 0.448071 -3.44801 0
M  V30 1924 H 168.069 -0.226859 -3.99156 0
M  V30 1925 H 169.509 0.797541 -4.16432 0
M  V30 1926 C 167.968 1.64239 -2.94155 0
M  V30 1927 O 168.498 2.74175 -2.93583 0
M  V30 1928 N 166.704 1.47716 -2.50256 0
M  V30 1929 H 166.251 0.582821 -2.5092 0
M  V30 1930 H 166.209 2.27765 -2.16727 0
M  V30 1931 N 169.982 1.44106 -0.638065 0
M  V30 1932 C 171.229 2.01978 -0.14533 0
M  V30 1933 C 171.557 1.50234 1.23532 0
M  V30 1934 O 170.812 0.679548 1.83523 0
M  V30 1935 C 171.111 3.5729 -0.0887327 0
M  V30 1936 C 170.777 4.28317 -1.40909 0
M  V30 1937 C 169.439 4.47437 -1.77069 0
M  V30 1938 C 171.791 4.6867 -2.28031 0
M  V30 1939 C 169.119 5.04171 -3.00047 0
M  V30 1940 C 171.471 5.26766 -3.50286 0
M  V30 1941 C 170.135 5.44104 -3.86661 0
M  V30 1942 H 169.405 0.739089 -0.0531801 0
M  V30 1943 H 172.052 1.72781 -0.825761 0
M  V30 1944 H 170.357 3.8594 0.675095 0
M  V30 1945 H 172.054 3.99807 0.309145 0
M  V30 1946 H 168.644 4.1377 -1.1177 0
M  V30 1947 H 172.828 4.53604 -2.01388 0
M  V30 1948 H 168.084 5.15782 -3.28298 0
M  V30 1949 H 172.258 5.56983 -4.18023 0
M  V30 1950 H 169.885 5.87832 -4.82034 0
M  V30 1951 N 171.46 0.379036 1.52974 0
M  V30 1952 C 172.706 -0.206727 2.01744 0
M  V30 1953 C 173.039 -1.47314 1.26539 0
M  V30 1954 O 172.314 -1.91084 0.362903 0
M  V30 1955 C 172.597 -0.485066 3.56818 0
M  V30 1956 C 172.45 0.795919 4.42702 0
M  V30 1957 C 173.769 -1.28003 4.21074 0
M  V30 1958 H 170.888 -0.0736607 0.73331 0
M  V30 1959 H 173.53 0.506581 1.83122 0
M  V30 1960 H 171.68 -1.09272 3.72816 0
M  V30 1961 H 173.352 1.43307 4.38476 0
M  V30 1962 H 171.595 1.41344 4.10127 0
M  V30 1963 H 172.266 0.555947 5.49193 0
M  V30 1964 H 174.742 -0.765867 4.08991 0
M  V30 1965 H 173.618 -1.44352 5.29579 0
M  V30 1966 H 173.879 -2.29236 3.78026 0
M  V30 1967 N 172.938 -1.57226 0.108567 0
M  V30 1968 C 173.885 -2.14756 -0.845481 0
M  V30 1969 C 174.855 -1.06971 -1.27068 0
M  V30 1970 O 176.04 -1.34827 -1.35005 0
M  V30 1971 C 173.18 -2.74298 -2.09415 0
M  V30 1972 C 172.293 -3.96358 -1.71826 0
M  V30 1973 C 171.428 -4.44021 -2.9158 0
M  V30 1974 C 170.467 -5.58637 -2.50181 0
M  V30 1975 N 169.604 -6.01091 -3.62814 0
M  V30 1976 H 174.444 -2.95961 -0.348035 0
M  V30 1977 H 171.981 -1.46226 -0.160106 0
M  V30 1978 H 173.939 -3.06945 -2.82561 0
M  V30 1979 H 172.569 -1.95801 -2.56636 0
M  V30 1980 H 171.621 -3.69939 -0.885947 0
M  V30 1981 H 172.933 -4.79504 -1.37394 0
M  V30 1982 H 172.087 -4.78522 -3.72963 0
M  V30 1983 H 170.826 -3.59803 -3.29231 0
M  V30 1984 H 169.831 -5.23751 -1.67228 0
M  V30 1985 H 171.056 -6.44613 -2.13659 0
M  V30 1986 H 169.002 -5.19817 -4.00158 0
M  V30 1987 H 168.919 -6.79066 -3.32273 0
M  V30 1988 H 170.187 -6.40227 -4.44668 0
M  V30 1989 N 174.416 0.165178 -1.56732 0
M  V30 1990 C 175.326 1.22423 -2.00125 0
M  V30 1991 C 176.342 1.48084 -0.913619 0
M  V30 1992 O 177.518 1.60112 -1.22172 0
M  V30 1993 C 174.583 2.54197 -2.35764 0
M  V30 1994 C 173.644 2.36343 -3.58386 0
M  V30 1995 C 172.877 3.61834 -3.92316 0
M  V30 1996 O 173.1 4.67267 -3.27135 0
M  V30 1997 O 172.034 3.55579 -4.85641 0
M  V30 1998 H 175.86 0.885886 -2.90492 0
M  V30 1999 H 173.445 0.372518 -1.44681 0
M  V30 2000 H 175.327 3.3192 -2.59629 0
M  V30 2001 H 174.002 2.87598 -1.48557 0
M  V30 2002 H 172.909 1.56632 -3.39731 0
M  V30 2003 H 174.242 2.07865 -4.46154 0
M  V30 2004 N 175.894 1.51508 0.433938 0
M  V30 2005 C 177.171 1.54888 1.19453 0
M  V30 2006 C 177.551 0.315154 2.08734 0
M  V30 2007 O 176.899 -0.699558 2.17528 0
M  V30 2008 C 177.109 2.86467 1.99342 0
M  V30 2009 C 178.457 3.38545 2.56267 0
M  V30 2010 O 179.481 2.88041 2.0955 0
M  V30 2011 O 178.34 4.26675 3.41483 0
M  V30 2012 H 175.434 0.622863 0.544032 0
M  V30 2013 H 177.98 1.63823 0.442732 0
M  V30 2014 H 176.752 3.67718 1.33788 0
M  V30 2015 H 176.375 2.8071 2.8158 0
M  V30 2016 N 177.372 -0.689602 1.41712 0
M  V30 2017 C 178.62 -1.4468 1.4111 0
M  V30 2018 C 178.941 -1.94986 0.0232196 0
M  V30 2019 O 178.211 -1.72097 -0.935913 0
M  V30 2020 H 176.791 -0.536847 0.519427 0
M  V30 2021 H 179.453 -0.815825 1.77004 0
M  V30 2022 H 178.549 -2.30706 2.10193 0
M  V30 2023 N 178.85 -1.27639 -0.924453 0
M  V30 2024 C 179.783 -1.04966 -2.02626 0
M  V30 2025 C 180.761 0.0309505 -1.62571 0
M  V30 2026 O 181.945 -0.114846 -1.8815 0
M  V30 2027 C 179.072 -0.59292 -3.3347 0
M  V30 2028 C 178.118 -1.66858 -3.92506 0
M  V30 2029 S 178.951 -3.2619 -4.24689 0
M  V30 2030 C 180.107 -2.82325 -5.58609 0
M  V30 2031 H 180.34 -1.98252 -2.21547 0
M  V30 2032 H 177.873 -1.11506 -1.06798 0
M  V30 2033 H 179.831 -0.336086 -4.09122 0
M  V30 2034 H 178.492 0.319939 -3.12466 0
M  V30 2035 H 177.685 -1.30038 -4.86935 0
M  V30 2036 H 177.287 -1.87766 -3.2345 0
M  V30 2037 H 179.579 -2.2783 -6.38044 0
M  V30 2038 H 180.522 -3.75511 -6.00331 0
M  V30 2039 H 180.93 -2.21367 -5.19285 0
M  V30 2040 N 180.328 1.1314 -1.09713 0
M  V30 2041 C 181.574 1.84967 -0.846104 0
M  V30 2042 C 181.929 1.82082 0.621601 0
M  V30 2043 O 181.222 1.2501 1.452 0
M  V30 2044 C 181.416 3.32167 -1.3191 0
M  V30 2045 C 181.245 3.49386 -2.83125 0
M  V30 2046 C 180.015 3.63456 -3.51038 0
M  V30 2047 C 182.213 3.45179 -3.81256 0
M  V30 2048 N 180.195 3.68966 -4.9065 0
M  V30 2049 C 181.566 3.57094 -5.06837 0
M  V30 2050 C 183.621 3.28598 -3.74069 0
M  V30 2051 C 182.324 3.5414 -6.26081 0
M  V30 2052 C 184.35 3.26953 -4.92804 0
M  V30 2053 C 183.712 3.39422 -6.17229 0
M  V30 2054 H 179.811 0.692899 -0.362512 0
M  V30 2055 H 182.395 1.35506 -1.39808 0
M  V30 2056 H 180.566 3.80186 -0.794535 0
M  V30 2057 H 182.298 3.91815 -1.01308 0
M  V30 2058 H 179.053 3.65256 -3.01471 0
M  V30 2059 H 179.477 3.75404 -5.63383 0
M  V30 2060 H 184.119 3.17858 -2.78794 0
M  V30 2061 H 181.837 3.63653 -7.21653 0
M  V30 2062 H 185.423 3.15316 -4.88945 0
M  V30 2063 H 184.303 3.38114 -7.07565 0
M  V30 2064 N 181.806 0.884767 1.30421 0
M  V30 2065 C 182.753 0.349642 2.28136 0
M  V30 2066 C 183.723 -0.560061 1.56373 0
M  V30 2067 O 184.908 -0.488524 1.8444 0
M  V30 2068 C 182.048 -0.42999 3.42411 0
M  V30 2069 C 181.161 0.508907 4.28992 0
M  V30 2070 C 180.296 -0.286301 5.30428 0
M  V30 2071 C 179.335 0.648079 6.08659 0
M  V30 2072 N 178.472 -0.111792 7.02011 0
M  V30 2073 H 183.312 1.18807 2.73293 0
M  V30 2074 H 180.849 0.597231 1.3443 0
M  V30 2075 H 182.807 -0.897923 4.07423 0
M  V30 2076 H 181.437 -1.23299 2.98324 0
M  V30 2077 H 180.489 1.09533 3.64289 0
M  V30 2078 H 181.801 1.22475 4.8353 0
M  V30 2079 H 180.955 -0.816098 6.01186 0
M  V30 2080 H 179.694 -1.03536 4.76583 0
M  V30 2081 H 178.699 1.18951 5.36778 0
M  V30 2082 H 179.924 1.39623 6.64592 0
M  V30 2083 H 177.87 -0.843395 6.50556 0
M  V30 2084 H 177.787 0.544429 7.54037 0
M  V30 2085 H 179.055 -0.622339 7.77012 0
M  V30 2086 N 183.284 -1.43765 0.645699 0
M  V30 2087 C 184.214 -2.33471 -0.0370477 0
M  V30 2088 C 185.195 -1.49042 -0.819779 0
M  V30 2089 O 186.38 -1.77726 -0.782758 0
M  V30 2090 C 183.51 -3.32311 -1.0093 0
M  V30 2091 C 182.464 -4.2667 -0.337201 0
M  V30 2092 C 181.79 -5.1549 -1.42037 0
M  V30 2093 C 183.09 -5.16657 0.765706 0
M  V30 2094 H 184.784 -2.90809 0.712069 0
M  V30 2095 H 182.33 -1.39834 0.343876 0
M  V30 2096 H 184.283 -3.9396 -1.49578 0
M  V30 2097 H 183.007 -2.73213 -1.78948 0
M  V30 2098 H 181.666 -3.66374 0.128771 0
M  V30 2099 H 181.314 -4.52735 -2.1918 0
M  V30 2100 H 181.014 -5.79438 -0.975966 0
M  V30 2101 H 182.538 -5.80012 -1.90838 0
M  V30 2102 H 183.952 -5.72158 0.361702 0
M  V30 2103 H 182.349 -5.89286 1.13413 0
M  V30 2104 H 183.419 -4.56796 1.62683 0
M  V30 2105 N 184.763 -0.387143 -1.52771 0
M  V30 2106 C 186.04 0.253197 -1.93954 0
M  V30 2107 C 186.42 1.64545 -1.32243 0
M  V30 2108 O 185.768 2.23191 -0.489699 0
M  V30 2109 C 185.978 0.281722 -3.47861 0
M  V30 2110 C 187.326 0.511715 -4.21505 0
M  V30 2111 O 188.35 0.362023 -3.54356 0
M  V30 2112 O 187.209 0.804847 -5.40541 0
M  V30 2113 H 184.303 0.156845 -0.811991 0
M  V30 2114 H 186.849 -0.441494 -1.63856 0
M  V30 2115 H 185.621 -0.693571 -3.85104 0
M  V30 2116 H 185.244 1.02142 -3.84256 0
M  V30 2117 N 186.241 1.57166 -0.116904 0
M  V30 2118 C 187.487 1.96206 0.536166 0
M  V30 2119 C 187.842 0.99915 1.64422 0
M  V30 2120 O 187.135 0.0288195 1.91578 0
M  V30 2121 C 187.329 3.39508 1.11664 0
M  V30 2122 C 187.158 4.49651 0.0663474 0
M  V30 2123 C 185.928 5.03982 -0.36474 0
M  V30 2124 C 188.126 5.09322 -0.713829 0
M  V30 2125 N 186.108 5.97699 -1.40102 0
M  V30 2126 C 187.479 5.98963 -1.60136 0
M  V30 2127 C 189.534 4.91989 -0.764948 0
M  V30 2128 C 188.237 6.73128 -2.53556 0
M  V30 2129 C 190.263 5.66833 -1.68685 0
M  V30 2130 C 189.625 6.56158 -2.56196 0
M  V30 2131 H 185.724 0.764203 0.165886 0
M  V30 2132 H 188.308 1.93623 -0.204535 0
M  V30 2133 H 186.479 3.42743 1.82707 0
M  V30 2134 H 188.211 3.65677 1.73386 0
M  V30 2135 H 184.966 4.73592 0.027252 0
M  V30 2136 H 185.39 6.49262 -1.91802 0
M  V30 2137 H 190.032 4.22676 -0.102501 0
M  V30 2138 H 187.75 7.41689 -3.20816 0
M  V30 2139 H 191.336 5.55427 -1.73181 0
M  V30 2140 H 190.216 7.13057 -3.26372 0
M  V30 2141 N 187.719 -0.156864 1.56817 0
M  V30 2142 C 188.996 -0.899244 1.73704 0
M  V30 2143 C 189.376 -1.99771 0.682254 0
M  V30 2144 O 188.724 -2.26515 -0.300522 0
M  V30 2145 C 188.934 -1.45075 3.17418 0
M  V30 2146 C 190.282 -1.91802 3.7881 0
M  V30 2147 O 191.306 -1.54838 3.20786 0
M  V30 2148 O 190.165 -2.5994 4.80722 0
M  V30 2149 H 187.259 -0.424267 0.709878 0
M  V30 2150 H 189.805 -0.143561 1.69092 0
M  V30 2151 H 188.577 -0.660846 3.85679 0
M  V30 2152 H 188.2 -2.27021 3.26416 0
M  V30 2153 N 189.197 -1.51736 -0.425897 0
M  V30 2154 C 190.147 -1.70258 -1.51645 0
M  V30 2155 C 191.131 -0.556488 -1.5097 0
M  V30 2156 O 192.323 -0.812879 -1.5723 0
M  V30 2157 C 189.452 -1.84143 -2.89735 0
M  V30 2158 C 188.538 -3.04572 -2.95122 0
M  V30 2159 N 188.929 -4.2756 -2.70233 0
M  V30 2160 C 187.227 -3.04061 -3.26286 0
M  V30 2161 C 187.928 -5.08908 -2.81757 0
M  V30 2162 N 186.904 -4.43797 -3.13919 0
M  V30 2163 H 190.706 -2.63004 -1.31172 0
M  V30 2164 H 188.22 -1.4954 -0.633375 0
M  V30 2165 H 190.217 -1.95525 -3.68206 0
M  V30 2166 H 188.877 -0.925857 -3.1122 0
M  V30 2167 H 189.888 -4.56315 -2.44943 0
M  V30 2168 H 186.565 -2.22179 -3.53473 0
M  V30 2169 H 187.955 -6.16843 -2.66372 0
M  V30 2170 N 190.675 0.682077 -1.42076 0
M  V30 2171 C 191.9 1.47558 -1.45744 0
M  V30 2172 C 192.325 1.87977 -0.0680981 0
M  V30 2173 O 191.683 1.55522 0.9318 0
M  V30 2174 C 191.731 2.70575 -2.38373 0
M  V30 2175 O 190.835 3.68573 -1.85007 0
M  V30 2176 H 190.176 0.443585 -0.494093 0
M  V30 2177 H 192.706 0.837238 -1.86686 0
M  V30 2178 H 192.716 3.18729 -2.54707 0
M  V30 2179 H 191.391 2.40495 -3.39315 0
M  V30 2180 H 189.968 3.2757 -1.78192 0
M  V30 2181 N 192.153 1.28127 0.917671 0
M  V30 2182 C 193.399 1.15223 1.66888 0
M  V30 2183 C 193.732 -0.299293 1.9188 0
M  V30 2184 O 193.007 -1.21805 1.51637 0
M  V30 2185 C 193.29 1.94706 3.02922 0
M  V30 2186 C 193.143 3.47898 2.85109 0
M  V30 2187 C 194.462 1.75939 4.03402 0
M  V30 2188 H 191.581 0.419946 0.605652 0
M  V30 2189 H 194.223 1.57398 1.06423 0
M  V30 2190 H 192.373 1.58864 3.54534 0
M  V30 2191 H 194.045 3.93624 2.40537 0
M  V30 2192 H 192.288 3.7373 2.20246 0
M  V30 2193 H 192.959 3.98765 3.81694 0
M  V30 2194 H 195.435 2.07209 3.60837 0
M  V30 2195 H 194.311 2.33931 4.96556 0
M  V30 2196 H 194.572 0.709877 4.36364 0
M  V30 2197 N 193.631 -1.12557 1.10312 0
M  V30 2198 C 194.88 -1.83395 0.839588 0
M  V30 2199 C 195.193 -1.84939 -0.636929 0
M  V30 2200 O 196.399 -2.51761 -1.01631 0
M  V30 2201 C 194.855 -3.29303 1.45215 0
M  V30 2202 C 194.463 -3.36122 2.96186 0
M  V30 2203 C 196.207 -4.05121 1.26796 0
M  V30 2204 C 194.114 -4.76357 3.50483 0
M  V30 2205 H 193.044 -0.687133 0.310425 0
M  V30 2206 H 195.695 -1.26746 1.32694 0
M  V30 2207 H 194.077 -3.85812 0.892469 0
M  V30 2208 H 195.251 -2.89559 3.58458 0
M  V30 2209 H 193.566 -2.73776 3.13745 0
M  V30 2210 H 196.163 -5.08668 1.64806 0
M  V30 2211 H 196.506 -4.15773 0.209409 0
M  V30 2212 H 197.039 -3.54967 1.79563 0
M  V30 2213 H 193.778 -4.70899 4.55998 0
M  V30 2214 H 193.298 -5.23377 2.92978 0
M  V30 2215 H 194.977 -5.45294 3.48228 0
M  V30 2216 N 195.109 -0.891671 -1.2995 0
M  V30 2217 C 196.358 -0.509521 -1.95158 0
M  V30 2218 C 196.671 0.947388 -1.71125 0
M  V30 2219 O 197.877 1.43669 -2.30372 0
M  V30 2220 C 196.333 -0.860315 -3.49466 0
M  V30 2221 C 195.941 -2.33545 -3.8231 0
M  V30 2222 C 197.685 -0.547687 -4.20952 0
M  V30 2223 C 195.592 -2.62752 -5.29826 0
M  V30 2224 H 194.522 -0.18682 -0.730489 0
M  V30 2225 H 197.173 -1.08756 -1.47798 0
M  V30 2226 H 195.555 -0.211285 -3.95436 0
M  V30 2227 H 196.729 -3.02936 -3.47227 0
M  V30 2228 H 195.044 -2.61629 -3.23944 0
M  V30 2229 H 197.641 -0.742854 -5.29515 0
M  V30 2230 H 197.984 0.51332 -4.13123 0
M  V30 2231 H 198.517 -1.1542 -3.80688 0
M  V30 2232 H 195.256 -3.6762 -5.42712 0
M  V30 2233 H 194.776 -1.97977 -5.66185 0
M  V30 2234 H 196.455 -2.48601 -5.97333 0
M  V30 2235 N 196.587 1.43421 -0.653314 0
M  V30 2236 C 197.998 1.85065 -0.246537 0
M  V30 2237 C 198.349 1.54688 1.2069 0
M  V30 2238 O 197.474 0.995896 1.92122 0
M  V30 2239 C 198.069 3.35922 -0.440666 0
M  V30 2240 C 196.628 3.76297 -0.0882064 0
M  V30 2241 C 195.775 2.67147 -0.743484 0
M  V30 2242 H 198.726 1.33572 -0.856979 0
M  V30 2243 H 198.747 3.79204 0.313798 0
M  V30 2244 H 198.259 3.58 -1.49858 0
M  V30 2245 H 196.36 3.5983 0.96711 0
M  V30 2246 H 196.473 4.76338 -0.513738 0
M  V30 2247 H 194.837 2.54086 -0.176712 0
M  V30 2248 H 195.62 2.92053 -1.80443 0
M  V30 2249 N 198.065 0.39524 1.52563 0
M  V30 2250 C 199.313 -0.184678 2.01254 0
M  V30 2251 C 199.634 -1.46822 1.28329 0
M  V30 2252 O 198.904 -1.91666 0.405094 0
M  V30 2253 H 197.484 -0.0712355 0.743596 0
M  V30 2254 H 200.146 0.528293 1.87603 0
M  V30 2255 H 199.242 -0.390681 3.09645 0
M  V30 2256 N 199.544 -1.57102 0.125237 0
M  V30 2257 C 200.477 -2.11371 -0.860094 0
M  V30 2258 C 201.455 -1.03168 -1.25679 0
M  V30 2259 O 202.639 -1.30862 -1.35674 0
M  V30 2260 C 199.766 -2.61555 -2.1519 0
M  V30 2261 C 198.812 -3.81701 -1.9028 0
M  V30 2262 S 199.645 -5.23797 -1.11343 0
M  V30 2263 C 200.801 -5.77353 -2.41689 0
M  V30 2264 H 201.034 -2.94617 -0.39852 0
M  V30 2265 H 198.567 -1.54145 -0.0886555 0
M  V30 2266 H 200.525 -2.91122 -2.89411 0
M  V30 2267 H 199.186 -1.78479 -2.58465 0
M  V30 2268 H 198.379 -4.14985 -2.86014 0
M  V30 2269 H 197.981 -3.52783 -1.24178 0
M  V30 2270 H 200.273 -5.87458 -3.37489 0
M  V30 2271 H 201.216 -6.75323 -2.12942 0
M  V30 2272 H 201.624 -5.05457 -2.51342 0
M  V30 2273 N 201.022 0.148545 -1.56898 0
M  V30 2274 C 201.954 1.20852 -1.9475 0
M  V30 2275 C 202.967 1.39265 -0.843152 0
M  V30 2276 O 204.156 1.38864 -1.12156 0
M  V30 2277 C 201.256 2.57362 -2.20495 0
M  V30 2278 C 200.429 2.59947 -3.51776 0
M  V30 2279 C 199.488 3.77984 -3.6608 0
M  V30 2280 O 198.514 3.62929 -4.38487 0
M  V30 2281 N 199.716 4.95375 -3.02629 0
M  V30 2282 H 202.481 0.886804 -2.86279 0
M  V30 2283 H 200.042 0.338121 -1.5833 0
M  V30 2284 H 202.034 3.34833 -2.27307 0
M  V30 2285 H 200.604 2.81832 -1.35238 0
M  V30 2286 H 199.824 1.68403 -3.56419 0
M  V30 2287 H 201.112 2.58704 -4.38121 0
M  V30 2288 H 200.51 5.10509 -2.43715 0
M  V30 2289 H 199.067 5.70627 -3.15004 0
M  V30 2290 N 202.5 1.5196 0.417844 0
M  V30 2291 C 203.447 1.74678 1.50852 0
M  V30 2292 C 204.417 0.588947 1.55308 0
M  V30 2293 O 205.602 0.825544 1.72016 0
M  V30 2294 C 202.742 1.89544 2.88387 0
M  V30 2295 C 201.855 3.17166 2.93309 0
M  V30 2296 C 200.99 3.22513 4.22088 0
M  V30 2297 C 200.029 4.44372 4.20951 0
M  V30 2298 N 199.166 4.47161 5.41287 0
M  V30 2299 H 204.006 2.67768 1.30783 0
M  V30 2300 H 201.543 1.32689 0.63498 0
M  V30 2301 H 203.501 1.96146 3.68216 0
M  V30 2302 H 202.131 0.998424 3.06971 0
M  V30 2303 H 201.183 3.19778 2.06024 0
M  V30 2304 H 202.495 4.07021 2.88332 0
M  V30 2305 H 201.649 3.28139 5.10303 0
M  V30 2306 H 200.388 2.30581 4.29748 0
M  V30 2307 H 199.393 4.38902 3.31127 0
M  V30 2308 H 200.618 5.3759 4.14938 0
M  V30 2309 H 198.564 3.58108 5.49632 0
M  V30 2310 H 198.481 5.3085 5.3827 0
M  V30 2311 H 199.749 4.57005 6.3148 0
M  V30 2312 N 203.978 -0.674533 1.42435 0
M  V30 2313 C 205.255 -1.4305 1.33402 0
M  V30 2314 C 205.635 -2.11081 -0.0284674 0
M  V30 2315 O 204.983 -2.03257 -1.04397 0
M  V30 2316 C 205.193 -2.43272 2.50239 0
M  V30 2317 C 206.541 -3.07907 2.92367 0
M  V30 2318 O 207.565 -2.53599 2.50132 0
M  V30 2319 O 206.424 -4.0632 3.65467 0
M  V30 2320 H 203.518 -0.638076 0.526106 0
M  V30 2321 H 206.064 -0.703235 1.54443 0
M  V30 2322 H 204.836 -1.91803 3.41068 0
M  V30 2323 H 204.459 -3.23479 2.31186 0
M  V30 2324 N 205.456 -1.28612 -0.910864 0
M  V30 2325 C 206.388 -1.08589 -2.01844 0
M  V30 2326 C 207.401 -0.0367419 -1.62759 0
M  V30 2327 O 208.59 -0.280101 -1.76289 0
M  V30 2328 C 205.69 -0.628626 -3.33019 0
M  V30 2329 C 204.863 -1.75382 -4.00699 0
M  V30 2330 C 203.922 -1.28945 -5.10156 0
M  V30 2331 O 202.948 -1.9922 -5.33198 0
M  V30 2332 N 204.15 -0.154224 -5.80295 0
M  V30 2333 H 206.915 -2.03973 -2.19579 0
M  V30 2334 H 204.476 -1.20403 -1.08234 0
M  V30 2335 H 206.468 -0.301508 -4.03575 0
M  V30 2336 H 205.038 0.232451 -3.11735 0
M  V30 2337 H 204.258 -2.25039 -3.23653 0
M  V30 2338 H 205.546 -2.50854 -4.42662 0
M  V30 2339 H 204.944 0.43194 -5.64049 0
M  V30 2340 H 203.501 0.113599 -6.51701 0
M  V30 2341 N 206.934 1.1197 -1.10907 0
M  V30 2342 C 208.159 1.87942 -0.877064 0
M  V30 2343 C 208.584 1.79341 0.567314 0
M  V30 2344 O 207.942 1.15184 1.40009 0
M  V30 2345 C 207.99 3.34926 -1.33629 0
M  V30 2346 O 207.094 4.09303 -0.504447 0
M  V30 2347 H 206.435 0.583785 -0.316371 0
M  V30 2348 H 208.965 1.4157 -1.47712 0
M  V30 2349 H 208.975 3.8577 -1.32837 0
M  V30 2350 H 207.65 3.40504 -2.3881 0
M  V30 2351 H 206.227 3.68393 -0.577993 0
M  V30 2352 N 208.412 0.89855 1.29475 0
M  V30 2353 C 209.661 0.519863 1.94885 0
M  V30 2354 C 209.974 -0.9383 1.71625 0
M  V30 2355 O 211.18 -1.42445 2.31131 0
M  V30 2356 C 209.636 0.878836 3.49005 0
M  V30 2357 C 209.244 2.35569 3.81066 0
M  V30 2358 C 210.988 0.570004 4.20656 0
M  V30 2359 C 208.895 2.65558 5.28425 0
M  V30 2360 H 207.825 0.190692 0.729488 0
M  V30 2361 H 210.476 1.09539 1.47219 0
M  V30 2362 H 208.858 0.232253 3.95318 0
M  V30 2363 H 210.032 3.04773 3.45616 0
M  V30 2364 H 208.347 2.63343 3.22552 0
M  V30 2365 H 210.944 0.770925 5.29113 0
M  V30 2366 H 211.287 -0.491404 4.1339 0
M  V30 2367 H 211.82 1.17438 3.8007 0
M  V30 2368 H 208.559 3.70493 5.40754 0
M  V30 2369 H 208.079 2.00977 5.65127 0
M  V30 2370 H 209.758 2.51765 5.96006 0
M  V30 2371 N 209.89 -1.43072 0.660911 0
M  V30 2372 C 210.84 -2.27948 -0.04847 0
M  V30 2373 C 211.824 -1.40325 -0.787246 0
M  V30 2374 O 213.016 -1.63893 -0.668446 0
M  V30 2375 C 210.145 -3.28143 -1.00881 0
M  V30 2376 C 209.231 -4.23252 -0.268108 0
M  V30 2377 N 209.622 -5.00656 0.719528 0
M  V30 2378 C 207.92 -4.43092 -0.508493 0
M  V30 2379 C 208.621 -5.70019 1.15988 0
M  V30 2380 N 207.597 -5.41364 0.492584 0
M  V30 2381 H 211.399 -2.85213 0.709279 0
M  V30 2382 H 208.913 -1.54869 0.488822 0
M  V30 2383 H 210.91 -3.87736 -1.53188 0
M  V30 2384 H 209.57 -2.7244 -1.76654 0
M  V30 2385 H 210.581 -5.06115 1.09855 0
M  V30 2386 H 207.258 -3.98449 -1.24679 0
M  V30 2387 H 208.648 -6.4214 1.97751 0
M  V30 2388 N 211.368 -0.403325 -1.52352 0
M  V30 2389 C 212.617 0.175668 -2.00934 0
M  V30 2390 C 212.93 1.46718 -1.29356 0
M  V30 2391 O 214.136 2.12708 -1.68724 0
M  V30 2392 C 212.592 0.363612 -3.58058 0
M  V30 2393 C 212.2 -0.915472 -4.38547 0
M  V30 2394 C 213.944 0.89821 -4.14888 0
M  V30 2395 C 211.851 -0.695035 -5.87302 0
M  V30 2396 H 210.781 0.0694234 -0.750797 0
M  V30 2397 H 213.432 -0.527879 -1.75743 0
M  V30 2398 H 211.814 1.12935 -3.79555 0
M  V30 2399 H 212.988 -1.68691 -4.28812 0
M  V30 2400 H 211.303 -1.37606 -3.93006 0
M  V30 2401 H 213.9 1.07907 -5.23699 0
M  V30 2402 H 214.243 1.87126 -3.71873 0
M  V30 2403 H 214.776 0.191681 -3.97338 0
M  V30 2404 H 211.515 -1.63948 -6.34666 0
M  V30 2405 H 211.035 0.0372116 -5.99788 0
M  V30 2406 H 212.714 -0.33497 -6.46132 0
M  V30 2407 N 212.846 1.57033 -0.133567 0
M  V30 2408 C 213.756 2.19632 0.824564 0
M  V30 2409 C 214.772 1.17666 1.28182 0
M  V30 2410 O 215.948 1.50193 1.3418 0
M  V30 2411 C 213.013 2.79499 2.05137 0
M  V30 2412 C 212.074 3.96548 1.64464 0
M  V30 2413 C 211.307 4.5355 2.81297 0
M  V30 2414 O 211.53 4.09438 3.97136 0
M  V30 2415 O 210.464 5.44018 2.57542 0
M  V30 2416 H 214.29 3.01991 0.321766 0
M  V30 2417 H 211.875 1.49112 0.0927889 0
M  V30 2418 H 213.757 3.17602 2.7696 0
M  V30 2419 H 212.432 2.00162 2.54395 0
M  V30 2420 H 211.339 3.63186 0.897048 0
M  V30 2421 H 212.672 4.77364 1.19934 0
M  V30 2422 N 214.325 -0.140222 1.56975 0
M  V30 2423 C 215.273 -1.19207 1.99731 0
M  V30 2424 C 216.267 -1.44089 0.890777 0
M  V30 2425 O 217.473 -1.44301 1.07597 0
M  V30 2426 H 213.848 -0.40142 0.635898 0
M  V30 2427 H 215.819 -0.804813 2.87342 0
M  V30 2428 C 214.568 -2.51617 2.39967 0
M  V30 2429 H 213.891 -2.33303 3.24669 0
M  V30 2430 H 215.331 -3.23827 2.73701 0
M  V30 2431 C 213.79 -3.12654 1.25496 0
M  V30 2432 O 214.32 -3.97786 0.559371 0
M  V30 2433 N 212.526 -2.72206 1.01746 0
M  V30 2434 H 212.073 -2.03074 1.58489 0
M  V30 2435 H 212.031 -3.13377 0.253461 0
M  V30 2436 N 215.803 -1.52179 -0.40978 0
M  V30 2437 C 216.733 -1.78435 -1.5061 0
M  V30 2438 C 217.714 -0.635295 -1.57791 0
M  V30 2439 O 218.899 -0.880823 -1.73076 0
M  V30 2440 C 216.029 -1.93444 -2.88439 0
M  V30 2441 C 214.983 -3.09038 -2.96108 0
M  V30 2442 C 214.309 -3.09268 -4.36185 0
M  V30 2443 C 215.609 -4.48508 -2.67652 0
M  V30 2444 H 217.303 -2.70237 -1.28889 0
M  V30 2445 H 214.849 -1.30036 -0.618605 0
M  V30 2446 H 216.802 -2.10394 -3.65119 0
M  V30 2447 H 215.526 -0.983129 -3.11452 0
M  V30 2448 H 214.185 -2.91837 -2.21872 0
M  V30 2449 H 213.833 -2.11861 -4.56206 0
M  V30 2450 H 213.533 -3.86907 -4.42241 0
M  V30 2451 H 215.057 -3.28348 -5.14801 0
M  V30 2452 H 216.471 -4.65918 -3.34056 0
M  V30 2453 H 214.868 -5.28059 -2.85085 0
M  V30 2454 H 215.938 -4.56649 -1.63095 0
M  V30 2455 N 217.281 0.66697 -1.42791 0
M  V30 2456 C 218.228 1.7803 -1.4688 0
M  V30 2457 C 219.198 1.6299 -0.319919 0
M  V30 2458 O 220.383 1.83432 -0.525118 0
M  V30 2459 C 217.523 3.1611 -1.38451 0
M  V30 2460 C 216.636 3.42381 -2.63437 0
M  V30 2461 C 215.771 4.70232 -2.47094 0
M  V30 2462 C 214.81 4.89564 -3.67415 0
M  V30 2463 N 213.947 6.08661 -3.49966 0
M  V30 2464 H 218.787 1.7387 -2.42019 0
M  V30 2465 H 216.324 0.84868 -1.20149 0
M  V30 2466 H 218.282 3.95914 -1.31561 0
M  V30 2467 H 216.912 3.19374 -0.469033 0
M  V30 2468 H 215.964 2.56774 -2.80662 0
M  V30 2469 H 217.276 3.52557 -3.52853 0
M  V30 2470 H 216.43 5.5814 -2.37834 0
M  V30 2471 H 215.169 4.62353 -1.5518 0
M  V30 2472 H 214.174 4.00096 -3.77099 0
M  V30 2473 H 215.399 4.99282 -4.6032 0
M  V30 2474 H 213.345 6.0194 -2.60776 0
M  V30 2475 H 213.262 6.19733 -4.32975 0
M  V30 2476 H 214.53 6.99226 -3.44532 0
M  V30 2477 N 218.759 1.29093 0.90403 0
M  V30 2478 C 219.984 1.19809 1.69294 0
M  V30 2479 C 220.409 -0.238481 1.86582 0
M  V30 2480 O 219.767 -1.1723 1.383 0
M  V30 2481 C 219.815 1.91202 3.05736 0
M  V30 2482 O 218.919 1.22611 3.93752 0
M  V30 2483 H 218.26 0.415385 0.518027 0
M  V30 2484 H 220.79 1.70586 1.12967 0
M  V30 2485 H 220.8 1.99487 3.55906 0
M  V30 2486 H 219.475 2.95692 2.92471 0
M  V30 2487 H 218.052 1.22554 3.52186 0
M  V30 2488 N 220.237 -1.11381 1.11499 0
M  V30 2489 C 221.147 -2.21019 0.786628 0
M  V30 2490 C 222.163 -1.72597 -0.220507 0
M  V30 2491 O 223.339 -2.01321 -0.0565251 0
M  V30 2492 C 220.404 -3.459 0.235333 0
M  V30 2493 C 219.465 -4.09107 1.30115 0
M  V30 2494 C 218.698 -5.28027 0.776068 0
M  V30 2495 O 218.921 -5.6904 -0.393661 0
M  V30 2496 O 217.855 -5.81835 1.54114 0
M  V30 2497 H 221.681 -2.51521 1.70209 0
M  V30 2498 H 219.266 -1.19928 0.890928 0
M  V30 2499 H 221.148 -4.21346 -0.067715 0
M  V30 2500 H 219.823 -3.17049 -0.652828 0
M  V30 2501 H 218.73 -3.35391 1.65722 0
M  V30 2502 H 220.063 -4.42139 2.16273 0
M  V30 2503 N 221.715 -0.905404 -1.28997 0
M  V30 2504 C 223.131 -0.60233 -1.47798 0
M  V30 2505 C 223.331 0.854645 -1.82478 0
M  V30 2506 O 222.387 1.63439 -1.92468 0
M  V30 2507 C 223.7 -1.53306 -2.58685 0
M  V30 2508 C 225.248 -1.53887 -2.72558 0
M  V30 2509 C 225.723 -2.45602 -3.86579 0
M  V30 2510 N 227.214 -2.43681 -3.93921 0
M  V30 2511 C 227.949 -3.11347 -4.81509 0
M  V30 2512 N 227.445 -3.88313 -5.73746 0
M  V30 2513 N 229.238 -3.00476 -4.75048 0
M  V30 2514 H 221.389 -1.84765 -1.04764 0
M  V30 2515 H 223.652 -0.792025 -0.520961 0
M  V30 2516 H 223.358 -2.57141 -2.39941 0
M  V30 2517 H 223.232 -1.25787 -3.55609 0
M  V30 2518 H 225.619 -0.507941 -2.90696 0
M  V30 2519 H 225.7 -1.85447 -1.76191 0
M  V30 2520 H 225.344 -3.48792 -3.69197 0
M  V30 2521 H 225.274 -2.11349 -4.82327 0
M  V30 2522 H 227.765 -1.87767 -3.27951 0
M  V30 2523 H 228.078 -4.36985 -6.37389 0
M  V30 2524 H 226.423 -3.92419 -5.73614 0
M  V30 2525 H 229.614 -2.39858 -4.01977 0
M  V30 2526 H 229.787 -3.53485 -5.43095 0
M  V30 2527 N 223.193 1.4272 -0.668489 0
M  V30 2528 C 224.441 2.01226 -0.187769 0
M  V30 2529 C 224.762 1.53092 1.2078 0
M  V30 2530 O 224.032 0.74993 1.80977 0
M  V30 2531 H 222.612 0.744041 -0.0664272 0
M  V30 2532 H 225.274 1.74723 -0.863583 0
M  V30 2533 H 224.37 3.11556 -0.184166 0
M  V30 2534 N 224.671 0.411399 1.52136 0
M  V30 2535 C 225.618 -0.412975 2.27075 0
M  V30 2536 C 226.588 -1.03912 1.29582 0
M  V30 2537 O 227.773 -1.06296 1.58448 0
M  V30 2538 C 224.913 -1.52247 3.09701 0
M  V30 2539 C 224.026 -0.917021 4.22155 0
M  V30 2540 C 223.161 -1.9994 4.92135 0
M  V30 2541 C 222.2 -1.37101 5.96548 0
M  V30 2542 N 221.337 -2.39364 6.60038 0
M  V30 2543 H 226.177 0.232499 2.97092 0
M  V30 2544 H 223.714 0.126496 1.46555 0
M  V30 2545 H 225.672 -2.17674 3.55913 0
M  V30 2546 H 224.302 -2.13794 2.41851 0
M  V30 2547 H 223.354 -0.151742 3.80097 0
M  V30 2548 H 224.666 -0.418006 4.97045 0
M  V30 2549 H 223.82 -2.73088 5.41763 0
M  V30 2550 H 222.559 -2.53208 4.16818 0
M  V30 2551 H 221.564 -0.624873 5.46237 0
M  V30 2552 H 222.789 -0.845998 6.7381 0
M  V30 2553 H 220.735 -2.91759 5.87548 0
M  V30 2554 H 220.652 -1.9428 7.3061 0
M  V30 2555 H 221.92 -3.12074 7.14304 0
M  V30 2556 N 226.149 -1.5696 0.141893 0
M  V30 2557 C 227.398 -1.95135 -0.510427 0
M  V30 2558 C 227.711 -1.02896 -1.66348 0
M  V30 2559 O 228.917 -1.30629 -2.38009 0
M  V30 2560 C 227.373 -3.46876 -0.959427 0
M  V30 2561 C 226.981 -4.47691 0.166419 0
M  V30 2562 C 228.725 -3.93927 -1.58183 0
M  V30 2563 C 226.632 -5.90636 -0.300565 0
M  V30 2564 H 225.562 -0.728494 -0.194454 0
M  V30 2565 H 228.213 -1.8211 0.22542 0
M  V30 2566 H 226.595 -3.55215 -1.75038 0
M  V30 2567 H 227.769 -4.51043 0.94325 0
M  V30 2568 H 226.084 -4.10527 0.696905 0
M  V30 2569 H 228.681 -4.98158 -1.94275 0
M  V30 2570 H 229.024 -3.3519 -2.46888 0
M  V30 2571 H 229.557 -3.88484 -0.855863 0
M  V30 2572 H 226.296 -6.5318 0.550989 0
M  V30 2573 H 225.816 -5.90655 -1.04338 0
M  V30 2574 H 227.495 -6.42588 -0.754265 0
M  V30 2575 N 227.627 0.131896 -1.57047 0
M  V30 2576 C 228.557 1.16384 -2.02428 0
M  V30 2577 C 229.538 1.43936 -0.90644 0
M  V30 2578 O 230.723 1.54599 -1.17528 0
M  V30 2579 C 227.853 2.49328 -2.4177 0
M  V30 2580 C 226.807 2.36266 -3.56879 0
M  V30 2581 C 226.133 3.74057 -3.8208 0
M  V30 2582 C 227.433 1.834 -4.89042 0
M  V30 2583 H 229.127 0.786433 -2.88887 0
M  V30 2584 H 226.673 0.376855 -1.38981 0
M  V30 2585 H 228.626 3.21759 -2.7212 0
M  V30 2586 H 227.35 2.88934 -1.52266 0
M  V30 2587 H 226.009 1.66286 -3.26718 0
M  V30 2588 H 225.657 4.11125 -2.89803 0
M  V30 2589 H 225.357 3.66174 -4.59554 0
M  V30 2590 H 226.881 4.48012 -4.1487 0
M  V30 2591 H 228.295 2.45636 -5.18011 0
M  V30 2592 H 226.692 1.8637 -5.70426 0
M  V30 2593 H 227.762 0.790662 -4.7841 0
M  V30 2594 N 229.106 1.52395 0.401703 0
M  V30 2595 C 230.383 1.57387 1.16141 0
M  V30 2596 C 230.763 0.359359 2.08019 0
M  V30 2597 O 230.111 -0.65326 2.18963 0
M  V30 2598 C 230.321 2.90631 1.93221 0
M  V30 2599 C 231.669 3.43904 2.49028 0
M  V30 2600 O 232.693 2.92421 2.03393 0
M  V30 2601 O 231.552 4.33823 3.32356 0
M  V30 2602 H 228.646 0.634262 0.530698 0
M  V30 2603 H 231.192 1.64725 0.407883 0
M  V30 2604 H 229.964 3.70473 1.25958 0
M  V30 2605 H 229.587 2.8662 2.75563 0
M  V30 2606 N 230.584 -0.659388 1.43143 0
M  V30 2607 C 232 -0.974337 1.26407 0
M  V30 2608 C 232.2 -2.007 0.179341 0
M  V30 2609 O 231.256 -2.4856 -0.444295 0
M  V30 2610 C 232.569 -1.46447 2.62628 0
M  V30 2611 C 234.117 -1.58144 2.7011 0
M  V30 2612 C 234.592 -2.1055 4.06734 0
M  V30 2613 N 236.083 -2.17861 4.08767 0
M  V30 2614 C 236.818 -2.59519 5.1131 0
M  V30 2615 N 236.314 -3.00518 6.24228 0
M  V30 2616 N 238.107 -2.59404 4.98664 0
M  V30 2617 H 230.258 0.0240528 2.12386 0
M  V30 2618 H 232.521 -0.0518065 0.946583 0
M  V30 2619 H 232.227 -0.780123 3.42939 0
M  V30 2620 H 232.101 -2.44058 2.87603 0
M  V30 2621 H 234.488 -2.25682 1.90136 0
M  V30 2622 H 234.569 -0.589828 2.48907 0
M  V30 2623 H 234.213 -1.43616 4.87172 0
M  V30 2624 H 234.143 -3.10531 4.25298 0
M  V30 2625 H 236.634 -1.88975 3.27257 0
M  V30 2626 H 236.947 -3.31036 6.98309 0
M  V30 2627 H 235.292 -2.98337 6.2771 0
M  V30 2628 H 238.483 -2.26747 4.09516 0
M  V30 2629 H 238.656 -2.91548 5.78709 0
M  V30 2630 N 232.062 -1.29571 -0.897171 0
M  V30 2631 C 233.01 -1.14802 -2.02295 0
M  V30 2632 C 234.004 -0.0629637 -1.69283 0
M  V30 2633 O 235.21 -0.222945 -1.78614 0
M  V30 2634 H 231.585 -0.354692 -0.663097 0
M  V30 2635 H 233.556 -2.10108 -2.11889 0
M  V30 2636 C 232.305 -0.843966 -3.37302 0
M  V30 2637 H 231.628 -1.67093 -3.63208 0
M  V30 2638 H 233.068 -0.780672 -4.16751 0
M  V30 2639 C 231.527 0.452843 -3.33843 0
M  V30 2640 O 232.057 1.47813 -3.73516 0
M  V30 2641 N 230.263 0.459601 -2.86943 0
M  V30 2642 H 229.81 -0.375213 -2.54853 0
M  V30 2643 H 229.768 1.32726 -2.85011 0
M  V30 2644 N 233.54 1.10788 -1.12088 0
M  V30 2645 C 234.488 2.19111 -0.780587 0
M  V30 2646 C 235.482 1.67818 0.230961 0
M  V30 2647 O 236.688 1.79777 0.0895427 0
M  V30 2648 H 233.063 0.714477 -0.234578 0
M  V30 2649 H 235.034 2.45055 -1.70266 0
M  V30 2650 C 233.783 3.46818 -0.24747 0
M  V30 2651 H 233.106 3.86646 -1.01712 0
M  V30 2652 H 234.546 4.23973 -0.0476291 0
M  V30 2653 C 233.005 3.20968 1.02378 0
M  V30 2654 O 233.535 3.42298 2.10226 0
M  V30 2655 N 231.741 2.74658 0.949271 0
M  V30 2656 H 231.288 2.57501 0.0715173 0
M  V30 2657 H 231.246 2.57739 1.80049 0
M  V30 2658 N 235.018 0.912232 1.28515 0
M  V30 2659 C 236.264 0.545405 1.95328 0
M  V30 2660 C 236.597 -0.908313 1.71649 0
M  V30 2661 O 235.872 -1.64575 1.03659 0
M  V30 2662 C 236.155 0.853483 3.4984 0
M  V30 2663 C 236.008 2.35982 3.82926 0
M  V30 2664 C 237.327 0.348589 4.38717 0
M  V30 2665 H 234.446 0.199626 0.709449 0
M  V30 2666 H 237.088 1.1412 1.5191 0
M  V30 2667 H 235.238 0.34643 3.86952 0
M  V30 2668 H 236.91 2.93738 3.55691 0
M  V30 2669 H 235.153 2.81543 3.30024 0
M  V30 2670 H 235.824 2.52593 4.90816 0
M  V30 2671 H 238.3 0.78294 4.08668 0
M  V30 2672 H 237.176 0.593242 5.45685 0
M  V30 2673 H 237.437 -0.751049 4.35674 0
M  V30 2674 N 236.496 -1.42363 0.676048 0
M  V30 2675 C 237.406 -2.346 -0.00153389 0
M  V30 2676 C 238.422 -1.5516 -0.787485 0
M  V30 2677 O 239.598 -1.87723 -0.729521 0
M  V30 2678 C 236.663 -3.33705 -0.940298 0
M  V30 2679 C 235.724 -4.29042 -0.148739 0
M  V30 2680 C 234.957 -5.23413 -1.04279 0
M  V30 2681 O 235.18 -5.22749 -2.28232 0
M  V30 2682 O 234.114 -5.99795 -0.502925 0
M  V30 2683 H 237.94 -2.94082 0.758268 0
M  V30 2684 H 235.525 -1.42888 0.436289 0
M  V30 2685 H 237.407 -3.94586 -1.47917 0
M  V30 2686 H 236.082 -2.76695 -1.67993 0
M  V30 2687 H 234.989 -3.71571 0.43427 0
M  V30 2688 H 236.322 -4.89097 0.551805 0
M  V30 2689 N 237.974 -0.419461 -1.51915 0
M  V30 2690 C 238.904 0.391813 -2.30189 0
M  V30 2691 C 239.885 1.03699 -1.34836 0
M  V30 2692 O 241.07 1.04403 -1.63748 0
M  V30 2693 C 238.2 1.50312 -3.13087 0
M  V30 2694 C 237.154 0.9824 -4.16573 0
M  V30 2695 C 236.48 2.18809 -4.8788 0
M  V30 2696 C 237.78 0.0292356 -5.22292 0
M  V30 2697 H 239.474 -0.26135 -2.98257 0
M  V30 2698 H 237.02 -0.127134 -1.43438 0
M  V30 2699 H 238.973 2.07773 -3.66617 0
M  V30 2700 H 237.697 2.18431 -2.42807 0
M  V30 2701 H 236.356 0.430119 -3.64068 0
M  V30 2702 H 236.004 2.85507 -4.14119 0
M  V30 2703 H 235.704 1.84615 -5.57845 0
M  V30 2704 H 237.228 2.76858 -5.44226 0
M  V30 2705 H 238.642 0.512976 -5.71 0
M  V30 2706 H 237.039 -0.2244 -5.9968 0
M  V30 2707 H 238.109 -0.912931 -4.76228 0
M  V30 2708 N 239.452 1.56882 -0.150215 0
M  V30 2709 C 240.415 2.1573 0.774157 0
M  V30 2710 C 241.415 1.0999 1.17298 0
M  V30 2711 O 242.605 1.35613 1.09338 0
M  V30 2712 C 239.737 2.72302 2.05096 0
M  V30 2713 H 240.93 2.98752 0.262201 0
M  V30 2714 H 238.483 1.55985 0.099248 0
M  V30 2715 H 239.218 1.92956 2.6065 0
M  V30 2716 H 239.003 3.49665 1.77416 0
M  V30 2717 H 240.493 3.17632 2.71109 0
M  V30 2718 N 240.93 -0.123565 1.57115 0
M  V30 2719 C 241.878 -1.17082 2.00984 0
M  V30 2720 C 242.872 -1.43136 0.906009 0
M  V30 2721 O 244.078 -1.43152 1.09121 0
M  V30 2722 H 240.453 -0.394653 0.64012 0
M  V30 2723 H 242.424 -0.774292 2.88179 0
M  V30 2724 C 241.173 -2.49057 2.42623 0
M  V30 2725 H 240.496 -2.29846 3.27125 0
M  V30 2726 H 241.936 -3.20906 2.7712 0
M  V30 2727 C 240.395 -3.11305 1.28805 0
M  V30 2728 O 240.925 -3.97171 0.60153 0
M  V30 2729 N 239.131 -2.71111 1.04628 0
M  V30 2730 H 238.678 -2.01382 1.60634 0
M  V30 2731 H 238.636 -3.1309 0.286685 0
M  V30 2732 N 242.408 -1.52605 -0.393616 0
M  V30 2733 C 243.636 -1.71294 -1.16043 0
M  V30 2734 C 244.051 -0.429259 -1.83855 0
M  V30 2735 O 243.408 0.595921 -1.72496 0
M  V30 2736 C 243.459 -2.8593 -2.21193 0
M  V30 2737 O 243.18 -4.09329 -1.56146 0
M  V30 2738 C 244.681 -3.16259 -3.10636 0
M  V30 2739 H 241.901 -0.573641 -0.348104 0
M  V30 2740 H 244.445 -1.99234 -0.461092 0
M  V30 2741 H 242.6 -2.60465 -2.86769 0
M  V30 2742 H 243.014 -4.73323 -2.25978 0
M  V30 2743 H 244.488 -3.99946 -3.80456 0
M  V30 2744 H 244.965 -2.3045 -3.73884 0
M  V30 2745 H 245.571 -3.43547 -2.50711 0
M  V30 2746 N 243.887 0.651787 -1.4349 0
M  V30 2747 C 245.135 1.40888 -1.44897 0
M  V30 2748 C 245.456 1.94856 -0.0749086 0
M  V30 2749 O 244.726 1.74518 0.889956 0
M  V30 2750 H 243.306 0.522887 -0.533478 0
M  V30 2751 H 245.968 0.768609 -1.79104 0
M  V30 2752 H 245.064 2.25052 -2.16236 0
M  V30 2753 N 245.365 1.30045 0.890287 0
M  V30 2754 C 246.593 1.21472 1.67487 0
M  V30 2755 C 247.008 -0.223241 1.87476 0
M  V30 2756 O 246.365 -1.14828 1.41847 0
M  V30 2757 C 246.416 1.93394 3.05419 0
M  V30 2758 O 246.137 3.31576 2.86337 0
M  V30 2759 C 247.638 1.91414 3.99844 0
M  V30 2760 H 244.858 0.420604 0.522813 0
M  V30 2761 H 247.402 1.7158 1.11268 0
M  V30 2762 H 245.557 1.47099 3.58386 0
M  V30 2763 H 245.971 3.67929 3.73802 0
M  V30 2764 H 247.445 2.46285 4.94012 0
M  V30 2765 H 247.922 0.891833 4.3005 0
M  V30 2766 H 248.528 2.37496 3.52811 0
M  V30 2767 N 246.843 -1.10192 1.12674 0
M  V30 2768 C 247.793 -2.14754 0.765801 0
M  V30 2769 C 248.777 -1.59154 -0.236409 0
M  V30 2770 O 249.969 -1.76951 -0.0415261 0
M  V30 2771 C 247.098 -3.42563 0.224827 0
M  V30 2772 C 246.184 -4.05091 1.25548 0
M  V30 2773 N 246.575 -4.42287 2.4539 0
M  V30 2774 C 244.873 -4.32186 1.10142 0
M  V30 2775 C 245.574 -4.91441 3.11224 0
M  V30 2776 N 244.55 -4.88405 2.38666 0
M  V30 2777 H 248.352 -2.41309 1.67772 0
M  V30 2778 H 245.866 -1.27339 1.00789 0
M  V30 2779 H 247.863 -4.16868 -0.0519578 0
M  V30 2780 H 246.523 -3.17467 -0.681515 0
M  V30 2781 H 247.534 -4.33902 2.82754 0
M  V30 2782 H 244.211 -4.16735 0.252587 0
M  V30 2783 H 245.601 -5.29749 4.13298 0
M  V30 2784 N 248.321 -0.919034 -1.28029 0
M  V30 2785 C 249.254 -0.355887 -2.25408 0
M  V30 2786 C 250.232 0.542874 -1.5327 0
M  V30 2787 O 251.416 0.485338 -1.82145 0
M  V30 2788 C 248.543 0.490759 -3.35126 0
M  V30 2789 C 247.589 -0.343358 -4.25116 0
M  V30 2790 S 248.422 -1.75344 -5.05979 0
M  V30 2791 C 249.578 -0.914244 -6.19187 0
M  V30 2792 H 249.811 -1.18123 -2.72826 0
M  V30 2793 H 247.344 -0.720636 -1.36551 0
M  V30 2794 H 249.302 0.973404 -3.98792 0
M  V30 2795 H 247.963 1.29054 -2.86363 0
M  V30 2796 H 247.156 0.304266 -5.03081 0
M  V30 2797 H 246.758 -0.759851 -3.662 0
M  V30 2798 H 249.05 -0.146282 -6.77342 0
M  V30 2799 H 249.993 -1.66661 -6.88208 0
M  V30 2800 H 250.401 -0.460082 -5.62622 0
M  V30 2801 N 249.799 1.42003 -0.683588 0
M  V30 2802 C 251.215 1.55625 -0.353976 0
M  V30 2803 C 251.415 1.66151 1.14 0
M  V30 2804 O 250.471 1.63329 1.92561 0
M  V30 2805 C 251.784 2.80171 -1.092 0
M  V30 2806 C 253.332 2.93954 -1.07518 0
M  V30 2807 C 253.807 4.21372 -1.79471 0
M  V30 2808 N 255.298 4.28303 -1.76381 0
M  V30 2809 C 256.033 5.25729 -2.28904 0
M  V30 2810 N 255.529 6.29254 -2.89846 0
M  V30 2811 N 257.322 5.17586 -2.19228 0
M  V30 2812 H 249.473 1.33415 -1.6527 0
M  V30 2813 H 251.736 0.64282 -0.696769 0
M  V30 2814 H 251.442 2.78561 -2.14701 0
M  V30 2815 H 251.316 3.7133 -0.662862 0
M  V30 2816 H 253.703 2.95086 -0.028475 0
M  V30 2817 H 253.784 2.04002 -1.54328 0
M  V30 2818 H 253.428 4.21001 -2.84114 0
M  V30 2819 H 253.358 5.10275 -1.30104 0
M  V30 2820 H 255.849 3.54119 -1.31939 0
M  V30 2821 H 256.162 6.99964 -3.27522 0
M  V30 2822 H 254.507 6.29791 -2.93919 0
M  V30 2823 H 257.698 4.35631 -1.71299 0
M  V30 2824 H 257.871 5.93348 -2.60466 0
M  V30 2825 N 251.277 0.427512 1.51691 0
M  V30 2826 C 252.207 -0.3796 2.30394 0
M  V30 2827 C 253.188 -1.02982 1.35384 0
M  V30 2828 O 254.373 -1.03534 1.643 0
M  V30 2829 C 251.503 -1.48649 3.1388 0
M  V30 2830 C 250.457 -0.960294 4.17088 0
M  V30 2831 C 249.783 -2.16219 4.89033 0
M  V30 2832 C 251.083 -0.00153679 5.223 0
M  V30 2833 H 252.777 0.277164 2.98114 0
M  V30 2834 H 250.323 0.134739 1.43368 0
M  V30 2835 H 252.276 -2.05826 3.67714 0
M  V30 2836 H 251 -2.1714 2.43962 0
M  V30 2837 H 249.659 -0.410806 3.64291 0
M  V30 2838 H 249.307 -2.83307 4.15628 0
M  V30 2839 H 249.007 -1.81654 5.58816 0
M  V30 2840 H 250.531 -2.73968 5.45687 0
M  V30 2841 H 251.945 -0.482687 5.71264 0
M  V30 2842 H 250.342 0.256199 5.99553 0
M  V30 2843 H 251.412 0.938174 4.75738 0
M  V30 2844 N 252.755 -1.56801 0.158532 0
M  V30 2845 C 254.003 -1.96102 -0.488712 0
M  V30 2846 C 254.324 -1.04498 -1.64636 0
M  V30 2847 O 253.594 -0.108783 -1.95598 0
M  V30 2848 H 252.174 -0.724102 -0.183535 0
M  V30 2849 H 254.836 -1.93457 0.236728 0
M  V30 2850 H 253.932 -3.00097 -0.857219 0
M  V30 2851 N 254.233 0.115231 -1.57178 0
M  V30 2852 C 255.482 0.820945 -1.84237 0
M  V30 2853 C 255.795 1.80866 -0.744761 0
M  V30 2854 O 257.001 2.56083 -0.901871 0
M  V30 2855 C 255.457 1.51072 -3.26658 0
M  V30 2856 C 255.065 0.563795 -4.44438 0
M  V30 2857 C 256.809 2.20134 -3.62962 0
M  V30 2858 C 254.716 1.25701 -5.77887 0
M  V30 2859 H 253.646 0.310328 -0.687177 0
M  V30 2860 H 256.297 0.0737134 -1.83352 0
M  V30 2861 H 254.679 2.30471 -3.22024 0
M  V30 2862 H 255.853 -0.197247 -4.60378 0
M  V30 2863 H 254.168 -0.0200638 -4.16395 0
M  V30 2864 H 256.765 2.72696 -4.59936 0
M  V30 2865 H 257.108 2.98107 -2.90582 0
M  V30 2866 H 257.641 1.47619 -3.69396 0
M  V30 2867 H 254.38 0.518493 -6.53446 0
M  V30 2868 H 253.9 1.98997 -5.65827 0
M  V30 2869 H 255.579 1.78915 -6.2177 0
M  V30 2870 N 255.711 1.52812 0.385517 0
M  V30 2871 C 256.957 1.68275 1.13188 0
M  V30 2872 C 257.29 0.423179 1.89533 0
M  V30 2873 O 256.565 -0.579113 1.85679 0
M  V30 2874 C 256.848 2.92001 2.1073 0
M  V30 2875 C 256.701 4.28067 1.38125 0
M  V30 2876 C 258.02 3.11283 3.11113 0
M  V30 2877 H 255.139 0.612352 0.410115 0
M  V30 2878 H 257.781 1.85415 0.414869 0
M  V30 2879 H 255.931 2.77519 2.71874 0
M  V30 2880 H 257.603 4.54324 0.799187 0
M  V30 2881 H 255.846 4.28388 0.683092 0
M  V30 2882 H 256.517 5.10733 2.09417 0
M  V30 2883 H 258.993 3.2482 2.6006 0
M  V30 2884 H 257.869 3.99325 3.76605 0
M  V30 2885 H 258.13 2.25656 3.80173 0
M  V30 2886 N 257.189 -0.644168 1.43834 0
M  V30 2887 C 258.6 -1.22554 1.40845 0
M  V30 2888 C 258.951 -1.9585 0.117115 0
M  V30 2889 O 258.076 -2.01734 -0.783086 0
M  V30 2890 C 258.671 -2.22907 2.55143 0
M  V30 2891 C 257.23 -2.76501 2.5539 0
M  V30 2892 C 256.377 -1.51287 2.32396 0
M  V30 2893 H 259.328 -0.43563 1.52604 0
M  V30 2894 H 259.349 -3.05259 2.2715 0
M  V30 2895 H 258.861 -1.69533 3.49114 0
M  V30 2896 H 256.962 -3.33914 1.65324 0
M  V30 2897 H 257.075 -3.23429 3.53455 0
M  V30 2898 H 255.439 -1.78957 1.81236 0
M  V30 2899 H 256.222 -0.998336 3.28463 0
M  V30 2900 N 258.668 -1.30515 -0.883378 0
M  V30 2901 C 259.615 -1.17032 -1.98927 0
M  V30 2902 C 260.585 -0.0594241 -1.65994 0
M  V30 2903 O 261.77 -0.229895 -1.8941 0
M  V30 2904 C 258.91 -0.869777 -3.33959 0
M  V30 2905 C 258.023 -2.06271 -3.79574 0
M  V30 2906 C 257.158 -1.70011 -5.03259 0
M  V30 2907 C 256.197 -2.8579 -5.41286 0
M  V30 2908 N 255.334 -2.49816 -6.56153 0
M  V30 2909 H 260.174 -2.1164 -2.09792 0
M  V30 2910 H 257.711 -1.05296 -1.02719 0
M  V30 2911 H 259.669 -0.676138 -4.11685 0
M  V30 2912 H 258.299 0.0394332 -3.22776 0
M  V30 2913 H 257.351 -2.36755 -2.97744 0
M  V30 2914 H 258.663 -2.92971 -4.03694 0
M  V30 2915 H 257.817 -1.47032 -5.88614 0
M  V30 2916 H 256.556 -0.804829 -4.81013 0
M  V30 2917 H 255.561 -3.09434 -4.54456 0
M  V30 2918 H 256.786 -3.76008 -5.65504 0
M  V30 2919 H 254.732 -1.62795 -6.35479 0
M  V30 2920 H 254.649 -3.30048 -6.8015 0
M  V30 2921 H 255.917 -2.30197 -7.44735 0
M  V30 2922 N 260.146 1.09593 -1.13257 0
M  V30 2923 C 261.094 2.18271 -0.803783 0
M  V30 2924 C 262.088 1.68054 0.213148 0
M  V30 2925 O 263.294 1.79862 0.0704699 0
M  V30 2926 H 259.669 0.711949 -0.242143 0
M  V30 2927 H 261.64 2.43235 -1.72856 0
M  V30 2928 C 260.389 3.46536 -0.28424 0
M  V30 2929 H 259.712 3.85545 -1.05807 0
M  V30 2930 H 261.152 4.23899 -0.0925945 0
M  V30 2931 C 259.611 3.22036 0.989684 0
M  V30 2932 O 260.141 3.44509 2.06584 0
M  V30 2933 N 258.347 2.7565 0.920086 0
M  V30 2934 H 257.894 2.57562 0.0442019 0
M  V30 2935 H 257.852 2.59635 1.77306 0
M  V30 2936 N 261.624 0.925811 1.2754 0
M  V30 2937 C 262.87 0.566092 1.94739 0
M  V30 2938 C 263.203 -0.890057 1.72603 0
M  V30 2939 O 262.478 -1.63467 1.05399 0
M  V30 2940 C 262.761 0.89054 3.48915 0
M  V30 2941 C 262.614 2.4003 3.80402 0
M  V30 2942 C 263.933 0.395101 4.38323 0
M  V30 2943 H 261.052 0.20714 0.707292 0
M  V30 2944 H 263.694 1.15725 1.50691 0
M  V30 2945 H 261.844 0.387452 3.86563 0
M  V30 2946 H 263.516 2.97494 3.52555 0
M  V30 2947 H 261.759 2.85028 3.2702 0
M  V30 2948 H 262.43 2.57785 4.8811 0
M  V30 2949 H 264.906 0.826241 4.07814 0
M  V30 2950 H 263.782 0.651086 5.45025 0
M  V30 2951 H 264.043 -0.704798 4.36446 0
M  V30 2952 N 263.102 -1.41638 0.69111 0
M  V30 2953 C 264.327 -2.06148 0.227583 0
M  V30 2954 C 264.752 -1.51652 -1.11281 0
M  V30 2955 O 264.11 -0.64164 -1.69566 0
M  V30 2956 C 264.158 -3.60095 0.190858 0
M  V30 2957 O 263.262 -4.03845 -0.835664 0
M  V30 2958 H 262.603 -0.654434 0.112306 0
M  V30 2959 H 265.133 -1.81484 0.944714 0
M  V30 2960 H 265.143 -4.07995 0.020207 0
M  V30 2961 H 263.818 -3.99129 1.16915 0
M  V30 2962 H 262.395 -3.67458 -0.63473 0
M  V30 2963 N 264.58 -0.43555 -1.51462 0
M  V30 2964 C 265.527 0.376797 -2.27703 0
M  V30 2965 C 266.497 1.01838 -1.31219 0
M  V30 2966 O 267.682 1.03762 -1.60119 0
M  V30 2967 C 264.822 1.47301 -3.12084 0
M  V30 2968 C 263.935 0.849744 -4.2356 0
M  V30 2969 C 263.07 1.92086 -4.95254 0
M  V30 2970 C 262.109 1.27593 -5.98654 0
M  V30 2971 N 261.246 2.28833 -6.63762 0
M  V30 2972 H 266.086 -0.279734 -2.96684 0
M  V30 2973 H 263.623 -0.149795 -1.46335 0
M  V30 2974 H 265.581 2.11984 -3.59331 0
M  V30 2975 H 264.211 2.0992 -2.45221 0
M  V30 2976 H 263.263 0.0912529 -3.80291 0
M  V30 2977 H 264.575 0.338878 -4.97648 0
M  V30 2978 H 263.729 2.64435 -5.46039 0
M  V30 2979 H 262.468 2.46545 -4.20793 0
M  V30 2980 H 261.473 0.537893 -5.47162 0
M  V30 2981 H 262.698 0.738693 -6.7507 0
M  V30 2982 H 260.644 2.82375 -5.92115 0
M  V30 2983 H 260.561 1.82632 -7.33608 0
M  V30 2984 H 261.829 3.00671 -7.19178 0
M  V30 2985 N 266.058 1.56714 -0.166846 0
M  V30 2986 C 267.005 2.17746 0.765193 0
M  V30 2987 C 267.975 1.11614 1.23011 0
M  V30 2988 O 269.16 1.39745 1.29908 0
M  V30 2989 C 266.3 2.81882 1.9909 0
M  V30 2990 C 265.413 4.02462 1.56997 0
M  V30 2991 C 264.548 4.54537 2.749 0
M  V30 2992 C 263.587 5.67538 2.29275 0
M  V30 2993 N 262.724 6.14142 3.40255 0
M  V30 2994 H 267.564 2.97048 0.237952 0
M  V30 2995 H 265.101 1.4672 0.105725 0
M  V30 2996 H 267.059 3.17221 2.70974 0
M  V30 2997 H 265.689 2.05191 2.49192 0
M  V30 2998 H 264.741 3.72973 0.748037 0
M  V30 2999 H 266.053 4.84273 1.19503 0
M  V30 3000 H 265.207 4.92035 3.54946 0
M  V30 3001 H 263.946 3.71774 3.1565 0
M  V30 3002 H 262.951 5.29597 1.47674 0
M  V30 3003 H 264.176 6.52099 1.89588 0
M  V30 3004 H 262.122 5.3431 3.8059 0
M  V30 3005 H 262.039 6.9093 3.06841 0
M  V30 3006 H 263.307 6.56289 4.206 0
M  V30 3007 N 267.536 -0.106894 1.57237 0
M  V30 3008 C 268.813 -0.843526 1.76477 0
M  V30 3009 C 269.193 -1.97499 0.745464 0
M  V30 3010 O 268.541 -2.27357 -0.228306 0
M  V30 3011 C 268.751 -1.34903 3.21873 0
M  V30 3012 C 270.099 -1.79654 3.8472 0
M  V30 3013 O 271.123 -1.44554 3.2555 0
M  V30 3014 O 269.982 -2.44515 4.88748 0
M  V30 3015 H 267.076 -0.401468 0.723016 0
M  V30 3016 H 269.622 -0.0896927 1.69463 0
M  V30 3017 H 268.394 -0.53781 3.87586 0
M  V30 3018 H 268.017 -2.16522 3.33473 0
M  V30 3019 N 269.014 -1.53014 -0.377408 0
M  V30 3020 C 270.244 -1.72265 -1.14054 0
M  V30 3021 C 270.652 -0.44601 -1.83868 0
M  V30 3022 O 269.995 0.590095 -1.73964 0
M  V30 3023 C 270.057 -2.82492 -2.22348 0
M  V30 3024 C 269.721 -4.23233 -1.72402 0
M  V30 3025 C 270.718 -5.05992 -1.19448 0
M  V30 3026 C 268.403 -4.696 -1.78273 0
M  V30 3027 C 270.397 -6.33203 -0.730268 0
M  V30 3028 C 268.084 -5.96792 -1.31464 0
M  V30 3029 C 269.082 -6.78424 -0.789297 0
M  V30 3030 O 268.77 -8.0323 -0.328077 0
M  V30 3031 H 268.502 -0.579873 -0.347453 0
M  V30 3032 H 271.056 -2.00502 -0.445882 0
M  V30 3033 H 269.286 -2.49702 -2.95272 0
M  V30 3034 H 270.975 -2.90034 -2.83963 0
M  V30 3035 H 271.741 -4.71349 -1.14259 0
M  V30 3036 H 267.62 -4.06142 -2.18106 0
M  V30 3037 H 271.164 -6.96868 -0.319542 0
M  V30 3038 H 267.061 -6.30937 -1.36342 0
M  V30 3039 H 267.829 -8.1727 -0.448493 0
M  V30 3040 N 270.492 0.636531 -1.44174 0
M  V30 3041 C 271.439 1.74875 -1.50624 0
M  V30 3042 C 272.409 1.62275 -0.35442 0
M  V30 3043 O 273.594 1.82276 -0.563908 0
M  V30 3044 C 270.734 3.13102 -1.45125 0
M  V30 3045 C 269.847 3.36717 -2.7064 0
M  V30 3046 C 268.982 4.64885 -2.57013 0
M  V30 3047 C 268.021 4.8166 -3.77717 0
M  V30 3048 N 267.158 6.01101 -3.62798 0
M  V30 3049 H 271.998 1.68697 -2.45653 0
M  V30 3050 H 269.535 0.823004 -1.21922 0
M  V30 3051 H 271.493 3.93034 -1.39929 0
M  V30 3052 H 270.123 3.18308 -0.536671 0
M  V30 3053 H 269.175 2.50763 -2.86046 0
M  V30 3054 H 270.487 3.44993 -3.60252 0
M  V30 3055 H 269.641 5.52969 -2.49619 0
M  V30 3056 H 268.38 4.58957 -1.64953 0
M  V30 3057 H 267.385 3.92007 -3.85501 0
M  V30 3058 H 268.61 4.89406 -4.70807 0
M  V30 3059 H 266.556 5.96273 -2.73486 0
M  V30 3060 H 266.473 6.10409 -4.46023 0
M  V30 3061 H 267.741 6.91761 -3.59286 0
M  V30 3062 N 271.97 1.30982 0.876444 0
M  V30 3063 C 272.933 1.18054 1.96459 0
M  V30 3064 C 273.933 0.109399 1.60427 0
M  V30 3065 O 275.123 0.358173 1.70478 0
M  V30 3066 C 272.255 0.810616 3.31122 0
M  V30 3067 H 273.448 2.14735 2.09354 0
M  V30 3068 H 271.001 1.145 1.06392 0
M  V30 3069 H 271.736 -0.155322 3.23928 0
M  V30 3070 H 271.521 1.58481 3.58645 0
M  V30 3071 H 273.011 0.743876 4.10921 0
M  V30 3072 N 273.449 -1.08991 1.13837 0
M  V30 3073 C 274.698 -1.80631 0.897509 0
M  V30 3074 C 275.011 -1.86872 -0.57777 0
M  V30 3075 O 276.217 -2.54866 -0.935701 0
M  V30 3076 C 274.673 -3.24517 1.55618 0
M  V30 3077 C 274.281 -3.26529 3.0673 0
M  V30 3078 C 276.025 -4.00882 1.3962 0
M  V30 3079 C 273.932 -4.64965 3.65461 0
M  V30 3080 H 272.862 -0.67691 0.332129 0
M  V30 3081 H 275.513 -1.2246 1.3666 0
M  V30 3082 H 273.895 -3.82778 1.01476 0
M  V30 3083 H 275.069 -2.78008 3.67489 0
M  V30 3084 H 273.384 -2.63656 3.22296 0
M  V30 3085 H 275.981 -5.03167 1.80906 0
M  V30 3086 H 276.324 -4.14896 0.341578 0
M  V30 3087 H 276.857 -3.49075 1.90766 0
M  V30 3088 H 273.596 -4.56153 4.70749 0
M  V30 3089 H 273.116 -5.13792 3.09481 0
M  V30 3090 H 274.795 -5.3394 3.654 0
M  V30 3091 N 274.927 -0.932562 -1.27047 0
M  V30 3092 C 275.89 -0.440064 -2.24936 0
M  V30 3093 C 276.89 0.444071 -1.54547 0
M  V30 3094 O 278.08 0.244465 -1.72476 0
M  V30 3095 C 275.212 0.36678 -3.38921 0
M  V30 3096 H 276.405 -1.305 -2.70018 0
M  V30 3097 H 273.958 -0.713707 -1.39054 0
M  V30 3098 H 274.693 1.25033 -2.99228 0
M  V30 3099 H 274.478 -0.267204 -3.91188 0
M  V30 3100 H 275.968 0.701567 -4.11665 0
M  V30 3101 N 276.405 1.4127 -0.698611 0
M  V30 3102 C 277.352 2.30773 -0.0352094 0
M  V30 3103 C 278.322 1.47273 0.768111 0
M  V30 3104 O 279.507 1.76053 0.735524 0
M  V30 3105 C 276.647 3.33346 0.893 0
M  V30 3106 C 275.76 4.31924 0.0809695 0
M  V30 3107 C 274.895 5.21566 1.0071 0
M  V30 3108 C 273.934 6.11811 0.188155 0
M  V30 3109 N 273.071 6.93926 1.06825 0
M  V30 3110 H 277.911 2.86943 -0.804207 0
M  V30 3111 H 275.448 1.4132 -0.408294 0
M  V30 3112 H 277.406 3.91368 1.44523 0
M  V30 3113 H 276.036 2.78719 1.62836 0
M  V30 3114 H 275.088 3.75825 -0.588224 0
M  V30 3115 H 276.4 4.95716 -0.553801 0
M  V30 3116 H 275.554 5.84437 1.62845 0
M  V30 3117 H 274.293 4.58008 1.67572 0
M  V30 3118 H 273.298 5.47986 -0.446254 0
M  V30 3119 H 274.523 6.77425 -0.476716 0
M  V30 3120 H 272.469 6.32973 1.72283 0
M  V30 3121 H 272.386 7.54416 0.489123 0
M  V30 3122 H 273.654 7.61262 1.67632 0
M  V30 3123 N 277.883 0.443576 1.51229 0
M  V30 3124 C 278.793 -0.370721 2.31652 0
M  V30 3125 C 279.809 -1.02186 1.40833 0
M  V30 3126 O 280.985 -1.01586 1.73903 0
M  V30 3127 C 278.05 -1.45376 3.14749 0
M  V30 3128 C 277.111 -0.822099 4.21355 0
M  V30 3129 C 276.344 -1.85353 5.0048 0
M  V30 3130 O 276.567 -3.07656 4.80316 0
M  V30 3131 O 275.501 -1.4406 5.84406 0
M  V30 3132 H 279.327 0.286002 3.0235 0
M  V30 3133 H 276.912 0.20598 1.47973 0
M  V30 3134 H 278.794 -2.08173 3.66391 0
M  V30 3135 H 277.469 -2.09445 2.46809 0
M  V30 3136 H 276.376 -0.155909 3.73775 0
M  V30 3137 H 277.709 -0.224797 4.91686 0
M  V30 3138 N 279.361 -1.56624 0.175154 0
M  V30 3139 C 280.291 -2.21155 -0.749195 0
M  V30 3140 C 281.272 -1.16836 -1.23626 0
M  V30 3141 O 282.457 -1.45277 -1.28873 0
M  V30 3142 C 279.587 -2.8553 -1.97711 0
M  V30 3143 C 278.541 -3.95921 -1.62575 0
M  V30 3144 C 277.867 -4.47365 -2.92864 0
M  V30 3145 C 279.167 -5.15323 -0.850838 0
M  V30 3146 H 280.861 -2.98653 -0.211295 0
M  V30 3147 H 278.407 -1.43651 -0.100188 0
M  V30 3148 H 280.36 -3.2935 -2.62881 0
M  V30 3149 H 279.084 -2.05406 -2.53921 0
M  V30 3150 H 277.743 -3.52762 -0.997719 0
M  V30 3151 H 277.391 -3.64027 -3.47122 0
M  V30 3152 H 277.091 -5.21839 -2.70106 0
M  V30 3153 H 278.615 -4.93873 -3.59056 0
M  V30 3154 H 280.029 -5.55812 -1.40521 0
M  V30 3155 H 278.426 -5.95739 -0.722154 0
M  V30 3156 H 279.496 -4.84661 0.152082 0
M  V30 3157 N 280.839 0.0985539 -1.57292 0
M  V30 3158 C 282.064 0.820196 -1.90493 0
M  V30 3159 C 282.489 1.71658 -0.769094 0
M  V30 3160 O 281.847 1.79133 0.279495 0
M  V30 3161 C 281.895 1.61242 -3.22542 0
M  V30 3162 O 280.999 2.72108 -3.09888 0
M  V30 3163 H 280.34 0.225547 -0.62452 0
M  V30 3164 H 282.87 0.0748159 -2.04463 0
M  V30 3165 H 282.88 1.99737 -3.55766 0
M  V30 3166 H 281.555 0.954535 -4.04798 0
M  V30 3167 H 280.132 2.36667 -2.88172 0
M  V30 3168 N 282.317 1.53212 0.369288 0
M  V30 3169 C 283.566 1.68436 1.10961 0
M  V30 3170 C 283.879 0.440738 1.9057 0
M  V30 3171 O 285.085 0.473446 2.6734 0
M  V30 3172 C 283.541 2.97744 2.0218 0
M  V30 3173 C 283.149 4.29355 1.279 0
M  V30 3174 C 284.893 3.22334 2.76226 0
M  V30 3175 C 282.8 5.49755 2.17999 0
M  V30 3176 H 281.73 0.627568 0.41794 0
M  V30 3177 H 284.381 1.79713 0.370884 0
M  V30 3178 H 282.763 2.8026 2.79768 0
M  V30 3179 H 283.937 4.57458 0.554007 0
M  V30 3180 H 282.252 4.11179 0.657311 0
M  V30 3181 H 284.849 4.09471 3.43857 0
M  V30 3182 H 285.192 2.38238 3.41392 0
M  V30 3183 H 285.725 3.40475 2.05723 0
M  V30 3184 H 282.464 6.36318 1.57417 0
M  V30 3185 H 281.984 5.25937 2.88359 0
M  V30 3186 H 283.663 5.84401 2.77641 0
M  V30 3187 N 283.795 -0.628877 1.44509 0
M  V30 3188 C 285.02 -1.42048 1.5112 0
M  V30 3189 C 285.445 -1.87594 0.137818 0
M  V30 3190 O 284.803 -1.58873 -0.873437 0
M  V30 3191 C 284.851 -2.61541 2.48251 0
M  V30 3192 O 283.955 -3.61453 1.98559 0
M  V30 3193 H 283.296 -0.424942 0.510216 0
M  V30 3194 H 285.826 -0.767374 1.89664 0
M  V30 3195 H 285.836 -3.09057 2.66361 0
M  V30 3196 H 284.511 -2.27736 3.48007 0
M  V30 3197 H 283.088 -3.20731 1.90227 0
M  V30 3198 N 285.273 -1.31445 -0.869486 0
M  V30 3199 C 286.183 -1.21097 -2.0093 0
M  V30 3200 C 287.199 -0.127584 -1.73532 0
M  V30 3201 O 288.375 -0.345477 -1.98415 0
M  V30 3202 C 285.44 -0.919378 -3.34288 0
M  V30 3203 C 284.501 -2.08971 -3.75006 0
M  V30 3204 C 283.734 -1.81194 -5.02001 0
M  V30 3205 O 283.957 -0.747296 -5.65484 0
M  V30 3206 O 282.891 -2.66883 -5.39497 0
M  V30 3207 H 286.717 -2.16883 -2.12592 0
M  V30 3208 H 284.302 -1.11189 -0.997868 0
M  V30 3209 H 286.184 -0.772625 -4.14257 0
M  V30 3210 H 284.859 0.00844772 -3.23699 0
M  V30 3211 H 283.766 -2.29187 -2.95676 0
M  V30 3212 H 285.099 -2.9998 -3.90221 0
M  V30 3213 N 286.751 1.08385 -1.14413 0
M  V30 3214 C 288.028 1.77429 -0.823297 0
M  V30 3215 C 288.408 1.9974 0.683163 0
M  V30 3216 O 287.756 1.60739 1.62405 0
M  V30 3217 C 287.966 3.09004 -1.62227 0
M  V30 3218 C 289.314 3.83532 -1.82177 0
M  V30 3219 O 290.338 3.18786 -1.58915 0
M  V30 3220 O 289.197 4.99792 -2.21067 0
M  V30 3221 H 286.291 0.769999 -0.301712 0
M  V30 3222 H 288.837 1.14846 -1.24934 0
M  V30 3223 H 287.609 2.88316 -2.64555 0
M  V30 3224 H 287.232 3.79316 -1.19187 0
M  V30 3225 N 288.23 0.939286 1.26551 0
M  V30 3226 C 289.46 0.601663 1.97645 0
M  V30 3227 C 289.868 -0.827206 1.70159 0
M  V30 3228 O 289.211 -1.56291 0.965338 0
M  V30 3229 C 289.273 0.761725 3.51337 0
M  V30 3230 C 288.937 2.16487 4.0247 0
M  V30 3231 C 289.934 3.14016 4.14355 0
M  V30 3232 C 287.619 2.48494 4.36527 0
M  V30 3233 C 289.613 4.41654 4.59587 0
M  V30 3234 C 287.3 3.76364 4.81449 0
M  V30 3235 C 288.298 4.72758 4.92939 0
M  V30 3236 O 287.986 5.98352 5.36871 0
M  V30 3237 H 287.718 0.225758 0.637189 0
M  V30 3238 H 290.272 1.26178 1.62075 0
M  V30 3239 H 288.502 0.0444808 3.86674 0
M  V30 3240 H 290.191 0.427442 4.03643 0
M  V30 3241 H 290.957 2.90613 3.8829 0
M  V30 3242 H 286.836 1.74202 4.26819 0
M  V30 3243 H 290.38 5.16896 4.68471 0
M  V30 3244 H 286.277 3.99582 5.06956 0
M  V30 3245 H 287.045 6.01507 5.55096 0
M  V30 3246 N 289.708 -1.40897 0.706093 0
M  V30 3247 C 290.957 -2.00284 0.238574 0
M  V30 3248 C 291.27 -1.56604 -1.17194 0
M  V30 3249 O 292.476 -2.08624 -1.73748 0
M  V30 3250 C 290.932 -3.57934 0.375623 0
M  V30 3251 C 290.54 -4.10591 1.79217 0
M  V30 3252 C 292.284 -4.24488 -0.0315857 0
M  V30 3253 C 290.191 -5.60712 1.88032 0
M  V30 3254 H 289.121 -0.749144 0.0854398 0
M  V30 3255 H 291.772 -1.61251 0.875813 0
M  V30 3256 H 290.154 -3.94622 -0.330042 0
M  V30 3257 H 291.328 -3.85301 2.52745 0
M  V30 3258 H 289.643 -3.56601 2.15 0
M  V30 3259 H 292.24 -5.34698 0.0136842 0
M  V30 3260 H 292.583 -4.02261 -1.072 0
M  V30 3261 H 293.116 -3.92873 0.624181 0
M  V30 3262 H 289.855 -5.87781 2.90161 0
M  V30 3263 H 289.375 -5.87896 1.18903 0
M  V30 3264 H 291.054 -6.25658 1.64805 0
M  V30 3265 N 291.186 -0.45159 -1.50991 0
M  V30 3266 C 292.134 0.366864 -2.29689 0
M  V30 3267 C 293.128 1.00809 -1.36139 0
M  V30 3268 O 294.334 0.941427 -1.53418 0
M  V30 3269 H 290.709 0.137133 -0.739391 0
M  V30 3270 H 292.68 -0.317538 -2.96706 0
M  V30 3271 C 291.429 1.44751 -3.16137 0
M  V30 3272 H 290.752 0.963473 -3.88017 0
M  V30 3273 H 292.192 1.99315 -3.74232 0
M  V30 3274 C 290.651 2.43869 -2.32442 0
M  V30 3275 O 291.181 3.4872 -1.99392 0
M  V30 3276 N 289.387 2.15105 -1.95392 0
M  V30 3277 H 288.934 1.29866 -2.22469 0
M  V30 3278 H 288.892 2.81661 -1.39693 0
M  V30 3279 N 292.664 1.56529 -0.183458 0
M  V30 3280 C 293.612 2.19873 0.758845 0
M  V30 3281 C 294.606 1.16638 1.22849 0
M  V30 3282 O 295.812 1.3481 1.19274 0
M  V30 3283 H 292.187 0.7045 0.263029 0
M  V30 3284 H 294.158 2.97724 0.200755 0
M  V30 3285 C 292.907 2.86314 1.9728 0
M  V30 3286 H 292.23 3.65487 1.62047 0
M  V30 3287 H 293.67 3.3409 2.61075 0
M  V30 3288 C 292.129 1.86729 2.80418 0
M  V30 3289 O 292.659 1.36031 3.77966 0
M  V30 3290 N 290.865 1.55216 2.45675 0
M  V30 3291 H 290.412 1.96636 1.66409 0
M  V30 3292 H 290.37 0.888388 3.01588 0
M  V30 3293 N 294.142 -0.090211 1.57342 0
M  V30 3294 C 295.089 -1.10909 2.02405 0
M  V30 3295 C 296.059 -1.39523 0.901252 0
M  V30 3296 O 297.244 -1.50903 1.1676 0
M  V30 3297 C 294.384 -2.42277 2.45755 0
M  V30 3298 C 293.497 -2.20352 3.71576 0
M  V30 3299 C 292.632 -3.45154 4.03785 0
M  V30 3300 C 291.671 -3.18512 5.22701 0
M  V30 3301 N 290.808 -4.35593 5.50639 0
M  V30 3302 H 295.648 -0.71782 2.89225 0
M  V30 3303 H 293.185 -0.342901 1.43048 0
M  V30 3304 H 295.143 -3.18951 2.68935 0
M  V30 3305 H 293.773 -2.79242 1.61938 0
M  V30 3306 H 292.825 -1.34458 3.55844 0
M  V30 3307 H 294.137 -1.96661 4.58395 0
M  V30 3308 H 293.291 -4.30233 4.27767 0
M  V30 3309 H 292.03 -3.71904 3.15498 0
M  V30 3310 H 291.035 -2.31827 4.98534 0
M  V30 3311 H 292.26 -2.93103 6.12591 0
M  V30 3312 H 290.206 -4.6241 4.6531 0
M  V30 3313 H 290.123 -4.1511 6.31838 0
M  V30 3314 H 291.391 -5.21723 5.7916 0
M  V30 3315 N 295.62 -1.53406 -0.361157 0
M  V30 3316 C 296.866 -1.70999 -1.1014 0
M  V30 3317 C 297.221 -0.458425 -1.86859 0
M  V30 3318 O 296.514 0.548654 -1.83577 0
M  V30 3319 C 296.708 -2.90211 -2.08596 0
M  V30 3320 C 296.537 -4.26841 -1.41553 0
M  V30 3321 C 295.307 -4.91621 -1.16778 0
M  V30 3322 C 297.505 -5.07212 -0.850915 0
M  V30 3323 N 295.487 -6.12164 -0.461312 0
M  V30 3324 C 296.858 -6.19394 -0.274046 0
M  V30 3325 C 298.913 -4.92218 -0.750036 0
M  V30 3326 C 297.616 -7.18221 0.393868 0
M  V30 3327 C 299.642 -5.91322 -0.095894 0
M  V30 3328 C 299.004 -7.0283 0.470081 0
M  V30 3329 H 295.103 -0.678939 -0.388028 0
M  V30 3330 H 297.687 -1.90811 -0.38722 0
M  V30 3331 H 295.858 -2.71931 -2.77323 0
M  V30 3332 H 297.59 -2.96606 -2.7533 0
M  V30 3333 H 294.345 -4.50849 -1.45024 0
M  V30 3334 H 294.769 -6.76888 -0.123312 0
M  V30 3335 H 299.411 -4.06192 -1.17337 0
M  V30 3336 H 297.129 -8.03835 0.82914 0
M  V30 3337 H 300.715 -5.81797 -0.0187075 0
M  V30 3338 H 299.595 -7.782 0.968241 0
M  V30 3339 N 297.098 0.621204 -1.44841 0
M  V30 3340 C 298.347 1.37658 -1.47422 0
M  V30 3341 C 298.66 1.95264 -0.114629 0
M  V30 3342 O 299.866 2.71494 -0.0180199 0
M  V30 3343 C 298.322 2.49285 -2.59586 0
M  V30 3344 C 297.93 1.98149 -4.01797 0
M  V30 3345 C 299.674 3.26409 -2.71399 0
M  V30 3346 C 297.581 3.07178 -5.05367 0
M  V30 3347 H 296.511 0.517344 -0.548517 0
M  V30 3348 H 299.162 0.667257 -1.70938 0
M  V30 3349 H 297.544 3.22839 -2.29328 0
M  V30 3350 H 298.718 1.31395 -4.41669 0
M  V30 3351 H 297.033 1.33812 -3.94314 0
M  V30 3352 H 299.63 4.07706 -3.45948 0
M  V30 3353 H 299.973 3.76535 -1.77559 0
M  V30 3354 H 300.506 2.5995 -3.01116 0
M  V30 3355 H 297.245 2.61985 -6.00869 0
M  V30 3356 H 296.765 3.72542 -4.70077 0
M  V30 3357 H 298.444 3.71789 -5.29511 0
M  V30 3358 N 298.576 1.31904 0.862503 0
M  V30 3359 C 299.523 1.20182 1.9704 0
M  V30 3360 C 300.493 0.0858247 1.65878 0
M  V30 3361 O 301.678 0.26 1.8902 0
M  V30 3362 C 298.818 0.922797 3.32533 0
M  V30 3363 C 297.931 2.12284 3.76244 0
M  V30 3364 C 297.066 1.77996 5.00491 0
M  V30 3365 C 296.105 2.94366 5.36671 0
M  V30 3366 N 295.242 2.60223 6.52095 0
M  V30 3367 H 300.082 2.14951 2.06398 0
M  V30 3368 H 297.619 1.06917 1.01031 0
M  V30 3369 H 299.577 0.741548 4.10557 0
M  V30 3370 H 298.207 0.0119227 3.22798 0
M  V30 3371 H 297.259 2.41461 2.9394 0
M  V30 3372 H 298.571 2.99357 3.98982 0
M  V30 3373 H 297.725 1.56377 5.862 0
M  V30 3374 H 296.464 0.881252 4.79672 0
M  V30 3375 H 295.469 3.16625 4.49476 0
M  V30 3376 H 296.694 3.84957 5.59451 0
M  V30 3377 H 294.64 1.72884 6.32809 0
M  V30 3378 H 294.557 3.40827 6.74814 0
M  V30 3379 H 295.825 2.42016 7.40978 0
M  V30 3380 N 300.054 -1.07777 1.14986 0
M  V30 3381 C 301.303 -1.79669 0.916617 0
M  V30 3382 C 301.616 -1.87474 -0.557917 0
M  V30 3383 O 302.822 -2.55845 -0.908617 0
M  V30 3384 C 301.278 -3.22848 1.59051 0
M  V30 3385 C 300.886 -3.23257 3.10176 0
M  V30 3386 C 302.63 -3.99379 1.43864 0
M  V30 3387 C 300.537 -4.61063 3.70372 0
M  V30 3388 H 299.467 -0.673349 0.33929 0
M  V30 3389 H 302.118 -1.21003 1.37951 0
M  V30 3390 H 300.5 -3.8168 1.0553 0
M  V30 3391 H 301.674 -2.74095 3.70417 0
M  V30 3392 H 299.989 -2.60222 3.25074 0
M  V30 3393 H 302.586 -5.0122 1.86232 0
M  V30 3394 H 302.929 -4.14511 0.385564 0
M  V30 3395 H 303.462 -3.47032 1.94457 0
M  V30 3396 H 300.201 -4.51135 4.7556 0
M  V30 3397 H 299.721 -5.1048 3.14913 0
M  V30 3398 H 301.4 -5.30034 3.71043 0
M  V30 3399 N 301.532 -0.945985 -1.26051 0
M  V30 3400 C 302.78 -0.594941 -1.93145 0
M  V30 3401 C 303.101 0.86953 -1.7454 0
M  V30 3402 O 302.371 1.61838 -1.10387 0
M  V30 3403 H 300.951 -0.217044 -0.714773 0
M  V30 3404 H 303.613 -1.20235 -1.53393 0
M  V30 3405 H 302.709 -0.816835 -3.01221 0
M  V30 3406 N 303.011 1.40521 -0.713556 0
M  V30 3407 C 304.241 2.0494 -0.261395 0
M  V30 3408 C 304.649 1.53861 1.10107 0
M  V30 3409 O 303.992 0.689321 1.70276 0
M  V30 3410 C 304.054 3.59138 -0.161227 0
M  V30 3411 C 303.718 4.33096 -1.45865 0
M  V30 3412 C 304.715 4.61182 -2.40016 0
M  V30 3413 C 302.4 4.72043 -1.71701 0
M  V30 3414 C 304.394 5.27196 -3.58251 0
M  V30 3415 C 302.081 5.37789 -2.90218 0
M  V30 3416 C 303.079 5.65295 -3.83315 0
M  V30 3417 O 302.767 6.29683 -4.99754 0
M  V30 3418 H 302.499 0.666041 -0.115608 0
M  V30 3419 H 305.053 1.80954 -0.971849 0
M  V30 3420 H 303.283 3.81936 0.605153 0
M  V30 3421 H 304.972 4.05091 0.256105 0
M  V30 3422 H 305.738 4.31559 -2.21318 0
M  V30 3423 H 301.617 4.50003 -1.00092 0
M  V30 3424 H 305.161 5.48582 -4.30934 0
M  V30 3425 H 301.058 5.66831 -3.08825 0
M  V30 3426 H 301.826 6.4818 -4.99805 0
M  V30 3427 N 304.489 0.459591 1.5075 0
M  V30 3428 C 305.436 -0.340524 2.28274 0
M  V30 3429 C 306.406 -0.997371 1.32822 0
M  V30 3430 O 307.591 -1.01202 1.61749 0
M  V30 3431 C 304.731 -1.42317 3.14388 0
M  V30 3432 C 303.844 -0.782251 4.24859 0
M  V30 3433 C 302.979 -1.84182 4.98247 0
M  V30 3434 C 302.018 -1.18053 6.00608 0
M  V30 3435 N 301.155 -2.18244 6.67319 0
M  V30 3436 H 305.995 0.326899 2.96202 0
M  V30 3437 H 303.532 0.173057 1.46078 0
M  V30 3438 H 305.49 -2.06241 3.62658 0
M  V30 3439 H 304.12 -2.05992 2.4853 0
M  V30 3440 H 303.172 -0.0307404 3.80388 0
M  V30 3441 H 304.484 -0.259663 4.98124 0
M  V30 3442 H 303.638 -2.55714 5.50177 0
M  V30 3443 H 302.377 -2.39819 4.24662 0
M  V30 3444 H 301.382 -0.450776 5.47949 0
M  V30 3445 H 302.607 -0.631202 6.7616 0
M  V30 3446 H 300.553 -2.72919 5.96533 0
M  V30 3447 H 300.47 -1.70938 7.36421 0
M  V30 3448 H 301.738 -2.89191 7.23871 0
M  V30 3449 N 305.967 -1.56429 0.191757 0
M  V30 3450 C 306.9 -2.14829 -0.76967 0
M  V30 3451 C 307.878 -1.08405 -1.2119 0
M  V30 3452 O 309.062 -1.36498 -1.30002 0
M  V30 3453 C 306.189 -2.70446 -2.03903 0
M  V30 3454 C 305.235 -3.89428 -1.7392 0
M  V30 3455 S 306.068 -5.28048 -0.890265 0
M  V30 3456 C 307.224 -5.87085 -2.16984 0
M  V30 3457 H 307.457 -2.96042 -0.273204 0
M  V30 3458 H 304.99 -1.54383 -0.0231975 0
M  V30 3459 H 306.948 -3.03134 -2.76803 0
M  V30 3460 H 305.609 -1.89281 -2.50662 0
M  V30 3461 H 304.802 -4.26742 -2.68155 0
M  V30 3462 H 304.404 -3.57732 -1.09103 0
M  V30 3463 H 306.696 -6.01244 -3.12269 0
M  V30 3464 H 307.639 -6.83747 -1.84108 0
M  V30 3465 H 308.047 -5.15663 -2.29678 0
M  V30 3466 N 307.445 0.0818655 -1.57387 0
M  V30 3467 C 308.694 0.781681 -1.85937 0
M  V30 3468 C 309.007 1.79246 -0.782957 0
M  V30 3469 O 310.213 2.54112 -0.955987 0
M  V30 3470 C 308.669 1.44109 -3.29789 0
M  V30 3471 C 308.277 0.469396 -4.45534 0
M  V30 3472 C 310.021 2.12386 -3.67549 0
M  V30 3473 C 307.928 1.13415 -5.80423 0
M  V30 3474 H 306.858 0.295682 -0.693605 0
M  V30 3475 H 309.509 0.0348051 -1.83467 0
M  V30 3476 H 307.891 2.23588 -3.2684 0
M  V30 3477 H 309.065 -0.294856 -4.59856 0
M  V30 3478 H 307.38 -0.108383 -4.16259 0
M  V30 3479 H 309.977 2.62878 -4.65617 0
M  V30 3480 H 310.32 2.91877 -2.96839 0
M  V30 3481 H 310.853 1.39751 -3.72444 0
M  V30 3482 H 307.592 0.379771 -6.54399 0
M  V30 3483 H 307.112 1.8695 -5.69921 0
M  V30 3484 H 308.791 1.65686 -6.25426 0
M  V30 3485 N 308.923 1.53595 0.353017 0
M  V30 3486 C 310.334 1.61937 0.929153 0
M  V30 3487 C 310.685 0.494686 1.89861 0
M  V30 3488 O 309.81 -0.377017 2.1309 0
M  V30 3489 C 310.405 2.93526 1.69199 0
M  V30 3490 C 308.964 3.04161 2.21727 0
M  V30 3491 C 308.111 2.57322 1.03348 0
M  V30 3492 H 311.062 1.58155 0.131431 0
M  V30 3493 H 311.083 2.82034 2.55416 0
M  V30 3494 H 310.595 3.75362 0.986144 0
M  V30 3495 H 308.696 2.26938 2.95516 0
M  V30 3496 H 308.809 4.09465 2.48748 0
M  V30 3497 H 307.173 2.12499 1.40414 0
M  V30 3498 H 307.956 3.41588 0.342428 0
M  V30 3499 N 310.401 -0.613514 1.45168 0
M  V30 3500 C 311.626 -1.40437 1.52618 0
M  V30 3501 C 312.051 -1.87438 0.157707 0
M  V30 3502 O 311.409 -1.59791 -0.856537 0
M  V30 3503 C 311.457 -2.58894 2.51011 0
M  V30 3504 O 310.561 -3.59326 2.02382 0
M  V30 3505 H 309.902 -0.419506 0.514695 0
M  V30 3506 H 312.432 -0.747215 1.90467 0
M  V30 3507 H 312.442 -3.06214 2.69624 0
M  V30 3508 H 311.117 -2.24032 3.50403 0
M  V30 3509 H 309.694 -3.18695 1.93618 0
M  V30 3510 N 311.879 -1.3236 -0.855495 0
M  V30 3511 C 313.126 -1.22872 -1.60962 0
M  V30 3512 C 313.454 0.209658 -1.93367 0
M  V30 3513 O 312.709 1.16243 -1.57436 0
M  V30 3514 C 313.008 -2.03275 -2.93963 0
M  V30 3515 C 312.674 -3.5264 -2.80991 0
M  V30 3516 C 311.336 -3.93364 -2.7716 0
M  V30 3517 C 313.688 -4.47626 -2.66983 0
M  V30 3518 C 311.016 -5.27319 -2.572 0
M  V30 3519 C 313.368 -5.81723 -2.48558 0
M  V30 3520 C 312.032 -6.2165 -2.4312 0
M  V30 3521 H 311.302 -0.44962 -0.589001 0
M  V30 3522 H 313.949 -1.63777 -0.992442 0
M  V30 3523 H 312.254 -1.55095 -3.59795 0
M  V30 3524 H 313.951 -1.93303 -3.51333 0
M  V30 3525 H 310.541 -3.20295 -2.84797 0
M  V30 3526 H 314.725 -4.17084 -2.68988 0
M  V30 3527 H 309.981 -5.57311 -2.51424 0
M  V30 3528 H 314.155 -6.5494 -2.36699 0
M  V30 3529 H 311.782 -7.25388 -2.27412 0
M  V30 3530 N 313.357 1.07166 -1.15556 0
M  V30 3531 C 314.307 2.12649 -0.82247 0
M  V30 3532 C 315.291 1.59725 0.194129 0
M  V30 3533 O 316.483 1.76999 -0.00540402 0
M  V30 3534 C 313.612 3.41847 -0.315572 0
M  V30 3535 C 312.698 4.0162 -1.36244 0
M  V30 3536 N 313.089 4.35625 -2.5703 0
M  V30 3537 C 311.387 4.29114 -1.21562 0
M  V30 3538 C 312.088 4.83017 -3.24144 0
M  V30 3539 N 311.064 4.81906 -2.51531 0
M  V30 3540 H 314.866 2.36776 -1.74111 0
M  V30 3541 H 312.38 1.24622 -1.0413 0
M  V30 3542 H 314.377 4.16859 -0.0585855 0
M  V30 3543 H 313.037 3.19163 0.597105 0
M  V30 3544 H 314.048 4.26253 -2.94158 0
M  V30 3545 H 310.725 4.15919 -0.362988 0
M  V30 3546 H 312.115 5.18605 -4.27198 0
M  V30 3547 N 314.835 0.952656 1.25548 0
M  V30 3548 C 316.082 0.606373 1.93208 0
M  V30 3549 C 316.41 -0.85631 1.74636 0
M  V30 3550 O 315.665 -1.62951 1.08376 0
M  V30 3551 C 315.964 0.908818 3.45652 0
M  V30 3552 C 315.63 2.35722 3.84378 0
M  V30 3553 C 314.292 2.75312 3.9466 0
M  V30 3554 C 316.644 3.29793 4.03591 0
M  V30 3555 C 313.972 4.08047 4.21562 0
M  V30 3556 C 316.324 4.62138 4.31985 0
M  V30 3557 C 314.988 5.01528 4.40484 0
M  V30 3558 H 314.258 0.221888 0.706998 0
M  V30 3559 H 316.905 1.20132 1.49133 0
M  V30 3560 H 315.21 0.231456 3.91116 0
M  V30 3561 H 316.907 0.619498 3.96186 0
M  V30 3562 H 313.497 2.04017 3.76928 0
M  V30 3563 H 317.681 3.00397 3.95064 0
M  V30 3564 H 312.937 4.38212 4.26357 0
M  V30 3565 H 317.111 5.35012 4.45797 0
M  V30 3566 H 314.738 6.04406 4.61083 0
M  V30 3567 N 316.313 -1.40141 0.720998 0
M  V30 3568 C 317.26 -2.30688 0.071919 0
M  V30 3569 C 318.23 -1.48476 -0.744584 0
M  V30 3570 O 319.415 -1.77201 -0.707423 0
M  V30 3571 C 316.555 -3.34724 -0.839855 0
M  V30 3572 C 315.668 -4.31998 -0.0122438 0
M  V30 3573 C 314.803 -5.23102 -0.923995 0
M  V30 3574 C 313.842 -6.12033 -0.0907969 0
M  V30 3575 N 312.979 -6.95537 -0.957718 0
M  V30 3576 H 317.819 -2.85628 0.849755 0
M  V30 3577 H 315.356 -1.40653 0.430726 0
M  V30 3578 H 317.314 -3.93618 -1.38279 0
M  V30 3579 H 315.944 -2.81274 -1.58381 0
M  V30 3580 H 314.996 -3.74841 0.64794 0
M  V30 3581 H 316.308 -4.94772 0.632595 0
M  V30 3582 H 315.462 -5.86953 -1.53527 0
M  V30 3583 H 314.201 -4.60615 -1.60264 0
M  V30 3584 H 313.206 -5.47207 0.533377 0
M  V30 3585 H 314.431 -6.76581 0.584428 0
M  V30 3586 H 312.377 -6.35633 -1.62192 0
M  V30 3587 H 312.294 -7.55099 -0.36904 0
M  V30 3588 H 313.562 -7.63832 -1.555 0
M  V30 3589 N 317.792 -0.46758 -1.50504 0
M  V30 3590 C 319.02 0.0864133 -2.06719 0
M  V30 3591 C 319.435 1.33819 -1.33184 0
M  V30 3592 O 318.792 1.78061 -0.400083 0
M  V30 3593 C 318.843 0.378079 -3.59517 0
M  V30 3594 O 318.564 -0.824044 -4.3028 0
M  V30 3595 C 320.065 0.979426 -4.32345 0
M  V30 3596 H 317.285 -0.00551697 -0.670977 0
M  V30 3597 H 319.829 -0.655354 -1.93715 0
M  V30 3598 H 317.984 1.06977 -3.72337 0
M  V30 3599 H 318.398 -0.566518 -5.21432 0
M  V30 3600 H 319.872 1.1333 -5.40241 0
M  V30 3601 H 320.349 1.9686 -3.9261 0
M  V30 3602 H 320.955 0.326216 -4.24047 0
M  V30 3603 N 319.27 1.56325 -0.20005 0
M  V30 3604 C 320.516 1.98012 0.438059 0
M  V30 3605 C 320.849 1.08702 1.60927 0
M  V30 3606 O 320.124 0.140064 1.93995 0
M  V30 3607 C 320.407 3.48841 0.893419 0
M  V30 3608 C 320.26 4.48928 -0.279947 0
M  V30 3609 C 321.579 4.03498 1.75719 0
M  V30 3610 H 318.698 0.719918 0.157757 0
M  V30 3611 H 321.34 1.87743 -0.291968 0
M  V30 3612 H 319.49 3.57723 1.51547 0
M  V30 3613 H 321.162 4.52079 -0.91772 0
M  V30 3614 H 319.405 4.23694 -0.930919 0
M  V30 3615 H 320.076 5.5194 0.0812601 0
M  V30 3616 H 322.552 3.97427 1.23253 0
M  V30 3617 H 321.428 5.09393 2.04476 0
M  V30 3618 H 321.689 3.4906 2.71311 0
M  V30 3619 N 320.748 -0.0735177 1.57428 0
M  V30 3620 C 321.695 -1.08756 2.0357 0
M  V30 3621 C 322.665 -1.38559 0.916 0
M  V30 3622 O 323.85 -1.49656 1.18354 0
M  V30 3623 C 320.99 -2.39657 2.48311 0
M  V30 3624 C 320.103 -2.16399 3.73892 0
M  V30 3625 C 319.238 -3.40852 4.07423 0
M  V30 3626 C 318.277 -3.1295 5.2605 0
M  V30 3627 N 317.414 -4.29729 5.55228 0
M  V30 3628 H 322.254 -0.687104 2.8997 0
M  V30 3629 H 319.791 -0.327709 1.43403 0
M  V30 3630 H 321.749 -3.16081 2.72303 0
M  V30 3631 H 320.379 -2.77508 1.64891 0
M  V30 3632 H 319.431 -1.30676 3.57251 0
M  V30 3633 H 320.743 -1.91788 4.60455 0
M  V30 3634 H 319.897 -4.25671 4.32306 0
M  V30 3635 H 318.636 -3.68537 3.19425 0
M  V30 3636 H 317.641 -2.26526 5.00965 0
M  V30 3637 H 318.866 -2.86589 6.15665 0
M  V30 3638 H 316.812 -4.57448 4.70188 0
M  V30 3639 H 316.729 -4.08385 6.36206 0
M  V30 3640 H 317.997 -5.1555 5.84661 0
M  V30 3641 N 322.226 -1.5378 -0.344866 0
M  V30 3642 C 323.173 -1.81676 -1.42346 0
M  V30 3643 C 324.143 -0.662376 -1.52321 0
M  V30 3644 O 325.328 -0.906675 -1.67881 0
M  V30 3645 C 322.468 -2.03087 -2.79015 0
M  V30 3646 C 321.581 -3.30799 -2.77842 0
M  V30 3647 C 320.716 -3.42285 -4.0622 0
M  V30 3648 C 319.755 -4.6395 -3.9927 0
M  V30 3649 N 318.892 -4.72477 -5.19336 0
M  V30 3650 H 323.732 -2.73703 -1.17858 0
M  V30 3651 H 321.269 -1.35568 -0.570949 0
M  V30 3652 H 323.227 -2.1349 -3.58438 0
M  V30 3653 H 321.857 -1.14375 -3.01858 0
M  V30 3654 H 320.909 -3.29244 -1.90533 0
M  V30 3655 H 322.221 -4.20314 -2.68584 0
M  V30 3656 H 321.375 -3.52113 -4.94066 0
M  V30 3657 H 320.114 -2.50823 -4.18258 0
M  V30 3658 H 319.119 -4.54201 -3.09809 0
M  V30 3659 H 320.344 -5.56775 -3.88817 0
M  V30 3660 H 318.29 -3.83924 -5.3192 0
M  V30 3661 H 318.207 -5.55927 -5.12329 0
M  V30 3662 H 319.475 -4.86613 -6.08957 0
M  V30 3663 N 323.704 0.605807 -1.45491 0
M  V30 3664 C 324.637 1.73022 -1.48791 0
M  V30 3665 C 325.615 1.58917 -0.344112 0
M  V30 3666 O 326.799 1.80453 -0.544876 0
M  V30 3667 C 323.926 3.10865 -1.34463 0
M  V30 3668 C 322.972 3.43554 -2.5273 0
M  V30 3669 S 323.805 3.38196 -4.15191 0
M  V30 3670 C 324.961 4.78616 -4.03333 0
M  V30 3671 H 325.194 1.69961 -2.43928 0
M  V30 3672 H 322.727 0.782611 -1.33096 0
M  V30 3673 H 324.685 3.90398 -1.26884 0
M  V30 3674 H 323.346 3.1144 -0.40794 0
M  V30 3675 H 322.539 4.43924 -2.38637 0
M  V30 3676 H 322.141 2.71541 -2.5718 0
M  V30 3677 H 324.433 5.68463 -3.68587 0
M  V30 3678 H 325.376 4.97767 -5.03621 0
M  V30 3679 H 325.784 4.54381 -3.34959 0
M  V30 3680 N 325.182 1.32811 0.848464 0
M  V30 3681 C 326.459 1.14334 1.58704 0
M  V30 3682 C 326.839 -0.293948 2.09043 0
M  V30 3683 O 326.187 -1.29153 1.88499 0
M  V30 3684 C 326.397 2.17626 2.72837 0
M  V30 3685 C 327.745 2.51282 3.42261 0
M  V30 3686 O 328.769 2.16219 2.83068 0
M  V30 3687 O 327.628 3.11413 4.49093 0
M  V30 3688 H 324.722 0.441601 0.699226 0
M  V30 3689 H 327.268 1.44362 0.892053 0
M  V30 3690 H 326.04 3.14211 2.3321 0
M  V30 3691 H 325.663 1.88628 3.50008 0
M  V30 3692 N 326.66 -1.06551 1.16123 0
M  V30 3693 C 327.57 -2.17484 0.879662 0
M  V30 3694 C 328.586 -1.73377 -0.147104 0
M  V30 3695 O 329.762 -2.01379 0.0289128 0
M  V30 3696 C 326.827 -3.44591 0.381829 0
M  V30 3697 C 325.888 -4.0322 1.4735 0
M  V30 3698 C 325.121 -5.24261 0.999324 0
M  V30 3699 O 325.344 -5.70198 -0.151957 0
M  V30 3700 O 324.278 -5.74775 1.78653 0
M  V30 3701 H 328.104 -2.44075 1.80724 0
M  V30 3702 H 325.689 -1.16042 0.940992 0
M  V30 3703 H 327.571 -4.21254 0.111053 0
M  V30 3704 H 326.246 -3.19532 -0.51777 0
M  V30 3705 H 325.153 -3.2806 1.79798 0
M  V30 3706 H 326.486 -4.32568 2.34831 0
M  V30 3707 N 328.138 -0.959301 -1.25041 0
M  V30 3708 C 329.368 -0.63303 -1.96663 0
M  V30 3709 C 329.776 0.800031 -1.71453 0
M  V30 3710 O 329.119 1.54736 -0.99008 0
M  V30 3711 C 329.181 -0.817523 -3.50081 0
M  V30 3712 C 328.845 -2.22863 -3.98975 0
M  V30 3713 C 329.842 -3.20569 -4.09306 0
M  V30 3714 C 327.527 -2.55407 -4.32519 0
M  V30 3715 C 329.521 -4.4891 -4.52503 0
M  V30 3716 C 327.208 -3.83976 -4.754 0
M  V30 3717 C 328.206 -4.8054 -4.85356 0
M  V30 3718 O 327.894 -6.06817 -5.27284 0
M  V30 3719 H 327.626 -0.235866 -0.633516 0
M  V30 3720 H 330.18 -1.2874 -1.60047 0
M  V30 3721 H 328.41 -0.105992 -3.86555 0
M  V30 3722 H 330.099 -0.491604 -4.02912 0
M  V30 3723 H 330.865 -2.96753 -3.83618 0
M  V30 3724 H 326.744 -1.8097 -4.23994 0
M  V30 3725 H 330.288 -5.24283 -4.60188 0
M  V30 3726 H 326.185 -4.07596 -5.00535 0
M  V30 3727 H 326.953 -6.10262 -5.45457 0
M  V30 3728 N 329.616 1.39756 -0.72842 0
M  V30 3729 C 330.546 2.33289 -0.0991354 0
M  V30 3730 C 331.527 1.53568 0.731489 0
M  V30 3731 O 332.712 1.81987 0.677807 0
M  V30 3732 C 329.842 3.3763 0.813834 0
M  V30 3733 C 328.796 4.2791 0.0878663 0
M  V30 3734 C 328.122 5.22894 1.11741 0
M  V30 3735 C 329.422 5.11314 -1.06563 0
M  V30 3736 H 331.116 2.86163 -0.880408 0
M  V30 3737 H 328.662 1.37591 -0.424819 0
M  V30 3738 H 330.615 4.0201 1.26355 0
M  V30 3739 H 329.339 2.83181 1.62715 0
M  V30 3740 H 327.998 3.65 -0.342159 0
M  V30 3741 H 327.646 4.64744 1.92412 0
M  V30 3742 H 327.346 5.84143 0.636477 0
M  V30 3743 H 328.87 5.90151 1.56697 0
M  V30 3744 H 330.284 5.69076 -0.694671 0
M  V30 3745 H 328.681 5.81671 -1.47577 0
M  V30 3746 H 329.751 4.46534 -1.89038 0
M  V30 3747 N 331.094 0.475555 1.50254 0
M  V30 3748 C 332.319 -0.0777042 2.07254 0
M  V30 3749 C 332.744 -1.3235 1.3366 0
M  V30 3750 O 332.102 -1.77152 0.385597 0
M  V30 3751 C 332.15 -0.340169 3.58992 0
M  V30 3752 O 331.254 -1.41982 3.87188 0
M  V30 3753 H 330.595 0.0149556 0.663832 0
M  V30 3754 H 333.125 0.667878 1.93392 0
M  V30 3755 H 333.135 -0.579332 4.03866 0
M  V30 3756 H 331.81 0.570167 4.11973 0
M  V30 3757 H 330.387 -1.16762 3.54148 0
M  V30 3758 N 332.573 -1.56217 0.208337 0
M  V30 3759 C 333.85 -1.89739 -0.475234 0
M  V30 3760 C 334.23 -1.1238 -1.78701 0
M  V30 3761 O 333.578 -0.228979 -2.2735 0
M  V30 3762 C 333.788 -3.42289 -0.681101 0
M  V30 3763 C 335.136 -4.12789 -0.994507 0
M  V30 3764 O 336.16 -3.47814 -0.768357 0
M  V30 3765 O 335.019 -5.27649 -1.42299 0
M  V30 3766 H 332.113 -0.788478 -0.249461 0
M  V30 3767 H 334.659 -1.67855 0.249538 0
M  V30 3768 H 333.431 -3.90534 0.244722 0
M  V30 3769 H 333.054 -3.69909 -1.45785 0
M  V30 3770 N 334.051 0.0651679 -1.57465 0
M  V30 3771 C 335.298 0.763063 -1.87573 0
M  V30 3772 C 335.626 1.77242 -0.800961 0
M  V30 3773 O 334.881 1.94651 0.202316 0
M  V30 3774 C 335.18 1.50081 -3.24362 0
M  V30 3775 C 334.846 0.630816 -4.46466 0
M  V30 3776 C 333.508 0.391082 -4.79608 0
M  V30 3777 C 335.86 0.0279465 -5.21193 0
M  V30 3778 C 333.188 -0.460894 -5.84887 0
M  V30 3779 C 335.54 -0.811522 -6.27373 0
M  V30 3780 C 334.204 -1.06106 -6.59013 0
M  V30 3781 H 333.474 0.279224 -0.686378 0
M  V30 3782 H 336.121 0.0236726 -1.91485 0
M  V30 3783 H 334.426 2.31258 -3.16271 0
M  V30 3784 H 336.123 2.04571 -3.44894 0
M  V30 3785 H 332.713 0.8278 -4.2053 0
M  V30 3786 H 336.897 0.200262 -4.95896 0
M  V30 3787 H 332.153 -0.662907 -6.07796 0
M  V30 3788 H 336.327 -1.28537 -6.84435 0
M  V30 3789 H 333.954 -1.723 -7.40417 0
M  V30 3790 N 335.529 1.53961 0.336706 0
M  V30 3791 C 336.492 1.81724 1.39675 0
M  V30 3792 C 337.492 0.688532 1.45313 0
M  V30 3793 O 338.682 0.956829 1.45569 0
M  V30 3794 C 335.814 1.96543 2.78538 0
M  V30 3795 H 337.007 2.76424 1.16318 0
M  V30 3796 H 334.56 1.45478 0.571474 0
M  V30 3797 H 335.295 1.0401 3.07168 0
M  V30 3798 H 335.08 2.78665 2.75841 0
M  V30 3799 H 336.57 2.19516 3.5525 0
M  V30 3800 N 337.007 -0.598083 1.45811 0
M  V30 3801 C 337.954 -1.7082 1.55207 0
M  V30 3802 C 338.924 -1.61278 0.39732 0
M  V30 3803 O 340.109 -1.80717 0.612038 0
M  V30 3804 C 337.249 -3.09144 1.53376 0
M  V30 3805 C 336.362 -3.29423 2.79472 0
M  V30 3806 C 335.497 -4.57907 2.69248 0
M  V30 3807 C 334.536 -4.71476 3.90354 0
M  V30 3808 N 333.673 -5.9127 3.78608 0
M  V30 3809 H 338.513 -1.62125 2.50039 0
M  V30 3810 H 336.05 -0.790389 1.24062 0
M  V30 3811 H 338.008 -3.89186 1.50301 0
M  V30 3812 H 336.638 -3.16773 0.620876 0
M  V30 3813 H 335.69 -2.43091 2.92594 0
M  V30 3814 H 337.002 -3.3532 3.69272 0
M  V30 3815 H 336.156 -5.46157 2.64192 0
M  V30 3816 H 334.895 -4.54423 1.77063 0
M  V30 3817 H 333.9 -3.81648 3.95759 0
M  V30 3818 H 335.125 -4.76751 4.83617 0
M  V30 3819 H 333.071 -5.88813 2.89199 0
M  V30 3820 H 332.988 -5.98369 4.6205 0
M  V30 3821 H 334.256 -6.81992 3.77501 0
M  V30 3822 N 338.485 -1.33259 -0.841409 0
M  V30 3823 C 339.432 -1.23302 -1.95103 0
M  V30 3824 C 340.402 -0.112204 -1.65721 0
M  V30 3825 O 341.587 -0.290038 -1.88583 0
M  V30 3826 C 338.727 -0.975583 -3.31023 0
M  V30 3827 C 337.84 -2.18243 -3.72819 0
M  V30 3828 C 336.975 -1.85936 -4.97595 0
M  V30 3829 C 336.014 -3.02866 -5.3192 0
M  V30 3830 N 335.151 -2.70565 -6.47873 0
M  V30 3831 H 339.991 -2.18207 -2.02952 0
M  V30 3832 H 337.528 -1.0851 -0.993173 0
M  V30 3833 H 339.486 -0.80677 -4.09325 0
M  V30 3834 H 338.116 -0.0632755 -3.22738 0
M  V30 3835 H 337.168 -2.46107 -2.90061 0
M  V30 3836 H 338.48 -3.05666 -3.94169 0
M  V30 3837 H 337.634 -1.65684 -5.83638 0
M  V30 3838 H 336.373 -0.957452 -4.78209 0
M  V30 3839 H 335.378 -3.23736 -4.44382 0
M  V30 3840 H 336.603 -3.93809 -5.53255 0
M  V30 3841 H 334.549 -1.8293 -6.29978 0
M  V30 3842 H 334.466 -3.51519 -6.69306 0
M  V30 3843 H 335.734 -2.53774 -7.37034 0
M  V30 3844 N 339.963 1.05934 -1.16686 0
M  V30 3845 C 341.21 1.788 -0.950622 0
M  V30 3846 C 341.538 1.87384 0.521305 0
M  V30 3847 O 340.793 1.36438 1.40297 0
M  V30 3848 C 341.092 3.23105 -1.52767 0
M  V30 3849 C 340.758 3.34594 -3.02254 0
M  V30 3850 C 339.42 3.37437 -3.43059 0
M  V30 3851 C 341.772 3.36219 -3.98254 0
M  V30 3852 C 339.1 3.39525 -4.78477 0
M  V30 3853 C 341.452 3.39845 -5.33562 0
M  V30 3854 C 340.116 3.40971 -5.73842 0
M  V30 3855 H 339.386 0.654275 -0.347857 0
M  V30 3856 H 342.033 1.24555 -1.45459 0
M  V30 3857 H 340.338 3.80227 -0.94524 0
M  V30 3858 H 342.035 3.7809 -1.336 0
M  V30 3859 H 338.625 3.3309 -2.6972 0
M  V30 3860 H 342.809 3.33231 -3.67792 0
M  V30 3861 H 338.065 3.38703 -5.09009 0
M  V30 3862 H 342.239 3.4005 -6.07733 0
M  V30 3863 H 339.866 3.42342 -6.78753 0
M  V30 3864 N 341.441 0.965919 1.2453 0
M  V30 3865 C 342.391 0.465731 2.23193 0
M  V30 3866 C 343.375 -0.451277 1.54442 0
M  V30 3867 O 344.567 -0.282489 1.74731 0
M  V30 3868 C 341.696 -0.244511 3.42428 0
M  V30 3869 C 340.782 0.691222 4.18429 0
M  V30 3870 N 341.173 1.82771 4.71623 0
M  V30 3871 C 339.471 0.501649 4.4317 0
M  V30 3872 C 340.172 2.41285 5.29298 0
M  V30 3873 N 339.148 1.69819 5.16394 0
M  V30 3874 H 342.95 1.33291 2.61937 0
M  V30 3875 H 340.464 0.824789 1.39896 0
M  V30 3876 H 342.461 -0.620056 4.12263 0
M  V30 3877 H 341.121 -1.10815 3.05205 0
M  V30 3878 H 342.132 2.20929 4.68413 0
M  V30 3879 H 338.809 -0.318177 4.16286 0
M  V30 3880 H 340.199 3.37181 5.8117 0
M  V30 3881 N 342.919 -1.39368 0.735821 0
M  V30 3882 C 343.849 -2.33234 0.111506 0
M  V30 3883 C 344.83 -1.53954 -0.723334 0
M  V30 3884 O 346.015 -1.82344 -0.668147 0
M  V30 3885 C 343.145 -3.38057 -0.795917 0
M  V30 3886 C 342.099 -4.2795 -0.065172 0
M  V30 3887 C 341.425 -5.23479 -1.08967 0
M  V30 3888 C 342.725 -5.10741 1.09273 0
M  V30 3889 H 344.419 -2.85692 0.895571 0
M  V30 3890 H 341.965 -1.37364 0.432109 0
M  V30 3891 H 343.918 -4.02675 -1.24221 0
M  V30 3892 H 342.642 -2.8404 -1.61211 0
M  V30 3893 H 341.301 -3.64813 0.361511 0
M  V30 3894 H 340.949 -4.65758 -1.89944 0
M  V30 3895 H 340.649 -5.84472 -0.605489 0
M  V30 3896 H 342.173 -5.90974 -1.53565 0
M  V30 3897 H 343.587 -5.68699 0.724841 0
M  V30 3898 H 341.984 -5.8088 1.50659 0
M  V30 3899 H 343.054 -4.45525 1.91404 0
M  V30 3900 N 344.397 -0.483516 -1.5 0
M  V30 3901 C 345.625 0.0644831 -2.06799 0
M  V30 3902 C 346.04 1.32399 -1.34596 0
M  V30 3903 O 345.397 1.77626 -0.418946 0
M  V30 3904 C 345.448 0.339927 -3.59898 0
M  V30 3905 O 345.169 -0.869635 -4.29382 0
M  V30 3906 C 346.67 0.933515 -4.33359 0
M  V30 3907 H 343.89 -0.0126333 -0.670881 0
M  V30 3908 H 346.434 -0.675864 -1.93009 0
M  V30 3909 H 344.589 1.03022 -3.7345 0
M  V30 3910 H 345.003 -0.62179 -5.20801 0
M  V30 3911 H 346.477 1.07593 -5.41413 0
M  V30 3912 H 346.954 1.92685 -3.94676 0
M  V30 3913 H 347.56 0.281221 -4.24369 0
M  V30 3914 N 345.875 1.56104 -0.216619 0
M  V30 3915 C 347.103 2.02563 0.421413 0
M  V30 3916 C 347.518 1.0965 1.53695 0
M  V30 3917 O 346.875 0.10521 1.82196 0
M  V30 3918 C 346.926 3.48584 0.957665 0
M  V30 3919 O 346.647 4.37953 -0.113389 0
M  V30 3920 C 348.148 4.10664 1.66943 0
M  V30 3921 H 345.368 0.662944 0.103665 0
M  V30 3922 H 347.912 2.01793 -0.331629 0
M  V30 3923 H 346.067 3.49985 1.661 0
M  V30 3924 H 346.481 5.23704 0.288932 0
M  V30 3925 H 347.955 5.14622 1.99671 0
M  V30 3926 H 348.432 3.55373 2.58083 0
M  V30 3927 H 349.038 4.13098 1.01142 0
M  V30 3928 N 347.353 -0.0568162 1.57498 0
M  V30 3929 C 348.301 -1.08452 2.05769 0
M  V30 3930 C 349.295 -1.39164 0.965903 0
M  V30 3931 O 350.501 -1.38395 1.15095 0
M  V30 3932 H 346.876 -0.367148 0.656282 0
M  V30 3933 H 348.847 -0.651368 2.91204 0
M  V30 3934 C 347.596 -2.38543 2.52968 0
M  V30 3935 H 346.919 -2.15765 3.36579 0
M  V30 3936 H 348.359 -3.08863 2.90481 0
M  V30 3937 C 346.818 -3.05562 1.41893 0
M  V30 3938 O 347.348 -3.94262 0.769442 0
M  V30 3939 N 345.554 -2.6643 1.16032 0
M  V30 3940 H 345.101 -1.94387 1.6903 0
M  V30 3941 H 345.059 -3.11593 0.419219 0
M  V30 3942 N 348.832 -1.54138 -0.328536 0
M  V30 3943 C 349.742 -1.86192 -1.42723 0
M  V30 3944 C 350.758 -0.753382 -1.56844 0
M  V30 3945 O 351.934 -1.04718 -1.72035 0
M  V30 3946 C 348.999 -2.07824 -2.77507 0
M  V30 3947 C 348.06 -3.31641 -2.72603 0
M  V30 3948 C 347.293 -3.52232 -4.00959 0
M  V30 3949 O 347.516 -2.7636 -4.9898 0
M  V30 3950 O 346.45 -4.45699 -4.0452 0
M  V30 3951 H 350.276 -2.79608 -1.18547 0
M  V30 3952 H 347.861 -1.3998 -0.522104 0
M  V30 3953 H 349.743 -2.23411 -3.57303 0
M  V30 3954 H 348.418 -1.17596 -3.01584 0
M  V30 3955 H 347.325 -3.21444 -1.91376 0
M  V30 3956 H 348.658 -4.2191 -2.53481 0
M  V30 3957 N 350.31 0.590341 -1.46126 0
M  V30 3958 C 351.538 1.37504 -1.54597 0
M  V30 3959 C 351.953 1.87897 -0.184447 0
M  V30 3960 O 351.31 1.63192 0.816984 0
M  V30 3961 C 351.361 2.56779 -2.54454 0
M  V30 3962 O 351.082 2.08476 -3.85317 0
M  V30 3963 C 352.583 3.49427 -2.72792 0
M  V30 3964 H 349.803 0.420325 -0.523037 0
M  V30 3965 H 352.347 0.718383 -1.91467 0
M  V30 3966 H 350.502 3.1845 -2.20609 0
M  V30 3967 H 350.916 2.86097 -4.396 0
M  V30 3968 H 352.39 4.29619 -3.466 0
M  V30 3969 H 352.867 4.00876 -1.79429 0
M  V30 3970 H 353.473 2.93598 -3.07702 0
M  V30 3971 N 351.788 1.33704 0.83433 0
M  V30 3972 C 352.698 1.26382 1.97648 0
M  V30 3973 C 353.714 0.173548 1.73132 0
M  V30 3974 O 354.89 0.397962 1.97429 0
M  V30 3975 C 351.955 1.00769 3.31733 0
M  V30 3976 C 351.016 2.1884 3.69334 0
M  V30 3977 C 350.249 1.9444 4.9702 0
M  V30 3978 O 350.472 0.896961 5.63303 0
M  V30 3979 O 349.406 2.81093 5.32231 0
M  V30 3980 H 353.232 2.22444 2.06767 0
M  V30 3981 H 350.817 1.13795 0.968037 0
M  V30 3982 H 352.699 0.882186 4.12062 0
M  V30 3983 H 351.374 0.0773783 3.23608 0
M  V30 3984 H 350.281 2.36946 2.89495 0
M  V30 3985 H 351.614 3.10221 3.82131 0
M  V30 3986 N 353.266 -1.05314 1.17247 0
M  V30 3987 C 354.491 -1.82509 0.985148 0
M  V30 3988 C 354.916 -1.82343 -0.461788 0
M  V30 3989 O 354.274 -1.23151 -1.33055 0
M  V30 3990 C 354.322 -3.26566 1.52929 0
M  V30 3991 O 353.426 -4.05666 0.742225 0
M  V30 3992 H 352.767 -0.564347 0.349869 0
M  V30 3993 H 355.297 -1.32718 1.55715 0
M  V30 3994 H 355.307 -3.77369 1.55103 0
M  V30 3995 H 353.982 -3.26001 2.58256 0
M  V30 3996 H 352.559 -3.64397 0.791794 0
M  V30 3997 N 354.744 -0.972509 -1.24016 0
M  V30 3998 C 356.16 -0.679827 -1.44397 0
M  V30 3999 C 356.36 0.756716 -1.86751 0
M  V30 4000 O 355.416 1.53007 -2.00861 0
M  V30 4001 C 356.729 -1.66803 -2.50195 0
M  V30 4002 C 358.277 -1.68119 -2.64017 0
M  V30 4003 C 358.752 -2.65748 -3.73017 0
M  V30 4004 N 360.243 -2.64219 -3.8045 0
M  V30 4005 C 360.978 -3.36433 -4.64328 0
M  V30 4006 N 360.474 -4.1818 -5.52356 0
M  V30 4007 N 362.267 -3.25235 -4.58453 0
M  V30 4008 H 354.418 -1.90059 -0.948228 0
M  V30 4009 H 356.681 -0.818527 -0.478245 0
M  V30 4010 H 356.387 -2.69498 -2.25973 0
M  V30 4011 H 356.261 -1.4446 -3.48441 0
M  V30 4012 H 358.648 -0.661319 -2.87594 0
M  V30 4013 H 358.729 -1.94525 -1.66113 0
M  V30 4014 H 358.373 -3.67872 -3.50189 0
M  V30 4015 H 358.303 -2.36619 -4.70446 0
M  V30 4016 H 360.794 -2.04887 -3.17537 0
M  V30 4017 H 361.107 -4.70157 -6.13329 0
M  V30 4018 H 359.452 -4.22273 -5.52006 0
M  V30 4019 H 362.643 -2.60829 -3.88698 0
M  V30 4020 H 362.816 -3.81776 -5.23594 0
M  V30 4021 N 356.222 1.38976 -0.743202 0
M  V30 4022 C 357.17 2.32394 -0.0978389 0
M  V30 4023 C 358.164 1.53486 0.716824 0
M  V30 4024 O 359.37 1.69092 0.617088 0
M  V30 4025 H 355.745 0.75189 -0.0128402 0
M  V30 4026 H 357.716 2.84441 -0.901981 0
M  V30 4027 C 356.465 3.38629 0.789036 0
M  V30 4028 H 355.788 3.99432 0.171559 0
M  V30 4029 H 357.228 4.06426 1.20807 0
M  V30 4030 C 355.687 2.76347 1.92702 0
M  V30 4031 O 356.217 2.64836 3.02034 0
M  V30 4032 N 354.423 2.34311 1.71891 0
M  V30 4033 H 353.97 2.43873 0.829675 0
M  V30 4034 H 353.928 1.9298 2.48205 0
M  V30 4035 N 357.7 0.491464 1.49741 0
M  V30 4036 C 358.93 -0.0534375 2.06531 0
M  V30 4037 C 359.338 -1.32233 1.35318 0
M  V30 4038 O 358.681 -1.78781 0.422243 0
M  V30 4039 C 358.743 -0.387034 3.57411 0
M  V30 4040 C 358.407 0.782764 4.50246 0
M  V30 4041 C 359.404 1.67059 4.92329 0
M  V30 4042 C 357.089 0.978866 4.9267 0
M  V30 4043 C 359.083 2.73874 5.75562 0
M  V30 4044 C 356.77 2.05022 5.75682 0
M  V30 4045 C 357.768 2.92851 6.17031 0
M  V30 4046 O 357.456 3.98138 6.98385 0
M  V30 4047 H 357.188 0.0129324 0.675876 0
M  V30 4048 H 359.742 0.685238 1.93633 0
M  V30 4049 H 357.972 -1.17918 3.68283 0
M  V30 4050 H 359.661 -0.869419 3.96479 0
M  V30 4051 H 360.427 1.53086 4.60206 0
M  V30 4052 H 356.306 0.304646 4.59992 0
M  V30 4053 H 359.85 3.42458 6.07757 0
M  V30 4054 H 355.747 2.18993 6.07217 0
M  V30 4055 H 356.515 3.95374 7.16674 0
M  V30 4056 N 359.178 -1.55987 0.224894 0
M  V30 4057 C 360.589 -1.84553 -0.282345 0
M  V30 4058 C 360.94 -1.14634 -1.59227 0
M  V30 4059 O 360.065 -0.417155 -2.12341 0
M  V30 4060 C 360.66 -3.348 -0.519062 0
M  V30 4061 C 359.219 -3.63671 -0.970604 0
M  V30 4062 C 358.366 -2.77277 -0.0355261 0
M  V30 4063 H 361.317 -1.52245 0.448006 0
M  V30 4064 H 361.338 -3.55187 -1.36463 0
M  V30 4065 H 360.85 -3.8566 0.43449 0
M  V30 4066 H 358.951 -3.1827 -1.9374 0
M  V30 4067 H 359.064 -4.71631 -0.842698 0
M  V30 4068 H 357.428 -2.48846 -0.542927 0
M  V30 4069 H 358.211 -3.30937 0.913003 0
M  V30 4070 N 360.656 0.0484629 -1.57525 0
M  V30 4071 C 361.586 1.0549 -2.08313 0
M  V30 4072 C 362.567 1.38929 -0.981463 0
M  V30 4073 O 363.752 1.48151 -1.25558 0
M  V30 4074 C 360.882 2.36162 -2.54646 0
M  V30 4075 C 359.836 2.17016 -3.68901 0
M  V30 4076 C 359.162 3.53278 -4.01371 0
M  V30 4077 C 360.462 1.57219 -4.98076 0
M  V30 4078 H 362.156 0.632195 -2.92649 0
M  V30 4079 H 359.702 0.302654 -1.40784 0
M  V30 4080 H 361.655 3.06882 -2.88793 0
M  V30 4081 H 360.379 2.80456 -1.67368 0
M  V30 4082 H 359.038 1.48733 -3.35073 0
M  V30 4083 H 358.686 3.95185 -3.11188 0
M  V30 4084 H 358.386 3.41299 -4.78318 0
M  V30 4085 H 359.91 4.25391 -4.38035 0
M  V30 4086 H 361.324 2.17832 -5.30304 0
M  V30 4087 H 359.721 1.55871 -5.79503 0
M  V30 4088 H 360.791 0.535956 -4.81929 0
M  V30 4089 N 362.134 1.5431 0.320358 0
M  V30 4090 C 363.382 1.72327 1.05583 0
M  V30 4091 C 363.703 0.50149 1.88441 0
M  V30 4092 O 362.973 -0.48448 1.89815 0
M  V30 4093 H 361.553 0.635387 0.3928 0
M  V30 4094 H 364.215 1.91621 0.356019 0
M  V30 4095 H 363.311 2.60426 1.72003 0
M  V30 4096 N 363.613 -0.582584 1.46437 0
M  V30 4097 C 364.56 -1.69164 1.5701 0
M  V30 4098 C 365.53 -1.60847 0.414403 0
M  V30 4099 O 366.715 -1.80058 0.631171 0
M  V30 4100 C 363.855 -3.075 1.56646 0
M  V30 4101 C 362.968 -3.2644 2.82951 0
M  V30 4102 C 362.103 -4.55026 2.7409 0
M  V30 4103 C 361.142 -4.6731 3.95333 0
M  V30 4104 N 360.279 -5.87221 3.84858 0
M  V30 4105 H 365.119 -1.59464 2.51744 0
M  V30 4106 H 362.656 -0.777186 1.24893 0
M  V30 4107 H 364.614 -3.8757 1.5442 0
M  V30 4108 H 363.244 -3.16096 0.654439 0
M  V30 4109 H 362.296 -2.39974 2.95155 0
M  V30 4110 H 363.608 -3.31385 3.72808 0
M  V30 4111 H 362.762 -5.43324 2.6997 0
M  V30 4112 H 361.501 -4.52519 1.81873 0
M  V30 4113 H 360.506 -3.77429 3.99784 0
M  V30 4114 H 361.731 -4.71595 4.88646 0
M  V30 4115 H 359.677 -5.85712 2.95427 0
M  V30 4116 H 359.594 -5.93435 4.6837 0
M  V30 4117 H 360.862 -6.7795 3.84713 0
M  V30 4118 N 365.091 -1.34144 -0.827227 0
M  V30 4119 C 366.054 -1.25264 -1.91942 0
M  V30 4120 C 367.054 -0.168866 -1.59911 0
M  V30 4121 O 368.244 -0.421198 -1.69031 0
M  V30 4122 C 365.376 -0.932952 -3.27885 0
M  V30 4123 H 366.569 -2.22357 -2.0124 0
M  V30 4124 H 364.122 -1.1837 -1.0207 0
M  V30 4125 H 364.857 0.0349917 -3.24281 0
M  V30 4126 H 364.642 -1.71682 -3.52516 0
M  V30 4127 H 366.132 -0.895874 -4.07877 0
M  V30 4128 N 366.569 1.04691 -1.17803 0
M  V30 4129 C 367.797 1.81446 -0.99423 0
M  V30 4130 C 368.212 1.83174 0.457459 0
M  V30 4131 O 367.569 1.26265 1.31771 0
M  V30 4132 C 367.62 3.27334 -1.5341 0
M  V30 4133 O 367.341 3.25798 -2.92895 0
M  V30 4134 C 368.842 4.20759 -1.39559 0
M  V30 4135 H 366.062 0.571599 -0.351447 0
M  V30 4136 H 368.606 1.31982 -1.56208 0
M  V30 4137 H 366.761 3.74052 -1.00815 0
M  V30 4138 H 367.175 4.17144 -3.17949 0
M  V30 4139 H 368.649 5.21084 -1.82141 0
M  V30 4140 H 369.126 4.37856 -0.343394 0
M  V30 4141 H 369.732 3.79901 -1.91195 0
M  V30 4142 N 368.047 0.979072 1.23499 0
M  V30 4143 C 369.272 0.664845 1.96455 0
M  V30 4144 C 369.697 -0.761287 1.72006 0
M  V30 4145 O 369.055 -1.51837 0.990713 0
M  V30 4146 C 369.103 0.959479 3.47601 0
M  V30 4147 O 368.207 0.0508168 4.12369 0
M  V30 4148 H 367.548 0.250185 0.615064 0
M  V30 4149 H 370.078 1.31231 1.5697 0
M  V30 4150 H 370.088 0.895642 3.98048 0
M  V30 4151 H 368.763 1.99876 3.64723 0
M  V30 4152 H 367.34 0.16895 3.72517 0
M  V30 4153 N 369.525 -1.3858 0.750561 0
M  V30 4154 C 370.475 -2.27795 0.0965949 0
M  V30 4155 C 371.459 -1.45048 -0.696411 0
M  V30 4156 O 372.651 -1.67812 -0.562863 0
M  V30 4157 C 369.78 -3.33894 -0.798085 0
M  V30 4158 C 368.866 -4.241 0.0016067 0
M  V30 4159 N 369.257 -4.95067 1.03647 0
M  V30 4160 C 367.555 -4.45429 -0.225674 0
M  V30 4161 C 368.256 -5.61489 1.52004 0
M  V30 4162 N 367.232 -5.37135 0.835874 0
M  V30 4163 H 371.034 -2.80125 0.889228 0
M  V30 4164 H 368.548 -1.51446 0.586323 0
M  V30 4165 H 370.545 -3.96693 -1.28219 0
M  V30 4166 H 369.205 -2.83123 -1.5897 0
M  V30 4167 H 370.216 -4.98104 1.41819 0
M  V30 4168 H 366.893 -4.05571 -0.990872 0
M  V30 4169 H 368.283 -6.28264 2.38188 0
M  V30 4170 N 371.003 -0.499398 -1.49478 0
M  V30 4171 C 371.933 0.269244 -2.31943 0
M  V30 4172 C 372.914 0.964054 -1.40143 0
M  V30 4173 O 374.099 0.955767 -1.69052 0
M  V30 4174 C 371.229 1.33504 -3.20615 0
M  V30 4175 C 370.183 0.760202 -4.21195 0
M  V30 4176 C 369.509 1.9264 -4.98792 0
M  V30 4177 C 370.809 -0.247661 -5.21712 0
M  V30 4178 H 372.503 -0.419082 -2.96452 0
M  V30 4179 H 370.049 -0.202988 -1.42562 0
M  V30 4180 H 372.002 1.88048 -3.77115 0
M  V30 4181 H 370.726 2.05253 -2.54045 0
M  V30 4182 H 369.385 0.23653 -3.65836 0
M  V30 4183 H 369.033 2.63154 -4.28671 0
M  V30 4184 H 368.733 1.54785 -5.66847 0
M  V30 4185 H 370.257 2.4762 -5.58137 0
M  V30 4186 H 371.671 0.209579 -5.72917 0
M  V30 4187 H 370.068 -0.541962 -5.97648 0
M  V30 4188 H 371.138 -1.16409 -4.7072 0
M  V30 4189 N 372.481 1.55866 -0.233164 0
M  V30 4190 C 373.411 2.23783 0.666599 0
M  V30 4191 C 374.392 1.21343 1.19205 0
M  V30 4192 O 375.577 1.4996 1.23392 0
M  V30 4193 C 372.707 2.92671 1.86978 0
M  V30 4194 C 371.661 4.01682 1.47768 0
M  V30 4195 C 370.987 4.57926 2.76058 0
M  V30 4196 C 372.287 5.18126 0.658993 0
M  V30 4197 H 373.981 2.99232 0.100306 0
M  V30 4198 H 371.527 1.43924 0.046804 0
M  V30 4199 H 373.48 3.3888 2.50476 0
M  V30 4200 H 372.204 2.14688 2.46123 0
M  V30 4201 H 370.863 3.56222 0.866106 0
M  V30 4202 H 370.511 3.76659 3.33372 0
M  V30 4203 H 370.211 5.31505 2.50552 0
M  V30 4204 H 371.735 5.06859 3.40479 0
M  V30 4205 H 373.149 5.60644 1.19795 0
M  V30 4206 H 371.546 5.98009 0.500552 0
M  V30 4207 H 372.616 4.83763 -0.331856 0
M  V30 4208 N 373.959 -0.0401083 1.57549 0
M  V30 4209 C 375.207 -0.731677 1.8839 0
M  V30 4210 C 375.528 -1.76481 0.829425 0
M  V30 4211 O 374.798 -1.95411 -0.1383 0
M  V30 4212 H 373.378 -0.273225 0.695239 0
M  V30 4213 H 376.04 -0.00867725 1.94898 0
M  V30 4214 H 375.136 -1.22816 2.86919 0
M  V30 4215 N 375.437 -1.54477 -0.31217 0
M  V30 4216 C 376.667 -1.76948 -1.06645 0
M  V30 4217 C 377.075 -0.523593 -1.81811 0
M  V30 4218 O 376.418 0.51578 -1.76311 0
M  V30 4219 C 376.48 -2.91668 -2.10166 0
M  V30 4220 C 376.144 -4.30165 -1.54296 0
M  V30 4221 C 377.141 -5.10603 -0.978793 0
M  V30 4222 C 374.826 -4.76738 -1.58196 0
M  V30 4223 C 376.82 -6.3573 -0.461048 0
M  V30 4224 C 374.507 -6.01831 -1.06034 0
M  V30 4225 C 375.505 -6.81161 -0.500844 0
M  V30 4226 O 375.193 -8.03899 0.0128958 0
M  V30 4227 H 374.925 -0.594088 -0.322546 0
M  V30 4228 H 377.479 -2.02213 -0.360441 0
M  V30 4229 H 375.709 -2.62001 -2.84416 0
M  V30 4230 H 377.398 -3.01817 -2.71406 0
M  V30 4231 H 378.164 -4.75771 -0.941651 0
M  V30 4232 H 374.043 -4.15027 -2.00683 0
M  V30 4233 H 377.587 -6.97596 -0.0236894 0
M  V30 4234 H 373.484 -6.36152 -1.09459 0
M  V30 4235 H 374.252 -8.18437 -0.101457 0
M  V30 4236 N 376.915 0.57481 -1.46744 0
M  V30 4237 C 378.161 1.3347 -1.52688 0
M  V30 4238 C 378.494 1.93353 -0.181229 0
M  V30 4239 O 377.769 1.76912 0.808237 0
M  V30 4240 C 378.052 2.45811 -2.63152 0
M  V30 4241 C 377.905 1.90912 -4.07275 0
M  V30 4242 C 379.224 3.47822 -2.69644 0
M  V30 4243 H 376.343 0.483935 -0.555856 0
M  V30 4244 H 378.985 0.644968 -1.78718 0
M  V30 4245 H 377.135 3.04646 -2.41088 0
M  V30 4246 H 378.807 1.36473 -4.4065 0
M  V30 4247 H 377.05 1.21691 -4.16382 0
M  V30 4248 H 377.721 2.72042 -4.80309 0
M  V30 4249 H 380.197 2.9888 -2.895 0
M  V30 4250 H 379.073 4.23876 -3.48742 0
M  V30 4251 H 379.334 4.05555 -1.76005 0
M  V30 4252 N 378.394 1.34581 0.820102 0
M  V30 4253 C 379.642 1.26845 1.57336 0
M  V30 4254 C 379.963 -0.160667 1.94337 0
M  V30 4255 O 379.233 -1.09396 1.6251 0
M  V30 4256 H 377.813 0.466514 0.583415 0
M  V30 4257 H 380.475 1.68526 0.979027 0
M  V30 4258 H 379.571 1.87513 2.4949 0
M  V30 4259 N 379.872 -1.04064 1.18357 0
M  V30 4260 C 381.283 -1.58719 0.98312 0
M  V30 4261 C 381.634 -1.90556 -0.467193 0
M  V30 4262 O 380.759 -1.69561 -1.34454 0
M  V30 4263 C 381.354 -2.88379 1.77828 0
M  V30 4264 C 379.913 -3.3965 1.62218 0
M  V30 4265 C 379.06 -2.13235 1.77274 0
M  V30 4266 H 382.011 -0.867359 1.32901 0
M  V30 4267 H 382.032 -3.58773 1.26737 0
M  V30 4268 H 381.544 -2.65176 2.83379 0
M  V30 4269 H 379.645 -3.67866 0.592036 0
M  V30 4270 H 379.758 -4.13475 2.42023 0
M  V30 4271 H 378.122 -2.24542 1.20221 0
M  V30 4272 H 378.905 -1.92487 2.8426 0
M  V30 4273 N 381.35 -0.985608 -1.22978 0
M  V30 4274 C 382.599 -0.652881 -1.90841 0
M  V30 4275 C 382.912 0.817842 -1.77681 0
M  V30 4276 O 384.118 1.26185 -2.40395 0
M  V30 4277 C 382.574 -1.11717 -3.42122 0
M  V30 4278 C 382.182 -2.6126 -3.63933 0
M  V30 4279 C 383.926 -0.85843 -4.1573 0
M  V30 4280 C 381.833 -3.0133 -5.08876 0
M  V30 4281 H 380.763 -0.240491 -0.714619 0
M  V30 4282 H 383.414 -1.1942 -1.39324 0
M  V30 4283 H 381.796 -0.504027 -3.92779 0
M  V30 4284 H 382.97 -3.27858 -3.23799 0
M  V30 4285 H 381.285 -2.84937 -3.03644 0
M  V30 4286 H 383.882 -1.13359 -5.22546 0
M  V30 4287 H 384.225 0.205461 -4.15793 0
M  V30 4288 H 384.758 -1.43341 -3.71077 0
M  V30 4289 H 381.497 -4.06864 -5.13947 0
M  V30 4290 H 381.017 -2.3943 -5.49939 0
M  V30 4291 H 382.696 -2.92224 -5.77247 0
M  V30 4292 N 382.828 1.3818 -0.7579 0
M  V30 4293 C 383.776 2.32277 -0.122482 0
M  V30 4294 C 384.77 1.54238 0.700505 0
M  V30 4295 O 385.976 1.69737 0.599119 0
M  V30 4296 H 382.351 0.751712 -0.0208143 0
M  V30 4297 H 384.322 2.83469 -0.932099 0
M  V30 4298 C 383.071 3.39447 0.753076 0
M  V30 4299 H 382.394 3.99591 0.129184 0
M  V30 4300 H 383.834 4.07684 1.16489 0
M  V30 4301 C 382.293 2.78375 1.8976 0
M  V30 4302 O 382.823 2.68025 2.99208 0
M  V30 4303 N 381.029 2.36121 1.69397 0
M  V30 4304 H 380.576 2.4474 0.803762 0
M  V30 4305 H 380.534 1.95602 2.46145 0
M  V30 4306 N 384.306 0.507319 1.49211 0
M  V30 4307 C 385.531 -0.033725 2.07373 0
M  V30 4308 C 385.956 -1.29485 1.36437 0
M  V30 4309 O 385.314 -1.76294 0.423087 0
M  V30 4310 C 385.362 -0.263945 3.59633 0
M  V30 4311 O 384.466 -1.33737 3.90113 0
M  V30 4312 H 383.807 0.0290331 0.663365 0
M  V30 4313 H 386.337 0.708749 1.91932 0
M  V30 4314 H 386.347 -0.493536 4.05004 0
M  V30 4315 H 385.022 0.657424 4.10671 0
M  V30 4316 H 383.599 -1.09224 3.56545 0
M  V30 4317 N 385.784 -1.5574 0.241426 0
M  V30 4318 C 386.694 -2.2479 -0.671305 0
M  V30 4319 C 387.71 -1.26217 -1.19772 0
M  V30 4320 O 388.886 -1.59079 -1.23514 0
M  V30 4321 C 385.951 -2.92966 -1.85396 0
M  V30 4322 C 385.012 -4.06935 -1.36756 0
M  V30 4323 C 384.245 -4.71851 -2.49384 0
M  V30 4324 O 384.468 -4.35823 -3.67987 0
M  V30 4325 O 383.402 -5.60467 -2.19454 0
M  V30 4326 H 387.228 -3.0349 -0.112966 0
M  V30 4327 H 384.813 -1.49397 0.0101513 0
M  V30 4328 H 386.695 -3.35927 -2.54423 0
M  V30 4329 H 385.37 -2.17211 -2.40002 0
M  V30 4330 H 384.277 -3.68503 -0.644726 0
M  V30 4331 H 385.61 -4.84492 -0.867647 0
M  V30 4332 N 387.262 0.0317525 -1.57568 0
M  V30 4333 C 388.172 1.05021 -2.0978 0
M  V30 4334 C 389.188 1.39809 -1.03583 0
M  V30 4335 O 390.364 1.49182 -1.35302 0
M  V30 4336 C 387.429 2.33301 -2.56459 0
M  V30 4337 C 386.49 2.0512 -3.77127 0
M  V30 4338 C 385.723 3.27283 -4.2157 0
M  V30 4339 O 385.946 4.37861 -3.65559 0
M  V30 4340 O 384.88 3.13141 -5.14029 0
M  V30 4341 H 388.706 0.636505 -2.96955 0
M  V30 4342 H 386.291 0.248559 -1.47318 0
M  V30 4343 H 388.173 3.08722 -2.86825 0
M  V30 4344 H 386.848 2.73973 -1.72397 0
M  V30 4345 H 385.755 1.27276 -3.51784 0
M  V30 4346 H 387.088 1.69305 -4.62165 0
M  V30 4347 N 388.74 1.54641 0.303973 0
M  V30 4348 C 389.67 1.88386 1.3796 0
M  V30 4349 C 390.651 0.742485 1.5304 0
M  V30 4350 O 391.836 0.997959 1.66597 0
M  V30 4351 C 388.966 2.12854 2.74427 0
M  V30 4352 C 387.92 3.28702 2.74115 0
M  V30 4353 C 387.246 3.38582 4.13844 0
M  V30 4354 C 388.546 4.65881 2.3612 0
M  V30 4355 H 390.24 2.78474 1.09966 0
M  V30 4356 H 387.786 1.33988 0.527556 0
M  V30 4357 H 389.739 2.35047 3.49758 0
M  V30 4358 H 388.463 1.19535 3.03939 0
M  V30 4359 H 387.122 3.06428 2.0124 0
M  V30 4360 H 386.77 2.42784 4.40528 0
M  V30 4361 H 386.47 4.16453 4.14537 0
M  V30 4362 H 387.994 3.63031 4.90959 0
M  V30 4363 H 389.408 4.87823 3.01167 0
M  V30 4364 H 387.805 5.46444 2.48031 0
M  V30 4365 H 388.875 4.66799 1.3125 0
M  V30 4366 N 390.218 -0.567019 1.47046 0
M  V30 4367 C 391.165 -1.67489 1.58796 0
M  V30 4368 C 392.135 -1.60399 0.43144 0
M  V30 4369 O 393.32 -1.79378 0.650233 0
M  V30 4370 C 390.46 -3.05821 1.59899 0
M  V30 4371 C 389.573 -3.2342 2.86397 0
M  V30 4372 C 388.708 -4.52093 2.789 0
M  V30 4373 C 387.747 -4.6309 4.00267 0
M  V30 4374 N 386.884 -5.83106 3.91064 0
M  V30 4375 H 391.724 -1.56785 2.53422 0
M  V30 4376 H 389.261 -0.763896 1.2571 0
M  V30 4377 H 391.219 -3.8591 1.58522 0
M  V30 4378 H 389.849 -3.15384 0.687929 0
M  V30 4379 H 388.901 -2.3683 2.97684 0
M  V30 4380 H 390.213 -3.27412 3.76301 0
M  V30 4381 H 389.367 -5.4043 2.75718 0
M  V30 4382 H 388.106 -4.50565 1.86662 0
M  V30 4383 H 387.111 -3.73168 4.03765 0
M  V30 4384 H 388.336 -4.66386 4.93621 0
M  V30 4385 H 386.282 -5.82546 3.01623 0
M  V30 4386 H 386.199 -5.88434 4.74638 0
M  V30 4387 H 387.467 -6.73831 3.91882 0
M  V30 4388 N 391.696 -1.35014 -0.812953 0
M  V30 4389 C 392.628 -1.23262 -1.93233 0
M  V30 4390 C 393.641 -0.157371 -1.62038 0
M  V30 4391 O 394.83 -0.410096 -1.73725 0
M  V30 4392 C 391.93 -0.87392 -3.27438 0
M  V30 4393 C 391.103 -2.04622 -3.86586 0
M  V30 4394 C 390.162 -1.66432 -4.99186 0
M  V30 4395 O 389.188 -2.38222 -5.16951 0
M  V30 4396 N 390.39 -0.584248 -5.77552 0
M  V30 4397 H 393.155 -2.19699 -2.03844 0
M  V30 4398 H 390.716 -1.281 -0.99005 0
M  V30 4399 H 392.708 -0.600039 -4.00227 0
M  V30 4400 H 391.278 0.00057392 -3.126 0
M  V30 4401 H 390.498 -2.48427 -3.06068 0
M  V30 4402 H 391.786 -2.82999 -4.22835 0
M  V30 4403 H 391.184 0.0123526 -5.65699 0
M  V30 4404 H 389.741 -0.37013 -6.50748 0
M  V30 4405 N 393.175 1.03435 -1.18907 0
M  V30 4406 C 394.122 2.11591 -0.921837 0
M  V30 4407 C 395.092 1.65499 0.141226 0
M  V30 4408 O 396.277 1.908 0.000242829 0
M  V30 4409 C 393.417 3.42012 -0.460616 0
M  V30 4410 C 392.53 4.01682 -1.58982 0
M  V30 4411 C 391.665 5.20091 -1.08069 0
M  V30 4412 C 390.704 5.71805 -2.18416 0
M  V30 4413 N 389.841 6.81494 -1.68849 0
M  V30 4414 H 394.681 2.33787 -1.8479 0
M  V30 4415 H 392.218 1.1467 -0.921373 0
M  V30 4416 H 394.176 4.16834 -0.174642 0
M  V30 4417 H 392.806 3.19944 0.428467 0
M  V30 4418 H 391.858 3.24127 -1.99113 0
M  V30 4419 H 393.17 4.36084 -2.4214 0
M  V30 4420 H 392.324 6.02051 -0.749615 0
M  V30 4421 H 391.063 4.87209 -0.218771 0
M  V30 4422 H 390.068 4.88461 -2.5236 0
M  V30 4423 H 391.293 6.06728 -3.05054 0
M  V30 4424 H 389.239 6.50475 -0.849572 0
M  V30 4425 H 389.156 7.14994 -2.45601 0
M  V30 4426 H 390.424 7.67063 -1.38689 0
M  V30 4427 N 394.653 0.992116 1.22453 0
M  V30 4428 C 395.563 0.55065 2.28046 0
M  V30 4429 C 396.579 -0.400189 1.69335 0
M  V30 4430 O 397.755 -0.267215 1.99619 0
M  V30 4431 C 394.82 -0.128496 3.46462 0
M  V30 4432 C 393.881 0.865208 4.20491 0
M  V30 4433 C 393.114 0.218377 5.33253 0
M  V30 4434 O 393.337 -0.987894 5.6178 0
M  V30 4435 O 392.271 0.922845 5.94783 0
M  V30 4436 H 396.097 1.4291 2.67975 0
M  V30 4437 H 393.682 0.760326 1.28606 0
M  V30 4438 H 395.564 -0.508947 4.18315 0
M  V30 4439 H 394.239 -0.981526 3.0846 0
M  V30 4440 H 393.146 1.29658 3.50913 0
M  V30 4441 H 394.479 1.68741 4.62371 0
M  V30 4442 N 396.131 -1.37776 0.765217 0
M  V30 4443 C 397.361 -2.03828 0.337277 0
M  V30 4444 C 397.769 -1.57841 -1.04321 0
M  V30 4445 O 397.112 -0.752043 -1.67601 0
M  V30 4446 C 397.174 -3.58292 0.294407 0
M  V30 4447 C 396.838 -4.27384 1.61838 0
M  V30 4448 C 397.835 -4.51956 2.56967 0
M  V30 4449 C 395.52 -4.65345 1.89102 0
M  V30 4450 C 397.514 -5.13536 3.77571 0
M  V30 4451 C 395.201 -5.26647 3.09978 0
M  V30 4452 C 396.199 -5.50679 4.04032 0
M  V30 4453 O 395.887 -6.10702 5.2278 0
M  V30 4454 H 395.619 -0.661292 0.140248 0
M  V30 4455 H 398.173 -1.77222 1.03834 0
M  V30 4456 H 396.403 -3.83918 -0.462983 0
M  V30 4457 H 398.092 -4.05763 -0.105581 0
M  V30 4458 H 398.858 -4.23048 2.37183 0
M  V30 4459 H 394.737 -4.45978 1.16725 0
M  V30 4460 H 398.281 -5.3221 4.50997 0
M  V30 4461 H 394.178 -5.54979 3.29649 0
M  V30 4462 H 394.946 -6.29183 5.23517 0
M  V30 4463 N 397.609 -0.515225 -1.4894 0
M  V30 4464 C 398.556 0.255567 -2.29381 0
M  V30 4465 C 399.526 0.947387 -1.36432 0
M  V30 4466 O 400.711 0.951288 -1.65394 0
M  V30 4467 C 397.851 1.30551 -3.19453 0
M  V30 4468 C 396.964 0.624029 -4.27469 0
M  V30 4469 C 396.099 1.65563 -5.0474 0
M  V30 4470 C 395.138 0.956802 -6.04576 0
M  V30 4471 N 394.275 1.93326 -6.74959 0
M  V30 4472 H 399.115 -0.436607 -2.94784 0
M  V30 4473 H 396.652 -0.227154 -1.45336 0
M  V30 4474 H 398.61 1.92639 -3.70062 0
M  V30 4475 H 397.24 1.96626 -2.56004 0
M  V30 4476 H 396.292 -0.110459 -3.8024 0
M  V30 4477 H 397.604 0.0746092 -4.98744 0
M  V30 4478 H 396.758 2.35119 -5.59289 0
M  V30 4479 H 395.497 2.23893 -4.3327 0
M  V30 4480 H 394.502 0.247097 -5.49244 0
M  V30 4481 H 395.727 0.379814 -6.78037 0
M  V30 4482 H 393.673 2.50591 -6.06251 0
M  V30 4483 H 393.59 1.43489 -7.42258 0
M  V30 4484 H 394.858 2.62126 -7.34105 0
M  V30 4485 N 399.087 1.5561 -0.249682 0
M  V30 4486 C 400.335 1.98618 0.373548 0
M  V30 4487 C 400.656 1.13919 1.58264 0
M  V30 4488 O 399.926 0.222637 1.94631 0
M  V30 4489 H 398.506 0.733571 0.141006 0
M  V30 4490 H 401.168 1.91748 -0.349117 0
M  V30 4491 H 400.264 3.04584 0.680796 0
M  V30 4492 N 400.565 -0.0233959 1.57583 0
M  V30 4493 C 401.795 -0.723631 1.93513 0
M  V30 4494 C 402.203 -1.69115 0.848333 0
M  V30 4495 O 401.546 -1.82781 -0.183484 0
M  V30 4496 C 401.608 -1.53075 3.25282 0
M  V30 4497 C 401.272 -0.727388 4.51174 0
M  V30 4498 C 402.269 -0.0251924 5.19894 0
M  V30 4499 C 399.954 -0.680256 4.97672 0
M  V30 4500 C 401.948 0.713374 6.33395 0
M  V30 4501 C 399.635 0.0620523 6.11068 0
M  V30 4502 C 400.633 0.757622 6.78785 0
M  V30 4503 O 400.321 1.48787 7.90011 0
M  V30 4504 H 400.053 -0.208051 0.643188 0
M  V30 4505 H 402.607 0.0167489 2.05393 0
M  V30 4506 H 400.837 -2.31508 3.09744 0
M  V30 4507 H 402.526 -2.11413 3.46496 0
M  V30 4508 H 403.292 -0.0526003 4.84971 0
M  V30 4509 H 399.171 -1.21116 4.44805 0
M  V30 4510 H 402.715 1.25683 6.86185 0
M  V30 4511 H 398.612 0.0913634 6.45435 0
M  V30 4512 H 399.38 1.40213 8.06401 0
M  V30 4513 N 402.043 -1.548 -0.295768 0
M  V30 4514 C 402.99 -1.86113 -1.36494 0
M  V30 4515 C 403.96 -0.7105 -1.50137 0
M  V30 4516 O 405.145 -0.959626 -1.64912 0
M  V30 4517 C 402.285 -2.11861 -2.72413 0
M  V30 4518 C 401.398 -3.39471 -2.67177 0
M  V30 4519 C 400.533 -3.55035 -3.95125 0
M  V30 4520 C 399.572 -4.76418 -3.84308 0
M  V30 4521 N 398.709 -4.8876 -5.04042 0
M  V30 4522 H 403.549 -2.77314 -1.09091 0
M  V30 4523 H 401.086 -1.37315 -0.52753 0
M  V30 4524 H 403.044 -2.24786 -3.51464 0
M  V30 4525 H 401.674 -1.2392 -2.98066 0
M  V30 4526 H 400.726 -3.35139 -1.79962 0
M  V30 4527 H 402.038 -4.28646 -2.55076 0
M  V30 4528 H 401.192 -3.67653 -4.82614 0
M  V30 4529 H 399.931 -2.64002 -4.10066 0
M  V30 4530 H 398.936 -4.63827 -2.95202 0
M  V30 4531 H 400.161 -5.68863 -3.70906 0
M  V30 4532 H 398.107 -4.00652 -5.19436 0
M  V30 4533 H 398.024 -5.71945 -4.94384 0
M  V30 4534 H 399.292 -5.0574 -5.93167 0
M  V30 4535 N 403.521 0.559213 -1.47345 0
M  V30 4536 C 404.798 1.31997 -1.44348 0
M  V30 4537 C 405.178 2.1064 -0.139358 0
M  V30 4538 O 404.526 2.1091 0.879153 0
M  V30 4539 C 404.736 2.22618 -2.68779 0
M  V30 4540 C 406.084 2.83701 -3.1591 0
M  V30 4541 O 407.108 2.32921 -2.69493 0
M  V30 4542 O 405.967 3.75993 -3.966 0
M  V30 4543 H 403.061 0.594251 -0.575147 0
M  V30 4544 H 405.607 0.578282 -1.59543 0
M  V30 4545 H 404.379 1.64093 -3.55231 0
M  V30 4546 H 404.002 3.04085 -2.5616 0
M  V30 4547 N 404.999 1.35443 0.805782 0
M  V30 4548 C 406.276 1.19325 1.54987 0
M  V30 4549 C 406.656 -0.227294 2.09873 0
M  V30 4550 O 406.004 -1.2309 1.92512 0
M  V30 4551 C 406.214 2.26196 2.65775 0
M  V30 4552 C 407.562 2.62043 3.34094 0
M  V30 4553 O 408.586 2.25115 2.76046 0
M  V30 4554 O 407.445 3.25542 4.38958 0
M  V30 4555 H 404.539 0.463623 0.684823 0
M  V30 4556 H 407.085 1.47127 0.845674 0
M  V30 4557 H 405.857 3.21471 2.23096 0
M  V30 4558 H 405.48 1.99667 3.43829 0
M  V30 4559 N 406.477 -1.02803 1.19454 0
M  V30 4560 C 407.44 -2.09264 0.934955 0
M  V30 4561 C 408.44 -1.60576 -0.0849015 0
M  V30 4562 O 409.63 -1.73554 0.149933 0
M  V30 4563 C 406.762 -3.38482 0.40531 0
M  V30 4564 H 407.955 -2.33726 1.87916 0
M  V30 4565 H 405.508 -1.19426 1.00832 0
M  V30 4566 H 406.243 -3.19689 -0.544899 0
M  V30 4567 H 406.028 -3.75142 1.14065 0
M  V30 4568 H 407.518 -4.16894 0.242806 0
M  V30 4569 N 407.956 -0.998596 -1.21925 0
M  V30 4570 C 409.202 -0.678667 -1.91107 0
M  V30 4571 C 409.535 0.78791 -1.77498 0
M  V30 4572 O 408.81 1.57043 -1.1475 0
M  V30 4573 C 409.093 -1.09245 -3.43129 0
M  V30 4574 C 408.946 -2.61801 -3.6576 0
M  V30 4575 C 410.265 -0.649984 -4.35274 0
M  V30 4576 H 407.384 -0.248025 -0.694012 0
M  V30 4577 H 410.026 -1.24314 -1.43688 0
M  V30 4578 H 408.176 -0.612171 -3.83647 0
M  V30 4579 H 409.848 -3.17543 -3.34611 0
M  V30 4580 H 408.091 -3.03609 -3.09845 0
M  V30 4581 H 408.762 -2.85804 -4.7225 0
M  V30 4582 H 411.238 -1.0626 -4.02303 0
M  V30 4583 H 410.114 -0.967743 -5.40302 0
M  V30 4584 H 410.375 0.449139 -4.39813 0
M  V30 4585 N 409.434 1.37368 -0.772513 0
M  V30 4586 C 410.683 1.98918 -0.333861 0
M  V30 4587 C 410.996 1.62017 1.09589 0
M  V30 4588 O 412.202 2.16676 1.63596 0
M  V30 4589 C 410.658 3.55735 -0.545971 0
M  V30 4590 C 410.266 4.01573 -1.98603 0
M  V30 4591 C 412.01 4.24156 -0.170979 0
M  V30 4592 C 409.917 5.51102 -2.1457 0
M  V30 4593 H 408.847 0.744214 -0.121085 0
M  V30 4594 H 411.498 1.56888 -0.95175 0
M  V30 4595 H 409.88 3.95748 0.141387 0
M  V30 4596 H 411.054 3.72803 -2.7084 0
M  V30 4597 H 409.369 3.45937 -2.31769 0
M  V30 4598 H 411.966 5.34024 -0.26878 0
M  V30 4599 H 412.309 4.06917 0.878855 0
M  V30 4600 H 412.842 3.89447 -0.810914 0
M  V30 4601 H 409.581 5.73268 -3.17875 0
M  V30 4602 H 409.101 5.81554 -1.46817 0
M  V30 4603 H 410.78 6.17083 -1.94468 0
M  V30 4604 N 410.912 0.523116 1.48665 0
M  V30 4605 C 412.16 -0.0134497 2.02096 0
M  V30 4606 C 412.481 -1.35418 1.40311 0
M  V30 4607 O 411.751 -1.87543 0.566074 0
M  V30 4608 H 410.331 -0.00795915 0.746958 0
M  V30 4609 H 412.993 0.685388 1.82451 0
M  V30 4610 H 412.089 -0.126849 3.11842 0
M  V30 4611 N 412.39 -1.55475 0.257931 0
M  V30 4612 C 413.337 -2.21837 -0.636939 0
M  V30 4613 C 414.307 -1.18596 -1.16294 0
M  V30 4614 O 415.492 -1.47081 -1.21539 0
M  V30 4615 C 412.632 -2.9301 -1.82317 0
M  V30 4616 C 411.745 -4.10931 -1.33265 0
M  V30 4617 C 410.88 -4.69791 -2.47931 0
M  V30 4618 C 409.919 -5.7994 -1.95796 0
M  V30 4619 N 409.056 -6.32935 -3.0387 0
M  V30 4620 H 413.896 -2.9793 -0.0643591 0
M  V30 4621 H 411.433 -1.47086 -0.0200031 0
M  V30 4622 H 413.391 -3.3248 -2.52018 0
M  V30 4623 H 412.021 -2.1937 -2.36805 0
M  V30 4624 H 411.073 -3.76699 -0.52931 0
M  V30 4625 H 412.385 -4.90417 -0.910654 0
M  V30 4626 H 411.539 -5.11892 -3.25656 0
M  V30 4627 H 410.278 -3.89545 -2.93438 0
M  V30 4628 H 409.283 -5.37305 -1.16546 0
M  V30 4629 H 410.508 -6.62043 -1.51246 0
M  V30 4630 H 408.454 -5.55591 -3.48791 0
M  V30 4631 H 408.371 -7.07645 -2.66035 0
M  V30 4632 H 409.639 -6.79695 -3.81621 0
M  V30 4633 N 413.868 0.0150385 -1.57593 0
M  V30 4634 C 414.815 1.01126 -2.07466 0
M  V30 4635 C 415.785 1.35064 -0.966794 0
M  V30 4636 O 416.97 1.4516 -1.23827 0
M  V30 4637 C 414.11 2.30276 -2.57035 0
M  V30 4638 C 413.223 2.02373 -3.81666 0
M  V30 4639 C 412.358 3.25496 -4.19793 0
M  V30 4640 C 411.397 2.93211 -5.37303 0
M  V30 4641 N 410.534 4.08826 -5.70794 0
M  V30 4642 H 415.374 0.57901 -2.92321 0
M  V30 4643 H 412.911 0.27426 -1.44521 0
M  V30 4644 H 414.869 3.05757 -2.83846 0
M  V30 4645 H 413.499 2.71197 -1.75077 0
M  V30 4646 H 412.551 1.17327 -3.61854 0
M  V30 4647 H 413.863 1.74567 -4.67256 0
M  V30 4648 H 413.017 4.09333 -4.47807 0
M  V30 4649 H 411.756 3.56428 -3.32882 0
M  V30 4650 H 410.761 2.07777 -5.09027 0
M  V30 4651 H 411.986 2.63542 -6.25877 0
M  V30 4652 H 409.932 4.39682 -4.86842 0
M  V30 4653 H 409.849 3.84491 -6.50924 0
M  V30 4654 H 411.117 4.93496 -6.03392 0
M  V30 4655 N 415.346 1.54954 0.287554 0
M  V30 4656 C 416.594 1.74528 1.01904 0
M  V30 4657 C 416.915 0.541349 1.87335 0
M  V30 4658 O 416.185 -0.444108 1.908 0
M  V30 4659 H 414.765 0.643576 0.379235 0
M  V30 4660 H 417.427 1.92333 0.315294 0
M  V30 4661 H 416.523 2.64015 1.6644 0
M  V30 4662 N 416.824 -0.551391 1.4764 0
M  V30 4663 C 417.754 -1.66757 1.63445 0
M  V30 4664 C 418.735 -1.63077 0.483742 0
M  V30 4665 O 419.92 -1.80607 0.71377 0
M  V30 4666 C 417.05 -3.05387 1.65396 0
M  V30 4667 C 416.004 -3.23918 2.79752 0
M  V30 4668 C 415.33 -4.63393 2.66779 0
M  V30 4669 C 416.63 -3.08735 4.21284 0
M  V30 4670 H 418.324 -1.53786 2.56886 0
M  V30 4671 H 415.87 -0.738415 1.23626 0
M  V30 4672 H 417.823 -3.83325 1.75043 0
M  V30 4673 H 416.547 -3.19332 0.685195 0
M  V30 4674 H 415.206 -2.48391 2.69625 0
M  V30 4675 H 414.854 -4.74144 1.67918 0
M  V30 4676 H 414.554 -4.7674 3.43501 0
M  V30 4677 H 416.078 -5.43458 2.78364 0
M  V30 4678 H 417.492 -3.76484 4.32357 0
M  V30 4679 H 415.889 -3.33588 4.98838 0
M  V30 4680 H 416.959 -2.0541 4.39243 0
M  V30 4681 N 418.302 -1.35869 -0.798587 0
M  V30 4682 C 419.212 -1.31578 -1.94228 0
M  V30 4683 C 420.228 -0.21939 -1.72611 0
M  V30 4684 O 421.404 -0.450167 -1.96305 0
M  V30 4685 C 418.469 -1.09528 -3.28944 0
M  V30 4686 C 417.53 -2.28556 -3.63402 0
M  V30 4687 C 416.763 -2.07549 -4.9169 0
M  V30 4688 O 416.986 -1.046 -5.60727 0
M  V30 4689 O 415.92 -2.95106 -5.24591 0
M  V30 4690 H 419.746 -2.27847 -2.00796 0
M  V30 4691 H 417.331 -1.16322 -0.937526 0
M  V30 4692 H 419.213 -0.991127 -4.09579 0
M  V30 4693 H 417.888 -0.16315 -3.23289 0
M  V30 4694 H 416.795 -2.44538 -2.83112 0
M  V30 4695 H 418.128 -3.20244 -3.73771 0
M  V30 4696 N 419.78 1.02168 -1.19998 0
M  V30 4697 C 420.727 2.10601 -0.944228 0
M  V30 4698 C 421.697 1.65639 0.123664 0
M  V30 4699 O 422.882 1.9079 -0.0199941 0
M  V30 4700 C 420.022 3.41504 -0.496865 0
M  V30 4701 C 419.135 3.99973 -1.63234 0
M  V30 4702 C 418.27 5.18915 -1.13579 0
M  V30 4703 C 417.309 5.69456 -2.24468 0
M  V30 4704 N 416.446 6.79665 -1.76068 0
M  V30 4705 H 421.286 2.31814 -1.8726 0
M  V30 4706 H 418.823 1.13686 -0.933483 0
M  V30 4707 H 420.781 4.16626 -0.218843 0
M  V30 4708 H 419.411 3.2038 0.394508 0
M  V30 4709 H 418.463 3.21997 -2.0254 0
M  V30 4710 H 419.775 4.33492 -2.46752 0
M  V30 4711 H 418.929 6.01222 -0.813429 0
M  V30 4712 H 417.668 4.8695 -0.270434 0
M  V30 4713 H 416.673 4.85757 -2.57526 0
M  V30 4714 H 417.898 6.03459 -3.11472 0
M  V30 4715 H 415.844 6.49538 -0.918516 0
M  V30 4716 H 415.761 7.12349 -2.5317 0
M  V30 4717 H 417.029 7.65549 -1.46817 0
M  V30 4718 N 421.258 1.00505 1.21394 0
M  V30 4719 C 422.188 0.585684 2.26035 0
M  V30 4720 C 423.169 -0.393525 1.65485 0
M  V30 4721 O 424.354 -0.281497 1.92149 0
M  V30 4722 C 421.484 -0.0884283 3.47187 0
M  V30 4723 C 420.438 0.810567 4.20254 0
M  V30 4724 C 419.764 0.00286382 5.347 0
M  V30 4725 C 421.064 2.1132 4.77641 0
M  V30 4726 H 422.758 1.46039 2.61368 0
M  V30 4727 H 420.304 0.703648 1.25638 0
M  V30 4728 H 422.257 -0.393286 4.19561 0
M  V30 4729 H 420.981 -0.997766 3.10986 0
M  V30 4730 H 419.64 1.09925 3.49731 0
M  V30 4731 H 419.288 -0.907765 4.94741 0
M  V30 4732 H 418.988 0.601444 5.84514 0
M  V30 4733 H 420.512 -0.295808 6.09883 0
M  V30 4734 H 421.926 1.87148 5.41893 0
M  V30 4735 H 420.323 2.66164 5.37845 0
M  V30 4736 H 421.393 2.78393 3.9702 0
M  V30 4737 N 422.737 -1.36956 0.779787 0
M  V30 4738 C 423.967 -2.03459 0.358877 0
M  V30 4739 C 424.375 -1.58939 -1.02641 0
M  V30 4740 O 423.718 -0.769777 -1.66794 0
M  V30 4741 C 423.78 -3.5796 0.332393 0
M  V30 4742 C 423.444 -4.25644 1.66362 0
M  V30 4743 C 424.441 -4.49205 2.61746 0
M  V30 4744 C 422.126 -4.63313 1.94027 0
M  V30 4745 C 424.12 -5.09503 3.82996 0
M  V30 4746 C 421.807 -5.2333 3.15546 0
M  V30 4747 C 422.805 -5.46363 4.0985 0
M  V30 4748 O 422.493 -6.05122 5.29228 0
M  V30 4749 H 422.225 -0.659767 0.147254 0
M  V30 4750 H 424.779 -1.76111 1.05708 0
M  V30 4751 H 423.009 -3.84388 -0.422237 0
M  V30 4752 H 424.698 -4.05852 -0.0625389 0
M  V30 4753 H 425.464 -4.20508 2.41657 0
M  V30 4754 H 421.343 -4.44715 1.21448 0
M  V30 4755 H 424.887 -5.27397 4.56617 0
M  V30 4756 H 420.784 -5.51451 3.35517 0
M  V30 4757 H 421.552 -6.23595 5.30161 0
M  V30 4758 N 424.215 -0.530993 -1.48385 0
M  V30 4759 C 425.492 0.0671788 -1.95485 0
M  V30 4760 C 425.872 1.51191 -1.47324 0
M  V30 4761 O 425.22 2.17507 -0.700202 0
M  V30 4762 C 425.43 -0.0511206 -3.48963 0
M  V30 4763 C 426.778 0.107632 -4.24464 0
M  V30 4764 O 427.802 0.0226248 -3.56193 0
M  V30 4765 O 426.661 0.285972 -5.45751 0
M  V30 4766 H 423.755 0.0787365 -0.823243 0
M  V30 4767 H 426.301 -0.595662 -1.58902 0
M  V30 4768 H 425.073 -1.05747 -3.7674 0
M  V30 4769 H 424.696 0.650525 -3.92242 0
M  V30 4770 N 425.693 1.55336 -0.266172 0
M  V30 4771 C 426.64 2.22172 0.625165 0
M  V30 4772 C 427.61 1.19211 1.15663 0
M  V30 4773 O 428.795 1.47723 1.20758 0
M  V30 4774 C 425.935 2.93972 1.8076 0
M  V30 4775 C 425.048 4.11632 1.31084 0
M  V30 4776 C 424.183 4.71099 2.45436 0
M  V30 4777 C 423.222 5.8097 1.92718 0
M  V30 4778 N 422.359 6.34538 3.00509 0
M  V30 4779 H 427.199 2.9796 0.0485582 0
M  V30 4780 H 424.736 1.47095 0.0122024 0
M  V30 4781 H 426.694 3.33811 2.50251 0
M  V30 4782 H 425.324 2.20623 2.35638 0
M  V30 4783 H 424.376 3.76975 0.509326 0
M  V30 4784 H 425.688 4.90893 0.884633 0
M  V30 4785 H 424.842 5.13612 3.22936 0
M  V30 4786 H 423.581 3.91096 2.91368 0
M  V30 4787 H 422.586 5.37916 1.13695 0
M  V30 4788 H 423.811 6.62836 1.47733 0
M  V30 4789 H 421.757 5.57433 3.45839 0
M  V30 4790 H 421.674 7.09046 2.62279 0
M  V30 4791 H 422.942 6.81709 3.78011 0
M  V30 4792 N 427.171 -0.0066808 1.57599 0
M  V30 4793 C 428.118 -1.00024 2.08 0
M  V30 4794 C 429.088 -1.34549 0.973943 0
M  V30 4795 O 430.273 -1.44502 1.24595 0
M  V30 4796 C 427.413 -2.2891 2.58252 0
M  V30 4797 C 426.526 -2.00346 3.82734 0
M  V30 4798 C 425.661 -3.23265 4.21513 0
M  V30 4799 C 424.7 -2.90357 5.3885 0
M  V30 4800 N 423.837 -4.05793 5.72954 0
M  V30 4801 H 428.677 -0.563499 2.92624 0
M  V30 4802 H 426.214 -0.266592 1.44664 0
M  V30 4803 H 428.172 -3.04247 2.85464 0
M  V30 4804 H 426.802 -2.70265 1.76512 0
M  V30 4805 H 425.854 -1.15406 3.62471 0
M  V30 4806 H 427.166 -1.72086 4.68175 0
M  V30 4807 H 426.32 -4.06953 4.49971 0
M  V30 4808 H 425.059 -3.54657 3.34768 0
M  V30 4809 H 424.064 -2.05075 5.10122 0
M  V30 4810 H 425.289 -2.60219 6.27266 0
M  V30 4811 H 423.235 -4.37094 4.89167 0
M  V30 4812 H 423.152 -3.81034 6.52954 0
M  V30 4813 H 424.42 -4.90289 6.06001 0
M  V30 4814 N 428.649 -1.55105 -0.279332 0
M  V30 4815 C 429.579 -1.90557 -1.34945 0
M  V30 4816 C 430.56 -0.766738 -1.51839 0
M  V30 4817 O 431.745 -1.02434 -1.64988 0
M  V30 4818 C 428.875 -2.17193 -2.71006 0
M  V30 4819 C 427.829 -3.33021 -2.68851 0
M  V30 4820 C 427.155 -3.45123 -4.08405 0
M  V30 4821 C 428.455 -4.69578 -2.28678 0
M  V30 4822 H 430.149 -2.80188 -1.05522 0
M  V30 4823 H 427.695 -1.34811 -0.506173 0
M  V30 4824 H 429.648 -2.40581 -3.45975 0
M  V30 4825 H 428.372 -1.24355 -3.01999 0
M  V30 4826 H 427.031 -3.0959 -1.9634 0
M  V30 4827 H 426.679 -2.49762 -4.3661 0
M  V30 4828 H 426.379 -4.22995 -4.07859 0
M  V30 4829 H 427.903 -3.70796 -4.85121 0
M  V30 4830 H 429.317 -4.92553 -2.93368 0
M  V30 4831 H 427.714 -5.5032 -2.39306 0
M  V30 4832 H 428.784 -4.68828 -1.23807 0
M  V30 4833 N 430.127 0.543554 -1.4793 0
M  V30 4834 C 431.059 1.665 -1.57513 0
M  V30 4835 C 432.072 1.56156 -0.460333 0
M  V30 4836 O 433.261 1.62865 -0.730573 0
M  V30 4837 C 430.361 3.05063 -1.47614 0
M  V30 4838 C 429.534 3.41024 -2.739 0
M  V30 4839 C 428.593 4.58809 -2.57645 0
M  V30 4840 O 427.619 4.62707 -3.31498 0
M  V30 4841 N 428.821 5.56149 -1.66368 0
M  V30 4842 H 431.586 1.5872 -2.5422 0
M  V30 4843 H 429.147 0.730517 -1.44482 0
M  V30 4844 H 431.139 3.81712 -1.34455 0
M  V30 4845 H 429.709 3.06994 -0.589359 0
M  V30 4846 H 428.929 2.53687 -3.01723 0
M  V30 4847 H 430.217 3.61831 -3.57709 0
M  V30 4848 H 429.615 5.55767 -1.05543 0
M  V30 4849 H 428.172 6.32071 -1.59154 0
M  V30 4850 N 431.605 1.3629 0.791371 0
M  V30 4851 C 432.555 1.26988 1.89362 0
M  V30 4852 C 433.539 0.161795 1.60084 0
M  V30 4853 O 434.731 0.394426 1.72549 0
M  V30 4854 C 431.86 1.05944 3.26544 0
M  V30 4855 C 430.946 2.21211 3.61838 0
M  V30 4856 N 431.337 3.46518 3.68455 0
M  V30 4857 C 429.635 2.12933 3.91887 0
M  V30 4858 C 430.336 4.2241 3.99931 0
M  V30 4859 N 429.312 3.51329 4.14812 0
M  V30 4860 H 433.114 2.21908 1.92702 0
M  V30 4861 H 430.628 1.28982 0.986787 0
M  V30 4862 H 432.625 0.973666 4.05371 0
M  V30 4863 H 431.285 0.119223 3.24481 0
M  V30 4864 H 432.296 3.80677 3.51148 0
M  V30 4865 H 428.973 1.26855 3.97761 0
M  V30 4866 H 430.363 5.30767 4.1199 0
M  V30 4867 N 433.083 -1.0153 1.20538 0
M  V30 4868 C 433.993 -2.13557 0.971113 0
M  V30 4869 C 435.009 -1.73845 -0.0734366 0
M  V30 4870 O 436.185 -2.01075 0.114299 0
M  V30 4871 C 433.25 -3.42661 0.527639 0
M  V30 4872 C 432.311 -3.96608 1.64319 0
M  V30 4873 C 431.544 -5.1955 1.22078 0
M  V30 4874 O 431.767 -5.70329 0.0900198 0
M  V30 4875 O 430.701 -5.66681 2.02871 0
M  V30 4876 H 434.527 -2.3619 1.90913 0
M  V30 4877 H 432.112 -1.11946 0.989362 0
M  V30 4878 H 433.994 -4.20404 0.289621 0
M  V30 4879 H 432.669 -3.21441 -0.381779 0
M  V30 4880 H 431.576 -3.20139 1.93551 0
M  V30 4881 H 432.909 -4.22219 2.52966 0
M  V30 4882 N 434.561 -1.01147 -1.20859 0
M  V30 4883 C 435.838 -0.613136 -1.85742 0
M  V30 4884 C 436.218 0.909004 -1.90526 0
M  V30 4885 O 435.566 1.79862 -1.40932 0
M  V30 4886 C 435.776 -1.255 -3.25654 0
M  V30 4887 C 437.124 -1.3672 -4.01986 0
M  V30 4888 O 438.148 -1.21082 -3.34989 0
M  V30 4889 O 437.007 -1.6194 -5.21956 0
M  V30 4890 H 434.101 -0.210878 -0.799662 0
M  V30 4891 H 436.647 -1.10853 -1.2849 0
M  V30 4892 H 435.419 -2.29532 -3.16908 0
M  V30 4893 H 435.042 -0.746369 -3.90532 0
M  V30 4894 N 436.039 1.36541 -0.78704 0
M  V30 4895 C 437.287 1.98911 -0.357633 0
M  V30 4896 C 437.608 1.62778 1.07371 0
M  V30 4897 O 436.878 0.900612 1.73971 0
M  V30 4898 H 435.458 0.735734 -0.129246 0
M  V30 4899 H 438.12 1.66776 -1.00855 0
M  V30 4900 H 437.216 3.08874 -0.447549 0
M  V30 4901 N 437.518 0.538854 1.48102 0
M  V30 4902 C 438.748 0.0122958 2.06596 0
M  V30 4903 C 439.156 -1.27861 1.39457 0
M  V30 4904 O 438.499 -1.77348 0.478907 0
M  V30 4905 C 438.561 -0.273131 3.58461 0
M  V30 4906 C 438.225 0.92561 4.47528 0
M  V30 4907 C 439.222 1.82637 4.86765 0
M  V30 4908 C 436.907 1.13511 4.89306 0
M  V30 4909 C 438.901 2.92047 5.66558 0
M  V30 4910 C 436.588 2.23233 5.68868 0
M  V30 4911 C 437.586 3.12333 6.07402 0
M  V30 4912 O 437.274 4.20155 6.85365 0
M  V30 4913 H 437.006 0.0344283 0.675123 0
M  V30 4914 H 439.56 0.746494 1.91355 0
M  V30 4915 H 437.79 -1.06141 3.71848 0
M  V30 4916 H 439.479 -0.742842 3.99045 0
M  V30 4917 H 440.245 1.67649 4.55103 0
M  V30 4918 H 436.124 0.450835 4.5879 0
M  V30 4919 H 439.668 3.6162 5.96554 0
M  V30 4920 H 435.565 2.38201 5.99942 0
M  V30 4921 H 436.333 4.17975 7.03732 0
M  V30 4922 N 438.996 -1.55193 0.274407 0
M  V30 4923 C 440.412 -1.59401 -0.0797543 0
M  V30 4924 C 440.612 -1.29162 -1.54659 0
M  V30 4925 O 439.668 -1.05215 -2.29534 0
M  V30 4926 C 440.981 -2.99257 0.294238 0
M  V30 4927 C 442.529 -3.12072 0.240796 0
M  V30 4928 C 443.004 -4.54194 0.589218 0
M  V30 4929 N 444.495 -4.60033 0.540744 0
M  V30 4930 C 445.23 -5.68027 0.783147 0
M  V30 4931 N 444.726 -6.8417 1.09013 0
M  V30 4932 N 446.519 -5.57572 0.711993 0
M  V30 4933 H 438.67 -1.73113 1.23067 0
M  V30 4934 H 440.933 -0.807197 0.497129 0
M  V30 4935 H 440.639 -3.26217 1.31435 0
M  V30 4936 H 440.513 -3.75427 -0.365281 0
M  V30 4937 H 442.9 -2.84877 -0.770024 0
M  V30 4938 H 442.981 -2.38117 0.934563 0
M  V30 4939 H 442.625 -4.82115 1.59772 0
M  V30 4940 H 442.555 -5.26448 -0.126331 0
M  V30 4941 H 445.046 -3.76599 0.313327 0
M  V30 4942 H 445.359 -7.6243 1.26178 0
M  V30 4943 H 443.704 -6.85787 1.12789 0
M  V30 4944 H 446.895 -4.65714 0.472014 0
M  V30 4945 H 447.068 -6.41659 0.90429 0
M  V30 4946 N 440.474 -0.00167713 -1.576 0
M  V30 4947 C 441.72 0.683832 -1.90923 0
M  V30 4948 C 442.053 1.7333 -0.875799 0
M  V30 4949 O 441.328 1.94215 0.10525 0
M  V30 4950 C 441.611 1.32543 -3.3482 0
M  V30 4951 C 441.464 0.287387 -4.48881 0
M  V30 4952 C 442.783 2.25114 -3.78169 0
M  V30 4953 H 439.902 0.247125 -0.694333 0
M  V30 4954 H 442.544 -0.0533149 -1.89925 0
M  V30 4955 H 440.694 1.95372 -3.35801 0
M  V30 4956 H 442.366 -0.341346 -4.60035 0
M  V30 4957 H 440.609 -0.39017 -4.32042 0
M  V30 4958 H 441.28 0.775393 -5.46527 0
M  V30 4959 H 443.756 1.723 -3.7875 0
M  V30 4960 H 442.632 2.66971 -4.79602 0
M  V30 4961 H 442.893 3.13092 -3.12131 0
M  V30 4962 N 441.952 1.55251 0.271103 0
M  V30 4963 C 443.18 1.79974 1.02064 0
M  V30 4964 C 443.595 0.574003 1.79863 0
M  V30 4965 O 442.952 -0.456962 1.76686 0
M  V30 4966 C 443.003 3.02603 1.97772 0
M  V30 4967 O 442.724 4.20443 1.23124 0
M  V30 4968 C 444.225 3.39944 2.84522 0
M  V30 4969 H 441.445 0.599489 0.301419 0
M  V30 4970 H 443.989 2.02268 0.301313 0
M  V30 4971 H 442.144 2.8243 2.65165 0
M  V30 4972 H 442.558 4.89783 1.87651 0
M  V30 4973 H 444.032 4.28915 3.47471 0
M  V30 4974 H 444.509 2.59432 3.54389 0
M  V30 4975 H 445.115 3.62383 2.22618 0
M  V30 4976 N 443.43 -0.535701 1.48216 0
M  V30 4977 C 444.679 -1.28828 1.55197 0
M  V30 4978 C 444.992 -1.94263 0.228278 0
M  V30 4979 O 446.198 -2.70927 0.176278 0
M  V30 4980 C 444.654 -2.33727 2.73678 0
M  V30 4981 C 444.262 -1.74386 4.12666 0
M  V30 4982 C 446.006 -3.1003 2.89968 0
M  V30 4983 C 443.913 -2.77192 5.22416 0
M  V30 4984 H 442.843 -0.484484 0.577747 0
M  V30 4985 H 445.494 -0.56646 1.74538 0
M  V30 4986 H 443.876 -3.08919 2.4776 0
M  V30 4987 H 445.05 -1.05421 4.48579 0
M  V30 4988 H 443.365 -1.10595 4.01445 0
M  V30 4989 H 445.962 -3.86842 3.6913 0
M  V30 4990 H 446.305 -3.65542 1.9921 0
M  V30 4991 H 446.838 -2.41952 3.15759 0
M  V30 4992 H 443.577 -2.26507 6.15122 0
M  V30 4993 H 443.097 -3.44502 4.90998 0
M  V30 4994 H 444.776 -3.40285 5.50286 0
M  V30 4995 N 444.908 -1.36708 -0.784132 0
M  V30 4996 C 446.154 -1.31426 -1.54451 0
M  V30 4997 C 446.487 0.10476 -1.93917 0
M  V30 4998 O 445.762 1.05934 -1.6312 0
M  V30 4999 C 446.045 -2.24189 -2.818 0
M  V30 5000 C 445.898 -3.74813 -2.48667 0
M  V30 5001 C 447.217 -2.15626 -3.83658 0
M  V30 5002 H 444.336 -0.478739 -0.560337 0
M  V30 5003 H 446.978 -1.67305 -0.900498 0
M  V30 5004 H 445.128 -1.93722 -3.36755 0
M  V30 5005 H 446.8 -4.15823 -1.99722 0
M  V30 5006 H 445.043 -3.93989 -1.81535 0
M  V30 5007 H 445.714 -4.35138 -3.39646 0
M  V30 5008 H 448.19 -2.42456 -3.38163 0
M  V30 5009 H 447.066 -2.82694 -4.70506 0
M  V30 5010 H 447.327 -1.14522 -4.27009 0
M  V30 5011 N 446.386 1.0089 -1.21074 0
M  V30 5012 C 447.802 1.2695 -0.967257 0
M  V30 5013 C 448.002 1.9846 0.348673 0
M  V30 5014 O 447.058 2.28459 1.0753 0
M  V30 5015 C 448.371 2.09697 -2.15517 0
M  V30 5016 C 449.919 2.22937 -2.197 0
M  V30 5017 C 450.394 3.09064 -3.37999 0
M  V30 5018 N 451.885 3.16653 -3.38061 0
M  V30 5019 C 452.62 3.8354 -4.26245 0
M  V30 5020 N 452.116 4.52488 -5.2462 0
M  V30 5021 N 453.909 3.80141 -4.14064 0
M  V30 5022 H 446.06 0.529005 -2.05707 0
M  V30 5023 H 448.323 0.296148 -0.900556 0
M  V30 5024 H 448.029 1.64497 -3.10859 0
M  V30 5025 H 447.903 3.10444 -2.14253 0
M  V30 5026 H 450.29 2.67357 -1.24916 0
M  V30 5027 H 450.371 1.21673 -2.2501 0
M  V30 5028 H 450.015 2.65347 -4.33074 0
M  V30 5029 H 449.945 4.10433 -3.29928 0
M  V30 5030 H 452.436 2.67566 -2.66865 0
M  V30 5031 H 452.749 5.01219 -5.88217 0
M  V30 5032 H 451.094 4.51288 -5.28549 0
M  V30 5033 H 454.285 3.25427 -3.36474 0
M  V30 5034 H 454.458 4.31992 -4.82998 0
M  V30 5035 N 447.864 1.01787 1.20321 0
M  V30 5036 C 449.11 0.708985 1.90003 0
M  V30 5037 C 449.443 -0.759572 1.78729 0
M  V30 5038 O 448.718 -1.55198 1.17234 0
M  V30 5039 C 449.001 1.1469 3.41348 0
M  V30 5040 C 448.854 2.67586 3.61549 0
M  V30 5041 C 450.173 0.71915 4.34185 0
M  V30 5042 H 447.292 0.259034 0.689978 0
M  V30 5043 H 449.934 1.26584 1.41692 0
M  V30 5044 H 448.084 0.673128 3.82624 0
M  V30 5045 H 449.756 3.22826 3.29517 0
M  V30 5046 H 447.999 3.085 3.04976 0
M  V30 5047 H 448.67 2.93281 4.67643 0
M  V30 5048 H 451.146 1.12647 4.00562 0
M  V30 5049 H 450.022 1.05358 5.38694 0
M  V30 5050 H 450.283 -0.379111 4.40472 0
M  V30 5051 N 449.342 -1.36122 0.79427 0
M  V30 5052 C 450.619 -1.93398 0.292685 0
M  V30 5053 C 450.999 -1.72567 -1.21589 0
M  V30 5054 O 450.347 -1.08745 -2.00965 0
M  V30 5055 C 450.557 -3.42099 0.690614 0
M  V30 5056 C 451.905 -4.19231 0.673105 0
M  V30 5057 O 452.929 -3.50559 0.631389 0
M  V30 5058 O 451.788 -5.41732 0.720362 0
M  V30 5059 H 448.882 -0.823712 0.0736693 0
M  V30 5060 H 451.428 -1.45273 0.87714 0
M  V30 5061 H 450.2 -3.50938 1.73085 0
M  V30 5062 H 449.823 -3.97519 0.0803036 0
M  V30 5063 N 450.82 -0.546701 -1.47814 0
M  V30 5064 C 452.097 0.0464413 -1.95545 0
M  V30 5065 C 452.477 1.4962 -1.48919 0
M  V30 5066 O 451.825 2.16752 -0.723232 0
M  V30 5067 C 452.035 -0.0881298 -3.48889 0
M  V30 5068 C 453.383 0.0626059 -4.24554 0
M  V30 5069 O 454.407 -0.0151555 -3.56197 0
M  V30 5070 O 453.266 0.228071 -5.46024 0
M  V30 5071 H 450.36 0.0700004 -0.824032 0
M  V30 5072 H 452.906 -0.612482 -1.58262 0
M  V30 5073 H 451.678 -1.09737 -3.75597 0
M  V30 5074 H 451.301 0.608886 -3.9291 0
M  V30 5075 N 452.299 1.55045 -0.282633 0
M  V30 5076 C 453.247 2.24254 0.617478 0
M  V30 5077 C 454.241 1.24215 1.15183 0
M  V30 5078 O 455.447 1.42123 1.10459 0
M  V30 5079 H 451.822 0.719801 0.217693 0
M  V30 5080 H 453.793 2.98398 0.0110076 0
M  V30 5081 C 452.542 2.98281 1.78672 0
M  V30 5082 H 451.865 3.75053 1.38475 0
M  V30 5083 H 453.305 3.50017 2.393 0
M  V30 5084 C 451.764 2.04184 2.67975 0
M  V30 5085 O 452.294 1.59792 3.6855 0
M  V30 5086 N 450.5 1.70526 2.35307 0
M  V30 5087 H 450.047 2.06821 1.53567 0
M  V30 5088 H 450.005 1.07839 2.95327 0
M  V30 5089 N 453.777 0.010035 1.57597 0
M  V30 5090 C 455.002 -0.687021 1.95691 0
M  V30 5091 C 455.427 -1.65952 0.885519 0
M  V30 5092 O 454.785 -1.80633 -0.15543 0
M  V30 5093 C 454.833 -1.3864 3.32884 0
M  V30 5094 O 453.937 -2.50115 3.27897 0
M  V30 5095 H 453.278 -0.181989 0.638573 0
M  V30 5096 H 455.808 0.0662122 2.04493 0
M  V30 5097 H 455.818 -1.74754 3.6868 0
M  V30 5098 H 454.493 -0.673411 4.10412 0
M  V30 5099 H 453.07 -2.16253 3.03791 0
M  V30 5100 N 455.255 -1.55392 -0.262866 0
M  V30 5101 C 456.203 -1.8977 -1.345 0
M  V30 5102 C 457.197 -0.775063 -1.50629 0
M  V30 5103 O 458.403 -0.959519 -1.52293 0
M  V30 5104 H 454.778 -0.602467 -0.450041 0
M  V30 5105 H 456.749 -2.80147 -1.02762 0
M  V30 5106 C 455.498 -2.19501 -2.69657 0
M  V30 5107 H 454.821 -3.05378 -2.5804 0
M  V30 5108 H 456.261 -2.47469 -3.44289 0
M  V30 5109 C 454.72 -1.00597 -3.21531 0
M  V30 5110 O 455.25 -0.245768 -4.00947 0
M  V30 5111 N 453.456 -0.800911 -2.79345 0
M  V30 5112 H 453.003 -1.42079 -2.14875 0
M  V30 5113 H 452.961 -0.00697996 -3.14399 0
M  V30 5114 N 456.733 0.527833 -1.48498 0
M  V30 5115 C 457.961 1.30823 -1.6029 0
M  V30 5116 C 458.376 1.86945 -0.263974 0
M  V30 5117 O 457.733 1.6651 0.747034 0
M  V30 5118 C 457.784 2.45756 -2.65116 0
M  V30 5119 O 457.505 1.91946 -3.93813 0
M  V30 5120 C 459.006 3.37543 -2.87367 0
M  V30 5121 H 456.226 0.397763 -0.540394 0
M  V30 5122 H 458.77 0.636529 -1.94341 0
M  V30 5123 H 456.925 3.08806 -2.33917 0
M  V30 5124 H 457.339 2.67195 -4.51339 0
M  V30 5125 H 458.813 4.14532 -3.6451 0
M  V30 5126 H 459.29 3.92905 -1.9627 0
M  V30 5127 H 459.896 2.80283 -3.19878 0
M  V30 5128 N 458.211 1.37122 0.776871 0
M  V30 5129 C 459.46 1.31373 1.53049 0
M  V30 5130 C 459.773 -0.101016 1.95339 0
M  V30 5131 O 460.979 -0.280953 2.70042 0
M  V30 5132 C 459.435 2.30567 2.76346 0
M  V30 5133 C 459.043 3.77543 2.41175 0
M  V30 5134 C 460.787 2.33818 3.54301 0
M  V30 5135 C 458.694 4.68481 3.60943 0
M  V30 5136 H 457.624 0.488234 0.574581 0
M  V30 5137 H 460.275 1.62554 0.851372 0
M  V30 5138 H 458.657 1.92396 3.46121 0
M  V30 5139 H 459.831 4.24521 1.79216 0
M  V30 5140 H 458.146 3.77187 1.76405 0
M  V30 5141 H 460.743 2.98965 4.4331 0
M  V30 5142 H 461.086 1.3503 3.93793 0
M  V30 5143 H 461.619 2.7067 2.91518 0
M  V30 5144 H 458.358 5.68378 3.26537 0
M  V30 5145 H 457.878 4.2621 4.22025 0
M  V30 5146 H 459.557 4.85366 4.27819 0
M  V30 5147 N 459.689 -1.00246 1.21608 0
M  V30 5148 C 460.652 -2.07233 0.979133 0
M  V30 5149 C 461.652 -1.6072 -0.0508219 0
M  V30 5150 O 462.842 -1.73196 0.186712 0
M  V30 5151 C 459.974 -3.37546 0.477016 0
M  V30 5152 H 461.167 -2.29687 1.92831 0
M  V30 5153 H 458.72 -1.17261 1.03342 0
M  V30 5154 H 459.455 -3.20773 -0.476966 0
M  V30 5155 H 459.24 -3.72638 1.21997 0
M  V30 5156 H 460.73 -4.16285 0.331181 0
M  V30 5157 N 461.167 -1.02423 -1.1978 0
M  V30 5158 C 462.117 -0.571689 -2.20716 0
M  V30 5159 C 463.101 0.377077 -1.56419 0
M  V30 5160 O 464.293 0.198801 -1.7588 0
M  V30 5161 C 461.422 0.0808555 -3.43205 0
M  V30 5162 C 460.508 -0.890073 -4.14655 0
M  V30 5163 N 460.899 -2.05065 -4.62366 0
M  V30 5164 C 459.197 -0.71252 -4.40272 0
M  V30 5165 C 459.898 -2.66264 -5.17183 0
M  V30 5166 N 458.874 -1.94264 -5.07703 0
M  V30 5167 H 462.676 -1.45636 -2.55279 0
M  V30 5168 H 460.19 -0.890596 -1.35802 0
M  V30 5169 H 462.187 0.422654 -4.14752 0
M  V30 5170 H 460.847 0.961274 -3.10144 0
M  V30 5171 H 461.858 -2.43026 -4.57339 0
M  V30 5172 H 458.535 0.119199 -4.1733 0
M  V30 5173 H 459.925 -3.64526 -5.64421 0
M  V30 5174 N 462.645 1.35699 -0.801477 0
M  V30 5175 C 463.873 2.03157 -0.391768 0
M  V30 5176 C 464.288 1.60412 0.995668 0
M  V30 5177 O 463.645 0.799228 1.64069 0
M  V30 5178 C 463.696 3.58566 -0.459671 0
M  V30 5179 O 463.417 3.99756 -1.7924 0
M  V30 5180 C 464.918 4.4328 -0.0421205 0
M  V30 5181 H 462.138 0.651688 -0.159825 0
M  V30 5182 H 464.682 1.73426 -1.08368 0
M  V30 5183 H 462.837 3.86963 0.183939 0
M  V30 5184 H 463.251 4.94387 -1.75162 0
M  V30 5185 H 464.725 5.51821 -0.140754 0
M  V30 5186 H 465.202 4.27383 1.01196 0
M  V30 5187 H 465.808 4.20168 -0.658687 0
M  V30 5188 N 464.123 0.554532 1.47522 0
M  V30 5189 C 465.053 -0.182974 2.32782 0
M  V30 5190 C 466.034 -0.911377 1.43624 0
M  V30 5191 O 467.219 -0.892366 1.72483 0
M  V30 5192 C 464.349 -1.21513 3.25349 0
M  V30 5193 C 463.303 -0.603355 4.23726 0
M  V30 5194 C 462.629 -1.73995 5.05598 0
M  V30 5195 C 463.929 0.441121 5.20434 0
M  V30 5196 H 465.623 0.52882 2.94693 0
M  V30 5197 H 463.169 0.255759 1.41711 0
M  V30 5198 H 465.122 -1.73922 3.83835 0
M  V30 5199 H 463.846 -1.95683 2.61487 0
M  V30 5200 H 462.505 -0.10059 3.66462 0
M  V30 5201 H 462.153 -2.47063 4.38143 0
M  V30 5202 H 461.853 -1.3364 5.72201 0
M  V30 5203 H 463.377 -2.26735 5.66942 0
M  V30 5204 H 464.791 0.00319931 5.733 0
M  V30 5205 H 463.188 0.763402 5.95224 0
M  V30 5206 H 464.258 1.33799 4.66075 0
M  V30 5207 N 465.601 -1.54893 0.290851 0
M  V30 5208 C 466.85 -1.99111 -0.322113 0
M  V30 5209 C 467.163 -1.18283 -1.55784 0
M  V30 5210 O 468.369 -1.5272 -2.24475 0
M  V30 5211 C 466.825 -3.54442 -0.624438 0
M  V30 5212 C 466.433 -4.44066 0.592373 0
M  V30 5213 C 468.177 -4.07211 -1.19916 0
M  V30 5214 C 466.084 -5.90812 0.263762 0
M  V30 5215 H 465.014 -0.743712 -0.124133 0
M  V30 5216 H 467.665 -1.79132 0.39797 0
M  V30 5217 H 466.047 -3.70281 -1.40384 0
M  V30 5218 H 467.221 -4.39999 1.36886 0
M  V30 5219 H 465.536 -4.02015 1.08502 0
M  V30 5220 H 468.133 -5.14407 -1.45909 0
M  V30 5221 H 468.476 -3.57196 -2.13815 0
M  V30 5222 H 469.009 -3.94873 -0.481687 0
M  V30 5223 H 465.748 -6.44955 1.17105 0
M  V30 5224 H 465.268 -5.97911 -0.475655 0
M  V30 5225 H 466.947 -6.46852 -0.138354 0
M  V30 5226 N 467.08 -0.0183926 -1.57589 0
M  V30 5227 C 467.99 0.982943 -2.13015 0
M  V30 5228 C 469.006 1.36443 -1.07979 0
M  V30 5229 O 470.182 1.44802 -1.3998 0
M  V30 5230 C 467.247 2.25024 -2.63752 0
M  V30 5231 C 466.308 1.93018 -3.83461 0
M  V30 5232 C 465.541 3.13706 -4.31769 0
M  V30 5233 O 465.764 4.2601 -3.79305 0
M  V30 5234 O 464.698 2.96629 -5.23732 0
M  V30 5235 H 468.524 0.541709 -2.9883 0
M  V30 5236 H 466.109 0.201565 -1.48034 0
M  V30 5237 H 467.991 2.99441 -2.96502 0
M  V30 5238 H 466.666 2.68349 -1.81026 0
M  V30 5239 H 465.573 1.16019 -3.55655 0
M  V30 5240 H 466.906 1.54516 -4.67317 0
M  V30 5241 N 468.558 1.5553 0.254621 0
M  V30 5242 C 469.505 1.89666 1.31512 0
M  V30 5243 C 470.475 0.750057 1.482 0
M  V30 5244 O 471.66 1.00301 1.62309 0
M  V30 5245 C 468.8 2.19009 2.667 0
M  V30 5246 C 467.913 3.46435 2.58083 0
M  V30 5247 C 467.048 3.65386 3.85573 0
M  V30 5248 C 466.087 4.8644 3.71541 0
M  V30 5249 N 465.224 5.01952 4.90906 0
M  V30 5250 H 470.064 2.80109 1.017 0
M  V30 5251 H 467.601 1.38666 0.490938 0
M  V30 5252 H 469.559 2.34025 3.45381 0
M  V30 5253 H 468.189 1.31779 2.94676 0
M  V30 5254 H 467.241 3.39792 1.71013 0
M  V30 5255 H 468.553 4.35258 2.43622 0
M  V30 5256 H 467.707 3.80319 4.72697 0
M  V30 5257 H 466.446 2.74781 4.02922 0
M  V30 5258 H 465.451 4.71491 2.82801 0
M  V30 5259 H 466.676 5.78497 3.55694 0
M  V30 5260 H 464.622 4.14283 5.08631 0
M  V30 5261 H 464.539 5.84851 4.79046 0
M  V30 5262 H 465.807 5.21289 5.7955 0
M  V30 5263 N 470.036 -0.519951 1.48776 0
M  V30 5264 C 470.983 -1.62352 1.64044 0
M  V30 5265 C 471.953 -1.58945 0.482251 0
M  V30 5266 O 473.138 -1.77219 0.706971 0
M  V30 5267 C 470.278 -3.00579 1.69547 0
M  V30 5268 C 469.391 -3.14145 2.96541 0
M  V30 5269 C 468.526 -4.42991 2.93142 0
M  V30 5270 C 467.565 -4.50122 4.14797 0
M  V30 5271 N 466.702 -5.7037 4.09418 0
M  V30 5272 H 471.542 -1.48643 2.58281 0
M  V30 5273 H 469.079 -0.723516 1.28077 0
M  V30 5274 H 471.037 -3.80671 1.70719 0
M  V30 5275 H 469.667 -3.13036 0.787918 0
M  V30 5276 H 468.719 -2.27239 3.05068 0
M  V30 5277 H 470.031 -3.15275 3.86527 0
M  V30 5278 H 469.185 -5.31385 2.92772 0
M  V30 5279 H 467.924 -4.44398 2.00902 0
M  V30 5280 H 466.929 -3.60133 4.15433 0
M  V30 5281 H 468.154 -4.50445 5.08208 0
M  V30 5282 H 466.1 -5.72655 3.20004 0
M  V30 5283 H 466.017 -5.73036 4.93119 0
M  V30 5284 H 467.285 -6.61023 4.13121 0
M  V30 5285 N 471.514 -1.37532 -0.769588 0
M  V30 5286 C 472.461 -1.3347 -1.88293 0
M  V30 5287 C 473.431 -0.199891 -1.64893 0
M  V30 5288 O 474.616 -0.389594 -1.8678 0
M  V30 5289 C 471.756 -1.14968 -3.25387 0
M  V30 5290 C 470.869 -2.37698 -3.60727 0
M  V30 5291 C 470.004 -2.12051 -4.8704 0
M  V30 5292 C 469.043 -3.30636 -5.15117 0
M  V30 5293 N 468.18 -3.04527 -6.3262 0
M  V30 5294 H 473.02 -2.28658 -1.911 0
M  V30 5295 H 470.557 -1.13622 -0.934257 0
M  V30 5296 H 472.515 -1.02261 -4.04473 0
M  V30 5297 H 471.145 -0.234263 -3.21949 0
M  V30 5298 H 470.197 -2.61137 -2.76608 0
M  V30 5299 H 471.509 -3.26131 -3.77413 0
M  V30 5300 H 470.663 -1.96388 -5.74035 0
M  V30 5301 H 469.402 -1.20959 -4.72462 0
M  V30 5302 H 468.407 -3.46836 -4.26597 0
M  V30 5303 H 469.632 -4.22582 -5.31603 0
M  V30 5304 H 467.578 -2.16067 -6.19396 0
M  V30 5305 H 467.495 -3.86503 -6.49732 0
M  V30 5306 H 468.763 -2.92485 -7.22546 0
M  V30 5307 N 472.992 0.995999 -1.22138 0
M  V30 5308 C 473.939 2.08551 -0.988687 0
M  V30 5309 C 474.909 1.65864 0.0885021 0
M  V30 5310 O 476.094 1.90704 -0.0604589 0
M  V30 5311 C 473.234 3.40374 -0.569191 0
M  V30 5312 C 472.347 3.96421 -1.71681 0
M  V30 5313 C 471.482 5.1639 -1.2456 0
M  V30 5314 C 470.521 5.64567 -2.36497 0
M  V30 5315 N 469.658 6.75777 -1.90445 0
M  V30 5316 H 474.498 2.2779 -1.92135 0
M  V30 5317 H 472.035 1.1168 -0.957388 0
M  V30 5318 H 473.993 4.16068 -0.307166 0
M  V30 5319 H 472.623 3.21145 0.326462 0
M  V30 5320 H 471.675 3.17628 -2.09324 0
M  V30 5321 H 472.987 4.2816 -2.55891 0
M  V30 5322 H 472.141 5.99362 -0.940774 0
M  V30 5323 H 470.88 4.86266 -0.373662 0
M  V30 5324 H 469.885 4.80185 -2.67772 0
M  V30 5325 H 471.11 5.96716 -3.24202 0
M  V30 5326 H 469.056 6.47443 -1.05609 0
M  V30 5327 H 468.973 7.06818 -2.68223 0
M  V30 5328 H 470.241 7.62262 -1.63022 0
M  V30 5329 N 474.47 1.03057 1.19235 0
M  V30 5330 C 475.747 0.642608 1.84743 0
M  V30 5331 C 476.127 -0.878577 1.91948 0
M  V30 5332 O 475.475 -1.77597 1.43776 0
M  V30 5333 C 475.685 1.30665 3.23616 0
M  V30 5334 C 477.033 1.43098 3.9976 0
M  V30 5335 O 478.057 1.26396 3.3302 0
M  V30 5336 O 476.916 1.70223 5.19313 0
M  V30 5337 H 474.01 0.223573 0.796206 0
M  V30 5338 H 476.556 1.12883 1.26711 0
M  V30 5339 H 475.328 2.34544 3.13217 0
M  V30 5340 H 474.951 0.808405 3.89295 0
M  V30 5341 N 475.948 -1.35272 0.808662 0
M  V30 5342 C 477.196 -1.98316 0.389233 0
M  V30 5343 C 477.517 -1.64465 -1.04767 0
M  V30 5344 O 476.787 -0.928175 -1.72516 0
M  V30 5345 H 475.367 -0.733585 0.140935 0
M  V30 5346 H 478.029 -1.6515 1.03496 0
M  V30 5347 H 477.125 -3.08123 0.496631 0
M  V30 5348 N 477.426 -0.562348 -1.47226 0
M  V30 5349 C 478.373 0.182461 -2.30078 0
M  V30 5350 C 479.343 0.903503 -1.39377 0
M  V30 5351 O 480.528 0.898188 -1.68337 0
M  V30 5352 C 477.668 1.20322 -3.23445 0
M  V30 5353 C 476.781 0.487717 -4.29238 0
M  V30 5354 C 475.916 1.49422 -5.09752 0
M  V30 5355 C 474.955 0.763976 -6.07314 0
M  V30 5356 N 474.092 1.71755 -6.80768 0
M  V30 5357 H 478.932 -0.530169 -2.93246 0
M  V30 5358 H 476.469 -0.273276 -1.44539 0
M  V30 5359 H 478.427 1.80768 -3.76004 0
M  V30 5360 H 477.057 1.88382 -2.6213 0
M  V30 5361 H 476.109 -0.231374 -3.79696 0
M  V30 5362 H 477.421 -0.0841003 -4.98729 0
M  V30 5363 H 476.575 2.17206 -5.66486 0
M  V30 5364 H 475.314 2.09995 -4.40174 0
M  V30 5365 H 474.319 0.0722344 -5.49753 0
M  V30 5366 H 475.544 0.16391 -6.78902 0
M  V30 5367 H 473.49 2.31177 -6.13916 0
M  V30 5368 H 473.407 1.19802 -7.46447 0
M  V30 5369 H 474.675 2.38638 -7.42073 0
M  V30 5370 N 478.904 1.54736 -0.299062 0
M  V30 5371 C 480.181 1.92187 0.363802 0
M  V30 5372 C 480.561 1.22607 1.71845 0
M  V30 5373 O 479.909 0.361141 2.25628 0
M  V30 5374 C 480.119 3.45678 0.480377 0
M  V30 5375 C 481.467 4.17885 0.752147 0
M  V30 5376 O 482.491 3.51702 0.564264 0
M  V30 5377 O 481.35 5.35048 1.11294 0
M  V30 5378 H 478.444 0.801681 0.203066 0
M  V30 5379 H 480.99 1.66115 -0.346978 0
M  V30 5380 H 479.762 3.88443 -0.471999 0
M  V30 5381 H 479.385 3.77779 1.2397 0
M  V30 5382 N 480.382 0.0267497 1.57577 0
M  V30 5383 C 481.631 -0.651736 1.9088 0
M  V30 5384 C 481.944 -1.73427 0.904576 0
M  V30 5385 O 483.15 -2.46923 1.12877 0
M  V30 5386 C 481.606 -1.21048 3.38933 0
M  V30 5387 C 481.214 -0.161362 4.47709 0
M  V30 5388 C 482.958 -1.86562 3.81307 0
M  V30 5389 C 480.865 -0.731611 5.86857 0
M  V30 5390 H 479.795 -0.247198 0.712326 0
M  V30 5391 H 482.446 0.0916641 1.83271 0
M  V30 5392 H 480.828 -2.00542 3.41466 0
M  V30 5393 H 482.002 0.61094 4.56732 0
M  V30 5394 H 480.317 0.394877 4.14523 0
M  V30 5395 H 482.914 -2.30178 4.8262 0
M  V30 5396 H 483.257 -2.70735 3.16241 0
M  V30 5397 H 483.79 -1.13762 3.81186 0
M  V30 5398 H 480.529 0.0719329 6.55461 0
M  V30 5399 H 480.049 -1.47245 5.81445 0
M  V30 5400 H 481.728 -1.22208 6.35354 0
M  V30 5401 N 481.861 -1.55662 -0.24637 0
M  V30 5402 C 482.793 -1.86811 -1.32794 0
M  V30 5403 C 483.806 -0.754413 -1.44265 0
M  V30 5404 O 484.995 -1.03253 -1.45606 0
M  V30 5405 C 482.095 -2.0397 -2.70646 0
M  V30 5406 C 481.268 -3.34832 -2.81436 0
M  V30 5407 C 480.327 -3.41727 -4.00136 0
M  V30 5408 O 479.353 -4.14934 -3.89639 0
M  V30 5409 N 480.555 -2.71058 -5.1333 0
M  V30 5410 H 483.32 -2.80174 -1.06409 0
M  V30 5411 H 480.881 -1.55906 -0.43647 0
M  V30 5412 H 482.873 -2.05924 -3.48393 0
M  V30 5413 H 481.443 -1.1735 -2.89738 0
M  V30 5414 H 480.663 -3.4519 -1.90361 0
M  V30 5415 H 481.951 -4.21085 -2.85595 0
M  V30 5416 H 481.349 -2.11314 -5.2475 0
M  V30 5417 H 479.906 -2.78704 -5.89209 0
M  V30 5418 N 483.339 0.512053 -1.4905 0
M  V30 5419 C 484.269 1.62365 -1.67809 0
M  V30 5420 C 485.25 1.61737 -0.526809 0
M  V30 5421 O 486.435 1.78651 -0.761404 0
M  V30 5422 C 483.565 3.00895 -1.73435 0
M  V30 5423 C 482.519 3.16387 -2.88242 0
M  V30 5424 C 481.845 4.56157 -2.78971 0
M  V30 5425 C 483.145 2.97457 -4.29321 0
M  V30 5426 H 484.839 1.46921 -2.60873 0
M  V30 5427 H 482.385 0.705379 -1.2554 0
M  V30 5428 H 484.338 3.78549 -1.85145 0
M  V30 5429 H 483.062 3.17403 -0.769619 0
M  V30 5430 H 481.721 2.41155 -2.76116 0
M  V30 5431 H 481.369 4.69525 -1.8043 0
M  V30 5432 H 481.069 4.67465 -3.5602 0
M  V30 5433 H 482.593 5.35886 -2.92675 0
M  V30 5434 H 484.007 3.64888 -4.42187 0
M  V30 5435 H 482.404 3.20245 -5.07507 0
M  V30 5436 H 483.474 1.93692 -4.44535 0
M  V30 5437 N 484.817 1.37938 0.762283 0
M  V30 5438 C 486.045 1.36883 1.55147 0
M  V30 5439 C 486.46 -0.0435348 1.8875 0
M  V30 5440 O 485.817 -1.00786 1.52146 0
M  V30 5441 C 485.868 2.21624 2.85596 0
M  V30 5442 O 485.589 3.57358 2.5343 0
M  V30 5443 C 487.09 2.28653 3.7978 0
M  V30 5444 H 484.31 0.468521 0.480343 0
M  V30 5445 H 486.854 1.81404 0.944079 0
M  V30 5446 H 485.009 1.80588 3.42734 0
M  V30 5447 H 485.423 4.01883 3.37032 0
M  V30 5448 H 486.897 2.9225 4.68288 0
M  V30 5449 H 487.374 1.29767 4.19592 0
M  V30 5450 H 487.98 2.70043 3.28568 0
M  V30 5451 N 486.295 -0.989507 1.22664 0
M  V30 5452 C 487.544 -1.72375 1.04737 0
M  V30 5453 C 487.857 -1.91096 -0.417316 0
M  V30 5454 O 489.063 -2.6188 -0.716334 0
M  V30 5455 C 487.519 -3.10161 1.82561 0
M  V30 5456 C 487.127 -2.99358 3.333 0
M  V30 5457 C 488.871 -3.87607 1.73093 0
M  V30 5458 C 486.778 -4.32319 4.03552 0
M  V30 5459 H 485.708 -0.646326 0.388302 0
M  V30 5460 H 488.359 -1.10437 1.46546 0
M  V30 5461 H 486.741 -3.728 1.33552 0
M  V30 5462 H 487.915 -2.45863 3.89728 0
M  V30 5463 H 486.23 -2.35392 3.43481 0
M  V30 5464 H 488.827 -4.86025 2.22899 0
M  V30 5465 H 489.17 -4.10509 0.691976 0
M  V30 5466 H 489.703 -3.31652 2.19663 0
M  V30 5467 H 486.442 -4.14616 5.07714 0
M  V30 5468 H 485.962 -4.85714 3.51911 0
M  V30 5469 H 487.641 -5.01051 4.09337 0
M  V30 5470 N 487.773 -1.03688 -1.18687 0
M  V30 5471 C 489.05 -0.652397 -1.84399 0
M  V30 5472 C 489.43 0.868386 -1.92412 0
M  V30 5473 O 488.778 1.76832 -1.44716 0
M  V30 5474 C 488.988 -1.3238 -3.22919 0
M  V30 5475 C 490.336 -1.45216 -3.98996 0
M  V30 5476 O 491.36 -1.2816 -3.32345 0
M  V30 5477 O 490.219 -1.72975 -5.18403 0
M  V30 5478 H 487.313 -0.227793 -0.795009 0
M  V30 5479 H 489.859 -1.13553 -1.2611 0
M  V30 5480 H 488.631 -2.36202 -3.11968 0
M  V30 5481 H 488.254 -0.829039 -3.88861 0
M  V30 5482 N 489.251 1.34841 -0.815825 0
M  V30 5483 C 490.214 2.27959 -0.238185 0
M  V30 5484 C 491.214 1.49983 0.579816 0
M  V30 5485 O 492.404 1.69617 0.396953 0
M  V30 5486 C 489.536 3.34314 0.666876 0
M  V30 5487 H 490.729 2.80558 -1.05958 0
M  V30 5488 H 488.282 1.44852 -0.587156 0
M  V30 5489 H 489.017 2.86916 1.5116 0
M  V30 5490 H 488.802 3.92014 0.0819106 0
M  V30 5491 H 490.292 4.0379 1.06506 0
M  V30 5492 N 490.729 0.570148 1.46925 0
M  V30 5493 C 491.676 -0.170257 2.30171 0
M  V30 5494 C 492.646 -0.896099 1.39855 0
M  V30 5495 O 493.831 -0.889248 1.68811 0
M  V30 5496 C 490.971 -1.18605 3.24079 0
M  V30 5497 C 490.084 -0.464947 4.29491 0
M  V30 5498 C 489.219 -1.46716 5.10537 0
M  V30 5499 C 488.258 -0.731758 6.0771 0
M  V30 5500 N 487.395 -1.68142 6.81669 0
M  V30 5501 H 492.235 0.545713 2.92961 0
M  V30 5502 H 489.772 0.280938 1.44392 0
M  V30 5503 H 491.73 -1.78771 3.76957 0
M  V30 5504 H 490.36 -1.86989 2.63125 0
M  V30 5505 H 489.412 0.251506 3.79568 0
M  V30 5506 H 490.724 0.110548 4.98677 0
M  V30 5507 H 489.878 -2.14199 5.6763 0
M  V30 5508 H 488.617 -2.07658 4.41282 0
M  V30 5509 H 487.622 -0.0430787 5.49783 0
M  V30 5510 H 488.847 -0.127904 6.7898 0
M  V30 5511 H 486.793 -2.27918 6.15134 0
M  V30 5512 H 486.71 -1.15841 7.47072 0
M  V30 5513 H 487.978 -2.347 7.43328 0
M  V30 5514 N 492.207 -1.54576 0.307264 0
M  V30 5515 C 493.453 -2.0056 -0.300612 0
M  V30 5516 C 493.786 -1.1953 -1.53057 0
M  V30 5517 O 493.061 -0.27337 -1.92569 0
M  V30 5518 C 493.344 -3.54167 -0.650987 0
M  V30 5519 C 493.197 -4.45933 0.588539 0
M  V30 5520 C 494.516 -4.14645 -1.47506 0
M  V30 5521 H 491.635 -0.729075 -0.107788 0
M  V30 5522 H 494.277 -1.85286 0.420606 0
M  V30 5523 H 492.427 -3.67313 -1.26544 0
M  V30 5524 H 494.099 -4.44683 1.22697 0
M  V30 5525 H 492.342 -4.16274 1.22058 0
M  V30 5526 H 493.013 -5.51189 0.299153 0
M  V30 5527 H 495.489 -4.04973 -0.955821 0
M  V30 5528 H 494.365 -5.22269 -1.68899 0
M  V30 5529 H 494.626 -3.66921 -2.4662 0
M  V30 5530 N 493.685 -0.035106 -1.57561 0
M  V30 5531 C 494.617 0.973604 -2.07494 0
M  V30 5532 C 495.63 1.28504 -0.999534 0
M  V30 5533 O 496.819 1.24864 -1.27559 0
M  V30 5534 C 493.919 2.29945 -2.48955 0
M  V30 5535 C 493.092 2.1723 -3.79644 0
M  V30 5536 C 492.151 3.328 -4.07592 0
M  V30 5537 O 491.177 3.09418 -4.77754 0
M  V30 5538 N 492.379 4.56779 -3.58236 0
M  V30 5539 H 495.144 0.547525 -2.94656 0
M  V30 5540 H 492.705 0.151515 -1.61189 0
M  V30 5541 H 494.697 3.06097 -2.64739 0
M  V30 5542 H 493.267 2.64173 -1.67126 0
M  V30 5543 H 492.487 1.25768 -3.73599 0
M  V30 5544 H 493.775 2.05945 -4.65257 0
M  V30 5545 H 493.173 4.78668 -3.01485 0
M  V30 5546 H 491.73 5.30079 -3.79288 0
M  V30 5547 N 495.163 1.55791 0.238111 0
M  V30 5548 C 496.11 1.9105 1.29493 0
M  V30 5549 C 497.08 0.765733 1.47397 0
M  V30 5550 O 498.265 1.02017 1.61236 0
M  V30 5551 C 495.405 2.21826 2.64362 0
M  V30 5552 C 494.518 3.49153 2.54394 0
M  V30 5553 C 493.653 3.69455 3.81676 0
M  V30 5554 C 492.692 4.90353 3.66361 0
M  V30 5555 N 491.829 5.07131 4.85554 0
M  V30 5556 H 496.669 2.81172 0.987233 0
M  V30 5557 H 494.206 1.39179 0.476203 0
M  V30 5558 H 496.164 2.37675 3.4288 0
M  V30 5559 H 494.794 1.34897 2.93262 0
M  V30 5560 H 493.846 3.41587 1.67399 0
M  V30 5561 H 495.158 4.37818 2.38991 0
M  V30 5562 H 494.312 3.85311 4.68636 0
M  V30 5563 H 493.051 2.7904 3.99985 0
M  V30 5564 H 492.056 4.74464 2.77784 0
M  V30 5565 H 493.281 5.82237 3.49538 0
M  V30 5566 H 491.227 4.19654 5.04209 0
M  V30 5567 H 491.144 5.89899 4.72816 0
M  V30 5568 H 492.412 5.27407 5.73988 0
M  V30 5569 N 496.642 -0.504142 1.49319 0
M  V30 5570 C 497.867 -1.28729 1.62615 0
M  V30 5571 C 498.292 -1.85752 0.296309 0
M  V30 5572 O 497.65 -1.65704 -0.735649 0
M  V30 5573 C 497.698 -2.39561 2.69524 0
M  V30 5574 O 496.802 -3.43324 2.28478 0
M  V30 5575 H 496.143 -0.380172 0.544395 0
M  V30 5576 H 498.673 -0.603872 1.95485 0
M  V30 5577 H 498.683 -2.8537 2.91595 0
M  V30 5578 H 497.358 -1.97423 3.66056 0
M  V30 5579 H 495.935 -3.03455 2.16725 0
M  V30 5580 N 498.12 -1.38341 -0.754957 0
M  V30 5581 C 499.369 -1.33791 -1.5094 0
M  V30 5582 C 499.682 0.0699267 -1.95475 0
M  V30 5583 O 500.888 0.237956 -2.70455 0
M  V30 5584 C 499.344 -2.34934 -2.72643 0
M  V30 5585 C 498.952 -3.81332 -2.35138 0
M  V30 5586 C 500.696 -2.39425 -3.50536 0
M  V30 5587 C 498.603 -4.74164 -3.53444 0
M  V30 5588 H 497.533 -0.497314 -0.566741 0
M  V30 5589 H 500.184 -1.63888 -0.825403 0
M  V30 5590 H 498.566 -1.97878 -3.43017 0
M  V30 5591 H 499.74 -4.27319 -1.7244 0
M  V30 5592 H 498.055 -3.79946 -1.70382 0
M  V30 5593 H 500.652 -3.0598 -4.38498 0
M  V30 5594 H 500.995 -1.41278 -3.91594 0
M  V30 5595 H 501.528 -2.75274 -2.87174 0
M  V30 5596 H 498.267 -5.73501 -3.17453 0
M  V30 5597 H 497.787 -4.3287 -4.15191 0
M  V30 5598 H 499.466 -4.92111 -4.20043 0
M  V30 5599 N 499.598 0.982988 -1.23187 0
M  V30 5600 C 500.828 1.75666 -1.08743 0
M  V30 5601 C 501.236 1.85662 0.364195 0
M  V30 5602 O 500.579 1.33317 1.26382 0
M  V30 5603 C 500.641 3.20144 -1.63549 0
M  V30 5604 C 500.305 3.33665 -3.12277 0
M  V30 5605 C 501.302 3.20194 -4.096 0
M  V30 5606 C 498.987 3.58397 -3.51933 0
M  V30 5607 C 500.981 3.31256 -5.44563 0
M  V30 5608 C 498.668 3.69098 -4.87042 0
M  V30 5609 C 499.666 3.55537 -5.83166 0
M  V30 5610 O 499.354 3.65864 -7.1582 0
M  V30 5611 H 499.086 0.558194 -0.381307 0
M  V30 5612 H 501.64 1.24387 -1.63454 0
M  V30 5613 H 499.87 3.72659 -1.03256 0
M  V30 5614 H 501.559 3.79262 -1.4462 0
M  V30 5615 H 502.325 3.00987 -3.80305 0
M  V30 5616 H 498.204 3.68025 -2.77631 0
M  V30 5617 H 501.748 3.20588 -6.19572 0
M  V30 5618 H 497.645 3.87814 -5.16014 0
M  V30 5619 H 498.413 3.82675 -7.23534 0
M  V30 5620 N 501.076 1.04316 1.18135 0
M  V30 5621 C 502.024 0.630175 2.23901 0
M  V30 5622 C 503.018 -0.344254 1.65865 0
M  V30 5623 O 504.224 -0.211273 1.78756 0
M  V30 5624 H 500.599 0.185578 0.728742 0
M  V30 5625 H 502.57 1.53253 2.56039 0
M  V30 5626 C 501.319 0.011666 3.47698 0
M  V30 5627 H 500.642 0.752526 3.92654 0
M  V30 5628 H 502.082 -0.240046 4.2332 0
M  V30 5629 C 500.541 -1.23913 3.13285 0
M  V30 5630 O 501.071 -2.32959 3.27251 0
M  V30 5631 N 499.277 -1.13338 2.67587 0
M  V30 5632 H 498.824 -0.246006 2.56423 0
M  V30 5633 H 498.782 -1.97116 2.44934 0
M  V30 5634 N 502.554 -1.34406 0.822964 0
M  V30 5635 C 503.502 -2.31428 0.233165 0
M  V30 5636 C 504.496 -1.57404 -0.626118 0
M  V30 5637 O 505.702 -1.72402 -0.517453 0
M  V30 5638 H 502.077 -0.749863 0.0566557 0
M  V30 5639 H 504.048 -2.78699 1.06628 0
M  V30 5640 C 502.797 -3.42653 -0.590264 0
M  V30 5641 H 502.12 -3.99753 0.0616129 0
M  V30 5642 H 503.56 -4.12778 -0.969054 0
M  V30 5643 C 502.019 -2.87112 -1.76262 0
M  V30 5644 O 502.549 -2.81995 -2.8608 0
M  V30 5645 N 500.755 -2.43934 -1.57938 0
M  V30 5646 H 500.302 -2.48296 -0.686078 0
M  V30 5647 H 500.26 -2.07123 -2.36532 0
M  V30 5648 N 504.032 -0.577932 -1.46621 0
M  V30 5649 C 504.965 0.206312 -2.27265 0
M  V30 5650 C 505.943 0.901306 -1.35334 0
M  V30 5651 O 507.127 0.916151 -1.64739 0
M  V30 5652 C 504.254 1.29563 -3.1294 0
M  V30 5653 C 503.3 0.706981 -4.206 0
M  V30 5654 S 504.133 -0.462459 -5.33499 0
M  V30 5655 C 505.289 0.628171 -6.2274 0
M  V30 5656 H 505.522 -0.477961 -2.93433 0
M  V30 5657 H 503.055 -0.364715 -1.50031 0
M  V30 5658 H 505.013 1.91935 -3.62865 0
M  V30 5659 H 503.674 1.95183 -2.46095 0
M  V30 5660 H 502.867 1.52565 -4.80354 0
M  V30 5661 H 502.469 0.159022 -3.73662 0
M  V30 5662 H 504.761 1.51506 -6.60342 0
M  V30 5663 H 505.704 0.0674961 -7.08068 0
M  V30 5664 H 506.112 0.930167 -5.56784 0
M  V30 5665 N 505.51 1.54411 -0.315457 0
M  V30 5666 C 506.457 2.24048 0.554166 0
M  V30 5667 C 507.427 1.2283 1.11812 0
M  V30 5668 O 508.612 1.51491 1.15997 0
M  V30 5669 C 505.752 2.99574 1.71316 0
M  V30 5670 C 504.865 4.15594 1.17922 0
M  V30 5671 C 504 4.78669 2.30324 0
M  V30 5672 C 503.039 5.86807 1.74137 0
M  V30 5673 N 502.176 6.43777 2.8017 0
M  V30 5674 H 507.016 2.97964 -0.0462602 0
M  V30 5675 H 504.553 1.47059 -0.0346009 0
M  V30 5676 H 506.511 3.41604 2.39505 0
M  V30 5677 H 505.141 2.28008 2.285 0
M  V30 5678 H 504.193 3.78404 0.389136 0
M  V30 5679 H 505.505 4.93459 0.728012 0
M  V30 5680 H 504.659 5.23626 3.06433 0
M  V30 5681 H 503.398 4.00168 2.78778 0
M  V30 5682 H 502.403 5.41261 0.965236 0
M  V30 5683 H 503.628 6.67201 1.2657 0
M  V30 5684 H 501.574 5.68153 3.2793 0
M  V30 5685 H 501.491 7.17031 2.39588 0
M  V30 5686 H 502.759 6.9339 3.56132 0
M  V30 5687 N 506.988 0.0434614 1.5754 0
M  V30 5688 C 507.936 -0.951465 2.1225 0
M  V30 5689 C 508.93 -1.3274 1.05245 0
M  V30 5690 O 510.136 -1.30795 1.23663 0
M  V30 5691 H 506.511 -0.324667 0.678303 0
M  V30 5692 H 508.482 -0.464855 2.94757 0
M  V30 5693 C 507.231 -2.21972 2.67626 0
M  V30 5694 H 506.554 -1.93923 3.4962 0
M  V30 5695 H 507.994 -2.89765 3.09536 0
M  V30 5696 C 506.453 -2.95919 1.61038 0
M  V30 5697 O 506.983 -3.8857 1.01862 0
M  V30 5698 N 505.189 -2.58511 1.32741 0
M  V30 5699 H 504.736 -1.83244 1.81051 0
M  V30 5700 H 504.694 -3.08296 0.616531 0
M  V30 5701 N 508.466 -1.55915 -0.229846 0
M  V30 5702 C 509.743 -1.6932 -0.979295 0
M  V30 5703 C 510.123 -0.588321 -2.02736 0
M  V30 5704 O 509.471 0.40586 -2.24867 0
M  V30 5705 C 509.681 -3.10305 -1.59724 0
M  V30 5706 C 511.029 -3.6945 -2.09264 0
M  V30 5707 O 512.053 -3.13214 -1.69633 0
M  V30 5708 O 510.912 -4.68072 -2.82082 0
M  V30 5709 H 508.006 -0.689314 -0.456919 0
M  V30 5710 H 510.552 -1.68238 -0.222283 0
M  V30 5711 H 509.324 -3.82177 -0.840039 0
M  V30 5712 H 508.947 -3.1547 -2.42001 0
M  V30 5713 N 509.944 0.496216 -1.49584 0
M  V30 5714 C 511.174 1.27209 -1.62793 0
M  V30 5715 C 511.582 1.86799 -0.300476 0
M  V30 5716 O 510.925 1.68802 0.724674 0
M  V30 5717 C 510.987 2.43812 -2.64189 0
M  V30 5718 C 510.651 2.05055 -4.08414 0
M  V30 5719 C 511.648 1.58752 -4.9507 0
M  V30 5720 C 509.333 2.14543 -4.54177 0
M  V30 5721 C 511.327 1.22448 -6.25528 0
M  V30 5722 C 509.014 1.77851 -5.84647 0
M  V30 5723 C 510.012 1.31878 -6.70147 0
M  V30 5724 O 509.7 0.956834 -7.98185 0
M  V30 5725 H 509.432 0.391848 -0.550846 0
M  V30 5726 H 511.986 0.601712 -1.96389 0
M  V30 5727 H 510.216 3.13941 -2.25783 0
M  V30 5728 H 511.905 3.05829 -2.66877 0
M  V30 5729 H 512.671 1.50863 -4.60939 0
M  V30 5730 H 508.55 2.49277 -3.87791 0
M  V30 5731 H 512.094 0.864933 -6.92217 0
M  V30 5732 H 507.991 1.8539 -6.18305 0
M  V30 5733 H 508.759 1.08789 -8.11238 0
M  V30 5734 N 511.423 1.38739 0.74761 0
M  V30 5735 C 512.671 1.35007 1.50391 0
M  V30 5736 C 512.992 -0.0574274 1.94915 0
M  V30 5737 O 512.262 -1.00628 1.6808 0
M  V30 5738 H 510.842 0.496784 0.557866 0
M  V30 5739 H 513.504 1.73479 0.888319 0
M  V30 5740 H 512.6 2.00474 2.392 0
M  V30 5741 N 512.901 -0.976442 1.23707 0
M  V30 5742 C 514.126 -1.75875 1.09922 0
M  V30 5743 C 514.551 -1.84911 -0.34489 0
M  V30 5744 O 513.909 -1.31363 -1.24954 0
M  V30 5745 C 513.957 -3.16179 1.73388 0
M  V30 5746 O 513.061 -4.00124 0.99871 0
M  V30 5747 H 512.402 -0.540954 0.385052 0
M  V30 5748 H 514.932 -1.22546 1.6384 0
M  V30 5749 H 514.942 -3.66741 1.78788 0
M  V30 5750 H 513.617 -3.08917 2.78466 0
M  V30 5751 H 512.194 -3.58624 1.02193 0
M  V30 5752 N 514.379 -1.04941 -1.1758 0
M  V30 5753 C 515.627 -0.756492 -1.87408 0
M  V30 5754 C 515.948 0.718478 -1.81281 0
M  V30 5755 O 515.218 1.519 -1.23706 0
M  V30 5756 H 513.798 -0.276841 -0.693807 0
M  V30 5757 H 516.46 -1.32803 -1.42652 0
M  V30 5758 H 515.556 -1.06918 -2.93215 0
M  V30 5759 N 515.857 1.33968 -0.830081 0
M  V30 5760 C 517.085 2.0228 -0.434773 0
M  V30 5761 C 517.5 1.62487 0.961419 0
M  V30 5762 O 516.857 0.833849 1.62337 0
M  V30 5763 C 516.908 3.5751 -0.535625 0
M  V30 5764 O 516.629 3.95864 -1.87679 0
M  V30 5765 C 518.13 4.43091 -0.136137 0
M  V30 5766 H 515.35 0.648151 -0.173613 0
M  V30 5767 H 517.894 1.71089 -1.12022 0
M  V30 5768 H 516.049 3.87266 0.101817 0
M  V30 5769 H 516.463 4.9056 -1.85609 0
M  V30 5770 H 517.937 5.51398 -0.257772 0
M  V30 5771 H 518.414 4.29433 0.921076 0
M  V30 5772 H 519.02 4.18677 -0.747662 0
M  V30 5773 N 517.335 0.585699 1.46312 0
M  V30 5774 C 518.298 -0.135673 2.28798 0
M  V30 5775 C 519.298 -0.815988 1.38558 0
M  V30 5776 O 520.488 -0.667487 1.60904 0
M  V30 5777 C 517.62 -1.20163 3.1902 0
M  V30 5778 H 518.813 0.589257 2.94054 0
M  V30 5779 H 516.366 0.343794 1.52472 0
M  V30 5780 H 517.101 -1.95804 2.58517 0
M  V30 5781 H 516.886 -0.718282 3.85465 0
M  V30 5782 H 518.376 -1.70749 3.81096 0
M  V30 5783 N 518.813 -1.54241 0.323641 0
M  V30 5784 C 520.062 -1.9975 -0.279806 0
M  V30 5785 C 520.375 -1.2156 -1.5324 0
M  V30 5786 O 521.581 -1.57447 -2.21185 0
M  V30 5787 C 520.037 -3.55686 -0.549115 0
M  V30 5788 C 519.645 -4.4271 0.686432 0
M  V30 5789 C 521.389 -4.09663 -1.11251 0
M  V30 5790 C 519.296 -5.90119 0.389022 0
M  V30 5791 H 518.226 -0.746177 -0.10833 0
M  V30 5792 H 520.877 -1.78248 0.435877 0
M  V30 5793 H 519.259 -3.73176 -1.32499 0
M  V30 5794 H 520.433 -4.36996 1.46188 0
M  V30 5795 H 518.748 -3.99623 1.17005 0
M  V30 5796 H 521.345 -5.17386 -1.34965 0
M  V30 5797 H 521.688 -3.61651 -2.06191 0
M  V30 5798 H 522.221 -3.95806 -0.39782 0
M  V30 5799 H 518.96 -6.42326 1.30759 0
M  V30 5800 H 518.48 -5.98785 -0.348722 0
M  V30 5801 H 520.159 -6.47 -0.0011164 0
M  V30 5802 N 520.291 -0.0518155 -1.57515 0
M  V30 5803 C 521.241 0.932017 -2.0808 0
M  V30 5804 C 522.225 1.27141 -0.986098 0
M  V30 5805 O 523.417 1.25373 -1.24943 0
M  V30 5806 C 520.546 2.20665 -2.62986 0
M  V30 5807 C 519.632 1.89462 -3.79427 0
M  V30 5808 N 520.023 1.28621 -4.89173 0
M  V30 5809 C 518.321 2.19327 -3.88345 0
M  V30 5810 C 519.022 1.15062 -5.70207 0
M  V30 5811 N 517.998 1.65372 -5.17835 0
M  V30 5812 H 521.8 0.456964 -2.90326 0
M  V30 5813 H 519.314 0.152619 -1.61681 0
M  V30 5814 H 521.311 2.92044 -2.97516 0
M  V30 5815 H 519.971 2.68776 -1.8218 0
M  V30 5816 H 520.982 0.958341 -5.08956 0
M  V30 5817 H 517.659 2.69955 -3.18482 0
M  V30 5818 H 519.049 0.678243 -6.68468 0
M  V30 5819 N 521.769 1.56035 0.221574 0
M  V30 5820 C 523.18 1.69229 0.788567 0
M  V30 5821 C 523.531 0.653814 1.84986 0
M  V30 5822 O 522.656 -0.195065 2.15519 0
M  V30 5823 C 523.251 3.06809 1.43713 0
M  V30 5824 C 521.81 3.21858 1.95152 0
M  V30 5825 C 520.957 2.65155 0.811685 0
M  V30 5826 H 523.908 1.587 -0.00307894 0
M  V30 5827 H 523.929 3.02666 2.30594 0
M  V30 5828 H 523.441 3.82369 0.664475 0
M  V30 5829 H 521.542 2.51167 2.7522 0
M  V30 5830 H 521.655 4.29073 2.1315 0
M  V30 5831 H 520.019 2.23635 1.21899 0
M  V30 5832 H 520.802 3.43261 0.0516987 0
M  V30 5833 N 523.247 -0.488276 1.49845 0
M  V30 5834 C 524.179 -1.60539 1.63584 0
M  V30 5835 C 525.192 -1.5434 0.517972 0
M  V30 5836 O 526.381 -1.60041 0.790516 0
M  V30 5837 C 523.481 -2.99374 1.58835 0
M  V30 5838 C 522.654 -3.30624 2.86368 0
M  V30 5839 C 521.713 -4.4893 2.74496 0
M  V30 5840 O 520.739 -4.50085 3.48443 0
M  V30 5841 N 521.941 -5.49591 1.86894 0
M  V30 5842 H 524.706 -1.49176 2.59936 0
M  V30 5843 H 522.267 -0.67639 1.47094 0
M  V30 5844 H 524.259 -3.76459 1.48529 0
M  V30 5845 H 522.829 -3.04595 0.702892 0
M  V30 5846 H 522.049 -2.42314 3.1093 0
M  V30 5847 H 523.337 -3.48305 3.70892 0
M  V30 5848 H 522.735 -5.51467 1.26097 0
M  V30 5849 H 521.292 -6.25728 1.82503 0
M  V30 5850 N 524.725 -1.39134 -0.740242 0
M  V30 5851 C 525.953 -1.39334 -1.5295 0
M  V30 5852 C 526.368 0.0135008 -1.88795 0
M  V30 5853 O 525.725 0.983524 -1.5373 0
M  V30 5854 C 525.776 -2.2614 -2.82034 0
M  V30 5855 O 525.497 -3.61345 -2.47712 0
M  V30 5856 C 526.998 -2.34666 -3.76094 0
M  V30 5857 H 524.218 -0.476103 -0.472828 0
M  V30 5858 H 526.762 -1.82883 -0.9151 0
M  V30 5859 H 524.917 -1.86018 -3.39818 0
M  V30 5860 H 525.331 -4.07194 -3.30595 0
M  V30 5861 H 526.805 -2.99663 -4.63579 0
M  V30 5862 H 527.282 -1.36426 -4.17474 0
M  V30 5863 H 527.888 -2.75236 -3.2423 0
M  V30 5864 N 526.204 0.969867 -1.24223 0
M  V30 5865 C 527.452 1.70918 -1.0785 0
M  V30 5866 C 527.773 1.91186 0.383763 0
M  V30 5867 O 527.043 1.48806 1.27411 0
M  V30 5868 H 525.623 0.633334 -0.396103 0
M  V30 5869 H 528.285 1.16689 -1.56108 0
M  V30 5870 H 527.381 2.69455 -1.57482 0
M  V30 5871 N 527.682 1.05563 1.17022 0
M  V30 5872 C 528.592 0.670758 2.24807 0
M  V30 5873 C 529.608 -0.309865 1.71219 0
M  V30 5874 O 530.784 -0.161025 2.00755 0
M  V30 5875 C 527.849 0.055337 3.46656 0
M  V30 5876 C 526.91 1.08688 4.15314 0
M  V30 5877 C 526.143 0.500736 5.31346 0
M  V30 5878 O 526.366 -0.688718 5.66227 0
M  V30 5879 O 525.3 1.23683 5.89055 0
M  V30 5880 H 529.126 1.56914 2.60023 0
M  V30 5881 H 526.711 0.827428 1.24395 0
M  V30 5882 H 528.593 -0.286492 4.20425 0
M  V30 5883 H 527.268 -0.816638 3.13229 0
M  V30 5884 H 526.175 1.48077 3.43546 0
M  V30 5885 H 527.508 1.93014 4.52777 0
M  V30 5886 N 529.16 -1.33526 0.837174 0
M  V30 5887 C 530.09 -2.31764 0.284206 0
M  V30 5888 C 531.071 -1.58896 -0.607142 0
M  V30 5889 O 532.256 -1.86798 -0.531047 0
M  V30 5890 C 529.386 -3.43029 -0.542962 0
M  V30 5891 C 528.34 -4.27255 0.252451 0
M  V30 5892 C 527.666 -5.3012 -0.69836 0
M  V30 5893 C 528.966 -5.01229 1.46858 0
M  V30 5894 H 530.66 -2.78262 1.10502 0
M  V30 5895 H 528.206 -1.3378 0.532812 0
M  V30 5896 H 530.159 -4.1078 -0.940096 0
M  V30 5897 H 528.883 -2.95216 -1.39697 0
M  V30 5898 H 527.542 -3.61127 0.631124 0
M  V30 5899 H 527.19 -4.78564 -1.54872 0
M  V30 5900 H 526.89 -5.87353 -0.170274 0
M  V30 5901 H 528.414 -6.00737 -1.09305 0
M  V30 5902 H 529.828 -5.61756 1.14469 0
M  V30 5903 H 528.225 -5.68104 1.93333 0
M  V30 5904 H 529.295 -4.301 2.23924 0
M  V30 5905 N 530.638 -0.59345 -1.46 0
M  V30 5906 C 531.568 0.121192 -2.33185 0
M  V30 5907 C 532.549 0.872977 -1.4599 0
M  V30 5908 O 533.734 0.846321 -1.74789 0
M  V30 5909 C 530.864 1.12844 -3.28456 0
M  V30 5910 C 529.818 0.4908 -4.25177 0
M  V30 5911 C 529.144 1.60529 -5.10034 0
M  V30 5912 C 530.444 -0.578949 -5.19081 0
M  V30 5913 H 532.138 -0.606767 -2.93187 0
M  V30 5914 H 529.684 -0.293242 -1.40983 0
M  V30 5915 H 531.637 1.63684 -3.88311 0
M  V30 5916 H 530.361 1.88681 -2.66584 0
M  V30 5917 H 529.02 0.00339328 -3.666 0
M  V30 5918 H 528.668 2.35359 -4.44539 0
M  V30 5919 H 528.368 1.18422 -5.75543 0
M  V30 5920 H 529.892 2.11623 -5.72755 0
M  V30 5921 H 531.306 -0.155199 -5.7309 0
M  V30 5922 H 529.703 -0.920947 -5.92991 0
M  V30 5923 H 530.773 -1.46109 -4.62364 0
M  V30 5924 N 532.116 1.54067 -0.331816 0
M  V30 5925 C 533.079 2.23275 0.517768 0
M  V30 5926 C 534.079 1.22897 1.03697 0
M  V30 5927 O 535.269 1.47419 0.928084 0
M  V30 5928 C 532.401 2.94326 1.72004 0
M  V30 5929 H 533.594 2.99773 -0.0873507 0
M  V30 5930 H 531.147 1.56079 -0.0830042 0
M  V30 5931 H 531.882 2.21986 2.36417 0
M  V30 5932 H 531.667 3.67941 1.35507 0
M  V30 5933 H 533.157 3.47031 2.32291 0
M  V30 5934 N 533.594 0.0601682 1.57485 0
M  V30 5935 C 534.524 -0.90889 2.15085 0
M  V30 5936 C 535.505 -1.31838 1.07484 0
M  V30 5937 O 536.69 -1.3915 1.35466 0
M  V30 5938 C 533.82 -2.18059 2.7031 0
M  V30 5939 C 532.774 -1.91088 3.82974 0
M  V30 5940 C 532.1 -3.24789 4.24754 0
M  V30 5941 C 533.4 -1.22535 5.07723 0
M  V30 5942 H 535.094 -0.429093 2.96309 0
M  V30 5943 H 532.64 -0.204952 1.42534 0
M  V30 5944 H 534.593 -2.86258 3.09248 0
M  V30 5945 H 533.317 -2.6826 1.8629 0
M  V30 5946 H 531.976 -1.25297 3.44523 0
M  V30 5947 H 531.624 -3.72809 3.37672 0
M  V30 5948 H 531.324 -3.07538 5.00694 0
M  V30 5949 H 532.848 -3.94205 4.66299 0
M  V30 5950 H 534.262 -1.80783 5.4405 0
M  V30 5951 H 532.659 -1.1558 5.88864 0
M  V30 5952 H 533.729 -0.202692 4.84476 0
M  V30 5953 N 535.072 -1.5615 -0.213296 0
M  V30 5954 C 536.318 -1.79812 -0.937849 0
M  V30 5955 C 536.651 -0.631201 -1.83656 0
M  V30 5956 O 535.926 0.369165 -1.90964 0
M  V30 5957 C 536.209 -3.13613 -1.76972 0
M  V30 5958 C 536.062 -4.40766 -0.89695 0
M  V30 5959 C 537.381 -3.43931 -2.7459 0
M  V30 5960 H 534.5 -0.654138 -0.339518 0
M  V30 5961 H 537.142 -1.88877 -0.20623 0
M  V30 5962 H 535.292 -3.06015 -2.39347 0
M  V30 5963 H 536.964 -4.60392 -0.289306 0
M  V30 5964 H 535.207 -4.33326 -0.202756 0
M  V30 5965 H 535.878 -5.30843 -1.51358 0
M  V30 5966 H 538.354 -3.5171 -2.22349 0
M  V30 5967 H 537.23 -4.38706 -3.29891 0
M  V30 5968 H 537.491 -2.6651 -3.52739 0
M  V30 5969 N 536.55 0.480323 -1.50102 0
M  V30 5970 C 537.775 1.26126 -1.64642 0
M  V30 5971 C 538.2 1.85257 -0.325823 0
M  V30 5972 O 537.558 1.66854 0.709194 0
M  V30 5973 C 537.606 2.35243 -2.73301 0
M  V30 5974 O 536.71 3.39646 -2.33911 0
M  V30 5975 H 536.051 0.371463 -0.550374 0
M  V30 5976 H 538.581 0.572696 -1.96421 0
M  V30 5977 H 538.591 2.80695 -2.96098 0
M  V30 5978 H 537.266 1.91574 -3.6915 0
M  V30 5979 H 535.843 2.99969 -2.21525 0
M  V30 5980 N 538.028 1.39524 0.732853 0
M  V30 5981 C 539.256 1.40143 1.52209 0
M  V30 5982 C 539.671 -0.00348836 1.888 0
M  V30 5983 O 539.028 -0.975357 1.5425 0
M  V30 5984 C 539.079 2.27632 2.8083 0
M  V30 5985 O 538.8 3.62654 2.45792 0
M  V30 5986 C 540.301 2.36658 3.74844 0
M  V30 5987 H 537.521 0.478604 0.470297 0
M  V30 5988 H 540.065 1.83366 0.905388 0
M  V30 5989 H 538.22 1.87818 3.38826 0
M  V30 5990 H 538.634 4.08941 3.28431 0
M  V30 5991 H 540.108 3.02118 4.61984 0
M  V30 5992 H 540.585 1.38638 4.16745 0
M  V30 5993 H 541.191 2.76951 3.22766 0
M  V30 5994 N 539.506 -0.963266 1.24736 0
M  V30 5995 C 540.917 -1.52145 1.08207 0
M  V30 5996 C 541.268 -1.93142 -0.345061 0
M  V30 5997 O 540.393 -1.77769 -1.23399 0
M  V30 5998 C 540.988 -2.76486 1.95808 0
M  V30 5999 C 539.547 -3.28646 1.8349 0
M  V30 6000 C 538.694 -2.01529 1.90476 0
M  V30 6001 H 541.645 -0.781083 1.38148 0
M  V30 6002 H 541.666 -3.49986 1.49297 0
M  V30 6003 H 541.178 -2.46617 2.99669 0
M  V30 6004 H 539.279 -3.63357 0.824787 0
M  V30 6005 H 539.392 -3.97246 2.67829 0
M  V30 6006 H 537.756 -2.16442 1.34258 0
M  V30 6007 H 538.539 -1.7402 2.95926 0
M  V30 6008 N 540.985 -1.06182 -1.16461 0
M  V30 6009 C 542.21 -0.798599 -1.91408 0
M  V30 6010 C 542.635 0.640987 -1.76842 0
M  V30 6011 O 541.993 1.44652 -1.09296 0
M  V30 6012 C 542.041 -1.19665 -3.40165 0
M  V30 6013 O 541.145 -0.334768 -4.11039 0
M  V30 6014 H 540.486 -0.291961 -0.596368 0
M  V30 6015 H 543.016 -1.41732 -1.47557 0
M  V30 6016 H 543.026 -1.16772 -3.90933 0
M  V30 6017 H 541.701 -2.24526 -3.50087 0
M  V30 6018 H 540.278 -0.425168 -3.70468 0
M  V30 6019 N 542.463 1.3308 -0.844243 0
M  V30 6020 C 543.693 2.01515 -0.455541 0
M  V30 6021 C 544.101 1.63655 0.949406 0
M  V30 6022 O 543.444 0.84848 1.62931 0
M  V30 6023 C 543.506 3.55967 -0.502801 0
M  V30 6024 C 543.17 4.17222 -1.86481 0
M  V30 6025 C 544.167 4.36205 -2.8288 0
M  V30 6026 C 541.852 4.53528 -2.15911 0
M  V30 6027 C 543.846 4.90649 -4.06869 0
M  V30 6028 C 541.533 5.07679 -3.40155 0
M  V30 6029 C 542.531 5.26186 -4.35451 0
M  V30 6030 O 542.219 5.79183 -5.57496 0
M  V30 6031 H 541.951 0.65199 -0.178565 0
M  V30 6032 H 544.505 1.70867 -1.1399 0
M  V30 6033 H 542.735 3.85965 0.23836 0
M  V30 6034 H 544.424 4.05688 -0.131169 0
M  V30 6035 H 545.19 4.085 -2.61444 0
M  V30 6036 H 541.069 4.38414 -1.42528 0
M  V30 6037 H 544.613 5.0501 -4.81259 0
M  V30 6038 H 540.51 5.34815 -3.61446 0
M  V30 6039 H 541.278 5.97591 -5.5931 0
M  V30 6040 N 543.941 0.601185 1.45683 0
M  V30 6041 C 545.218 0.0261659 1.95582 0
M  V30 6042 C 545.598 -1.4399 1.5437 0
M  V30 6043 O 544.946 -2.13919 0.80318 0
M  V30 6044 C 545.156 0.217557 3.48321 0
M  V30 6045 C 546.504 0.0950076 4.24494 0
M  V30 6046 O 547.528 0.147345 3.55895 0
M  V30 6047 O 546.387 -0.025261 5.46494 0
M  V30 6048 H 543.481 -0.0393688 0.826062 0
M  V30 6049 H 546.027 0.670798 1.55879 0
M  V30 6050 H 544.799 1.23601 3.71266 0
M  V30 6051 H 544.422 -0.46264 3.94899 0
M  V30 6052 N 545.419 -1.53889 0.339982 0
M  V30 6053 C 546.665 -2.01152 -0.258003 0
M  V30 6054 C 546.998 -1.22749 -1.50487 0
M  V30 6055 O 546.273 -0.314156 -1.91946 0
M  V30 6056 C 546.556 -3.55468 -0.575717 0
M  V30 6057 C 546.409 -4.44584 0.682996 0
M  V30 6058 C 547.728 -4.1768 -1.38677 0
M  V30 6059 H 544.847 -0.731198 -0.0922992 0
M  V30 6060 H 547.489 -1.84352 0.459814 0
M  V30 6061 H 545.639 -3.69914 -1.18725 0
M  V30 6062 H 547.311 -4.41981 1.32102 0
M  V30 6063 H 545.554 -4.13592 1.3086 0
M  V30 6064 H 546.225 -5.5043 0.416001 0
M  V30 6065 H 548.701 -4.0691 -0.869705 0
M  V30 6066 H 547.577 -5.25734 -1.57783 0
M  V30 6067 H 547.838 -3.72069 -2.38782 0
M  V30 6068 N 546.897 -0.0685191 -1.57451 0
M  V30 6069 C 548.127 0.609577 -1.97402 0
M  V30 6070 C 548.535 1.63882 -0.945489 0
M  V30 6071 O 547.878 1.8354 0.0766052 0
M  V30 6072 C 547.94 1.3385 -3.33653 0
M  V30 6073 C 547.604 0.463103 -4.54648 0
M  V30 6074 C 548.601 -0.277964 -5.19156 0
M  V30 6075 C 546.286 0.388941 -5.00792 0
M  V30 6076 C 548.28 -1.08145 -6.28159 0
M  V30 6077 C 545.967 -0.418217 -6.09667 0
M  V30 6078 C 546.965 -1.15208 -6.73213 0
M  V30 6079 O 546.653 -1.94594 -7.79993 0
M  V30 6080 H 546.385 0.170197 -0.654224 0
M  V30 6081 H 548.939 -0.13647 -2.04946 0
M  V30 6082 H 547.169 2.13055 -3.22714 0
M  V30 6083 H 548.858 1.90851 -3.58233 0
M  V30 6084 H 549.624 -0.230241 -4.84453 0
M  V30 6085 H 545.503 0.949769 -4.5111 0
M  V30 6086 H 549.047 -1.65476 -6.7769 0
M  V30 6087 H 544.944 -0.467515 -6.43805 0
M  V30 6088 H 545.712 -1.8699 -7.96854 0
M  V30 6089 N 548.375 1.56261 0.205012 0
M  V30 6090 C 549.786 1.70056 0.770574 0
M  V30 6091 C 550.137 0.673398 1.84282 0
M  V30 6092 O 549.262 -0.172196 2.15714 0
M  V30 6093 C 549.857 3.08316 1.40451 0
M  V30 6094 C 548.416 3.2391 1.91727 0
M  V30 6095 C 547.563 2.66001 0.783516 0
M  V30 6096 H 550.514 1.58688 -0.019911 0
M  V30 6097 H 550.535 3.05094 2.27371 0
M  V30 6098 H 550.047 3.83053 0.623882 0
M  V30 6099 H 548.148 2.54072 2.7254 0
M  V30 6100 H 548.261 4.3131 2.08588 0
M  V30 6101 H 546.625 2.24915 1.19521 0
M  V30 6102 H 547.408 3.43297 0.0152883 0
M  V30 6103 N 549.853 -0.472356 1.50355 0
M  V30 6104 C 551.1 -1.22453 1.61281 0
M  V30 6105 C 551.428 -1.91972 0.31256 0
M  V30 6106 O 550.683 -1.82696 -0.701475 0
M  V30 6107 C 550.982 -2.29257 2.74182 0
M  V30 6108 C 550.648 -1.76999 4.14708 0
M  V30 6109 C 549.31 -1.62467 4.52944 0
M  V30 6110 C 551.662 -1.38215 5.0254 0
M  V30 6111 C 548.99 -1.07574 5.76754 0
M  V30 6112 C 551.342 -0.847638 6.26895 0
M  V30 6113 C 550.006 -0.688946 6.63935 0
M  V30 6114 H 549.276 -0.448087 0.590168 0
M  V30 6115 H 551.923 -0.520744 1.84284 0
M  V30 6116 H 550.228 -3.05538 2.45263 0
M  V30 6117 H 551.925 -2.87212 2.7984 0
M  V30 6118 H 548.515 -1.89276 3.84542 0
M  V30 6119 H 552.699 -1.48276 4.73633 0
M  V30 6120 H 547.955 -0.940237 6.04127 0
M  V30 6121 H 552.129 -0.538455 6.94315 0
M  V30 6122 H 549.756 -0.261435 7.5975 0
M  V30 6123 N 551.331 -1.39911 -0.725443 0
M  V30 6124 C 552.264 -1.33788 -1.84867 0
M  V30 6125 C 553.242 -0.209907 -1.61239 0
M  V30 6126 O 554.426 -0.391943 -1.8438 0
M  V30 6127 C 551.553 -1.07975 -3.21028 0
M  V30 6128 C 550.599 -2.23092 -3.635 0
M  V30 6129 S 551.432 -3.85431 -3.71757 0
M  V30 6130 C 552.588 -3.61862 -5.10692 0
M  V30 6131 H 552.821 -2.28848 -1.89779 0
M  V30 6132 H 550.354 -1.26079 -0.891254 0
M  V30 6133 H 552.312 -0.937669 -3.99647 0
M  V30 6134 H 550.973 -0.145865 -3.13761 0
M  V30 6135 H 550.166 -2.00647 -4.62338 0
M  V30 6136 H 549.768 -2.33553 -2.92112 0
M  V30 6137 H 552.06 -3.19719 -5.97316 0
M  V30 6138 H 553.003 -4.60196 -5.38169 0
M  V30 6139 H 553.411 -2.95757 -4.8082 0
M  V30 6140 N 552.809 0.956637 -1.25245 0
M  V30 6141 C 554.039 1.7332 -1.12445 0
M  V30 6142 C 554.447 1.86392 0.324732 0
M  V30 6143 O 553.79 1.35967 1.23526 0
M  V30 6144 C 553.852 3.16603 -1.70303 0
M  V30 6145 C 553.516 3.26966 -3.19284 0
M  V30 6146 C 554.513 3.11434 -4.16299 0
M  V30 6147 C 552.198 3.50851 -3.59456 0
M  V30 6148 C 554.192 3.1963 -5.51467 0
M  V30 6149 C 551.879 3.58684 -4.94761 0
M  V30 6150 C 552.877 3.43087 -5.90576 0
M  V30 6151 O 552.565 3.50598 -7.2342 0
M  V30 6152 H 552.297 0.549981 -0.393061 0
M  V30 6153 H 554.851 1.20892 -1.66055 0
M  V30 6154 H 553.081 3.70385 -1.11138 0
M  V30 6155 H 554.77 3.76109 -1.52632 0
M  V30 6156 H 555.536 2.92853 -3.86604 0
M  V30 6157 H 551.415 3.62053 -2.85375 0
M  V30 6158 H 554.959 3.07373 -6.26233 0
M  V30 6159 H 550.856 3.76782 -5.24124 0
M  V30 6160 H 551.624 3.67242 -7.31489 0
M  V30 6161 N 554.287 1.06798 1.15896 0
M  V30 6162 C 555.535 0.786211 1.8618 0
M  V30 6163 C 555.856 -0.689547 1.82401 0
M  V30 6164 O 555.126 -1.49913 1.26107 0
M  V30 6165 H 553.706 0.287843 0.689315 0
M  V30 6166 H 556.368 1.35055 1.40521 0
M  V30 6167 H 555.464 1.1157 2.91477 0
M  V30 6168 N 555.766 -1.3263 0.851289 0
M  V30 6169 C 556.699 -2.26952 0.238318 0
M  V30 6170 C 557.677 -1.50243 -0.621757 0
M  V30 6171 O 558.861 -1.79378 -0.579298 0
M  V30 6172 C 555.988 -3.32124 -0.664178 0
M  V30 6173 C 555.034 -4.26325 0.122067 0
M  V30 6174 S 555.867 -5.14404 1.48824 0
M  V30 6175 C 557.023 -6.231 0.591372 0
M  V30 6176 H 557.256 -2.78594 1.03791 0
M  V30 6177 H 554.789 -1.4011 0.648731 0
M  V30 6178 H 556.747 -3.93197 -1.17924 0
M  V30 6179 H 555.408 -2.79273 -1.43755 0
M  V30 6180 H 554.601 -5.00821 -0.565181 0
M  V30 6181 H 554.203 -3.69652 0.568602 0
M  V30 6182 H 556.495 -6.77187 -0.205762 0
M  V30 6183 H 557.438 -6.95936 1.30687 0
M  V30 6184 H 557.846 -5.64252 0.167206 0
M  V30 6185 N 557.244 -0.608902 -1.45362 0
M  V30 6186 C 558.469 -0.10921 -2.07112 0
M  V30 6187 C 558.894 1.19779 -1.45033 0
M  V30 6188 O 558.252 1.72961 -0.543527 0
M  V30 6189 C 558.3 0.0155745 -3.60597 0
M  V30 6190 O 557.404 1.06546 -3.98399 0
M  V30 6191 H 556.745 -0.0746619 -0.659789 0
M  V30 6192 H 559.275 -0.839283 -1.86594 0
M  V30 6193 H 559.285 0.213364 -4.07442 0
M  V30 6194 H 557.96 -0.938765 -4.05167 0
M  V30 6195 H 556.537 0.844024 -3.63223 0
M  V30 6196 N 558.722 1.53707 -0.348139 0
M  V30 6197 C 559.67 2.26671 0.521808 0
M  V30 6198 C 560.664 1.28988 1.09811 0
M  V30 6199 O 561.87 1.4668 1.04332 0
M  V30 6200 H 558.245 0.728387 0.186968 0
M  V30 6201 H 560.216 2.98176 -0.115563 0
M  V30 6202 C 558.965 3.05591 1.6586 0
M  V30 6203 H 558.288 3.80589 1.22443 0
M  V30 6204 H 559.728 3.59851 2.24239 0
M  V30 6205 C 558.187 2.15366 2.59073 0
M  V30 6206 O 558.717 1.7528 3.61441 0
M  V30 6207 N 556.923 1.80352 2.27863 0
M  V30 6208 H 556.47 2.13149 1.44656 0
M  V30 6209 H 556.428 1.20268 2.90488 0
M  V30 6210 N 560.2 0.0768682 1.57412 0
M  V30 6211 C 561.11 -0.903207 2.16516 0
M  V30 6212 C 562.126 -1.32341 1.12968 0
M  V30 6213 O 563.302 -1.39507 1.45258 0
M  V30 6214 C 560.367 -2.1508 2.71922 0
M  V30 6215 C 559.428 -1.78653 3.90361 0
M  V30 6216 C 558.661 -2.97465 4.43114 0
M  V30 6217 O 558.884 -4.11638 3.94854 0
M  V30 6218 O 557.818 -2.76987 5.3438 0
M  V30 6219 H 561.644 -0.430427 3.00634 0
M  V30 6220 H 559.229 -0.146485 1.4868 0
M  V30 6221 H 561.111 -2.8823 3.07411 0
M  V30 6222 H 559.786 -2.61446 1.9086 0
M  V30 6223 H 558.693 -1.0274 3.59716 0
M  V30 6224 H 560.026 -1.37066 4.7273 0
M  V30 6225 N 561.678 -1.56367 -0.196722 0
M  V30 6226 C 562.588 -1.97617 -1.2643 0
M  V30 6227 C 563.604 -0.883598 -1.49895 0
M  V30 6228 O 564.78 -1.18921 -1.62541 0
M  V30 6229 C 561.845 -2.30595 -2.58895 0
M  V30 6230 C 560.906 -3.53551 -2.43516 0
M  V30 6231 C 560.139 -3.84946 -3.69665 0
M  V30 6232 O 560.362 -3.17655 -4.73763 0
M  V30 6233 O 559.296 -4.78379 -3.65291 0
M  V30 6234 H 563.122 -2.88648 -0.944233 0
M  V30 6235 H 560.707 -1.43901 -0.401592 0
M  V30 6236 H 562.589 -2.52889 -3.37083 0
M  V30 6237 H 561.264 -1.42732 -2.90533 0
M  V30 6238 H 560.171 -3.36507 -1.63445 0
M  V30 6239 H 561.504 -4.41875 -2.16812 0
M  V30 6240 N 563.156 0.464375 -1.50603 0
M  V30 6241 C 564.386 1.23727 -1.65454 0
M  V30 6242 C 564.794 1.86119 -0.340032 0
M  V30 6243 O 564.137 1.70301 0.688706 0
M  V30 6244 C 564.199 2.38153 -2.69301 0
M  V30 6245 C 563.863 1.96345 -4.12671 0
M  V30 6246 C 564.86 1.48215 -4.98326 0
M  V30 6247 C 562.545 2.04861 -4.58625 0
M  V30 6248 C 564.539 1.09152 -6.27985 0
M  V30 6249 C 562.226 1.65409 -5.88288 0
M  V30 6250 C 563.224 1.17634 -6.72794 0
M  V30 6251 O 562.912 0.787312 -8.00035 0
M  V30 6252 H 562.644 0.380075 -0.559034 0
M  V30 6253 H 565.198 0.559919 -1.97621 0
M  V30 6254 H 563.428 3.09081 -2.32392 0
M  V30 6255 H 565.117 3.00099 -2.73304 0
M  V30 6256 H 565.883 1.41052 -4.64036 0
M  V30 6257 H 561.762 2.40996 -3.92991 0
M  V30 6258 H 565.306 0.717909 -6.93896 0
M  V30 6259 H 561.203 1.72233 -6.22098 0
M  V30 6260 H 561.971 0.915567 -8.13363 0
M  V30 6261 N 564.634 1.40294 0.718013 0
M  V30 6262 C 565.582 1.40536 1.85344 0
M  V30 6263 C 566.576 0.286192 1.66965 0
M  V30 6264 O 567.782 0.457105 1.74099 0
M  V30 6265 H 564.157 0.439236 0.61039 0
M  V30 6266 H 566.128 2.36275 1.82255 0
M  V30 6267 C 564.877 1.28245 3.23185 0
M  V30 6268 H 564.2 2.1364 3.37932 0
M  V30 6269 H 565.64 1.32474 4.02774 0
M  V30 6270 C 564.099 -0.0075503 3.36899 0
M  V30 6271 O 564.629 -0.971391 3.89778 0
M  V30 6272 N 562.835 -0.0762479 2.905 0
M  V30 6273 H 562.382 0.708819 2.47656 0
M  V30 6274 H 562.34 -0.938846 3.00055 0
M  V30 6275 N 566.112 -0.949982 1.2575 0
M  V30 6276 C 567.059 -2.04738 1.06541 0
M  V30 6277 C 568.029 -1.66078 -0.0268818 0
M  V30 6278 O 569.214 -1.90348 0.131196 0
M  V30 6279 C 566.354 -3.38027 0.695127 0
M  V30 6280 C 565.467 -3.89776 1.86276 0
M  V30 6281 C 564.602 -5.11411 1.4364 0
M  V30 6282 C 563.641 -5.554 2.57287 0
M  V30 6283 N 562.778 -6.68244 2.15395 0
M  V30 6284 H 567.618 -2.20502 2.00457 0
M  V30 6285 H 565.155 -1.0805 0.998178 0
M  V30 6286 H 567.113 -4.14641 0.461375 0
M  V30 6287 H 565.743 -3.22135 -0.207046 0
M  V30 6288 H 564.795 -3.0964 2.20969 0
M  V30 6289 H 566.107 -4.18368 2.71606 0
M  V30 6290 H 565.261 -5.95457 1.16257 0
M  V30 6291 H 564 -4.84545 0.553879 0
M  V30 6292 H 563.005 -4.69916 2.85409 0
M  V30 6293 H 564.23 -5.84272 3.46125 0
M  V30 6294 H 562.176 -6.43078 1.29565 0
M  V30 6295 H 562.093 -6.96377 2.94272 0
M  V30 6296 H 563.361 -7.55687 1.91201 0
M  V30 6297 N 567.59 -1.07411 -1.15328 0
M  V30 6298 C 568.52 -0.716472 -2.22236 0
M  V30 6299 C 569.501 0.296373 -1.67498 0
M  V30 6300 O 570.686 0.168989 -1.93463 0
M  V30 6301 C 567.816 -0.114142 -3.47112 0
M  V30 6302 C 566.77 -1.05421 -4.14814 0
M  V30 6303 C 566.096 -0.314604 -5.33774 0
M  V30 6304 C 567.396 -2.38808 -4.64508 0
M  V30 6305 H 569.09 -1.61029 -2.52408 0
M  V30 6306 H 566.636 -0.775702 -1.21321 0
M  V30 6307 H 568.589 0.148001 -4.2114 0
M  V30 6308 H 567.313 0.814755 -3.16274 0
M  V30 6309 H 565.972 -1.30128 -3.42728 0
M  V30 6310 H 565.62 0.617772 -4.99192 0
M  V30 6311 H 565.32 -0.941209 -5.80013 0
M  V30 6312 H 566.844 -0.0602747 -6.1057 0
M  V30 6313 H 568.258 -2.18424 -5.3006 0
M  V30 6314 H 566.655 -2.97069 -5.21412 0
M  V30 6315 H 567.725 -3.01067 -3.80114 0
M  V30 6316 N 569.068 1.32177 -0.85831 0
M  V30 6317 C 570.296 2.01313 -0.477582 0
M  V30 6318 C 570.711 1.6449 0.926736 0
M  V30 6319 O 570.068 0.868096 1.60531 0
M  V30 6320 C 570.119 3.56293 -0.611337 0
M  V30 6321 O 569.84 3.91794 -1.96034 0
M  V30 6322 C 571.341 4.42702 -0.230093 0
M  V30 6323 H 568.561 0.644323 -0.187322 0
M  V30 6324 H 571.105 1.68674 -1.15626 0
M  V30 6325 H 569.26 3.87395 0.0196494 0
M  V30 6326 H 569.674 4.86513 -1.95973 0
M  V30 6327 H 571.148 5.50727 -0.374674 0
M  V30 6328 H 571.625 4.3129 0.829779 0
M  V30 6329 H 572.231 4.16997 -0.836302 0
M  V30 6330 N 570.547 0.616602 1.45037 0
M  V30 6331 C 571.457 -0.0985401 2.34393 0
M  V30 6332 C 572.473 -0.850971 1.51771 0
M  V30 6333 O 573.649 -0.806521 1.84546 0
M  V30 6334 C 570.714 -1.07748 3.29532 0
M  V30 6335 C 569.775 -0.326022 4.2806 0
M  V30 6336 C 569.008 -1.25833 5.18654 0
M  V30 6337 O 569.231 -2.49652 5.12864 0
M  V30 6338 O 568.165 -0.750512 5.97203 0
M  V30 6339 H 571.991 0.636016 2.96966 0
M  V30 6340 H 569.576 0.376832 1.44569 0
M  V30 6341 H 571.458 -1.64107 3.88133 0
M  V30 6342 H 570.133 -1.79291 2.69512 0
M  V30 6343 H 569.04 0.280253 3.73049 0
M  V30 6344 H 570.373 0.349091 4.9096 0
M  V30 6345 N 572.025 -1.5352 0.356285 0
M  V30 6346 C 573.302 -1.93405 -0.292223 0
M  V30 6347 C 573.682 -1.28901 -1.67176 0
M  V30 6348 O 573.03 -0.444632 -2.24132 0
M  V30 6349 C 573.24 -3.47223 -0.35175 0
M  V30 6350 C 574.588 -4.20389 -0.596534 0
M  V30 6351 O 575.612 -3.53554 -0.433344 0
M  V30 6352 O 574.471 -5.3881 -0.913589 0
M  V30 6353 H 571.565 -0.808666 -0.173172 0
M  V30 6354 H 574.111 -1.64713 0.408391 0
M  V30 6355 H 572.883 -3.86423 0.615841 0
M  V30 6356 H 572.506 -3.8212 -1.09864 0
M  V30 6357 N 573.503 -0.0852151 -1.57369 0
M  V30 6358 C 574.45 0.877268 -2.13478 0
M  V30 6359 C 575.42 1.28642 -1.05073 0
M  V30 6360 O 576.605 1.36992 -1.32808 0
M  V30 6361 C 573.745 2.13464 -2.71159 0
M  V30 6362 C 572.858 1.77691 -3.93764 0
M  V30 6363 C 571.993 2.98139 -4.39643 0
M  V30 6364 C 571.032 2.58447 -5.54862 0
M  V30 6365 N 570.169 3.71698 -5.95639 0
M  V30 6366 H 575.009 0.391933 -2.95411 0
M  V30 6367 H 572.546 0.181796 -1.45972 0
M  V30 6368 H 574.504 2.87086 -3.02717 0
M  V30 6369 H 573.134 2.59514 -1.91969 0
M  V30 6370 H 572.186 0.940768 -3.68583 0
M  V30 6371 H 573.498 1.44497 -4.77412 0
M  V30 6372 H 572.652 3.80026 -4.72933 0
M  V30 6373 H 571.391 3.34536 -3.54876 0
M  V30 6374 H 570.396 1.74984 -5.21211 0
M  V30 6375 H 571.621 2.23205 -6.41371 0
M  V30 6376 H 569.567 4.07831 -5.13819 0
M  V30 6377 H 569.484 3.42317 -6.74059 0
M  V30 6378 H 570.752 4.54123 -6.33555 0
M  V30 6379 N 574.981 1.5647 0.188427 0
M  V30 6380 C 575.928 1.95073 1.23349 0
M  V30 6381 C 576.898 0.812238 1.44886 0
M  V30 6382 O 578.083 1.07095 1.57909 0
M  V30 6383 C 575.223 2.30124 2.57171 0
M  V30 6384 C 574.336 3.57069 2.43157 0
M  V30 6385 C 573.471 3.81411 3.69729 0
M  V30 6386 C 572.51 5.0176 3.50575 0
M  V30 6387 N 571.647 5.22321 4.69175 0
M  V30 6388 H 576.487 2.84171 0.89728 0
M  V30 6389 H 574.024 1.40623 0.431683 0
M  V30 6390 H 575.982 2.48463 3.35145 0
M  V30 6391 H 574.612 1.44159 2.88822 0
M  V30 6392 H 573.664 3.4674 1.56447 0
M  V30 6393 H 574.976 4.452 2.24942 0
M  V30 6394 H 574.13 4.00026 4.56141 0
M  V30 6395 H 572.869 2.91624 3.90905 0
M  V30 6396 H 571.874 4.83061 2.62549 0
M  V30 6397 H 573.099 5.93063 3.30837 0
M  V30 6398 H 571.045 4.35483 4.90602 0
M  V30 6399 H 570.962 6.04643 4.53809 0
M  V30 6400 H 572.23 5.45401 5.56919 0
M  V30 6401 N 576.459 -0.456382 1.50847 0
M  V30 6402 C 577.369 -1.57805 1.73594 0
M  V30 6403 C 578.385 -1.62599 0.619476 0
M  V30 6404 O 579.561 -1.80195 0.899532 0
M  V30 6405 C 576.626 -2.93926 1.8387 0
M  V30 6406 C 575.687 -2.99402 3.07663 0
M  V30 6407 C 574.92 -4.29031 3.1744 0
M  V30 6408 O 575.143 -5.20358 2.33631 0
M  V30 6409 O 574.077 -4.40401 4.10281 0
M  V30 6410 H 577.903 -1.41531 2.68705 0
M  V30 6411 H 575.488 -0.637422 1.3512 0
M  V30 6412 H 577.37 -3.74747 1.92725 0
M  V30 6413 H 576.045 -3.10368 0.91944 0
M  V30 6414 H 574.952 -2.17606 3.043 0
M  V30 6415 H 576.285 -2.87901 3.99216 0
M  V30 6416 N 577.937 -1.40673 -0.710563 0
M  V30 6417 C 579.348 -1.34975 -1.28991 0
M  V30 6418 C 579.699 -0.0256272 -1.96183 0
M  V30 6419 O 578.824 0.876339 -1.97862 0
M  V30 6420 C 579.419 -2.44467 -2.34567 0
M  V30 6421 C 577.978 -2.42213 -2.88114 0
M  V30 6422 C 577.125 -2.25085 -1.61963 0
M  V30 6423 H 580.076 -1.50406 -0.506343 0
M  V30 6424 H 580.097 -2.12663 -3.15523 0
M  V30 6425 H 579.609 -3.40825 -1.85634 0
M  V30 6426 H 577.71 -1.49568 -3.41263 0
M  V30 6427 H 577.823 -3.37983 -3.39565 0
M  V30 6428 H 576.187 -1.72691 -1.87216 0
M  V30 6429 H 576.97 -3.23449 -1.15047 0
M  V30 6430 N 579.415 0.9433 -1.26252 0
M  V30 6431 C 580.345 2.05902 -1.10122 0
M  V30 6432 C 581.326 1.70099 -0.00700552 0
M  V30 6433 O 582.511 1.93377 -0.178641 0
M  V30 6434 C 579.641 3.39516 -0.731175 0
M  V30 6435 C 578.595 3.89372 -1.77688 0
M  V30 6436 C 577.921 5.19613 -1.26122 0
M  V30 6437 C 579.221 4.14489 -3.17799 0
M  V30 6438 H 580.915 2.19655 -2.03451 0
M  V30 6439 H 578.461 1.05548 -0.979576 0
M  V30 6440 H 580.414 4.17031 -0.605215 0
M  V30 6441 H 579.138 3.25733 0.23782 0
M  V30 6442 H 577.797 3.14036 -1.89148 0
M  V30 6443 H 577.445 5.02208 -0.282128 0
M  V30 6444 H 577.145 5.53939 -1.96023 0
M  V30 6445 H 578.669 5.99713 -1.14789 0
M  V30 6446 H 580.083 4.82625 -3.09428 0
M  V30 6447 H 578.48 4.60094 -3.85271 0
M  V30 6448 H 579.55 3.20347 -3.64014 0
M  V30 6449 N 580.893 1.08022 1.14757 0
M  V30 6450 C 581.823 0.728248 2.21853 0
M  V30 6451 C 582.804 -0.287486 1.67653 0
M  V30 6452 O 583.989 -0.158727 1.9355 0
M  V30 6453 C 581.119 0.132549 3.47047 0
M  V30 6454 C 580.073 1.07619 4.14249 0
M  V30 6455 C 579.399 0.342907 5.33599 0
M  V30 6456 C 580.699 2.41268 4.63235 0
M  V30 6457 H 582.393 1.62365 2.51551 0
M  V30 6458 H 579.939 0.782125 1.20908 0
M  V30 6459 H 581.892 -0.125665 4.21213 0
M  V30 6460 H 580.616 -0.797971 3.16702 0
M  V30 6461 H 579.275 1.31944 3.42033 0
M  V30 6462 H 578.923 -0.59129 4.99513 0
M  V30 6463 H 578.623 0.971955 5.79506 0
M  V30 6464 H 580.147 0.0926538 6.1053 0
M  V30 6465 H 581.561 2.21232 5.28894 0
M  V30 6466 H 579.958 2.9983 5.19829 0
M  V30 6467 H 581.028 3.03079 3.78512 0
M  V30 6468 N 582.371 -1.3172 0.865308 0
M  V30 6469 C 583.319 -2.30569 0.306674 0
M  V30 6470 C 584.313 -1.59317 -0.575724 0
M  V30 6471 O 585.519 -1.73961 -0.462343 0
M  V30 6472 H 581.894 -0.747681 0.0804834 0
M  V30 6473 H 583.865 -2.75165 1.15441 0
M  V30 6474 C 582.614 -3.44358 -0.480952 0
M  V30 6475 H 581.937 -3.99354 0.18876 0
M  V30 6476 H 583.377 -4.15652 -0.837241 0
M  V30 6477 C 581.836 -2.92574 -1.67039 0
M  V30 6478 O 582.366 -2.90954 -2.76964 0
M  V30 6479 N 580.572 -2.48835 -1.50097 0
M  V30 6480 H 580.119 -2.50353 -0.606738 0
M  V30 6481 H 580.077 -2.14543 -2.29823 0
M  V30 6482 N 583.85 -0.624285 -1.44708 0
M  V30 6483 C 584.797 0.0847135 -2.30644 0
M  V30 6484 C 585.767 0.843575 -1.43084 0
M  V30 6485 O 586.952 0.825982 -1.71995 0
M  V30 6486 C 584.091 1.06495 -3.28257 0
M  V30 6487 C 583.205 0.305224 -4.3092 0
M  V30 6488 C 582.34 1.27667 -5.1563 0
M  V30 6489 C 581.379 0.505706 -6.10007 0
M  V30 6490 N 580.516 1.42727 -6.8744 0
M  V30 6491 H 585.356 -0.654068 -2.90733 0
M  V30 6492 H 582.893 -0.334334 -1.4325 0
M  V30 6493 H 584.851 1.64658 -3.83332 0
M  V30 6494 H 583.481 1.77094 -2.69884 0
M  V30 6495 H 582.533 -0.392207 -3.78373 0
M  V30 6496 H 583.845 -0.295553 -4.97924 0
M  V30 6497 H 582.999 1.92984 -5.75189 0
M  V30 6498 H 581.738 1.91137 -4.48685 0
M  V30 6499 H 580.743 -0.160999 -5.49564 0
M  V30 6500 H 581.968 -0.124183 -6.78986 0
M  V30 6501 H 579.913 2.04931 -6.23169 0
M  V30 6502 H 579.831 0.880345 -7.50857 0
M  V30 6503 H 581.099 2.0695 -7.51526 0
M  V30 6504 N 585.328 1.53329 -0.364422 0
M  V30 6505 C 586.575 2.01239 0.225634 0
M  V30 6506 C 586.903 1.25172 1.48869 0
M  V30 6507 O 586.158 0.333289 1.92841 0
M  V30 6508 C 586.457 3.52911 0.564661 0
M  V30 6509 C 586.123 4.46837 -0.603936 0
M  V30 6510 C 584.785 4.72234 -0.924585 0
M  V30 6511 C 587.137 5.02409 -1.38691 0
M  V30 6512 C 584.465 5.50454 -2.0302 0
M  V30 6513 C 586.817 5.81836 -2.48293 0
M  V30 6514 C 585.481 6.0552 -2.80894 0
M  V30 6515 H 584.751 0.736386 0.0825654 0
M  V30 6516 H 587.398 1.84948 -0.496645 0
M  V30 6517 H 585.703 3.67144 1.36794 0
M  V30 6518 H 587.4 3.87455 1.03344 0
M  V30 6519 H 583.99 4.27217 -0.343983 0
M  V30 6520 H 588.174 4.82735 -1.15243 0
M  V30 6521 H 583.43 5.67024 -2.28678 0
M  V30 6522 H 587.604 6.23905 -3.0938 0
M  V30 6523 H 585.231 6.65916 -3.66688 0
M  V30 6524 N 586.806 0.0935595 1.57322 0
M  V30 6525 C 587.738 -0.895923 2.10964 0
M  V30 6526 C 588.751 -1.24705 1.04654 0
M  V30 6527 O 589.94 -1.20044 1.32105 0
M  V30 6528 C 587.04 -2.20546 2.57318 0
M  V30 6529 C 586.213 -2.0299 3.87445 0
M  V30 6530 C 585.272 -3.17443 4.19662 0
M  V30 6531 O 584.298 -2.91474 4.88909 0
M  V30 6532 N 585.5 -4.43168 3.74943 0
M  V30 6533 H 588.265 -0.437788 2.96485 0
M  V30 6534 H 585.826 -0.0915863 1.61641 0
M  V30 6535 H 587.818 -2.9606 2.75917 0
M  V30 6536 H 586.388 -2.57789 1.76816 0
M  V30 6537 H 585.608 -1.11815 3.78009 0
M  V30 6538 H 586.896 -1.88535 4.7258 0
M  V30 6539 H 586.294 -4.67149 3.19043 0
M  V30 6540 H 584.851 -5.15637 3.987 0
M  V30 6541 N 588.284 -1.56567 -0.180126 0
M  V30 6542 C 589.533 -1.80685 -0.896426 0
M  V30 6543 C 589.846 -0.669335 -1.83791 0
M  V30 6544 O 591.052 -0.795209 -2.59593 0
M  V30 6545 C 589.508 -3.20132 -1.6445 0
M  V30 6546 C 589.116 -4.41727 -0.747088 0
M  V30 6547 C 590.86 -3.53549 -2.34955 0
M  V30 6548 C 588.767 -5.72195 -1.49489 0
M  V30 6549 H 587.697 -0.673758 -0.338477 0
M  V30 6550 H 590.348 -1.8289 -0.149467 0
M  V30 6551 H 588.73 -3.12218 -2.43589 0
M  V30 6552 H 589.904 -4.608 0.00671129 0
M  V30 6553 H 588.219 -4.16122 -0.152134 0
M  V30 6554 H 590.816 -4.48267 -2.91481 0
M  V30 6555 H 591.159 -2.78006 -3.09868 0
M  V30 6556 H 591.692 -3.62976 -1.62768 0
M  V30 6557 H 588.431 -6.50743 -0.788251 0
M  V30 6558 H 587.951 -5.57115 -2.22224 0
M  V30 6559 H 589.63 -6.1384 -2.04472 0
M  V30 6560 N 589.762 0.448376 -1.51087 0
M  V30 6561 C 590.99 1.22143 -1.66999 0
M  V30 6562 C 591.405 1.85283 -0.362699 0
M  V30 6563 O 590.762 1.70236 0.65772 0
M  V30 6564 C 590.813 2.31357 -2.7777 0
M  V30 6565 O 590.534 1.70801 -4.03434 0
M  V30 6566 C 592.035 3.21836 -3.04855 0
M  V30 6567 H 589.255 0.368558 -0.560719 0
M  V30 6568 H 591.799 0.532618 -1.97442 0
M  V30 6569 H 589.954 2.95973 -2.49958 0
M  V30 6570 H 590.368 2.42895 -4.64868 0
M  V30 6571 H 591.842 3.94627 -3.85971 0
M  V30 6572 H 592.319 3.81949 -2.16821 0
M  V30 6573 H 592.925 2.62933 -3.34285 0
M  V30 6574 N 591.24 1.41047 0.703093 0
M  V30 6575 C 592.468 1.4334 1.49202 0
M  V30 6576 C 592.883 0.0365596 1.88765 0
M  V30 6577 O 592.24 -0.942419 1.56284 0
M  V30 6578 C 592.291 2.33538 2.75939 0
M  V30 6579 O 592.012 3.67786 2.38045 0
M  V30 6580 C 593.513 2.44555 3.6974 0
M  V30 6581 H 590.733 0.488472 0.460039 0
M  V30 6582 H 593.277 1.85245 0.86629 0
M  V30 6583 H 591.432 1.94962 3.34766 0
M  V30 6584 H 591.846 4.15816 3.19683 0
M  V30 6585 H 593.32 3.11849 4.55471 0
M  V30 6586 H 593.797 1.47447 4.1371 0
M  V30 6587 H 594.403 2.83735 3.16819 0
M  V30 6588 N 592.718 -0.936591 1.26751 0
M  V30 6589 C 593.943 -1.72288 1.15462 0
M  V30 6590 C 594.368 -1.85915 -0.285887 0
M  V30 6591 O 593.726 -1.35272 -1.20711 0
M  V30 6592 C 593.774 -3.10503 1.83359 0
M  V30 6593 O 592.878 -3.96745 1.1255 0
M  V30 6594 H 592.219 -0.52843 0.402067 0
M  V30 6595 H 594.749 -1.17271 1.67656 0
M  V30 6596 H 594.759 -3.60867 1.90365 0
M  V30 6597 H 593.434 -2.99901 2.88153 0
M  V30 6598 H 592.011 -3.55191 1.13551 0
M  V30 6599 N 594.196 -1.08629 -1.14182 0
M  V30 6600 C 595.607 -0.838003 -1.66836 0
M  V30 6601 C 595.958 0.634885 -1.85644 0
M  V30 6602 O 595.083 1.49008 -1.56926 0
M  V30 6603 C 595.678 -1.51465 -3.03058 0
M  V30 6604 C 594.237 -1.31355 -3.52736 0
M  V30 6605 C 593.384 -1.57599 -2.28162 0
M  V30 6606 H 596.335 -1.24656 -0.982165 0
M  V30 6607 H 596.356 -0.943134 -3.68626 0
M  V30 6608 H 595.868 -2.58661 -2.89337 0
M  V30 6609 H 593.969 -0.262384 -3.71675 0
M  V30 6610 H 594.082 -2.04275 -4.33369 0
M  V30 6611 H 592.446 -0.997659 -2.34348 0
M  V30 6612 H 593.229 -2.66006 -2.17015 0
M  V30 6613 N 595.674 1.31259 -0.872281 0
M  V30 6614 C 596.922 1.96233 -0.483409 0
M  V30 6615 C 597.243 1.69276 0.968012 0
M  V30 6616 O 596.513 1.00943 1.67891 0
M  V30 6617 H 595.093 0.726025 -0.175774 0
M  V30 6618 H 597.755 1.60024 -1.11258 0
M  V30 6619 H 596.851 3.05403 -0.643075 0
M  V30 6620 N 597.152 0.631951 1.44375 0
M  V30 6621 C 598.377 0.142146 2.06912 0
M  V30 6622 C 598.802 -1.17456 1.4692 0
M  V30 6623 O 598.16 -1.72074 0.570975 0
M  V30 6624 C 598.208 0.0417952 3.60576 0
M  V30 6625 O 597.312 -1.00194 4.00044 0
M  V30 6626 H 596.653 0.0851491 0.658518 0
M  V30 6627 H 599.183 0.868863 1.85235 0
M  V30 6628 H 599.193 -0.148517 4.0773 0
M  V30 6629 H 597.868 1.0031 4.03622 0
M  V30 6630 H 596.445 -0.786131 3.64519 0
M  V30 6631 N 598.631 -1.53133 0.372548 0
M  V30 6632 C 599.859 -2.05774 -0.215515 0
M  V30 6633 C 600.274 -1.24555 -1.41886 0
M  V30 6634 O 599.631 -0.287951 -1.80214 0
M  V30 6635 C 599.682 -3.5645 -0.602161 0
M  V30 6636 O 599.403 -4.34591 0.553359 0
M  V30 6637 C 600.904 -4.25374 -1.24787 0
M  V30 6638 H 598.124 -0.670009 -0.0364529 0
M  V30 6639 H 600.668 -1.97434 0.532934 0
M  V30 6640 H 598.823 -3.64918 -1.30052 0
M  V30 6641 H 599.237 -5.23954 0.239336 0
M  V30 6642 H 600.711 -5.32097 -1.46891 0
M  V30 6643 H 601.188 -3.79531 -2.21026 0
M  V30 6644 H 601.794 -4.21177 -0.590752 0
M  V30 6645 N 600.109 -0.101901 -1.5727 0
M  V30 6646 C 601.041 0.884723 -2.11436 0
M  V30 6647 C 602.054 1.24149 -1.05314 0
M  V30 6648 O 603.243 1.19341 -1.3274 0
M  V30 6649 C 600.343 2.19179 -2.58484 0
M  V30 6650 C 599.516 2.00933 -3.88516 0
M  V30 6651 C 598.575 3.15213 -4.2134 0
M  V30 6652 O 597.601 2.88877 -4.90448 0
M  V30 6653 N 598.803 4.41174 -3.77288 0
M  V30 6654 H 601.568 0.422058 -2.96713 0
M  V30 6655 H 599.129 0.0830128 -1.61687 0
M  V30 6656 H 601.121 2.94593 -2.77484 0
M  V30 6657 H 599.691 2.56847 -1.7818 0
M  V30 6658 H 598.911 1.09809 -3.78597 0
M  V30 6659 H 600.199 1.86026 -4.73573 0
M  V30 6660 H 599.597 4.6545 -3.21516 0
M  V30 6661 H 598.154 5.13515 -4.01429 0
M  V30 6662 N 601.587 1.56661 0.17182 0
M  V30 6663 C 602.534 1.96371 1.21273 0
M  V30 6664 C 603.504 0.82756 1.44016 0
M  V30 6665 O 604.689 1.08764 1.56764 0
M  V30 6666 C 601.829 2.32838 2.54716 0
M  V30 6667 C 600.942 3.59628 2.39356 0
M  V30 6668 C 600.077 3.85311 3.65662 0
M  V30 6669 C 599.116 5.0545 3.45234 0
M  V30 6670 N 598.253 5.27268 4.63608 0
M  V30 6671 H 603.093 2.85106 0.86709 0
M  V30 6672 H 600.63 1.41073 0.416744 0
M  V30 6673 H 602.588 2.52004 3.3249 0
M  V30 6674 H 601.218 1.47214 2.87277 0
M  V30 6675 H 600.27 3.4838 1.52761 0
M  V30 6676 H 601.582 4.4756 2.20207 0
M  V30 6677 H 600.736 4.04841 4.51872 0
M  V30 6678 H 599.475 2.95753 3.8779 0
M  V30 6679 H 598.48 4.85819 2.5741 0
M  V30 6680 H 599.705 5.96538 3.24529 0
M  V30 6681 H 597.651 4.40662 4.85956 0
M  V30 6682 H 597.568 6.09422 4.4737 0
M  V30 6683 H 598.836 5.51277 5.51103 0
M  V30 6684 N 603.065 -0.440357 1.51323 0
M  V30 6685 C 604.314 -1.18697 1.63076 0
M  V30 6686 C 604.627 -1.92418 0.35136 0
M  V30 6687 O 605.833 -2.69258 0.348221 0
M  V30 6688 C 604.289 -2.15849 2.87988 0
M  V30 6689 C 603.897 -1.47789 4.22921 0
M  V30 6690 C 605.641 -2.90962 3.09098 0
M  V30 6691 C 603.548 -2.43407 5.38987 0
M  V30 6692 H 602.478 -0.44676 0.607389 0
M  V30 6693 H 605.129 -0.454313 1.77787 0
M  V30 6694 H 603.511 -2.92537 2.66905 0
M  V30 6695 H 604.685 -0.7668 4.54375 0
M  V30 6696 H 603 -0.848404 4.07665 0
M  V30 6697 H 605.597 -3.62584 3.92985 0
M  V30 6698 H 605.94 -3.52133 2.22053 0
M  V30 6699 H 606.473 -2.21381 3.30507 0
M  V30 6700 H 603.212 -1.86929 6.28282 0
M  V30 6701 H 602.732 -3.12579 5.11913 0
M  V30 6702 H 604.411 -3.046 5.70813 0
M  V30 6703 N 604.543 -1.41418 -0.695603 0
M  V30 6704 C 605.473 -1.46035 -1.82197 0
M  V30 6705 C 606.454 -0.319025 -1.67082 0
M  V30 6706 O 607.639 -0.530462 -1.86815 0
M  V30 6707 C 604.769 -1.34179 -3.20333 0
M  V30 6708 C 603.723 -2.46123 -3.50154 0
M  V30 6709 C 603.049 -2.19332 -4.87645 0
M  V30 6710 C 604.349 -3.88463 -3.49133 0
M  V30 6711 H 606.043 -2.40303 -1.78591 0
M  V30 6712 H 603.589 -1.15663 -0.857797 0
M  V30 6713 H 605.542 -1.36021 -3.98844 0
M  V30 6714 H 604.266 -0.363952 -3.24566 0
M  V30 6715 H 602.925 -2.43563 -2.73994 0
M  V30 6716 H 602.573 -1.19891 -4.88503 0
M  V30 6717 H 602.273 -2.94344 -5.08562 0
M  V30 6718 H 603.797 -2.22889 -5.68465 0
M  V30 6719 H 605.211 -3.92738 -4.17648 0
M  V30 6720 H 603.608 -4.63158 -3.81582 0
M  V30 6721 H 604.678 -4.16617 -2.48109 0
M  V30 6722 N 606.021 0.929856 -1.27246 0
M  V30 6723 C 607.249 1.71144 -1.16265 0
M  V30 6724 C 607.664 1.867 0.280786 0
M  V30 6725 O 607.021 1.38249 1.19136 0
M  V30 6726 C 607.072 3.11222 -1.83911 0
M  V30 6727 O 606.793 2.96398 -3.22614 0
M  V30 6728 C 608.294 4.05541 -1.79028 0
M  V30 6729 H 605.514 0.535499 -0.404328 0
M  V30 6730 H 608.058 1.16492 -1.68077 0
M  V30 6731 H 606.213 3.6274 -1.36009 0
M  V30 6732 H 606.627 3.8494 -3.56261 0
M  V30 6733 H 608.101 5.01351 -2.30978 0
M  V30 6734 H 608.578 4.32589 -0.759168 0
M  V30 6735 H 609.184 3.59947 -2.26535 0
M  V30 6736 N 607.499 1.09233 1.13605 0
M  V30 6737 C 608.462 0.733553 2.17144 0
M  V30 6738 C 609.462 -0.235873 1.59061 0
M  V30 6739 O 610.652 -0.0143167 1.74194 0
M  V30 6740 C 607.784 0.084471 3.40795 0
M  V30 6741 H 608.977 1.65049 2.50397 0
M  V30 6742 H 606.53 0.891264 1.28399 0
M  V30 6743 H 607.265 -0.843795 3.1313 0
M  V30 6744 H 607.05 0.781985 3.84223 0
M  V30 6745 H 608.54 -0.151216 4.17326 0
M  V30 6746 N 608.977 -1.30795 0.87923 0
M  V30 6747 C 609.91 -2.26396 0.286404 0
M  V30 6748 C 610.888 -1.51528 -0.589748 0
M  V30 6749 O 612.072 -1.80566 -0.541119 0
M  V30 6750 C 609.199 -3.33458 -0.593581 0
M  V30 6751 C 608.245 -4.2597 0.21247 0
M  V30 6752 S 609.078 -5.11132 1.59702 0
M  V30 6753 C 610.234 -6.21705 0.723408 0
M  V30 6754 H 610.467 -2.7633 1.09677 0
M  V30 6755 H 608 -1.38703 0.678305 0
M  V30 6756 H 609.958 -3.9561 -1.09557 0
M  V30 6757 H 608.619 -2.82259 -1.37799 0
M  V30 6758 H 607.812 -5.01907 -0.458822 0
M  V30 6759 H 607.414 -3.68363 0.646883 0
M  V30 6760 H 609.706 -6.77472 -0.0620739 0
M  V30 6761 H 610.649 -6.93007 1.4542 0
M  V30 6762 H 611.057 -5.63771 0.286855 0
M  V30 6763 N 610.455 -0.639598 -1.44038 0
M  V30 6764 C 611.704 -0.144885 -2.01179 0
M  V30 6765 C 612.017 1.24372 -1.50967 0
M  V30 6766 O 613.223 1.83291 -2.00292 0
M  V30 6767 C 611.679 -0.208244 -3.59297 0
M  V30 6768 C 611.287 -1.59869 -4.18504 0
M  V30 6769 C 613.031 0.229568 -4.23879 0
M  V30 6770 C 610.938 -1.61671 -5.68873 0
M  V30 6771 H 609.868 -0.0504005 -0.752314 0
M  V30 6772 H 612.519 -0.799639 -1.65161 0
M  V30 6773 H 610.901 0.513767 -3.92653 0
M  V30 6774 H 612.075 -2.34496 -3.96671 0
M  V30 6775 H 610.39 -1.98131 -3.66242 0
M  V30 6776 H 612.987 0.235758 -5.3418 0
M  V30 6777 H 613.33 1.25848 -3.96822 0
M  V30 6778 H 613.863 -0.440233 -3.95357 0
M  V30 6779 H 610.602 -2.62427 -6.00677 0
M  V30 6780 H 610.122 -0.913489 -5.92803 0
M  V30 6781 H 611.801 -1.35439 -6.32665 0
M  V30 6782 N 611.933 1.52934 -0.380664 0
M  V30 6783 C 613.181 2.01069 0.203874 0
M  V30 6784 C 613.502 1.26922 1.4804 0
M  V30 6785 O 612.772 0.386787 1.92044 0
M  V30 6786 H 611.352 0.742882 0.0783279 0
M  V30 6787 H 614.014 1.88099 -0.510368 0
M  V30 6788 H 613.11 3.09258 0.42021 0
M  V30 6789 N 613.412 0.11024 1.57214 0
M  V30 6790 C 614.342 -0.840002 2.17867 0
M  V30 6791 C 615.323 -1.28352 1.11624 0
M  V30 6792 O 616.508 -1.3477 1.39824 0
M  V30 6793 C 613.638 -2.09349 2.77111 0
M  V30 6794 C 612.592 -1.78807 3.8886 0
M  V30 6795 C 611.918 -3.11112 4.34872 0
M  V30 6796 C 613.218 -1.0632 5.11364 0
M  V30 6797 H 614.912 -0.334608 2.97524 0
M  V30 6798 H 612.458 -0.159502 1.43114 0
M  V30 6799 H 614.411 -2.76275 3.18198 0
M  V30 6800 H 613.135 -2.62198 1.9473 0
M  V30 6801 H 611.794 -1.14273 3.48335 0
M  V30 6802 H 611.442 -3.61877 3.49362 0
M  V30 6803 H 611.142 -2.91453 5.10224 0
M  V30 6804 H 612.666 -3.79171 4.78604 0
M  V30 6805 H 614.08 -1.63383 5.49526 0
M  V30 6806 H 612.477 -0.967876 5.92243 0
M  V30 6807 H 613.547 -0.0484569 4.84876 0
M  V30 6808 N 614.89 -1.56749 -0.16351 0
M  V30 6809 C 615.838 -1.97939 -1.22159 0
M  V30 6810 C 616.832 -0.869288 -1.45395 0
M  V30 6811 O 618.038 -1.05443 -1.45883 0
M  V30 6812 H 614.413 -0.629869 -0.410815 0
M  V30 6813 H 616.384 -2.86115 -0.847381 0
M  V30 6814 C 615.133 -2.36206 -2.55151 0
M  V30 6815 H 614.456 -3.2117 -2.38097 0
M  V30 6816 H 615.896 -2.68863 -3.27854 0
M  V30 6817 C 614.355 -1.20841 -3.14482 0
M  V30 6818 O 614.885 -0.500258 -3.98573 0
M  V30 6819 N 613.091 -0.976943 -2.73686 0
M  V30 6820 H 612.638 -1.55457 -2.05404 0
M  V30 6821 H 612.596 -0.206912 -3.13718 0
M  V30 6822 N 616.368 0.432326 -1.51554 0
M  V30 6823 C 617.316 1.54572 -1.73811 0
M  V30 6824 C 618.31 1.58246 -0.604539 0
M  V30 6825 O 619.516 1.6193 -0.786041 0
M  V30 6826 H 615.891 0.513626 -0.549265 0
M  V30 6827 H 617.862 1.32977 -2.67132 0
M  V30 6828 C 616.611 2.92181 -1.88483 0
M  V30 6829 H 615.934 2.90088 -2.75116 0
M  V30 6830 H 617.374 3.69439 -2.08065 0
M  V30 6831 C 615.833 3.3065 -0.645909 0
M  V30 6832 O 616.363 4.01216 0.197093 0
M  V30 6833 N 614.569 2.86464 -0.488538 0
M  V30 6834 H 614.116 2.29209 -1.17562 0
M  V30 6835 H 614.074 3.12565 0.339156 0
M  V30 6836 N 617.846 1.41785 0.688094 0
M  V30 6837 C 618.793 1.44221 1.80191 0
M  V30 6838 C 619.763 0.295688 1.63447 0
M  V30 6839 O 620.948 0.49783 1.84191 0
M  V30 6840 C 618.088 1.33743 3.1813 0
M  V30 6841 C 617.201 2.58325 3.46254 0
M  V30 6842 C 616.336 2.40086 4.73848 0
M  V30 6843 C 615.375 3.60107 4.94964 0
M  V30 6844 N 614.512 3.40892 6.13789 0
M  V30 6845 H 619.352 2.39411 1.77444 0
M  V30 6846 H 616.889 1.18876 0.866423 0
M  V30 6847 H 618.847 1.25669 3.97823 0
M  V30 6848 H 617.477 0.42157 3.20035 0
M  V30 6849 H 616.529 2.7682 2.60912 0
M  V30 6850 H 617.841 3.4758 3.57756 0
M  V30 6851 H 616.995 2.29522 5.61609 0
M  V30 6852 H 615.734 1.483 4.64606 0
M  V30 6853 H 614.739 3.71118 4.05649 0
M  V30 6854 H 615.964 4.52857 5.06061 0
M  V30 6855 H 613.91 2.51812 6.05745 0
M  V30 6856 H 613.827 4.23727 6.26092 0
M  V30 6857 H 615.095 3.34114 7.04264 0
M  V30 6858 N 619.324 -0.923095 1.27737 0
M  V30 6859 C 620.552 -1.70525 1.17171 0
M  V30 6860 C 620.967 -1.86847 -0.270881 0
M  V30 6861 O 620.324 -1.38879 -1.18401 0
M  V30 6862 C 620.375 -3.10242 1.85559 0
M  V30 6863 O 620.096 -2.94683 3.24182 0
M  V30 6864 C 621.597 -4.04586 1.81176 0
M  V30 6865 H 618.817 -0.533347 0.407163 0
M  V30 6866 H 621.361 -1.15599 1.68692 0
M  V30 6867 H 619.516 -3.62014 1.3793 0
M  V30 6868 H 619.93 -3.83045 3.58297 0
M  V30 6869 H 621.404 -5.00119 2.33633 0
M  V30 6870 H 621.881 -4.3218 0.782099 0
M  V30 6871 H 622.487 -3.58741 2.2844 0
M  V30 6872 N 620.802 -1.09834 -1.13024 0
M  V30 6873 C 621.732 -0.763451 -2.20666 0
M  V30 6874 C 622.713 0.260778 -1.68089 0
M  V30 6875 O 623.898 0.127915 -1.93778 0
M  V30 6876 C 621.028 -0.187744 -3.46792 0
M  V30 6877 C 619.982 -1.14196 -4.12484 0
M  V30 6878 C 619.308 -0.427755 -5.32986 0
M  V30 6879 C 620.608 -2.48607 -4.59338 0
M  V30 6880 H 622.302 -1.66347 -2.48936 0
M  V30 6881 H 619.848 -0.801261 -1.19649 0
M  V30 6882 H 621.801 0.0586375 -4.21359 0
M  V30 6883 H 620.525 0.747485 -3.17931 0
M  V30 6884 H 619.184 -1.37369 -3.3989 0
M  V30 6885 H 618.832 0.511747 -5.0039 0
M  V30 6886 H 618.532 -1.06403 -5.77886 0
M  V30 6887 H 620.056 -0.189772 -6.10305 0
M  V30 6888 H 621.47 -2.29618 -5.25308 0
M  V30 6889 H 619.867 -3.08062 -5.14993 0
M  V30 6890 H 620.937 -3.09062 -3.73642 0
M  V30 6891 N 622.28 1.30327 -0.886154 0
M  V30 6892 C 623.557 1.90922 -0.425217 0
M  V30 6893 C 623.937 1.80533 1.09413 0
M  V30 6894 O 623.285 1.2233 1.92996 0
M  V30 6895 C 623.495 3.36529 -0.924638 0
M  V30 6896 C 624.843 4.13598 -0.960305 0
M  V30 6897 O 625.867 3.45377 -0.871382 0
M  V30 6898 O 624.726 5.35482 -1.09184 0
M  V30 6899 H 621.82 0.81668 -0.130238 0
M  V30 6900 H 624.366 1.38886 -0.975132 0
M  V30 6901 H 623.138 3.38181 -1.96849 0
M  V30 6902 H 622.761 3.96021 -0.353955 0
M  V30 6903 N 623.758 0.647228 1.43697 0
M  V30 6904 C 625.035 0.0883758 1.954 0
M  V30 6905 C 625.415 -1.39006 1.58873 0
M  V30 6906 O 624.763 -2.11255 0.87083 0
M  V30 6907 C 624.973 0.328263 3.47453 0
M  V30 6908 C 626.321 0.230009 4.23977 0
M  V30 6909 O 627.345 0.260496 3.55246 0
M  V30 6910 O 626.204 0.148615 5.46298 0
M  V30 6911 H 623.298 -0.0130683 0.826897 0
M  V30 6912 H 625.844 0.72005 1.53666 0
M  V30 6913 H 624.616 1.3535 3.67146 0
M  V30 6914 H 624.239 -0.336772 3.96171 0
M  V30 6915 N 625.236 -1.5273 0.388769 0
M  V30 6916 C 626.183 -2.26437 -0.446639 0
M  V30 6917 C 627.153 -1.28025 -1.05824 0
M  V30 6918 O 628.338 -1.56852 -1.08637 0
M  V30 6919 C 625.478 -3.07407 -1.56828 0
M  V30 6920 C 624.591 -4.20747 -0.979589 0
M  V30 6921 C 623.726 -4.89113 -2.07224 0
M  V30 6922 C 622.765 -5.94447 -1.45942 0
M  V30 6923 N 621.902 -6.56411 -2.49135 0
M  V30 6924 H 626.742 -2.97404 0.18837 0
M  V30 6925 H 624.279 -1.46727 0.104725 0
M  V30 6926 H 626.237 -3.52642 -2.22934 0
M  V30 6927 H 624.867 -2.3865 -2.17361 0
M  V30 6928 H 623.919 -3.7983 -0.208151 0
M  V30 6929 H 625.231 -4.9637 -0.491747 0
M  V30 6930 H 624.385 -5.3765 -2.81101 0
M  V30 6931 H 623.124 -4.13013 -2.59368 0
M  V30 6932 H 622.129 -5.4525 -0.705894 0
M  V30 6933 H 623.354 -6.7248 -0.945932 0
M  V30 6934 H 621.3 -5.83152 -3.00449 0
M  V30 6935 H 621.217 -7.27645 -2.05105 0
M  V30 6936 H 622.485 -7.09592 -3.22644 0
M  V30 6937 N 626.714 -0.118576 -1.57153 0
M  V30 6938 C 627.942 0.54726 -1.99531 0
M  V30 6939 C 628.357 1.60251 -0.998246 0
M  V30 6940 O 627.714 1.82498 0.00893106 0
M  V30 6941 C 627.765 1.17378 -3.41913 0
M  V30 6942 O 627.486 0.160703 -4.37805 0
M  V30 6943 C 628.987 1.92297 -3.9942 0
M  V30 6944 H 626.207 0.144919 -0.655164 0
M  V30 6945 H 628.751 -0.20479 -2.03472 0
M  V30 6946 H 626.906 1.87661 -3.38913 0
M  V30 6947 H 627.32 0.61586 -5.20872 0
M  V30 6948 H 628.794 2.31462 -5.01128 0
M  V30 6949 H 629.271 2.79801 -3.38538 0
M  V30 6950 H 629.877 1.26777 -4.05965 0
M  V30 6951 N 628.193 1.56834 0.155195 0
M  V30 6952 C 629.418 1.87412 0.888337 0
M  V30 6953 C 629.843 0.70671 1.74319 0
M  V30 6954 O 629.201 -0.343892 1.78009 0
M  V30 6955 C 629.249 3.1652 1.72765 0
M  V30 6956 O 628.353 2.99877 2.83103 0
M  V30 6957 H 627.694 0.615983 0.247914 0
M  V30 6958 H 630.224 2.04061 0.148478 0
M  V30 6959 H 630.234 3.48334 2.12433 0
M  V30 6960 H 628.909 4.01094 1.09985 0
M  V30 6961 H 627.486 2.79453 2.46902 0
M  V30 6962 N 629.671 -0.424282 1.51781 0
M  V30 6963 C 630.901 -1.19297 1.68677 0
M  V30 6964 C 631.309 -1.85152 0.389258 0
M  V30 6965 O 630.652 -1.72067 -0.643311 0
M  V30 6966 C 630.714 -2.30929 2.75521 0
M  V30 6967 C 630.378 -1.85335 4.17732 0
M  V30 6968 C 631.375 -1.34951 5.0208 0
M  V30 6969 C 629.06 -1.92629 4.63896 0
M  V30 6970 C 631.054 -0.924636 6.30658 0
M  V30 6971 C 628.741 -1.49754 5.92467 0
M  V30 6972 C 629.739 -0.997543 6.75676 0
M  V30 6973 O 629.427 -0.57492 8.01842 0
M  V30 6974 H 629.159 -0.36512 0.568914 0
M  V30 6975 H 631.713 -0.507327 1.99036 0
M  V30 6976 H 629.943 -3.02811 2.40505 0
M  V30 6977 H 631.632 -2.92748 2.81165 0
M  V30 6978 H 632.398 -1.287 4.67612 0
M  V30 6979 H 628.277 -2.30491 3.99243 0
M  V30 6980 H 631.821 -0.533682 6.95556 0
M  V30 6981 H 627.718 -1.55679 6.26446 0
M  V30 6982 H 628.486 -0.699597 8.15505 0
M  V30 6983 N 631.149 -1.42148 -0.680565 0
M  V30 6984 C 632.096 -1.45175 -1.79424 0
M  V30 6985 C 633.066 -0.304352 -1.63288 0
M  V30 6986 O 634.251 -0.507591 -1.83924 0
M  V30 6987 C 631.391 -1.35429 -3.17416 0
M  V30 6988 C 630.504 -2.60158 -3.4488 0
M  V30 6989 C 629.639 -2.42596 -4.72568 0
M  V30 6990 C 628.678 -3.62727 -4.93047 0
M  V30 6991 N 627.815 -3.44143 -6.11973 0
M  V30 6992 H 632.655 -2.40349 -1.76172 0
M  V30 6993 H 630.192 -1.19334 -0.860107 0
M  V30 6994 H 632.15 -1.27777 -3.97151 0
M  V30 6995 H 630.78 -0.438536 -3.19807 0
M  V30 6996 H 629.832 -2.78199 -2.5944 0
M  V30 6997 H 631.144 -3.49473 -3.55908 0
M  V30 6998 H 630.298 -2.32497 -5.60384 0
M  V30 6999 H 629.037 -1.50761 -4.63813 0
M  V30 7000 H 628.042 -3.73264 -4.03676 0
M  V30 7001 H 629.267 -4.55534 -5.03652 0
M  V30 7002 H 627.213 -2.5502 -6.04401 0
M  V30 7003 H 627.13 -4.27041 -6.23836 0
M  V30 7004 H 628.398 -3.37845 -7.02482 0
M  V30 7005 N 632.627 0.916307 -1.28225 0
M  V30 7006 C 633.876 1.65975 -1.14608 0
M  V30 7007 C 634.189 1.93204 0.305191 0
M  V30 7008 O 635.395 2.65611 0.562432 0
M  V30 7009 C 633.851 2.98989 -2.00333 0
M  V30 7010 C 633.459 2.79417 -3.50186 0
M  V30 7011 C 635.203 3.76856 -1.95397 0
M  V30 7012 C 633.11 4.08056 -4.28071 0
M  V30 7013 H 632.04 0.622587 -0.425324 0
M  V30 7014 H 634.691 1.01705 -1.52736 0
M  V30 7015 H 633.073 3.6438 -1.5506 0
M  V30 7016 H 634.247 2.22723 -4.034 0
M  V30 7017 H 632.562 2.14966 -3.56621 0
M  V30 7018 H 635.159 4.72203 -2.50856 0
M  V30 7019 H 635.502 4.05776 -0.930137 0
M  V30 7020 H 636.035 3.1828 -2.38626 0
M  V30 7021 H 632.774 3.8431 -5.31024 0
M  V30 7022 H 632.294 4.64371 -3.79631 0
M  V30 7023 H 633.973 4.76333 -4.37854 0
M  V30 7024 N 634.105 1.10431 1.1244 0
M  V30 7025 C 635.382 0.758797 1.80282 0
M  V30 7026 C 635.762 -0.754727 1.97147 0
M  V30 7027 O 635.11 -1.68094 1.54779 0
M  V30 7028 C 635.32 1.50982 3.14651 0
M  V30 7029 C 636.668 1.68232 3.8985 0
M  V30 7030 O 637.692 1.47319 3.24308 0
M  V30 7031 O 636.551 2.02905 5.07437 0
M  V30 7032 H 633.645 0.273756 0.780376 0
M  V30 7033 H 636.191 1.20713 1.19275 0
M  V30 7034 H 634.963 2.53989 2.97666 0
M  V30 7035 H 634.586 1.05435 3.83366 0
M  V30 7036 N 635.583 -1.29855 0.893053 0
M  V30 7037 C 636.831 -1.9544 0.514566 0
M  V30 7038 C 637.152 -1.70795 -0.940959 0
M  V30 7039 O 636.422 -1.03601 -1.66264 0
M  V30 7040 H 635.002 -0.723137 0.187302 0
M  V30 7041 H 637.664 -1.58234 1.13789 0
M  V30 7042 H 636.76 -3.04341 0.691581 0
M  V30 7043 N 637.061 -0.65484 -1.43351 0
M  V30 7044 C 638.008 0.0357713 -2.30772 0
M  V30 7045 C 638.978 0.813035 -1.44841 0
M  V30 7046 O 640.163 0.789314 -1.73708 0
M  V30 7047 C 637.303 0.995084 -3.30442 0
M  V30 7048 C 636.416 0.21375 -4.31471 0
M  V30 7049 C 635.551 1.16701 -5.18222 0
M  V30 7050 C 634.59 0.376201 -6.10943 0
M  V30 7051 N 633.727 1.28113 -6.90313 0
M  V30 7052 H 638.567 -0.71559 -2.89281 0
M  V30 7053 H 636.104 -0.364645 -1.42509 0
M  V30 7054 H 638.062 1.5649 -3.86739 0
M  V30 7055 H 636.692 1.7133 -2.7358 0
M  V30 7056 H 635.744 -0.472377 -3.77456 0
M  V30 7057 H 637.056 -0.401103 -4.97185 0
M  V30 7058 H 636.21 1.8074 -5.79153 0
M  V30 7059 H 634.949 1.81577 -4.52638 0
M  V30 7060 H 633.954 -0.277534 -5.49099 0
M  V30 7061 H 635.179 -0.268178 -6.7857 0
M  V30 7062 H 633.125 1.91666 -6.27376 0
M  V30 7063 H 633.042 0.720879 -7.52555 0
M  V30 7064 H 634.31 1.90962 -7.55747 0
M  V30 7065 N 638.539 1.52521 -0.396863 0
M  V30 7066 C 639.787 2.01274 0.182536 0
M  V30 7067 C 640.108 1.28485 1.46685 0
M  V30 7068 O 639.378 0.407134 1.91623 0
M  V30 7069 H 637.958 0.743671 0.0704442 0
M  V30 7070 H 640.62 1.87547 -0.530289 0
M  V30 7071 H 639.716 3.09687 0.387385 0
M  V30 7072 N 640.017 0.126909 1.57088 0
M  V30 7073 C 641.263 -0.523662 1.96543 0
M  V30 7074 C 641.618 -1.63783 1.0096 0
M  V30 7075 O 640.911 -1.91556 0.0410175 0
M  V30 7076 C 641.105 -1.095 3.40212 0
M  V30 7077 C 640.934 -0.037715 4.49684 0
M  V30 7078 C 639.704 0.396823 5.03739 0
M  V30 7079 C 641.902 0.746245 5.08857 0
M  V30 7080 N 639.884 1.43905 5.96795 0
M  V30 7081 C 641.255 1.63947 5.97931 0
M  V30 7082 C 643.31 0.796259 4.91492 0
M  V30 7083 C 642.013 2.57837 6.715 0
M  V30 7084 C 644.039 1.7229 5.65747 0
M  V30 7085 C 643.401 2.60369 6.54513 0
M  V30 7086 H 639.5 -0.161016 0.765244 0
M  V30 7087 H 642.084 0.21686 1.93489 0
M  V30 7088 H 640.255 -1.80521 3.43899 0
M  V30 7089 H 641.987 -1.71054 3.66773 0
M  V30 7090 H 638.742 0.00290406 4.736 0
M  V30 7091 H 639.166 1.95932 6.48027 0
M  V30 7092 H 643.808 0.129412 4.22602 0
M  V30 7093 H 641.526 3.25532 7.39631 0
M  V30 7094 H 645.112 1.76715 5.54313 0
M  V30 7095 H 643.992 3.30906 7.10965 0
M  V30 7096 N 641.495 -1.56914 -0.146875 0
M  V30 7097 C 642.427 -1.94878 -1.20645 0
M  V30 7098 C 643.44 -0.844633 -1.39175 0
M  V30 7099 O 644.629 -1.12304 -1.38744 0
M  V30 7100 C 641.729 -2.20769 -2.57127 0
M  V30 7101 C 640.902 -3.52053 -2.59572 0
M  V30 7102 C 639.961 -3.66482 -3.77594 0
M  V30 7103 O 638.987 -4.38873 -3.62462 0
M  V30 7104 N 640.189 -3.03156 -4.95052 0
M  V30 7105 H 642.954 -2.86374 -0.883757 0
M  V30 7106 H 640.515 -1.58366 -0.336436 0
M  V30 7107 H 642.507 -2.27664 -3.34591 0
M  V30 7108 H 641.077 -1.35538 -2.81688 0
M  V30 7109 H 640.297 -3.56598 -1.68023 0
M  V30 7110 H 641.585 -4.38396 -2.58238 0
M  V30 7111 H 640.983 -2.44258 -5.10249 0
M  V30 7112 H 639.54 -3.15611 -5.70292 0
M  V30 7113 N 642.974 0.416227 -1.52004 0
M  V30 7114 C 643.921 1.50666 -1.74838 0
M  V30 7115 C 644.891 1.55245 -0.590599 0
M  V30 7116 O 646.076 1.71928 -0.827374 0
M  V30 7117 C 643.216 2.88185 -1.89851 0
M  V30 7118 C 642.329 2.92971 -3.17478 0
M  V30 7119 C 641.464 4.21745 -3.22962 0
M  V30 7120 C 640.503 4.20478 -4.4482 0
M  V30 7121 N 639.64 5.40811 -4.47736 0
M  V30 7122 H 644.48 1.30498 -2.67907 0
M  V30 7123 H 642.017 0.633568 -1.32757 0
M  V30 7124 H 643.975 3.68007 -1.96537 0
M  V30 7125 H 642.605 3.06865 -1.00169 0
M  V30 7126 H 641.657 2.05684 -3.19997 0
M  V30 7127 H 642.969 2.87899 -4.07328 0
M  V30 7128 H 642.123 5.09954 -3.28682 0
M  V30 7129 H 640.862 4.29503 -2.31038 0
M  V30 7130 H 639.867 3.30659 -4.39254 0
M  V30 7131 H 641.092 4.14366 -5.38031 0
M  V30 7132 H 639.038 5.4925 -3.58692 0
M  V30 7133 H 638.955 5.37705 -5.31422 0
M  V30 7134 H 640.223 6.30993 -4.57676 0
M  V30 7135 N 644.452 1.42507 0.673017 0
M  V30 7136 C 645.729 1.33554 1.42908 0
M  V30 7137 C 646.109 -0.0262211 2.11084 0
M  V30 7138 O 645.457 -1.04181 2.03368 0
M  V30 7139 C 645.667 2.50498 2.43006 0
M  V30 7140 C 647.015 2.92694 3.07596 0
M  V30 7141 O 648.039 2.50401 2.53333 0
M  V30 7142 O 646.898 3.65899 4.05931 0
M  V30 7143 H 643.992 0.526785 0.637516 0
M  V30 7144 H 646.538 1.54518 0.701591 0
M  V30 7145 H 645.31 3.41272 1.9144 0
M  V30 7146 H 644.933 2.3153 3.23233 0
M  V30 7147 N 645.93 -0.909495 1.28709 0
M  V30 7148 C 646.877 -2.01245 1.13 0
M  V30 7149 C 647.847 -1.6608 0.0259684 0
M  V30 7150 O 649.032 -1.89835 0.191687 0
M  V30 7151 C 646.172 -3.35644 0.802315 0
M  V30 7152 C 645.285 -3.83653 1.98582 0
M  V30 7153 C 644.42 -5.06582 1.59837 0
M  V30 7154 C 643.459 -5.46934 2.74827 0
M  V30 7155 N 642.596 -6.61053 2.36546 0
M  V30 7156 H 647.436 -2.14013 2.0737 0
M  V30 7157 H 644.973 -1.0482 1.03205 0
M  V30 7158 H 646.931 -4.12963 0.593057 0
M  V30 7159 H 645.561 -3.22631 -0.104457 0
M  V30 7160 H 644.613 -3.02454 2.30708 0
M  V30 7161 H 645.925 -4.09515 2.84779 0
M  V30 7162 H 645.079 -5.91457 1.35143 0
M  V30 7163 H 643.818 -4.82537 0.707753 0
M  V30 7164 H 642.823 -4.60599 3.00215 0
M  V30 7165 H 644.048 -5.72965 3.64538 0
M  V30 7166 H 641.994 -6.3863 1.49959 0
M  V30 7167 H 641.911 -6.86662 3.16277 0
M  V30 7168 H 643.179 -7.49221 2.15146 0
M  V30 7169 N 647.408 -1.11026 -1.11852 0
M  V30 7170 C 648.633 -0.879064 -1.87849 0
M  V30 7171 C 649.058 0.565406 -1.79401 0
M  V30 7172 O 648.416 1.39886 -1.15333 0
M  V30 7173 C 648.464 -1.33985 -3.34784 0
M  V30 7174 O 647.568 -0.508803 -4.09249 0
M  V30 7175 H 646.909 -0.316992 -0.583448 0
M  V30 7176 H 649.439 -1.47863 -1.41413 0
M  V30 7177 H 649.449 -1.33248 -3.85628 0
M  V30 7178 H 648.124 -2.39172 -3.40249 0
M  V30 7179 H 646.701 -0.581913 -3.68332 0
M  V30 7180 N 648.886 1.2938 -0.899927 0
M  V30 7181 C 650.132 1.96206 -0.536153 0
M  V30 7182 C 650.487 1.69647 0.90761 0
M  V30 7183 O 649.78 0.999089 1.63489 0
M  V30 7184 C 649.974 3.49114 -0.765113 0
M  V30 7185 C 649.803 3.90538 -2.22958 0
M  V30 7186 C 648.573 4.15395 -2.87706 0
M  V30 7187 C 650.771 4.0224 -3.20479 0
M  V30 7188 N 648.753 4.43389 -4.24593 0
M  V30 7189 C 650.124 4.34288 -4.42486 0
M  V30 7190 C 652.179 3.84716 -3.16066 0
M  V30 7191 C 650.882 4.50638 -5.6064 0
M  V30 7192 C 652.908 4.02276 -4.33507 0
M  V30 7193 C 652.27 4.34684 -5.54283 0
M  V30 7194 H 648.369 0.742364 -0.245804 0
M  V30 7195 H 650.953 1.56314 -1.16078 0
M  V30 7196 H 649.124 3.88028 -0.169861 0
M  V30 7197 H 650.856 4.03035 -0.366751 0
M  V30 7198 H 647.611 4.09164 -2.385 0
M  V30 7199 H 648.035 4.61494 -4.95331 0
M  V30 7200 H 652.677 3.58724 -2.23778 0
M  V30 7201 H 650.395 4.75467 -6.5342 0
M  V30 7202 H 653.981 3.90169 -4.31578 0
M  V30 7203 H 652.861 4.47988 -6.43643 0
M  V30 7204 N 650.364 0.662433 1.43002 0
M  V30 7205 C 651.612 0.179237 2.01304 0
M  V30 7206 C 651.933 -1.21428 1.52579 0
M  V30 7207 O 651.203 -1.81294 0.742252 0
M  V30 7208 H 649.783 0.0632725 0.744316 0
M  V30 7209 H 652.445 0.856169 1.75088 0
M  V30 7210 H 651.541 0.170957 3.11631 0
M  V30 7211 N 651.842 -1.52309 0.404946 0
M  V30 7212 C 653.09 -2.01368 -0.17186 0
M  V30 7213 C 653.411 -1.29261 -1.46002 0
M  V30 7214 O 652.681 -0.41729 -1.91404 0
M  V30 7215 H 651.261 -0.744034 -0.0664993 0
M  V30 7216 H 653.923 -1.87263 0.540228 0
M  V30 7217 H 653.019 -3.09888 -0.370957 0
M  V30 7218 N 653.32 -0.135238 -1.57019 0
M  V30 7219 C 654.55 0.525303 -1.9981 0
M  V30 7220 C 654.958 1.59724 -1.01415 0
M  V30 7221 O 654.301 1.837 -0.00130938 0
M  V30 7222 C 654.363 1.19578 -3.3903 0
M  V30 7223 C 654.027 0.269855 -4.56203 0
M  V30 7224 C 655.024 -0.497905 -5.1751 0
M  V30 7225 C 652.709 0.176188 -5.01991 0
M  V30 7226 C 654.703 -1.3469 -6.23007 0
M  V30 7227 C 652.39 -0.676422 -6.07345 0
M  V30 7228 C 653.388 -1.43658 -6.67721 0
M  V30 7229 O 653.076 -2.27501 -7.71037 0
M  V30 7230 H 652.808 0.142296 -0.660854 0
M  V30 7231 H 655.362 -0.223272 -2.04183 0
M  V30 7232 H 653.592 1.99176 -3.3146 0
M  V30 7233 H 655.281 1.75486 -3.66005 0
M  V30 7234 H 656.047 -0.435507 -4.83041 0
M  V30 7235 H 651.926 0.757583 -4.54733 0
M  V30 7236 H 655.47 -1.9407 -6.70062 0
M  V30 7237 H 651.367 -0.740154 -6.41243 0
M  V30 7238 H 652.135 -2.20619 -7.88206 0
M  V30 7239 N 654.798 1.5699 0.138552 0
M  V30 7240 C 655.746 1.99858 1.18994 0
M  V30 7241 C 656.74 0.89231 1.43994 0
M  V30 7242 O 657.946 1.0775 1.44187 0
M  V30 7243 H 654.321 0.636325 0.400743 0
M  V30 7244 H 656.292 2.87427 0.801755 0
M  V30 7245 C 655.041 2.40235 2.51361 0
M  V30 7246 H 654.364 3.24917 2.32957 0
M  V30 7247 H 655.804 2.74045 3.23535 0
M  V30 7248 C 654.263 1.25829 3.1252 0
M  V30 7249 O 654.793 0.563604 3.97727 0
M  V30 7250 N 652.999 1.02036 2.72097 0
M  V30 7251 H 652.546 1.58705 2.02905 0
M  V30 7252 H 652.504 0.256796 3.1335 0
M  V30 7253 N 656.276 -0.40816 1.52223 0
M  V30 7254 C 657.522 -1.15673 1.66576 0
M  V30 7255 C 657.855 -1.90141 0.394996 0
M  V30 7256 O 657.13 -1.84798 -0.606613 0
M  V30 7257 C 657.413 -2.15042 2.88841 0
M  V30 7258 C 657.266 -1.44465 4.25969 0
M  V30 7259 C 658.585 -3.15699 3.0663 0
M  V30 7260 H 655.704 -0.41916 0.606196 0
M  V30 7261 H 658.346 -0.442348 1.84779 0
M  V30 7262 H 656.496 -2.75964 2.73452 0
M  V30 7263 H 658.168 -0.866544 4.53088 0
M  V30 7264 H 656.411 -0.746612 4.27327 0
M  V30 7265 H 657.082 -2.16976 5.07568 0
M  V30 7266 H 659.558 -2.64854 3.20923 0
M  V30 7267 H 658.434 -3.82491 3.9369 0
M  V30 7268 H 658.695 -3.83481 2.19987 0
M  V30 7269 N 657.755 -1.42862 -0.66545 0
M  V30 7270 C 658.983 -1.47246 -1.45349 0
M  V30 7271 C 659.398 -0.0865944 -1.88601 0
M  V30 7272 O 658.755 0.900652 -1.58728 0
M  V30 7273 C 658.806 -2.40772 -2.6965 0
M  V30 7274 O 658.527 -3.73968 -2.2821 0
M  V30 7275 C 660.028 -2.54272 -3.63126 0
M  V30 7276 H 657.248 -0.500497 -0.446927 0
M  V30 7277 H 659.792 -1.87477 -0.816871 0
M  V30 7278 H 657.947 -2.0377 -3.29479 0
M  V30 7279 H 658.361 -4.24146 -3.08546 0
M  V30 7280 H 659.835 -3.23815 -4.47043 0
M  V30 7281 H 660.312 -1.58364 -4.09656 0
M  V30 7282 H 660.918 -2.92036 -3.09185 0
M  V30 7283 N 659.233 0.902656 -1.29189 0
M  V30 7284 C 660.649 1.18296 -1.07137 0
M  V30 7285 C 660.849 2.00701 0.179223 0
M  V30 7286 O 659.905 2.3675 0.877812 0
M  V30 7287 C 661.218 1.90677 -2.32514 0
M  V30 7288 C 662.766 2.03515 -2.37804 0
M  V30 7289 C 663.241 2.79307 -3.62976 0
M  V30 7290 N 664.732 2.86862 -3.63681 0
M  V30 7291 C 665.467 3.46035 -4.57217 0
M  V30 7292 N 664.963 4.06399 -5.61081 0
M  V30 7293 N 666.756 3.43681 -4.44792 0
M  V30 7294 H 658.907 0.352765 -2.0945 0
M  V30 7295 H 661.17 0.21876 -0.922414 0
M  V30 7296 H 660.876 1.3756 -3.23682 0
M  V30 7297 H 660.75 2.91169 -2.39793 0
M  V30 7298 H 663.137 2.55809 -1.47125 0
M  V30 7299 H 663.218 1.02166 -2.34512 0
M  V30 7300 H 662.862 2.2769 -4.54004 0
M  V30 7301 H 662.792 3.80995 -3.63525 0
M  V30 7302 H 665.283 2.43987 -2.88581 0
M  V30 7303 H 665.596 4.49564 -6.2858 0
M  V30 7304 H 663.941 4.0487 -5.64894 0
M  V30 7305 H 667.132 2.9574 -3.62843 0
M  V30 7306 H 667.305 3.89503 -5.17872 0
M  V30 7307 N 660.711 1.11618 1.11262 0
M  V30 7308 C 661.941 0.88745 1.86569 0
M  V30 7309 C 662.349 -0.56636 1.80524 0
M  V30 7310 O 661.692 -1.40289 1.18594 0
M  V30 7311 C 661.754 1.27313 3.36202 0
M  V30 7312 C 661.418 2.73649 3.66013 0
M  V30 7313 C 662.415 3.71863 3.63337 0
M  V30 7314 C 660.1 3.10342 3.9496 0
M  V30 7315 C 662.094 5.04788 3.89188 0
M  V30 7316 C 659.781 4.43451 4.20469 0
M  V30 7317 C 660.779 5.40484 4.17572 0
M  V30 7318 O 660.467 6.71195 4.42439 0
M  V30 7319 H 660.199 0.317543 0.596777 0
M  V30 7320 H 662.753 1.48768 1.41624 0
M  V30 7321 H 660.983 0.616062 3.81761 0
M  V30 7322 H 662.672 1.01991 3.92877 0
M  V30 7323 H 663.438 3.44861 3.41022 0
M  V30 7324 H 659.317 2.35431 3.9635 0
M  V30 7325 H 662.861 5.80516 3.86842 0
M  V30 7326 H 658.758 4.70187 4.42261 0
M  V30 7327 H 659.526 6.77012 4.59997 0
M  V30 7328 N 662.189 -1.289 0.906776 0
M  V30 7329 C 663.099 -2.31256 0.394707 0
M  V30 7330 C 664.115 -1.66231 -0.514121 0
M  V30 7331 O 665.291 -1.97347 -0.401994 0
M  V30 7332 C 662.356 -3.44792 -0.363191 0
M  V30 7333 C 661.417 -4.25391 0.578012 0
M  V30 7334 C 660.65 -5.33506 -0.143811 0
M  V30 7335 O 660.873 -5.53786 -1.36665 0
M  V30 7336 O 659.807 -5.99673 0.5173 0
M  V30 7337 H 663.633 -2.77051 1.24405 0
M  V30 7338 H 661.218 -1.33466 0.671346 0
M  V30 7339 H 663.1 -4.139 -0.791503 0
M  V30 7340 H 661.775 -3.01093 -1.18848 0
M  V30 7341 H 660.682 -3.58899 1.05558 0
M  V30 7342 H 662.015 -4.72752 1.36992 0
M  V30 7343 N 663.667 -0.670007 -1.42649 0
M  V30 7344 C 664.913 -0.190568 -2.01903 0
M  V30 7345 C 665.246 1.19817 -1.52832 0
M  V30 7346 O 664.521 1.80342 -0.728485 0
M  V30 7347 C 664.804 -0.21991 -3.59428 0
M  V30 7348 C 664.657 -1.64376 -4.18689 0
M  V30 7349 C 665.976 0.434519 -4.3795 0
M  V30 7350 H 663.095 -0.0707219 -0.733599 0
M  V30 7351 H 665.737 -0.853883 -1.69732 0
M  V30 7352 H 663.887 0.344894 -3.86966 0
M  V30 7353 H 665.559 -2.26044 -4.02122 0
M  V30 7354 H 663.802 -2.18591 -3.747 0
M  V30 7355 H 664.473 -1.61601 -5.27815 0
M  V30 7356 H 666.949 -0.0462156 -4.16074 0
M  V30 7357 H 665.825 0.38333 -5.4756 0
M  V30 7358 H 666.086 1.51135 -4.15464 0
M  V30 7359 N 665.145 1.52092 -0.413018 0
M  V30 7360 C 666.391 2.02154 0.161737 0
M  V30 7361 C 666.724 1.29789 1.44459 0
M  V30 7362 O 665.999 0.405378 1.90229 0
M  V30 7363 C 666.282 3.5781 0.405463 0
M  V30 7364 C 666.135 4.40819 -0.894335 0
M  V30 7365 C 667.454 4.23821 1.18591 0
M  V30 7366 H 664.573 0.734769 0.0573077 0
M  V30 7367 H 667.215 1.81948 -0.547247 0
M  V30 7368 H 665.365 3.75158 1.0094 0
M  V30 7369 H 667.037 4.35175 -1.53039 0
M  V30 7370 H 665.28 4.06877 -1.50444 0
M  V30 7371 H 665.951 5.47819 -0.678144 0
M  V30 7372 H 668.427 4.10596 0.674573 0
M  V30 7373 H 667.303 5.32663 1.3252 0
M  V30 7374 H 667.564 3.83038 2.20758 0
M  V30 7375 N 666.623 0.143563 1.56945 0
M  V30 7376 C 667.571 -0.814556 2.17871 0
M  V30 7377 C 668.565 -1.25778 1.13474 0
M  V30 7378 O 669.771 -1.22666 1.31731 0
M  V30 7379 H 666.146 -0.280873 0.697578 0
M  V30 7380 H 668.117 -0.276459 2.97117 0
M  V30 7381 C 666.866 -2.04503 2.81201 0
M  V30 7382 H 666.189 -1.71296 3.61245 0
M  V30 7383 H 667.629 -2.69493 3.27337 0
M  V30 7384 C 666.088 -2.85079 1.79532 0
M  V30 7385 O 666.618 -3.81306 1.26368 0
M  V30 7386 N 664.824 -2.49546 1.48913 0
M  V30 7387 H 664.371 -1.71359 1.92338 0
M  V30 7388 H 664.329 -3.03751 0.811348 0
M  V30 7389 N 668.101 -1.57061 -0.130224 0
M  V30 7390 C 669.349 -1.83893 -0.838313 0
M  V30 7391 C 669.67 -0.727046 -1.80939 0
M  V30 7392 O 668.94 0.249927 -1.94299 0
M  V30 7393 H 667.52 -0.67846 -0.312573 0
M  V30 7394 H 670.182 -1.94529 -0.120224 0
M  V30 7395 H 669.278 -2.79419 -1.39038 0
M  V30 7396 N 669.579 0.400081 -1.52437 0
M  V30 7397 C 670.527 1.50851 -1.7705 0
M  V30 7398 C 671.521 1.56928 -0.637969 0
M  V30 7399 O 672.727 1.60226 -0.820212 0
M  V30 7400 H 669.102 0.50186 -0.560036 0
M  V30 7401 H 671.073 1.27281 -2.69893 0
M  V30 7402 C 669.822 2.88117 -1.94638 0
M  V30 7403 H 669.145 2.84187 -2.81208 0
M  V30 7404 H 670.585 3.64942 -2.15855 0
M  V30 7405 C 669.044 3.29206 -0.715899 0
M  V30 7406 O 669.574 4.01544 0.111944 0
M  V30 7407 N 667.78 2.85363 -0.549191 0
M  V30 7408 H 667.327 2.26664 -1.22397 0
M  V30 7409 H 667.285 3.13214 0.27278 0
M  V30 7410 N 671.057 1.43213 0.657864 0
M  V30 7411 C 672.306 1.43871 1.41365 0
M  V30 7412 C 672.619 0.064898 1.95492 0
M  V30 7413 O 673.825 -0.0510796 2.71452 0
M  V30 7414 C 672.281 2.53158 2.55811 0
M  V30 7415 C 671.889 3.96624 2.08311 0
M  V30 7416 C 673.633 2.63004 3.3321 0
M  V30 7417 C 671.54 4.97385 3.1994 0
M  V30 7418 H 670.47 0.535174 0.531136 0
M  V30 7419 H 673.121 1.69185 0.710543 0
M  V30 7420 H 671.503 2.21037 3.2857 0
M  V30 7421 H 672.677 4.38182 1.42593 0
M  V30 7422 H 670.992 3.90781 1.43804 0
M  V30 7423 H 673.589 3.3546 4.16378 0
M  V30 7424 H 673.932 1.67918 3.80932 0
M  V30 7425 H 674.465 2.94403 2.67529 0
M  V30 7426 H 671.204 5.94007 2.77192 0
M  V30 7427 H 670.724 4.60444 3.84385 0
M  V30 7428 H 672.403 5.19877 3.85145 0
M  V30 7429 N 672.536 -0.895792 1.29666 0
M  V30 7430 C 673.813 -1.62723 1.08538 0
M  V30 7431 C 674.193 -2.07848 -0.369119 0
M  V30 7432 O 673.541 -1.8372 -1.35864 0
M  V30 7433 C 673.751 -2.80505 2.07648 0
M  V30 7434 C 675.099 -3.51098 2.3878 0
M  V30 7435 O 676.123 -2.90679 2.05874 0
M  V30 7436 O 674.982 -4.60028 2.9502 0
M  V30 7437 H 672.076 -0.714692 0.416106 0
M  V30 7438 H 674.622 -0.943517 1.41053 0
M  V30 7439 H 673.394 -2.44386 3.05599 0
M  V30 7440 H 673.017 -3.5658 1.75887 0
M  V30 7441 N 674.014 -1.12206 -1.10668 0
M  V30 7442 C 674.944 -0.810086 -2.18997 0
M  V30 7443 C 675.925 0.225065 -1.68604 0
M  V30 7444 O 677.11 0.086783 -1.94006 0
M  V30 7445 C 674.24 -0.261262 -3.46316 0
M  V30 7446 C 673.194 -1.2292 -4.09969 0
M  V30 7447 C 672.52 -0.540713 -5.31959 0
M  V30 7448 C 673.82 -2.58295 -4.53962 0
M  V30 7449 H 675.514 -1.7159 -2.45352 0
M  V30 7450 H 673.06 -0.82646 -1.17922 0
M  V30 7451 H 675.013 -0.0307522 -4.21389 0
M  V30 7452 H 673.737 0.679879 -3.19445 0
M  V30 7453 H 672.396 -1.44548 -3.369 0
M  V30 7454 H 672.044 0.405492 -5.01363 0
M  V30 7455 H 671.744 -1.18637 -5.75499 0
M  V30 7456 H 673.268 -0.319184 -6.09765 0
M  V30 7457 H 674.682 -2.40709 -5.20319 0
M  V30 7458 H 673.079 -3.18916 -5.08343 0
M  V30 7459 H 674.149 -3.16918 -3.67002 0
M  V30 7460 N 675.492 1.28418 -0.913599 0
M  V30 7461 C 676.439 2.27301 -0.400373 0
M  V30 7462 C 677.409 1.57582 0.52509 0
M  V30 7463 O 678.594 1.85482 0.447318 0
M  V30 7464 C 675.734 3.43284 0.35361 0
M  V30 7465 C 674.847 4.27752 -0.604341 0
M  V30 7466 C 673.982 5.30934 0.168075 0
M  V30 7467 C 673.021 6.07065 -0.783499 0
M  V30 7468 N 672.158 7.02086 -0.0446112 0
M  V30 7469 H 676.998 2.70579 -1.24865 0
M  V30 7470 H 674.535 1.33067 -0.627028 0
M  V30 7471 H 676.493 4.09322 0.806945 0
M  V30 7472 H 675.123 3.00997 1.16623 0
M  V30 7473 H 674.175 3.61759 -1.17621 0
M  V30 7474 H 675.487 4.80682 -1.33216 0
M  V30 7475 H 674.641 6.02855 0.681979 0
M  V30 7476 H 673.38 4.78771 0.928947 0
M  V30 7477 H 672.385 5.33995 -1.30878 0
M  V30 7478 H 673.61 6.61317 -1.54392 0
M  V30 7479 H 671.556 6.52273 0.698272 0
M  V30 7480 H 671.473 7.52637 -0.712258 0
M  V30 7481 H 672.741 7.78205 0.449102 0
M  V30 7482 N 676.97 0.677563 1.42291 0
M  V30 7483 C 677.902 -0.0380218 2.29168 0
M  V30 7484 C 678.915 -0.762714 1.43828 0
M  V30 7485 O 680.104 -0.616413 1.67519 0
M  V30 7486 C 677.204 -1.07761 3.21311 0
M  V30 7487 C 676.377 -0.42618 4.35319 0
M  V30 7488 C 675.436 -1.36592 5.08162 0
M  V30 7489 O 674.462 -0.865174 5.62586 0
M  V30 7490 N 675.664 -2.69909 5.13935 0
M  V30 7491 H 678.429 0.707766 2.91223 0
M  V30 7492 H 675.99 0.52219 1.53247 0
M  V30 7493 H 677.982 -1.70761 3.6691 0
M  V30 7494 H 676.552 -1.72511 2.60689 0
M  V30 7495 H 675.772 0.383385 3.92331 0
M  V30 7496 H 677.06 0.0275277 5.08793 0
M  V30 7497 H 676.458 -3.13129 4.71134 0
M  V30 7498 H 675.015 -3.2815 5.6317 0
M  V30 7499 N 678.448 -1.51871 0.421078 0
M  V30 7500 C 679.411 -2.25914 -0.386712 0
M  V30 7501 C 680.411 -1.28733 -0.963555 0
M  V30 7502 O 681.601 -1.52579 -0.840556 0
M  V30 7503 C 678.733 -3.03853 -1.54551 0
M  V30 7504 H 679.926 -2.98754 0.261978 0
M  V30 7505 H 677.479 -1.5533 0.173862 0
M  V30 7506 H 678.214 -2.35392 -2.23072 0
M  V30 7507 H 677.999 -3.75215 -1.13824 0
M  V30 7508 H 679.489 -3.59984 -2.11663 0
M  V30 7509 N 679.926 -0.151884 -1.56866 0
M  V30 7510 C 681.175 0.497992 -1.95456 0
M  V30 7511 C 681.488 1.6569 -1.03953 0
M  V30 7512 O 682.694 2.37173 -1.32142 0
M  V30 7513 C 681.15 0.93732 -3.4748 0
M  V30 7514 C 680.758 -0.194921 -4.47576 0
M  V30 7515 C 682.502 1.55671 -3.94926 0
M  V30 7516 C 680.409 0.26295 -5.90815 0
M  V30 7517 H 679.339 0.189811 -0.729717 0
M  V30 7518 H 681.99 -0.237011 -1.81963 0
M  V30 7519 H 680.372 1.72773 -3.56322 0
M  V30 7520 H 681.546 -0.971951 -4.50433 0
M  V30 7521 H 679.861 -0.72303 -4.10075 0
M  V30 7522 H 682.458 1.91099 -4.99385 0
M  V30 7523 H 682.801 2.44748 -3.36755 0
M  V30 7524 H 683.334 0.831109 -3.89021 0
M  V30 7525 H 680.073 -0.592568 -6.52816 0
M  V30 7526 H 679.593 1.00575 -5.91308 0
M  V30 7527 H 681.272 0.713333 -6.43056 0
M  V30 7528 N 681.404 1.57128 0.121893 0
M  V30 7529 C 682.314 2.03425 1.16857 0
M  V30 7530 C 683.33 0.954108 1.45509 0
M  V30 7531 O 684.506 1.26541 1.56682 0
M  V30 7532 C 681.571 2.42685 2.47599 0
M  V30 7533 C 680.632 3.64767 2.2637 0
M  V30 7534 C 679.865 4.02145 3.50878 0
M  V30 7535 O 680.088 3.39897 4.58068 0
M  V30 7536 O 679.022 4.95262 3.42051 0
M  V30 7537 H 682.848 2.92825 0.80544 0
M  V30 7538 H 680.433 1.45654 0.332477 0
M  V30 7539 H 682.315 2.68684 3.24634 0
M  V30 7540 H 680.99 1.56432 2.83392 0
M  V30 7541 H 679.897 3.43922 1.47203 0
M  V30 7542 H 681.23 4.51716 1.95482 0
M  V30 7543 N 682.882 -0.391992 1.52647 0
M  V30 7544 C 684.107 -1.16312 1.71716 0
M  V30 7545 C 684.532 -1.83042 0.433279 0
M  V30 7546 O 683.89 -1.70705 -0.610707 0
M  V30 7547 C 683.938 -2.18908 2.86551 0
M  V30 7548 O 683.042 -3.2543 2.53316 0
M  V30 7549 H 682.383 -0.338743 0.571095 0
M  V30 7550 H 684.913 -0.457202 1.99426 0
M  V30 7551 H 684.923 -2.62954 3.1196 0
M  V30 7552 H 683.598 -1.69726 3.79692 0
M  V30 7553 H 682.175 -2.86543 2.38637 0
M  V30 7554 N 684.36 -1.4356 -0.65026 0
M  V30 7555 C 685.585 -1.48995 -1.44275 0
M  V30 7556 C 686.01 -0.109954 -1.87778 0
M  V30 7557 O 685.368 0.896926 -1.57559 0
M  V30 7558 C 685.416 -2.44341 -2.65198 0
M  V30 7559 O 684.52 -1.93172 -3.6436 0
M  V30 7560 H 683.861 -0.503852 -0.432469 0
M  V30 7561 H 686.391 -1.88504 -0.795446 0
M  V30 7562 H 686.401 -2.61743 -3.12977 0
M  V30 7563 H 685.076 -3.44588 -2.32877 0
M  V30 7564 H 683.653 -1.85445 -3.23519 0
M  V30 7565 N 685.838 0.888903 -1.30139 0
M  V30 7566 C 687.115 1.62145 -1.094 0
M  V30 7567 C 687.495 2.08041 0.358091 0
M  V30 7568 O 686.843 1.84438 1.34888 0
M  V30 7569 C 687.053 2.794 -2.09133 0
M  V30 7570 C 688.401 3.49826 -2.40638 0
M  V30 7571 O 689.425 2.89583 -2.07412 0
M  V30 7572 O 688.284 4.58457 -2.97455 0
M  V30 7573 H 685.378 0.712475 -0.41989 0
M  V30 7574 H 687.924 0.936023 -1.41551 0
M  V30 7575 H 686.696 2.42762 -3.06891 0
M  V30 7576 H 686.319 3.55643 -1.77776 0
M  V30 7577 N 687.317 1.12792 1.10072 0
M  V30 7578 C 688.265 0.794523 2.18609 0
M  V30 7579 C 689.259 -0.220271 1.67962 0
M  V30 7580 O 690.465 -0.0780938 1.79831 0
M  V30 7581 H 686.84 0.239123 0.712969 0
M  V30 7582 H 688.811 1.71823 2.43966 0
M  V30 7583 C 687.56 0.269548 3.46654 0
M  V30 7584 H 686.883 1.04171 3.8599 0
M  V30 7585 H 688.323 0.0746242 4.23934 0
M  V30 7586 C 686.782 -1.00333 3.21613 0
M  V30 7587 O 687.312 -2.08042 3.4363 0
M  V30 7588 N 685.518 -0.931763 2.75257 0
M  V30 7589 H 685.065 -0.0551197 2.57541 0
M  V30 7590 H 685.023 -1.78405 2.58881 0
M  V30 7591 N 688.795 -1.27931 0.920396 0
M  V30 7592 C 690.044 -1.93975 0.552867 0
M  V30 7593 C 690.357 -1.73193 -0.909035 0
M  V30 7594 O 691.563 -2.33515 -1.38502 0
M  V30 7595 C 690.019 -3.47463 0.937947 0
M  V30 7596 C 689.627 -3.77013 2.42003 0
M  V30 7597 C 691.371 -4.19628 0.64132 0
M  V30 7598 C 689.278 -5.23841 2.74489 0
M  V30 7599 H 688.208 -0.726146 0.203046 0
M  V30 7600 H 690.859 -1.45339 1.12022 0
M  V30 7601 H 689.241 -3.94867 0.299317 0
M  V30 7602 H 690.415 -3.40393 3.10595 0
M  V30 7603 H 688.73 -3.18035 2.6878 0
M  V30 7604 H 691.327 -5.27729 0.860622 0
M  V30 7605 H 691.67 -4.14164 -0.421168 0
M  V30 7606 H 692.203 -3.78022 1.23872 0
M  V30 7607 H 688.942 -5.34388 3.79618 0
M  V30 7608 H 688.462 -5.61634 2.1054 0
M  V30 7609 H 690.141 -5.91647 2.61845 0
M  V30 7610 N 690.273 -0.685099 -1.4193 0
M  V30 7611 C 691.52 -0.211658 -2.01391 0
M  V30 7612 C 691.848 1.18526 -1.54214 0
M  V30 7613 O 691.103 1.81189 -0.739519 0
M  V30 7614 C 691.402 -0.206154 -3.56805 0
M  V30 7615 C 691.068 -1.54915 -4.23453 0
M  V30 7616 C 689.73 -1.91684 -4.41373 0
M  V30 7617 C 692.082 -2.43317 -4.60919 0
M  V30 7618 C 689.41 -3.16461 -4.94034 0
M  V30 7619 C 691.762 -3.67415 -5.14965 0
M  V30 7620 C 690.426 -4.04341 -5.31098 0
M  V30 7621 H 689.696 -0.0774511 -0.736941 0
M  V30 7622 H 692.343 -0.882121 -1.69973 0
M  V30 7623 H 690.648 0.547841 -3.87951 0
M  V30 7624 H 692.345 0.17753 -4.00607 0
M  V30 7625 H 688.935 -1.25314 -4.09871 0
M  V30 7626 H 693.119 -2.16192 -4.46738 0
M  V30 7627 H 688.375 -3.45078 -5.04709 0
M  V30 7628 H 692.549 -4.3611 -5.42938 0
M  V30 7629 H 690.176 -5.01101 -5.71666 0
M  V30 7630 N 691.751 1.51645 -0.429126 0
M  V30 7631 C 692.998 2.02015 0.140079 0
M  V30 7632 C 693.326 1.31374 1.43427 0
M  V30 7633 O 692.581 0.414779 1.91254 0
M  V30 7634 C 692.88 3.54989 0.414472 0
M  V30 7635 C 692.546 4.43874 -0.792911 0
M  V30 7636 C 691.208 4.67887 -1.12404 0
M  V30 7637 C 693.56 4.96074 -1.59875 0
M  V30 7638 C 690.888 5.41348 -2.26184 0
M  V30 7639 C 693.24 5.70782 -2.72747 0
M  V30 7640 C 691.904 5.93062 -3.06324 0
M  V30 7641 H 691.174 0.739225 0.0512585 0
M  V30 7642 H 693.821 1.82675 -0.574641 0
M  V30 7643 H 692.126 3.72615 1.21099 0
M  V30 7644 H 693.823 3.91489 0.868173 0
M  V30 7645 H 690.413 4.25374 -0.524871 0
M  V30 7646 H 694.597 4.77412 -1.35614 0
M  V30 7647 H 689.853 5.56815 -2.52522 0
M  V30 7648 H 694.027 6.10221 -3.35564 0
M  V30 7649 H 691.654 6.49764 -3.94602 0
M  V30 7650 N 693.229 0.160201 1.56784 0
M  V30 7651 C 694.192 -0.760405 2.16219 0
M  V30 7652 C 695.192 -1.16595 1.10735 0
M  V30 7653 O 696.382 -1.08472 1.36306 0
M  V30 7654 C 693.514 -2.03358 2.73603 0
M  V30 7655 H 694.707 -0.243173 2.98912 0
M  V30 7656 H 692.26 -0.0893139 1.56045 0
M  V30 7657 H 692.995 -2.59416 1.94612 0
M  V30 7658 H 692.78 -1.75186 3.50788 0
M  V30 7659 H 694.27 -2.69081 3.19351 0
M  V30 7660 N 694.707 -1.5719 -0.113559 0
M  V30 7661 C 696.123 -1.52607 -0.467253 0
M  V30 7662 C 696.323 -0.874058 -1.81556 0
M  V30 7663 O 695.379 -0.458703 -2.48299 0
M  V30 7664 C 696.692 -2.97363 -0.446736 0
M  V30 7665 C 698.24 -3.08482 -0.529903 0
M  V30 7666 C 698.715 -4.54809 -0.539721 0
M  V30 7667 N 700.206 -4.59284 -0.601005 0
M  V30 7668 C 700.941 -5.69927 -0.630138 0
M  V30 7669 N 700.437 -6.90051 -0.616589 0
M  V30 7670 N 702.23 -5.5805 -0.673558 0
M  V30 7671 H 694.381 -1.97958 0.769819 0
M  V30 7672 H 696.644 -0.90428 0.284572 0
M  V30 7673 H 696.35 -3.48458 0.47643 0
M  V30 7674 H 696.224 -3.55086 -1.27254 0
M  V30 7675 H 698.611 -2.57386 -1.44349 0
M  V30 7676 H 698.692 -2.53744 0.323695 0
M  V30 7677 H 698.336 -5.06552 0.369843 0
M  V30 7678 H 698.266 -5.07364 -1.41028 0
M  V30 7679 H 700.757 -3.72822 -0.617419 0
M  V30 7680 H 701.07 -7.70132 -0.641592 0
M  V30 7681 H 699.415 -6.92543 -0.583927 0
M  V30 7682 H 702.606 -4.63112 -0.681544 0
M  V30 7683 H 702.779 -6.44286 -0.692794 0
M  V30 7684 N 696.185 0.383891 -1.52853 0
M  V30 7685 C 697.431 1.13009 -1.68395 0
M  V30 7686 C 697.764 1.89488 -0.425195 0
M  V30 7687 O 697.039 1.8574 0.577136 0
M  V30 7688 C 697.322 2.10419 -2.92226 0
M  V30 7689 C 697.175 1.3767 -4.28214 0
M  V30 7690 C 698.494 3.10781 -3.11614 0
M  V30 7691 H 695.613 0.409463 -0.612788 0
M  V30 7692 H 698.255 0.412895 -1.85459 0
M  V30 7693 H 696.405 2.71579 -2.77808 0
M  V30 7694 H 698.077 0.794352 -4.54409 0
M  V30 7695 H 696.32 0.678533 -4.2846 0
M  V30 7696 H 696.991 2.08874 -5.10956 0
M  V30 7697 H 699.467 2.59715 -3.25096 0
M  V30 7698 H 698.343 3.76179 -3.99725 0
M  V30 7699 H 698.604 3.79933 -2.2606 0
M  V30 7700 N 697.663 1.43903 0.642637 0
M  V30 7701 C 698.626 1.49538 1.73698 0
M  V30 7702 C 699.626 0.378776 1.56275 0
M  V30 7703 O 700.816 0.64095 1.6198 0
M  V30 7704 C 697.948 1.35821 3.12675 0
M  V30 7705 H 699.141 2.47008 1.70079 0
M  V30 7706 H 696.694 1.30824 0.85526 0
M  V30 7707 H 697.429 0.393994 3.21898 0
M  V30 7708 H 697.214 2.16776 3.26727 0
M  V30 7709 H 698.704 1.4272 3.92455 0
M  V30 7710 N 699.141 -0.881989 1.30609 0
M  V30 7711 C 700.071 -2.00413 1.1982 0
M  V30 7712 C 701.052 -1.69871 0.0881538 0
M  V30 7713 O 702.237 -1.92304 0.2707 0
M  V30 7714 C 699.367 -3.35641 0.89233 0
M  V30 7715 C 698.321 -3.80451 1.96064 0
M  V30 7716 C 697.647 -5.13003 1.5077 0
M  V30 7717 C 698.947 -3.98855 3.37213 0
M  V30 7718 H 700.641 -2.09698 2.13699 0
M  V30 7719 H 698.187 -1.00754 1.02882 0
M  V30 7720 H 700.14 -4.13669 0.803497 0
M  V30 7721 H 698.864 -3.26497 -0.0821381 0
M  V30 7722 H 697.523 -3.04654 2.03916 0
M  V30 7723 H 697.171 -5.0029 0.521417 0
M  V30 7724 H 696.871 -5.43956 2.22229 0
M  V30 7725 H 698.395 -5.93554 1.43271 0
M  V30 7726 H 699.809 -4.67312 3.32103 0
M  V30 7727 H 698.206 -4.41188 4.06784 0
M  V30 7728 H 699.276 -3.02614 3.78883 0
M  V30 7729 N 700.619 -1.13374 -1.09472 0
M  V30 7730 C 701.529 -0.824029 -2.19652 0
M  V30 7731 C 702.545 0.19118 -1.72947 0
M  V30 7732 O 703.721 0.0223464 -2.01388 0
M  V30 7733 C 700.786 -0.294009 -3.45451 0
M  V30 7734 C 699.847 -1.3704 -4.0684 0
M  V30 7735 C 699.08 -0.86558 -5.26634 0
M  V30 7736 O 699.303 0.29702 -5.69626 0
M  V30 7737 O 698.237 -1.63968 -5.79136 0
M  V30 7738 H 702.063 -1.74454 -2.48595 0
M  V30 7739 H 699.648 -0.911155 -1.18399 0
M  V30 7740 H 701.53 -0.00381039 -4.214 0
M  V30 7741 H 700.205 0.598921 -3.18111 0
M  V30 7742 H 699.112 -1.71391 -3.3253 0
M  V30 7743 H 700.445 -2.23746 -4.38405 0
M  V30 7744 N 702.098 1.27442 -0.927168 0
M  V30 7745 C 703.028 2.29256 -0.443188 0
M  V30 7746 C 704.009 1.62701 0.49624 0
M  V30 7747 O 705.194 1.90013 0.401105 0
M  V30 7748 C 702.324 3.45955 0.305366 0
M  V30 7749 C 701.278 4.24501 -0.546178 0
M  V30 7750 C 700.604 5.33671 0.331512 0
M  V30 7751 C 701.904 4.89921 -1.81037 0
M  V30 7752 H 703.598 2.69988 -1.29409 0
M  V30 7753 H 701.144 1.29792 -0.623705 0
M  V30 7754 H 703.097 4.1628 0.654885 0
M  V30 7755 H 701.821 3.04138 1.19029 0
M  V30 7756 H 700.48 3.55921 -0.878398 0
M  V30 7757 H 700.128 4.88096 1.21537 0
M  V30 7758 H 699.828 5.87131 -0.234746 0
M  V30 7759 H 701.352 6.0684 0.676614 0
M  V30 7760 H 702.766 5.52536 -1.52895 0
M  V30 7761 H 701.163 5.53436 -2.32009 0
M  V30 7762 H 702.233 4.13652 -2.53021 0
M  V30 7763 N 703.576 0.692616 1.41565 0
M  V30 7764 C 704.824 0.221896 2.00878 0
M  V30 7765 C 705.145 -1.18164 1.5512 0
M  V30 7766 O 704.415 -1.79679 0.78054 0
M  V30 7767 H 702.995 0.0790463 0.742806 0
M  V30 7768 H 705.657 0.893115 1.73232 0
M  V30 7769 H 704.753 0.23702 3.11199 0
M  V30 7770 N 705.054 -1.51416 0.437162 0
M  V30 7771 C 706.279 -2.0699 -0.130424 0
M  V30 7772 C 706.704 -1.30249 -1.35709 0
M  V30 7773 O 706.062 -0.340388 -1.78076 0
M  V30 7774 C 706.11 -3.5801 -0.43142 0
M  V30 7775 O 705.214 -3.8345 -1.5179 0
M  V30 7776 H 704.555 -0.663997 -0.00194339 0
M  V30 7777 H 707.085 -1.95029 0.618445 0
M  V30 7778 H 707.095 -4.02261 -0.681926 0
M  V30 7779 H 705.77 -4.13291 0.465137 0
M  V30 7780 H 704.347 -3.51062 -1.25737 0
M  V30 7781 N 706.532 -0.168513 -1.56696 0
M  V30 7782 C 707.479 0.762875 -2.17828 0
M  V30 7783 C 708.449 1.22892 -1.11745 0
M  V30 7784 O 709.634 1.29759 -1.39883 0
M  V30 7785 C 706.774 1.9879 -2.82093 0
M  V30 7786 C 705.887 1.56568 -4.02629 0
M  V30 7787 C 705.022 2.74416 -4.54829 0
M  V30 7788 C 704.061 2.28671 -5.67782 0
M  V30 7789 N 703.198 3.39602 -6.14504 0
M  V30 7790 H 708.038 0.23479 -2.97074 0
M  V30 7791 H 705.575 0.104163 -1.46731 0
M  V30 7792 H 707.533 2.70636 -3.17509 0
M  V30 7793 H 706.163 2.48973 -2.05456 0
M  V30 7794 H 705.215 0.744067 -3.73052 0
M  V30 7795 H 706.527 1.18988 -4.844 0
M  V30 7796 H 705.681 3.54423 -4.92412 0
M  V30 7797 H 704.42 3.15254 -3.7211 0
M  V30 7798 H 703.425 1.4711 -5.29753 0
M  V30 7799 H 704.65 1.88894 -6.52301 0
M  V30 7800 H 702.596 3.80021 -5.34715 0
M  V30 7801 H 702.513 3.06105 -6.91257 0
M  V30 7802 H 703.781 4.19902 -6.56737 0
M  V30 7803 N 708.01 1.57248 0.105221 0
M  V30 7804 C 708.957 2.01338 1.12835 0
M  V30 7805 C 709.927 0.887897 1.40377 0
M  V30 7806 O 711.112 1.15315 1.5201 0
M  V30 7807 C 708.252 2.43432 2.44611 0
M  V30 7808 C 707.365 3.69457 2.23888 0
M  V30 7809 C 706.5 4.00473 3.48991 0
M  V30 7810 C 705.539 5.19638 3.23485 0
M  V30 7811 N 704.676 5.46457 4.40828 0
M  V30 7812 H 709.516 2.88527 0.745386 0
M  V30 7813 H 707.053 1.42714 0.356535 0
M  V30 7814 H 709.011 2.65879 3.21503 0
M  V30 7815 H 707.641 1.59266 2.80774 0
M  V30 7816 H 706.693 3.54545 1.37847 0
M  V30 7817 H 708.005 4.56497 2.01026 0
M  V30 7818 H 707.159 4.23642 4.34295 0
M  V30 7819 H 705.898 3.11935 3.74897 0
M  V30 7820 H 704.903 4.96299 2.36574 0
M  V30 7821 H 706.128 6.09766 2.98935 0
M  V30 7822 H 704.074 4.60876 4.66829 0
M  V30 7823 H 703.991 6.27849 4.2112 0
M  V30 7824 H 705.259 5.74155 5.27225 0
M  V30 7825 N 709.488 -0.375779 1.53054 0
M  V30 7826 C 710.735 -1.11948 1.68742 0
M  V30 7827 C 711.063 -1.89596 0.434015 0
M  V30 7828 O 710.318 -1.86787 -0.583867 0
M  V30 7829 C 710.617 -2.11356 2.88207 0
M  V30 7830 C 710.283 -1.50266 4.25124 0
M  V30 7831 C 708.945 -1.33333 4.62359 0
M  V30 7832 C 711.297 -1.05976 5.10312 0
M  V30 7833 C 708.625 -0.706765 5.82427 0
M  V30 7834 C 710.977 -0.447241 6.31017 0
M  V30 7835 C 709.641 -0.265314 6.66973 0
M  V30 7836 H 708.911 -0.409648 0.61747 0
M  V30 7837 H 711.558 -0.402492 1.87222 0
M  V30 7838 H 709.863 -2.89322 2.64197 0
M  V30 7839 H 711.56 -2.68833 2.97539 0
M  V30 7840 H 708.15 -1.64437 3.95801 0
M  V30 7841 H 712.334 -1.17855 4.82104 0
M  V30 7842 H 707.59 -0.554132 6.08884 0
M  V30 7843 H 711.764 -0.0958064 6.96334 0
M  V30 7844 H 709.391 0.222267 7.59875 0
M  V30 7845 N 710.966 -1.44241 -0.634997 0
M  V30 7846 C 711.876 -1.53293 -1.77591 0
M  V30 7847 C 712.892 -0.418831 -1.68884 0
M  V30 7848 O 714.068 -0.675619 -1.8973 0
M  V30 7849 C 711.133 -1.47075 -3.13958 0
M  V30 7850 C 710.194 -2.69304 -3.34326 0
M  V30 7851 C 709.427 -2.63374 -4.64187 0
M  V30 7852 O 709.65 -1.69161 -5.44739 0
M  V30 7853 O 708.584 -3.54166 -4.86673 0
M  V30 7854 H 712.41 -2.49673 -1.72908 0
M  V30 7855 H 709.995 -1.26445 -0.795745 0
M  V30 7856 H 711.877 -1.46117 -3.95257 0
M  V30 7857 H 710.552 -0.538373 -3.19192 0
M  V30 7858 H 709.459 -2.75831 -2.52721 0
M  V30 7859 H 710.792 -3.61576 -3.33951 0
M  V30 7860 N 712.444 0.87505 -1.31075 0
M  V30 7861 C 713.391 1.98178 -1.18296 0
M  V30 7862 C 714.361 1.65952 -0.0699923 0
M  V30 7863 O 715.546 1.8926 -0.241951 0
M  V30 7864 C 712.686 3.33399 -0.891024 0
M  V30 7865 C 711.799 3.78253 -2.08684 0
M  V30 7866 C 710.934 5.02166 -1.73212 0
M  V30 7867 C 709.973 5.39455 -2.89231 0
M  V30 7868 N 709.11 6.54549 -2.53989 0
M  V30 7869 H 713.95 2.0844 -2.12971 0
M  V30 7870 H 711.487 1.02047 -1.05948 0
M  V30 7871 H 713.445 4.11246 -0.702338 0
M  V30 7872 H 712.075 3.22794 0.0188799 0
M  V30 7873 H 711.127 2.9623 -2.38646 0
M  V30 7874 H 712.439 4.01821 -2.95536 0
M  V30 7875 H 711.593 5.87666 -1.50777 0
M  V30 7876 H 710.332 4.80491 -0.83544 0
M  V30 7877 H 709.337 4.52477 -3.12321 0
M  V30 7878 H 710.562 5.63098 -3.79601 0
M  V30 7879 H 708.508 6.3443 -1.66838 0
M  V30 7880 H 708.425 6.78035 -3.34372 0
M  V30 7881 H 709.693 7.43254 -2.34934 0
M  V30 7882 N 713.922 1.13953 1.08869 0
M  V30 7883 C 715.17 0.903023 1.80803 0
M  V30 7884 C 715.491 -0.572151 1.86417 0
M  V30 7885 O 714.761 -1.41589 1.35386 0
M  V30 7886 H 713.341 0.331099 0.669614 0
M  V30 7887 H 716.003 1.43719 1.31647 0
M  V30 7888 H 715.099 1.29881 2.83791 0
M  V30 7889 N 715.4 -1.26948 0.933913 0
M  V30 7890 C 716.333 -2.24977 0.382169 0
M  V30 7891 C 717.311 -1.53893 -0.524949 0
M  V30 7892 O 718.495 -1.82699 -0.464048 0
M  V30 7893 C 715.622 -3.35676 -0.451615 0
M  V30 7894 C 714.668 -4.24686 0.392947 0
M  V30 7895 S 715.501 -5.03898 1.81237 0
M  V30 7896 C 716.657 -6.18078 0.986443 0
M  V30 7897 H 716.89 -2.71429 1.21299 0
M  V30 7898 H 714.423 -1.35701 0.736523 0
M  V30 7899 H 716.381 -3.99901 -0.926797 0
M  V30 7900 H 715.042 -2.8785 -1.25703 0
M  V30 7901 H 714.235 -5.03402 -0.245533 0
M  V30 7902 H 713.837 -3.65288 0.802537 0
M  V30 7903 H 716.129 -6.77125 0.225321 0
M  V30 7904 H 717.072 -6.86216 1.74682 0
M  V30 7905 H 717.48 -5.62047 0.525711 0
M  V30 7906 N 716.879 -0.700114 -1.41195 0
M  V30 7907 C 717.826 -0.0376652 -2.30769 0
M  V30 7908 C 718.796 0.766544 -1.47354 0
M  V30 7909 O 719.981 0.73365 -1.76131 0
M  V30 7910 C 717.121 0.889452 -3.33441 0
M  V30 7911 C 716.234 0.076373 -4.31932 0
M  V30 7912 C 715.369 1.00155 -5.21673 0
M  V30 7913 C 714.408 0.181644 -6.1183 0
M  V30 7914 N 713.545 1.06087 -6.94039 0
M  V30 7915 H 718.385 -0.80726 -2.86858 0
M  V30 7916 H 715.922 -0.409798 -1.41277 0
M  V30 7917 H 717.88 1.44107 -3.91522 0
M  V30 7918 H 716.51 1.6254 -2.78892 0
M  V30 7919 H 715.562 -0.592223 -3.75762 0
M  V30 7920 H 716.874 -0.559076 -4.95657 0
M  V30 7921 H 716.028 1.62223 -5.8461 0
M  V30 7922 H 714.767 1.67085 -4.58186 0
M  V30 7923 H 713.772 -0.452085 -5.47938 0
M  V30 7924 H 714.997 -0.483925 -6.77374 0
M  V30 7925 H 712.943 1.7161 -6.33156 0
M  V30 7926 H 712.86 0.481094 -7.54468 0
M  V30 7927 H 714.128 1.66822 -7.6144 0
M  V30 7928 N 718.357 1.51182 -0.445186 0
M  V30 7929 C 719.304 2.27939 0.362291 0
M  V30 7930 C 720.274 1.31864 1.01 0
M  V30 7931 O 721.459 1.60776 1.02741 0
M  V30 7932 C 718.599 3.13016 1.45311 0
M  V30 7933 C 717.712 4.24093 0.822757 0
M  V30 7934 C 716.847 4.96467 1.88928 0
M  V30 7935 C 715.886 5.99454 1.23778 0
M  V30 7936 N 715.023 6.65206 2.24602 0
M  V30 7937 H 719.863 2.965 -0.29862 0
M  V30 7938 H 717.4 1.46237 -0.15911 0
M  V30 7939 H 719.358 3.60673 2.09692 0
M  V30 7940 H 717.988 2.46553 2.08354 0
M  V30 7941 H 717.04 3.80341 0.0670364 0
M  V30 7942 H 718.352 4.97853 0.307184 0
M  V30 7943 H 717.506 5.47712 2.60953 0
M  V30 7944 H 716.245 4.22355 2.4386 0
M  V30 7945 H 715.25 5.47494 0.503042 0
M  V30 7946 H 716.475 6.75527 0.695694 0
M  V30 7947 H 714.421 5.93901 2.78599 0
M  V30 7948 H 714.338 7.34756 1.77958 0
M  V30 7949 H 715.606 7.21078 2.96085 0
M  V30 7950 N 719.835 0.176821 1.56605 0
M  V30 7951 C 720.765 -0.746841 2.21234 0
M  V30 7952 C 721.746 -1.23502 1.16967 0
M  V30 7953 O 722.931 -1.28718 1.45414 0
M  V30 7954 C 720.061 -1.97407 2.8574 0
M  V30 7955 C 719.015 -1.62153 3.96094 0
M  V30 7956 C 718.341 -2.92387 4.47676 0
M  V30 7957 C 719.641 -0.845353 5.15413 0
M  V30 7958 H 721.335 -0.208116 2.98676 0
M  V30 7959 H 718.881 -0.0986594 1.43662 0
M  V30 7960 H 720.834 -2.62531 3.2963 0
M  V30 7961 H 719.558 -2.53703 2.05676 0
M  V30 7962 H 718.217 -0.993964 3.52868 0
M  V30 7963 H 717.865 -3.46734 3.64396 0
M  V30 7964 H 717.565 -2.69551 5.22127 0
M  V30 7965 H 719.089 -3.5853 4.94255 0
M  V30 7966 H 720.503 -1.39929 5.55961 0
M  V30 7967 H 718.9 -0.715814 5.95815 0
M  V30 7968 H 719.97 0.157239 4.84645 0
M  V30 7969 N 721.313 -1.57302 -0.09688 0
M  V30 7970 C 722.561 -1.8563 -0.799117 0
M  V30 7971 C 722.882 -0.765263 -1.79356 0
M  V30 7972 O 722.152 0.208657 -1.94786 0
M  V30 7973 H 720.732 -0.684937 -0.298111 0
M  V30 7974 H 723.394 -1.9474 -0.0789341 0
M  V30 7975 H 722.49 -2.82305 -1.3308 0
M  V30 7976 N 722.791 0.367657 -1.53252 0
M  V30 7977 C 724.037 1.11216 -1.69584 0
M  V30 7978 C 724.37 1.89026 -0.445269 0
M  V30 7979 O 723.645 1.86342 0.557404 0
M  V30 7980 C 723.928 2.07308 -2.94441 0
M  V30 7981 C 723.781 1.3312 -4.2965 0
M  V30 7982 C 725.1 3.07459 -3.14892 0
M  V30 7983 H 722.219 0.40294 -0.617096 0
M  V30 7984 H 724.861 0.393201 -1.85887 0
M  V30 7985 H 723.011 2.68617 -2.80673 0
M  V30 7986 H 724.683 0.746111 -4.55226 0
M  V30 7987 H 722.926 0.633051 -4.29156 0
M  V30 7988 H 723.597 2.03443 -5.13142 0
M  V30 7989 H 726.073 2.56252 -3.27832 0
M  V30 7990 H 724.949 3.71919 -4.03693 0
M  V30 7991 H 725.21 3.77514 -2.30077 0
M  V30 7992 N 724.269 1.44576 0.627338 0
M  V30 7993 C 725.517 1.47267 1.38408 0
M  V30 7994 C 725.838 0.107971 1.94701 0
M  V30 7995 O 725.108 -0.860206 1.76004 0
M  V30 7996 H 723.688 0.542276 0.513756 0
M  V30 7997 H 726.35 1.80383 0.738099 0
M  V30 7998 H 725.446 2.20025 2.21349 0
M  V30 7999 N 725.747 -0.868086 1.31537 0
M  V30 8000 C 726.657 -2.00801 1.21311 0
M  V30 8001 C 727.673 -1.73518 0.129431 0
M  V30 8002 O 728.849 -1.98378 0.347588 0
M  V30 8003 C 725.914 -3.3419 0.922935 0
M  V30 8004 C 724.975 -3.74783 2.0937 0
M  V30 8005 C 724.208 -5.01807 1.81728 0
M  V30 8006 O 724.431 -5.65404 0.753313 0
M  V30 8007 O 723.365 -5.39213 2.67457 0
M  V30 8008 H 727.191 -2.12361 2.17109 0
M  V30 8009 H 724.776 -0.996684 1.11295 0
M  V30 8010 H 726.658 -4.14174 0.777033 0
M  V30 8011 H 725.333 -3.237 -0.00500301 0
M  V30 8012 H 724.24 -2.95432 2.29501 0
M  V30 8013 H 725.573 -3.89902 3.00396 0
M  V30 8014 N 727.225 -1.14528 -1.08264 0
M  V30 8015 C 728.502 -0.825185 -1.77342 0
M  V30 8016 C 728.882 0.681037 -1.99813 0
M  V30 8017 O 728.23 1.62234 -1.60912 0
M  V30 8018 C 728.44 -1.62556 -3.08831 0
M  V30 8019 C 729.788 -1.82585 -3.83338 0
M  V30 8020 O 730.812 -1.59254 -3.18617 0
M  V30 8021 O 729.671 -2.21598 -4.99556 0
M  V30 8022 H 726.765 -0.302531 -0.769678 0
M  V30 8023 H 729.311 -1.25056 -1.14713 0
M  V30 8024 H 728.083 -2.64862 -2.88035 0
M  V30 8025 H 727.706 -1.1959 -3.79189 0
M  V30 8026 N 728.703 1.26451 -0.940633 0
M  V30 8027 C 729.952 1.93071 -0.583656 0
M  V30 8028 C 730.265 1.74618 0.881366 0
M  V30 8029 O 731.471 2.35689 1.34769 0
M  V30 8030 C 729.927 3.45927 -0.993106 0
M  V30 8031 C 729.535 3.73115 -2.4797 0
M  V30 8032 C 731.279 4.18554 -0.707998 0
M  V30 8033 C 729.186 5.19408 -2.82788 0
M  V30 8034 H 728.116 0.722824 -0.214572 0
M  V30 8035 H 730.767 1.43538 -1.1432 0
M  V30 8036 H 729.149 3.94341 -0.362099 0
M  V30 8037 H 730.323 3.35408 -3.15971 0
M  V30 8038 H 728.638 3.13719 -2.73805 0
M  V30 8039 H 731.235 5.26293 -0.94447 0
M  V30 8040 H 731.578 4.14782 0.355225 0
M  V30 8041 H 732.111 3.76003 -1.2987 0
M  V30 8042 H 728.85 5.28281 -3.88071 0
M  V30 8043 H 728.37 5.58214 -2.19449 0
M  V30 8044 H 730.049 5.87407 -2.71224 0
M  V30 8045 N 730.181 0.707592 1.40822 0
M  V30 8046 C 731.592 0.317011 1.83989 0
M  V30 8047 C 731.943 -1.14697 1.59182 0
M  V30 8048 O 731.068 -1.8818 1.06852 0
M  V30 8049 C 731.663 0.568593 3.33995 0
M  V30 8050 C 730.222 0.231804 3.75686 0
M  V30 8051 C 729.369 0.844933 2.64114 0
M  V30 8052 H 732.32 0.907349 1.30203 0
M  V30 8053 H 732.341 -0.168798 3.80125 0
M  V30 8054 H 731.853 1.63417 3.52018 0
M  V30 8055 H 729.954 -0.82903 3.6326 0
M  V30 8056 H 730.067 0.695219 4.74029 0
M  V30 8057 H 728.431 0.273588 2.53226 0
M  V30 8058 H 729.214 1.91462 2.84951 0
M  V30 8059 N 731.66 -1.50943 0.453197 0
M  V30 8060 C 732.885 -2.07116 -0.108463 0
M  V30 8061 C 733.31 -1.31681 -1.3432 0
M  V30 8062 O 732.668 -0.359256 -1.77705 0
M  V30 8063 C 732.716 -3.58447 -0.393424 0
M  V30 8064 O 731.82 -3.85038 -1.47714 0
M  V30 8065 H 731.161 -0.66398 0.0050993 0
M  V30 8066 H 733.691 -1.94362 0.639095 0
M  V30 8067 H 733.701 -4.02961 -0.639222 0
M  V30 8068 H 732.376 -4.12774 0.508946 0
M  V30 8069 H 730.953 -3.52376 -1.22006 0
M  V30 8070 N 733.138 -0.185124 -1.56509 0
M  V30 8071 C 734.415 0.503348 -1.89013 0
M  V30 8072 C 734.795 1.80349 -1.09715 0
M  V30 8073 O 734.143 2.27665 -0.195203 0
M  V30 8074 C 734.353 0.731839 -3.41241 0
M  V30 8075 C 735.701 1.05568 -4.11267 0
M  V30 8076 O 736.725 0.819906 -3.46635 0
M  V30 8077 O 735.584 1.50116 -5.25478 0
M  V30 8078 H 732.678 0.261139 -0.784688 0
M  V30 8079 H 735.224 -0.224592 -1.68207 0
M  V30 8080 H 733.996 -0.18672 -3.90854 0
M  V30 8081 H 733.619 1.5126 -3.67704 0
M  V30 8082 N 734.616 1.57351 0.0885366 0
M  V30 8083 C 735.846 1.90355 0.80303 0
M  V30 8084 C 736.254 0.777678 1.72478 0
M  V30 8085 O 735.597 -0.258908 1.81866 0
M  V30 8086 C 735.659 3.18674 1.66395 0
M  V30 8087 C 735.323 4.4778 0.913327 0
M  V30 8088 C 736.32 5.19345 0.240148 0
M  V30 8089 C 734.005 4.94434 0.885462 0
M  V30 8090 C 735.999 6.35803 -0.450854 0
M  V30 8091 C 733.686 6.10802 0.190679 0
M  V30 8092 C 734.684 6.81337 -0.476295 0
M  V30 8093 O 734.372 7.95488 -1.15992 0
M  V30 8094 H 734.104 0.634035 0.234469 0
M  V30 8095 H 736.658 2.05287 0.0681959 0
M  V30 8096 H 734.888 2.99906 2.44117 0
M  V30 8097 H 736.577 3.37458 2.2556 0
M  V30 8098 H 737.343 4.84339 0.253092 0
M  V30 8099 H 733.222 4.39417 1.39406 0
M  V30 8100 H 736.766 6.90795 -0.972019 0
M  V30 8101 H 732.663 6.45261 0.175603 0
M  V30 8102 H 733.431 8.11509 -1.06749 0
M  V30 8103 N 736.094 -0.359525 1.53444 0
M  V30 8104 C 737.505 -0.936009 1.61542 0
M  V30 8105 C 737.856 -1.90069 0.486633 0
M  V30 8106 O 736.981 -2.12929 -0.386047 0
M  V30 8107 C 737.576 -1.70441 2.92806 0
M  V30 8108 C 736.135 -2.23015 3.03218 0
M  V30 8109 C 735.282 -1.04438 2.56881 0
M  V30 8110 H 738.233 -0.138134 1.58098 0
M  V30 8111 H 738.254 -2.56609 2.80948 0
M  V30 8112 H 737.766 -1.00205 3.74941 0
M  V30 8113 H 735.867 -2.96475 2.25684 0
M  V30 8114 H 735.98 -2.50481 4.08407 0
M  V30 8115 H 734.344 -1.41314 2.11902 0
M  V30 8116 H 735.127 -0.356905 3.4144 0
M  V30 8117 N 737.572 -1.44907 -0.619662 0
M  V30 8118 C 738.819 -1.48292 -1.37898 0
M  V30 8119 C 739.147 -0.119933 -1.9413 0
M  V30 8120 O 738.402 0.879834 -1.74807 0
M  V30 8121 C 738.701 -2.50002 -2.55409 0
M  V30 8122 C 738.367 -3.95031 -2.17397 0
M  V30 8123 C 737.029 -4.34524 -2.06743 0
M  V30 8124 C 739.381 -4.86287 -1.87548 0
M  V30 8125 C 736.709 -5.63183 -1.64445 0
M  V30 8126 C 739.061 -6.15346 -1.4674 0
M  V30 8127 C 737.725 -6.53781 -1.34636 0
M  V30 8128 H 736.995 -0.542638 -0.504603 0
M  V30 8129 H 739.642 -1.78186 -0.701581 0
M  V30 8130 H 737.947 -2.13634 -3.28433 0
M  V30 8131 H 739.644 -2.49864 -3.13639 0
M  V30 8132 H 736.234 -3.63793 -2.26611 0
M  V30 8133 H 740.418 -4.56522 -1.94682 0
M  V30 8134 H 735.674 -5.91769 -1.53687 0
M  V30 8135 H 739.848 -6.85508 -1.22685 0
M  V30 8136 H 737.475 -7.53375 -1.01634 0
M  V30 8137 N 739.05 0.861098 -1.31996 0
M  V30 8138 C 740.28 1.64501 -1.24992 0
M  V30 8139 C 740.688 1.88288 0.185576 0
M  V30 8140 O 740.031 1.44756 1.131 0
M  V30 8141 C 740.093 3.03098 -1.93319 0
M  V30 8142 C 739.757 3.02381 -3.42658 0
M  V30 8143 C 740.754 2.79696 -4.38254 0
M  V30 8144 C 738.439 3.23221 -3.84491 0
M  V30 8145 C 740.433 2.77843 -5.73657 0
M  V30 8146 C 738.12 3.20996 -5.20005 0
M  V30 8147 C 739.118 2.98335 -6.14398 0
M  V30 8148 O 738.806 2.95971 -7.47433 0
M  V30 8149 H 738.538 0.519309 -0.432775 0
M  V30 8150 H 741.092 1.08241 -1.74565 0
M  V30 8151 H 739.322 3.61121 -1.38306 0
M  V30 8152 H 741.011 3.63751 -1.8011 0
M  V30 8153 H 741.777 2.63368 -4.07262 0
M  V30 8154 H 737.656 3.39887 -3.11445 0
M  V30 8155 H 741.2 2.60074 -6.47308 0
M  V30 8156 H 737.097 3.36865 -5.50629 0
M  V30 8157 H 737.865 3.1197 -7.56714 0
M  V30 8158 N 740.528 1.15101 1.07655 0
M  V30 8159 C 741.476 0.840714 2.16875 0
M  V30 8160 C 742.47 -0.184594 1.68391 0
M  V30 8161 O 743.676 -0.0399315 1.79956 0
M  V30 8162 H 740.051 0.254192 0.707736 0
M  V30 8163 H 742.022 1.76959 2.40266 0
M  V30 8164 C 740.771 0.343018 3.46004 0
M  V30 8165 H 740.094 1.12335 3.83694 0
M  V30 8166 H 741.534 0.16453 4.23681 0
M  V30 8167 C 739.993 -0.934881 3.23669 0
M  V30 8168 O 740.523 -2.00706 3.47965 0
M  V30 8169 N 738.729 -0.873167 2.77172 0
M  V30 8170 H 738.276 -0.000479072 2.576 0
M  V30 8171 H 738.234 -1.72873 2.62607 0
M  V30 8172 N 742.006 -1.2595 0.947325 0
M  V30 8173 C 742.969 -2.24407 0.466285 0
M  V30 8174 C 743.969 -1.55054 -0.426005 0
M  V30 8175 O 745.159 -1.7275 -0.224319 0
M  V30 8176 C 742.291 -3.39326 -0.327201 0
M  V30 8177 H 743.484 -2.68477 1.33642 0
M  V30 8178 H 741.037 -1.38211 0.729887 0
M  V30 8179 H 741.772 -3.00667 -1.21532 0
M  V30 8180 H 741.557 -3.9085 0.312839 0
M  V30 8181 H 743.047 -4.12455 -0.653477 0
M  V30 8182 N 743.484 -0.715051 -1.40445 0
M  V30 8183 C 744.416 -0.0227516 -2.29189 0
M  V30 8184 C 745.429 0.724313 -1.458 0
M  V30 8185 O 746.618 0.571781 -1.69094 0
M  V30 8186 C 743.718 0.992038 -3.24055 0
M  V30 8187 C 742.891 0.310613 -4.36296 0
M  V30 8188 C 741.95 1.23071 -5.11605 0
M  V30 8189 O 740.976 0.71571 -5.64682 0
M  V30 8190 N 742.178 2.56188 -5.2091 0
M  V30 8191 H 744.943 -0.78473 -2.89244 0
M  V30 8192 H 742.504 -0.562637 -1.51809 0
M  V30 8193 H 744.496 1.60973 -3.71308 0
M  V30 8194 H 743.066 1.65538 -2.65171 0
M  V30 8195 H 742.286 -0.487269 -3.91177 0
M  V30 8196 H 743.574 -0.162415 -5.08541 0
M  V30 8197 H 742.972 3.00527 -4.7927 0
M  V30 8198 H 741.529 3.13103 -5.71673 0
M  V30 8199 N 744.962 1.50701 -0.461195 0
M  V30 8200 C 746.211 2.01458 0.0988277 0
M  V30 8201 C 746.524 1.34863 1.41673 0
M  V30 8202 O 747.73 1.76721 2.06111 0
M  V30 8203 C 746.186 3.59186 0.226648 0
M  V30 8204 C 745.794 4.34732 -1.08223 0
M  V30 8205 C 747.538 4.18015 0.73916 0
M  V30 8206 C 745.445 5.8422 -0.918747 0
M  V30 8207 H 744.375 0.7529 0.040709 0
M  V30 8208 H 747.026 1.736 -0.594589 0
M  V30 8209 H 745.408 3.83589 0.983621 0
M  V30 8210 H 746.582 4.22059 -1.84939 0
M  V30 8211 H 744.897 3.87466 -1.52509 0
M  V30 8212 H 747.494 5.27436 0.878347 0
M  V30 8213 H 747.837 3.78746 1.72793 0
M  V30 8214 H 748.37 3.9778 0.0398469 0
M  V30 8215 H 745.109 6.27944 -1.88059 0
M  V30 8216 H 744.629 5.99493 -0.191801 0
M  V30 8217 H 746.308 6.44382 -0.581405 0
M  V30 8218 N 746.441 0.193421 1.56409 0
M  V30 8219 C 747.666 -0.454552 2.02358 0
M  V30 8220 C 748.091 -1.54516 1.07268 0
M  V30 8221 O 747.449 -1.81214 0.0558962 0
M  V30 8222 C 747.497 -0.989469 3.46759 0
M  V30 8223 O 746.601 -2.10244 3.54783 0
M  V30 8224 H 745.942 -0.106417 0.655417 0
M  V30 8225 H 748.472 0.303807 2.02332 0
M  V30 8226 H 748.482 -1.30649 3.86516 0
M  V30 8227 H 747.157 -0.191083 4.15461 0
M  V30 8228 H 745.734 -1.79419 3.26899 0
M  V30 8229 N 747.919 -1.57396 -0.0801906 0
M  V30 8230 C 748.867 -2.04136 -1.11495 0
M  V30 8231 C 749.861 -0.945137 -1.40583 0
M  V30 8232 O 751.067 -1.13028 -1.40088 0
M  V30 8233 H 747.442 -0.65076 -0.37685 0
M  V30 8234 H 749.413 -2.90205 -0.694526 0
M  V30 8235 C 748.162 -2.49399 -2.42272 0
M  V30 8236 H 747.485 -3.33339 -2.20737 0
M  V30 8237 H 748.925 -2.85864 -3.13142 0
M  V30 8238 C 747.384 -1.37341 -3.07635 0
M  V30 8239 O 747.914 -0.710829 -3.95361 0
M  V30 8240 N 746.12 -1.12064 -2.68123 0
M  V30 8241 H 745.667 -1.66126 -1.96875 0
M  V30 8242 H 745.625 -0.372916 -3.12181 0
M  V30 8243 N 749.397 0.351382 -1.53633 0
M  V30 8244 C 750.344 1.43115 -1.81071 0
M  V30 8245 C 751.314 1.52601 -0.655913 0
M  V30 8246 O 752.499 1.68264 -0.89955 0
M  V30 8247 C 749.639 2.79874 -2.01903 0
M  V30 8248 C 748.752 2.79242 -3.29618 0
M  V30 8249 C 747.887 4.07667 -3.40559 0
M  V30 8250 C 746.926 4.01233 -4.62254 0
M  V30 8251 N 746.063 5.21334 -4.70271 0
M  V30 8252 H 750.903 1.19017 -2.73201 0
M  V30 8253 H 748.44 0.576691 -1.35324 0
M  V30 8254 H 750.398 3.5934 -2.11969 0
M  V30 8255 H 749.028 3.0234 -1.13094 0
M  V30 8256 H 748.08 1.91927 -3.28433 0
M  V30 8257 H 749.392 2.70363 -4.19172 0
M  V30 8258 H 748.546 4.95555 -3.50015 0
M  V30 8259 H 747.285 4.19317 -2.49047 0
M  V30 8260 H 746.29 3.11732 -4.52884 0
M  V30 8261 H 747.515 3.91173 -5.55122 0
M  V30 8262 H 745.461 5.33543 -3.81665 0
M  V30 8263 H 745.378 5.14681 -5.5375 0
M  V30 8264 H 746.646 6.11014 -4.84027 0
M  V30 8265 N 750.875 1.45233 0.611969 0
M  V30 8266 C 751.823 1.53898 1.74408 0
M  V30 8267 C 752.817 0.409254 1.64382 0
M  V30 8268 O 754.023 0.584988 1.70229 0
M  V30 8269 H 750.398 0.483303 0.576127 0
M  V30 8270 H 752.369 2.49143 1.64227 0
M  V30 8271 C 751.118 1.51865 3.12782 0
M  V30 8272 H 750.441 2.38118 3.21154 0
M  V30 8273 H 751.881 1.61986 3.91838 0
M  V30 8274 C 750.34 0.242374 3.36027 0
M  V30 8275 O 750.87 -0.679587 3.9591 0
M  V30 8276 N 749.076 0.139448 2.90265 0
M  V30 8277 H 748.623 0.890571 2.41716 0
M  V30 8278 H 748.581 -0.713686 3.06193 0
M  V30 8279 N 752.353 -0.854086 1.3245 0
M  V30 8280 C 753.283 -1.97827 1.24044 0
M  V30 8281 C 754.264 -1.69646 0.124166 0
M  V30 8282 O 755.449 -1.91687 0.31143 0
M  V30 8283 C 752.579 -3.33673 0.963324 0
M  V30 8284 C 751.533 -3.76207 2.04089 0
M  V30 8285 C 750.859 -5.0969 1.61618 0
M  V30 8286 C 752.159 -3.91612 3.45597 0
M  V30 8287 H 753.853 -2.05118 2.18099 0
M  V30 8288 H 751.399 -0.985489 1.04996 0
M  V30 8289 H 753.352 -4.11871 0.891061 0
M  V30 8290 H 752.076 -3.26597 -0.0128649 0
M  V30 8291 H 750.735 -3.0026 2.10332 0
M  V30 8292 H 750.383 -4.99072 0.627418 0
M  V30 8293 H 750.083 -5.3912 2.33717 0
M  V30 8294 H 751.607 -5.90381 1.55829 0
M  V30 8295 H 753.021 -4.60163 3.4194 0
M  V30 8296 H 751.418 -4.3246 4.16051 0
M  V30 8297 H 752.488 -2.9451 3.85217 0
M  V30 8298 N 753.831 -1.1567 -1.07043 0
M  V30 8299 C 755.108 -0.843948 -1.76456 0
M  V30 8300 C 755.488 0.659806 -2.00524 0
M  V30 8301 O 754.836 1.60518 -1.62623 0
M  V30 8302 C 755.046 -1.65822 -3.0709 0
M  V30 8303 C 756.394 -1.8664 -3.8138 0
M  V30 8304 O 757.418 -1.62624 -3.1691 0
M  V30 8305 O 756.277 -2.26884 -4.97178 0
M  V30 8306 H 753.371 -0.310677 -0.766426 0
M  V30 8307 H 755.917 -1.26266 -1.1338 0
M  V30 8308 H 754.689 -2.67902 -2.85209 0
M  V30 8309 H 754.312 -1.23605 -3.77899 0
M  V30 8310 N 755.309 1.25446 -0.953992 0
M  V30 8311 C 756.257 2.27909 -0.46478 0
M  V30 8312 C 757.251 1.62904 0.464607 0
M  V30 8313 O 758.457 1.76733 0.341407 0
M  V30 8314 H 754.832 0.74036 -0.131798 0
M  V30 8315 H 756.803 2.66559 -1.34122 0
M  V30 8316 C 755.552 3.46853 0.242589 0
M  V30 8317 H 754.875 3.97105 -0.463418 0
M  V30 8318 H 756.315 4.20432 0.548919 0
M  V30 8319 C 754.774 3.03386 1.46487 0
M  V30 8320 O 755.304 3.09342 2.56262 0
M  V30 8321 N 753.51 2.58584 1.32599 0
M  V30 8322 H 753.057 2.53938 0.432834 0
M  V30 8323 H 753.015 2.29866 2.14497 0
M  V30 8324 N 756.787 0.722489 1.40064 0
M  V30 8325 C 757.697 0.0755984 2.34478 0
M  V30 8326 C 758.713 -0.736046 1.57665 0
M  V30 8327 O 759.889 -0.667407 1.9002 0
M  V30 8328 C 756.954 -0.830075 3.36616 0
M  V30 8329 C 756.015 -0.00759884 4.29299 0
M  V30 8330 C 755.248 -0.870139 5.26559 0
M  V30 8331 O 755.471 -2.10921 5.2997 0
M  V30 8332 O 754.405 -0.305454 6.01124 0
M  V30 8333 H 758.231 0.854545 2.9143 0
M  V30 8334 H 755.816 0.483032 1.41376 0
M  V30 8335 H 757.698 -1.34864 3.99236 0
M  V30 8336 H 756.373 -1.58805 2.82069 0
M  V30 8337 H 755.28 0.556199 3.69942 0
M  V30 8338 H 756.613 0.712312 4.87018 0
M  V30 8339 N 758.265 -1.50454 0.469181 0
M  V30 8340 C 759.514 -2.01507 -0.0881425 0
M  V30 8341 C 759.827 -1.35613 -1.40956 0
M  V30 8342 O 761.033 -1.77812 -2.05171 0
M  V30 8343 C 759.489 -3.59301 -0.207596 0
M  V30 8344 C 759.097 -4.34152 1.10527 0
M  V30 8345 C 760.841 -4.18401 -0.716981 0
M  V30 8346 C 758.748 -5.83725 0.949717 0
M  V30 8347 H 757.678 -0.753106 -0.0367156 0
M  V30 8348 H 760.329 -1.73282 0.603788 0
M  V30 8349 H 758.711 -3.84106 -0.963265 0
M  V30 8350 H 759.885 -4.21073 1.87175 0
M  V30 8351 H 758.2 -3.86652 1.54562 0
M  V30 8352 H 760.797 -5.27895 -0.850363 0
M  V30 8353 H 761.14 -3.79657 -1.70782 0
M  V30 8354 H 761.673 -3.97796 -0.0187511 0
M  V30 8355 H 758.412 -6.26938 1.91387 0
M  V30 8356 H 757.932 -5.99383 0.223591 0
M  V30 8357 H 759.611 -6.44065 0.61557 0
M  V30 8358 N 759.743 -0.201713 -1.56304 0
M  V30 8359 C 760.673 0.71155 -2.22394 0
M  V30 8360 C 761.654 1.21625 -1.18917 0
M  V30 8361 O 762.839 1.26388 -1.47444 0
M  V30 8362 C 759.969 1.92837 -2.88845 0
M  V30 8363 C 758.923 1.55831 -3.98623 0
M  V30 8364 C 758.249 2.85228 -4.52271 0
M  V30 8365 C 759.549 0.763249 -5.16693 0
M  V30 8366 H 761.243 0.160573 -2.98969 0
M  V30 8367 H 758.789 0.0757916 -1.438 0
M  V30 8368 H 760.742 2.57253 -3.33764 0
M  V30 8369 H 759.466 2.50398 -2.09686 0
M  V30 8370 H 758.125 0.9377 -3.54405 0
M  V30 8371 H 757.773 3.40893 -3.69866 0
M  V30 8372 H 757.473 2.6121 -5.26349 0
M  V30 8373 H 758.997 3.50622 -4.99897 0
M  V30 8374 H 760.411 1.31066 -5.58117 0
M  V30 8375 H 758.808 0.620935 -5.96879 0
M  V30 8376 H 759.878 -0.234322 -4.84334 0
M  V30 8377 N 761.222 1.57436 0.0718424 0
M  V30 8378 C 762.152 2.06724 1.08571 0
M  V30 8379 C 763.133 0.960731 1.40371 0
M  V30 8380 O 764.318 1.23345 1.49999 0
M  V30 8381 C 761.448 2.51112 2.39916 0
M  V30 8382 C 760.402 3.65639 2.22469 0
M  V30 8383 C 759.728 3.96082 3.59198 0
M  V30 8384 C 761.028 4.95687 1.64596 0
M  V30 8385 H 762.722 2.91679 0.675569 0
M  V30 8386 H 760.268 1.40319 0.32352 0
M  V30 8387 H 762.221 2.84206 3.11135 0
M  V30 8388 H 760.945 1.63186 2.8291 0
M  V30 8389 H 759.604 3.32828 1.53691 0
M  V30 8390 H 759.252 3.05287 3.99761 0
M  V30 8391 H 758.952 4.73199 3.48362 0
M  V30 8392 H 760.476 4.31672 4.31847 0
M  V30 8393 H 761.89 5.27011 2.25681 0
M  V30 8394 H 760.287 5.77126 1.64457 0
M  V30 8395 H 761.357 4.8108 0.60744 0
M  V30 8396 N 762.7 -0.34323 1.53817 0
M  V30 8397 C 763.663 -1.40444 1.8113 0
M  V30 8398 C 764.663 -1.45604 0.682366 0
M  V30 8399 O 765.853 -1.45974 0.950649 0
M  V30 8400 C 762.985 -2.79369 1.95361 0
M  V30 8401 H 764.178 -1.17489 2.75928 0
M  V30 8402 H 761.731 -0.577636 1.45234 0
M  V30 8403 H 762.466 -3.07607 1.02707 0
M  V30 8404 H 762.251 -2.7702 2.77493 0
M  V30 8405 H 763.741 -3.56178 2.18008 0
M  V30 8406 N 764.178 -1.45556 -0.604258 0
M  V30 8407 C 765.455 -1.40221 -1.36373 0
M  V30 8408 C 765.835 -0.0745195 -2.10968 0
M  V30 8409 O 765.183 0.943594 -2.08107 0
M  V30 8410 C 765.393 -2.61807 -2.30777 0
M  V30 8411 C 766.741 -3.07037 -2.93281 0
M  V30 8412 O 767.765 -2.62203 -2.41097 0
M  V30 8413 O 766.624 -3.8485 -3.88011 0
M  V30 8414 H 763.718 -0.556602 -0.611656 0
M  V30 8415 H 766.264 -1.57689 -0.627069 0
M  V30 8416 H 765.036 -3.50017 -1.74939 0
M  V30 8417 H 764.659 -2.46688 -3.11818 0
M  V30 8418 N 765.656 0.84705 -1.32902 0
M  V30 8419 C 766.881 1.63925 -1.27056 0
M  V30 8420 C 767.306 1.87443 0.157136 0
M  V30 8421 O 766.664 1.43266 1.11106 0
M  V30 8422 C 766.712 2.97134 -2.04313 0
M  V30 8423 O 765.816 3.88049 -1.39614 0
M  V30 8424 H 765.157 0.499477 -0.437514 0
M  V30 8425 H 767.687 1.05443 -1.75336 0
M  V30 8426 H 767.697 3.46896 -2.14772 0
M  V30 8427 H 766.372 2.79339 -3.08128 0
M  V30 8428 H 764.949 3.46525 -1.3775 0
M  V30 8429 N 767.134 1.16236 1.06428 0
M  V30 8430 C 768.382 0.941171 1.78847 0
M  V30 8431 C 768.703 -0.53248 1.87589 0
M  V30 8432 O 767.973 -1.38686 1.38358 0
M  V30 8433 H 766.553 0.345228 0.66244 0
M  V30 8434 H 769.215 1.46479 1.28569 0
M  V30 8435 H 768.311 1.35871 2.80972 0
M  V30 8436 N 768.612 -1.24939 0.960631 0
M  V30 8437 C 769.842 -1.96595 0.635123 0
M  V30 8438 C 770.25 -1.71538 -0.798206 0
M  V30 8439 O 769.593 -0.991727 -1.5463 0
M  V30 8440 C 769.655 -3.49994 0.821248 0
M  V30 8441 C 769.319 -3.98738 2.23287 0
M  V30 8442 C 770.316 -4.08965 3.21004 0
M  V30 8443 C 768.001 -4.32247 2.55867 0
M  V30 8444 C 769.995 -4.52025 4.49391 0
M  V30 8445 C 767.682 -4.74991 3.84482 0
M  V30 8446 C 768.68 -4.84844 4.81056 0
M  V30 8447 O 768.368 -5.26638 6.07378 0
M  V30 8448 H 768.1 -0.633265 0.23654 0
M  V30 8449 H 770.654 -1.5991 1.28911 0
M  V30 8450 H 768.884 -3.86543 0.110105 0
M  V30 8451 H 770.573 -4.02859 0.495892 0
M  V30 8452 H 771.339 -3.83302 2.97161 0
M  V30 8453 H 767.218 -4.23801 1.81421 0
M  V30 8454 H 770.762 -4.5963 5.24773 0
M  V30 8455 H 766.659 -5.00101 4.08129 0
M  V30 8456 H 767.427 -5.44807 6.10842 0
M  V30 8457 N 770.09 -0.729906 -1.39679 0
M  V30 8458 C 771.338 -0.275077 -2.00219 0
M  V30 8459 C 771.659 1.1401 -1.58199 0
M  V30 8460 O 770.929 1.77546 -0.827904 0
M  V30 8461 H 769.509 -0.0987127 -0.740449 0
M  V30 8462 H 772.171 -0.93873 -1.70804 0
M  V30 8463 H 771.267 -0.319446 -3.10461 0
M  V30 8464 N 771.568 1.50203 -0.477153 0
M  V30 8465 C 772.5 2.26508 0.350239 0
M  V30 8466 C 773.513 1.32081 0.95176 0
M  V30 8467 O 774.702 1.57546 0.839139 0
M  V30 8468 C 771.802 3.0361 1.50579 0
M  V30 8469 C 770.975 4.25438 1.01595 0
M  V30 8470 C 770.034 4.84783 2.04626 0
M  V30 8471 O 769.06 5.45528 1.62442 0
M  V30 8472 N 770.262 4.72318 3.37485 0
M  V30 8473 H 773.027 2.98155 -0.30394 0
M  V30 8474 H 770.588 1.58938 -0.308289 0
M  V30 8475 H 772.58 3.4019 2.1921 0
M  V30 8476 H 771.15 2.34724 2.06455 0
M  V30 8477 H 770.37 3.93894 0.155316 0
M  V30 8478 H 771.658 5.04413 0.666694 0
M  V30 8479 H 771.056 4.24022 3.74462 0
M  V30 8480 H 769.613 5.13149 4.01897 0
M  V30 8481 N 773.046 0.209999 1.56195 0
M  V30 8482 C 774.294 -0.423974 1.97603 0
M  V30 8483 C 774.615 -1.61112 1.09854 0
M  V30 8484 O 773.885 -1.95134 0.173032 0
M  V30 8485 H 772.465 -0.159629 0.729745 0
M  V30 8486 H 775.127 0.300205 1.92574 0
M  V30 8487 H 774.223 -0.75809 3.02753 0
M  V30 8488 N 774.524 -1.57472 -0.0634922 0
M  V30 8489 C 775.434 -2.07621 -1.09227 0
M  V30 8490 C 776.45 -1.00746 -1.41867 0
M  V30 8491 O 777.626 -1.32269 -1.51878 0
M  V30 8492 C 774.691 -2.51707 -2.38421 0
M  V30 8493 C 773.752 -3.72917 -2.12676 0
M  V30 8494 C 772.985 -4.14891 -3.3571 0
M  V30 8495 O 773.208 -3.56663 -4.45137 0
M  V30 8496 O 772.142 -5.07616 -3.23434 0
M  V30 8497 H 775.968 -2.95612 -0.696205 0
M  V30 8498 H 773.553 -1.46787 -0.27819 0
M  V30 8499 H 775.435 -2.80547 -3.14438 0
M  V30 8500 H 774.11 -1.66842 -2.77391 0
M  V30 8501 H 773.017 -3.49148 -1.34337 0
M  V30 8502 H 774.35 -4.5866 -1.78583 0
M  V30 8503 N 776.003 0.335068 -1.53997 0
M  V30 8504 C 777.252 1.07182 -1.70865 0
M  V30 8505 C 777.565 1.89541 -0.483078 0
M  V30 8506 O 778.771 2.66219 -0.532879 0
M  V30 8507 C 777.227 1.95497 -3.02174 0
M  V30 8508 C 776.835 1.18304 -4.32097 0
M  V30 8509 C 778.579 2.68978 -3.28407 0
M  V30 8510 C 776.486 2.05699 -5.54474 0
M  V30 8511 H 775.416 0.403857 -0.636722 0
M  V30 8512 H 778.067 0.33076 -1.80494 0
M  V30 8513 H 776.449 2.73456 -2.86423 0
M  V30 8514 H 777.623 0.451969 -4.58578 0
M  V30 8515 H 775.938 0.565556 -4.12541 0
M  V30 8516 H 778.535 3.34651 -4.17029 0
M  V30 8517 H 778.878 3.36 -2.45784 0
M  V30 8518 H 779.411 1.98087 -3.44973 0
M  V30 8519 H 776.15 1.43204 -6.39666 0
M  V30 8520 H 775.67 2.76572 -5.32229 0
M  V30 8521 H 777.349 2.64554 -5.90441 0
M  V30 8522 N 777.481 1.45874 0.596531 0
M  V30 8523 C 778.411 1.5824 1.71705 0
M  V30 8524 C 779.392 0.433366 1.64487 0
M  V30 8525 O 780.577 0.657895 1.82717 0
M  V30 8526 C 777.707 1.55927 3.10329 0
M  V30 8527 C 776.661 2.69659 3.32367 0
M  V30 8528 C 775.987 2.52403 4.71377 0
M  V30 8529 C 777.287 4.11591 3.21544 0
M  V30 8530 H 778.981 2.52035 1.61613 0
M  V30 8531 H 776.527 1.21297 0.776082 0
M  V30 8532 H 778.48 1.63173 3.88526 0
M  V30 8533 H 777.204 0.586674 3.21288 0
M  V30 8534 H 775.863 2.61859 2.56564 0
M  V30 8535 H 775.511 1.53258 4.79083 0
M  V30 8536 H 775.211 3.28679 4.87077 0
M  V30 8537 H 776.735 2.6152 5.5176 0
M  V30 8538 H 778.149 4.20576 3.89601 0
M  V30 8539 H 776.546 4.88344 3.4877 0
M  V30 8540 H 777.616 4.32719 2.1882 0
M  V30 8541 N 778.959 -0.83999 1.33349 0
M  V30 8542 C 780.208 -1.59011 1.2409 0
M  V30 8543 C 780.521 -1.94655 -0.192029 0
M  V30 8544 O 781.727 -2.68438 -0.406617 0
M  V30 8545 C 780.183 -2.86801 2.17425 0
M  V30 8546 C 779.791 -2.58525 3.65881 0
M  V30 8547 C 781.535 -3.64823 2.17036 0
M  V30 8548 C 779.442 -3.82404 4.51133 0
M  V30 8549 H 778.372 -0.596731 0.460899 0
M  V30 8550 H 781.023 -0.926274 1.58406 0
M  V30 8551 H 779.405 -3.54719 1.7604 0
M  V30 8552 H 780.579 -1.98824 4.15699 0
M  V30 8553 H 778.894 -1.93808 3.68548 0
M  V30 8554 H 781.491 -4.56774 2.7796 0
M  V30 8555 H 781.834 -3.99663 1.16513 0
M  V30 8556 H 782.367 -3.03826 2.56777 0
M  V30 8557 H 779.106 -3.52696 5.52527 0
M  V30 8558 H 778.626 -4.41447 4.0606 0
M  V30 8559 H 780.305 -4.49995 4.6488 0
M  V30 8560 N 780.437 -1.16799 -1.0581 0
M  V30 8561 C 781.385 -0.875111 -2.1551 0
M  V30 8562 C 782.379 0.157781 -1.68664 0
M  V30 8563 O 783.585 0.011297 -1.79996 0
M  V30 8564 H 779.96 -0.26542 -0.703602 0
M  V30 8565 H 781.931 -1.8076 -2.37421 0
M  V30 8566 C 780.68 -0.39802 -3.45414 0
M  V30 8567 H 780.003 -1.18425 -3.81858 0
M  V30 8568 H 781.443 -0.231913 -4.23365 0
M  V30 8569 C 779.902 0.88327 -3.25115 0
M  V30 8570 O 780.432 1.95145 -3.51114 0
M  V30 8571 N 778.638 0.828961 -2.78526 0
M  V30 8572 H 778.185 -0.0405029 -2.57568 0
M  V30 8573 H 778.143 1.68673 -2.65324 0
M  V30 8574 N 781.915 1.24427 -0.967243 0
M  V30 8575 C 783.326 1.74349 -0.667785 0
M  V30 8576 C 783.677 1.78403 0.816509 0
M  V30 8577 O 782.802 1.41315 1.63887 0
M  V30 8578 C 783.397 3.16628 -1.20548 0
M  V30 8579 C 781.956 3.64059 -0.955934 0
M  V30 8580 C 781.103 2.42715 -1.34106 0
M  V30 8581 H 784.054 1.10136 -1.14262 0
M  V30 8582 H 784.075 3.76183 -0.571547 0
M  V30 8583 H 783.587 3.13646 -2.28578 0
M  V30 8584 H 781.688 3.72441 0.108858 0
M  V30 8585 H 781.801 4.51549 -1.60126 0
M  V30 8586 H 780.165 2.43114 -0.759452 0
M  V30 8587 H 780.948 2.42414 -2.43085 0
M  V30 8588 N 783.393 0.737304 1.3929 0
M  V30 8589 C 784.639 0.286681 2.00763 0
M  V30 8590 C 784.972 -1.12388 1.58375 0
M  V30 8591 O 784.247 -1.76661 0.813699 0
M  V30 8592 C 784.53 0.391147 3.57969 0
M  V30 8593 C 784.383 1.84165 4.1037 0
M  V30 8594 C 785.702 -0.225072 4.39524 0
M  V30 8595 H 782.821 0.105642 0.729389 0
M  V30 8596 H 785.463 0.933892 1.65464 0
M  V30 8597 H 783.613 -0.159875 3.88171 0
M  V30 8598 H 785.285 2.44972 3.90879 0
M  V30 8599 H 783.528 2.3622 3.63844 0
M  V30 8600 H 784.199 1.866 5.19504 0
M  V30 8601 H 786.675 0.244677 4.1538 0
M  V30 8602 H 785.551 -0.121646 5.48765 0
M  V30 8603 H 785.812 -1.31141 4.22202 0
M  V30 8604 N 784.871 -1.49948 0.485112 0
M  V30 8605 C 785.803 -2.26691 -0.338222 0
M  V30 8606 C 786.816 -1.32584 -0.944742 0
M  V30 8607 O 788.005 -1.57989 -0.830772 0
M  V30 8608 C 785.105 -3.04405 -1.48966 0
M  V30 8609 C 784.278 -4.25971 -0.993371 0
M  V30 8610 C 783.337 -4.85861 -2.02052 0
M  V30 8611 O 782.363 -5.46382 -1.59547 0
M  V30 8612 N 783.565 -4.74101 -3.34975 0
M  V30 8613 H 786.33 -2.97989 0.319748 0
M  V30 8614 H 783.891 -1.58772 0.316714 0
M  V30 8615 H 785.883 -3.41348 -2.17403 0
M  V30 8616 H 784.453 -2.35815 -2.05207 0
M  V30 8617 H 783.673 -3.93971 -0.134424 0
M  V30 8618 H 784.961 -5.0476 -0.639934 0
M  V30 8619 H 784.359 -4.26002 -3.72208 0
M  V30 8620 H 782.916 -5.15274 -3.9917 0
M  V30 8621 N 786.349 -0.21828 -1.56081 0
M  V30 8622 C 787.598 0.414644 -1.97392 0
M  V30 8623 C 787.911 1.61132 -1.10887 0
M  V30 8624 O 789.117 2.31355 -1.42082 0
M  V30 8625 C 787.573 0.789099 -3.51143 0
M  V30 8626 C 787.181 -0.384578 -4.46346 0
M  V30 8627 C 788.925 1.38781 -4.01173 0
M  V30 8628 C 786.832 0.0121288 -5.91399 0
M  V30 8629 H 785.762 0.158691 -0.737111 0
M  V30 8630 H 788.413 -0.313974 -1.80794 0
M  V30 8631 H 786.795 1.57505 -3.6333 0
M  V30 8632 H 787.969 -1.16212 -4.45905 0
M  V30 8633 H 786.284 -0.896306 -4.06639 0
M  V30 8634 H 788.881 1.69746 -5.07041 0
M  V30 8635 H 789.224 2.30245 -3.46833 0
M  V30 8636 H 789.757 0.665364 -3.92196 0
M  V30 8637 H 786.496 -0.868917 -6.49715 0
M  V30 8638 H 786.016 0.754053 -5.95041 0
M  V30 8639 H 787.695 0.439949 -6.45502 0
M  V30 8640 N 787.827 1.57504 0.0551401 0
M  V30 8641 C 788.757 2.07864 1.06372 0
M  V30 8642 C 789.738 0.975565 1.39344 0
M  V30 8643 O 790.923 1.24929 1.48682 0
M  V30 8644 C 788.053 2.53643 2.3724 0
M  V30 8645 C 787.007 3.67978 2.18578 0
M  V30 8646 C 786.333 3.9987 3.54976 0
M  V30 8647 C 787.633 4.97405 1.59329 0
M  V30 8648 H 789.327 2.92379 0.644595 0
M  V30 8649 H 786.873 1.40654 0.308619 0
M  V30 8650 H 788.826 2.8749 3.08103 0
M  V30 8651 H 787.55 1.66177 2.81163 0
M  V30 8652 H 786.209 3.3444 1.50152 0
M  V30 8653 H 785.857 3.0951 3.965 0
M  V30 8654 H 785.557 4.76867 3.43324 0
M  V30 8655 H 787.081 4.36228 4.27244 0
M  V30 8656 H 788.495 5.29375 2.20078 0
M  V30 8657 H 786.892 5.78837 1.58327 0
M  V30 8658 H 787.962 4.81697 0.55638 0
M  V30 8659 N 789.305 -0.326896 1.54172 0
M  V30 8660 C 790.53 -1.08924 1.76494 0
M  V30 8661 C 790.955 -1.81039 0.510523 0
M  V30 8662 O 790.313 -1.73141 -0.537756 0
M  V30 8663 C 790.361 -2.06558 2.95578 0
M  V30 8664 O 789.465 -3.14394 2.6689 0
M  V30 8665 H 788.806 -0.314216 0.584948 0
M  V30 8666 H 791.336 -0.372207 2.01186 0
M  V30 8667 H 791.346 -2.49487 3.22832 0
M  V30 8668 H 790.021 -1.53469 3.86549 0
M  V30 8669 H 788.598 -2.76164 2.50576 0
M  V30 8670 N 790.784 -1.46188 -0.588786 0
M  V30 8671 C 792.033 -1.50452 -1.34339 0
M  V30 8672 C 792.346 -0.158096 -1.9496 0
M  V30 8673 O 793.552 -0.0784918 -2.71387 0
M  V30 8674 C 792.008 -2.65074 -2.43441 0
M  V30 8675 C 791.616 -4.06111 -1.8915 0
M  V30 8676 C 793.36 -2.78603 -3.20282 0
M  V30 8677 C 791.267 -5.12084 -2.95845 0
M  V30 8678 H 790.197 -0.559905 -0.504997 0
M  V30 8679 H 792.848 -1.72382 -0.629014 0
M  V30 8680 H 791.23 -2.36462 -3.1765 0
M  V30 8681 H 792.404 -4.44487 -1.21524 0
M  V30 8682 H 790.719 -3.97197 -1.24995 0
M  V30 8683 H 793.316 -3.54944 -3.99898 0
M  V30 8684 H 793.659 -1.85902 -3.72486 0
M  V30 8685 H 794.192 -3.06832 -2.53178 0
M  V30 8686 H 790.931 -6.06556 -2.48535 0
M  V30 8687 H 790.451 -4.78259 -3.61979 0
M  V30 8688 H 792.13 -5.37661 -3.59902 0
M  V30 8689 N 792.262 0.832906 -1.33792 0
M  V30 8690 C 793.492 1.61813 -1.28453 0
M  V30 8691 C 793.9 1.88639 0.145595 0
M  V30 8692 O 793.243 1.47122 1.10004 0
M  V30 8693 C 793.305 2.98929 -1.99704 0
M  V30 8694 C 792.969 2.95045 -3.48995 0
M  V30 8695 C 793.966 2.70337 -4.44088 0
M  V30 8696 C 791.651 3.14993 -3.91261 0
M  V30 8697 C 793.645 2.65612 -5.79421 0
M  V30 8698 C 791.332 3.09893 -5.26697 0
M  V30 8699 C 792.33 2.85235 -6.20588 0
M  V30 8700 O 792.018 2.8005 -7.53543 0
M  V30 8701 H 791.75 0.510013 -0.443693 0
M  V30 8702 H 794.304 1.04514 -1.76822 0
M  V30 8703 H 792.534 3.58106 -1.45935 0
M  V30 8704 H 794.223 3.59849 -1.87786 0
M  V30 8705 H 794.989 2.54671 -4.12756 0
M  V30 8706 H 790.868 3.33204 -3.18584 0
M  V30 8707 H 794.412 2.46285 -6.52679 0
M  V30 8708 H 790.309 3.2511 -5.5765 0
M  V30 8709 H 791.077 2.95849 -7.63162 0
M  V30 8710 N 793.74 1.17359 1.05189 0
M  V30 8711 C 794.965 0.98709 1.82404 0
M  V30 8712 C 795.39 -0.459848 1.82392 0
M  V30 8713 O 794.748 -1.32924 1.23292 0
M  V30 8714 C 794.796 1.53276 3.26403 0
M  V30 8715 O 793.9 0.746541 4.05587 0
M  V30 8716 H 793.241 0.35047 0.563974 0
M  V30 8717 H 795.771 1.55856 1.32552 0
M  V30 8718 H 795.781 1.55504 3.77203 0
M  V30 8719 H 794.456 2.58603 3.25726 0
M  V30 8720 H 793.033 0.795671 3.64312 0
M  V30 8721 N 795.218 -1.23913 0.973828 0
M  V30 8722 C 796.181 -2.23367 0.51378 0
M  V30 8723 C 797.181 -1.55923 -0.39302 0
M  V30 8724 O 798.371 -1.73187 -0.187626 0
M  V30 8725 C 795.503 -3.39944 -0.255152 0
M  V30 8726 H 796.696 -2.65581 1.39307 0
M  V30 8727 H 794.249 -1.36632 0.759039 0
M  V30 8728 H 794.984 -3.03177 -1.15127 0
M  V30 8729 H 794.769 -3.90098 0.395673 0
M  V30 8730 H 796.259 -4.13749 -0.565842 0
M  V30 8731 N 796.696 -0.74468 -1.38897 0
M  V30 8732 C 797.626 -0.126355 -2.33158 0
M  V30 8733 C 798.607 0.713517 -1.54412 0
M  V30 8734 O 799.792 0.656523 -1.82766 0
M  V30 8735 C 796.922 0.774375 -3.38557 0
M  V30 8736 C 795.876 0.0379214 -4.27983 0
M  V30 8737 C 795.202 1.05631 -5.24162 0
M  V30 8738 C 796.502 -1.12523 -5.10035 0
M  V30 8739 H 798.196 -0.913744 -2.85116 0
M  V30 8740 H 795.742 -0.440847 -1.37086 0
M  V30 8741 H 797.695 1.21655 -4.03458 0
M  V30 8742 H 796.419 1.59399 -2.85061 0
M  V30 8743 H 795.078 -0.384733 -3.64576 0
M  V30 8744 H 794.726 1.86975 -4.66958 0
M  V30 8745 H 794.426 0.568261 -5.84846 0
M  V30 8746 H 795.95 1.49799 -5.9194 0
M  V30 8747 H 797.364 -0.761037 -5.68226 0
M  V30 8748 H 795.761 -1.54355 -5.79909 0
M  V30 8749 H 796.831 -1.94237 -4.44297 0
M  V30 8750 N 798.174 1.49689 -0.493057 0
M  V30 8751 C 799.084 2.32746 0.294358 0
M  V30 8752 C 800.1 1.44117 0.975003 0
M  V30 8753 O 801.276 1.77149 0.958138 0
M  V30 8754 C 798.341 3.19358 1.34949 0
M  V30 8755 C 797.402 4.2383 0.683122 0
M  V30 8756 C 796.635 5.06303 1.68798 0
M  V30 8757 O 796.858 4.90172 2.91698 0
M  V30 8758 O 795.792 5.88826 1.24768 0
M  V30 8759 H 799.618 3.01247 -0.385254 0
M  V30 8760 H 797.203 1.47216 -0.254519 0
M  V30 8761 H 799.085 3.73037 1.96014 0
M  V30 8762 H 797.76 2.53561 2.01217 0
M  V30 8763 H 796.667 3.74086 0.0329351 0
M  V30 8764 H 798 4.9216 0.0630192 0
M  V30 8765 N 799.652 0.226554 1.55963 0
M  V30 8766 C 800.6 -0.697922 2.21882 0
M  V30 8767 C 801.594 -1.19586 1.19981 0
M  V30 8768 O 802.8 -1.15511 1.38048 0
M  V30 8769 H 799.175 -0.243501 0.711485 0
M  V30 8770 H 801.146 -0.118576 2.98164 0
M  V30 8771 C 799.895 -1.89309 2.91646 0
M  V30 8772 H 799.218 -1.51906 3.69817 0
M  V30 8773 H 800.658 -2.51762 3.41162 0
M  V30 8774 C 799.117 -2.75162 1.94391 0
M  V30 8775 O 799.647 -3.74071 1.46402 0
M  V30 8776 N 797.853 -2.41302 1.61932 0
M  V30 8777 H 797.4 -1.60923 2.01151 0
M  V30 8778 H 797.358 -2.99023 0.971219 0
M  V30 8779 N 801.13 -1.57531 -0.0467866 0
M  V30 8780 C 802.078 -2.06455 -1.0714 0
M  V30 8781 C 803.072 -0.974744 -1.38546 0
M  V30 8782 O 804.278 -1.15974 -1.37659 0
M  V30 8783 H 800.653 -0.658607 -0.362962 0
M  V30 8784 H 802.624 -2.91613 -0.632813 0
M  V30 8785 C 801.373 -2.54481 -2.36927 0
M  V30 8786 H 800.696 -3.37946 -2.13617 0
M  V30 8787 H 802.136 -2.92442 -3.07007 0
M  V30 8788 C 800.595 -1.43836 -3.04652 0
M  V30 8789 O 801.125 -0.794531 -3.93764 0
M  V30 8790 N 799.331 -1.17727 -2.65686 0
M  V30 8791 H 798.878 -1.70265 -1.93307 0
M  V30 8792 H 798.836 -0.439051 -3.11319 0
M  V30 8793 N 802.608 0.318715 -1.54344 0
M  V30 8794 C 803.856 1.054 -1.72439 0
M  V30 8795 C 804.177 1.88388 -0.503495 0
M  V30 8796 O 803.447 1.89866 0.48246 0
M  V30 8797 H 802.027 0.392124 -0.635805 0
M  V30 8798 H 804.689 0.35398 -1.91659 0
M  V30 8799 H 803.785 1.71726 -2.60608 0
M  V30 8800 N 804.086 1.46499 0.581025 0
M  V30 8801 C 805.034 1.57562 1.71105 0
M  V30 8802 C 806.028 0.44403 1.63477 0
M  V30 8803 O 807.234 0.620964 1.6895 0
M  V30 8804 H 803.609 0.495415 0.565746 0
M  V30 8805 H 805.58 2.5257 1.58905 0
M  V30 8806 C 804.329 1.58465 3.0949 0
M  V30 8807 H 803.652 2.44877 3.16031 0
M  V30 8808 H 805.092 1.70261 3.88313 0
M  V30 8809 C 803.551 0.313596 3.35437 0
M  V30 8810 O 804.081 -0.595456 3.97262 0
M  V30 8811 N 802.287 0.200986 2.89904 0
M  V30 8812 H 801.834 0.941643 2.39773 0
M  V30 8813 H 801.792 -0.648577 3.07638 0
M  V30 8814 N 805.565 -0.825799 1.34232 0
M  V30 8815 C 806.814 -1.57686 1.2577 0
M  V30 8816 C 807.127 -1.94848 -0.171372 0
M  V30 8817 O 808.333 -2.68854 -0.378123 0
M  V30 8818 C 806.789 -2.84478 2.20454 0
M  V30 8819 C 806.397 -2.54629 3.68603 0
M  V30 8820 C 808.141 -3.625 2.20893 0
M  V30 8821 C 806.048 -3.77597 4.55164 0
M  V30 8822 H 804.978 -0.591809 0.467203 0
M  V30 8823 H 807.629 -0.909421 1.59379 0
M  V30 8824 H 806.011 -3.52832 1.79793 0
M  V30 8825 H 807.185 -1.94404 4.17784 0
M  V30 8826 H 805.5 -1.89888 3.70582 0
M  V30 8827 H 808.097 -4.538 2.82789 0
M  V30 8828 H 808.44 -3.98404 1.20746 0
M  V30 8829 H 808.973 -3.01086 2.59985 0
M  V30 8830 H 805.712 -3.46815 5.56237 0
M  V30 8831 H 805.232 -4.37116 4.10719 0
M  V30 8832 H 806.911 -4.45039 4.69627 0
M  V30 8833 N 807.043 -1.17915 -1.04565 0
M  V30 8834 C 807.991 -0.897919 -2.1457 0
M  V30 8835 C 808.985 0.139883 -1.68821 0
M  V30 8836 O 810.191 -0.00779463 -1.79998 0
M  V30 8837 H 806.566 -0.272867 -0.700748 0
M  V30 8838 H 808.537 -1.83268 -2.3549 0
M  V30 8839 C 807.286 -0.434634 -3.44973 0
M  V30 8840 H 806.609 -1.22469 -3.8058 0
M  V30 8841 H 808.049 -0.276804 -4.23095 0
M  V30 8842 C 806.508 0.848738 -3.26034 0
M  V30 8843 O 807.038 1.9141 -3.53164 0
M  V30 8844 N 805.244 0.799373 -2.79389 0
M  V30 8845 H 804.791 -0.0678192 -2.57511 0
M  V30 8846 H 804.749 1.6585 -2.67098 0
M  V30 8847 N 808.521 1.23394 -0.980386 0
M  V30 8848 C 809.484 2.23092 -0.525619 0
M  V30 8849 C 810.484 1.56129 0.384745 0
M  V30 8850 O 811.674 1.73284 0.178439 0
M  V30 8851 C 808.806 3.40074 0.23712 0
M  V30 8852 H 809.999 2.64839 -1.40714 0
M  V30 8853 H 807.552 1.36227 -0.766275 0
M  V30 8854 H 808.287 3.03783 1.13518 0
M  V30 8855 H 808.072 3.89883 -0.416356 0
M  V30 8856 H 809.562 4.14043 0.543892 0
M  V30 8857 N 809.999 0.752036 1.385 0
M  V30 8858 C 811.41 0.375385 1.82887 0
M  V30 8859 C 811.761 -1.09575 1.62751 0
M  V30 8860 O 810.886 -1.84685 1.12785 0
M  V30 8861 C 811.481 0.674563 3.32017 0
M  V30 8862 C 810.04 0.351208 3.74758 0
M  V30 8863 C 809.187 0.928531 2.61292 0
M  V30 8864 H 812.138 0.948313 1.27251 0
M  V30 8865 H 812.159 -0.0477781 3.8047 0
M  V30 8866 H 811.671 1.74533 3.46641 0
M  V30 8867 H 809.772 -0.713042 3.65714 0
M  V30 8868 H 809.885 0.845675 4.71577 0
M  V30 8869 H 808.249 0.354012 2.52228 0
M  V30 8870 H 809.032 2.0043 2.78716 0
M  V30 8871 N 811.477 -1.49425 0.500989 0
M  V30 8872 C 812.427 -2.26061 -0.296698 0
M  V30 8873 C 813.411 -1.30906 -0.935541 0
M  V30 8874 O 814.603 -1.55628 -0.843142 0
M  V30 8875 C 811.732 -3.15189 -1.36055 0
M  V30 8876 C 810.818 -4.17806 -0.727952 0
M  V30 8877 N 811.209 -5.05516 0.169408 0
M  V30 8878 C 809.507 -4.34907 -0.988535 0
M  V30 8879 C 810.208 -5.79267 0.531509 0
M  V30 8880 N 809.184 -5.43507 -0.100564 0
M  V30 8881 H 812.986 -2.91246 0.394103 0
M  V30 8882 H 810.5 -1.59275 0.317065 0
M  V30 8883 H 812.497 -3.68724 -1.94547 0
M  V30 8884 H 811.157 -2.51556 -2.05303 0
M  V30 8885 H 812.168 -5.15075 0.540218 0
M  V30 8886 H 808.845 -3.82481 -1.67376 0
M  V30 8887 H 810.235 -6.59872 1.26564 0
M  V30 8888 N 812.955 -0.234822 -1.55841 0
M  V30 8889 C 813.885 0.664217 -2.23854 0
M  V30 8890 C 814.866 1.19076 -1.2147 0
M  V30 8891 O 816.051 1.23232 -1.50091 0
M  V30 8892 C 813.181 1.86666 -2.9287 0
M  V30 8893 C 812.135 1.47341 -4.01839 0
M  V30 8894 C 811.461 2.75571 -4.58219 0
M  V30 8895 C 812.761 0.653479 -5.18196 0
M  V30 8896 H 814.455 0.0971213 -2.99242 0
M  V30 8897 H 812.001 0.0452724 -1.43929 0
M  V30 8898 H 813.954 2.50116 -3.39146 0
M  V30 8899 H 812.678 2.45894 -2.1495 0
M  V30 8900 H 811.337 0.862314 -3.56314 0
M  V30 8901 H 810.985 3.32971 -3.77014 0
M  V30 8902 H 810.685 2.49987 -5.31771 0
M  V30 8903 H 812.209 3.39939 -5.07221 0
M  V30 8904 H 813.623 1.19198 -5.60771 0
M  V30 8905 H 812.02 0.494188 -5.98062 0
M  V30 8906 H 813.09 -0.337004 -4.83728 0
M  V30 8907 N 814.433 1.57553 0.0384317 0
M  V30 8908 C 815.363 2.0898 1.04161 0
M  V30 8909 C 816.344 0.99029 1.38301 0
M  V30 8910 O 817.529 1.26499 1.47349 0
M  V30 8911 C 814.659 2.56145 2.34536 0
M  V30 8912 C 813.613 3.70275 2.14663 0
M  V30 8913 C 812.939 4.03612 3.50715 0
M  V30 8914 C 814.239 4.99067 1.54045 0
M  V30 8915 H 815.933 2.93046 0.613548 0
M  V30 8916 H 813.479 1.40973 0.293684 0
M  V30 8917 H 815.432 2.90741 3.05037 0
M  V30 8918 H 814.156 1.6915 2.79385 0
M  V30 8919 H 812.815 3.36013 1.46597 0
M  V30 8920 H 812.463 3.13698 3.93195 0
M  V30 8921 H 812.163 4.80482 3.38247 0
M  V30 8922 H 813.687 4.40735 4.22593 0
M  V30 8923 H 815.101 5.3168 2.14451 0
M  V30 8924 H 813.498 5.80484 1.52178 0
M  V30 8925 H 814.568 4.8226 0.505259 0
M  V30 8926 N 815.911 -0.310526 1.54511 0
M  V30 8927 C 816.858 -1.38264 1.84802 0
M  V30 8928 C 817.828 -1.50808 0.696141 0
M  V30 8929 O 819.013 -1.6582 0.943846 0
M  V30 8930 C 816.153 -2.74422 2.09252 0
M  V30 8931 C 815.266 -2.70405 3.36906 0
M  V30 8932 C 814.401 -3.98495 3.51248 0
M  V30 8933 C 813.44 -3.88836 4.72729 0
M  V30 8934 N 812.577 -5.08683 4.83928 0
M  V30 8935 H 817.417 -1.11732 2.76261 0
M  V30 8936 H 814.954 -0.540609 1.36806 0
M  V30 8937 H 816.912 -3.53593 2.21422 0
M  V30 8938 H 815.542 -2.99235 1.2107 0
M  V30 8939 H 814.594 -1.83151 3.33406 0
M  V30 8940 H 815.906 -2.59155 4.26193 0
M  V30 8941 H 815.06 -4.861 3.63031 0
M  V30 8942 H 813.799 -4.12567 2.60077 0
M  V30 8943 H 812.804 -2.99615 4.60989 0
M  V30 8944 H 814.029 -3.76318 5.65298 0
M  V30 8945 H 811.975 -5.23236 3.95677 0
M  V30 8946 H 811.892 -4.99819 5.67201 0
M  V30 8947 H 813.16 -5.97966 5.00057 0
M  V30 8948 N 817.389 -1.46805 -0.573248 0
M  V30 8949 C 818.666 -1.43082 -1.33368 0
M  V30 8950 C 819.046 -0.119252 -2.10763 0
M  V30 8951 O 818.394 0.899239 -2.10062 0
M  V30 8952 C 818.604 -2.66643 -2.25172 0
M  V30 8953 C 819.952 -3.13188 -2.86702 0
M  V30 8954 O 820.976 -2.67258 -2.35482 0
M  V30 8955 O 819.835 -3.92994 -3.79761 0
M  V30 8956 H 816.929 -0.569451 -0.599712 0
M  V30 8957 H 819.475 -1.58984 -0.59348 0
M  V30 8958 H 818.247 -3.53649 -1.67475 0
M  V30 8959 H 817.87 -2.53247 -3.06516 0
M  V30 8960 N 818.867 0.818669 -1.34668 0
M  V30 8961 C 820.095 1.60674 -1.30351 0
M  V30 8962 C 820.51 1.88408 0.121546 0
M  V30 8963 O 819.867 1.47849 1.06991 0
M  V30 8964 C 819.918 2.94516 -2.09625 0
M  V30 8965 O 819.639 2.6799 -3.46573 0
M  V30 8966 C 821.14 3.8891 -2.12754 0
M  V30 8967 H 818.36 0.499306 -0.448258 0
M  V30 8968 H 820.904 1.01828 -1.77345 0
M  V30 8969 H 819.059 3.49908 -1.66262 0
M  V30 8970 H 819.473 3.53361 -3.87603 0
M  V30 8971 H 820.947 4.79972 -2.72637 0
M  V30 8972 H 821.424 4.24599 -1.12306 0
M  V30 8973 H 822.03 3.39453 -2.56225 0
M  V30 8974 N 820.346 1.18468 1.03938 0
M  V30 8975 C 821.293 0.912859 2.1198 0
M  V30 8976 C 822.263 -0.14824 1.65437 0
M  V30 8977 O 823.448 -0.008331 1.90798 0
M  V30 8978 C 820.588 0.446114 3.42204 0
M  V30 8979 C 819.701 1.57278 4.02353 0
M  V30 8980 C 818.836 1.05863 5.20544 0
M  V30 8981 C 817.875 2.1599 5.72726 0
M  V30 8982 N 817.012 1.65959 6.82204 0
M  V30 8983 H 821.852 1.83798 2.34569 0
M  V30 8984 H 819.389 0.916504 1.15059 0
M  V30 8985 H 821.347 0.15697 4.16905 0
M  V30 8986 H 819.977 -0.442025 3.19759 0
M  V30 8987 H 819.029 1.97737 3.24968 0
M  V30 8988 H 820.341 2.40289 4.37107 0
M  V30 8989 H 819.495 0.724087 6.02364 0
M  V30 8990 H 818.234 0.198116 4.87297 0
M  V30 8991 H 817.239 2.50287 4.89527 0
M  V30 8992 H 818.464 3.02479 6.08016 0
M  V30 8993 H 816.41 0.82199 6.5083 0
M  V30 8994 H 816.327 2.42567 7.16029 0
M  V30 8995 H 817.595 1.35436 7.67644 0
M  V30 8996 N 821.824 -1.22873 0.986916 0
M  V30 8997 C 822.772 -2.26597 0.525043 0
M  V30 8998 C 823.766 -1.64079 -0.421252 0
M  V30 8999 O 824.972 -1.77576 -0.294429 0
M  V30 9000 H 821.347 -0.736606 0.151381 0
M  V30 9001 H 823.318 -2.62909 1.41142 0
M  V30 9002 C 822.067 -3.47374 -0.150542 0
M  V30 9003 H 821.39 -3.95737 0.568541 0
M  V30 9004 H 822.83 -4.21739 -0.437256 0
M  V30 9005 C 821.289 -3.07163 -1.38392 0
M  V30 9006 O 821.819 -3.16028 -2.47971 0
M  V30 9007 N 820.025 -2.62009 -1.25697 0
M  V30 9008 H 819.572 -2.54996 -0.365355 0
M  V30 9009 H 819.53 -2.35472 -2.08327 0
M  V30 9010 N 823.302 -0.75937 -1.38099 0
M  V30 9011 C 824.249 -0.135508 -2.30402 0
M  V30 9012 C 825.219 0.703356 -1.50473 0
M  V30 9013 O 826.404 0.658287 -1.79084 0
M  V30 9014 C 823.544 0.747228 -3.36913 0
M  V30 9015 C 822.657 -0.106893 -4.31868 0
M  V30 9016 C 821.792 0.779388 -5.25451 0
M  V30 9017 C 820.831 -0.0780179 -6.1205 0
M  V30 9018 N 819.968 0.765545 -6.97914 0
M  V30 9019 H 824.808 -0.9282 -2.83176 0
M  V30 9020 H 822.345 -0.46935 -1.39411 0
M  V30 9021 H 824.303 1.27371 -3.97281 0
M  V30 9022 H 822.933 1.50565 -2.85535 0
M  V30 9023 H 821.985 -0.751063 -3.72912 0
M  V30 9024 H 823.297 -0.768798 -4.9284 0
M  V30 9025 H 822.451 1.37282 -5.90964 0
M  V30 9026 H 821.19 1.47501 -4.6486 0
M  V30 9027 H 820.195 -0.684078 -5.45528 0
M  V30 9028 H 821.42 -0.770786 -6.74712 0
M  V30 9029 H 819.366 1.44601 -6.39864 0
M  V30 9030 H 819.283 0.160666 -7.55829 0
M  V30 9031 H 820.551 1.34377 -7.6783 0
M  V30 9032 N 824.78 1.49157 -0.508906 0
M  V30 9033 C 826.026 2.02773 0.0328469 0
M  V30 9034 C 826.359 1.38714 1.35912 0
M  V30 9035 O 825.634 0.525536 1.87266 0
M  V30 9036 C 825.917 3.59664 0.177088 0
M  V30 9037 C 825.77 4.34239 -1.17287 0
M  V30 9038 C 827.089 4.30505 0.913977 0
M  V30 9039 H 824.208 0.736926 0.0104631 0
M  V30 9040 H 826.85 1.781 -0.661851 0
M  V30 9041 H 825 3.80818 0.768774 0
M  V30 9042 H 826.672 4.24561 -1.80404 0
M  V30 9043 H 824.915 3.96486 -1.76016 0
M  V30 9044 H 825.586 5.42397 -1.02516 0
M  V30 9045 H 828.062 4.14054 0.412084 0
M  V30 9046 H 826.938 5.40012 0.983759 0
M  V30 9047 H 827.199 3.96302 1.95951 0
M  V30 9048 N 826.258 0.243083 1.55714 0
M  V30 9049 C 827.504 -0.376428 1.99886 0
M  V30 9050 C 827.859 -1.55843 1.12831 0
M  V30 9051 O 827.152 -1.90724 0.182996 0
M  V30 9052 C 827.346 -0.839621 3.47398 0
M  V30 9053 C 827.175 0.295954 4.48725 0
M  V30 9054 C 825.945 0.769392 4.99408 0
M  V30 9055 C 828.143 1.12165 5.0192 0
M  V30 9056 N 826.125 1.87778 5.84477 0
M  V30 9057 C 827.496 2.07848 5.84123 0
M  V30 9058 C 829.551 1.15864 4.84231 0
M  V30 9059 C 828.254 3.06937 6.50524 0
M  V30 9060 C 830.28 2.13782 5.51409 0
M  V30 9061 C 829.642 3.08202 6.33396 0
M  V30 9062 H 825.741 -0.103809 0.775079 0
M  V30 9063 H 828.325 0.359788 1.91347 0
M  V30 9064 H 826.496 -1.54514 3.56343 0
M  V30 9065 H 828.228 -1.43376 3.78451 0
M  V30 9066 H 824.983 0.354201 4.72274 0
M  V30 9067 H 825.407 2.43462 6.31708 0
M  V30 9068 H 830.049 0.442532 4.20478 0
M  V30 9069 H 827.767 3.79499 7.13447 0
M  V30 9070 H 831.353 2.17345 5.39678 0
M  V30 9071 H 830.233 3.82732 6.8446 0
M  V30 9072 N 827.736 -1.57571 -0.0300757 0
M  V30 9073 C 828.683 -2.06492 -1.03101 0
M  V30 9074 C 829.653 -0.953862 -1.3598 0
M  V30 9075 O 830.838 -1.22436 -1.46335 0
M  V30 9076 C 827.978 -2.54826 -2.32718 0
M  V30 9077 C 827.091 -3.79718 -2.06006 0
M  V30 9078 C 826.226 -4.16668 -3.29487 0
M  V30 9079 C 825.265 -5.3448 -2.98324 0
M  V30 9080 N 824.402 -5.66867 -4.14254 0
M  V30 9081 H 829.242 -2.91755 -0.606877 0
M  V30 9082 H 826.779 -1.44252 -0.288038 0
M  V30 9083 H 828.737 -2.80916 -3.08451 0
M  V30 9084 H 827.367 -1.72481 -2.72856 0
M  V30 9085 H 826.419 -3.60718 -1.20774 0
M  V30 9086 H 827.731 -4.65569 -1.79017 0
M  V30 9087 H 826.885 -4.43881 -4.13588 0
M  V30 9088 H 825.624 -3.29466 -3.59588 0
M  V30 9089 H 824.629 -5.07021 -2.12625 0
M  V30 9090 H 825.854 -6.23334 -2.69502 0
M  V30 9091 H 823.8 -4.82625 -4.44308 0
M  V30 9092 H 823.717 -6.47226 -3.90685 0
M  V30 9093 H 824.985 -5.98656 -4.99231 0
M  V30 9094 N 829.214 0.302327 -1.54673 0
M  V30 9095 C 830.161 1.37282 -1.85532 0
M  V30 9096 C 831.131 1.50437 -0.704129 0
M  V30 9097 O 832.316 1.65317 -0.952627 0
M  V30 9098 C 829.456 2.73309 -2.10704 0
M  V30 9099 C 828.569 2.68614 -3.38335 0
M  V30 9100 C 827.704 3.96626 -3.53357 0
M  V30 9101 C 826.743 3.86324 -4.74784 0
M  V30 9102 N 825.88 5.06109 -4.86619 0
M  V30 9103 H 830.72 1.10265 -2.76849 0
M  V30 9104 H 828.257 0.533346 -1.37091 0
M  V30 9105 H 830.215 3.52414 -2.23294 0
M  V30 9106 H 828.845 2.98589 -1.22656 0
M  V30 9107 H 827.897 1.81381 -3.34373 0
M  V30 9108 H 829.209 2.56891 -4.27561 0
M  V30 9109 H 828.363 4.84168 -3.65604 0
M  V30 9110 H 827.102 4.11182 -2.62261 0
M  V30 9111 H 826.107 2.97166 -4.62572 0
M  V30 9112 H 827.332 3.73315 -5.67286 0
M  V30 9113 H 825.278 5.2113 -3.98446 0
M  V30 9114 H 825.195 4.96804 -5.69844 0
M  V30 9115 H 826.463 5.95306 -5.03221 0
M  V30 9116 N 830.692 1.47107 0.565454 0
M  V30 9117 C 831.64 1.59368 1.69424 0
M  V30 9118 C 832.634 0.461344 1.62997 0
M  V30 9119 O 833.84 0.638849 1.68282 0
M  V30 9120 H 830.215 0.501387 0.560459 0
M  V30 9121 H 832.186 2.54242 1.56217 0
M  V30 9122 C 830.935 1.61739 3.07792 0
M  V30 9123 H 830.258 2.48215 3.13416 0
M  V30 9124 H 831.698 1.7437 3.86486 0
M  V30 9125 C 830.157 0.349156 3.35086 0
M  V30 9126 O 830.687 -0.553287 3.97871 0
M  V30 9127 N 828.893 0.231723 2.89675 0
M  V30 9128 H 828.44 0.967021 2.3876 0
M  V30 9129 H 828.398 -0.615911 3.08308 0
M  V30 9130 N 832.17 -0.811516 1.35101 0
M  V30 9131 C 833.419 -1.56343 1.27435 0
M  V30 9132 C 833.732 -1.95019 -0.150696 0
M  V30 9133 O 834.938 -2.6924 -0.349586 0
M  V30 9134 C 833.394 -2.82124 2.23459 0
M  V30 9135 C 833.002 -2.50706 3.71283 0
M  V30 9136 C 834.746 -3.60137 2.24726 0
M  V30 9137 C 832.653 -3.72748 4.59143 0
M  V30 9138 H 831.583 -0.58682 0.473453 0
M  V30 9139 H 834.234 -0.892465 1.60335 0
M  V30 9140 H 832.616 -3.50905 1.83525 0
M  V30 9141 H 833.79 -1.89962 4.19823 0
M  V30 9142 H 832.105 -1.85947 3.72576 0
M  V30 9143 H 834.702 -4.50775 2.87587 0
M  V30 9144 H 835.045 -3.97101 1.24965 0
M  V30 9145 H 835.578 -2.98311 2.63164 0
M  V30 9146 H 832.317 -3.40896 5.59884 0
M  V30 9147 H 831.837 -4.32735 4.15332 0
M  V30 9148 H 833.516 -4.40033 4.74321 0
M  V30 9149 N 833.648 -1.19017 -1.03309 0
M  V30 9150 C 834.897 -0.984542 -1.76039 0
M  V30 9151 C 835.21 0.485937 -1.89468 0
M  V30 9152 O 836.416 0.810278 -2.59127 0
M  V30 9153 C 834.872 -1.71261 -3.1654 0
M  V30 9154 C 834.48 -3.22291 -3.11179 0
M  V30 9155 C 836.224 -1.59007 -3.93595 0
M  V30 9156 C 834.131 -3.87704 -4.46587 0
M  V30 9157 H 833.061 -0.364749 -0.659905 0
M  V30 9158 H 835.712 -1.4247 -1.15649 0
M  V30 9159 H 834.094 -1.20025 -3.77373 0
M  V30 9160 H 835.268 -3.80611 -2.59753 0
M  V30 9161 H 833.583 -3.34772 -2.47622 0
M  V30 9162 H 836.18 -2.05232 -4.93745 0
M  V30 9163 H 836.523 -0.543534 -4.12736 0
M  V30 9164 H 837.056 -2.07564 -3.39355 0
M  V30 9165 H 833.795 -4.92437 -4.3265 0
M  V30 9166 H 833.315 -3.34172 -4.98085 0
M  V30 9167 H 834.994 -3.91008 -5.15482 0
M  V30 9168 N 835.127 1.22348 -0.993418 0
M  V30 9169 C 836.352 1.95666 -0.687727 0
M  V30 9170 C 836.777 1.72883 0.741161 0
M  V30 9171 O 836.135 1.00837 1.50671 0
M  V30 9172 C 836.183 3.46457 -0.99998 0
M  V30 9173 O 835.287 4.12281 -0.0989386 0
M  V30 9174 H 834.628 0.612102 -0.257346 0
M  V30 9175 H 837.158 1.55428 -1.33054 0
M  V30 9176 H 837.168 3.96976 -0.942035 0
M  V30 9177 H 835.843 3.62365 -2.04118 0
M  V30 9178 H 834.42 3.72295 -0.212413 0
M  V30 9179 N 836.605 0.766683 1.37694 0
M  V30 9180 C 837.552 0.147725 2.30327 0
M  V30 9181 C 838.522 -0.695366 1.50844 0
M  V30 9182 O 839.707 -0.64878 1.79431 0
M  V30 9183 C 836.847 -0.72935 3.37305 0
M  V30 9184 C 835.96 0.129795 4.31805 0
M  V30 9185 C 835.095 -0.751511 5.25857 0
M  V30 9186 C 834.134 0.110475 6.12 0
M  V30 9187 N 833.271 -0.728522 6.9831 0
M  V30 9188 H 838.111 0.943204 2.82679 0
M  V30 9189 H 835.648 0.476736 1.3916 0
M  V30 9190 H 837.606 -1.25263 3.97951 0
M  V30 9191 H 836.236 -1.49048 2.86329 0
M  V30 9192 H 835.288 0.770829 3.72508 0
M  V30 9193 H 836.6 0.794923 4.92425 0
M  V30 9194 H 835.754 -1.34146 5.91684 0
M  V30 9195 H 834.493 -1.45034 4.65636 0
M  V30 9196 H 833.498 0.712999 5.45157 0
M  V30 9197 H 834.723 0.806557 6.74293 0
M  V30 9198 H 832.669 -1.41206 6.40622 0
M  V30 9199 H 832.586 -0.12058 7.55904 0
M  V30 9200 H 833.854 -1.30303 7.68532 0
M  V30 9201 N 838.083 -1.48885 0.516809 0
M  V30 9202 C 838.993 -2.33185 -0.257293 0
M  V30 9203 C 840.009 -1.4565 -0.951952 0
M  V30 9204 O 841.185 -1.78651 -0.929834 0
M  V30 9205 C 838.25 -3.21465 -1.29851 0
M  V30 9206 C 837.311 -4.24863 -0.615608 0
M  V30 9207 C 836.544 -5.08925 -1.60722 0
M  V30 9208 O 836.767 -4.9475 -2.83863 0
M  V30 9209 O 835.701 -5.90737 -1.15384 0
M  V30 9210 H 839.527 -3.00596 0.433131 0
M  V30 9211 H 837.112 -1.46792 0.277908 0
M  V30 9212 H 838.994 -3.76108 -1.90055 0
M  V30 9213 H 837.669 -2.5673 -1.97158 0
M  V30 9214 H 836.576 -3.74091 0.0265829 0
M  V30 9215 H 837.909 -4.92198 0.0152871 0
M  V30 9216 N 839.561 -0.251338 -1.55583 0
M  V30 9217 C 840.509 0.662534 -2.22965 0
M  V30 9218 C 841.503 1.17662 -1.21869 0
M  V30 9219 O 842.709 1.133 -1.39868 0
M  V30 9220 H 839.084 0.232151 -0.715269 0
M  V30 9221 H 841.055 0.0711252 -2.98315 0
M  V30 9222 C 839.804 1.84646 -2.94621 0
M  V30 9223 H 839.127 1.46003 -3.72187 0
M  V30 9224 H 840.567 2.46303 -3.45124 0
M  V30 9225 C 839.026 2.72034 -1.98744 0
M  V30 9226 O 839.556 3.71695 -1.52335 0
M  V30 9227 N 837.762 2.38695 -1.6575 0
M  V30 9228 H 837.309 1.57702 -2.03685 0
M  V30 9229 H 837.267 2.9744 -1.01867 0
M  V30 9230 N 841.039 1.57585 0.0217189 0
M  V30 9231 C 842.288 1.88786 0.710125 0
M  V30 9232 C 842.601 0.850819 1.76126 0
M  V30 9233 O 843.807 1.0523 2.50277 0
M  V30 9234 C 842.263 3.3505 1.31413 0
M  V30 9235 C 841.871 4.47001 0.298959 0
M  V30 9236 C 843.615 3.7539 1.98199 0
M  V30 9237 C 841.522 5.8433 0.911727 0
M  V30 9238 H 840.452 0.704388 0.268986 0
M  V30 9239 H 843.103 1.83466 -0.0352638 0
M  V30 9240 H 841.485 3.35138 2.10947 0
M  V30 9241 H 842.659 4.58395 -0.470203 0
M  V30 9242 H 840.974 4.15542 -0.267222 0
M  V30 9243 H 843.571 4.75314 2.4491 0
M  V30 9244 H 843.914 3.07766 2.80331 0
M  V30 9245 H 844.447 3.77508 1.2543 0
M  V30 9246 H 841.186 6.55372 0.129659 0
M  V30 9247 H 840.706 5.76643 1.65056 0
M  V30 9248 H 842.385 6.31295 1.41688 0
M  V30 9249 N 842.517 -0.29412 1.54831 0
M  V30 9250 C 843.465 -1.38296 1.87021 0
M  V30 9251 C 844.459 -1.5216 0.744557 0
M  V30 9252 O 845.665 -1.54196 0.92864 0
M  V30 9253 H 842.04 -0.462088 0.593278 0
M  V30 9254 H 844.011 -1.08386 2.7802 0
M  V30 9255 C 842.76 -2.74024 2.14023 0
M  V30 9256 H 842.083 -2.6414 3.00117 0
M  V30 9257 H 843.523 -3.49205 2.40482 0
M  V30 9258 C 841.982 -3.23492 0.940982 0
M  V30 9259 O 842.512 -4.01361 0.164937 0
M  V30 9260 N 840.718 -2.80902 0.744467 0
M  V30 9261 H 840.265 -2.17694 1.37721 0
M  V30 9262 H 840.223 -3.14349 -0.0563652 0
M  V30 9263 N 843.995 -1.47404 -0.557645 0
M  V30 9264 C 844.925 -1.62736 -1.67449 0
M  V30 9265 C 845.906 -0.476824 -1.6328 0
M  V30 9266 O 847.091 -0.706108 -1.80908 0
M  V30 9267 C 844.221 -1.641 -3.06086 0
M  V30 9268 C 843.175 -2.78377 -3.25101 0
M  V30 9269 C 842.501 -2.64812 -4.6452 0
M  V30 9270 C 843.801 -4.19971 -3.10518 0
M  V30 9271 H 845.495 -2.56232 -1.54873 0
M  V30 9272 H 843.041 -1.23312 -0.743649 0
M  V30 9273 H 844.994 -1.73417 -3.84063 0
M  V30 9274 H 843.718 -0.671652 -3.19619 0
M  V30 9275 H 842.377 -2.6857 -2.49531 0
M  V30 9276 H 842.025 -1.65906 -4.74852 0
M  V30 9277 H 841.725 -3.41477 -4.78191 0
M  V30 9278 H 843.249 -2.76057 -5.44633 0
M  V30 9279 H 844.663 -4.30757 -3.78313 0
M  V30 9280 H 843.06 -4.97419 -3.35699 0
M  V30 9281 H 844.13 -4.38369 -2.0727 0
M  V30 9282 N 845.473 0.80434 -1.35529 0
M  V30 9283 C 846.403 1.93086 -1.31301 0
M  V30 9284 C 847.384 1.69068 -0.187044 0
M  V30 9285 O 848.569 1.90399 -0.382359 0
M  V30 9286 C 845.699 3.29867 -1.0865 0
M  V30 9287 C 844.653 3.68373 -2.17911 0
M  V30 9288 C 843.979 5.0334 -1.80423 0
M  V30 9289 C 845.279 3.78516 -3.59893 0
M  V30 9290 H 846.973 1.96882 -2.25561 0
M  V30 9291 H 844.519 0.945841 -1.08581 0
M  V30 9292 H 846.472 4.08281 -1.04331 0
M  V30 9293 H 845.196 3.2642 -0.108359 0
M  V30 9294 H 843.855 2.92247 -2.21331 0
M  V30 9295 H 843.503 4.96399 -0.812213 0
M  V30 9296 H 843.203 5.30074 -2.53565 0
M  V30 9297 H 844.727 5.84191 -1.77633 0
M  V30 9298 H 846.141 4.47155 -3.58783 0
M  V30 9299 H 844.538 4.16721 -4.31814 0
M  V30 9300 H 845.608 2.8001 -3.95882 0
M  V30 9301 N 846.951 1.19563 1.02676 0
M  V30 9302 C 847.899 0.931942 2.13114 0
M  V30 9303 C 848.893 -0.113007 1.69023 0
M  V30 9304 O 850.099 0.0364298 1.79963 0
M  V30 9305 H 846.474 0.283981 0.696318 0
M  V30 9306 H 848.445 1.86991 2.32545 0
M  V30 9307 C 847.194 0.489461 3.44238 0
M  V30 9308 H 846.517 1.28508 3.78584 0
M  V30 9309 H 847.957 0.34408 4.22602 0
M  V30 9310 C 846.416 -0.796761 3.27343 0
M  V30 9311 O 846.946 -1.85767 3.56165 0
M  V30 9312 N 845.152 -0.754824 2.80626 0
M  V30 9313 H 844.699 0.108778 2.5737 0
M  V30 9314 H 844.657 -1.6158 2.69702 0
M  V30 9315 N 848.429 -1.21819 0.999893 0
M  V30 9316 C 849.706 -1.86318 0.595384 0
M  V30 9317 C 850.086 -1.8965 -0.927143 0
M  V30 9318 O 849.434 -1.3921 -1.81199 0
M  V30 9319 C 849.644 -3.26837 1.22387 0
M  V30 9320 C 850.992 -4.03272 1.32878 0
M  V30 9321 O 852.016 -3.36129 1.1788 0
M  V30 9322 O 850.875 -5.23477 1.56952 0
M  V30 9323 H 847.969 -0.801638 0.203238 0
M  V30 9324 H 850.515 -1.29542 1.09622 0
M  V30 9325 H 849.287 -3.19084 2.26497 0
M  V30 9326 H 848.91 -3.91226 0.709069 0
M  V30 9327 N 849.908 -0.773975 -1.37286 0
M  V30 9328 C 851.156 -0.338636 -1.99243 0
M  V30 9329 C 851.477 1.08919 -1.61746 0
M  V30 9330 O 850.747 1.74822 -0.88397 0
M  V30 9331 H 849.327 -0.12222 -0.736934 0
M  V30 9332 H 851.989 -0.992595 -1.67731 0
M  V30 9333 H 851.085 -0.418055 -3.09287 0
M  V30 9334 N 851.386 1.48609 -0.524698 0
M  V30 9335 C 852.319 2.26374 0.288109 0
M  V30 9336 C 853.297 1.31997 0.949509 0
M  V30 9337 O 854.481 1.61329 0.974946 0
M  V30 9338 C 851.608 3.08065 1.4076 0
M  V30 9339 C 850.654 4.17777 0.858152 0
M  V30 9340 S 851.487 5.3482 -0.269827 0
M  V30 9341 C 852.643 6.2007 0.852266 0
M  V30 9342 H 852.876 2.94965 -0.371865 0
M  V30 9343 H 850.409 1.51248 -0.31039 0
M  V30 9344 H 852.367 3.5571 2.04892 0
M  V30 9345 H 851.028 2.38898 2.03928 0
M  V30 9346 H 850.221 4.74542 1.69783 0
M  V30 9347 H 849.823 3.72846 0.293627 0
M  V30 9348 H 852.115 6.54451 1.75213 0
M  V30 9349 H 853.058 7.07364 0.322717 0
M  V30 9350 H 853.466 5.53068 1.13029 0
M  V30 9351 N 852.864 0.259585 1.55447 0
M  V30 9352 C 853.796 -0.667548 2.19263 0
M  V30 9353 C 854.809 -1.12925 1.17268 0
M  V30 9354 O 855.998 -1.05384 1.44071 0
M  V30 9355 C 853.098 -1.92066 2.7922 0
M  V30 9356 C 852.271 -1.60832 4.06758 0
M  V30 9357 C 851.33 -2.71231 4.50911 0
M  V30 9358 O 850.356 -2.38077 5.17019 0
M  V30 9359 N 851.558 -4.00984 4.19752 0
M  V30 9360 H 854.323 -0.121449 2.99454 0
M  V30 9361 H 851.884 0.0800519 1.61702 0
M  V30 9362 H 853.876 -2.65186 3.0571 0
M  V30 9363 H 852.446 -2.37621 2.03113 0
M  V30 9364 H 851.666 -0.711685 3.87722 0
M  V30 9365 H 852.954 -1.37445 4.89884 0
M  V30 9366 H 852.352 -4.30748 3.66706 0
M  V30 9367 H 850.909 -4.7053 4.51048 0
M  V30 9368 N 854.342 -1.57594 -0.0133615 0
M  V30 9369 C 855.274 -2.04402 -1.03695 0
M  V30 9370 C 856.287 -0.959546 -1.31516 0
M  V30 9371 O 857.476 -1.23659 -1.28727 0
M  V30 9372 C 854.576 -2.41766 -2.37491 0
M  V30 9373 C 853.749 -3.72785 -2.28802 0
M  V30 9374 C 852.808 -3.97165 -3.45176 0
M  V30 9375 O 851.834 -4.68013 -3.23963 0
M  V30 9376 N 853.036 -3.44021 -4.67579 0
M  V30 9377 H 855.801 -2.92833 -0.637874 0
M  V30 9378 H 853.362 -1.60647 -0.20101 0
M  V30 9379 H 855.354 -2.55201 -3.14093 0
M  V30 9380 H 853.924 -1.58924 -2.69188 0
M  V30 9381 H 853.144 -3.69555 -1.37197 0
M  V30 9382 H 854.432 -4.58704 -2.20154 0
M  V30 9383 H 853.83 -2.86623 -4.87713 0
M  V30 9384 H 852.387 -3.62808 -5.41492 0
M  V30 9385 N 855.82 0.285905 -1.54985 0
M  V30 9386 C 857.066 1.02071 -1.75241 0
M  V30 9387 C 857.399 1.864 -0.544842 0
M  V30 9388 O 856.674 1.89034 0.457844 0
M  V30 9389 C 856.957 1.91409 -3.05016 0
M  V30 9390 C 856.81 1.10158 -4.36102 0
M  V30 9391 C 858.129 2.90335 -3.30747 0
M  V30 9392 H 855.248 0.369663 -0.637588 0
M  V30 9393 H 857.89 0.294114 -1.8771 0
M  V30 9394 H 856.04 2.53362 -2.94517 0
M  V30 9395 H 857.712 0.503756 -4.58541 0
M  V30 9396 H 855.955 0.404675 -4.31908 0
M  V30 9397 H 856.626 1.75956 -5.23205 0
M  V30 9398 H 859.102 2.38514 -3.40955 0
M  V30 9399 H 857.978 3.49997 -4.2284 0
M  V30 9400 H 858.239 3.64787 -2.49765 0
M  V30 9401 N 857.298 1.47698 0.54982 0
M  V30 9402 C 858.544 1.54931 1.30859 0
M  V30 9403 C 858.877 0.214021 1.93017 0
M  V30 9404 O 858.152 -0.778093 1.78258 0
M  V30 9405 C 858.435 2.67286 2.41309 0
M  V30 9406 C 858.288 4.10457 1.83971 0
M  V30 9407 C 859.607 2.75509 3.43195 0
M  V30 9408 H 856.726 0.56399 0.474431 0
M  V30 9409 H 859.368 1.79787 0.614541 0
M  V30 9410 H 857.518 2.46224 3.0051 0
M  V30 9411 H 859.19 4.42903 1.28974 0
M  V30 9412 H 857.433 4.18387 1.14606 0
M  V30 9413 H 858.104 4.84857 2.63851 0
M  V30 9414 H 860.58 2.94531 2.93923 0
M  V30 9415 H 859.456 3.55886 4.17895 0
M  V30 9416 H 859.717 1.82863 4.02509 0
M  V30 9417 N 858.776 -0.797141 1.35954 0
M  V30 9418 C 859.724 -1.93084 1.29697 0
M  V30 9419 C 860.718 -1.68329 0.190152 0
M  V30 9420 O 861.924 -1.7643 0.3567 0
M  V30 9421 H 858.299 -0.634531 0.403577 0
M  V30 9422 H 860.27 -1.95481 2.25455 0
M  V30 9423 C 859.019 -3.29996 1.09536 0
M  V30 9424 H 858.342 -3.49607 1.93946 0
M  V30 9425 H 859.782 -4.09696 1.09202 0
M  V30 9426 C 858.241 -3.36304 -0.200381 0
M  V30 9427 O 858.771 -3.83579 -1.19291 0
M  V30 9428 N 856.977 -2.89587 -0.242406 0
M  V30 9429 H 856.524 -2.51307 0.565897 0
M  V30 9430 H 856.482 -2.94189 -1.10906 0
M  V30 9431 N 860.254 -1.20106 -1.0204 0
M  V30 9432 C 861.201 -0.946468 -2.10501 0
M  V30 9433 C 862.171 0.121902 -1.65652 0
M  V30 9434 O 863.356 -0.0220244 -1.90787 0
M  V30 9435 C 860.496 -0.500499 -3.41451 0
M  V30 9436 C 859.609 -1.63659 -3.998 0
M  V30 9437 C 858.744 -1.14131 -5.18794 0
M  V30 9438 C 857.783 -2.25074 -5.69217 0
M  V30 9439 N 856.92 -1.76791 -6.79477 0
M  V30 9440 H 861.76 -1.87506 -2.31615 0
M  V30 9441 H 859.297 -0.934693 -1.13587 0
M  V30 9442 H 861.255 -0.223276 -4.16602 0
M  V30 9443 H 859.885 0.391099 -3.20422 0
M  V30 9444 H 858.937 -2.02882 -3.21781 0
M  V30 9445 H 860.249 -2.47213 -4.33229 0
M  V30 9446 H 859.403 -0.819826 -6.01135 0
M  V30 9447 H 858.142 -0.275615 -4.86921 0
M  V30 9448 H 857.147 -2.58043 -4.85483 0
M  V30 9449 H 858.372 -3.12114 -6.03127 0
M  V30 9450 H 856.318 -0.925428 -6.4944 0
M  V30 9451 H 856.235 -2.53928 -7.12079 0
M  V30 9452 H 857.503 -1.47631 -7.65392 0
M  V30 9453 N 861.732 1.21287 -1.00634 0
M  V30 9454 C 862.96 1.94385 -0.708678 0
M  V30 9455 C 863.375 1.7416 0.728957 0
M  V30 9456 O 862.732 1.04906 1.49335 0
M  V30 9457 C 862.783 3.46755 -1.02193 0
M  V30 9458 O 862.504 3.6631 -2.40309 0
M  V30 9459 C 864.005 4.37014 -0.743867 0
M  V30 9460 H 861.225 0.618136 -0.261052 0
M  V30 9461 H 863.769 1.54067 -1.34475 0
M  V30 9462 H 861.924 3.8499 -0.431441 0
M  V30 9463 H 862.338 4.60393 -2.51274 0
M  V30 9464 H 863.812 5.42621 -1.01321 0
M  V30 9465 H 864.289 4.38017 0.322084 0
M  V30 9466 H 864.895 4.04426 -1.31603 0
M  V30 9467 N 863.21 0.781244 1.36873 0
M  V30 9468 C 864.16 0.147313 2.27524 0
M  V30 9469 C 865.144 -0.663928 1.46563 0
M  V30 9470 O 866.336 -0.525343 1.69024 0
M  V30 9471 C 863.465 -0.723511 3.35589 0
M  V30 9472 C 862.551 0.0960763 4.23991 0
M  V30 9473 N 862.942 1.14649 4.92635 0
M  V30 9474 C 861.24 -0.126397 4.45821 0
M  V30 9475 C 861.941 1.64474 5.57964 0
M  V30 9476 N 860.917 0.955316 5.3514 0
M  V30 9477 H 864.719 0.951406 2.78075 0
M  V30 9478 H 862.233 0.619913 1.50103 0
M  V30 9479 H 864.23 -1.19351 3.99451 0
M  V30 9480 H 862.89 -1.52624 2.86594 0
M  V30 9481 H 863.901 1.5288 4.94821 0
M  V30 9482 H 860.578 -0.900284 4.07678 0
M  V30 9483 H 861.968 2.52124 6.22803 0
M  V30 9484 N 864.689 -1.48329 0.532571 0
M  V30 9485 C 865.636 -2.29663 -0.228779 0
M  V30 9486 C 866.606 -1.37529 -0.931401 0
M  V30 9487 O 867.791 -1.66493 -0.931921 0
M  V30 9488 C 864.931 -3.20955 -1.26814 0
M  V30 9489 C 864.044 -4.28168 -0.574099 0
M  V30 9490 C 863.179 -5.06638 -1.59661 0
M  V30 9491 C 862.218 -6.05651 -0.88618 0
M  V30 9492 N 861.355 -6.77169 -1.85436 0
M  V30 9493 H 866.195 -2.94255 0.47098 0
M  V30 9494 H 863.732 -1.45061 0.2441 0
M  V30 9495 H 865.69 -3.72285 -1.88307 0
M  V30 9496 H 864.32 -2.58281 -1.93625 0
M  V30 9497 H 863.372 -3.80085 0.154827 0
M  V30 9498 H 864.684 -4.98797 -0.0163984 0
M  V30 9499 H 863.838 -5.61995 -2.28576 0
M  V30 9500 H 862.577 -4.35854 -2.18821 0
M  V30 9501 H 861.582 -5.49495 -0.182981 0
M  V30 9502 H 862.807 -6.78434 -0.300659 0
M  V30 9503 H 860.753 -6.09134 -2.43499 0
M  V30 9504 H 860.67 -7.43882 -1.34816 0
M  V30 9505 H 861.938 -7.37114 -2.53541 0
M  V30 9506 N 866.167 -0.267825 -1.55308 0
M  V30 9507 C 867.077 0.633055 -2.25897 0
M  V30 9508 C 868.093 1.17613 -1.28231 0
M  V30 9509 O 869.269 1.20797 -1.61153 0
M  V30 9510 C 866.334 1.80397 -2.96071 0
M  V30 9511 C 865.395 1.29829 -4.09198 0
M  V30 9512 C 864.628 2.4134 -4.76016 0
M  V30 9513 O 864.851 3.60537 -4.42006 0
M  V30 9514 O 863.785 2.09909 -5.64111 0
M  V30 9515 H 867.611 0.0614381 -3.03638 0
M  V30 9516 H 865.196 -0.0355072 -1.49358 0
M  V30 9517 H 867.078 2.48685 -3.40197 0
M  V30 9518 H 865.753 2.36281 -2.21253 0
M  V30 9519 H 864.66 0.582086 -3.69544 0
M  V30 9520 H 865.993 0.785288 -4.85895 0
M  V30 9521 N 867.645 1.57599 0.00500368 0
M  V30 9522 C 868.922 1.81561 0.727654 0
M  V30 9523 C 869.302 0.871604 1.92266 0
M  V30 9524 O 868.65 -0.0808232 2.28357 0
M  V30 9525 C 868.86 3.29922 1.13809 0
M  V30 9526 C 870.208 3.95531 1.54403 0
M  V30 9527 O 871.232 3.34215 1.23202 0
M  V30 9528 O 870.091 5.03535 2.12402 0
M  V30 9529 H 867.185 0.747462 0.353878 0
M  V30 9530 H 869.731 1.69688 -0.0200667 0
M  V30 9531 H 868.503 3.90253 0.286078 0
M  V30 9532 H 868.126 3.46775 1.94507 0
M  V30 9533 N 869.123 -0.277682 1.55134 0
M  V30 9534 C 870.372 -1.00766 1.74726 0
M  V30 9535 C 870.685 -1.87617 0.553092 0
M  V30 9536 O 871.891 -2.64058 0.631318 0
M  V30 9537 C 870.347 -1.84147 3.09221 0
M  V30 9538 C 869.955 -1.02186 4.3619 0
M  V30 9539 C 871.699 -2.56604 3.38164 0
M  V30 9540 C 869.606 -1.84978 5.61727 0
M  V30 9541 H 868.536 -0.379948 0.651273 0
M  V30 9542 H 871.187 -0.263543 1.81598 0
M  V30 9543 H 869.569 -2.62637 2.96375 0
M  V30 9544 H 870.743 -0.281459 4.5994 0
M  V30 9545 H 869.058 -0.412054 4.14356 0
M  V30 9546 H 871.655 -3.18942 4.29162 0
M  V30 9547 H 871.998 -3.26647 2.58085 0
M  V30 9548 H 872.531 -1.85147 3.52087 0
M  V30 9549 H 869.27 -1.19365 6.4454 0
M  V30 9550 H 868.79 -2.56628 5.42128 0
M  V30 9551 H 870.469 -2.42458 5.99853 0
M  V30 9552 N 870.601 -1.47988 -0.541979 0
M  V30 9553 C 871.831 -1.58804 -1.32155 0
M  V30 9554 C 872.239 -0.242893 -1.87634 0
M  V30 9555 O 871.582 0.776239 -1.66494 0
M  V30 9556 C 871.644 -2.56567 -2.51821 0
M  V30 9557 C 871.308 -4.01915 -2.17517 0
M  V30 9558 C 872.305 -4.89954 -1.73901 0
M  V30 9559 C 869.99 -4.47365 -2.28408 0
M  V30 9560 C 871.984 -6.21467 -1.41625 0
M  V30 9561 C 869.671 -5.78902 -1.95745 0
M  V30 9562 C 870.669 -6.65775 -1.52423 0
M  V30 9563 O 870.357 -7.94866 -1.20183 0
M  V30 9564 H 870.089 -0.538536 -0.408601 0
M  V30 9565 H 872.643 -1.94446 -0.661818 0
M  V30 9566 H 870.873 -2.16023 -3.20735 0
M  V30 9567 H 872.562 -2.57347 -3.13891 0
M  V30 9568 H 873.328 -4.56082 -1.64966 0
M  V30 9569 H 869.207 -3.79942 -2.61084 0
M  V30 9570 H 872.751 -6.8923 -1.07738 0
M  V30 9571 H 868.648 -6.12311 -2.04316 0
M  V30 9572 H 869.416 -8.07509 -1.33683 0
M  V30 9573 N 872.079 0.78992 -1.36375 0
M  V30 9574 C 873.495 1.0879 -1.16777 0
M  V30 9575 C 873.695 2.01498 0.00848236 0
M  V30 9576 O 872.751 2.43338 0.674007 0
M  V30 9577 C 874.064 1.70285 -2.47837 0
M  V30 9578 C 875.612 1.82629 -2.54196 0
M  V30 9579 C 876.087 2.47539 -3.85342 0
M  V30 9580 N 877.578 2.55008 -3.86685 0
M  V30 9581 C 878.313 3.06041 -4.84898 0
M  V30 9582 N 877.809 3.57385 -5.93505 0
M  V30 9583 N 879.602 3.04748 -4.72319 0
M  V30 9584 H 871.753 0.173985 -2.11686 0
M  V30 9585 H 874.016 0.139798 -0.937636 0
M  V30 9586 H 873.722 1.09633 -3.34176 0
M  V30 9587 H 873.596 2.69799 -2.63607 0
M  V30 9588 H 875.983 2.42419 -1.68276 0
M  V30 9589 H 876.064 0.81923 -2.42327 0
M  V30 9590 H 875.708 1.88393 -4.71668 0
M  V30 9591 H 875.638 3.48815 -3.94507 0
M  V30 9592 H 878.129 2.18651 -3.08221 0
M  V30 9593 H 878.442 3.94674 -6.64419 0
M  V30 9594 H 876.787 3.55538 -5.97175 0
M  V30 9595 H 879.978 2.63925 -3.86602 0
M  V30 9596 H 880.151 3.44212 -5.49019 0
M  V30 9597 N 873.557 1.20646 1.01402 0
M  V30 9598 C 874.782 1.04462 1.79172 0
M  V30 9599 C 875.207 -0.401588 1.83763 0
M  V30 9600 O 874.565 -1.28934 1.27459 0
M  V30 9601 C 874.613 1.63583 3.21361 0
M  V30 9602 O 873.717 0.875198 4.03006 0
M  V30 9603 H 873.058 0.368235 0.552539 0
M  V30 9604 H 875.588 1.59994 1.27526 0
M  V30 9605 H 875.598 1.67426 3.72065 0
M  V30 9606 H 874.273 2.68835 3.17334 0
M  V30 9607 H 872.85 0.911172 3.61597 0
M  V30 9608 N 875.035 -1.20752 1.01276 0
M  V30 9609 C 876.265 -1.93725 0.717934 0
M  V30 9610 C 876.673 -1.74769 -0.724732 0
M  V30 9611 O 876.016 -1.05642 -1.50285 0
M  V30 9612 C 876.078 -3.46196 0.968954 0
M  V30 9613 C 875.742 -3.88909 2.39998 0
M  V30 9614 C 876.739 -3.94982 3.38061 0
M  V30 9615 C 874.424 -4.21006 2.7397 0
M  V30 9616 C 876.418 -4.32558 4.68159 0
M  V30 9617 C 874.105 -4.58257 4.04282 0
M  V30 9618 C 875.103 -4.64004 5.01187 0
M  V30 9619 O 874.791 -5.00403 6.29168 0
M  V30 9620 H 874.523 -0.622663 0.263186 0
M  V30 9621 H 877.077 -1.54299 1.35577 0
M  V30 9622 H 875.307 -3.85728 0.273952 0
M  V30 9623 H 876.996 -4.00394 0.666312 0
M  V30 9624 H 877.762 -3.70353 3.13151 0
M  V30 9625 H 873.641 -4.15725 1.99233 0
M  V30 9626 H 877.185 -4.36959 5.43795 0
M  V30 9627 H 873.082 -4.82341 4.28973 0
M  V30 9628 H 873.85 -5.18409 6.33399 0
M  V30 9629 N 876.513 -0.788492 -1.36457 0
M  V30 9630 C 877.476 -0.192209 -2.28393 0
M  V30 9631 C 878.476 0.609916 -1.48784 0
M  V30 9632 O 879.666 0.431046 -1.68783 0
M  V30 9633 C 876.798 0.734096 -3.32902 0
M  V30 9634 H 877.991 -1.00284 -2.82636 0
M  V30 9635 H 875.544 -0.557852 -1.46006 0
M  V30 9636 H 876.279 1.5691 -2.83813 0
M  V30 9637 H 876.064 0.160875 -3.9177 0
M  V30 9638 H 877.554 1.1462 -4.01562 0
M  V30 9639 N 877.991 1.48044 -0.54043 0
M  V30 9640 C 878.939 2.31461 0.229862 0
M  V30 9641 C 879.933 1.41884 0.925495 0
M  V30 9642 O 881.139 1.58736 0.848689 0
M  V30 9643 H 877.514 0.746227 0.0929975 0
M  V30 9644 H 879.485 2.94297 -0.493118 0
M  V30 9645 C 878.234 3.24172 1.25729 0
M  V30 9646 H 877.557 3.93052 0.731426 0
M  V30 9647 H 878.997 3.85404 1.76747 0
M  V30 9648 C 877.456 2.4651 2.2964 0
M  V30 9649 O 877.986 2.19742 3.36268 0
M  V30 9650 N 876.192 2.07817 2.03127 0
M  V30 9651 H 875.739 2.29786 1.1643 0
M  V30 9652 H 875.697 1.56168 2.72872 0
M  V30 9653 N 879.47 0.276058 1.55163 0
M  V30 9654 C 880.4 -0.604633 2.25536 0
M  V30 9655 C 881.381 -1.15813 1.24585 0
M  V30 9656 O 882.566 -1.1921 1.53306 0
M  V30 9657 C 879.696 -1.78836 2.97716 0
M  V30 9658 C 878.65 -1.36635 4.05604 0
M  V30 9659 C 877.976 -2.63325 4.65364 0
M  V30 9660 C 879.276 -0.515858 5.19746 0
M  V30 9661 H 880.97 -0.0177483 2.99395 0
M  V30 9662 H 878.516 -0.00709627 1.43998 0
M  V30 9663 H 880.469 -2.41036 3.45658 0
M  V30 9664 H 879.193 -2.40109 2.21394 0
M  V30 9665 H 877.852 -0.767541 3.58475 0
M  V30 9666 H 877.5 -3.22858 3.85709 0
M  V30 9667 H 877.2 -2.358 5.38212 0
M  V30 9668 H 878.724 -3.26372 5.16056 0
M  V30 9669 H 880.138 -1.04289 5.63735 0
M  V30 9670 H 878.535 -0.335449 5.99162 0
M  V30 9671 H 879.605 0.465137 4.82664 0
M  V30 9672 N 880.948 -1.576 0.00335426 0
M  V30 9673 C 882.197 -1.89892 -0.680001 0
M  V30 9674 C 882.51 -0.878731 -1.7475 0
M  V30 9675 O 883.716 -1.09199 -2.48572 0
M  V30 9676 C 882.172 -3.37098 -1.26066 0
M  V30 9677 C 881.78 -4.4742 -0.227807 0
M  V30 9678 C 883.524 -3.78495 -1.92202 0
M  V30 9679 C 881.431 -5.85706 -0.81865 0
M  V30 9680 H 880.361 -0.708578 -0.257746 0
M  V30 9681 H 883.012 -1.83387 0.0644472 0
M  V30 9682 H 881.394 -3.38451 -2.05589 0
M  V30 9683 H 882.568 -4.57589 0.54307 0
M  V30 9684 H 880.883 -4.15064 0.333297 0
M  V30 9685 H 883.48 -4.7915 -2.37318 0
M  V30 9686 H 883.823 -3.12187 -2.75399 0
M  V30 9687 H 884.356 -3.79456 -1.19408 0
M  V30 9688 H 881.095 -6.55495 -0.0253787 0
M  V30 9689 H 880.615 -5.79196 -1.55861 0
M  V30 9690 H 882.294 -6.33469 -1.31627 0
M  V30 9691 N 882.426 0.269451 -1.5528 0
M  V30 9692 C 883.674 0.998604 -1.75705 0
M  V30 9693 C 883.995 1.86691 -0.563175 0
M  V30 9694 O 883.265 1.91305 0.421811 0
M  V30 9695 H 881.845 0.371698 -0.647958 0
M  V30 9696 H 884.507 0.292826 -1.92688 0
M  V30 9697 H 883.603 1.63348 -2.6594 0
M  V30 9698 N 883.904 1.48273 0.534124 0
M  V30 9699 C 884.851 1.62487 1.6391 0
M  V30 9700 C 885.821 0.467062 1.59398 0
M  V30 9701 O 887.006 0.690029 1.77885 0
M  V30 9702 C 884.146 1.66671 3.02183 0
M  V30 9703 C 883.259 2.9353 3.16961 0
M  V30 9704 C 882.394 2.88902 4.45768 0
M  V30 9705 C 881.433 4.10483 4.54059 0
M  V30 9706 N 880.57 4.03956 5.74251 0
M  V30 9707 H 885.41 2.56851 1.51101 0
M  V30 9708 H 882.947 1.27381 0.735704 0
M  V30 9709 H 884.905 1.67079 3.82283 0
M  V30 9710 H 883.535 0.758011 3.13774 0
M  V30 9711 H 882.587 3.02886 2.3014 0
M  V30 9712 H 883.899 3.83501 3.18949 0
M  V30 9713 H 883.053 2.87688 5.34154 0
M  V30 9714 H 881.792 1.96652 4.46295 0
M  V30 9715 H 880.797 4.11977 3.64081 0
M  V30 9716 H 882.022 5.03887 4.55274 0
M  V30 9717 H 879.968 3.14525 5.75682 0
M  V30 9718 H 879.885 4.87628 5.77715 0
M  V30 9719 H 881.153 4.06795 6.64935 0
M  V30 9720 N 885.382 -0.782676 1.36792 0
M  V30 9721 C 886.607 -1.57676 1.34733 0
M  V30 9722 C 887.032 -1.87979 -0.0675253 0
M  V30 9723 O 886.39 -1.48404 -1.04144 0
M  V30 9724 C 886.438 -2.87047 2.18257 0
M  V30 9725 O 885.542 -3.80946 1.57969 0
M  V30 9726 H 884.883 -0.478034 0.460846 0
M  V30 9727 H 887.413 -0.969578 1.80168 0
M  V30 9728 H 887.423 -3.36254 2.31079 0
M  V30 9729 H 886.098 -2.64319 3.21104 0
M  V30 9730 H 884.675 -3.39558 1.54126 0
M  V30 9731 N 886.86 -1.21182 -1.00761 0
M  V30 9732 C 888.108 -1.02543 -1.74153 0
M  V30 9733 C 888.429 0.442372 -1.89916 0
M  V30 9734 O 887.699 1.31927 -1.44818 0
M  V30 9735 H 886.279 -0.37644 -0.645214 0
M  V30 9736 H 888.941 -1.52446 -1.21434 0
M  V30 9737 H 888.037 -1.49122 -2.7417 0
M  V30 9738 N 888.338 1.20213 -1.01915 0
M  V30 9739 C 889.566 1.93622 -0.729255 0
M  V30 9740 C 889.981 1.74923 0.710444 0
M  V30 9741 O 889.338 1.06484 1.48214 0
M  V30 9742 C 889.389 3.45651 -1.05865 0
M  V30 9743 O 889.11 3.63741 -2.44181 0
M  V30 9744 C 890.611 4.36201 -0.790176 0
M  V30 9745 H 887.831 0.615333 -0.267594 0
M  V30 9746 H 890.375 1.52633 -1.36101 0
M  V30 9747 H 888.53 3.84511 -0.47225 0
M  V30 9748 H 888.944 4.57702 -2.56143 0
M  V30 9749 H 890.418 5.41516 -1.07071 0
M  V30 9750 H 890.895 4.38334 0.275609 0
M  V30 9751 H 891.501 4.03008 -1.35885 0
M  V30 9752 N 889.816 0.795718 1.36037 0
M  V30 9753 C 890.779 0.204318 2.28287 0
M  V30 9754 C 891.779 -0.602017 1.49105 0
M  V30 9755 O 892.969 -0.422089 1.69009 0
M  V30 9756 C 890.101 -0.716431 3.33287 0
M  V30 9757 H 891.294 1.01781 2.821 0
M  V30 9758 H 888.847 0.565588 1.45708 0
M  V30 9759 H 889.582 -1.55403 2.84641 0
M  V30 9760 H 889.367 -0.140096 3.9185 0
M  V30 9761 H 890.857 -1.12488 4.02164 0
M  V30 9762 N 891.294 -1.47756 0.548274 0
M  V30 9763 C 892.204 -2.33678 -0.207773 0
M  V30 9764 C 893.22 -1.47636 -0.920843 0
M  V30 9765 O 894.396 -1.80583 -0.89173 0
M  V30 9766 C 891.461 -3.24147 -1.23003 0
M  V30 9767 C 890.522 -4.26073 -0.52535 0
M  V30 9768 C 889.755 -5.12219 -1.4989 0
M  V30 9769 O 889.978 -5.0066 -2.73305 0
M  V30 9770 O 888.912 -5.93051 -1.02828 0
M  V30 9771 H 892.738 -2.99609 0.496794 0
M  V30 9772 H 890.323 -1.4617 0.308982 0
M  V30 9773 H 892.205 -3.80055 -1.82034 0
M  V30 9774 H 890.88 -2.60855 -1.91668 0
M  V30 9775 H 889.787 -3.7395 0.105927 0
M  V30 9776 H 891.12 -4.92054 0.119686 0
M  V30 9777 N 892.772 -0.284283 -1.55015 0
M  V30 9778 C 893.702 0.592663 -2.25853 0
M  V30 9779 C 894.683 1.15151 -1.25197 0
M  V30 9780 O 895.868 1.18395 -1.53936 0
M  V30 9781 C 892.998 1.77254 -2.98661 0
M  V30 9782 C 891.952 1.34482 -4.06323 0
M  V30 9783 C 891.278 2.60853 -4.66754 0
M  V30 9784 C 892.578 0.488288 -5.20013 0
M  V30 9785 H 894.272 0.00187041 -2.994 0
M  V30 9786 H 891.818 -0.000540402 -1.44 0
M  V30 9787 H 893.771 2.39199 -3.46932 0
M  V30 9788 H 892.495 2.38931 -2.22664 0
M  V30 9789 H 891.154 0.748519 -3.58877 0
M  V30 9790 H 890.802 3.20808 -3.87416 0
M  V30 9791 H 890.502 2.32942 -5.39455 0
M  V30 9792 H 892.026 3.23631 -5.1778 0
M  V30 9793 H 893.44 1.01298 -5.6428 0
M  V30 9794 H 891.837 0.303669 -5.99331 0
M  V30 9795 H 892.907 -0.490727 -4.8241 0
M  V30 9796 N 894.251 1.57596 -0.0117121 0
M  V30 9797 C 895.198 2.09153 0.975897 0
M  V30 9798 C 896.168 0.989579 1.33404 0
M  V30 9799 O 897.353 1.26273 1.43038 0
M  V30 9800 C 894.493 2.60906 2.2588 0
M  V30 9801 C 893.606 3.85046 1.95866 0
M  V30 9802 C 892.741 4.25257 3.18323 0
M  V30 9803 C 891.78 5.42202 2.84049 0
M  V30 9804 N 890.917 5.77651 3.99079 0
M  V30 9805 H 895.757 2.93261 0.52931 0
M  V30 9806 H 893.294 1.44965 0.249691 0
M  V30 9807 H 895.252 2.88995 3.00895 0
M  V30 9808 H 893.882 1.79654 2.68187 0
M  V30 9809 H 892.934 3.63794 1.11168 0
M  V30 9810 H 894.246 4.70151 1.66611 0
M  V30 9811 H 893.4 4.5469 4.01674 0
M  V30 9812 H 892.139 3.38884 3.50726 0
M  V30 9813 H 891.144 5.1248 1.99107 0
M  V30 9814 H 892.369 6.3026 2.52881 0
M  V30 9815 H 890.315 4.94235 4.31356 0
M  V30 9816 H 890.232 6.57356 3.73388 0
M  V30 9817 H 891.5 6.11681 4.83183 0
M  V30 9818 N 895.729 -0.261212 1.5542 0
M  V30 9819 C 896.662 -1.34906 1.84054 0
M  V30 9820 C 897.64 -1.47024 0.694466 0
M  V30 9821 O 898.824 -1.63463 0.938719 0
M  V30 9822 C 895.951 -2.7242 2.01259 0
M  V30 9823 C 894.997 -2.77526 3.23855 0
M  V30 9824 S 895.83 -2.35578 4.80898 0
M  V30 9825 C 896.986 -3.75045 5.01091 0
M  V30 9826 H 897.219 -1.10416 2.76035 0
M  V30 9827 H 894.752 -0.461461 1.47343 0
M  V30 9828 H 896.71 -3.51606 2.11857 0
M  V30 9829 H 895.371 -2.94155 1.10145 0
M  V30 9830 H 894.564 -3.78483 3.32816 0
M  V30 9831 H 894.166 -2.0637 3.11909 0
M  V30 9832 H 896.458 -4.7042 4.87556 0
M  V30 9833 H 897.401 -3.71027 6.03112 0
M  V30 9834 H 897.809 -3.66894 4.29009 0
M  V30 9835 N 897.207 -1.48554 -0.526253 0
M  V30 9836 C 898.154 -1.63354 -1.63046 0
M  V30 9837 C 899.124 -0.475509 -1.59148 0
M  V30 9838 O 900.309 -0.699453 -1.77517 0
M  V30 9839 C 897.449 -1.68271 -3.01295 0
M  V30 9840 C 896.562 -2.95207 -3.15399 0
M  V30 9841 C 895.697 -2.91262 -4.4423 0
M  V30 9842 C 894.736 -4.12886 -4.51876 0
M  V30 9843 N 893.873 -4.06996 -5.721 0
M  V30 9844 H 898.713 -2.57649 -1.49737 0
M  V30 9845 H 896.25 -1.27769 -0.728938 0
M  V30 9846 H 898.208 -1.69104 -3.81392 0
M  V30 9847 H 896.838 -0.774641 -3.13367 0
M  V30 9848 H 895.89 -3.04102 -2.2853 0
M  V30 9849 H 897.202 -3.85187 -3.1691 0
M  V30 9850 H 896.356 -2.90516 -5.32621 0
M  V30 9851 H 895.095 -1.99016 -4.45246 0
M  V30 9852 H 894.1 -4.13902 -3.61891 0
M  V30 9853 H 895.325 -5.06294 -4.52596 0
M  V30 9854 H 893.271 -3.17573 -5.74006 0
M  V30 9855 H 893.188 -4.90685 -5.75121 0
M  V30 9856 H 894.456 -4.10315 -6.62768 0
M  V30 9857 N 898.685 0.775411 -1.37205 0
M  V30 9858 C 899.617 1.89761 -1.28544 0
M  V30 9859 C 900.63 1.61542 -0.201996 0
M  V30 9860 O 901.819 1.72528 -0.457848 0
M  V30 9861 C 898.919 3.24904 -0.963885 0
M  V30 9862 C 898.092 3.80796 -2.15205 0
M  V30 9863 C 897.151 4.94407 -1.80135 0
M  V30 9864 O 896.177 5.10185 -2.52388 0
M  V30 9865 N 897.379 5.75722 -0.743298 0
M  V30 9866 H 900.144 1.97708 -2.25237 0
M  V30 9867 H 897.705 0.954348 -1.30782 0
M  V30 9868 H 899.697 3.9842 -0.710182 0
M  V30 9869 H 898.267 3.12483 -0.085632 0
M  V30 9870 H 897.487 2.99101 -2.56773 0
M  V30 9871 H 898.775 4.1487 -2.94552 0
M  V30 9872 H 898.173 5.65518 -0.143655 0
M  V30 9873 H 896.73 6.4948 -0.549446 0
M  V30 9874 N 900.163 1.21714 1.00117 0
M  V30 9875 C 901.411 1.03465 1.73607 0
M  V30 9876 C 901.732 -0.432295 1.90148 0
M  V30 9877 O 901.002 -1.31157 1.45515 0
M  V30 9878 H 899.582 0.379857 0.643209 0
M  V30 9879 H 902.244 1.53088 1.20624 0
M  V30 9880 H 901.34 1.50574 2.73375 0
M  V30 9881 N 901.641 -1.19671 1.02551 0
M  V30 9882 C 902.551 -2.26441 0.613329 0
M  V30 9883 C 903.567 -1.70375 -0.353339 0
M  V30 9884 O 904.743 -2.0028 -0.212064 0
M  V30 9885 C 901.808 -3.46684 -0.0329028 0
M  V30 9886 C 900.869 -4.17945 0.980837 0
M  V30 9887 C 900.102 -5.32448 0.36535 0
M  V30 9888 O 900.325 -5.64291 -0.832596 0
M  V30 9889 O 899.259 -5.92012 1.08652 0
M  V30 9890 H 903.085 -2.63932 1.50246 0
M  V30 9891 H 900.67 -1.2646 0.795502 0
M  V30 9892 H 902.552 -4.1956 -0.393395 0
M  V30 9893 H 901.227 -3.1105 -0.896089 0
M  V30 9894 H 900.134 -3.47204 1.39286 0
M  V30 9895 H 901.467 -4.57542 1.81428 0
M  V30 9896 N 903.119 -0.802921 -1.35613 0
M  V30 9897 C 904.347 -0.39393 -2.03115 0
M  V30 9898 C 904.762 0.993961 -1.60517 0
M  V30 9899 O 904.119 1.63984 -0.800973 0
M  V30 9900 C 904.17 -0.463486 -3.58516 0
M  V30 9901 O 903.891 -1.79666 -3.99565 0
M  V30 9902 C 905.392 -0.0468377 -4.43275 0
M  V30 9903 H 902.612 -0.160519 -0.651517 0
M  V30 9904 H 905.156 -1.08552 -1.73311 0
M  V30 9905 H 903.311 0.179821 -3.86982 0
M  V30 9906 H 903.725 -1.75688 -4.942 0
M  V30 9907 H 905.199 -0.146626 -5.51805 0
M  V30 9908 H 905.676 1.00741 -4.2749 0
M  V30 9909 H 906.282 -0.663158 -4.20098 0
M  V30 9910 N 904.597 1.47463 -0.556102 0
M  V30 9911 C 905.845 2.02075 -0.0315712 0
M  V30 9912 C 906.166 1.43292 1.32259 0
M  V30 9913 O 905.436 0.60771 1.86236 0
M  V30 9914 H 904.016 0.74695 -0.0086816 0
M  V30 9915 H 906.678 1.80879 -0.725859 0
M  V30 9916 H 905.774 3.12047 0.0573538 0
M  V30 9917 N 906.075 0.2925 1.54862 0
M  V30 9918 C 907.491 -0.0611461 1.59483 0
M  V30 9919 C 907.691 -1.53141 1.30958 0
M  V30 9920 O 906.747 -2.28291 1.07887 0
M  V30 9921 C 908.06 0.329143 2.98893 0
M  V30 9922 C 909.608 0.2772 3.1177 0
M  V30 9923 C 910.083 0.642185 4.53475 0
M  V30 9924 N 911.574 0.594396 4.5937 0
M  V30 9925 C 912.309 0.849385 5.67074 0
M  V30 9926 N 911.805 1.1699 6.82851 0
M  V30 9927 N 913.598 0.777016 5.56704 0
M  V30 9928 H 905.749 1.25079 1.71665 0
M  V30 9929 H 908.012 0.506516 0.80134 0
M  V30 9930 H 907.718 1.35233 3.24661 0
M  V30 9931 H 907.592 -0.321442 3.75828 0
M  V30 9932 H 909.979 -0.736725 2.85756 0
M  V30 9933 H 910.06 0.962289 2.3701 0
M  V30 9934 H 909.704 1.65388 4.80218 0
M  V30 9935 H 909.634 -0.0648831 5.2656 0
M  V30 9936 H 912.125 0.357256 3.76208 0
M  V30 9937 H 912.438 1.35067 7.60905 0
M  V30 9938 H 910.783 1.20785 6.84424 0
M  V30 9939 H 913.974 0.526333 4.65132 0
M  V30 9940 H 914.147 0.979113 6.4056 0
M  V30 9941 N 907.553 -1.57587 0.0200696 0
M  V30 9942 C 908.485 -2.06555 -0.993359 0
M  V30 9943 C 909.498 -0.987227 -1.29451 0
M  V30 9944 O 910.687 -1.26361 -1.26075 0
M  V30 9945 C 907.787 -2.4675 -2.3231 0
M  V30 9946 C 906.96 -3.77554 -2.20843 0
M  V30 9947 C 906.019 -4.04397 -3.36674 0
M  V30 9948 O 905.045 -4.7478 -3.13963 0
M  V30 9949 N 906.247 -3.53861 -4.60176 0
M  V30 9950 H 909.012 -2.9412 -0.575617 0
M  V30 9951 H 906.573 -1.61038 -0.166889 0
M  V30 9952 H 908.565 -2.61806 -3.08609 0
M  V30 9953 H 907.135 -1.64598 -2.65756 0
M  V30 9954 H 906.355 -3.72382 -1.29327 0
M  V30 9955 H 907.643 -4.63271 -2.10375 0
M  V30 9956 H 907.041 -2.96904 -4.81523 0
M  V30 9957 H 905.598 -3.74213 -5.33674 0
M  V30 9958 N 909.032 0.252966 -1.55557 0
M  V30 9959 C 910.281 0.979736 -1.76307 0
M  V30 9960 C 910.594 1.86714 -0.582871 0
M  V30 9961 O 911.8 2.6302 -0.673247 0
M  V30 9962 C 910.256 1.79205 -3.12112 0
M  V30 9963 C 909.864 0.952333 -4.37761 0
M  V30 9964 C 911.608 2.51191 -3.42203 0
M  V30 9965 C 909.515 1.76018 -5.64599 0
M  V30 9966 H 908.445 0.369538 -0.657235 0
M  V30 9967 H 911.096 0.234619 -1.81994 0
M  V30 9968 H 909.478 2.57888 -3.00515 0
M  V30 9969 H 910.652 0.208251 -4.60329 0
M  V30 9970 H 908.967 0.346082 -4.14959 0
M  V30 9971 H 911.564 3.12074 -4.34182 0
M  V30 9972 H 911.907 3.22499 -2.63249 0
M  V30 9973 H 912.44 1.79523 -3.54988 0
M  V30 9974 H 909.179 1.09095 -6.46358 0
M  V30 9975 H 908.699 2.4797 -5.46142 0
M  V30 9976 H 910.378 2.32884 -6.03634 0
M  V30 9977 N 910.51 1.48831 0.518367 0
M  V30 9978 C 911.758 1.57128 1.27103 0
M  V30 9979 C 912.079 0.252098 1.93364 0
M  V30 9980 O 911.349 -0.727281 1.819 0
M  V30 9981 H 909.929 0.578891 0.472116 0
M  V30 9982 H 912.591 1.85361 0.602262 0
M  V30 9983 H 911.687 2.35838 2.04418 0
M  V30 9984 N 911.988 -0.768124 1.37614 0
M  V30 9985 C 913.234 -1.52823 1.34226 0
M  V30 9986 C 913.589 -1.92266 -0.0717482 0
M  V30 9987 O 912.882 -1.61484 -1.03119 0
M  V30 9988 C 913.076 -2.80204 2.21856 0
M  V30 9989 C 912.905 -2.53213 3.71636 0
M  V30 9990 C 911.675 -2.47159 4.40727 0
M  V30 9991 C 913.873 -2.20965 4.64413 0
M  V30 9992 N 911.855 -2.12289 5.76026 0
M  V30 9993 C 913.226 -1.96264 5.88116 0
M  V30 9994 C 915.281 -2.07151 4.52761 0
M  V30 9995 C 913.984 -1.59145 7.01474 0
M  V30 9996 C 916.01 -1.71432 5.66008 0
M  V30 9997 C 915.372 -1.47594 6.88764 0
M  V30 9998 H 911.471 -0.559388 0.546451 0
M  V30 9999 H 914.055 -0.895795 1.72869 0
M  V30 10000 H 912.226 -3.4128 1.85424 0
M  V30 10001 H 913.958 -3.46133 2.097 0
M  V30 10002 H 910.713 -2.63137 3.93772 0
M  V30 10003 H 911.137 -1.97541 6.47539 0
M  V30 10004 H 915.779 -2.24262 3.58422 0
M  V30 10005 H 913.497 -1.40773 7.95744 0
M  V30 10006 H 917.083 -1.61397 5.58965 0
M  V30 10007 H 915.963 -1.20365 7.74908 0
M  V30 10008 N 913.466 -1.22244 -0.994698 0
M  V30 10009 C 914.713 -1.04591 -1.73398 0
M  V30 10010 C 915.041 0.419223 -1.89928 0
M  V30 10011 O 914.296 1.32714 -1.43824 0
M  V30 10012 C 914.595 -1.70014 -3.14372 0
M  V30 10013 C 914.261 -3.19903 -3.17762 0
M  V30 10014 C 912.923 -3.60803 -3.18394 0
M  V30 10015 C 915.275 -4.15851 -3.14194 0
M  V30 10016 C 912.603 -4.96135 -3.13157 0
M  V30 10017 C 914.955 -5.51157 -3.10498 0
M  V30 10018 C 913.619 -5.91439 -3.09445 0
M  V30 10019 H 912.889 -0.382725 -0.63451 0
M  V30 10020 H 915.536 -1.51981 -1.16508 0
M  V30 10021 H 913.841 -1.14945 -3.7456 0
M  V30 10022 H 915.538 -1.53848 -3.70313 0
M  V30 10023 H 912.128 -2.87336 -3.18019 0
M  V30 10024 H 916.312 -3.85272 -3.12857 0
M  V30 10025 H 911.568 -5.26578 -3.10685 0
M  V30 10026 H 915.742 -6.2523 -3.06692 0
M  V30 10027 H 913.369 -6.96271 -3.05141 0
M  V30 10028 N 914.944 1.19125 -1.03184 0
M  V30 10029 C 916.193 1.8821 -0.725264 0
M  V30 10030 C 916.506 1.80674 0.749411 0
M  V30 10031 O 917.712 2.45037 1.16915 0
M  V30 10032 C 916.168 3.37607 -1.24697 0
M  V30 10033 C 915.776 3.53693 -2.74964 0
M  V30 10034 C 917.52 4.12149 -1.01652 0
M  V30 10035 C 915.427 4.97001 -3.20538 0
M  V30 10036 H 914.357 0.704916 -0.267599 0
M  V30 10037 H 917.008 1.34663 -1.24652 0
M  V30 10038 H 915.39 3.90569 -0.653614 0
M  V30 10039 H 916.564 3.11046 -3.39981 0
M  V30 10040 H 914.879 2.92544 -2.96322 0
M  V30 10041 H 917.476 5.17837 -1.33226 0
M  V30 10042 H 917.819 4.16274 0.0465712 0
M  V30 10043 H 918.352 3.65334 -1.57403 0
M  V30 10044 H 915.091 4.9804 -4.26189 0
M  V30 10045 H 914.611 5.40398 -2.60251 0
M  V30 10046 H 916.29 5.65669 -3.14049 0
M  V30 10047 N 916.422 0.810101 1.35185 0
M  V30 10048 C 917.647 0.40364 2.03434 0
M  V30 10049 C 918.072 -0.97857 1.60641 0
M  V30 10050 O 917.43 -1.63435 0.784779 0
M  V30 10051 C 917.478 0.499154 3.57129 0
M  V30 10052 O 916.582 -0.486039 4.09526 0
M  V30 10053 H 915.923 0.168049 0.642383 0
M  V30 10054 H 918.453 1.09696 1.72708 0
M  V30 10055 H 918.463 0.370236 4.06317 0
M  V30 10056 H 917.138 1.50733 3.87624 0
M  V30 10057 H 915.715 -0.31707 3.7155 0
M  V30 10058 N 917.9 -1.47166 0.563914 0
M  V30 10059 C 919.13 -2.06546 0.0473599 0
M  V30 10060 C 919.538 -1.41607 -1.25476 0
M  V30 10061 O 918.881 -0.50894 -1.76509 0
M  V30 10062 C 918.943 -3.58873 -0.212249 0
M  V30 10063 C 918.607 -4.45893 1.00144 0
M  V30 10064 C 919.604 -4.83594 1.90873 0
M  V30 10065 C 917.289 -4.87309 1.218 0
M  V30 10066 C 919.283 -5.61519 3.01621 0
M  V30 10067 C 916.97 -5.64997 2.32856 0
M  V30 10068 C 917.968 -6.02013 3.22597 0
M  V30 10069 O 917.656 -6.78135 4.31727 0
M  V30 10070 H 917.388 -0.674441 0.0458823 0
M  V30 10071 H 919.942 -1.9006 0.778865 0
M  V30 10072 H 918.172 -3.73596 -0.998145 0
M  V30 10073 H 919.861 -4.00248 -0.675005 0
M  V30 10074 H 920.627 -4.52192 1.7535 0
M  V30 10075 H 916.506 -4.57959 0.528641 0
M  V30 10076 H 920.05 -5.90331 3.71693 0
M  V30 10077 H 915.947 -5.95813 2.48349 0
M  V30 10078 H 916.715 -6.96537 4.29859 0
M  V30 10079 N 919.378 -0.300708 -1.54705 0
M  V30 10080 C 920.655 0.361757 -1.92226 0
M  V30 10081 C 921.035 1.71714 -1.2279 0
M  V30 10082 O 920.383 2.2559 -0.363542 0
M  V30 10083 C 920.593 0.476699 -3.45729 0
M  V30 10084 C 921.941 0.7477 -4.17965 0
M  V30 10085 O 922.965 0.560521 -3.51762 0
M  V30 10086 O 921.824 1.10724 -5.35166 0
M  V30 10087 H 918.918 0.202213 -0.801897 0
M  V30 10088 H 921.464 -0.348746 -1.66078 0
M  V30 10089 H 920.236 -0.476132 -3.88392 0
M  V30 10090 H 919.859 1.23568 -3.77911 0
M  V30 10091 N 920.856 1.57574 -0.0284266 0
M  V30 10092 C 921.803 2.10176 0.953658 0
M  V30 10093 C 922.773 1.00367 1.32347 0
M  V30 10094 O 923.958 1.27783 1.4169 0
M  V30 10095 C 921.098 2.63287 2.231 0
M  V30 10096 C 920.211 3.87102 1.91771 0
M  V30 10097 C 919.346 4.28609 3.13795 0
M  V30 10098 C 918.385 5.45184 2.78282 0
M  V30 10099 N 917.522 5.81851 3.92929 0
M  V30 10100 H 922.362 2.93806 0.498176 0
M  V30 10101 H 919.899 1.45222 0.234302 0
M  V30 10102 H 921.857 2.9217 2.97813 0
M  V30 10103 H 920.487 1.82489 2.66266 0
M  V30 10104 H 919.539 3.64952 1.07303 0
M  V30 10105 H 920.851 4.71892 1.61615 0
M  V30 10106 H 920.005 4.58925 3.96829 0
M  V30 10107 H 918.744 3.42585 3.47112 0
M  V30 10108 H 917.749 5.14563 1.93661 0
M  V30 10109 H 918.974 6.32907 2.46182 0
M  V30 10110 H 916.92 4.98782 4.2609 0
M  V30 10111 H 916.837 6.6128 3.66395 0
M  V30 10112 H 918.105 6.16772 4.76669 0
M  V30 10113 N 922.334 -0.244713 1.55689 0
M  V30 10114 C 923.611 -0.995407 1.68378 0
M  V30 10115 C 923.991 -2.03288 0.568949 0
M  V30 10116 O 923.339 -2.24469 -0.427299 0
M  V30 10117 C 923.549 -1.62678 3.08767 0
M  V30 10118 C 924.897 -2.1278 3.67437 0
M  V30 10119 O 925.921 -1.72614 3.11581 0
M  V30 10120 O 924.78 -2.86536 4.65359 0
M  V30 10121 H 921.874 -0.463476 0.684923 0
M  V30 10122 H 924.42 -0.238326 1.68018 0
M  V30 10123 H 923.192 -0.876469 3.81358 0
M  V30 10124 H 922.815 -2.45 3.13146 0
M  V30 10125 N 923.813 -1.49104 -0.510467 0
M  V30 10126 C 924.761 -1.65547 -1.63392 0
M  V30 10127 C 925.755 -0.521522 -1.61172 0
M  V30 10128 O 926.961 -0.700865 -1.65795 0
M  V30 10129 H 923.336 -0.521843 -0.541464 0
M  V30 10130 H 925.307 -2.59864 -1.46673 0
M  V30 10131 C 924.056 -1.73051 -3.01577 0
M  V30 10132 H 923.379 -2.59676 -3.03987 0
M  V30 10133 H 924.819 -1.88594 -3.79748 0
M  V30 10134 C 923.278 -0.47328 -3.33559 0
M  V30 10135 O 923.808 0.405239 -3.99651 0
M  V30 10136 N 922.014 -0.339074 -2.88615 0
M  V30 10137 H 921.561 -1.05497 -2.35007 0
M  V30 10138 H 921.519 0.501061 -3.10382 0
M  V30 10139 N 925.291 0.760815 -1.38019 0
M  V30 10140 C 926.702 1.33773 -1.30237 0
M  V30 10141 C 927.053 1.96148 0.0451153 0
M  V30 10142 O 926.178 1.94574 0.9471 0
M  V30 10143 C 926.773 2.43227 -2.35851 0
M  V30 10144 C 925.332 2.96659 -2.31669 0
M  V30 10145 C 924.479 1.69972 -2.191 0
M  V30 10146 H 927.43 0.560237 -1.48482 0
M  V30 10147 H 927.451 3.22985 -2.01149 0
M  V30 10148 H 926.963 1.978 -3.33911 0
M  V30 10149 H 925.064 3.46433 -1.37167 0
M  V30 10150 H 925.177 3.51529 -3.25521 0
M  V30 10151 H 923.541 1.9332 -1.65829 0
M  V30 10152 H 924.324 1.26633 -3.19091 0
M  V30 10153 N 926.769 1.22769 0.988202 0
M  V30 10154 C 927.717 0.999271 2.10041 0
M  V30 10155 C 928.711 -0.0591767 1.69297 0
M  V30 10156 O 929.917 0.0936653 1.79756 0
M  V30 10157 H 926.292 0.30599 0.686931 0
M  V30 10158 H 928.263 1.94294 2.26478 0
M  V30 10159 C 927.012 0.59873 3.42506 0
M  V30 10160 H 926.335 1.40487 3.74304 0
M  V30 10161 H 927.775 0.478353 4.21293 0
M  V30 10162 C 926.234 -0.692216 3.29712 0
M  V30 10163 O 926.764 -1.74342 3.61895 0
M  V30 10164 N 924.97 -0.665163 2.82885 0
M  V30 10165 H 924.517 0.190604 2.56894 0
M  V30 10166 H 924.475 -1.52917 2.74706 0
M  V30 10167 N 928.247 -1.18576 1.03814 0
M  V30 10168 C 929.18 -2.20929 0.571463 0
M  V30 10169 C 930.158 -1.57788 -0.392636 0
M  V30 10170 O 931.342 -1.85974 -0.30754 0
M  V30 10171 C 928.469 -3.38295 -0.165504 0
M  V30 10172 C 927.515 -4.19828 0.751457 0
M  V30 10173 S 928.348 -4.86725 2.23291 0
M  V30 10174 C 929.504 -6.07494 1.50672 0
M  V30 10175 H 929.737 -2.60173 1.43866 0
M  V30 10176 H 927.27 -1.2897 0.84888 0
M  V30 10177 H 929.228 -4.06317 -0.584545 0
M  V30 10178 H 927.889 -2.97468 -1.00855 0
M  V30 10179 H 927.082 -5.03671 0.181986 0
M  V30 10180 H 926.684 -3.57172 1.10923 0
M  V30 10181 H 928.976 -6.72779 0.798377 0
M  V30 10182 H 929.919 -6.68942 2.3221 0
M  V30 10183 H 930.327 -5.55569 1.00016 0
M  V30 10184 N 929.725 -0.817259 -1.34754 0
M  V30 10185 C 930.658 -0.180483 -2.27485 0
M  V30 10186 C 931.636 0.659792 -1.48612 0
M  V30 10187 O 932.82 0.624761 -1.77845 0
M  V30 10188 C 929.947 0.748487 -3.30326 0
M  V30 10189 C 928.993 -0.0135304 -4.26498 0
M  V30 10190 S 929.826 -1.35685 -5.18025 0
M  V30 10191 C 930.982 -0.432605 -6.24403 0
M  V30 10192 H 931.215 -0.966677 -2.81145 0
M  V30 10193 H 928.748 -0.612864 -1.41716 0
M  V30 10194 H 930.706 1.27893 -3.90069 0
M  V30 10195 H 929.367 1.50816 -2.75524 0
M  V30 10196 H 928.56 0.692454 -4.9922 0
M  V30 10197 H 928.162 -0.474344 -3.7098 0
M  V30 10198 H 930.454 0.378035 -6.76444 0
M  V30 10199 H 931.397 -1.12934 -6.99036 0
M  V30 10200 H 931.805 -0.0235533 -5.64495 0
M  V30 10201 N 931.203 1.46865 -0.571711 0
M  V30 10202 C 932.136 2.27176 0.215944 0
M  V30 10203 C 933.114 1.34951 0.907035 0
M  V30 10204 O 934.298 1.64349 0.923127 0
M  V30 10205 C 931.425 3.12388 1.30888 0
M  V30 10206 C 930.471 4.20296 0.724804 0
M  V30 10207 S 931.304 5.33691 -0.439839 0
M  V30 10208 C 932.46 6.22468 0.654564 0
M  V30 10209 H 932.693 2.93633 -0.465518 0
M  V30 10210 H 930.226 1.50184 -0.358351 0
M  V30 10211 H 932.184 3.62049 1.93471 0
M  V30 10212 H 930.845 2.45265 1.96224 0
M  V30 10213 H 930.038 4.79703 1.54599 0
M  V30 10214 H 929.64 3.73591 0.174861 0
M  V30 10215 H 931.932 6.59694 1.54304 0
M  V30 10216 H 932.875 7.08033 0.0975111 0
M  V30 10217 H 933.283 5.56384 0.953762 0
M  V30 10218 N 932.681 0.308908 1.54543 0
M  V30 10219 C 933.644 -0.550857 2.22482 0
M  V30 10220 C 934.644 -1.0551 1.21344 0
M  V30 10221 O 935.834 -0.949866 1.46025 0
M  V30 10222 C 932.966 -1.76354 2.9174 0
M  V30 10223 H 934.159 0.0428395 2.99869 0
M  V30 10224 H 931.712 0.059825 1.56185 0
M  V30 10225 H 932.447 -2.39686 2.18451 0
M  V30 10226 H 932.232 -1.40954 3.65889 0
M  V30 10227 H 933.722 -2.37417 3.43545 0
M  V30 10228 N 934.159 -1.57557 0.0367827 0
M  V30 10229 C 935.408 -1.91291 -0.639569 0
M  V30 10230 C 935.721 -0.915601 -1.72847 0
M  V30 10231 O 936.927 -1.14447 -2.46199 0
M  V30 10232 C 935.383 -3.39697 -1.18888 0
M  V30 10233 C 934.991 -4.47803 -0.132851 0
M  V30 10234 C 936.735 -3.82487 -1.8413 0
M  V30 10235 C 934.642 -5.87311 -0.694229 0
M  V30 10236 H 933.572 -0.713886 -0.242658 0
M  V30 10237 H 936.223 -1.83209 0.103332 0
M  V30 10238 H 934.605 -3.42736 -1.98363 0
M  V30 10239 H 935.779 -4.56334 0.640009 0
M  V30 10240 H 934.094 -4.14264 0.421264 0
M  V30 10241 H 936.691 -4.84076 -2.27101 0
M  V30 10242 H 937.034 -3.17959 -2.68716 0
M  V30 10243 H 937.567 -3.81903 -1.11332 0
M  V30 10244 H 934.306 -6.55401 0.113667 0
M  V30 10245 H 933.826 -5.82371 -1.4354 0
M  V30 10246 H 935.505 -6.36119 -1.1816 0
M  V30 10247 N 935.637 0.236453 -1.55816 0
M  V30 10248 C 936.585 1.31259 -1.92025 0
M  V30 10249 C 937.579 1.49292 -0.800518 0
M  V30 10250 O 938.785 1.50643 -0.985229 0
M  V30 10251 H 935.16 0.439751 -0.610019 0
M  V30 10252 H 937.131 0.979926 -2.81851 0
M  V30 10253 C 935.88 2.65892 -2.24046 0
M  V30 10254 H 935.203 2.5282 -3.09713 0
M  V30 10255 H 936.643 3.40039 -2.53277 0
M  V30 10256 C 935.102 3.19777 -1.0604 0
M  V30 10257 O 935.632 4.00473 -0.313786 0
M  V30 10258 N 933.838 2.77946 -0.848209 0
M  V30 10259 H 933.385 2.12433 -1.45706 0
M  V30 10260 H 933.343 3.14342 -0.0603424 0
M  V30 10261 N 937.115 1.49373 0.502552 0
M  V30 10262 C 938.361 1.59016 1.25864 0
M  V30 10263 C 938.694 0.27532 1.92238 0
M  V30 10264 O 937.969 -0.720988 1.80643 0
M  V30 10265 C 938.252 2.74828 2.32683 0
M  V30 10266 C 938.105 4.16102 1.7082 0
M  V30 10267 C 939.424 2.86288 3.34256 0
M  V30 10268 H 936.543 0.578798 0.456248 0
M  V30 10269 H 939.185 1.81651 0.557032 0
M  V30 10270 H 937.335 2.5566 2.92524 0
M  V30 10271 H 939.007 4.46782 1.14818 0
M  V30 10272 H 937.25 4.21822 1.01238 0
M  V30 10273 H 937.921 4.93006 2.48292 0
M  V30 10274 H 940.397 3.03733 2.84404 0
M  V30 10275 H 939.273 3.69001 4.06362 0
M  V30 10276 H 939.534 1.95576 3.96488 0
M  V30 10277 N 938.594 -0.753485 1.38421 0
M  V30 10278 C 939.541 -1.86723 1.35659 0
M  V30 10279 C 940.511 -1.64648 0.219121 0
M  V30 10280 O 941.696 -1.86313 0.411366 0
M  V30 10281 C 938.836 -3.24023 1.18758 0
M  V30 10282 C 937.949 -3.57928 2.41892 0
M  V30 10283 C 937.084 -4.84532 2.17721 0
M  V30 10284 C 936.123 -5.11224 3.36626 0
M  V30 10285 N 935.26 -6.29023 3.11889 0
M  V30 10286 H 940.1 -1.88419 2.30873 0
M  V30 10287 H 937.637 -0.920934 1.14705 0
M  V30 10288 H 939.595 -4.03252 1.06974 0
M  V30 10289 H 938.225 -3.21654 0.27182 0
M  V30 10290 H 937.277 -2.73541 2.64347 0
M  V30 10291 H 938.589 -3.73581 3.30513 0
M  V30 10292 H 937.743 -5.71704 2.03074 0
M  V30 10293 H 936.482 -4.71018 1.26465 0
M  V30 10294 H 935.487 -4.2252 3.51791 0
M  V30 10295 H 936.712 -5.26635 4.28757 0
M  V30 10296 H 934.658 -6.16832 2.2328 0
M  V30 10297 H 934.575 -6.45177 3.9406 0
M  V30 10298 H 935.843 -7.19083 3.00898 0
M  V30 10299 N 940.072 -1.23292 -0.981677 0
M  V30 10300 C 941.349 -0.972514 -1.6971 0
M  V30 10301 C 941.729 0.509244 -2.04866 0
M  V30 10302 O 941.077 1.48013 -1.74082 0
M  V30 10303 C 941.287 -1.88144 -2.93943 0
M  V30 10304 C 942.635 -2.14416 -3.66485 0
M  V30 10305 O 943.659 -1.85684 -3.03974 0
M  V30 10306 O 942.518 -2.63139 -4.78978 0
M  V30 10307 H 939.612 -0.366673 -0.741269 0
M  V30 10308 H 942.158 -1.34328 -1.03701 0
M  V30 10309 H 940.93 -2.8832 -2.64551 0
M  V30 10310 H 940.553 -1.51296 -3.67689 0
M  V30 10311 N 941.55 1.18024 -1.04442 0
M  V30 10312 C 942.796 1.88377 -0.751133 0
M  V30 10313 C 943.129 1.80377 0.719571 0
M  V30 10314 O 942.404 1.20662 1.52548 0
M  V30 10315 C 942.687 3.38708 -1.22265 0
M  V30 10316 C 942.54 3.55499 -2.75574 0
M  V30 10317 C 943.859 4.32475 -0.815688 0
M  V30 10318 H 940.978 0.684037 -0.27434 0
M  V30 10319 H 943.62 1.38837 -1.29709 0
M  V30 10320 H 941.77 3.8103 -0.758192 0
M  V30 10321 H 943.442 3.22244 -3.30086 0
M  V30 10322 H 941.685 2.98028 -3.15217 0
M  V30 10323 H 942.356 4.60994 -3.03625 0
M  V30 10324 H 944.832 3.97953 -1.21542 0
M  V30 10325 H 943.708 5.36213 -1.17331 0
M  V30 10326 H 943.969 4.41207 0.280901 0
M  V30 10327 N 943.028 0.824394 1.34319 0
M  V30 10328 C 943.96 0.204805 2.28283 0
M  V30 10329 C 944.973 -0.606162 1.51094 0
M  V30 10330 O 946.162 -0.435602 1.73103 0
M  V30 10331 C 943.262 -0.73139 3.30914 0
M  V30 10332 C 942.435 0.0370723 4.37384 0
M  V30 10333 C 941.494 -0.820272 5.19767 0
M  V30 10334 O 940.52 -0.264721 5.68584 0
M  V30 10335 N 941.722 -2.13984 5.39621 0
M  V30 10336 H 944.487 1.0121 2.82093 0
M  V30 10337 H 942.048 0.681494 1.46858 0
M  V30 10338 H 944.04 -1.30958 3.82926 0
M  V30 10339 H 942.61 -1.43943 2.77487 0
M  V30 10340 H 941.83 0.796578 3.86068 0
M  V30 10341 H 943.118 0.566014 5.05642 0
M  V30 10342 H 942.516 -2.61492 5.01636 0
M  V30 10343 H 941.073 -2.66685 5.94746 0
M  V30 10344 N 944.506 -1.46559 0.579492 0
M  V30 10345 C 945.783 -1.956 -0.00287136 0
M  V30 10346 C 946.163 -1.52215 -1.46266 0
M  V30 10347 O 945.511 -0.771335 -2.15088 0
M  V30 10348 C 945.721 -3.48606 0.165824 0
M  V30 10349 C 947.069 -4.24588 0.0319807 0
M  V30 10350 O 948.093 -3.56075 0.094496 0
M  V30 10351 O 946.952 -5.46396 -0.106386 0
M  V30 10352 H 944.046 -0.825387 -0.0516274 0
M  V30 10353 H 946.592 -1.56858 0.647584 0
M  V30 10354 H 945.364 -3.7306 1.18076 0
M  V30 10355 H 944.987 -3.94169 -0.521212 0
M  V30 10356 N 945.984 -0.3171 -1.54377 0
M  V30 10357 C 946.931 0.551782 -2.24107 0
M  V30 10358 C 947.901 1.11681 -1.22949 0
M  V30 10359 O 949.086 1.15836 -1.51614 0
M  V30 10360 C 946.226 1.70997 -2.99756 0
M  V30 10361 C 945.339 1.17479 -4.15719 0
M  V30 10362 C 944.474 2.29815 -4.78914 0
M  V30 10363 C 943.513 1.73513 -5.86992 0
M  V30 10364 N 942.65 2.79485 -6.44075 0
M  V30 10365 H 947.49 -0.049431 -2.97959 0
M  V30 10366 H 945.027 -0.0361658 -1.47056 0
M  V30 10367 H 946.985 2.39141 -3.41859 0
M  V30 10368 H 945.615 2.28257 -2.28251 0
M  V30 10369 H 944.667 0.385109 -3.78446 0
M  V30 10370 H 945.979 0.72276 -4.93536 0
M  V30 10371 H 945.133 3.05875 -5.23952 0
M  V30 10372 H 943.872 2.78352 -4.00464 0
M  V30 10373 H 942.877 0.959475 -5.41363 0
M  V30 10374 H 944.102 1.2586 -6.67335 0
M  V30 10375 H 942.048 3.27325 -5.68502 0
M  V30 10376 H 941.965 2.38825 -7.17286 0
M  V30 10377 H 943.233 3.55394 -6.93769 0
M  V30 10378 N 947.462 1.57535 -0.0451378 0
M  V30 10379 C 948.71 1.92071 0.628743 0
M  V30 10380 C 949.031 0.923635 1.71738 0
M  V30 10381 O 948.301 -0.0324376 1.95873 0
M  V30 10382 H 946.881 0.708995 0.235233 0
M  V30 10383 H 949.543 1.9466 -0.0967177 0
M  V30 10384 H 948.639 2.9314 1.07123 0
M  V30 10385 N 948.94 -0.228186 1.55939 0
M  V30 10386 C 949.873 -1.30971 1.86874 0
M  V30 10387 C 950.851 -1.45517 0.725496 0
M  V30 10388 O 952.035 -1.61436 0.973181 0
M  V30 10389 C 949.162 -2.68089 2.06992 0
M  V30 10390 C 948.208 -2.70594 3.29669 0
M  V30 10391 S 949.041 -2.25325 4.85787 0
M  V30 10392 C 950.197 -3.64331 5.08934 0
M  V30 10393 H 950.43 -1.04536 2.78315 0
M  V30 10394 H 947.963 -0.430103 1.48288 0
M  V30 10395 H 949.921 -3.47033 2.19267 0
M  V30 10396 H 948.582 -2.91752 1.16359 0
M  V30 10397 H 947.775 -3.71338 3.4077 0
M  V30 10398 H 947.377 -1.99708 3.16216 0
M  V30 10399 H 949.669 -4.59972 4.97425 0
M  V30 10400 H 950.612 -3.58151 6.10847 0
M  V30 10401 H 951.02 -3.57711 4.36695 0
M  V30 10402 N 950.418 -1.49637 -0.494624 0
M  V30 10403 C 951.381 -1.66252 -1.57775 0
M  V30 10404 C 952.381 -0.534054 -1.51672 0
M  V30 10405 O 953.571 -0.800637 -1.54711 0
M  V30 10406 C 950.703 -1.66584 -2.97426 0
M  V30 10407 H 951.896 -2.62864 -1.4437 0
M  V30 10408 H 949.449 -1.38764 -0.719323 0
M  V30 10409 H 950.184 -0.715798 -3.16302 0
M  V30 10410 H 949.969 -2.48543 -3.03264 0
M  V30 10411 H 951.459 -1.81474 -3.76108 0
M  V30 10412 N 951.896 0.746133 -1.38819 0
M  V30 10413 C 953.121 1.54049 -1.38866 0
M  V30 10414 C 953.546 1.88092 0.0176624 0
M  V30 10415 O 952.904 1.51113 1.00173 0
M  V30 10416 C 952.952 2.8116 -2.25791 0
M  V30 10417 O 952.056 3.76623 -1.68014 0
M  V30 10418 H 951.397 0.465648 -0.473359 0
M  V30 10419 H 953.927 0.921469 -1.82675 0
M  V30 10420 H 953.937 3.30009 -2.39913 0
M  V30 10421 H 952.612 2.55713 -3.27999 0
M  V30 10422 H 951.189 3.35352 -1.63074 0
M  V30 10423 N 953.375 1.23811 0.975125 0
M  V30 10424 C 954.605 1.0986 1.7497 0
M  V30 10425 C 955.013 -0.352366 1.8589 0
M  V30 10426 O 954.356 -1.2553 1.34119 0
M  V30 10427 C 954.418 1.65584 3.19096 0
M  V30 10428 C 954.082 3.14395 3.3167 0
M  V30 10429 C 955.079 4.1163 3.17579 0
M  V30 10430 C 952.764 3.54208 3.56149 0
M  V30 10431 C 954.758 5.46661 3.27781 0
M  V30 10432 C 952.445 4.89382 3.65989 0
M  V30 10433 C 953.443 5.85418 3.51817 0
M  V30 10434 O 953.131 7.18135 3.61299 0
M  V30 10435 H 952.863 0.384854 0.555755 0
M  V30 10436 H 955.417 1.64242 1.23343 0
M  V30 10437 H 953.647 1.05627 3.71994 0
M  V30 10438 H 955.336 1.47032 3.78334 0
M  V30 10439 H 956.102 3.82214 2.98559 0
M  V30 10440 H 951.981 2.79968 3.66249 0
M  V30 10441 H 955.525 6.21601 3.16636 0
M  V30 10442 H 951.422 5.18473 3.84521 0
M  V30 10443 H 952.19 7.25956 3.78061 0
M  V30 10444 N 954.853 -1.17469 1.05066 0
M  V30 10445 C 955.801 -2.23495 0.644418 0
M  V30 10446 C 956.795 -1.66081 -0.333685 0
M  V30 10447 O 958.001 -1.78887 -0.199886 0
M  V30 10448 H 954.376 -0.727546 0.190214 0
M  V30 10449 H 956.347 -2.55058 1.5488 0
M  V30 10450 C 955.096 -3.47684 0.0338051 0
M  V30 10451 H 954.419 -3.92167 0.777513 0
M  V30 10452 H 955.859 -4.23464 -0.213086 0
M  V30 10453 C 954.318 -3.14067 -1.21915 0
M  V30 10454 O 954.848 -3.28728 -2.3087 0
M  V30 10455 N 953.054 -2.68304 -1.11631 0
M  V30 10456 H 952.601 -2.56574 -0.229673 0
M  V30 10457 H 952.559 -2.46184 -1.95553 0
M  V30 10458 N 956.331 -0.831506 -1.3388 0
M  V30 10459 C 957.294 -0.264773 -2.27666 0
M  V30 10460 C 958.294 0.562273 -1.50649 0
M  V30 10461 O 959.484 0.377131 -1.70069 0
M  V30 10462 C 956.616 0.627814 -3.35069 0
M  V30 10463 H 957.809 -1.09225 -2.79303 0
M  V30 10464 H 955.362 -0.604021 -1.44157 0
M  V30 10465 H 956.097 1.47802 -2.88661 0
M  V30 10466 H 955.882 0.0361552 -3.92083 0
M  V30 10467 H 957.372 1.01786 -4.05005 0
M  V30 10468 N 957.809 1.4625 -0.587256 0
M  V30 10469 C 958.756 2.30354 0.143384 0
M  V30 10470 C 959.726 1.40891 0.879716 0
M  V30 10471 O 960.911 1.69837 0.869486 0
M  V30 10472 C 958.051 3.25441 1.14815 0
M  V30 10473 C 957.164 4.30004 0.414792 0
M  V30 10474 C 956.299 5.12214 1.40748 0
M  V30 10475 C 955.338 6.08523 0.660786 0
M  V30 10476 N 954.475 6.83585 1.60176 0
M  V30 10477 H 959.315 2.92304 -0.579866 0
M  V30 10478 H 956.852 1.44055 -0.29777 0
M  V30 10479 H 958.81 3.79018 1.7436 0
M  V30 10480 H 957.44 2.6529 1.83906 0
M  V30 10481 H 956.492 3.79248 -0.295787 0
M  V30 10482 H 957.804 4.98515 -0.168738 0
M  V30 10483 H 956.958 5.70091 2.0756 0
M  V30 10484 H 955.697 4.43675 2.02494 0
M  V30 10485 H 954.702 5.49796 -0.0210864 0
M  V30 10486 H 955.927 6.79083 0.0486551 0
M  V30 10487 H 953.873 6.17752 2.20724 0
M  V30 10488 H 953.79 7.48373 1.07115 0
M  V30 10489 H 955.058 7.46016 2.26009 0
M  V30 10490 N 959.287 0.325282 1.54207 0
M  V30 10491 C 960.536 -0.27768 1.99779 0
M  V30 10492 C 960.849 -1.5311 1.21723 0
M  V30 10493 O 962.055 -2.21017 1.57682 0
M  V30 10494 C 960.511 -0.545329 3.55745 0
M  V30 10495 C 960.119 0.691143 4.42637 0
M  V30 10496 C 961.863 -1.10815 4.09781 0
M  V30 10497 C 959.77 0.395302 5.90077 0
M  V30 10498 H 958.7 -0.107536 0.746292 0
M  V30 10499 H 961.351 0.437773 1.78202 0
M  V30 10500 H 959.733 -1.32101 3.73317 0
M  V30 10501 H 960.907 1.46653 4.3684 0
M  V30 10502 H 959.222 1.1743 3.99499 0
M  V30 10503 H 961.819 -1.34414 5.1753 0
M  V30 10504 H 962.162 -2.05806 3.6187 0
M  V30 10505 H 962.695 -0.393608 3.95848 0
M  V30 10506 H 959.434 1.31443 6.42186 0
M  V30 10507 H 958.954 -0.34235 5.98822 0
M  V30 10508 H 960.633 0.00576877 6.47 0
M  V30 10509 N 960.765 -1.57509 0.0534917 0
M  V30 10510 C 961.99 -1.97511 -0.632794 0
M  V30 10511 C 962.415 -0.930947 -1.63447 0
M  V30 10512 O 961.773 0.105558 -1.80992 0
M  V30 10513 C 961.821 -3.3658 -1.29407 0
M  V30 10514 O 960.925 -3.3467 -2.40977 0
M  V30 10515 H 960.266 -0.643349 -0.16431 0
M  V30 10516 H 962.796 -2.04232 0.12258 0
M  V30 10517 H 962.806 -3.73359 -1.64521 0
M  V30 10518 H 961.481 -4.12113 -0.559976 0
M  V30 10519 H 960.058 -3.09639 -2.07793 0
M  V30 10520 N 962.243 0.219913 -1.56058 0
M  V30 10521 C 963.491 0.942199 -1.78793 0
M  V30 10522 C 963.812 1.84804 -0.622284 0
M  V30 10523 O 963.082 1.9255 0.360735 0
M  V30 10524 H 961.662 0.350895 -0.659455 0
M  V30 10525 H 964.324 0.231376 -1.93522 0
M  V30 10526 H 963.42 1.54804 -2.71002 0
M  V30 10527 N 963.721 1.49897 0.486681 0
M  V30 10528 C 964.668 1.67619 1.58658 0
M  V30 10529 C 965.638 0.517537 1.57831 0
M  V30 10530 O 966.823 0.746272 1.756 0
M  V30 10531 C 963.963 1.762 2.96728 0
M  V30 10532 C 963.076 3.03465 3.07462 0
M  V30 10533 C 962.211 3.02937 4.36351 0
M  V30 10534 C 961.25 4.24721 4.4077 0
M  V30 10535 N 960.387 4.22021 5.61108 0
M  V30 10536 H 965.227 2.61528 1.42853 0
M  V30 10537 H 962.764 1.29657 0.694807 0
M  V30 10538 H 964.722 1.79156 3.76774 0
M  V30 10539 H 963.352 0.857452 3.11203 0
M  V30 10540 H 962.404 3.10054 2.20387 0
M  V30 10541 H 963.716 3.93454 3.06586 0
M  V30 10542 H 962.87 3.04536 5.24731 0
M  V30 10543 H 961.609 2.10751 4.39813 0
M  V30 10544 H 960.614 4.23352 3.5079 0
M  V30 10545 H 961.839 5.18116 4.39013 0
M  V30 10546 H 959.785 3.3268 5.65385 0
M  V30 10547 H 959.702 5.05761 5.61909 0
M  V30 10548 H 960.97 4.27743 6.51656 0
M  V30 10549 N 965.199 -0.738761 1.39212 0
M  V30 10550 C 966.445 -1.50046 1.36433 0
M  V30 10551 C 966.778 -1.94157 -0.0409474 0
M  V30 10552 O 966.053 -1.66515 -1.00514 0
M  V30 10553 C 966.336 -2.74277 2.33333 0
M  V30 10554 C 966.189 -2.36209 3.82786 0
M  V30 10555 C 967.508 -3.76361 2.28123 0
M  V30 10556 H 964.627 -0.544294 0.496903 0
M  V30 10557 H 967.269 -0.845005 1.70175 0
M  V30 10558 H 965.419 -3.30204 2.04689 0
M  V30 10559 H 967.091 -1.85942 4.22165 0
M  V30 10560 H 965.334 -1.68483 3.99745 0
M  V30 10561 H 966.005 -3.25156 4.46069 0
M  V30 10562 H 968.481 -3.30009 2.53443 0
M  V30 10563 H 967.357 -4.60957 2.9801 0
M  V30 10564 H 967.618 -4.23013 1.28499 0
M  V30 10565 N 966.677 -1.24326 -0.968545 0
M  V30 10566 C 967.907 -1.10786 -1.74385 0
M  V30 10567 C 968.315 0.342503 -1.86074 0
M  V30 10568 O 967.658 1.24817 -1.34782 0
M  V30 10569 C 967.72 -1.67274 -3.18213 0
M  V30 10570 C 967.384 -3.1615 -3.29998 0
M  V30 10571 C 968.381 -4.13309 -3.15392 0
M  V30 10572 C 966.066 -3.56092 -3.54265 0
M  V30 10573 C 968.06 -5.48392 -3.24878 0
M  V30 10574 C 965.747 -4.91316 -3.63389 0
M  V30 10575 C 966.745 -5.87275 -3.48707 0
M  V30 10576 O 966.433 -7.20041 -3.57485 0
M  V30 10577 H 966.165 -0.387795 -0.553706 0
M  V30 10578 H 968.719 -1.64894 -1.22471 0
M  V30 10579 H 966.949 -1.07598 -3.71429 0
M  V30 10580 H 968.638 -1.49036 -3.77549 0
M  V30 10581 H 969.404 -3.83792 -2.96528 0
M  V30 10582 H 965.283 -2.81907 -3.6476 0
M  V30 10583 H 968.827 -6.23271 -3.13335 0
M  V30 10584 H 964.724 -5.20505 -3.81766 0
M  V30 10585 H 965.492 -7.27951 -3.74205 0
M  V30 10586 N 968.156 1.1691 -1.05688 0
M  V30 10587 C 969.433 1.83266 -0.683601 0
M  V30 10588 C 969.813 1.93858 0.835602 0
M  V30 10589 O 969.161 1.47696 1.7435 0
M  V30 10590 C 969.371 3.20625 -1.37842 0
M  V30 10591 C 970.719 3.96473 -1.51967 0
M  V30 10592 O 971.743 3.30122 -1.33783 0
M  V30 10593 O 970.602 5.15393 -1.81749 0
M  V30 10594 H 967.696 0.791028 -0.241254 0
M  V30 10595 H 970.242 1.24165 -1.15677 0
M  V30 10596 H 969.014 3.07914 -2.41463 0
M  V30 10597 H 968.637 3.87398 -0.894921 0
M  V30 10598 N 969.634 0.838594 1.33437 0
M  V30 10599 C 970.544 0.274048 2.32994 0
M  V30 10600 C 971.56 -0.599776 1.63336 0
M  V30 10601 O 972.736 -0.503963 1.94993 0
M  V30 10602 C 969.801 -0.541804 3.4244 0
M  V30 10603 C 968.862 0.356262 4.27819 0
M  V30 10604 C 968.095 -0.420747 5.32039 0
M  V30 10605 O 968.318 -1.65247 5.45939 0
M  V30 10606 O 967.252 0.205101 6.0155 0
M  V30 10607 H 971.078 1.09846 2.83139 0
M  V30 10608 H 968.663 0.601111 1.36774 0
M  V30 10609 H 970.545 -1.00544 4.0923 0
M  V30 10610 H 969.22 -1.34328 2.94513 0
M  V30 10611 H 968.127 0.867726 3.63897 0
M  V30 10612 H 969.46 1.1225 4.79229 0
M  V30 10613 N 971.112 -1.45937 0.595003 0
M  V30 10614 C 972.042 -2.33198 -0.11871 0
M  V30 10615 C 973.023 -1.46083 -0.871423 0
M  V30 10616 O 974.208 -1.74879 -0.844461 0
M  V30 10617 C 971.338 -3.28576 -1.12495 0
M  V30 10618 C 970.292 -4.25229 -0.486275 0
M  V30 10619 C 969.618 -5.10204 -1.59986 0
M  V30 10620 C 970.918 -5.19019 0.584473 0
M  V30 10621 H 972.612 -2.93122 0.609886 0
M  V30 10622 H 970.158 -1.40951 0.294742 0
M  V30 10623 H 972.111 -3.88485 -1.6327 0
M  V30 10624 H 970.835 -2.66784 -1.88398 0
M  V30 10625 H 969.494 -3.666 0.000507962 0
M  V30 10626 H 969.142 -4.44789 -2.34886 0
M  V30 10627 H 968.842 -5.75669 -1.1781 0
M  V30 10628 H 970.366 -5.7298 -2.11014 0
M  V30 10629 H 971.78 -5.73073 0.161297 0
M  V30 10630 H 970.177 -5.92893 0.927256 0
M  V30 10631 H 971.247 -4.62208 1.46601 0
M  V30 10632 N 972.59 -0.333456 -1.54032 0
M  V30 10633 C 973.82 0.267425 -2.04862 0
M  V30 10634 C 974.228 1.45559 -1.20869 0
M  V30 10635 O 973.571 1.82197 -0.234478 0
M  V30 10636 C 973.633 0.755759 -3.51466 0
M  V30 10637 C 973.297 -0.311409 -4.55938 0
M  V30 10638 C 974.294 -1.15078 -5.07004 0
M  V30 10639 C 971.979 -0.462439 -5.00167 0
M  V30 10640 C 973.973 -2.12682 -6.0087 0
M  V30 10641 C 971.66 -1.44188 -5.93846 0
M  V30 10642 C 972.658 -2.27253 -6.44085 0
M  V30 10643 O 972.346 -3.23532 -7.35923 0
M  V30 10644 H 972.078 0.0572596 -0.673571 0
M  V30 10645 H 974.632 -0.480646 -1.99697 0
M  V30 10646 H 972.862 1.55491 -3.54062 0
M  V30 10647 H 974.551 1.27607 -3.8532 0
M  V30 10648 H 975.317 -1.04513 -4.73605 0
M  V30 10649 H 971.196 0.17424 -4.60671 0
M  V30 10650 H 974.74 -2.77555 -6.40007 0
M  V30 10651 H 970.637 -1.54813 -6.2666 0
M  V30 10652 H 971.405 -3.18886 -7.53826 0
M  V30 10653 N 974.068 1.57479 -0.061844 0
M  V30 10654 C 974.978 2.15645 0.923826 0
M  V30 10655 C 975.994 1.117 1.33413 0
M  V30 10656 O 977.17 1.4392 1.40887 0
M  V30 10657 C 974.235 2.69857 2.17665 0
M  V30 10658 C 973.296 3.88638 1.8237 0
M  V30 10659 C 972.529 4.40256 3.01679 0
M  V30 10660 O 972.752 3.90908 4.15388 0
M  V30 10661 O 971.686 5.31713 2.82073 0
M  V30 10662 H 975.512 3.0021 0.459094 0
M  V30 10663 H 973.097 1.48534 0.160665 0
M  V30 10664 H 974.979 3.04647 2.9115 0
M  V30 10665 H 973.654 1.88357 2.63255 0
M  V30 10666 H 972.561 3.58719 1.06167 0
M  V30 10667 H 973.894 4.71401 1.4157 0
M  V30 10668 N 975.546 -0.211634 1.56173 0
M  V30 10669 C 976.494 -1.28188 1.94089 0
M  V30 10670 C 977.488 -1.47999 0.824167 0
M  V30 10671 O 978.694 -1.49056 1.00907 0
M  V30 10672 H 975.069 -0.42999 0.616938 0
M  V30 10673 H 977.04 -0.934962 2.83374 0
M  V30 10674 C 975.789 -2.62294 2.28248 0
M  V30 10675 H 975.112 -2.4786 3.13696 0
M  V30 10676 H 976.552 -3.35967 2.58655 0
M  V30 10677 C 975.011 -3.18049 1.11113 0
M  V30 10678 O 975.541 -3.99923 0.377458 0
M  V30 10679 N 973.747 -2.76561 0.892321 0
M  V30 10680 H 973.294 -2.10088 1.49067 0
M  V30 10681 H 973.252 -3.14206 0.110344 0
M  V30 10682 N 977.024 -1.50153 -0.478725 0
M  V30 10683 C 978.272 -1.60443 -1.22892 0
M  V30 10684 C 978.593 -0.303276 -1.92627 0
M  V30 10685 O 977.863 0.678798 -1.83764 0
M  V30 10686 H 976.443 -0.591205 -0.456602 0
M  V30 10687 H 979.105 -1.86893 -0.552905 0
M  V30 10688 H 978.201 -2.41175 -1.98094 0
M  V30 10689 N 978.502 0.731368 -1.39602 0
M  V30 10690 C 979.45 1.86676 -1.38761 0
M  V30 10691 C 980.444 1.6723 -0.270247 0
M  V30 10692 O 981.65 1.74528 -0.440471 0
M  V30 10693 H 978.025 0.614553 -0.433391 0
M  V30 10694 H 979.996 1.84501 -2.34525 0
M  V30 10695 C 978.745 3.24394 -1.25155 0
M  V30 10696 H 978.068 3.39955 -2.10406 0
M  V30 10697 H 979.508 4.04019 -1.28625 0
M  V30 10698 C 977.967 3.36877 0.0396976 0
M  V30 10699 O 978.497 3.88833 1.00854 0
M  V30 10700 N 976.703 2.90414 0.103965 0
M  V30 10701 H 976.25 2.48321 -0.685155 0
M  V30 10702 H 976.208 2.99146 0.967435 0
M  V30 10703 N 979.98 1.24838 0.961938 0
M  V30 10704 C 980.927 1.04582 2.05745 0
M  V30 10705 C 981.897 -0.0427281 1.66045 0
M  V30 10706 O 983.082 0.113026 1.90465 0
M  V30 10707 C 980.222 0.66284 3.38675 0
M  V30 10708 C 979.335 1.82548 3.91536 0
M  V30 10709 C 978.47 1.38753 5.12758 0
M  V30 10710 C 977.509 2.51976 5.5783 0
M  V30 10711 N 976.646 2.09009 6.70268 0
M  V30 10712 H 981.486 1.98343 2.22405 0
M  V30 10713 H 979.023 0.987822 1.08998 0
M  V30 10714 H 980.981 0.421788 4.15062 0
M  V30 10715 H 979.611 -0.237776 3.21923 0
M  V30 10716 H 978.663 2.18004 3.11735 0
M  V30 10717 H 979.975 2.67601 4.20941 0
M  V30 10718 H 979.129 1.1057 5.96539 0
M  V30 10719 H 977.868 0.507618 4.85051 0
M  V30 10720 H 976.873 2.80912 4.72619 0
M  V30 10721 H 978.098 3.40534 5.87549 0
M  V30 10722 H 976.044 1.23423 6.44285 0
M  V30 10723 H 975.961 2.87613 6.99153 0
M  V30 10724 H 977.229 1.83981 7.57477 0
M  V30 10725 N 981.458 -1.16348 1.06306 0
M  V30 10726 C 982.405 -2.20741 0.673962 0
M  V30 10727 C 983.375 -1.628 -0.329454 0
M  V30 10728 O 984.56 -1.89547 -0.218313 0
M  V30 10729 C 981.7 -3.45036 0.0667008 0
M  V30 10730 C 980.813 -4.17221 1.12031 0
M  V30 10731 C 979.948 -5.29034 0.479176 0
M  V30 10732 C 978.987 -5.93021 1.51631 0
M  V30 10733 N 978.124 -6.96327 0.898528 0
M  V30 10734 H 982.964 -2.53376 1.56859 0
M  V30 10735 H 980.501 -1.24449 0.784276 0
M  V30 10736 H 982.459 -4.16099 -0.302916 0
M  V30 10737 H 981.089 -3.1295 -0.791333 0
M  V30 10738 H 980.141 -3.4476 1.60763 0
M  V30 10739 H 981.453 -4.60902 1.90712 0
M  V30 10740 H 980.607 -6.06674 0.0565993 0
M  V30 10741 H 979.346 -4.86517 -0.33951 0
M  V30 10742 H 978.351 -5.14104 1.94878 0
M  V30 10743 H 979.576 -6.37618 2.3371 0
M  V30 10744 H 977.522 -6.55923 0.100555 0
M  V30 10745 H 977.439 -7.38379 1.62272 0
M  V30 10746 H 978.707 -7.77888 0.5011 0
M  V30 10747 N 982.937 -0.845659 -1.3299 0
M  V30 10748 C 984.167 -0.457686 -2.01467 0
M  V30 10749 C 984.575 0.947664 -1.63756 0
M  V30 10750 O 983.918 1.62841 -0.850213 0
M  V30 10751 C 983.98 -0.506589 -3.55913 0
M  V30 10752 C 983.644 -1.86924 -4.17023 0
M  V30 10753 C 984.641 -2.83344 -4.35904 0
M  V30 10754 C 982.326 -2.16394 -4.53298 0
M  V30 10755 C 984.32 -4.07391 -4.90216 0
M  V30 10756 C 982.007 -3.40695 -5.07316 0
M  V30 10757 C 983.005 -4.3601 -5.25722 0
M  V30 10758 O 982.693 -5.58112 -5.7859 0
M  V30 10759 H 982.425 -0.179258 -0.651799 0
M  V30 10760 H 984.979 -1.14172 -1.70745 0
M  V30 10761 H 983.209 0.234253 -3.8599 0
M  V30 10762 H 984.898 -0.135487 -4.05674 0
M  V30 10763 H 985.664 -2.61879 -4.08221 0
M  V30 10764 H 981.543 -1.42994 -4.38262 0
M  V30 10765 H 985.087 -4.81796 -5.04498 0
M  V30 10766 H 980.984 -3.62014 -5.3443 0
M  V30 10767 H 981.752 -5.59946 -5.96995 0
M  V30 10768 N 984.415 1.45619 -0.602734 0
M  V30 10769 C 985.692 1.9558 -0.0282472 0
M  V30 10770 C 986.072 1.54523 1.43826 0
M  V30 10771 O 985.42 0.805456 2.13833 0
M  V30 10772 C 985.63 3.48298 -0.221263 0
M  V30 10773 C 986.978 4.24483 -0.0995249 0
M  V30 10774 O 988.002 3.55879 -0.151132 0
M  V30 10775 O 986.861 5.46497 0.0194454 0
M  V30 10776 H 983.955 0.826104 0.0384897 0
M  V30 10777 H 986.501 1.55808 -0.672456 0
M  V30 10778 H 985.273 3.71134 -1.23997 0
M  V30 10779 H 984.896 3.94948 0.458437 0
M  V30 10780 N 985.893 0.34162 1.53853 0
M  V30 10781 C 987.142 -0.256475 2.00063 0
M  V30 10782 C 987.455 -1.51811 1.23341 0
M  V30 10783 O 988.661 -2.19332 1.60017 0
M  V30 10784 C 987.117 -0.507567 3.56303 0
M  V30 10785 C 986.725 0.738052 4.41879 0
M  V30 10786 C 988.469 -1.06463 4.10933 0
M  V30 10787 C 986.376 0.457865 5.89625 0
M  V30 10788 H 985.306 -0.0996143 0.747391 0
M  V30 10789 H 987.957 0.456649 1.77727 0
M  V30 10790 H 986.339 -1.28134 3.74697 0
M  V30 10791 H 987.513 1.51278 4.3526 0
M  V30 10792 H 985.828 1.21661 3.98231 0
M  V30 10793 H 988.425 -1.28918 5.18926 0
M  V30 10794 H 988.768 -2.01956 3.64032 0
M  V30 10795 H 989.301 -0.351601 3.96243 0
M  V30 10796 H 986.04 1.38247 6.40756 0
M  V30 10797 H 985.56 -0.278818 5.99152 0
M  V30 10798 H 987.239 0.0743914 6.46957 0
M  V30 10799 N 987.371 -1.57444 0.0701946 0
M  V30 10800 C 988.648 -1.84826 -0.6402 0
M  V30 10801 C 989.028 -0.962344 -1.87889 0
M  V30 10802 O 988.376 -0.0282209 -2.28483 0
M  V30 10803 C 988.586 -3.34976 -0.979382 0
M  V30 10804 C 989.934 -4.02448 -1.35355 0
M  V30 10805 O 990.958 -3.39713 -1.07116 0
M  V30 10806 O 989.817 -5.13096 -1.88136 0
M  V30 10807 H 986.911 -0.763494 -0.317813 0
M  V30 10808 H 989.457 -1.69399 0.101004 0
M  V30 10809 H 988.229 -3.91173 -0.0995576 0
M  V30 10810 H 987.852 -3.5566 -1.7774 0
M  V30 10811 N 988.849 0.203349 -1.56283 0
M  V30 10812 C 989.759 1.27266 -1.9708 0
M  V30 10813 C 990.775 1.50268 -0.877236 0
M  V30 10814 O 991.951 1.63044 -1.18231 0
M  V30 10815 C 989.016 2.59871 -2.29495 0
M  V30 10816 C 988.077 2.45012 -3.52516 0
M  V30 10817 C 987.31 3.71293 -3.83376 0
M  V30 10818 O 987.533 4.75106 -3.15643 0
M  V30 10819 O 986.467 3.67316 -4.76826 0
M  V30 10820 H 990.293 0.956461 -2.88246 0
M  V30 10821 H 987.878 0.407688 -1.4373 0
M  V30 10822 H 989.76 3.38152 -2.51458 0
M  V30 10823 H 988.435 2.91135 -1.415 0
M  V30 10824 H 987.342 1.6487 -3.35811 0
M  V30 10825 H 988.675 2.18683 -4.40952 0
M  V30 10826 O 990.366 1.57692 0.348646 0
M  V30 10827 H 991.057 1.65979 0.998527 0
M  V30 END ATOM
M  V30 BEGIN BOND
M  V30 END BOND
M  V30 END CTAB
M  END
$$$$
