drugbank_target|P07948 Tyrosine-protein kinase Lyn (DB01254; DB03023; DB06616; DB08901; DB09079; DB12010)
 OpenBabel12092120513D

  0  0  0     0  0            999 V3000
M  V30 BEGIN CTAB
M  V30 COUNTS 8236 8332 0 0 0
M  V30 BEGIN ATOM
M  V30 1 H -0.908 1.98254 -0.117106 0
M  V30 2 N 0 1.576 0 0
M  V30 3 C 0.933 2.03868 1.02534 0
M  V30 4 C 1.911 0.928543 1.3348 0
M  V30 5 O 3.095 1.19667 1.45644 0
M  V30 6 C 0.222 2.43627 2.35294 0
M  V30 7 C -0.732 3.65373 2.2001 0
M  V30 8 S 0.101 5.13292 1.52614 0
M  V30 9 C 1.257 5.56322 2.86805 0
M  V30 10 H 1.49 2.90518 0.631377 0
M  V30 11 H -0.977 1.52953 0.210867 0
M  V30 12 H 0.981 2.67203 3.11629 0
M  V30 13 H -0.358 1.57376 2.7183 0
M  V30 14 H -1.165 3.90944 3.18086 0
M  V30 15 H -1.563 3.418 1.51819 0
M  V30 16 H 0.729 5.58782 3.83104 0
M  V30 17 H 1.672 6.56266 2.65933 0
M  V30 18 H 2.08 4.83886 2.90714 0
M  V30 19 N 1.4781 -0.272755 1.55222 0
M  V30 20 C 2.7261 -1.00234 1.75492 0
M  V30 21 C 3.0471 -1.8681 0.5592 0
M  V30 22 O 2.3171 -1.91215 -0.425882 0
M  V30 23 H 0.8971 -0.373076 0.647166 0
M  V30 24 H 3.5591 -0.296926 1.92625 0
M  V30 25 H 2.6551 -1.63913 2.65592 0
M  V30 26 N 2.9562 -1.48159 -0.537278 0
M  V30 27 C 4.1962 -1.57397 -1.30405 0
M  V30 28 C 4.5602 -0.239202 -1.90504 0
M  V30 29 O 5.7612 -0.206528 -2.68005 0
M  V30 30 C 4.0322 -2.6754 -2.36974 0
M  V30 31 S 5.5912 -2.96496 -3.23475 0
M  V30 32 H 2.4092 -0.555577 -0.443684 0
M  V30 33 H 5.0112 -1.85644 -0.612912 0
M  V30 34 H 3.7152 -3.63092 -1.91291 0
M  V30 35 H 3.2462 -2.41172 -3.10805 0
M  V30 36 H 5.2612 -2.35234 -4.36897 0
M  V30 37 N 4.4343 0.785586 -1.36625 0
M  V30 38 C 5.6833 1.53883 -1.30396 0
M  V30 39 C 5.9963 1.95271 0.113452 0
M  V30 40 O 7.2023 2.69858 0.298142 0
M  V30 41 C 5.6583 2.77808 -2.28802 0
M  V30 42 C 5.2663 2.43574 -3.75999 0
M  V30 43 C 7.0103 3.55783 -2.31558 0
M  V30 44 C 4.9173 3.63919 -4.66173 0
M  V30 45 H 3.8473 0.577678 -0.484566 0
M  V30 46 H 6.4983 0.861705 -1.62009 0
M  V30 47 H 4.8803 3.47339 -1.90188 0
M  V30 48 H 6.0543 1.81916 -4.23371 0
M  V30 49 H 4.3693 1.78803 -3.76056 0
M  V30 50 H 6.9663 4.45205 -2.96137 0
M  V30 51 H 7.3093 3.94644 -1.3252 0
M  V30 52 H 7.8423 2.93235 -2.68809 0
M  V30 53 H 4.5813 3.3015 -5.66287 0
M  V30 54 H 4.1013 4.2473 -4.23515 0
M  V30 55 H 5.7803 4.30901 -4.82632 0
M  V30 56 N 5.9124 1.20967 1.01018 0
M  V30 57 C 6.8594 0.964281 2.09691 0
M  V30 58 C 7.8294 -0.107853 1.65749 0
M  V30 59 O 9.0144 0.0381987 1.90762 0
M  V30 60 C 6.1544 0.52943 3.41015 0
M  V30 61 C 5.2674 1.67043 3.98398 0
M  V30 62 C 4.4024 1.18525 5.17808 0
M  V30 63 C 3.4414 2.29892 5.67288 0
M  V30 64 N 2.5784 1.82546 6.77954 0
M  V30 65 H 7.4184 1.89463 2.30017 0
M  V30 66 H 4.9554 0.944289 1.1279 0
M  V30 67 H 6.9134 0.258588 4.16398 0
M  V30 68 H 5.5434 -0.363919 3.20742 0
M  V30 69 H 4.5954 2.05603 3.20049 0
M  V30 70 H 5.9074 2.50877 4.31117 0
M  V30 71 H 5.0614 0.870762 6.00419 0
M  V30 72 H 3.8004 0.316887 4.86669 0
M  V30 73 H 2.8054 2.6215 4.83278 0
M  V30 74 H 4.0304 3.17216 6.00459 0
M  V30 75 H 1.9764 0.980454 6.48632 0
M  V30 76 H 1.8934 2.59956 7.09901 0
M  V30 77 H 3.1614 1.54115 7.64113 0
M  V30 78 N 7.3905 -1.2043 1.01659 0
M  V30 79 C 8.6155 -1.94318 0.724942 0
M  V30 80 C 9.0405 -1.74266 -0.708034 0
M  V30 81 O 8.3985 -1.03694 -1.48719 0
M  V30 82 C 8.4465 -3.44486 1.06591 0
M  V30 83 O 7.5505 -4.12017 0.177599 0
M  V30 84 H 6.8915 -0.60708 0.26898 0
M  V30 85 H 9.4215 -1.52861 1.35995 0
M  V30 86 H 9.4315 -3.95106 1.01762 0
M  V30 87 H 8.1065 -3.58404 2.10997 0
M  V30 88 H 6.6835 -3.71821 0.283421 0
M  V30 89 N 8.8686 -0.792821 -1.36206 0
M  V30 90 C 9.8156 -0.191653 -2.30003 0
M  V30 91 C 10.7856 0.666453 -1.52143 0
M  V30 92 O 11.9706 0.61442 -1.80636 0
M  V30 93 C 9.1106 0.664848 -3.38635 0
M  V30 94 C 8.2236 -0.212175 -4.31479 0
M  V30 95 C 7.3586 0.651022 -5.27196 0
M  V30 96 C 6.3976 -0.227247 -6.11678 0
M  V30 97 N 5.5346 0.595127 -6.99573 0
M  V30 98 H 10.3746 -0.996978 -2.80828 0
M  V30 99 H 7.9116 -0.503206 -1.38225 0
M  V30 100 H 9.8696 1.17645 -4.00269 0
M  V30 101 H 8.4996 1.43557 -2.89122 0
M  V30 102 H 7.5516 -0.841777 -3.70969 0
M  V30 103 H 8.8636 -0.888751 -4.90818 0
M  V30 104 H 8.0176 1.2283 -5.94136 0
M  V30 105 H 6.7566 1.36121 -4.68319 0
M  V30 106 H 5.7616 -0.816904 -5.43697 0
M  V30 107 H 6.9866 -0.93509 -6.72631 0
M  V30 108 H 4.9326 1.28955 -6.432 0
M  V30 109 H 4.8496 -0.0236952 -7.55996 0
M  V30 110 H 6.1176 1.15613 -7.70879 0
M  V30 111 N 10.3467 1.47872 -0.545128 0
M  V30 112 C 11.5947 2.02093 -0.016553 0
M  V30 113 C 11.9157 1.42305 1.3332 0
M  V30 114 O 11.1857 0.593853 1.86682 0
M  V30 115 H 9.7657 0.746993 -0.00313038 0
M  V30 116 H 12.4277 1.81414 -0.712397 0
M  V30 117 H 11.5237 3.11996 0.0805422 0
M  V30 118 N 11.8248 0.280983 1.55075 0
M  V30 119 C 12.7718 -0.603937 2.22758 0
M  V30 120 C 13.7418 -1.1452 1.20309 0
M  V30 121 O 14.9268 -1.19343 1.48869 0
M  V30 122 C 12.0668 -1.77947 2.95684 0
M  V30 123 C 11.1798 -1.2715 4.12864 0
M  V30 124 C 10.3148 -2.4093 4.7342 0
M  V30 125 C 9.3538 -1.87165 5.82783 0
M  V30 126 N 8.4908 -2.94441 6.37377 0
M  V30 127 H 13.3308 -0.020124 2.97993 0
M  V30 128 H 10.8678 0.00183425 1.471 0
M  V30 129 H 12.8258 -2.47055 3.36184 0
M  V30 130 H 11.4558 -2.33522 2.22861 0
M  V30 131 H 10.5078 -0.473331 3.77444 0
M  V30 132 H 11.8198 -0.837751 4.91715 0
M  V30 133 H 10.9738 -3.18021 5.1667 0
M  V30 134 H 9.7128 -2.87623 3.93859 0
M  V30 135 H 8.7178 -1.08556 5.38976 0
M  V30 136 H 9.9428 -1.41401 6.64216 0
M  V30 137 H 7.8888 -3.40505 5.60707 0
M  V30 138 H 7.8058 -2.55501 7.11516 0
M  V30 139 H 9.0738 -3.71489 6.85285 0
M  V30 140 N 13.3029 -1.57598 0.00835791 0
M  V30 141 C 14.5799 -1.82172 -0.712235 0
M  V30 142 C 14.9599 -0.887873 -1.9152 0
M  V30 143 O 14.3079 0.06146 -2.28417 0
M  V30 144 C 14.5179 -3.30875 -1.11008 0
M  V30 145 C 15.8659 -3.96826 -1.51044 0
M  V30 146 O 16.8899 -3.35248 -1.20364 0
M  V30 147 O 15.7489 -5.05318 -2.08125 0
M  V30 148 H 12.8429 -0.750435 -0.347529 0
M  V30 149 H 15.3889 -1.69665 0.0344523 0
M  V30 150 H 14.1609 -3.90481 -0.252982 0
M  V30 151 H 13.7839 -3.48412 -1.9156 0
M  V30 152 N 14.781 0.264519 -1.55364 0
M  V30 153 C 16.006 1.01726 -1.80739 0
M  V30 154 C 16.431 1.78836 -0.583044 0
M  V30 155 O 15.789 1.75167 0.467566 0
M  V30 156 C 15.837 1.94482 -3.03659 0
M  V30 157 O 14.941 3.03386 -2.7934 0
M  V30 158 H 14.282 0.290395 -0.597132 0
M  V30 159 H 16.812 0.290854 -2.02522 0
M  V30 160 H 16.822 2.36278 -3.32621 0
M  V30 161 H 15.497 1.37772 -3.92418 0
M  V30 162 H 14.074 2.65844 -2.61498 0
M  V30 163 N 16.2591 1.48442 0.529413 0
M  V30 164 C 17.1891 1.65902 1.64313 0
M  V30 165 C 18.1701 0.507897 1.6234 0
M  V30 166 O 19.3551 0.740503 1.79528 0
M  V30 167 C 16.4851 1.69911 3.02898 0
M  V30 168 C 15.4391 2.8453 3.19729 0
M  V30 169 C 14.7651 2.73629 4.59381 0
M  V30 170 C 16.0651 4.25821 3.02447 0
M  V30 171 H 17.7591 2.5914 1.49955 0
M  V30 172 H 15.3051 1.24709 0.719982 0
M  V30 173 H 17.2581 1.80715 3.80684 0
M  V30 174 H 15.9821 0.732524 3.18279 0
M  V30 175 H 14.6411 2.73283 2.44361 0
M  V30 176 H 14.2891 1.74938 4.71599 0
M  V30 177 H 13.9891 3.50541 4.71588 0
M  V30 178 H 15.5131 2.86401 5.39265 0
M  V30 179 H 16.9271 4.37898 3.70024 0
M  V30 180 H 15.3241 5.03735 3.26146 0
M  V30 181 H 16.3941 4.42244 1.98867 0
M  V30 182 N 17.7372 -0.778329 1.37039 0
M  V30 183 C 18.9622 -1.57248 1.35233 0
M  V30 184 C 19.3872 -1.87999 -0.0615568 0
M  V30 185 O 18.7452 -1.48734 -1.03672 0
M  V30 186 C 18.7932 -2.86353 2.19167 0
M  V30 187 O 17.8972 -3.80442 1.59178 0
M  V30 188 H 17.2382 -0.476569 0.462362 0
M  V30 189 H 19.7682 -0.963853 1.80474 0
M  V30 190 H 19.7782 -3.35519 2.32145 0
M  V30 191 H 18.4532 -2.63299 3.21942 0
M  V30 192 H 17.0302 -3.39067 1.55203 0
M  V30 193 N 19.2153 -1.21501 -1.00376 0
M  V30 194 C 20.4923 -0.941745 -1.71437 0
M  V30 195 C 20.8723 0.546114 -2.03914 0
M  V30 196 O 20.2203 1.51128 -1.71384 0
M  V30 197 C 20.4303 -1.82812 -2.97289 0
M  V30 198 C 21.7783 -2.07771 -3.70292 0
M  V30 199 O 22.8023 -1.80171 -3.07273 0
M  V30 200 O 21.6613 -2.54456 -4.83647 0
M  V30 201 H 18.7553 -0.353243 -0.747762 0
M  V30 202 H 21.3013 -1.32436 -1.06108 0
M  V30 203 H 20.0733 -2.83501 -2.69709 0
M  V30 204 H 19.6963 -1.4464 -3.70358 0
M  V30 205 N 20.6934 1.19889 -1.02296 0
M  V30 206 C 21.9704 1.85148 -0.630832 0
M  V30 207 C 22.3504 1.91385 0.890782 0
M  V30 208 O 21.6984 1.42642 1.78509 0
M  V30 209 C 21.9084 3.24442 -1.28602 0
M  V30 210 C 23.2564 4.00663 -1.4055 0
M  V30 211 O 24.2804 3.33818 -1.24273 0
M  V30 212 O 23.1394 5.20387 -1.66913 0
M  V30 213 H 20.2334 0.797613 -0.218499 0
M  V30 214 H 22.7794 1.27427 -1.12074 0
M  V30 215 H 21.5514 3.14704 -2.32545 0
M  V30 216 H 21.1744 3.89802 -0.7836 0
M  V30 217 N 22.1715 0.800033 1.35784 0
M  V30 218 C 23.4195 0.376597 1.9856 0
M  V30 219 C 23.7405 -1.05812 1.63795 0
M  V30 220 O 23.0105 -1.73103 0.917171 0
M  V30 221 H 21.5905 0.136261 0.734467 0
M  V30 222 H 24.2525 1.02442 1.65806 0
M  V30 223 H 23.3485 0.477002 3.08433 0
M  V30 224 N 23.6496 -1.47581 0.552962 0
M  V30 225 C 24.8956 -2.02782 0.0273648 0
M  V30 226 C 25.2286 -1.42687 -1.31734 0
M  V30 227 O 24.5036 -0.580897 -1.85623 0
M  V30 228 C 24.7866 -3.60031 -0.0702371 0
M  V30 229 C 24.6396 -4.30566 1.30126 0
M  V30 230 C 25.9586 -4.33028 -0.785771 0
M  V30 231 H 23.0776 -0.736912 0.0114185 0
M  V30 232 H 25.7196 -1.76056 0.714432 0
M  V30 233 H 23.8696 -3.82932 -0.655382 0
M  V30 234 H 25.5416 -4.19018 1.92929 0
M  V30 235 H 23.7846 -3.91086 1.87709 0
M  V30 236 H 24.4556 -5.39114 1.18573 0
M  V30 237 H 26.9316 -4.15095 -0.288982 0
M  V30 238 H 25.8076 -5.42695 -0.823013 0
M  V30 239 H 26.0686 -4.01945 -1.841 0
M  V30 240 N 25.1277 -0.289203 -1.54924 0
M  V30 241 C 26.4047 0.376032 -1.91951 0
M  V30 242 C 26.7847 1.72622 -1.21511 0
M  V30 243 O 26.1327 2.25853 -0.346767 0
M  V30 244 C 26.3427 0.502378 -3.45365 0
M  V30 245 C 27.6907 0.778741 -4.17398 0
M  V30 246 O 28.7147 0.586647 -3.51336 0
M  V30 247 O 27.5737 1.14698 -5.34328 0
M  V30 248 H 24.6677 0.208167 -0.800372 0
M  V30 249 H 27.2137 -0.336394 -1.66332 0
M  V30 250 H 25.9857 -0.447255 -3.88736 0
M  V30 251 H 25.6087 1.26373 -3.76982 0
M  V30 252 N 26.6058 1.57591 -0.0167156 0
M  V30 253 C 27.5358 2.12496 0.967858 0
M  V30 254 C 28.5168 1.03807 1.34752 0
M  V30 255 O 29.7018 1.31577 1.42833 0
M  V30 256 C 26.8318 2.64194 2.25431 0
M  V30 257 C 25.7858 3.77559 2.01576 0
M  V30 258 C 25.1118 4.15636 3.36379 0
M  V30 259 C 26.4118 5.04151 1.36489 0
M  V30 260 H 28.1058 2.95013 0.510643 0
M  V30 261 H 25.6518 1.41915 0.244181 0
M  V30 262 H 27.6048 3.01236 2.94678 0
M  V30 263 H 26.3288 1.78821 2.73296 0
M  V30 264 H 24.9878 3.40937 1.34751 0
M  V30 265 H 24.6358 3.27263 3.81979 0
M  V30 266 H 24.3358 4.92022 3.21229 0
M  V30 267 H 25.8598 4.5525 4.06915 0
M  V30 268 H 27.2738 5.38857 1.95718 0
M  V30 269 H 25.6708 5.85453 1.31776 0
M  V30 270 H 26.7408 4.83733 0.336219 0
M  V30 271 N 28.0839 -0.256276 1.55502 0
M  V30 272 C 29.0309 -1.31714 1.89526 0
M  V30 273 C 30.0009 -1.4828 0.748479 0
M  V30 274 O 31.1859 -1.62416 1.00128 0
M  V30 275 C 28.3259 -2.66933 2.18725 0
M  V30 276 C 27.4389 -2.58452 3.4616 0
M  V30 277 C 26.5739 -3.85961 3.64976 0
M  V30 278 C 25.6129 -3.72059 4.86044 0
M  V30 279 N 24.7499 -4.9144 5.01429 0
M  V30 280 H 29.5899 -1.01998 2.80001 0
M  V30 281 H 27.1269 -0.492413 1.38613 0
M  V30 282 H 29.0849 -3.4563 2.33657 0
M  V30 283 H 27.7149 -2.94816 1.31466 0
M  V30 284 H 26.7669 -1.71374 3.3961 0
M  V30 285 H 28.0789 -2.44085 4.34999 0
M  V30 286 H 27.2329 -4.73101 3.79816 0
M  V30 287 H 25.9719 -4.03215 2.74353 0
M  V30 288 H 24.9769 -2.83302 4.7119 0
M  V30 289 H 26.2019 -3.56309 5.78118 0
M  V30 290 H 24.1479 -5.09072 4.13741 0
M  V30 291 H 24.0649 -4.79668 5.84341 0
M  V30 292 H 25.3329 -5.80104 5.20672 0
M  V30 293 N 29.562 -1.4872 -0.521534 0
M  V30 294 C 30.79 -1.60843 -1.30142 0
M  V30 295 C 31.205 -0.271897 -1.86832 0
M  V30 296 O 30.562 0.739969 -1.66825 0
M  V30 297 C 30.613 -2.66155 -2.4463 0
M  V30 298 O 30.334 -3.94623 -1.90275 0
M  V30 299 C 31.835 -2.88795 -3.36322 0
M  V30 300 H 29.055 -0.542075 -0.395468 0
M  V30 301 H 31.599 -1.94609 -0.628285 0
M  V30 302 H 29.754 -2.35224 -3.07812 0
M  V30 303 H 30.168 -4.52468 -2.65279 0
M  V30 304 H 31.642 -3.66264 -4.12983 0
M  V30 305 H 32.119 -1.97934 -3.9207 0
M  V30 306 H 32.725 -3.21063 -2.78924 0
M  V30 307 N 31.0401 0.771051 -1.3745 0
M  V30 308 C 31.9721 1.89352 -1.29146 0
M  V30 309 C 32.9851 1.61477 -0.207124 0
M  V30 310 O 34.1741 1.72382 -0.463324 0
M  V30 311 C 31.2741 3.24596 -0.974195 0
M  V30 312 C 30.4471 3.80111 -2.16413 0
M  V30 313 C 29.5061 4.93832 -1.81703 0
M  V30 314 O 28.5321 5.09382 -2.54006 0
M  V30 315 N 29.7341 5.75483 -0.761573 0
M  V30 316 H 32.4991 1.96991 -2.25864 0
M  V30 317 H 30.0601 0.950191 -1.31084 0
M  V30 318 H 32.0521 3.98193 -0.722828 0
M  V30 319 H 30.6221 3.12454 -0.0955527 0
M  V30 320 H 29.8421 2.98284 -2.57721 0
M  V30 321 H 31.1301 4.13932 -2.95867 0
M  V30 322 H 30.5281 5.65469 -0.161609 0
M  V30 323 H 29.0851 6.49302 -0.570064 0
M  V30 324 N 32.5182 1.22032 0.997298 0
M  V30 325 C 33.9292 1.0397 1.55071 0
M  V30 326 C 34.2802 -0.398192 1.92117 0
M  V30 327 O 33.4052 -1.28254 1.74298 0
M  V30 328 C 34.0002 1.88109 2.81781 0
M  V30 329 C 32.5592 1.74357 3.33581 0
M  V30 330 C 31.7062 1.84846 2.06706 0
M  V30 331 H 34.6572 1.35941 0.818883 0
M  V30 332 H 34.6782 1.39589 3.53971 0
M  V30 333 H 34.1902 2.92754 2.54787 0
M  V30 334 H 32.2912 0.72427 3.65493 0
M  V30 335 H 32.4042 2.56772 4.04481 0
M  V30 336 H 30.7682 1.28238 2.20062 0
M  V30 337 H 31.5512 2.91014 1.82114 0
M  V30 338 N 33.9963 -1.19345 1.0293 0
M  V30 339 C 35.2423 -1.89318 0.727083 0
M  V30 340 C 35.5753 -1.79446 -0.742483 0
M  V30 341 O 34.8503 -1.1871 -1.54072 0
M  V30 342 C 35.1333 -3.40238 1.17942 0
M  V30 343 C 34.9863 -3.58979 2.71024 0
M  V30 344 C 36.3053 -4.33479 0.760548 0
M  V30 345 H 33.4243 -0.687475 0.265606 0
M  V30 346 H 36.0663 -1.40477 1.2793 0
M  V30 347 H 34.2163 -3.81964 0.709608 0
M  V30 348 H 35.8883 -3.26421 3.25955 0
M  V30 349 H 34.1313 -3.02018 3.11396 0
M  V30 350 H 34.8023 -4.64823 2.9773 0
M  V30 351 H 37.2783 -3.99469 1.16464 0
M  V30 352 H 36.1543 -5.37664 1.10493 0
M  V30 353 H 36.4153 -4.40813 -0.337063 0
M  V30 354 N 35.4744 -0.807222 -1.35358 0
M  V30 355 C 36.8904 -0.491038 -1.51858 0
M  V30 356 C 37.0904 0.987648 -1.75635 0
M  V30 357 O 36.1464 1.77265 -1.79815 0
M  V30 358 C 37.4594 -1.33695 -2.69344 0
M  V30 359 C 39.0074 -1.33246 -2.83222 0
M  V30 360 C 39.4824 -2.1625 -4.03733 0
M  V30 361 N 40.9734 -2.1379 -4.10911 0
M  V30 362 C 41.7084 -2.74772 -5.03277 0
M  V30 363 N 41.2044 -3.44684 -6.0097 0
M  V30 364 N 42.9974 -2.6441 -4.96028 0
M  V30 365 H 35.1484 -1.76485 -1.18181 0
M  V30 366 H 37.4114 -0.751199 -0.578276 0
M  V30 367 H 37.1174 -2.38634 -2.58354 0
M  V30 368 H 36.9914 -0.990618 -3.6396 0
M  V30 369 H 39.3784 -0.290911 -2.93663 0
M  V30 370 H 39.4594 -1.71866 -1.89461 0
M  V30 371 H 39.1034 -3.20445 -3.94052 0
M  V30 372 H 39.0334 -1.74989 -4.96675 0
M  V30 373 H 41.5244 -1.62923 -3.40976 0
M  V30 374 H 41.8374 -3.88501 -6.68047 0
M  V30 375 H 40.1824 -3.48788 -6.01142 0
M  V30 376 H 43.3734 -2.0938 -4.18662 0
M  V30 377 H 43.5464 -3.12225 -5.6782 0
M  V30 378 N 36.9525 1.47285 -0.560781 0
M  V30 379 C 37.9005 2.31756 0.197942 0
M  V30 380 C 38.8945 1.43146 0.905854 0
M  V30 381 O 40.1005 1.59891 0.826733 0
M  V30 382 H 36.4755 0.747438 0.0827049 0
M  V30 383 H 38.4465 2.9359 -0.533629 0
M  V30 384 C 37.1955 3.25874 1.21249 0
M  V30 385 H 36.5185 3.94023 0.67719 0
M  V30 386 H 37.9585 3.87803 1.71419 0
M  V30 387 C 36.4175 2.49651 2.26221 0
M  V30 388 O 36.9475 2.24355 3.33208 0
M  V30 389 N 35.1535 2.10597 2.00243 0
M  V30 390 H 34.7005 2.31369 1.13252 0
M  V30 391 H 34.6585 1.59913 2.70694 0
M  V30 392 N 38.4306 0.297415 1.54768 0
M  V30 393 C 39.6586 -0.315623 2.04478 0
M  V30 394 C 40.0736 -1.47792 1.17486 0
M  V30 395 O 39.4306 -1.81404 0.19971 0
M  V30 396 C 39.4816 -0.7753 3.53088 0
M  V30 397 O 39.2026 0.340732 4.36773 0
M  V30 398 C 40.7036 -1.45386 4.18781 0
M  V30 399 H 37.9236 -0.0690887 0.667434 0
M  V30 400 H 40.4676 0.436003 1.99798 0
M  V30 401 H 38.6226 -1.47696 3.58141 0
M  V30 402 H 39.0366 -0.0165035 5.24497 0
M  V30 403 H 40.5106 -1.72669 5.24299 0
M  V30 404 H 40.9876 -2.39275 3.68299 0
M  V30 405 H 41.5936 -0.795475 4.17795 0
M  V30 406 N 39.9087 -1.5758 0.0250728 0
M  V30 407 C 40.8187 -2.1343 -0.973905 0
M  V30 408 C 41.8347 -1.08556 -1.35984 0
M  V30 409 O 43.0107 -1.40592 -1.44207 0
M  V30 410 C 40.0757 -2.64703 -2.23904 0
M  V30 411 C 39.1367 -3.84276 -1.91391 0
M  V30 412 C 38.3697 -4.33095 -3.11873 0
M  V30 413 O 38.5927 -3.81107 -4.24398 0
M  V30 414 O 37.5267 -5.24984 -2.94406 0
M  V30 415 H 41.3527 -2.99057 -0.529036 0
M  V30 416 H 38.9377 -1.48118 -0.195288 0
M  V30 417 H 40.8197 -2.97769 -2.98181 0
M  V30 418 H 39.4947 -1.82161 -2.6758 0
M  V30 419 H 38.4017 -3.56143 -1.14511 0
M  V30 420 H 39.7347 -4.67968 -1.52534 0
M  V30 421 N 41.3868 0.248026 -1.55636 0
M  V30 422 C 42.8028 0.596483 -1.48035 0
M  V30 423 C 43.0028 1.88386 -0.715039 0
M  V30 424 O 42.0588 2.51319 -0.243944 0
M  V30 425 C 43.3718 0.700258 -2.92433 0
M  V30 426 C 44.9198 0.792659 -3.02797 0
M  V30 427 C 45.3948 0.928005 -4.485 0
M  V30 428 N 46.8858 0.992903 -4.52433 0
M  V30 429 C 47.6208 1.11687 -5.62418 0
M  V30 430 N 47.1168 1.20645 -6.82214 0
M  V30 431 N 48.9098 1.14994 -5.50212 0
M  V30 432 H 41.0608 -0.597109 -2.03834 0
M  V30 433 H 43.3238 -0.205925 -0.925364 0
M  V30 434 H 43.0298 -0.175658 -3.51261 0
M  V30 435 H 42.9038 1.57255 -3.42857 0
M  V30 436 H 45.2908 1.65903 -2.4405 0
M  V30 437 H 45.3718 -0.104762 -2.55585 0
M  V30 438 H 45.0158 0.0661971 -5.07857 0
M  V30 439 H 44.9458 1.84045 -4.93391 0
M  V30 440 H 47.4368 0.935064 -3.66149 0
M  V30 441 H 47.7498 1.30008 -7.61786 0
M  V30 442 H 46.0948 1.17605 -6.84977 0
M  V30 443 H 49.2858 1.07643 -4.55555 0
M  V30 444 H 49.4588 1.24311 -6.35965 0
M  V30 445 N 42.8649 1.48995 0.513639 0
M  V30 446 C 44.0929 1.61531 1.29288 0
M  V30 447 C 44.5079 0.281801 1.86685 0
M  V30 448 O 43.8649 -0.731111 1.67215 0
M  V30 449 C 43.9159 2.67449 2.43215 0
M  V30 450 O 43.6369 3.95626 1.88179 0
M  V30 451 C 45.1379 2.90575 3.34785 0
M  V30 452 H 42.3579 0.544165 0.392588 0
M  V30 453 H 44.9019 1.9494 0.617956 0
M  V30 454 H 43.0569 2.36853 3.0656 0
M  V30 455 H 43.4709 4.53868 2.62876 0
M  V30 456 H 44.9449 3.68449 4.11035 0
M  V30 457 H 45.4219 2.00011 3.91015 0
M  V30 458 H 46.0279 3.22538 2.77218 0
M  V30 459 N 44.343 -0.763751 1.37857 0
M  V30 460 C 45.592 -1.51789 1.32827 0
M  V30 461 C 45.905 -1.95426 -0.0823719 0
M  V30 462 O 47.111 -2.70298 -0.255172 0
M  V30 463 C 45.567 -2.74133 2.33193 0
M  V30 464 C 45.175 -2.37562 3.79827 0
M  V30 465 C 46.919 -3.52054 2.37188 0
M  V30 466 C 44.826 -3.56456 4.71904 0
M  V30 467 H 43.756 -0.569896 0.493695 0
M  V30 468 H 46.407 -0.835822 1.63359 0
M  V30 469 H 44.789 -3.4427 1.9569 0
M  V30 470 H 45.963 -1.75157 4.26212 0
M  V30 471 H 44.278 -1.72798 3.78853 0
M  V30 472 H 46.875 -4.40437 3.03182 0
M  V30 473 H 47.218 -3.92486 1.38782 0
M  V30 474 H 47.751 -2.88921 2.7344 0
M  V30 475 H 44.49 -3.21099 5.71468 0
M  V30 476 H 44.01 -4.17938 4.30218 0
M  V30 477 H 45.689 -4.23168 4.89426 0
M  V30 478 N 45.8211 -1.22559 -0.990812 0
M  V30 479 C 47.0511 -1.07623 -1.76355 0
M  V30 480 C 47.4591 0.37601 -1.85426 0
M  V30 481 O 46.8021 1.27228 -1.32509 0
M  V30 482 C 46.8641 -1.61507 -3.21179 0
M  V30 483 C 46.5281 -3.10146 -3.35646 0
M  V30 484 C 47.5251 -4.07553 -3.22796 0
M  V30 485 C 45.2101 -3.49644 -3.60631 0
M  V30 486 C 47.2041 -5.42442 -3.34716 0
M  V30 487 C 44.8911 -4.84682 -3.72192 0
M  V30 488 C 45.8891 -5.8089 -3.59243 0
M  V30 489 O 45.5771 -7.13476 -3.70415 0
M  V30 490 H 45.3091 -0.377745 -0.560611 0
M  V30 491 H 47.8631 -1.62658 -1.25425 0
M  V30 492 H 46.0931 -1.00881 -3.73309 0
M  V30 493 H 47.7821 -1.42202 -3.80175 0
M  V30 494 H 48.5481 -3.78381 -3.03403 0
M  V30 495 H 44.4271 -2.75282 -3.69785 0
M  V30 496 H 47.9711 -6.17518 -3.24526 0
M  V30 497 H 43.8681 -5.13534 -3.91092 0
M  V30 498 H 44.6361 -7.21083 -3.87275 0
M  V30 499 N 47.2992 1.18797 -1.03562 0
M  V30 500 C 48.5452 1.8893 -0.737113 0
M  V30 501 C 48.8782 1.79837 0.732956 0
M  V30 502 O 48.1532 1.19525 1.5344 0
M  V30 503 C 48.4362 3.39607 -1.19745 0
M  V30 504 C 48.2892 3.57537 -2.72924 0
M  V30 505 C 49.6082 4.33069 -0.783526 0
M  V30 506 H 46.7272 0.686057 -0.269249 0
M  V30 507 H 49.3692 1.39797 -1.28673 0
M  V30 508 H 47.5192 3.81583 -0.729855 0
M  V30 509 H 49.1912 3.24688 -3.27682 0
M  V30 510 H 47.4342 3.00363 -3.12993 0
M  V30 511 H 48.1052 4.63238 -3.00191 0
M  V30 512 H 50.5812 3.98846 -1.18581 0
M  V30 513 H 49.4572 5.3707 -1.13343 0
M  V30 514 H 49.7182 4.40986 0.313681 0
M  V30 515 N 48.7773 0.814389 1.34928 0
M  V30 516 C 50.1933 0.499084 1.51596 0
M  V30 517 C 50.3933 -0.978319 1.76157 0
M  V30 518 O 49.4493 -1.76309 1.80752 0
M  V30 519 C 50.7623 1.35121 2.68631 0
M  V30 520 C 52.3103 1.34746 2.82511 0
M  V30 521 C 52.7853 2.18388 4.0258 0
M  V30 522 N 54.2763 2.15966 4.09772 0
M  V30 523 C 55.0113 2.77437 5.01813 0
M  V30 524 N 54.5073 3.47866 5.99134 0
M  V30 525 N 56.3003 2.67037 4.94619 0
M  V30 526 H 48.4513 1.7711 1.17243 0
M  V30 527 H 50.7143 0.754256 0.574284 0
M  V30 528 H 50.4203 2.40001 2.57085 0
M  V30 529 H 50.2943 1.00991 3.63429 0
M  V30 530 H 52.6813 0.30648 2.93504 0
M  V30 531 H 52.7623 1.72869 1.88547 0
M  V30 532 H 52.4063 3.2253 3.92347 0
M  V30 533 H 52.3363 1.77621 4.9574 0
M  V30 534 H 54.8273 1.64729 3.40107 0
M  V30 535 H 55.1403 3.92038 6.65977 0
M  V30 536 H 53.4853 3.51972 5.99284 0
M  V30 537 H 56.6763 2.11597 4.17546 0
M  V30 538 H 56.8493 3.15232 5.66156 0
M  V30 539 N 50.2554 -1.46986 0.568584 0
M  V30 540 C 51.5324 -1.95592 -0.0174074 0
M  V30 541 C 51.9124 -1.51124 -1.47393 0
M  V30 542 O 51.2604 -0.755329 -2.15655 0
M  V30 543 C 51.4704 -3.48719 0.139913 0
M  V30 544 C 52.8184 -4.246 0.000426376 0
M  V30 545 O 53.8424 -3.56135 0.0680316 0
M  V30 546 O 52.7014 -5.46302 -0.146988 0
M  V30 547 H 49.7954 -0.82498 -0.0577599 0
M  V30 548 H 52.3414 -1.57335 0.635909 0
M  V30 549 H 51.1134 -3.73927 1.15301 0
M  V30 550 H 50.7364 -3.93771 -0.550491 0
M  V30 551 N 51.7335 -0.305618 -1.54608 0
M  V30 552 C 53.1445 0.186098 -1.8577 0
M  V30 553 C 53.4955 1.53058 -1.22751 0
M  V30 554 O 52.6205 2.09888 -0.526893 0
M  V30 555 C 53.2155 0.344449 -3.37044 0
M  V30 556 C 51.7745 0.780384 -3.68221 0
M  V30 557 C 50.9215 -0.108554 -2.77087 0
M  V30 558 H 53.8725 -0.526485 -1.49712 0
M  V30 559 H 53.8935 1.17828 -3.61796 0
M  V30 560 H 53.4055 -0.634235 -3.82883 0
M  V30 561 H 51.5065 1.76945 -3.27904 0
M  V30 562 H 51.6195 0.596572 -4.75371 0
M  V30 563 H 49.9835 0.412931 -2.5133 0
M  V30 564 H 50.7665 -1.08368 -3.25747 0
M  V30 565 N 53.2116 1.57565 -0.0334293 0
M  V30 566 C 54.4396 1.9628 0.654347 0
M  V30 567 C 54.8546 0.910138 1.65414 0
M  V30 568 O 54.2116 -0.107595 1.82183 0
M  V30 569 C 54.2626 3.35067 1.35693 0
M  V30 570 O 53.9836 4.36296 0.397191 0
M  V30 571 C 55.4846 3.88439 2.13613 0
M  V30 572 H 52.7046 0.646369 0.180132 0
M  V30 573 H 55.2486 2.04282 -0.0944721 0
M  V30 574 H 53.4036 3.2827 2.05712 0
M  V30 575 H 53.8176 5.1678 0.896597 0
M  V30 576 H 55.2916 4.8788 2.58219 0
M  V30 577 H 55.7686 3.22914 2.97696 0
M  V30 578 H 56.3746 3.98516 1.48543 0
M  V30 579 N 54.6897 -0.239769 1.55765 0
M  V30 580 C 55.9147 -0.988373 1.82335 0
M  V30 581 C 56.3397 -1.77886 0.611421 0
M  V30 582 O 55.6977 -1.75889 -0.439639 0
M  V30 583 C 55.7457 -1.89627 3.06715 0
M  V30 584 O 54.8497 -2.98904 2.84131 0
M  V30 585 H 54.1907 -0.280858 0.601677 0
M  V30 586 H 56.7207 -0.258597 2.02959 0
M  V30 587 H 56.7307 -2.30957 3.36338 0
M  V30 588 H 55.4057 -1.31511 3.9456 0
M  V30 589 H 53.9827 -2.61651 2.65694 0
M  V30 590 N 56.1678 -1.49265 -0.50573 0
M  V30 591 C 57.1158 -1.66065 -1.62866 0
M  V30 592 C 58.1098 -0.526636 -1.61006 0
M  V30 593 O 59.3158 -0.706126 -1.65571 0
M  V30 594 H 55.6908 -0.52356 -0.539805 0
M  V30 595 H 57.6618 -2.60329 -1.45848 0
M  V30 596 C 56.4108 -1.74008 -3.01026 0
M  V30 597 H 55.7338 -2.6064 -3.03161 0
M  V30 598 H 57.1738 -1.89798 -3.79147 0
M  V30 599 C 55.6328 -0.483868 -3.33407 0
M  V30 600 O 56.1628 0.392548 -3.99777 0
M  V30 601 N 54.3688 -0.348236 -2.88506 0
M  V30 602 H 53.9158 -1.06242 -2.34671 0
M  V30 603 H 53.8738 0.491204 -3.10539 0
M  V30 604 N 57.6459 0.756429 -1.3826 0
M  V30 605 C 58.5929 1.87011 -1.35261 0
M  V30 606 C 59.5629 1.64695 -0.215616 0
M  V30 607 O 60.7479 1.864 -0.407399 0
M  V30 608 C 57.8879 3.24275 -1.18068 0
M  V30 609 C 57.0009 3.58442 -2.41129 0
M  V30 610 C 56.1359 4.84994 -2.16689 0
M  V30 611 C 55.1749 5.11939 -3.35537 0
M  V30 612 N 54.3119 6.29685 -3.10549 0
M  V30 613 H 59.1519 1.8891 -2.30472 0
M  V30 614 H 56.6889 0.923373 -1.14509 0
M  V30 615 H 58.6469 4.03479 -1.06116 0
M  V30 616 H 57.2769 3.21711 -0.264973 0
M  V30 617 H 56.3289 2.74103 -2.63764 0
M  V30 618 H 57.6409 3.74283 -3.29717 0
M  V30 619 H 56.7949 5.72135 -2.01857 0
M  V30 620 H 55.5339 4.71286 -1.25462 0
M  V30 621 H 54.5389 4.23268 -3.50891 0
M  V30 622 H 55.7639 5.27546 -4.27635 0
M  V30 623 H 53.7099 6.17306 -2.21967 0
M  V30 624 H 53.6269 6.46014 -3.92686 0
M  V30 625 H 54.8949 7.19722 -2.99367 0
M  V30 626 N 59.124 1.23083 0.984299 0
M  V30 627 C 60.056 0.96636 2.07832 0
M  V30 628 C 61.069 -0.0582135 1.62696 0
M  V30 629 O 62.258 0.176843 1.77622 0
M  V30 630 C 59.358 0.433397 3.36117 0
M  V30 631 C 58.531 1.51722 4.10243 0
M  V30 632 C 57.59 0.989821 5.16807 0
M  V30 633 O 56.616 1.67794 5.43906 0
M  V30 634 N 57.818 -0.184367 5.80207 0
M  V30 635 H 60.583 1.90824 2.31098 0
M  V30 636 H 58.144 1.13888 1.1507 0
M  V30 637 H 60.136 0.065699 4.04647 0
M  V30 638 H 58.706 -0.413806 3.09849 0
M  V30 639 H 57.926 2.05786 3.36223 0
M  V30 640 H 59.214 2.24619 4.56534 0
M  V30 641 H 58.612 -0.760062 5.60571 0
M  V30 642 H 57.169 -0.493366 6.4993 0
M  V30 643 N 60.6021 -1.18246 1.0419 0
M  V30 644 C 61.5341 -2.2142 0.592088 0
M  V30 645 C 62.5471 -1.59233 -0.338909 0
M  V30 646 O 63.7361 -1.78002 -0.133231 0
M  V30 647 C 60.8361 -3.38546 -0.154854 0
M  V30 648 C 60.0091 -4.3031 0.784328 0
M  V30 649 C 59.0681 -5.26138 0.0804583 0
M  V30 650 O 58.0941 -5.64738 0.711292 0
M  V30 651 N 59.2961 -5.68261 -1.18574 0
M  V30 652 H 62.0611 -2.60636 1.47949 0
M  V30 653 H 59.6221 -1.33044 0.922544 0
M  V30 654 H 61.6141 -3.99678 -0.635606 0
M  V30 655 H 60.1841 -2.98012 -0.943811 0
M  V30 656 H 59.4041 -3.66764 1.44491 0
M  V30 657 H 60.6921 -4.8852 1.42218 0
M  V30 658 H 60.0901 -5.38957 -1.71876 0
M  V30 659 H 58.6471 -6.31584 -1.61074 0
M  V30 660 N 62.0802 -0.821533 -1.34494 0
M  V30 661 C 63.4962 -0.507117 -1.51329 0
M  V30 662 C 63.6962 0.968964 -1.76673 0
M  V30 663 O 62.7522 1.75348 -1.81685 0
M  V30 664 C 64.0652 -1.36544 -2.67911 0
M  V30 665 C 65.6132 -1.36242 -2.81793 0
M  V30 666 C 66.0882 -2.2052 -4.01416 0
M  V30 667 N 67.5792 -2.18136 -4.08621 0
M  V30 668 C 68.3142 -2.80095 -5.00334 0
M  V30 669 N 67.8102 -3.51039 -5.9728 0
M  V30 670 N 69.6032 -2.69656 -4.93196 0
M  V30 671 H 61.7542 -1.77729 -1.16302 0
M  V30 672 H 64.0172 -0.757291 -0.570276 0
M  V30 673 H 63.7232 -2.41361 -2.55808 0
M  V30 674 H 63.5972 -1.02917 -3.62888 0
M  V30 675 H 65.9842 -0.322041 -2.93338 0
M  V30 676 H 66.0652 -1.73866 -1.87628 0
M  V30 677 H 65.7092 -3.24607 -3.90631 0
M  V30 678 H 65.6392 -1.80247 -4.94791 0
M  V30 679 H 68.1302 -1.6653 -3.39229 0
M  V30 680 H 68.4432 -3.95565 -6.63889 0
M  V30 681 H 66.7882 -3.55145 -5.97409 0
M  V30 682 H 69.9792 -2.13808 -4.16418 0
M  V30 683 H 70.1522 -3.1823 -5.64476 0
M  V30 684 N 63.5583 1.46682 -0.576371 0
M  V30 685 C 64.9693 1.86112 -0.148091 0
M  V30 686 C 65.3203 1.48073 1.2872 0
M  V30 687 O 64.4453 0.892656 1.97131 0
M  V30 688 C 65.0403 3.37786 -0.261982 0
M  V30 689 C 63.5993 3.76235 0.111384 0
M  V30 690 C 62.7463 2.70713 -0.60083 0
M  V30 691 H 65.6973 1.37927 -0.78497 0
M  V30 692 H 65.7183 3.77007 0.514364 0
M  V30 693 H 65.2303 3.6544 -1.30671 0
M  V30 694 H 63.3313 3.54198 1.15649 0
M  V30 695 H 63.4443 4.78391 -0.26052 0
M  V30 696 H 61.8083 2.54666 -0.0417783 0
M  V30 697 H 62.5913 3.01208 -1.64708 0
M  V30 698 N 65.0364 0.313813 1.54444 0
M  V30 699 C 66.2824 -0.292108 2.00685 0
M  V30 700 C 66.6154 -1.52548 1.20177 0
M  V30 701 O 65.8904 -1.92452 0.281531 0
M  V30 702 C 66.1734 -0.635968 3.5444 0
M  V30 703 C 66.0264 0.607437 4.4568 0
M  V30 704 C 67.3454 -1.45747 4.15266 0
M  V30 705 H 64.4644 -0.104697 0.729526 0
M  V30 706 H 67.1064 0.428457 1.85106 0
M  V30 707 H 65.2564 -1.24986 3.67846 0
M  V30 708 H 66.9284 1.24581 4.44159 0
M  V30 709 H 65.1714 1.23822 4.15753 0
M  V30 710 H 65.8424 0.322515 5.51057 0
M  V30 711 H 68.3184 -0.938645 4.05375 0
M  V30 712 H 67.1944 -1.66683 5.2298 0
M  V30 713 H 67.4554 -2.45063 3.67963 0
M  V30 714 N 66.5145 -1.57545 0.0417849 0
M  V30 715 C 67.9255 -1.80011 -0.495259 0
M  V30 716 C 68.2765 -0.953199 -1.71489 0
M  V30 717 O 67.4015 -0.167138 -2.15754 0
M  V30 718 C 67.9965 -3.26482 -0.905265 0
M  V30 719 C 66.5555 -3.499 -1.38734 0
M  V30 720 C 65.7025 -2.74979 -0.358056 0
M  V30 721 H 68.6535 -1.56425 0.267736 0
M  V30 722 H 68.6745 -3.36887 -1.76882 0
M  V30 723 H 68.1865 -3.88096 -0.017401 0
M  V30 724 H 66.2875 -2.93553 -2.29471 0
M  V30 725 H 66.4005 -4.58615 -1.38598 0
M  V30 726 H 64.7645 -2.40834 -0.828912 0
M  V30 727 H 65.5475 -3.39315 0.521561 0
M  V30 728 N 67.9926 0.231505 -1.5589 0
M  V30 729 C 68.9026 1.308 -1.94752 0
M  V30 730 C 69.9186 1.51826 -0.849989 0
M  V30 731 O 71.0946 1.6515 -1.15271 0
M  V30 732 C 68.1596 2.63968 -2.24771 0
M  V30 733 C 67.2206 2.51331 -3.48039 0
M  V30 734 C 66.4536 3.78148 -3.76616 0
M  V30 735 O 66.6766 4.80722 -3.07022 0
M  V30 736 O 65.6106 3.75857 -4.70123 0
M  V30 737 H 69.4366 1.0083 -2.86474 0
M  V30 738 H 67.0216 0.433547 -1.42971 0
M  V30 739 H 68.9036 3.42633 -2.45318 0
M  V30 740 H 67.5786 2.9364 -1.36225 0
M  V30 741 H 66.4856 1.709 -3.32782 0
M  V30 742 H 67.8186 2.26601 -4.36936 0
M  V30 743 N 69.4707 1.49531 0.497807 0
M  V30 744 C 70.6957 1.63159 1.28039 0
M  V30 745 C 71.1207 0.30418 1.85624 0
M  V30 746 O 70.4787 -0.728618 1.66015 0
M  V30 747 C 70.5267 2.70537 2.38416 0
M  V30 748 O 69.6307 2.29931 3.42353 0
M  V30 749 H 68.9717 0.546001 0.377861 0
M  V30 750 H 71.5017 1.9574 0.59558 0
M  V30 751 H 71.5117 2.92802 2.84132 0
M  V30 752 H 70.1867 3.6689 1.95869 0
M  V30 753 H 68.7637 2.18009 3.02533 0
M  V30 754 N 70.9488 -0.749086 1.3866 0
M  V30 755 C 71.8808 -1.87273 1.32142 0
M  V30 756 C 72.8938 -1.61127 0.232787 0
M  V30 757 O 74.0828 -1.71623 0.49069 0
M  V30 758 C 71.1828 -3.23005 1.02571 0
M  V30 759 C 70.3558 -3.7662 2.22433 0
M  V30 760 C 69.4148 -4.90879 1.89537 0
M  V30 761 O 68.4408 -5.05276 2.62078 0
M  V30 762 N 69.6428 -5.74198 0.853031 0
M  V30 763 H 72.4078 -1.93373 2.28969 0
M  V30 764 H 69.9688 -0.929216 1.32579 0
M  V30 765 H 71.9608 -3.96992 0.786085 0
M  V30 766 H 70.5308 -3.12262 0.145249 0
M  V30 767 H 69.7508 -2.94147 2.62434 0
M  V30 768 H 71.0388 -4.09173 3.02415 0
M  V30 769 H 70.4368 -5.6514 0.25155 0
M  V30 770 H 68.9938 -6.48313 0.67329 0
M  V30 771 N 72.4269 -1.23603 -0.977757 0
M  V30 772 C 73.3569 -1.04401 -2.0886 0
M  V30 773 C 74.3379 0.0399052 -1.70053 0
M  V30 774 O 75.5229 -0.125246 -1.93796 0
M  V30 775 C 72.6529 -0.637269 -3.41403 0
M  V30 776 C 71.6069 -1.66883 -3.94124 0
M  V30 777 C 70.9329 -1.11745 -5.22893 0
M  V30 778 C 72.2329 -3.06247 -4.23096 0
M  V30 779 H 73.9269 -1.97316 -2.25182 0
M  V30 780 H 71.4729 -0.950096 -1.08209 0
M  V30 781 H 73.4259 -0.48998 -4.18542 0
M  V30 782 H 72.1499 0.327557 -3.24953 0
M  V30 783 H 70.8089 -1.80416 -3.19133 0
M  V30 784 H 70.4569 -0.143527 -5.02795 0
M  V30 785 H 70.1569 -1.80672 -5.59134 0
M  V30 786 H 71.6809 -0.982067 -6.02651 0
M  V30 787 H 73.0949 -2.96001 -4.90975 0
M  V30 788 H 71.4919 -3.72436 -4.70544 0
M  V30 789 H 72.5619 -3.55041 -3.30263 0
M  V30 790 N 73.905 1.17692 -1.04816 0
M  V30 791 C 74.835 2.23777 -0.666791 0
M  V30 792 C 75.816 1.66796 0.33361 0
M  V30 793 O 77.001 1.93039 0.212042 0
M  V30 794 C 74.131 3.47281 -0.0367933 0
M  V30 795 C 73.085 4.17059 -0.961546 0
M  V30 796 C 72.411 5.34342 -0.195626 0
M  V30 797 C 73.711 4.69713 -2.28402 0
M  V30 798 H 75.405 2.55933 -1.55367 0
M  V30 799 H 72.951 1.23019 -0.748484 0
M  V30 800 H 74.904 4.20706 0.241775 0
M  V30 801 H 73.628 3.14381 0.885004 0
M  V30 802 H 72.287 3.45541 -1.22462 0
M  V30 803 H 71.935 4.97692 0.728816 0
M  V30 804 H 71.635 5.81966 -0.811775 0
M  V30 805 H 73.159 6.10553 0.0757473 0
M  V30 806 H 74.573 5.34794 -2.06563 0
M  V30 807 H 72.97 5.279 -2.8538 0
M  V30 808 H 74.04 3.86726 -2.92525 0
M  V30 809 N 75.3831 0.828654 1.34056 0
M  V30 810 C 76.7941 0.477534 1.8049 0
M  V30 811 C 77.1451 -1.00258 1.6865 0
M  V30 812 O 76.2701 -1.78057 1.22982 0
M  V30 813 C 76.8651 0.860018 3.27703 0
M  V30 814 C 75.4241 0.561185 3.72193 0
M  V30 815 C 74.5711 1.07385 2.55663 0
M  V30 816 H 77.5221 1.0183 1.21722 0
M  V30 817 H 77.5431 0.166038 3.80138 0
M  V30 818 H 77.0551 1.93731 3.36288 0
M  V30 819 H 75.1561 -0.506465 3.69142 0
M  V30 820 H 75.2691 1.10926 4.66082 0
M  V30 821 H 73.6331 0.495149 2.49841 0
M  V30 822 H 74.4161 2.15771 2.67016 0
M  V30 823 N 76.8612 -1.46375 0.584142 0
M  V30 824 C 78.1092 -2.01978 0.0701287 0
M  V30 825 C 78.4302 -1.4579 -1.295 0
M  V30 826 O 77.7002 -0.64314 -1.85042 0
M  V30 827 H 76.2802 -0.746648 0.0229345 0
M  V30 828 H 78.9422 -1.79461 0.760245 0
M  V30 829 H 78.0382 -3.121 0.0022064 0
M  V30 830 N 78.3393 -0.321999 -1.54275 0
M  V30 831 C 79.2713 0.578671 -2.21775 0
M  V30 832 C 80.2843 1.08109 -1.21722 0
M  V30 833 O 81.4733 0.994938 -1.482 0
M  V30 834 C 78.5733 1.80661 -2.86731 0
M  V30 835 C 77.7463 1.44314 -4.12907 0
M  V30 836 C 76.8053 2.52845 -4.61472 0
M  V30 837 O 75.8313 2.17054 -5.2619 0
M  V30 838 N 77.0333 3.83748 -4.35566 0
M  V30 839 H 79.7983 0.000709447 -2.997 0
M  V30 840 H 77.3593 -0.145132 -1.61248 0
M  V30 841 H 79.3513 2.52655 -3.16145 0
M  V30 842 H 77.9213 2.29245 -2.12521 0
M  V30 843 H 77.1413 0.554906 -3.90275 0
M  V30 844 H 78.4293 1.17598 -4.95023 0
M  V30 845 H 77.8273 4.15625 -3.83761 0
M  V30 846 H 76.3843 4.51977 -4.69638 0
M  V30 847 N 79.8174 1.5752 -0.0501392 0
M  V30 848 C 81.2334 1.56631 0.306402 0
M  V30 849 C 81.4334 1.0577 1.71508 0
M  V30 850 O 80.4894 0.713837 2.422 0
M  V30 851 C 81.8024 3.00393 0.135811 0
M  V30 852 C 83.3504 3.12315 0.206993 0
M  V30 853 C 83.8254 4.57954 0.064944 0
M  V30 854 N 85.3164 4.63041 0.121254 0
M  V30 855 C 86.0514 5.73389 0.0354381 0
M  V30 856 N 85.5474 6.92724 -0.102666 0
M  V30 857 N 87.3404 5.62026 0.090946 0
M  V30 858 H 79.4914 1.88903 -0.971046 0
M  V30 859 H 81.7544 0.869876 -0.376855 0
M  V30 860 H 81.4604 3.41635 -0.835384 0
M  V30 861 H 81.3344 3.66373 0.897275 0
M  V30 862 H 83.7214 2.70973 1.16866 0
M  V30 863 H 83.8024 2.49016 -0.585208 0
M  V30 864 H 83.4464 4.99981 -0.893394 0
M  V30 865 H 83.3764 5.19258 0.876277 0
M  V30 866 H 85.8674 3.77216 0.227284 0
M  V30 867 H 86.1804 7.72633 -0.160882 0
M  V30 868 H 84.5254 6.94864 -0.137737 0
M  V30 869 H 87.7164 4.67684 0.197388 0
M  V30 870 H 87.8894 6.47997 0.0206089 0
M  V30 871 N 81.2955 -0.223234 1.56011 0
M  V30 872 C 82.5425 -0.947875 1.78946 0
M  V30 873 C 82.8705 -1.844 0.618608 0
M  V30 874 O 82.1255 -1.91629 -0.397093 0
M  V30 875 C 82.4245 -1.81948 3.0762 0
M  V30 876 C 82.0905 -1.07672 4.37856 0
M  V30 877 C 80.7525 -0.871544 4.73242 0
M  V30 878 C 83.1045 -0.552081 5.18268 0
M  V30 879 C 80.4325 -0.129791 5.86556 0
M  V30 880 C 82.7845 0.17632 6.32354 0
M  V30 881 C 81.4485 0.39277 6.66343 0
M  V30 882 H 80.7185 -0.346852 0.654809 0
M  V30 883 H 83.3655 -0.216171 1.90276 0
M  V30 884 H 81.6705 -2.61899 2.91404 0
M  V30 885 H 83.3675 -2.38227 3.22566 0
M  V30 886 H 79.9575 -1.24662 4.1007 0
M  V30 887 H 84.1415 -0.698076 4.91366 0
M  V30 888 H 79.3975 0.048153 6.11381 0
M  V30 889 H 83.5715 0.590367 6.93893 0
M  V30 890 H 81.1985 0.969466 7.53993 0
M  V30 891 N 82.7736 -1.49793 -0.48987 0
M  V30 892 C 83.7056 -1.63413 -1.60713 0
M  V30 893 C 84.7186 -0.516329 -1.54395 0
M  V30 894 O 85.9076 -0.788812 -1.60125 0
M  V30 895 C 83.0076 -1.58516 -2.99543 0
M  V30 896 C 82.1806 -2.86016 -3.30928 0
M  V30 897 C 81.2396 -2.74018 -4.49222 0
M  V30 898 O 80.2656 -3.47964 -4.50455 0
M  V30 899 N 81.4676 -1.86309 -5.4979 0
M  V30 900 H 84.2326 -2.59777 -1.49452 0
M  V30 901 H 81.7936 -1.47022 -0.677955 0
M  V30 902 H 83.7856 -1.48128 -3.76617 0
M  V30 903 H 82.3556 -0.69965 -3.0467 0
M  V30 904 H 81.5756 -3.10672 -2.42645 0
M  V30 905 H 82.8636 -3.70521 -3.487 0
M  V30 906 H 82.2616 -1.2551 -5.51601 0
M  V30 907 H 80.8186 -1.81837 -6.25922 0
M  V30 908 N 84.2517 0.741722 -1.39055 0
M  V30 909 C 85.4797 1.53098 -1.39171 0
M  V30 910 C 85.8947 1.88794 0.0155099 0
M  V30 911 O 85.2517 1.53626 0.985159 0
M  V30 912 C 85.3027 2.82274 -2.2584 0
M  V30 913 O 85.0237 2.48097 -3.61081 0
M  V30 914 C 86.5247 3.76343 -2.34266 0
M  V30 915 H 83.7447 0.473335 -0.4756 0
M  V30 916 H 86.2887 0.917045 -1.82785 0
M  V30 917 H 84.4437 3.40015 -1.85656 0
M  V30 918 H 84.8577 3.31029 -4.06842 0
M  V30 919 H 86.3317 4.63898 -2.9917 0
M  V30 920 H 86.8087 4.17619 -1.35982 0
M  V30 921 H 87.4147 3.24523 -2.74891 0
M  V30 922 N 85.7298 1.2412 0.971189 0
M  V30 923 C 86.6768 1.0305 2.06517 0
M  V30 924 C 87.6468 -0.0550666 1.66009 0
M  V30 925 O 88.8318 0.0988688 1.90544 0
M  V30 926 C 85.9718 0.637653 3.39158 0
M  V30 927 C 85.0848 1.79633 3.92882 0
M  V30 928 C 84.2198 1.34939 5.13775 0
M  V30 929 C 83.2588 2.47823 5.59687 0
M  V30 930 N 82.3958 2.04022 6.71803 0
M  V30 931 H 87.2358 1.96685 2.23873 0
M  V30 932 H 84.7728 0.979694 1.09729 0
M  V30 933 H 86.7308 0.390931 4.15364 0
M  V30 934 H 85.3608 -0.261693 3.21737 0
M  V30 935 H 84.4128 2.15681 3.13346 0
M  V30 936 H 85.7248 2.64466 4.22918 0
M  V30 937 H 84.8788 1.06134 5.97345 0
M  V30 938 H 83.6178 0.471557 4.85415 0
M  V30 939 H 82.6228 2.77392 4.74693 0
M  V30 940 H 83.8478 3.36158 5.90063 0
M  V30 941 H 81.7938 1.18632 6.45184 0
M  V30 942 H 81.7108 2.82409 7.01271 0
M  V30 943 H 82.9788 1.78347 7.58823 0
M  V30 944 N 87.2079 -1.17134 1.05439 0
M  V30 945 C 88.4849 -1.83411 0.679699 0
M  V30 946 C 88.8649 -1.9368 -0.839726 0
M  V30 947 O 88.2129 -1.47325 -1.74664 0
M  V30 948 C 88.4229 -3.20918 1.37159 0
M  V30 949 C 89.7709 -3.96796 1.51123 0
M  V30 950 O 90.7949 -3.30406 1.3308 0
M  V30 951 O 89.6539 -5.15778 1.80651 0
M  V30 952 H 86.7479 -0.79154 0.239569 0
M  V30 953 H 89.2939 -1.24411 1.15413 0
M  V30 954 H 88.0659 -3.08428 2.40807 0
M  V30 955 H 87.6889 -3.87587 0.886674 0
M  V30 956 N 88.686 -0.835752 -1.33615 0
M  V30 957 C 90.097 -0.487099 -1.80234 0
M  V30 958 C 90.448 0.993627 -1.69179 0
M  V30 959 O 89.573 1.77403 -1.23924 0
M  V30 960 C 90.168 -0.877385 -3.27242 0
M  V30 961 C 88.727 -0.580915 -3.7189 0
M  V30 962 C 87.874 -1.0874 -2.5509 0
M  V30 963 H 90.825 -1.02474 -1.2118 0
M  V30 964 H 90.846 -0.186195 -3.80044 0
M  V30 965 H 90.358 -1.95512 -3.35256 0
M  V30 966 H 88.459 0.486881 -3.69405 0
M  V30 967 H 88.572 -1.13396 -4.65487 0
M  V30 968 H 86.936 -0.508392 -2.49575 0
M  V30 969 H 87.719 -2.17184 -2.65868 0
M  V30 970 N 90.1641 1.46063 -0.591896 0
M  V30 971 C 91.0741 2.34192 0.13831 0
M  V30 972 C 92.0901 1.50305 0.876608 0
M  V30 973 O 93.2661 1.8315 0.837728 0
M  V30 974 C 90.3311 3.27656 1.13326 0
M  V30 975 C 89.3921 4.27445 0.39863 0
M  V30 976 C 88.6251 5.16443 1.34618 0
M  V30 977 O 88.8481 5.08553 2.58321 0
M  V30 978 O 87.7821 5.95843 0.851768 0
M  V30 979 H 91.6081 2.98002 -0.58552 0
M  V30 980 H 89.1931 1.45188 -0.352239 0
M  V30 981 H 91.0751 3.85291 1.70671 0
M  V30 982 H 89.7501 2.6643 1.83839 0
M  V30 983 H 88.6571 3.73471 -0.216895 0
M  V30 984 H 89.9901 4.91482 -0.265709 0
M  V30 985 N 91.6422 0.330177 1.54103 0
M  V30 986 C 92.5522 -0.541534 2.28264 0
M  V30 987 C 93.5682 -1.12351 1.32866 0
M  V30 988 O 94.7442 -1.14206 1.65888 0
M  V30 989 C 91.8092 -1.68322 3.03098 0
M  V30 990 C 90.8702 -1.13238 4.14096 0
M  V30 991 C 90.1032 -2.21966 4.85352 0
M  V30 992 O 90.3262 -3.42437 4.56172 0
M  V30 993 O 89.2602 -1.87013 5.7211 0
M  V30 994 H 93.0862 0.060938 3.03639 0
M  V30 995 H 90.6712 0.09565 1.49093 0
M  V30 996 H 92.5532 -2.34777 3.49939 0
M  V30 997 H 91.2282 -2.27176 2.30593 0
M  V30 998 H 90.1352 -0.432736 3.71589 0
M  V30 999 H 91.4682 -0.588898 4.88664 0
M  V30 1000 N 93.1203 -1.57491 0.0584922 0
M  V30 1001 C 94.0523 -2.08916 -0.942694 0
M  V30 1002 C 95.0653 -1.0185 -1.27006 0
M  V30 1003 O 96.2543 -1.29398 -1.22957 0
M  V30 1004 C 93.3543 -2.52341 -2.26224 0
M  V30 1005 C 92.5273 -3.82827 -2.1157 0
M  V30 1006 C 91.5863 -4.12487 -3.26712 0
M  V30 1007 O 90.6123 -4.82295 -3.02292 0
M  V30 1008 N 91.8143 -3.64978 -4.5141 0
M  V30 1009 H 94.5793 -2.95437 -0.503722 0
M  V30 1010 H 92.1403 -1.61397 -0.12757 0
M  V30 1011 H 94.1323 -2.69254 -3.02133 0
M  V30 1012 H 92.7023 -1.7103 -2.61663 0
M  V30 1013 H 91.9223 -3.75425 -1.20208 0
M  V30 1014 H 93.2103 -4.68263 -1.99015 0
M  V30 1015 H 92.6083 -3.08558 -4.7414 0
M  V30 1016 H 91.1653 -3.87115 -5.2439 0
M  V30 1017 N 94.5984 0.214957 -1.56127 0
M  V30 1018 C 95.8464 0.936518 -1.79091 0
M  V30 1019 C 96.1674 1.84606 -0.628148 0
M  V30 1020 O 95.4374 1.92664 0.35462 0
M  V30 1021 H 94.0174 0.3488 -0.660566 0
M  V30 1022 H 96.6794 0.22523 -1.93594 0
M  V30 1023 H 95.7754 1.53943 -2.71492 0
M  V30 1024 N 96.0765 1.50051 0.48192 0
M  V30 1025 C 97.3535 1.51009 1.2432 0
M  V30 1026 C 97.7335 0.248587 2.09631 0
M  V30 1027 O 97.0815 -0.768409 2.15192 0
M  V30 1028 C 97.2915 2.79981 2.08355 0
M  V30 1029 C 98.6395 3.3022 2.66908 0
M  V30 1030 O 99.6635 2.81228 2.18607 0
M  V30 1031 O 98.5225 4.15595 3.54884 0
M  V30 1032 H 95.6165 0.605239 0.563573 0
M  V30 1033 H 98.1625 1.62332 0.494627 0
M  V30 1034 H 96.9345 3.63275 1.45419 0
M  V30 1035 H 96.5575 2.7161 2.90368 0
M  V30 1036 N 97.5546 -0.734337 1.39446 0
M  V30 1037 C 98.8036 -1.48937 1.36017 0
M  V30 1038 C 99.1166 -1.95557 -0.0409005 0
M  V30 1039 O 100.323 -2.70779 -0.19778 0
M  V30 1040 C 98.7786 -2.69125 2.38955 0
M  V30 1041 C 98.3866 -2.29452 3.8478 0
M  V30 1042 C 100.131 -3.46944 2.44603 0
M  V30 1043 C 98.0376 -3.46366 4.79358 0
M  V30 1044 H 96.9676 -0.559296 0.505672 0
M  V30 1045 H 99.6186 -0.800983 1.65095 0
M  V30 1046 H 98.0006 -3.40041 2.02948 0
M  V30 1047 H 99.1746 -1.66077 4.29831 0
M  V30 1048 H 97.4896 -1.64723 3.82433 0
M  V30 1049 H 100.087 -4.33907 3.12456 0
M  V30 1050 H 100.43 -3.89454 1.47076 0
M  V30 1051 H 100.963 -2.83056 2.79507 0
M  V30 1052 H 97.7016 -3.08905 5.78151 0
M  V30 1053 H 97.2216 -4.08719 4.38986 0
M  V30 1054 H 98.9006 -4.12691 4.98292 0
M  V30 1055 N 99.0327 -1.24633 -0.964593 0
M  V30 1056 C 100.279 -1.08949 -1.71049 0
M  V30 1057 C 100.612 0.370302 -1.90637 0
M  V30 1058 O 99.8867 1.27349 -1.47011 0
M  V30 1059 C 100.17 -1.83329 -3.0994 0
M  V30 1060 C 100.023 -3.37077 -2.97824 0
M  V30 1061 C 101.342 -1.60846 -4.09654 0
M  V30 1062 H 98.4607 -0.397178 -0.620821 0
M  V30 1063 H 101.103 -1.5334 -1.12191 0
M  V30 1064 H 99.2527 -1.45597 -3.60186 0
M  V30 1065 H 100.925 -3.84425 -2.5498 0
M  V30 1066 H 99.1677 -3.65298 -2.33965 0
M  V30 1067 H 99.8387 -3.84324 -3.96231 0
M  V30 1068 H 102.315 -1.93674 -3.68279 0
M  V30 1069 H 101.191 -2.1534 -5.04896 0
M  V30 1070 H 101.452 -0.547434 -4.38698 0
M  V30 1071 N 100.511 1.16574 -1.06058 0
M  V30 1072 C 101.757 1.87324 -0.777022 0
M  V30 1073 C 102.09 1.81351 0.694645 0
M  V30 1074 O 101.365 1.22753 1.50871 0
M  V30 1075 C 101.648 3.36991 -1.26922 0
M  V30 1076 C 101.501 3.51667 -2.80447 0
M  V30 1077 C 102.82 4.3131 -0.87521 0
M  V30 1078 H 99.9388 0.680191 -0.28374 0
M  V30 1079 H 102.581 1.37036 -1.3161 0
M  V30 1080 H 100.731 3.79949 -0.81063 0
M  V30 1081 H 102.403 3.17664 -3.34495 0
M  V30 1082 H 100.646 2.93656 -3.19294 0
M  V30 1083 H 101.317 4.56766 -3.0995 0
M  V30 1084 H 103.793 3.9624 -1.27014 0
M  V30 1085 H 102.669 5.34545 -1.2471 0
M  V30 1086 H 102.93 4.41552 0.220071 0
M  V30 1087 N 101.989 0.842826 1.3317 0
M  V30 1088 C 102.952 0.284065 2.27433 0
M  V30 1089 C 103.952 -0.54948 1.5112 0
M  V30 1090 O 105.142 -0.362699 1.70382 0
M  V30 1091 C 102.274 -0.599384 3.35589 0
M  V30 1092 H 103.467 1.11589 2.78366 0
M  V30 1093 H 101.02 0.616221 1.4364 0
M  V30 1094 H 101.755 -1.45349 2.89904 0
M  V30 1095 H 101.54 -0.00291266 3.921 0
M  V30 1096 H 103.03 -0.983488 4.05854 0
M  V30 1097 N 103.467 -1.45747 0.599634 0
M  V30 1098 C 104.397 -2.33235 -0.111306 0
M  V30 1099 C 105.378 -1.46359 -0.866781 0
M  V30 1100 O 106.563 -1.75146 -0.838904 0
M  V30 1101 C 103.693 -3.28932 -1.11451 0
M  V30 1102 C 102.647 -4.25381 -0.472772 0
M  V30 1103 C 101.973 -5.1071 -1.58365 0
M  V30 1104 C 103.273 -5.18831 0.600948 0
M  V30 1105 H 104.967 -2.92927 0.61919 0
M  V30 1106 H 102.513 -1.40857 0.299215 0
M  V30 1107 H 104.466 -3.89002 -1.62036 0
M  V30 1108 H 103.19 -2.67381 -1.8755 0
M  V30 1109 H 101.849 -3.66598 0.0121472 0
M  V30 1110 H 101.497 -4.45533 -2.33473 0
M  V30 1111 H 101.197 -5.7604 -1.15982 0
M  V30 1112 H 102.721 -5.73647 -2.09194 0
M  V30 1113 H 104.135 -5.73019 0.179491 0
M  V30 1114 H 102.532 -5.92595 0.946076 0
M  V30 1115 H 103.602 -4.6174 1.48068 0
M  V30 1116 N 104.945 -0.338344 -1.53925 0
M  V30 1117 C 106.175 0.260919 -2.04946 0
M  V30 1118 C 106.583 1.45174 -1.2133 0
M  V30 1119 O 105.926 1.82122 -0.240262 0
M  V30 1120 C 105.988 0.744596 -3.51704 0
M  V30 1121 C 105.652 -0.325883 -4.55837 0
M  V30 1122 C 106.649 -1.16687 -5.06636 0
M  V30 1123 C 104.334 -0.478317 -5.00017 0
M  V30 1124 C 106.328 -2.14588 -6.00192 0
M  V30 1125 C 104.015 -1.46073 -5.93385 0
M  V30 1126 C 105.013 -2.29297 -6.4336 0
M  V30 1127 O 104.701 -3.25867 -7.34892 0
M  V30 1128 H 104.433 0.0551207 -0.673749 0
M  V30 1129 H 106.987 -0.486984 -1.99544 0
M  V30 1130 H 105.217 1.54366 -3.54553 0
M  V30 1131 H 106.906 1.26383 -3.85723 0
M  V30 1132 H 107.672 -1.06016 -4.73271 0
M  V30 1133 H 103.551 0.159613 -4.60724 0
M  V30 1134 H 107.095 -2.79585 -6.39123 0
M  V30 1135 H 102.992 -1.56802 -6.26166 0
M  V30 1136 H 103.76 -3.21278 -7.5281 0
M  V30 1137 N 106.423 1.57458 -0.0668435 0
M  V30 1138 C 107.834 1.80776 0.466558 0
M  V30 1139 C 108.185 0.980361 1.69951 0
M  V30 1140 O 107.31 0.201441 2.1546 0
M  V30 1141 C 107.905 3.27881 0.85321 0
M  V30 1142 C 106.464 3.52062 1.3315 0
M  V30 1143 C 105.611 2.75513 0.314264 0
M  V30 1144 H 108.562 1.5598 -0.292588 0
M  V30 1145 H 108.583 3.39659 1.715 0
M  V30 1146 H 108.095 3.88075 -0.0443439 0
M  V30 1147 H 106.196 2.97167 2.24772 0
M  V30 1148 H 106.309 4.60762 1.31285 0
M  V30 1149 H 104.673 2.42123 0.790492 0
M  V30 1150 H 105.456 3.38442 -0.575477 0
M  V30 1151 N 107.901 -0.206675 1.56239 0
M  V30 1152 C 109.131 -0.943975 1.83773 0
M  V30 1153 C 109.539 -1.77841 0.645703 0
M  V30 1154 O 108.882 -1.79403 -0.395008 0
M  V30 1155 C 108.944 -1.899 3.05251 0
M  V30 1156 C 108.608 -1.24764 4.39639 0
M  V30 1157 C 109.605 -0.630216 5.16066 0
M  V30 1158 C 107.29 -1.25496 4.8637 0
M  V30 1159 C 109.284 -0.0287946 6.37393 0
M  V30 1160 C 106.971 -0.649698 6.07637 0
M  V30 1161 C 107.969 -0.0376845 6.8299 0
M  V30 1162 O 107.657 0.55812 8.0196 0
M  V30 1163 H 107.389 -0.281508 0.614597 0
M  V30 1164 H 109.943 -0.222458 2.04192 0
M  V30 1165 H 108.173 -2.6599 2.80689 0
M  V30 1166 H 109.862 -2.5031 3.1953 0
M  V30 1167 H 110.628 -0.616785 4.81062 0
M  V30 1168 H 106.507 -1.72072 4.27683 0
M  V30 1169 H 110.051 0.449518 6.9615 0
M  V30 1170 H 105.948 -0.660592 6.42111 0
M  V30 1171 H 106.716 0.453891 8.17241 0
M  V30 1172 N 109.379 -1.50304 -0.473955 0
M  V30 1173 C 110.656 -1.51667 -1.23518 0
M  V30 1174 C 111.036 -0.259701 -2.09496 0
M  V30 1175 O 110.384 0.756986 -2.15597 0
M  V30 1176 C 110.594 -2.81082 -2.06868 0
M  V30 1177 C 111.942 -3.31631 -2.65153 0
M  V30 1178 O 112.966 -2.82384 -2.17113 0
M  V30 1179 O 111.825 -4.17471 -3.52675 0
M  V30 1180 H 108.919 -0.60822 -0.560355 0
M  V30 1181 H 111.465 -1.62592 -0.486011 0
M  V30 1182 H 110.237 -3.64041 -1.4349 0
M  V30 1183 H 109.86 -2.73146 -2.88924 0
M  V30 1184 N 110.857 0.726932 -1.39834 0
M  V30 1185 C 112.105 1.4837 -1.37225 0
M  V30 1186 C 112.426 1.94979 0.0284857 0
M  V30 1187 O 111.696 1.69555 0.981213 0
M  V30 1188 H 110.276 0.55043 -0.505011 0
M  V30 1189 H 112.938 0.862468 -1.74778 0
M  V30 1190 H 112.034 2.36198 -2.04003 0
M  V30 1191 N 112.336 1.25143 0.95797 0
M  V30 1192 C 113.585 1.0909 1.69654 0
M  V30 1193 C 113.898 -0.368548 1.92097 0
M  V30 1194 O 115.104 -0.649455 2.63618 0
M  V30 1195 C 113.56 1.90395 3.05414 0
M  V30 1196 C 113.168 3.4081 2.90779 0
M  V30 1197 C 114.912 1.82901 3.83076 0
M  V30 1198 C 112.819 4.14423 4.21909 0
M  V30 1199 H 111.749 0.404625 0.636235 0
M  V30 1200 H 114.4 1.4931 1.06672 0
M  V30 1201 H 112.782 1.42996 3.69281 0
M  V30 1202 H 113.956 3.95859 2.35865 0
M  V30 1203 H 112.271 3.49361 2.26575 0
M  V30 1204 H 114.868 2.35196 4.80195 0
M  V30 1205 H 115.211 0.796224 4.08615 0
M  V30 1206 H 115.744 2.28033 3.25954 0
M  V30 1207 H 112.483 5.18102 4.01561 0
M  V30 1208 H 112.003 3.64159 4.76601 0
M  V30 1209 H 113.682 4.21956 4.90471 0
M  V30 1210 N 113.814 -1.1601 1.06675 0
M  V30 1211 C 114.764 -2.18512 0.650888 0
M  V30 1212 C 115.748 -1.57677 -0.320441 0
M  V30 1213 O 116.94 -1.76482 -0.135266 0
M  V30 1214 C 114.069 -3.43273 0.0429255 0
M  V30 1215 C 113.155 -4.11176 1.03898 0
M  V30 1216 N 113.546 -4.54672 2.216 0
M  V30 1217 C 111.844 -4.37417 0.870779 0
M  V30 1218 C 112.545 -5.07248 2.84736 0
M  V30 1219 N 111.521 -5.0037 2.12441 0
M  V30 1220 H 115.323 -2.49863 1.54745 0
M  V30 1221 H 112.837 -1.32503 0.938975 0
M  V30 1222 H 114.834 -4.16006 -0.272857 0
M  V30 1223 H 113.494 -3.13408 -0.84884 0
M  V30 1224 H 114.505 -4.4828 2.59356 0
M  V30 1225 H 111.182 -4.17488 0.0313293 0
M  V30 1226 H 112.572 -5.50912 3.84636 0
M  V30 1227 N 115.292 -0.849877 -1.32721 0
M  V30 1228 C 116.703 -0.506188 -1.79707 0
M  V30 1229 C 117.054 0.975627 -1.70223 0
M  V30 1230 O 116.179 1.76078 -1.25799 0
M  V30 1231 C 116.774 -0.912044 -3.26293 0
M  V30 1232 C 115.333 -0.620326 -3.71253 0
M  V30 1233 C 114.48 -1.11439 -2.53922 0
M  V30 1234 H 117.431 -1.03754 -1.20087 0
M  V30 1235 H 117.452 -0.226493 -3.79825 0
M  V30 1236 H 116.964 -1.99057 -3.33164 0
M  V30 1237 H 115.065 0.447674 -3.69901 0
M  V30 1238 H 115.178 -1.18327 -4.64258 0
M  V30 1239 H 113.542 -0.534834 -2.49021 0
M  V30 1240 H 114.325 -2.19992 -2.6355 0
M  V30 1241 N 116.77 1.45427 -0.607355 0
M  V30 1242 C 118.047 1.9557 -0.0344566 0
M  V30 1243 C 118.427 1.54979 1.43334 0
M  V30 1244 O 117.775 0.812241 2.13576 0
M  V30 1245 C 117.985 3.48226 -0.232321 0
M  V30 1246 C 119.333 4.2445 -0.113001 0
M  V30 1247 O 120.357 3.55829 -0.162431 0
M  V30 1248 O 119.216 5.465 0.00209442 0
M  V30 1249 H 116.31 0.826222 0.0358667 0
M  V30 1250 H 118.856 1.55594 -0.6774 0
M  V30 1251 H 117.628 3.70739 -1.25174 0
M  V30 1252 H 117.251 3.95092 0.445896 0
M  V30 1253 N 118.248 0.346503 1.53744 0
M  V30 1254 C 119.525 -0.304532 1.93215 0
M  V30 1255 C 119.905 -1.67993 1.27834 0
M  V30 1256 O 119.253 -2.24411 0.430352 0
M  V30 1257 C 119.463 -0.373852 3.46992 0
M  V30 1258 C 120.811 -0.62329 4.2 0
M  V30 1259 O 121.835 -0.455847 3.53271 0
M  V30 1260 O 120.694 -0.947879 5.38217 0
M  V30 1261 H 117.788 -0.178318 0.807547 0
M  V30 1262 H 120.334 0.397895 1.64969 0
M  V30 1263 H 119.106 0.591224 3.86808 0
M  V30 1264 H 118.729 -1.12294 3.81413 0
M  V30 1265 N 119.726 -1.57421 0.075193 0
M  V30 1266 C 120.656 -2.15942 -0.888324 0
M  V30 1267 C 121.637 -1.08737 -1.30806 0
M  V30 1268 O 122.822 -1.36787 -1.37851 0
M  V30 1269 C 119.952 -2.72379 -2.1547 0
M  V30 1270 C 118.906 -3.8478 -1.87425 0
M  V30 1271 C 118.232 -4.27834 -3.20721 0
M  V30 1272 C 119.532 -5.08869 -1.17684 0
M  V30 1273 H 121.226 -2.96705 -0.400799 0
M  V30 1274 H 118.772 -1.42723 -0.191342 0
M  V30 1275 H 120.725 -3.11965 -2.83295 0
M  V30 1276 H 119.449 -1.88841 -2.6647 0
M  V30 1277 H 118.108 -3.45703 -1.22004 0
M  V30 1278 H 117.756 -3.41214 -3.6957 0
M  V30 1279 H 117.456 -5.03605 -3.02746 0
M  V30 1280 H 118.98 -4.70039 -3.89738 0
M  V30 1281 H 120.394 -5.4575 -1.75584 0
M  V30 1282 H 118.791 -5.8994 -1.09956 0
M  V30 1283 H 119.861 -4.84648 -0.156453 0
M  V30 1284 N 121.204 0.198386 -1.56346 0
M  V30 1285 C 122.429 0.939682 -1.84891 0
M  V30 1286 C 122.854 1.76202 -0.658369 0
M  V30 1287 O 122.212 1.76993 0.392851 0
M  V30 1288 C 122.26 1.81428 -3.11635 0
M  V30 1289 O 121.364 2.91265 -2.91956 0
M  V30 1290 H 120.705 0.264807 -0.608912 0
M  V30 1291 H 123.235 0.204695 -2.03573 0
M  V30 1292 H 123.245 2.21958 -3.42343 0
M  V30 1293 H 121.92 1.21004 -3.97908 0
M  V30 1294 H 120.497 2.54514 -2.72538 0
M  V30 1295 N 122.682 1.50554 0.465978 0
M  V30 1296 C 123.929 1.61798 1.21768 0
M  V30 1297 C 124.257 0.320696 1.91838 0
M  V30 1298 O 123.512 -0.693724 1.82992 0
M  V30 1299 C 123.811 2.75152 2.28093 0
M  V30 1300 C 123.477 4.15454 1.75239 0
M  V30 1301 C 122.139 4.53628 1.60546 0
M  V30 1302 C 124.491 5.03121 1.36083 0
M  V30 1303 C 121.819 5.77204 1.05128 0
M  V30 1304 C 124.171 6.27249 0.821056 0
M  V30 1305 C 122.835 6.64221 0.660795 0
M  V30 1306 H 122.105 0.592063 0.445582 0
M  V30 1307 H 124.752 1.84503 0.512927 0
M  V30 1308 H 123.057 2.46556 3.04496 0
M  V30 1309 H 124.754 2.81055 2.86023 0
M  V30 1310 H 121.344 3.85341 1.87644 0
M  V30 1311 H 125.528 4.74257 1.46267 0
M  V30 1312 H 120.784 6.0452 0.91462 0
M  V30 1313 H 124.958 6.94537 0.509018 0
M  V30 1314 H 122.585 7.59854 0.229226 0
M  V30 1315 N 124.16 -0.719506 1.40217 0
M  V30 1316 C 125.107 -1.83359 1.40172 0
M  V30 1317 C 126.077 -1.64065 0.259206 0
M  V30 1318 O 127.262 -1.85254 0.456677 0
M  V30 1319 C 124.402 -3.2103 1.26624 0
M  V30 1320 C 123.515 -3.51923 2.50548 0
M  V30 1321 C 122.65 -4.79079 2.29471 0
M  V30 1322 C 121.689 -5.02863 3.48992 0
M  V30 1323 N 120.826 -6.2123 3.27135 0
M  V30 1324 H 125.666 -1.82733 2.35399 0
M  V30 1325 H 123.203 -0.892688 1.16917 0
M  V30 1326 H 125.161 -4.00524 1.16776 0
M  V30 1327 H 123.791 -3.20895 0.350176 0
M  V30 1328 H 122.843 -2.67014 2.70939 0
M  V30 1329 H 124.155 -3.6541 3.39525 0
M  V30 1330 H 123.309 -5.66582 2.16955 0
M  V30 1331 H 122.048 -4.67794 1.37913 0
M  V30 1332 H 121.053 -4.13816 3.6199 0
M  V30 1333 H 122.278 -5.16023 4.41472 0
M  V30 1334 H 120.224 -6.11204 2.38256 0
M  V30 1335 H 120.141 -6.35375 4.09675 0
M  V30 1336 H 121.409 -7.11532 3.18344 0
M  V30 1337 N 125.638 -1.25649 -0.95132 0
M  V30 1338 C 126.585 -1.06323 -2.04851 0
M  V30 1339 C 127.555 0.0286491 -1.66075 0
M  V30 1340 O 128.74 -0.12917 -1.90362 0
M  V30 1341 C 125.88 -0.691529 -3.381 0
M  V30 1342 C 124.993 -1.85861 -3.89974 0
M  V30 1343 C 124.128 -1.43096 -5.11563 0
M  V30 1344 C 123.167 -2.56696 -5.55674 0
M  V30 1345 N 122.304 -2.14684 -6.68472 0
M  V30 1346 H 127.144 -2.00222 -2.20715 0
M  V30 1347 H 124.681 -0.997027 -1.08156 0
M  V30 1348 H 126.639 -0.456963 -4.1469 0
M  V30 1349 H 125.269 0.210474 -3.22113 0
M  V30 1350 H 124.321 -2.20639 -3.09875 0
M  V30 1351 H 125.633 -2.71161 -4.18657 0
M  V30 1352 H 124.787 -1.15624 -5.9558 0
M  V30 1353 H 123.526 -0.548722 -4.84603 0
M  V30 1354 H 122.531 -2.84909 -4.7022 0
M  V30 1355 H 123.756 -3.45503 -5.8464 0
M  V30 1356 H 121.702 -1.28881 -6.43215 0
M  V30 1357 H 121.619 -2.9353 -6.96689 0
M  V30 1358 H 122.887 -1.90397 -7.5589 0
M  V30 1359 N 127.117 1.15442 -1.07289 0
M  V30 1360 C 128.365 1.85845 -0.794096 0
M  V30 1361 C 128.686 1.82692 0.681809 0
M  V30 1362 O 127.956 1.26741 1.49377 0
M  V30 1363 H 126.536 0.688089 -0.290763 0
M  V30 1364 H 129.198 1.39947 -1.3565 0
M  V30 1365 H 128.294 2.91001 -1.12804 0
M  V30 1366 N 128.595 0.856903 1.32268 0
M  V30 1367 C 129.505 0.306131 2.32594 0
M  V30 1368 C 130.521 -0.577209 1.64147 0
M  V30 1369 O 131.697 -0.477043 1.95669 0
M  V30 1370 C 128.762 -0.494561 3.43154 0
M  V30 1371 C 127.823 0.415186 4.27288 0
M  V30 1372 C 127.056 -0.347387 5.32568 0
M  V30 1373 O 127.279 -1.57708 5.48165 0
M  V30 1374 O 126.213 0.287982 6.01211 0
M  V30 1375 H 130.039 1.13737 2.81598 0
M  V30 1376 H 127.624 0.619902 1.35932 0
M  V30 1377 H 129.506 -0.948944 4.10576 0
M  V30 1378 H 128.181 -1.30257 2.96336 0
M  V30 1379 H 127.088 0.917793 3.62667 0
M  V30 1380 H 128.421 1.18844 4.77637 0
M  V30 1381 N 130.073 -1.45103 0.615059 0
M  V30 1382 C 131.02 -2.30586 -0.0993978 0
M  V30 1383 C 131.99 -1.42544 -0.852669 0
M  V30 1384 O 133.175 -1.71465 -0.836917 0
M  V30 1385 C 130.315 -3.27572 -1.08583 0
M  V30 1386 C 129.428 -4.30717 -0.332656 0
M  V30 1387 C 128.563 -5.14807 -1.30947 0
M  V30 1388 C 127.602 -6.09673 -0.544538 0
M  V30 1389 N 126.739 -6.86517 -1.47101 0
M  V30 1390 H 131.579 -2.91144 0.635542 0
M  V30 1391 H 129.116 -1.4346 0.325206 0
M  V30 1392 H 131.074 -3.82276 -1.67095 0
M  V30 1393 H 129.704 -2.68751 -1.78809 0
M  V30 1394 H 128.756 -3.78615 0.368107 0
M  V30 1395 H 130.068 -4.98102 0.263842 0
M  V30 1396 H 129.222 -5.73948 -1.96643 0
M  V30 1397 H 127.961 -4.47458 -1.9399 0
M  V30 1398 H 126.966 -5.49656 0.126003 0
M  V30 1399 H 128.191 -6.79052 0.080947 0
M  V30 1400 H 126.137 -6.21851 -2.08895 0
M  V30 1401 H 126.054 -7.50281 -0.928137 0
M  V30 1402 H 127.322 -7.50194 -2.11731 0
M  V30 1403 N 131.551 -0.354651 -1.53558 0
M  V30 1404 C 132.484 0.540273 -2.21712 0
M  V30 1405 C 133.462 1.09161 -1.2051 0
M  V30 1406 O 134.646 1.14979 -1.49372 0
M  V30 1407 C 131.773 1.74435 -2.90328 0
M  V30 1408 C 130.819 1.32146 -4.05512 0
M  V30 1409 S 131.652 0.331924 -5.3447 0
M  V30 1410 C 132.808 1.54258 -6.06593 0
M  V30 1411 H 133.041 -0.0385776 -2.97275 0
M  V30 1412 H 130.574 -0.138736 -1.53775 0
M  V30 1413 H 132.532 2.43507 -3.30476 0
M  V30 1414 H 131.193 2.29444 -2.1451 0
M  V30 1415 H 130.386 2.21952 -4.52497 0
M  V30 1416 H 129.988 0.710091 -3.67197 0
M  V30 1417 H 132.28 2.47534 -6.30661 0
M  V30 1418 H 133.223 1.11431 -6.99277 0
M  V30 1419 H 133.631 1.74367 -5.36895 0
M  V30 1420 N 133.029 1.57378 -0.0835403 0
M  V30 1421 C 133.976 2.13384 0.879539 0
M  V30 1422 C 134.946 1.04936 1.28754 0
M  V30 1423 O 136.131 1.32662 1.37133 0
M  V30 1424 C 133.271 2.70932 2.13752 0
M  V30 1425 C 132.384 3.93575 1.7811 0
M  V30 1426 C 131.519 4.39326 2.98607 0
M  V30 1427 C 130.558 5.54587 2.59037 0
M  V30 1428 N 129.695 5.95243 3.72331 0
M  V30 1429 H 134.535 2.9537 0.395076 0
M  V30 1430 H 132.072 1.45953 0.183349 0
M  V30 1431 H 134.03 3.02411 2.87408 0
M  V30 1432 H 132.66 1.91693 2.59718 0
M  V30 1433 H 131.712 3.68483 0.94469 0
M  V30 1434 H 133.024 4.77258 1.45005 0
M  V30 1435 H 132.178 4.72528 3.80529 0
M  V30 1436 H 130.917 3.5452 3.34913 0
M  V30 1437 H 129.922 5.21024 1.75539 0
M  V30 1438 H 131.147 6.41133 2.23887 0
M  V30 1439 H 129.093 5.13385 4.08378 0
M  V30 1440 H 129.01 6.73694 3.43034 0
M  V30 1441 H 130.278 6.33072 4.54797 0
M  V30 1442 N 134.507 -0.190092 1.56449 0
M  V30 1443 C 135.753 -0.911052 1.81184 0
M  V30 1444 C 136.086 -1.82699 0.658396 0
M  V30 1445 O 135.361 -1.91491 -0.340775 0
M  V30 1446 C 135.644 -1.72297 3.16205 0
M  V30 1447 C 135.497 -0.831419 4.42049 0
M  V30 1448 C 136.816 -2.69454 3.47969 0
M  V30 1449 H 133.935 -0.32977 0.659106 0
M  V30 1450 H 136.577 -0.178169 1.89163 0
M  V30 1451 H 134.727 -2.34778 3.09534 0
M  V30 1452 H 136.399 -0.220929 4.60771 0
M  V30 1453 H 134.642 -0.138406 4.33579 0
M  V30 1454 H 135.313 -1.43461 5.33032 0
M  V30 1455 H 137.789 -2.17104 3.54972 0
M  V30 1456 H 136.665 -3.23342 4.43555 0
M  V30 1457 H 136.926 -3.48744 2.71717 0
M  V30 1458 N 135.985 -1.50799 -0.457987 0
M  V30 1459 C 136.915 -1.73553 -1.5621 0
M  V30 1460 C 137.896 -0.584774 -1.59732 0
M  V30 1461 O 139.081 -0.825314 -1.7579 0
M  V30 1462 C 136.211 -1.84169 -2.94447 0
M  V30 1463 C 135.165 -2.99461 -3.0579 0
M  V30 1464 C 134.491 -2.95235 -4.45803 0
M  V30 1465 C 135.791 -4.39766 -2.81786 0
M  V30 1466 H 137.485 -2.66 -1.37421 0
M  V30 1467 H 135.031 -1.28002 -0.659662 0
M  V30 1468 H 136.984 -1.98672 -3.71628 0
M  V30 1469 H 135.708 -0.883545 -3.14422 0
M  V30 1470 H 134.367 -2.8463 -2.31044 0
M  V30 1471 H 134.015 -1.97239 -4.62715 0
M  V30 1472 H 133.715 -3.72642 -4.54326 0
M  V30 1473 H 135.239 -3.11803 -5.24987 0
M  V30 1474 H 136.653 -4.55054 -3.4871 0
M  V30 1475 H 135.05 -5.18722 -3.0174 0
M  V30 1476 H 136.12 -4.51229 -1.7754 0
M  V30 1477 N 137.463 0.71206 -1.40597 0
M  V30 1478 C 138.373 1.8562 -1.43466 0
M  V30 1479 C 139.389 1.70902 -0.326902 0
M  V30 1480 O 140.565 1.93105 -0.572043 0
M  V30 1481 C 137.63 3.21451 -1.29884 0
M  V30 1482 C 136.691 3.48398 -2.50833 0
M  V30 1483 C 135.924 4.77749 -2.3789 0
M  V30 1484 O 136.147 5.53089 -1.39459 0
M  V30 1485 O 135.081 5.05111 -3.27333 0
M  V30 1486 H 138.907 1.86155 -2.39958 0
M  V30 1487 H 136.492 0.86295 -1.21957 0
M  V30 1488 H 138.374 4.02579 -1.24531 0
M  V30 1489 H 137.049 3.21636 -0.364997 0
M  V30 1490 H 135.956 2.67265 -2.61763 0
M  V30 1491 H 137.289 3.53014 -3.4299 0
M  V30 1492 N 138.941 1.26152 0.944643 0
M  V30 1493 C 139.851 1.09176 2.07648 0
M  V30 1494 C 140.867 0.0261935 1.7398 0
M  V30 1495 O 142.043 0.229208 2.00091 0
M  V30 1496 C 139.108 0.722915 3.39079 0
M  V30 1497 C 138.169 1.86752 3.86552 0
M  V30 1498 C 137.402 1.51617 5.11711 0
M  V30 1499 O 137.625 0.416331 5.68879 0
M  V30 1500 O 136.559 2.34975 5.54139 0
M  V30 1501 H 140.385 2.0412 2.24875 0
M  V30 1502 H 137.97 1.05182 1.061 0
M  V30 1503 H 139.852 0.529787 4.18056 0
M  V30 1504 H 138.527 -0.197159 3.23099 0
M  V30 1505 H 137.434 2.11558 3.08535 0
M  V30 1506 H 138.767 2.76719 4.07047 0
M  V30 1507 N 140.419 -1.14872 1.07899 0
M  V30 1508 C 141.369 -2.17809 0.674027 0
M  V30 1509 C 142.353 -1.58008 -0.303699 0
M  V30 1510 O 143.545 -1.76616 -0.11654 0
M  V30 1511 C 140.674 -3.43208 0.0793318 0
M  V30 1512 C 139.76 -4.10051 1.08253 0
M  V30 1513 N 140.151 -4.52296 2.2641 0
M  V30 1514 C 138.449 -4.36469 0.917124 0
M  V30 1515 C 139.15 -5.04199 2.901 0
M  V30 1516 N 138.126 -4.98088 2.17736 0
M  V30 1517 H 141.928 -2.48207 1.57386 0
M  V30 1518 H 139.442 -1.315 0.952976 0
M  V30 1519 H 141.439 -4.16272 -0.228719 0
M  V30 1520 H 140.099 -3.14291 -0.815551 0
M  V30 1521 H 141.11 -4.45504 2.64096 0
M  V30 1522 H 137.787 -4.17432 0.0756078 0
M  V30 1523 H 139.177 -5.46802 3.90458 0
M  V30 1524 N 141.898 -0.863906 -1.31812 0
M  V30 1525 C 143.146 -0.470904 -1.96537 0
M  V30 1526 C 143.467 0.978771 -1.68657 0
M  V30 1527 O 142.737 1.6853 -0.998717 0
M  V30 1528 H 141.317 -0.171148 -0.72713 0
M  V30 1529 H 143.979 -1.10236 -1.60729 0
M  V30 1530 H 143.075 -0.623616 -3.05806 0
M  V30 1531 N 143.376 1.44774 -0.622745 0
M  V30 1532 C 144.286 2.34433 0.0886031 0
M  V30 1533 C 145.302 1.52131 0.844529 0
M  V30 1534 O 146.478 1.84886 0.798691 0
M  V30 1535 C 143.543 3.29986 1.0635 0
M  V30 1536 C 142.604 4.28195 0.307873 0
M  V30 1537 C 141.837 5.19183 1.23633 0
M  V30 1538 O 142.06 5.13918 2.47476 0
M  V30 1539 O 140.994 5.97515 0.725189 0
M  V30 1540 H 144.82 2.96693 -0.648599 0
M  V30 1541 H 142.405 1.44408 -0.382957 0
M  V30 1542 H 144.287 3.88825 1.6246 0
M  V30 1543 H 142.962 2.70269 1.78146 0
M  V30 1544 H 141.869 3.72927 -0.296064 0
M  V30 1545 H 143.202 4.90808 -0.3699 0
M  V30 1546 N 144.854 0.36279 1.53368 0
M  V30 1547 C 146.1 -0.220702 2.02199 0
M  V30 1548 C 146.455 -1.46649 1.24546 0
M  V30 1549 O 145.748 -1.88737 0.32996 0
M  V30 1550 C 145.942 -0.568417 3.52851 0
M  V30 1551 C 145.771 0.642126 4.45092 0
M  V30 1552 C 144.541 1.15335 4.91961 0
M  V30 1553 C 146.739 1.50649 4.91741 0
M  V30 1554 N 144.721 2.3242 5.68202 0
M  V30 1555 C 146.092 2.52404 5.66297 0
M  V30 1556 C 148.147 1.52969 4.73819 0
M  V30 1557 C 146.85 3.56331 6.24836 0
M  V30 1558 C 148.876 2.55789 5.33222 0
M  V30 1559 C 148.238 3.56268 6.07662 0
M  V30 1560 H 144.337 -0.0435508 0.780786 0
M  V30 1561 H 146.921 0.506704 1.87991 0
M  V30 1562 H 145.092 -1.2649 3.67226 0
M  V30 1563 H 146.824 -1.13676 3.88407 0
M  V30 1564 H 143.579 0.718412 4.68119 0
M  V30 1565 H 144.003 2.91591 6.10986 0
M  V30 1566 H 148.645 0.766418 4.15795 0
M  V30 1567 H 146.363 4.33543 6.81958 0
M  V30 1568 H 149.949 2.58435 5.21251 0
M  V30 1569 H 148.829 4.34524 6.52808 0
M  V30 1570 N 146.332 -1.57332 0.0918853 0
M  V30 1571 C 147.578 -1.95328 -0.567313 0
M  V30 1572 C 147.933 -0.972866 -1.65991 0
M  V30 1573 O 147.226 0.00166256 -1.916 0
M  V30 1574 C 147.42 -3.37689 -1.17051 0
M  V30 1575 C 147.249 -4.49489 -0.137875 0
M  V30 1576 C 146.019 -5.04498 0.284515 0
M  V30 1577 C 148.217 -5.10393 0.63271 0
M  V30 1578 N 146.199 -5.99853 1.30576 0
M  V30 1579 C 147.57 -6.01435 1.50587 0
M  V30 1580 C 149.625 -4.93143 0.68658 0
M  V30 1581 C 148.328 -6.77077 2.42815 0
M  V30 1582 C 150.354 -5.69445 1.59645 0
M  V30 1583 C 149.716 -6.60151 2.45725 0
M  V30 1584 H 145.815 -0.761467 -0.178023 0
M  V30 1585 H 148.399 -1.93924 0.173706 0
M  V30 1586 H 146.57 -3.39793 -1.88136 0
M  V30 1587 H 148.302 -3.62872 -1.79181 0
M  V30 1588 H 145.057 -4.73489 -0.102593 0
M  V30 1589 H 145.481 -6.52231 1.81449 0
M  V30 1590 H 150.123 -4.22785 0.035244 0
M  V30 1591 H 147.841 -7.46699 3.08975 0
M  V30 1592 H 151.427 -5.58112 1.64323 0
M  V30 1593 H 150.307 -7.18159 3.14987 0
M  V30 1594 N 147.81 0.181792 -1.56548 0
M  V30 1595 C 148.757 1.22521 -1.95595 0
M  V30 1596 C 149.727 1.4454 -0.818373 0
M  V30 1597 O 150.912 1.57454 -1.07763 0
M  V30 1598 C 148.052 2.56193 -2.31212 0
M  V30 1599 C 147.165 2.41641 -3.58097 0
M  V30 1600 C 146.3 3.68108 -3.82975 0
M  V30 1601 C 145.339 3.48445 -5.03242 0
M  V30 1602 N 144.476 4.66956 -5.24306 0
M  V30 1603 H 149.316 0.885226 -2.84548 0
M  V30 1604 H 146.853 0.425718 -1.40805 0
M  V30 1605 H 148.811 3.34088 -2.49882 0
M  V30 1606 H 147.441 2.88208 -1.45382 0
M  V30 1607 H 146.493 1.54976 -3.474 0
M  V30 1608 H 147.805 2.23052 -4.46149 0
M  V30 1609 H 146.959 4.54441 -4.01956 0
M  V30 1610 H 145.698 3.89666 -2.93278 0
M  V30 1611 H 144.703 2.60499 -4.8417 0
M  V30 1612 H 145.928 3.2832 -5.9446 0
M  V30 1613 H 143.874 4.88752 -4.37559 0
M  V30 1614 H 143.791 4.51242 -6.06561 0
M  V30 1615 H 145.059 5.54602 -5.47756 0
M  V30 1616 N 149.288 1.51039 0.449983 0
M  V30 1617 C 150.251 1.70863 1.5277 0
M  V30 1618 C 151.251 0.578846 1.5002 0
M  V30 1619 O 152.441 0.846213 1.52266 0
M  V30 1620 C 149.573 1.75341 2.9235 0
M  V30 1621 H 150.766 2.67034 1.36502 0
M  V30 1622 H 148.319 1.40838 0.677812 0
M  V30 1623 H 149.054 0.809383 3.14037 0
M  V30 1624 H 148.839 2.57436 2.95752 0
M  V30 1625 H 150.329 1.92559 3.70555 0
M  V30 1626 N 150.766 -0.704594 1.40972 0
M  V30 1627 C 151.713 -1.81862 1.42109 0
M  V30 1628 C 152.683 -1.63781 0.276593 0
M  V30 1629 O 153.868 -1.84759 0.4763 0
M  V30 1630 C 151.008 -3.19669 1.30022 0
M  V30 1631 C 150.121 -3.49246 2.54267 0
M  V30 1632 C 149.256 -4.76618 2.3454 0
M  V30 1633 C 148.295 -4.99133 3.54306 0
M  V30 1634 N 147.432 -6.17726 3.33706 0
M  V30 1635 H 152.272 -1.80226 2.37324 0
M  V30 1636 H 149.809 -0.880238 1.17857 0
M  V30 1637 H 151.767 -3.99263 1.21018 0
M  V30 1638 H 150.397 -3.20506 0.384192 0
M  V30 1639 H 149.449 -2.64125 2.73756 0
M  V30 1640 H 150.761 -3.61788 3.43381 0
M  V30 1641 H 149.915 -5.64249 2.22952 0
M  V30 1642 H 148.654 -4.66305 1.42867 0
M  V30 1643 H 147.659 -4.09953 3.66359 0
M  V30 1644 H 148.884 -5.11311 4.4692 0
M  V30 1645 H 146.83 -6.08642 2.44725 0
M  V30 1646 H 146.747 -6.30995 4.16391 0
M  V30 1647 H 148.015 -7.08115 3.25873 0
M  V30 1648 N 152.244 -1.26651 -0.937939 0
M  V30 1649 C 153.469 -1.15279 -1.72411 0
M  V30 1650 C 153.894 0.287866 -1.85884 0
M  V30 1651 O 153.252 1.20855 -1.35143 0
M  V30 1652 C 153.3 -1.83028 -3.10698 0
M  V30 1653 O 152.404 -1.12128 -3.96864 0
M  V30 1654 H 151.745 -0.401504 -0.528858 0
M  V30 1655 H 154.275 -1.67531 -1.1745 0
M  V30 1656 H 154.285 -1.89981 -3.6107 0
M  V30 1657 H 152.96 -2.87833 -3.00208 0
M  V30 1658 H 151.537 -1.13173 -3.55312 0
M  V30 1659 N 153.722 1.14298 -1.08507 0
M  V30 1660 C 154.652 2.21542 -0.737646 0
M  V30 1661 C 155.633 1.67773 0.280377 0
M  V30 1662 O 156.818 1.93616 0.150521 0
M  V30 1663 C 153.948 3.46988 -0.147259 0
M  V30 1664 C 152.902 4.13789 -1.09374 0
M  V30 1665 C 152.228 5.33449 -0.365524 0
M  V30 1666 C 153.528 4.62208 -2.4323 0
M  V30 1667 H 155.222 2.5086 -1.6343 0
M  V30 1668 H 152.768 1.20576 -0.787243 0
M  V30 1669 H 154.721 4.21262 0.107808 0
M  V30 1670 H 153.445 3.17037 0.784538 0
M  V30 1671 H 152.104 3.4147 -1.33393 0
M  V30 1672 H 151.752 4.99759 0.57011 0
M  V30 1673 H 151.452 5.79088 -0.996512 0
M  V30 1674 H 152.976 6.10485 -0.118534 0
M  V30 1675 H 154.39 5.27952 -2.23472 0
M  V30 1676 H 152.787 5.18553 -3.02031 0
M  V30 1677 H 153.857 3.77224 -3.04681 0
M  V30 1678 N 155.201 0.870884 1.31352 0
M  V30 1679 C 156.131 0.343096 2.30966 0
M  V30 1680 C 157.112 -0.566507 1.60389 0
M  V30 1681 O 158.297 -0.483336 1.88089 0
M  V30 1682 C 155.427 -0.455487 3.443 0
M  V30 1683 C 154.381 0.361103 4.26474 0
M  V30 1684 C 153.707 -0.563221 5.31725 0
M  V30 1685 C 155.007 1.59566 4.97329 0
M  V30 1686 H 156.701 1.17548 2.75359 0
M  V30 1687 H 154.247 0.566686 1.32381 0
M  V30 1688 H 156.2 -0.83525 4.13039 0
M  V30 1689 H 154.924 -1.32139 2.98675 0
M  V30 1690 H 153.583 0.722825 3.59403 0
M  V30 1691 H 153.231 -1.42643 4.82351 0
M  V30 1692 H 152.931 -0.0207409 5.87596 0
M  V30 1693 H 154.455 -0.939808 6.03324 0
M  V30 1694 H 155.869 1.28728 5.58661 0
M  V30 1695 H 154.266 2.07728 5.63 0
M  V30 1696 H 155.336 2.34798 4.24262 0
M  V30 1697 N 156.679 -1.44442 0.630414 0
M  V30 1698 C 157.907 -2.06414 0.141671 0
M  V30 1699 C 158.322 -1.47105 -1.18345 0
M  V30 1700 O 157.679 -0.593662 -1.72574 0
M  V30 1701 C 157.73 -3.61494 0.0199784 0
M  V30 1702 O 157.451 -4.18594 1.29269 0
M  V30 1703 C 158.952 -4.40499 -0.497544 0
M  V30 1704 H 156.172 -0.666292 0.0793452 0
M  V30 1705 H 158.716 -1.85323 0.864614 0
M  V30 1706 H 156.871 -3.8185 -0.653402 0
M  V30 1707 H 157.285 -5.12026 1.13707 0
M  V30 1708 H 158.759 -5.49433 -0.531708 0
M  V30 1709 H 159.236 -4.11895 -1.52445 0
M  V30 1710 H 159.842 -4.25061 0.142562 0
M  V30 1711 N 158.157 -0.370918 -1.53173 0
M  V30 1712 C 159.104 0.473035 -2.259 0
M  V30 1713 C 160.074 1.07311 -1.26781 0
M  V30 1714 O 161.259 1.1046 -1.55574 0
M  V30 1715 C 158.399 1.60405 -3.05556 0
M  V30 1716 C 157.512 1.02863 -4.19575 0
M  V30 1717 C 156.647 2.12918 -4.86661 0
M  V30 1718 C 155.686 1.52869 -5.92704 0
M  V30 1719 N 154.823 2.56779 -6.53459 0
M  V30 1720 H 159.663 -0.153649 -2.97604 0
M  V30 1721 H 157.2 -0.0875946 -1.46839 0
M  V30 1722 H 159.158 2.27034 -3.50016 0
M  V30 1723 H 157.788 2.20131 -2.36097 0
M  V30 1724 H 156.84 0.252465 -3.79561 0
M  V30 1725 H 158.152 0.549642 -4.95762 0
M  V30 1726 H 157.306 2.87356 -5.34333 0
M  V30 1727 H 156.045 2.6417 -4.09958 0
M  V30 1728 H 155.05 0.769479 -5.44389 0
M  V30 1729 H 156.275 1.02435 -6.7133 0
M  V30 1730 H 154.221 3.07235 -5.79606 0
M  V30 1731 H 154.138 2.13583 -7.25202 0
M  V30 1732 H 155.406 3.30903 -7.05779 0
M  V30 1733 N 159.635 1.57281 -0.100228 0
M  V30 1734 C 160.582 2.14305 0.856858 0
M  V30 1735 C 161.552 1.06296 1.27634 0
M  V30 1736 O 162.737 1.34109 1.35718 0
M  V30 1737 C 159.877 2.73184 2.10866 0
M  V30 1738 C 158.99 3.95442 1.73925 0
M  V30 1739 C 158.125 4.42468 2.93931 0
M  V30 1740 C 157.164 5.57303 2.5314 0
M  V30 1741 N 156.301 5.99158 3.65997 0
M  V30 1742 H 161.141 2.95772 0.363726 0
M  V30 1743 H 158.678 1.46139 0.167858 0
M  V30 1744 H 160.636 3.05442 2.84185 0
M  V30 1745 H 159.266 1.94437 2.57671 0
M  V30 1746 H 158.318 3.69464 0.905554 0
M  V30 1747 H 159.63 4.78769 1.39935 0
M  V30 1748 H 158.784 4.76537 3.75496 0
M  V30 1749 H 157.523 3.58052 3.31134 0
M  V30 1750 H 156.528 5.22857 1.70003 0
M  V30 1751 H 157.753 6.43471 2.17075 0
M  V30 1752 H 155.699 5.17687 4.02909 0
M  V30 1753 H 155.616 6.77295 3.35869 0
M  V30 1754 H 156.884 6.3786 4.48057 0
M  V30 1755 N 161.113 -0.173488 1.56642 0
M  V30 1756 C 162.023 -1.23482 1.99473 0
M  V30 1757 C 163.039 -1.48567 0.905752 0
M  V30 1758 O 164.215 -1.60758 1.21321 0
M  V30 1759 C 161.28 -2.55444 2.34413 0
M  V30 1760 C 160.341 -2.38241 3.57127 0
M  V30 1761 C 159.574 -3.63909 3.90392 0
M  V30 1762 O 159.797 -4.68996 3.24653 0
M  V30 1763 O 158.731 -3.58149 4.83749 0
M  V30 1764 H 162.557 -0.901279 2.90018 0
M  V30 1765 H 160.142 -0.380185 1.44482 0
M  V30 1766 H 162.024 -3.33292 2.57865 0
M  V30 1767 H 160.699 -2.88382 1.4703 0
M  V30 1768 H 159.606 -1.58431 3.38896 0
M  V30 1769 H 160.939 -2.10228 4.45045 0
M  V30 1770 N 162.591 -1.51276 -0.441967 0
M  V30 1771 C 163.839 -1.63392 -1.18943 0
M  V30 1772 C 164.16 -0.350159 -1.9183 0
M  V30 1773 O 163.43 0.633784 -1.85364 0
M  V30 1774 H 162.01 -0.602164 -0.442049 0
M  V30 1775 H 164.672 -1.88186 -0.507165 0
M  V30 1776 H 163.768 -2.45934 -1.92154 0
M  V30 1777 N 164.069 0.697108 -1.41344 0
M  V30 1778 C 165.316 1.45714 -1.40619 0
M  V30 1779 C 165.644 1.94494 -0.0147907 0
M  V30 1780 O 164.899 1.69794 0.973066 0
M  V30 1781 C 165.198 2.68553 -2.35826 0
M  V30 1782 C 164.864 2.38438 -3.82698 0
M  V30 1783 C 163.526 2.29936 -4.22709 0
M  V30 1784 C 165.878 2.13567 -4.75435 0
M  V30 1785 C 163.206 1.94656 -5.53467 0
M  V30 1786 C 165.558 1.79797 -6.06511 0
M  V30 1787 C 164.222 1.69789 -6.45545 0
M  V30 1788 H 163.492 0.533206 -0.51456 0
M  V30 1789 H 166.139 0.796901 -1.74131 0
M  V30 1790 H 164.444 3.39503 -1.95563 0
M  V30 1791 H 166.141 3.2669 -2.32539 0
M  V30 1792 H 162.731 2.4595 -3.51008 0
M  V30 1793 H 166.915 2.19082 -4.45328 0
M  V30 1794 H 162.171 1.8546 -5.82593 0
M  V30 1795 H 166.345 1.59572 -6.77872 0
M  V30 1796 H 163.972 1.4222 -7.46778 0
M  V30 1797 N 165.547 1.27147 0.931209 0
M  V30 1798 C 166.796 1.12664 1.67302 0
M  V30 1799 C 167.109 -0.327718 1.92835 0
M  V30 1800 O 168.315 -0.593392 2.64936 0
M  V30 1801 C 166.771 1.9683 3.01307 0
M  V30 1802 C 166.379 3.46901 2.83485 0
M  V30 1803 C 168.123 1.90985 3.79111 0
M  V30 1804 C 166.03 4.23279 4.13024 0
M  V30 1805 H 164.96 0.41803 0.627509 0
M  V30 1806 H 167.611 1.51539 1.03481 0
M  V30 1807 H 165.993 1.50797 3.66164 0
M  V30 1808 H 167.167 4.00773 2.27415 0
M  V30 1809 H 165.482 3.54088 2.19113 0
M  V30 1810 H 168.079 2.45328 4.75098 0
M  V30 1811 H 168.422 0.882718 4.06834 0
M  V30 1812 H 168.955 2.34895 3.21044 0
M  V30 1813 H 165.694 5.26503 3.90481 0
M  V30 1814 H 165.214 3.74186 4.6877 0
M  V30 1815 H 166.893 4.32265 4.81411 0
M  V30 1816 N 167.025 -1.13721 1.09112 0
M  V30 1817 C 168.436 -1.6648 0.845068 0
M  V30 1818 C 168.787 -1.85911 -0.62701 0
M  V30 1819 O 167.912 -1.57556 -1.48341 0
M  V30 1820 C 168.507 -3.02413 1.52748 0
M  V30 1821 C 167.066 -3.52176 1.32849 0
M  V30 1822 C 166.213 -2.27492 1.58564 0
M  V30 1823 H 169.164 -0.976872 1.25072 0
M  V30 1824 H 169.185 -3.68223 0.958752 0
M  V30 1825 H 168.697 -2.88238 2.59885 0
M  V30 1826 H 166.798 -3.7156 0.278137 0
M  V30 1827 H 166.911 -4.32499 2.0611 0
M  V30 1828 H 165.275 -2.33923 1.00758 0
M  V30 1829 H 166.058 -2.15886 2.66924 0
M  V30 1830 N 168.503 -0.877838 -1.30888 0
M  V30 1831 C 169.728 -0.506629 -2.01117 0
M  V30 1832 C 170.153 0.895564 -1.65412 0
M  V30 1833 O 169.511 1.5923 -0.866922 0
M  V30 1834 C 169.559 -0.680223 -3.54126 0
M  V30 1835 O 168.663 0.277033 -4.11468 0
M  V30 1836 H 168.004 -0.200518 -0.633 0
M  V30 1837 H 170.534 -1.18342 -1.66902 0
M  V30 1838 H 170.544 -0.5765 -4.03907 0
M  V30 1839 H 169.219 -1.70261 -3.79452 0
M  V30 1840 H 167.796 0.127606 -3.72682 0
M  V30 1841 N 169.982 1.44106 -0.638065 0
M  V30 1842 C 170.93 2.3248 0.0748149 0
M  V30 1843 C 171.924 1.47746 0.828702 0
M  V30 1844 O 173.13 1.64049 0.740816 0
M  V30 1845 H 169.505 0.750771 0.0429686 0
M  V30 1846 H 171.476 2.90348 -0.688504 0
M  V30 1847 C 170.225 3.31843 1.03805 0
M  V30 1848 H 169.548 3.97059 0.467375 0
M  V30 1849 H 170.988 3.96345 1.50622 0
M  V30 1850 C 169.447 2.61291 2.1267 0
M  V30 1851 O 169.977 2.41702 3.20847 0
M  V30 1852 N 168.183 2.20915 1.88798 0
M  V30 1853 H 167.73 2.37047 1.00829 0
M  V30 1854 H 167.688 1.74038 2.61836 0
M  V30 1855 N 171.46 0.379036 1.52974 0
M  V30 1856 C 172.69 -0.20649 2.05566 0
M  V30 1857 C 173.098 -1.41906 1.25137 0
M  V30 1858 O 172.441 -1.81421 0.288464 0
M  V30 1859 C 172.503 -0.651086 3.53555 0
M  V30 1860 C 172.167 0.446626 4.54812 0
M  V30 1861 C 173.164 1.30079 5.03364 0
M  V30 1862 C 170.849 0.610719 4.98573 0
M  V30 1863 C 172.843 2.30426 5.94292 0
M  V30 1864 C 170.53 1.61754 5.89304 0
M  V30 1865 C 171.528 2.46274 6.37054 0
M  V30 1866 O 171.216 3.45237 7.25994 0
M  V30 1867 H 170.948 -0.0372381 0.674974 0
M  V30 1868 H 173.502 0.539718 1.98182 0
M  V30 1869 H 171.732 -1.44911 3.58522 0
M  V30 1870 H 173.421 -1.16112 3.88938 0
M  V30 1871 H 174.187 1.18527 4.70294 0
M  V30 1872 H 170.066 -0.0374044 4.60985 0
M  V30 1873 H 173.61 2.96432 6.31485 0
M  V30 1874 H 169.507 1.73348 6.21788 0
M  V30 1875 H 170.275 3.41124 7.44027 0
M  V30 1876 N 172.938 -1.57226 0.108567 0
M  V30 1877 C 174.184 -1.95121 -0.552761 0
M  V30 1878 C 174.517 -0.991345 -1.66991 0
M  V30 1879 O 173.792 -0.0267211 -1.94482 0
M  V30 1880 C 174.075 -3.43039 -1.09528 0
M  V30 1881 C 173.928 -4.49797 0.0177332 0
M  V30 1882 C 175.247 -3.92567 -1.98945 0
M  V30 1883 H 172.366 -0.709496 -0.199461 0
M  V30 1884 H 175.008 -1.89126 0.182011 0
M  V30 1885 H 173.158 -3.48279 -1.72146 0
M  V30 1886 H 174.83 -4.56661 0.652584 0
M  V30 1887 H 173.073 -4.284 0.682309 0
M  V30 1888 H 173.744 -5.50528 -0.402919 0
M  V30 1889 H 176.22 -3.89565 -1.46214 0
M  V30 1890 H 175.096 -4.96605 -2.33827 0
M  V30 1891 H 175.357 -3.32648 -2.91201 0
M  V30 1892 N 174.416 0.165178 -1.56732 0
M  V30 1893 C 175.379 1.18822 -1.95995 0
M  V30 1894 C 176.379 1.3685 -0.84431 0
M  V30 1895 O 177.569 1.34152 -1.11126 0
M  V30 1896 C 174.701 2.5521 -2.26011 0
M  V30 1897 H 175.894 0.851825 -2.87548 0
M  V30 1898 H 173.447 0.407857 -1.50885 0
M  V30 1899 H 174.182 2.93852 -1.37191 0
M  V30 1900 H 173.967 2.43489 -3.07336 0
M  V30 1901 H 175.457 3.28927 -2.57288 0
M  V30 1902 N 175.894 1.51508 0.433938 0
M  V30 1903 C 176.841 1.73068 1.52696 0
M  V30 1904 C 177.811 0.572441 1.55924 0
M  V30 1905 O 178.996 0.807253 1.72882 0
M  V30 1906 C 176.136 1.86474 2.90381 0
M  V30 1907 C 175.249 3.14037 2.96656 0
M  V30 1908 C 174.384 3.18019 4.25485 0
M  V30 1909 C 173.423 4.39882 4.2564 0
M  V30 1910 N 172.56 4.41394 5.45999 0
M  V30 1911 H 177.4 2.66366 1.33615 0
M  V30 1912 H 174.937 1.32008 0.649018 0
M  V30 1913 H 176.895 1.92229 3.70275 0
M  V30 1914 H 175.525 0.965809 3.08013 0
M  V30 1915 H 174.577 3.17575 2.09404 0
M  V30 1916 H 175.889 4.0394 2.92633 0
M  V30 1917 H 175.043 3.22708 5.13755 0
M  V30 1918 H 173.782 2.2601 4.3217 0
M  V30 1919 H 172.787 4.35366 3.35763 0
M  V30 1920 H 174.012 5.33159 4.20617 0
M  V30 1921 H 171.958 3.52258 5.53399 0
M  V30 1922 H 171.875 5.25111 5.4387 0
M  V30 1923 H 173.143 4.50281 6.36292 0
M  V30 1924 N 177.372 -0.689602 1.41712 0
M  V30 1925 C 178.302 -1.81577 1.46806 0
M  V30 1926 C 179.283 -1.66945 0.326105 0
M  V30 1927 O 180.468 -1.86588 0.538377 0
M  V30 1928 C 177.598 -3.19762 1.35535 0
M  V30 1929 C 176.552 -3.49107 2.47605 0
M  V30 1930 C 175.878 -4.86711 2.21397 0
M  V30 1931 C 177.178 -3.47483 3.89939 0
M  V30 1932 H 178.872 -1.7757 2.41058 0
M  V30 1933 H 176.418 -0.852887 1.16025 0
M  V30 1934 H 178.371 -3.98263 1.3771 0
M  V30 1935 H 177.095 -3.24409 0.377708 0
M  V30 1936 H 175.754 -2.72959 2.44722 0
M  V30 1937 H 175.402 -4.8799 1.21961 0
M  V30 1938 H 175.102 -5.0731 2.96497 0
M  V30 1939 H 176.626 -5.67515 2.25297 0
M  V30 1940 H 178.04 -4.1598 3.94505 0
M  V30 1941 H 176.437 -3.79615 4.64771 0
M  V30 1942 H 177.507 -2.46341 4.17665 0
M  V30 1943 N 178.85 -1.27639 -0.924453 0
M  V30 1944 C 179.798 -1.10485 -2.04685 0
M  V30 1945 C 180.792 -0.0270421 -1.69378 0
M  V30 1946 O 181.998 -0.185008 -1.79047 0
M  V30 1947 H 178.373 -0.340546 -0.670472 0
M  V30 1948 H 180.344 -2.05566 -2.16298 0
M  V30 1949 C 179.093 -0.772229 -3.39016 0
M  V30 1950 H 178.416 -1.59351 -3.66671 0
M  V30 1951 H 179.856 -0.692097 -4.18313 0
M  V30 1952 C 178.315 0.523554 -3.32807 0
M  V30 1953 O 178.845 1.55702 -3.70297 0
M  V30 1954 N 177.051 0.520363 -2.85903 0
M  V30 1955 H 176.598 -0.32107 -2.55591 0
M  V30 1956 H 176.556 1.38742 -2.82131 0
M  V30 1957 N 180.328 1.1314 -1.09713 0
M  V30 1958 C 181.556 1.88321 -0.856898 0
M  V30 1959 C 181.971 1.79276 0.592073 0
M  V30 1960 O 181.328 1.16142 1.40774 0
M  V30 1961 C 181.379 3.37812 -1.28706 0
M  V30 1962 O 181.1 3.46627 -2.67921 0
M  V30 1963 C 182.601 4.29952 -1.07964 0
M  V30 1964 H 179.821 0.596094 -0.308079 0
M  V30 1965 H 182.365 1.43205 -1.45988 0
M  V30 1966 H 180.52 3.805 -0.727912 0
M  V30 1967 H 180.934 4.39579 -2.8613 0
M  V30 1968 H 182.408 5.33159 -1.42986 0
M  V30 1969 H 182.885 4.39196 -0.0176577 0
M  V30 1970 H 183.491 3.93036 -1.62489 0
M  V30 1971 N 181.806 0.884767 1.30421 0
M  V30 1972 C 182.736 0.367574 2.30589 0
M  V30 1973 C 183.717 -0.549464 1.60981 0
M  V30 1974 O 184.902 -0.46336 1.88591 0
M  V30 1975 C 182.032 -0.418944 3.44764 0
M  V30 1976 C 180.986 0.406316 4.26067 0
M  V30 1977 C 180.312 -0.506793 5.32293 0
M  V30 1978 C 181.612 1.64832 4.95608 0
M  V30 1979 H 183.306 1.20462 2.74097 0
M  V30 1980 H 180.852 0.580695 1.31772 0
M  V30 1981 H 182.805 -0.791395 4.13902 0
M  V30 1982 H 181.529 -1.28964 3.0006 0
M  V30 1983 H 180.188 0.760903 3.58617 0
M  V30 1984 H 179.836 -1.37519 4.83836 0
M  V30 1985 H 179.536 0.0415828 5.87585 0
M  V30 1986 H 181.06 -0.875764 6.04287 0
M  V30 1987 H 182.474 1.34646 5.57264 0
M  V30 1988 H 180.871 2.13688 5.60765 0
M  V30 1989 H 181.941 2.39284 4.21748 0
M  V30 1990 N 183.284 -1.43765 0.645699 0
M  V30 1991 C 184.194 -2.34544 -0.0512957 0
M  V30 1992 C 185.21 -1.53455 -0.82022 0
M  V30 1993 O 186.386 -1.86133 -0.769176 0
M  V30 1994 C 183.451 -3.31636 -1.01087 0
M  V30 1995 C 182.512 -4.2863 -0.239712 0
M  V30 1996 C 181.745 -5.21084 -1.15358 0
M  V30 1997 O 181.968 -5.1779 -2.39269 0
M  V30 1998 O 180.902 -5.98593 -0.630038 0
M  V30 1999 H 184.728 -2.95624 0.695718 0
M  V30 2000 H 182.313 -1.43781 0.405882 0
M  V30 2001 H 184.195 -3.9136 -1.56254 0
M  V30 2002 H 182.87 -2.73069 -1.73824 0
M  V30 2003 H 181.777 -3.72408 0.355356 0
M  V30 2004 H 183.11 -4.90157 0.447936 0
M  V30 2005 N 184.763 -0.387143 -1.52771 0
M  V30 2006 C 185.991 0.195869 -2.05971 0
M  V30 2007 C 186.406 1.40691 -1.25903 0
M  V30 2008 O 185.763 1.79931 -0.305134 0
M  V30 2009 C 185.814 0.56812 -3.57008 0
M  V30 2010 O 185.535 -0.594803 -4.34043 0
M  V30 2011 C 187.036 1.20723 -4.26545 0
M  V30 2012 H 184.256 0.0300578 -0.670326 0
M  V30 2013 H 186.8 -0.551749 -1.96916 0
M  V30 2014 H 184.955 1.26564 -3.66143 0
M  V30 2015 H 185.369 -0.289322 -5.23701 0
M  V30 2016 H 186.843 1.41807 -5.33474 0
M  V30 2017 H 187.32 2.17395 -3.81623 0
M  V30 2018 H 187.926 0.550535 -4.21722 0
M  V30 2019 N 186.241 1.57166 -0.116904 0
M  V30 2020 C 187.151 2.18745 0.847812 0
M  V30 2021 C 188.167 1.163 1.29423 0
M  V30 2022 O 189.343 1.48761 1.35765 0
M  V30 2023 C 186.408 2.77307 2.0809 0
M  V30 2024 C 185.469 3.94781 1.68661 0
M  V30 2025 C 184.702 4.50541 2.86091 0
M  V30 2026 O 184.925 4.05202 4.01456 0
M  V30 2027 O 183.859 5.41256 2.63298 0
M  V30 2028 H 187.685 3.01632 0.353778 0
M  V30 2029 H 185.27 1.49005 0.108599 0
M  V30 2030 H 187.152 3.14647 2.80313 0
M  V30 2031 H 185.827 1.97452 2.56504 0
M  V30 2032 H 184.734 3.62214 0.935518 0
M  V30 2033 H 186.067 4.76065 1.24991 0
M  V30 2034 N 187.719 -0.156864 1.56817 0
M  V30 2035 C 188.629 -1.2136 2.00771 0
M  V30 2036 C 189.645 -1.47598 0.921459 0
M  V30 2037 O 190.821 -1.59462 1.2302 0
M  V30 2038 C 187.886 -2.52943 2.37109 0
M  V30 2039 C 186.947 -2.34439 3.59634 0
M  V30 2040 C 186.18 -3.59748 3.94229 0
M  V30 2041 O 186.403 -4.65526 3.29609 0
M  V30 2042 O 185.337 -3.52998 4.8752 0
M  V30 2043 H 189.163 -0.870468 2.90958 0
M  V30 2044 H 186.748 -0.36484 1.44877 0
M  V30 2045 H 188.63 -3.30538 2.61386 0
M  V30 2046 H 187.305 -2.86806 1.5008 0
M  V30 2047 H 186.212 -1.54828 3.40557 0
M  V30 2048 H 187.545 -2.05496 4.4725 0
M  V30 2049 N 189.197 -1.51736 -0.425897 0
M  V30 2050 C 190.443 -1.66174 -1.17294 0
M  V30 2051 C 190.798 -0.37876 -1.88635 0
M  V30 2052 O 190.091 0.626021 -1.81084 0
M  V30 2053 C 190.285 -2.81103 -2.20717 0
M  V30 2054 C 190.114 -4.20453 -1.59529 0
M  V30 2055 C 188.884 -4.86225 -1.37525 0
M  V30 2056 C 191.082 -5.03146 -1.06528 0
M  V30 2057 N 189.064 -6.09657 -0.720537 0
M  V30 2058 C 190.435 -6.17674 -0.536506 0
M  V30 2059 C 192.49 -4.88594 -0.958127 0
M  V30 2060 C 191.193 -7.19245 0.0888917 0
M  V30 2061 C 193.219 -5.90383 -0.346608 0
M  V30 2062 C 192.581 -7.04191 0.171564 0
M  V30 2063 H 188.68 -0.661871 -0.416475 0
M  V30 2064 H 191.264 -1.88997 -0.467801 0
M  V30 2065 H 189.435 -2.59924 -2.88607 0
M  V30 2066 H 191.167 -2.84662 -2.87663 0
M  V30 2067 H 187.922 -4.44293 -1.64015 0
M  V30 2068 H 188.346 -6.75756 -0.410292 0
M  V30 2069 H 192.988 -4.0085 -1.34459 0
M  V30 2070 H 190.706 -8.06628 0.48746 0
M  V30 2071 H 194.292 -5.81194 -0.265451 0
M  V30 2072 H 193.172 -7.81606 0.637309 0
M  V30 2073 N 190.675 0.682077 -1.42076 0
M  V30 2074 C 191.922 1.44215 -1.42156 0
M  V30 2075 C 192.25 1.94468 -0.0354186 0
M  V30 2076 O 191.505 1.70816 0.955002 0
M  V30 2077 C 191.804 2.66036 -2.38662 0
M  V30 2078 C 191.47 2.34366 -3.85206 0
M  V30 2079 C 190.132 2.25439 -4.25124 0
M  V30 2080 C 192.484 2.08513 -4.77673 0
M  V30 2081 C 189.812 1.88775 -5.55501 0
M  V30 2082 C 192.164 1.73354 -6.08384 0
M  V30 2083 C 190.828 1.62933 -6.47309 0
M  V30 2084 H 190.098 0.527718 -0.520187 0
M  V30 2085 H 192.745 0.778387 -1.74967 0
M  V30 2086 H 191.05 3.3741 -1.99152 0
M  V30 2087 H 192.747 3.24205 -2.35991 0
M  V30 2088 H 189.337 2.42213 -3.53597 0
M  V30 2089 H 193.521 2.14346 -4.47626 0
M  V30 2090 H 188.777 1.7927 -5.84527 0
M  V30 2091 H 192.951 1.52373 -6.79526 0
M  V30 2092 H 190.578 1.34292 -7.48244 0
M  V30 2093 N 192.153 1.28127 0.917671 0
M  V30 2094 C 193.4 1.15052 1.66641 0
M  V30 2095 C 193.728 -0.301677 1.92146 0
M  V30 2096 O 192.983 -1.23622 1.51711 0
M  V30 2097 C 193.282 1.89018 3.03327 0
M  V30 2098 C 192.948 3.38832 2.97496 0
M  V30 2099 C 191.61 3.79693 2.95613 0
M  V30 2100 C 193.962 4.34378 2.88036 0
M  V30 2101 C 191.29 5.14447 2.82066 0
M  V30 2102 C 193.642 5.69201 2.7603 0
M  V30 2103 C 192.306 6.09343 2.72502 0
M  V30 2104 H 191.576 0.421006 0.609783 0
M  V30 2105 H 194.223 1.58855 1.06945 0
M  V30 2106 H 192.528 1.37752 3.66785 0
M  V30 2107 H 194.225 1.76321 3.60156 0
M  V30 2108 H 190.815 3.06342 2.99754 0
M  V30 2109 H 194.999 4.03775 2.88581 0
M  V30 2110 H 190.255 5.44681 2.77728 0
M  V30 2111 H 194.429 6.42901 2.67678 0
M  V30 2112 H 192.056 7.13712 2.61762 0
M  V30 2113 N 193.631 -1.12557 1.10312 0
M  V30 2114 C 194.578 -2.18247 0.750781 0
M  V30 2115 C 195.548 -1.63853 -0.272293 0
M  V30 2116 O 196.733 -1.90195 -0.151862 0
M  V30 2117 C 193.873 -3.44591 0.187379 0
M  V30 2118 C 192.986 -4.13046 1.2656 0
M  V30 2119 C 192.121 -5.27034 0.663978 0
M  V30 2120 C 191.16 -5.87353 1.72287 0
M  V30 2121 N 190.297 -6.92757 1.1416 0
M  V30 2122 H 195.137 -2.47732 1.65628 0
M  V30 2123 H 192.674 -1.21629 0.827337 0
M  V30 2124 H 194.632 -4.16904 -0.157148 0
M  V30 2125 H 193.262 -3.15527 -0.681355 0
M  V30 2126 H 192.314 -3.38924 1.72727 0
M  V30 2127 H 193.626 -4.53947 2.06721 0
M  V30 2128 H 192.78 -6.06104 0.268824 0
M  V30 2129 H 191.519 -4.87407 -0.169082 0
M  V30 2130 H 190.524 -5.06971 2.12746 0
M  V30 2131 H 191.749 -6.29051 2.55875 0
M  V30 2132 H 189.695 -6.5517 0.329984 0
M  V30 2133 H 189.612 -7.3225 1.88007 0
M  V30 2134 H 190.88 -7.75658 0.772956 0
M  V30 2135 N 195.109 -0.891671 -1.2995 0
M  V30 2136 C 196.386 -0.433307 -1.9074 0
M  V30 2137 C 196.766 1.08646 -1.80995 0
M  V30 2138 O 196.114 1.92476 -1.23147 0
M  V30 2139 C 196.324 -0.938895 -3.36134 0
M  V30 2140 C 197.672 -0.977829 -4.13187 0
M  V30 2141 O 198.696 -0.886015 -3.45005 0
M  V30 2142 O 197.555 -1.11453 -5.35015 0
M  V30 2143 H 194.649 -0.133699 -0.816121 0
M  V30 2144 H 197.195 -0.981011 -1.38471 0
M  V30 2145 H 195.967 -1.98281 -3.37343 0
M  V30 2146 H 195.59 -0.37074 -3.95868 0
M  V30 2147 N 196.587 1.43421 -0.653314 0
M  V30 2148 C 197.836 2.01032 -0.164076 0
M  V30 2149 C 198.149 1.52147 1.22926 0
M  V30 2150 O 199.355 2.02031 1.81371 0
M  V30 2151 C 197.811 3.59082 -0.24252 0
M  V30 2152 C 197.419 4.1696 -1.63855 0
M  V30 2153 C 199.163 4.24079 0.18911 0
M  V30 2154 C 197.07 5.67304 -1.67092 0
M  V30 2155 H 196 0.751798 -0.0575769 0
M  V30 2156 H 198.651 1.6439 -0.815362 0
M  V30 2157 H 197.033 3.93125 0.476276 0
M  V30 2158 H 198.207 3.94416 -2.38271 0
M  V30 2159 H 196.522 3.64335 -2.01616 0
M  V30 2160 H 199.119 5.34381 0.184775 0
M  V30 2161 H 199.462 3.98005 1.22056 0
M  V30 2162 H 199.995 3.94918 -0.477938 0
M  V30 2163 H 196.734 5.98145 -2.68146 0
M  V30 2164 H 196.254 5.91904 -0.970014 0
M  V30 2165 H 197.933 6.31344 -1.4147 0
M  V30 2166 N 198.065 0.39524 1.52563 0
M  V30 2167 C 199.293 -0.184943 2.06072 0
M  V30 2168 C 199.708 -1.40021 1.26647 0
M  V30 2169 O 199.065 -1.79767 0.314672 0
M  V30 2170 C 199.116 -0.549179 3.57304 0
M  V30 2171 O 198.837 0.617813 4.33722 0
M  V30 2172 C 200.338 -1.18459 4.2718 0
M  V30 2173 H 197.558 -0.0265025 0.670476 0
M  V30 2174 H 200.102 0.562184 1.96621 0
M  V30 2175 H 198.257 -1.2462 3.66809 0
M  V30 2176 H 198.671 0.317091 5.23541 0
M  V30 2177 H 200.145 -1.38976 5.34219 0
M  V30 2178 H 200.622 -2.15368 3.82771 0
M  V30 2179 H 201.228 -0.528163 4.22008 0
M  V30 2180 N 199.544 -1.57102 0.125237 0
M  V30 2181 C 200.96 -1.57915 -0.231322 0
M  V30 2182 C 201.16 -1.13833 -1.66266 0
M  V30 2183 O 200.216 -0.828581 -2.38518 0
M  V30 2184 C 201.529 -3.00699 0.00766489 0
M  V30 2185 C 203.077 -3.12947 -0.0577483 0
M  V30 2186 C 203.552 -4.57742 0.153626 0
M  V30 2187 N 205.043 -4.63092 0.0998073 0
M  V30 2188 C 205.778 -5.72905 0.238174 0
M  V30 2189 N 205.274 -6.91445 0.433057 0
M  V30 2190 N 207.067 -5.6182 0.177308 0
M  V30 2191 H 199.218 -1.84055 1.06007 0
M  V30 2192 H 201.481 -0.850905 0.417929 0
M  V30 2193 H 201.187 -3.3726 0.997431 0
M  V30 2194 H 201.061 -3.70236 -0.721452 0
M  V30 2195 H 203.448 -2.7624 -1.03804 0
M  V30 2196 H 203.529 -2.4594 0.70335 0
M  V30 2197 H 203.173 -4.95149 1.13092 0
M  V30 2198 H 203.103 -5.22848 -0.627534 0
M  V30 2199 H 205.594 -3.77871 -0.047051 0
M  V30 2200 H 205.907 -7.70985 0.529332 0
M  V30 2201 H 204.252 -6.93415 0.469109 0
M  V30 2202 H 207.443 -4.68093 0.0259748 0
M  V30 2203 H 207.616 -6.47357 0.288582 0
M  V30 2204 N 201.022 0.148545 -1.56898 0
M  V30 2205 C 201.969 1.18345 -1.98149 0
M  V30 2206 C 202.939 1.42772 -0.848848 0
M  V30 2207 O 204.124 1.55132 -1.11079 0
M  V30 2208 C 201.264 2.51231 -2.36594 0
M  V30 2209 C 200.377 2.33991 -3.63142 0
M  V30 2210 C 199.512 3.59902 -3.90697 0
M  V30 2211 C 198.551 3.37692 -5.1052 0
M  V30 2212 N 197.688 4.5573 -5.34092 0
M  V30 2213 H 202.528 0.82467 -2.86362 0
M  V30 2214 H 200.065 0.395756 -1.41676 0
M  V30 2215 H 202.023 3.28713 -2.56912 0
M  V30 2216 H 200.653 2.85059 -1.51463 0
M  V30 2217 H 199.705 1.47572 -3.50609 0
M  V30 2218 H 201.017 2.13539 -4.5078 0
M  V30 2219 H 200.171 4.45813 -4.11505 0
M  V30 2220 H 198.91 3.83357 -3.01477 0
M  V30 2221 H 197.915 2.5017 -4.89587 0
M  V30 2222 H 199.14 3.15637 -6.0129 0
M  V30 2223 H 197.086 4.79361 -4.47827 0
M  V30 2224 H 197.003 4.38274 -6.15996 0
M  V30 2225 H 198.271 5.42858 -5.59397 0
M  V30 2226 N 202.5 1.5196 0.417844 0
M  V30 2227 C 203.777 1.56146 1.17803 0
M  V30 2228 C 204.157 0.337275 2.08388 0
M  V30 2229 O 203.505 -0.676447 2.18258 0
M  V30 2230 C 203.715 2.88566 1.96293 0
M  V30 2231 C 205.063 3.41244 2.52662 0
M  V30 2232 O 206.087 2.90247 2.06483 0
M  V30 2233 O 204.946 4.30273 3.36938 0
M  V30 2234 H 202.04 0.628598 0.537395 0
M  V30 2235 H 204.586 1.64283 0.425331 0
M  V30 2236 H 203.358 3.69116 1.2988 0
M  V30 2237 H 202.981 2.83681 2.78587 0
M  V30 2238 N 203.978 -0.674533 1.42435 0
M  V30 2239 C 204.941 -1.76986 1.45632 0
M  V30 2240 C 205.941 -1.5708 0.343871 0
M  V30 2241 O 207.131 -1.63367 0.604709 0
M  V30 2242 C 204.263 -3.15623 1.28822 0
M  V30 2243 H 205.456 -1.75539 2.43158 0
M  V30 2244 H 203.009 -0.884189 1.28887 0
M  V30 2245 H 203.744 -3.22696 0.322193 0
M  V30 2246 H 203.529 -3.31475 2.09444 0
M  V30 2247 H 205.019 -3.95537 1.33942 0
M  V30 2248 N 205.456 -1.28612 -0.910864 0
M  V30 2249 C 206.366 -1.14643 -2.0468 0
M  V30 2250 C 207.382 -0.0723121 -1.7385 0
M  V30 2251 O 208.558 -0.282178 -1.99413 0
M  V30 2252 C 205.623 -0.812561 -3.37044 0
M  V30 2253 C 204.684 -1.96935 -3.81465 0
M  V30 2254 C 203.917 -1.65131 -5.07511 0
M  V30 2255 O 204.14 -0.567013 -5.67575 0
M  V30 2256 O 203.074 -2.49585 -5.47714 0
M  V30 2257 H 206.9 -2.1001 -2.19384 0
M  V30 2258 H 204.485 -1.07958 -1.03274 0
M  V30 2259 H 206.367 -0.640441 -4.16505 0
M  V30 2260 H 205.042 0.111426 -3.23508 0
M  V30 2261 H 203.949 -2.19664 -3.02818 0
M  V30 2262 H 205.282 -2.87414 -3.99567 0
M  V30 2263 N 206.934 1.1197 -1.10907 0
M  V30 2264 C 208.35 1.35591 -0.841852 0
M  V30 2265 C 208.55 1.94233 0.536246 0
M  V30 2266 O 207.606 2.1717 1.28816 0
M  V30 2267 C 208.919 2.29284 -1.94549 0
M  V30 2268 C 210.467 2.42862 -1.97451 0
M  V30 2269 C 210.942 3.39873 -3.07002 0
M  V30 2270 N 212.433 3.47433 -3.06341 0
M  V30 2271 C 213.168 4.22421 -3.87748 0
M  V30 2272 N 212.664 5.00432 -4.79103 0
M  V30 2273 N 214.457 4.17876 -3.75946 0
M  V30 2274 H 206.608 0.722664 -1.99728 0
M  V30 2275 H 208.871 0.380635 -0.868229 0
M  V30 2276 H 208.577 1.93378 -2.93765 0
M  V30 2277 H 208.451 3.29452 -1.83688 0
M  V30 2278 H 210.838 2.78046 -0.988645 0
M  V30 2279 H 210.919 1.42566 -2.12388 0
M  V30 2280 H 210.563 3.05417 -4.05811 0
M  V30 2281 H 210.493 4.40011 -2.89306 0
M  V30 2282 H 212.984 2.91784 -2.40147 0
M  V30 2283 H 213.297 5.55002 -5.37766 0
M  V30 2284 H 211.642 4.99612 -4.83128 0
M  V30 2285 H 214.833 3.56016 -3.03924 0
M  V30 2286 H 215.006 4.76061 -4.39624 0
M  V30 2287 N 208.412 0.89855 1.29475 0
M  V30 2288 C 209.344 0.332726 2.26772 0
M  V30 2289 C 210.357 -0.520323 1.54261 0
M  V30 2290 O 211.546 -0.337668 1.75277 0
M  V30 2291 C 208.646 -0.544334 3.345 0
M  V30 2292 C 207.819 0.282728 4.36485 0
M  V30 2293 C 206.878 -0.526982 5.23555 0
M  V30 2294 O 205.904 0.0551165 5.69173 0
M  V30 2295 N 207.106 -1.83331 5.5079 0
M  V30 2296 H 209.871 1.16897 2.75962 0
M  V30 2297 H 207.432 0.762919 1.42798 0
M  V30 2298 H 209.424 -1.09239 3.89678 0
M  V30 2299 H 207.994 -1.28127 2.85136 0
M  V30 2300 H 207.214 1.01221 3.80983 0
M  V30 2301 H 208.502 0.84918 5.01664 0
M  V30 2302 H 207.9 -2.32898 5.15534 0
M  V30 2303 H 206.457 -2.32852 6.08788 0
M  V30 2304 N 209.89 -1.43072 0.660911 0
M  V30 2305 C 210.82 -2.33497 -0.0122829 0
M  V30 2306 C 211.801 -1.49903 -0.803925 0
M  V30 2307 O 212.986 -1.78546 -0.763864 0
M  V30 2308 C 210.116 -3.33363 -0.973994 0
M  V30 2309 C 209.07 -4.27003 -0.291928 0
M  V30 2310 C 208.396 -5.16967 -1.36562 0
M  V30 2311 C 209.696 -5.15816 0.820462 0
M  V30 2312 H 211.39 -2.90038 0.742873 0
M  V30 2313 H 208.936 -1.39461 0.358688 0
M  V30 2314 H 210.889 -3.95524 -1.45392 0
M  V30 2315 H 209.613 -2.75095 -1.7604 0
M  V30 2316 H 208.272 -3.66217 0.167623 0
M  V30 2317 H 207.92 -4.55034 -2.14366 0
M  V30 2318 H 207.62 -5.80441 -0.914454 0
M  V30 2319 H 209.144 -5.82003 -1.84675 0
M  V30 2320 H 210.558 -5.71742 0.422366 0
M  V30 2321 H 208.955 -5.8805 1.19656 0
M  V30 2322 H 210.025 -4.55045 1.67518 0
M  V30 2323 N 211.368 -0.403325 -1.52352 0
M  V30 2324 C 212.298 0.416205 -2.29761 0
M  V30 2325 C 213.279 1.05123 -1.33728 0
M  V30 2326 O 214.464 1.06134 -1.62632 0
M  V30 2327 C 211.594 1.53624 -3.11475 0
M  V30 2328 C 210.548 1.02653 -4.15507 0
M  V30 2329 C 209.874 2.23971 -4.85532 0
M  V30 2330 C 211.174 0.08463 -5.22231 0
M  V30 2331 H 212.868 -0.229701 -2.98518 0
M  V30 2332 H 210.414 -0.111913 -1.43564 0
M  V30 2333 H 212.367 2.1165 -3.64393 0
M  V30 2334 H 211.091 2.20994 -2.40477 0
M  V30 2335 H 209.75 0.46871 -3.63591 0
M  V30 2336 H 209.398 2.89883 -4.11068 0
M  V30 2337 H 209.098 1.90521 -5.55856 0
M  V30 2338 H 210.622 2.82614 -5.41259 0
M  V30 2339 H 212.036 0.573509 -5.70424 0
M  V30 2340 H 210.433 -0.160783 -5.99885 0
M  V30 2341 H 211.503 -0.86237 -4.7717 0
M  V30 2342 N 212.846 1.57033 -0.133567 0
M  V30 2343 C 213.809 2.14897 0.796995 0
M  V30 2344 C 214.809 1.0874 1.18458 0
M  V30 2345 O 215.999 1.34446 1.1077 0
M  V30 2346 C 213.131 2.70112 2.07973 0
M  V30 2347 H 214.324 2.98457 0.293873 0
M  V30 2348 H 211.877 1.55871 0.115787 0
M  V30 2349 H 212.612 1.9018 2.62682 0
M  V30 2350 H 212.397 3.47764 1.81115 0
M  V30 2351 H 213.887 3.14738 2.74462 0
M  V30 2352 N 214.325 -0.140222 1.56975 0
M  V30 2353 C 215.736 -0.699596 1.73097 0
M  V30 2354 C 216.087 -1.8134 0.749022 0
M  V30 2355 O 215.212 -2.16241 -0.0828503 0
M  V30 2356 C 215.807 -1.27582 3.1386 0
M  V30 2357 C 214.366 -1.78169 3.31561 0
M  V30 2358 C 213.513 -0.672855 2.69013 0
M  V30 2359 H 216.464 0.0855115 1.58469 0
M  V30 2360 H 216.485 -2.14561 3.14235 0
M  V30 2361 H 215.997 -0.464955 3.85305 0
M  V30 2362 H 214.098 -2.61801 2.65124 0
M  V30 2363 H 214.211 -1.90574 4.39566 0
M  V30 2364 H 212.575 -1.10118 2.29665 0
M  V30 2365 H 213.358 0.126679 3.43066 0
M  V30 2366 N 215.803 -1.52179 -0.40978 0
M  V30 2367 C 217.051 -1.65878 -1.15451 0
M  V30 2368 C 217.372 -0.390771 -1.91044 0
M  V30 2369 O 216.642 0.594323 -1.86667 0
M  V30 2370 H 215.222 -0.611405 -0.429177 0
M  V30 2371 H 217.884 -1.89219 -0.467134 0
M  V30 2372 H 216.98 -2.49954 -1.86894 0
M  V30 2373 N 217.281 0.66697 -1.42791 0
M  V30 2374 C 218.229 1.80157 -1.47127 0
M  V30 2375 C 219.223 1.65825 -0.346199 0
M  V30 2376 O 220.429 1.72338 -0.519572 0
M  V30 2377 H 216.804 0.594158 -0.460956 0
M  V30 2378 H 218.775 1.73619 -2.42692 0
M  V30 2379 C 217.524 3.18351 -1.39813 0
M  V30 2380 H 216.847 3.3001 -2.25684 0
M  V30 2381 H 218.287 3.97736 -1.46908 0
M  V30 2382 C 216.746 3.36707 -0.11391 0
M  V30 2383 O 217.276 3.93027 0.830241 0
M  V30 2384 N 215.482 2.90586 -0.0285295 0
M  V30 2385 H 215.029 2.4494 -0.79764 0
M  V30 2386 H 214.987 3.03245 0.830063 0
M  V30 2387 N 218.759 1.29093 0.90403 0
M  V30 2388 C 219.984 1.19809 1.69294 0
M  V30 2389 C 220.409 -0.238481 1.86582 0
M  V30 2390 O 219.767 -1.1723 1.383 0
M  V30 2391 C 219.815 1.91202 3.05736 0
M  V30 2392 O 218.919 1.22611 3.93752 0
M  V30 2393 H 218.26 0.415385 0.518027 0
M  V30 2394 H 220.79 1.70586 1.12967 0
M  V30 2395 H 220.8 1.99487 3.55906 0
M  V30 2396 H 219.475 2.95692 2.92471 0
M  V30 2397 H 218.052 1.22554 3.52186 0
M  V30 2398 N 220.237 -1.11381 1.11499 0
M  V30 2399 C 221.2 -2.15622 0.777153 0
M  V30 2400 C 222.2 -1.59504 -0.203779 0
M  V30 2401 O 223.39 -1.74188 0.020782 0
M  V30 2402 C 220.522 -3.40556 0.153116 0
M  V30 2403 H 221.715 -2.47021 1.70061 0
M  V30 2404 H 219.268 -1.26577 0.916952 0
M  V30 2405 H 220.003 -3.14767 -0.780536 0
M  V30 2406 H 219.788 -3.8257 0.859238 0
M  V30 2407 H 221.278 -4.17546 -0.0671044 0
M  V30 2408 N 221.715 -0.905404 -1.28997 0
M  V30 2409 C 222.963 -0.533192 -1.9494 0
M  V30 2410 C 223.284 0.924618 -1.71685 0
M  V30 2411 O 222.554 1.65268 -1.05183 0
M  V30 2412 H 221.134 -0.194194 -0.721317 0
M  V30 2413 H 223.796 -1.15294 -1.57141 0
M  V30 2414 H 222.892 -0.72059 -3.03667 0
M  V30 2415 N 223.193 1.4272 -0.668489 0
M  V30 2416 C 224.156 2.292 0.00448567 0
M  V30 2417 C 225.156 1.43001 0.735339 0
M  V30 2418 O 226.346 1.64461 0.57429 0
M  V30 2419 C 223.478 3.25375 1.01705 0
M  V30 2420 H 224.671 2.90199 -0.756608 0
M  V30 2421 H 222.224 1.50254 -0.430506 0
M  V30 2422 H 222.959 2.69301 1.80686 0
M  V30 2423 H 222.744 3.88944 0.496463 0
M  V30 2424 H 224.234 3.90245 1.48655 0
M  V30 2425 N 224.671 0.411399 1.52136 0
M  V30 2426 C 225.918 -0.163645 2.01838 0
M  V30 2427 C 226.246 -1.4495 1.29691 0
M  V30 2428 O 225.501 -1.91725 0.392431 0
M  V30 2429 C 225.8 -0.455872 3.54481 0
M  V30 2430 C 225.466 0.741055 4.44769 0
M  V30 2431 C 224.128 1.06936 4.69167 0
M  V30 2432 C 226.48 1.54075 4.97906 0
M  V30 2433 C 223.808 2.19851 5.43951 0
M  V30 2434 C 226.16 2.66067 5.73926 0
M  V30 2435 C 224.824 2.99381 5.96596 0
M  V30 2436 H 224.094 -0.0598821 0.738576 0
M  V30 2437 H 226.741 0.553283 1.83333 0
M  V30 2438 H 225.046 -1.2544 3.71177 0
M  V30 2439 H 226.743 -0.913802 3.90449 0
M  V30 2440 H 223.333 0.475192 4.25958 0
M  V30 2441 H 227.517 1.30033 4.78963 0
M  V30 2442 H 222.773 2.46006 5.59724 0
M  V30 2443 H 226.947 3.28419 6.14096 0
M  V30 2444 H 224.574 3.86992 6.54325 0
M  V30 2445 N 226.149 -1.5696 0.141893 0
M  V30 2446 C 227.079 -2.19516 -0.795936 0
M  V30 2447 C 228.06 -1.14187 -1.26077 0
M  V30 2448 O 229.245 -1.42511 -1.31925 0
M  V30 2449 C 226.375 -2.81272 -2.03723 0
M  V30 2450 C 225.329 -3.92384 -1.70936 0
M  V30 2451 C 224.655 -4.41052 -3.02287 0
M  V30 2452 C 225.955 -5.13403 -0.959954 0
M  V30 2453 H 227.649 -2.98138 -0.274596 0
M  V30 2454 H 225.195 -1.43406 -0.130636 0
M  V30 2455 H 227.148 -3.237 -2.69808 0
M  V30 2456 H 225.872 -1.99973 -2.58221 0
M  V30 2457 H 224.531 -3.50566 -1.07232 0
M  V30 2458 H 224.179 -3.56582 -3.54765 0
M  V30 2459 H 223.879 -5.15993 -2.81114 0
M  V30 2460 H 225.403 -4.86146 -3.69451 0
M  V30 2461 H 226.817 -5.52706 -1.52279 0
M  V30 2462 H 225.214 -5.94073 -0.848357 0
M  V30 2463 H 226.284 -4.84875 0.0492434 0
M  V30 2464 N 227.627 0.131896 -1.57047 0
M  V30 2465 C 228.876 0.84044 -1.83356 0
M  V30 2466 C 229.189 1.81646 -0.725535 0
M  V30 2467 O 230.395 2.57025 -0.874659 0
M  V30 2468 C 228.851 1.54528 -3.25037 0
M  V30 2469 C 228.459 0.610902 -4.43815 0
M  V30 2470 C 230.203 2.23972 -3.60606 0
M  V30 2471 C 228.11 1.31823 -5.76521 0
M  V30 2472 H 227.04 0.317599 -0.683847 0
M  V30 2473 H 229.691 0.0931561 -1.83263 0
M  V30 2474 H 228.073 2.33873 -3.19561 0
M  V30 2475 H 229.247 -0.148407 -4.60561 0
M  V30 2476 H 227.562 0.0241016 -4.16393 0
M  V30 2477 H 230.159 2.77558 -4.57018 0
M  V30 2478 H 230.502 3.01173 -2.87403 0
M  V30 2479 H 231.035 1.51529 -3.6781 0
M  V30 2480 H 227.774 0.587771 -6.52859 0
M  V30 2481 H 227.294 2.04987 -5.63685 0
M  V30 2482 H 228.973 1.855 -6.19838 0
M  V30 2483 N 229.106 1.52395 0.401703 0
M  V30 2484 C 230.522 1.41363 0.740864 0
M  V30 2485 C 230.722 0.523982 1.94568 0
M  V30 2486 O 229.778 -0.00741204 2.52499 0
M  V30 2487 C 231.091 2.84011 0.987847 0
M  V30 2488 C 232.639 2.93404 1.09011 0
M  V30 2489 C 233.114 4.37036 1.3698 0
M  V30 2490 N 234.605 4.40304 1.43829 0
M  V30 2491 C 235.34 5.48508 1.67112 0
M  V30 2492 N 234.836 6.66819 1.87949 0
M  V30 2493 N 236.629 5.36034 1.69187 0
M  V30 2494 H 228.78 2.08765 -0.391262 0
M  V30 2495 H 231.043 0.941265 -0.112798 0
M  V30 2496 H 230.749 3.51265 0.174835 0
M  V30 2497 H 230.623 3.25502 1.906 0
M  V30 2498 H 233.01 2.26325 1.8937 0
M  V30 2499 H 233.091 2.55359 0.15015 0
M  V30 2500 H 232.735 5.04676 0.571353 0
M  V30 2501 H 232.665 4.72623 2.3224 0
M  V30 2502 H 235.156 3.55024 1.29486 0
M  V30 2503 H 235.469 7.45063 2.05185 0
M  V30 2504 H 233.814 6.6987 1.85199 0
M  V30 2505 H 237.005 4.42579 1.52451 0
M  V30 2506 H 237.178 6.20434 1.86993 0
M  V30 2507 N 230.584 -0.659388 1.43143 0
M  V30 2508 C 231.494 -1.80167 1.50256 0
M  V30 2509 C 232.51 -1.69571 0.390106 0
M  V30 2510 O 233.686 -1.90849 0.643319 0
M  V30 2511 C 230.751 -3.16409 1.41725 0
M  V30 2512 C 229.812 -3.38848 2.63591 0
M  V30 2513 C 229.045 -4.68591 2.55458 0
M  V30 2514 O 229.268 -5.47532 1.59891 0
M  V30 2515 O 228.202 -4.92614 3.45854 0
M  V30 2516 H 232.028 -1.77121 2.46702 0
M  V30 2517 H 229.613 -0.817092 1.25076 0
M  V30 2518 H 231.495 -3.9768 1.39387 0
M  V30 2519 H 230.17 -3.20059 0.484118 0
M  V30 2520 H 229.077 -2.57366 2.71502 0
M  V30 2521 H 230.41 -3.4004 3.55856 0
M  V30 2522 N 232.062 -1.29571 -0.897171 0
M  V30 2523 C 233.287 -1.20705 -1.68656 0
M  V30 2524 C 233.712 0.228582 -1.86706 0
M  V30 2525 O 233.07 1.16494 -1.3892 0
M  V30 2526 C 233.118 -1.9282 -3.04717 0
M  V30 2527 O 232.222 -1.24697 -3.93096 0
M  V30 2528 H 231.563 -0.418126 -0.515816 0
M  V30 2529 H 234.093 -1.71183 -1.12061 0
M  V30 2530 H 234.103 -2.01372 -3.54843 0
M  V30 2531 H 232.778 -2.97239 -2.90899 0
M  V30 2532 H 231.355 -1.2442 -3.51531 0
M  V30 2533 N 233.54 1.10788 -1.12088 0
M  V30 2534 C 234.45 2.20599 -0.798338 0
M  V30 2535 C 235.466 1.72712 0.21135 0
M  V30 2536 O 236.642 2.01348 0.0458477 0
M  V30 2537 C 233.707 3.45771 -0.253674 0
M  V30 2538 C 232.768 4.08411 -1.32283 0
M  V30 2539 C 232.001 5.27608 -0.80406 0
M  V30 2540 O 232.224 5.69241 0.363478 0
M  V30 2541 O 231.158 5.8101 -1.57198 0
M  V30 2542 H 234.984 2.50614 -1.7154 0
M  V30 2543 H 232.569 1.19454 -0.897275 0
M  V30 2544 H 234.451 4.21376 0.0453691 0
M  V30 2545 H 233.126 3.1739 0.636005 0
M  V30 2546 H 232.033 3.34507 -1.67499 0
M  V30 2547 H 233.366 4.40986 -2.18614 0
M  V30 2548 N 235.018 0.912232 1.28515 0
M  V30 2549 C 236.246 0.560416 1.99166 0
M  V30 2550 C 236.661 -0.857927 1.68182 0
M  V30 2551 O 236.018 -1.56805 0.933733 0
M  V30 2552 C 236.069 0.758142 3.53461 0
M  V30 2553 O 235.79 2.12067 3.83352 0
M  V30 2554 C 237.291 0.412954 4.41372 0
M  V30 2555 H 234.511 0.213805 0.636026 0
M  V30 2556 H 237.055 1.22502 1.63749 0
M  V30 2557 H 235.21 0.140556 3.87145 0
M  V30 2558 H 235.624 2.15923 4.77993 0
M  V30 2559 H 237.098 0.60208 5.48707 0
M  V30 2560 H 237.575 -0.65073 4.34353 0
M  V30 2561 H 238.181 1.00802 4.13182 0
M  V30 2562 N 236.496 -1.42363 0.676048 0
M  V30 2563 C 237.426 -2.33497 0.0124832 0
M  V30 2564 C 238.407 -1.50748 -0.787981 0
M  V30 2565 O 239.592 -1.79346 -0.744884 0
M  V30 2566 C 236.722 -3.34377 -0.938582 0
M  V30 2567 C 235.676 -4.27289 -0.246622 0
M  V30 2568 C 235.002 -5.18386 -1.31071 0
M  V30 2569 C 236.302 -5.14916 0.875125 0
M  V30 2570 H 237.996 -2.89233 0.773593 0
M  V30 2571 H 235.542 -1.39073 0.37346 0
M  V30 2572 H 237.495 -3.97044 -1.41188 0
M  V30 2573 H 236.219 -2.76947 -1.73113 0
M  V30 2574 H 234.878 -3.66018 0.206456 0
M  V30 2575 H 234.526 -4.57282 -2.09528 0
M  V30 2576 H 234.226 -5.81378 -0.852839 0
M  V30 2577 H 235.75 -5.83929 -1.78492 0
M  V30 2578 H 237.164 -5.71262 0.482983 0
M  V30 2579 H 235.561 -5.86747 1.25887 0
M  V30 2580 H 236.631 -4.53242 1.72335 0
M  V30 2581 N 237.974 -0.419461 -1.51915 0
M  V30 2582 C 238.921 0.400927 -2.27291 0
M  V30 2583 C 239.891 1.03224 -1.30131 0
M  V30 2584 O 241.076 1.05455 -1.59009 0
M  V30 2585 C 238.216 1.50603 -3.10504 0
M  V30 2586 C 237.329 0.89462 -4.22635 0
M  V30 2587 C 236.464 1.97328 -4.93189 0
M  V30 2588 C 235.503 1.33935 -5.97267 0
M  V30 2589 N 234.64 2.3586 -6.61298 0
M  V30 2590 H 239.48 -0.248251 -2.96964 0
M  V30 2591 H 237.017 -0.134266 -1.46486 0
M  V30 2592 H 238.975 2.15783 -3.57062 0
M  V30 2593 H 237.605 2.12509 -2.42981 0
M  V30 2594 H 236.657 0.131583 -3.80172 0
M  V30 2595 H 237.969 0.391641 -4.9726 0
M  V30 2596 H 237.123 2.70211 -5.43204 0
M  V30 2597 H 235.862 2.50994 -4.18155 0
M  V30 2598 H 234.867 0.595896 -5.46561 0
M  V30 2599 H 236.092 0.810252 -6.74249 0
M  V30 2600 H 234.038 2.88639 -5.89087 0
M  V30 2601 H 233.955 1.90403 -7.3163 0
M  V30 2602 H 235.223 3.08282 -7.15949 0
M  V30 2603 N 239.452 1.56882 -0.150215 0
M  V30 2604 C 240.7 1.9584 0.499105 0
M  V30 2605 C 241.021 1.03623 1.65188 0
M  V30 2606 O 240.291 0.0984084 1.95653 0
M  V30 2607 H 238.871 0.723119 0.187373 0
M  V30 2608 H 241.533 1.9358 -0.226466 0
M  V30 2609 H 240.629 2.99638 0.873122 0
M  V30 2610 N 240.93 -0.123565 1.57115 0
M  V30 2611 C 242.155 -0.850398 1.89164 0
M  V30 2612 C 242.58 -1.7286 0.741688 0
M  V30 2613 O 241.938 -1.78665 -0.307958 0
M  V30 2614 C 241.986 -1.66353 3.19936 0
M  V30 2615 O 241.09 -2.77004 3.0552 0
M  V30 2616 H 240.431 -0.235454 0.620852 0
M  V30 2617 H 242.961 -0.107335 2.04318 0
M  V30 2618 H 242.971 -2.05372 3.52543 0
M  V30 2619 H 241.646 -1.01881 4.03228 0
M  V30 2620 H 240.223 -2.41221 2.84371 0
M  V30 2621 N 242.408 -1.52605 -0.393616 0
M  V30 2622 C 243.655 -1.67424 -1.1391 0
M  V30 2623 C 243.983 -0.411859 -1.90089 0
M  V30 2624 O 243.238 0.605626 -1.86093 0
M  V30 2625 C 243.537 -2.85721 -2.14705 0
M  V30 2626 C 243.203 -4.23342 -1.55218 0
M  V30 2627 C 241.865 -4.60771 -1.3872 0
M  V30 2628 C 244.217 -5.09041 -1.11924 0
M  V30 2629 C 241.545 -5.81563 -0.774689 0
M  V30 2630 C 243.897 -6.30452 -0.520853 0
M  V30 2631 C 242.561 -6.66617 -0.343134 0
M  V30 2632 H 241.831 -0.612648 -0.416826 0
M  V30 2633 H 244.478 -1.8674 -0.424315 0
M  V30 2634 H 242.783 -2.60803 -2.92385 0
M  V30 2635 H 244.48 -2.94382 -2.72288 0
M  V30 2636 H 241.07 -3.93855 -1.69045 0
M  V30 2637 H 245.254 -4.80695 -1.23473 0
M  V30 2638 H 240.51 -6.08196 -0.625154 0
M  V30 2639 H 244.684 -6.96175 -0.177065 0
M  V30 2640 H 242.311 -7.60083 0.133571 0
M  V30 2641 N 243.887 0.651787 -1.4349 0
M  V30 2642 C 245.112 1.44434 -1.48841 0
M  V30 2643 C 245.537 1.8779 -0.107955 0
M  V30 2644 O 244.895 1.57464 0.898602 0
M  V30 2645 C 244.943 2.65458 -2.44059 0
M  V30 2646 O 244.047 3.64566 -1.92784 0
M  V30 2647 H 243.388 0.433005 -0.503391 0
M  V30 2648 H 245.918 0.797451 -1.88419 0
M  V30 2649 H 245.928 3.13255 -2.6141 0
M  V30 2650 H 244.603 2.33244 -3.4434 0
M  V30 2651 H 243.18 3.23716 -1.851 0
M  V30 2652 N 245.365 1.30045 0.890287 0
M  V30 2653 C 246.295 1.18541 2.01172 0
M  V30 2654 C 247.276 0.0773356 1.69924 0
M  V30 2655 O 248.461 0.25845 1.92473 0
M  V30 2656 C 245.591 0.870941 3.36202 0
M  V30 2657 C 244.545 1.93637 3.81692 0
M  V30 2658 C 243.871 1.475 5.13953 0
M  V30 2659 C 245.171 3.34666 4.00994 0
M  V30 2660 H 246.865 2.12359 2.11054 0
M  V30 2661 H 244.411 1.02238 1.01407 0
M  V30 2662 H 246.364 0.777141 4.14172 0
M  V30 2663 H 245.088 -0.102926 3.26438 0
M  V30 2664 H 243.747 2.01972 3.05946 0
M  V30 2665 H 243.395 0.489551 5.00612 0
M  V30 2666 H 243.095 2.1876 5.4536 0
M  V30 2667 H 244.619 1.39489 5.94454 0
M  V30 2668 H 246.033 3.2912 4.69417 0
M  V30 2669 H 244.43 4.03966 4.43769 0
M  V30 2670 H 245.5 3.76949 3.05021 0
M  V30 2671 N 246.843 -1.10192 1.12674 0
M  V30 2672 C 248.068 -1.86523 0.906853 0
M  V30 2673 C 248.493 -1.80221 -0.538711 0
M  V30 2674 O 247.851 -1.17396 -1.38158 0
M  V30 2675 C 247.899 -3.32758 1.3894 0
M  V30 2676 O 247.003 -4.08449 0.5695 0
M  V30 2677 H 246.344 -0.578678 0.325619 0
M  V30 2678 H 248.874 -1.39203 1.49946 0
M  V30 2679 H 248.884 -3.83608 1.38958 0
M  V30 2680 H 247.559 -3.36661 2.44197 0
M  V30 2681 H 246.136 -3.67427 0.636528 0
M  V30 2682 N 248.321 -0.919034 -1.28029 0
M  V30 2683 C 249.567 -0.555757 -1.95036 0
M  V30 2684 C 249.9 0.899198 -1.72128 0
M  V30 2685 O 249.175 1.64023 -1.04531 0
M  V30 2686 C 249.458 -0.872024 -3.49382 0
M  V30 2687 C 249.311 -2.3801 -3.81669 0
M  V30 2688 C 250.63 -0.37185 -4.38526 0
M  V30 2689 H 247.749 -0.203386 -0.708381 0
M  V30 2690 H 250.391 -1.14924 -1.51303 0
M  V30 2691 H 248.541 -0.366946 -3.86763 0
M  V30 2692 H 250.213 -2.9562 -3.54128 0
M  V30 2693 H 248.456 -2.83289 -3.28526 0
M  V30 2694 H 249.127 -2.55192 -4.8947 0
M  V30 2695 H 251.603 -0.804602 -4.08247 0
M  V30 2696 H 250.479 -0.622173 -5.45362 0
M  V30 2697 H 250.74 0.727934 -4.36066 0
M  V30 2698 N 249.799 1.42003 -0.683588 0
M  V30 2699 C 251.215 1.55625 -0.353976 0
M  V30 2700 C 251.415 1.66151 1.14 0
M  V30 2701 O 250.471 1.63329 1.92561 0
M  V30 2702 C 251.784 2.80171 -1.092 0
M  V30 2703 C 253.332 2.93954 -1.07518 0
M  V30 2704 C 253.807 4.21372 -1.79471 0
M  V30 2705 N 255.298 4.28303 -1.76381 0
M  V30 2706 C 256.033 5.25729 -2.28904 0
M  V30 2707 N 255.529 6.29254 -2.89846 0
M  V30 2708 N 257.322 5.17586 -2.19228 0
M  V30 2709 H 249.473 1.33415 -1.6527 0
M  V30 2710 H 251.736 0.64282 -0.696769 0
M  V30 2711 H 251.442 2.78561 -2.14701 0
M  V30 2712 H 251.316 3.7133 -0.662862 0
M  V30 2713 H 253.703 2.95086 -0.028475 0
M  V30 2714 H 253.784 2.04002 -1.54328 0
M  V30 2715 H 253.428 4.21001 -2.84114 0
M  V30 2716 H 253.358 5.10275 -1.30104 0
M  V30 2717 H 255.849 3.54119 -1.31939 0
M  V30 2718 H 256.162 6.99964 -3.27522 0
M  V30 2719 H 254.507 6.29791 -2.93919 0
M  V30 2720 H 257.698 4.35631 -1.71299 0
M  V30 2721 H 257.871 5.93348 -2.60466 0
M  V30 2722 N 251.277 0.427512 1.51691 0
M  V30 2723 C 252.554 -0.201684 1.94557 0
M  V30 2724 C 252.934 -1.60981 1.36559 0
M  V30 2725 O 252.282 -2.21814 0.548702 0
M  V30 2726 C 252.492 -0.189394 3.48486 0
M  V30 2727 C 253.84 -0.39978 4.22714 0
M  V30 2728 O 254.864 -0.267945 3.55191 0
M  V30 2729 O 253.723 -0.661249 5.42485 0
M  V30 2730 H 250.817 -0.135261 0.815864 0
M  V30 2731 H 253.363 0.484782 1.62628 0
M  V30 2732 H 252.135 0.795431 3.8313 0
M  V30 2733 H 251.758 -0.919187 3.86829 0
M  V30 2734 N 252.755 -1.56801 0.158532 0
M  V30 2735 C 254.002 -1.9649 -0.489679 0
M  V30 2736 C 254.33 -1.04394 -1.6411 0
M  V30 2737 O 253.585 -0.0754401 -1.95555 0
M  V30 2738 C 253.884 -3.4235 -1.02623 0
M  V30 2739 C 253.55 -4.50899 0.00794526 0
M  V30 2740 C 252.212 -4.80312 0.292207 0
M  V30 2741 C 254.564 -5.16333 0.710584 0
M  V30 2742 C 251.892 -5.72461 1.28472 0
M  V30 2743 C 254.244 -6.09553 1.69199 0
M  V30 2744 C 252.908 -6.37339 1.98383 0
M  V30 2745 H 252.178 -0.719009 -0.179186 0
M  V30 2746 H 254.825 -1.8989 0.247798 0
M  V30 2747 H 253.13 -3.45838 -1.84128 0
M  V30 2748 H 254.827 -3.70393 -1.53656 0
M  V30 2749 H 251.417 -4.28015 -0.22379 0
M  V30 2750 H 255.601 -4.93732 0.504174 0
M  V30 2751 H 250.857 -5.92278 1.51714 0
M  V30 2752 H 255.031 -6.59327 2.24189 0
M  V30 2753 H 252.658 -7.08546 2.7544 0
M  V30 2754 N 254.233 0.115231 -1.57178 0
M  V30 2755 C 255.51 0.852873 -1.76027 0
M  V30 2756 C 255.89 1.97892 -0.73498 0
M  V30 2757 O 255.238 2.27232 0.24036 0
M  V30 2758 C 255.448 1.36608 -3.21153 0
M  V30 2759 C 256.796 1.81692 -3.83762 0
M  V30 2760 O 257.82 1.46278 -3.24779 0
M  V30 2761 O 256.679 2.47104 -4.87444 0
M  V30 2762 H 253.773 0.405296 -0.720877 0
M  V30 2763 H 256.319 0.0986785 -1.69413 0
M  V30 2764 H 255.091 0.558357 -3.87296 0
M  V30 2765 H 254.714 2.18287 -3.3232 0
M  V30 2766 N 255.711 1.52812 0.385517 0
M  V30 2767 C 257.122 1.5993 0.963293 0
M  V30 2768 C 257.473 0.454302 1.90868 0
M  V30 2769 O 256.598 -0.422132 2.12243 0
M  V30 2770 C 257.193 2.89871 1.75387 0
M  V30 2771 C 255.752 2.99389 2.28129 0
M  V30 2772 C 254.899 2.55071 1.08783 0
M  V30 2773 H 257.85 1.5784 0.164948 0
M  V30 2774 H 257.871 2.76553 2.61341 0
M  V30 2775 H 257.383 3.73186 1.06554 0
M  V30 2776 H 255.484 2.20619 3.00263 0
M  V30 2777 H 255.597 4.04096 2.57377 0
M  V30 2778 H 253.961 2.09473 1.4489 0
M  V30 2779 H 254.744 3.40785 0.414807 0
M  V30 2780 N 257.189 -0.644168 1.43834 0
M  V30 2781 C 258.435 -1.40603 1.46146 0
M  V30 2782 C 258.768 -1.93997 0.0887717 0
M  V30 2783 O 258.043 -1.72854 -0.891724 0
M  V30 2784 C 258.326 -2.58086 2.51124 0
M  V30 2785 C 258.179 -2.10126 3.97702 0
M  V30 2786 C 259.498 -3.60291 2.52742 0
M  V30 2787 H 256.617 -0.509905 0.532134 0
M  V30 2788 H 259.259 -0.729502 1.75437 0
M  V30 2789 H 257.409 -3.15801 2.26278 0
M  V30 2790 H 259.081 -1.57342 4.33637 0
M  V30 2791 H 257.324 -1.41419 4.10101 0
M  V30 2792 H 257.995 -2.94649 4.66783 0
M  V30 2793 H 260.471 -3.12352 2.7491 0
M  V30 2794 H 259.347 -4.40032 3.28121 0
M  V30 2795 H 259.608 -4.1349 1.56455 0
M  V30 2796 N 258.668 -1.30515 -0.883378 0
M  V30 2797 C 259.618 -1.13641 -1.9766 0
M  V30 2798 C 260.602 -0.0511314 -1.60819 0
M  V30 2799 O 261.794 -0.274623 -1.74857 0
M  V30 2800 C 258.923 -0.831976 -3.33066 0
M  V30 2801 C 258.009 -1.95759 -3.76217 0
M  V30 2802 N 258.4 -3.20313 -3.9145 0
M  V30 2803 C 256.698 -1.85431 -4.05625 0
M  V30 2804 C 257.399 -3.93856 -4.2808 0
M  V30 2805 N 256.375 -3.21919 -4.38029 0
M  V30 2806 H 260.177 -2.08106 -2.07531 0
M  V30 2807 H 257.691 -1.21877 -1.0733 0
M  V30 2808 H 259.688 -0.692102 -4.11115 0
M  V30 2809 H 258.348 0.104588 -3.24532 0
M  V30 2810 H 259.359 -3.55583 -3.76538 0
M  V30 2811 H 256.036 -0.991531 -4.05555 0
M  V30 2812 H 257.426 -5.01125 -4.47575 0
M  V30 2813 N 260.146 1.09593 -1.13257 0
M  V30 2814 C 261.394 1.81375 -0.891492 0
M  V30 2815 C 261.715 1.86049 0.584009 0
M  V30 2816 O 260.985 1.34481 1.42449 0
M  V30 2817 H 259.565 0.671708 -0.326828 0
M  V30 2818 H 262.227 1.3256 -1.42877 0
M  V30 2819 H 261.323 2.84612 -1.28071 0
M  V30 2820 N 261.624 0.925811 1.2754 0
M  V30 2821 C 262.901 0.483726 1.89524 0
M  V30 2822 C 263.281 -1.03809 1.83812 0
M  V30 2823 O 262.629 -1.89143 1.28207 0
M  V30 2824 C 262.839 1.02769 3.33526 0
M  V30 2825 C 264.187 1.08703 4.10449 0
M  V30 2826 O 265.211 0.977175 3.42534 0
M  V30 2827 O 264.07 1.25599 5.31871 0
M  V30 2828 H 261.164 0.15529 0.812289 0
M  V30 2829 H 263.71 1.01738 1.35822 0
M  V30 2830 H 262.482 2.07155 3.31967 0
M  V30 2831 H 262.105 0.475567 3.94746 0
M  V30 2832 N 263.102 -1.41638 0.69111 0
M  V30 2833 C 264.348 -2.01598 0.220519 0
M  V30 2834 C 264.681 -1.54594 -1.17535 0
M  V30 2835 O 263.956 -0.755177 -1.79241 0
M  V30 2836 C 264.239 -3.59062 0.273243 0
M  V30 2837 C 264.092 -4.16203 1.70573 0
M  V30 2838 C 265.411 -4.38546 -0.369457 0
M  V30 2839 H 262.53 -0.732468 0.0816045 0
M  V30 2840 H 265.172 -1.68445 0.878986 0
M  V30 2841 H 263.322 -3.87435 -0.287411 0
M  V30 2842 H 264.994 -3.98722 2.31989 0
M  V30 2843 H 263.237 -3.71414 2.2413 0
M  V30 2844 H 263.908 -5.25358 1.69419 0
M  V30 2845 H 266.384 -4.1596 0.107977 0
M  V30 2846 H 265.26 -5.48069 -0.302002 0
M  V30 2847 H 265.521 -4.17662 -1.44951 0
M  V30 2848 N 264.58 -0.43555 -1.51462 0
M  V30 2849 C 265.829 0.133007 -2.01261 0
M  V30 2850 C 266.142 1.43942 -1.32439 0
M  V30 2851 O 267.348 2.09081 -1.73198 0
M  V30 2852 C 265.804 0.287581 -3.58749 0
M  V30 2853 C 265.412 -1.00829 -4.36506 0
M  V30 2854 C 267.156 0.810004 -4.167 0
M  V30 2855 C 265.063 -0.819454 -5.85695 0
M  V30 2856 H 263.993 0.0534822 -0.752101 0
M  V30 2857 H 266.644 -0.565038 -1.74584 0
M  V30 2858 H 265.026 1.04859 -3.81865 0
M  V30 2859 H 266.2 -1.77749 -4.25138 0
M  V30 2860 H 264.515 -1.45911 -3.89999 0
M  V30 2861 H 267.112 0.967743 -5.2587 0
M  V30 2862 H 267.455 1.79196 -3.75758 0
M  V30 2863 H 267.988 0.107357 -3.97655 0
M  V30 2864 H 264.727 -1.77374 -6.31046 0
M  V30 2865 H 264.247 -0.0900208 -5.99732 0
M  V30 2866 H 265.926 -0.471949 -6.45276 0
M  V30 2867 N 266.058 1.56714 -0.166846 0
M  V30 2868 C 267.005 2.17746 0.765193 0
M  V30 2869 C 267.975 1.11614 1.23011 0
M  V30 2870 O 269.16 1.39745 1.29908 0
M  V30 2871 C 266.3 2.81882 1.9909 0
M  V30 2872 C 265.413 4.02462 1.56997 0
M  V30 2873 C 264.548 4.54537 2.749 0
M  V30 2874 C 263.587 5.67538 2.29275 0
M  V30 2875 N 262.724 6.14142 3.40255 0
M  V30 2876 H 267.564 2.97048 0.237952 0
M  V30 2877 H 265.101 1.4672 0.105725 0
M  V30 2878 H 267.059 3.17221 2.70974 0
M  V30 2879 H 265.689 2.05191 2.49192 0
M  V30 2880 H 264.741 3.72973 0.748037 0
M  V30 2881 H 266.053 4.84273 1.19503 0
M  V30 2882 H 265.207 4.92035 3.54946 0
M  V30 2883 H 263.946 3.71774 3.1565 0
M  V30 2884 H 262.951 5.29597 1.47674 0
M  V30 2885 H 264.176 6.52099 1.89588 0
M  V30 2886 H 262.122 5.3431 3.8059 0
M  V30 2887 H 262.039 6.9093 3.06841 0
M  V30 2888 H 263.307 6.56289 4.206 0
M  V30 2889 N 267.536 -0.106894 1.57237 0
M  V30 2890 C 268.486 -1.1366 1.9765 0
M  V30 2891 C 269.47 -1.36416 0.853203 0
M  V30 2892 O 270.662 -1.37305 1.11697 0
M  V30 2893 C 267.791 -2.46 2.39455 0
M  V30 2894 C 266.877 -2.26668 3.58445 0
M  V30 2895 N 267.268 -1.77176 4.73754 0
M  V30 2896 C 265.566 -2.57279 3.64312 0
M  V30 2897 C 266.267 -1.71836 5.5574 0
M  V30 2898 N 265.243 -2.16623 4.98573 0
M  V30 2899 H 269.045 -0.74669 2.84256 0
M  V30 2900 H 266.559 -0.314483 1.59326 0
M  V30 2901 H 268.556 -3.2049 2.6663 0
M  V30 2902 H 267.216 -2.85738 1.54219 0
M  V30 2903 H 268.227 -1.46545 4.96734 0
M  V30 2904 H 264.904 -3.00622 2.89711 0
M  V30 2905 H 266.294 -1.34723 6.58255 0
M  V30 2906 N 269.014 -1.53014 -0.377408 0
M  V30 2907 C 270.244 -1.72265 -1.14054 0
M  V30 2908 C 270.652 -0.44601 -1.83868 0
M  V30 2909 O 269.995 0.590095 -1.73964 0
M  V30 2910 C 270.057 -2.82492 -2.22348 0
M  V30 2911 C 269.721 -4.23233 -1.72402 0
M  V30 2912 C 270.718 -5.05992 -1.19448 0
M  V30 2913 C 268.403 -4.696 -1.78273 0
M  V30 2914 C 270.397 -6.33203 -0.730268 0
M  V30 2915 C 268.084 -5.96792 -1.31464 0
M  V30 2916 C 269.082 -6.78424 -0.789297 0
M  V30 2917 O 268.77 -8.0323 -0.328077 0
M  V30 2918 H 268.502 -0.579873 -0.347453 0
M  V30 2919 H 271.056 -2.00502 -0.445882 0
M  V30 2920 H 269.286 -2.49702 -2.95272 0
M  V30 2921 H 270.975 -2.90034 -2.83963 0
M  V30 2922 H 271.741 -4.71349 -1.14259 0
M  V30 2923 H 267.62 -4.06142 -2.18106 0
M  V30 2924 H 271.164 -6.96868 -0.319542 0
M  V30 2925 H 267.061 -6.30937 -1.36342 0
M  V30 2926 H 267.829 -8.1727 -0.448493 0
M  V30 2927 N 270.492 0.636531 -1.44174 0
M  V30 2928 C 271.439 1.74875 -1.50624 0
M  V30 2929 C 272.409 1.62275 -0.35442 0
M  V30 2930 O 273.594 1.82276 -0.563908 0
M  V30 2931 C 270.734 3.13102 -1.45125 0
M  V30 2932 C 269.847 3.36717 -2.7064 0
M  V30 2933 C 268.982 4.64885 -2.57013 0
M  V30 2934 C 268.021 4.8166 -3.77717 0
M  V30 2935 N 267.158 6.01101 -3.62798 0
M  V30 2936 H 271.998 1.68697 -2.45653 0
M  V30 2937 H 269.535 0.823004 -1.21922 0
M  V30 2938 H 271.493 3.93034 -1.39929 0
M  V30 2939 H 270.123 3.18308 -0.536671 0
M  V30 2940 H 269.175 2.50763 -2.86046 0
M  V30 2941 H 270.487 3.44993 -3.60252 0
M  V30 2942 H 269.641 5.52969 -2.49619 0
M  V30 2943 H 268.38 4.58957 -1.64953 0
M  V30 2944 H 267.385 3.92007 -3.85501 0
M  V30 2945 H 268.61 4.89406 -4.70807 0
M  V30 2946 H 266.556 5.96273 -2.73486 0
M  V30 2947 H 266.473 6.10409 -4.46023 0
M  V30 2948 H 267.741 6.91761 -3.59286 0
M  V30 2949 N 271.97 1.30982 0.876444 0
M  V30 2950 C 273.219 1.19658 1.62373 0
M  V30 2951 C 273.532 -0.245636 1.94052 0
M  V30 2952 O 274.738 -0.48049 2.67214 0
M  V30 2953 C 273.194 2.09433 2.92687 0
M  V30 2954 C 272.802 3.58613 2.68516 0
M  V30 2955 C 274.546 2.06893 3.70669 0
M  V30 2956 C 272.453 4.40416 3.94699 0
M  V30 2957 H 271.383 0.444268 0.609214 0
M  V30 2958 H 274.034 1.55791 0.969605 0
M  V30 2959 H 272.416 1.66191 3.59439 0
M  V30 2960 H 273.59 4.10058 2.10212 0
M  V30 2961 H 271.905 3.63063 2.03898 0
M  V30 2962 H 274.502 2.65258 4.64265 0
M  V30 2963 H 274.845 1.05448 4.02724 0
M  V30 2964 H 275.378 2.48301 3.10792 0
M  V30 2965 H 272.117 5.42591 3.67798 0
M  V30 2966 H 271.637 3.93731 4.52477 0
M  V30 2967 H 273.316 4.52294 4.62644 0
M  V30 2968 N 273.449 -1.08991 1.13837 0
M  V30 2969 C 274.865 -1.33312 0.877506 0
M  V30 2970 C 275.065 -1.95587 -0.48456 0
M  V30 2971 O 274.121 -2.20509 -1.23013 0
M  V30 2972 C 275.434 -2.24045 2.0056 0
M  V30 2973 C 276.982 -2.37542 2.03821 0
M  V30 2974 C 277.457 -3.31614 3.15905 0
M  V30 2975 N 278.948 -3.39189 3.15445 0
M  V30 2976 C 279.683 -4.11992 3.98811 0
M  V30 2977 N 279.179 -4.87553 4.92203 0
M  V30 2978 N 280.972 -4.07762 3.86894 0
M  V30 2979 H 273.123 -0.669456 2.01574 0
M  V30 2980 H 275.386 -0.357482 0.878015 0
M  V30 2981 H 275.092 -1.85521 2.98789 0
M  V30 2982 H 274.966 -3.24466 1.92359 0
M  V30 2983 H 277.353 -2.75327 1.06202 0
M  V30 2984 H 277.434 -1.36884 2.16093 0
M  V30 2985 H 277.078 -2.94551 4.13766 0
M  V30 2986 H 277.008 -4.32186 3.0087 0
M  V30 2987 H 279.499 -2.85314 2.47799 0
M  V30 2988 H 279.812 -5.40549 5.52292 0
M  V30 2989 H 278.157 -4.86627 4.96205 0
M  V30 2990 H 281.348 -3.47833 3.13257 0
M  V30 2991 H 281.521 -4.64238 4.52092 0
M  V30 2992 N 274.927 -0.932562 -1.27047 0
M  V30 2993 C 276.152 -0.591474 -1.98787 0
M  V30 2994 C 276.577 0.824601 -1.69062 0
M  V30 2995 O 275.935 1.5541 -0.933677 0
M  V30 2996 C 275.983 -0.829808 -3.50922 0
M  V30 2997 O 275.087 0.102266 -4.12273 0
M  V30 2998 H 274.428 -0.227185 -0.623926 0
M  V30 2999 H 276.958 -1.25314 -1.61733 0
M  V30 3000 H 276.968 -0.747292 -4.01098 0
M  V30 3001 H 275.643 -1.86201 -3.7189 0
M  V30 3002 H 274.22 -0.0305761 -3.72887 0
M  V30 3003 N 276.405 1.4127 -0.698611 0
M  V30 3004 C 277.335 2.33447 -0.049629 0
M  V30 3005 C 278.316 1.51982 0.763898 0
M  V30 3006 O 279.501 1.80509 0.716257 0
M  V30 3007 C 276.631 3.35828 0.885267 0
M  V30 3008 C 275.585 4.27627 0.178613 0
M  V30 3009 C 274.911 5.20406 1.22807 0
M  V30 3010 C 276.211 5.13459 -0.956933 0
M  V30 3011 H 277.905 2.87966 -0.81951 0
M  V30 3012 H 275.451 1.38461 -0.395538 0
M  V30 3013 H 277.404 3.9924 1.34854 0
M  V30 3014 H 276.128 2.79666 1.68685 0
M  V30 3015 H 274.787 3.65643 -0.26466 0
M  V30 3016 H 274.435 4.60558 2.02226 0
M  V30 3017 H 274.135 5.82661 0.760239 0
M  V30 3018 H 275.659 5.86695 1.69179 0
M  V30 3019 H 277.073 5.70421 -0.573805 0
M  V30 3020 H 275.47 5.8467 -1.35205 0
M  V30 3021 H 276.54 4.50443 -1.79524 0
M  V30 3022 N 277.883 0.443576 1.51229 0
M  V30 3023 C 279.16 -0.181038 1.9476 0
M  V30 3024 C 279.54 -1.59523 1.38259 0
M  V30 3025 O 278.888 -2.2122 0.572198 0
M  V30 3026 C 279.098 -0.152422 3.48667 0
M  V30 3027 C 280.446 -0.354923 4.23114 0
M  V30 3028 O 281.47 -0.230257 3.55455 0
M  V30 3029 O 280.329 -0.603674 5.43156 0
M  V30 3030 H 277.423 -0.1266 0.817252 0
M  V30 3031 H 279.969 0.502004 1.62105 0
M  V30 3032 H 278.741 0.836022 3.82265 0
M  V30 3033 H 278.364 -0.878107 3.87782 0
M  V30 3034 N 279.361 -1.56624 0.175154 0
M  V30 3035 C 280.309 -2.19468 -0.770495 0
M  V30 3036 C 281.303 -1.15985 -1.23466 0
M  V30 3037 O 282.509 -1.34176 -1.19987 0
M  V30 3038 H 278.884 -0.703095 -0.266761 0
M  V30 3039 H 280.855 -2.97613 -0.216542 0
M  V30 3040 C 279.604 -2.85264 -1.98796 0
M  V30 3041 H 278.927 -3.64623 -1.63983 0
M  V30 3042 H 280.367 -3.327 -2.62843 0
M  V30 3043 C 278.826 -1.85239 -2.81404 0
M  V30 3044 O 279.356 -1.34024 -3.78682 0
M  V30 3045 N 277.562 -1.53911 -2.46495 0
M  V30 3046 H 277.109 -1.95751 -1.67449 0
M  V30 3047 H 277.067 -0.872382 -3.02054 0
M  V30 3048 N 280.839 0.0985539 -1.57292 0
M  V30 3049 C 282.087 0.801092 -1.85545 0
M  V30 3050 C 282.408 1.79438 -0.763353 0
M  V30 3051 O 281.678 1.94763 0.21073 0
M  V30 3052 H 280.258 0.29884 -0.684619 0
M  V30 3053 H 282.92 0.0810064 -1.94732 0
M  V30 3054 H 282.016 1.3338 -2.82163 0
M  V30 3055 N 282.317 1.53212 0.369288 0
M  V30 3056 C 283.565 1.68881 1.11012 0
M  V30 3057 C 283.886 0.441285 1.89941 0
M  V30 3058 O 283.156 -0.544623 1.88177 0
M  V30 3059 H 281.736 0.622569 0.412816 0
M  V30 3060 H 284.398 1.90391 0.416802 0
M  V30 3061 H 283.494 2.54822 1.80201 0
M  V30 3062 N 283.795 -0.628877 1.44509 0
M  V30 3063 C 285.025 -1.41349 1.50678 0
M  V30 3064 C 285.433 -1.88745 0.131075 0
M  V30 3065 O 284.776 -1.61592 -0.87371 0
M  V30 3066 C 284.838 -2.66608 2.41165 0
M  V30 3067 C 284.502 -2.40993 3.88293 0
M  V30 3068 C 285.499 -2.0268 4.78766 0
M  V30 3069 C 283.184 -2.54563 4.33016 0
M  V30 3070 C 285.178 -1.78269 6.11963 0
M  V30 3071 C 282.865 -2.29766 5.6626 0
M  V30 3072 C 283.863 -1.91678 6.55552 0
M  V30 3073 O 283.551 -1.67158 7.86329 0
M  V30 3074 H 283.283 -0.439851 0.51333 0
M  V30 3075 H 285.837 -0.776084 1.90174 0
M  V30 3076 H 284.067 -3.32994 1.96601 0
M  V30 3077 H 285.756 -3.28615 2.38259 0
M  V30 3078 H 286.522 -1.91751 4.45485 0
M  V30 3079 H 282.401 -2.83179 3.63773 0
M  V30 3080 H 285.945 -1.48465 6.81619 0
M  V30 3081 H 281.842 -2.40306 5.99102 0
M  V30 3082 H 282.61 -1.81386 7.98149 0
M  V30 3083 N 285.273 -1.31445 -0.869486 0
M  V30 3084 C 286.503 -1.23942 -1.65294 0
M  V30 3085 C 286.911 0.197561 -1.88166 0
M  V30 3086 O 286.254 1.14019 -1.44033 0
M  V30 3087 C 286.316 -1.91385 -3.04322 0
M  V30 3088 C 285.98 -3.40726 -3.04557 0
M  V30 3089 C 286.977 -4.36464 -2.82481 0
M  V30 3090 C 284.662 -3.82425 -3.25663 0
M  V30 3091 C 286.656 -5.71876 -2.8149 0
M  V30 3092 C 284.343 -5.1795 -3.243 0
M  V30 3093 C 285.341 -6.12486 -3.02241 0
M  V30 3094 O 285.029 -7.45534 -3.00724 0
M  V30 3095 H 284.761 -0.429459 -0.522054 0
M  V30 3096 H 287.315 -1.73873 -1.0935 0
M  V30 3097 H 285.545 -1.36004 -3.61994 0
M  V30 3098 H 287.234 -1.77791 -3.64891 0
M  V30 3099 H 288 -4.05576 -2.65956 0
M  V30 3100 H 283.879 -3.09274 -3.41863 0
M  V30 3101 H 287.423 -6.45638 -2.64191 0
M  V30 3102 H 283.32 -5.48473 -3.40365 0
M  V30 3103 H 284.088 -7.54713 -3.16782 0
M  V30 3104 N 286.751 1.08385 -1.14413 0
M  V30 3105 C 288 1.80153 -0.907076 0
M  V30 3106 C 288.313 1.87176 0.567851 0
M  V30 3107 O 289.519 2.55359 0.922172 0
M  V30 3108 C 287.975 3.23687 -1.57336 0
M  V30 3109 C 287.583 3.24897 -3.08457 0
M  V30 3110 C 289.327 4.00136 -1.41744 0
M  V30 3111 C 287.234 4.6302 -3.67921 0
M  V30 3112 H 286.164 0.675139 -0.335714 0
M  V30 3113 H 288.815 1.21733 -1.37307 0
M  V30 3114 H 287.197 3.82234 -1.03505 0
M  V30 3115 H 288.371 2.76055 -3.68958 0
M  V30 3116 H 286.686 2.61943 -3.2369 0
M  V30 3117 H 289.283 5.02201 -1.83572 0
M  V30 3118 H 289.626 4.14709 -0.363576 0
M  V30 3119 H 290.159 3.48058 -1.92614 0
M  V30 3120 H 286.898 4.5365 -4.73161 0
M  V30 3121 H 286.418 5.12143 -3.12201 0
M  V30 3122 H 288.097 5.31994 -3.68227 0
M  V30 3123 N 288.23 0.939286 1.26551 0
M  V30 3124 C 289.455 0.602008 1.98471 0
M  V30 3125 C 289.88 -0.815624 1.69497 0
M  V30 3126 O 289.238 -1.54912 0.941905 0
M  V30 3127 C 289.286 0.848407 3.50477 0
M  V30 3128 O 288.39 -0.0804009 4.12322 0
M  V30 3129 H 287.731 0.23049 0.622712 0
M  V30 3130 H 290.261 1.2617 1.61066 0
M  V30 3131 H 290.271 0.768553 4.00696 0
M  V30 3132 H 288.946 1.88171 3.70897 0
M  V30 3133 H 287.523 0.0503508 3.72866 0
M  V30 3134 N 289.708 -1.40897 0.706093 0
M  V30 3135 C 291.119 -1.84023 0.315052 0
M  V30 3136 C 291.47 -1.5906 -1.14866 0
M  V30 3137 O 290.595 -1.06651 -1.88293 0
M  V30 3138 C 291.19 -3.34055 0.565038 0
M  V30 3139 C 289.749 -3.7571 0.227806 0
M  V30 3140 C 288.896 -2.64204 0.842122 0
M  V30 3141 H 291.847 -1.303 0.905963 0
M  V30 3142 H 291.868 -3.80107 -0.172843 0
M  V30 3143 H 291.38 -3.52192 1.63042 0
M  V30 3144 H 289.481 -3.63172 -0.832895 0
M  V30 3145 H 289.594 -4.74103 0.690174 0
M  V30 3146 H 287.958 -2.53255 0.270893 0
M  V30 3147 H 288.741 -2.85155 1.91158 0
M  V30 3148 N 291.186 -0.45159 -1.50991 0
M  V30 3149 C 292.602 -0.104647 -1.59257 0
M  V30 3150 C 292.802 1.38728 -1.4614 0
M  V30 3151 O 291.858 2.15866 -1.30989 0
M  V30 3152 C 293.171 -0.637468 -2.93865 0
M  V30 3153 C 294.719 -0.599166 -3.07212 0
M  V30 3154 C 295.194 -1.1092 -4.44366 0
M  V30 3155 N 296.685 -1.06778 -4.50725 0
M  V30 3156 C 297.42 -1.43314 -5.55201 0
M  V30 3157 N 296.916 -1.87204 -6.67028 0
M  V30 3158 N 298.709 -1.3504 -5.45638 0
M  V30 3159 H 290.86 -1.42214 -1.57762 0
M  V30 3160 H 293.123 -0.586921 -0.744465 0
M  V30 3161 H 292.829 -1.68187 -3.08879 0
M  V30 3162 H 292.703 -0.0702139 -3.77135 0
M  V30 3163 H 295.09 0.436277 -2.91857 0
M  V30 3164 H 295.171 -1.20299 -2.25747 0
M  V30 3165 H 294.815 -2.14318 -4.60467 0
M  V30 3166 H 294.745 -0.481773 -5.24392 0
M  V30 3167 H 297.236 -0.745643 -3.70471 0
M  V30 3168 H 297.549 -2.13282 -7.42786 0
M  V30 3169 H 295.894 -1.91142 -6.68199 0
M  V30 3170 H 299.085 -1.00607 -4.57161 0
M  V30 3171 H 299.258 -1.63841 -6.26945 0
M  V30 3172 N 292.664 1.56529 -0.183458 0
M  V30 3173 C 293.913 1.96419 0.458511 0
M  V30 3174 C 294.226 1.0727 1.63562 0
M  V30 3175 O 295.432 1.36893 2.34462 0
M  V30 3176 C 293.888 3.49298 0.867122 0
M  V30 3177 C 293.496 4.47092 -0.285057 0
M  V30 3178 C 295.24 3.97983 1.47683 0
M  V30 3179 C 293.147 5.91225 0.143862 0
M  V30 3180 H 292.077 0.733394 0.175071 0
M  V30 3181 H 294.728 1.81448 -0.273624 0
M  V30 3182 H 293.11 3.59731 1.65559 0
M  V30 3183 H 294.284 4.48383 -1.0625 0
M  V30 3184 H 292.599 4.08535 -0.805503 0
M  V30 3185 H 295.196 5.03134 1.80999 0
M  V30 3186 H 295.539 3.41618 2.37914 0
M  V30 3187 H 296.072 3.90617 0.752562 0
M  V30 3188 H 292.811 6.5149 -0.723974 0
M  V30 3189 H 292.331 5.93214 0.886413 0
M  V30 3190 H 294.01 6.44362 0.583628 0
M  V30 3191 N 294.142 -0.090211 1.57342 0
M  V30 3192 C 295.37 -0.806224 1.90546 0
M  V30 3193 C 295.785 -1.72041 0.777644 0
M  V30 3194 O 295.142 -1.80778 -0.250103 0
M  V30 3195 C 295.193 -1.61546 3.23396 0
M  V30 3196 O 294.914 -0.738043 4.31839 0
M  V30 3197 C 296.415 -2.4341 3.70495 0
M  V30 3198 H 293.635 -0.230256 0.630257 0
M  V30 3199 H 296.179 -0.0659843 2.04394 0
M  V30 3200 H 294.334 -2.30816 3.11131 0
M  V30 3201 H 294.748 -1.29901 5.08159 0
M  V30 3202 H 296.222 -2.95676 4.66133 0
M  V30 3203 H 296.699 -3.22098 2.98579 0
M  V30 3204 H 297.305 -1.79331 3.85643 0
M  V30 3205 N 295.62 -1.53406 -0.361157 0
M  V30 3206 C 296.867 -1.69802 -1.10333 0
M  V30 3207 C 297.195 -0.452087 -1.89173 0
M  V30 3208 O 296.45 0.566017 -1.87336 0
M  V30 3209 C 296.749 -2.90211 -2.08596 0
M  V30 3210 C 296.415 -4.26539 -1.46203 0
M  V30 3211 C 295.077 -4.6361 -1.28915 0
M  V30 3212 C 297.429 -5.113 -1.01101 0
M  V30 3213 C 294.757 -5.83075 -0.651157 0
M  V30 3214 C 297.109 -6.31415 -0.387007 0
M  V30 3215 C 295.773 -6.67195 -0.201657 0
M  V30 3216 H 295.043 -0.621351 -0.403737 0
M  V30 3217 H 297.69 -1.87598 -0.384609 0
M  V30 3218 H 295.995 -2.66946 -2.86788 0
M  V30 3219 H 297.692 -3.00091 -2.65982 0
M  V30 3220 H 294.282 -3.97352 -1.60653 0
M  V30 3221 H 298.466 -4.83206 -1.13249 0
M  V30 3222 H 293.722 -6.09385 -0.496006 0
M  V30 3223 H 297.896 -6.96394 -0.0293563 0
M  V30 3224 H 295.523 -7.59628 0.294766 0
M  V30 3225 N 297.098 0.621204 -1.44841 0
M  V30 3226 C 298.509 1.20298 -1.42777 0
M  V30 3227 C 298.86 1.95639 -0.148259 0
M  V30 3228 O 297.985 2.02955 0.750892 0
M  V30 3229 C 298.58 2.1882 -2.58657 0
M  V30 3230 C 297.139 2.72403 -2.59756 0
M  V30 3231 C 296.286 1.4757 -2.34773 0
M  V30 3232 H 299.237 0.411297 -1.53278 0
M  V30 3233 H 299.258 3.01607 -2.31977 0
M  V30 3234 H 298.77 1.63957 -3.51766 0
M  V30 3235 H 296.871 3.31242 -1.70615 0
M  V30 3236 H 296.984 3.17765 -3.58556 0
M  V30 3237 H 295.348 1.76051 -1.8406 0
M  V30 3238 H 296.131 0.945954 -3.3001 0
M  V30 3239 N 298.576 1.31904 0.862503 0
M  V30 3240 C 299.816 1.23324 1.63004 0
M  V30 3241 C 300.18 -0.203724 1.90916 0
M  V30 3242 O 301.381 -0.413132 2.65606 0
M  V30 3243 C 299.652 2.06116 2.91978 0
M  V30 3244 S 301.211 2.14478 3.82812 0
M  V30 3245 H 298.029 0.439117 0.559193 0
M  V30 3246 H 300.631 1.66658 1.02202 0
M  V30 3247 H 299.335 3.09593 2.69407 0
M  V30 3248 H 298.866 1.6353 3.57801 0
M  V30 3249 H 300.881 1.28855 4.79177 0
M  V30 3250 N 300.054 -1.07777 1.14986 0
M  V30 3251 C 301.303 -1.79669 0.916617 0
M  V30 3252 C 301.616 -1.87474 -0.557917 0
M  V30 3253 O 302.822 -2.55845 -0.908617 0
M  V30 3254 C 301.278 -3.22848 1.59051 0
M  V30 3255 C 300.886 -3.23257 3.10176 0
M  V30 3256 C 302.63 -3.99379 1.43864 0
M  V30 3257 C 300.537 -4.61063 3.70372 0
M  V30 3258 H 299.467 -0.673349 0.33929 0
M  V30 3259 H 302.118 -1.21003 1.37951 0
M  V30 3260 H 300.5 -3.8168 1.0553 0
M  V30 3261 H 301.674 -2.74095 3.70417 0
M  V30 3262 H 299.989 -2.60222 3.25074 0
M  V30 3263 H 302.586 -5.0122 1.86232 0
M  V30 3264 H 302.929 -4.14511 0.385564 0
M  V30 3265 H 303.462 -3.47032 1.94457 0
M  V30 3266 H 300.201 -4.51135 4.7556 0
M  V30 3267 H 299.721 -5.1048 3.14913 0
M  V30 3268 H 301.4 -5.30034 3.71043 0
M  V30 3269 N 301.532 -0.945985 -1.26051 0
M  V30 3270 C 302.757 -0.612525 -1.98149 0
M  V30 3271 C 303.182 0.806623 -1.69927 0
M  V30 3272 O 302.54 1.54411 -0.950108 0
M  V30 3273 C 302.588 -0.866981 -3.50023 0
M  V30 3274 O 301.692 0.0585333 -4.12358 0
M  V30 3275 H 301.033 -0.23379 -0.621481 0
M  V30 3276 H 303.563 -1.27023 -1.60395 0
M  V30 3277 H 303.573 -0.789792 -4.00283 0
M  V30 3278 H 302.248 -1.90135 -3.69894 0
M  V30 3279 H 300.825 -0.0701241 -3.72834 0
M  V30 3280 N 303.011 1.40521 -0.713556 0
M  V30 3281 C 304.288 1.94775 -0.17943 0
M  V30 3282 C 304.668 1.65184 1.31444 0
M  V30 3283 O 304.016 0.968429 2.06963 0
M  V30 3284 C 304.226 3.45543 -0.489986 0
M  V30 3285 C 305.574 4.22442 -0.427536 0
M  V30 3286 O 306.598 3.53644 -0.425929 0
M  V30 3287 O 305.457 5.4501 -0.403292 0
M  V30 3288 H 302.551 0.826606 -0.0255192 0
M  V30 3289 H 305.097 1.5014 -0.790949 0
M  V30 3290 H 303.869 3.60432 -1.5233 0
M  V30 3291 H 303.492 3.97311 0.151598 0
M  V30 3292 N 304.489 0.459591 1.5075 0
M  V30 3293 C 305.422 -0.386257 2.24907 0
M  V30 3294 C 306.4 -1.006 1.27744 0
M  V30 3295 O 307.584 -1.04416 1.56938 0
M  V30 3296 C 304.711 -1.54021 3.01654 0
M  V30 3297 C 303.757 -1.03898 4.13651 0
M  V30 3298 S 304.59 0.0370501 5.35487 0
M  V30 3299 C 305.746 -1.12105 6.15779 0
M  V30 3300 H 305.979 0.243272 2.96303 0
M  V30 3301 H 303.512 0.244339 1.52454 0
M  V30 3302 H 305.47 -2.20163 3.46466 0
M  V30 3303 H 304.131 -2.14121 2.29806 0
M  V30 3304 H 303.324 -1.90254 4.66711 0
M  V30 3305 H 302.926 -0.45545 3.71216 0
M  V30 3306 H 305.218 -2.03501 6.46215 0
M  V30 3307 H 306.161 -0.62995 7.05292 0
M  V30 3308 H 306.569 -1.36967 5.47631 0
M  V30 3309 N 305.967 -1.56429 0.191757 0
M  V30 3310 C 307.216 -1.9666 -0.448088 0
M  V30 3311 C 307.529 -1.08136 -1.62991 0
M  V30 3312 O 308.735 -1.38135 -2.33733 0
M  V30 3313 C 307.191 -3.49753 -0.848585 0
M  V30 3314 C 306.799 -4.46935 0.308764 0
M  V30 3315 C 308.543 -3.9876 -1.4557 0
M  V30 3316 C 306.45 -5.91293 -0.112506 0
M  V30 3317 H 305.38 -0.734312 -0.171179 0
M  V30 3318 H 308.031 -1.81301 0.283242 0
M  V30 3319 H 306.413 -3.60604 -1.63649 0
M  V30 3320 H 307.587 -4.47813 1.08627 0
M  V30 3321 H 305.902 -4.08102 0.827158 0
M  V30 3322 H 308.499 -5.04086 -1.78328 0
M  V30 3323 H 308.842 -3.42875 -2.36099 0
M  V30 3324 H 309.375 -3.9101 -0.731836 0
M  V30 3325 H 306.114 -6.51097 0.758514 0
M  V30 3326 H 305.634 -5.93676 -0.854941 0
M  V30 3327 H 307.313 -6.44663 -0.549448 0
M  V30 3328 N 307.445 0.0818655 -1.57387 0
M  V30 3329 C 308.392 1.09834 -2.0299 0
M  V30 3330 C 309.362 1.39043 -0.908639 0
M  V30 3331 O 310.547 1.50282 -1.17559 0
M  V30 3332 C 307.687 2.40971 -2.47037 0
M  V30 3333 C 306.8 2.18379 -3.7274 0
M  V30 3334 C 305.935 3.43008 -4.0561 0
M  V30 3335 C 304.974 3.15736 -5.24383 0
M  V30 3336 N 304.111 4.32667 -5.52941 0
M  V30 3337 H 308.951 0.702472 -2.89602 0
M  V30 3338 H 306.488 0.33531 -1.43227 0
M  V30 3339 H 308.446 3.1752 -2.70623 0
M  V30 3340 H 307.076 2.78379 -1.63417 0
M  V30 3341 H 306.128 1.32569 -3.56552 0
M  V30 3342 H 307.44 1.94227 -4.59431 0
M  V30 3343 H 306.594 4.27958 -4.30043 0
M  V30 3344 H 305.333 3.70225 -3.17466 0
M  V30 3345 H 304.338 2.2918 -4.99757 0
M  V30 3346 H 305.563 2.8985 -6.14136 0
M  V30 3347 H 303.509 4.59935 -4.67756 0
M  V30 3348 H 303.426 4.11753 -6.34031 0
M  V30 3349 H 304.694 5.18644 -5.81918 0
M  V30 3350 N 308.923 1.53595 0.353017 0
M  V30 3351 C 309.873 1.77299 1.43349 0
M  V30 3352 C 310.857 0.627884 1.48143 0
M  V30 3353 O 312.049 0.88697 1.53173 0
M  V30 3354 C 309.178 1.97757 2.80619 0
M  V30 3355 C 308.264 3.18305 2.80254 0
M  V30 3356 N 308.655 4.39967 2.49526 0
M  V30 3357 C 306.953 3.19283 3.11407 0
M  V30 3358 C 307.654 5.21772 2.57156 0
M  V30 3359 N 306.63 4.58269 2.92388 0
M  V30 3360 H 310.432 2.68963 1.18474 0
M  V30 3361 H 307.946 1.52391 0.561306 0
M  V30 3362 H 309.943 2.1287 3.58458 0
M  V30 3363 H 308.603 1.07329 3.06448 0
M  V30 3364 H 309.614 4.67482 2.22893 0
M  V30 3365 H 306.291 2.3879 3.4247 0
M  V30 3366 H 307.681 6.2885 2.36638 0
M  V30 3367 N 310.401 -0.613514 1.45168 0
M  V30 3368 C 311.631 -1.39743 1.52169 0
M  V30 3369 C 312.039 -1.88596 0.151086 0
M  V30 3370 O 311.382 -1.6251 -0.856521 0
M  V30 3371 C 311.444 -2.64035 2.43979 0
M  V30 3372 C 311.108 -2.36861 3.90827 0
M  V30 3373 C 312.105 -1.97591 4.80889 0
M  V30 3374 C 309.79 -2.49956 4.35692 0
M  V30 3375 C 311.784 -1.71768 6.1382 0
M  V30 3376 C 309.471 -2.23747 5.68665 0
M  V30 3377 C 310.469 -1.84714 6.57548 0
M  V30 3378 O 310.157 -1.58809 7.88058 0
M  V30 3379 H 309.889 -0.434382 0.517966 0
M  V30 3380 H 312.443 -0.75587 1.90986 0
M  V30 3381 H 310.673 -3.3089 2.00122 0
M  V30 3382 H 312.362 -3.26069 2.41731 0
M  V30 3383 H 313.128 -1.87015 4.47493 0
M  V30 3384 H 309.007 -2.79305 3.66756 0
M  V30 3385 H 312.551 -1.41227 6.83155 0
M  V30 3386 H 308.448 -2.33938 6.01617 0
M  V30 3387 H 309.216 -1.7291 8.00028 0
M  V30 3388 N 311.879 -1.3236 -0.855495 0
M  V30 3389 C 312.811 -1.17052 -1.97057 0
M  V30 3390 C 313.824 -0.10574 -1.62456 0
M  V30 3391 O 315.013 -0.354619 -1.74942 0
M  V30 3392 C 312.113 -0.769305 -3.30053 0
M  V30 3393 C 311.286 -1.9222 -3.929 0
M  V30 3394 C 310.345 -1.50466 -5.04228 0
M  V30 3395 O 309.371 -2.21655 -5.24269 0
M  V30 3396 N 310.573 -0.400209 -5.79119 0
M  V30 3397 H 313.338 -2.13103 -2.1073 0
M  V30 3398 H 310.899 -1.24885 -1.0303 0
M  V30 3399 H 312.891 -0.472407 -4.01933 0
M  V30 3400 H 311.461 0.100025 -3.1244 0
M  V30 3401 H 310.681 -2.38563 -3.13817 0
M  V30 3402 H 311.969 -2.69403 -4.31624 0
M  V30 3403 H 311.367 0.192319 -5.65373 0
M  V30 3404 H 309.924 -0.162912 -6.51596 0
M  V30 3405 N 313.357 1.07166 -1.15556 0
M  V30 3406 C 314.304 2.14417 -0.854055 0
M  V30 3407 C 315.274 1.64965 0.193806 0
M  V30 3408 O 316.459 1.90703 0.0609443 0
M  V30 3409 C 313.599 3.43304 -0.351574 0
M  V30 3410 C 312.712 4.06537 -1.46123 0
M  V30 3411 C 311.847 5.23266 -0.914677 0
M  V30 3412 C 310.886 5.78464 -2.00114 0
M  V30 3413 N 310.023 6.86521 -1.47083 0
M  V30 3414 H 314.863 2.39548 -1.77259 0
M  V30 3415 H 312.4 1.17543 -0.884425 0
M  V30 3416 H 314.358 4.17179 -0.0419409 0
M  V30 3417 H 312.988 3.18419 0.530037 0
M  V30 3418 H 312.04 3.30297 -1.88701 0
M  V30 3419 H 313.352 4.43567 -2.28144 0
M  V30 3420 H 312.506 6.04131 -0.557698 0
M  V30 3421 H 311.245 4.87658 -0.0636583 0
M  V30 3422 H 310.25 4.96243 -2.36692 0
M  V30 3423 H 311.475 6.16126 -2.85597 0
M  V30 3424 H 309.421 6.52849 -0.642198 0
M  V30 3425 H 309.338 7.22446 -2.22729 0
M  V30 3426 H 310.606 7.71087 -1.14215 0
M  V30 3427 N 314.835 0.952656 1.25548 0
M  V30 3428 C 315.767 0.428609 2.25157 0
M  V30 3429 C 316.78 -0.454428 1.56329 0
M  V30 3430 O 317.969 -0.263023 1.76552 0
M  V30 3431 C 315.069 -0.401972 3.36508 0
M  V30 3432 C 314.242 0.467601 4.34893 0
M  V30 3433 C 313.301 -0.30445 5.25319 0
M  V30 3434 O 312.327 0.296473 5.68427 0
M  V30 3435 N 313.529 -1.59805 5.5807 0
M  V30 3436 H 316.294 1.28497 2.70756 0
M  V30 3437 H 313.855 0.822798 1.39433 0
M  V30 3438 H 315.847 -0.926134 3.9396 0
M  V30 3439 H 314.417 -1.15918 2.90313 0
M  V30 3440 H 313.637 1.17288 3.76347 0
M  V30 3441 H 314.925 1.06119 4.97611 0
M  V30 3442 H 314.323 -2.10823 5.24948 0
M  V30 3443 H 312.88 -2.06822 6.18116 0
M  V30 3444 N 316.313 -1.40141 0.720998 0
M  V30 3445 C 317.276 -2.29058 0.0805834 0
M  V30 3446 C 318.276 -1.45632 -0.681758 0
M  V30 3447 O 319.466 -1.6648 -0.512856 0
M  V30 3448 C 316.598 -3.28925 -0.895593 0
M  V30 3449 H 317.791 -2.87191 0.863793 0
M  V30 3450 H 315.344 -1.48553 0.485975 0
M  V30 3451 H 316.079 -2.75822 -1.70566 0
M  V30 3452 H 315.864 -3.90519 -0.351766 0
M  V30 3453 H 317.354 -3.95494 -1.34069 0
M  V30 3454 N 317.792 -0.46758 -1.50504 0
M  V30 3455 C 319.069 0.15003 -1.95024 0
M  V30 3456 C 319.449 1.57304 -1.40779 0
M  V30 3457 O 318.797 2.20281 -0.607319 0
M  V30 3458 C 319.007 0.0969324 -3.48865 0
M  V30 3459 C 320.355 0.287565 -4.23625 0
M  V30 3460 O 321.379 0.173678 -3.55776 0
M  V30 3461 O 320.238 0.517186 -5.44047 0
M  V30 3462 H 317.332 0.113582 -0.819163 0
M  V30 3463 H 319.878 -0.52773 -1.61286 0
M  V30 3464 H 318.65 -0.896732 -3.80886 0
M  V30 3465 H 318.273 0.816303 -3.8913 0
M  V30 3466 N 319.27 1.56325 -0.20005 0
M  V30 3467 C 320.518 1.97329 0.436547 0
M  V30 3468 C 320.839 1.08826 1.61808 0
M  V30 3469 O 320.109 0.160604 1.95241 0
M  V30 3470 H 318.689 0.728714 0.164272 0
M  V30 3471 H 321.351 1.92761 -0.287937 0
M  V30 3472 H 320.447 3.02264 0.777353 0
M  V30 3473 N 320.748 -0.0735177 1.57428 0
M  V30 3474 C 321.678 -1.0879 2.06608 0
M  V30 3475 C 322.659 -1.40473 0.959237 0
M  V30 3476 O 323.844 -1.5013 1.23185 0
M  V30 3477 C 320.974 -2.40183 2.50857 0
M  V30 3478 C 319.928 -2.22858 3.65402 0
M  V30 3479 C 319.254 -3.59619 3.957 0
M  V30 3480 C 320.554 -1.65123 4.95511 0
M  V30 3481 H 322.248 -0.678673 2.91607 0
M  V30 3482 H 319.794 -0.325013 1.40284 0
M  V30 3483 H 321.747 -3.11437 2.83874 0
M  V30 3484 H 320.471 -2.83083 1.62885 0
M  V30 3485 H 319.13 -1.54045 3.32664 0
M  V30 3486 H 318.778 -4.00086 3.04861 0
M  V30 3487 H 318.478 -3.48866 4.72828 0
M  V30 3488 H 320.002 -4.32306 4.31212 0
M  V30 3489 H 321.416 -2.26241 5.26771 0
M  V30 3490 H 319.813 -1.65071 5.7695 0
M  V30 3491 H 320.883 -0.612559 4.81015 0
M  V30 3492 N 322.226 -1.5378 -0.344866 0
M  V30 3493 C 323.466 -1.72677 -1.09371 0
M  V30 3494 C 323.83 -0.479084 -1.85927 0
M  V30 3495 O 325.031 -0.54505 -2.63216 0
M  V30 3496 C 323.302 -2.95457 -2.01097 0
M  V30 3497 S 324.861 -3.35158 -2.83222 0
M  V30 3498 H 321.679 -0.607402 -0.369573 0
M  V30 3499 H 324.281 -1.91922 -0.372307 0
M  V30 3500 H 322.985 -3.84437 -1.43655 0
M  V30 3501 H 322.516 -2.78673 -2.77678 0
M  V30 3502 H 324.531 -2.88789 -4.03504 0
M  V30 3503 N 323.704 0.605807 -1.45491 0
M  V30 3504 C 325.12 0.926751 -1.29936 0
M  V30 3505 C 325.32 1.99896 -0.253706 0
M  V30 3506 O 324.376 2.50038 0.351737 0
M  V30 3507 C 325.689 1.36599 -2.67883 0
M  V30 3508 C 327.237 1.4801 -2.75793 0
M  V30 3509 C 327.712 1.95309 -4.14268 0
M  V30 3510 N 329.203 2.0254 -4.16571 0
M  V30 3511 C 329.938 2.40363 -5.20589 0
M  V30 3512 N 329.434 2.77143 -6.34952 0
M  V30 3513 N 331.227 2.40718 -5.07948 0
M  V30 3514 H 323.378 -0.102862 -2.12151 0
M  V30 3515 H 325.641 0.016639 -0.947854 0
M  V30 3516 H 325.347 0.652306 -3.45598 0
M  V30 3517 H 325.221 2.33215 -2.96463 0
M  V30 3518 H 327.608 2.1847 -1.98381 0
M  V30 3519 H 327.689 0.497041 -2.50925 0
M  V30 3520 H 327.333 1.25436 -4.92167 0
M  V30 3521 H 327.263 2.94532 -4.3653 0
M  V30 3522 H 329.754 1.76699 -3.34045 0
M  V30 3523 H 330.067 3.0489 -7.10114 0
M  V30 3524 H 328.412 2.74834 -6.3835 0
M  V30 3525 H 331.603 2.11392 -4.1765 0
M  V30 3526 H 331.776 2.69869 -5.89131 0
M  V30 3527 N 325.182 1.32811 0.848464 0
M  V30 3528 C 326.598 1.11937 1.13764 0
M  V30 3529 C 326.798 -0.0960789 2.01271 0
M  V30 3530 O 325.854 -0.779165 2.40178 0
M  V30 3531 C 327.167 2.402 1.809 0
M  V30 3532 C 328.715 2.46016 1.93508 0
M  V30 3533 C 329.19 3.74215 2.64059 0
M  V30 3534 N 330.681 3.75232 2.71579 0
M  V30 3535 C 331.416 4.71134 3.26833 0
M  V30 3536 N 330.912 5.77406 3.8285 0
M  V30 3537 N 332.705 4.58623 3.24995 0
M  V30 3538 H 324.856 2.1073 0.265855 0
M  V30 3539 H 327.119 0.930671 0.180431 0
M  V30 3540 H 326.825 3.29093 1.24058 0
M  V30 3541 H 326.699 2.51628 2.81004 0
M  V30 3542 H 329.086 1.57577 2.49506 0
M  V30 3543 H 329.167 2.38536 0.923811 0
M  V30 3544 H 328.811 4.63031 2.08722 0
M  V30 3545 H 328.741 3.78968 3.65637 0
M  V30 3546 H 331.232 2.98423 2.31845 0
M  V30 3547 H 331.545 6.46632 4.23187 0
M  V30 3548 H 329.89 5.81152 3.81165 0
M  V30 3549 H 333.081 3.74762 2.80484 0
M  V30 3550 H 333.254 5.33535 3.67756 0
M  V30 3551 N 326.66 -1.06551 1.16123 0
M  V30 3552 C 327.59 -2.15935 0.88851 0
M  V30 3553 C 328.571 -1.69306 -0.164135 0
M  V30 3554 O 329.756 -1.94193 -0.0167857 0
M  V30 3555 C 326.886 -3.45149 0.385942 0
M  V30 3556 C 325.84 -4.05271 1.3762 0
M  V30 3557 C 325.166 -5.29664 0.732137 0
M  V30 3558 C 326.466 -4.44355 2.74493 0
M  V30 3559 H 328.16 -2.39006 1.80323 0
M  V30 3560 H 325.706 -1.14866 0.868435 0
M  V30 3561 H 327.659 -4.21004 0.182647 0
M  V30 3562 H 326.383 -3.21689 -0.564274 0
M  V30 3563 H 325.042 -3.3147 1.56599 0
M  V30 3564 H 324.69 -5.02499 -0.224483 0
M  V30 3565 H 324.39 -5.70848 1.39307 0
M  V30 3566 H 325.914 -6.08218 0.538802 0
M  V30 3567 H 327.328 -5.11303 2.59311 0
M  V30 3568 H 325.725 -4.96515 3.37035 0
M  V30 3569 H 326.795 -3.55339 3.29943 0
M  V30 3570 N 328.138 -0.959301 -1.25041 0
M  V30 3571 C 329.048 -0.489994 -2.29426 0
M  V30 3572 C 330.064 0.444944 -1.68215 0
M  V30 3573 O 331.24 0.320046 -1.98841 0
M  V30 3574 C 328.305 0.220309 -3.45999 0
M  V30 3575 C 327.366 -0.753418 -4.22637 0
M  V30 3576 C 326.599 -0.076918 -5.33645 0
M  V30 3577 O 326.822 1.13649 -5.58963 0
M  V30 3578 O 325.756 -0.764824 -5.97021 0
M  V30 3579 H 329.582 -1.35755 -2.71669 0
M  V30 3580 H 327.167 -0.725961 -1.30576 0
M  V30 3581 H 329.049 0.619677 -4.16819 0
M  V30 3582 H 327.724 1.06296 -3.0575 0
M  V30 3583 H 326.631 -1.20308 -3.54227 0
M  V30 3584 H 327.964 -1.56423 -4.66683 0
M  V30 3585 N 329.616 1.39756 -0.72842 0
M  V30 3586 C 330.563 2.30647 -0.0841519 0
M  V30 3587 C 331.533 1.48869 0.7367 0
M  V30 3588 O 332.718 1.77574 0.698015 0
M  V30 3589 C 329.858 3.35165 0.822091 0
M  V30 3590 C 328.971 4.31999 -0.0106663 0
M  V30 3591 C 328.106 5.23585 0.896241 0
M  V30 3592 C 327.145 6.12072 0.0583381 0
M  V30 3593 N 326.282 6.96035 0.920818 0
M  V30 3594 H 331.122 2.85173 -0.864891 0
M  V30 3595 H 328.659 1.40422 -0.438179 0
M  V30 3596 H 330.617 3.94345 1.36189 0
M  V30 3597 H 329.247 2.8211 1.56888 0
M  V30 3598 H 328.299 3.74492 -0.66781 0
M  V30 3599 H 329.611 4.9443 -0.658825 0
M  V30 3600 H 328.765 5.87759 1.50412 0
M  V30 3601 H 327.504 4.61459 1.57819 0
M  V30 3602 H 326.509 5.46916 -0.562389 0
M  V30 3603 H 327.734 6.76261 -0.6203 0
M  V30 3604 H 325.68 6.36485 1.58818 0
M  V30 3605 H 325.597 7.55284 0.32899 0
M  V30 3606 H 326.865 7.64646 1.51447 0
M  V30 3607 N 331.094 0.475555 1.50254 0
M  V30 3608 C 332.057 -0.305016 2.27161 0
M  V30 3609 C 333.057 -0.916519 1.32123 0
M  V30 3610 O 334.247 -0.785003 1.5551 0
M  V30 3611 C 331.379 -1.43496 3.09227 0
M  V30 3612 H 332.572 0.369511 2.97615 0
M  V30 3613 H 330.125 0.229747 1.54602 0
M  V30 3614 H 330.86 -2.14441 2.43281 0
M  V30 3615 H 330.645 -1.00223 3.79075 0
M  V30 3616 H 332.135 -1.98548 3.67381 0
M  V30 3617 N 332.573 -1.56217 0.208337 0
M  V30 3618 C 333.813 -1.99849 -0.428927 0
M  V30 3619 C 334.177 -1.09262 -1.57879 0
M  V30 3620 O 335.378 -1.42185 -2.28116 0
M  V30 3621 C 333.649 -3.46777 -0.864879 0
M  V30 3622 S 335.208 -4.12434 -1.49811 0
M  V30 3623 H 332.026 -0.697742 -0.136665 0
M  V30 3624 H 334.628 -1.92953 0.314519 0
M  V30 3625 H 333.332 -4.10396 -0.0181326 0
M  V30 3626 H 332.863 -3.57518 -1.64147 0
M  V30 3627 H 334.878 -4.10532 -2.78707 0
M  V30 3628 N 334.051 0.0651679 -1.57465 0
M  V30 3629 C 335.3 0.761916 -1.86756 0
M  V30 3630 C 335.613 1.78406 -0.801925 0
M  V30 3631 O 336.819 2.53084 -0.982885 0
M  V30 3632 C 335.275 1.40603 -3.31299 0
M  V30 3633 C 334.883 0.422115 -4.46007 0
M  V30 3634 C 336.627 2.08476 -3.69781 0
M  V30 3635 C 334.534 1.07252 -5.81593 0
M  V30 3636 H 333.464 0.288308 -0.696702 0
M  V30 3637 H 336.115 0.015344 -1.83494 0
M  V30 3638 H 334.497 2.20109 -3.29193 0
M  V30 3639 H 335.671 -0.343613 -4.59517 0
M  V30 3640 H 333.986 -0.152527 -4.16121 0
M  V30 3641 H 336.583 2.57925 -4.68379 0
M  V30 3642 H 336.926 2.88712 -2.99919 0
M  V30 3643 H 337.459 1.35792 -3.73905 0
M  V30 3644 H 334.198 0.310342 -6.54765 0
M  V30 3645 H 333.718 1.80895 -5.71872 0
M  V30 3646 H 335.397 1.59043 -6.27148 0
M  V30 3647 N 335.529 1.53961 0.336706 0
M  V30 3648 C 336.754 1.75797 1.10046 0
M  V30 3649 C 337.179 0.498985 1.81361 0
M  V30 3650 O 336.537 -0.548769 1.72795 0
M  V30 3651 C 336.585 2.94257 2.08436 0
M  V30 3652 O 335.689 2.64883 3.16087 0
M  V30 3653 H 335.03 0.582936 0.317934 0
M  V30 3654 H 337.56 2.00945 0.38501 0
M  V30 3655 H 337.57 3.21237 2.51537 0
M  V30 3656 H 336.245 3.85564 1.55927 0
M  V30 3657 H 334.822 2.48812 2.77753 0
M  V30 3658 N 337.007 -0.598083 1.45811 0
M  V30 3659 C 338.418 -1.18011 1.44673 0
M  V30 3660 C 338.769 -1.95378 0.179364 0
M  V30 3661 O 337.894 -2.04124 -0.718509 0
M  V30 3662 C 338.489 -2.14677 2.62105 0
M  V30 3663 C 337.048 -2.68236 2.64057 0
M  V30 3664 C 336.195 -1.43816 2.37091 0
M  V30 3665 H 339.146 -0.38686 1.53913 0
M  V30 3666 H 339.167 -2.97878 2.36746 0
M  V30 3667 H 338.679 -1.5834 3.5433 0
M  V30 3668 H 336.78 -3.28486 1.75864 0
M  V30 3669 H 336.893 -3.12021 3.63566 0
M  V30 3670 H 335.257 -1.731 1.86838 0
M  V30 3671 H 336.04 -0.893333 3.31473 0
M  V30 3672 N 338.485 -1.33259 -0.841409 0
M  V30 3673 C 339.432 -1.23302 -1.95103 0
M  V30 3674 C 340.402 -0.112204 -1.65721 0
M  V30 3675 O 341.587 -0.290038 -1.88583 0
M  V30 3676 C 338.727 -0.975583 -3.31023 0
M  V30 3677 C 337.84 -2.18243 -3.72819 0
M  V30 3678 C 336.975 -1.85936 -4.97595 0
M  V30 3679 C 336.014 -3.02866 -5.3192 0
M  V30 3680 N 335.151 -2.70565 -6.47873 0
M  V30 3681 H 339.991 -2.18207 -2.02952 0
M  V30 3682 H 337.528 -1.0851 -0.993173 0
M  V30 3683 H 339.486 -0.80677 -4.09325 0
M  V30 3684 H 338.116 -0.0632755 -3.22738 0
M  V30 3685 H 337.168 -2.46107 -2.90061 0
M  V30 3686 H 338.48 -3.05666 -3.94169 0
M  V30 3687 H 337.634 -1.65684 -5.83638 0
M  V30 3688 H 336.373 -0.957452 -4.78209 0
M  V30 3689 H 335.378 -3.23736 -4.44382 0
M  V30 3690 H 336.603 -3.93809 -5.53255 0
M  V30 3691 H 334.549 -1.8293 -6.29978 0
M  V30 3692 H 334.466 -3.51519 -6.69306 0
M  V30 3693 H 335.734 -2.53774 -7.37034 0
M  V30 3694 N 339.963 1.05934 -1.16686 0
M  V30 3695 C 341.374 1.60263 -0.957745 0
M  V30 3696 C 341.725 1.89789 0.49745 0
M  V30 3697 O 340.85 1.67401 1.37135 0
M  V30 3698 C 341.445 2.91172 -1.73218 0
M  V30 3699 C 340.004 3.42188 -1.56794 0
M  V30 3700 C 339.151 2.16028 -1.73859 0
M  V30 3701 H 342.102 0.888392 -1.31504 0
M  V30 3702 H 342.123 3.60744 -1.21014 0
M  V30 3703 H 341.635 2.6965 -2.79124 0
M  V30 3704 H 339.736 3.68762 -0.533437 0
M  V30 3705 H 339.849 4.17273 -2.35414 0
M  V30 3706 H 338.213 2.26426 -1.16633 0
M  V30 3707 H 338.996 1.96985 -2.81161 0
M  V30 3708 N 341.441 0.965919 1.2453 0
M  V30 3709 C 342.373 0.452465 2.2469 0
M  V30 3710 C 343.386 -0.437821 1.56802 0
M  V30 3711 O 344.575 -0.244283 1.76821 0
M  V30 3712 C 341.675 -0.366258 3.36915 0
M  V30 3713 C 340.848 0.513701 4.34373 0
M  V30 3714 C 339.907 -0.248716 5.25612 0
M  V30 3715 O 338.933 0.356745 5.68081 0
M  V30 3716 N 340.135 -1.53877 5.59734 0
M  V30 3717 H 342.9 1.31361 2.69378 0
M  V30 3718 H 340.461 0.837541 1.38553 0
M  V30 3719 H 342.453 -0.884297 3.94921 0
M  V30 3720 H 341.023 -1.12832 2.91526 0
M  V30 3721 H 340.243 1.21273 3.75082 0
M  V30 3722 H 341.531 1.11391 4.96457 0
M  V30 3723 H 340.929 -2.05243 5.27154 0
M  V30 3724 H 339.486 -2.00254 6.20275 0
M  V30 3725 N 342.919 -1.39368 0.735821 0
M  V30 3726 C 343.866 -2.30599 0.0963825 0
M  V30 3727 C 344.836 -1.49257 -0.728794 0
M  V30 3728 O 346.021 -1.77941 -0.688588 0
M  V30 3729 C 343.161 -3.35596 -0.804305 0
M  V30 3730 C 342.274 -4.31987 0.0335761 0
M  V30 3731 C 341.409 -5.24053 -0.868461 0
M  V30 3732 C 340.448 -6.12095 -0.0258776 0
M  V30 3733 N 339.585 -6.96514 -0.883893 0
M  V30 3734 H 344.425 -2.8471 0.880002 0
M  V30 3735 H 341.962 -1.40188 0.445619 0
M  V30 3736 H 343.92 -3.95062 -1.34096 0
M  V30 3737 H 342.55 -2.82938 -1.55389 0
M  V30 3738 H 341.602 -3.74133 0.68766 0
M  V30 3739 H 342.914 -4.94074 0.685036 0
M  V30 3740 H 342.068 -5.88549 -1.47293 0
M  V30 3741 H 340.807 -4.62289 -1.5537 0
M  V30 3742 H 339.812 -5.4661 0.591386 0
M  V30 3743 H 341.037 -6.75923 0.656156 0
M  V30 3744 H 338.983 -6.37318 -1.55441 0
M  V30 3745 H 338.9 -7.55448 -0.288931 0
M  V30 3746 H 340.168 -7.65439 -1.4739 0
M  V30 3747 N 344.397 -0.483516 -1.5 0
M  V30 3748 C 345.808 -0.0314176 -1.86674 0
M  V30 3749 C 346.159 1.37728 -1.39733 0
M  V30 3750 O 345.284 2.02327 -0.767635 0
M  V30 3751 C 345.879 -0.0502376 -3.38763 0
M  V30 3752 C 344.438 0.346442 -3.74802 0
M  V30 3753 C 343.585 -0.430366 -2.7394 0
M  V30 3754 H 346.536 -0.697182 -1.42566 0
M  V30 3755 H 346.557 0.749116 -3.73053 0
M  V30 3756 H 346.069 -1.07563 -3.72897 0
M  V30 3757 H 344.17 1.37572 -3.46273 0
M  V30 3758 H 344.283 0.0391486 -4.79084 0
M  V30 3759 H 342.647 0.117557 -2.54429 0
M  V30 3760 H 343.43 -1.4555 -3.10918 0
M  V30 3761 N 345.875 1.56104 -0.216619 0
M  V30 3762 C 347.121 1.99219 0.410301 0
M  V30 3763 C 347.476 1.10169 1.57735 0
M  V30 3764 O 346.769 0.150598 1.91007 0
M  V30 3765 C 346.963 3.45923 0.898464 0
M  V30 3766 C 346.792 4.49163 -0.219748 0
M  V30 3767 C 345.562 5.00642 -0.684516 0
M  V30 3768 C 347.76 5.03751 -1.03629 0
M  V30 3769 N 345.742 5.87579 -1.7783 0
M  V30 3770 C 347.113 5.87566 -1.97904 0
M  V30 3771 C 349.168 4.86128 -1.07629 0
M  V30 3772 C 347.871 6.5564 -2.95851 0
M  V30 3773 C 349.897 5.54958 -2.04392 0
M  V30 3774 C 349.259 6.38536 -2.97407 0
M  V30 3775 H 345.358 0.773206 0.11695 0
M  V30 3776 H 347.942 1.9193 -0.327258 0
M  V30 3777 H 346.113 3.53669 1.6054 0
M  V30 3778 H 347.845 3.75963 1.49779 0
M  V30 3779 H 344.6 4.72807 -0.27399 0
M  V30 3780 H 345.024 6.3575 -2.32705 0
M  V30 3781 H 349.666 4.21168 -0.371099 0
M  V30 3782 H 347.384 7.19785 -3.67335 0
M  V30 3783 H 350.97 5.43289 -2.08154 0
M  V30 3784 H 349.85 6.90858 -3.71059 0
M  V30 3785 N 347.353 -0.0568162 1.57498 0
M  V30 3786 C 348.63 -0.786954 1.79071 0
M  V30 3787 C 349.01 -1.95028 0.80792 0
M  V30 3788 O 348.358 -2.27968 -0.155858 0
M  V30 3789 C 348.568 -1.24594 3.26002 0
M  V30 3790 C 349.916 -1.67323 3.90241 0
M  V30 3791 O 350.94 -1.34124 3.29984 0
M  V30 3792 O 349.799 -2.28842 4.9628 0
M  V30 3793 H 346.893 -0.378262 0.735423 0
M  V30 3794 H 349.439 -0.035734 1.69662 0
M  V30 3795 H 348.211 -0.41423 3.89101 0
M  V30 3796 H 347.834 -2.05803 3.40192 0
M  V30 3797 N 348.832 -1.54138 -0.328536 0
M  V30 3798 C 349.779 -1.83176 -1.40411 0
M  V30 3799 C 350.749 -0.678494 -1.5161 0
M  V30 3800 O 351.934 -0.92443 -1.6691 0
M  V30 3801 C 349.074 -2.06035 -2.76846 0
M  V30 3802 C 348.187 -3.33727 -2.74318 0
M  V30 3803 C 347.322 -3.46574 -4.02567 0
M  V30 3804 C 346.361 -4.68159 -3.94327 0
M  V30 3805 N 345.498 -4.77959 -5.14296 0
M  V30 3806 H 350.338 -2.74938 -1.14948 0
M  V30 3807 H 347.875 -1.36166 -0.556538 0
M  V30 3808 H 349.833 -2.1728 -3.56153 0
M  V30 3809 H 348.463 -1.1757 -3.00628 0
M  V30 3810 H 347.515 -3.31246 -1.8703 0
M  V30 3811 H 348.827 -4.23139 -2.64111 0
M  V30 3812 H 347.981 -3.57333 -4.90304 0
M  V30 3813 H 346.72 -2.55245 -4.15574 0
M  V30 3814 H 345.725 -4.57461 -3.04974 0
M  V30 3815 H 346.95 -5.60868 -3.82889 0
M  V30 3816 H 344.896 -3.89544 -5.27818 0
M  V30 3817 H 344.813 -5.6133 -5.06404 0
M  V30 3818 H 346.081 -4.93044 -6.03761 0
M  V30 3819 N 350.31 0.590341 -1.46126 0
M  V30 3820 C 351.587 1.35029 -1.41515 0
M  V30 3821 C 351.967 2.10888 -0.0946472 0
M  V30 3822 O 351.315 2.08998 0.923693 0
M  V30 3823 C 351.525 2.28269 -2.63997 0
M  V30 3824 C 352.873 2.90338 -3.09821 0
M  V30 3825 O 353.897 2.38585 -2.64492 0
M  V30 3826 O 352.756 3.84321 -3.88535 0
M  V30 3827 H 349.85 0.606317 -0.562413 0
M  V30 3828 H 352.396 0.611994 -1.58281 0
M  V30 3829 H 351.168 1.71591 -3.51671 0
M  V30 3830 H 350.791 3.0945 -2.49652 0
M  V30 3831 N 351.788 1.33704 0.83433 0
M  V30 3832 C 352.751 1.24244 1.92603 0
M  V30 3833 C 353.751 0.160383 1.59998 0
M  V30 3834 O 354.941 0.412228 1.69252 0
M  V30 3835 C 352.073 0.91555 3.28376 0
M  V30 3836 H 353.266 2.21287 2.02416 0
M  V30 3837 H 350.819 1.17827 1.02696 0
M  V30 3838 H 351.554 -0.0521886 3.24258 0
M  V30 3839 H 351.339 1.69811 3.53422 0
M  V30 3840 H 352.829 0.874231 4.08347 0
M  V30 3841 N 353.266 -1.05314 1.17247 0
M  V30 3842 C 354.512 -1.78699 0.971513 0
M  V30 3843 C 354.867 -1.85932 -0.494692 0
M  V30 3844 O 354.16 -1.34716 -1.36243 0
M  V30 3845 C 354.354 -3.2229 1.54479 0
M  V30 3846 C 354.183 -3.29052 3.06521 0
M  V30 3847 C 352.953 -3.3841 3.75242 0
M  V30 3848 C 355.151 -3.18095 4.04129 0
M  V30 3849 N 353.133 -3.34289 5.14902 0
M  V30 3850 C 354.504 -3.21331 5.30232 0
M  V30 3851 C 356.559 -3.02049 3.95817 0
M  V30 3852 C 355.262 -3.10169 6.4899 0
M  V30 3853 C 357.288 -2.92228 5.14156 0
M  V30 3854 C 356.65 -2.96096 6.39145 0
M  V30 3855 H 352.749 -0.66628 0.409383 0
M  V30 3856 H 355.333 -1.25553 1.4881 0
M  V30 3857 H 353.504 -3.7381 1.05455 0
M  V30 3858 H 355.236 -3.83905 1.28059 0
M  V30 3859 H 351.991 -3.43621 3.25917 0
M  V30 3860 H 352.415 -3.35702 5.87906 0
M  V30 3861 H 357.057 -2.97897 3.00029 0
M  V30 3862 H 354.775 -3.13076 7.44989 0
M  V30 3863 H 358.361 -2.80885 5.09505 0
M  V30 3864 H 357.241 -2.88568 7.29176 0
M  V30 3865 N 354.744 -0.972509 -1.24016 0
M  V30 3866 C 355.654 -0.5143 -2.28893 0
M  V30 3867 C 356.67 0.427078 -1.68677 0
M  V30 3868 O 357.846 0.298939 -1.99169 0
M  V30 3869 C 354.911 0.183598 -3.46214 0
M  V30 3870 C 353.972 -0.798202 -4.21814 0
M  V30 3871 C 353.205 -0.133514 -5.33533 0
M  V30 3872 O 353.428 1.07714 -5.60137 0
M  V30 3873 O 352.362 -0.828103 -5.96176 0
M  V30 3874 H 356.188 -1.38629 -2.70214 0
M  V30 3875 H 353.773 -0.739769 -1.29799 0
M  V30 3876 H 355.655 0.575433 -4.17453 0
M  V30 3877 H 354.33 1.03048 -3.0686 0
M  V30 3878 H 353.237 -1.24059 -3.52931 0
M  V30 3879 H 354.57 -1.61364 -4.64997 0
M  V30 3880 N 356.222 1.38976 -0.743202 0
M  V30 3881 C 357.471 1.99581 -0.291592 0
M  V30 3882 C 357.784 1.59656 1.13001 0
M  V30 3883 O 358.99 2.13157 1.68156 0
M  V30 3884 C 357.446 3.56813 -0.470391 0
M  V30 3885 C 357.054 4.05695 -1.90041 0
M  V30 3886 C 358.798 4.24423 -0.0809709 0
M  V30 3887 C 356.705 5.5553 -2.02832 0
M  V30 3888 H 355.635 0.746615 -0.105272 0
M  V30 3889 H 358.286 1.58872 -0.918258 0
M  V30 3890 H 356.668 3.95359 0.225299 0
M  V30 3891 H 357.842 3.78464 -2.62872 0
M  V30 3892 H 356.157 3.50775 -2.24379 0
M  V30 3893 H 358.754 5.34474 -0.155445 0
M  V30 3894 H 359.097 4.04962 0.96497 0
M  V30 3895 H 359.63 3.9108 -0.728124 0
M  V30 3896 H 356.369 5.79881 -3.05643 0
M  V30 3897 H 355.889 5.84537 -1.34448 0
M  V30 3898 H 357.568 6.21069 -1.81335 0
M  V30 3899 N 357.7 0.491464 1.49741 0
M  V30 3900 C 359.111 0.0413169 1.86654 0
M  V30 3901 C 359.462 -1.36985 1.40462 0
M  V30 3902 O 358.587 -2.01917 0.778354 0
M  V30 3903 C 359.182 0.0682023 3.38731 0
M  V30 3904 C 357.741 -0.32656 3.74981 0
M  V30 3905 C 356.888 0.444888 2.73708 0
M  V30 3906 H 359.839 0.704733 1.42194 0
M  V30 3907 H 359.86 -0.729322 3.73445 0
M  V30 3908 H 359.372 1.09539 3.72321 0
M  V30 3909 H 357.473 -1.35734 3.46997 0
M  V30 3910 H 357.586 -0.013741 4.79098 0
M  V30 3911 H 355.95 -0.104062 2.54487 0
M  V30 3912 H 356.733 1.47197 3.10142 0
M  V30 3913 N 359.178 -1.55987 0.224894 0
M  V30 3914 C 360.594 -1.59066 -0.130426 0
M  V30 3915 C 360.794 -1.24176 -1.5869 0
M  V30 3916 O 359.85 -0.978592 -2.32766 0
M  V30 3917 C 361.163 -3.00042 0.198883 0
M  V30 3918 C 362.711 -3.1268 0.141391 0
M  V30 3919 C 363.186 -4.55839 0.444422 0
M  V30 3920 N 364.677 -4.6152 0.394115 0
M  V30 3921 C 365.412 -5.70231 0.602038 0
M  V30 3922 N 364.908 -6.87291 0.871914 0
M  V30 3923 N 366.701 -5.59555 0.534245 0
M  V30 3924 H 358.852 -1.76941 1.17497 0
M  V30 3925 H 361.115 -0.822604 0.471197 0
M  V30 3926 H 360.821 -3.30234 1.2099 0
M  V30 3927 H 360.695 -3.74075 -0.484535 0
M  V30 3928 H 363.082 -2.82283 -0.860265 0
M  V30 3929 H 363.163 -2.40969 0.858335 0
M  V30 3930 H 362.807 -4.86954 1.44353 0
M  V30 3931 H 362.737 -5.2578 -0.293752 0
M  V30 3932 H 365.228 -3.77405 0.193356 0
M  V30 3933 H 365.541 -7.66058 1.01858 0
M  V30 3934 H 363.886 -6.89028 0.909145 0
M  V30 3935 H 367.077 -4.6698 0.323612 0
M  V30 3936 H 367.25 -6.44211 0.699693 0
M  V30 3937 N 360.656 0.0484629 -1.57525 0
M  V30 3938 C 361.566 1.07241 -2.08654 0
M  V30 3939 C 362.582 1.409 -1.02095 0
M  V30 3940 O 363.758 1.50609 -1.33712 0
M  V30 3941 C 360.823 2.36008 -2.5397 0
M  V30 3942 C 359.884 2.09108 -3.7493 0
M  V30 3943 C 359.117 3.31736 -4.18075 0
M  V30 3944 O 359.34 4.41714 -3.60895 0
M  V30 3945 O 358.274 3.18576 -5.10679 0
M  V30 3946 H 362.1 0.667965 -2.96263 0
M  V30 3947 H 359.685 0.26417 -1.47046 0
M  V30 3948 H 361.567 3.11747 -2.83535 0
M  V30 3949 H 360.242 2.75786 -1.69481 0
M  V30 3950 H 359.149 1.31 -3.50414 0
M  V30 3951 H 360.482 1.74198 -4.60343 0
M  V30 3952 N 362.134 1.5431 0.320358 0
M  V30 3953 C 363.359 1.76954 1.08175 0
M  V30 3954 C 363.784 0.518193 1.80821 0
M  V30 3955 O 363.142 -0.530411 1.73368 0
M  V30 3956 C 363.19 2.96451 2.05303 0
M  V30 3957 O 362.294 2.68221 3.13259 0
M  V30 3958 H 361.635 0.586275 0.311733 0
M  V30 3959 H 364.165 2.01342 0.363676 0
M  V30 3960 H 364.175 3.23887 2.48116 0
M  V30 3961 H 362.85 3.87196 1.51829 0
M  V30 3962 H 361.427 2.51744 2.75099 0
M  V30 3963 N 363.613 -0.582584 1.46437 0
M  V30 3964 C 364.862 -1.337 1.5102 0
M  V30 3965 C 365.175 -1.94891 0.166359 0
M  V30 3966 O 366.381 -2.71351 0.0899954 0
M  V30 3967 C 364.837 -2.42315 2.66104 0
M  V30 3968 C 364.445 -1.87427 4.06909 0
M  V30 3969 C 366.189 -3.19099 2.79958 0
M  V30 3970 C 364.096 -2.93672 5.13333 0
M  V30 3971 H 363.026 -0.502619 0.562041 0
M  V30 3972 H 365.677 -0.621701 1.72647 0
M  V30 3973 H 364.059 -3.16645 2.37807 0
M  V30 3974 H 365.233 -1.19639 4.44998 0
M  V30 3975 H 363.548 -1.2331 3.97723 0
M  V30 3976 H 366.145 -3.9839 3.56636 0
M  V30 3977 H 366.488 -3.71695 1.87479 0
M  V30 3978 H 367.021 -2.51875 3.07902 0
M  V30 3979 H 363.76 -2.45962 6.07604 0
M  V30 3980 H 363.28 -3.59948 4.79789 0
M  V30 3981 H 364.959 -3.5762 5.39182 0
M  V30 3982 N 365.091 -1.34144 -0.827227 0
M  V30 3983 C 366.038 -1.25364 -1.93785 0
M  V30 3984 C 367.008 -0.129774 -1.65592 0
M  V30 3985 O 368.193 -0.310024 -1.88264 0
M  V30 3986 C 365.333 -1.01064 -3.2997 0
M  V30 3987 C 364.446 -2.22185 -3.70484 0
M  V30 3988 C 363.581 -1.91203 -4.95595 0
M  V30 3989 C 362.62 -3.08491 -5.28677 0
M  V30 3990 N 361.757 -2.77421 -6.44967 0
M  V30 3991 H 366.597 -2.20347 -2.00627 0
M  V30 3992 H 364.134 -1.09558 -0.981608 0
M  V30 3993 H 366.092 -0.850139 -4.08446 0
M  V30 3994 H 364.722 -0.0975026 -3.22653 0
M  V30 3995 H 363.774 -2.4917 -2.87434 0
M  V30 3996 H 365.086 -3.0983 -3.90905 0
M  V30 3997 H 364.24 -1.71864 -5.81848 0
M  V30 3998 H 362.979 -1.00812 -4.77167 0
M  V30 3999 H 361.984 -3.28431 -4.40923 0
M  V30 4000 H 363.209 -3.99655 -5.49047 0
M  V30 4001 H 361.155 -1.89601 -6.28003 0
M  V30 4002 H 361.072 -3.58598 -6.6554 0
M  V30 4003 H 362.34 -2.61577 -7.34301 0
M  V30 4004 N 366.569 1.04691 -1.17803 0
M  V30 4005 C 367.499 2.14494 -0.92275 0
M  V30 4006 C 368.48 1.69546 0.137179 0
M  V30 4007 O 369.665 1.94195 -0.0141108 0
M  V30 4008 C 366.795 3.44491 -0.440803 0
M  V30 4009 C 365.749 4.03031 -1.4405 0
M  V30 4010 C 365.075 5.28432 -0.81631 0
M  V30 4011 C 366.375 4.39932 -2.81527 0
M  V30 4012 H 368.069 2.36107 -1.84103 0
M  V30 4013 H 365.615 1.1347 -0.886599 0
M  V30 4014 H 367.568 4.2066 -0.249602 0
M  V30 4015 H 366.292 3.22546 0.513025 0
M  V30 4016 H 364.951 3.28937 -1.61853 0
M  V30 4017 H 364.599 5.02792 0.144511 0
M  V30 4018 H 364.299 5.68559 -1.48371 0
M  V30 4019 H 365.823 6.07284 -0.635496 0
M  V30 4020 H 367.237 5.07113 -2.67412 0
M  V30 4021 H 365.634 4.9109 -3.44892 0
M  V30 4022 H 366.704 3.50045 -3.35554 0
M  V30 4023 N 368.047 0.979072 1.23499 0
M  V30 4024 C 369.293 0.648178 1.92163 0
M  V30 4025 C 369.626 -0.816049 1.76222 0
M  V30 4026 O 368.901 -1.58849 1.12237 0
M  V30 4027 C 369.184 1.03773 3.44824 0
M  V30 4028 C 369.037 2.55948 3.69879 0
M  V30 4029 C 370.356 0.580653 4.36253 0
M  V30 4030 H 367.475 0.236952 0.69787 0
M  V30 4031 H 370.117 1.22012 1.45647 0
M  V30 4032 H 368.267 0.551058 3.84572 0
M  V30 4033 H 369.939 3.12179 3.3962 0
M  V30 4034 H 368.182 2.98641 3.14636 0
M  V30 4035 H 368.853 2.78255 4.76737 0
M  V30 4036 H 371.329 0.998465 4.03943 0
M  V30 4037 H 370.205 0.881663 5.41773 0
M  V30 4038 H 370.466 -0.519052 4.39042 0
M  V30 4039 N 369.525 -1.3858 0.750561 0
M  V30 4040 C 370.472 -2.30483 0.120835 0
M  V30 4041 C 371.442 -1.50022 -0.712923 0
M  V30 4042 O 372.627 -1.78662 -0.669676 0
M  V30 4043 C 369.767 -3.36431 -0.768666 0
M  V30 4044 C 368.88 -4.31927 0.0793922 0
M  V30 4045 C 368.015 -5.24944 -0.81283 0
M  V30 4046 C 367.054 -6.12088 0.0390447 0
M  V30 4047 N 366.191 -6.97412 -0.809969 0
M  V30 4048 H 371.031 -2.83761 0.91015 0
M  V30 4049 H 368.568 -1.39707 0.460463 0
M  V30 4050 H 370.526 -3.96462 -1.29898 0
M  V30 4051 H 369.156 -2.8457 -1.5238 0
M  V30 4052 H 368.208 -3.73382 0.727303 0
M  V30 4053 H 369.52 -4.93319 0.737401 0
M  V30 4054 H 368.674 -5.90078 -1.41042 0
M  V30 4055 H 367.413 -4.63911 -1.50458 0
M  V30 4056 H 366.418 -5.45952 0.649328 0
M  V30 4057 H 367.643 -6.75189 0.727809 0
M  V30 4058 H 365.589 -6.38931 -1.48672 0
M  V30 4059 H 365.506 -7.55712 -0.208789 0
M  V30 4060 H 366.774 -7.66959 -1.39263 0
M  V30 4061 N 371.003 -0.499398 -1.49478 0
M  V30 4062 C 372.419 -0.155261 -1.58843 0
M  V30 4063 C 372.619 1.34008 -1.50479 0
M  V30 4064 O 371.675 2.11589 -1.37791 0
M  V30 4065 C 372.988 -0.730636 -2.91689 0
M  V30 4066 C 374.536 -0.696599 -3.0515 0
M  V30 4067 C 375.011 -1.25001 -4.40612 0
M  V30 4068 N 376.502 -1.21064 -4.47099 0
M  V30 4069 C 377.237 -1.60905 -5.50361 0
M  V30 4070 N 376.733 -2.08331 -6.60735 0
M  V30 4071 N 378.526 -1.52331 -5.41065 0
M  V30 4072 H 370.677 -1.47162 -1.53158 0
M  V30 4073 H 372.94 -0.610309 -0.725415 0
M  V30 4074 H 372.646 -1.77928 -3.03372 0
M  V30 4075 H 372.52 -0.190161 -3.7672 0
M  V30 4076 H 374.907 0.343204 -2.93097 0
M  V30 4077 H 374.988 -1.2742 -2.21806 0
M  V30 4078 H 374.632 -2.28859 -4.53416 0
M  V30 4079 H 374.562 -0.64836 -5.22593 0
M  V30 4080 H 377.053 -0.863128 -3.67911 0
M  V30 4081 H 377.366 -2.36805 -7.35624 0
M  V30 4082 H 375.711 -2.12304 -6.6178 0
M  V30 4083 H 378.902 -1.151 -4.53729 0
M  V30 4084 H 379.075 -1.83704 -6.21415 0
M  V30 4085 N 372.481 1.55866 -0.233164 0
M  V30 4086 C 373.411 2.23783 0.666599 0
M  V30 4087 C 374.392 1.21343 1.19205 0
M  V30 4088 O 375.577 1.4996 1.23392 0
M  V30 4089 C 372.707 2.92671 1.86978 0
M  V30 4090 C 371.661 4.01682 1.47768 0
M  V30 4091 C 370.987 4.57926 2.76058 0
M  V30 4092 C 372.287 5.18126 0.658993 0
M  V30 4093 H 373.981 2.99232 0.100306 0
M  V30 4094 H 371.527 1.43924 0.046804 0
M  V30 4095 H 373.48 3.3888 2.50476 0
M  V30 4096 H 372.204 2.14688 2.46123 0
M  V30 4097 H 370.863 3.56222 0.866106 0
M  V30 4098 H 370.511 3.76659 3.33372 0
M  V30 4099 H 370.211 5.31505 2.50552 0
M  V30 4100 H 371.735 5.06859 3.40479 0
M  V30 4101 H 373.149 5.60644 1.19795 0
M  V30 4102 H 371.546 5.98009 0.500552 0
M  V30 4103 H 372.616 4.83763 -0.331856 0
M  V30 4104 N 373.959 -0.0401083 1.57549 0
M  V30 4105 C 375.207 -0.731677 1.8839 0
M  V30 4106 C 375.528 -1.76481 0.829425 0
M  V30 4107 O 374.798 -1.95411 -0.1383 0
M  V30 4108 H 373.378 -0.273225 0.695239 0
M  V30 4109 H 376.04 -0.00867725 1.94898 0
M  V30 4110 H 375.136 -1.22816 2.86919 0
M  V30 4111 N 375.437 -1.54477 -0.31217 0
M  V30 4112 C 376.4 -1.83923 -1.36766 0
M  V30 4113 C 377.4 -0.711563 -1.44199 0
M  V30 4114 O 378.59 -0.979866 -1.44029 0
M  V30 4115 C 375.722 -2.0095 -2.75376 0
M  V30 4116 H 376.915 -2.78239 -1.11906 0
M  V30 4117 H 374.468 -1.46369 -0.548257 0
M  V30 4118 H 375.203 -1.08883 -3.05475 0
M  V30 4119 H 374.988 -2.83018 -2.71373 0
M  V30 4120 H 376.478 -2.2514 -3.51713 0
M  V30 4121 N 376.915 0.57481 -1.46744 0
M  V30 4122 C 378.163 1.33009 -1.52161 0
M  V30 4123 C 378.484 1.94185 -0.178092 0
M  V30 4124 O 377.754 1.7899 0.796196 0
M  V30 4125 H 376.334 0.493873 -0.560445 0
M  V30 4126 H 378.996 0.672589 -1.82927 0
M  V30 4127 H 378.092 2.13273 -2.27862 0
M  V30 4128 N 378.394 1.34581 0.820102 0
M  V30 4129 C 379.326 1.22236 1.93884 0
M  V30 4130 C 380.339 0.148776 1.62119 0
M  V30 4131 O 381.528 0.400877 1.7394 0
M  V30 4132 C 378.628 0.856542 3.27897 0
M  V30 4133 C 377.801 2.02569 3.87666 0
M  V30 4134 C 376.86 1.63782 5.00062 0
M  V30 4135 O 375.886 2.35477 5.18208 0
M  V30 4136 N 377.088 0.553611 5.77854 0
M  V30 4137 H 379.853 2.18615 2.05006 0
M  V30 4138 H 377.414 1.27573 0.99683 0
M  V30 4139 H 379.406 0.578806 4.0054 0
M  V30 4140 H 377.976 -0.0171518 3.12595 0
M  V30 4141 H 377.196 2.468 3.07382 0
M  V30 4142 H 378.484 2.80752 4.24329 0
M  V30 4143 H 377.882 -0.0423528 5.65684 0
M  V30 4144 H 376.439 0.335614 6.50935 0
M  V30 4145 N 379.872 -1.04064 1.18357 0
M  V30 4146 C 381.119 -1.77265 0.978947 0
M  V30 4147 C 381.447 -1.88189 -0.491428 0
M  V30 4148 O 380.702 -1.38653 -1.38108 0
M  V30 4149 C 381.001 -3.20634 1.57888 0
M  V30 4150 C 380.667 -3.29743 3.07539 0
M  V30 4151 C 379.329 -3.31937 3.48384 0
M  V30 4152 C 381.681 -3.29841 4.03552 0
M  V30 4153 C 379.009 -3.3187 4.83818 0
M  V30 4154 C 381.361 -3.31313 5.38901 0
M  V30 4155 C 380.025 -3.31799 5.79194 0
M  V30 4156 H 379.295 -0.648659 0.358222 0
M  V30 4157 H 381.942 -1.22225 1.47422 0
M  V30 4158 H 380.247 -3.78675 1.00561 0
M  V30 4159 H 381.944 -3.75917 1.39598 0
M  V30 4160 H 378.534 -3.28757 2.74986 0
M  V30 4161 H 382.718 -3.27337 3.73047 0
M  V30 4162 H 377.974 -3.30562 5.14333 0
M  V30 4163 H 382.148 -3.30338 6.13066 0
M  V30 4164 H 379.775 -3.315 6.84114 0
M  V30 4165 N 381.35 -0.985608 -1.22978 0
M  V30 4166 C 382.598 -0.656087 -1.91154 0
M  V30 4167 C 382.919 0.813561 -1.77218 0
M  V30 4168 O 382.189 1.58244 -1.1548 0
M  V30 4169 H 380.769 -0.239674 -0.707506 0
M  V30 4170 H 383.431 -1.25054 -1.49491 0
M  V30 4171 H 382.527 -0.912253 -2.9847 0
M  V30 4172 N 382.828 1.3818 -0.7579 0
M  V30 4173 C 383.738 2.3421 -0.135247 0
M  V30 4174 C 384.754 1.59487 0.695683 0
M  V30 4175 O 385.93 1.91657 0.618832 0
M  V30 4176 C 382.995 3.3862 0.744139 0
M  V30 4177 C 382.056 4.2918 -0.101658 0
M  V30 4178 C 381.289 5.28603 0.735851 0
M  V30 4179 O 381.512 5.35166 1.97366 0
M  V30 4180 O 380.446 6.01707 0.152372 0
M  V30 4181 H 384.272 2.8916 -0.928436 0
M  V30 4182 H 381.857 1.40101 -0.518855 0
M  V30 4183 H 383.739 4.02539 1.2466 0
M  V30 4184 H 382.414 2.86019 1.51575 0
M  V30 4185 H 381.321 3.68407 -0.650167 0
M  V30 4186 H 382.654 4.85048 -0.836024 0
M  V30 4187 N 384.306 0.507319 1.49211 0
M  V30 4188 C 385.552 -0.0350047 2.0277 0
M  V30 4189 C 385.885 -1.3606 1.38569 0
M  V30 4190 O 385.16 -1.87321 0.523542 0
M  V30 4191 C 385.443 -0.180916 3.59645 0
M  V30 4192 C 385.296 1.16825 4.34364 0
M  V30 4193 C 386.615 -0.918558 4.30407 0
M  V30 4194 H 383.734 -0.0112473 0.736914 0
M  V30 4195 H 386.376 0.659956 1.7817 0
M  V30 4196 H 384.526 -0.772826 3.80736 0
M  V30 4197 H 386.198 1.79952 4.24753 0
M  V30 4198 H 384.441 1.75594 3.96673 0
M  V30 4199 H 385.112 1.01939 5.42506 0
M  V30 4200 H 387.588 -0.41649 4.1401 0
M  V30 4201 H 386.464 -0.989505 5.39907 0
M  V30 4202 H 386.725 -1.96373 3.96093 0
M  V30 4203 N 385.784 -1.5574 0.241426 0
M  V30 4204 C 387.03 -1.99846 -0.378555 0
M  V30 4205 C 387.385 -1.12665 -1.55963 0
M  V30 4206 O 386.678 -0.180966 -1.90743 0
M  V30 4207 C 386.872 -3.47308 -0.843317 0
M  V30 4208 C 386.701 -4.48756 0.291178 0
M  V30 4209 C 385.471 -4.9949 0.764077 0
M  V30 4210 C 387.669 -5.02039 1.11631 0
M  V30 4211 N 385.651 -5.84676 1.87156 0
M  V30 4212 C 387.022 -5.84343 2.07226 0
M  V30 4213 C 389.077 -4.84354 1.15349 0
M  V30 4214 C 387.78 -6.50851 3.06245 0
M  V30 4215 C 389.806 -5.51636 2.13195 0
M  V30 4216 C 389.168 -6.33724 3.07528 0
M  V30 4217 H 385.267 -0.774968 -0.104634 0
M  V30 4218 H 387.851 -1.91385 0.357751 0
M  V30 4219 H 386.022 -3.56178 -1.54893 0
M  V30 4220 H 387.754 -3.78299 -1.43779 0
M  V30 4221 H 384.509 -4.72311 0.349175 0
M  V30 4222 H 384.933 -6.31967 2.42789 0
M  V30 4223 H 389.575 -4.20525 0.438057 0
M  V30 4224 H 387.293 -7.1385 3.78739 0
M  V30 4225 H 390.879 -5.39909 2.16771 0
M  V30 4226 H 389.759 -6.84867 3.82003 0
M  V30 4227 N 387.262 0.0317525 -1.57568 0
M  V30 4228 C 388.195 1.06621 -2.0176 0
M  V30 4229 C 389.173 1.35323 -0.901462 0
M  V30 4230 O 390.357 1.48025 -1.16708 0
M  V30 4231 C 387.484 2.40155 -2.38837 0
M  V30 4232 C 386.53 2.27327 -3.60867 0
M  V30 4233 S 387.363 1.62925 -5.10113 0
M  V30 4234 C 388.519 2.97955 -5.5043 0
M  V30 4235 H 388.752 0.689781 -2.89187 0
M  V30 4236 H 386.285 0.24164 -1.52497 0
M  V30 4237 H 388.243 3.1695 -2.6087 0
M  V30 4238 H 386.904 2.74946 -1.51867 0
M  V30 4239 H 386.097 3.25898 -3.84456 0
M  V30 4240 H 385.699 1.58675 -3.38671 0
M  V30 4241 H 387.991 3.94285 -5.5095 0
M  V30 4242 H 388.934 2.79102 -6.50775 0
M  V30 4243 H 389.342 3.00404 -4.77931 0
M  V30 4244 N 388.74 1.54641 0.303973 0
M  V30 4245 C 389.988 1.73437 1.0375 0
M  V30 4246 C 390.309 0.521449 1.87899 0
M  V30 4247 O 389.579 -0.46432 1.90318 0
M  V30 4248 H 388.159 0.639518 0.386039 0
M  V30 4249 H 390.821 1.91988 0.335675 0
M  V30 4250 H 389.917 2.62235 1.69231 0
M  V30 4251 N 390.218 -0.567019 1.47046 0
M  V30 4252 C 391.448 -1.34831 1.56538 0
M  V30 4253 C 391.856 -1.8802 0.21101 0
M  V30 4254 O 391.199 -1.65152 -0.804387 0
M  V30 4255 C 391.261 -2.56139 2.52256 0
M  V30 4256 C 390.925 -2.24307 3.98165 0
M  V30 4257 C 391.922 -1.82192 4.86931 0
M  V30 4258 C 389.607 -2.35968 4.43423 0
M  V30 4259 C 391.601 -1.52153 6.18973 0
M  V30 4260 C 389.288 -2.05542 5.75496 0
M  V30 4261 C 390.286 -1.63701 6.63092 0
M  V30 4262 O 389.974 -1.33657 7.92711 0
M  V30 4263 H 389.706 -0.417683 0.531523 0
M  V30 4264 H 392.26 -0.694726 1.93294 0
M  V30 4265 H 390.49 -3.24356 2.10548 0
M  V30 4266 H 392.179 -3.18214 2.51982 0
M  V30 4267 H 392.945 -1.72684 4.53217 0
M  V30 4268 H 388.824 -2.67495 3.75456 0
M  V30 4269 H 392.368 -1.19421 6.87302 0
M  V30 4270 H 388.265 -2.14679 6.08755 0
M  V30 4271 H 389.033 -1.4737 8.05124 0
M  V30 4272 N 391.696 -1.35014 -0.812953 0
M  V30 4273 C 392.926 -1.30841 -1.59888 0
M  V30 4274 C 393.334 0.117576 -1.88834 0
M  V30 4275 O 392.677 1.07807 -1.48739 0
M  V30 4276 C 392.739 -2.0412 -2.95931 0
M  V30 4277 C 392.403 -3.53336 -2.89832 0
M  V30 4278 C 393.4 -4.48052 -2.63714 0
M  V30 4279 C 391.085 -3.95894 -3.0915 0
M  V30 4280 C 393.079 -5.833 -2.56982 0
M  V30 4281 C 390.766 -5.31239 -3.0204 0
M  V30 4282 C 391.764 -6.24754 -2.75991 0
M  V30 4283 O 391.452 -7.57617 -2.68833 0
M  V30 4284 H 391.184 -0.451215 -0.50337 0
M  V30 4285 H 393.738 -1.78354 -1.01877 0
M  V30 4286 H 391.968 -1.51235 -3.559 0
M  V30 4287 H 393.657 -1.93107 -3.57022 0
M  V30 4288 H 394.423 -4.16492 -2.48515 0
M  V30 4289 H 390.302 -3.23495 -3.28438 0
M  V30 4290 H 393.846 -6.56263 -2.36569 0
M  V30 4291 H 389.743 -5.62415 -3.16796 0
M  V30 4292 H 390.511 -7.67469 -2.84487 0
M  V30 4293 N 393.175 1.03435 -1.18907 0
M  V30 4294 C 394.123 2.13703 -0.918353 0
M  V30 4295 C 395.117 1.68947 0.123767 0
M  V30 4296 O 396.323 1.79983 -0.0249701 0
M  V30 4297 H 392.698 0.698112 -0.279542 0
M  V30 4298 H 394.669 2.33731 -1.85506 0
M  V30 4299 C 393.418 3.44542 -0.467532 0
M  V30 4300 H 392.741 3.79394 -1.26095 0
M  V30 4301 H 394.181 4.22812 -0.317164 0
M  V30 4302 C 392.64 3.26829 0.817588 0
M  V30 4303 O 393.17 3.54975 1.88031 0
M  V30 4304 N 391.376 2.80139 0.772677 0
M  V30 4305 H 390.923 2.57434 -0.0923883 0
M  V30 4306 H 390.881 2.68668 1.63294 0
M  V30 4307 N 394.653 0.992116 1.22453 0
M  V30 4308 C 395.601 0.534644 2.26372 0
M  V30 4309 C 396.595 -0.414293 1.64256 0
M  V30 4310 O 397.801 -0.286899 1.77699 0
M  V30 4311 H 394.176 0.154502 0.735957 0
M  V30 4312 H 396.147 1.42256 2.62309 0
M  V30 4313 C 394.896 -0.135815 3.47435 0
M  V30 4314 H 394.219 0.585311 3.95492 0
M  V30 4315 H 395.659 -0.419374 4.21921 0
M  V30 4316 C 394.118 -1.37089 3.07747 0
M  V30 4317 O 394.648 -2.46629 3.17076 0
M  V30 4318 N 392.854 -1.24585 2.62539 0
M  V30 4319 H 392.401 -0.354542 2.55149 0
M  V30 4320 H 392.359 -2.07327 2.36353 0
M  V30 4321 N 396.131 -1.37776 0.765217 0
M  V30 4322 C 397.356 -2.04651 0.336537 0
M  V30 4323 C 397.781 -1.57337 -1.03086 0
M  V30 4324 O 397.139 -0.730621 -1.65927 0
M  V30 4325 C 397.187 -3.58577 0.381468 0
M  V30 4326 O 396.291 -4.07706 -0.62042 0
M  V30 4327 H 395.632 -0.64756 0.146838 0
M  V30 4328 H 398.162 -1.76221 1.03959 0
M  V30 4329 H 398.172 -4.07314 0.236448 0
M  V30 4330 H 396.847 -3.9237 1.37907 0
M  V30 4331 H 395.424 -3.70306 -0.439056 0
M  V30 4332 N 397.609 -0.515225 -1.4894 0
M  V30 4333 C 398.837 0.0206034 -2.0689 0
M  V30 4334 C 399.252 1.29514 -1.37374 0
M  V30 4335 O 398.609 1.76698 -0.456529 0
M  V30 4336 C 398.66 0.26351 -3.60538 0
M  V30 4337 O 398.381 -0.960517 -4.27441 0
M  V30 4338 C 399.882 0.841383 -4.35242 0
M  V30 4339 H 397.102 -0.0268608 -0.670462 0
M  V30 4340 H 399.646 -0.716651 -1.91532 0
M  V30 4341 H 397.801 0.950777 -3.75552 0
M  V30 4342 H 398.215 -0.73212 -5.19365 0
M  V30 4343 H 399.689 0.96085 -5.43573 0
M  V30 4344 H 400.166 1.8427 -3.98674 0
M  V30 4345 H 400.772 0.191143 -4.2487 0
M  V30 4346 N 399.087 1.5561 -0.249682 0
M  V30 4347 C 400.034 2.21496 0.648694 0
M  V30 4348 C 401.004 1.17977 1.16921 0
M  V30 4349 O 402.189 1.46434 1.22318 0
M  V30 4350 C 399.329 2.92039 1.83868 0
M  V30 4351 C 398.442 4.10219 1.35442 0
M  V30 4352 C 397.577 4.6847 2.50419 0
M  V30 4353 C 396.616 5.78893 1.98869 0
M  V30 4354 N 395.753 6.31315 3.07223 0
M  V30 4355 H 400.593 2.97892 0.0801582 0
M  V30 4356 H 398.13 1.47074 0.0278031 0
M  V30 4357 H 400.088 3.31138 2.53778 0
M  V30 4358 H 398.718 2.18111 2.37965 0
M  V30 4359 H 397.77 3.76413 0.54928 0
M  V30 4360 H 399.082 4.89927 0.936649 0
M  V30 4361 H 398.236 5.10158 3.28366 0
M  V30 4362 H 396.975 3.87984 2.95499 0
M  V30 4363 H 395.98 5.3668 1.19393 0
M  V30 4364 H 397.205 6.61232 1.54755 0
M  V30 4365 H 395.151 5.53733 3.51732 0
M  V30 4366 H 395.068 7.06224 2.69784 0
M  V30 4367 H 396.336 6.77662 3.8522 0
M  V30 4368 N 400.565 -0.0233959 1.57583 0
M  V30 4369 C 401.811 -0.714119 1.89811 0
M  V30 4370 C 402.144 -1.74702 0.848113 0
M  V30 4371 O 401.419 -1.94023 -0.136135 0
M  V30 4372 C 401.702 -1.37853 3.32669 0
M  V30 4373 C 401.555 -0.358764 4.48367 0
M  V30 4374 C 402.874 -2.31101 3.7454 0
M  V30 4375 H 399.993 -0.25814 0.690314 0
M  V30 4376 H 402.635 0.0230927 1.89986 0
M  V30 4377 H 400.785 -2.00689 3.3265 0
M  V30 4378 H 402.457 0.268115 4.6052 0
M  V30 4379 H 400.7 0.321387 4.32608 0
M  V30 4380 H 401.371 -0.862242 5.45224 0
M  V30 4381 H 403.847 -1.78304 3.75961 0
M  V30 4382 H 402.723 -2.74567 4.75294 0
M  V30 4383 H 402.984 -3.18018 3.0711 0
M  V30 4384 N 402.043 -1.548 -0.295768 0
M  V30 4385 C 403.006 -1.85363 -1.34808 0
M  V30 4386 C 404.006 -0.726817 -1.43436 0
M  V30 4387 O 405.196 -0.995088 -1.42981 0
M  V30 4388 C 402.328 -2.03859 -2.73229 0
M  V30 4389 H 403.521 -2.7941 -1.08949 0
M  V30 4390 H 401.074 -1.46942 -0.532702 0
M  V30 4391 H 401.809 -1.12117 -3.04303 0
M  V30 4392 H 401.594 -2.8588 -2.68356 0
M  V30 4393 H 403.084 -2.28857 -3.49305 0
M  V30 4394 N 403.521 0.559213 -1.47345 0
M  V30 4395 C 404.767 1.31843 -1.54095 0
M  V30 4396 C 405.1 1.93149 -0.201726 0
M  V30 4397 O 404.375 1.77759 0.789428 0
M  V30 4398 C 404.658 2.43006 -2.65744 0
M  V30 4399 C 404.511 1.86581 -4.09277 0
M  V30 4400 C 405.83 3.44943 -2.73318 0
M  V30 4401 H 402.949 0.478012 -0.560957 0
M  V30 4402 H 405.591 0.625977 -1.79392 0
M  V30 4403 H 403.741 3.02072 -2.44305 0
M  V30 4404 H 405.413 1.31792 -4.42073 0
M  V30 4405 H 403.656 1.17268 -4.17649 0
M  V30 4406 H 404.327 2.66933 -4.83168 0
M  V30 4407 H 406.803 2.95793 -2.92653 0
M  V30 4408 H 405.679 4.20153 -3.53218 0
M  V30 4409 H 405.94 4.03665 -1.80296 0
M  V30 4410 N 404.999 1.35443 0.805782 0
M  V30 4411 C 405.946 1.28431 1.91766 0
M  V30 4412 C 406.916 0.156102 1.65365 0
M  V30 4413 O 408.101 0.339936 1.87747 0
M  V30 4414 C 405.241 1.06301 3.2832 0
M  V30 4415 C 404.354 2.2805 3.66902 0
M  V30 4416 C 403.489 1.99064 4.92491 0
M  V30 4417 C 402.528 3.16863 5.23703 0
M  V30 4418 N 401.665 2.87647 6.40471 0
M  V30 4419 H 406.505 2.23511 1.97096 0
M  V30 4420 H 404.042 1.11105 0.964054 0
M  V30 4421 H 406 0.915012 4.07042 0
M  V30 4422 H 404.63 0.148822 3.22457 0
M  V30 4423 H 403.682 2.53711 2.83434 0
M  V30 4424 H 404.994 3.1601 3.85927 0
M  V30 4425 H 404.148 1.81099 5.7904 0
M  V30 4426 H 402.887 1.0839 4.75503 0
M  V30 4427 H 401.892 3.35404 4.35642 0
M  V30 4428 H 403.117 4.08339 5.4262 0
M  V30 4429 H 401.063 1.99568 6.24907 0
M  V30 4430 H 400.98 3.69141 6.59751 0
M  V30 4431 H 402.248 2.73226 7.30047 0
M  V30 4432 N 406.477 -1.02803 1.19454 0
M  V30 4433 C 407.705 -1.79841 1.02297 0
M  V30 4434 C 408.12 -1.83879 -0.428259 0
M  V30 4435 O 407.477 -1.28345 -1.29745 0
M  V30 4436 C 407.528 -3.24852 1.58598 0
M  V30 4437 O 407.249 -3.21097 2.98041 0
M  V30 4438 C 408.75 -4.18485 1.46236 0
M  V30 4439 H 405.97 -0.565936 0.360496 0
M  V30 4440 H 408.514 -1.2948 1.58288 0
M  V30 4441 H 406.669 -3.72401 1.06753 0
M  V30 4442 H 407.083 -4.12033 3.24545 0
M  V30 4443 H 408.557 -5.18121 1.90407 0
M  V30 4444 H 409.034 -4.37254 0.41301 0
M  V30 4445 H 409.64 -3.76811 1.97215 0
M  V30 4446 N 407.956 -0.998596 -1.21925 0
M  V30 4447 C 408.886 -0.573688 -2.26343 0
M  V30 4448 C 409.867 0.402296 -1.65274 0
M  V30 4449 O 411.052 0.291683 -1.91997 0
M  V30 4450 C 408.182 0.106839 -3.47136 0
M  V30 4451 C 407.136 -0.788269 -4.20678 0
M  V30 4452 C 406.462 0.0254927 -5.34694 0
M  V30 4453 C 407.762 -2.08784 -4.78755 0
M  V30 4454 H 409.456 -1.44651 -2.62138 0
M  V30 4455 H 407.002 -0.696975 -1.26009 0
M  V30 4456 H 408.955 0.415531 -4.19346 0
M  V30 4457 H 407.679 1.01424 -3.10452 0
M  V30 4458 H 406.338 -1.08069 -3.50309 0
M  V30 4459 H 405.986 0.933989 -4.94253 0
M  V30 4460 H 405.686 -0.570437 -5.84825 0
M  V30 4461 H 407.21 0.328147 -6.09718 0
M  V30 4462 H 408.624 -1.84272 -5.42878 0
M  V30 4463 H 407.021 -2.63307 -5.39249 0
M  V30 4464 H 408.091 -2.76284 -3.98491 0
M  V30 4465 N 409.434 1.37368 -0.772513 0
M  V30 4466 C 410.381 2.30262 -0.157488 0
M  V30 4467 C 411.351 1.51137 0.688965 0
M  V30 4468 O 412.536 1.79704 0.641168 0
M  V30 4469 C 409.676 3.37611 0.715045 0
M  V30 4470 C 408.789 4.31746 -0.148098 0
M  V30 4471 C 407.924 5.26171 0.729213 0
M  V30 4472 C 406.963 6.11948 -0.136418 0
M  V30 4473 N 406.1 6.98613 0.698914 0
M  V30 4474 H 410.94 2.82277 -0.955179 0
M  V30 4475 H 408.477 1.38957 -0.482631 0
M  V30 4476 H 410.435 3.98479 1.23575 0
M  V30 4477 H 409.065 2.86959 1.47833 0
M  V30 4478 H 408.117 3.72178 -0.786613 0
M  V30 4479 H 409.429 4.92084 -0.81579 0
M  V30 4480 H 408.583 5.92247 1.31637 0
M  V30 4481 H 407.322 4.66246 1.43059 0
M  V30 4482 H 406.327 5.4485 -0.736102 0
M  V30 4483 H 407.552 6.73945 -0.835134 0
M  V30 4484 H 405.498 6.41215 1.38489 0
M  V30 4485 H 405.415 7.55948 0.0885358 0
M  V30 4486 H 406.683 7.69077 1.27044 0
M  V30 4487 N 410.912 0.523116 1.48665 0
M  V30 4488 C 412.323 0.0808997 1.86525 0
M  V30 4489 C 412.674 -1.33975 1.43336 0
M  V30 4490 O 411.799 -2.00221 0.821009 0
M  V30 4491 C 412.394 0.140037 3.3851 0
M  V30 4492 C 410.953 -0.246948 3.75589 0
M  V30 4493 C 410.1 0.502845 2.72703 0
M  V30 4494 H 413.051 0.734736 1.40667 0
M  V30 4495 H 413.072 -0.649945 3.74908 0
M  V30 4496 H 412.584 1.17412 3.69914 0
M  V30 4497 H 410.685 -1.28343 3.49798 0
M  V30 4498 H 410.798 0.0878859 4.79019 0
M  V30 4499 H 409.162 -0.0500581 2.54651 0
M  V30 4500 H 409.945 1.53743 3.0695 0
M  V30 4501 N 412.39 -1.55475 0.257931 0
M  V30 4502 C 413.638 -1.98813 -0.363009 0
M  V30 4503 C 413.959 -1.14757 -1.57657 0
M  V30 4504 O 413.229 -0.232956 -1.9451 0
M  V30 4505 H 411.809 -0.734308 -0.137113 0
M  V30 4506 H 414.471 -1.9156 0.359281 0
M  V30 4507 H 413.567 -3.04941 -0.664634 0
M  V30 4508 N 413.868 0.0150385 -1.57593 0
M  V30 4509 C 415.096 0.714395 -1.94175 0
M  V30 4510 C 415.511 1.68135 -0.858841 0
M  V30 4511 O 414.868 1.81766 0.163567 0
M  V30 4512 C 414.919 1.45933 -3.30735 0
M  V30 4513 O 414.64 0.531167 -4.34868 0
M  V30 4514 C 416.141 2.25456 -3.81686 0
M  V30 4515 H 413.361 0.199923 -0.640525 0
M  V30 4516 H 415.905 -0.0316096 -2.04476 0
M  V30 4517 H 414.06 2.15709 -3.21789 0
M  V30 4518 H 414.474 1.05509 -5.13778 0
M  V30 4519 H 415.948 2.731 -4.79709 0
M  V30 4520 H 416.425 3.07485 -3.13607 0
M  V30 4521 H 417.031 1.60727 -3.9376 0
M  V30 4522 N 415.346 1.54954 0.287554 0
M  V30 4523 C 416.279 1.81737 1.3801 0
M  V30 4524 C 417.257 0.669412 1.48181 0
M  V30 4525 O 418.441 0.910839 1.65033 0
M  V30 4526 C 415.568 1.96606 2.75796 0
M  V30 4527 C 414.614 3.19098 2.82982 0
M  V30 4528 S 415.447 4.7683 2.43707 0
M  V30 4529 C 416.603 4.94653 3.83496 0
M  V30 4530 H 416.836 2.74122 1.15085 0
M  V30 4531 H 414.369 1.46538 0.486403 0
M  V30 4532 H 416.327 2.05858 3.55152 0
M  V30 4533 H 414.988 1.05136 2.95982 0
M  V30 4534 H 414.181 3.26344 3.84077 0
M  V30 4535 H 413.783 3.08361 2.11635 0
M  V30 4536 H 416.075 4.79502 4.78628 0
M  V30 4537 H 417.018 5.96728 3.8121 0
M  V30 4538 H 417.426 4.2272 3.74123 0
M  V30 4539 N 416.824 -0.551391 1.4764 0
M  V30 4540 C 418.049 -1.33837 1.58437 0
M  V30 4541 C 418.474 -1.866 0.237063 0
M  V30 4542 O 417.832 -1.6328 -0.787994 0
M  V30 4543 C 417.88 -2.48014 2.61766 0
M  V30 4544 O 416.984 -3.50419 2.1744 0
M  V30 4545 H 416.325 -0.397299 0.532024 0
M  V30 4546 H 418.855 -0.665759 1.93465 0
M  V30 4547 H 418.865 -2.94503 2.82369 0
M  V30 4548 H 417.54 -2.08969 3.5959 0
M  V30 4549 H 416.117 -3.10196 2.06961 0
M  V30 4550 N 418.302 -1.35869 -0.798587 0
M  V30 4551 C 419.548 -1.2978 -1.55836 0
M  V30 4552 C 419.881 0.125322 -1.93795 0
M  V30 4553 O 419.156 1.07658 -1.61987 0
M  V30 4554 C 419.439 -2.21188 -2.84162 0
M  V30 4555 C 419.292 -3.72155 -2.52628 0
M  V30 4556 C 420.611 -2.11545 -3.85923 0
M  V30 4557 H 417.73 -0.472769 -0.565383 0
M  V30 4558 H 420.372 -1.66341 -0.918192 0
M  V30 4559 H 418.522 -1.90139 -3.38791 0
M  V30 4560 H 420.194 -4.13682 -2.04121 0
M  V30 4561 H 418.437 -3.92042 -1.85704 0
M  V30 4562 H 419.108 -4.31511 -3.44242 0
M  V30 4563 H 421.584 -2.38855 -3.40716 0
M  V30 4564 H 420.46 -2.77688 -4.73477 0
M  V30 4565 H 420.721 -1.09987 -4.282 0
M  V30 4566 N 419.78 1.02168 -1.19998 0
M  V30 4567 C 420.712 2.10705 -0.901994 0
M  V30 4568 C 421.725 1.6244 0.108216 0
M  V30 4569 O 422.914 1.78082 -0.12214 0
M  V30 4570 C 420.014 3.37291 -0.329834 0
M  V30 4571 C 419.187 4.14714 -1.39035 0
M  V30 4572 C 418.246 5.19606 -0.830432 0
M  V30 4573 O 417.272 5.48809 -1.50989 0
M  V30 4574 N 418.474 5.79366 0.362696 0
M  V30 4575 H 421.239 2.36856 -1.83628 0
M  V30 4576 H 418.8 1.18518 -1.10296 0
M  V30 4577 H 420.792 4.04657 0.0587633 0
M  V30 4578 H 419.362 3.0843 0.508891 0
M  V30 4579 H 418.582 3.42392 -1.9535 0
M  V30 4580 H 419.87 4.63226 -2.10474 0
M  V30 4581 H 419.268 5.57968 0.932081 0
M  V30 4582 H 417.825 6.48106 0.69299 0
M  V30 4583 N 421.258 1.00505 1.21394 0
M  V30 4584 C 422.221 0.570459 2.21987 0
M  V30 4585 C 423.221 -0.353211 1.56873 0
M  V30 4586 O 424.411 -0.14349 1.73608 0
M  V30 4587 C 421.543 -0.168555 3.40483 0
M  V30 4588 H 422.736 1.46021 2.6195 0
M  V30 4589 H 420.289 0.793565 1.34656 0
M  V30 4590 H 421.024 -1.07374 3.06009 0
M  V30 4591 H 420.809 0.494823 3.88965 0
M  V30 4592 H 422.299 -0.460362 4.15055 0
M  V30 4593 N 422.737 -1.36956 0.779787 0
M  V30 4594 C 423.984 -1.99491 0.347766 0
M  V30 4595 C 424.312 -1.61898 -1.07793 0
M  V30 4596 O 423.567 -0.86071 -1.75756 0
M  V30 4597 C 423.866 -3.54585 0.447686 0
M  V30 4598 C 423.532 -4.1197 1.83279 0
M  V30 4599 C 422.194 -4.27356 2.2118 0
M  V30 4600 C 424.546 -4.43354 2.74019 0
M  V30 4601 C 421.874 -4.71432 3.4924 0
M  V30 4602 C 424.226 -4.88858 4.01497 0
M  V30 4603 C 422.89 -5.0245 4.39432 0
M  V30 4604 H 422.16 -0.729991 0.127257 0
M  V30 4605 H 424.807 -1.63599 0.995376 0
M  V30 4606 H 423.112 -3.90773 -0.283447 0
M  V30 4607 H 424.809 -4.00888 0.0945948 0
M  V30 4608 H 421.399 -4.00428 1.52825 0
M  V30 4609 H 425.583 -4.31045 2.45995 0
M  V30 4610 H 420.839 -4.80141 3.78516 0
M  V30 4611 H 425.013 -5.12108 4.71931 0
M  V30 4612 H 422.64 -5.36362 5.38721 0
M  V30 4613 N 424.215 -0.530993 -1.48385 0
M  V30 4614 C 425.145 0.219985 -2.32461 0
M  V30 4615 C 426.126 0.934111 -1.42156 0
M  V30 4616 O 427.311 0.919694 -1.71042 0
M  V30 4617 C 424.441 1.26674 -3.23375 0
M  V30 4618 C 423.395 0.67069 -4.22712 0
M  V30 4619 C 422.721 1.82017 -5.02766 0
M  V30 4620 C 424.021 -0.358268 -5.2107 0
M  V30 4621 H 425.715 -0.48187 -2.95497 0
M  V30 4622 H 423.261 -0.233182 -1.42099 0
M  V30 4623 H 425.214 1.80006 -3.81019 0
M  V30 4624 H 423.938 1.99818 -2.58341 0
M  V30 4625 H 422.597 0.158878 -3.66256 0
M  V30 4626 H 422.245 2.54002 -4.34157 0
M  V30 4627 H 421.945 1.42727 -5.70003 0
M  V30 4628 H 423.469 2.35725 -5.63264 0
M  V30 4629 H 424.883 0.0880081 -5.73232 0
M  V30 4630 H 423.28 -0.66861 -5.96364 0
M  V30 4631 H 424.35 -1.26367 -4.68145 0
M  V30 4632 N 425.693 1.55336 -0.266172 0
M  V30 4633 C 426.603 2.2583 0.635458 0
M  V30 4634 C 427.619 1.28106 1.17749 0
M  V30 4635 O 428.795 1.61024 1.20968 0
M  V30 4636 C 425.86 2.95879 1.80712 0
M  V30 4637 C 424.921 4.09059 1.30265 0
M  V30 4638 C 424.154 4.75759 2.41846 0
M  V30 4639 O 424.377 4.41622 3.61007 0
M  V30 4640 O 423.311 5.63888 2.1051 0
M  V30 4641 H 427.137 3.03631 0.0646693 0
M  V30 4642 H 424.722 1.49361 -0.0339177 0
M  V30 4643 H 426.604 3.39932 2.49047 0
M  V30 4644 H 425.279 2.21002 2.36516 0
M  V30 4645 H 424.186 3.69482 0.586019 0
M  V30 4646 H 425.519 4.85811 0.790458 0
M  V30 4647 N 427.171 -0.0066808 1.57599 0
M  V30 4648 C 428.081 -1.01671 2.11424 0
M  V30 4649 C 429.097 -1.38143 1.05795 0
M  V30 4650 O 430.273 -1.47011 1.37658 0
M  V30 4651 C 427.338 -2.29192 2.60139 0
M  V30 4652 C 426.399 -1.99094 3.80342 0
M  V30 4653 C 425.632 -3.20535 4.26724 0
M  V30 4654 O 425.855 -4.3199 3.72479 0
M  V30 4655 O 424.789 -3.04924 5.18946 0
M  V30 4656 H 428.615 -0.589181 2.9793 0
M  V30 4657 H 426.2 -0.225091 1.47695 0
M  V30 4658 H 428.082 -3.0412 2.917 0
M  V30 4659 H 426.757 -2.71195 1.76733 0
M  V30 4660 H 425.664 -1.21663 3.53764 0
M  V30 4661 H 426.997 -1.61931 4.648 0
M  V30 4662 N 428.649 -1.55105 -0.279332 0
M  V30 4663 C 429.612 -1.86783 -1.32834 0
M  V30 4664 C 430.612 -0.74199 -1.42657 0
M  V30 4665 O 431.802 -1.0102 -1.41918 0
M  V30 4666 C 428.934 -2.06746 -2.71052 0
M  V30 4667 H 430.127 -2.8055 -1.05979 0
M  V30 4668 H 427.68 -1.47499 -0.517087 0
M  V30 4669 H 428.415 -1.15339 -3.03097 0
M  V30 4670 H 428.2 -2.88711 -2.65309 0
M  V30 4671 H 429.69 -2.32549 -3.46858 0
M  V30 4672 N 430.127 0.543554 -1.4793 0
M  V30 4673 C 431.075 1.67039 -1.61866 0
M  V30 4674 C 432.069 1.62294 -0.48549 0
M  V30 4675 O 433.275 1.67315 -0.66376 0
M  V30 4676 H 429.65 0.552954 -0.509652 0
M  V30 4677 H 431.621 1.52426 -2.56533 0
M  V30 4678 C 430.37 3.05357 -1.6629 0
M  V30 4679 H 429.693 3.09696 -2.5284 0
M  V30 4680 H 431.133 3.83855 -1.80088 0
M  V30 4681 C 429.592 3.34531 -0.398861 0
M  V30 4682 O 430.122 3.98649 0.494162 0
M  V30 4683 N 428.328 2.89299 -0.2747 0
M  V30 4684 H 427.875 2.37298 -1.00236 0
M  V30 4685 H 427.833 3.09188 0.570075 0
M  V30 4686 N 431.605 1.3629 0.791371 0
M  V30 4687 C 432.535 1.33137 1.91825 0
M  V30 4688 C 433.516 0.203168 1.68882 0
M  V30 4689 O 434.701 0.400509 1.90025 0
M  V30 4690 C 431.831 1.11793 3.28816 0
M  V30 4691 C 430.785 2.21417 3.66277 0
M  V30 4692 C 430.111 1.85218 5.01596 0
M  V30 4693 C 431.411 3.63489 3.75064 0
M  V30 4694 H 433.105 2.2743 1.9472 0
M  V30 4695 H 430.651 1.09479 0.935437 0
M  V30 4696 H 432.604 1.08222 4.07266 0
M  V30 4697 H 431.328 0.139501 3.26302 0
M  V30 4698 H 429.987 2.2411 2.90121 0
M  V30 4699 H 429.635 0.859544 4.95602 0
M  V30 4700 H 429.335 2.58611 5.27631 0
M  V30 4701 H 430.859 1.832 5.82469 0
M  V30 4702 H 432.273 3.63034 4.43711 0
M  V30 4703 H 430.67 4.35771 4.12582 0
M  V30 4704 H 431.74 3.98536 2.76219 0
M  V30 4705 N 433.083 -1.0153 1.20538 0
M  V30 4706 C 434.016 -2.09759 0.898695 0
M  V30 4707 C 434.994 -1.61909 -0.149733 0
M  V30 4708 O 436.178 -1.88486 -0.0230293 0
M  V30 4709 C 433.305 -3.36913 0.347512 0
M  V30 4710 C 432.351 -4.03655 1.37713 0
M  V30 4711 S 433.184 -4.47402 2.94265 0
M  V30 4712 C 434.34 -5.77756 2.40726 0
M  V30 4713 H 434.573 -2.3545 1.81523 0
M  V30 4714 H 432.106 -1.14665 1.03399 0
M  V30 4715 H 434.064 -4.10484 0.0360518 0
M  V30 4716 H 432.725 -3.09291 -0.547546 0
M  V30 4717 H 431.918 -4.9514 0.940872 0
M  V30 4718 H 431.52 -3.36313 1.63614 0
M  V30 4719 H 433.812 -6.52994 1.80569 0
M  V30 4720 H 434.755 -6.2618 3.30612 0
M  V30 4721 H 435.163 -5.34081 1.82806 0
M  V30 4722 N 434.561 -1.01147 -1.20859 0
M  V30 4723 C 435.508 -0.577354 -2.23462 0
M  V30 4724 C 436.478 0.399922 -1.61214 0
M  V30 4725 O 437.663 0.300515 -1.88419 0
M  V30 4726 C 434.803 0.083372 -3.44999 0
M  V30 4727 C 433.916 -0.937856 -4.21697 0
M  V30 4728 C 433.051 -0.248717 -5.30617 0
M  V30 4729 C 432.09 -1.25705 -5.99053 0
M  V30 4730 N 431.227 -0.594939 -6.99575 0
M  V30 4731 H 436.067 -1.45695 -2.59956 0
M  V30 4732 H 433.604 -0.729428 -1.27741 0
M  V30 4733 H 435.562 0.483535 -4.14388 0
M  V30 4734 H 434.192 0.926645 -3.09214 0
M  V30 4735 H 433.244 -1.45622 -3.51423 0
M  V30 4736 H 434.556 -1.70493 -4.68757 0
M  V30 4737 H 433.71 0.207215 -6.06346 0
M  V30 4738 H 432.449 0.55071 -4.84581 0
M  V30 4739 H 431.454 -1.72343 -5.2209 0
M  V30 4740 H 432.679 -2.05767 -6.47176 0
M  V30 4741 H 430.625 0.184713 -6.5574 0
M  V30 4742 H 430.542 -1.30017 -7.44736 0
M  V30 4743 H 431.81 -0.162427 -7.79331 0
M  V30 4744 N 436.039 1.36541 -0.78704 0
M  V30 4745 C 437.267 2.03561 -0.370199 0
M  V30 4746 C 437.682 1.59347 1.01263 0
M  V30 4747 O 437.039 0.781781 1.64907 0
M  V30 4748 C 437.09 3.59033 -0.421614 0
M  V30 4749 O 436.811 4.01634 -1.7499 0
M  V30 4750 C 438.312 4.433 0.00489763 0
M  V30 4751 H 435.532 0.653346 -0.152904 0
M  V30 4752 H 438.076 1.74566 -1.06522 0
M  V30 4753 H 436.231 3.86746 0.224971 0
M  V30 4754 H 436.645 4.96217 -1.69909 0
M  V30 4755 H 438.119 5.51939 -0.0822184 0
M  V30 4756 H 438.596 4.26285 1.05723 0
M  V30 4757 H 439.202 4.20843 -0.614085 0
M  V30 4758 N 437.518 0.538854 1.48102 0
M  V30 4759 C 438.448 -0.207654 2.32575 0
M  V30 4760 C 439.429 -0.926559 1.4265 0
M  V30 4761 O 440.614 -0.91061 1.71527 0
M  V30 4762 C 437.744 -1.24957 3.24042 0
M  V30 4763 C 436.698 -0.648263 4.23062 0
M  V30 4764 C 436.024 -1.79348 5.03725 0
M  V30 4765 C 437.324 0.385897 5.20872 0
M  V30 4766 H 439.018 0.497534 2.95237 0
M  V30 4767 H 436.564 0.240715 1.41974 0
M  V30 4768 H 438.517 -1.77983 3.81969 0
M  V30 4769 H 437.241 -1.98446 2.59397 0
M  V30 4770 H 435.9 -0.139452 3.66335 0
M  V30 4771 H 435.548 -2.51696 4.35498 0
M  V30 4772 H 435.248 -1.39702 5.70751 0
M  V30 4773 H 436.772 -2.32735 5.64506 0
M  V30 4774 H 438.186 -0.057607 5.73271 0
M  V30 4775 H 436.583 0.700227 5.96001 0
M  V30 4776 H 437.653 1.28848 4.67468 0
M  V30 4777 N 438.996 -1.55193 0.274407 0
M  V30 4778 C 439.928 -2.1989 -0.646595 0
M  V30 4779 C 440.941 -1.1834 -1.11801 0
M  V30 4780 O 442.13 -1.4507 -1.04004 0
M  V30 4781 C 439.23 -2.8104 -1.89393 0
M  V30 4782 C 438.403 -4.08274 -1.56943 0
M  V30 4783 C 437.462 -4.53478 -2.66916 0
M  V30 4784 O 436.488 -5.19267 -2.33132 0
M  V30 4785 N 437.69 -4.2356 -3.9696 0
M  V30 4786 H 440.455 -2.99556 -0.0928686 0
M  V30 4787 H 438.016 -1.61618 0.0954783 0
M  V30 4788 H 440.008 -3.08226 -2.62257 0
M  V30 4789 H 438.578 -2.05372 -2.35672 0
M  V30 4790 H 437.798 -3.88384 -0.674655 0
M  V30 4791 H 439.086 -4.91173 -1.32764 0
M  V30 4792 H 438.484 -3.70799 -4.27229 0
M  V30 4793 H 437.041 -4.55518 -4.66205 0
M  V30 4794 N 440.474 -0.00167713 -1.576 0
M  V30 4795 C 441.424 0.997744 -2.0501 0
M  V30 4796 C 442.408 1.30214 -0.94515 0
M  V30 4797 O 443.6 1.29284 -1.20891 0
M  V30 4798 C 440.729 2.2892 -2.55833 0
M  V30 4799 C 439.815 2.01437 -3.73208 0
M  V30 4800 N 440.206 1.44119 -4.84833 0
M  V30 4801 C 438.504 2.31571 -3.8117 0
M  V30 4802 C 439.205 1.33145 -5.66257 0
M  V30 4803 N 438.181 1.81763 -5.12312 0
M  V30 4804 H 441.983 0.549098 -2.88725 0
M  V30 4805 H 439.497 0.20398 -1.61114 0
M  V30 4806 H 441.494 3.01361 -2.88075 0
M  V30 4807 H 440.154 2.74436 -1.73537 0
M  V30 4808 H 441.165 1.11978 -5.0565 0
M  V30 4809 H 437.842 2.7995 -3.09732 0
M  V30 4810 H 439.232 0.890567 -6.65972 0
M  V30 4811 N 441.952 1.55251 0.271103 0
M  V30 4812 C 443.229 1.66664 1.02384 0
M  V30 4813 C 443.609 0.534363 2.04225 0
M  V30 4814 O 442.957 -0.465337 2.23712 0
M  V30 4815 C 443.167 3.05961 1.67895 0
M  V30 4816 C 444.515 3.63772 2.18986 0
M  V30 4817 O 445.539 3.08606 1.77878 0
M  V30 4818 O 444.398 4.60429 2.94393 0
M  V30 4819 H 441.492 0.676957 0.475035 0
M  V30 4820 H 444.038 1.67589 0.26681 0
M  V30 4821 H 442.81 3.79815 0.941071 0
M  V30 4822 H 442.433 3.08943 2.5028 0
M  V30 4823 N 443.43 -0.535701 1.48216 0
M  V30 4824 C 444.377 -1.64083 1.62312 0
M  V30 4825 C 445.347 -1.59448 0.465365 0
M  V30 4826 O 446.532 -1.77959 0.688135 0
M  V30 4827 C 443.672 -3.0236 1.66349 0
M  V30 4828 C 442.785 -3.17273 2.93193 0
M  V30 4829 C 441.92 -4.46075 2.88427 0
M  V30 4830 C 440.959 -4.54496 4.1 0
M  V30 4831 N 440.096 -5.7468 4.03345 0
M  V30 4832 H 444.936 -1.51374 2.5669 0
M  V30 4833 H 442.473 -0.737059 1.27302 0
M  V30 4834 H 444.431 -3.82461 1.66672 0
M  V30 4835 H 443.061 -3.13854 0.754672 0
M  V30 4836 H 442.113 -2.30462 3.02641 0
M  V30 4837 H 443.425 -3.19357 3.83162 0
M  V30 4838 H 442.579 -5.3446 2.87119 0
M  V30 4839 H 441.318 -4.46504 1.96177 0
M  V30 4840 H 440.323 -3.64519 4.11589 0
M  V30 4841 H 441.548 -4.5581 5.03402 0
M  V30 4842 H 439.494 -5.76017 3.13912 0
M  V30 4843 H 439.411 -5.78234 4.87013 0
M  V30 4844 H 440.679 -6.65367 4.06087 0
M  V30 4845 N 444.908 -1.36708 -0.784132 0
M  V30 4846 C 445.838 -1.34153 -1.91116 0
M  V30 4847 C 446.819 -0.212121 -1.68772 0
M  V30 4848 O 448.004 -0.410581 -1.8981 0
M  V30 4849 C 445.134 -1.13535 -3.28218 0
M  V30 4850 C 444.088 -2.23356 -3.65097 0
M  V30 4851 C 443.414 -1.87875 -5.00607 0
M  V30 4852 C 444.714 -3.65473 -3.73131 0
M  V30 4853 H 446.408 -2.28459 -1.93512 0
M  V30 4854 H 443.954 -1.09973 -0.929618 0
M  V30 4855 H 445.907 -1.10381 -4.06687 0
M  V30 4856 H 444.631 -0.156804 -3.26223 0
M  V30 4857 H 443.29 -2.25645 -2.88929 0
M  V30 4858 H 442.938 -0.885814 -4.95139 0
M  V30 4859 H 442.638 -2.61406 -5.26252 0
M  V30 4860 H 444.162 -1.86286 -5.81489 0
M  V30 4861 H 445.576 -3.65382 -4.41779 0
M  V30 4862 H 443.973 -4.37953 -4.10265 0
M  V30 4863 H 445.043 -3.99995 -2.74102 0
M  V30 4864 N 446.386 1.0089 -1.21074 0
M  V30 4865 C 447.632 1.74866 -1.02712 0
M  V30 4866 C 447.965 1.89178 0.438787 0
M  V30 4867 O 447.24 1.42325 1.32567 0
M  V30 4868 C 447.523 3.16347 -1.72036 0
M  V30 4869 C 447.376 3.09782 -3.26121 0
M  V30 4870 C 448.695 4.15187 -1.45973 0
M  V30 4871 H 445.814 0.634736 -0.374539 0
M  V30 4872 H 448.456 1.17646 -1.49196 0
M  V30 4873 H 446.606 3.65201 -1.32517 0
M  V30 4874 H 448.278 2.68673 -3.74983 0
M  V30 4875 H 446.521 2.46982 -3.56626 0
M  V30 4876 H 447.192 4.09829 -3.6979 0
M  V30 4877 H 449.668 3.75022 -1.80272 0
M  V30 4878 H 448.544 5.12331 -1.96999 0
M  V30 4879 H 448.805 4.40386 -0.388924 0
M  V30 4880 N 447.864 1.01787 1.20321 0
M  V30 4881 C 449.28 0.732951 1.41774 0
M  V30 4882 C 449.48 -0.686883 1.89431 0
M  V30 4883 O 448.536 -1.45446 2.06402 0
M  V30 4884 C 449.849 1.75973 2.43832 0
M  V30 4885 C 451.397 1.77802 2.57596 0
M  V30 4886 C 451.872 2.7941 3.62897 0
M  V30 4887 N 453.363 2.78157 3.70382 0
M  V30 4888 C 454.098 3.53434 4.51521 0
M  V30 4889 N 453.594 4.38392 5.36455 0
M  V30 4890 N 455.387 3.42026 4.46066 0
M  V30 4891 H 447.538 1.93447 0.877035 0
M  V30 4892 H 449.801 0.835712 0.447536 0
M  V30 4893 H 449.507 2.77699 2.15815 0
M  V30 4894 H 449.381 1.57292 3.4284 0
M  V30 4895 H 451.768 0.767602 2.84942 0
M  V30 4896 H 451.849 2.00557 1.58779 0
M  V30 4897 H 451.493 3.80616 3.36295 0
M  V30 4898 H 451.423 2.53916 4.61339 0
M  V30 4899 H 453.914 2.16531 3.09714 0
M  V30 4900 H 454.227 4.92596 5.95457 0
M  V30 4901 H 452.572 4.4247 5.35953 0
M  V30 4902 H 455.763 2.75075 3.78749 0
M  V30 4903 H 455.936 4.00946 5.09064 0
M  V30 4904 N 449.342 -1.36122 0.79427 0
M  V30 4905 C 450.272 -2.32551 0.210328 0
M  V30 4906 C 451.253 -1.56884 -0.657386 0
M  V30 4907 O 452.438 -1.85014 -0.590207 0
M  V30 4908 C 449.568 -3.41128 -0.651819 0
M  V30 4909 C 448.522 -4.27842 0.116395 0
M  V30 4910 C 447.848 -5.2763 -0.86666 0
M  V30 4911 C 449.148 -5.05647 1.30837 0
M  V30 4912 H 450.842 -2.81636 1.01594 0
M  V30 4913 H 448.388 -1.35407 0.489981 0
M  V30 4914 H 450.341 -4.07581 -1.07031 0
M  V30 4915 H 449.065 -2.90622 -1.49019 0
M  V30 4916 H 447.724 -3.62952 0.515915 0
M  V30 4917 H 447.372 -4.73395 -1.70019 0
M  V30 4918 H 447.072 -5.86514 -0.35705 0
M  V30 4919 H 448.596 -5.96955 -1.28361 0
M  V30 4920 H 450.01 -5.65113 0.965393 0
M  V30 4921 H 448.407 -5.73967 1.75161 0
M  V30 4922 H 449.477 -4.37006 2.10128 0
M  V30 4923 N 450.82 -0.546701 -1.47814 0
M  V30 4924 C 452.05 -0.0232519 -2.06587 0
M  V30 4925 C 452.458 1.2712 -1.40133 0
M  V30 4926 O 451.801 1.77091 -0.488305 0
M  V30 4927 C 451.863 0.254117 -3.58601 0
M  V30 4928 C 451.527 -0.949331 -4.47031 0
M  V30 4929 C 452.524 -1.85216 -4.85789 0
M  V30 4930 C 450.209 -1.16104 -4.88697 0
M  V30 4931 C 452.203 -2.95047 -5.65001 0
M  V30 4932 C 449.89 -2.26247 -5.67676 0
M  V30 4933 C 450.888 -3.1555 -6.05737 0
M  V30 4934 O 450.576 -4.23784 -6.83127 0
M  V30 4935 H 450.308 -0.0380082 -0.674931 0
M  V30 4936 H 452.862 -0.756631 -1.90956 0
M  V30 4937 H 451.092 1.04168 -3.72406 0
M  V30 4938 H 452.781 0.72167 -3.99433 0
M  V30 4939 H 453.547 -1.70061 -4.54207 0
M  V30 4940 H 449.426 -0.475159 -4.58545 0
M  V30 4941 H 452.97 -3.64778 -5.94628 0
M  V30 4942 H 448.867 -2.41379 -5.98671 0
M  V30 4943 H 449.635 -4.21701 -7.01506 0
M  V30 4944 N 452.299 1.55045 -0.282633 0
M  V30 4945 C 453.262 2.21515 0.588539 0
M  V30 4946 C 454.262 1.19535 1.07554 0
M  V30 4947 O 455.452 1.44391 0.974514 0
M  V30 4948 C 452.584 2.88704 1.8128 0
M  V30 4949 H 453.777 2.99899 0.00806397 0
M  V30 4950 H 451.33 1.56265 -0.0333067 0
M  V30 4951 H 452.065 2.14352 2.43359 0
M  V30 4952 H 451.85 3.63443 1.47144 0
M  V30 4953 H 453.34 3.39465 2.43214 0
M  V30 4954 N 453.777 0.010035 1.57597 0
M  V30 4955 C 455.023 -0.673697 1.91283 0
M  V30 4956 C 455.356 -1.72863 0.884979 0
M  V30 4957 O 454.631 -1.94268 -0.0949487 0
M  V30 4958 C 454.914 -1.30766 3.35518 0
M  V30 4959 C 454.767 -0.263578 4.49027 0
M  V30 4960 C 456.086 -2.23105 3.79358 0
M  V30 4961 H 453.205 -0.243439 0.695634 0
M  V30 4962 H 455.847 0.0633864 1.89894 0
M  V30 4963 H 453.997 -1.93588 3.36832 0
M  V30 4964 H 455.669 0.365738 4.59848 0
M  V30 4965 H 453.912 0.413077 4.31829 0
M  V30 4966 H 454.583 -0.746398 5.4693 0
M  V30 4967 H 457.059 -1.70289 3.79659 0
M  V30 4968 H 455.935 -2.64424 4.81011 0
M  V30 4969 H 456.196 -3.11433 3.13787 0
M  V30 4970 N 455.255 -1.55392 -0.262866 0
M  V30 4971 C 456.501 -1.76737 -0.99458 0
M  V30 4972 C 456.834 -0.572453 -1.85571 0
M  V30 4973 O 456.109 0.429732 -1.89693 0
M  V30 4974 C 456.392 -3.07824 -1.8686 0
M  V30 4975 C 456.245 -4.3769 -1.03672 0
M  V30 4976 C 457.564 -3.35021 -2.85393 0
M  V30 4977 H 454.683 -0.643005 -0.360157 0
M  V30 4978 H 457.325 -1.88126 -0.266216 0
M  V30 4979 H 455.475 -2.98245 -2.48962 0
M  V30 4980 H 457.147 -4.59238 -0.43563 0
M  V30 4981 H 455.39 -4.32461 -0.340513 0
M  V30 4982 H 456.061 -5.25759 -1.6817 0
M  V30 4983 H 458.537 -3.44458 -2.33426 0
M  V30 4984 H 457.413 -4.27989 -3.43681 0
M  V30 4985 H 457.674 -2.55153 -3.61039 0
M  V30 4986 N 456.733 0.527833 -1.48498 0
M  V30 4987 C 457.961 1.30823 -1.6029 0
M  V30 4988 C 458.376 1.86945 -0.263974 0
M  V30 4989 O 457.733 1.6651 0.747034 0
M  V30 4990 C 457.784 2.45756 -2.65116 0
M  V30 4991 O 457.505 1.91946 -3.93813 0
M  V30 4992 C 459.006 3.37543 -2.87367 0
M  V30 4993 H 456.226 0.397763 -0.540394 0
M  V30 4994 H 458.77 0.636529 -1.94341 0
M  V30 4995 H 456.925 3.08806 -2.33917 0
M  V30 4996 H 457.339 2.67195 -4.51339 0
M  V30 4997 H 458.813 4.14532 -3.6451 0
M  V30 4998 H 459.29 3.92905 -1.9627 0
M  V30 4999 H 459.896 2.80283 -3.19878 0
M  V30 5000 N 458.211 1.37122 0.776871 0
M  V30 5001 C 459.627 1.1781 1.07671 0
M  V30 5002 C 459.827 0.0107454 2.01497 0
M  V30 5003 O 458.883 -0.650756 2.4397 0
M  V30 5004 C 460.196 2.49451 1.67913 0
M  V30 5005 C 461.744 2.55927 1.80195 0
M  V30 5006 C 462.219 3.87686 2.43851 0
M  V30 5007 N 463.71 3.891 2.51307 0
M  V30 5008 C 464.445 4.87797 3.014 0
M  V30 5009 N 463.941 5.96888 3.51705 0
M  V30 5010 N 465.734 4.75205 3.00227 0
M  V30 5011 H 457.885 2.11843 0.153778 0
M  V30 5012 H 460.148 0.938927 0.130844 0
M  V30 5013 H 459.854 3.35207 1.06439 0
M  V30 5014 H 459.728 2.66169 2.67271 0
M  V30 5015 H 462.115 1.70582 2.40803 0
M  V30 5016 H 462.196 2.43097 0.796069 0
M  V30 5017 H 461.84 4.73444 1.83884 0
M  V30 5018 H 461.77 3.97817 3.45035 0
M  V30 5019 H 464.261 3.10293 2.157 0
M  V30 5020 H 464.574 6.68155 3.88316 0
M  V30 5021 H 462.919 6.0054 3.49824 0
M  V30 5022 H 466.11 3.89103 2.60224 0
M  V30 5023 H 466.283 5.52279 3.38957 0
M  V30 5024 N 459.689 -1.00246 1.21608 0
M  V30 5025 C 460.599 -2.12515 0.993709 0
M  V30 5026 C 461.615 -1.73913 -0.0549939 0
M  V30 5027 O 462.791 -2.00943 0.135619 0
M  V30 5028 C 459.856 -3.42083 0.563953 0
M  V30 5029 C 458.917 -3.94843 1.68516 0
M  V30 5030 C 458.15 -5.18226 1.27582 0
M  V30 5031 O 458.373 -5.70201 0.150506 0
M  V30 5032 O 457.307 -5.64497 2.0887 0
M  V30 5033 H 461.133 -2.34152 1.93407 0
M  V30 5034 H 458.718 -1.10891 1.00118 0
M  V30 5035 H 460.6 -4.20073 0.334194 0
M  V30 5036 H 459.275 -3.21828 -0.347665 0
M  V30 5037 H 458.182 -3.18068 1.96935 0
M  V30 5038 H 459.515 -4.19512 2.5743 0
M  V30 5039 N 461.167 -1.02423 -1.1978 0
M  V30 5040 C 462.077 -0.610919 -2.26506 0
M  V30 5041 C 463.093 0.355152 -1.70337 0
M  V30 5042 O 464.269 0.214195 -2.00258 0
M  V30 5043 C 461.334 0.0365921 -3.46681 0
M  V30 5044 C 460.395 -0.976389 -4.18049 0
M  V30 5045 C 459.628 -0.359683 -5.32487 0
M  V30 5046 O 459.851 0.838601 -5.64202 0
M  V30 5047 O 458.785 -1.08022 -5.92127 0
M  V30 5048 H 462.611 -1.49965 -2.64091 0
M  V30 5049 H 460.196 -0.794156 -1.26545 0
M  V30 5050 H 462.078 0.39786 -4.19518 0
M  V30 5051 H 460.753 0.899398 -3.10954 0
M  V30 5052 H 459.66 -1.38916 -3.47352 0
M  V30 5053 H 460.993 -1.80941 -4.57735 0
M  V30 5054 N 462.645 1.35699 -0.801477 0
M  V30 5055 C 464.056 1.81415 -0.441073 0
M  V30 5056 C 464.407 1.66595 1.03636 0
M  V30 5057 O 463.532 1.19369 1.80499 0
M  V30 5058 C 464.127 3.29369 -0.793819 0
M  V30 5059 C 462.686 3.73248 -0.486083 0
M  V30 5060 C 461.833 2.57775 -1.02213 0
M  V30 5061 H 464.784 1.23749 -0.993572 0
M  V30 5062 H 464.805 3.80395 -0.0894158 0
M  V30 5063 H 464.317 3.40123 -1.86917 0
M  V30 5064 H 462.418 3.68046 0.580735 0
M  V30 5065 H 462.531 4.68222 -1.01513 0
M  V30 5066 H 460.895 2.50788 -0.444712 0
M  V30 5067 H 461.678 2.71309 -2.10348 0
M  V30 5068 N 464.123 0.554532 1.47522 0
M  V30 5069 C 465.372 0.0273458 2.01681 0
M  V30 5070 C 465.685 -1.32962 1.43459 0
M  V30 5071 O 466.891 -1.94657 1.89265 0
M  V30 5072 C 465.347 -0.00159057 3.599 0
M  V30 5073 C 464.955 1.35197 4.27113 0
M  V30 5074 C 466.699 -0.476311 4.21819 0
M  V30 5075 C 464.606 1.28229 5.77331 0
M  V30 5076 H 463.536 0.00645269 0.753972 0
M  V30 5077 H 466.187 0.701985 1.69542 0
M  V30 5078 H 464.569 -0.741821 3.8899 0
M  V30 5079 H 465.743 2.1097 4.09668 0
M  V30 5080 H 464.058 1.76441 3.77171 0
M  V30 5081 H 466.655 -0.5468 5.31897 0
M  V30 5082 H 466.998 -1.4877 3.8881 0
M  V30 5083 H 467.531 0.20898 3.97251 0
M  V30 5084 H 464.27 2.26959 6.14955 0
M  V30 5085 H 463.79 0.566314 5.97121 0
M  V30 5086 H 465.469 0.983226 6.39485 0
M  V30 5087 N 465.601 -1.54893 0.290851 0
M  V30 5088 C 466.831 -2.04047 -0.323818 0
M  V30 5089 C 467.239 -1.16809 -1.48837 0
M  V30 5090 O 466.582 -0.184145 -1.82775 0
M  V30 5091 C 466.644 -3.49248 -0.852395 0
M  V30 5092 C 466.308 -4.56623 0.185557 0
M  V30 5093 C 467.305 -5.09985 1.01053 0
M  V30 5094 C 464.99 -5.01252 0.324332 0
M  V30 5095 C 466.984 -6.06507 1.96031 0
M  V30 5096 C 464.671 -5.97596 1.27757 0
M  V30 5097 C 465.669 -6.50107 2.09405 0
M  V30 5098 O 465.357 -7.44565 3.03114 0
M  V30 5099 H 465.089 -0.671735 -0.0758129 0
M  V30 5100 H 467.643 -2.00947 0.425393 0
M  V30 5101 H 465.873 -3.49639 -1.65195 0
M  V30 5102 H 467.562 -3.81654 -1.38185 0
M  V30 5103 H 468.328 -4.76307 0.914129 0
M  V30 5104 H 464.207 -4.60015 -0.301213 0
M  V30 5105 H 467.751 -6.47418 2.598 0
M  V30 5106 H 463.648 -6.30691 1.37473 0
M  V30 5107 H 464.416 -7.62334 2.97976 0
M  V30 5108 N 467.08 -0.0183926 -1.57589 0
M  V30 5109 C 468.329 0.66185 -1.90532 0
M  V30 5110 C 468.642 1.73904 -0.895366 0
M  V30 5111 O 469.848 2.47518 -1.11566 0
M  V30 5112 C 468.304 1.22844 -3.38286 0
M  V30 5113 C 467.912 0.185103 -4.47617 0
M  V30 5114 C 469.656 1.88581 -3.80312 0
M  V30 5115 C 467.563 0.762723 -5.86461 0
M  V30 5116 H 466.493 0.250972 -0.711006 0
M  V30 5117 H 469.144 -0.0819435 -1.83317 0
M  V30 5118 H 467.526 2.0235 -3.40398 0
M  V30 5119 H 468.7 -0.58671 -4.5705 0
M  V30 5120 H 467.015 -0.372889 -4.14727 0
M  V30 5121 H 469.612 2.32735 -4.81392 0
M  V30 5122 H 469.955 2.72408 -3.14801 0
M  V30 5123 H 470.488 1.15782 -3.80578 0
M  V30 5124 H 467.227 -0.0371713 -6.55489 0
M  V30 5125 H 466.747 1.50327 -5.80656 0
M  V30 5126 H 468.426 1.25576 -6.34697 0
M  V30 5127 N 468.558 1.5553 0.254621 0
M  V30 5128 C 469.807 1.76202 0.981612 0
M  V30 5129 C 470.12 0.580883 1.86776 0
M  V30 5130 O 471.326 0.670448 2.63092 0
M  V30 5131 C 469.782 3.11921 1.79537 0
M  V30 5132 C 469.39 4.37659 0.956991 0
M  V30 5133 C 471.134 3.41936 2.51555 0
M  V30 5134 C 469.041 5.64411 1.76619 0
M  V30 5135 H 467.971 0.656841 0.370237 0
M  V30 5136 H 470.622 1.81969 0.236556 0
M  V30 5137 H 469.004 3.00241 2.58208 0
M  V30 5138 H 470.178 4.60307 0.21315 0
M  V30 5139 H 468.493 4.14922 0.350497 0
M  V30 5140 H 471.09 4.33849 3.12536 0
M  V30 5141 H 471.433 2.62905 3.22779 0
M  V30 5142 H 471.966 3.54797 1.799 0
M  V30 5143 H 468.705 6.46241 1.09783 0
M  V30 5144 H 468.225 5.45877 2.48551 0
M  V30 5145 H 469.904 6.03386 2.33527 0
M  V30 5146 N 470.036 -0.519951 1.48776 0
M  V30 5147 C 471.264 -1.29971 1.60982 0
M  V30 5148 C 471.679 -1.86803 0.273885 0
M  V30 5149 O 471.036 -1.66904 -0.738193 0
M  V30 5150 C 471.087 -2.44346 2.66415 0
M  V30 5151 O 470.808 -1.89855 3.94825 0
M  V30 5152 C 472.309 -3.36014 2.89153 0
M  V30 5153 H 469.529 -0.394891 0.542496 0
M  V30 5154 H 472.073 -0.626214 1.94676 0
M  V30 5155 H 470.228 -3.07562 2.35552 0
M  V30 5156 H 470.642 -2.64798 4.5275 0
M  V30 5157 H 472.116 -4.12593 3.66703 0
M  V30 5158 H 472.593 -3.91859 1.98351 0
M  V30 5159 H 473.199 -2.78582 3.21359 0
M  V30 5160 N 471.514 -1.37532 -0.769588 0
M  V30 5161 C 472.424 -1.35668 -1.91393 0
M  V30 5162 C 473.44 -0.255954 -1.72107 0
M  V30 5163 O 474.616 -0.491704 -1.95305 0
M  V30 5164 C 471.681 -1.16481 -3.26547 0
M  V30 5165 C 470.742 -2.36212 -3.58472 0
M  V30 5166 C 469.975 -2.17932 -4.87177 0
M  V30 5167 O 470.198 -1.1647 -5.58382 0
M  V30 5168 O 469.132 -3.06167 -5.18214 0
M  V30 5169 H 472.958 -2.32055 -1.95918 0
M  V30 5170 H 470.543 -1.18284 -0.912641 0
M  V30 5171 H 472.425 -1.07778 -4.07384 0
M  V30 5172 H 471.1 -0.231687 -3.2287 0
M  V30 5173 H 470.007 -2.50488 -2.77861 0
M  V30 5174 H 471.34 -3.281 -3.66894 0
M  V30 5175 N 472.992 0.995999 -1.22138 0
M  V30 5176 C 474.222 1.76809 -1.06874 0
M  V30 5177 C 474.63 1.85265 0.383866 0
M  V30 5178 O 473.973 1.31969 1.27789 0
M  V30 5179 C 474.035 3.2186 -1.60144 0
M  V30 5180 C 473.699 3.36958 -3.0872 0
M  V30 5181 C 474.696 3.2452 -4.0618 0
M  V30 5182 C 472.381 3.62109 -3.48112 0
M  V30 5183 C 474.375 3.37013 -5.41019 0
M  V30 5184 C 472.062 3.74243 -4.831 0
M  V30 5185 C 473.06 3.61702 -5.79362 0
M  V30 5186 O 472.748 3.73436 -7.119 0
M  V30 5187 H 472.48 0.562207 -0.375365 0
M  V30 5188 H 475.034 1.26113 -1.62125 0
M  V30 5189 H 473.264 3.73734 -0.992981 0
M  V30 5190 H 474.953 3.80775 -1.40589 0
M  V30 5191 H 475.719 3.05004 -3.77091 0
M  V30 5192 H 471.598 3.70949 -2.73712 0
M  V30 5193 H 475.142 3.27141 -6.16137 0
M  V30 5194 H 471.039 3.93266 -5.11872 0
M  V30 5195 H 471.807 3.90328 -7.19435 0
M  V30 5196 N 474.47 1.03057 1.19235 0
M  V30 5197 C 475.403 0.557384 2.21288 0
M  V30 5198 C 476.381 -0.402675 1.57535 0
M  V30 5199 O 477.565 -0.319376 1.85775 0
M  V30 5200 C 474.692 -0.187041 3.38183 0
M  V30 5201 C 473.738 0.72471 4.20298 0
M  V30 5202 S 474.571 2.20187 4.88137 0
M  V30 5203 C 475.727 1.46801 6.08441 0
M  V30 5204 H 475.96 1.42207 2.61083 0
M  V30 5205 H 473.493 0.840651 1.29508 0
M  V30 5206 H 475.451 -0.610405 4.05936 0
M  V30 5207 H 474.112 -1.02748 2.96819 0
M  V30 5208 H 473.305 0.149911 5.03777 0
M  V30 5209 H 472.907 1.08647 3.57871 0
M  V30 5210 H 475.199 0.755522 6.73274 0
M  V30 5211 H 476.142 2.27946 6.70407 0
M  V30 5212 H 476.55 0.964762 5.56195 0
M  V30 5213 N 475.948 -1.35272 0.808662 0
M  V30 5214 C 476.911 -2.28082 0.226093 0
M  V30 5215 C 477.911 -1.49673 -0.587762 0
M  V30 5216 O 479.101 -1.69404 -0.405943 0
M  V30 5217 C 476.233 -3.33955 -0.684596 0
M  V30 5218 H 477.426 -2.81116 1.04469 0
M  V30 5219 H 474.979 -1.45162 0.579466 0
M  V30 5220 H 475.714 -2.86111 -1.5268 0
M  V30 5221 H 475.499 -3.91965 -0.102699 0
M  V30 5222 H 476.989 -4.03219 -1.08646 0
M  V30 5223 N 477.426 -0.562348 -1.47226 0
M  V30 5224 C 478.373 0.182461 -2.30078 0
M  V30 5225 C 479.343 0.903503 -1.39377 0
M  V30 5226 O 480.528 0.898188 -1.68337 0
M  V30 5227 C 477.668 1.20322 -3.23445 0
M  V30 5228 C 476.781 0.487717 -4.29238 0
M  V30 5229 C 475.916 1.49422 -5.09752 0
M  V30 5230 C 474.955 0.763976 -6.07314 0
M  V30 5231 N 474.092 1.71755 -6.80768 0
M  V30 5232 H 478.932 -0.530169 -2.93246 0
M  V30 5233 H 476.469 -0.273276 -1.44539 0
M  V30 5234 H 478.427 1.80768 -3.76004 0
M  V30 5235 H 477.057 1.88382 -2.6213 0
M  V30 5236 H 476.109 -0.231374 -3.79696 0
M  V30 5237 H 477.421 -0.0841003 -4.98729 0
M  V30 5238 H 476.575 2.17206 -5.66486 0
M  V30 5239 H 475.314 2.09995 -4.40174 0
M  V30 5240 H 474.319 0.0722344 -5.49753 0
M  V30 5241 H 475.544 0.16391 -6.78902 0
M  V30 5242 H 473.49 2.31177 -6.13916 0
M  V30 5243 H 473.407 1.19802 -7.46447 0
M  V30 5244 H 474.675 2.38638 -7.42073 0
M  V30 5245 N 478.904 1.54736 -0.299062 0
M  V30 5246 C 480.152 1.99706 0.31017 0
M  V30 5247 C 480.473 1.18896 1.54559 0
M  V30 5248 O 479.743 0.284445 1.93824 0
M  V30 5249 H 478.323 0.737686 0.117596 0
M  V30 5250 H 480.985 1.9054 -0.409943 0
M  V30 5251 H 480.081 3.06596 0.58355 0
M  V30 5252 N 480.382 0.0267497 1.57577 0
M  V30 5253 C 481.607 -0.666227 1.96408 0
M  V30 5254 C 482.032 -1.65004 0.903071 0
M  V30 5255 O 481.39 -1.80787 -0.136263 0
M  V30 5256 C 481.438 -1.35101 3.34335 0
M  V30 5257 O 480.542 -2.46623 3.30531 0
M  V30 5258 H 479.883 -0.175206 0.640468 0
M  V30 5259 H 482.413 0.0878977 2.04411 0
M  V30 5260 H 482.423 -1.70834 3.70513 0
M  V30 5261 H 481.098 -0.629844 4.11103 0
M  V30 5262 H 479.675 -2.13019 3.06068 0
M  V30 5263 N 481.861 -1.55662 -0.24637 0
M  V30 5264 C 482.791 -1.93377 -1.30873 0
M  V30 5265 C 483.772 -0.798773 -1.50179 0
M  V30 5266 O 484.957 -1.0591 -1.62778 0
M  V30 5267 C 482.087 -2.22893 -2.66338 0
M  V30 5268 C 481.041 -3.38649 -2.61727 0
M  V30 5269 C 480.367 -3.53708 -4.00992 0
M  V30 5270 C 481.667 -4.74323 -2.18666 0
M  V30 5271 H 483.361 -2.82363 -0.995552 0
M  V30 5272 H 480.907 -1.35854 -0.477464 0
M  V30 5273 H 482.86 -2.47866 -3.40794 0
M  V30 5274 H 481.584 -1.30733 -2.99293 0
M  V30 5275 H 480.243 -3.13685 -1.89729 0
M  V30 5276 H 479.891 -2.58967 -4.31214 0
M  V30 5277 H 479.591 -4.31551 -3.98795 0
M  V30 5278 H 481.115 -3.81003 -4.77147 0
M  V30 5279 H 482.529 -4.98665 -2.82854 0
M  V30 5280 H 480.926 -5.55273 -2.27579 0
M  V30 5281 H 481.996 -4.71349 -1.13834 0
M  V30 5282 N 483.339 0.512053 -1.4905 0
M  V30 5283 C 484.269 1.62365 -1.67809 0
M  V30 5284 C 485.25 1.61737 -0.526809 0
M  V30 5285 O 486.435 1.78651 -0.761404 0
M  V30 5286 C 483.565 3.00895 -1.73435 0
M  V30 5287 C 482.519 3.16387 -2.88242 0
M  V30 5288 C 481.845 4.56157 -2.78971 0
M  V30 5289 C 483.145 2.97457 -4.29321 0
M  V30 5290 H 484.839 1.46921 -2.60873 0
M  V30 5291 H 482.385 0.705379 -1.2554 0
M  V30 5292 H 484.338 3.78549 -1.85145 0
M  V30 5293 H 483.062 3.17403 -0.769619 0
M  V30 5294 H 481.721 2.41155 -2.76116 0
M  V30 5295 H 481.369 4.69525 -1.8043 0
M  V30 5296 H 481.069 4.67465 -3.5602 0
M  V30 5297 H 482.593 5.35886 -2.92675 0
M  V30 5298 H 484.007 3.64888 -4.42187 0
M  V30 5299 H 482.404 3.20245 -5.07507 0
M  V30 5300 H 483.474 1.93692 -4.44535 0
M  V30 5301 N 484.817 1.37938 0.762283 0
M  V30 5302 C 486.094 1.24196 1.51112 0
M  V30 5303 C 486.474 -0.160409 2.1049 0
M  V30 5304 O 485.822 -1.16904 1.96331 0
M  V30 5305 C 486.032 2.34537 2.58445 0
M  V30 5306 C 487.38 2.7254 3.25588 0
M  V30 5307 O 488.404 2.33783 2.68745 0
M  V30 5308 O 487.263 3.39343 4.28379 0
M  V30 5309 H 484.357 0.485175 0.669727 0
M  V30 5310 H 486.903 1.49743 0.798438 0
M  V30 5311 H 485.675 3.28406 2.12756 0
M  V30 5312 H 485.298 2.10505 3.37303 0
M  V30 5313 N 486.295 -0.989507 1.22664 0
M  V30 5314 C 487.542 -1.72953 1.05325 0
M  V30 5315 C 487.87 -1.90104 -0.411168 0
M  V30 5316 O 487.125 -1.44386 -1.32103 0
M  V30 5317 C 487.424 -3.13649 1.71345 0
M  V30 5318 C 487.09 -3.16403 3.21248 0
M  V30 5319 C 485.752 -3.16862 3.62149 0
M  V30 5320 C 488.104 -3.12428 4.17179 0
M  V30 5321 C 485.432 -3.11051 4.97458 0
M  V30 5322 C 487.784 -3.08159 5.52468 0
M  V30 5323 C 486.448 -3.06935 5.92746 0
M  V30 5324 H 485.718 -0.632881 0.385412 0
M  V30 5325 H 488.365 -1.15863 1.52473 0
M  V30 5326 H 486.67 -3.74069 1.16532 0
M  V30 5327 H 488.367 -3.69658 1.55416 0
M  V30 5328 H 484.957 -3.16798 2.88682 0
M  V30 5329 H 489.141 -3.11221 3.86595 0
M  V30 5330 H 484.397 -3.0845 5.27891 0
M  V30 5331 H 488.571 -3.04039 6.26525 0
M  V30 5332 H 486.198 -3.02186 6.97558 0
M  V30 5333 N 487.773 -1.03688 -1.18687 0
M  V30 5334 C 488.703 -0.645407 -2.24403 0
M  V30 5335 C 489.684 0.349511 -1.66471 0
M  V30 5336 O 490.869 0.230453 -1.92828 0
M  V30 5337 C 487.999 -0.00365337 -3.473 0
M  V30 5338 C 486.953 -0.921705 -4.17958 0
M  V30 5339 C 486.279 -0.144629 -5.34504 0
M  V30 5340 C 487.579 -2.23909 -4.71871 0
M  V30 5341 H 489.273 -1.52917 -2.57404 0
M  V30 5342 H 486.819 -0.736711 -1.23728 0
M  V30 5343 H 488.772 0.281908 -4.20456 0
M  V30 5344 H 487.496 0.914963 -3.13522 0
M  V30 5345 H 486.155 -1.19159 -3.46694 0
M  V30 5346 H 485.803 0.776274 -4.96974 0
M  V30 5347 H 485.503 -0.756206 -5.82714 0
M  V30 5348 H 487.027 0.134004 -6.10453 0
M  V30 5349 H 488.441 -2.0145 -5.36741 0
M  V30 5350 H 486.838 -2.8033 -5.30599 0
M  V30 5351 H 487.908 -2.88822 -3.895 0
M  V30 5352 N 489.251 1.34841 -0.815825 0
M  V30 5353 C 490.198 2.29644 -0.230664 0
M  V30 5354 C 491.168 1.53253 0.640533 0
M  V30 5355 O 492.353 1.81653 0.583672 0
M  V30 5356 C 489.493 3.39715 0.607275 0
M  V30 5357 C 488.606 4.31056 -0.28538 0
M  V30 5358 C 487.741 5.28225 0.561446 0
M  V30 5359 C 486.78 6.11204 -0.331035 0
M  V30 5360 N 485.917 7.00483 0.476302 0
M  V30 5361 H 490.757 2.79095 -1.0445 0
M  V30 5362 H 488.294 1.37351 -0.526595 0
M  V30 5363 H 490.252 4.02208 1.10835 0
M  V30 5364 H 488.882 2.91517 1.38629 0
M  V30 5365 H 487.934 3.69487 -0.904621 0
M  V30 5366 H 489.246 4.89239 -0.97193 0
M  V30 5367 H 488.4 5.96135 1.12728 0
M  V30 5368 H 487.139 4.70562 1.28153 0
M  V30 5369 H 486.144 5.42232 -0.909069 0
M  V30 5370 H 487.369 6.70947 -1.04912 0
M  V30 5371 H 485.315 6.45296 1.18019 0
M  V30 5372 H 485.232 7.55847 -0.152008 0
M  V30 5373 H 486.5 7.7273 1.02512 0
M  V30 5374 N 490.729 0.570148 1.46925 0
M  V30 5375 C 491.954 0.0542592 2.07329 0
M  V30 5376 C 492.379 -1.23582 1.41806 0
M  V30 5377 O 491.737 -1.74341 0.497479 0
M  V30 5378 C 491.785 -0.111175 3.60429 0
M  V30 5379 O 490.889 -1.17071 3.95434 0
M  V30 5380 H 490.23 0.0571425 0.661537 0
M  V30 5381 H 492.76 0.789516 1.88753 0
M  V30 5382 H 492.77 -0.321315 4.06733 0
M  V30 5383 H 491.445 0.831012 4.07513 0
M  V30 5384 H 490.022 -0.940029 3.60857 0
M  V30 5385 N 492.207 -1.54576 0.307264 0
M  V30 5386 C 493.484 -1.92377 -0.353605 0
M  V30 5387 C 493.864 -1.23517 -1.71192 0
M  V30 5388 O 493.212 -0.373101 -2.25433 0
M  V30 5389 C 493.422 -3.45928 -0.462039 0
M  V30 5390 C 494.77 -4.18278 -0.729975 0
M  V30 5391 O 495.794 -3.51997 -0.545605 0
M  V30 5392 O 494.653 -5.3563 -1.08454 0
M  V30 5393 H 491.747 -0.802747 -0.198812 0
M  V30 5394 H 494.293 -1.65929 0.355783 0
M  V30 5395 H 493.065 -3.88187 0.492592 0
M  V30 5396 H 492.688 -3.78431 -1.21965 0
M  V30 5397 N 493.685 -0.035106 -1.57561 0
M  V30 5398 C 494.595 0.960295 -2.14046 0
M  V30 5399 C 495.611 1.3529 -1.0942 0
M  V30 5400 O 496.787 1.43309 -1.41508 0
M  V30 5401 C 493.852 2.22214 -2.66124 0
M  V30 5402 C 492.913 1.8894 -3.85487 0
M  V30 5403 C 492.146 3.09109 -4.35072 0
M  V30 5404 O 492.369 4.21963 -3.83802 0
M  V30 5405 O 491.303 2.91058 -5.26848 0
M  V30 5406 H 495.129 0.509983 -2.99387 0
M  V30 5407 H 492.714 0.185853 -1.48239 0
M  V30 5408 H 494.596 2.96279 -2.99661 0
M  V30 5409 H 493.271 2.66414 -1.83862 0
M  V30 5410 H 492.178 1.12241 -3.56865 0
M  V30 5411 H 493.511 1.49551 -4.6893 0
M  V30 5412 N 495.163 1.55791 0.238111 0
M  V30 5413 C 496.411 1.77681 0.963001 0
M  V30 5414 C 496.732 0.600674 1.85518 0
M  V30 5415 O 496.002 -0.383182 1.92116 0
M  V30 5416 H 494.582 0.655315 0.358568 0
M  V30 5417 H 497.244 1.93239 0.253945 0
M  V30 5418 H 496.34 2.69177 1.57956 0
M  V30 5419 N 496.642 -0.504142 1.49319 0
M  V30 5420 C 497.89 -1.25598 1.58334 0
M  V30 5421 C 498.211 -1.93114 0.270538 0
M  V30 5422 O 497.481 -1.82585 -0.709891 0
M  V30 5423 H 496.061 -0.466571 0.58337 0
M  V30 5424 H 498.723 -0.584547 1.85928 0
M  V30 5425 H 497.819 -2.02159 2.37778 0
M  V30 5426 N 498.12 -1.38341 -0.754957 0
M  V30 5427 C 499.067 -1.3546 -1.86867 0
M  V30 5428 C 500.037 -0.217369 -1.64672 0
M  V30 5429 O 501.222 -0.409383 -1.86356 0
M  V30 5430 C 498.362 -1.18413 -3.24149 0
M  V30 5431 C 497.475 -2.41511 -3.58185 0
M  V30 5432 C 496.61 -2.17205 -4.84763 0
M  V30 5433 C 495.649 -3.36081 -5.11582 0
M  V30 5434 N 494.786 -3.11219 -6.29354 0
M  V30 5435 H 499.626 -2.30672 -1.88664 0
M  V30 5436 H 497.163 -1.14607 -0.922154 0
M  V30 5437 H 499.121 -1.06545 -4.03366 0
M  V30 5438 H 497.751 -0.268397 -3.21682 0
M  V30 5439 H 496.803 -2.64056 -2.73822 0
M  V30 5440 H 498.115 -3.30115 -3.73932 0
M  V30 5441 H 497.269 -2.02465 -5.7192 0
M  V30 5442 H 496.008 -1.25964 -4.71152 0
M  V30 5443 H 495.013 -3.51341 -4.22894 0
M  V30 5444 H 496.238 -4.28196 -5.27091 0
M  V30 5445 H 494.184 -2.22624 -6.17069 0
M  V30 5446 H 494.101 -3.93373 -6.45596 0
M  V30 5447 H 495.369 -3.00132 -7.19403 0
M  V30 5448 N 499.598 0.982988 -1.23187 0
M  V30 5449 C 500.844 1.72648 -1.06398 0
M  V30 5450 C 501.177 1.90066 0.398561 0
M  V30 5451 O 500.452 1.45105 1.29518 0
M  V30 5452 C 500.735 3.12627 -1.78707 0
M  V30 5453 C 500.588 3.02795 -3.32618 0
M  V30 5454 C 501.907 4.11997 -1.54747 0
M  V30 5455 H 499.026 0.626649 -0.387918 0
M  V30 5456 H 501.668 1.14455 -1.51658 0
M  V30 5457 H 499.818 3.62308 -1.40234 0
M  V30 5458 H 501.49 2.60659 -3.80598 0
M  V30 5459 H 499.733 2.39362 -3.61785 0
M  V30 5460 H 500.404 4.01893 -3.78399 0
M  V30 5461 H 502.88 3.71114 -1.88186 0
M  V30 5462 H 501.756 5.08037 -2.07821 0
M  V30 5463 H 502.017 4.39462 -0.482249 0
M  V30 5464 N 501.076 1.04316 1.18135 0
M  V30 5465 C 502.006 0.657299 2.24058 0
M  V30 5466 C 502.987 -0.340678 1.66654 0
M  V30 5467 O 504.172 -0.220223 1.92947 0
M  V30 5468 C 501.302 0.0220715 3.47293 0
M  V30 5469 C 500.256 0.943857 4.17463 0
M  V30 5470 C 499.582 0.172973 5.3442 0
M  V30 5471 C 500.882 2.26409 4.70677 0
M  V30 5472 H 502.576 1.5428 2.56589 0
M  V30 5473 H 500.122 0.743263 1.23335 0
M  V30 5474 H 502.075 -0.259607 4.206 0
M  V30 5475 H 500.799 -0.898323 3.14003 0
M  V30 5476 H 499.458 1.20996 3.46057 0
M  V30 5477 H 499.106 -0.749907 4.97379 0
M  V30 5478 H 498.806 0.787098 5.82304 0
M  V30 5479 H 500.33 -0.101628 6.10515 0
M  V30 5480 H 501.744 2.04294 5.35665 0
M  V30 5481 H 500.141 2.8314 5.29105 0
M  V30 5482 H 501.211 2.90883 3.87962 0
M  V30 5483 N 502.554 -1.34406 0.822964 0
M  V30 5484 C 503.484 -2.32052 0.259608 0
M  V30 5485 C 504.465 -1.58243 -0.623961 0
M  V30 5486 O 505.65 -1.86224 -0.55083 0
M  V30 5487 C 502.78 -3.42434 -0.579314 0
M  V30 5488 C 501.734 -4.27499 0.20712 0
M  V30 5489 C 501.06 -5.29349 -0.754547 0
M  V30 5490 C 502.36 -5.02758 1.41533 0
M  V30 5491 H 504.054 -2.79418 1.07545 0
M  V30 5492 H 501.6 -1.34338 0.518593 0
M  V30 5493 H 503.553 -4.0976 -0.983612 0
M  V30 5494 H 502.277 -2.93717 -1.4282 0
M  V30 5495 H 500.936 -3.61776 0.592787 0
M  V30 5496 H 500.584 -4.76895 -1.59939 0
M  V30 5497 H 500.284 -5.8714 -0.232561 0
M  V30 5498 H 501.808 -5.99544 -1.1567 0
M  V30 5499 H 503.222 -5.62938 1.08504 0
M  V30 5500 H 501.619 -5.70123 1.87296 0
M  V30 5501 H 502.689 -4.32451 2.1935 0
M  V30 5502 N 504.032 -0.577932 -1.46621 0
M  V30 5503 C 505.443 -0.150071 -1.86096 0
M  V30 5504 C 505.794 1.28563 -1.48209 0
M  V30 5505 O 504.919 1.97036 -0.894754 0
M  V30 5506 C 505.514 -0.265576 -3.37758 0
M  V30 5507 C 504.073 0.10738 -3.76247 0
M  V30 5508 C 503.22 -0.603711 -2.70649 0
M  V30 5509 H 506.171 -0.786438 -1.37844 0
M  V30 5510 H 506.192 0.510352 -3.77062 0
M  V30 5511 H 505.704 -1.3106 -3.65301 0
M  V30 5512 H 503.805 1.15272 -3.54321 0
M  V30 5513 H 503.918 -0.26561 -4.78363 0
M  V30 5514 H 502.282 -0.0444884 -2.54661 0
M  V30 5515 H 503.065 -1.65029 -3.01032 0
M  V30 5516 N 505.51 1.54411 -0.315457 0
M  V30 5517 C 506.457 2.24048 0.554166 0
M  V30 5518 C 507.427 1.2283 1.11812 0
M  V30 5519 O 508.612 1.51491 1.15997 0
M  V30 5520 C 505.752 2.99574 1.71316 0
M  V30 5521 C 504.865 4.15594 1.17922 0
M  V30 5522 C 504 4.78669 2.30324 0
M  V30 5523 C 503.039 5.86807 1.74137 0
M  V30 5524 N 502.176 6.43777 2.8017 0
M  V30 5525 H 507.016 2.97964 -0.0462602 0
M  V30 5526 H 504.553 1.47059 -0.0346009 0
M  V30 5527 H 506.511 3.41604 2.39505 0
M  V30 5528 H 505.141 2.28008 2.285 0
M  V30 5529 H 504.193 3.78404 0.389136 0
M  V30 5530 H 505.505 4.93459 0.728012 0
M  V30 5531 H 504.659 5.23626 3.06433 0
M  V30 5532 H 503.398 4.00168 2.78778 0
M  V30 5533 H 502.403 5.41261 0.965236 0
M  V30 5534 H 503.628 6.67201 1.2657 0
M  V30 5535 H 501.574 5.68153 3.2793 0
M  V30 5536 H 501.491 7.17031 2.39588 0
M  V30 5537 H 502.759 6.9339 3.56132 0
M  V30 5538 N 506.988 0.0434614 1.5754 0
M  V30 5539 C 507.918 -0.931651 2.14109 0
M  V30 5540 C 508.899 -1.32971 1.06079 0
M  V30 5541 O 510.084 -1.40579 1.33982 0
M  V30 5542 C 507.214 -2.20914 2.67982 0
M  V30 5543 C 506.168 -1.95139 3.80926 0
M  V30 5544 C 505.494 -3.29276 4.21285 0
M  V30 5545 C 506.794 -1.27913 5.06395 0
M  V30 5546 H 508.488 -0.460497 2.95837 0
M  V30 5547 H 506.034 -0.220058 1.42309 0
M  V30 5548 H 507.987 -2.89522 3.06194 0
M  V30 5549 H 506.711 -2.70221 1.83434 0
M  V30 5550 H 505.37 -1.28945 3.43175 0
M  V30 5551 H 505.018 -3.76369 3.33699 0
M  V30 5552 H 504.718 -3.12831 4.97404 0
M  V30 5553 H 506.242 -3.99129 4.62091 0
M  V30 5554 H 507.656 -1.86544 5.42102 0
M  V30 5555 H 506.053 -1.2182 5.87605 0
M  V30 5556 H 507.123 -0.254066 4.84234 0
M  V30 5557 N 508.466 -1.55915 -0.229846 0
M  V30 5558 C 509.715 -1.77742 -0.953455 0
M  V30 5559 C 510.028 -0.610524 -1.85828 0
M  V30 5560 O 511.234 -0.712219 -2.61992 0
M  V30 5561 C 509.69 -3.14738 -1.74551 0
M  V30 5562 C 509.298 -4.39126 -0.887242 0
M  V30 5563 C 511.042 -3.45895 -2.46084 0
M  V30 5564 C 508.949 -5.67149 -1.67617 0
M  V30 5565 H 507.879 -0.662648 -0.359741 0
M  V30 5566 H 510.53 -1.82322 -0.207576 0
M  V30 5567 H 508.912 -3.04311 -2.53399 0
M  V30 5568 H 510.086 -4.60588 -0.139892 0
M  V30 5569 H 508.401 -4.15427 -0.284443 0
M  V30 5570 H 510.998 -4.38767 -3.05594 0
M  V30 5571 H 511.341 -2.68007 -3.18556 0
M  V30 5572 H 511.874 -3.57614 -1.74233 0
M  V30 5573 H 508.613 -6.47906 -0.994881 0
M  V30 5574 H 508.133 -5.49763 -2.39836 0
M  V30 5575 H 509.812 -6.07025 -2.23898 0
M  V30 5576 N 509.944 0.496216 -1.49584 0
M  V30 5577 C 511.221 1.25755 -1.49816 0
M  V30 5578 C 511.601 2.09859 -0.228572 0
M  V30 5579 O 510.949 2.14449 0.788908 0
M  V30 5580 C 511.159 2.11017 -2.7798 0
M  V30 5581 C 512.507 2.70047 -3.27658 0
M  V30 5582 O 513.531 2.21281 -2.79129 0
M  V30 5583 O 512.39 3.58834 -4.1219 0
M  V30 5584 H 509.484 0.569322 -0.599834 0
M  V30 5585 H 512.03 0.510094 -1.61852 0
M  V30 5586 H 510.802 1.48879 -3.61871 0
M  V30 5587 H 510.425 2.92947 -2.68827 0
M  V30 5588 N 511.423 1.38739 0.74761 0
M  V30 5589 C 512.67 1.35274 1.50689 0
M  V30 5590 C 512.998 -0.0553359 1.94421 0
M  V30 5591 O 512.253 -1.03365 1.66175 0
M  V30 5592 C 512.552 2.25992 2.7688 0
M  V30 5593 C 512.218 3.73854 2.5208 0
M  V30 5594 C 510.88 4.14145 2.45025 0
M  V30 5595 C 513.232 4.67427 2.30568 0
M  V30 5596 C 510.56 5.4609 2.14483 0
M  V30 5597 C 512.912 5.99635 2.01545 0
M  V30 5598 C 511.576 6.39004 1.92951 0
M  V30 5599 H 510.846 0.495003 0.55141 0
M  V30 5600 H 513.493 1.71145 0.859158 0
M  V30 5601 H 511.798 1.83196 3.46333 0
M  V30 5602 H 513.495 2.20611 3.34861 0
M  V30 5603 H 510.085 3.41913 2.58444 0
M  V30 5604 H 514.269 4.3714 2.34994 0
M  V30 5605 H 509.525 5.75528 2.06342 0
M  V30 5606 H 513.699 6.71678 1.83906 0
M  V30 5607 H 511.326 7.41165 1.6905 0
M  V30 5608 N 512.901 -0.976442 1.23707 0
M  V30 5609 C 514.126 -1.75875 1.09922 0
M  V30 5610 C 514.551 -1.84911 -0.34489 0
M  V30 5611 O 513.909 -1.31363 -1.24954 0
M  V30 5612 C 513.957 -3.16179 1.73388 0
M  V30 5613 O 513.061 -4.00124 0.99871 0
M  V30 5614 H 512.402 -0.540954 0.385052 0
M  V30 5615 H 514.932 -1.22546 1.6384 0
M  V30 5616 H 514.942 -3.66741 1.78788 0
M  V30 5617 H 513.617 -3.08917 2.78466 0
M  V30 5618 H 512.194 -3.58624 1.02193 0
M  V30 5619 N 514.379 -1.04941 -1.1758 0
M  V30 5620 C 515.342 -0.652456 -2.19717 0
M  V30 5621 C 516.342 0.294745 -1.58076 0
M  V30 5622 O 517.532 0.0789579 -1.74021 0
M  V30 5623 C 514.664 0.0420712 -3.40874 0
M  V30 5624 H 515.857 -1.55642 -2.5635 0
M  V30 5625 H 513.41 -0.842995 -1.31618 0
M  V30 5626 H 514.145 0.95943 -3.09783 0
M  V30 5627 H 513.93 -0.638844 -3.86861 0
M  V30 5628 H 515.42 0.306 -4.16477 0
M  V30 5629 N 515.857 1.33968 -0.830081 0
M  V30 5630 C 516.789 2.28194 -0.21448 0
M  V30 5631 C 517.802 1.5135 0.599752 0
M  V30 5632 O 518.991 1.73286 0.42826 0
M  V30 5633 C 516.091 3.31221 0.717356 0
M  V30 5634 C 515.264 4.37365 -0.055613 0
M  V30 5635 C 514.323 5.2011 0.798231 0
M  V30 5636 O 513.349 5.68691 0.240616 0
M  V30 5637 N 514.551 5.40523 2.11695 0
M  V30 5638 H 517.316 2.81662 -1.02405 0
M  V30 5639 H 514.877 1.46568 -0.687713 0
M  V30 5640 H 516.869 3.83477 1.29334 0
M  V30 5641 H 515.439 2.78095 1.42765 0
M  V30 5642 H 514.659 3.85727 -0.812936 0
M  V30 5643 H 515.947 5.05397 -0.587444 0
M  V30 5644 H 515.345 5.0274 2.59363 0
M  V30 5645 H 513.902 5.95871 2.64162 0
M  V30 5646 N 517.335 0.585699 1.46312 0
M  V30 5647 C 518.584 0.0701192 2.01578 0
M  V30 5648 C 518.897 -1.29889 1.46247 0
M  V30 5649 O 520.103 -1.90598 1.93351 0
M  V30 5650 C 518.559 0.0747499 3.59822 0
M  V30 5651 C 518.167 1.44226 4.24149 0
M  V30 5652 C 519.911 -0.38673 4.22735 0
M  V30 5653 C 517.818 1.40446 5.74481 0
M  V30 5654 H 516.748 0.0224441 0.753666 0
M  V30 5655 H 519.399 0.737789 1.68015 0
M  V30 5656 H 517.781 -0.659144 3.90476 0
M  V30 5657 H 518.955 2.19612 4.05101 0
M  V30 5658 H 517.27 1.84401 3.73343 0
M  V30 5659 H 519.867 -0.433853 5.32937 0
M  V30 5660 H 520.21 -1.40489 3.91878 0
M  V30 5661 H 520.743 0.293195 3.96718 0
M  V30 5662 H 517.482 2.39952 6.10003 0
M  V30 5663 H 517.002 0.692845 5.95785 0
M  V30 5664 H 518.681 1.11865 6.37256 0
M  V30 5665 N 518.813 -1.54241 0.323641 0
M  V30 5666 C 519.776 -2.22997 -0.529602 0
M  V30 5667 C 520.776 -1.22345 -1.04347 0
M  V30 5668 O 521.966 -1.46924 -0.935889 0
M  V30 5669 C 519.098 -2.93409 -1.73562 0
M  V30 5670 H 520.291 -2.99815 0.0714518 0
M  V30 5671 H 517.844 -1.56121 0.0747258 0
M  V30 5672 H 518.579 -2.20729 -2.37591 0
M  V30 5673 H 518.364 -3.67217 -1.37456 0
M  V30 5674 H 519.854 -3.45794 -2.34128 0
M  V30 5675 N 520.291 -0.0518155 -1.57515 0
M  V30 5676 C 521.201 0.937539 -2.15052 0
M  V30 5677 C 522.217 1.34121 -1.10849 0
M  V30 5678 O 523.393 1.418 -1.4302 0
M  V30 5679 C 520.458 2.19379 -2.68466 0
M  V30 5680 C 519.519 1.84841 -3.87469 0
M  V30 5681 C 518.752 3.04477 -4.38326 0
M  V30 5682 O 518.975 4.17868 -3.88256 0
M  V30 5683 O 517.909 2.85453 -5.29906 0
M  V30 5684 H 521.735 0.478201 -2.99912 0
M  V30 5685 H 519.32 0.17012 -1.48428 0
M  V30 5686 H 521.202 2.93084 -3.02787 0
M  V30 5687 H 519.877 2.64449 -1.86677 0
M  V30 5688 H 518.784 1.08449 -3.58036 0
M  V30 5689 H 520.117 1.44569 -4.7049 0
M  V30 5690 N 521.769 1.56035 0.221574 0
M  V30 5691 C 523.017 1.78693 0.944102 0
M  V30 5692 C 523.338 0.620317 1.8487 0
M  V30 5693 O 522.608 -0.362784 1.92512 0
M  V30 5694 H 521.188 0.659082 0.351597 0
M  V30 5695 H 523.85 1.93497 0.233435 0
M  V30 5696 H 522.946 2.70837 1.55093 0
M  V30 5697 N 523.247 -0.488276 1.49845 0
M  V30 5698 C 524.18 -1.60651 1.62069 0
M  V30 5699 C 525.158 -1.5568 0.469308 0
M  V30 5700 O 526.342 -1.75553 0.686551 0
M  V30 5701 C 523.469 -2.99197 1.58741 0
M  V30 5702 C 522.515 -3.22385 2.79232 0
M  V30 5703 S 523.348 -3.04133 4.40753 0
M  V30 5704 C 524.504 -4.45052 4.4009 0
M  V30 5705 H 524.737 -1.50039 2.56662 0
M  V30 5706 H 522.27 -0.674371 1.38894 0
M  V30 5707 H 524.228 -3.79081 1.57506 0
M  V30 5708 H 522.889 -3.07213 0.654136 0
M  V30 5709 H 522.082 -4.23557 2.73159 0
M  V30 5710 H 521.684 -2.50245 2.77945 0
M  V30 5711 H 523.976 -5.37375 4.12594 0
M  V30 5712 H 524.919 -4.56172 5.41583 0
M  V30 5713 H 525.327 -4.26327 3.70008 0
M  V30 5714 N 524.725 -1.39134 -0.740242 0
M  V30 5715 C 525.688 -1.37217 -1.83587 0
M  V30 5716 C 526.688 -0.270221 -1.58513 0
M  V30 5717 O 527.878 -0.527843 -1.6601 0
M  V30 5718 C 525.01 -1.13959 -3.21288 0
M  V30 5719 H 526.203 -2.34705 -1.86691 0
M  V30 5720 H 523.756 -1.24622 -0.94335 0
M  V30 5721 H 524.491 -0.17131 -3.23847 0
M  V30 5722 H 524.276 -1.93754 -3.40884 0
M  V30 5723 H 525.766 -1.15346 -4.01354 0
M  V30 5724 N 526.204 0.969867 -1.24223 0
M  V30 5725 C 527.434 1.74502 -1.106 0
M  V30 5726 C 527.842 1.86038 0.344483 0
M  V30 5727 O 527.185 1.3465 1.24961 0
M  V30 5728 C 527.247 3.18391 -1.66935 0
M  V30 5729 C 526.911 3.30334 -3.15798 0
M  V30 5730 C 527.908 3.15832 -4.12973 0
M  V30 5731 C 525.593 3.54644 -3.55715 0
M  V30 5732 C 527.587 3.25461 -5.48045 0
M  V30 5733 C 525.274 3.63912 -4.90929 0
M  V30 5734 C 526.272 3.49332 -5.86904 0
M  V30 5735 O 525.96 3.58251 -7.1966 0
M  V30 5736 H 525.692 0.554119 -0.387206 0
M  V30 5737 H 528.246 1.22646 -1.64764 0
M  V30 5738 H 526.476 3.71543 -1.07203 0
M  V30 5739 H 528.165 3.77707 -1.48634 0
M  V30 5740 H 528.931 2.96937 -3.83476 0
M  V30 5741 H 524.81 3.65059 -2.81519 0
M  V30 5742 H 528.354 3.13998 -6.22937 0
M  V30 5743 H 524.251 3.82319 -5.20098 0
M  V30 5744 H 525.019 3.7498 -7.27552 0
M  V30 5745 N 527.682 1.05563 1.17022 0
M  V30 5746 C 528.931 0.763036 1.8671 0
M  V30 5747 C 529.244 -0.712857 1.82147 0
M  V30 5748 O 530.45 -1.11955 2.47343 0
M  V30 5749 C 528.906 1.31474 3.35026 0
M  V30 5750 C 528.514 2.82034 3.48081 0
M  V30 5751 C 530.258 1.09935 4.10018 0
M  V30 5752 C 528.165 3.30486 4.90442 0
M  V30 5753 H 527.095 0.281747 0.699382 0
M  V30 5754 H 529.746 1.2734 1.32124 0
M  V30 5755 H 528.128 0.732171 3.89173 0
M  V30 5756 H 529.302 3.46178 3.04133 0
M  V30 5757 H 527.617 3.02156 2.86515 0
M  V30 5758 H 530.214 1.43632 5.15048 0
M  V30 5759 H 530.557 0.0373072 4.16283 0
M  V30 5760 H 531.09 1.64732 3.62089 0
M  V30 5761 H 527.829 4.36137 4.89352 0
M  V30 5762 H 527.349 2.71086 5.35044 0
M  V30 5763 H 529.028 3.25382 5.59227 0
M  V30 5764 N 529.16 -1.33526 0.837174 0
M  V30 5765 C 530.07 -2.33023 0.271568 0
M  V30 5766 C 531.086 -1.63272 -0.601514 0
M  V30 5767 O 532.262 -1.94939 -0.506038 0
M  V30 5768 C 529.327 -3.42382 -0.545448 0
M  V30 5769 C 528.388 -4.27857 0.351709 0
M  V30 5770 C 527.621 -5.31994 -0.426409 0
M  V30 5771 O 527.844 -5.45763 -1.65828 0
M  V30 5772 O 526.778 -6.01572 0.1987 0
M  V30 5773 H 530.604 -2.83256 1.09545 0
M  V30 5774 H 528.189 -1.36837 0.599655 0
M  V30 5775 H 530.071 -4.09122 -1.00979 0
M  V30 5776 H 528.746 -2.94369 -1.34641 0
M  V30 5777 H 527.653 -3.6399 0.863853 0
M  V30 5778 H 528.986 -4.79349 1.1174 0
M  V30 5779 N 530.638 -0.59345 -1.46 0
M  V30 5780 C 532.054 -0.255965 -1.57534 0
M  V30 5781 C 532.254 1.24167 -1.58697 0
M  V30 5782 O 531.31 2.02398 -1.50968 0
M  V30 5783 C 532.623 -0.91466 -2.86451 0
M  V30 5784 C 534.171 -0.889253 -3.00102 0
M  V30 5785 C 534.646 -1.52769 -4.3177 0
M  V30 5786 N 536.137 -1.49253 -4.38495 0
M  V30 5787 C 536.872 -1.9558 -5.39014 0
M  V30 5788 N 536.368 -2.49929 -6.46148 0
M  V30 5789 N 538.161 -1.86432 -5.30282 0
M  V30 5790 H 530.312 -1.56604 -1.43489 0
M  V30 5791 H 532.575 -0.655207 -0.685133 0
M  V30 5792 H 532.281 -1.96861 -2.91442 0
M  V30 5793 H 532.155 -0.429356 -3.74748 0
M  V30 5794 H 534.542 0.156111 -2.94687 0
M  V30 5795 H 534.623 -1.41268 -2.13253 0
M  V30 5796 H 534.267 -2.57231 -4.37944 0
M  V30 5797 H 534.197 -0.979398 -5.17412 0
M  V30 5798 H 536.688 -1.09536 -3.61677 0
M  V30 5799 H 537.001 -2.83109 -7.19075 0
M  V30 5800 H 535.346 -2.53961 -6.46938 0
M  V30 5801 H 538.537 -1.43722 -4.4549 0
M  V30 5802 H 538.71 -2.22852 -6.08474 0
M  V30 5803 N 532.116 1.54067 -0.331816 0
M  V30 5804 C 533.063 2.24623 0.530372 0
M  V30 5805 C 534.033 1.24009 1.10503 0
M  V30 5806 O 535.218 1.52712 1.14384 0
M  V30 5807 C 532.358 3.01374 1.68129 0
M  V30 5808 C 531.471 4.16821 1.13507 0
M  V30 5809 C 530.606 4.81085 2.25234 0
M  V30 5810 C 529.645 5.88621 1.67903 0
M  V30 5811 N 528.782 6.46713 2.73326 0
M  V30 5812 H 533.622 2.97898 -0.0778607 0
M  V30 5813 H 531.159 1.47014 -0.0501965 0
M  V30 5814 H 533.117 3.44125 2.35868 0
M  V30 5815 H 531.747 2.30419 2.26069 0
M  V30 5816 H 530.799 3.78796 0.348979 0
M  V30 5817 H 532.111 4.94203 0.675633 0
M  V30 5818 H 531.265 5.26846 3.00862 0
M  V30 5819 H 530.004 4.03102 2.74518 0
M  V30 5820 H 529.009 5.42254 0.907773 0
M  V30 5821 H 530.234 6.68506 1.19487 0
M  V30 5822 H 528.18 5.71599 3.21886 0
M  V30 5823 H 528.097 7.19532 2.3197 0
M  V30 5824 H 529.365 6.97129 3.48758 0
M  V30 5825 N 533.594 0.0601682 1.57485 0
M  V30 5826 C 534.542 -0.928899 2.13247 0
M  V30 5827 C 535.536 -1.31616 1.06647 0
M  V30 5828 O 536.742 -1.29476 1.25043 0
M  V30 5829 H 533.117 -0.317455 0.681708 0
M  V30 5830 H 535.088 -0.433566 2.95233 0
M  V30 5831 C 533.837 -2.19121 2.69965 0
M  V30 5832 H 533.16 -1.90204 3.51657 0
M  V30 5833 H 534.6 -2.86465 3.12592 0
M  V30 5834 C 533.059 -2.94195 1.64168 0
M  V30 5835 O 533.589 -3.87468 1.05978 0
M  V30 5836 N 531.795 -2.57089 1.35476 0
M  V30 5837 H 531.342 -1.81314 1.82984 0
M  V30 5838 H 531.3 -3.07624 0.649196 0
M  V30 5839 N 535.072 -1.5615 -0.213296 0
M  V30 5840 C 536.302 -1.83372 -0.951757 0
M  V30 5841 C 536.71 -0.638158 -1.78113 0
M  V30 5842 O 536.053 0.402609 -1.79234 0
M  V30 5843 C 536.115 -3.04444 -1.91192 0
M  V30 5844 C 535.779 -4.39107 -1.26627 0
M  V30 5845 C 536.776 -5.15794 -0.652087 0
M  V30 5846 C 534.461 -4.85834 -1.27556 0
M  V30 5847 C 536.455 -6.37376 -0.055814 0
M  V30 5848 C 534.142 -6.07356 -0.675451 0
M  V30 5849 C 535.14 -6.82967 -0.0666367 0
M  V30 5850 O 534.828 -8.0219 0.524119 0
M  V30 5851 H 534.56 -0.613398 -0.284111 0
M  V30 5852 H 537.114 -2.04096 -0.231112 0
M  V30 5853 H 535.344 -2.79559 -2.67178 0
M  V30 5854 H 537.033 -3.18466 -2.51662 0
M  V30 5855 H 537.799 -4.80796 -0.637172 0
M  V30 5856 H 533.678 -4.26949 -1.73883 0
M  V30 5857 H 537.222 -6.96334 0.420004 0
M  V30 5858 H 533.119 -6.41825 -0.687806 0
M  V30 5859 H 533.887 -8.17426 0.419243 0
M  V30 5860 N 536.55 0.480323 -1.50102 0
M  V30 5861 C 537.799 1.22979 -1.59872 0
M  V30 5862 C 538.112 1.93282 -0.30022 0
M  V30 5863 O 539.318 2.70086 -0.276709 0
M  V30 5864 C 537.774 2.23408 -2.82164 0
M  V30 5865 C 537.382 1.5895 -4.18854 0
M  V30 5866 C 539.126 2.99055 -3.01275 0
M  V30 5867 C 537.033 2.57611 -5.32344 0
M  V30 5868 H 535.963 0.462707 -0.59533 0
M  V30 5869 H 538.614 0.501291 -1.7652 0
M  V30 5870 H 536.996 2.99511 -2.59055 0
M  V30 5871 H 538.17 0.887 -4.52182 0
M  V30 5872 H 536.485 0.956191 -4.05273 0
M  V30 5873 H 539.082 3.72876 -3.83233 0
M  V30 5874 H 539.425 3.57897 -2.12639 0
M  V30 5875 H 539.958 2.30066 -3.24522 0
M  V30 5876 H 536.697 2.03521 -6.23105 0
M  V30 5877 H 536.217 3.26041 -5.03445 0
M  V30 5878 H 537.896 3.19627 -5.62537 0
M  V30 5879 N 538.028 1.39524 0.732853 0
M  V30 5880 C 538.978 1.34905 1.83806 0
M  V30 5881 C 539.962 0.229546 1.59254 0
M  V30 5882 O 541.154 0.467255 1.70721 0
M  V30 5883 C 538.283 1.19699 3.21756 0
M  V30 5884 C 537.369 2.36359 3.5213 0
M  V30 5885 N 537.76 3.61834 3.53426 0
M  V30 5886 C 536.058 2.29363 3.82503 0
M  V30 5887 C 536.759 4.38992 3.81655 0
M  V30 5888 N 535.735 3.68606 3.99538 0
M  V30 5889 H 539.537 2.29882 1.83116 0
M  V30 5890 H 537.051 1.33051 0.931194 0
M  V30 5891 H 539.048 1.14472 4.00876 0
M  V30 5892 H 537.708 0.256739 3.23683 0
M  V30 5893 H 538.719 3.95228 3.34686 0
M  V30 5894 H 535.396 1.43612 3.92023 0
M  V30 5895 H 536.786 5.47763 3.89108 0
M  V30 5896 N 539.506 -0.963266 1.24736 0
M  V30 5897 C 540.922 -1.23273 1.01371 0
M  V30 5898 C 541.122 -1.99618 -0.274776 0
M  V30 5899 O 540.178 -2.32293 -0.989769 0
M  V30 5900 C 541.491 -2.01554 2.23152 0
M  V30 5901 C 543.039 -2.14629 2.27823 0
M  V30 5902 C 543.514 -2.96307 3.49237 0
M  V30 5903 N 545.005 -3.03887 3.49581 0
M  V30 5904 C 545.74 -3.67456 4.40186 0
M  V30 5905 N 545.236 -4.32706 5.41052 0
M  V30 5906 N 547.029 -3.64511 4.27888 0
M  V30 5907 H 539.18 -0.452294 2.07528 0
M  V30 5908 H 541.443 -0.262521 0.910926 0
M  V30 5909 H 541.149 -1.52847 3.1675 0
M  V30 5910 H 541.023 -3.02278 2.25628 0
M  V30 5911 H 543.41 -2.62537 1.34753 0
M  V30 5912 H 543.491 -1.13238 2.2937 0
M  V30 5913 H 543.135 -2.49091 4.42624 0
M  V30 5914 H 543.065 -3.97905 3.44933 0
M  V30 5915 H 545.556 -2.57477 2.76611 0
M  V30 5916 H 545.869 -4.79042 6.06415 0
M  V30 5917 H 544.214 -4.31361 5.44934 0
M  V30 5918 H 547.405 -3.12715 3.4832 0
M  V30 5919 H 547.578 -4.13768 4.98698 0
M  V30 5920 N 540.985 -1.06182 -1.16461 0
M  V30 5921 C 542.262 -0.691364 -1.82974 0
M  V30 5922 C 542.642 0.827377 -1.9421 0
M  V30 5923 O 541.99 1.73723 -1.48434 0
M  V30 5924 C 542.2 -1.39199 -3.20038 0
M  V30 5925 C 543.548 -1.53647 -3.95825 0
M  V30 5926 O 544.572 -1.35181 -3.29552 0
M  V30 5927 O 543.431 -1.83932 -5.14618 0
M  V30 5928 H 540.525 -0.244605 -0.789998 0
M  V30 5929 H 543.071 -1.16203 -1.23673 0
M  V30 5930 H 541.843 -2.42766 -3.06888 0
M  V30 5931 H 541.466 -0.911335 -3.87015 0
M  V30 5932 N 542.463 1.3308 -0.844243 0
M  V30 5933 C 543.393 2.3161 -0.296493 0
M  V30 5934 C 544.374 1.59215 0.598707 0
M  V30 5935 O 545.559 1.87077 0.521134 0
M  V30 5936 C 542.689 3.43313 0.524762 0
M  V30 5937 C 541.643 4.27115 -0.275106 0
M  V30 5938 C 540.969 5.30483 0.670236 0
M  V30 5939 C 542.269 5.00443 -1.49514 0
M  V30 5940 H 543.963 2.77672 -1.11976 0
M  V30 5941 H 541.509 1.33496 -0.539899 0
M  V30 5942 H 543.462 4.11273 0.918298 0
M  V30 5943 H 542.186 2.95952 1.3813 0
M  V30 5944 H 540.845 3.60787 -0.650267 0
M  V30 5945 H 540.493 4.79379 1.52332 0
M  V30 5946 H 540.193 5.87435 0.139123 0
M  V30 5947 H 541.717 6.01308 1.06117 0
M  V30 5948 H 543.131 5.61141 -1.17447 0
M  V30 5949 H 541.528 5.67071 -1.96343 0
M  V30 5950 H 542.598 4.28906 -2.26202 0
M  V30 5951 N 543.941 0.601185 1.45683 0
M  V30 5952 C 545.357 0.264315 1.57396 0
M  V30 5953 C 545.557 -1.23324 1.59353 0
M  V30 5954 O 544.613 -2.01594 1.52039 0
M  V30 5955 C 545.926 0.929839 2.85962 0
M  V30 5956 C 547.474 0.905156 2.99626 0
M  V30 5957 C 547.949 1.55057 4.30954 0
M  V30 5958 N 549.44 1.51576 4.37697 0
M  V30 5959 C 550.175 1.98436 5.37969 0
M  V30 5960 N 549.671 2.53352 6.44813 0
M  V30 5961 N 551.464 1.89242 5.29286 0
M  V30 5962 H 543.615 1.57363 1.42656 0
M  V30 5963 H 545.878 0.658831 0.681649 0
M  V30 5964 H 545.584 1.98404 2.90394 0
M  V30 5965 H 545.458 0.449224 3.74515 0
M  V30 5966 H 547.845 -0.14048 2.94765 0
M  V30 5967 H 547.926 1.42397 2.12501 0
M  V30 5968 H 547.57 2.5955 4.36573 0
M  V30 5969 H 547.5 1.00682 5.16886 0
M  V30 5970 H 549.991 1.11452 3.61091 0
M  V30 5971 H 550.304 2.86918 7.17564 0
M  V30 5972 H 548.649 2.57388 6.45582 0
M  V30 5973 H 551.84 1.46083 4.44722 0
M  V30 5974 H 552.013 2.26075 6.07284 0
M  V30 5975 N 545.419 -1.53889 0.339982 0
M  V30 5976 C 546.382 -2.23547 -0.50592 0
M  V30 5977 C 547.382 -1.23445 -1.03044 0
M  V30 5978 O 548.572 -1.47909 -0.920253 0
M  V30 5979 C 545.704 -2.95234 -1.7044 0
M  V30 5980 H 546.897 -2.99722 0.103247 0
M  V30 5981 H 544.45 -1.56033 0.0912804 0
M  V30 5982 H 545.185 -2.23236 -2.35236 0
M  V30 5983 H 544.97 -3.68654 -1.33553 0
M  V30 5984 H 546.46 -3.48258 -2.30447 0
M  V30 5985 N 546.897 -0.0685191 -1.57451 0
M  V30 5986 C 547.86 0.885173 -2.11417 0
M  V30 5987 C 548.86 1.22853 -1.03748 0
M  V30 5988 O 550.05 1.16235 -1.2975 0
M  V30 5989 C 547.182 2.18964 -2.61281 0
M  V30 5990 H 548.375 0.417034 -2.96986 0
M  V30 5991 H 545.928 0.18014 -1.55258 0
M  V30 5992 H 546.663 2.70321 -1.79156 0
M  V30 5993 H 546.448 1.9534 -3.39977 0
M  V30 5994 H 547.938 2.87242 -3.0312 0
M  V30 5995 N 548.375 1.56261 0.205012 0
M  V30 5996 C 549.323 1.94631 1.27364 0
M  V30 5997 C 550.317 0.830434 1.47649 0
M  V30 5998 O 551.523 1.01538 1.48627 0
M  V30 5999 H 547.898 0.618755 0.427371 0
M  V30 6000 H 549.869 2.83768 0.922941 0
M  V30 6001 C 548.618 2.29358 2.61324 0
M  V30 6002 H 547.941 3.14744 2.46528 0
M  V30 6003 H 549.381 2.60076 3.34868 0
M  V30 6004 C 547.84 1.12461 3.17575 0
M  V30 6005 O 548.37 0.394407 3.99759 0
M  V30 6006 N 546.576 0.904036 2.7618 0
M  V30 6007 H 546.123 1.49956 2.09454 0
M  V30 6008 H 546.081 0.123662 3.14157 0
M  V30 6009 N 549.853 -0.472356 1.50355 0
M  V30 6010 C 551.099 -1.22634 1.6152 0
M  V30 6011 C 551.432 -1.91645 0.313995 0
M  V30 6012 O 550.707 -1.82059 -0.684446 0
M  V30 6013 C 550.99 -2.27099 2.7946 0
M  V30 6014 C 550.843 -1.62402 4.19459 0
M  V30 6015 C 552.162 -3.28421 2.92964 0
M  V30 6016 H 549.281 -0.444494 0.587873 0
M  V30 6017 H 551.923 -0.520321 1.82737 0
M  V30 6018 H 550.073 -2.87314 2.61501 0
M  V30 6019 H 551.745 -1.05793 4.49005 0
M  V30 6020 H 549.988 -0.927184 4.23776 0
M  V30 6021 H 550.659 -2.38309 4.97909 0
M  V30 6022 H 553.135 -2.78227 3.09401 0
M  V30 6023 H 552.011 -3.98845 3.77113 0
M  V30 6024 H 552.272 -3.92467 2.03525 0
M  V30 6025 N 551.331 -1.39911 -0.725443 0
M  V30 6026 C 552.261 -1.42138 -1.85254 0
M  V30 6027 C 553.242 -0.283513 -1.67721 0
M  V30 6028 O 554.427 -0.490717 -1.87898 0
M  V30 6029 C 551.557 -1.27354 -3.23107 0
M  V30 6030 C 550.511 -2.3864 -3.55296 0
M  V30 6031 C 549.837 -2.08939 -4.92188 0
M  V30 6032 C 551.137 -3.8097 -3.57295 0
M  V30 6033 H 552.831 -2.36461 -1.83648 0
M  V30 6034 H 550.377 -1.13817 -0.882138 0
M  V30 6035 H 552.33 -1.2753 -4.01639 0
M  V30 6036 H 551.054 -0.295025 -3.25265 0
M  V30 6037 H 549.713 -2.37696 -2.79099 0
M  V30 6038 H 549.361 -1.09502 -4.90936 0
M  V30 6039 H 549.061 -2.83491 -5.14691 0
M  V30 6040 H 550.585 -2.10781 -5.73065 0
M  V30 6041 H 551.999 -3.8379 -4.25885 0
M  V30 6042 H 550.396 -4.5496 -3.9132 0
M  V30 6043 H 551.466 -4.11261 -2.5689 0
M  V30 6044 N 552.809 0.956637 -1.25245 0
M  V30 6045 C 554.055 1.70352 -1.10036 0
M  V30 6046 C 554.388 1.90869 0.358156 0
M  V30 6047 O 553.663 1.47819 1.26411 0
M  V30 6048 C 553.946 3.08766 -1.85298 0
M  V30 6049 C 553.799 2.95672 -3.38966 0
M  V30 6050 C 555.118 4.08622 -1.63451 0
M  V30 6051 H 552.237 0.618279 -0.401123 0
M  V30 6052 H 554.879 1.11212 -1.54051 0
M  V30 6053 H 553.029 3.59252 -1.47887 0
M  V30 6054 H 554.701 2.52527 -3.86041 0
M  V30 6055 H 552.944 2.31634 -3.6678 0
M  V30 6056 H 553.615 3.93776 -3.86839 0
M  V30 6057 H 556.091 3.67038 -1.96015 0
M  V30 6058 H 554.967 5.03514 -2.18551 0
M  V30 6059 H 555.228 4.3834 -0.575357 0
M  V30 6060 N 554.287 1.06798 1.15896 0
M  V30 6061 C 555.512 0.808739 1.90982 0
M  V30 6062 C 555.937 -0.6316 1.77179 0
M  V30 6063 O 555.295 -1.4407 1.10061 0
M  V30 6064 C 555.343 1.21468 3.39526 0
M  V30 6065 O 554.447 0.356562 4.10856 0
M  V30 6066 H 553.788 0.29512 0.594811 0
M  V30 6067 H 556.318 1.42513 1.46804 0
M  V30 6068 H 556.328 1.18844 3.90308 0
M  V30 6069 H 555.003 2.26379 3.48891 0
M  V30 6070 H 553.58 0.444808 3.70238 0
M  V30 6071 N 555.766 -1.3263 0.851289 0
M  V30 6072 C 556.676 -2.32722 0.296268 0
M  V30 6073 C 557.692 -1.63901 -0.584162 0
M  V30 6074 O 558.868 -1.95465 -0.485334 0
M  V30 6075 C 555.933 -3.42942 -0.509103 0
M  V30 6076 C 554.994 -4.2746 0.397069 0
M  V30 6077 C 554.227 -5.32416 -0.36996 0
M  V30 6078 O 554.45 -5.47491 -1.6003 0
M  V30 6079 O 553.384 -6.01327 0.262493 0
M  V30 6080 H 557.21 -2.82078 1.12543 0
M  V30 6081 H 554.795 -1.36194 0.614135 0
M  V30 6082 H 556.677 -4.1017 -0.96634 0
M  V30 6083 H 555.352 -2.95781 -1.31512 0
M  V30 6084 H 554.259 -3.63053 0.902411 0
M  V30 6085 H 555.592 -4.78136 1.16818 0
M  V30 6086 N 557.244 -0.608902 -1.45362 0
M  V30 6087 C 558.469 -0.10921 -2.07112 0
M  V30 6088 C 558.894 1.19779 -1.45033 0
M  V30 6089 O 558.252 1.72961 -0.543527 0
M  V30 6090 C 558.3 0.0155745 -3.60597 0
M  V30 6091 O 557.404 1.06546 -3.98399 0
M  V30 6092 H 556.745 -0.0746619 -0.659789 0
M  V30 6093 H 559.275 -0.839283 -1.86594 0
M  V30 6094 H 559.285 0.213364 -4.07442 0
M  V30 6095 H 557.96 -0.938765 -4.05167 0
M  V30 6096 H 556.537 0.844024 -3.63223 0
M  V30 6097 N 558.722 1.53707 -0.348139 0
M  V30 6098 C 559.652 2.28111 0.498766 0
M  V30 6099 C 560.633 1.29851 1.09876 0
M  V30 6100 O 561.818 1.587 1.11928 0
M  V30 6101 C 558.948 3.05735 1.64753 0
M  V30 6102 C 557.902 4.11537 1.17565 0
M  V30 6103 C 557.228 4.77142 2.4133 0
M  V30 6104 C 558.528 5.21587 0.272844 0
M  V30 6105 H 560.222 2.99152 -0.121934 0
M  V30 6106 H 557.768 1.43875 -0.0600842 0
M  V30 6107 H 559.721 3.56526 2.24649 0
M  V30 6108 H 558.445 2.32354 2.2952 0
M  V30 6109 H 557.104 3.61665 0.599483 0
M  V30 6110 H 556.752 4.0035 3.04514 0
M  V30 6111 H 556.452 5.48626 2.10436 0
M  V30 6112 H 557.976 5.30719 3.01943 0
M  V30 6113 H 559.39 5.67986 0.778779 0
M  V30 6114 H 557.787 6.00074 0.0555849 0
M  V30 6115 H 558.857 4.79969 -0.689785 0
M  V30 6116 N 560.2 0.0768682 1.57412 0
M  V30 6117 C 561.133 -0.924685 2.08626 0
M  V30 6118 C 562.111 -1.28792 0.992542 0
M  V30 6119 O 563.295 -1.39634 1.26628 0
M  V30 6120 C 560.422 -2.23131 2.54814 0
M  V30 6121 C 559.468 -2.01928 3.75669 0
M  V30 6122 S 560.301 -1.27397 5.20125 0
M  V30 6123 C 561.457 -2.59329 5.69648 0
M  V30 6124 H 561.69 -0.488928 2.93252 0
M  V30 6125 H 559.223 -0.136014 1.538 0
M  V30 6126 H 561.181 -2.98226 2.82084 0
M  V30 6127 H 559.842 -2.63831 1.70447 0
M  V30 6128 H 559.035 -2.98639 4.05993 0
M  V30 6129 H 558.637 -1.34967 3.48798 0
M  V30 6130 H 560.929 -3.55394 5.76803 0
M  V30 6131 H 561.872 -2.33608 6.68456 0
M  V30 6132 H 562.28 -2.66767 4.9749 0
M  V30 6133 N 561.678 -1.56367 -0.196722 0
M  V30 6134 C 562.918 -1.82315 -0.92415 0
M  V30 6135 C 563.282 -0.654117 -1.80514 0
M  V30 6136 O 564.483 -0.79345 -2.56823 0
M  V30 6137 C 562.754 -3.13279 -1.72021 0
M  V30 6138 S 564.313 -3.60627 -2.49988 0
M  V30 6139 H 561.131 -0.639862 -0.309997 0
M  V30 6140 H 563.733 -1.94597 -0.187684 0
M  V30 6141 H 562.437 -3.96379 -1.06358 0
M  V30 6142 H 561.968 -3.03871 -2.49852 0
M  V30 6143 H 563.983 -3.25934 -3.74141 0
M  V30 6144 N 563.156 0.464375 -1.50603 0
M  V30 6145 C 564.103 1.56152 -1.69956 0
M  V30 6146 C 565.073 1.57046 -0.54091 0
M  V30 6147 O 566.258 1.74473 -0.772258 0
M  V30 6148 C 563.398 2.94079 -1.80586 0
M  V30 6149 C 562.511 3.02923 -3.07996 0
M  V30 6150 C 561.646 4.31806 -3.09382 0
M  V30 6151 C 560.685 4.34417 -4.31218 0
M  V30 6152 N 559.822 5.54782 -4.30304 0
M  V30 6153 H 564.662 1.38955 -2.6362 0
M  V30 6154 H 562.199 0.675482 -1.30674 0
M  V30 6155 H 564.157 3.74073 -1.8473 0
M  V30 6156 H 562.787 3.09896 -0.903556 0
M  V30 6157 H 561.839 2.1576 -3.13292 0
M  V30 6158 H 563.151 3.00712 -3.97962 0
M  V30 6159 H 562.305 5.20153 -3.12292 0
M  V30 6160 H 561.044 4.36636 -2.17257 0
M  V30 6161 H 560.049 3.44467 -4.28512 0
M  V30 6162 H 561.274 4.31273 -5.24576 0
M  V30 6163 H 559.22 5.60384 -3.41037 0
M  V30 6164 H 559.137 5.54339 -5.14047 0
M  V30 6165 H 560.405 6.45235 -4.3737 0
M  V30 6166 N 564.634 1.40294 0.718013 0
M  V30 6167 C 565.883 1.37746 1.4734 0
M  V30 6168 C 566.196 -0.0180754 1.95592 0
M  V30 6169 O 567.402 -0.166166 2.70991 0
M  V30 6170 C 565.858 2.4208 2.66318 0
M  V30 6171 C 565.466 3.87432 2.24945 0
M  V30 6172 C 567.21 2.48635 3.44065 0
M  V30 6173 C 565.117 4.83368 3.40748 0
M  V30 6174 H 564.047 0.512165 0.553356 0
M  V30 6175 H 566.698 1.66019 0.781661 0
M  V30 6176 H 565.08 2.06903 3.3765 0
M  V30 6177 H 566.254 4.3174 1.6105 0
M  V30 6178 H 564.569 3.8433 1.60249 0
M  V30 6179 H 567.166 3.17499 4.30231 0
M  V30 6180 H 567.509 1.51611 3.87711 0
M  V30 6181 H 568.042 2.82791 2.79775 0
M  V30 6182 H 564.781 5.81716 3.02136 0
M  V30 6183 H 564.301 4.43726 4.03568 0
M  V30 6184 H 565.98 5.03074 4.06848 0
M  V30 6185 N 566.112 -0.949982 1.2575 0
M  V30 6186 C 567.075 -2.02894 1.06615 0
M  V30 6187 C 568.075 -1.60791 0.0173905 0
M  V30 6188 O 569.265 -1.72249 0.260003 0
M  V30 6189 C 566.397 -3.35219 0.619751 0
M  V30 6190 H 567.59 -2.21302 2.02399 0
M  V30 6191 H 565.143 -1.12772 1.08223 0
M  V30 6192 H 565.878 -3.22508 -0.340486 0
M  V30 6193 H 565.663 -3.67129 1.37692 0
M  V30 6194 H 567.153 -4.14505 0.507443 0
M  V30 6195 N 567.59 -1.07411 -1.15328 0
M  V30 6196 C 568.867 -0.710732 -1.82231 0
M  V30 6197 C 569.247 0.806732 -1.95077 0
M  V30 6198 O 568.595 1.72139 -1.50268 0
M  V30 6199 C 568.805 -1.42586 -3.18544 0
M  V30 6200 C 570.153 -1.57836 -3.94174 0
M  V30 6201 O 571.177 -1.38669 -3.281 0
M  V30 6202 O 570.036 -1.8938 -5.12638 0
M  V30 6203 H 567.13 -0.25297 -0.78736 0
M  V30 6204 H 569.676 -1.17508 -1.22434 0
M  V30 6205 H 568.448 -2.46008 -3.04296 0
M  V30 6206 H 568.071 -0.952332 -3.86026 0
M  V30 6207 N 569.068 1.32177 -0.85831 0
M  V30 6208 C 570.315 1.97125 -0.463484 0
M  V30 6209 C 570.643 1.67907 0.981705 0
M  V30 6210 O 569.898 0.961717 1.70439 0
M  V30 6211 C 570.197 3.51372 -0.653658 0
M  V30 6212 C 569.863 4.00584 -2.06987 0
M  V30 6213 C 568.525 4.13733 -2.4572 0
M  V30 6214 C 570.877 4.26624 -2.99402 0
M  V30 6215 C 568.205 4.50268 -3.76132 0
M  V30 6216 C 570.557 4.64618 -4.29316 0
M  V30 6217 C 569.221 4.75975 -4.67979 0
M  V30 6218 H 568.491 0.72133 -0.169601 0
M  V30 6219 H 571.138 1.57517 -1.08907 0
M  V30 6220 H 569.443 3.91761 0.0551328 0
M  V30 6221 H 571.14 3.99655 -0.328163 0
M  V30 6222 H 567.73 3.90837 -1.75911 0
M  V30 6223 H 571.914 4.1597 -2.70708 0
M  V30 6224 H 567.17 4.57256 -4.05865 0
M  V30 6225 H 571.344 4.83722 -5.00985 0
M  V30 6226 H 568.971 5.04041 -5.69076 0
M  V30 6227 N 570.547 0.616602 1.45037 0
M  V30 6228 C 571.795 0.115103 2.01772 0
M  V30 6229 C 572.116 -1.2622 1.48639 0
M  V30 6230 O 571.386 -1.83563 0.684199 0
M  V30 6231 H 569.966 0.0395607 0.745952 0
M  V30 6232 H 572.628 0.800032 1.77723 0
M  V30 6233 H 571.724 0.0717274 3.12018 0
M  V30 6234 N 572.025 -1.5352 0.356285 0
M  V30 6235 C 572.955 -2.28372 -0.486661 0
M  V30 6236 C 573.936 -1.30432 -1.09185 0
M  V30 6237 O 575.121 -1.59291 -1.11085 0
M  V30 6238 C 572.251 -3.06604 -1.63129 0
M  V30 6239 C 571.205 -4.12154 -1.15381 0
M  V30 6240 C 570.531 -4.78415 -2.38796 0
M  V30 6241 C 571.831 -5.21724 -0.245179 0
M  V30 6242 H 573.525 -2.99083 0.137797 0
M  V30 6243 H 571.071 -1.43841 0.0677134 0
M  V30 6244 H 573.024 -3.57712 -2.22755 0
M  V30 6245 H 571.748 -2.33568 -2.28284 0
M  V30 6246 H 570.407 -3.61978 -0.580294 0
M  V30 6247 H 570.055 -4.01959 -3.02387 0
M  V30 6248 H 569.755 -5.49734 -2.07524 0
M  V30 6249 H 571.279 -5.32313 -2.99125 0
M  V30 6250 H 572.693 -5.68391 -0.748646 0
M  V30 6251 H 571.09 -6.00095 -0.0237608 0
M  V30 6252 H 572.16 -4.79596 0.715229 0
M  V30 6253 N 573.503 -0.0852151 -1.57369 0
M  V30 6254 C 574.466 0.8627 -2.12344 0
M  V30 6255 C 575.466 1.21746 -1.05046 0
M  V30 6256 O 576.656 1.14852 -1.30976 0
M  V30 6257 C 573.788 2.1618 -2.63589 0
M  V30 6258 H 574.981 0.385511 -2.97412 0
M  V30 6259 H 572.534 0.163663 -1.55441 0
M  V30 6260 H 573.269 2.68406 -1.82013 0
M  V30 6261 H 573.054 1.91723 -3.4203 0
M  V30 6262 H 574.544 2.84011 -3.06149 0
M  V30 6263 N 574.981 1.5647 0.188427 0
M  V30 6264 C 576.397 1.50204 0.539532 0
M  V30 6265 C 576.597 0.78644 1.85519 0
M  V30 6266 O 575.653 0.339714 2.50204 0
M  V30 6267 C 576.966 2.94893 0.588103 0
M  V30 6268 C 578.514 3.05602 0.67648 0
M  V30 6269 C 578.989 4.51716 0.756101 0
M  V30 6270 N 580.48 4.55894 0.819451 0
M  V30 6271 C 581.215 5.66272 0.90134 0
M  V30 6272 N 580.711 6.86323 0.945118 0
M  V30 6273 N 582.504 5.54201 0.939043 0
M  V30 6274 H 574.655 2.01406 -0.674493 0
M  V30 6275 H 576.918 0.916828 -0.241103 0
M  V30 6276 H 576.624 3.50334 -0.309633 0
M  V30 6277 H 576.498 3.4861 1.44051 0
M  V30 6278 H 578.885 2.50206 1.56465 0
M  V30 6279 H 578.966 2.54999 -0.202262 0
M  V30 6280 H 578.61 5.07739 -0.12774 0
M  V30 6281 H 578.54 5.00058 1.65074 0
M  V30 6282 H 581.031 3.69452 0.794594 0
M  V30 6283 H 581.344 7.66194 1.0083 0
M  V30 6284 H 579.689 6.88968 0.913683 0
M  V30 6285 H 582.88 4.59333 0.901725 0
M  V30 6286 H 583.053 6.40247 0.999402 0
M  V30 6287 N 576.459 -0.456382 1.50847 0
M  V30 6288 C 577.705 -1.20914 1.62811 0
M  V30 6289 C 578.038 -1.91301 0.334304 0
M  V30 6290 O 577.313 -1.82775 -0.665098 0
M  V30 6291 C 577.596 -2.24122 2.81853 0
M  V30 6292 C 577.449 -1.57944 4.21158 0
M  V30 6293 C 578.768 -3.25295 2.96431 0
M  V30 6294 H 575.887 -0.438233 0.592554 0
M  V30 6295 H 578.529 -0.50091 1.83278 0
M  V30 6296 H 576.679 -2.84524 2.64534 0
M  V30 6297 H 578.351 -1.01025 4.50102 0
M  V30 6298 H 576.594 -0.882185 4.24735 0
M  V30 6299 H 577.265 -2.33014 5.00408 0
M  V30 6300 H 579.741 -2.7493 3.12335 0
M  V30 6301 H 578.617 -3.94822 3.81322 0
M  V30 6302 H 578.878 -3.90286 2.07676 0
M  V30 6303 N 577.937 -1.40673 -0.710563 0
M  V30 6304 C 579.186 -1.38525 -1.46607 0
M  V30 6305 C 579.499 0.0077024 -1.95598 0
M  V30 6306 O 580.705 0.151792 -2.71075 0
M  V30 6307 C 579.161 -2.43489 -2.6503 0
M  V30 6308 C 578.769 -3.88619 -2.22888 0
M  V30 6309 C 580.513 -2.50456 -3.42742 0
M  V30 6310 C 578.42 -4.85168 -3.3818 0
M  V30 6311 H 577.35 -0.515092 -0.550632 0
M  V30 6312 H 580.001 -1.66431 -0.772846 0
M  V30 6313 H 578.383 -2.0869 -3.36548 0
M  V30 6314 H 579.557 -4.32588 -1.58758 0
M  V30 6315 H 577.872 -3.85174 -1.58208 0
M  V30 6316 H 580.469 -3.19776 -4.28541 0
M  V30 6317 H 580.812 -1.53665 -3.86902 0
M  V30 6318 H 581.345 -2.84271 -2.78271 0
M  V30 6319 H 578.084 -5.8331 -2.99047 0
M  V30 6320 H 577.604 -4.4586 -4.01209 0
M  V30 6321 H 579.283 -5.05225 -4.04174 0
M  V30 6322 N 579.415 0.9433 -1.26252 0
M  V30 6323 C 580.325 2.07532 -1.09397 0
M  V30 6324 C 581.341 1.73977 -0.0280449 0
M  V30 6325 O 582.517 2.00067 -0.231337 0
M  V30 6326 C 579.582 3.39002 -0.726523 0
M  V30 6327 C 578.643 3.86353 -1.87163 0
M  V30 6328 C 577.876 5.11549 -1.52162 0
M  V30 6329 O 578.099 5.68834 -0.422385 0
M  V30 6330 O 577.033 5.53889 -2.35565 0
M  V30 6331 H 580.859 2.24658 -2.04359 0
M  V30 6332 H 578.444 1.05988 -1.05295 0
M  V30 6333 H 580.326 4.18 -0.534236 0
M  V30 6334 H 579.001 3.2312 0.193721 0
M  V30 6335 H 577.908 3.0831 -2.11886 0
M  V30 6336 H 579.241 4.06752 -2.77152 0
M  V30 6337 N 580.893 1.08022 1.14757 0
M  V30 6338 C 582.17 0.720386 1.81851 0
M  V30 6339 C 582.55 -0.796375 1.95502 0
M  V30 6340 O 581.898 -1.71339 1.51179 0
M  V30 6341 C 582.108 1.44273 3.17783 0
M  V30 6342 C 583.456 1.59925 3.93331 0
M  V30 6343 O 584.48 1.40407 3.2736 0
M  V30 6344 O 583.339 1.92096 5.11626 0
M  V30 6345 H 580.433 0.257142 0.786007 0
M  V30 6346 H 582.979 1.18155 1.21809 0
M  V30 6347 H 581.751 2.47618 3.02987 0
M  V30 6348 H 581.374 0.97279 3.85516 0
M  V30 6349 N 582.371 -1.3172 0.865308 0
M  V30 6350 C 583.319 -2.30569 0.306674 0
M  V30 6351 C 584.313 -1.59317 -0.575724 0
M  V30 6352 O 585.519 -1.73961 -0.462343 0
M  V30 6353 H 581.894 -0.747681 0.0804834 0
M  V30 6354 H 583.865 -2.75165 1.15441 0
M  V30 6355 C 582.614 -3.44358 -0.480952 0
M  V30 6356 H 581.937 -3.99354 0.18876 0
M  V30 6357 H 583.377 -4.15652 -0.837241 0
M  V30 6358 C 581.836 -2.92574 -1.67039 0
M  V30 6359 O 582.366 -2.90954 -2.76964 0
M  V30 6360 N 580.572 -2.48835 -1.50097 0
M  V30 6361 H 580.119 -2.50353 -0.606738 0
M  V30 6362 H 580.077 -2.14543 -2.29823 0
M  V30 6363 N 583.85 -0.624285 -1.44708 0
M  V30 6364 C 584.76 0.0861083 -2.34442 0
M  V30 6365 C 585.776 0.84291 -1.5222 0
M  V30 6366 O 586.952 0.796723 -1.84971 0
M  V30 6367 C 584.017 1.05999 -3.30099 0
M  V30 6368 C 583.077 0.303316 -4.28227 0
M  V30 6369 C 582.311 1.23081 -5.19314 0
M  V30 6370 O 582.534 2.46929 -5.14181 0
M  V30 6371 O 581.468 0.71883 -5.97592 0
M  V30 6372 H 585.293 -0.651756 -2.96624 0
M  V30 6373 H 582.879 -0.384493 -1.44368 0
M  V30 6374 H 584.76 1.62046 -3.88997 0
M  V30 6375 H 583.436 1.77859 -2.70459 0
M  V30 6376 H 582.343 -0.300033 -3.72895 0
M  V30 6377 H 583.676 -0.375123 -4.90768 0
M  V30 6378 N 585.328 1.53329 -0.364422 0
M  V30 6379 C 586.558 2.05359 0.226096 0
M  V30 6380 C 586.966 1.23777 1.43094 0
M  V30 6381 O 586.309 0.271139 1.81688 0
M  V30 6382 C 586.371 3.52918 0.684794 0
M  V30 6383 C 586.035 4.55218 -0.403206 0
M  V30 6384 C 587.032 5.04583 -1.2527 0
M  V30 6385 C 584.717 4.99134 -0.563117 0
M  V30 6386 C 586.711 5.96463 -2.24745 0
M  V30 6387 C 584.398 5.9082 -1.56124 0
M  V30 6388 C 585.396 6.39375 -2.40184 0
M  V30 6389 O 585.084 7.29255 -3.38293 0
M  V30 6390 H 584.816 0.674588 0.0436772 0
M  V30 6391 H 587.37 1.98688 -0.520782 0
M  V30 6392 H 585.6 3.57122 1.48326 0
M  V30 6393 H 587.289 3.87812 1.19818 0
M  V30 6394 H 588.055 4.71403 -1.14034 0
M  V30 6395 H 583.934 4.60928 0.0813909 0
M  V30 6396 H 587.478 6.34285 -2.90393 0
M  V30 6397 H 583.375 6.23414 -1.67407 0
M  V30 6398 H 584.143 7.47249 -3.34009 0
M  V30 6399 N 586.806 0.0935595 1.57322 0
M  V30 6400 C 588.034 -0.578934 1.98635 0
M  V30 6401 C 588.449 -1.61819 0.972626 0
M  V30 6402 O 587.806 -1.82461 -0.0379638 0
M  V30 6403 C 587.857 -1.22802 3.40003 0
M  V30 6404 O 587.578 -0.230334 4.37494 0
M  V30 6405 C 589.079 -1.98627 3.96311 0
M  V30 6406 H 586.299 -0.155324 0.652775 0
M  V30 6407 H 588.843 0.172393 2.03772 0
M  V30 6408 H 586.998 -1.93029 3.35885 0
M  V30 6409 H 587.412 -0.698649 5.19826 0
M  V30 6410 H 588.886 -2.39405 4.97382 0
M  V30 6411 H 589.363 -2.85151 3.34044 0
M  V30 6412 H 589.969 -1.3322 4.03897 0
M  V30 6413 N 588.284 -1.56567 -0.180126 0
M  V30 6414 C 589.247 -1.94852 -1.20686 0
M  V30 6415 C 590.247 -0.831212 -1.3765 0
M  V30 6416 O 591.437 -1.09841 -1.35206 0
M  V30 6417 C 588.569 -2.23565 -2.57355 0
M  V30 6418 H 589.762 -2.86722 -0.879225 0
M  V30 6419 H 587.315 -1.50489 -0.422237 0
M  V30 6420 H 588.05 -1.34381 -2.95148 0
M  V30 6421 H 587.835 -3.04999 -2.46411 0
M  V30 6422 H 589.325 -2.54137 -3.31367 0
M  V30 6423 N 589.762 0.448376 -1.51087 0
M  V30 6424 C 591.178 0.783984 -1.39017 0
M  V30 6425 C 591.378 1.96087 -0.463904 0
M  V30 6426 O 590.434 2.52357 0.0850534 0
M  V30 6427 C 591.747 1.07471 -2.80839 0
M  V30 6428 C 593.295 1.17981 -2.89913 0
M  V30 6429 C 593.77 1.50354 -4.32617 0
M  V30 6430 N 595.261 1.57301 -4.35673 0
M  V30 6431 C 595.996 1.839 -5.4311 0
M  V30 6432 N 595.492 2.08365 -6.60724 0
M  V30 6433 N 597.285 1.8559 -5.30578 0
M  V30 6434 H 589.436 -0.326881 -2.0987 0
M  V30 6435 H 591.699 -0.0838006 -0.944289 0
M  V30 6436 H 591.405 0.282768 -3.50561 0
M  V30 6437 H 591.279 2.00519 -3.19487 0
M  V30 6438 H 593.666 1.9624 -2.20395 0
M  V30 6439 H 593.747 0.228603 -2.54776 0
M  V30 6440 H 593.391 0.726273 -5.0268 0
M  V30 6441 H 593.321 2.46663 -4.65258 0
M  V30 6442 H 595.812 1.40342 -3.50874 0
M  V30 6443 H 596.125 2.27999 -7.38401 0
M  V30 6444 H 594.47 2.0571 -6.63859 0
M  V30 6445 H 597.661 1.65989 -4.37682 0
M  V30 6446 H 597.834 2.05983 -6.1439 0
M  V30 6447 N 591.24 1.41047 0.703093 0
M  V30 6448 C 592.15 1.44645 1.84703 0
M  V30 6449 C 593.166 0.337778 1.7069 0
M  V30 6450 O 594.342 0.584327 1.92737 0
M  V30 6451 C 591.407 1.31928 3.20618 0
M  V30 6452 C 590.468 2.53047 3.46794 0
M  V30 6453 C 589.701 2.40927 4.76224 0
M  V30 6454 O 589.924 1.42978 5.5219 0
M  V30 6455 O 588.858 3.30543 5.03016 0
M  V30 6456 H 592.684 2.41139 1.84624 0
M  V30 6457 H 590.269 1.22504 0.855167 0
M  V30 6458 H 592.151 1.27092 4.01778 0
M  V30 6459 H 590.826 0.385469 3.21397 0
M  V30 6460 H 589.733 2.6346 2.65593 0
M  V30 6461 H 591.066 3.45231 3.50822 0
M  V30 6462 N 592.718 -0.936591 1.26751 0
M  V30 6463 C 593.966 -1.67998 1.12343 0
M  V30 6464 C 594.287 -1.92137 -0.332938 0
M  V30 6465 O 593.557 -1.52132 -1.23421 0
M  V30 6466 H 592.137 -0.622609 0.412756 0
M  V30 6467 H 594.799 -1.12509 1.59147 0
M  V30 6468 H 593.895 -2.65185 1.64571 0
M  V30 6469 N 594.196 -1.08629 -1.14182 0
M  V30 6470 C 595.159 -0.722027 -2.1753 0
M  V30 6471 C 596.159 0.244305 -1.58933 0
M  V30 6472 O 597.349 0.0235545 -1.74184 0
M  V30 6473 C 594.481 -0.0663966 -3.40835 0
M  V30 6474 H 595.674 -1.63719 -2.51269 0
M  V30 6475 H 593.227 -0.884442 -1.28869 0
M  V30 6476 H 593.962 0.860389 -3.12678 0
M  V30 6477 H 593.747 -0.761598 -3.84632 0
M  V30 6478 H 595.237 0.173346 -4.1724 0
M  V30 6479 N 595.674 1.31259 -0.872281 0
M  V30 6480 C 596.621 2.28459 -0.327857 0
M  V30 6481 C 597.591 1.55831 0.574957 0
M  V30 6482 O 598.776 1.83965 0.506101 0
M  V30 6483 C 595.916 3.41985 0.462644 0
M  V30 6484 C 595.029 4.29458 -0.467949 0
M  V30 6485 C 594.164 5.30131 0.336903 0
M  V30 6486 C 593.203 6.0925 -0.58997 0
M  V30 6487 N 592.34 7.01872 0.178775 0
M  V30 6488 H 597.18 2.74414 -1.16193 0
M  V30 6489 H 594.717 1.34994 -0.584376 0
M  V30 6490 H 596.675 4.06547 0.936759 0
M  V30 6491 H 595.305 2.97134 1.2614 0
M  V30 6492 H 594.357 3.65318 -1.06052 0
M  V30 6493 H 595.669 4.84677 -1.17856 0
M  V30 6494 H 594.823 6.0038 0.873427 0
M  V30 6495 H 593.562 4.75573 1.08079 0
M  V30 6496 H 592.567 5.37889 -1.13823 0
M  V30 6497 H 593.792 6.65894 -1.33275 0
M  V30 6498 H 591.738 6.49721 0.905435 0
M  V30 6499 H 591.655 7.54522 -0.472452 0
M  V30 6500 H 592.923 7.76382 0.696454 0
M  V30 6501 N 597.152 0.631951 1.44375 0
M  V30 6502 C 598.399 0.136767 2.02038 0
M  V30 6503 C 598.727 -1.24168 1.49709 0
M  V30 6504 O 597.982 -1.83809 0.671763 0
M  V30 6505 C 598.281 0.0735861 3.57324 0
M  V30 6506 C 597.947 1.39092 4.28911 0
M  V30 6507 C 596.609 1.75171 4.48184 0
M  V30 6508 C 598.961 2.26042 4.69632 0
M  V30 6509 C 596.289 2.97907 5.05439 0
M  V30 6510 C 598.641 3.4805 5.28246 0
M  V30 6511 C 597.305 3.84351 5.45738 0
M  V30 6512 H 596.575 0.0500466 0.739308 0
M  V30 6513 H 599.222 0.818429 1.7313 0
M  V30 6514 H 597.527 -0.691449 3.8565 0
M  V30 6515 H 599.224 -0.326091 3.99672 0
M  V30 6516 H 595.814 1.10015 4.1424 0
M  V30 6517 H 599.998 1.99463 4.54454 0
M  V30 6518 H 595.254 3.26108 5.17169 0
M  V30 6519 H 599.428 4.15658 5.5875 0
M  V30 6520 H 597.055 4.79538 5.8987 0
M  V30 6521 N 598.631 -1.53133 0.372548 0
M  V30 6522 C 600.042 -1.86404 -0.105155 0
M  V30 6523 C 600.393 -1.29289 -1.47576 0
M  V30 6524 O 599.518 -0.617646 -2.07398 0
M  V30 6525 C 600.113 -3.38223 -0.197588 0
M  V30 6526 C 598.672 -3.71266 -0.619556 0
M  V30 6527 C 597.819 -2.76353 0.228919 0
M  V30 6528 H 600.77 -1.47282 0.591077 0
M  V30 6529 H 600.791 -3.66577 -1.01987 0
M  V30 6530 H 600.303 -3.79763 0.800099 0
M  V30 6531 H 598.404 -3.35287 -1.62522 0
M  V30 6532 H 598.517 -4.77515 -0.389332 0
M  V30 6533 H 596.881 -2.52888 -0.303271 0
M  V30 6534 H 597.664 -3.20728 1.22428 0
M  V30 6535 N 600.109 -0.101901 -1.5727 0
M  V30 6536 C 601.358 0.559922 -1.93772 0
M  V30 6537 C 601.671 1.68913 -0.98629 0
M  V30 6538 O 602.877 2.41256 -1.24529 0
M  V30 6539 C 601.333 1.04739 -3.44322 0
M  V30 6540 C 600.941 -0.05243 -4.47969 0
M  V30 6541 C 602.685 1.68157 -3.89774 0
M  V30 6542 C 600.592 0.450781 -5.8968 0
M  V30 6543 H 599.522 0.212931 -0.723309 0
M  V30 6544 H 602.173 -0.179001 -1.82625 0
M  V30 6545 H 600.555 1.84021 -3.50645 0
M  V30 6546 H 601.729 -0.828157 -4.53297 0
M  V30 6547 H 600.044 -0.592202 -4.12167 0
M  V30 6548 H 602.641 2.0689 -4.93052 0
M  V30 6549 H 602.984 2.55338 -3.28798 0
M  V30 6550 H 603.517 0.954453 -3.8618 0
M  V30 6551 H 600.256 -0.38458 -6.54371 0
M  V30 6552 H 599.776 1.19336 -5.87809 0
M  V30 6553 H 601.455 0.917555 -6.40461 0
M  V30 6554 N 601.587 1.56661 0.17182 0
M  V30 6555 C 602.534 1.96371 1.21273 0
M  V30 6556 C 603.504 0.82756 1.44016 0
M  V30 6557 O 604.689 1.08764 1.56764 0
M  V30 6558 C 601.829 2.32838 2.54716 0
M  V30 6559 C 600.942 3.59628 2.39356 0
M  V30 6560 C 600.077 3.85311 3.65662 0
M  V30 6561 C 599.116 5.0545 3.45234 0
M  V30 6562 N 598.253 5.27268 4.63608 0
M  V30 6563 H 603.093 2.85106 0.86709 0
M  V30 6564 H 600.63 1.41073 0.416744 0
M  V30 6565 H 602.588 2.52004 3.3249 0
M  V30 6566 H 601.218 1.47214 2.87277 0
M  V30 6567 H 600.27 3.4838 1.52761 0
M  V30 6568 H 601.582 4.4756 2.20207 0
M  V30 6569 H 600.736 4.04841 4.51872 0
M  V30 6570 H 599.475 2.95753 3.8779 0
M  V30 6571 H 598.48 4.85819 2.5741 0
M  V30 6572 H 599.705 5.96538 3.24529 0
M  V30 6573 H 597.651 4.40662 4.85956 0
M  V30 6574 H 597.568 6.09422 4.4737 0
M  V30 6575 H 598.836 5.51277 5.51103 0
M  V30 6576 N 603.065 -0.440357 1.51323 0
M  V30 6577 C 604.311 -1.18874 1.65047 0
M  V30 6578 C 604.666 -1.88988 0.360742 0
M  V30 6579 O 603.959 -1.80479 -0.643272 0
M  V30 6580 C 604.153 -2.2339 2.78984 0
M  V30 6581 C 603.982 -1.63534 4.18911 0
M  V30 6582 C 602.752 -1.42158 4.84891 0
M  V30 6583 C 604.95 -1.11324 5.02107 0
M  V30 6584 N 602.932 -0.778679 6.08942 0
M  V30 6585 C 604.303 -0.595421 6.17134 0
M  V30 6586 C 606.358 -1.00471 4.87658 0
M  V30 6587 C 605.061 0.0202557 7.19297 0
M  V30 6588 C 607.087 -0.402928 5.90026 0
M  V30 6589 C 606.449 0.10436 7.04323 0
M  V30 6590 H 602.548 -0.422771 0.657866 0
M  V30 6591 H 605.132 -0.485814 1.88542 0
M  V30 6592 H 603.303 -2.91074 2.57158 0
M  V30 6593 H 605.035 -2.90366 2.81904 0
M  V30 6594 H 601.79 -1.68247 4.42707 0
M  V30 6595 H 602.214 -0.474755 6.75333 0
M  V30 6596 H 606.856 -1.38278 3.99548 0
M  V30 6597 H 604.574 0.410468 8.07057 0
M  V30 6598 H 608.16 -0.320897 5.80914 0
M  V30 6599 H 607.04 0.562697 7.82179 0
M  V30 6600 N 604.543 -1.41418 -0.695603 0
M  V30 6601 C 605.771 -1.4413 -1.48439 0
M  V30 6602 C 606.186 -0.0465698 -1.88743 0
M  V30 6603 O 605.543 0.934117 -1.56782 0
M  V30 6604 C 605.594 -2.34998 -2.74696 0
M  V30 6605 O 605.315 -3.69043 -2.36091 0
M  V30 6606 C 606.816 -2.46513 -3.68438 0
M  V30 6607 H 604.036 -0.490905 -0.457442 0
M  V30 6608 H 606.58 -1.85702 -0.856454 0
M  V30 6609 H 604.735 -1.96735 -3.33728 0
M  V30 6610 H 605.149 -4.17505 -3.17474 0
M  V30 6611 H 606.623 -3.1426 -4.53811 0
M  V30 6612 H 607.1 -1.49638 -4.12922 0
M  V30 6613 H 607.706 -2.85412 -3.1531 0
M  V30 6614 N 606.021 0.929856 -1.27246 0
M  V30 6615 C 606.984 2.01172 -1.09829 0
M  V30 6616 C 607.984 1.60743 -0.0429687 0
M  V30 6617 O 609.174 1.71813 -0.287373 0
M  V30 6618 C 606.306 3.34191 -0.673003 0
M  V30 6619 H 607.499 2.18054 -2.05895 0
M  V30 6620 H 605.052 1.11036 -1.10003 0
M  V30 6621 H 605.787 3.23009 0.289134 0
M  V30 6622 H 605.572 3.64892 -1.43515 0
M  V30 6623 H 607.062 4.13646 -0.573323 0
M  V30 6624 N 607.499 1.09233 1.13605 0
M  V30 6625 C 608.91 0.846839 1.6639 0
M  V30 6626 C 609.261 -0.625031 1.85978 0
M  V30 6627 O 608.386 -1.48173 1.57714 0
M  V30 6628 C 608.981 1.5307 3.0225 0
M  V30 6629 C 607.54 1.33223 3.52035 0
M  V30 6630 C 606.687 1.58806 2.27323 0
M  V30 6631 H 609.638 1.25175 0.975541 0
M  V30 6632 H 609.659 0.96267 3.68121 0
M  V30 6633 H 609.171 2.60192 2.87961 0
M  V30 6634 H 607.272 0.282091 3.71531 0
M  V30 6635 H 607.385 2.0657 4.32279 0
M  V30 6636 H 605.749 1.01007 2.33815 0
M  V30 6637 H 606.532 2.67153 2.15602 0
M  V30 6638 N 608.977 -1.30795 0.87923 0
M  V30 6639 C 609.887 -2.32041 0.345565 0
M  V30 6640 C 610.903 -1.65103 -0.549265 0
M  V30 6641 O 612.079 -1.9645 -0.443763 0
M  V30 6642 C 609.144 -3.43944 -0.436245 0
M  V30 6643 C 608.205 -4.26521 0.48765 0
M  V30 6644 C 607.438 -5.33081 -0.256943 0
M  V30 6645 O 607.661 -5.50762 -1.48381 0
M  V30 6646 O 606.595 -6.00635 0.389985 0
M  V30 6647 H 610.421 -2.79627 1.18501 0
M  V30 6648 H 608.006 -1.3486 0.642885 0
M  V30 6649 H 609.888 -4.12128 -0.879119 0
M  V30 6650 H 608.563 -2.98504 -1.25208 0
M  V30 6651 H 607.47 -3.61057 0.979216 0
M  V30 6652 H 608.803 -4.75551 1.26933 0
M  V30 6653 N 610.455 -0.639598 -1.44038 0
M  V30 6654 C 611.418 0.0506628 -2.29144 0
M  V30 6655 C 612.418 0.764001 -1.41491 0
M  V30 6656 O 613.608 0.607309 -1.63271 0
M  V30 6657 C 610.74 1.0824 -3.2326 0
M  V30 6658 H 611.933 -0.697987 -2.91664 0
M  V30 6659 H 609.486 -0.400146 -1.51091 0
M  V30 6660 H 610.221 1.86075 -2.65606 0
M  V30 6661 H 610.006 0.574725 -3.87865 0
M  V30 6662 H 611.496 1.56487 -3.87171 0
M  V30 6663 N 611.933 1.52934 -0.380664 0
M  V30 6664 C 613.182 2.00651 0.205477 0
M  V30 6665 C 613.495 1.27164 1.48623 0
M  V30 6666 O 614.701 1.65547 2.15189 0
M  V30 6667 C 613.157 3.57479 0.416726 0
M  V30 6668 C 612.765 4.39857 -0.850268 0
M  V30 6669 C 614.509 4.13509 0.959702 0
M  V30 6670 C 612.416 5.88269 -0.607773 0
M  V30 6671 H 611.346 0.749684 0.0805614 0
M  V30 6672 H 613.997 1.76508 -0.501732 0
M  V30 6673 H 612.379 3.77836 1.18557 0
M  V30 6674 H 613.553 4.31269 -1.62307 0
M  V30 6675 H 611.868 3.95005 -1.31756 0
M  V30 6676 H 614.465 5.22039 1.15669 0
M  V30 6677 H 614.808 3.69054 1.92626 0
M  V30 6678 H 615.341 3.9701 0.250645 0
M  V30 6679 H 612.08 6.3703 -1.54509 0
M  V30 6680 H 611.6 5.99667 0.126247 0
M  V30 6681 H 613.279 6.46558 -0.239014 0
M  V30 6682 N 613.412 0.11024 1.57214 0
M  V30 6683 C 614.36 -0.860586 2.16094 0
M  V30 6684 C 615.354 -1.28156 1.1078 0
M  V30 6685 O 616.56 -1.25433 1.29099 0
M  V30 6686 H 612.935 -0.295606 0.691463 0
M  V30 6687 H 614.906 -0.33942 2.96463 0
M  V30 6688 C 613.655 -2.10421 2.768 0
M  V30 6689 H 612.978 -1.7892 3.5753 0
M  V30 6690 H 614.418 -2.76375 3.21547 0
M  V30 6691 C 612.877 -2.88823 1.73444 0
M  V30 6692 O 613.407 -3.839 1.18251 0
M  V30 6693 N 611.613 -2.52649 1.43586 0
M  V30 6694 H 611.16 -1.754 1.8866 0
M  V30 6695 H 611.118 -3.05403 0.746735 0
M  V30 6696 N 614.89 -1.56749 -0.16351 0
M  V30 6697 C 616.137 -1.82434 -0.878866 0
M  V30 6698 C 616.465 -0.688557 -1.81904 0
M  V30 6699 O 615.72 0.323644 -1.93005 0
M  V30 6700 C 616.019 -3.14342 -1.70071 0
M  V30 6701 C 615.685 -4.41647 -0.908775 0
M  V30 6702 C 614.347 -4.76224 -0.690236 0
M  V30 6703 C 616.699 -5.19998 -0.353815 0
M  V30 6704 C 614.027 -5.86624 0.0942374 0
M  V30 6705 C 616.379 -6.3122 0.41761 0
M  V30 6706 C 615.043 -6.64358 0.646879 0
M  V30 6707 H 614.313 -0.667574 -0.3216 0
M  V30 6708 H 616.96 -1.90963 -0.14337 0
M  V30 6709 H 615.265 -3.0119 -2.50583 0
M  V30 6710 H 616.962 -3.31426 -2.25738 0
M  V30 6711 H 613.552 -4.1453 -1.08916 0
M  V30 6712 H 617.736 -4.93673 -0.509975 0
M  V30 6713 H 612.992 -6.10751 0.281529 0
M  V30 6714 H 617.166 -6.91133 0.854849 0
M  V30 6715 H 614.793 -7.49742 1.25662 0
M  V30 6716 N 616.368 0.432326 -1.51554 0
M  V30 6717 C 617.616 1.17901 -1.64146 0
M  V30 6718 C 617.937 1.91604 -0.362367 0
M  V30 6719 O 617.207 1.85764 0.621968 0
M  V30 6720 H 615.787 0.438206 -0.604966 0
M  V30 6721 H 618.449 0.495172 -1.88505 0
M  V30 6722 H 617.545 1.90584 -2.47152 0
M  V30 6723 N 617.846 1.41785 0.688094 0
M  V30 6724 C 619.086 1.43018 1.46032 0
M  V30 6725 C 619.45 0.0402632 1.91958 0
M  V30 6726 O 620.651 -0.0726425 2.68702 0
M  V30 6727 C 618.922 2.4151 2.63453 0
M  V30 6728 S 620.481 2.61335 3.5249 0
M  V30 6729 H 617.299 0.506546 0.498931 0
M  V30 6730 H 619.901 1.78283 0.80221 0
M  V30 6731 H 618.605 3.41286 2.27929 0
M  V30 6732 H 618.136 2.07624 3.34149 0
M  V30 6733 H 620.151 1.88637 4.58945 0
M  V30 6734 N 619.324 -0.923095 1.27737 0
M  V30 6735 C 620.571 -1.67127 1.14345 0
M  V30 6736 C 620.899 -1.92017 -0.30982 0
M  V30 6737 O 620.154 -1.51185 -1.24264 0
M  V30 6738 C 620.453 -3.04125 1.8773 0
M  V30 6739 C 620.119 -2.98929 3.37568 0
M  V30 6740 C 618.781 -2.9722 3.78436 0
M  V30 6741 C 621.133 -2.89875 4.33154 0
M  V30 6742 C 618.461 -2.84244 5.13247 0
M  V30 6743 C 620.813 -2.7844 5.68026 0
M  V30 6744 C 619.477 -2.75083 6.08182 0
M  V30 6745 H 618.747 -0.611562 0.418417 0
M  V30 6746 H 621.394 -1.07618 1.584 0
M  V30 6747 H 619.699 -3.67366 1.36196 0
M  V30 6748 H 621.396 -3.609 1.74792 0
M  V30 6749 H 617.986 -3.0105 3.05069 0
M  V30 6750 H 622.17 -2.9029 4.02548 0
M  V30 6751 H 617.426 -2.80034 5.43499 0
M  V30 6752 H 621.6 -2.70401 6.4176 0
M  V30 6753 H 619.227 -2.64786 7.12596 0
M  V30 6754 N 620.802 -1.09834 -1.13024 0
M  V30 6755 C 622.03 -0.858902 -1.8823 0
M  V30 6756 C 622.445 0.590164 -1.79339 0
M  V30 6757 O 621.802 1.4065 -1.16292 0
M  V30 6758 C 621.853 -1.29066 -3.37675 0
M  V30 6759 O 621.574 -2.6829 -3.46341 0
M  V30 6760 C 623.075 -1.08421 -4.29837 0
M  V30 6761 H 620.295 -0.308713 -0.595766 0
M  V30 6762 H 622.839 -1.4614 -1.4305 0
M  V30 6763 H 620.994 -0.731961 -3.80422 0
M  V30 6764 H 621.408 -2.86598 -4.39274 0
M  V30 6765 H 622.882 -1.43553 -5.33007 0
M  V30 6766 H 623.359 -0.0223315 -4.39194 0
M  V30 6767 H 623.965 -1.62907 -3.92863 0
M  V30 6768 N 622.28 1.30327 -0.886154 0
M  V30 6769 C 623.529 1.95373 -0.501243 0
M  V30 6770 C 623.842 1.70722 0.954634 0
M  V30 6771 O 625.048 2.29761 1.44644 0
M  V30 6772 C 623.504 3.49828 -0.845493 0
M  V30 6773 C 623.112 3.83296 -2.31922 0
M  V30 6774 C 624.856 4.2118 -0.529838 0
M  V30 6775 C 622.763 5.30935 -2.60504 0
M  V30 6776 H 621.693 0.731274 -0.183722 0
M  V30 6777 H 624.344 1.48258 -1.08129 0
M  V30 6778 H 622.726 3.95522 -0.19452 0
M  V30 6779 H 623.9 3.48508 -3.01461 0
M  V30 6780 H 622.215 3.2505 -2.60253 0
M  V30 6781 H 624.812 5.29825 -0.720401 0
M  V30 6782 H 625.155 4.12902 0.530828 0
M  V30 6783 H 625.688 3.81173 -1.13806 0
M  V30 6784 H 622.427 5.44265 -3.65316 0
M  V30 6785 H 621.947 5.67019 -1.95575 0
M  V30 6786 H 623.626 5.98381 -2.46066 0
M  V30 6787 N 623.758 0.647228 1.43697 0
M  V30 6788 C 624.705 -0.0480092 2.3075 0
M  V30 6789 C 625.675 -0.820705 1.44408 0
M  V30 6790 O 626.86 -0.798515 1.73287 0
M  V30 6791 C 624 -1.01259 3.2991 0
M  V30 6792 C 623.113 -0.236629 4.31351 0
M  V30 6793 C 622.248 -1.19447 5.17596 0
M  V30 6794 C 621.287 -0.408595 6.10735 0
M  V30 6795 N 620.424 -1.31772 6.89623 0
M  V30 6796 H 625.264 0.700238 2.89656 0
M  V30 6797 H 622.801 0.357082 1.427 0
M  V30 6798 H 624.759 -1.58538 3.85903 0
M  V30 6799 H 623.389 -1.72778 2.72667 0
M  V30 6800 H 622.441 0.452353 3.77701 0
M  V30 6801 H 623.753 0.374731 4.9739 0
M  V30 6802 H 622.907 -1.83809 5.78186 0
M  V30 6803 H 621.646 -1.83975 4.51669 0
M  V30 6804 H 620.651 0.24841 5.49239 0
M  V30 6805 H 621.876 0.232188 6.78703 0
M  V30 6806 H 619.822 -1.94991 6.2635 0
M  V30 6807 H 619.739 -0.760779 7.52162 0
M  V30 6808 H 621.007 -1.94967 7.54724 0
M  V30 6809 N 625.236 -1.5273 0.388769 0
M  V30 6810 C 626.461 -2.0647 -0.19621 0
M  V30 6811 C 626.886 -1.25865 -1.39784 0
M  V30 6812 O 626.244 -0.283562 -1.79069 0
M  V30 6813 C 626.292 -3.56456 -0.5451 0
M  V30 6814 O 625.396 -3.78426 -1.63912 0
M  V30 6815 H 624.737 -0.663599 -0.023067 0
M  V30 6816 H 627.267 -1.96898 0.556084 0
M  V30 6817 H 627.277 -3.99888 -0.809557 0
M  V30 6818 H 625.952 -4.14561 0.333417 0
M  V30 6819 H 624.529 -3.46884 -1.36842 0
M  V30 6820 N 626.714 -0.118576 -1.57153 0
M  V30 6821 C 627.991 0.583062 -1.86708 0
M  V30 6822 C 628.371 1.84841 -1.01967 0
M  V30 6823 O 627.719 2.28288 -0.0984673 0
M  V30 6824 C 627.929 0.875912 -3.3783 0
M  V30 6825 C 629.277 1.22916 -4.0642 0
M  V30 6826 O 630.301 0.966188 -3.42846 0
M  V30 6827 O 629.16 1.72269 -5.18638 0
M  V30 6828 H 626.254 0.294185 -0.772906 0
M  V30 6829 H 628.8 -0.153048 -1.69008 0
M  V30 6830 H 627.572 -0.0207776 -3.91294 0
M  V30 6831 H 627.195 1.66719 -3.60958 0
M  V30 6832 N 628.193 1.56834 0.155195 0
M  V30 6833 C 629.439 1.83169 0.870467 0
M  V30 6834 C 629.772 0.698929 1.81187 0
M  V30 6835 O 629.047 -0.298035 1.92203 0
M  V30 6836 C 629.33 3.19965 1.65211 0
M  V30 6837 C 629.183 4.43792 0.732744 0
M  V30 6838 C 630.502 3.53885 2.61636 0
M  V30 6839 H 627.621 0.666288 0.315006 0
M  V30 6840 H 630.263 1.89513 0.135988 0
M  V30 6841 H 628.413 3.14687 2.27825 0
M  V30 6842 H 630.085 4.61148 0.118236 0
M  V30 6843 H 628.328 4.3378 0.0417906 0
M  V30 6844 H 628.999 5.36095 1.31552 0
M  V30 6845 H 631.475 3.5972 2.09143 0
M  V30 6846 H 630.351 4.50648 3.13381 0
M  V30 6847 H 630.612 2.79418 3.42605 0
M  V30 6848 N 629.671 -0.424282 1.51781 0
M  V30 6849 C 630.917 -1.17117 1.66298 0
M  V30 6850 C 631.272 -1.88595 0.380767 0
M  V30 6851 O 630.565 -1.81151 -0.624094 0
M  V30 6852 C 630.759 -2.20418 2.81337 0
M  V30 6853 C 630.588 -1.59081 4.20622 0
M  V30 6854 C 629.358 -1.37007 4.86371 0
M  V30 6855 C 631.556 -1.05992 5.0326 0
M  V30 6856 N 629.538 -0.714049 6.09733 0
M  V30 6857 C 630.909 -0.529933 6.17731 0
M  V30 6858 C 632.964 -0.952927 4.88696 0
M  V30 6859 C 631.667 0.0965457 7.19235 0
M  V30 6860 C 633.693 -0.340325 5.9042 0
M  V30 6861 C 633.055 0.179057 7.04172 0
M  V30 6862 H 629.154 -0.41577 0.662314 0
M  V30 6863 H 631.738 -0.46579 1.89046 0
M  V30 6864 H 629.909 -2.8833 2.60231 0
M  V30 6865 H 631.641 -2.8736 2.84968 0
M  V30 6866 H 628.396 -1.63543 4.44467 0
M  V30 6867 H 628.82 -0.403101 6.75799 0
M  V30 6868 H 633.462 -1.34033 4.00993 0
M  V30 6869 H 631.18 0.496044 8.06576 0
M  V30 6870 H 634.766 -0.259266 5.81222 0
M  V30 6871 H 633.646 0.645626 7.81538 0
M  V30 6872 N 631.149 -1.42148 -0.680565 0
M  V30 6873 C 632.374 -1.45901 -1.47403 0
M  V30 6874 C 632.799 -0.0700985 -1.87969 0
M  V30 6875 O 632.157 0.930145 -1.55621 0
M  V30 6876 C 632.205 -2.38661 -2.70321 0
M  V30 6877 O 631.309 -1.85399 -3.68376 0
M  V30 6878 H 630.65 -0.494565 -0.443059 0
M  V30 6879 H 633.18 -1.86774 -0.835251 0
M  V30 6880 H 633.19 -2.55046 -3.18458 0
M  V30 6881 H 631.865 -3.39571 -2.40134 0
M  V30 6882 H 630.442 -1.78541 -3.2738 0
M  V30 6883 N 632.627 0.916307 -1.28225 0
M  V30 6884 C 633.874 1.66518 -1.1523 0
M  V30 6885 C 634.202 1.92178 0.299632 0
M  V30 6886 O 633.457 1.51842 1.2346 0
M  V30 6887 C 633.756 3.03125 -1.8934 0
M  V30 6888 C 633.422 2.97135 -3.39148 0
M  V30 6889 C 632.084 2.95208 -3.80007 0
M  V30 6890 C 634.436 2.87574 -4.34685 0
M  V30 6891 C 631.764 2.81518 -5.14747 0
M  V30 6892 C 634.116 2.75424 -5.69495 0
M  V30 6893 C 632.78 2.71854 -6.09632 0
M  V30 6894 H 632.05 0.609334 -0.421655 0
M  V30 6895 H 634.697 1.06776 -1.58969 0
M  V30 6896 H 633.002 3.66639 -1.38143 0
M  V30 6897 H 634.699 3.59968 -1.76704 0
M  V30 6898 H 631.289 2.99428 -3.06661 0
M  V30 6899 H 635.473 2.88152 -4.04082 0
M  V30 6900 H 630.729 2.77148 -5.44976 0
M  V30 6901 H 634.903 2.66993 -6.43185 0
M  V30 6902 H 632.53 2.61003 -7.1399 0
M  V30 6903 N 634.105 1.10431 1.1244 0
M  V30 6904 C 635.353 0.845045 1.83585 0
M  V30 6905 C 635.674 -0.631168 1.84503 0
M  V30 6906 O 634.944 -1.45825 1.30813 0
M  V30 6907 H 633.524 0.309628 0.679809 0
M  V30 6908 H 636.186 1.39458 1.36153 0
M  V30 6909 H 635.282 1.20786 2.8778 0
M  V30 6910 N 635.583 -1.29855 0.893053 0
M  V30 6911 C 636.832 -1.95104 0.511597 0
M  V30 6912 C 637.145 -1.71226 -0.945567 0
M  V30 6913 O 638.351 -2.30525 -1.43424 0
M  V30 6914 C 636.807 -3.49374 0.864034 0
M  V30 6915 C 636.415 -3.82061 2.33952 0
M  V30 6916 C 638.159 -4.20894 0.552167 0
M  V30 6917 C 636.066 -5.29546 2.63316 0
M  V30 6918 H 634.996 -0.73029 0.187597 0
M  V30 6919 H 637.647 -1.47682 1.08914 0
M  V30 6920 H 636.029 -3.95413 0.215493 0
M  V30 6921 H 637.203 -3.46904 3.03305 0
M  V30 6922 H 635.518 -3.23665 2.61973 0
M  V30 6923 H 638.115 -5.29435 0.748489 0
M  V30 6924 H 638.458 -4.13178 -0.508924 0
M  V30 6925 H 638.991 -3.80564 1.15825 0
M  V30 6926 H 635.73 -5.4232 3.68197 0
M  V30 6927 H 635.25 -5.65974 1.9858 0
M  V30 6928 H 636.929 -5.97068 2.49236 0
M  V30 6929 N 637.061 -0.65484 -1.43351 0
M  V30 6930 C 637.991 0.0221809 -2.33489 0
M  V30 6931 C 638.972 0.810272 -1.49561 0
M  V30 6932 O 640.157 0.771426 -1.78221 0
M  V30 6933 C 637.287 0.988117 -3.32947 0
M  V30 6934 C 636.241 0.310026 -4.26876 0
M  V30 6935 C 635.567 1.38752 -5.16384 0
M  V30 6936 C 636.867 -0.798589 -5.16159 0
M  V30 6937 H 638.561 -0.730571 -2.9035 0
M  V30 6938 H 636.107 -0.352773 -1.39612 0
M  V30 6939 H 638.06 1.47067 -3.94904 0
M  V30 6940 H 636.784 1.77205 -2.74346 0
M  V30 6941 H 635.443 -0.152097 -3.66284 0
M  V30 6942 H 635.091 2.16293 -4.54121 0
M  V30 6943 H 634.791 0.939051 -5.80048 0
M  V30 6944 H 636.315 1.87141 -5.81215 0
M  V30 6945 H 637.729 -0.398126 -5.71916 0
M  V30 6946 H 636.126 -1.17163 -5.88552 0
M  V30 6947 H 637.196 -1.65588 -4.55751 0
M  V30 6948 N 638.539 1.52521 -0.396863 0
M  V30 6949 C 639.469 2.29582 0.425941 0
M  V30 6950 C 640.45 1.33281 1.05689 0
M  V30 6951 O 641.635 1.62181 1.06823 0
M  V30 6952 C 638.765 3.10821 1.54943 0
M  V30 6953 C 637.719 4.15069 1.04413 0
M  V30 6954 C 637.045 4.84578 2.26028 0
M  V30 6955 C 638.345 5.22191 0.106767 0
M  V30 6956 H 640.039 2.98612 -0.217045 0
M  V30 6957 H 637.585 1.43611 -0.105826 0
M  V30 6958 H 639.538 3.63492 2.13193 0
M  V30 6959 H 638.262 2.39538 2.22011 0
M  V30 6960 H 636.921 3.63389 0.484118 0
M  V30 6961 H 636.569 4.09835 2.91623 0
M  V30 6962 H 636.269 5.55043 1.92876 0
M  V30 6963 H 637.793 5.40056 2.84906 0
M  V30 6964 H 639.207 5.70176 0.597685 0
M  V30 6965 H 637.604 5.99947 -0.135352 0
M  V30 6966 H 638.674 4.77531 -0.842134 0
M  V30 6967 N 640.017 0.126909 1.57088 0
M  V30 6968 C 641.247 -0.535892 1.99529 0
M  V30 6969 C 641.655 -1.60259 1.00566 0
M  V30 6970 O 640.998 -1.83698 -0.00843269 0
M  V30 6971 C 641.06 -1.21374 3.38391 0
M  V30 6972 C 640.724 -0.294044 4.56053 0
M  V30 6973 C 641.721 0.470454 5.17767 0
M  V30 6974 C 639.406 -0.202808 5.0189 0
M  V30 6975 C 641.4 1.31384 6.23712 0
M  V30 6976 C 639.087 0.644203 6.07695 0
M  V30 6977 C 640.085 1.40115 6.68473 0
M  V30 6978 O 639.773 2.23408 7.72233 0
M  V30 6979 H 639.505 -0.145799 0.66009 0
M  V30 6980 H 642.059 0.212441 2.04298 0
M  V30 6981 H 640.289 -2.00931 3.30399 0
M  V30 6982 H 641.978 -1.77424 3.65069 0
M  V30 6983 H 642.744 0.409884 4.83265 0
M  V30 6984 H 638.623 -0.781688 4.54324 0
M  V30 6985 H 642.167 1.90514 6.71081 0
M  V30 6986 H 638.064 0.706137 6.41626 0
M  V30 6987 H 638.832 2.16436 7.89365 0
M  V30 6988 N 641.495 -1.56914 -0.146875 0
M  V30 6989 C 642.405 -2.0154 -1.20079 0
M  V30 6990 C 643.421 -0.930838 -1.47008 0
M  V30 6991 O 644.597 -1.24032 -1.58676 0
M  V30 6992 C 641.662 -2.38715 -2.51428 0
M  V30 6993 C 640.723 -3.6112 -2.32145 0
M  V30 6994 C 639.956 -3.96512 -3.57231 0
M  V30 6995 O 640.179 -3.32566 -4.63418 0
M  V30 6996 O 639.113 -4.89758 -3.49887 0
M  V30 6997 H 642.939 -2.91506 -0.851924 0
M  V30 6998 H 640.524 -1.45106 -0.355607 0
M  V30 6999 H 642.406 -2.63485 -3.28867 0
M  V30 7000 H 641.081 -1.51903 -2.85845 0
M  V30 7001 H 639.988 -3.41536 -1.52656 0
M  V30 7002 H 641.321 -4.48549 -2.02644 0
M  V30 7003 N 642.974 0.416227 -1.52004 0
M  V30 7004 C 644.223 1.16088 -1.64944 0
M  V30 7005 C 644.536 1.91835 -0.381928 0
M  V30 7006 O 645.742 2.6867 -0.391013 0
M  V30 7007 C 644.198 2.1124 -2.91386 0
M  V30 7008 C 643.806 1.41042 -4.25219 0
M  V30 7009 C 645.55 2.86008 -3.13688 0
M  V30 7010 C 643.457 2.34801 -5.42791 0
M  V30 7011 H 642.387 0.437041 -0.61442 0
M  V30 7012 H 645.038 0.425971 -1.78487 0
M  V30 7013 H 643.42 2.88254 -2.71525 0
M  V30 7014 H 644.594 0.694416 -4.55538 0
M  V30 7015 H 642.909 0.78344 -4.08964 0
M  V30 7016 H 645.506 3.56286 -3.98703 0
M  V30 7017 H 645.849 3.48556 -2.27628 0
M  V30 7018 H 646.382 2.16095 -3.33988 0
M  V30 7019 H 643.121 1.7691 -6.31176 0
M  V30 7020 H 642.641 3.04395 -5.16821 0
M  V30 7021 H 644.32 2.9548 -5.75587 0
M  V30 7022 N 644.452 1.42507 0.673017 0
M  V30 7023 C 645.698 1.43284 1.43519 0
M  V30 7024 C 646.031 0.049668 1.94136 0
M  V30 7025 O 645.306 -0.926369 1.71022 0
M  V30 7026 C 645.589 2.45874 2.63093 0
M  V30 7027 C 645.442 3.93388 2.18096 0
M  V30 7028 C 646.761 2.45431 3.6531 0
M  V30 7029 H 643.88 0.521752 0.520522 0
M  V30 7030 H 646.522 1.73932 0.764701 0
M  V30 7031 H 644.672 2.19869 3.20296 0
M  V30 7032 H 646.344 4.30379 1.66046 0
M  V30 7033 H 644.587 4.07169 1.49652 0
M  V30 7034 H 645.258 4.60752 3.03993 0
M  V30 7035 H 647.734 2.68561 3.17827 0
M  V30 7036 H 646.61 3.19189 4.46553 0
M  V30 7037 H 646.871 1.48092 4.16559 0
M  V30 7038 N 645.93 -0.909495 1.28709 0
M  V30 7039 C 647.158 -1.69272 1.18973 0
M  V30 7040 C 647.573 -1.87123 -0.251048 0
M  V30 7041 O 646.93 -1.40127 -1.16922 0
M  V30 7042 C 646.981 -3.08257 1.88839 0
M  V30 7043 O 646.702 -2.91228 3.27289 0
M  V30 7044 C 648.203 -4.02642 1.85457 0
M  V30 7045 H 645.423 -0.528999 0.412797 0
M  V30 7046 H 647.967 -1.13803 1.69909 0
M  V30 7047 H 646.122 -3.6053 1.41762 0
M  V30 7048 H 646.536 -3.79223 3.6234 0
M  V30 7049 H 648.01 -4.97613 2.38925 0
M  V30 7050 H 648.487 -4.31327 0.827893 0
M  V30 7051 H 649.093 -3.56298 2.32233 0
M  V30 7052 N 647.408 -1.11026 -1.11852 0
M  V30 7053 C 648.638 -0.877544 -1.87037 0
M  V30 7054 C 649.046 0.575925 -1.80221 0
M  V30 7055 O 648.389 1.40916 -1.17849 0
M  V30 7056 C 648.451 -1.25529 -3.36872 0
M  V30 7057 C 648.115 -2.71704 -3.67459 0
M  V30 7058 C 649.112 -3.69931 -3.65304 0
M  V30 7059 C 646.797 -3.08243 -3.966 0
M  V30 7060 C 648.791 -5.02717 -3.9186 0
M  V30 7061 C 646.478 -4.41215 -4.22815 0
M  V30 7062 C 647.476 -5.38262 -4.20432 0
M  V30 7063 O 647.164 -6.68839 -4.45992 0
M  V30 7064 H 646.896 -0.314374 -0.598452 0
M  V30 7065 H 649.45 -1.48015 -1.42411 0
M  V30 7066 H 647.68 -0.595808 -3.82082 0
M  V30 7067 H 649.369 -0.999064 -3.93413 0
M  V30 7068 H 650.135 -3.43047 -3.42846 0
M  V30 7069 H 646.014 -2.33326 -3.97593 0
M  V30 7070 H 649.558 -5.78456 -3.89916 0
M  V30 7071 H 645.455 -4.67835 -4.44748 0
M  V30 7072 H 646.223 -6.74563 -4.63581 0
M  V30 7073 N 648.886 1.2938 -0.899927 0
M  V30 7074 C 650.134 1.95164 -0.524924 0
M  V30 7075 C 650.455 1.71292 0.931888 0
M  V30 7076 O 649.725 1.04481 1.65712 0
M  V30 7077 H 648.305 0.722133 -0.191135 0
M  V30 7078 H 650.967 1.57628 -1.14627 0
M  V30 7079 H 650.063 3.0397 -0.707711 0
M  V30 7080 N 650.364 0.662433 1.43002 0
M  V30 7081 C 651.311 -0.0235324 2.30788 0
M  V30 7082 C 652.281 -0.805342 1.4527 0
M  V30 7083 O 653.466 -0.78009 1.74124 0
M  V30 7084 C 650.606 -0.977545 3.30965 0
M  V30 7085 C 649.719 -0.190865 4.31578 0
M  V30 7086 C 648.854 -1.13951 5.18834 0
M  V30 7087 C 647.893 -0.343796 6.11134 0
M  V30 7088 N 647.03 -1.2445 6.90982 0
M  V30 7089 H 651.87 0.730921 2.88897 0
M  V30 7090 H 649.407 0.372197 1.42313 0
M  V30 7091 H 651.365 -1.54437 3.87563 0
M  V30 7092 H 649.995 -1.69877 2.74484 0
M  V30 7093 H 649.047 0.492388 3.772 0
M  V30 7094 H 650.359 0.427464 4.96965 0
M  V30 7095 H 649.513 -1.77666 5.80103 0
M  V30 7096 H 648.252 -1.79174 4.53595 0
M  V30 7097 H 647.257 0.30665 5.48944 0
M  V30 7098 H 648.482 0.304161 6.78419 0
M  V30 7099 H 646.428 -1.88336 6.28383 0
M  V30 7100 H 646.345 -0.680959 7.52927 0
M  V30 7101 H 647.613 -1.86952 7.56749 0
M  V30 7102 N 651.842 -1.52309 0.404946 0
M  V30 7103 C 653.091 -2.00952 -0.173529 0
M  V30 7104 C 653.404 -1.29512 -1.46581 0
M  V30 7105 O 654.61 -1.6895 -2.12528 0
M  V30 7106 C 653.066 -3.58097 -0.359801 0
M  V30 7107 C 652.674 -4.38449 0.920138 0
M  V30 7108 C 654.418 -4.14984 -0.893794 0
M  V30 7109 C 652.325 -5.87227 0.701285 0
M  V30 7110 H 651.255 -0.750871 -0.0686244 0
M  V30 7111 H 653.906 -1.75687 0.529749 0
M  V30 7112 H 652.288 -3.79675 -1.12531 0
M  V30 7113 H 653.462 -4.28633 1.69147 0
M  V30 7114 H 651.777 -3.92859 1.38024 0
M  V30 7115 H 654.374 -5.23813 -1.0735 0
M  V30 7116 H 654.717 -3.72072 -1.8673 0
M  V30 7117 H 655.25 -3.97358 -0.187453 0
M  V30 7118 H 651.989 -6.34491 1.64624 0
M  V30 7119 H 651.509 -5.99792 -0.0308288 0
M  V30 7120 H 653.188 -6.46096 0.341846 0
M  V30 7121 N 653.32 -0.135238 -1.57019 0
M  V30 7122 C 654.731 0.387521 -1.82634 0
M  V30 7123 C 655.082 1.65528 -1.05332 0
M  V30 7124 O 654.207 2.14381 -0.294926 0
M  V30 7125 C 654.802 0.709852 -3.3128 0
M  V30 7126 C 653.361 1.17718 -3.57518 0
M  V30 7127 C 652.508 0.194183 -2.76619 0
M  V30 7128 H 655.459 -0.360126 -1.5456 0
M  V30 7129 H 655.48 1.5657 -3.46794 0
M  V30 7130 H 654.992 -0.213024 -3.87515 0
M  V30 7131 H 653.093 2.1164 -3.06658 0
M  V30 7132 H 653.206 1.11128 -4.66034 0
M  V30 7133 H 651.57 0.684478 -2.4533 0
M  V30 7134 H 652.353 -0.722076 -3.3562 0
M  V30 7135 N 654.798 1.5699 0.138552 0
M  V30 7136 C 656.028 1.87704 0.863184 0
M  V30 7137 C 656.436 0.722411 1.74865 0
M  V30 7138 O 655.779 -0.316636 1.80951 0
M  V30 7139 C 655.841 3.13219 1.76449 0
M  V30 7140 C 655.505 4.44648 1.05532 0
M  V30 7141 C 656.502 5.18318 0.405252 0
M  V30 7142 C 654.187 4.91367 1.04231 0
M  V30 7143 C 656.181 6.36916 -0.24835 0
M  V30 7144 C 653.868 6.09887 0.384904 0
M  V30 7145 C 654.866 6.82508 -0.259292 0
M  V30 7146 O 654.554 7.98775 -0.906258 0
M  V30 7147 H 654.286 0.626255 0.254521 0
M  V30 7148 H 656.84 2.04966 0.133472 0
M  V30 7149 H 655.07 2.91988 2.53535 0
M  V30 7150 H 656.759 3.30111 2.36181 0
M  V30 7151 H 657.525 4.83289 0.407053 0
M  V30 7152 H 653.404 4.34759 1.53315 0
M  V30 7153 H 656.948 6.93538 -0.751755 0
M  V30 7154 H 652.845 6.44376 0.380799 0
M  V30 7155 H 653.613 8.14494 -0.80877 0
M  V30 7156 N 656.276 -0.40816 1.52223 0
M  V30 7157 C 657.687 -0.986929 1.58482 0
M  V30 7158 C 658.038 -1.91521 0.425917 0
M  V30 7159 O 657.163 -2.11593 -0.453593 0
M  V30 7160 C 657.758 -1.7967 2.87235 0
M  V30 7161 C 656.317 -2.32549 2.9597 0
M  V30 7162 C 655.464 -1.12558 2.53428 0
M  V30 7163 H 658.415 -0.188362 1.57578 0
M  V30 7164 H 658.436 -2.65417 2.72642 0
M  V30 7165 H 657.948 -1.12082 3.71563 0
M  V30 7166 H 656.049 -3.03505 2.16137 0
M  V30 7167 H 656.162 -2.63348 4.00231 0
M  V30 7168 H 654.526 -1.47984 2.07299 0
M  V30 7169 H 655.309 -0.465351 3.40131 0
M  V30 7170 N 657.755 -1.42862 -0.66545 0
M  V30 7171 C 659.003 -1.43546 -1.42264 0
M  V30 7172 C 659.324 -0.0563116 -1.94919 0
M  V30 7173 O 658.594 0.906568 -1.73661 0
M  V30 7174 H 657.174 -0.528464 -0.527953 0
M  V30 7175 H 659.836 -1.78363 -0.785665 0
M  V30 7176 H 658.932 -2.14079 -2.27105 0
M  V30 7177 N 659.233 0.902656 -1.29189 0
M  V30 7178 C 660.649 1.18296 -1.07137 0
M  V30 7179 C 660.849 2.00701 0.179223 0
M  V30 7180 O 659.905 2.3675 0.877812 0
M  V30 7181 C 661.218 1.90677 -2.32514 0
M  V30 7182 C 662.766 2.03515 -2.37804 0
M  V30 7183 C 663.241 2.79307 -3.62976 0
M  V30 7184 N 664.732 2.86862 -3.63681 0
M  V30 7185 C 665.467 3.46035 -4.57217 0
M  V30 7186 N 664.963 4.06399 -5.61081 0
M  V30 7187 N 666.756 3.43681 -4.44792 0
M  V30 7188 H 658.907 0.352765 -2.0945 0
M  V30 7189 H 661.17 0.21876 -0.922414 0
M  V30 7190 H 660.876 1.3756 -3.23682 0
M  V30 7191 H 660.75 2.91169 -2.39793 0
M  V30 7192 H 663.137 2.55809 -1.47125 0
M  V30 7193 H 663.218 1.02166 -2.34512 0
M  V30 7194 H 662.862 2.2769 -4.54004 0
M  V30 7195 H 662.792 3.80995 -3.63525 0
M  V30 7196 H 665.283 2.43987 -2.88581 0
M  V30 7197 H 665.596 4.49564 -6.2858 0
M  V30 7198 H 663.941 4.0487 -5.64894 0
M  V30 7199 H 667.132 2.9574 -3.62843 0
M  V30 7200 H 667.305 3.89503 -5.17872 0
M  V30 7201 N 660.711 1.11618 1.11262 0
M  V30 7202 C 661.939 0.888739 1.8684 0
M  V30 7203 C 662.354 -0.561558 1.80255 0
M  V30 7204 O 661.711 -1.38782 1.18515 0
M  V30 7205 C 661.762 1.34422 3.35579 0
M  V30 7206 O 661.483 2.73766 3.42029 0
M  V30 7207 C 662.984 1.15246 4.28058 0
M  V30 7208 H 660.204 0.318152 0.590779 0
M  V30 7209 H 662.748 1.48398 1.40707 0
M  V30 7210 H 660.903 0.79239 3.7921 0
M  V30 7211 H 661.317 2.9355 4.34659 0
M  V30 7212 H 662.791 1.52015 5.30656 0
M  V30 7213 H 663.268 0.0922007 4.39103 0
M  V30 7214 H 663.874 1.69136 3.90222 0
M  V30 7215 N 662.189 -1.289 0.906776 0
M  V30 7216 C 663.137 -2.29477 0.379873 0
M  V30 7217 C 664.131 -1.61068 -0.524747 0
M  V30 7218 O 665.337 -1.75344 -0.406765 0
M  V30 7219 H 661.712 -0.744742 0.10423 0
M  V30 7220 H 663.683 -2.71353 1.24137 0
M  V30 7221 C 662.432 -3.45713 -0.371154 0
M  V30 7222 H 661.755 -3.98551 0.315716 0
M  V30 7223 H 663.195 -4.18105 -0.704581 0
M  V30 7224 C 661.654 -2.9774 -1.57646 0
M  V30 7225 O 662.184 -2.99618 -2.67567 0
M  V30 7226 N 660.39 -2.53485 -1.42105 0
M  V30 7227 H 659.937 -2.52156 -0.526783 0
M  V30 7228 H 659.895 -2.21747 -2.22881 0
M  V30 7229 N 663.667 -0.670007 -1.42649 0
M  V30 7230 C 664.63 0.00204659 -2.292 0
M  V30 7231 C 665.63 0.733817 -1.4308 0
M  V30 7232 O 666.82 0.57254 -1.64522 0
M  V30 7233 C 663.952 1.01359 -3.25483 0
M  V30 7234 H 665.145 -0.759696 -2.90118 0
M  V30 7235 H 662.698 -0.432105 -1.50208 0
M  V30 7236 H 663.433 1.80399 -2.69493 0
M  V30 7237 H 663.218 0.492323 -3.88997 0
M  V30 7238 H 664.708 1.4824 -3.90403 0
M  V30 7239 N 665.145 1.52092 -0.413018 0
M  V30 7240 C 666.422 1.94356 0.22024 0
M  V30 7241 C 666.802 1.35017 1.62277 0
M  V30 7242 O 666.15 0.527511 2.22328 0
M  V30 7243 C 666.36 3.48289 0.222638 0
M  V30 7244 C 667.708 4.22313 0.440098 0
M  V30 7245 O 668.732 3.54919 0.301826 0
M  V30 7246 O 667.591 5.41829 0.712984 0
M  V30 7247 H 664.685 0.814536 0.14304 0
M  V30 7248 H 667.231 1.63083 -0.469242 0
M  V30 7249 H 666.003 3.83872 -0.758836 0
M  V30 7250 H 665.626 3.85934 0.956057 0
M  V30 7251 N 666.623 0.143563 1.56945 0
M  V30 7252 C 667.869 -0.50916 1.96304 0
M  V30 7253 C 668.202 -1.64741 1.0283 0
M  V30 7254 O 667.477 -1.94374 0.0700361 0
M  V30 7255 C 667.76 -1.0186 3.45393 0
M  V30 7256 C 667.613 0.117923 4.49645 0
M  V30 7257 C 668.932 -1.90151 3.96901 0
M  V30 7258 H 666.051 -0.183608 0.713763 0
M  V30 7259 H 668.693 0.224095 1.88674 0
M  V30 7260 H 666.843 -1.64345 3.52027 0
M  V30 7261 H 668.515 0.754145 4.55094 0
M  V30 7262 H 666.758 0.777568 4.26774 0
M  V30 7263 H 667.429 -0.280187 5.51288 0
M  V30 7264 H 669.905 -1.375 3.92725 0
M  V30 7265 H 668.781 -2.22707 5.0169 0
M  V30 7266 H 669.042 -2.83718 3.39052 0
M  V30 7267 N 668.101 -1.57061 -0.130224 0
M  V30 7268 C 669.034 -1.94698 -1.19029 0
M  V30 7269 C 670.012 -0.815074 -1.40696 0
M  V30 7270 O 671.196 -1.07223 -1.55034 0
M  V30 7271 C 668.323 -2.23352 -2.5462 0
M  V30 7272 C 667.369 -3.45945 -2.49448 0
M  V30 7273 S 668.202 -4.98927 -1.94505 0
M  V30 7274 C 669.358 -5.30721 -3.31792 0
M  V30 7275 H 669.591 -2.84308 -0.869272 0
M  V30 7276 H 667.124 -1.50688 -0.336531 0
M  V30 7277 H 669.082 -2.40539 -3.32643 0
M  V30 7278 H 667.743 -1.34376 -2.83905 0
M  V30 7279 H 666.936 -3.63324 -3.49302 0
M  V30 7280 H 666.538 -3.28086 -1.79543 0
M  V30 7281 H 668.83 -5.25215 -4.27966 0
M  V30 7282 H 669.773 -6.32048 -3.19251 0
M  V30 7283 H 670.181 -4.5821 -3.29703 0
M  V30 7284 N 669.579 0.400081 -1.52437 0
M  V30 7285 C 670.807 1.16768 -1.70801 0
M  V30 7286 C 671.222 1.84036 -0.421462 0
M  V30 7287 O 670.579 1.72242 0.603228 0
M  V30 7288 C 670.63 2.22403 -2.8499 0
M  V30 7289 O 670.351 1.57879 -4.08663 0
M  V30 7290 C 671.852 3.11974 -3.1494 0
M  V30 7291 H 669.072 0.350533 -0.57216 0
M  V30 7292 H 671.616 0.469534 -1.99037 0
M  V30 7293 H 669.771 2.87871 -2.59247 0
M  V30 7294 H 670.185 2.27982 -4.7236 0
M  V30 7295 H 671.659 3.82148 -3.9833 0
M  V30 7296 H 672.136 3.74858 -2.28863 0
M  V30 7297 H 672.742 2.52165 -3.42481 0
M  V30 7298 N 671.057 1.43213 0.657864 0
M  V30 7299 C 672.02 1.47687 1.75275 0
M  V30 7300 C 673.02 0.362179 1.56668 0
M  V30 7301 O 674.21 0.623734 1.62651 0
M  V30 7302 C 671.342 1.32497 3.14098 0
M  V30 7303 H 672.535 2.4519 1.7269 0
M  V30 7304 H 670.088 1.2991 0.869087 0
M  V30 7305 H 670.823 0.359831 3.22298 0
M  V30 7306 H 670.608 2.13299 3.29008 0
M  V30 7307 H 672.098 1.38549 3.93946 0
M  V30 7308 N 672.536 -0.895792 1.29666 0
M  V30 7309 C 673.466 -2.01673 1.17688 0
M  V30 7310 C 674.447 -1.69955 0.0701317 0
M  V30 7311 O 675.632 -1.9258 0.250289 0
M  V30 7312 C 672.762 -3.36568 0.856681 0
M  V30 7313 C 671.716 -3.82509 1.92017 0
M  V30 7314 C 671.042 -5.14574 1.4532 0
M  V30 7315 C 672.342 -4.02409 3.32963 0
M  V30 7316 H 674.036 -2.11953 2.11463 0
M  V30 7317 H 671.582 -1.01839 1.01807 0
M  V30 7318 H 673.535 -4.14498 0.759577 0
M  V30 7319 H 672.259 -3.26391 -0.116763 0
M  V30 7320 H 670.918 -3.068 2.00673 0
M  V30 7321 H 670.566 -5.00815 0.468325 0
M  V30 7322 H 670.266 -5.46283 2.16447 0
M  V30 7323 H 671.79 -5.9504 1.36968 0
M  V30 7324 H 673.204 -4.70808 3.27127 0
M  V30 7325 H 671.601 -4.45478 4.02082 0
M  V30 7326 H 672.671 -3.06616 3.75652 0
M  V30 7327 N 674.014 -1.12206 -1.10668 0
M  V30 7328 C 675.239 -0.898938 -1.86906 0
M  V30 7329 C 675.664 0.546346 -1.79991 0
M  V30 7330 O 675.022 1.38655 -1.1681 0
M  V30 7331 C 675.07 -1.37529 -3.33344 0
M  V30 7332 O 674.174 -0.55218 -4.08687 0
M  V30 7333 H 673.515 -0.323163 -0.580053 0
M  V30 7334 H 676.045 -1.49355 -1.39837 0
M  V30 7335 H 676.055 -1.3733 -3.84193 0
M  V30 7336 H 674.73 -2.42767 -3.37693 0
M  V30 7337 H 673.307 -0.620947 -3.67694 0
M  V30 7338 N 675.492 1.28418 -0.913599 0
M  V30 7339 C 676.424 2.26368 -0.359169 0
M  V30 7340 C 677.437 1.54858 0.502285 0
M  V30 7341 O 678.626 1.75659 0.31719 0
M  V30 7342 C 675.726 3.35112 0.50526 0
M  V30 7343 C 674.899 4.36126 -0.333648 0
M  V30 7344 C 673.958 5.24134 0.465845 0
M  V30 7345 O 672.984 5.6907 -0.121538 0
M  V30 7346 N 674.186 5.52892 1.76891 0
M  V30 7347 H 676.951 2.74579 -1.2011 0
M  V30 7348 H 674.512 1.41898 -0.779532 0
M  V30 7349 H 676.504 3.90926 1.04684 0
M  V30 7350 H 675.074 2.86611 1.2479 0
M  V30 7351 H 674.294 3.79776 -1.0566 0
M  V30 7352 H 675.582 5.00638 -0.907669 0
M  V30 7353 H 674.98 5.18217 2.26865 0
M  V30 7354 H 673.537 6.11464 2.25732 0
M  V30 7355 N 676.97 0.677563 1.42291 0
M  V30 7356 C 678.218 0.200578 2.01102 0
M  V30 7357 C 678.539 -1.19803 1.53858 0
M  V30 7358 O 677.809 -1.80496 0.761439 0
M  V30 7359 H 676.389 0.0711634 0.743603 0
M  V30 7360 H 679.051 0.874691 1.7417 0
M  V30 7361 H 678.147 0.204 3.11433 0
M  V30 7362 N 678.448 -1.51871 0.421078 0
M  V30 7363 C 679.678 -2.06057 -0.149723 0
M  V30 7364 C 680.086 -1.29002 -1.38402 0
M  V30 7365 O 679.429 -0.338385 -1.80556 0
M  V30 7366 C 679.491 -3.55216 -0.553339 0
M  V30 7367 C 679.155 -4.53408 0.571879 0
M  V30 7368 C 680.152 -4.99586 1.4391 0
M  V30 7369 C 677.837 -4.967 0.747979 0
M  V30 7370 C 679.831 -5.87711 2.46727 0
M  V30 7371 C 677.518 -5.84619 1.77944 0
M  V30 7372 C 678.516 -6.30021 2.63748 0
M  V30 7373 O 678.204 -7.16197 3.65126 0
M  V30 7374 H 677.936 -0.675744 -0.0186102 0
M  V30 7375 H 680.49 -1.96618 0.594166 0
M  V30 7376 H 678.72 -3.62381 -1.34969 0
M  V30 7377 H 680.409 -3.91992 -1.05342 0
M  V30 7378 H 681.175 -4.66846 1.31451 0
M  V30 7379 H 677.054 -4.60913 0.0897357 0
M  V30 7380 H 680.598 -6.2307 3.13734 0
M  V30 7381 H 676.495 -6.16771 1.90429 0
M  V30 7382 H 677.263 -7.34337 3.61512 0
M  V30 7383 N 679.926 -0.151884 -1.56866 0
M  V30 7384 C 681.342 0.204486 -1.58285 0
M  V30 7385 C 681.542 1.6431 -1.16639 0
M  V30 7386 O 680.598 2.37077 -0.868946 0
M  V30 7387 C 681.911 -0.0587019 -3.00643 0
M  V30 7388 C 683.459 0.00462303 -3.13 0
M  V30 7389 C 683.934 -0.231297 -4.57416 0
M  V30 7390 N 685.425 -0.178394 -4.62856 0
M  V30 7391 C 686.16 -0.335379 -5.72418 0
M  V30 7392 N 685.656 -0.550355 -6.90611 0
M  V30 7393 N 687.449 -0.272641 -5.61438 0
M  V30 7394 H 679.6 -1.09116 -1.82229 0
M  V30 7395 H 681.863 -0.432311 -0.843689 0
M  V30 7396 H 681.569 -1.05453 -3.35518 0
M  V30 7397 H 681.443 0.658508 -3.71407 0
M  V30 7398 H 683.83 0.991009 -2.77962 0
M  V30 7399 H 683.911 -0.744992 -2.44711 0
M  V30 7400 H 683.555 -1.2148 -4.93158 0
M  V30 7401 H 683.485 0.5387 -5.23837 0
M  V30 7402 H 685.976 -0.0170923 -3.77896 0
M  V30 7403 H 686.289 -0.660116 -7.69976 0
M  V30 7404 H 684.634 -0.586736 -6.92519 0
M  V30 7405 H 687.825 -0.105421 -4.67981 0
M  V30 7406 H 687.998 -0.398418 -6.46774 0
M  V30 7407 N 681.404 1.57128 0.121893 0
M  V30 7408 C 682.337 1.95327 1.17995 0
M  V30 7409 C 683.315 0.822524 1.40262 0
M  V30 7410 O 684.499 1.08044 1.54463 0
M  V30 7411 C 681.626 2.24699 2.53432 0
M  V30 7412 C 680.672 3.47263 2.4761 0
M  V30 7413 S 681.505 4.99951 1.91857 0
M  V30 7414 C 682.661 5.32473 3.28973 0
M  V30 7415 H 682.894 2.84765 0.854182 0
M  V30 7416 H 680.427 1.50864 0.328534 0
M  V30 7417 H 682.385 2.423 3.31362 0
M  V30 7418 H 681.046 1.3588 2.83188 0
M  V30 7419 H 680.239 3.65171 3.4737 0
M  V30 7420 H 679.841 3.29034 1.778 0
M  V30 7421 H 682.133 5.27478 4.25175 0
M  V30 7422 H 683.076 6.33732 3.15895 0
M  V30 7423 H 683.484 4.59952 3.27268 0
M  V30 7424 N 682.882 -0.391992 1.52647 0
M  V30 7425 C 684.293 -0.970064 1.5952 0
M  V30 7426 C 684.644 -1.91059 0.446207 0
M  V30 7427 O 683.769 -2.12062 -0.431125 0
M  V30 7428 C 684.364 -1.76614 2.89125 0
M  V30 7429 C 682.923 -2.29396 2.9842 0
M  V30 7430 C 682.07 -1.09864 2.54608 0
M  V30 7431 H 685.021 -0.171638 1.57769 0
M  V30 7432 H 685.042 -2.62511 2.75442 0
M  V30 7433 H 684.554 -1.08135 3.72731 0
M  V30 7434 H 682.655 -3.01196 2.19344 0
M  V30 7435 H 682.768 -2.59088 4.03002 0
M  V30 7436 H 681.132 -1.45777 2.08857 0
M  V30 7437 H 681.915 -0.429249 3.40606 0
M  V30 7438 N 684.36 -1.4356 -0.65026 0
M  V30 7439 C 685.776 -1.27025 -0.966269 0
M  V30 7440 C 685.976 -0.192117 -2.00582 0
M  V30 7441 O 685.032 0.428459 -2.48838 0
M  V30 7442 C 686.345 -2.63556 -1.44772 0
M  V30 7443 C 687.893 -2.71111 -1.56421 0
M  V30 7444 C 688.368 -4.08067 -2.07956 0
M  V30 7445 N 689.859 -4.10146 -2.15254 0
M  V30 7446 C 690.594 -5.12952 -2.56258 0
M  V30 7447 N 690.09 -6.26129 -2.96537 0
M  V30 7448 N 691.883 -5.00306 -2.56224 0
M  V30 7449 H 684.034 -2.12367 0.0375758 0
M  V30 7450 H 686.297 -0.946894 -0.0457782 0
M  V30 7451 H 686.003 -3.43429 -0.758271 0
M  V30 7452 H 685.877 -2.89152 -2.42221 0
M  V30 7453 H 688.264 -1.91569 -2.24467 0
M  V30 7454 H 688.345 -2.49277 -0.573967 0
M  V30 7455 H 687.989 -4.88077 -1.40511 0
M  V30 7456 H 687.919 -4.27266 -3.07817 0
M  V30 7457 H 690.41 -3.28453 -1.86887 0
M  V30 7458 H 690.723 -7.00403 -3.26582 0
M  V30 7459 H 689.068 -6.29597 -2.94334 0
M  V30 7460 H 692.259 -4.10952 -2.24135 0
M  V30 7461 H 692.432 -5.80553 -2.87857 0
M  V30 7462 N 685.838 0.888903 -1.30139 0
M  V30 7463 C 687.084 1.6428 -1.18912 0
M  V30 7464 C 687.417 1.92499 0.256477 0
M  V30 7465 O 686.692 1.54312 1.18397 0
M  V30 7466 C 686.975 2.9851 -2.01405 0
M  V30 7467 C 686.828 2.77288 -3.54163 0
M  V30 7468 C 688.147 3.99383 -1.84882 0
M  V30 7469 H 685.266 0.596148 -0.433333 0
M  V30 7470 H 687.908 1.0289 -1.5973 0
M  V30 7471 H 686.058 3.50907 -1.66722 0
M  V30 7472 H 687.73 2.31709 -3.98884 0
M  V30 7473 H 685.973 2.11867 -3.78543 0
M  V30 7474 H 686.644 3.72717 -4.07168 0
M  V30 7475 H 689.12 3.56132 -2.15196 0
M  V30 7476 H 687.996 4.91222 -2.44934 0
M  V30 7477 H 688.257 4.34674 -0.806902 0
M  V30 7478 N 687.317 1.12792 1.10072 0
M  V30 7479 C 688.227 0.812369 2.20086 0
M  V30 7480 C 689.243 -0.200349 1.72843 0
M  V30 7481 O 690.419 -0.0330262 2.01373 0
M  V30 7482 C 687.484 0.275685 3.45602 0
M  V30 7483 C 686.545 1.34881 4.07561 0
M  V30 7484 C 685.778 0.837639 5.27086 0
M  V30 7485 O 686.001 -0.327224 5.69461 0
M  V30 7486 O 684.935 1.60894 5.79997 0
M  V30 7487 H 688.761 1.73133 2.49517 0
M  V30 7488 H 686.346 0.904863 1.18881 0
M  V30 7489 H 688.228 -0.0185375 4.21396 0
M  V30 7490 H 686.903 -0.615783 3.17789 0
M  V30 7491 H 685.81 1.69625 3.33434 0
M  V30 7492 H 687.143 2.21418 4.39585 0
M  V30 7493 N 688.795 -1.27931 0.920396 0
M  V30 7494 C 689.743 -2.29061 0.404191 0
M  V30 7495 C 690.737 -1.61615 -0.507634 0
M  V30 7496 O 691.943 -1.75765 -0.388144 0
M  V30 7497 H 688.318 -0.743594 0.112123 0
M  V30 7498 H 690.289 -2.70021 1.27008 0
M  V30 7499 C 689.038 -3.46088 -0.334466 0
M  V30 7500 H 688.361 -3.98194 0.35797 0
M  V30 7501 H 689.801 -4.18829 -0.660196 0
M  V30 7502 C 688.26 -2.99396 -1.54479 0
M  V30 7503 O 688.79 -3.02439 -2.64374 0
M  V30 7504 N 686.996 -2.54978 -1.39408 0
M  V30 7505 H 686.543 -2.52701 -0.500009 0
M  V30 7506 H 686.501 -2.24098 -2.20516 0
M  V30 7507 N 690.273 -0.685099 -1.4193 0
M  V30 7508 C 691.513 -0.215676 -2.03259 0
M  V30 7509 C 691.877 1.15934 -1.53047 0
M  V30 7510 O 693.078 1.72401 -2.06231 0
M  V30 7511 C 691.349 -0.259649 -3.56456 0
M  V30 7512 S 692.908 0.137262 -4.38585 0
M  V30 7513 H 689.726 -0.0877362 -0.705566 0
M  V30 7514 H 692.328 -0.900547 -1.73523 0
M  V30 7515 H 691.032 -1.26256 -3.90497 0
M  V30 7516 H 690.563 0.444716 -3.90878 0
M  V30 7517 H 692.578 1.36787 -4.76973 0
M  V30 7518 N 691.751 1.51645 -0.429126 0
M  V30 7519 C 693.162 1.86665 0.0359003 0
M  V30 7520 C 693.513 1.34677 1.42676 0
M  V30 7521 O 692.638 0.694195 2.04963 0
M  V30 7522 C 693.233 3.38724 0.0719221 0
M  V30 7523 C 691.792 3.7331 0.481336 0
M  V30 7524 C 690.939 2.75313 -0.331329 0
M  V30 7525 H 693.89 1.44987 -0.645333 0
M  V30 7526 H 693.911 3.7011 0.883118 0
M  V30 7527 H 693.423 3.76532 -0.940495 0
M  V30 7528 H 691.524 3.41088 1.49966 0
M  V30 7529 H 691.637 4.78631 0.211837 0
M  V30 7530 H 690.001 2.53839 0.209204 0
M  V30 7531 H 690.784 3.15963 -1.34247 0
M  V30 7532 N 693.229 0.160201 1.56784 0
M  V30 7533 C 694.506 -0.533355 1.88188 0
M  V30 7534 C 694.886 -1.82072 1.06831 0
M  V30 7535 O 694.234 -2.27946 0.158959 0
M  V30 7536 C 694.444 -0.786034 3.40033 0
M  V30 7537 C 695.792 -1.12097 4.09536 0
M  V30 7538 O 696.816 -0.874949 3.45287 0
M  V30 7539 O 695.675 -1.58457 5.23023 0
M  V30 7540 H 692.769 -0.273589 0.780434 0
M  V30 7541 H 695.315 0.197803 1.68543 0
M  V30 7542 H 694.087 0.124515 3.91102 0
M  V30 7543 H 693.71 -1.57091 3.65251 0
M  V30 7544 N 694.707 -1.5719 -0.113559 0
M  V30 7545 C 695.617 -2.04041 -1.15777 0
M  V30 7546 C 696.633 -0.961812 -1.45001 0
M  V30 7547 O 697.809 -1.2737 -1.56009 0
M  V30 7548 C 694.874 -2.43994 -2.46308 0
M  V30 7549 C 693.935 -3.65962 -2.24433 0
M  V30 7550 C 693.168 -4.04 -3.4874 0
M  V30 7551 O 693.391 -3.42321 -4.56259 0
M  V30 7552 O 692.325 -4.97069 -3.3942 0
M  V30 7553 H 696.151 -2.93248 -0.789899 0
M  V30 7554 H 693.736 -1.45828 -0.324748 0
M  V30 7555 H 695.618 -2.70401 -3.23204 0
M  V30 7556 H 694.293 -1.57932 -2.82558 0
M  V30 7557 H 693.2 -3.44697 -1.45377 0
M  V30 7558 H 694.533 -4.52746 -1.93084 0
M  V30 7559 N 696.185 0.383891 -1.52853 0
M  V30 7560 C 697.115 1.47559 -1.80965 0
M  V30 7561 C 698.096 1.5669 -0.661986 0
M  V30 7562 O 699.281 1.71556 -0.910072 0
M  V30 7563 C 696.411 2.85114 -1.98312 0
M  V30 7564 C 695.365 2.9082 -3.14019 0
M  V30 7565 C 694.691 4.30873 -3.16627 0
M  V30 7566 C 695.991 2.60001 -4.52986 0
M  V30 7567 H 697.685 1.24283 -2.72386 0
M  V30 7568 H 695.231 0.596445 -1.31067 0
M  V30 7569 H 697.184 3.61496 -2.16561 0
M  V30 7570 H 695.908 3.09738 -1.03585 0
M  V30 7571 H 694.567 2.16886 -2.9556 0
M  V30 7572 H 694.215 4.52545 -2.19573 0
M  V30 7573 H 693.915 4.3561 -3.94357 0
M  V30 7574 H 695.439 5.09154 -3.37038 0
M  V30 7575 H 696.853 3.261 -4.71521 0
M  V30 7576 H 695.25 2.76081 -5.32822 0
M  V30 7577 H 696.32 1.5532 -4.59351 0
M  V30 7578 N 697.663 1.43903 0.642637 0
M  V30 7579 C 698.893 1.49323 1.4278 0
M  V30 7580 C 699.301 0.113058 1.88862 0
M  V30 7581 O 698.644 -0.889089 1.60751 0
M  V30 7582 C 698.706 2.3861 2.68897 0
M  V30 7583 C 698.37 3.85976 2.44687 0
M  V30 7584 C 699.367 4.7681 2.07239 0
M  V30 7585 C 697.052 4.30567 2.58683 0
M  V30 7586 C 699.046 6.10234 1.841 0
M  V30 7587 C 696.733 5.64042 2.35159 0
M  V30 7588 C 697.731 6.53693 1.97925 0
M  V30 7589 O 697.419 7.84698 1.74654 0
M  V30 7590 H 697.151 0.509109 0.444729 0
M  V30 7591 H 699.705 1.89425 0.794195 0
M  V30 7592 H 697.935 1.93415 3.34855 0
M  V30 7593 H 699.624 2.35112 3.30873 0
M  V30 7594 H 700.39 4.43635 1.95993 0
M  V30 7595 H 696.269 3.61054 2.86637 0
M  V30 7596 H 699.813 6.80171 1.54962 0
M  V30 7597 H 695.71 5.96782 2.46011 0
M  V30 7598 H 696.478 7.96382 1.88993 0
M  V30 7599 N 699.141 -0.881989 1.30609 0
M  V30 7600 C 700.418 -1.61563 1.10258 0
M  V30 7601 C 700.798 -2.08228 -0.347053 0
M  V30 7602 O 700.146 -1.85151 -1.33908 0
M  V30 7603 C 700.356 -2.78287 2.10612 0
M  V30 7604 C 701.704 -3.48545 2.4249 0
M  V30 7605 O 702.728 -2.88479 2.08945 0
M  V30 7606 O 701.587 -4.56873 2.99883 0
M  V30 7607 H 698.681 -0.710238 0.423663 0
M  V30 7608 H 701.227 -0.928503 1.42045 0
M  V30 7609 H 699.999 -2.41131 3.08174 0
M  V30 7610 H 699.622 -3.54695 1.79659 0
M  V30 7611 N 700.619 -1.13374 -1.09472 0
M  V30 7612 C 701.868 -0.889844 -1.8101 0
M  V30 7613 C 702.181 0.585686 -1.86625 0
M  V30 7614 O 703.387 0.946497 -2.54467 0
M  V30 7615 C 701.843 -1.54241 -3.25174 0
M  V30 7616 C 701.451 -3.05343 -3.27826 0
M  V30 7617 C 703.195 -1.37919 -4.0147 0
M  V30 7618 C 701.102 -3.63486 -4.6651 0
M  V30 7619 H 700.032 -0.329256 -0.678311 0
M  V30 7620 H 702.683 -1.36139 -1.23038 0
M  V30 7621 H 701.065 -0.998525 -3.83204 0
M  V30 7622 H 702.239 -3.66307 -2.79563 0
M  V30 7623 H 700.554 -3.21175 -2.65019 0
M  V30 7624 H 703.151 -1.78771 -5.03929 0
M  V30 7625 H 703.494 -0.323987 -4.15037 0
M  V30 7626 H 704.027 -1.89284 -3.49881 0
M  V30 7627 H 700.766 -4.68811 -4.58145 0
M  V30 7628 H 700.286 -3.073 -5.15099 0
M  V30 7629 H 701.965 -3.63134 -5.35484 0
M  V30 7630 N 702.098 1.27442 -0.927168 0
M  V30 7631 C 703.031 2.25177 -0.370232 0
M  V30 7632 C 704.009 1.53612 0.533103 0
M  V30 7633 O 705.193 1.8245 0.47373 0
M  V30 7634 C 702.32 3.35431 0.469411 0
M  V30 7635 C 701.366 4.24888 -0.370419 0
M  V30 7636 S 702.199 5.04852 -1.78562 0
M  V30 7637 C 703.355 6.18592 -0.953651 0
M  V30 7638 H 703.588 2.72069 -1.19858 0
M  V30 7639 H 701.121 1.36089 -0.729316 0
M  V30 7640 H 703.079 3.99404 0.947992 0
M  V30 7641 H 701.74 2.87179 1.27228 0
M  V30 7642 H 700.933 5.03264 0.272226 0
M  V30 7643 H 700.535 3.65709 -0.783153 0
M  V30 7644 H 702.827 6.77235 -0.189408 0
M  V30 7645 H 703.77 6.87132 -1.7104 0
M  V30 7646 H 704.178 5.62318 -0.495897 0
M  V30 7647 N 703.576 0.692616 1.41565 0
M  V30 7648 C 704.523 0.0254264 2.30786 0
M  V30 7649 C 705.493 -0.774347 1.46946 0
M  V30 7650 O 706.678 -0.742981 1.7574 0
M  V30 7651 C 703.818 -0.907123 3.32964 0
M  V30 7652 C 702.931 -0.0992784 4.31886 0
M  V30 7653 C 702.066 -1.0292 5.21134 0
M  V30 7654 C 701.105 -0.214088 6.11725 0
M  V30 7655 N 700.242 -1.09766 6.93467 0
M  V30 7656 H 705.082 0.792036 2.87282 0
M  V30 7657 H 702.619 0.4023 1.41492 0
M  V30 7658 H 704.577 -1.46181 3.90752 0
M  V30 7659 H 703.207 -1.64016 2.78026 0
M  V30 7660 H 702.259 0.572287 3.76071 0
M  V30 7661 H 703.571 0.532782 4.95946 0
M  V30 7662 H 702.725 -1.65321 5.83741 0
M  V30 7663 H 701.464 -1.69512 4.57293 0
M  V30 7664 H 700.469 0.42302 5.4817 0
M  V30 7665 H 701.694 0.447995 6.77621 0
M  V30 7666 H 699.64 -1.74965 6.32237 0
M  V30 7667 H 699.557 -0.521099 7.54202 0
M  V30 7668 H 700.825 -1.70858 7.60544 0
M  V30 7669 N 705.054 -1.51416 0.437162 0
M  V30 7670 C 705.987 -2.24309 -0.419602 0
M  V30 7671 C 706.965 -1.26236 -1.02485 0
M  V30 7672 O 708.149 -1.5537 -1.06735 0
M  V30 7673 C 705.276 -2.99335 -1.58482 0
M  V30 7674 C 704.322 -4.12064 -1.10027 0
M  V30 7675 S 705.155 -5.35483 -0.0424476 0
M  V30 7676 C 706.311 -6.14047 -1.21234 0
M  V30 7677 H 706.544 -2.96632 0.199259 0
M  V30 7678 H 704.077 -1.528 0.22168 0
M  V30 7679 H 706.035 -3.43159 -2.25282 0
M  V30 7680 H 704.696 -2.26602 -2.17509 0
M  V30 7681 H 703.889 -4.63836 -1.97161 0
M  V30 7682 H 703.491 -3.70499 -0.510507 0
M  V30 7683 H 705.783 -6.43123 -2.13072 0
M  V30 7684 H 706.726 -7.04279 -0.734582 0
M  V30 7685 H 707.134 -5.45538 -1.45082 0
M  V30 7686 N 706.532 -0.168513 -1.56696 0
M  V30 7687 C 707.772 0.479648 -1.98693 0
M  V30 7688 C 708.136 1.60609 -1.05209 0
M  V30 7689 O 709.337 2.3166 -1.36334 0
M  V30 7690 C 707.608 0.952852 -3.44464 0
M  V30 7691 S 709.167 1.60259 -4.08488 0
M  V30 7692 H 705.985 0.154377 -0.694038 0
M  V30 7693 H 708.587 -0.265312 -1.93691 0
M  V30 7694 H 707.291 0.12257 -4.10217 0
M  V30 7695 H 706.822 1.73192 -3.53225 0
M  V30 7696 H 708.837 2.89065 -4.03307 0
M  V30 7697 N 708.01 1.57248 0.105221 0
M  V30 7698 C 709.256 1.86719 0.806692 0
M  V30 7699 C 709.611 0.758061 1.76837 0
M  V30 7700 O 708.904 -0.240812 1.90081 0
M  V30 7701 C 709.098 3.20437 1.58287 0
M  V30 7702 C 708.927 4.44252 0.697864 0
M  V30 7703 C 707.697 5.04104 0.347444 0
M  V30 7704 C 709.895 5.14299 0.00933014 0
M  V30 7705 N 707.877 6.1146 -0.546786 0
M  V30 7706 C 709.248 6.15528 -0.74336 0
M  V30 7707 C 711.303 4.97857 -0.0656505 0
M  V30 7708 C 710.006 7.02091 -1.56401 0
M  V30 7709 C 712.032 5.84919 -0.873167 0
M  V30 7710 C 711.394 6.8566 -1.61401 0
M  V30 7711 H 707.493 0.73329 0.271679 0
M  V30 7712 H 710.077 1.94575 0.0697152 0
M  V30 7713 H 708.248 3.13651 2.29079 0
M  V30 7714 H 709.98 3.37668 2.23075 0
M  V30 7715 H 706.735 4.68505 0.692817 0
M  V30 7716 H 707.159 6.69779 -0.986157 0
M  V30 7717 H 711.801 4.19919 0.492768 0
M  V30 7718 H 709.519 7.79427 -2.13353 0
M  V30 7719 H 713.105 5.74259 -0.933724 0
M  V30 7720 H 711.985 7.5186 -2.2288 0
M  V30 7721 N 709.488 -0.375779 1.53054 0
M  V30 7722 C 710.435 -1.45978 1.78771 0
M  V30 7723 C 711.405 -1.53625 0.631552 0
M  V30 7724 O 712.59 -1.69674 0.872667 0
M  V30 7725 C 709.73 -2.8305 1.97425 0
M  V30 7726 C 708.843 -2.84451 3.25134 0
M  V30 7727 C 707.978 -4.13034 3.34031 0
M  V30 7728 C 707.017 -4.08536 4.55812 0
M  V30 7729 N 706.154 -5.2875 4.61918 0
M  V30 7730 H 710.994 -1.23349 2.71273 0
M  V30 7731 H 708.531 -0.598147 1.3439 0
M  V30 7732 H 710.489 -3.62666 2.06225 0
M  V30 7733 H 709.119 -3.04101 1.0827 0
M  V30 7734 H 708.171 -1.97127 3.25338 0
M  V30 7735 H 709.483 -2.76998 4.14818 0
M  V30 7736 H 708.637 -5.0106 3.42087 0
M  V30 7737 H 707.376 -4.23226 2.42345 0
M  V30 7738 H 706.381 -3.18897 4.47867 0
M  V30 7739 H 707.606 -3.99955 5.48828 0
M  V30 7740 H 705.552 -5.39547 3.73129 0
M  V30 7741 H 705.469 -5.23426 5.45492 0
M  V30 7742 H 706.737 -6.18637 4.74245 0
M  V30 7743 N 710.966 -1.44241 -0.634997 0
M  V30 7744 C 711.876 -1.53293 -1.77591 0
M  V30 7745 C 712.892 -0.418831 -1.68884 0
M  V30 7746 O 714.068 -0.675619 -1.8973 0
M  V30 7747 C 711.133 -1.47075 -3.13958 0
M  V30 7748 C 710.194 -2.69304 -3.34326 0
M  V30 7749 C 709.427 -2.63374 -4.64187 0
M  V30 7750 O 709.65 -1.69161 -5.44739 0
M  V30 7751 O 708.584 -3.54166 -4.86673 0
M  V30 7752 H 712.41 -2.49673 -1.72908 0
M  V30 7753 H 709.995 -1.26445 -0.795745 0
M  V30 7754 H 711.877 -1.46117 -3.95257 0
M  V30 7755 H 710.552 -0.538373 -3.19192 0
M  V30 7756 H 709.459 -2.75831 -2.52721 0
M  V30 7757 H 710.792 -3.61576 -3.33951 0
M  V30 7758 N 712.444 0.87505 -1.31075 0
M  V30 7759 C 713.391 1.98178 -1.18296 0
M  V30 7760 C 714.361 1.65952 -0.0699923 0
M  V30 7761 O 715.546 1.8926 -0.241951 0
M  V30 7762 C 712.686 3.33399 -0.891024 0
M  V30 7763 C 711.799 3.78253 -2.08684 0
M  V30 7764 C 710.934 5.02166 -1.73212 0
M  V30 7765 C 709.973 5.39455 -2.89231 0
M  V30 7766 N 709.11 6.54549 -2.53989 0
M  V30 7767 H 713.95 2.0844 -2.12971 0
M  V30 7768 H 711.487 1.02047 -1.05948 0
M  V30 7769 H 713.445 4.11246 -0.702338 0
M  V30 7770 H 712.075 3.22794 0.0188799 0
M  V30 7771 H 711.127 2.9623 -2.38646 0
M  V30 7772 H 712.439 4.01821 -2.95536 0
M  V30 7773 H 711.593 5.87666 -1.50777 0
M  V30 7774 H 710.332 4.80491 -0.83544 0
M  V30 7775 H 709.337 4.52477 -3.12321 0
M  V30 7776 H 710.562 5.63098 -3.79601 0
M  V30 7777 H 708.508 6.3443 -1.66838 0
M  V30 7778 H 708.425 6.78035 -3.34372 0
M  V30 7779 H 709.693 7.43254 -2.34934 0
M  V30 7780 N 713.922 1.13953 1.08869 0
M  V30 7781 C 714.885 0.824991 2.13838 0
M  V30 7782 C 715.885 -0.168198 1.59918 0
M  V30 7783 O 717.075 0.0595778 1.74098 0
M  V30 7784 C 714.207 0.228938 3.4013 0
M  V30 7785 H 715.4 1.75521 2.43171 0
M  V30 7786 H 712.953 0.94492 1.24503 0
M  V30 7787 H 713.688 -0.710227 3.16427 0
M  V30 7788 H 713.473 0.944243 3.80561 0
M  V30 7789 H 714.963 0.0259223 4.17592 0
M  V30 7790 N 715.4 -1.26948 0.933913 0
M  V30 7791 C 716.31 -2.30366 0.443671 0
M  V30 7792 C 717.326 -1.67284 -0.478745 0
M  V30 7793 O 718.502 -1.98156 -0.360043 0
M  V30 7794 C 715.567 -3.45485 -0.289974 0
M  V30 7795 C 714.628 -4.24069 0.668114 0
M  V30 7796 C 713.861 -5.33691 -0.0306138 0
M  V30 7797 O 714.084 -5.5656 -1.24888 0
M  V30 7798 O 713.018 -5.98441 0.644384 0
M  V30 7799 H 716.844 -2.74349 1.30254 0
M  V30 7800 H 714.429 -1.32012 0.699506 0
M  V30 7801 H 716.311 -4.15486 -0.70353 0
M  V30 7802 H 714.986 -3.03546 -1.12435 0
M  V30 7803 H 713.893 -3.56579 1.13147 0
M  V30 7804 H 715.226 -4.69739 1.46989 0
M  V30 7805 N 716.879 -0.700114 -1.41195 0
M  V30 7806 C 717.789 -0.0382854 -2.34569 0
M  V30 7807 C 718.805 0.761036 -1.56474 0
M  V30 7808 O 719.981 0.697553 -1.88934 0
M  V30 7809 C 717.046 0.883522 -3.35253 0
M  V30 7810 C 716.107 0.0758957 -4.29233 0
M  V30 7811 C 715.34 0.9538 -5.25108 0
M  V30 7812 O 715.563 2.19326 -5.26547 0
M  V30 7813 O 714.497 0.401049 -6.00562 0
M  V30 7814 H 718.323 -0.808073 -2.92752 0
M  V30 7815 H 715.908 -0.460479 -1.42127 0
M  V30 7816 H 717.79 1.41199 -3.9704 0
M  V30 7817 H 716.465 1.63272 -2.79506 0
M  V30 7818 H 715.372 -0.497274 -3.7078 0
M  V30 7819 H 716.705 -0.634741 -4.8809 0
M  V30 7820 N 718.357 1.51182 -0.445186 0
M  V30 7821 C 719.773 1.59299 -0.0978954 0
M  V30 7822 C 719.973 1.4555 1.39346 0
M  V30 7823 O 719.029 1.30073 2.16419 0
M  V30 7824 C 720.342 2.94133 -0.625005 0
M  V30 7825 C 721.89 3.07463 -0.586137 0
M  V30 7826 C 722.365 4.44832 -1.09035 0
M  V30 7827 N 723.856 4.51173 -1.04867 0
M  V30 7828 C 724.591 5.55804 -1.40959 0
M  V30 7829 N 724.087 6.67816 -1.84375 0
M  V30 7830 N 725.88 5.46205 -1.32726 0
M  V30 7831 H 718.031 1.58363 -1.41544 0
M  V30 7832 H 720.294 0.746946 -0.58376 0
M  V30 7833 H 720 3.09589 -1.66876 0
M  V30 7834 H 719.874 3.77161 -0.0542262 0
M  V30 7835 H 722.261 2.9167 0.448646 0
M  V30 7836 H 722.342 2.26255 -1.19341 0
M  V30 7837 H 721.986 4.61372 -2.12364 0
M  V30 7838 H 721.916 5.24591 -0.459539 0
M  V30 7839 H 724.407 3.70783 -0.729932 0
M  V30 7840 H 724.72 7.43683 -2.10131 0
M  V30 7841 H 723.065 6.69003 -1.88308 0
M  V30 7842 H 726.256 4.57583 -0.986678 0
M  V30 7843 H 726.429 6.27634 -1.61182 0
M  V30 7844 N 719.835 0.176821 1.56605 0
M  V30 7845 C 721.246 -0.338963 1.83597 0
M  V30 7846 C 721.597 -1.62677 1.09684 0
M  V30 7847 O 720.722 -2.13524 0.351661 0
M  V30 7848 C 721.317 -0.62177 3.33046 0
M  V30 7849 C 719.876 -1.08198 3.60514 0
M  V30 7850 C 719.023 -0.120774 2.77037 0
M  V30 7851 H 721.974 0.400978 1.53551 0
M  V30 7852 H 721.995 -1.47321 3.50823 0
M  V30 7853 H 721.507 0.315692 3.86814 0
M  V30 7854 H 719.608 -2.03435 3.12162 0
M  V30 7855 H 719.721 -0.987329 4.68816 0
M  V30 7856 H 718.085 -0.619192 2.47059 0
M  V30 7857 H 718.868 0.810806 3.33588 0
M  V30 7858 N 721.313 -1.57302 -0.09688 0
M  V30 7859 C 722.541 -1.90202 -0.814295 0
M  V30 7860 C 722.956 -0.770344 -1.72369 0
M  V30 7861 O 722.313 0.257764 -1.8067 0
M  V30 7862 C 722.364 -3.22708 -1.62916 0
M  V30 7863 O 722.085 -4.31522 -0.756343 0
M  V30 7864 C 723.586 -3.69459 -2.44979 0
M  V30 7865 H 720.806 -0.629275 -0.232925 0
M  V30 7866 H 723.35 -2.04364 -0.0746482 0
M  V30 7867 H 721.505 -3.1015 -2.32133 0
M  V30 7868 H 721.919 -5.07604 -1.32054 0
M  V30 7869 H 723.393 -4.64875 -2.9765 0
M  V30 7870 H 723.87 -2.97211 -3.23361 0
M  V30 7871 H 724.476 -3.84879 -1.80964 0
M  V30 7872 N 722.791 0.367657 -1.53252 0
M  V30 7873 C 724.038 1.11052 -1.69333 0
M  V30 7874 C 724.366 1.89363 -0.444064 0
M  V30 7875 O 723.621 1.87094 0.573953 0
M  V30 7876 C 723.92 2.09825 -2.89324 0
M  V30 7877 C 723.586 1.4801 -4.25915 0
M  V30 7878 C 722.248 1.30879 -4.6306 0
M  V30 7879 C 724.6 1.03268 -5.10867 0
M  V30 7880 C 721.928 0.675868 -5.82794 0
M  V30 7881 C 724.28 0.41377 -6.31245 0
M  V30 7882 C 722.944 0.229939 -6.67104 0
M  V30 7883 H 722.214 0.406367 -0.619634 0
M  V30 7884 H 724.861 0.392558 -1.87433 0
M  V30 7885 H 723.166 2.87917 -2.65728 0
M  V30 7886 H 724.863 2.67252 -2.98961 0
M  V30 7887 H 721.453 1.62336 -3.96667 0
M  V30 7888 H 725.637 1.15297 -4.82722 0
M  V30 7889 H 720.893 0.521833 -6.09169 0
M  V30 7890 H 725.067 0.0588768 -6.96375 0
M  V30 7891 H 722.694 -0.262562 -7.59746 0
M  V30 7892 N 724.269 1.44576 0.627338 0
M  V30 7893 C 725.546 1.38033 1.38586 0
M  V30 7894 C 725.926 0.0409468 2.1106 0
M  V30 7895 O 725.274 -0.976582 2.0658 0
M  V30 7896 C 725.484 2.58102 2.34913 0
M  V30 7897 C 726.832 3.02332 2.98129 0
M  V30 7898 O 727.856 2.58334 2.45238 0
M  V30 7899 O 726.715 3.78628 3.94085 0
M  V30 7900 H 723.809 0.546801 0.620434 0
M  V30 7901 H 726.355 1.56672 0.652077 0
M  V30 7902 H 725.127 3.4719 1.80485 0
M  V30 7903 H 724.75 2.41696 3.15703 0
M  V30 7904 N 725.747 -0.868086 1.31537 0
M  V30 7905 C 726.977 -1.65162 1.24118 0
M  V30 7906 C 727.385 -1.88187 -0.195558 0
M  V30 7907 O 726.728 -1.44154 -1.13866 0
M  V30 7908 C 726.79 -3.04119 1.91708 0
M  V30 7909 C 726.454 -3.04194 3.4105 0
M  V30 7910 C 727.451 -2.82016 4.36764 0
M  V30 7911 C 725.136 -3.25256 3.82772 0
M  V30 7912 C 727.13 -2.80881 5.72175 0
M  V30 7913 C 724.817 -3.23749 5.18295 0
M  V30 7914 C 725.815 -3.01589 6.12808 0
M  V30 7915 O 725.503 -2.9993 7.45853 0
M  V30 7916 H 725.235 -0.521597 0.430015 0
M  V30 7917 H 727.789 -1.09165 1.73989 0
M  V30 7918 H 726.019 -3.61849 1.36389 0
M  V30 7919 H 727.708 -3.64701 1.78179 0
M  V30 7920 H 728.474 -2.65525 4.05859 0
M  V30 7921 H 724.353 -3.41534 3.09638 0
M  V30 7922 H 727.897 -2.63503 6.45919 0
M  V30 7923 H 723.794 -3.39781 5.48834 0
M  V30 7924 H 724.562 -3.15979 7.55049 0
M  V30 7925 N 727.225 -1.14528 -1.08264 0
M  V30 7926 C 728.155 -0.856356 -2.1723 0
M  V30 7927 C 729.136 0.189251 -1.69044 0
M  V30 7928 O 730.321 0.0456119 -1.94146 0
M  V30 7929 C 727.451 -0.334662 -3.45684 0
M  V30 7930 C 726.405 -1.31588 -4.0727 0
M  V30 7931 C 725.731 -0.653428 -5.30692 0
M  V30 7932 C 727.031 -2.67866 -4.48381 0
M  V30 7933 H 728.725 -1.76755 -2.41657 0
M  V30 7934 H 726.271 -0.851287 -1.16143 0
M  V30 7935 H 728.224 -0.120128 -4.21229 0
M  V30 7936 H 726.948 0.611967 -3.20815 0
M  V30 7937 H 725.607 -1.51661 -3.33758 0
M  V30 7938 H 725.255 0.299054 -5.0211 0
M  V30 7939 H 724.955 -1.30817 -5.72853 0
M  V30 7940 H 726.479 -0.448453 -6.08951 0
M  V30 7941 H 727.893 -2.51692 -5.15096 0
M  V30 7942 H 726.29 -3.29627 -5.01464 0
M  V30 7943 H 727.36 -3.24632 -3.60198 0
M  V30 7944 N 728.703 1.26451 -0.940633 0
M  V30 7945 C 729.635 2.25556 -0.407104 0
M  V30 7946 C 730.648 1.55888 0.469324 0
M  V30 7947 O 731.837 1.76292 0.279858 0
M  V30 7948 C 728.937 3.36109 0.434064 0
M  V30 7949 C 728.11 4.3532 -0.426082 0
M  V30 7950 C 727.169 5.25004 0.354563 0
M  V30 7951 O 726.195 5.68684 -0.242219 0
M  V30 7952 N 727.397 5.5652 1.65123 0
M  V30 7953 H 730.162 2.7197 -1.25907 0
M  V30 7954 H 727.723 1.40212 -0.809456 0
M  V30 7955 H 729.715 3.93059 0.963684 0
M  V30 7956 H 728.285 2.89194 1.18683 0
M  V30 7957 H 727.505 3.77449 -1.13692 0
M  V30 7958 H 728.793 4.986 -1.01366 0
M  V30 7959 H 728.191 5.22912 2.15822 0
M  V30 7960 H 726.748 6.16115 2.12711 0
M  V30 7961 N 730.181 0.707592 1.40822 0
M  V30 7962 C 731.406 0.251626 2.05868 0
M  V30 7963 C 731.831 -1.09503 1.5294 0
M  V30 7964 O 731.189 -1.68806 0.661385 0
M  V30 7965 C 731.237 0.23287 3.59847 0
M  V30 7966 O 730.341 -0.788477 4.04792 0
M  V30 7967 H 729.682 0.119936 0.653078 0
M  V30 7968 H 732.212 0.96583 1.80369 0
M  V30 7969 H 732.222 0.0678204 4.07944 0
M  V30 7970 H 730.897 1.21565 3.97737 0
M  V30 7971 H 729.474 -0.591802 3.68174 0
M  V30 7972 N 731.66 -1.50943 0.453197 0
M  V30 7973 C 732.906 -2.02512 -0.108082 0
M  V30 7974 C 733.239 -1.33574 -1.40967 0
M  V30 7975 O 732.514 -0.455671 -1.89087 0
M  V30 7976 C 732.797 -3.58759 -0.310453 0
M  V30 7977 C 732.65 -4.38293 1.0109 0
M  V30 7978 C 733.969 -4.26816 -1.07313 0
M  V30 7979 H 731.088 -0.73603 -0.0378064 0
M  V30 7980 H 733.73 -1.80433 0.595295 0
M  V30 7981 H 731.88 -3.77702 -0.909582 0
M  V30 7982 H 733.552 -4.30964 1.64523 0
M  V30 7983 H 731.795 -4.02745 1.61179 0
M  V30 7984 H 732.466 -5.45828 0.82315 0
M  V30 7985 H 734.942 -4.1224 -0.565473 0
M  V30 7986 H 733.818 -5.35989 -1.1835 0
M  V30 7987 H 734.079 -3.88757 -2.10525 0
M  V30 7988 N 733.138 -0.185124 -1.56509 0
M  V30 7989 C 734.068 0.735098 -2.21627 0
M  V30 7990 C 735.049 1.2288 -1.1762 0
M  V30 7991 O 736.234 1.27945 -1.46095 0
M  V30 7992 C 733.364 1.95889 -2.86783 0
M  V30 7993 C 732.318 1.6005 -3.96948 0
M  V30 7994 C 731.644 2.90009 -4.4922 0
M  V30 7995 C 732.944 0.818008 -5.15855 0
M  V30 7996 H 734.638 0.192274 -2.98782 0
M  V30 7997 H 732.184 0.0910393 -1.43712 0
M  V30 7998 H 734.137 2.60779 -3.31017 0
M  V30 7999 H 732.861 2.52608 -2.07018 0
M  V30 8000 H 731.52 0.975237 -3.5339 0
M  V30 8001 H 731.168 3.44797 -3.6623 0
M  V30 8002 H 730.868 2.66778 -5.23549 0
M  V30 8003 H 732.392 3.55904 -4.9615 0
M  V30 8004 H 733.806 1.36979 -5.56695 0
M  V30 8005 H 732.203 0.684207 -5.96187 0
M  V30 8006 H 733.273 -0.182939 -4.84555 0
M  V30 8007 N 734.616 1.57351 0.0885366 0
M  V30 8008 C 735.893 1.77449 0.822873 0
M  V30 8009 C 736.273 0.768463 1.96616 0
M  V30 8010 O 735.621 -0.201757 2.27608 0
M  V30 8011 C 735.831 3.23425 1.31137 0
M  V30 8012 C 737.179 3.86791 1.75152 0
M  V30 8013 O 738.203 3.27215 1.40745 0
M  V30 8014 O 737.062 4.91568 2.38794 0
M  V30 8015 H 734.156 0.727653 0.393002 0
M  V30 8016 H 736.702 1.69556 0.0699095 0
M  V30 8017 H 735.474 3.88188 0.49254 0
M  V30 8018 H 735.097 3.35977 2.12615 0
M  V30 8019 N 736.094 -0.359525 1.53444 0
M  V30 8020 C 737.371 -1.11756 1.6053 0
M  V30 8021 C 737.751 -2.06949 0.416587 0
M  V30 8022 O 737.099 -2.20681 -0.592628 0
M  V30 8023 C 737.309 -1.85133 2.95849 0
M  V30 8024 C 738.657 -2.3945 3.50641 0
M  V30 8025 O 739.681 -1.95251 2.97918 0
M  V30 8026 O 738.54 -3.20266 4.42823 0
M  V30 8027 H 735.634 -0.513005 0.648656 0
M  V30 8028 H 738.18 -0.362301 1.65787 0
M  V30 8029 H 736.952 -1.15694 3.73806 0
M  V30 8030 H 736.575 -2.67554 2.9411 0
M  V30 8031 N 737.572 -1.44907 -0.619662 0
M  V30 8032 C 738.819 -1.48292 -1.37898 0
M  V30 8033 C 739.147 -0.119933 -1.9413 0
M  V30 8034 O 738.402 0.879834 -1.74807 0
M  V30 8035 C 738.701 -2.50002 -2.55409 0
M  V30 8036 C 738.367 -3.95031 -2.17397 0
M  V30 8037 C 737.029 -4.34524 -2.06743 0
M  V30 8038 C 739.381 -4.86287 -1.87548 0
M  V30 8039 C 736.709 -5.63183 -1.64445 0
M  V30 8040 C 739.061 -6.15346 -1.4674 0
M  V30 8041 C 737.725 -6.53781 -1.34636 0
M  V30 8042 H 736.995 -0.542638 -0.504603 0
M  V30 8043 H 739.642 -1.78186 -0.701581 0
M  V30 8044 H 737.947 -2.13634 -3.28433 0
M  V30 8045 H 739.644 -2.49864 -3.13639 0
M  V30 8046 H 736.234 -3.63793 -2.26611 0
M  V30 8047 H 740.418 -4.56522 -1.94682 0
M  V30 8048 H 735.674 -5.91769 -1.53687 0
M  V30 8049 H 739.848 -6.85508 -1.22685 0
M  V30 8050 H 737.475 -7.53375 -1.01634 0
M  V30 8051 N 739.05 0.861098 -1.31996 0
M  V30 8052 C 740.28 1.64501 -1.24992 0
M  V30 8053 C 740.688 1.88288 0.185576 0
M  V30 8054 O 740.031 1.44756 1.131 0
M  V30 8055 C 740.093 3.03098 -1.93319 0
M  V30 8056 C 739.757 3.02381 -3.42658 0
M  V30 8057 C 740.754 2.79696 -4.38254 0
M  V30 8058 C 738.439 3.23221 -3.84491 0
M  V30 8059 C 740.433 2.77843 -5.73657 0
M  V30 8060 C 738.12 3.20996 -5.20005 0
M  V30 8061 C 739.118 2.98335 -6.14398 0
M  V30 8062 O 738.806 2.95971 -7.47433 0
M  V30 8063 H 738.538 0.519309 -0.432775 0
M  V30 8064 H 741.092 1.08241 -1.74565 0
M  V30 8065 H 739.322 3.61121 -1.38306 0
M  V30 8066 H 741.011 3.63751 -1.8011 0
M  V30 8067 H 741.777 2.63368 -4.07262 0
M  V30 8068 H 737.656 3.39887 -3.11445 0
M  V30 8069 H 741.2 2.60074 -6.47308 0
M  V30 8070 H 737.097 3.36865 -5.50629 0
M  V30 8071 H 737.865 3.1197 -7.56714 0
M  V30 8072 N 740.528 1.15101 1.07655 0
M  V30 8073 C 741.756 0.947731 1.83918 0
M  V30 8074 C 742.171 -0.503927 1.81951 0
M  V30 8075 O 741.528 -1.34941 1.2287 0
M  V30 8076 C 741.579 1.4503 3.31132 0
M  V30 8077 O 741.3 2.84508 3.33146 0
M  V30 8078 C 742.801 1.28806 4.24174 0
M  V30 8079 H 740.021 0.336786 0.580358 0
M  V30 8080 H 742.565 1.52799 1.35914 0
M  V30 8081 H 740.72 0.912632 3.76497 0
M  V30 8082 H 741.134 3.0723 4.251 0
M  V30 8083 H 742.608 1.6882 5.25551 0
M  V30 8084 H 743.085 0.231851 4.38588 0
M  V30 8085 H 743.691 1.81465 3.84643 0
M  V30 8086 N 742.006 -1.2595 0.947325 0
M  V30 8087 C 742.969 -2.24407 0.466285 0
M  V30 8088 C 743.969 -1.55054 -0.426005 0
M  V30 8089 O 745.159 -1.7275 -0.224319 0
M  V30 8090 C 742.291 -3.39326 -0.327201 0
M  V30 8091 H 743.484 -2.68477 1.33642 0
M  V30 8092 H 741.037 -1.38211 0.729887 0
M  V30 8093 H 741.772 -3.00667 -1.21532 0
M  V30 8094 H 741.557 -3.9085 0.312839 0
M  V30 8095 H 743.047 -4.12455 -0.653477 0
M  V30 8096 N 743.484 -0.715051 -1.40445 0
M  V30 8097 C 744.712 -0.263959 -2.05209 0
M  V30 8098 C 745.127 1.09403 -1.53871 0
M  V30 8099 O 744.484 1.68746 -0.695064 0
M  V30 8100 C 744.535 -0.234545 -3.60738 0
M  V30 8101 O 744.256 -1.53891 -4.10182 0
M  V30 8102 C 745.757 0.235164 -4.42676 0
M  V30 8103 H 742.977 -0.11876 -0.660407 0
M  V30 8104 H 745.521 -0.973107 -1.79864 0
M  V30 8105 H 743.676 0.425563 -3.85055 0
M  V30 8106 H 744.09 -1.43903 -5.04373 0
M  V30 8107 H 745.564 0.204598 -5.51621 0
M  V30 8108 H 746.041 1.27724 -4.20218 0
M  V30 8109 H 746.647 -0.394649 -4.23465 0
M  V30 8110 N 744.962 1.50701 -0.461195 0
M  V30 8111 C 745.872 2.32069 0.343661 0
M  V30 8112 C 746.888 1.42016 1.00535 0
M  V30 8113 O 748.064 1.75077 0.995498 0
M  V30 8114 C 745.129 3.16424 1.41692 0
M  V30 8115 C 744.19 4.22286 0.772869 0
M  V30 8116 C 743.423 5.02609 1.79499 0
M  V30 8117 O 743.646 4.83874 3.0203 0
M  V30 8118 O 742.58 5.86047 1.3723 0
M  V30 8119 H 746.406 3.01996 -0.321268 0
M  V30 8120 H 743.991 1.47723 -0.223235 0
M  V30 8121 H 745.873 3.68795 2.03883 0
M  V30 8122 H 744.548 2.49236 2.0655 0
M  V30 8123 H 743.455 3.73931 0.112277 0
M  V30 8124 H 744.788 4.91915 0.167399 0
M  V30 8125 N 746.441 0.193421 1.56409 0
M  V30 8126 C 747.689 -0.444908 1.97142 0
M  V30 8127 C 748.01 -1.62268 1.08139 0
M  V30 8128 O 747.28 -1.95307 0.152326 0
M  V30 8129 H 745.86 -0.16736 0.728011 0
M  V30 8130 H 748.522 0.279763 1.92882 0
M  V30 8131 H 747.618 -0.790159 3.01932 0
M  V30 8132 N 747.919 -1.57396 -0.0801906 0
M  V30 8133 C 748.851 -1.9982 -1.12271 0
M  V30 8134 C 749.864 -0.902902 -1.35468 0
M  V30 8135 O 751.053 -1.18088 -1.33856 0
M  V30 8136 C 748.153 -2.31476 -2.47532 0
M  V30 8137 C 747.326 -3.62745 -2.44407 0
M  V30 8138 C 746.385 -3.82168 -3.6171 0
M  V30 8139 O 745.411 -4.53852 -3.43522 0
M  V30 8140 N 746.613 -3.2388 -4.81749 0
M  V30 8141 H 749.378 -2.89864 -0.761501 0
M  V30 8142 H 746.939 -1.5965 -0.268965 0
M  V30 8143 H 748.931 -2.4165 -3.24634 0
M  V30 8144 H 747.501 -1.47364 -2.75686 0
M  V30 8145 H 746.721 -3.63403 -1.52747 0
M  V30 8146 H 748.009 -4.48954 -2.39412 0
M  V30 8147 H 747.407 -2.6568 -4.9943 0
M  V30 8148 H 745.964 -3.39515 -5.56392 0
M  V30 8149 N 749.397 0.351382 -1.53633 0
M  V30 8150 C 750.627 1.11113 -1.74176 0
M  V30 8151 C 751.035 1.83084 -0.477154 0
M  V30 8152 O 750.378 1.74941 0.560483 0
M  V30 8153 C 750.44 2.17521 -2.86225 0
M  V30 8154 C 750.104 1.65193 -4.26099 0
M  V30 8155 C 751.101 1.10842 -5.07947 0
M  V30 8156 C 748.786 1.70277 -4.72558 0
M  V30 8157 C 750.78 0.622689 -6.34351 0
M  V30 8158 C 748.467 1.21316 -5.98937 0
M  V30 8159 C 749.465 0.674033 -6.79666 0
M  V30 8160 O 749.153 0.191696 -8.03671 0
M  V30 8161 H 748.885 0.33756 -0.585687 0
M  V30 8162 H 751.439 0.411786 -2.0123 0
M  V30 8163 H 749.669 2.90991 -2.54678 0
M  V30 8164 H 751.358 2.78999 -2.94812 0
M  V30 8165 H 752.124 1.06243 -4.7322 0
M  V30 8166 H 748.003 2.11181 -4.09785 0
M  V30 8167 H 751.547 0.201216 -6.9731 0
M  V30 8168 H 747.444 1.25613 -6.3316 0
M  V30 8169 H 748.212 0.309712 -8.17914 0
M  V30 8170 N 750.875 1.45233 0.611969 0
M  V30 8171 C 751.807 1.49575 1.73666 0
M  V30 8172 C 752.82 0.386987 1.58134 0
M  V30 8173 O 754.009 0.653804 1.66095 0
M  V30 8174 C 751.109 1.33223 3.11617 0
M  V30 8175 C 750.282 2.57694 3.5343 0
M  V30 8176 C 749.341 2.35962 4.70328 0
M  V30 8177 O 748.367 3.09553 4.77667 0
M  V30 8178 N 749.569 1.40243 5.63305 0
M  V30 8179 H 752.334 2.46539 1.70407 0
M  V30 8180 H 749.895 1.40917 0.79712 0
M  V30 8181 H 751.887 1.16502 3.87569 0
M  V30 8182 H 750.457 0.44551 3.09409 0
M  V30 8183 H 749.677 2.8956 2.67486 0
M  V30 8184 H 750.965 3.40441 3.78124 0
M  V30 8185 H 750.363 0.795023 5.60086 0
M  V30 8186 H 748.92 1.29496 6.38807 0
M  V30 8187 N 752.353 -0.854086 1.3245 0
M  V30 8188 C 753.285 -1.96932 1.17262 0
M  V30 8189 C 754.298 -1.62445 0.107469 0
M  V30 8190 O 755.487 -1.74904 0.356481 0
M  V30 8191 C 752.587 -3.29971 0.772817 0
M  V30 8192 C 751.76 -3.92695 1.92638 0
M  V30 8193 C 750.819 -5.04068 1.51003 0
M  V30 8194 O 749.845 -5.24032 2.22213 0
M  V30 8195 N 751.047 -5.79076 0.406371 0
M  V30 8196 H 753.812 -2.10503 2.13327 0
M  V30 8197 H 751.373 -1.02897 1.24995 0
M  V30 8198 H 753.365 -4.01883 0.476684 0
M  V30 8199 H 751.935 -3.1245 -0.0967 0
M  V30 8200 H 751.155 -3.13563 2.38897 0
M  V30 8201 H 752.443 -4.31337 2.69863 0
M  V30 8202 H 751.841 -5.65393 -0.186302 0
M  V30 8203 H 750.398 -6.51579 0.169846 0
M  V30 8204 N 753.831 -1.1567 -1.07043 0
M  V30 8205 C 754.763 -0.814095 -2.14255 0
M  V30 8206 C 755.776 0.175293 -1.61854 0
M  V30 8207 O 756.965 -0.0483984 -1.78434 0
M  V30 8208 C 754.065 -0.190082 -3.38367 0
M  V30 8209 C 753.238 -1.21768 -4.20109 0
M  V30 8210 C 752.297 -0.614863 -5.22595 0
M  V30 8211 O 751.323 -1.28167 -5.54583 0
M  V30 8212 N 752.525 0.601955 -5.77371 0
M  V30 8213 H 755.29 -1.73677 -2.44247 0
M  V30 8214 H 752.851 -1.05301 -1.22977 0
M  V30 8215 H 754.843 0.22604 -4.04068 0
M  V30 8216 H 753.413 0.635992 -3.06062 0
M  V30 8217 H 752.633 -1.81025 -3.50177 0
M  V30 8218 H 753.921 -1.9114 -4.71533 0
M  V30 8219 H 753.319 1.162 -5.53637 0
M  V30 8220 H 751.876 0.96039 -6.44686 0
M  V30 8221 N 755.309 1.25446 -0.953992 0
M  V30 8222 C 756.72 1.75047 -0.649255 0
M  V30 8223 C 757.071 1.77527 0.835385 0
M  V30 8224 O 756.196 1.39569 1.65377 0
M  V30 8225 C 756.791 3.17889 -1.17183 0
M  V30 8226 C 755.35 3.65052 -0.917267 0
M  V30 8227 C 754.497 2.44124 -1.31525 0
M  V30 8228 H 757.448 1.11342 -1.13087 0
M  V30 8229 H 757.469 3.76768 -0.531616 0
M  V30 8230 H 756.981 3.16052 -2.25239 0
M  V30 8231 H 755.082 3.72305 0.148354 0
M  V30 8232 H 755.195 4.53222 -1.55328 0
M  V30 8233 H 753.559 2.43906 -0.733624 0
M  V30 8234 H 754.342 2.44979 -2.405 0
M  V30 8235 O 756.826 0.86056 1.36662 0
M  V30 8236 H 757.517 0.45661 1.88241 0
M  V30 END ATOM
M  V30 BEGIN BOND
M  V30 END BOND
M  V30 END CTAB
M  END
$$$$
