drugbank_target|P08149 Penicillin-binding protein 2 (DB00535)
 OpenBabel12092120363D

  0  0  0     0  0            999 V3000
M  V30 BEGIN CTAB
M  V30 COUNTS 9038 9124 0 0 0
M  V30 BEGIN ATOM
M  V30 1 H -0.908 1.98254 -0.117106 0
M  V30 2 N 0 1.576 0 0
M  V30 3 C 0.933 2.03868 1.02534 0
M  V30 4 C 1.911 0.928543 1.3348 0
M  V30 5 O 3.095 1.19667 1.45644 0
M  V30 6 C 0.222 2.43627 2.35294 0
M  V30 7 C -0.732 3.65373 2.2001 0
M  V30 8 S 0.101 5.13292 1.52614 0
M  V30 9 C 1.257 5.56322 2.86805 0
M  V30 10 H 1.49 2.90518 0.631377 0
M  V30 11 H -0.977 1.52953 0.210867 0
M  V30 12 H 0.981 2.67203 3.11629 0
M  V30 13 H -0.358 1.57376 2.7183 0
M  V30 14 H -1.165 3.90944 3.18086 0
M  V30 15 H -1.563 3.418 1.51819 0
M  V30 16 H 0.729 5.58782 3.83104 0
M  V30 17 H 1.672 6.56266 2.65933 0
M  V30 18 H 2.08 4.83886 2.90714 0
M  V30 19 N 1.4781 -0.272755 1.55222 0
M  V30 20 C 2.4081 -1.34136 1.91127 0
M  V30 21 C 3.3891 -1.51513 0.773168 0
M  V30 22 O 4.5741 -1.64552 1.03132 0
M  V30 23 C 1.7041 -2.70083 2.1834 0
M  V30 24 C 0.6581 -2.67437 3.34158 0
M  V30 25 C -0.0159 -4.06938 3.46851 0
M  V30 26 C 1.2841 -2.26686 4.70543 0
M  V30 27 H 2.9781 -1.04333 2.80633 0
M  V30 28 H 0.5241 -0.500454 1.35024 0
M  V30 29 H 2.4771 -3.44952 2.42046 0
M  V30 30 H 1.2011 -3.01469 1.25634 0
M  V30 31 H -0.1399 -1.95026 3.1042 0
M  V30 32 H -0.4919 -4.35547 2.51611 0
M  V30 33 H -0.7919 -4.06062 4.2472 0
M  V30 34 H 0.7321 -4.83545 3.72849 0
M  V30 35 H 2.1461 -2.91277 4.93792 0
M  V30 36 H 0.5431 -2.36971 5.5133 0
M  V30 37 H 1.6131 -1.21818 4.69349 0
M  V30 38 N 2.9562 -1.48159 -0.537278 0
M  V30 39 C 4.2052 -1.5506 -1.28993 0
M  V30 40 C 4.5182 -0.226211 -1.94288 0
M  V30 41 O 5.7242 -0.173395 -2.70946 0
M  V30 42 C 4.1802 -2.73429 -2.34018 0
M  V30 43 C 3.7882 -4.1248 -1.74825 0
M  V30 44 C 5.5322 -2.89638 -3.10339 0
M  V30 45 C 3.4392 -5.22121 -2.77747 0
M  V30 46 H 2.3692 -0.577231 -0.485098 0
M  V30 47 H 5.0202 -1.74478 -0.568317 0
M  V30 48 H 3.4022 -2.47431 -3.09182 0
M  V30 49 H 4.5762 -4.48466 -1.05899 0
M  V30 50 H 2.8912 -4.01327 -1.11022 0
M  V30 51 H 5.4882 -3.68718 -3.87235 0
M  V30 52 H 5.8312 -1.9882 -3.65754 0
M  V30 53 H 6.3642 -3.15502 -2.42288 0
M  V30 54 H 3.1032 -6.1488 -2.27161 0
M  V30 55 H 2.6232 -4.90631 -3.45024 0
M  V30 56 H 4.3022 -5.49924 -3.4087 0
M  V30 57 N 4.4343 0.785586 -1.36625 0
M  V30 58 C 5.3813 1.89838 -1.31264 0
M  V30 59 C 6.3513 1.65115 -0.180633 0
M  V30 60 O 7.5363 1.87222 -0.36777 0
M  V30 61 C 4.6763 3.26706 -1.11163 0
M  V30 62 C 3.7893 3.63476 -2.33472 0
M  V30 63 C 2.9243 4.89481 -2.06353 0
M  V30 64 C 1.9633 5.18941 -3.24602 0
M  V30 65 N 1.1003 6.36131 -2.97123 0
M  V30 66 H 5.9403 1.93756 -2.26413 0
M  V30 67 H 3.4773 0.947454 -1.12524 0
M  V30 68 H 5.4353 4.05639 -0.975337 0
M  V30 69 H 4.0653 3.222 -0.196674 0
M  V30 70 H 3.1173 2.79636 -2.57891 0
M  V30 71 H 4.4293 3.81193 -3.21704 0
M  V30 72 H 3.5833 5.76288 -1.89675 0
M  V30 73 H 2.3223 4.73841 -1.15437 0
M  V30 74 H 1.3273 4.30615 -3.41834 0
M  V30 75 H 2.5523 5.36498 -4.16349 0
M  V30 76 H 0.4983 6.21875 -2.08823 0
M  V30 77 H 0.4153 6.54198 -3.78894 0
M  V30 78 H 1.6833 7.2591 -2.84033 0
M  V30 79 N 5.9124 1.20967 1.01018 0
M  V30 80 C 7.1374 1.0503 1.78839 0
M  V30 81 C 7.5624 -0.395752 1.8389 0
M  V30 82 O 6.9204 -1.28529 1.27867 0
M  V30 83 C 6.9684 1.64602 3.2084 0
M  V30 84 O 6.0724 0.887988 4.02726 0
M  V30 85 H 5.4134 0.369987 0.551367 0
M  V30 86 H 7.9434 1.60399 1.27018 0
M  V30 87 H 7.9534 1.68607 3.71532 0
M  V30 88 H 6.6284 2.69841 3.16479 0
M  V30 89 H 5.2054 0.922648 3.61305 0
M  V30 90 N 7.3905 -1.2043 1.01659 0
M  V30 91 C 8.3005 -2.2689 0.596484 0
M  V30 92 C 9.3165 -1.70107 -0.36599 0
M  V30 93 O 10.4925 -2.00117 -0.226942 0
M  V30 94 C 7.5575 -3.4665 -0.0586659 0
M  V30 95 C 6.6185 -4.18662 0.949751 0
M  V30 96 C 5.8515 -5.32705 0.32577 0
M  V30 97 O 6.0745 -5.63656 -0.874509 0
M  V30 98 O 5.0085 -5.92803 1.04249 0
M  V30 99 H 8.8345 -2.65041 1.4828 0
M  V30 100 H 6.4195 -1.27048 0.786082 0
M  V30 101 H 8.3015 -4.19256 -0.424564 0
M  V30 102 H 6.9765 -3.10375 -0.91918 0
M  V30 103 H 5.8835 -3.48229 1.36702 0
M  V30 104 H 7.2165 -4.58878 1.78023 0
M  V30 105 N 8.8686 -0.792821 -1.36206 0
M  V30 106 C 10.0986 -0.378275 -2.03107 0
M  V30 107 C 10.5066 1.01119 -1.59911 0
M  V30 108 O 9.8496 1.66052 -0.785658 0
M  V30 109 C 9.9116 -0.366535 -3.57627 0
M  V30 110 C 9.5756 -1.70416 -4.24037 0
M  V30 111 C 10.5726 -2.6602 -4.46687 0
M  V30 112 C 8.2576 -1.98439 -4.6144 0
M  V30 113 C 10.2516 -3.8784 -5.05825 0
M  V30 114 C 7.9386 -3.20525 -5.20295 0
M  V30 115 C 8.9366 -4.15044 -5.42427 0
M  V30 116 O 8.6246 -5.34978 -6.00045 0
M  V30 117 H 8.3566 -0.153543 -0.658332 0
M  V30 118 H 10.9106 -1.07383 -1.75094 0
M  V30 119 H 9.1406 0.385539 -3.84773 0
M  V30 120 H 10.8296 0.0238088 -4.05893 0
M  V30 121 H 11.5956 -2.45658 -4.18183 0
M  V30 122 H 7.4746 -1.25686 -4.43536 0
M  V30 123 H 11.0186 -4.61628 -5.23015 0
M  V30 124 H 6.9156 -3.40764 -5.48225 0
M  V30 125 H 7.6836 -5.36088 -6.18508 0
M  V30 126 N 10.3467 1.47872 -0.545128 0
M  V30 127 C 11.2937 2.29849 0.2093 0
M  V30 128 C 12.2637 1.38313 0.919707 0
M  V30 129 O 13.4487 1.67277 0.917772 0
M  V30 130 C 10.5887 3.22019 1.24088 0
M  V30 131 C 9.7017 4.2864 0.537778 0
M  V30 132 C 8.8367 5.07973 1.5536 0
M  V30 133 C 7.8757 6.06381 0.8348 0
M  V30 134 N 7.0127 6.78717 1.79688 0
M  V30 135 H 11.8527 2.93845 -0.49591 0
M  V30 136 H 9.3897 1.44848 -0.256389 0
M  V30 137 H 11.3477 3.73868 1.85144 0
M  V30 138 H 9.9777 2.59914 1.91428 0
M  V30 139 H 9.0297 3.7994 -0.187046 0
M  V30 140 H 10.3417 4.98793 -0.0258907 0
M  V30 141 H 9.4957 5.63912 2.23803 0
M  V30 142 H 8.2347 4.37693 2.15118 0
M  V30 143 H 7.2397 5.49631 0.136388 0
M  V30 144 H 8.4647 6.78665 0.24313 0
M  V30 145 H 6.4107 6.11177 2.38326 0
M  V30 146 H 6.3277 7.44998 1.28505 0
M  V30 147 H 7.5957 7.39237 2.47282 0
M  V30 148 N 11.8248 0.280983 1.55075 0
M  V30 149 C 13.2358 -0.215629 1.85451 0
M  V30 150 C 13.5868 -1.54991 1.203 0
M  V30 151 O 12.7118 -2.10699 0.493435 0
M  V30 152 C 13.3068 -0.398026 3.36454 0
M  V30 153 C 11.8658 -0.838866 3.66933 0
M  V30 154 C 11.0128 0.064458 2.77225 0
M  V30 155 H 13.9638 0.502601 1.50531 0
M  V30 156 H 13.9848 -1.23569 3.59876 0
M  V30 157 H 13.4968 0.573241 3.83843 0
M  V30 158 H 11.5978 -1.8214 3.25048 0
M  V30 159 H 11.7108 -0.672123 4.74362 0
M  V30 160 H 10.0748 -0.452863 2.50642 0
M  V30 161 H 10.8578 1.03172 3.2743 0
M  V30 162 N 13.3029 -1.57598 0.00835791 0
M  V30 163 C 14.7189 -1.55764 -0.347822 0
M  V30 164 C 14.9189 -1.01186 -1.74252 0
M  V30 165 O 13.9749 -0.649371 -2.44007 0
M  V30 166 C 15.2879 -2.99927 -0.215407 0
M  V30 167 C 16.8359 -3.11656 -0.289725 0
M  V30 168 C 17.3109 -4.57621 -0.18634 0
M  V30 169 N 18.8019 -4.62557 -0.243978 0
M  V30 170 C 19.5369 -5.73094 -0.18745 0
M  V30 171 N 19.0329 -6.92753 -0.0810331 0
M  V30 172 N 20.8259 -5.61588 -0.239925 0
M  V30 173 H 12.9769 -1.91411 0.92062 0
M  V30 174 H 15.2399 -0.879562 0.353659 0
M  V30 175 H 14.9459 -3.43729 0.744512 0
M  V30 176 H 14.8199 -3.63865 -0.994097 0
M  V30 177 H 17.2069 -2.67779 -1.24009 0
M  V30 178 H 17.2879 -2.5048 0.51898 0
M  V30 179 H 16.9319 -5.02174 0.760519 0
M  V30 180 H 16.8619 -5.16752 -1.01364 0
M  V30 181 H 19.3529 -3.76481 -0.327217 0
M  V30 182 H 19.6659 -7.72787 -0.0440241 0
M  V30 183 H 18.0109 -6.94984 -0.0465419 0
M  V30 184 H 21.2019 -4.66996 -0.321317 0
M  V30 185 H 21.3749 -6.47714 -0.192407 0
M  V30 186 N 14.781 0.264519 -1.55364 0
M  V30 187 C 15.714 1.35297 -1.83766 0
M  V30 188 C 16.692 1.47171 -0.691336 0
M  V30 189 O 17.876 1.63663 -0.935238 0
M  V30 190 C 15.003 2.72847 -2.00679 0
M  V30 191 C 14.049 2.78214 -3.23263 0
M  V30 192 S 14.882 2.36601 -4.80396 0
M  V30 193 C 16.038 3.7611 -5.00292 0
M  V30 194 H 16.271 1.11003 -2.758 0
M  V30 195 H 13.804 0.464596 -1.47244 0
M  V30 196 H 15.762 3.52057 -2.11108 0
M  V30 197 H 14.423 2.94388 -1.09518 0
M  V30 198 H 13.616 3.7919 -3.3201 0
M  V30 199 H 13.218 2.07034 -3.11469 0
M  V30 200 H 15.51 4.71457 -4.86554 0
M  V30 201 H 16.453 3.7231 -6.02321 0
M  V30 202 H 16.861 3.67806 -4.28228 0
M  V30 203 N 16.2591 1.48442 0.529413 0
M  V30 204 C 17.1891 1.65902 1.64313 0
M  V30 205 C 18.1701 0.507897 1.6234 0
M  V30 206 O 19.3551 0.740503 1.79528 0
M  V30 207 C 16.4851 1.69911 3.02898 0
M  V30 208 C 15.4391 2.8453 3.19729 0
M  V30 209 C 14.7651 2.73629 4.59381 0
M  V30 210 C 16.0651 4.25821 3.02447 0
M  V30 211 H 17.7591 2.5914 1.49955 0
M  V30 212 H 15.3051 1.24709 0.719982 0
M  V30 213 H 17.2581 1.80715 3.80684 0
M  V30 214 H 15.9821 0.732524 3.18279 0
M  V30 215 H 14.6411 2.73283 2.44361 0
M  V30 216 H 14.2891 1.74938 4.71599 0
M  V30 217 H 13.9891 3.50541 4.71588 0
M  V30 218 H 15.5131 2.86401 5.39265 0
M  V30 219 H 16.9271 4.37898 3.70024 0
M  V30 220 H 15.3241 5.03735 3.26146 0
M  V30 221 H 16.3941 4.42244 1.98867 0
M  V30 222 N 17.7372 -0.778329 1.37039 0
M  V30 223 C 19.1482 -1.35421 1.28523 0
M  V30 224 C 19.4992 -1.96075 -0.0700901 0
M  V30 225 O 18.6242 -1.93352 -0.971801 0
M  V30 226 C 19.2192 -2.46211 2.32735 0
M  V30 227 C 17.7782 -2.99585 2.27873 0
M  V30 228 C 16.9252 -1.72748 2.16918 0
M  V30 229 H 19.8762 -0.5791 1.47757 0
M  V30 230 H 19.8972 -3.2552 1.9702 0
M  V30 231 H 19.4092 -2.02036 3.31365 0
M  V30 232 H 17.5102 -3.48152 1.32745 0
M  V30 233 H 17.6232 -3.55646 3.21018 0
M  V30 234 H 15.9872 -1.95416 1.63354 0
M  V30 235 H 16.7702 -1.30686 3.17452 0
M  V30 236 N 19.2153 -1.21501 -1.00376 0
M  V30 237 C 20.1623 -0.975387 -2.09177 0
M  V30 238 C 21.1323 0.0990615 -1.65804 0
M  V30 239 O 22.3173 -0.0483147 -1.90739 0
M  V30 240 C 19.4573 -0.547507 -3.40729 0
M  V30 241 C 18.5703 -1.69153 -3.97506 0
M  V30 242 C 17.7053 -1.2127 -5.17172 0
M  V30 243 C 16.7443 -2.32897 -5.66061 0
M  V30 244 N 15.8813 -1.86138 -6.76976 0
M  V30 245 H 20.7213 -1.9068 -2.29009 0
M  V30 246 H 18.2583 -0.950257 -1.12288 0
M  V30 247 H 20.2163 -0.280667 -4.16255 0
M  V30 248 H 18.8463 0.346904 -3.20931 0
M  V30 249 H 17.8983 -2.07298 -3.18954 0
M  V30 250 H 19.2103 -2.5316 -4.29781 0
M  V30 251 H 18.3643 -0.902591 -5.99948 0
M  V30 252 H 17.1033 -0.342692 -4.86495 0
M  V30 253 H 16.1083 -2.64709 -4.81881 0
M  V30 254 H 17.3333 -3.20396 -5.98768 0
M  V30 255 H 15.2793 -1.01484 -6.48103 0
M  V30 256 H 15.1963 -2.63717 -7.08512 0
M  V30 257 H 16.4643 -1.58165 -7.63285 0
M  V30 258 N 20.6934 1.19889 -1.02296 0
M  V30 259 C 21.6034 2.26571 -0.608508 0
M  V30 260 C 22.6194 1.70299 0.356964 0
M  V30 261 O 23.7954 2.00235 0.216326 0
M  V30 262 C 20.8604 3.46677 0.0402814 0
M  V30 263 C 19.9214 4.18153 -0.97194 0
M  V30 264 C 19.1544 5.32525 -0.354016 0
M  V30 265 O 19.3774 5.64112 0.844604 0
M  V30 266 O 18.3114 5.92242 -1.07391 0
M  V30 267 H 22.1374 2.64251 -1.49684 0
M  V30 268 H 19.7224 1.26629 -0.792809 0
M  V30 269 H 21.6044 4.19475 0.402324 0
M  V30 270 H 20.2794 3.10858 0.902707 0
M  V30 271 H 19.1864 3.47499 -1.38546 0
M  V30 272 H 20.5194 4.57927 -1.80454 0
M  V30 273 N 22.1715 0.800033 1.35784 0
M  V30 274 C 23.0815 0.207204 2.33683 0
M  V30 275 C 24.0975 -0.64631 1.61551 0
M  V30 276 O 25.2735 -0.559604 1.93469 0
M  V30 277 C 22.3385 -0.639659 3.40748 0
M  V30 278 C 21.3995 0.233585 4.28664 0
M  V30 279 C 20.6325 -0.572954 5.30616 0
M  V30 280 O 20.8555 -1.80816 5.40982 0
M  V30 281 O 19.7895 0.0327285 6.01891 0
M  V30 282 H 23.6155 1.01692 2.86169 0
M  V30 283 H 21.2005 0.561691 1.38439 0
M  V30 284 H 23.0825 -1.12223 4.06182 0
M  V30 285 H 21.7575 -1.42708 2.90544 0
M  V30 286 H 20.6645 0.763147 3.66233 0
M  V30 287 H 21.9975 0.984784 4.82248 0
M  V30 288 N 23.6496 -1.47581 0.552962 0
M  V30 289 C 24.5816 -2.27997 -0.234533 0
M  V30 290 C 25.5946 -1.36753 -0.883321 0
M  V30 291 O 26.7836 -1.61612 -0.757889 0
M  V30 292 C 23.8836 -3.10879 -1.34935 0
M  V30 293 C 23.0566 -4.30056 -0.798158 0
M  V30 294 C 22.1156 -4.94567 -1.79694 0
M  V30 295 O 21.1416 -5.53087 -1.34474 0
M  V30 296 N 22.3436 -4.88878 -3.13015 0
M  V30 297 H 25.1086 -2.96222 0.455255 0
M  V30 298 H 22.6696 -1.57163 0.388761 0
M  V30 299 H 24.6616 -3.50903 -2.01616 0
M  V30 300 H 23.2316 -2.44924 -1.94244 0
M  V30 301 H 22.4516 -3.94174 0.0453079 0
M  V30 302 H 23.7396 -5.07152 -0.409173 0
M  V30 303 H 23.1376 -4.42526 -3.52402 0
M  V30 304 H 21.6946 -5.32934 -3.75266 0
M  V30 305 N 25.1277 -0.289203 -1.54924 0
M  V30 306 C 26.3737 0.323998 -2.00195 0
M  V30 307 C 26.7067 1.54441 -1.17735 0
M  V30 308 O 25.9817 1.92875 -0.250878 0
M  V30 309 C 26.2647 0.692276 -3.53383 0
M  V30 310 C 26.1177 -0.536457 -4.46589 0
M  V30 311 C 27.4367 1.52335 -4.12895 0
M  V30 312 H 24.5557 0.116289 -0.727768 0
M  V30 313 H 27.1977 -0.398954 -1.85764 0
M  V30 314 H 25.3477 1.30822 -3.65811 0
M  V30 315 H 27.0197 -1.17499 -4.46085 0
M  V30 316 H 25.2627 -1.17192 -4.1767 0
M  V30 317 H 25.9337 -0.234806 -5.515 0
M  V30 318 H 28.4097 1.00302 -4.0383 0
M  V30 319 H 27.2857 1.74982 -5.20262 0
M  V30 320 H 27.5467 2.50886 -3.64018 0
M  V30 321 N 26.6058 1.57591 -0.0167156 0
M  V30 322 C 27.5528 2.09462 0.969251 0
M  V30 323 C 28.5228 0.99381 1.33089 0
M  V30 324 O 29.7078 1.26726 1.42636 0
M  V30 325 C 26.8478 2.61622 2.25051 0
M  V30 326 C 25.9608 3.85666 1.94642 0
M  V30 327 C 25.0958 4.26266 3.16972 0
M  V30 328 C 24.1348 5.43101 2.82326 0
M  V30 329 N 23.2718 5.78915 3.97243 0
M  V30 330 H 28.1118 2.93428 0.519997 0
M  V30 331 H 25.6488 1.45044 0.245087 0
M  V30 332 H 27.6068 2.89949 2.99976 0
M  V30 333 H 26.2368 1.80505 2.67615 0
M  V30 334 H 25.2888 3.64145 1.10013 0
M  V30 335 H 26.6008 4.70678 1.65117 0
M  V30 336 H 25.7548 4.55963 4.00228 0
M  V30 337 H 24.4938 3.39996 3.49648 0
M  V30 338 H 23.4988 5.1311 1.97479 0
M  V30 339 H 24.7238 6.3106 2.50879 0
M  V30 340 H 22.6698 4.95602 4.29785 0
M  V30 341 H 22.5868 6.58539 3.71299 0
M  V30 342 H 23.8548 6.13212 4.81239 0
M  V30 343 N 28.0839 -0.256276 1.55502 0
M  V30 344 C 29.0309 -1.31714 1.89526 0
M  V30 345 C 30.0009 -1.4828 0.748479 0
M  V30 346 O 31.1859 -1.62416 1.00128 0
M  V30 347 C 28.3259 -2.66933 2.18725 0
M  V30 348 C 27.4389 -2.58452 3.4616 0
M  V30 349 C 26.5739 -3.85961 3.64976 0
M  V30 350 C 25.6129 -3.72059 4.86044 0
M  V30 351 N 24.7499 -4.9144 5.01429 0
M  V30 352 H 29.5899 -1.01998 2.80001 0
M  V30 353 H 27.1269 -0.492413 1.38613 0
M  V30 354 H 29.0849 -3.4563 2.33657 0
M  V30 355 H 27.7149 -2.94816 1.31466 0
M  V30 356 H 26.7669 -1.71374 3.3961 0
M  V30 357 H 28.0789 -2.44085 4.34999 0
M  V30 358 H 27.2329 -4.73101 3.79816 0
M  V30 359 H 25.9719 -4.03215 2.74353 0
M  V30 360 H 24.9769 -2.83302 4.7119 0
M  V30 361 H 26.2019 -3.56309 5.78118 0
M  V30 362 H 24.1479 -5.09072 4.13741 0
M  V30 363 H 24.0649 -4.79668 5.84341 0
M  V30 364 H 25.3329 -5.80104 5.20672 0
M  V30 365 N 29.562 -1.4872 -0.521534 0
M  V30 366 C 30.973 -1.50607 -1.10337 0
M  V30 367 C 31.324 -0.280612 -1.94183 0
M  V30 368 O 30.449 0.611507 -2.0758 0
M  V30 369 C 31.044 -2.72903 -2.00772 0
M  V30 370 C 29.603 -2.77634 -2.54158 0
M  V30 371 C 28.75 -2.44241 -1.31307 0
M  V30 372 H 31.701 -1.55714 -0.306388 0
M  V30 373 H 31.722 -2.519 -2.85178 0
M  V30 374 H 31.234 -3.62077 -1.39721 0
M  V30 375 H 29.335 -1.92689 -3.18907 0
M  V30 376 H 29.448 -3.79283 -2.92714 0
M  V30 377 H 27.812 -1.95577 -1.63161 0
M  V30 378 H 28.595 -3.35666 -0.719943 0
M  V30 379 N 31.0401 0.771051 -1.3745 0
M  V30 380 C 31.9731 1.89166 -1.27638 0
M  V30 381 C 32.9511 1.61842 -0.156782 0
M  V30 382 O 34.1351 1.85569 -0.331111 0
M  V30 383 C 31.2621 3.24405 -0.973621 0
M  V30 384 C 30.3081 3.70638 -2.1102 0
M  V30 385 S 31.1411 3.84228 -3.73 0
M  V30 386 C 32.2971 5.22313 -3.44876 0
M  V30 387 H 32.5301 1.972 -2.22485 0
M  V30 388 H 30.0631 0.932224 -1.23081 0
M  V30 389 H 32.0211 4.02514 -0.805766 0
M  V30 390 H 30.6821 3.14071 -0.0426279 0
M  V30 391 H 29.8751 4.68685 -1.85338 0
M  V30 392 H 29.4771 2.99632 -2.23822 0
M  V30 393 H 31.7691 6.07505 -2.99908 0
M  V30 394 H 32.7121 5.53008 -4.42253 0
M  V30 395 H 33.1201 4.90284 -2.79789 0
M  V30 396 N 32.5182 1.22032 0.997298 0
M  V30 397 C 33.7462 1.06841 1.7718 0
M  V30 398 C 34.1612 -0.381325 1.84909 0
M  V30 399 O 33.5182 -1.26437 1.31605 0
M  V30 400 C 33.5692 1.66814 3.20711 0
M  V30 401 O 33.2902 3.06116 3.13408 0
M  V30 402 C 34.7912 1.56838 4.14628 0
M  V30 403 H 32.0112 0.374782 0.556578 0
M  V30 404 H 34.5552 1.61532 1.2541 0
M  V30 405 H 32.7102 1.16196 3.69564 0
M  V30 406 H 33.1242 3.34926 4.0364 0
M  V30 407 H 34.5982 2.03532 5.13107 0
M  V30 408 H 35.0752 0.524155 4.36061 0
M  V30 409 H 35.6812 2.06741 3.7167 0
M  V30 410 N 33.9963 -1.19345 1.0293 0
M  V30 411 C 35.2213 -1.93538 0.745511 0
M  V30 412 C 35.6463 -1.75007 -0.689511 0
M  V30 413 O 35.0043 -1.05265 -1.47611 0
M  V30 414 C 35.0523 -3.43336 1.10239 0
M  V30 415 O 34.1563 -4.11806 0.221289 0
M  V30 416 H 33.4973 -0.604193 0.275404 0
M  V30 417 H 36.0273 -1.5141 1.37609 0
M  V30 418 H 36.0373 -3.94004 1.05947 0
M  V30 419 H 34.7123 -3.56146 2.14786 0
M  V30 420 H 33.2893 -3.715 0.322842 0
M  V30 421 N 35.4744 -0.807222 -1.35358 0
M  V30 422 C 36.4224 -0.20614 -2.31685 0
M  V30 423 C 37.4164 0.644445 -1.56663 0
M  V30 424 O 38.6224 0.537538 -1.71786 0
M  V30 425 H 34.9974 -0.0479006 -0.750473 0
M  V30 426 H 36.9684 -1.03369 -2.79924 0
M  V30 427 C 35.7174 0.630212 -3.41941 0
M  V30 428 H 35.0404 -0.0149558 -3.99797 0
M  V30 429 H 36.4804 1.01716 -4.11619 0
M  V30 430 C 34.9394 1.79601 -2.85035 0
M  V30 431 O 35.4694 2.89351 -2.78637 0
M  V30 432 N 33.6754 1.60774 -2.42074 0
M  V30 433 H 33.2224 0.715009 -2.47478 0
M  V30 434 H 33.1804 2.38933 -2.04349 0
M  V30 435 N 36.9525 1.47285 -0.560781 0
M  V30 436 C 38.2005 2.02064 -0.0379868 0
M  V30 437 C 38.5215 1.43711 1.31803 0
M  V30 438 O 37.7915 0.61362 1.86042 0
M  V30 439 H 36.3715 0.746918 -0.0110531 0
M  V30 440 H 39.0335 1.80648 -0.731598 0
M  V30 441 H 38.1295 3.12064 0.0474463 0
M  V30 442 N 38.4306 0.297415 1.54768 0
M  V30 443 C 39.8466 -0.0560823 1.59501 0
M  V30 444 C 40.0466 -1.52725 1.31444 0
M  V30 445 O 39.1026 -2.27947 1.08611 0
M  V30 446 C 40.4156 0.338631 2.98787 0
M  V30 447 C 41.9636 0.287097 3.11681 0
M  V30 448 C 42.4386 0.656579 4.53269 0
M  V30 449 N 43.9296 0.608977 4.59179 0
M  V30 450 C 44.6646 0.867385 5.66802 0
M  V30 451 N 44.1606 1.19157 6.82476 0
M  V30 452 N 45.9536 0.794687 5.56454 0
M  V30 453 H 38.1046 1.25624 1.71267 0
M  V30 454 H 40.3676 0.509057 0.799728 0
M  V30 455 H 40.0736 1.36263 3.2423 0
M  V30 456 H 39.9476 -0.309508 3.75928 0
M  V30 457 H 42.3346 -0.727649 2.85988 0
M  V30 458 H 42.4156 0.969809 2.36703 0
M  V30 459 H 42.0596 1.66912 4.7969 0
M  V30 460 H 41.9896 -0.0481649 5.26578 0
M  V30 461 H 44.4806 0.369198 3.76092 0
M  V30 462 H 44.7936 1.37482 7.60473 0
M  V30 463 H 43.1386 1.22958 6.84037 0
M  V30 464 H 46.3296 0.541098 4.64962 0
M  V30 465 H 46.5026 0.999445 6.40246 0
M  V30 466 N 39.9087 -1.5758 0.0250728 0
M  V30 467 C 41.1577 -1.90811 -0.653767 0
M  V30 468 C 41.4707 -0.90273 -1.73523 0
M  V30 469 O 42.6767 -1.12614 -2.47043 0
M  V30 470 C 41.1327 -3.38804 -1.21409 0
M  V30 471 C 40.7407 -4.47692 -0.166126 0
M  V30 472 C 42.4847 -3.81108 -1.86967 0
M  V30 473 C 40.3917 -5.86779 -0.737856 0
M  V30 474 H 39.3217 -0.712063 -0.247956 0
M  V30 475 H 41.9727 -1.83281 0.0897137 0
M  V30 476 H 40.3547 -3.41252 -2.00905 0
M  V30 477 H 41.5287 -4.56797 0.606079 0
M  V30 478 H 39.8437 -4.14565 0.390466 0
M  V30 479 H 42.4407 -4.82375 -2.30692 0
M  V30 480 H 42.7837 -3.15953 -2.71071 0
M  V30 481 H 43.3167 -3.81065 -1.14167 0
M  V30 482 H 40.0557 -6.55468 0.0649577 0
M  V30 483 H 39.5757 -5.81288 -1.47864 0
M  V30 484 H 41.2547 -6.35223 -1.22884 0
M  V30 485 N 41.3868 0.248026 -1.55636 0
M  V30 486 C 42.6118 0.998028 -1.81808 0
M  V30 487 C 43.0368 1.78207 -0.601979 0
M  V30 488 O 42.3948 1.75653 0.448961 0
M  V30 489 C 42.4428 1.9125 -3.05705 0
M  V30 490 O 41.5468 3.00406 -2.82542 0
M  V30 491 H 40.8878 0.284045 -0.600179 0
M  V30 492 H 43.4178 0.269357 -2.02819 0
M  V30 493 H 43.4278 2.32737 -3.35108 0
M  V30 494 H 42.1028 1.33602 -3.93857 0
M  V30 495 H 40.6798 2.63056 -2.64303 0
M  V30 496 N 42.8649 1.48995 0.513639 0
M  V30 497 C 44.1119 1.57843 1.26854 0
M  V30 498 C 44.4399 0.259501 1.92761 0
M  V30 499 O 43.6949 -0.75159 1.80692 0
M  V30 500 C 43.9939 2.67756 2.36731 0
M  V30 501 C 43.6599 4.09669 1.88368 0
M  V30 502 C 42.3219 4.48291 1.74896 0
M  V30 503 C 44.6739 4.98537 1.52021 0
M  V30 504 C 42.0019 5.73568 1.23438 0
M  V30 505 C 44.3539 6.24319 1.0202 0
M  V30 506 C 43.0179 6.61783 0.871778 0
M  V30 507 H 42.2879 0.577587 0.464192 0
M  V30 508 H 44.9349 1.82778 0.571366 0
M  V30 509 H 43.2399 2.36743 3.12185 0
M  V30 510 H 44.9369 2.71813 2.9482 0
M  V30 511 H 41.5269 3.79176 1.99808 0
M  V30 512 H 45.7109 4.69363 1.61281 0
M  V30 513 H 40.9669 6.01304 1.10648 0
M  V30 514 H 45.1409 6.92566 0.729722 0
M  V30 515 H 42.7679 7.5874 0.470852 0
M  V30 516 N 44.343 -0.763751 1.37857 0
M  V30 517 C 45.589 -1.52483 1.33704 0
M  V30 518 C 45.922 -1.94051 -0.0759612 0
M  V30 519 O 45.197 -1.64675 -1.03501 0
M  V30 520 C 45.48 -2.78441 2.28348 0
M  V30 521 C 45.333 -2.43075 3.78463 0
M  V30 522 C 46.652 -3.80415 2.21298 0
M  V30 523 H 43.771 -0.553169 0.487005 0
M  V30 524 H 46.413 -0.875562 1.68624 0
M  V30 525 H 44.563 -3.33842 1.987 0
M  V30 526 H 46.235 -1.93527 4.18742 0
M  V30 527 H 44.478 -1.75666 3.96641 0
M  V30 528 H 45.149 -3.33149 4.40132 0
M  V30 529 H 47.625 -3.34527 2.47449 0
M  V30 530 H 46.501 -4.66257 2.89647 0
M  V30 531 H 46.762 -4.25262 1.20849 0
M  V30 532 N 45.8211 -1.22559 -0.990812 0
M  V30 533 C 46.7511 -1.0218 -2.09956 0
M  V30 534 C 47.7321 0.0579394 -1.70001 0
M  V30 535 O 48.9171 -0.104684 -1.93918 0
M  V30 536 C 46.0471 -0.601023 -3.4206 0
M  V30 537 C 45.0011 -1.62694 -3.95872 0
M  V30 538 C 44.3271 -1.06193 -5.24049 0
M  V30 539 C 45.6271 -3.01743 -4.2632 0
M  V30 540 H 47.3211 -1.94916 -2.27262 0
M  V30 541 H 44.8671 -0.938566 -1.09211 0
M  V30 542 H 46.8201 -0.445561 -4.19038 0
M  V30 543 H 45.5441 0.362005 -3.24588 0
M  V30 544 H 44.2031 -1.77021 -3.21028 0
M  V30 545 H 43.8511 -0.0901903 -5.02919 0
M  V30 546 H 43.5511 -1.74732 -5.61019 0
M  V30 547 H 45.0751 -0.918092 -6.03658 0
M  V30 548 H 46.4891 -2.90777 -4.94087 0
M  V30 549 H 44.8861 -3.67425 -4.74467 0
M  V30 550 H 45.9561 -3.51518 -3.34011 0
M  V30 551 N 47.2992 1.18797 -1.03562 0
M  V30 552 C 48.2322 2.2105 -0.56676 0
M  V30 553 C 49.2102 1.57704 0.395993 0
M  V30 554 O 50.3942 1.85908 0.311498 0
M  V30 555 C 47.5212 3.38259 0.172704 0
M  V30 556 C 46.5672 4.19987 -0.74252 0
M  V30 557 S 47.4002 4.87199 -2.22254 0
M  V30 558 C 48.5562 6.07813 -1.49379 0
M  V30 559 H 48.7892 2.60478 -1.43312 0
M  V30 560 H 46.3222 1.29151 -0.846133 0
M  V30 561 H 48.2802 4.06191 0.593191 0
M  V30 562 H 46.9412 2.97252 1.01488 0
M  V30 563 H 46.1342 5.03709 -0.171265 0
M  V30 564 H 45.7362 3.57408 -1.10163 0
M  V30 565 H 48.0282 6.72948 -0.784056 0
M  V30 566 H 48.9712 6.69435 -2.30786 0
M  V30 567 H 49.3792 5.55781 -0.988331 0
M  V30 568 N 48.7773 0.814389 1.34928 0
M  V30 569 C 49.7403 0.235759 2.27984 0
M  V30 570 C 50.7403 -0.581412 1.49921 0
M  V30 571 O 51.9303 -0.398758 1.69575 0
M  V30 572 C 49.0623 -0.670433 3.34242 0
M  V30 573 H 50.2553 1.05659 2.80671 0
M  V30 574 H 47.8083 0.585614 1.44915 0
M  V30 575 H 48.5433 -1.51466 2.86755 0
M  V30 576 H 48.3283 -0.0860822 3.92005 0
M  V30 577 H 49.8183 -1.06935 4.03676 0
M  V30 578 N 50.2554 -1.46986 0.568584 0
M  V30 579 C 51.1884 -2.27129 -0.220779 0
M  V30 580 C 52.1664 -1.34757 -0.909905 0
M  V30 581 O 53.3504 -1.64152 -0.926622 0
M  V30 582 C 50.4774 -3.12108 -1.31553 0
M  V30 583 C 49.5234 -4.20141 -0.733748 0
M  V30 584 S 50.3564 -5.33783 0.428479 0
M  V30 585 C 51.5124 -6.22327 -0.667811 0
M  V30 586 H 51.7454 -2.93731 0.459267 0
M  V30 587 H 49.2784 -1.5026 0.355154 0
M  V30 588 H 51.2364 -3.61636 -1.94241 0
M  V30 589 H 49.8974 -2.44847 -1.96746 0
M  V30 590 H 49.0904 -4.79373 -1.5562 0
M  V30 591 H 48.6924 -3.73553 -0.182812 0
M  V30 592 H 50.9844 -6.59364 -1.55708 0
M  V30 593 H 51.9274 -7.0801 -0.11258 0
M  V30 594 H 52.3354 -5.5618 -0.965601 0
M  V30 595 N 51.7335 -0.305618 -1.54608 0
M  V30 596 C 52.6965 0.555591 -2.22364 0
M  V30 597 C 53.6965 1.05768 -1.21119 0
M  V30 598 O 54.8865 0.952972 -1.45822 0
M  V30 599 C 52.0185 1.76974 -2.91364 0
M  V30 600 H 53.2115 -0.0364572 -2.99878 0
M  V30 601 H 50.7645 -0.0565007 -1.56198 0
M  V30 602 H 51.4995 2.40151 -2.17941 0
M  V30 603 H 51.2845 1.41732 -3.65588 0
M  V30 604 H 52.7745 2.38148 -3.43038 0
M  V30 605 N 53.2116 1.57565 -0.0334293 0
M  V30 606 C 54.4576 1.92262 0.645226 0
M  V30 607 C 54.7906 0.910543 1.71531 0
M  V30 608 O 54.0656 -0.066099 1.94388 0
M  V30 609 C 54.3486 3.37422 1.2577 0
M  V30 610 C 54.2016 4.49369 0.196891 0
M  V30 611 C 55.5206 3.82628 2.17449 0
M  V30 612 H 52.6396 0.699171 0.233085 0
M  V30 613 H 55.2816 1.89779 -0.0915694 0
M  V30 614 H 53.4316 3.39669 1.88566 0
M  V30 615 H 55.1036 4.59254 -0.433962 0
M  V30 616 H 53.3466 4.31168 -0.477137 0
M  V30 617 H 54.0176 5.47978 0.665124 0
M  V30 618 H 56.4936 3.82145 1.64634 0
M  V30 619 H 55.3696 4.84883 2.57254 0
M  V30 620 H 55.6306 3.18376 3.0674 0
M  V30 621 N 54.6897 -0.239769 1.55765 0
M  V30 622 C 55.6197 -1.30052 1.9393 0
M  V30 623 C 56.6007 -1.49839 0.805132 0
M  V30 624 O 57.7857 -1.62328 1.06599 0
M  V30 625 C 54.9157 -2.65391 2.2402 0
M  V30 626 C 53.8697 -2.60289 3.39755 0
M  V30 627 C 53.1957 -3.99489 3.55405 0
M  V30 628 C 54.4957 -2.16654 4.75246 0
M  V30 629 H 56.1897 -0.983573 2.82783 0
M  V30 630 H 53.7357 -0.471701 1.36055 0
M  V30 631 H 55.6887 -3.3974 2.49308 0
M  V30 632 H 54.4127 -2.98736 1.32 0
M  V30 633 H 53.0717 -1.88398 3.14487 0
M  V30 634 H 52.7197 -4.30112 2.60793 0
M  V30 635 H 52.4197 -3.96962 4.33238 0
M  V30 636 H 53.9437 -4.75528 3.83022 0
M  V30 637 H 55.3577 -2.80737 4.99859 0
M  V30 638 H 53.7547 -2.25223 5.56232 0
M  V30 639 H 54.8247 -1.11835 4.71827 0
M  V30 640 N 56.1678 -1.49265 -0.50573 0
M  V30 641 C 57.4148 -1.58513 -1.26015 0
M  V30 642 C 57.7428 -0.26972 -1.92621 0
M  V30 643 O 56.9978 0.741997 -1.81088 0
M  V30 644 C 57.2968 -2.69008 -2.35308 0
M  V30 645 C 56.9628 -4.10662 -1.86192 0
M  V30 646 C 55.6248 -4.49212 -1.72516 0
M  V30 647 C 57.9768 -4.99336 -1.49375 0
M  V30 648 C 55.3048 -5.74214 -1.20394 0
M  V30 649 C 57.6568 -6.24852 -0.987072 0
M  V30 650 C 56.3208 -6.62236 -0.836669 0
M  V30 651 H 55.5908 -0.580041 -0.461122 0
M  V30 652 H 58.2378 -1.83078 -0.561665 0
M  V30 653 H 56.5428 -2.38396 -3.10926 0
M  V30 654 H 58.2398 -2.73373 -2.93374 0
M  V30 655 H 54.8298 -3.8023 -1.97795 0
M  V30 656 H 59.0138 -4.70212 -1.5879 0
M  V30 657 H 54.2698 -6.01883 -1.07458 0
M  V30 658 H 58.4438 -6.92944 -0.692983 0
M  V30 659 H 56.0708 -7.58979 -0.430607 0
M  V30 660 N 57.6459 0.756429 -1.3826 0
M  V30 661 C 58.6089 1.85176 -1.35065 0
M  V30 662 C 59.6089 1.58818 -0.251703 0
M  V30 663 O 60.7989 1.66615 -0.508433 0
M  V30 664 C 57.9309 3.22596 -1.10201 0
M  V30 665 H 59.1239 1.89417 -2.3251 0
M  V30 666 H 56.6769 0.95783 -1.23512 0
M  V30 667 H 57.4119 3.24025 -0.133504 0
M  V30 668 H 57.1969 3.43122 -1.89762 0
M  V30 669 H 58.6869 4.02673 -1.10654 0
M  V30 670 N 59.124 1.23083 0.984299 0
M  V30 671 C 60.364 1.07226 1.74017 0
M  V30 672 C 60.728 -0.384766 1.88105 0
M  V30 673 O 61.929 -0.664411 2.60459 0
M  V30 674 C 60.2 1.77348 3.10294 0
M  V30 675 S 61.759 1.77014 4.01512 0
M  V30 676 H 58.577 0.383819 0.598502 0
M  V30 677 H 61.179 1.56158 1.17622 0
M  V30 678 H 59.883 2.82506 2.97689 0
M  V30 679 H 59.414 1.28682 3.71759 0
M  V30 680 H 61.429 0.825956 4.89277 0
M  V30 681 N 60.6021 -1.18246 1.0419 0
M  V30 682 C 61.5321 -2.24127 0.654914 0
M  V30 683 C 62.5131 -1.66617 -0.342451 0
M  V30 684 O 63.6981 -1.92924 -0.222277 0
M  V30 685 C 60.8281 -3.47295 0.0183757 0
M  V30 686 C 59.7821 -4.17563 0.939414 0
M  V30 687 C 59.1081 -5.34438 0.167286 0
M  V30 688 C 60.4081 -4.70917 2.25908 0
M  V30 689 H 62.1021 -2.56753 1.54007 0
M  V30 690 H 59.6481 -1.23414 0.74195 0
M  V30 691 H 61.6011 -4.20572 -0.264082 0
M  V30 692 H 60.3251 -3.13907 -0.901664 0
M  V30 693 H 58.9841 -3.46186 1.20628 0
M  V30 694 H 58.6321 -4.97298 -0.7552 0
M  V30 695 H 58.3321 -5.82388 0.780901 0
M  V30 696 H 59.8561 -6.10504 -0.108125 0
M  V30 697 H 61.2701 -5.35882 2.03724 0
M  V30 698 H 59.6671 -5.29406 2.82577 0
M  V30 699 H 60.7371 -3.88272 2.9047 0
M  V30 700 N 62.0802 -0.821533 -1.34494 0
M  V30 701 C 63.3292 -0.405355 -1.97585 0
M  V30 702 C 63.6422 1.03677 -1.65863 0
M  V30 703 O 64.8482 1.55679 -2.22433 0
M  V30 704 C 63.3042 -0.673861 -3.53535 0
M  V30 705 C 62.9122 -2.12951 -3.94152 0
M  V30 706 C 64.6562 -0.32378 -4.23263 0
M  V30 707 C 62.5632 -2.34298 -5.43009 0
M  V30 708 H 61.4932 -0.147836 -0.739365 0
M  V30 709 H 64.1442 -1.00769 -1.53355 0
M  V30 710 H 62.5262 -0.00137554 -3.96 0
M  V30 711 H 63.7002 -2.84104 -3.62797 0
M  V30 712 H 62.0152 -2.44089 -3.37356 0
M  V30 713 H 64.6122 -0.461126 -5.32708 0
M  V30 714 H 64.9552 0.731586 -4.09821 0
M  V30 715 H 65.4882 -0.950786 -3.8627 0
M  V30 716 H 62.2272 -3.38335 -5.61435 0
M  V30 717 H 61.7472 -1.67687 -5.75883 0
M  V30 718 H 63.4262 -2.16588 -6.09671 0
M  V30 719 N 63.5583 1.46682 -0.576371 0
M  V30 720 C 64.5213 2.28707 0.150239 0
M  V30 721 C 65.5213 1.38035 0.824794 0
M  V30 722 O 66.7113 1.60476 0.677719 0
M  V30 723 C 63.8433 3.18248 1.22192 0
M  V30 724 H 65.0363 2.94423 -0.570521 0
M  V30 725 H 62.5893 1.52688 -0.334078 0
M  V30 726 H 63.3243 2.57265 1.97447 0
M  V30 727 H 63.1093 3.85 0.742812 0
M  V30 728 H 64.5993 3.80001 1.73172 0
M  V30 729 N 65.0364 0.313813 1.54444 0
M  V30 730 C 66.4524 -0.0391619 1.59552 0
M  V30 731 C 66.6524 -1.51322 1.33056 0
M  V30 732 O 65.7084 -2.26782 1.11022 0
M  V30 733 C 67.0214 0.370302 2.98411 0
M  V30 734 C 68.5694 0.320139 3.11358 0
M  V30 735 C 69.0444 0.704617 4.52547 0
M  V30 736 N 70.5354 0.657645 4.58508 0
M  V30 737 C 71.2704 0.927453 5.6585 0
M  V30 738 N 70.7664 1.26389 6.81174 0
M  V30 739 N 72.5594 0.853662 5.5558 0
M  V30 740 H 64.7104 1.27433 1.69925 0
M  V30 741 H 66.9734 0.517511 0.794284 0
M  V30 742 H 66.6794 1.39694 3.22767 0
M  V30 743 H 66.5534 -0.269619 3.76235 0
M  V30 744 H 68.9404 -0.697275 2.86744 0
M  V30 745 H 69.0214 0.99486 2.35661 0
M  V30 746 H 68.6654 1.7199 4.77893 0
M  V30 747 H 68.5954 0.00768843 5.26599 0
M  V30 748 H 71.0864 0.409067 3.75679 0
M  V30 749 H 71.3994 1.4554 7.58972 0
M  V30 750 H 69.7444 1.30206 6.82694 0
M  V30 751 H 72.9354 0.590383 4.64362 0
M  V30 752 H 73.1084 1.0673 6.3915 0
M  V30 753 N 66.5145 -1.57545 0.0417849 0
M  V30 754 C 67.7625 -1.91937 -0.632829 0
M  V30 755 C 68.0835 -0.919978 -1.71934 0
M  V30 756 O 67.3535 0.0366064 -1.95866 0
M  V30 757 H 65.9335 -0.708493 -0.236742 0
M  V30 758 H 68.5955 -1.9468 0.0925745 0
M  V30 759 H 67.6915 -2.92912 -1.07746 0
M  V30 760 N 67.9926 0.231505 -1.5589 0
M  V30 761 C 68.9226 1.29022 -1.94617 0
M  V30 762 C 69.9036 1.4941 -0.813067 0
M  V30 763 O 71.0886 1.6176 -1.07459 0
M  V30 764 C 68.2186 2.64199 -2.25424 0
M  V30 765 C 67.1726 2.58484 -3.41131 0
M  V30 766 C 66.4986 3.97599 -3.57518 0
M  V30 767 C 67.7986 2.1413 -4.76388 0
M  V30 768 H 69.4926 0.968563 -2.83301 0
M  V30 769 H 67.0386 0.464479 -1.36303 0
M  V30 770 H 68.9916 3.38413 -2.51107 0
M  V30 771 H 67.7156 2.98032 -1.33583 0
M  V30 772 H 66.3746 1.86727 -3.15481 0
M  V30 773 H 66.0226 4.28723 -2.6307 0
M  V30 774 H 65.7226 3.94659 -4.35337 0
M  V30 775 H 67.2466 4.7349 -3.85538 0
M  V30 776 H 68.6606 2.78083 -5.01341 0
M  V30 777 H 67.0576 2.2227 -5.57419 0
M  V30 778 H 68.1276 1.09331 -4.72414 0
M  V30 779 N 69.4707 1.49531 0.497807 0
M  V30 780 C 70.7007 1.62657 1.27382 0
M  V30 781 C 71.1087 0.298488 1.86831 0
M  V30 782 O 70.4517 -0.72647 1.68725 0
M  V30 783 C 70.5137 2.6393 2.44093 0
M  V30 784 C 70.1777 4.08195 2.05489 0
M  V30 785 C 71.1747 4.949 1.59279 0
M  V30 786 C 68.8597 4.53948 2.15026 0
M  V30 787 C 70.8537 6.25397 1.23113 0
M  V30 788 C 68.5407 5.84458 1.78473 0
M  V30 789 C 69.5387 6.70006 1.32591 0
M  V30 790 O 69.2267 7.98083 0.965327 0
M  V30 791 H 68.9587 0.550429 0.392434 0
M  V30 792 H 71.5127 1.96325 0.603801 0
M  V30 793 H 69.7427 2.25449 3.14181 0
M  V30 794 H 71.4317 2.66552 3.06113 0
M  V30 795 H 72.1977 4.60779 1.51354 0
M  V30 796 H 68.0767 3.87525 2.4969 0
M  V30 797 H 71.6207 6.92125 0.872299 0
M  V30 798 H 67.5177 6.18107 1.86048 0
M  V30 799 H 68.2857 8.11122 1.09652 0
M  V30 800 N 70.9488 -0.749086 1.3866 0
M  V30 801 C 71.8788 -1.8764 1.38973 0
M  V30 802 C 72.8598 -1.68178 0.255004 0
M  V30 803 O 74.0448 -1.88704 0.458754 0
M  V30 804 C 71.1748 -3.25222 1.21851 0
M  V30 805 C 70.1288 -3.59295 2.32575 0
M  V30 806 C 69.4548 -4.95663 2.00555 0
M  V30 807 C 70.7548 -3.63709 3.7485 0
M  V30 808 H 72.4488 -1.87635 2.3331 0
M  V30 809 H 69.9948 -0.901329 1.12303 0
M  V30 810 H 71.9478 -4.03746 1.20695 0
M  V30 811 H 70.6718 -3.25719 0.239775 0
M  V30 812 H 69.3308 -2.83093 2.32925 0
M  V30 813 H 68.9788 -4.92724 1.01154 0
M  V30 814 H 68.6788 -5.19429 2.74714 0
M  V30 815 H 70.2028 -5.7656 2.01024 0
M  V30 816 H 71.6168 -4.32338 3.76506 0
M  V30 817 H 70.0138 -3.98986 4.48252 0
M  V30 818 H 71.0838 -2.63834 4.06841 0
M  V30 819 N 72.4269 -1.23603 -0.977757 0
M  V30 820 C 73.3589 -0.977369 -2.07317 0
M  V30 821 C 74.3719 0.0495845 -1.62724 0
M  V30 822 O 75.5609 -0.186261 -1.77526 0
M  V30 823 C 72.6609 -0.451216 -3.35883 0
M  V30 824 C 71.8339 -1.53896 -4.09432 0
M  V30 825 C 70.8929 -1.01721 -5.16274 0
M  V30 826 O 69.9189 -1.70676 -5.43009 0
M  V30 827 N 71.1209 0.153594 -5.80297 0
M  V30 828 H 73.8859 -1.92047 -2.30082 0
M  V30 829 H 71.4469 -1.14497 -1.14465 0
M  V30 830 H 73.4389 -0.0871574 -4.04606 0
M  V30 831 H 72.0089 0.397368 -3.10064 0
M  V30 832 H 71.2289 -2.07566 -3.35127 0
M  V30 833 H 72.5169 -2.27037 -4.55337 0
M  V30 834 H 71.9149 0.730323 -5.60966 0
M  V30 835 H 70.4719 0.458892 -6.50183 0
M  V30 836 N 73.905 1.17692 -1.04816 0
M  V30 837 C 75.133 1.91786 -0.776254 0
M  V30 838 C 75.548 1.76604 0.667577 0
M  V30 839 O 74.905 1.10067 1.45573 0
M  V30 840 C 74.956 3.42967 -1.14263 0
M  V30 841 O 74.677 3.57678 -2.52978 0
M  V30 842 C 76.178 4.34144 -0.896311 0
M  V30 843 H 73.398 0.608624 -0.282519 0
M  V30 844 H 75.942 1.49268 -1.39783 0
M  V30 845 H 74.097 3.83245 -0.565874 0
M  V30 846 H 74.511 4.51319 -2.67229 0
M  V30 847 H 75.985 5.38744 -1.20244 0
M  V30 848 H 76.462 4.38876 0.168636 0
M  V30 849 H 77.068 3.99574 -1.45672 0
M  V30 850 N 75.3831 0.828654 1.34056 0
M  V30 851 C 76.6291 0.42008 1.98402 0
M  V30 852 C 76.9621 -1.01564 1.65525 0
M  V30 853 O 76.2371 -1.70834 0.929831 0
M  V30 854 C 76.5201 0.62927 3.54559 0
M  V30 855 C 76.3731 2.11152 3.97159 0
M  V30 856 C 77.6921 0.0688756 4.40046 0
M  V30 857 H 74.8111 0.154104 0.720709 0
M  V30 858 H 77.4531 1.04228 1.5886 0
M  V30 859 H 75.6031 0.0996418 3.88372 0
M  V30 860 H 77.2751 2.70522 3.73651 0
M  V30 861 H 75.5181 2.59985 3.47261 0
M  V30 862 H 76.1891 2.20868 5.05887 0
M  V30 863 H 78.6651 0.521458 4.1282 0
M  V30 864 H 77.5411 0.245006 5.48353 0
M  V30 865 H 77.8021 -1.0266 4.30015 0
M  V30 866 N 76.8612 -1.46375 0.584142 0
M  V30 867 C 78.0892 -2.06761 0.0759296 0
M  V30 868 C 78.5042 -1.43266 -1.22965 0
M  V30 869 O 77.8612 -0.538458 -1.74376 0
M  V30 870 C 77.9122 -3.61375 -0.0950384 0
M  V30 871 O 77.6332 -4.22495 1.15887 0
M  V30 872 C 79.1342 -4.38693 -0.637434 0
M  V30 873 H 76.3542 -0.668479 0.0581075 0
M  V30 874 H 78.8982 -1.8798 0.805218 0
M  V30 875 H 77.0532 -3.79578 -0.774554 0
M  V30 876 H 77.4672 -5.15385 0.973598 0
M  V30 877 H 78.9412 -5.47464 -0.706237 0
M  V30 878 H 79.4182 -4.06836 -1.65472 0
M  V30 879 H 80.0242 -4.25299 0.00725967 0
M  V30 880 N 78.3393 -0.321999 -1.54275 0
M  V30 881 C 79.5693 0.282642 -2.04658 0
M  V30 882 C 79.9773 1.46453 -1.19784 0
M  V30 883 O 79.3203 1.82367 -0.220932 0
M  V30 884 C 79.3823 0.781857 -3.50895 0
M  V30 885 C 79.0463 -0.277517 -4.56157 0
M  V30 886 C 80.0433 -1.11307 -5.07845 0
M  V30 887 C 77.7283 -0.425256 -5.00497 0
M  V30 888 C 79.7223 -2.08211 -6.02434 0
M  V30 889 C 77.4093 -1.39771 -5.94901 0
M  V30 890 C 78.4073 -2.2246 -6.45756 0
M  V30 891 O 78.0953 -3.18054 -7.38307 0
M  V30 892 H 77.8273 0.0622636 -0.673126 0
M  V30 893 H 80.3813 -0.465792 -2.00049 0
M  V30 894 H 78.6113 1.58118 -3.52896 0
M  V30 895 H 80.3003 1.30467 -3.84361 0
M  V30 896 H 81.0663 -1.00991 -4.74369 0
M  V30 897 H 76.9453 0.20847 -4.60528 0
M  V30 898 H 80.4893 -2.72791 -6.42052 0
M  V30 899 H 76.3863 -1.50152 -6.27794 0
M  V30 900 H 77.1543 -3.13275 -7.56175 0
M  V30 901 N 79.8174 1.5752 -0.0501392 0
M  V30 902 C 80.7654 2.12651 0.942459 0
M  V30 903 C 81.7594 1.05807 1.32292 0
M  V30 904 O 82.9654 1.24217 1.3027 0
M  V30 905 H 79.3404 0.679673 0.321789 0
M  V30 906 H 81.3114 2.94951 0.452356 0
M  V30 907 C 80.0604 2.68565 2.20836 0
M  V30 908 H 79.3834 3.50439 1.92439 0
M  V30 909 H 80.8234 3.10761 2.8845 0
M  V30 910 C 79.2824 1.62291 2.95234 0
M  V30 911 O 79.8124 1.03508 3.88135 0
M  V30 912 N 78.0184 1.33836 2.57946 0
M  V30 913 H 77.5654 1.81826 1.82475 0
M  V30 914 H 77.5234 0.629595 3.08032 0
M  V30 915 N 81.2955 -0.223234 1.56011 0
M  V30 916 C 82.5425 -0.947875 1.78946 0
M  V30 917 C 82.8705 -1.844 0.618608 0
M  V30 918 O 82.1255 -1.91629 -0.397093 0
M  V30 919 C 82.4245 -1.81948 3.0762 0
M  V30 920 C 82.0905 -1.07672 4.37856 0
M  V30 921 C 80.7525 -0.871544 4.73242 0
M  V30 922 C 83.1045 -0.552081 5.18268 0
M  V30 923 C 80.4325 -0.129791 5.86556 0
M  V30 924 C 82.7845 0.17632 6.32354 0
M  V30 925 C 81.4485 0.39277 6.66343 0
M  V30 926 H 80.7185 -0.346852 0.654809 0
M  V30 927 H 83.3655 -0.216171 1.90276 0
M  V30 928 H 81.6705 -2.61899 2.91404 0
M  V30 929 H 83.3675 -2.38227 3.22566 0
M  V30 930 H 79.9575 -1.24662 4.1007 0
M  V30 931 H 84.1415 -0.698076 4.91366 0
M  V30 932 H 79.3975 0.048153 6.11381 0
M  V30 933 H 83.5715 0.590367 6.93893 0
M  V30 934 H 81.1985 0.969466 7.53993 0
M  V30 935 N 82.7736 -1.49793 -0.48987 0
M  V30 936 C 83.7036 -1.70201 -1.59856 0
M  V30 937 C 84.6846 -0.55076 -1.60937 0
M  V30 938 O 85.8696 -0.787841 -1.77501 0
M  V30 939 C 82.9996 -1.77882 -2.98287 0
M  V30 940 C 81.9536 -2.92907 -3.12073 0
M  V30 941 C 81.2796 -2.85712 -4.51965 0
M  V30 942 C 82.5796 -4.3369 -2.91051 0
M  V30 943 H 84.2736 -2.63025 -1.43032 0
M  V30 944 H 81.8196 -1.26574 -0.686664 0
M  V30 945 H 83.7726 -1.90744 -3.75759 0
M  V30 946 H 82.4966 -0.816653 -3.16225 0
M  V30 947 H 81.1556 -2.79665 -2.37029 0
M  V30 948 H 80.8036 -1.8738 -4.66795 0
M  V30 949 H 80.5036 -3.62921 -4.62128 0
M  V30 950 H 82.0276 -3.00598 -5.31482 0
M  V30 951 H 83.4416 -4.47555 -3.58284 0
M  V30 952 H 81.8386 -5.12205 -3.12675 0
M  V30 953 H 82.9086 -4.47362 -1.87071 0
M  V30 954 N 84.2517 0.741722 -1.39055 0
M  V30 955 C 85.1987 1.85566 -1.37237 0
M  V30 956 C 86.1687 1.64457 -0.233072 0
M  V30 957 O 87.3537 1.85957 -0.427147 0
M  V30 958 C 84.4937 3.23004 -1.215 0
M  V30 959 C 83.6067 3.55864 -2.44918 0
M  V30 960 C 82.7417 4.82669 -2.21821 0
M  V30 961 C 81.7807 5.08351 -3.40948 0
M  V30 962 N 80.9177 6.26356 -3.17211 0
M  V30 963 H 85.7577 1.86455 -2.32462 0
M  V30 964 H 83.2947 0.911176 -1.15482 0
M  V30 965 H 85.2527 4.02331 -1.10389 0
M  V30 966 H 83.8827 3.21411 -0.29908 0
M  V30 967 H 82.9347 2.7129 -2.66657 0
M  V30 968 H 84.2467 3.70765 -3.33668 0
M  V30 969 H 83.4007 5.69962 -2.07914 0
M  V30 970 H 82.1397 4.69929 -1.30454 0
M  V30 971 H 81.1447 4.19522 -3.55361 0
M  V30 972 H 82.3697 5.22981 -4.33207 0
M  V30 973 H 80.3157 6.14917 -2.28502 0
M  V30 974 H 80.2327 6.41813 -3.99515 0
M  V30 975 H 81.5007 7.16506 -3.06984 0
M  V30 976 N 85.7298 1.2412 0.971189 0
M  V30 977 C 86.6398 1.04747 2.09917 0
M  V30 978 C 87.6558 -0.0107162 1.73997 0
M  V30 979 O 88.8318 0.186714 2.00533 0
M  V30 980 C 85.8968 0.650828 3.40537 0
M  V30 981 C 84.9578 1.7851 3.90426 0
M  V30 982 C 84.1908 1.40729 5.14812 0
M  V30 983 O 84.4138 0.29557 5.69634 0
M  V30 984 O 83.3478 2.23168 5.58999 0
M  V30 985 H 87.1738 1.99304 2.29154 0
M  V30 986 H 84.7588 1.02908 1.08307 0
M  V30 987 H 86.6408 0.440992 4.19086 0
M  V30 988 H 85.3158 -0.265649 3.22608 0
M  V30 989 H 84.2228 2.04966 3.12953 0
M  V30 990 H 85.5558 2.68023 4.12825 0
M  V30 991 N 87.2079 -1.17134 1.05439 0
M  V30 992 C 88.1399 -2.2078 0.615539 0
M  V30 993 C 89.1529 -1.59584 -0.322001 0
M  V30 994 O 90.3419 -1.78133 -0.114344 0
M  V30 995 C 87.4419 -3.38691 -0.118938 0
M  V30 996 C 86.6149 -4.29454 0.829924 0
M  V30 997 C 85.6739 -5.26024 0.136258 0
M  V30 998 O 84.6999 -5.63952 0.77115 0
M  V30 999 N 85.9019 -5.69487 -1.1254 0
M  V30 1000 H 88.6669 -2.59052 1.50705 0
M  V30 1001 H 86.2279 -1.32058 0.936603 0
M  V30 1002 H 88.2199 -4.00329 -0.593179 0
M  V30 1003 H 86.7899 -2.98996 -0.91215 0
M  V30 1004 H 86.0099 -3.65211 1.48373 0
M  V30 1005 H 87.2979 -4.86984 1.47392 0
M  V30 1006 H 86.6959 -5.4075 -1.6615 0
M  V30 1007 H 85.2529 -6.33257 -1.54366 0
M  V30 1008 N 88.686 -0.835752 -1.33615 0
M  V30 1009 C 89.934 -0.429109 -1.97492 0
M  V30 1010 C 90.255 1.01433 -1.66543 0
M  V30 1011 O 89.525 1.70611 -0.962744 0
M  V30 1012 H 88.105 -0.155686 -0.730596 0
M  V30 1013 H 90.767 -1.06802 -1.63031 0
M  V30 1014 H 89.863 -0.55861 -3.0706 0
M  V30 1015 N 90.1641 1.46063 -0.591896 0
M  V30 1016 C 91.4411 1.95595 -0.0137119 0
M  V30 1017 C 91.8211 1.5345 1.4497 0
M  V30 1018 O 91.1691 0.789543 2.14426 0
M  V30 1019 C 91.3791 3.48453 -0.195373 0
M  V30 1020 C 92.7271 4.24546 -0.0679765 0
M  V30 1021 O 93.7511 3.55982 -0.124681 0
M  V30 1022 O 92.6101 5.46467 0.0600579 0
M  V30 1023 H 89.7041 0.825795 0.0446279 0
M  V30 1024 H 92.2501 1.56303 -0.660859 0
M  V30 1025 H 91.0221 3.72045 -1.21235 0
M  V30 1026 H 90.6451 3.94597 0.487775 0
M  V30 1027 N 91.6422 0.330177 1.54103 0
M  V30 1028 C 92.5902 -0.548226 2.26047 0
M  V30 1029 C 93.5842 -1.11309 1.27698 0
M  V30 1030 O 94.7902 -1.06036 1.45452 0
M  V30 1031 H 91.1652 -0.195456 0.726155 0
M  V30 1032 H 93.1362 0.0807567 2.98291 0
M  V30 1033 C 91.8852 -1.69415 3.03634 0
M  V30 1034 H 91.2082 -1.26876 3.79134 0
M  V30 1035 H 92.6482 -2.28423 3.5721 0
M  V30 1036 C 91.1072 -2.61569 2.12328 0
M  V30 1037 O 91.6372 -3.63462 1.7105 0
M  V30 1038 N 89.8432 -2.29952 1.77681 0
M  V30 1039 H 89.3902 -1.47134 2.11446 0
M  V30 1040 H 89.3482 -2.91871 1.16869 0
M  V30 1041 N 93.1203 -1.57491 0.0584922 0
M  V30 1042 C 94.5363 -1.56792 -0.298091 0
M  V30 1043 C 94.7363 -1.06679 -1.70944 0
M  V30 1044 O 93.7923 -0.726672 -2.41818 0
M  V30 1045 C 95.1053 -3.00461 -0.119879 0
M  V30 1046 C 96.6533 -3.1242 -0.190428 0
M  V30 1047 C 97.1283 -4.57982 -0.0406567 0
M  V30 1048 N 98.6193 -4.63099 -0.0966958 0
M  V30 1049 C 99.3543 -5.734 -0.00502943 0
M  V30 1050 N 98.8503 -6.9266 0.139402 0
M  V30 1051 N 100.643 -5.62067 -0.0611391 0
M  V30 1052 H 92.7943 -1.88386 0.98105 0
M  V30 1053 H 95.0573 -0.867865 0.381463 0
M  V30 1054 H 94.7633 -3.41187 0.85349 0
M  V30 1055 H 94.6373 -3.66843 -0.877833 0
M  V30 1056 H 97.0243 -2.71589 -1.15427 0
M  V30 1057 H 97.1053 -2.48702 0.598405 0
M  V30 1058 H 96.7493 -4.995 0.919897 0
M  V30 1059 H 96.6793 -5.19715 -0.848727 0
M  V30 1060 H 99.1703 -3.77331 -0.207277 0
M  V30 1061 H 99.4833 -7.72536 0.201855 0
M  V30 1062 H 97.8283 -6.94781 0.174586 0
M  V30 1063 H 101.019 -4.67782 -0.172583 0
M  V30 1064 H 101.192 -6.47999 0.0137562 0
M  V30 1065 N 94.5984 0.214957 -1.56127 0
M  V30 1066 C 95.8474 0.936451 -1.78643 0
M  V30 1067 C 96.1604 1.85237 -0.628229 0
M  V30 1068 O 97.3664 2.613 -0.737186 0
M  V30 1069 C 95.8224 1.7154 -3.16389 0
M  V30 1070 C 95.4304 0.845299 -4.39953 0
M  V30 1071 C 97.1744 2.42772 -3.48227 0
M  V30 1072 C 95.0814 1.62198 -5.68723 0
M  V30 1073 H 94.0114 0.353401 -0.666051 0
M  V30 1074 H 96.6624 0.190169 -1.82512 0
M  V30 1075 H 95.0444 2.50484 -3.06715 0
M  V30 1076 H 96.2184 0.0959353 -4.607 0
M  V30 1077 H 94.5334 0.244789 -4.1568 0
M  V30 1078 H 97.1304 3.01394 -4.41663 0
M  V30 1079 H 97.4734 3.15984 -2.71035 0
M  V30 1080 H 98.0064 1.70813 -3.5926 0
M  V30 1081 H 94.7454 0.933011 -6.48826 0
M  V30 1082 H 94.2654 2.34579 -5.52026 0
M  V30 1083 H 95.9444 2.18095 -6.09133 0
M  V30 1084 N 96.0765 1.50051 0.48192 0
M  V30 1085 C 97.3225 1.60736 1.2366 0
M  V30 1086 C 97.6555 0.301786 1.91841 0
M  V30 1087 O 96.9305 -0.696025 1.8162 0
M  V30 1088 C 97.2135 2.78009 2.28874 0
M  V30 1089 C 97.0665 4.18416 1.65069 0
M  V30 1090 C 98.3855 2.90867 3.30279 0
M  V30 1091 H 95.5045 0.585031 0.448228 0
M  V30 1092 H 98.1465 1.82402 0.531946 0
M  V30 1093 H 96.2965 2.59667 2.88973 0
M  V30 1094 H 97.9685 4.48322 1.0865 0
M  V30 1095 H 96.2115 4.23177 0.954148 0
M  V30 1096 H 96.8825 4.96381 2.41474 0
M  V30 1097 H 99.3585 3.07623 2.80191 0
M  V30 1098 H 98.2345 3.74566 4.01238 0
M  V30 1099 H 98.4955 2.01021 3.93755 0
M  V30 1100 N 97.5546 -0.734337 1.39446 0
M  V30 1101 C 98.9706 -1.03997 1.21065 0
M  V30 1102 C 99.1706 -2.01369 0.0727019 0
M  V30 1103 O 98.2266 -2.45856 -0.575426 0
M  V30 1104 C 99.5396 -1.60163 2.54496 0
M  V30 1105 C 101.088 -1.7224 2.61347 0
M  V30 1106 C 101.563 -2.31814 3.95002 0
M  V30 1107 N 103.054 -2.39223 3.96644 0
M  V30 1108 C 103.789 -2.86258 4.96834 0
M  V30 1109 N 103.285 -3.33184 6.07421 0
M  V30 1110 N 105.078 -2.85473 4.84213 0
M  V30 1111 H 97.2286 -0.0885624 2.12215 0
M  V30 1112 H 99.4916 -0.10191 0.942506 0
M  V30 1113 H 99.1976 -0.960811 3.38321 0
M  V30 1114 H 99.0716 -2.5896 2.74262 0
M  V30 1115 H 101.459 -2.35443 1.77906 0
M  V30 1116 H 101.54 -0.720939 2.4543 0
M  V30 1117 H 101.184 -1.69238 4.78875 0
M  V30 1118 H 101.114 -3.32638 4.08239 0
M  V30 1119 H 103.605 -2.06057 3.16779 0
M  V30 1120 H 103.918 -3.67586 6.7978 0
M  V30 1121 H 102.263 -3.31191 6.11013 0
M  V30 1122 H 105.454 -2.48136 3.96921 0
M  V30 1123 H 105.627 -3.21814 5.62441 0
M  V30 1124 N 99.0327 -1.24633 -0.964593 0
M  V30 1125 C 100.261 -1.11501 -1.74285 0
M  V30 1126 C 100.676 0.332165 -1.85855 0
M  V30 1127 O 100.033 1.22903 -1.34911 0
M  V30 1128 C 100.084 -1.75258 -3.16175 0
M  V30 1129 O 99.8047 -3.14318 -3.05182 0
M  V30 1130 C 101.306 -1.67776 -4.10324 0
M  V30 1131 H 98.5257 -0.389407 -0.546446 0
M  V30 1132 H 101.07 -1.64801 -1.21083 0
M  V30 1133 H 99.2247 -1.25954 -3.66353 0
M  V30 1134 H 99.6387 -3.4551 -3.94618 0
M  V30 1135 H 101.113 -2.17064 -5.0753 0
M  V30 1136 H 101.59 -0.639584 -4.34518 0
M  V30 1137 H 102.196 -2.16522 -3.66058 0
M  V30 1138 N 100.511 1.16574 -1.06058 0
M  V30 1139 C 101.443 2.2045 -0.627239 0
M  V30 1140 C 102.456 1.59752 0.313534 0
M  V30 1141 O 103.645 1.78192 0.104896 0
M  V30 1142 C 100.745 3.3875 0.100974 0
M  V30 1143 C 99.9178 4.29008 -0.852687 0
M  V30 1144 C 98.9768 5.25944 -0.164152 0
M  V30 1145 O 98.0028 5.63535 -0.801047 0
M  V30 1146 N 99.2048 5.70075 1.09518 0
M  V30 1147 H 101.97 2.58249 -1.52077 0
M  V30 1148 H 99.5308 1.3156 -0.943594 0
M  V30 1149 H 101.523 4.00638 0.57194 0
M  V30 1150 H 100.093 2.99476 0.89628 0
M  V30 1151 H 99.3128 3.64419 -1.50308 0
M  V30 1152 H 100.601 4.86195 -1.49972 0
M  V30 1153 H 99.9988 5.41624 1.6328 0
M  V30 1154 H 98.5558 6.34067 1.51006 0
M  V30 1155 N 101.989 0.842826 1.3317 0
M  V30 1156 C 102.952 0.284065 2.27433 0
M  V30 1157 C 103.952 -0.54948 1.5112 0
M  V30 1158 O 105.142 -0.362699 1.70382 0
M  V30 1159 C 102.274 -0.599384 3.35589 0
M  V30 1160 H 103.467 1.11589 2.78366 0
M  V30 1161 H 101.02 0.616221 1.4364 0
M  V30 1162 H 101.755 -1.45349 2.89904 0
M  V30 1163 H 101.54 -0.00291266 3.921 0
M  V30 1164 H 103.03 -0.983488 4.05854 0
M  V30 1165 N 103.467 -1.45747 0.599634 0
M  V30 1166 C 104.397 -2.33235 -0.111306 0
M  V30 1167 C 105.378 -1.46359 -0.866781 0
M  V30 1168 O 106.563 -1.75146 -0.838904 0
M  V30 1169 C 103.693 -3.28932 -1.11451 0
M  V30 1170 C 102.647 -4.25381 -0.472772 0
M  V30 1171 C 101.973 -5.1071 -1.58365 0
M  V30 1172 C 103.273 -5.18831 0.600948 0
M  V30 1173 H 104.967 -2.92927 0.61919 0
M  V30 1174 H 102.513 -1.40857 0.299215 0
M  V30 1175 H 104.466 -3.89002 -1.62036 0
M  V30 1176 H 103.19 -2.67381 -1.8755 0
M  V30 1177 H 101.849 -3.66598 0.0121472 0
M  V30 1178 H 101.497 -4.45533 -2.33473 0
M  V30 1179 H 101.197 -5.7604 -1.15982 0
M  V30 1180 H 102.721 -5.73647 -2.09194 0
M  V30 1181 H 104.135 -5.73019 0.179491 0
M  V30 1182 H 102.532 -5.92595 0.946076 0
M  V30 1183 H 103.602 -4.6174 1.48068 0
M  V30 1184 N 104.945 -0.338344 -1.53925 0
M  V30 1185 C 106.356 0.146651 -1.86123 0
M  V30 1186 C 106.707 1.5042 -1.2597 0
M  V30 1187 O 105.832 2.08723 -0.571294 0
M  V30 1188 C 106.427 0.272879 -3.37699 0
M  V30 1189 C 104.986 0.702103 -3.69794 0
M  V30 1190 C 104.133 -0.167304 -2.76795 0
M  V30 1191 H 107.084 -0.558123 -1.48562 0
M  V30 1192 H 107.105 1.10128 -3.64214 0
M  V30 1193 H 106.617 -0.715307 -3.81451 0
M  V30 1194 H 104.718 1.6995 -3.31584 0
M  V30 1195 H 104.831 0.495604 -4.7653 0
M  V30 1196 H 103.195 0.359527 -2.5215 0
M  V30 1197 H 103.978 -1.15253 -3.23375 0
M  V30 1198 N 106.423 1.57458 -0.0668435 0
M  V30 1199 C 107.386 2.11323 0.887422 0
M  V30 1200 C 108.386 1.03618 1.22964 0
M  V30 1201 O 109.576 1.29626 1.16373 0
M  V30 1202 C 106.708 2.61048 2.19242 0
M  V30 1203 H 107.901 2.96942 0.420194 0
M  V30 1204 H 105.454 1.55239 0.181793 0
M  V30 1205 H 106.189 1.78868 2.70512 0
M  V30 1206 H 105.974 3.39769 1.95702 0
M  V30 1207 H 107.464 3.02814 2.87565 0
M  V30 1208 N 107.901 -0.206675 1.56239 0
M  V30 1209 C 109.129 -0.945345 1.8404 0
M  V30 1210 C 109.544 -1.77336 0.647885 0
M  V30 1211 O 108.901 -1.78425 -0.383511 0
M  V30 1212 C 108.952 -1.8509 3.10522 0
M  V30 1213 O 108.673 -1.05634 4.25174 0
M  V30 1214 C 110.174 -2.70222 3.51418 0
M  V30 1215 H 107.394 -0.276372 0.61144 0
M  V30 1216 H 109.938 -0.217417 2.03341 0
M  V30 1217 H 108.093 -2.53259 2.93153 0
M  V30 1218 H 108.507 -1.67238 4.97124 0
M  V30 1219 H 109.981 -3.29438 4.42916 0
M  V30 1220 H 110.458 -3.43358 2.73864 0
M  V30 1221 H 111.064 -2.07443 3.71278 0
M  V30 1222 N 109.379 -1.50304 -0.473955 0
M  V30 1223 C 110.795 -1.37667 -0.807466 0
M  V30 1224 C 110.995 -0.430555 -1.96846 0
M  V30 1225 O 110.051 0.127874 -2.52176 0
M  V30 1226 C 111.364 -2.78974 -1.12223 0
M  V30 1227 C 112.912 -2.87868 -1.22885 0
M  V30 1228 C 113.387 -4.30003 -1.57676 0
M  V30 1229 N 114.878 -4.3294 -1.64673 0
M  V30 1230 C 115.613 -5.3991 -1.93091 0
M  V30 1231 N 115.109 -6.57092 -2.1955 0
M  V30 1232 N 116.902 -5.27351 -1.94569 0
M  V30 1233 H 109.053 -2.10394 0.291212 0
M  V30 1234 H 111.316 -0.945575 0.0677609 0
M  V30 1235 H 111.022 -3.50031 -0.342229 0
M  V30 1236 H 110.896 -3.16038 -2.05913 0
M  V30 1237 H 113.283 -2.17032 -1.99953 0
M  V30 1238 H 113.364 -2.54352 -0.271814 0
M  V30 1239 H 113.008 -5.01375 -0.81149 0
M  V30 1240 H 112.938 -4.61004 -2.54525 0
M  V30 1241 H 115.429 -3.48441 -1.46277 0
M  V30 1242 H 115.742 -7.34425 -2.405 0
M  V30 1243 H 114.087 -6.60272 -2.16948 0
M  V30 1244 H 117.278 -4.34801 -1.73394 0
M  V30 1245 H 117.451 -6.10805 -2.16381 0
M  V30 1246 N 110.857 0.726932 -1.39834 0
M  V30 1247 C 112.105 1.4837 -1.37225 0
M  V30 1248 C 112.426 1.94979 0.0284857 0
M  V30 1249 O 111.696 1.69555 0.981213 0
M  V30 1250 H 110.276 0.55043 -0.505011 0
M  V30 1251 H 112.938 0.862468 -1.74778 0
M  V30 1252 H 112.034 2.36198 -2.04003 0
M  V30 1253 N 112.336 1.25143 0.95797 0
M  V30 1254 C 113.564 1.12424 1.73691 0
M  V30 1255 C 113.979 -0.322304 1.86029 0
M  V30 1256 O 113.336 -1.22186 1.35561 0
M  V30 1257 C 113.387 1.76933 3.15241 0
M  V30 1258 O 113.108 3.15932 3.03511 0
M  V30 1259 C 114.609 1.6995 4.09429 0
M  V30 1260 H 111.829 0.3923 0.544373 0
M  V30 1261 H 114.373 1.6544 1.20207 0
M  V30 1262 H 112.528 1.27895 3.6568 0
M  V30 1263 H 112.942 3.47598 3.9278 0
M  V30 1264 H 114.416 2.19753 5.06372 0
M  V30 1265 H 114.893 0.662619 4.34173 0
M  V30 1266 H 115.499 2.18461 3.64904 0
M  V30 1267 N 113.814 -1.1601 1.06675 0
M  V30 1268 C 115.06 -1.86909 0.786945 0
M  V30 1269 C 115.393 -1.81717 -0.685018 0
M  V30 1270 O 114.668 -1.23551 -1.50218 0
M  V30 1271 C 114.951 -3.36313 1.28707 0
M  V30 1272 C 114.804 -3.50175 2.82308 0
M  V30 1273 C 116.123 -4.3084 0.898071 0
M  V30 1274 H 113.242 -0.678677 0.287343 0
M  V30 1275 H 115.884 -1.36336 1.32334 0
M  V30 1276 H 114.034 -3.79513 0.830768 0
M  V30 1277 H 115.706 -3.15886 3.36175 0
M  V30 1278 H 113.949 -2.91959 3.20847 0
M  V30 1279 H 114.62 -4.55116 3.12368 0
M  V30 1280 H 117.096 -3.95561 1.29114 0
M  V30 1281 H 115.972 -5.33876 1.27543 0
M  V30 1282 H 116.233 -4.41662 -0.196651 0
M  V30 1283 N 115.292 -0.849877 -1.32721 0
M  V30 1284 C 116.517 -0.463856 -2.02146 0
M  V30 1285 C 116.942 0.930449 -1.63476 0
M  V30 1286 O 116.3 1.61033 -0.832952 0
M  V30 1287 C 116.348 -0.604955 -3.55489 0
M  V30 1288 O 115.452 0.36425 -4.10788 0
M  V30 1289 H 114.793 -0.187046 -0.637111 0
M  V30 1290 H 117.323 -1.14775 -1.69375 0
M  V30 1291 H 117.333 -0.490696 -4.05038 0
M  V30 1292 H 116.008 -1.62174 -3.82978 0
M  V30 1293 H 114.585 0.206628 -3.72327 0
M  V30 1294 N 116.77 1.45427 -0.607355 0
M  V30 1295 C 118.047 1.9557 -0.0344566 0
M  V30 1296 C 118.427 1.54979 1.43334 0
M  V30 1297 O 117.775 0.812241 2.13576 0
M  V30 1298 C 117.985 3.48226 -0.232321 0
M  V30 1299 C 119.333 4.2445 -0.113001 0
M  V30 1300 O 120.357 3.55829 -0.162431 0
M  V30 1301 O 119.216 5.465 0.00209442 0
M  V30 1302 H 116.31 0.826222 0.0358667 0
M  V30 1303 H 118.856 1.55594 -0.6774 0
M  V30 1304 H 117.628 3.70739 -1.25174 0
M  V30 1305 H 117.251 3.95092 0.445896 0
M  V30 1306 N 118.248 0.346503 1.53744 0
M  V30 1307 C 119.664 -0.00530975 1.59599 0
M  V30 1308 C 119.864 -1.48465 1.36236 0
M  V30 1309 O 118.92 -2.24376 1.15808 0
M  V30 1310 C 120.233 0.433516 2.97559 0
M  V30 1311 C 121.781 0.386111 3.10609 0
M  V30 1312 C 122.256 0.800451 4.50951 0
M  V30 1313 N 123.747 0.754753 4.5701 0
M  V30 1314 C 124.482 1.04727 5.63755 0
M  V30 1315 N 123.978 1.4081 6.7834 0
M  V30 1316 N 125.771 0.971316 5.53644 0
M  V30 1317 H 117.922 1.31009 1.67184 0
M  V30 1318 H 120.185 0.534242 0.783128 0
M  V30 1319 H 119.891 1.46509 3.19731 0
M  V30 1320 H 119.765 -0.189753 3.76722 0
M  V30 1321 H 122.152 -0.636295 2.88158 0
M  V30 1322 H 122.233 1.04462 2.33498 0
M  V30 1323 H 121.877 1.82088 4.74137 0
M  V30 1324 H 121.807 0.119386 5.26465 0
M  V30 1325 H 124.298 0.488662 3.74727 0
M  V30 1326 H 124.611 1.61607 7.55714 0
M  V30 1327 H 122.956 1.44657 6.79779 0
M  V30 1328 H 126.147 0.688748 4.63005 0
M  V30 1329 H 126.32 1.20263 6.36742 0
M  V30 1330 N 119.726 -1.57421 0.075193 0
M  V30 1331 C 120.674 -2.14124 -0.908508 0
M  V30 1332 C 121.668 -1.07898 -1.30592 0
M  V30 1333 O 122.874 -1.26273 -1.28277 0
M  V30 1334 H 119.249 -0.684707 -0.310935 0
M  V30 1335 H 121.22 -2.95634 -0.405374 0
M  V30 1336 C 119.969 -2.72044 -2.16535 0
M  V30 1337 H 119.292 -3.53456 -1.86839 0
M  V30 1338 H 120.732 -3.15311 -2.83469 0
M  V30 1339 C 119.191 -1.66968 -2.92615 0
M  V30 1340 O 119.721 -1.0967 -3.86439 0
M  V30 1341 N 117.927 -1.37923 -2.55784 0
M  V30 1342 H 117.474 -1.84706 -1.79559 0
M  V30 1343 H 117.432 -0.67852 -3.06991 0
M  V30 1344 N 121.204 0.198386 -1.56346 0
M  V30 1345 C 122.452 0.91747 -1.80075 0
M  V30 1346 C 122.773 1.83929 -0.647692 0
M  V30 1347 O 122.043 1.93029 0.334166 0
M  V30 1348 H 120.623 0.341774 -0.664228 0
M  V30 1349 H 123.285 0.204684 -1.93822 0
M  V30 1350 H 122.381 1.51055 -2.7311 0
M  V30 1351 N 122.682 1.50554 0.465978 0
M  V30 1352 C 123.645 1.69233 1.54574 0
M  V30 1353 C 124.645 0.562901 1.50626 0
M  V30 1354 O 125.835 0.830016 1.53155 0
M  V30 1355 C 122.967 1.7223 2.94193 0
M  V30 1356 H 124.16 2.65571 1.39327 0
M  V30 1357 H 121.713 1.40111 0.692711 0
M  V30 1358 H 122.448 0.77603 3.14878 0
M  V30 1359 H 122.233 2.54285 2.98466 0
M  V30 1360 H 123.723 1.88618 3.72576 0
M  V30 1361 N 124.16 -0.719506 1.40217 0
M  V30 1362 C 125.406 -1.48152 1.38488 0
M  V30 1363 C 125.739 -1.94195 -0.0141867 0
M  V30 1364 O 125.014 -1.67884 -0.982096 0
M  V30 1365 C 125.297 -2.71035 2.37091 0
M  V30 1366 C 125.15 -2.30912 3.86005 0
M  V30 1367 C 126.469 -3.73182 2.33288 0
M  V30 1368 H 123.588 -0.537395 0.504357 0
M  V30 1369 H 126.23 -0.821472 1.71324 0
M  V30 1370 H 124.38 -3.27352 2.0922 0
M  V30 1371 H 126.052 -1.80107 4.24687 0
M  V30 1372 H 124.295 -1.62958 4.02029 0
M  V30 1373 H 124.966 -3.18978 4.50508 0
M  V30 1374 H 127.442 -3.26485 2.57966 0
M  V30 1375 H 126.318 -4.56806 3.04334 0
M  V30 1376 H 126.579 -4.21202 1.34317 0
M  V30 1377 N 125.638 -1.25649 -0.95132 0
M  V30 1378 C 126.568 -1.08808 -2.06599 0
M  V30 1379 C 127.549 0.00382547 -1.701 0
M  V30 1380 O 128.734 -0.166325 -1.93486 0
M  V30 1381 C 125.864 -0.709542 -3.39975 0
M  V30 1382 C 124.818 -1.75206 -3.90496 0
M  V30 1383 C 124.144 -1.22811 -5.20405 0
M  V30 1384 C 125.444 -3.15153 -4.16504 0
M  V30 1385 H 127.138 -2.02048 -2.20946 0
M  V30 1386 H 124.684 -0.972835 -1.06169 0
M  V30 1387 H 126.637 -0.578649 -4.17408 0
M  V30 1388 H 125.361 0.258556 -3.25575 0
M  V30 1389 H 124.02 -1.87145 -3.15234 0
M  V30 1390 H 123.668 -0.250145 -5.02378 0
M  V30 1391 H 123.368 -1.92492 -5.55176 0
M  V30 1392 H 124.892 -1.10968 -6.00432 0
M  V30 1393 H 126.306 -3.06349 -4.84586 0
M  V30 1394 H 124.703 -3.82333 -4.62538 0
M  V30 1395 H 125.773 -3.61966 -3.22658 0
M  V30 1396 N 127.117 1.15442 -1.07289 0
M  V30 1397 C 128.08 2.18358 -0.696591 0
M  V30 1398 C 129.08 1.58637 0.262837 0
M  V30 1399 O 130.27 1.74145 0.0438809 0
M  V30 1400 C 127.402 3.4089 -0.0266151 0
M  V30 1401 H 128.595 2.53162 -1.60776 0
M  V30 1402 H 126.148 1.29893 -0.869342 0
M  V30 1403 H 126.883 3.11653 0.896822 0
M  V30 1404 H 126.668 3.85495 -0.716657 0
M  V30 1405 H 128.158 4.17009 0.222028 0
M  V30 1406 N 128.595 0.856903 1.32268 0
M  V30 1407 C 129.525 0.31858 2.31316 0
M  V30 1408 C 130.506 -0.583487 1.59779 0
M  V30 1409 O 131.691 -0.503259 1.87566 0
M  V30 1410 C 128.821 -0.491979 3.43798 0
M  V30 1411 C 127.775 0.315849 4.26833 0
M  V30 1412 C 127.101 -0.619586 5.31098 0
M  V30 1413 C 128.401 1.54282 4.98993 0
M  V30 1414 H 130.095 1.14621 2.76591 0
M  V30 1415 H 127.641 0.552613 1.32974 0
M  V30 1416 H 129.594 -0.879012 4.1213 0
M  V30 1417 H 128.318 -1.35299 2.97257 0
M  V30 1418 H 126.977 0.684664 3.6015 0
M  V30 1419 H 126.625 -1.47751 4.8081 0
M  V30 1420 H 126.325 -0.0830621 5.87541 0
M  V30 1421 H 127.849 -1.00375 6.02293 0
M  V30 1422 H 129.263 1.22796 5.59995 0
M  V30 1423 H 127.66 2.01745 5.65172 0
M  V30 1424 H 128.73 2.30285 4.26728 0
M  V30 1425 N 130.073 -1.45103 0.615059 0
M  V30 1426 C 131.298 -2.07064 0.117988 0
M  V30 1427 C 131.723 -1.4554 -1.19163 0
M  V30 1428 O 131.081 -0.550855 -1.72729 0
M  V30 1429 C 131.129 -3.606 -0.000288387 0
M  V30 1430 O 130.233 -3.98847 -1.04856 0
M  V30 1431 H 129.574 -0.659467 0.0774581 0
M  V30 1432 H 132.104 -1.86236 0.847186 0
M  V30 1433 H 132.114 -4.07529 -0.196091 0
M  V30 1434 H 130.789 -4.04765 0.955932 0
M  V30 1435 H 129.366 -3.63577 -0.828619 0
M  V30 1436 N 131.551 -0.354651 -1.53558 0
M  V30 1437 C 132.514 0.484566 -2.24019 0
M  V30 1438 C 133.514 1.01861 -1.24422 0
M  V30 1439 O 134.704 0.906097 -1.4878 0
M  V30 1440 C 131.836 1.67615 -2.96847 0
M  V30 1441 H 133.029 -0.131843 -2.9961 0
M  V30 1442 H 130.582 -0.106165 -1.55939 0
M  V30 1443 H 131.317 2.33095 -2.25471 0
M  V30 1444 H 131.102 1.30029 -3.69912 0
M  V30 1445 H 132.592 2.27114 -3.50441 0
M  V30 1446 N 133.029 1.57378 -0.0835403 0
M  V30 1447 C 134.44 1.81261 0.447358 0
M  V30 1448 C 134.791 0.998331 1.68902 0
M  V30 1449 O 133.916 0.224282 2.15235 0
M  V30 1450 C 134.511 3.28767 0.818386 0
M  V30 1451 C 133.07 3.53455 1.29409 0
M  V30 1452 C 132.217 2.75831 0.285024 0
M  V30 1453 H 135.168 1.5566 -0.309115 0
M  V30 1454 H 135.189 3.41459 1.67887 0
M  V30 1455 H 134.701 3.88006 -0.0855019 0
M  V30 1456 H 132.802 2.99534 2.21608 0
M  V30 1457 H 132.915 4.62128 1.2639 0
M  V30 1458 H 131.279 2.42947 0.764767 0
M  V30 1459 H 132.062 3.37813 -0.611341 0
M  V30 1460 N 134.507 -0.190092 1.56449 0
M  V30 1461 C 135.735 -0.925772 1.85033 0
M  V30 1462 C 136.15 -1.76638 0.666658 0
M  V30 1463 O 135.507 -1.78822 -0.364565 0
M  V30 1464 C 135.558 -1.81786 3.12468 0
M  V30 1465 O 135.279 -1.01118 4.26271 0
M  V30 1466 C 136.78 -2.6648 3.54265 0
M  V30 1467 H 134 -0.269872 0.614337 0
M  V30 1468 H 136.544 -0.195837 2.0356 0
M  V30 1469 H 134.699 -2.50136 2.95822 0
M  V30 1470 H 135.113 -1.61956 4.98869 0
M  V30 1471 H 136.587 -3.24722 4.46385 0
M  V30 1472 H 137.064 -3.40434 2.77491 0
M  V30 1473 H 137.67 -2.03493 3.73458 0
M  V30 1474 N 135.985 -1.50799 -0.457987 0
M  V30 1475 C 136.895 -1.73426 -1.57989 0
M  V30 1476 C 137.911 -0.617745 -1.62665 0
M  V30 1477 O 139.087 -0.897614 -1.80291 0
M  V30 1478 C 136.152 -1.83557 -2.94122 0
M  V30 1479 C 135.213 -3.07345 -2.99729 0
M  V30 1480 C 134.446 -3.16983 -4.29368 0
M  V30 1481 O 134.669 -2.33077 -5.20607 0
M  V30 1482 O 133.603 -4.09812 -4.40837 0
M  V30 1483 H 137.429 -2.68555 -1.41817 0
M  V30 1484 H 135.014 -1.35052 -0.638859 0
M  V30 1485 H 136.896 -1.92326 -3.74952 0
M  V30 1486 H 135.571 -0.916137 -3.10465 0
M  V30 1487 H 134.478 -3.04068 -2.1793 0
M  V30 1488 H 135.811 -3.9891 -2.88326 0
M  V30 1489 N 137.463 0.71206 -1.40597 0
M  V30 1490 C 138.688 1.50617 -1.42581 0
M  V30 1491 C 139.113 1.88079 -0.0282102 0
M  V30 1492 O 138.471 1.53511 0.964579 0
M  V30 1493 C 138.519 2.7557 -2.3258 0
M  V30 1494 O 137.623 3.72414 -1.77148 0
M  V30 1495 H 136.964 0.453966 -0.484573 0
M  V30 1496 H 139.494 0.876649 -1.84868 0
M  V30 1497 H 139.504 3.2406 -2.47889 0
M  V30 1498 H 138.179 2.47639 -3.34138 0
M  V30 1499 H 136.756 3.31276 -1.71204 0
M  V30 1500 N 138.941 1.26152 0.944643 0
M  V30 1501 C 139.871 1.09902 2.06019 0
M  V30 1502 C 140.852 0.00519538 1.70099 0
M  V30 1503 O 142.037 0.176583 1.93396 0
M  V30 1504 C 139.167 0.727562 3.39594 0
M  V30 1505 C 138.121 1.77274 3.89561 0
M  V30 1506 C 137.447 1.25569 5.19747 0
M  V30 1507 C 138.747 3.17357 4.14827 0
M  V30 1508 H 140.441 2.03217 2.19871 0
M  V30 1509 H 137.987 0.978452 1.05652 0
M  V30 1510 H 139.94 0.600777 4.17095 0
M  V30 1511 H 138.664 -0.241287 3.25707 0
M  V30 1512 H 137.323 1.88814 3.14237 0
M  V30 1513 H 136.971 0.276783 5.02238 0
M  V30 1514 H 136.671 1.95433 5.54148 0
M  V30 1515 H 138.195 1.1415 5.99835 0
M  V30 1516 H 139.609 3.08914 4.82954 0
M  V30 1517 H 138.006 3.84781 4.60504 0
M  V30 1518 H 139.076 3.63673 3.20734 0
M  V30 1519 N 140.419 -1.14872 1.07899 0
M  V30 1520 C 141.666 -1.85789 0.805532 0
M  V30 1521 C 141.994 -1.82649 -0.668561 0
M  V30 1522 O 141.249 -1.24858 -1.50695 0
M  V30 1523 C 141.548 -3.34223 1.26609 0
M  V30 1524 C 141.214 -3.57555 2.74709 0
M  V30 1525 C 139.876 -3.63631 3.1516 0
M  V30 1526 C 142.228 -3.66803 3.70277 0
M  V30 1527 C 139.556 -3.76473 4.49983 0
M  V30 1528 C 141.908 -3.8117 5.04869 0
M  V30 1529 C 140.572 -3.85494 5.44932 0
M  V30 1530 H 139.842 -0.679849 0.294765 0
M  V30 1531 H 142.489 -1.3572 1.35101 0
M  V30 1532 H 140.794 -3.86536 0.640103 0
M  V30 1533 H 142.491 -3.87511 1.03132 0
M  V30 1534 H 139.081 -3.5347 2.42398 0
M  V30 1535 H 143.265 -3.61404 3.40149 0
M  V30 1536 H 138.521 -3.7808 4.80484 0
M  V30 1537 H 142.695 -3.87268 5.78789 0
M  V30 1538 H 140.322 -3.95197 6.49403 0
M  V30 1539 N 141.898 -0.863906 -1.31812 0
M  V30 1540 C 142.861 -0.320212 -2.26952 0
M  V30 1541 C 143.861 0.525369 -1.51975 0
M  V30 1542 O 145.051 0.335547 -1.70938 0
M  V30 1543 C 142.183 0.545919 -3.365 0
M  V30 1544 H 143.376 -1.16004 -2.76556 0
M  V30 1545 H 140.929 -0.638995 -1.42641 0
M  V30 1546 H 141.664 1.40718 -2.92179 0
M  V30 1547 H 141.449 -0.0594674 -3.92055 0
M  V30 1548 H 142.939 0.918796 -4.07367 0
M  V30 1549 N 143.376 1.44774 -0.622745 0
M  V30 1550 C 144.622 2.0242 -0.124083 0
M  V30 1551 C 144.955 1.4881 1.24777 0
M  V30 1552 O 144.23 0.668799 1.8264 0
M  V30 1553 C 144.513 3.59957 -0.101619 0
M  V30 1554 C 144.366 4.23867 -1.50521 0
M  V30 1555 C 145.685 4.36284 0.578272 0
M  V30 1556 H 142.804 0.735528 -0.0465645 0
M  V30 1557 H 145.446 1.72447 -0.797617 0
M  V30 1558 H 143.596 3.85623 0.471934 0
M  V30 1559 H 145.268 4.09336 -2.12701 0
M  V30 1560 H 143.511 3.81684 -2.06154 0
M  V30 1561 H 144.182 5.32843 -1.4416 0
M  V30 1562 H 146.658 4.16001 0.0906057 0
M  V30 1563 H 145.534 5.46004 0.563149 0
M  V30 1564 H 145.795 4.10271 1.64713 0
M  V30 1565 N 144.854 0.36279 1.53368 0
M  V30 1566 C 146.265 -0.117022 1.86333 0
M  V30 1567 C 146.616 -1.48397 1.28347 0
M  V30 1568 O 145.741 -2.07787 0.604428 0
M  V30 1569 C 146.336 -0.21912 3.38091 0
M  V30 1570 C 144.895 -0.643184 3.70864 0
M  V30 1571 C 144.042 0.211318 2.76494 0
M  V30 1572 H 146.993 0.581687 1.47655 0
M  V30 1573 H 147.014 -1.04319 3.6592 0
M  V30 1574 H 146.526 0.775902 3.80265 0
M  V30 1575 H 144.627 -1.64654 3.34245 0
M  V30 1576 H 144.74 -0.41973 4.77258 0
M  V30 1577 H 143.104 -0.319367 2.5269 0
M  V30 1578 H 143.887 1.20383 3.21501 0
M  V30 1579 N 146.332 -1.57332 0.0918853 0
M  V30 1580 C 147.279 -2.13847 -0.868211 0
M  V30 1581 C 148.249 -1.05618 -1.28196 0
M  V30 1582 O 149.434 -1.33387 -1.36427 0
M  V30 1583 C 146.574 -2.72062 -2.12312 0
M  V30 1584 C 145.687 -3.94514 -1.7602 0
M  V30 1585 C 144.822 -4.40903 -2.96273 0
M  V30 1586 C 143.861 -5.55953 -2.56092 0
M  V30 1587 N 142.998 -5.97209 -3.69169 0
M  V30 1588 H 147.838 -2.95575 -0.379406 0
M  V30 1589 H 145.375 -1.46048 -0.175606 0
M  V30 1590 H 147.333 -3.03931 -2.858 0
M  V30 1591 H 145.963 -1.93068 -2.58698 0
M  V30 1592 H 145.015 -3.68979 -0.925135 0
M  V30 1593 H 146.327 -4.7802 -1.42472 0
M  V30 1594 H 145.481 -4.74539 -3.78018 0
M  V30 1595 H 144.22 -3.56291 -3.33029 0
M  V30 1596 H 143.225 -5.21948 -1.72773 0
M  V30 1597 H 144.45 -6.42311 -2.20484 0
M  V30 1598 H 142.396 -5.15543 -4.05649 0
M  V30 1599 H 142.313 -6.75504 -3.39456 0
M  V30 1600 H 143.581 -6.35475 -4.51434 0
M  V30 1601 N 147.81 0.181792 -1.56548 0
M  V30 1602 C 149.087 0.926765 -1.72251 0
M  V30 1603 C 149.467 2.00831 -0.650386 0
M  V30 1604 O 148.815 2.26008 0.336521 0
M  V30 1605 C 149.025 1.50106 -3.1507 0
M  V30 1606 C 150.373 1.97805 -3.75711 0
M  V30 1607 O 151.397 1.59922 -3.18282 0
M  V30 1608 O 150.256 2.67555 -4.76525 0
M  V30 1609 H 147.35 0.435506 -0.703039 0
M  V30 1610 H 149.896 0.170443 -1.68842 0
M  V30 1611 H 148.668 0.72212 -3.84579 0
M  V30 1612 H 148.291 2.32186 -3.22763 0
M  V30 1613 N 149.288 1.51039 0.449983 0
M  V30 1614 C 150.221 1.66105 1.56474 0
M  V30 1615 C 151.199 0.508776 1.54435 0
M  V30 1616 O 152.383 0.731005 1.73749 0
M  V30 1617 C 149.51 1.66304 2.9506 0
M  V30 1618 C 148.556 2.87346 3.15174 0
M  V30 1619 S 149.389 4.4835 2.92818 0
M  V30 1620 C 150.545 4.51274 4.33708 0
M  V30 1621 H 150.778 2.60397 1.43459 0
M  V30 1622 H 148.311 1.40565 0.638805 0
M  V30 1623 H 150.269 1.67103 3.74949 0
M  V30 1624 H 148.93 0.732108 3.05449 0
M  V30 1625 H 148.123 2.83849 4.16468 0
M  V30 1626 H 147.725 2.84223 2.43091 0
M  V30 1627 H 150.017 4.26136 5.26701 0
M  V30 1628 H 150.96 5.53017 4.42242 0
M  V30 1629 H 151.368 3.80738 4.16772 0
M  V30 1630 N 150.766 -0.704594 1.40972 0
M  V30 1631 C 151.713 -1.81862 1.42109 0
M  V30 1632 C 152.683 -1.63781 0.276593 0
M  V30 1633 O 153.868 -1.84759 0.4763 0
M  V30 1634 C 151.008 -3.19669 1.30022 0
M  V30 1635 C 150.121 -3.49246 2.54267 0
M  V30 1636 C 149.256 -4.76618 2.3454 0
M  V30 1637 C 148.295 -4.99133 3.54306 0
M  V30 1638 N 147.432 -6.17726 3.33706 0
M  V30 1639 H 152.272 -1.80226 2.37324 0
M  V30 1640 H 149.809 -0.880238 1.17857 0
M  V30 1641 H 151.767 -3.99263 1.21018 0
M  V30 1642 H 150.397 -3.20506 0.384192 0
M  V30 1643 H 149.449 -2.64125 2.73756 0
M  V30 1644 H 150.761 -3.61788 3.43381 0
M  V30 1645 H 149.915 -5.64249 2.22952 0
M  V30 1646 H 148.654 -4.66305 1.42867 0
M  V30 1647 H 147.659 -4.09953 3.66359 0
M  V30 1648 H 148.884 -5.11311 4.4692 0
M  V30 1649 H 146.83 -6.08642 2.44725 0
M  V30 1650 H 146.747 -6.30995 4.16391 0
M  V30 1651 H 148.015 -7.08115 3.25873 0
M  V30 1652 N 152.244 -1.26651 -0.937939 0
M  V30 1653 C 153.154 -1.10276 -2.07066 0
M  V30 1654 C 154.17 -0.0354197 -1.73964 0
M  V30 1655 O 155.346 -0.239816 -1.99967 0
M  V30 1656 C 152.411 -0.740887 -3.38691 0
M  V30 1657 C 151.472 -1.88799 -3.85556 0
M  V30 1658 C 150.705 -1.54329 -5.10899 0
M  V30 1659 O 150.928 -0.446494 -5.6865 0
M  V30 1660 O 149.862 -2.37911 -5.52885 0
M  V30 1661 H 153.688 -2.05309 -2.23789 0
M  V30 1662 H 151.273 -1.05743 -1.0554 0
M  V30 1663 H 153.155 -0.55195 -4.1777 0
M  V30 1664 H 151.83 0.180022 -3.23199 0
M  V30 1665 H 150.737 -2.13191 -3.07409 0
M  V30 1666 H 152.07 -2.78874 -4.05574 0
M  V30 1667 N 153.722 1.14298 -1.08507 0
M  V30 1668 C 154.655 2.18447 -0.660004 0
M  V30 1669 C 155.633 1.59242 0.328749 0
M  V30 1670 O 156.817 1.87062 0.232367 0
M  V30 1671 C 153.944 3.38688 0.0290807 0
M  V30 1672 C 152.99 4.1646 -0.919982 0
M  V30 1673 S 153.823 4.77334 -2.42718 0
M  V30 1674 C 154.979 6.00931 -1.75024 0
M  V30 1675 H 155.212 2.54166 -1.54231 0
M  V30 1676 H 152.745 1.25446 -0.900149 0
M  V30 1677 H 154.703 4.08342 0.420378 0
M  V30 1678 H 153.364 3.01289 0.887895 0
M  V30 1679 H 152.557 5.02529 -0.384751 0
M  V30 1680 H 152.159 3.52414 -1.25223 0
M  V30 1681 H 154.451 6.69017 -1.06877 0
M  V30 1682 H 155.394 6.59044 -2.58971 0
M  V30 1683 H 155.802 5.51089 -1.22317 0
M  V30 1684 N 155.201 0.870884 1.31352 0
M  V30 1685 C 156.612 0.534714 1.78879 0
M  V30 1686 C 156.963 -0.948423 1.71754 0
M  V30 1687 O 156.088 -1.74055 1.28584 0
M  V30 1688 C 156.683 0.963839 3.24801 0
M  V30 1689 C 155.242 0.679311 3.70219 0
M  V30 1690 C 154.389 1.15465 2.52117 0
M  V30 1691 H 157.34 1.05651 1.18421 0
M  V30 1692 H 157.361 0.286892 3.79417 0
M  V30 1693 H 156.873 2.04332 3.29955 0
M  V30 1694 H 154.974 -0.388769 3.70566 0
M  V30 1695 H 155.087 1.25698 4.62317 0
M  V30 1696 H 153.451 0.574383 2.48139 0
M  V30 1697 H 154.234 2.24157 2.60016 0
M  V30 1698 N 156.679 -1.44442 0.630414 0
M  V30 1699 C 157.904 -2.06927 0.139944 0
M  V30 1700 C 158.329 -1.46795 -1.17613 0
M  V30 1701 O 157.687 -0.569144 -1.72135 0
M  V30 1702 C 157.735 -3.6058 0.0379581 0
M  V30 1703 O 156.839 -3.99937 -1.0062 0
M  V30 1704 H 156.18 -0.658608 0.0844483 0
M  V30 1705 H 158.71 -1.85327 0.866891 0
M  V30 1706 H 158.72 -4.07714 -0.152856 0
M  V30 1707 H 157.395 -4.03728 0.998809 0
M  V30 1708 H 155.972 -3.64436 -0.79001 0
M  V30 1709 N 158.157 -0.370918 -1.53173 0
M  V30 1710 C 159.12 0.460778 -2.24521 0
M  V30 1711 C 160.12 1.00536 -1.25496 0
M  V30 1712 O 161.31 0.890266 -1.49733 0
M  V30 1713 C 158.442 1.64457 -2.98608 0
M  V30 1714 H 159.635 -0.163613 -2.99453 0
M  V30 1715 H 157.188 -0.122699 -1.55818 0
M  V30 1716 H 157.923 2.30691 -2.2793 0
M  V30 1717 H 157.708 1.26099 -3.7127 0
M  V30 1718 H 159.198 2.23384 -3.5283 0
M  V30 1719 N 159.635 1.57281 -0.100228 0
M  V30 1720 C 160.598 2.13158 0.842398 0
M  V30 1721 C 161.598 1.06202 1.20738 0
M  V30 1722 O 162.788 1.32066 1.13597 0
M  V30 1723 C 159.92 2.65639 2.13655 0
M  V30 1724 H 161.113 2.97766 0.357114 0
M  V30 1725 H 158.666 1.5559 0.148823 0
M  V30 1726 H 159.401 1.84566 2.66657 0
M  V30 1727 H 159.186 3.43844 1.88451 0
M  V30 1728 H 160.676 3.08846 2.81077 0
M  V30 1729 N 161.113 -0.173488 1.56642 0
M  V30 1730 C 162.045 -1.23935 1.92802 0
M  V30 1731 C 163.058 -1.40589 0.820889 0
M  V30 1732 O 164.247 -1.40631 1.09933 0
M  V30 1733 C 161.347 -2.60837 2.16373 0
M  V30 1734 C 160.52 -2.6551 3.47596 0
M  V30 1735 C 159.579 -3.8376 3.60021 0
M  V30 1736 O 158.605 -3.69859 4.32658 0
M  V30 1737 N 159.807 -5.00127 2.94709 0
M  V30 1738 H 162.572 -0.932236 2.84832 0
M  V30 1739 H 160.133 -0.363268 1.57772 0
M  V30 1740 H 162.125 -3.38407 2.21952 0
M  V30 1741 H 160.695 -2.83948 1.30738 0
M  V30 1742 H 159.915 -1.74052 3.53694 0
M  V30 1743 H 161.203 -2.65641 4.33949 0
M  V30 1744 H 160.601 -5.14322 2.35563 0
M  V30 1745 H 159.158 -5.75567 3.05886 0
M  V30 1746 N 162.591 -1.51276 -0.441967 0
M  V30 1747 C 163.521 -1.752 -1.54361 0
M  V30 1748 C 164.502 -0.601682 -1.59103 0
M  V30 1749 O 165.687 -0.843913 -1.74905 0
M  V30 1750 C 162.817 -1.87282 -2.92477 0
M  V30 1751 C 161.771 -3.02687 -3.02596 0
M  V30 1752 C 161.097 -2.99947 -4.42647 0
M  V30 1753 C 162.397 -4.4273 -2.77106 0
M  V30 1754 H 164.091 -2.67442 -1.34592 0
M  V30 1755 H 161.637 -1.28694 -0.646048 0
M  V30 1756 H 163.59 -2.02602 -3.695 0
M  V30 1757 H 162.314 -0.916844 -3.13467 0
M  V30 1758 H 160.973 -2.87065 -2.28012 0
M  V30 1759 H 160.621 -2.02136 -4.60597 0
M  V30 1760 H 160.321 -3.77439 -4.50348 0
M  V30 1761 H 161.845 -3.17354 -5.2165 0
M  V30 1762 H 163.259 -4.58727 -3.43864 0
M  V30 1763 H 161.656 -5.21893 -2.96222 0
M  V30 1764 H 162.726 -4.53087 -1.72744 0
M  V30 1765 N 164.069 0.697108 -1.41344 0
M  V30 1766 C 164.979 1.84088 -1.45427 0
M  V30 1767 C 165.995 1.70545 -0.34501 0
M  V30 1768 O 167.171 1.92488 -0.592492 0
M  V30 1769 C 164.236 3.20056 -1.33286 0
M  V30 1770 C 163.297 3.45718 -2.54514 0
M  V30 1771 C 162.53 4.75199 -2.42944 0
M  V30 1772 O 162.753 5.51579 -1.45318 0
M  V30 1773 O 161.687 5.0161 -3.32672 0
M  V30 1774 H 165.513 1.836 -2.41919 0
M  V30 1775 H 163.098 0.849966 -1.22866 0
M  V30 1776 H 164.98 4.01236 -1.28794 0
M  V30 1777 H 163.655 3.2123 -0.39909 0
M  V30 1778 H 162.562 2.64474 -2.64583 0
M  V30 1779 H 163.895 3.49356 -3.46715 0
M  V30 1780 N 165.547 1.27147 0.931209 0
M  V30 1781 C 166.963 1.04475 1.20653 0
M  V30 1782 C 167.163 -0.223885 2.00252 0
M  V30 1783 O 166.219 -0.930332 2.34736 0
M  V30 1784 C 167.532 2.28209 1.95809 0
M  V30 1785 C 169.08 2.33211 2.08762 0
M  V30 1786 C 169.555 3.56665 2.87323 0
M  V30 1787 N 171.046 3.57201 2.94892 0
M  V30 1788 C 171.781 4.49395 3.56134 0
M  V30 1789 N 171.277 5.51889 4.18796 0
M  V30 1790 N 173.07 4.37026 3.53504 0
M  V30 1791 H 165.221 2.08612 0.399333 0
M  V30 1792 H 167.484 0.917312 0.239253 0
M  V30 1793 H 167.19 3.20538 1.44736 0
M  V30 1794 H 167.064 2.33247 2.96438 0
M  V30 1795 H 169.451 1.41391 2.59023 0
M  V30 1796 H 169.532 2.32178 1.07364 0
M  V30 1797 H 169.176 4.4882 2.37746 0
M  V30 1798 H 169.106 3.54948 3.88998 0
M  V30 1799 H 171.597 2.83074 2.50354 0
M  V30 1800 H 171.91 6.18409 4.63454 0
M  V30 1801 H 170.255 5.55735 4.17353 0
M  V30 1802 H 173.446 3.56166 3.03749 0
M  V30 1803 H 173.619 5.09067 4.00942 0
M  V30 1804 N 167.025 -1.13721 1.09112 0
M  V30 1805 C 167.955 -2.21148 0.749385 0
M  V30 1806 C 168.936 -1.6792 -0.271475 0
M  V30 1807 O 170.121 -1.93693 -0.140251 0
M  V30 1808 C 167.251 -3.46905 0.165659 0
M  V30 1809 C 166.205 -4.13203 1.11567 0
M  V30 1810 C 165.531 -5.33248 0.393809 0
M  V30 1811 C 166.831 -4.60912 2.45678 0
M  V30 1812 H 168.525 -2.4999 1.64758 0
M  V30 1813 H 166.071 -1.20156 0.793626 0
M  V30 1814 H 168.024 -4.21313 -0.085466 0
M  V30 1815 H 166.748 -3.17449 -0.767714 0
M  V30 1816 H 165.407 -3.40758 1.35202 0
M  V30 1817 H 165.055 -5.00054 -0.543599 0
M  V30 1818 H 164.755 -5.78552 1.02721 0
M  V30 1819 H 166.279 -6.10413 0.150908 0
M  V30 1820 H 167.693 -5.26759 2.26269 0
M  V30 1821 H 166.09 -5.16944 3.04776 0
M  V30 1822 H 167.16 -3.75603 3.06677 0
M  V30 1823 N 168.503 -0.877838 -1.30888 0
M  V30 1824 C 169.728 -0.506629 -2.01117 0
M  V30 1825 C 170.153 0.895564 -1.65412 0
M  V30 1826 O 169.511 1.5923 -0.866922 0
M  V30 1827 C 169.559 -0.680223 -3.54126 0
M  V30 1828 O 168.663 0.277033 -4.11468 0
M  V30 1829 H 168.004 -0.200518 -0.633 0
M  V30 1830 H 170.534 -1.18342 -1.66902 0
M  V30 1831 H 170.544 -0.5765 -4.03907 0
M  V30 1832 H 169.219 -1.70261 -3.79452 0
M  V30 1833 H 167.796 0.127606 -3.72682 0
M  V30 1834 N 169.982 1.44106 -0.638065 0
M  V30 1835 C 170.892 2.34513 0.0637334 0
M  V30 1836 C 171.908 1.53018 0.828346 0
M  V30 1837 O 173.084 1.85723 0.779036 0
M  V30 1838 C 170.149 3.31095 1.02844 0
M  V30 1839 C 169.21 4.28497 0.26244 0
M  V30 1840 C 168.443 5.20465 1.1812 0
M  V30 1841 O 168.666 5.16514 2.42011 0
M  V30 1842 O 167.6 5.98251 0.661774 0
M  V30 1843 H 171.426 2.95989 -0.68003 0
M  V30 1844 H 169.011 1.43994 -0.398252 0
M  V30 1845 H 170.893 3.90526 1.58327 0
M  V30 1846 H 169.568 2.72144 1.7527 0
M  V30 1847 H 168.475 3.72592 -0.335602 0
M  V30 1848 H 169.808 4.90388 -0.421936 0
M  V30 1849 N 171.46 0.379036 1.52974 0
M  V30 1850 C 172.39 -0.452706 2.29069 0
M  V30 1851 C 173.371 -1.07237 1.32039 0
M  V30 1852 O 174.556 -1.08708 1.60923 0
M  V30 1853 C 171.686 -1.5856 3.08992 0
M  V30 1854 C 170.64 -1.0925 4.13822 0
M  V30 1855 C 169.966 -2.31668 4.81907 0
M  V30 1856 C 171.266 -0.167702 5.22031 0
M  V30 1857 H 172.96 0.182181 2.98845 0
M  V30 1858 H 170.506 0.0890592 1.43724 0
M  V30 1859 H 172.459 -2.1742 3.6098 0
M  V30 1860 H 171.183 -2.24792 2.36931 0
M  V30 1861 H 169.842 -0.526494 3.628 0
M  V30 1862 H 169.49 -2.96386 4.06404 0
M  V30 1863 H 169.19 -1.9934 5.52754 0
M  V30 1864 H 170.714 -2.91189 5.36695 0
M  V30 1865 H 172.128 -0.664186 5.6944 0
M  V30 1866 H 170.525 0.0653265 6.00064 0
M  V30 1867 H 171.595 0.786347 4.78482 0
M  V30 1868 N 172.938 -1.57226 0.108567 0
M  V30 1869 C 174.184 -1.95121 -0.552761 0
M  V30 1870 C 174.517 -0.991345 -1.66991 0
M  V30 1871 O 173.792 -0.0267211 -1.94482 0
M  V30 1872 C 174.075 -3.43039 -1.09528 0
M  V30 1873 C 173.928 -4.49797 0.0177332 0
M  V30 1874 C 175.247 -3.92567 -1.98945 0
M  V30 1875 H 172.366 -0.709496 -0.199461 0
M  V30 1876 H 175.008 -1.89126 0.182011 0
M  V30 1877 H 173.158 -3.48279 -1.72146 0
M  V30 1878 H 174.83 -4.56661 0.652584 0
M  V30 1879 H 173.073 -4.284 0.682309 0
M  V30 1880 H 173.744 -5.50528 -0.402919 0
M  V30 1881 H 176.22 -3.89565 -1.46214 0
M  V30 1882 H 175.096 -4.96605 -2.33827 0
M  V30 1883 H 175.357 -3.32648 -2.91201 0
M  V30 1884 N 174.416 0.165178 -1.56732 0
M  V30 1885 C 175.693 0.908443 -1.73224 0
M  V30 1886 C 176.073 2.0013 -0.67165 0
M  V30 1887 O 175.421 2.26353 0.31253 0
M  V30 1888 C 175.631 1.46756 -3.16644 0
M  V30 1889 C 176.979 1.93809 -3.77787 0
M  V30 1890 O 178.003 1.56537 -3.1996 0
M  V30 1891 O 176.862 2.62486 -4.79336 0
M  V30 1892 H 173.956 0.428025 -0.707618 0
M  V30 1893 H 176.502 0.152526 -1.69013 0
M  V30 1894 H 175.274 0.68129 -3.85323 0
M  V30 1895 H 174.897 2.28749 -3.25207 0
M  V30 1896 N 175.894 1.51508 0.433938 0
M  V30 1897 C 177.14 1.64588 1.18484 0
M  V30 1898 C 177.473 0.362666 1.90784 0
M  V30 1899 O 176.748 -0.637892 1.83742 0
M  V30 1900 C 177.031 2.85149 2.19913 0
M  V30 1901 C 176.884 4.23456 1.51674 0
M  V30 1902 C 178.203 3.01227 3.20858 0
M  V30 1903 H 175.322 0.598994 0.429389 0
M  V30 1904 H 177.964 1.84002 0.473647 0
M  V30 1905 H 176.114 2.68729 2.80566 0
M  V30 1906 H 177.786 4.51552 0.943322 0
M  V30 1907 H 176.029 4.25998 0.819035 0
M  V30 1908 H 176.7 5.03812 2.2556 0
M  V30 1909 H 179.176 3.16382 2.70263 0
M  V30 1910 H 178.052 3.87141 3.89118 0
M  V30 1911 H 178.313 2.13447 3.8716 0
M  V30 1912 N 177.372 -0.689602 1.41712 0
M  V30 1913 C 178.783 -1.26973 1.36875 0
M  V30 1914 C 179.134 -1.96124 0.054748 0
M  V30 1915 O 178.259 -1.99141 -0.84687 0
M  V30 1916 C 178.854 -2.30912 2.47922 0
M  V30 1917 C 177.413 -2.84486 2.46464 0
M  V30 1918 C 176.56 -1.58603 2.27465 0
M  V30 1919 H 179.511 -0.48396 1.51141 0
M  V30 1920 H 179.532 -3.12331 2.17323 0
M  V30 1921 H 179.044 -1.80554 3.43543 0
M  V30 1922 H 177.145 -3.39005 1.54617 0
M  V30 1923 H 177.258 -3.34511 3.42986 0
M  V30 1924 H 175.622 -1.84632 1.75451 0
M  V30 1925 H 176.405 -1.10233 3.25121 0
M  V30 1926 N 178.85 -1.27639 -0.924453 0
M  V30 1927 C 180.096 -1.14336 -1.67497 0
M  V30 1928 C 180.429 0.309465 -1.91718 0
M  V30 1929 O 179.704 1.22608 -1.50989 0
M  V30 1930 C 179.987 -1.93096 -3.0395 0
M  V30 1931 C 179.84 -3.46381 -2.8695 0
M  V30 1932 C 181.159 -1.73798 -4.0433 0
M  V30 1933 H 178.278 -0.416728 -0.607871 0
M  V30 1934 H 180.92 -1.56832 -1.07256 0
M  V30 1935 H 179.07 -1.56982 -3.55372 0
M  V30 1936 H 180.742 -3.92343 -2.42621 0
M  V30 1937 H 178.985 -3.72557 -2.22225 0
M  V30 1938 H 179.656 -3.96735 -3.83804 0
M  V30 1939 H 182.132 -2.05293 -3.61931 0
M  V30 1940 H 181.008 -2.31294 -4.97789 0
M  V30 1941 H 181.269 -0.686725 -4.36734 0
M  V30 1942 N 180.328 1.1314 -1.09713 0
M  V30 1943 C 181.605 1.80762 -0.747302 0
M  V30 1944 C 181.985 1.96663 0.767265 0
M  V30 1945 O 181.333 1.53706 1.69076 0
M  V30 1946 C 181.543 3.15606 -1.48975 0
M  V30 1947 C 182.891 3.90914 -1.65746 0
M  V30 1948 O 183.915 3.25239 -1.45251 0
M  V30 1949 O 182.774 5.08718 -1.9967 0
M  V30 1950 H 179.868 0.782103 -0.268782 0
M  V30 1951 H 182.414 1.20041 -1.19951 0
M  V30 1952 H 181.186 2.99278 -2.52088 0
M  V30 1953 H 180.809 3.84029 -1.02991 0
M  V30 1954 N 181.806 0.884767 1.30421 0
M  V30 1955 C 183.052 0.503851 1.96441 0
M  V30 1956 C 183.385 -0.944518 1.69684 0
M  V30 1957 O 182.66 -1.66737 1.00145 0
M  V30 1958 C 182.943 0.779085 3.51571 0
M  V30 1959 C 182.796 2.27807 3.87846 0
M  V30 1960 C 184.115 0.255452 4.39358 0
M  V30 1961 H 181.234 0.184533 0.713524 0
M  V30 1962 H 183.876 1.10872 1.54297 0
M  V30 1963 H 182.026 0.264274 3.876 0
M  V30 1964 H 183.698 2.86127 3.61841 0
M  V30 1965 H 181.941 2.74479 3.35922 0
M  V30 1966 H 182.612 2.42125 4.96064 0
M  V30 1967 H 185.088 0.696079 4.10236 0
M  V30 1968 H 183.964 0.477361 5.4682 0
M  V30 1969 H 184.225 -0.843293 4.33983 0
M  V30 1970 N 183.284 -1.43765 0.645699 0
M  V30 1971 C 184.214 -2.33471 -0.0370477 0
M  V30 1972 C 185.195 -1.49042 -0.819779 0
M  V30 1973 O 186.38 -1.77726 -0.782758 0
M  V30 1974 C 183.51 -3.32311 -1.0093 0
M  V30 1975 C 182.464 -4.2667 -0.337201 0
M  V30 1976 C 181.79 -5.1549 -1.42037 0
M  V30 1977 C 183.09 -5.16657 0.765706 0
M  V30 1978 H 184.784 -2.90809 0.712069 0
M  V30 1979 H 182.33 -1.39834 0.343876 0
M  V30 1980 H 184.283 -3.9396 -1.49578 0
M  V30 1981 H 183.007 -2.73213 -1.78948 0
M  V30 1982 H 181.666 -3.66374 0.128771 0
M  V30 1983 H 181.314 -4.52735 -2.1918 0
M  V30 1984 H 181.014 -5.79438 -0.975966 0
M  V30 1985 H 182.538 -5.80012 -1.90838 0
M  V30 1986 H 183.952 -5.72158 0.361702 0
M  V30 1987 H 182.349 -5.89286 1.13413 0
M  V30 1988 H 183.419 -4.56796 1.62683 0
M  V30 1989 N 184.763 -0.387143 -1.52771 0
M  V30 1990 C 186.179 -0.037007 -1.59557 0
M  V30 1991 C 186.379 1.44801 -1.40124 0
M  V30 1992 O 185.435 2.21227 -1.21716 0
M  V30 1993 C 186.748 -0.512256 -2.96305 0
M  V30 1994 C 188.296 -0.468328 -3.09476 0
M  V30 1995 C 188.771 -0.919731 -4.4867 0
M  V30 1996 N 190.262 -0.875656 -4.54848 0
M  V30 1997 C 190.997 -1.19637 -5.6078 0
M  V30 1998 N 190.493 -1.58745 -6.74368 0
M  V30 1999 N 192.286 -1.11776 -5.50874 0
M  V30 2000 H 184.437 -1.35395 -1.63652 0
M  V30 2001 H 186.7 -0.554818 -0.768688 0
M  V30 2002 H 186.406 -1.54935 -3.15734 0
M  V30 2003 H 186.28 0.089805 -3.77093 0
M  V30 2004 H 188.667 0.559671 -2.89744 0
M  V30 2005 H 188.748 -1.10616 -2.30646 0
M  V30 2006 H 188.392 -1.94595 -4.69143 0
M  V30 2007 H 188.322 -0.258927 -5.25963 0
M  V30 2008 H 190.813 -0.587843 -3.733 0
M  V30 2009 H 191.126 -1.81586 -7.51163 0
M  V30 2010 H 189.471 -1.6263 -6.75705 0
M  V30 2011 H 192.662 -0.811264 -4.61016 0
M  V30 2012 H 192.835 -1.37103 -6.3333 0
M  V30 2013 N 186.241 1.57166 -0.116904 0
M  V30 2014 C 187.189 2.16457 0.851418 0
M  V30 2015 C 188.183 1.11323 1.27686 0
M  V30 2016 O 189.389 1.2963 1.24884 0
M  V30 2017 H 185.764 0.69271 0.292672 0
M  V30 2018 H 187.735 2.96605 0.32685 0
M  V30 2019 C 186.484 2.77689 2.09246 0
M  V30 2020 H 185.807 3.58285 1.77402 0
M  V30 2021 H 187.247 3.22716 2.7501 0
M  V30 2022 C 185.706 1.74667 2.88085 0
M  V30 2023 O 186.236 1.19877 3.83396 0
M  V30 2024 N 184.442 1.44656 2.52038 0
M  V30 2025 H 183.989 1.89402 1.74599 0
M  V30 2026 H 183.947 0.759675 3.05084 0
M  V30 2027 N 187.719 -0.156864 1.56817 0
M  V30 2028 C 188.666 -1.19394 1.97519 0
M  V30 2029 C 189.636 -1.4322 0.841265 0
M  V30 2030 O 190.821 -1.55719 1.10255 0
M  V30 2031 C 187.961 -2.52483 2.35258 0
M  V30 2032 C 187.074 -2.35914 3.61896 0
M  V30 2033 C 186.209 -3.61969 3.88782 0
M  V30 2034 C 185.248 -3.40395 5.08722 0
M  V30 2035 N 184.385 -4.58556 5.31668 0
M  V30 2036 H 189.225 -0.839845 2.85921 0
M  V30 2037 H 186.762 -0.403264 1.41464 0
M  V30 2038 H 188.72 -3.30071 2.55165 0
M  V30 2039 H 187.35 -2.85859 1.49949 0
M  V30 2040 H 186.402 -1.49429 3.49821 0
M  V30 2041 H 187.714 -2.15926 4.49641 0
M  V30 2042 H 186.868 -4.47989 4.09135 0
M  V30 2043 H 185.607 -3.84951 2.9944 0
M  V30 2044 H 184.612 -2.52763 4.88253 0
M  V30 2045 H 185.837 -3.18822 5.99608 0
M  V30 2046 H 183.783 -4.81729 4.45279 0
M  V30 2047 H 183.7 -4.41535 6.13664 0
M  V30 2048 H 184.968 -5.45817 5.5651 0
M  V30 2049 N 189.197 -1.51736 -0.425897 0
M  V30 2050 C 190.127 -1.76827 -1.52494 0
M  V30 2051 C 191.108 -0.618524 -1.58456 0
M  V30 2052 O 192.293 -0.862416 -1.74 0
M  V30 2053 C 189.423 -1.90374 -2.90474 0
M  V30 2054 C 188.377 -3.0588 -2.99369 0
M  V30 2055 C 187.703 -3.04625 -4.3944 0
M  V30 2056 C 189.003 -4.45644 -2.72394 0
M  V30 2057 H 190.697 -2.68855 -1.31748 0
M  V30 2058 H 188.243 -1.29372 -0.632362 0
M  V30 2059 H 190.196 -2.0651 -3.6733 0
M  V30 2060 H 188.92 -0.95004 -3.12477 0
M  V30 2061 H 187.579 -2.89467 -2.24954 0
M  V30 2062 H 187.227 -2.0701 -4.58428 0
M  V30 2063 H 186.927 -3.82195 -4.46319 0
M  V30 2064 H 188.451 -3.22869 -5.18255 0
M  V30 2065 H 189.865 -4.62348 -3.38979 0
M  V30 2066 H 188.262 -5.25006 -2.9067 0
M  V30 2067 H 189.332 -4.54893 -1.67929 0
M  V30 2068 N 190.675 0.682077 -1.42076 0
M  V30 2069 C 191.585 1.82535 -1.47371 0
M  V30 2070 C 192.601 1.7017 -0.363079 0
M  V30 2071 O 193.777 1.91848 -0.612875 0
M  V30 2072 C 190.842 3.18624 -1.36674 0
M  V30 2073 C 189.903 3.42999 -2.58167 0
M  V30 2074 C 189.136 4.72595 -2.4797 0
M  V30 2075 O 189.359 5.50006 -1.5116 0
M  V30 2076 O 188.293 4.98054 -3.37974 0
M  V30 2077 H 192.119 1.81023 -2.43853 0
M  V30 2078 H 189.704 0.836887 -1.2376 0
M  V30 2079 H 191.586 3.99847 -1.33043 0
M  V30 2080 H 190.261 3.20789 -0.433138 0
M  V30 2081 H 189.168 2.61653 -2.67373 0
M  V30 2082 H 190.501 3.45659 -3.50401 0
M  V30 2083 N 192.153 1.28127 0.917671 0
M  V30 2084 C 193.085 1.07517 2.02417 0
M  V30 2085 C 194.098 0.0281099 1.62776 0
M  V30 2086 O 195.287 0.270748 1.76435 0
M  V30 2087 C 192.387 0.610957 3.33347 0
M  V30 2088 C 191.56 1.73255 4.01624 0
M  V30 2089 C 190.619 1.26238 5.10833 0
M  V30 2090 O 189.645 1.96389 5.34247 0
M  V30 2091 N 190.847 0.123448 5.80369 0
M  V30 2092 H 193.612 2.02806 2.20658 0
M  V30 2093 H 191.173 1.19827 1.08871 0
M  V30 2094 H 193.165 0.280101 4.0373 0
M  V30 2095 H 191.735 -0.24898 3.11607 0
M  V30 2096 H 190.955 2.23319 3.24842 0
M  V30 2097 H 192.243 2.48503 4.43986 0
M  V30 2098 H 191.641 -0.461847 5.63812 0
M  V30 2099 H 190.198 -0.148158 6.51632 0
M  V30 2100 N 193.631 -1.12557 1.10312 0
M  V30 2101 C 194.578 -2.18247 0.750781 0
M  V30 2102 C 195.548 -1.63853 -0.272293 0
M  V30 2103 O 196.733 -1.90195 -0.151862 0
M  V30 2104 C 193.873 -3.44591 0.187379 0
M  V30 2105 C 192.986 -4.13046 1.2656 0
M  V30 2106 C 192.121 -5.27034 0.663978 0
M  V30 2107 C 191.16 -5.87353 1.72287 0
M  V30 2108 N 190.297 -6.92757 1.1416 0
M  V30 2109 H 195.137 -2.47732 1.65628 0
M  V30 2110 H 192.674 -1.21629 0.827337 0
M  V30 2111 H 194.632 -4.16904 -0.157148 0
M  V30 2112 H 193.262 -3.15527 -0.681355 0
M  V30 2113 H 192.314 -3.38924 1.72727 0
M  V30 2114 H 193.626 -4.53947 2.06721 0
M  V30 2115 H 192.78 -6.06104 0.268824 0
M  V30 2116 H 191.519 -4.87407 -0.169082 0
M  V30 2117 H 190.524 -5.06971 2.12746 0
M  V30 2118 H 191.749 -6.29051 2.55875 0
M  V30 2119 H 189.695 -6.5517 0.329984 0
M  V30 2120 H 189.612 -7.3225 1.88007 0
M  V30 2121 H 190.88 -7.75658 0.772956 0
M  V30 2122 N 195.109 -0.891671 -1.2995 0
M  V30 2123 C 196.357 -0.512486 -1.95494 0
M  V30 2124 C 196.678 0.942776 -1.70695 0
M  V30 2125 O 195.948 1.66374 -1.03424 0
M  V30 2126 H 194.528 -0.186533 -0.723336 0
M  V30 2127 H 197.19 -1.13621 -1.58355 0
M  V30 2128 H 196.286 -0.688342 -3.04415 0
M  V30 2129 N 196.587 1.43421 -0.653314 0
M  V30 2130 C 197.534 2.30768 0.0382271 0
M  V30 2131 C 198.504 1.44755 0.814576 0
M  V30 2132 O 199.689 1.73624 0.791162 0
M  V30 2133 C 196.829 3.30336 0.998599 0
M  V30 2134 C 195.942 4.31448 0.218342 0
M  V30 2135 C 195.077 5.18098 1.17252 0
M  V30 2136 C 194.116 6.10902 0.382702 0
M  V30 2137 N 193.253 6.90176 1.28848 0
M  V30 2138 H 198.093 2.89357 -0.712511 0
M  V30 2139 H 195.63 1.42548 -0.363128 0
M  V30 2140 H 197.588 3.86572 1.56901 0
M  V30 2141 H 196.218 2.73397 1.71621 0
M  V30 2142 H 195.27 3.77506 -0.46836 0
M  V30 2143 H 196.582 4.97227 -0.395812 0
M  V30 2144 H 195.736 5.7896 1.81356 0
M  V30 2145 H 194.475 4.52444 1.82058 0
M  V30 2146 H 193.48 5.49128 -0.27169 0
M  V30 2147 H 194.705 6.78598 -0.260957 0
M  V30 2148 H 192.651 6.27171 1.92334 0
M  V30 2149 H 192.568 7.52478 0.728887 0
M  V30 2150 H 193.836 7.55543 1.91766 0
M  V30 2151 N 198.065 0.39524 1.52563 0
M  V30 2152 C 199.29 -0.187456 2.06551 0
M  V30 2153 C 199.715 -1.39249 1.26457 0
M  V30 2154 O 199.073 -1.78947 0.291151 0
M  V30 2155 C 199.121 -0.529985 3.56684 0
M  V30 2156 O 198.225 -1.62307 3.79118 0
M  V30 2157 H 197.566 -0.0202537 0.663691 0
M  V30 2158 H 200.096 0.564426 1.96661 0
M  V30 2159 H 200.106 -0.792598 4.00227 0
M  V30 2160 H 198.781 0.350987 4.14416 0
M  V30 2161 H 197.358 -1.3537 3.47461 0
M  V30 2162 N 199.544 -1.57102 0.125237 0
M  V30 2163 C 200.791 -1.95407 -0.531248 0
M  V30 2164 C 201.119 -1.0089 -1.66287 0
M  V30 2165 O 200.374 -0.0339431 -1.95671 0
M  V30 2166 C 200.673 -3.40096 -1.09862 0
M  V30 2167 C 200.339 -4.50815 -0.0876989 0
M  V30 2168 C 199.001 -4.80824 0.19026 0
M  V30 2169 C 201.353 -5.17724 0.600902 0
M  V30 2170 C 198.681 -5.75058 1.163 0
M  V30 2171 C 201.033 -6.13005 1.56231 0
M  V30 2172 C 199.697 -6.41403 1.8482 0
M  V30 2173 H 198.967 -0.715046 -0.194397 0
M  V30 2174 H 201.614 -1.90373 0.207463 0
M  V30 2175 H 199.919 -3.41855 -1.91422 0
M  V30 2176 H 201.616 -3.6705 -1.61478 0
M  V30 2177 H 198.206 -4.27444 -0.314528 0
M  V30 2178 H 202.39 -4.94691 0.399333 0
M  V30 2179 H 197.646 -5.95362 1.39117 0
M  V30 2180 H 201.82 -6.63934 2.10153 0
M  V30 2181 H 199.447 -7.14229 2.60349 0
M  V30 2182 N 201.022 0.148545 -1.56898 0
M  V30 2183 C 202.271 0.85984 -1.82454 0
M  V30 2184 C 202.584 1.82406 -0.706229 0
M  V30 2185 O 203.79 2.57938 -0.847349 0
M  V30 2186 C 202.246 1.57967 -3.2338 0
M  V30 2187 C 201.854 0.65794 -4.43142 0
M  V30 2188 C 203.598 2.27784 -3.58211 0
M  V30 2189 C 201.505 1.3793 -5.75091 0
M  V30 2190 H 200.435 0.324834 -0.68044 0
M  V30 2191 H 203.086 0.112588 -1.83154 0
M  V30 2192 H 201.468 2.37249 -3.17063 0
M  V30 2193 H 202.642 -0.0995497 -4.60692 0
M  V30 2194 H 200.957 0.0682643 -4.16344 0
M  V30 2195 H 203.554 2.8239 -4.54048 0
M  V30 2196 H 203.897 3.04204 -2.84193 0
M  V30 2197 H 204.43 1.55421 -3.66182 0
M  V30 2198 H 201.169 0.656982 -6.52199 0
M  V30 2199 H 200.689 2.10954 -5.61479 0
M  V30 2200 H 202.368 1.92063 -6.17835 0
M  V30 2201 N 202.5 1.5196 0.417844 0
M  V30 2202 C 203.746 1.66793 1.16411 0
M  V30 2203 C 204.101 0.388758 1.88432 0
M  V30 2204 O 203.394 -0.616409 1.81414 0
M  V30 2205 C 203.588 2.82269 2.19223 0
M  V30 2206 C 203.417 4.21293 1.57297 0
M  V30 2207 C 202.187 4.86948 1.34944 0
M  V30 2208 C 204.385 5.03704 1.03858 0
M  V30 2209 N 202.367 6.1003 0.688195 0
M  V30 2210 C 203.738 6.1795 0.503742 0
M  V30 2211 C 205.793 4.89095 0.932203 0
M  V30 2212 C 204.496 7.19188 -0.127034 0
M  V30 2213 C 206.522 5.90559 0.315293 0
M  V30 2214 C 205.884 7.0409 -0.208906 0
M  V30 2215 H 201.983 0.66407 0.412959 0
M  V30 2216 H 204.567 1.89242 0.457772 0
M  V30 2217 H 202.738 2.61451 2.87225 0
M  V30 2218 H 204.47 2.86183 2.86149 0
M  V30 2219 H 201.225 4.45156 1.61657 0
M  V30 2220 H 201.649 6.75964 0.374449 0
M  V30 2221 H 206.291 4.01557 1.32332 0
M  V30 2222 H 204.009 8.06359 -0.530231 0
M  V30 2223 H 207.595 5.81327 0.234625 0
M  V30 2224 H 206.475 7.81257 -0.67875 0
M  V30 2225 N 203.978 -0.674533 1.42435 0
M  V30 2226 C 205.227 -1.43034 1.42212 0
M  V30 2227 C 205.54 -1.95555 0.0420788 0
M  V30 2228 O 206.746 -2.71374 -0.0827558 0
M  V30 2229 C 205.202 -2.58748 2.50155 0
M  V30 2230 C 204.81 -2.12925 3.94166 0
M  V30 2231 C 206.554 -3.36257 2.59098 0
M  V30 2232 C 204.461 -3.25723 4.93618 0
M  V30 2233 H 203.391 -0.537345 0.528939 0
M  V30 2234 H 206.042 -0.73024 1.68344 0
M  V30 2235 H 204.424 -3.31128 2.17188 0
M  V30 2236 H 205.598 -1.47697 4.36488 0
M  V30 2237 H 203.913 -1.48354 3.89076 0
M  V30 2238 H 206.51 -4.20264 3.30578 0
M  V30 2239 H 206.853 -3.82866 1.63461 0
M  V30 2240 H 207.386 -2.70947 2.9126 0
M  V30 2241 H 204.125 -2.84105 5.90732 0
M  V30 2242 H 203.645 -3.89732 4.55926 0
M  V30 2243 H 205.324 -3.91186 5.15347 0
M  V30 2244 N 205.456 -1.28612 -0.910864 0
M  V30 2245 C 206.403 -1.12786 -2.01365 0
M  V30 2246 C 207.373 -0.024201 -1.66082 0
M  V30 2247 O 208.558 -0.189667 -1.89855 0
M  V30 2248 C 205.698 -0.798743 -3.35729 0
M  V30 2249 C 204.811 -1.98173 -3.83864 0
M  V30 2250 C 203.946 -1.59298 -5.06752 0
M  V30 2251 C 202.985 -2.74245 -5.47226 0
M  V30 2252 N 202.122 -2.35842 -6.61304 0
M  V30 2253 H 206.962 -2.07142 -2.14234 0
M  V30 2254 H 204.499 -1.03093 -1.0493 0
M  V30 2255 H 206.457 -0.588662 -4.13026 0
M  V30 2256 H 205.087 0.10789 -3.2262 0
M  V30 2257 H 204.139 -2.30386 -3.02699 0
M  V30 2258 H 205.451 -2.84343 -4.09818 0
M  V30 2259 H 204.605 -1.34513 -5.916 0
M  V30 2260 H 203.344 -0.702618 -4.82612 0
M  V30 2261 H 202.349 -2.99725 -4.60918 0
M  V30 2262 H 203.574 -3.63928 -5.73353 0
M  V30 2263 H 201.52 -1.49279 -6.38789 0
M  V30 2264 H 201.437 -3.15546 -6.86998 0
M  V30 2265 H 202.705 -2.14348 -7.4945 0
M  V30 2266 N 206.934 1.1197 -1.10907 0
M  V30 2267 C 208.35 1.35591 -0.841852 0
M  V30 2268 C 208.55 1.94233 0.536246 0
M  V30 2269 O 207.606 2.1717 1.28816 0
M  V30 2270 C 208.919 2.29284 -1.94549 0
M  V30 2271 C 210.467 2.42862 -1.97451 0
M  V30 2272 C 210.942 3.39873 -3.07002 0
M  V30 2273 N 212.433 3.47433 -3.06341 0
M  V30 2274 C 213.168 4.22421 -3.87748 0
M  V30 2275 N 212.664 5.00432 -4.79103 0
M  V30 2276 N 214.457 4.17876 -3.75946 0
M  V30 2277 H 206.608 0.722664 -1.99728 0
M  V30 2278 H 208.871 0.380635 -0.868229 0
M  V30 2279 H 208.577 1.93378 -2.93765 0
M  V30 2280 H 208.451 3.29452 -1.83688 0
M  V30 2281 H 210.838 2.78046 -0.988645 0
M  V30 2282 H 210.919 1.42566 -2.12388 0
M  V30 2283 H 210.563 3.05417 -4.05811 0
M  V30 2284 H 210.493 4.40011 -2.89306 0
M  V30 2285 H 212.984 2.91784 -2.40147 0
M  V30 2286 H 213.297 5.55002 -5.37766 0
M  V30 2287 H 211.642 4.99612 -4.83128 0
M  V30 2288 H 214.833 3.56016 -3.03924 0
M  V30 2289 H 215.006 4.76061 -4.39624 0
M  V30 2290 N 208.412 0.89855 1.29475 0
M  V30 2291 C 209.344 0.332726 2.26772 0
M  V30 2292 C 210.357 -0.520323 1.54261 0
M  V30 2293 O 211.546 -0.337668 1.75277 0
M  V30 2294 C 208.646 -0.544334 3.345 0
M  V30 2295 C 207.819 0.282728 4.36485 0
M  V30 2296 C 206.878 -0.526982 5.23555 0
M  V30 2297 O 205.904 0.0551165 5.69173 0
M  V30 2298 N 207.106 -1.83331 5.5079 0
M  V30 2299 H 209.871 1.16897 2.75962 0
M  V30 2300 H 207.432 0.762919 1.42798 0
M  V30 2301 H 209.424 -1.09239 3.89678 0
M  V30 2302 H 207.994 -1.28127 2.85136 0
M  V30 2303 H 207.214 1.01221 3.80983 0
M  V30 2304 H 208.502 0.84918 5.01664 0
M  V30 2305 H 207.9 -2.32898 5.15534 0
M  V30 2306 H 206.457 -2.32852 6.08788 0
M  V30 2307 N 209.89 -1.43072 0.660911 0
M  V30 2308 C 210.82 -2.33497 -0.0122829 0
M  V30 2309 C 211.801 -1.49903 -0.803925 0
M  V30 2310 O 212.986 -1.78546 -0.763864 0
M  V30 2311 C 210.116 -3.33363 -0.973994 0
M  V30 2312 C 209.07 -4.27003 -0.291928 0
M  V30 2313 C 208.396 -5.16967 -1.36562 0
M  V30 2314 C 209.696 -5.15816 0.820462 0
M  V30 2315 H 211.39 -2.90038 0.742873 0
M  V30 2316 H 208.936 -1.39461 0.358688 0
M  V30 2317 H 210.889 -3.95524 -1.45392 0
M  V30 2318 H 209.613 -2.75095 -1.7604 0
M  V30 2319 H 208.272 -3.66217 0.167623 0
M  V30 2320 H 207.92 -4.55034 -2.14366 0
M  V30 2321 H 207.62 -5.80441 -0.914454 0
M  V30 2322 H 209.144 -5.82003 -1.84675 0
M  V30 2323 H 210.558 -5.71742 0.422366 0
M  V30 2324 H 208.955 -5.8805 1.19656 0
M  V30 2325 H 210.025 -4.55045 1.67518 0
M  V30 2326 N 211.368 -0.403325 -1.52352 0
M  V30 2327 C 212.645 0.232611 -1.94212 0
M  V30 2328 C 213.025 1.63133 -1.33981 0
M  V30 2329 O 212.373 2.22659 -0.513344 0
M  V30 2330 C 212.583 0.244811 -3.4814 0
M  V30 2331 C 213.931 0.46698 -4.22024 0
M  V30 2332 O 214.955 0.324419 -3.5472 0
M  V30 2333 O 213.814 0.74747 -5.41364 0
M  V30 2334 H 210.908 0.148223 -0.813609 0
M  V30 2335 H 213.454 -0.458848 -1.63379 0
M  V30 2336 H 212.226 -0.734378 -3.84347 0
M  V30 2337 H 211.849 0.980611 -3.85318 0
M  V30 2338 N 212.846 1.57033 -0.133567 0
M  V30 2339 C 214.257 1.82593 0.389464 0
M  V30 2340 C 214.608 1.05156 1.6564 0
M  V30 2341 O 213.733 0.292644 2.14412 0
M  V30 2342 C 214.328 3.31204 0.713377 0
M  V30 2343 C 212.887 3.57393 1.18098 0
M  V30 2344 C 212.034 2.76598 0.197126 0
M  V30 2345 H 214.985 1.54598 -0.358481 0
M  V30 2346 H 215.006 3.46627 1.56939 0
M  V30 2347 H 214.518 3.87537 -0.2089 0
M  V30 2348 H 212.619 3.06433 2.11966 0
M  V30 2349 H 212.732 4.65915 1.11624 0
M  V30 2350 H 211.096 2.45257 0.687088 0
M  V30 2351 H 211.879 3.35697 -0.718504 0
M  V30 2352 N 214.325 -0.140222 1.56975 0
M  V30 2353 C 215.272 -1.17292 1.98774 0
M  V30 2354 C 216.242 -1.4232 0.856408 0
M  V30 2355 O 217.427 -1.54541 1.119 0
M  V30 2356 C 214.567 -2.49973 2.37923 0
M  V30 2357 C 213.68 -2.32062 3.64378 0
M  V30 2358 C 212.815 -3.57825 3.926 0
M  V30 2359 C 211.854 -3.3498 5.12303 0
M  V30 2360 N 210.991 -4.52891 5.36502 0
M  V30 2361 H 215.831 -0.809472 2.86795 0
M  V30 2362 H 213.368 -0.388237 1.41884 0
M  V30 2363 H 215.326 -3.27346 2.58652 0
M  V30 2364 H 213.956 -2.84252 1.52972 0
M  V30 2365 H 213.008 -1.45711 3.51387 0
M  V30 2366 H 214.32 -2.11145 4.51906 0
M  V30 2367 H 213.474 -4.43624 4.13863 0
M  V30 2368 H 212.213 -3.81753 3.03506 0
M  V30 2369 H 211.218 -2.4757 4.90906 0
M  V30 2370 H 212.443 -3.12444 6.02956 0
M  V30 2371 H 210.389 -4.76979 4.50363 0
M  V30 2372 H 210.306 -4.35001 6.18312 0
M  V30 2373 H 211.574 -5.39884 5.62268 0
M  V30 2374 N 215.803 -1.52179 -0.40978 0
M  V30 2375 C 217.049 -1.66453 -1.15851 0
M  V30 2376 C 217.382 -0.392972 -1.90182 0
M  V30 2377 O 216.657 0.608579 -1.84734 0
M  V30 2378 C 216.94 -2.88612 -2.15349 0
M  V30 2379 C 216.793 -4.25815 -1.44918 0
M  V30 2380 C 218.112 -3.06294 -3.16026 0
M  V30 2381 H 215.231 -0.60575 -0.419805 0
M  V30 2382 H 217.873 -1.84732 -0.444314 0
M  V30 2383 H 216.023 -2.73158 -2.76255 0
M  V30 2384 H 217.695 -4.52995 -0.871365 0
M  V30 2385 H 215.938 -4.27247 -0.751159 0
M  V30 2386 H 216.609 -5.07337 -2.17516 0
M  V30 2387 H 219.085 -3.20641 -2.65195 0
M  V30 2388 H 217.961 -3.93283 -3.8291 0
M  V30 2389 H 218.222 -2.19579 -3.83715 0
M  V30 2390 N 217.281 0.66697 -1.42791 0
M  V30 2391 C 218.244 1.76211 -1.46568 0
M  V30 2392 C 219.244 1.56896 -0.352196 0
M  V30 2393 O 220.434 1.63044 -0.613364 0
M  V30 2394 C 217.566 3.14935 -1.30494 0
M  V30 2395 H 218.759 1.74247 -2.44086 0
M  V30 2396 H 216.312 0.877342 -1.29354 0
M  V30 2397 H 217.047 3.2252 -0.339301 0
M  V30 2398 H 216.832 3.30359 -2.11199 0
M  V30 2399 H 218.322 3.94821 -1.36038 0
M  V30 2400 N 218.759 1.29093 0.90403 0
M  V30 2401 C 219.669 1.15727 2.0407 0
M  V30 2402 C 220.685 0.0815308 1.73809 0
M  V30 2403 O 221.861 0.292749 1.99261 0
M  V30 2404 C 218.926 0.830424 3.36608 0
M  V30 2405 C 217.987 1.98955 3.80415 0
M  V30 2406 C 217.22 1.6782 5.06628 0
M  V30 2407 O 217.443 0.597105 5.67266 0
M  V30 2408 O 216.377 2.52486 5.46383 0
M  V30 2409 H 220.203 2.11171 2.18267 0
M  V30 2410 H 217.788 1.08504 1.027 0
M  V30 2411 H 219.67 0.662521 4.16159 0
M  V30 2412 H 218.345 -0.0942678 3.23563 0
M  V30 2413 H 217.252 2.21267 3.01648 0
M  V30 2414 H 218.585 2.89529 3.98037 0
M  V30 2415 N 220.237 -1.11381 1.11499 0
M  V30 2416 C 221.147 -2.21019 0.786628 0
M  V30 2417 C 222.163 -1.72597 -0.220507 0
M  V30 2418 O 223.339 -2.01321 -0.0565251 0
M  V30 2419 C 220.404 -3.459 0.235333 0
M  V30 2420 C 219.465 -4.09107 1.30115 0
M  V30 2421 C 218.698 -5.28027 0.776068 0
M  V30 2422 O 218.921 -5.6904 -0.393661 0
M  V30 2423 O 217.855 -5.81835 1.54114 0
M  V30 2424 H 221.681 -2.51521 1.70209 0
M  V30 2425 H 219.266 -1.19928 0.890928 0
M  V30 2426 H 221.148 -4.21346 -0.067715 0
M  V30 2427 H 219.823 -3.17049 -0.652828 0
M  V30 2428 H 218.73 -3.35391 1.65722 0
M  V30 2429 H 220.063 -4.42139 2.16273 0
M  V30 2430 N 221.715 -0.905404 -1.28997 0
M  V30 2431 C 222.961 -0.535039 -1.95615 0
M  V30 2432 C 223.294 0.917404 -1.71165 0
M  V30 2433 O 222.569 1.65123 -1.02785 0
M  V30 2434 C 222.852 -0.834918 -3.50287 0
M  V30 2435 C 222.705 -2.33948 -3.84172 0
M  V30 2436 C 224.024 -0.325318 -4.38896 0
M  V30 2437 H 221.143 -0.195861 -0.710498 0
M  V30 2438 H 223.785 -1.13313 -1.52513 0
M  V30 2439 H 221.935 -0.325904 -3.87131 0
M  V30 2440 H 223.607 -2.91847 -3.57243 0
M  V30 2441 H 221.85 -2.79789 -3.31513 0
M  V30 2442 H 222.521 -2.49987 -4.92149 0
M  V30 2443 H 224.997 -0.761256 -4.09077 0
M  V30 2444 H 223.873 -0.564295 -5.45992 0
M  V30 2445 H 224.134 0.774144 -4.35269 0
M  V30 2446 N 223.193 1.4272 -0.668489 0
M  V30 2447 C 224.14 2.30796 0.0137489 0
M  V30 2448 C 225.11 1.4561 0.799177 0
M  V30 2449 O 226.295 1.74453 0.772702 0
M  V30 2450 C 223.435 3.31377 0.963507 0
M  V30 2451 C 222.548 4.31655 0.172569 0
M  V30 2452 C 221.683 5.19312 1.1175 0
M  V30 2453 C 220.722 6.11274 0.317886 0
M  V30 2454 N 219.859 6.91504 1.2152 0
M  V30 2455 H 224.699 2.88585 -0.743161 0
M  V30 2456 H 222.236 1.42154 -0.378226 0
M  V30 2457 H 224.194 3.88214 1.52792 0
M  V30 2458 H 222.824 2.75202 1.68712 0
M  V30 2459 H 221.876 3.76988 -0.508374 0
M  V30 2460 H 223.188 4.96779 -0.448527 0
M  V30 2461 H 222.342 5.80851 1.75206 0
M  V30 2462 H 221.081 4.5435 1.77249 0
M  V30 2463 H 220.086 5.48809 -0.329918 0
M  V30 2464 H 221.311 6.78283 -0.332917 0
M  V30 2465 H 219.257 6.29176 1.85671 0
M  V30 2466 H 219.174 7.53209 0.649036 0
M  V30 2467 H 220.442 7.57535 1.83742 0
M  V30 2468 N 224.671 0.411399 1.52136 0
M  V30 2469 C 225.634 -0.401089 2.25663 0
M  V30 2470 C 226.634 -0.971732 1.28117 0
M  V30 2471 O 227.824 -0.850254 1.52041 0
M  V30 2472 C 224.956 -1.56483 3.02863 0
M  V30 2473 H 226.149 0.24295 2.98914 0
M  V30 2474 H 223.702 0.163968 1.55438 0
M  V30 2475 H 224.437 -2.24567 2.33967 0
M  V30 2476 H 224.222 -1.16211 3.74483 0
M  V30 2477 H 225.712 -2.13951 3.58629 0
M  V30 2478 N 226.149 -1.5696 0.141893 0
M  V30 2479 C 227.079 -2.19516 -0.795936 0
M  V30 2480 C 228.06 -1.14187 -1.26077 0
M  V30 2481 O 229.245 -1.42511 -1.31925 0
M  V30 2482 C 226.375 -2.81272 -2.03723 0
M  V30 2483 C 225.329 -3.92384 -1.70936 0
M  V30 2484 C 224.655 -4.41052 -3.02287 0
M  V30 2485 C 225.955 -5.13403 -0.959954 0
M  V30 2486 H 227.649 -2.98138 -0.274596 0
M  V30 2487 H 225.195 -1.43406 -0.130636 0
M  V30 2488 H 227.148 -3.237 -2.69808 0
M  V30 2489 H 225.872 -1.99973 -2.58221 0
M  V30 2490 H 224.531 -3.50566 -1.07232 0
M  V30 2491 H 224.179 -3.56582 -3.54765 0
M  V30 2492 H 223.879 -5.15993 -2.81114 0
M  V30 2493 H 225.403 -4.86146 -3.69451 0
M  V30 2494 H 226.817 -5.52706 -1.52279 0
M  V30 2495 H 225.214 -5.94073 -0.848357 0
M  V30 2496 H 226.284 -4.84875 0.0492434 0
M  V30 2497 N 227.627 0.131896 -1.57047 0
M  V30 2498 C 228.875 0.840269 -1.83804 0
M  V30 2499 C 229.196 1.81017 -0.72512 0
M  V30 2500 O 228.466 1.94272 0.251995 0
M  V30 2501 H 227.046 0.313294 -0.678127 0
M  V30 2502 H 229.708 0.122294 -1.94516 0
M  V30 2503 H 228.804 1.39335 -2.79271 0
M  V30 2504 N 229.106 1.52395 0.401703 0
M  V30 2505 C 230.036 1.79231 1.49661 0
M  V30 2506 C 231.017 0.643654 1.57452 0
M  V30 2507 O 232.202 0.889989 1.72606 0
M  V30 2508 C 229.332 1.94971 2.87409 0
M  V30 2509 C 228.286 3.10604 2.94465 0
M  V30 2510 C 227.612 3.11577 4.34538 0
M  V30 2511 C 228.912 4.49921 2.6527 0
M  V30 2512 H 230.606 2.70917 1.27454 0
M  V30 2513 H 228.152 1.30362 0.6117 0
M  V30 2514 H 230.105 2.12328 3.63999 0
M  V30 2515 H 228.829 0.999632 3.10926 0
M  V30 2516 H 227.488 2.93009 2.20321 0
M  V30 2517 H 227.136 2.14277 4.55076 0
M  V30 2518 H 226.836 3.89247 4.40183 0
M  V30 2519 H 228.36 3.31073 5.13053 0
M  V30 2520 H 229.774 4.67683 3.31581 0
M  V30 2521 H 228.171 5.29564 2.82281 0
M  V30 2522 H 229.241 4.57507 1.60671 0
M  V30 2523 N 230.584 -0.659388 1.43143 0
M  V30 2524 C 231.494 -1.80167 1.50256 0
M  V30 2525 C 232.51 -1.69571 0.390106 0
M  V30 2526 O 233.686 -1.90849 0.643319 0
M  V30 2527 C 230.751 -3.16409 1.41725 0
M  V30 2528 C 229.812 -3.38848 2.63591 0
M  V30 2529 C 229.045 -4.68591 2.55458 0
M  V30 2530 O 229.268 -5.47532 1.59891 0
M  V30 2531 O 228.202 -4.92614 3.45854 0
M  V30 2532 H 232.028 -1.77121 2.46702 0
M  V30 2533 H 229.613 -0.817092 1.25076 0
M  V30 2534 H 231.495 -3.9768 1.39387 0
M  V30 2535 H 230.17 -3.20059 0.484118 0
M  V30 2536 H 229.077 -2.57366 2.71502 0
M  V30 2537 H 230.41 -3.4004 3.55856 0
M  V30 2538 N 232.062 -1.29571 -0.897171 0
M  V30 2539 C 233.01 -1.14802 -2.02295 0
M  V30 2540 C 234.004 -0.0629637 -1.69283 0
M  V30 2541 O 235.21 -0.222945 -1.78614 0
M  V30 2542 H 231.585 -0.354692 -0.663097 0
M  V30 2543 H 233.556 -2.10108 -2.11889 0
M  V30 2544 C 232.305 -0.843966 -3.37302 0
M  V30 2545 H 231.628 -1.67093 -3.63208 0
M  V30 2546 H 233.068 -0.780672 -4.16751 0
M  V30 2547 C 231.527 0.452843 -3.33843 0
M  V30 2548 O 232.057 1.47813 -3.73516 0
M  V30 2549 N 230.263 0.459601 -2.86943 0
M  V30 2550 H 229.81 -0.375213 -2.54853 0
M  V30 2551 H 229.768 1.32726 -2.85011 0
M  V30 2552 N 233.54 1.10788 -1.12088 0
M  V30 2553 C 234.787 1.82671 -0.873931 0
M  V30 2554 C 235.115 1.85004 0.600311 0
M  V30 2555 O 234.37 1.30365 1.45957 0
M  V30 2556 C 234.669 3.29294 -1.38926 0
M  V30 2557 C 234.335 3.47113 -2.87791 0
M  V30 2558 C 232.997 3.51684 -3.28439 0
M  V30 2559 C 235.349 3.52808 -3.83635 0
M  V30 2560 C 232.677 3.59513 -4.63646 0
M  V30 2561 C 235.029 3.62169 -5.18668 0
M  V30 2562 C 233.693 3.65003 -5.58864 0
M  V30 2563 H 232.963 0.668441 -0.319794 0
M  V30 2564 H 235.61 1.30613 -1.40045 0
M  V30 2565 H 233.915 3.83894 -0.783122 0
M  V30 2566 H 235.612 3.83416 -1.17443 0
M  V30 2567 H 232.202 3.4423 -2.5535 0
M  V30 2568 H 236.386 3.4853 -3.53328 0
M  V30 2569 H 231.642 3.59987 -4.94185 0
M  V30 2570 H 235.816 3.6552 -5.92763 0
M  V30 2571 H 233.443 3.70822 -6.63623 0
M  V30 2572 N 235.018 0.912232 1.28515 0
M  V30 2573 C 236.264 0.545405 1.95328 0
M  V30 2574 C 236.597 -0.908313 1.71649 0
M  V30 2575 O 235.872 -1.64575 1.03659 0
M  V30 2576 C 236.155 0.853483 3.4984 0
M  V30 2577 C 236.008 2.35982 3.82926 0
M  V30 2578 C 237.327 0.348589 4.38717 0
M  V30 2579 H 234.446 0.199626 0.709449 0
M  V30 2580 H 237.088 1.1412 1.5191 0
M  V30 2581 H 235.238 0.34643 3.86952 0
M  V30 2582 H 236.91 2.93738 3.55691 0
M  V30 2583 H 235.153 2.81543 3.30024 0
M  V30 2584 H 235.824 2.52593 4.90816 0
M  V30 2585 H 238.3 0.78294 4.08668 0
M  V30 2586 H 237.176 0.593242 5.45685 0
M  V30 2587 H 237.437 -0.751049 4.35674 0
M  V30 2588 N 236.496 -1.42363 0.676048 0
M  V30 2589 C 237.743 -2.01522 0.19883 0
M  V30 2590 C 238.071 -1.53456 -1.19505 0
M  V30 2591 O 237.326 -0.727967 -1.81657 0
M  V30 2592 C 237.625 -3.56929 0.183431 0
M  V30 2593 C 237.291 -4.24431 1.52215 0
M  V30 2594 C 235.953 -4.42585 1.8887 0
M  V30 2595 C 238.305 -4.62459 2.40377 0
M  V30 2596 C 235.633 -4.96039 3.13309 0
M  V30 2597 C 237.985 -5.17294 3.64129 0
M  V30 2598 C 236.649 -5.33661 4.00951 0
M  V30 2599 H 235.919 -0.737419 0.0727571 0
M  V30 2600 H 238.566 -1.70531 0.871281 0
M  V30 2601 H 236.871 -3.87594 -0.572532 0
M  V30 2602 H 238.568 -4.00486 -0.203035 0
M  V30 2603 H 235.158 -4.10661 1.22701 0
M  V30 2604 H 239.342 -4.48105 2.13343 0
M  V30 2605 H 234.598 -5.06896 3.41857 0
M  V30 2606 H 238.772 -5.45704 4.32644 0
M  V30 2607 H 236.399 -5.74845 4.9745 0
M  V30 2608 N 237.974 -0.419461 -1.51915 0
M  V30 2609 C 238.884 0.407528 -2.31033 0
M  V30 2610 C 239.9 1.04413 -1.3919 0
M  V30 2611 O 241.076 1.0434 -1.72265 0
M  V30 2612 C 238.141 1.50365 -3.12396 0
M  V30 2613 C 237.202 0.889029 -4.19994 0
M  V30 2614 C 236.435 1.93291 -4.97468 0
M  V30 2615 O 236.658 3.15259 -4.75361 0
M  V30 2616 O 235.592 1.53339 -5.8204 0
M  V30 2617 H 239.418 -0.237865 -3.02767 0
M  V30 2618 H 237.003 -0.182413 -1.48282 0
M  V30 2619 H 238.885 2.13975 -3.63032 0
M  V30 2620 H 237.56 2.13345 -2.43445 0
M  V30 2621 H 236.467 0.215353 -3.7348 0
M  V30 2622 H 237.8 0.302991 -4.91267 0
M  V30 2623 N 239.452 1.56882 -0.150215 0
M  V30 2624 C 240.399 2.16922 0.788244 0
M  V30 2625 C 241.369 1.10303 1.24187 0
M  V30 2626 O 242.554 1.38359 1.31383 0
M  V30 2627 C 239.694 2.79754 2.02068 0
M  V30 2628 C 238.807 4.00775 1.61257 0
M  V30 2629 C 237.942 4.51595 2.79705 0
M  V30 2630 C 236.981 5.65074 2.35282 0
M  V30 2631 N 236.118 6.10499 3.4675 0
M  V30 2632 H 240.958 2.96779 0.269444 0
M  V30 2633 H 238.495 1.46599 0.12128 0
M  V30 2634 H 240.453 3.14329 2.74323 0
M  V30 2635 H 239.083 2.02536 2.51354 0
M  V30 2636 H 238.135 3.72158 0.787553 0
M  V30 2637 H 239.447 4.82978 1.24633 0
M  V30 2638 H 238.601 4.88242 3.60145 0
M  V30 2639 H 237.34 3.68406 3.19576 0
M  V30 2640 H 236.345 5.28 1.53283 0
M  V30 2641 H 237.57 6.50052 1.96493 0
M  V30 2642 H 235.516 5.30243 3.86236 0
M  V30 2643 H 235.433 6.87637 3.14152 0
M  V30 2644 H 236.701 6.51791 4.27537 0
M  V30 2645 N 240.93 -0.123565 1.57115 0
M  V30 2646 C 241.84 -1.17074 2.033 0
M  V30 2647 C 242.856 -1.4561 0.952559 0
M  V30 2648 O 244.032 -1.56817 1.26374 0
M  V30 2649 C 241.097 -2.47857 2.42421 0
M  V30 2650 C 240.158 -2.26758 3.64526 0
M  V30 2651 C 239.391 -3.51305 4.01771 0
M  V30 2652 O 239.614 -4.5843 3.39409 0
M  V30 2653 O 238.548 -3.42578 4.94898 0
M  V30 2654 H 242.374 -0.808555 2.92739 0
M  V30 2655 H 239.959 -0.334027 1.45618 0
M  V30 2656 H 241.841 -3.2492 2.68338 0
M  V30 2657 H 240.516 -2.83558 1.5613 0
M  V30 2658 H 239.423 -1.47569 3.43765 0
M  V30 2659 H 240.756 -1.95963 4.51508 0
M  V30 2660 N 242.408 -1.52605 -0.393616 0
M  V30 2661 C 243.338 -1.80022 -1.48709 0
M  V30 2662 C 244.319 -0.651995 -1.57108 0
M  V30 2663 O 245.504 -0.89913 -1.72132 0
M  V30 2664 C 242.634 -1.96492 -2.86371 0
M  V30 2665 C 241.588 -3.12161 -2.92813 0
M  V30 2666 C 240.914 -3.13877 -4.3288 0
M  V30 2667 C 242.214 -4.51322 -2.6288 0
M  V30 2668 H 243.908 -2.71589 -1.26015 0
M  V30 2669 H 241.454 -1.30684 -0.604778 0
M  V30 2670 H 243.407 -2.14255 -3.62867 0
M  V30 2671 H 242.131 -1.01611 -3.10391 0
M  V30 2672 H 240.79 -2.94173 -2.18764 0
M  V30 2673 H 240.438 -2.16687 -4.53933 0
M  V30 2674 H 240.138 -3.91576 -4.38112 0
M  V30 2675 H 241.662 -3.33789 -5.1129 0
M  V30 2676 H 243.076 -4.69435 -3.29096 0
M  V30 2677 H 241.473 -5.31053 -2.79468 0
M  V30 2678 H 242.543 -4.58353 -1.58242 0
M  V30 2679 N 243.887 0.651787 -1.4349 0
M  V30 2680 C 244.834 1.76462 -1.4876 0
M  V30 2681 C 245.804 1.62641 -0.337189 0
M  V30 2682 O 246.989 1.82864 -0.544544 0
M  V30 2683 C 244.129 3.14623 -1.41796 0
M  V30 2684 C 243.242 3.39568 -2.67053 0
M  V30 2685 C 242.377 4.67585 -2.52068 0
M  V30 2686 C 241.416 4.85639 -3.72587 0
M  V30 2687 N 240.553 6.04915 -3.56402 0
M  V30 2688 H 245.393 1.71293 -2.43849 0
M  V30 2689 H 242.93 0.835889 -1.21043 0
M  V30 2690 H 244.888 3.94496 -1.35753 0
M  V30 2691 H 243.518 3.18859 -0.50288 0
M  V30 2692 H 242.57 2.53783 -2.8337 0
M  V30 2693 H 243.882 3.48795 -3.56572 0
M  V30 2694 H 243.036 5.55586 -2.4374 0
M  V30 2695 H 241.775 4.60681 -1.60075 0
M  V30 2696 H 240.78 3.96073 -3.81321 0
M  V30 2697 H 242.005 4.94372 -4.65589 0
M  V30 2698 H 239.951 5.9914 -2.67146 0
M  V30 2699 H 239.868 6.15106 -4.39524 0
M  V30 2700 H 241.136 6.95533 -3.51929 0
M  V30 2701 N 245.365 1.30045 0.890287 0
M  V30 2702 C 246.781 1.08261 1.17268 0
M  V30 2703 C 246.981 -0.160063 2.00863 0
M  V30 2704 O 246.037 -0.855181 2.37577 0
M  V30 2705 C 247.35 2.34323 1.8845 0
M  V30 2706 C 248.898 2.39735 2.01237 0
M  V30 2707 C 249.373 3.65625 2.7583 0
M  V30 2708 N 250.864 3.66402 2.83379 0
M  V30 2709 C 251.599 4.60498 3.41657 0
M  V30 2710 N 251.095 5.64933 4.01026 0
M  V30 2711 N 252.888 4.48051 3.39421 0
M  V30 2712 H 245.039 2.09777 0.332762 0
M  V30 2713 H 247.302 0.92446 0.209948 0
M  V30 2714 H 247.008 3.2498 1.34465 0
M  V30 2715 H 246.882 2.4256 2.88867 0
M  V30 2716 H 249.269 1.4956 2.54393 0
M  V30 2717 H 249.35 2.35476 0.999232 0
M  V30 2718 H 248.994 4.56156 2.23347 0
M  V30 2719 H 248.924 3.67144 3.77509 0
M  V30 2720 H 251.415 2.90896 2.41222 0
M  V30 2721 H 251.728 6.32841 4.43545 0
M  V30 2722 H 250.073 5.68732 3.99461 0
M  V30 2723 H 253.264 3.65649 2.92264 0
M  V30 2724 H 253.437 5.21565 3.84544 0
M  V30 2725 N 246.843 -1.10192 1.12674 0
M  V30 2726 C 247.793 -2.14754 0.765801 0
M  V30 2727 C 248.777 -1.59154 -0.236409 0
M  V30 2728 O 249.969 -1.76951 -0.0415261 0
M  V30 2729 C 247.098 -3.42563 0.224827 0
M  V30 2730 C 246.184 -4.05091 1.25548 0
M  V30 2731 N 246.575 -4.42287 2.4539 0
M  V30 2732 C 244.873 -4.32186 1.10142 0
M  V30 2733 C 245.574 -4.91441 3.11224 0
M  V30 2734 N 244.55 -4.88405 2.38666 0
M  V30 2735 H 248.352 -2.41309 1.67772 0
M  V30 2736 H 245.866 -1.27339 1.00789 0
M  V30 2737 H 247.863 -4.16868 -0.0519578 0
M  V30 2738 H 246.523 -3.17467 -0.681515 0
M  V30 2739 H 247.534 -4.33902 2.82754 0
M  V30 2740 H 244.211 -4.16735 0.252587 0
M  V30 2741 H 245.601 -5.29749 4.13298 0
M  V30 2742 N 248.321 -0.919034 -1.28029 0
M  V30 2743 C 249.551 -0.570143 -1.98577 0
M  V30 2744 C 249.959 0.854172 -1.68821 0
M  V30 2745 O 249.302 1.57807 -0.940351 0
M  V30 2746 C 249.364 -0.705734 -3.52505 0
M  V30 2747 C 249.028 -2.10057 -4.05863 0
M  V30 2748 C 250.025 -3.07385 -4.19298 0
M  V30 2749 C 247.71 -2.41517 -4.40426 0
M  V30 2750 C 249.704 -4.34287 -4.66555 0
M  V30 2751 C 247.391 -3.68657 -4.87376 0
M  V30 2752 C 248.389 -4.64856 -5.00398 0
M  V30 2753 O 248.077 -5.89735 -5.46322 0
M  V30 2754 H 247.809 -0.215592 -0.6407 0
M  V30 2755 H 250.363 -1.23583 -1.64062 0
M  V30 2756 H 248.593 0.0170414 -3.86696 0
M  V30 2757 H 250.282 -0.363172 -4.04272 0
M  V30 2758 H 251.048 -2.84398 -3.92865 0
M  V30 2759 H 246.927 -1.67389 -4.29537 0
M  V30 2760 H 250.471 -5.09377 -4.76635 0
M  V30 2761 H 246.368 -3.91466 -5.13249 0
M  V30 2762 H 247.136 -5.92599 -5.64596 0
M  V30 2763 N 249.799 1.42003 -0.683588 0
M  V30 2764 C 251.21 1.84501 -0.285736 0
M  V30 2765 C 251.561 1.57213 1.17382 0
M  V30 2766 O 250.686 1.03642 1.89966 0
M  V30 2767 C 251.281 3.34912 -0.511821 0
M  V30 2768 C 249.84 3.76025 -0.168005 0
M  V30 2769 C 248.987 2.6551 -0.799983 0
M  V30 2770 H 251.938 1.31724 -0.885119 0
M  V30 2771 H 251.959 3.79784 0.233292 0
M  V30 2772 H 251.471 3.54741 -1.57418 0
M  V30 2773 H 249.572 3.61801 0.890567 0
M  V30 2774 H 249.685 4.75141 -0.614661 0
M  V30 2775 H 248.049 2.53654 -0.230568 0
M  V30 2776 H 248.832 2.8816 -1.86597 0
M  V30 2777 N 251.277 0.427512 1.51691 0
M  V30 2778 C 252.21 -0.433876 2.24037 0
M  V30 2779 C 253.188 -1.03287 1.25581 0
M  V30 2780 O 254.372 -1.07722 1.54688 0
M  V30 2781 C 251.499 -1.60385 2.98319 0
M  V30 2782 C 250.545 -1.12648 4.11355 0
M  V30 2783 S 251.378 -0.076543 5.35445 0
M  V30 2784 C 252.534 -1.25141 6.13262 0
M  V30 2785 H 252.767 0.180367 2.96752 0
M  V30 2786 H 250.3 0.211946 1.52938 0
M  V30 2787 H 252.258 -2.27462 3.41718 0
M  V30 2788 H 250.919 -2.18948 2.25213 0
M  V30 2789 H 250.112 -2.0011 4.62571 0
M  V30 2790 H 249.714 -0.534088 3.70167 0
M  V30 2791 H 252.006 -2.17162 6.41753 0
M  V30 2792 H 252.949 -0.779411 7.03797 0
M  V30 2793 H 253.357 -1.48553 5.44603 0
M  V30 2794 N 252.755 -1.56801 0.158532 0
M  V30 2795 C 254.003 -1.96102 -0.488712 0
M  V30 2796 C 254.324 -1.04498 -1.64636 0
M  V30 2797 O 253.594 -0.108783 -1.95598 0
M  V30 2798 H 252.174 -0.724102 -0.183535 0
M  V30 2799 H 254.836 -1.93457 0.236728 0
M  V30 2800 H 253.932 -3.00097 -0.857219 0
M  V30 2801 N 254.233 0.115231 -1.57178 0
M  V30 2802 C 255.181 1.16014 -2.01602 0
M  V30 2803 C 256.175 1.42653 -0.913587 0
M  V30 2804 O 257.381 1.42571 -1.09879 0
M  V30 2805 H 253.756 0.391252 -0.642204 0
M  V30 2806 H 255.727 0.758998 -2.88586 0
M  V30 2807 C 254.476 2.47767 -2.4394 0
M  V30 2808 H 253.799 2.28108 -3.28339 0
M  V30 2809 H 255.239 3.19432 -2.78818 0
M  V30 2810 C 253.698 3.10617 -1.30455 0
M  V30 2811 O 254.228 3.96846 -0.622585 0
M  V30 2812 N 252.434 2.70553 -1.06064 0
M  V30 2813 H 251.981 2.00527 -1.61699 0
M  V30 2814 H 251.939 3.12934 -0.303284 0
M  V30 2815 N 255.711 1.52812 0.385517 0
M  V30 2816 C 256.641 1.80808 1.47752 0
M  V30 2817 C 257.622 0.660318 1.5676 0
M  V30 2818 O 258.807 0.908246 1.71652 0
M  V30 2819 C 255.937 1.98008 2.85324 0
M  V30 2820 C 254.891 3.13709 2.91154 0
M  V30 2821 C 254.217 3.16169 4.31209 0
M  V30 2822 C 255.517 4.52709 2.60483 0
M  V30 2823 H 257.211 2.72253 1.24573 0
M  V30 2824 H 254.757 1.31003 0.597839 0
M  V30 2825 H 256.71 2.16176 3.61726 0
M  V30 2826 H 255.434 1.03255 3.09848 0
M  V30 2827 H 254.093 2.95329 2.17201 0
M  V30 2828 H 253.741 2.19092 4.52778 0
M  V30 2829 H 253.441 3.93894 4.36029 0
M  V30 2830 H 254.965 3.36496 5.09512 0
M  V30 2831 H 256.379 4.71173 3.26602 0
M  V30 2832 H 254.776 5.32528 2.76648 0
M  V30 2833 H 255.846 4.59186 1.55809 0
M  V30 2834 N 257.189 -0.644168 1.43834 0
M  V30 2835 C 258.436 -1.40395 1.4593 0
M  V30 2836 C 258.764 -1.94305 0.0869658 0
M  V30 2837 O 258.019 -1.73288 -0.909378 0
M  V30 2838 C 258.318 -2.59615 2.45631 0
M  V30 2839 C 257.984 -2.2407 3.91284 0
M  V30 2840 C 256.646 -2.14089 4.30952 0
M  V30 2841 C 258.998 -1.95775 4.83034 0
M  V30 2842 C 256.326 -1.73981 5.6031 0
M  V30 2843 C 258.678 -1.57163 6.12766 0
M  V30 2844 C 257.342 -1.45713 6.51402 0
M  V30 2845 H 256.612 -0.513741 0.533995 0
M  V30 2846 H 259.259 -0.731724 1.76969 0
M  V30 2847 H 257.564 -3.32011 2.08028 0
M  V30 2848 H 259.261 -3.17834 2.44504 0
M  V30 2849 H 255.851 -2.32753 3.59895 0
M  V30 2850 H 260.035 -2.02403 4.53152 0
M  V30 2851 H 255.291 -1.63709 5.89075 0
M  V30 2852 H 259.465 -1.34303 6.83327 0
M  V30 2853 H 257.092 -1.14406 7.51542 0
M  V30 2854 N 258.668 -1.30515 -0.883378 0
M  V30 2855 C 259.631 -1.1701 -1.97082 0
M  V30 2856 C 260.631 -0.10089 -1.60483 0
M  V30 2857 O 261.821 -0.349127 -1.70666 0
M  V30 2858 C 258.953 -0.793045 -3.31547 0
M  V30 2859 H 260.146 -2.13622 -2.10489 0
M  V30 2860 H 257.699 -1.13935 -1.06998 0
M  V30 2861 H 258.434 0.172499 -3.23841 0
M  V30 2862 H 258.219 -1.56576 -3.5948 0
M  V30 2863 H 259.709 -0.722073 -4.1131 0
M  V30 2864 N 260.146 1.09593 -1.13257 0
M  V30 2865 C 261.096 2.14345 -0.777179 0
M  V30 2866 C 262.08 1.59277 0.227966 0
M  V30 2867 O 263.272 1.76971 0.0321413 0
M  V30 2868 C 260.401 3.42439 -0.242991 0
M  V30 2869 C 259.487 4.04419 -1.27694 0
M  V30 2870 N 259.878 4.40979 -2.47732 0
M  V30 2871 C 258.176 4.31596 -1.12432 0
M  V30 2872 C 258.877 4.89784 -3.13826 0
M  V30 2873 N 257.853 4.87133 -2.41252 0
M  V30 2874 H 261.655 2.40415 -1.69049 0
M  V30 2875 H 259.169 1.26803 -1.01463 0
M  V30 2876 H 261.166 4.16889 0.0298496 0
M  V30 2877 H 259.826 3.17824 0.66467 0
M  V30 2878 H 260.837 4.32396 -2.85051 0
M  V30 2879 H 257.514 4.16595 -0.274684 0
M  V30 2880 H 258.904 5.2755 -4.16102 0
M  V30 2881 N 261.624 0.925811 1.2754 0
M  V30 2882 C 262.87 0.566092 1.94739 0
M  V30 2883 C 263.203 -0.890057 1.72603 0
M  V30 2884 O 262.478 -1.63467 1.05399 0
M  V30 2885 C 262.761 0.89054 3.48915 0
M  V30 2886 C 262.614 2.4003 3.80402 0
M  V30 2887 C 263.933 0.395101 4.38323 0
M  V30 2888 H 261.052 0.20714 0.707292 0
M  V30 2889 H 263.694 1.15725 1.50691 0
M  V30 2890 H 261.844 0.387452 3.86563 0
M  V30 2891 H 263.516 2.97494 3.52555 0
M  V30 2892 H 261.759 2.85028 3.2702 0
M  V30 2893 H 262.43 2.57785 4.8811 0
M  V30 2894 H 264.906 0.826241 4.07814 0
M  V30 2895 H 263.782 0.651086 5.45025 0
M  V30 2896 H 264.043 -0.704798 4.36446 0
M  V30 2897 N 263.102 -1.41638 0.69111 0
M  V30 2898 C 264.351 -2.00526 0.217318 0
M  V30 2899 C 264.664 -1.55353 -1.18848 0
M  V30 2900 O 265.87 -2.06769 -1.75951 0
M  V30 2901 C 264.326 -3.58313 0.337639 0
M  V30 2902 C 263.934 -4.12469 1.74852 0
M  V30 2903 C 265.678 -4.24431 -0.0766066 0
M  V30 2904 C 263.585 -5.62675 1.82074 0
M  V30 2905 H 262.515 -0.750008 0.0774893 0
M  V30 2906 H 265.166 -1.6217 0.858661 0
M  V30 2907 H 263.548 -3.9425 -0.371879 0
M  V30 2908 H 264.722 -3.8796 2.48644 0
M  V30 2909 H 263.037 -3.58861 2.11205 0
M  V30 2910 H 265.634 -5.34683 -0.0430284 0
M  V30 2911 H 265.977 -4.01101 -1.1146 0
M  V30 2912 H 266.51 -3.93512 0.582476 0
M  V30 2913 H 263.249 -5.90826 2.83911 0
M  V30 2914 H 262.769 -5.89124 1.12661 0
M  V30 2915 H 264.448 -6.27371 1.58159 0
M  V30 2916 N 264.58 -0.43555 -1.51462 0
M  V30 2917 C 265.828 0.131254 -2.01673 0
M  V30 2918 C 266.149 1.43368 -1.32177 0
M  V30 2919 O 265.419 1.90524 -0.455769 0
M  V30 2920 H 263.999 0.0514954 -0.745223 0
M  V30 2921 H 266.661 -0.577847 -1.86137 0
M  V30 2922 H 265.757 0.308446 -3.10572 0
M  V30 2923 N 266.058 1.56714 -0.166846 0
M  V30 2924 C 267.305 1.96747 0.479252 0
M  V30 2925 C 267.633 1.05263 1.63554 0
M  V30 2926 O 266.888 0.0858098 1.95512 0
M  V30 2927 C 267.187 3.42889 1.00806 0
M  V30 2928 C 266.853 4.50889 -0.0318574 0
M  V30 2929 C 265.515 4.8015 -0.317675 0
M  V30 2930 C 267.867 5.15949 -0.737956 0
M  V30 2931 C 265.195 5.71772 -1.31506 0
M  V30 2932 C 267.547 6.08647 -1.72429 0
M  V30 2933 C 266.211 6.36277 -2.0176 0
M  V30 2934 H 265.481 0.719949 0.175371 0
M  V30 2935 H 268.128 1.89756 -0.257864 0
M  V30 2936 H 266.433 3.4681 1.82291 0
M  V30 2937 H 268.13 3.71203 1.51689 0
M  V30 2938 H 264.72 4.28128 0.201088 0
M  V30 2939 H 268.904 4.93458 -0.530351 0
M  V30 2940 H 264.16 5.91465 -1.54853 0
M  V30 2941 H 268.334 6.58129 -2.27682 0
M  V30 2942 H 265.961 7.07075 -2.79194 0
M  V30 2943 N 267.536 -0.106894 1.57237 0
M  V30 2944 C 268.764 -0.826389 1.8968 0
M  V30 2945 C 269.179 -1.72856 0.759353 0
M  V30 2946 O 268.536 -1.80503 -0.269263 0
M  V30 2947 C 268.587 -1.64967 3.21665 0
M  V30 2948 O 268.308 -0.783804 4.31031 0
M  V30 2949 C 269.809 -2.47326 3.67892 0
M  V30 2950 H 267.029 -0.236927 0.627779 0
M  V30 2951 H 269.573 -0.0876593 2.04312 0
M  V30 2952 H 267.728 -2.34103 3.08666 0
M  V30 2953 H 268.142 -1.35284 5.06753 0
M  V30 2954 H 269.616 -3.00604 4.6297 0
M  V30 2955 H 270.093 -3.25247 2.95146 0
M  V30 2956 H 270.699 -1.83411 3.83719 0
M  V30 2957 N 269.014 -1.53014 -0.377408 0
M  V30 2958 C 270.291 -1.59215 -1.13622 0
M  V30 2959 C 270.671 -0.392407 -2.07421 0
M  V30 2960 O 270.019 0.618342 -2.19975 0
M  V30 2961 C 270.229 -2.93669 -1.88573 0
M  V30 2962 C 271.577 -3.47822 -2.43526 0
M  V30 2963 O 272.601 -2.9562 -1.98715 0
M  V30 2964 O 271.46 -4.39055 -3.25412 0
M  V30 2965 H 268.554 -0.642625 -0.52054 0
M  V30 2966 H 271.1 -1.65353 -0.381625 0
M  V30 2967 H 269.872 -3.7243 -1.20048 0
M  V30 2968 H 269.495 -2.90968 -2.70968 0
M  V30 2969 N 270.492 0.636531 -1.44174 0
M  V30 2970 C 271.741 1.39213 -1.45954 0
M  V30 2971 C 272.054 1.95374 -0.0939119 0
M  V30 2972 O 273.26 2.71498 0.0107767 0
M  V30 2973 C 271.716 2.52025 -2.56927 0
M  V30 2974 C 271.324 2.024 -3.99673 0
M  V30 2975 C 273.068 3.29269 -2.67922 0
M  V30 2976 C 270.975 3.12521 -5.0208 0
M  V30 2977 H 269.905 0.523132 -0.542999 0
M  V30 2978 H 272.556 0.685349 -1.70221 0
M  V30 2979 H 270.938 3.25253 -2.25891 0
M  V30 2980 H 272.112 1.36073 -4.40251 0
M  V30 2981 H 270.427 1.37987 -3.92872 0
M  V30 2982 H 273.024 4.11352 -3.41605 0
M  V30 2983 H 273.367 3.78397 -1.73555 0
M  V30 2984 H 273.9 2.63129 -2.98342 0
M  V30 2985 H 270.639 2.68343 -5.98057 0
M  V30 2986 H 270.159 3.77507 -4.66099 0
M  V30 2987 H 271.838 3.77385 -5.25538 0
M  V30 2988 N 271.97 1.30982 0.876444 0
M  V30 2989 C 273.247 1.10942 1.61094 0
M  V30 2990 C 273.627 -0.338223 2.08373 0
M  V30 2991 O 272.975 -1.33122 1.85717 0
M  V30 2992 C 273.185 2.11789 2.77392 0
M  V30 2993 C 274.533 2.43965 3.47514 0
M  V30 2994 O 275.557 2.10166 2.87591 0
M  V30 2995 O 274.416 3.01817 4.55597 0
M  V30 2996 H 271.51 0.42667 0.708436 0
M  V30 2997 H 274.056 1.42438 0.922474 0
M  V30 2998 H 272.828 3.09194 2.39823 0
M  V30 2999 H 272.451 1.81161 3.5393 0
M  V30 3000 N 273.449 -1.08991 1.13837 0
M  V30 3001 C 274.697 -1.80899 0.901098 0
M  V30 3002 C 275.018 -1.86356 -0.574134 0
M  V30 3003 O 274.288 -1.35235 -1.41733 0
M  V30 3004 H 272.868 -0.669966 0.330386 0
M  V30 3005 H 275.53 -1.318 1.43578 0
M  V30 3006 H 274.626 -2.83929 1.29578 0
M  V30 3007 N 274.927 -0.932562 -1.27047 0
M  V30 3008 C 275.874 -0.434072 -2.26681 0
M  V30 3009 C 276.844 0.501639 -1.58344 0
M  V30 3010 O 278.029 0.419734 -1.86126 0
M  V30 3011 C 275.169 0.30261 -3.43771 0
M  V30 3012 C 274.282 -0.667774 -4.26808 0
M  V30 3013 C 273.417 0.0892393 -5.31125 0
M  V30 3014 C 272.456 -0.873532 -6.05835 0
M  V30 3015 N 271.593 -0.148832 -7.01942 0
M  V30 3016 H 276.433 -1.28868 -2.68695 0
M  V30 3017 H 273.97 -0.646713 -1.32121 0
M  V30 3018 H 275.928 0.746092 -4.10474 0
M  V30 3019 H 274.558 1.12142 -3.02695 0
M  V30 3020 H 273.61 -1.22978 -3.59973 0
M  V30 3021 H 274.922 -1.40337 -4.78651 0
M  V30 3022 H 274.076 0.592409 -6.03801 0
M  V30 3023 H 272.815 0.85777 -4.80097 0
M  V30 3024 H 271.82 -1.38791 -5.31994 0
M  V30 3025 H 273.045 -1.64193 -6.58952 0
M  V30 3026 H 270.991 0.601365 -6.53238 0
M  V30 3027 H 270.908 -0.82391 -7.51497 0
M  V30 3028 H 272.176 0.333527 -7.78786 0
M  V30 3029 N 276.405 1.4127 -0.698611 0
M  V30 3030 C 277.653 2.00782 -0.230409 0
M  V30 3031 C 277.974 1.5562 1.17505 0
M  V30 3032 O 277.244 0.78815 1.79346 0
M  V30 3033 H 275.824 0.742464 -0.0821944 0
M  V30 3034 H 278.486 1.72852 -0.90045 0
M  V30 3035 H 277.582 3.11095 -0.25021 0
M  V30 3036 N 277.883 0.443576 1.51229 0
M  V30 3037 C 278.815 -0.400608 2.25672 0
M  V30 3038 C 279.828 -0.980945 1.29928 0
M  V30 3039 O 281.017 -0.874024 1.55638 0
M  V30 3040 C 278.117 -1.57304 3.00181 0
M  V30 3041 C 277.29 -1.11046 4.23069 0
M  V30 3042 C 276.349 -2.15374 4.80105 0
M  V30 3043 O 275.375 -1.74554 5.41774 0
M  V30 3044 N 276.577 -3.47922 4.64683 0
M  V30 3045 H 279.342 0.23745 2.98758 0
M  V30 3046 H 276.903 0.272809 1.59585 0
M  V30 3047 H 278.895 -2.26733 3.35223 0
M  V30 3048 H 277.465 -2.11632 2.30066 0
M  V30 3049 H 276.685 -0.243019 3.9345 0
M  V30 3050 H 277.973 -0.778888 5.02803 0
M  V30 3051 H 277.371 -3.83815 4.15575 0
M  V30 3052 H 275.928 -4.13228 5.0407 0
M  V30 3053 N 279.361 -1.56624 0.175154 0
M  V30 3054 C 280.271 -2.21741 -0.766042 0
M  V30 3055 C 281.287 -1.21023 -1.25018 0
M  V30 3056 O 282.463 -1.53697 -1.3015 0
M  V30 3057 C 279.528 -2.84839 -1.97655 0
M  V30 3058 C 278.589 -4.00769 -1.53892 0
M  V30 3059 C 277.822 -4.60849 -2.69173 0
M  V30 3060 O 278.045 -4.19823 -3.86141 0
M  V30 3061 O 276.979 -5.50655 -2.43028 0
M  V30 3062 H 280.805 -3.02738 -0.241585 0
M  V30 3063 H 278.39 -1.49305 -0.053222 0
M  V30 3064 H 280.272 -3.24834 -2.68442 0
M  V30 3065 H 278.947 -2.06836 -2.48999 0
M  V30 3066 H 277.854 -3.65436 -0.80044 0
M  V30 3067 H 279.187 -4.80376 -1.07236 0
M  V30 3068 N 280.839 0.0985539 -1.57292 0
M  V30 3069 C 282.087 0.801092 -1.85545 0
M  V30 3070 C 282.408 1.79438 -0.763353 0
M  V30 3071 O 281.678 1.94763 0.21073 0
M  V30 3072 H 280.258 0.29884 -0.684619 0
M  V30 3073 H 282.92 0.0810064 -1.94732 0
M  V30 3074 H 282.016 1.3338 -2.82163 0
M  V30 3075 N 282.317 1.53212 0.369288 0
M  V30 3076 C 283.247 1.82365 1.45826 0
M  V30 3077 C 284.228 0.676907 1.56051 0
M  V30 3078 O 285.413 0.926401 1.70679 0
M  V30 3079 C 282.543 2.01023 2.83208 0
M  V30 3080 C 281.497 3.1678 2.8781 0
M  V30 3081 C 280.823 3.20724 4.27832 0
M  V30 3082 C 282.123 4.55447 2.55667 0
M  V30 3083 H 283.817 2.73559 1.21678 0
M  V30 3084 H 281.363 1.3163 0.583911 0
M  V30 3085 H 283.316 2.20001 3.59413 0
M  V30 3086 H 282.04 1.06536 3.08736 0
M  V30 3087 H 280.699 2.97616 2.14056 0
M  V30 3088 H 280.347 2.23882 4.50429 0
M  V30 3089 H 280.047 3.98496 4.31827 0
M  V30 3090 H 281.571 3.41881 5.05915 0
M  V30 3091 H 282.985 4.74611 3.21586 0
M  V30 3092 H 281.382 5.35432 2.70984 0
M  V30 3093 H 282.452 4.60812 1.5093 0
M  V30 3094 N 283.795 -0.628877 1.44509 0
M  V30 3095 C 284.705 -1.7694 1.54044 0
M  V30 3096 C 285.721 -1.68705 0.425987 0
M  V30 3097 O 286.897 -1.89442 0.683656 0
M  V30 3098 C 283.962 -3.13332 1.48405 0
M  V30 3099 C 283.023 -3.33181 2.70719 0
M  V30 3100 C 282.256 -4.63067 2.6534 0
M  V30 3101 O 282.479 -5.44017 1.71469 0
M  V30 3102 O 281.413 -4.85167 3.56226 0
M  V30 3103 H 285.239 -1.71848 2.50403 0
M  V30 3104 H 282.824 -0.790378 1.26781 0
M  V30 3105 H 284.706 -3.94634 1.47791 0
M  V30 3106 H 283.381 -3.1896 0.551898 0
M  V30 3107 H 282.288 -2.51549 2.769 0
M  V30 3108 H 283.621 -3.32416 3.62988 0
M  V30 3109 N 285.273 -1.31445 -0.869486 0
M  V30 3110 C 286.203 -1.21727 -1.99261 0
M  V30 3111 C 287.184 -0.104359 -1.6978 0
M  V30 3112 O 288.369 -0.289038 -1.92037 0
M  V30 3113 C 285.499 -0.924317 -3.34774 0
M  V30 3114 C 284.453 -1.99685 -3.78563 0
M  V30 3115 C 283.779 -1.55658 -5.11541 0
M  V30 3116 C 285.079 -3.41003 -3.95619 0
M  V30 3117 H 286.773 -2.1569 -2.07649 0
M  V30 3118 H 284.319 -1.03839 -0.997675 0
M  V30 3119 H 286.272 -0.842934 -4.12883 0
M  V30 3120 H 284.996 0.0509793 -3.2656 0
M  V30 3121 H 283.655 -2.06813 -3.02694 0
M  V30 3122 H 283.303 -0.569132 -4.9977 0
M  V30 3123 H 283.003 -2.27409 -5.41811 0
M  V30 3124 H 284.527 -1.48928 -5.92159 0
M  V30 3125 H 285.941 -3.36547 -4.64122 0
M  V30 3126 H 284.338 -4.10975 -4.37286 0
M  V30 3127 H 285.408 -3.81754 -2.98985 0
M  V30 3128 N 286.751 1.08385 -1.14413 0
M  V30 3129 C 287.976 1.85057 -0.936413 0
M  V30 3130 C 288.401 1.81055 0.509971 0
M  V30 3131 O 287.759 1.1958 1.36273 0
M  V30 3132 C 287.807 3.30505 -1.44217 0
M  V30 3133 O 286.911 4.07491 -0.634409 0
M  V30 3134 H 286.252 0.573425 -0.334784 0
M  V30 3135 H 288.782 1.36799 -1.52142 0
M  V30 3136 H 288.792 3.81348 -1.45043 0
M  V30 3137 H 287.467 3.32734 -2.49522 0
M  V30 3138 H 286.044 3.66368 -0.694902 0
M  V30 3139 N 288.23 0.939286 1.26551 0
M  V30 3140 C 289.16 0.465044 2.28822 0
M  V30 3141 C 290.141 -0.480692 1.63167 0
M  V30 3142 O 291.326 -0.382955 1.90387 0
M  V30 3143 C 288.456 -0.27234 3.46231 0
M  V30 3144 C 287.41 0.58666 4.2396 0
M  V30 3145 C 286.736 -0.280573 5.33963 0
M  V30 3146 C 288.036 1.85704 4.88171 0
M  V30 3147 H 289.73 1.31979 2.68741 0
M  V30 3148 H 287.276 0.636061 1.29191 0
M  V30 3149 H 289.229 -0.615133 4.16886 0
M  V30 3150 H 287.953 -1.16121 3.0526 0
M  V30 3151 H 286.612 0.91232 3.55067 0
M  V30 3152 H 286.26 -1.16874 4.89234 0
M  V30 3153 H 285.96 0.29076 5.8688 0
M  V30 3154 H 287.484 -0.618678 6.07458 0
M  V30 3155 H 288.898 1.58161 5.51052 0
M  V30 3156 H 287.295 2.37279 5.51197 0
M  V30 3157 H 288.365 2.56957 4.11219 0
M  V30 3158 N 289.708 -1.40897 0.706093 0
M  V30 3159 C 290.618 -2.3455 0.0482286 0
M  V30 3160 C 291.634 -1.56796 -0.754396 0
M  V30 3161 O 292.81 -1.89228 -0.689538 0
M  V30 3162 C 289.875 -3.35625 -0.869303 0
M  V30 3163 C 288.936 -4.29261 -0.0576994 0
M  V30 3164 C 288.169 -5.25508 -0.931531 0
M  V30 3165 O 288.392 -5.27472 -2.17092 0
M  V30 3166 O 287.326 -6.00727 -0.375587 0
M  V30 3167 H 291.152 -2.92407 0.820476 0
M  V30 3168 H 288.737 -1.4193 0.4665 0
M  V30 3169 H 290.619 -3.97635 -1.39514 0
M  V30 3170 H 289.294 -2.80196 -1.62086 0
M  V30 3171 H 288.201 -3.70566 0.512988 0
M  V30 3172 H 289.534 -4.87817 0.655426 0
M  V30 3173 N 291.186 -0.45159 -1.50991 0
M  V30 3174 C 292.463 0.170707 -1.94854 0
M  V30 3175 C 292.843 1.58788 -1.39103 0
M  V30 3176 O 292.191 2.20913 -0.583921 0
M  V30 3177 C 292.401 0.133929 -3.48743 0
M  V30 3178 C 293.749 0.33248 -4.23296 0
M  V30 3179 O 294.773 0.211403 -3.55572 0
M  V30 3180 O 293.632 0.57486 -5.43468 0
M  V30 3181 H 290.726 0.122264 -0.817912 0
M  V30 3182 H 293.272 -0.510594 -1.61836 0
M  V30 3183 H 292.044 -0.856283 -3.81816 0
M  V30 3184 H 291.667 0.857529 -3.88242 0
M  V30 3185 N 292.664 1.56529 -0.183458 0
M  V30 3186 C 293.889 2.02064 0.467428 0
M  V30 3187 C 294.314 1.06282 1.55196 0
M  V30 3188 O 293.672 0.0443565 1.81246 0
M  V30 3189 C 293.72 3.46122 1.01153 0
M  V30 3190 O 292.824 3.53437 2.12499 0
M  V30 3191 H 292.165 0.654726 0.110588 0
M  V30 3192 H 294.695 2.02521 -0.290917 0
M  V30 3193 H 294.705 3.85676 1.33108 0
M  V30 3194 H 293.38 4.15331 0.217533 0
M  V30 3195 H 291.957 3.2575 1.81497 0
M  V30 3196 N 294.142 -0.090211 1.57342 0
M  V30 3197 C 295.072 -1.10976 2.05443 0
M  V30 3198 C 296.053 -1.41482 0.944284 0
M  V30 3199 O 297.238 -1.51428 1.21586 0
M  V30 3200 C 294.368 -2.42831 2.48295 0
M  V30 3201 C 293.322 -2.26721 3.63018 0
M  V30 3202 C 292.648 -3.63796 3.91863 0
M  V30 3203 C 293.948 -1.7037 4.93732 0
M  V30 3204 H 295.642 -0.709564 2.9087 0
M  V30 3205 H 293.188 -0.339874 1.39932 0
M  V30 3206 H 295.141 -3.14431 2.80555 0
M  V30 3207 H 293.865 -2.84795 1.59873 0
M  V30 3208 H 292.524 -1.57565 3.31012 0
M  V30 3209 H 292.172 -4.03297 3.00601 0
M  V30 3210 H 291.872 -3.53861 4.69101 0
M  V30 3211 H 293.396 -4.36855 4.26603 0
M  V30 3212 H 294.81 -2.31816 5.24342 0
M  V30 3213 H 293.207 -1.71181 5.75167 0
M  V30 3214 H 294.277 -0.663542 4.80339 0
M  V30 3215 N 295.62 -1.53406 -0.361157 0
M  V30 3216 C 296.85 -1.73465 -1.1222 0
M  V30 3217 C 297.258 -0.465486 -1.83384 0
M  V30 3218 O 296.601 0.571611 -1.7458 0
M  V30 3219 C 296.663 -2.84834 -2.19339 0
M  V30 3220 C 296.327 -4.25038 -1.67903 0
M  V30 3221 C 297.324 -5.07231 -1.14074 0
M  V30 3222 C 295.009 -4.71464 -1.73282 0
M  V30 3223 C 297.003 -6.33942 -0.663068 0
M  V30 3224 C 294.69 -5.98153 -1.25127 0
M  V30 3225 C 295.688 -6.79223 -0.717296 0
M  V30 3226 O 295.376 -8.03533 -0.242865 0
M  V30 3227 H 295.108 -0.583526 -0.341283 0
M  V30 3228 H 297.662 -2.00964 -0.424591 0
M  V30 3229 H 295.892 -2.5282 -2.92607 0
M  V30 3230 H 297.581 -2.9303 -2.80871 0
M  V30 3231 H 298.347 -4.72534 -1.09254 0
M  V30 3232 H 294.226 -4.08432 -2.13786 0
M  V30 3233 H 297.77 -6.97167 -0.245612 0
M  V30 3234 H 293.667 -6.32347 -1.29642 0
M  V30 3235 H 294.435 -8.177 -0.361786 0
M  V30 3236 N 297.098 0.621204 -1.44841 0
M  V30 3237 C 298.346 1.37783 -1.47852 0
M  V30 3238 C 298.667 1.94653 -0.116224 0
M  V30 3239 O 297.937 1.76367 0.852737 0
M  V30 3240 H 296.517 0.511453 -0.544449 0
M  V30 3241 H 299.179 0.730446 -1.80694 0
M  V30 3242 H 298.275 2.20414 -2.20961 0
M  V30 3243 N 298.576 1.31904 0.862503 0
M  V30 3244 C 299.486 1.22161 2.00285 0
M  V30 3245 C 300.502 0.136785 1.73462 0
M  V30 3246 O 301.678 0.355994 1.98229 0
M  V30 3247 C 298.743 0.937093 3.33796 0
M  V30 3248 C 297.804 2.10957 3.73893 0
M  V30 3249 C 297.037 1.83853 5.01033 0
M  V30 3250 O 297.26 0.777274 5.65079 0
M  V30 3251 O 296.194 2.69741 5.38074 0
M  V30 3252 H 300.02 2.18008 2.11439 0
M  V30 3253 H 297.605 1.11716 0.991957 0
M  V30 3254 H 299.487 0.794583 4.13841 0
M  V30 3255 H 298.162 0.00871894 3.23699 0
M  V30 3256 H 297.069 2.30752 2.94456 0
M  V30 3257 H 298.402 3.02046 3.88625 0
M  V30 3258 N 300.054 -1.07777 1.14986 0
M  V30 3259 C 301.331 -1.7699 0.832695 0
M  V30 3260 C 301.711 -2.001 -0.672561 0
M  V30 3261 O 301.059 -1.61598 -1.6155 0
M  V30 3262 C 301.269 -3.08139 1.63863 0
M  V30 3263 C 302.617 -3.8256 1.84208 0
M  V30 3264 O 303.641 -3.17939 1.60603 0
M  V30 3265 O 302.5 -4.98612 2.23714 0
M  V30 3266 H 299.594 -0.768389 0.305791 0
M  V30 3267 H 302.14 -1.14182 1.25541 0
M  V30 3268 H 300.912 -2.86909 2.6608 0
M  V30 3269 H 300.535 -3.78678 1.21197 0
M  V30 3270 N 301.532 -0.945985 -1.26051 0
M  V30 3271 C 302.78 -0.594941 -1.93145 0
M  V30 3272 C 303.101 0.86953 -1.7454 0
M  V30 3273 O 302.371 1.61838 -1.10387 0
M  V30 3274 H 300.951 -0.217044 -0.714773 0
M  V30 3275 H 303.613 -1.20235 -1.53393 0
M  V30 3276 H 302.709 -0.816835 -3.01221 0
M  V30 3277 N 303.011 1.40521 -0.713556 0
M  V30 3278 C 303.974 2.29098 -0.0684347 0
M  V30 3279 C 304.974 1.45268 0.689472 0
M  V30 3280 O 306.164 1.66205 0.521677 0
M  V30 3281 C 303.296 3.28446 0.913024 0
M  V30 3282 H 304.489 2.87645 -0.84855 0
M  V30 3283 H 302.042 1.48809 -0.47809 0
M  V30 3284 H 302.777 2.74913 1.72027 0
M  V30 3285 H 302.562 3.90327 0.372472 0
M  V30 3286 H 304.052 3.94777 1.36165 0
M  V30 3287 N 304.489 0.459591 1.5075 0
M  V30 3288 C 305.399 -0.34613 2.32033 0
M  V30 3289 C 306.415 -1.00686 1.41909 0
M  V30 3290 O 307.591 -0.997361 1.7497 0
M  V30 3291 C 304.656 -1.42029 3.16273 0
M  V30 3292 C 303.717 -0.777362 4.22203 0
M  V30 3293 C 302.95 -1.80034 5.02418 0
M  V30 3294 O 303.173 -3.02544 4.83553 0
M  V30 3295 O 302.107 -1.37853 5.85901 0
M  V30 3296 H 305.933 0.318054 3.0203 0
M  V30 3297 H 303.518 0.221663 1.47746 0
M  V30 3298 H 305.4 -2.04275 3.68578 0
M  V30 3299 H 304.075 -2.06815 2.49016 0
M  V30 3300 H 302.982 -0.116256 3.73919 0
M  V30 3301 H 304.315 -0.172634 4.91897 0
M  V30 3302 N 305.967 -1.56429 0.191757 0
M  V30 3303 C 307.213 -1.97777 -0.448554 0
M  V30 3304 C 307.546 -1.07847 -1.61501 0
M  V30 3305 O 306.821 -0.129774 -1.94067 0
M  V30 3306 C 307.104 -3.48362 -0.911906 0
M  V30 3307 C 306.957 -4.4907 0.256136 0
M  V30 3308 C 308.276 -4.02561 -1.77857 0
M  V30 3309 H 305.395 -0.719071 -0.161572 0
M  V30 3310 H 308.037 -1.87896 0.282007 0
M  V30 3311 H 306.187 -3.56914 -1.53442 0
M  V30 3312 H 307.859 -4.5256 0.893733 0
M  V30 3313 H 306.102 -4.24181 0.908436 0
M  V30 3314 H 306.773 -5.51889 -0.11053 0
M  V30 3315 H 309.249 -3.96767 -1.25359 0
M  V30 3316 H 308.125 -5.08301 -2.07174 0
M  V30 3317 H 308.386 -3.47616 -2.73158 0
M  V30 3318 N 307.445 0.0818655 -1.57387 0
M  V30 3319 C 308.691 0.784074 -1.8703 0
M  V30 3320 C 309.024 1.77729 -0.782689 0
M  V30 3321 O 308.299 1.93384 0.208051 0
M  V30 3322 C 308.582 1.50105 -3.27323 0
M  V30 3323 C 308.435 0.524925 -4.46727 0
M  V30 3324 C 309.754 2.44843 -3.65705 0
M  V30 3325 H 306.873 0.283582 -0.680257 0
M  V30 3326 H 309.515 0.0474352 -1.89941 0
M  V30 3327 H 307.665 2.12897 -3.24972 0
M  V30 3328 H 309.337 -0.0970111 -4.61198 0
M  V30 3329 H 307.58 -0.160606 -4.33503 0
M  V30 3330 H 308.251 1.064 -5.41648 0
M  V30 3331 H 310.727 1.92135 -3.69085 0
M  V30 3332 H 309.603 2.92018 -4.64776 0
M  V30 3333 H 309.864 3.29197 -2.95096 0
M  V30 3334 N 308.923 1.53595 0.353017 0
M  V30 3335 C 309.853 1.83902 1.43883 0
M  V30 3336 C 310.834 0.693421 1.55324 0
M  V30 3337 O 312.019 0.944452 1.69687 0
M  V30 3338 C 309.149 2.04016 2.8106 0
M  V30 3339 C 308.103 3.19814 2.84434 0
M  V30 3340 C 307.429 3.25244 4.24406 0
M  V30 3341 C 308.729 4.58133 2.50822 0
M  V30 3342 H 310.423 2.74835 1.1877 0
M  V30 3343 H 307.969 1.32242 0.569917 0
M  V30 3344 H 309.922 2.238 3.57059 0
M  V30 3345 H 308.646 1.09804 3.07588 0
M  V30 3346 H 307.305 2.9987 2.10887 0
M  V30 3347 H 306.953 2.28646 4.48029 0
M  V30 3348 H 306.653 4.03054 4.27576 0
M  V30 3349 H 308.177 3.47228 5.0226 0
M  V30 3350 H 309.591 4.77995 3.16534 0
M  V30 3351 H 307.988 5.38276 2.6529 0
M  V30 3352 H 309.058 4.62387 1.46034 0
M  V30 3353 N 310.401 -0.613514 1.45168 0
M  V30 3354 C 311.817 -0.933629 1.29443 0
M  V30 3355 C 312.017 -2.00028 0.243101 0
M  V30 3356 O 311.073 -2.49848 -0.364992 0
M  V30 3357 C 312.386 -1.38018 2.67155 0
M  V30 3358 C 313.934 -1.49471 2.75004 0
M  V30 3359 C 314.409 -1.97503 4.13227 0
M  V30 3360 N 315.9 -2.04746 4.15491 0
M  V30 3361 C 316.635 -2.43121 5.19307 0
M  V30 3362 N 316.131 -2.80506 6.33473 0
M  V30 3363 N 317.924 -2.43408 5.06664 0
M  V30 3364 H 310.075 0.0916097 2.12202 0
M  V30 3365 H 312.338 -0.0216655 0.947752 0
M  V30 3366 H 312.044 -0.670625 3.45247 0
M  V30 3367 H 311.918 -2.34784 2.95222 0
M  V30 3368 H 314.305 -2.19519 1.9722 0
M  V30 3369 H 314.386 -0.510342 2.50657 0
M  V30 3370 H 314.03 -1.28045 4.91495 0
M  V30 3371 H 313.96 -2.96843 4.34962 0
M  V30 3372 H 316.451 -1.78468 3.33103 0
M  V30 3373 H 316.764 -3.08652 7.08487 0
M  V30 3374 H 315.109 -2.78216 6.36884 0
M  V30 3375 H 318.3 -2.13604 4.16523 0
M  V30 3376 H 318.473 -2.72989 5.87691 0
M  V30 3377 N 311.879 -1.3236 -0.855495 0
M  V30 3378 C 313.156 -1.13491 -1.59309 0
M  V30 3379 C 313.536 0.30503 -2.08885 0
M  V30 3380 O 312.884 1.30151 -1.87811 0
M  V30 3381 C 313.094 -2.16176 -2.73987 0
M  V30 3382 C 314.442 -2.49463 -3.43589 0
M  V30 3383 O 315.466 -2.14715 -2.84211 0
M  V30 3384 O 314.325 -3.09027 -4.50738 0
M  V30 3385 H 311.419 -0.437887 -0.701559 0
M  V30 3386 H 313.965 -1.43887 -0.899696 0
M  V30 3387 H 312.737 -3.1297 -2.34873 0
M  V30 3388 H 312.36 -1.86769 -3.51003 0
M  V30 3389 N 313.357 1.07166 -1.15556 0
M  V30 3390 C 314.773 1.31899 -0.898603 0
M  V30 3391 C 314.973 1.96333 0.453383 0
M  V30 3392 O 314.029 2.22438 1.19489 0
M  V30 3393 C 315.342 2.20826 -2.04099 0
M  V30 3394 C 316.89 2.34269 -2.07574 0
M  V30 3395 C 317.365 3.26546 -3.21141 0
M  V30 3396 N 318.856 3.34127 -3.20801 0
M  V30 3397 C 319.591 4.05595 -4.05315 0
M  V30 3398 N 319.087 4.79661 -4.99897 0
M  V30 3399 N 320.88 4.01555 -3.93332 0
M  V30 3400 H 313.031 0.637302 -2.02613 0
M  V30 3401 H 315.294 0.343468 -0.883591 0
M  V30 3402 H 315 1.80744 -3.01703 0
M  V30 3403 H 314.874 3.21364 -1.97496 0
M  V30 3404 H 317.261 2.73603 -1.10568 0
M  V30 3405 H 317.342 1.33429 -2.18244 0
M  V30 3406 H 316.986 2.87931 -4.184 0
M  V30 3407 H 316.916 4.27345 -3.07708 0
M  V30 3408 H 319.407 2.81336 -2.52306 0
M  V30 3409 H 319.72 5.31694 -5.60822 0
M  V30 3410 H 318.065 4.78671 -5.03884 0
M  V30 3411 H 321.256 3.42806 -3.18751 0
M  V30 3412 H 321.429 4.56987 -4.5942 0
M  V30 3413 N 314.835 0.952656 1.25548 0
M  V30 3414 C 315.767 0.428609 2.25157 0
M  V30 3415 C 316.78 -0.454428 1.56329 0
M  V30 3416 O 317.969 -0.263023 1.76552 0
M  V30 3417 C 315.069 -0.401972 3.36508 0
M  V30 3418 C 314.242 0.467601 4.34893 0
M  V30 3419 C 313.301 -0.30445 5.25319 0
M  V30 3420 O 312.327 0.296473 5.68427 0
M  V30 3421 N 313.529 -1.59805 5.5807 0
M  V30 3422 H 316.294 1.28497 2.70756 0
M  V30 3423 H 313.855 0.822798 1.39433 0
M  V30 3424 H 315.847 -0.926134 3.9396 0
M  V30 3425 H 314.417 -1.15918 2.90313 0
M  V30 3426 H 313.637 1.17288 3.76347 0
M  V30 3427 H 314.925 1.06119 4.97611 0
M  V30 3428 H 314.323 -2.10823 5.24948 0
M  V30 3429 H 312.88 -2.06822 6.18116 0
M  V30 3430 N 316.313 -1.40141 0.720998 0
M  V30 3431 C 317.561 -2.0039 0.262323 0
M  V30 3432 C 317.882 -1.57469 -1.15015 0
M  V30 3433 O 317.152 -0.816582 -1.78069 0
M  V30 3434 H 315.732 -0.741063 0.093996 0
M  V30 3435 H 318.394 -1.71398 0.927835 0
M  V30 3436 H 317.49 -3.10658 0.299671 0
M  V30 3437 N 317.792 -0.46758 -1.50504 0
M  V30 3438 C 318.74 0.342482 -2.30065 0
M  V30 3439 C 319.734 0.993596 -1.37201 0
M  V30 3440 O 320.94 0.925102 -1.54408 0
M  V30 3441 H 317.315 0.129283 -0.740803 0
M  V30 3442 H 319.286 -0.34899 -2.96352 0
M  V30 3443 C 318.035 1.4139 -3.17654 0
M  V30 3444 H 317.358 0.922264 -3.89017 0
M  V30 3445 H 318.798 1.95335 -3.76325 0
M  V30 3446 C 317.257 2.4139 -2.35016 0
M  V30 3447 O 317.787 3.46586 -2.03079 0
M  V30 3448 N 315.993 2.13021 -1.97662 0
M  V30 3449 H 315.54 1.27499 -2.23834 0
M  V30 3450 H 315.498 2.80164 -1.42673 0
M  V30 3451 N 319.27 1.56325 -0.20005 0
M  V30 3452 C 320.519 1.96895 0.437652 0
M  V30 3453 C 320.832 1.08999 1.62415 0
M  V30 3454 O 322.038 1.39372 2.32997 0
M  V30 3455 C 320.494 3.50198 0.830025 0
M  V30 3456 C 320.102 4.46765 -0.332461 0
M  V30 3457 C 321.846 3.99526 1.43453 0
M  V30 3458 C 319.753 5.91344 0.0811468 0
M  V30 3459 H 318.683 0.735209 0.167282 0
M  V30 3460 H 321.334 1.81148 -0.292853 0
M  V30 3461 H 319.716 3.61467 1.61734 0
M  V30 3462 H 320.89 4.47231 -1.11 0
M  V30 3463 H 319.205 4.07657 -0.848789 0
M  V30 3464 H 321.802 5.05025 1.75652 0
M  V30 3465 H 322.145 3.44122 2.34277 0
M  V30 3466 H 322.678 3.91393 0.71109 0
M  V30 3467 H 319.417 6.50685 -0.793033 0
M  V30 3468 H 318.937 5.94121 0.823445 0
M  V30 3469 H 320.616 6.44945 0.515252 0
M  V30 3470 N 320.748 -0.0735177 1.57428 0
M  V30 3471 C 321.994 -0.774145 1.87443 0
M  V30 3472 C 322.327 -1.77311 0.792103 0
M  V30 3473 O 321.602 -1.93492 -0.197793 0
M  V30 3474 C 321.885 -1.48367 3.28115 0
M  V30 3475 C 321.738 -0.501227 4.46999 0
M  V30 3476 C 323.057 -2.429 3.66998 0
M  V30 3477 H 320.176 -0.279971 0.681752 0
M  V30 3478 H 322.818 -0.0373616 1.89963 0
M  V30 3479 H 320.968 -2.11171 3.26097 0
M  V30 3480 H 322.64 0.121468 4.6114 0
M  V30 3481 H 320.883 0.183593 4.33411 0
M  V30 3482 H 321.554 -1.03526 5.42205 0
M  V30 3483 H 324.03 -1.90175 3.70098 0
M  V30 3484 H 322.906 -2.89549 4.66318 0
M  V30 3485 H 323.167 -3.27628 2.96837 0
M  V30 3486 N 322.226 -1.5378 -0.344866 0
M  V30 3487 C 323.503 -1.61589 -1.10219 0
M  V30 3488 C 323.883 -0.436316 -2.06542 0
M  V30 3489 O 323.231 0.571543 -2.21237 0
M  V30 3490 C 323.441 -2.97602 -1.82301 0
M  V30 3491 C 324.789 -3.5291 -2.36093 0
M  V30 3492 O 325.813 -2.99768 -1.924 0
M  V30 3493 O 324.672 -4.45859 -3.16026 0
M  V30 3494 H 321.766 -0.653522 -0.506792 0
M  V30 3495 H 324.312 -1.66126 -0.346465 0
M  V30 3496 H 323.084 -3.74893 -1.12121 0
M  V30 3497 H 322.707 -2.9665 -2.64735 0
M  V30 3498 N 323.704 0.605807 -1.45491 0
M  V30 3499 C 324.929 1.39625 -1.53361 0
M  V30 3500 C 325.354 1.87351 -0.167645 0
M  V30 3501 O 324.712 1.60243 0.848051 0
M  V30 3502 C 324.76 2.57559 -2.5238 0
M  V30 3503 O 323.864 3.58248 -2.04285 0
M  V30 3504 H 323.205 0.416771 -0.516912 0
M  V30 3505 H 325.735 0.737103 -1.90861 0
M  V30 3506 H 325.745 3.0478 -2.71244 0
M  V30 3507 H 324.42 2.22171 -3.51586 0
M  V30 3508 H 322.997 3.17664 -1.95305 0
M  V30 3509 N 325.182 1.32811 0.848464 0
M  V30 3510 C 326.112 1.24882 1.97299 0
M  V30 3511 C 327.093 0.131357 1.69592 0
M  V30 3512 O 328.278 0.319553 1.91553 0
M  V30 3513 C 325.408 0.97746 3.33261 0
M  V30 3514 C 324.362 2.05682 3.75338 0
M  V30 3515 C 323.688 1.63777 5.09 0
M  V30 3516 C 324.988 3.47254 3.90144 0
M  V30 3517 H 326.682 2.18966 2.04191 0
M  V30 3518 H 324.228 1.05413 0.981029 0
M  V30 3519 H 326.181 0.908513 4.1149 0
M  V30 3520 H 324.905 0.000980011 3.266 0
M  V30 3521 H 323.564 2.11603 2.99366 0
M  V30 3522 H 323.212 0.648569 4.98801 0
M  V30 3523 H 322.912 2.36 5.38124 0
M  V30 3524 H 324.436 1.5833 5.89715 0
M  V30 3525 H 325.85 3.43888 4.58709 0
M  V30 3526 H 324.247 4.1788 4.30693 0
M  V30 3527 H 325.317 3.86462 2.92874 0
M  V30 3528 N 326.66 -1.06551 1.16123 0
M  V30 3529 C 327.937 -1.76097 0.85142 0
M  V30 3530 C 328.317 -2.00802 -0.6513 0
M  V30 3531 O 327.665 -1.63302 -1.59827 0
M  V30 3532 C 327.875 -3.06384 1.67122 0
M  V30 3533 C 329.223 -3.80585 1.88255 0
M  V30 3534 O 330.247 -3.16218 1.63966 0
M  V30 3535 O 329.106 -4.96212 2.2899 0
M  V30 3536 H 326.2 -0.765102 0.313923 0
M  V30 3537 H 328.746 -1.12844 1.26745 0
M  V30 3538 H 327.518 -2.84071 2.69108 0
M  V30 3539 H 327.141 -3.77371 1.25206 0
M  V30 3540 N 328.138 -0.959301 -1.25041 0
M  V30 3541 C 329.363 -0.633507 -1.97488 0
M  V30 3542 C 329.788 0.788555 -1.70773 0
M  V30 3543 O 329.146 1.53394 -0.966431 0
M  V30 3544 C 329.194 -0.904057 -3.49083 0
M  V30 3545 O 328.298 0.0147939 -4.12397 0
M  V30 3546 H 327.639 -0.240368 -0.618966 0
M  V30 3547 H 330.169 -1.28717 -1.59038 0
M  V30 3548 H 330.179 -0.832203 -3.99423 0
M  V30 3549 H 328.854 -1.94048 -3.67856 0
M  V30 3550 H 327.431 -0.109664 -3.72739 0
M  V30 3551 N 329.616 1.39756 -0.72842 0
M  V30 3552 C 331.027 1.83498 -0.344289 0
M  V30 3553 C 331.378 1.60868 1.12321 0
M  V30 3554 O 330.503 1.09634 1.86573 0
M  V30 3555 C 331.098 3.33114 -0.618112 0
M  V30 3556 C 329.657 3.753 -0.287549 0
M  V30 3557 C 328.804 2.62831 -0.884048 0
M  V30 3558 H 331.755 1.28842 -0.926578 0
M  V30 3559 H 331.776 3.80334 0.112349 0
M  V30 3560 H 331.288 3.49553 -1.68625 0
M  V30 3561 H 329.389 3.64451 0.775012 0
M  V30 3562 H 329.502 4.72945 -0.765512 0
M  V30 3563 H 327.866 2.52792 -0.311149 0
M  V30 3564 H 328.649 2.82078 -1.95671 0
M  V30 3565 N 331.094 0.475555 1.50254 0
M  V30 3566 C 332.51 0.12997 1.5907 0
M  V30 3567 C 332.71 -1.36385 1.48328 0
M  V30 3568 O 331.766 -2.13754 1.34407 0
M  V30 3569 C 333.079 0.684139 2.92814 0
M  V30 3570 C 334.627 0.647965 3.0622 0
M  V30 3571 C 335.102 1.17975 4.42545 0
M  V30 3572 N 336.593 1.13936 4.48969 0
M  V30 3573 C 337.328 1.52129 5.52851 0
M  V30 3574 N 336.824 1.97793 6.63965 0
M  V30 3575 N 338.617 1.43704 5.4342 0
M  V30 3576 H 330.768 1.44706 1.55479 0
M  V30 3577 H 333.031 0.598691 0.735033 0
M  V30 3578 H 332.737 1.73079 3.06164 0
M  V30 3579 H 332.611 0.130204 3.76975 0
M  V30 3580 H 334.998 -0.38979 2.92514 0
M  V30 3581 H 335.079 1.23876 2.23805 0
M  V30 3582 H 334.723 2.21616 4.57 0
M  V30 3583 H 334.653 0.565138 5.23559 0
M  V30 3584 H 337.144 0.804488 3.69238 0
M  V30 3585 H 337.457 2.25072 7.39299 0
M  V30 3586 H 335.802 2.01749 6.65073 0
M  V30 3587 H 338.993 1.07867 4.55502 0
M  V30 3588 H 339.166 1.73794 6.24259 0
M  V30 3589 N 332.573 -1.56217 0.208337 0
M  V30 3590 C 333.521 -2.21053 -0.723769 0
M  V30 3591 C 334.515 -1.18578 -1.20978 0
M  V30 3592 O 335.721 -1.36691 -1.17114 0
M  V30 3593 H 332.096 -0.708595 -0.251788 0
M  V30 3594 H 334.067 -2.98006 -0.153365 0
M  V30 3595 C 332.816 -2.89417 -1.927 0
M  V30 3596 H 332.139 -3.68019 -1.56212 0
M  V30 3597 H 333.579 -3.38201 -2.55727 0
M  V30 3598 C 332.038 -1.91166 -2.77411 0
M  V30 3599 O 332.568 -1.42026 -3.75754 0
M  V30 3600 N 330.774 -1.59105 -2.43175 0
M  V30 3601 H 330.321 -1.99259 -1.63259 0
M  V30 3602 H 330.279 -0.936255 -3.00136 0
M  V30 3603 N 334.051 0.0651679 -1.57465 0
M  V30 3604 C 334.998 1.07675 -2.04144 0
M  V30 3605 C 335.968 1.38071 -0.923335 0
M  V30 3606 O 337.153 1.49026 -1.19146 0
M  V30 3607 C 334.293 2.38337 -2.49579 0
M  V30 3608 C 333.406 2.14413 -3.75035 0
M  V30 3609 C 332.541 3.38686 -4.09225 0
M  V30 3610 C 331.58 3.10156 -5.27702 0
M  V30 3611 N 330.717 4.26778 -5.57499 0
M  V30 3612 H 335.557 0.671716 -2.90331 0
M  V30 3613 H 333.094 0.3201 -1.43575 0
M  V30 3614 H 335.052 3.14632 -2.73975 0
M  V30 3615 H 333.682 2.7663 -1.6636 0
M  V30 3616 H 332.734 1.2878 -3.57939 0
M  V30 3617 H 334.046 1.89344 -4.61466 0
M  V30 3618 H 333.2 4.23373 -4.34558 0
M  V30 3619 H 331.939 3.66837 -3.21374 0
M  V30 3620 H 330.944 2.23866 -5.02159 0
M  V30 3621 H 332.169 2.8332 -6.17176 0
M  V30 3622 H 330.115 4.54948 -4.72608 0
M  V30 3623 H 330.032 4.05005 -6.38362 0
M  V30 3624 H 331.3 5.12443 -5.87386 0
M  V30 3625 N 335.529 1.53961 0.336706 0
M  V30 3626 C 336.492 1.81724 1.39675 0
M  V30 3627 C 337.492 0.688532 1.45313 0
M  V30 3628 O 338.682 0.956829 1.45569 0
M  V30 3629 C 335.814 1.96543 2.78538 0
M  V30 3630 H 337.007 2.76424 1.16318 0
M  V30 3631 H 334.56 1.45478 0.571474 0
M  V30 3632 H 335.295 1.0401 3.07168 0
M  V30 3633 H 335.08 2.78665 2.75841 0
M  V30 3634 H 336.57 2.19516 3.5525 0
M  V30 3635 N 337.007 -0.598083 1.45811 0
M  V30 3636 C 338.418 -1.18011 1.44673 0
M  V30 3637 C 338.769 -1.95378 0.179364 0
M  V30 3638 O 337.894 -2.04124 -0.718509 0
M  V30 3639 C 338.489 -2.14677 2.62105 0
M  V30 3640 C 337.048 -2.68236 2.64057 0
M  V30 3641 C 336.195 -1.43816 2.37091 0
M  V30 3642 H 339.146 -0.38686 1.53913 0
M  V30 3643 H 339.167 -2.97878 2.36746 0
M  V30 3644 H 338.679 -1.5834 3.5433 0
M  V30 3645 H 336.78 -3.28486 1.75864 0
M  V30 3646 H 336.893 -3.12021 3.63566 0
M  V30 3647 H 335.257 -1.731 1.86838 0
M  V30 3648 H 336.04 -0.893333 3.31473 0
M  V30 3649 N 338.485 -1.33259 -0.841409 0
M  V30 3650 C 339.417 -1.19136 -1.95804 0
M  V30 3651 C 340.43 -0.122965 -1.62335 0
M  V30 3652 O 341.619 -0.373154 -1.74556 0
M  V30 3653 C 338.719 -0.804268 -3.29218 0
M  V30 3654 C 337.892 -1.96376 -3.90839 0
M  V30 3655 C 336.951 -1.55806 -5.02604 0
M  V30 3656 O 335.977 -2.27203 -5.21888 0
M  V30 3657 N 337.179 -0.461609 -5.78662 0
M  V30 3658 H 339.944 -2.15326 -2.08458 0
M  V30 3659 H 337.505 -1.25971 -1.017 0
M  V30 3660 H 339.497 -0.51501 -4.0141 0
M  V30 3661 H 338.067 0.0668809 -3.12528 0
M  V30 3662 H 337.287 -2.41879 -3.11269 0
M  V30 3663 H 338.575 -2.73966 -4.28742 0
M  V30 3664 H 337.973 0.132343 -5.65545 0
M  V30 3665 H 336.53 -0.232013 -6.51387 0
M  V30 3666 N 339.963 1.05934 -1.16686 0
M  V30 3667 C 340.911 2.15603 -0.872817 0
M  V30 3668 C 341.905 1.68647 0.159576 0
M  V30 3669 O 343.111 1.79995 0.0132125 0
M  V30 3670 H 339.486 0.703885 -0.264671 0
M  V30 3671 H 341.457 2.37613 -1.80507 0
M  V30 3672 C 340.206 3.45457 -0.394344 0
M  V30 3673 H 339.529 3.81984 -1.18019 0
M  V30 3674 H 340.969 4.2339 -0.227408 0
M  V30 3675 C 339.428 3.25021 0.88673 0
M  V30 3676 O 339.958 3.50906 1.95519 0
M  V30 3677 N 338.164 2.78437 0.831925 0
M  V30 3678 H 337.711 2.57572 -0.0377619 0
M  V30 3679 H 337.669 2.65144 1.68956 0
M  V30 3680 N 341.441 0.965919 1.2453 0
M  V30 3681 C 342.689 0.625593 1.92174 0
M  V30 3682 C 343.01 -0.841652 1.75901 0
M  V30 3683 O 342.28 -1.60061 1.12948 0
M  V30 3684 H 340.86 0.228388 0.71123 0
M  V30 3685 H 343.522 1.2266 1.51461 0
M  V30 3686 H 342.618 0.864653 2.99884 0
M  V30 3687 N 342.919 -1.39368 0.735821 0
M  V30 3688 C 343.866 -2.30599 0.0963825 0
M  V30 3689 C 344.836 -1.49257 -0.728794 0
M  V30 3690 O 346.021 -1.77941 -0.688588 0
M  V30 3691 C 343.161 -3.35596 -0.804305 0
M  V30 3692 C 342.274 -4.31987 0.0335761 0
M  V30 3693 C 341.409 -5.24053 -0.868461 0
M  V30 3694 C 340.448 -6.12095 -0.0258776 0
M  V30 3695 N 339.585 -6.96514 -0.883893 0
M  V30 3696 H 344.425 -2.8471 0.880002 0
M  V30 3697 H 341.962 -1.40188 0.445619 0
M  V30 3698 H 343.92 -3.95062 -1.34096 0
M  V30 3699 H 342.55 -2.82938 -1.55389 0
M  V30 3700 H 341.602 -3.74133 0.68766 0
M  V30 3701 H 342.914 -4.94074 0.685036 0
M  V30 3702 H 342.068 -5.88549 -1.47293 0
M  V30 3703 H 340.807 -4.62289 -1.5537 0
M  V30 3704 H 339.812 -5.4661 0.591386 0
M  V30 3705 H 341.037 -6.75923 0.656156 0
M  V30 3706 H 338.983 -6.37318 -1.55441 0
M  V30 3707 H 338.9 -7.55448 -0.288931 0
M  V30 3708 H 340.168 -7.65439 -1.4739 0
M  V30 3709 N 344.397 -0.483516 -1.5 0
M  V30 3710 C 345.674 0.129337 -1.95172 0
M  V30 3711 C 346.054 1.55802 -1.4244 0
M  V30 3712 O 345.402 2.19625 -0.630649 0
M  V30 3713 C 345.612 0.0599251 -3.48949 0
M  V30 3714 C 346.96 0.242617 -4.23906 0
M  V30 3715 O 347.984 0.135933 -3.55941 0
M  V30 3716 O 346.843 0.459454 -5.44565 0
M  V30 3717 H 343.937 0.104887 -0.820322 0
M  V30 3718 H 346.483 -0.544807 -1.60717 0
M  V30 3719 H 345.255 -0.937079 -3.79914 0
M  V30 3720 H 344.878 0.774984 -3.89974 0
M  V30 3721 N 345.875 1.56104 -0.216619 0
M  V30 3722 C 347.124 1.97348 0.416744 0
M  V30 3723 C 347.437 1.10715 1.6125 0
M  V30 3724 O 348.643 1.41836 2.31506 0
M  V30 3725 C 347.099 3.51059 0.792835 0
M  V30 3726 C 346.707 4.46387 -0.379828 0
M  V30 3727 C 348.451 4.01026 1.39208 0
M  V30 3728 C 346.358 5.91397 0.0184223 0
M  V30 3729 H 345.288 0.736942 0.159475 0
M  V30 3730 H 347.939 1.80827 -0.31205 0
M  V30 3731 H 346.321 3.63162 1.57891 0
M  V30 3732 H 347.495 4.46029 -1.15737 0
M  V30 3733 H 345.81 4.06734 -0.891979 0
M  V30 3734 H 348.407 5.0686 1.70286 0
M  V30 3735 H 348.75 3.46587 2.30614 0
M  V30 3736 H 349.283 3.92125 0.669537 0
M  V30 3737 H 346.022 6.49807 -0.862002 0
M  V30 3738 H 345.542 5.94961 0.760384 0
M  V30 3739 H 347.221 6.45455 0.446818 0
M  V30 3740 N 347.353 -0.0568162 1.57498 0
M  V30 3741 C 348.602 -0.752001 1.87157 0
M  V30 3742 C 348.915 -1.77978 0.811375 0
M  V30 3743 O 350.121 -2.52559 0.996293 0
M  V30 3744 C 348.577 -1.38844 3.3204 0
M  V30 3745 C 348.185 -0.398456 4.46225 0
M  V30 3746 C 349.929 -2.06512 3.70882 0
M  V30 3747 C 347.836 -1.04166 5.82154 0
M  V30 3748 H 346.766 -0.28461 0.698222 0
M  V30 3749 H 349.417 -0.00561272 1.83499 0
M  V30 3750 H 347.799 -2.1836 3.30356 0
M  V30 3751 H 348.973 0.367977 4.59328 0
M  V30 3752 H 347.288 0.174592 4.16034 0
M  V30 3753 H 349.885 -2.55437 4.6974 0
M  V30 3754 H 350.228 -2.87117 3.01445 0
M  V30 3755 H 350.761 -1.33808 3.7462 0
M  V30 3756 H 347.5 -0.275614 6.5492 0
M  V30 3757 H 347.02 -1.7786 5.72823 0
M  V30 3758 H 348.699 -1.55715 6.27982 0
M  V30 3759 N 348.832 -1.54138 -0.328536 0
M  V30 3760 C 349.762 -1.86167 -1.40939 0
M  V30 3761 C 350.743 -0.718044 -1.54202 0
M  V30 3762 O 351.928 -0.971328 -1.68163 0
M  V30 3763 C 349.058 -2.08461 -2.77779 0
M  V30 3764 C 348.012 -3.24299 -2.7931 0
M  V30 3765 C 347.338 -3.31955 -4.19178 0
M  V30 3766 C 348.638 -4.62065 -2.43502 0
M  V30 3767 H 350.332 -2.76689 -1.14383 0
M  V30 3768 H 347.878 -1.33132 -0.548806 0
M  V30 3769 H 349.831 -2.29453 -3.53454 0
M  V30 3770 H 348.555 -1.14684 -3.05802 0
M  V30 3771 H 347.214 -3.03187 -2.0609 0
M  V30 3772 H 346.862 -2.35745 -4.44335 0
M  V30 3773 H 346.562 -4.09805 -4.2111 0
M  V30 3774 H 348.086 -3.55175 -4.96672 0
M  V30 3775 H 349.5 -4.8297 -3.08889 0
M  V30 3776 H 347.897 -5.42429 -2.56693 0
M  V30 3777 H 348.967 -4.64652 -1.38659 0
M  V30 3778 N 350.31 0.590341 -1.46126 0
M  V30 3779 C 351.535 1.37991 -1.54833 0
M  V30 3780 C 351.96 1.87163 -0.187506 0
M  V30 3781 O 351.318 1.61133 0.831008 0
M  V30 3782 C 351.366 2.54867 -2.55098 0
M  V30 3783 O 350.47 3.56061 -2.08073 0
M  V30 3784 H 349.811 0.411265 -0.521303 0
M  V30 3785 H 352.341 0.716819 -1.91632 0
M  V30 3786 H 352.351 3.01886 -2.74461 0
M  V30 3787 H 351.026 2.18429 -3.53923 0
M  V30 3788 H 349.603 3.15574 -1.98664 0
M  V30 3789 N 351.788 1.33704 0.83433 0
M  V30 3790 C 352.718 1.26967 1.95963 0
M  V30 3791 C 353.699 0.149337 1.69443 0
M  V30 3792 O 354.884 0.339852 1.91203 0
M  V30 3793 C 352.014 1.01275 3.32206 0
M  V30 3794 C 350.968 2.09652 3.73136 0
M  V30 3795 C 350.294 1.69166 5.07235 0
M  V30 3796 C 351.594 3.51372 3.86439 0
M  V30 3797 H 353.288 2.2112 2.01857 0
M  V30 3798 H 350.834 1.06447 0.969793 0
M  V30 3799 H 352.787 0.952106 4.10503 0
M  V30 3800 H 351.511 0.0356203 3.26581 0
M  V30 3801 H 350.17 2.14766 2.97104 0
M  V30 3802 H 349.818 0.701437 4.98085 0
M  V30 3803 H 349.518 2.41694 5.35591 0
M  V30 3804 H 351.042 1.64576 5.88003 0
M  V30 3805 H 352.456 3.48734 4.55036 0
M  V30 3806 H 350.853 4.22425 4.26236 0
M  V30 3807 H 351.923 3.89546 2.88759 0
M  V30 3808 N 353.266 -1.05314 1.17247 0
M  V30 3809 C 354.543 -1.75184 0.87005 0
M  V30 3810 C 354.923 -2.01481 -0.629965 0
M  V30 3811 O 354.271 -1.64988 -1.58086 0
M  V30 3812 C 354.481 -3.04594 1.70363 0
M  V30 3813 C 355.829 -3.78567 1.92281 0
M  V30 3814 O 356.853 -3.14461 1.67311 0
M  V30 3815 O 355.712 -4.93755 2.3424 0
M  V30 3816 H 352.806 -0.761729 0.322021 0
M  V30 3817 H 355.352 -1.11493 1.27935 0
M  V30 3818 H 354.124 -2.81201 2.72106 0
M  V30 3819 H 353.747 -3.76022 1.29202 0
M  V30 3820 N 354.744 -0.972509 -1.24016 0
M  V30 3821 C 355.676 -0.464375 -2.24446 0
M  V30 3822 C 356.689 0.4295 -1.57032 0
M  V30 3823 O 357.878 0.234902 -1.76948 0
M  V30 3824 C 354.978 0.348385 -3.37105 0
M  V30 3825 C 354.151 -0.53673 -4.34094 0
M  V30 3826 C 353.21 0.220838 -5.25736 0
M  V30 3827 O 352.236 -0.386867 -5.67884 0
M  V30 3828 N 353.438 1.50907 -5.60542 0
M  V30 3829 H 356.203 -1.32788 -2.68677 0
M  V30 3830 H 353.764 -0.844877 -1.38107 0
M  V30 3831 H 355.756 0.863341 -3.95384 0
M  V30 3832 H 354.326 1.11285 -2.92121 0
M  V30 3833 H 353.546 -1.23261 -3.74433 0
M  V30 3834 H 354.834 -1.14022 -4.95859 0
M  V30 3835 H 354.232 2.02444 -5.28236 0
M  V30 3836 H 352.789 1.96962 -6.21329 0
M  V30 3837 N 356.222 1.38976 -0.743202 0
M  V30 3838 C 357.638 1.53984 -0.419664 0
M  V30 3839 C 357.838 1.70837 1.0685 0
M  V30 3840 O 356.894 1.7135 1.8546 0
M  V30 3841 C 358.207 2.75287 -1.20985 0
M  V30 3842 C 359.755 2.89129 -1.19889 0
M  V30 3843 C 360.23 4.13381 -1.97181 0
M  V30 3844 N 361.721 4.20437 -1.94389 0
M  V30 3845 C 362.456 5.15547 -2.50996 0
M  V30 3846 N 361.952 6.16395 -3.16274 0
M  V30 3847 N 363.745 5.07822 -2.40984 0
M  V30 3848 H 355.896 1.26285 -1.7078 0
M  V30 3849 H 358.159 0.612689 -0.723406 0
M  V30 3850 H 357.865 2.69204 -2.26323 0
M  V30 3851 H 357.739 3.68184 -0.819759 0
M  V30 3852 H 360.126 2.947 -0.153606 0
M  V30 3853 H 360.207 1.97272 -1.62841 0
M  V30 3854 H 359.851 4.08572 -3.01714 0
M  V30 3855 H 359.781 5.04298 -1.51629 0
M  V30 3856 H 362.272 3.48205 -1.46839 0
M  V30 3857 H 362.585 6.85443 -3.56915 0
M  V30 3858 H 360.93 6.16758 -3.20367 0
M  V30 3859 H 364.121 4.27973 -1.89622 0
M  V30 3860 H 364.294 5.81767 -2.85397 0
M  V30 3861 N 357.7 0.491464 1.49741 0
M  V30 3862 C 358.949 -0.0582189 2.01616 0
M  V30 3863 C 359.262 -1.38927 1.3769 0
M  V30 3864 O 360.468 -2.02509 1.80838 0
M  V30 3865 C 358.924 -0.154235 3.59569 0
M  V30 3866 C 358.532 1.1696 4.32463 0
M  V30 3867 C 360.276 -0.65479 4.1942 0
M  V30 3868 C 358.183 1.03627 5.8225 0
M  V30 3869 H 357.113 -0.0255317 0.753568 0
M  V30 3870 H 359.764 0.629445 1.72367 0
M  V30 3871 H 358.146 -0.906138 3.85493 0
M  V30 3872 H 359.32 1.93405 4.18248 0
M  V30 3873 H 357.635 1.60285 3.84315 0
M  V30 3874 H 360.232 -0.771903 5.29099 0
M  V30 3875 H 360.575 -1.65127 3.8215 0
M  V30 3876 H 361.108 0.040304 3.9778 0
M  V30 3877 H 357.847 2.00672 6.24028 0
M  V30 3878 H 357.367 0.312546 5.98985 0
M  V30 3879 H 359.046 0.711114 6.4308 0
M  V30 3880 N 359.178 -1.55987 0.224894 0
M  V30 3881 C 360.11 -2.17722 -0.716224 0
M  V30 3882 C 361.123 -1.14723 -1.15509 0
M  V30 3883 O 362.312 -1.41688 -1.08567 0
M  V30 3884 C 359.412 -2.74873 -1.98238 0
M  V30 3885 C 358.585 -4.03074 -1.69853 0
M  V30 3886 C 357.644 -4.44757 -2.81208 0
M  V30 3887 O 356.67 -5.11587 -2.49534 0
M  V30 3888 N 357.872 -4.10716 -4.10235 0
M  V30 3889 H 360.637 -2.99109 -0.188123 0
M  V30 3890 H 358.198 -1.6184 0.0440123 0
M  V30 3891 H 360.19 -2.99727 -2.7193 0
M  V30 3892 H 358.76 -1.9777 -2.42086 0
M  V30 3893 H 357.98 -3.86041 -0.797875 0
M  V30 3894 H 359.268 -4.86701 -1.48324 0
M  V30 3895 H 358.666 -3.57019 -4.38809 0
M  V30 3896 H 357.223 -4.40455 -4.80461 0
M  V30 3897 N 360.656 0.0484629 -1.57525 0
M  V30 3898 C 361.884 0.755421 -1.92616 0
M  V30 3899 C 362.299 1.69919 -0.822984 0
M  V30 3900 O 361.656 1.81378 0.202085 0
M  V30 3901 C 361.707 1.52915 -3.27566 0
M  V30 3902 O 361.428 0.62329 -4.33644 0
M  V30 3903 C 362.929 2.33502 -3.76818 0
M  V30 3904 H 360.149 0.213465 -0.63614 0
M  V30 3905 H 362.693 0.0117698 -2.04497 0
M  V30 3906 H 360.848 2.22486 -3.17142 0
M  V30 3907 H 361.262 1.16383 -5.11425 0
M  V30 3908 H 362.736 2.83214 -4.73808 0
M  V30 3909 H 363.213 3.14068 -3.07014 0
M  V30 3910 H 363.819 1.69043 -3.90262 0
M  V30 3911 N 362.134 1.5431 0.320358 0
M  V30 3912 C 363.064 1.86912 1.3995 0
M  V30 3913 C 364.045 0.726211 1.53819 0
M  V30 3914 O 365.23 0.980233 1.67646 0
M  V30 3915 C 362.36 2.09932 2.7667 0
M  V30 3916 C 361.314 3.25776 2.77586 0
M  V30 3917 C 360.64 3.34173 4.17412 0
M  V30 3918 C 361.94 4.6335 2.41048 0
M  V30 3919 H 363.634 2.77292 1.12914 0
M  V30 3920 H 361.18 1.33421 0.541738 0
M  V30 3921 H 363.133 2.31324 3.52232 0
M  V30 3922 H 361.857 1.16304 3.0519 0
M  V30 3923 H 360.516 3.04276 2.04479 0
M  V30 3924 H 360.164 2.38098 4.43078 0
M  V30 3925 H 359.864 4.12033 4.18931 0
M  V30 3926 H 361.388 3.57803 4.94782 0
M  V30 3927 H 362.802 4.84602 3.06324 0
M  V30 3928 H 361.199 5.43782 2.53813 0
M  V30 3929 H 362.269 4.65381 1.36193 0
M  V30 3930 N 363.613 -0.582584 1.46437 0
M  V30 3931 C 364.576 -1.67366 1.56592 0
M  V30 3932 C 365.576 -1.54575 0.443072 0
M  V30 3933 O 366.766 -1.59191 0.707381 0
M  V30 3934 C 363.898 -3.06791 1.48634 0
M  V30 3935 H 365.091 -1.5972 2.5383 0
M  V30 3936 H 362.644 -0.800432 1.34249 0
M  V30 3937 H 363.379 -3.19993 0.526763 0
M  V30 3938 H 363.164 -3.17484 2.30101 0
M  V30 3939 H 364.654 -3.86218 1.58826 0
M  V30 3940 N 365.091 -1.34144 -0.827227 0
M  V30 3941 C 366.321 -1.29138 -1.61267 0
M  V30 3942 C 366.729 0.137597 -1.88699 0
M  V30 3943 O 366.072 1.09379 -1.47587 0
M  V30 3944 C 366.134 -2.0097 -2.9808 0
M  V30 3945 C 365.798 -3.50242 -2.93563 0
M  V30 3946 C 366.795 -4.4523 -2.68452 0
M  V30 3947 C 364.48 -3.92592 -3.13331 0
M  V30 3948 C 366.474 -5.80542 -2.63154 0
M  V30 3949 C 364.161 -5.28005 -3.07658 0
M  V30 3950 C 365.159 -6.21792 -2.82602 0
M  V30 3951 O 364.847 -7.54723 -2.76853 0
M  V30 3952 H 364.579 -0.445851 -0.508127 0
M  V30 3953 H 367.133 -1.77263 -1.03763 0
M  V30 3954 H 365.363 -1.47451 -3.57484 0
M  V30 3955 H 367.052 -1.89309 -3.5905 0
M  V30 3956 H 367.818 -4.13832 -2.52919 0
M  V30 3957 H 363.697 -3.19994 -3.31851 0
M  V30 3958 H 367.241 -6.53717 -2.43516 0
M  V30 3959 H 363.138 -5.59023 -3.22743 0
M  V30 3960 H 363.906 -7.64409 -2.92611 0
M  V30 3961 N 366.569 1.04691 -1.17803 0
M  V30 3962 C 367.479 2.16057 -0.914151 0
M  V30 3963 C 368.495 1.73589 0.119503 0
M  V30 3964 O 369.671 2.01308 -0.0609468 0
M  V30 3965 C 366.736 3.4394 -0.436603 0
M  V30 3966 C 365.797 4.00825 -1.53746 0
M  V30 3967 C 365.03 5.22604 -1.0826 0
M  V30 3968 O 365.253 5.70367 0.0612244 0
M  V30 3969 O 364.187 5.7186 -1.87775 0
M  V30 3970 H 368.013 2.41169 -1.84584 0
M  V30 3971 H 365.598 1.1453 -0.959334 0
M  V30 3972 H 367.48 4.21024 -0.178057 0
M  V30 3973 H 366.155 3.20316 0.466869 0
M  V30 3974 H 365.062 3.25158 -1.84995 0
M  V30 3975 H 366.395 4.28778 -2.41683 0
M  V30 3976 N 368.047 0.979072 1.23499 0
M  V30 3977 C 368.957 0.526431 2.28617 0
M  V30 3978 C 369.973 -0.418126 1.68901 0
M  V30 3979 O 371.149 -0.288372 1.99325 0
M  V30 3980 C 368.214 -0.165235 3.46306 0
M  V30 3981 C 367.275 0.82056 4.21385 0
M  V30 3982 C 366.508 0.161807 5.33455 0
M  V30 3983 O 366.731 -1.04742 5.60701 0
M  V30 3984 O 365.665 0.859708 5.95729 0
M  V30 3985 H 369.491 1.4006 2.69475 0
M  V30 3986 H 367.076 0.746643 1.29405 0
M  V30 3987 H 368.958 -0.553287 4.17752 0
M  V30 3988 H 367.633 -1.01419 3.07402 0
M  V30 3989 H 366.54 1.25929 3.52268 0
M  V30 3990 H 367.873 1.63828 4.64135 0
M  V30 3991 N 369.525 -1.3858 0.750561 0
M  V30 3992 C 370.455 -2.33102 0.136237 0
M  V30 3993 C 371.436 -1.54713 -0.706965 0
M  V30 3994 O 372.621 -1.83043 -0.648769 0
M  V30 3995 C 369.751 -3.38882 -0.760017 0
M  V30 3996 C 368.705 -4.27995 -0.0197785 0
M  V30 3997 C 368.031 -5.24605 -1.03408 0
M  V30 3998 C 369.331 -5.09554 1.14684 0
M  V30 3999 H 371.025 -2.84726 0.925822 0
M  V30 4000 H 368.571 -1.36898 0.446654 0
M  V30 4001 H 370.524 -4.0397 -1.19943 0
M  V30 4002 H 369.248 -2.85734 -1.58189 0
M  V30 4003 H 367.907 -3.64409 0.400184 0
M  V30 4004 H 367.555 -4.67746 -1.84994 0
M  V30 4005 H 367.255 -5.85081 -0.543464 0
M  V30 4006 H 368.779 -5.9257 -1.47288 0
M  V30 4007 H 370.193 -5.67899 0.785118 0
M  V30 4008 H 368.59 -5.7925 1.56812 0
M  V30 4009 H 369.66 -4.4347 1.96118 0
M  V30 4010 N 371.003 -0.499398 -1.49478 0
M  V30 4011 C 371.951 0.293604 -2.3074 0
M  V30 4012 C 372.945 0.96427 -1.39277 0
M  V30 4013 O 374.151 0.892141 -1.56336 0
M  V30 4014 H 370.526 0.113541 -0.743379 0
M  V30 4015 H 372.497 -0.411772 -2.95545 0
M  V30 4016 C 371.246 1.3462 -3.20582 0
M  V30 4017 H 370.569 0.83954 -3.90886 0
M  V30 4018 H 372.009 1.87308 -3.80384 0
M  V30 4019 C 370.468 2.36351 -2.40083 0
M  V30 4020 O 370.998 3.422 -2.10385 0
M  V30 4021 N 369.204 2.0878 -2.02137 0
M  V30 4022 H 368.751 1.22723 -2.26488 0
M  V30 4023 H 368.709 2.77075 -1.48583 0
M  V30 4024 N 372.481 1.55866 -0.233164 0
M  V30 4025 C 373.428 2.20796 0.67215 0
M  V30 4026 C 374.398 1.16731 1.18166 0
M  V30 4027 O 375.583 1.45129 1.23864 0
M  V30 4028 C 372.723 2.90072 1.86955 0
M  V30 4029 C 371.836 4.08759 1.39786 0
M  V30 4030 C 370.971 4.65787 2.55374 0
M  V30 4031 C 370.01 5.76752 2.04998 0
M  V30 4032 N 369.147 6.28021 3.13901 0
M  V30 4033 H 373.987 2.9779 0.111749 0
M  V30 4034 H 371.524 1.47036 0.0434007 0
M  V30 4035 H 373.482 3.28428 2.57276 0
M  V30 4036 H 372.112 2.15575 2.40265 0
M  V30 4037 H 371.164 3.7581 0.589173 0
M  V30 4038 H 372.476 4.88906 0.98856 0
M  V30 4039 H 371.63 5.06646 3.33758 0
M  V30 4040 H 370.369 3.84828 2.99598 0
M  V30 4041 H 369.374 5.35383 1.25079 0
M  V30 4042 H 370.599 6.59553 1.61759 0
M  V30 4043 H 368.545 5.49971 3.57586 0
M  V30 4044 H 368.462 7.03323 2.7726 0
M  V30 4045 H 369.73 6.73538 3.92386 0
M  V30 4046 N 373.959 -0.0401083 1.57549 0
M  V30 4047 C 374.922 -1.02871 2.04817 0
M  V30 4048 C 375.922 -1.29708 0.950388 0
M  V30 4049 O 377.112 -1.24897 1.21435 0
M  V30 4050 C 374.244 -2.36443 2.45576 0
M  V30 4051 H 375.437 -0.620631 2.93408 0
M  V30 4052 H 372.99 -0.286667 1.53649 0
M  V30 4053 H 373.725 -2.82021 1.60108 0
M  V30 4054 H 373.51 -2.18296 3.25713 0
M  V30 4055 H 375 -3.07441 2.82612 0
M  V30 4056 N 375.437 -1.54477 -0.31217 0
M  V30 4057 C 376.683 -1.73483 -1.0503 0
M  V30 4058 C 377.016 -0.513125 -1.87298 0
M  V30 4059 O 376.291 0.489864 -1.8823 0
M  V30 4060 C 376.574 -3.01723 -1.96558 0
M  V30 4061 C 376.427 -4.3417 -1.17545 0
M  V30 4062 C 377.746 -3.25772 -2.95907 0
M  V30 4063 H 374.865 -0.631222 -0.380432 0
M  V30 4064 H 377.507 -1.87184 -0.325932 0
M  V30 4065 H 375.657 -2.90174 -2.58324 0
M  V30 4066 H 377.329 -4.5762 -0.581513 0
M  V30 4067 H 375.572 -4.31159 -0.477925 0
M  V30 4068 H 376.243 -5.20143 -1.84811 0
M  V30 4069 H 378.719 -3.36857 -2.44267 0
M  V30 4070 H 377.595 -4.16838 -3.57123 0
M  V30 4071 H 377.856 -2.43537 -3.68974 0
M  V30 4072 N 376.915 0.57481 -1.46744 0
M  V30 4073 C 377.825 1.711 -1.60505 0
M  V30 4074 C 378.841 1.67008 -0.488307 0
M  V30 4075 O 380.017 1.86774 -0.753495 0
M  V30 4076 C 377.082 3.07608 -1.59932 0
M  V30 4077 C 376.143 3.22904 -2.82898 0
M  V30 4078 C 375.376 4.529 -2.82343 0
M  V30 4079 O 375.599 5.37278 -1.91542 0
M  V30 4080 O 374.533 4.71611 -3.73987 0
M  V30 4081 H 378.359 1.62436 -2.56609 0
M  V30 4082 H 375.944 0.742779 -1.29627 0
M  V30 4083 H 377.826 3.88877 -1.62336 0
M  V30 4084 H 376.501 3.16692 -0.669898 0
M  V30 4085 H 375.408 2.41099 -2.86046 0
M  V30 4086 H 376.741 3.18715 -3.75076 0
M  V30 4087 N 378.394 1.34581 0.820102 0
M  V30 4088 C 379.624 1.29991 1.6058 0
M  V30 4089 C 380.032 -0.127588 1.88769 0
M  V30 4090 O 379.375 -1.08595 1.48165 0
M  V30 4091 C 379.437 2.02548 2.9701 0
M  V30 4092 C 379.101 3.51794 2.91701 0
M  V30 4093 C 380.098 4.46647 2.66087 0
M  V30 4094 C 377.783 3.94249 3.11245 0
M  V30 4095 C 379.777 5.81929 2.60071 0
M  V30 4096 C 377.464 5.2963 3.04853 0
M  V30 4097 C 378.462 6.23282 2.793 0
M  V30 4098 O 378.15 7.56181 2.72847 0
M  V30 4099 H 377.882 0.448539 0.505756 0
M  V30 4100 H 380.436 1.77811 1.02822 0
M  V30 4101 H 378.666 1.49345 3.56697 0
M  V30 4102 H 380.355 1.91211 3.58041 0
M  V30 4103 H 381.121 4.15168 2.5072 0
M  V30 4104 H 377 3.21749 3.30149 0
M  V30 4105 H 380.544 6.54999 2.40046 0
M  V30 4106 H 376.441 5.60727 3.19774 0
M  V30 4107 H 377.209 7.6595 2.88553 0
M  V30 4108 N 379.872 -1.04064 1.18357 0
M  V30 4109 C 380.822 -2.10393 0.878561 0
M  V30 4110 C 381.806 -1.60183 -0.151713 0
M  V30 4111 O 382.998 -1.76923 0.0523303 0
M  V30 4112 C 380.127 -3.4089 0.406096 0
M  V30 4113 C 379.213 -3.97866 1.46844 0
M  V30 4114 N 379.604 -4.28657 2.68489 0
M  V30 4115 C 377.902 -4.2574 1.32896 0
M  V30 4116 C 378.603 -4.74253 3.36836 0
M  V30 4117 N 377.579 -4.75068 2.64219 0
M  V30 4118 H 381.381 -2.32076 1.80327 0
M  V30 4119 H 378.895 -1.21818 1.07397 0
M  V30 4120 H 380.892 -4.16557 0.169088 0
M  V30 4121 H 379.552 -3.20633 -0.512275 0
M  V30 4122 H 380.563 -4.18304 3.05356 0
M  V30 4123 H 377.24 -4.1481 0.473134 0
M  V30 4124 H 378.63 -5.07096 4.40798 0
M  V30 4125 N 381.35 -0.985608 -1.22978 0
M  V30 4126 C 382.282 -0.488154 -2.23941 0
M  V30 4127 C 383.295 0.41282 -1.57479 0
M  V30 4128 O 384.484 0.216121 -1.77187 0
M  V30 4129 C 381.584 0.312611 -3.37455 0
M  V30 4130 C 380.757 -0.582741 -4.33501 0
M  V30 4131 C 379.816 0.165064 -5.25941 0
M  V30 4132 O 378.842 -0.447077 -5.67442 0
M  V30 4133 N 380.044 1.44953 -5.62111 0
M  V30 4134 H 382.809 -1.3563 -2.67254 0
M  V30 4135 H 380.37 -0.859477 -1.37203 0
M  V30 4136 H 382.362 0.821357 -3.96277 0
M  V30 4137 H 380.932 1.0818 -2.93285 0
M  V30 4138 H 380.152 -1.27225 -3.73105 0
M  V30 4139 H 381.44 -1.19275 -4.94622 0
M  V30 4140 H 380.838 1.9683 -5.30353 0
M  V30 4141 H 379.395 1.90361 -6.23383 0
M  V30 4142 N 382.828 1.3818 -0.7579 0
M  V30 4143 C 383.791 2.28764 -0.141286 0
M  V30 4144 C 384.791 1.47388 0.642907 0
M  V30 4145 O 385.981 1.67781 0.468536 0
M  V30 4146 C 383.113 3.31184 0.808069 0
M  V30 4147 H 384.306 2.848 -0.939633 0
M  V30 4148 H 381.859 1.47212 -0.525191 0
M  V30 4149 H 382.594 2.80247 1.63193 0
M  V30 4150 H 382.379 3.91314 0.248104 0
M  V30 4151 H 383.869 3.98909 1.23536 0
M  V30 4152 N 384.306 0.507319 1.49211 0
M  V30 4153 C 385.253 -0.267728 2.29242 0
M  V30 4154 C 386.223 -0.954609 1.35928 0
M  V30 4155 O 387.408 -0.960046 1.64887 0
M  V30 4156 C 384.548 -1.32243 3.18756 0
M  V30 4157 C 383.661 -0.64669 4.27132 0
M  V30 4158 C 382.796 -1.68238 5.03855 0
M  V30 4159 C 381.835 -0.98885 6.0406 0
M  V30 4160 N 380.972 -1.96903 6.73924 0
M  V30 4161 H 385.812 0.420968 2.95012 0
M  V30 4162 H 383.349 0.219443 1.45454 0
M  V30 4163 H 385.307 -1.94599 3.69036 0
M  V30 4164 H 383.937 -1.97981 2.54958 0
M  V30 4165 H 382.989 0.0902926 3.80293 0
M  V30 4166 H 384.301 -0.101058 4.98698 0
M  V30 4167 H 383.455 -2.38081 5.58034 0
M  V30 4168 H 382.194 -2.26187 4.32077 0
M  V30 4169 H 381.199 -0.276222 5.49106 0
M  V30 4170 H 382.424 -0.415767 6.77826 0
M  V30 4171 H 380.37 -2.53803 6.04913 0
M  V30 4172 H 380.287 -1.47423 7.41487 0
M  V30 4173 H 381.555 -2.66015 7.32705 0
M  V30 4174 N 385.784 -1.5574 0.241426 0
M  V30 4175 C 386.747 -2.19877 -0.647063 0
M  V30 4176 C 387.747 -1.16642 -1.10686 0
M  V30 4177 O 388.937 -1.41757 -1.01245 0
M  V30 4178 C 386.069 -2.83797 -1.88871 0
M  V30 4179 H 387.262 -2.99772 -0.087574 0
M  V30 4180 H 384.815 -1.56298 -0.00813574 0
M  V30 4181 H 385.55 -2.07824 -2.48957 0
M  V30 4182 H 385.335 -3.59414 -1.56728 0
M  V30 4183 H 386.825 -3.32898 -2.52129 0
M  V30 4184 N 387.262 0.0317525 -1.57568 0
M  V30 4185 C 388.51 0.721676 -1.88776 0
M  V30 4186 C 388.831 1.76039 -0.838772 0
M  V30 4187 O 388.101 1.95482 0.127935 0
M  V30 4188 H 386.681 0.269534 -0.696678 0
M  V30 4189 H 389.343 -0.00165879 -1.949 0
M  V30 4190 H 388.439 1.21293 -2.87566 0
M  V30 4191 N 388.74 1.54641 0.303973 0
M  V30 4192 C 389.968 1.77768 1.05858 0
M  V30 4193 C 390.383 0.535722 1.8104 0
M  V30 4194 O 389.74 -0.494337 1.75677 0
M  V30 4195 C 389.791 2.9834 2.04146 0
M  V30 4196 O 389.512 4.17736 1.32015 0
M  V30 4197 C 391.013 3.33832 2.91669 0
M  V30 4198 H 388.233 0.592961 0.314067 0
M  V30 4199 H 390.777 2.01583 0.344149 0
M  V30 4200 H 388.932 2.76742 2.71096 0
M  V30 4201 H 389.346 4.85693 1.97998 0
M  V30 4202 H 390.82 4.21448 3.56491 0
M  V30 4203 H 391.297 2.51857 3.59812 0
M  V30 4204 H 391.903 3.57579 2.30254 0
M  V30 4205 N 390.218 -0.567019 1.47046 0
M  V30 4206 C 391.464 -1.32658 1.53394 0
M  V30 4207 C 391.797 -1.93254 0.19148 0
M  V30 4208 O 391.072 -1.77338 -0.798844 0
M  V30 4209 C 391.355 -2.44412 2.64452 0
M  V30 4210 C 391.208 -1.88749 4.08282 0
M  V30 4211 C 392.527 -3.46387 2.71485 0
M  V30 4212 H 389.646 -0.48098 0.558415 0
M  V30 4213 H 392.288 -0.635481 1.79058 0
M  V30 4214 H 390.438 -3.03363 2.427 0
M  V30 4215 H 392.11 -1.34134 4.41368 0
M  V30 4216 H 390.353 -1.19481 4.17021 0
M  V30 4217 H 391.024 -2.69491 4.81745 0
M  V30 4218 H 393.5 -2.9734 2.91081 0
M  V30 4219 H 392.376 -4.2202 3.50985 0
M  V30 4220 H 392.637 -4.04616 1.78153 0
M  V30 4221 N 391.696 -1.35014 -0.812953 0
M  V30 4222 C 392.942 -1.2812 -1.57204 0
M  V30 4223 C 393.275 0.145869 -1.93651 0
M  V30 4224 O 392.55 1.0937 -1.60836 0
M  V30 4225 C 392.833 -2.18162 -2.86492 0
M  V30 4226 C 392.686 -3.69454 -2.56561 0
M  V30 4227 C 394.005 -2.07439 -3.88145 0
M  V30 4228 H 391.124 -0.466746 -0.570366 0
M  V30 4229 H 393.766 -1.65357 -0.935783 0
M  V30 4230 H 391.916 -1.86535 -3.40789 0
M  V30 4231 H 393.588 -4.11493 -2.08497 0
M  V30 4232 H 391.831 -3.9005 -1.89851 0
M  V30 4233 H 392.502 -4.27835 -3.48799 0
M  V30 4234 H 394.978 -2.35228 -3.4323 0
M  V30 4235 H 393.854 -2.7265 -4.76396 0
M  V30 4236 H 394.115 -1.05439 -4.29343 0
M  V30 4237 N 393.175 1.03435 -1.18907 0
M  V30 4238 C 394.421 1.77005 -0.989798 0
M  V30 4239 C 394.754 1.88205 0.478816 0
M  V30 4240 O 394.029 1.39481 1.35556 0
M  V30 4241 C 394.312 3.19925 -1.65287 0
M  V30 4242 C 394.165 3.1663 -3.19477 0
M  V30 4243 C 395.484 4.18189 -1.37134 0
M  V30 4244 H 392.603 0.642538 -0.360991 0
M  V30 4245 H 395.245 1.20784 -1.46667 0
M  V30 4246 H 393.395 3.67929 -1.24741 0
M  V30 4247 H 395.067 2.76567 -3.692 0
M  V30 4248 H 393.31 2.54491 -3.51307 0
M  V30 4249 H 393.981 4.1758 -3.61013 0
M  V30 4250 H 396.457 3.78761 -1.72276 0
M  V30 4251 H 395.333 5.16394 -1.86087 0
M  V30 4252 H 395.594 4.41112 -0.295424 0
M  V30 4253 N 394.653 0.992116 1.22453 0
M  V30 4254 C 395.583 0.561677 2.26644 0
M  V30 4255 C 396.564 -0.411055 1.65059 0
M  V30 4256 O 397.749 -0.301861 1.9184 0
M  V30 4257 C 394.879 -0.125247 3.47074 0
M  V30 4258 C 393.833 0.765948 4.21091 0
M  V30 4259 C 393.159 -0.0538484 5.34673 0
M  V30 4260 C 394.459 2.06242 4.79856 0
M  V30 4261 H 396.153 1.43259 2.62902 0
M  V30 4262 H 393.699 0.690283 1.26377 0
M  V30 4263 H 395.652 -0.437764 4.1912 0
M  V30 4264 H 394.376 -1.03069 3.0991 0
M  V30 4265 H 393.035 1.0621 3.50878 0
M  V30 4266 H 392.683 -0.960188 4.9375 0
M  V30 4267 H 392.383 0.539415 5.85119 0
M  V30 4268 H 393.907 -0.360477 6.09535 0
M  V30 4269 H 395.321 1.8139 5.43848 0
M  V30 4270 H 393.718 2.60444 5.40638 0
M  V30 4271 H 394.788 2.74167 3.99951 0
M  V30 4272 N 396.131 -1.37776 0.765217 0
M  V30 4273 C 397.408 -1.93975 0.251596 0
M  V30 4274 C 397.788 -1.69949 -1.25222 0
M  V30 4275 O 397.136 -1.04457 -2.03226 0
M  V30 4276 C 397.346 -3.43487 0.617895 0
M  V30 4277 C 398.694 -4.20564 0.584029 0
M  V30 4278 O 399.718 -3.5182 0.556888 0
M  V30 4279 O 398.577 -5.43138 0.605291 0
M  V30 4280 H 395.671 -0.82509 0.0561806 0
M  V30 4281 H 398.217 -1.47101 0.846128 0
M  V30 4282 H 396.989 -3.5453 1.65602 0
M  V30 4283 H 396.612 -3.976 -0.00403411 0
M  V30 4284 N 397.609 -0.515225 -1.4894 0
M  V30 4285 C 398.572 0.244681 -2.2789 0
M  V30 4286 C 399.572 0.881166 -1.34507 0
M  V30 4287 O 400.762 0.743497 -1.57537 0
M  V30 4288 C 397.894 1.35247 -3.12923 0
M  V30 4289 H 399.087 -0.448289 -2.96531 0
M  V30 4290 H 396.64 -0.270656 -1.53939 0
M  V30 4291 H 397.375 2.07916 -2.48881 0
M  V30 4292 H 397.16 0.901374 -3.81599 0
M  V30 4293 H 398.65 1.88737 -3.72516 0
M  V30 4294 N 399.087 1.5561 -0.249682 0
M  V30 4295 C 400.503 1.59254 0.105103 0
M  V30 4296 C 400.703 1.26685 1.56694 0
M  V30 4297 O 399.759 1.0155 2.31179 0
M  V30 4298 C 401.072 2.99687 -0.246592 0
M  V30 4299 C 402.62 3.12416 -0.191118 0
M  V30 4300 C 403.095 4.55074 -0.516885 0
M  V30 4301 N 404.586 4.60835 -0.467489 0
M  V30 4302 C 405.321 5.69201 -0.69268 0
M  V30 4303 N 404.817 6.85817 -0.981146 0
M  V30 4304 N 406.61 5.58635 -0.623198 0
M  V30 4305 H 398.761 1.75049 -1.20298 0
M  V30 4306 H 401.024 0.815003 -0.484225 0
M  V30 4307 H 400.73 3.28267 -1.26228 0
M  V30 4308 H 400.604 3.74798 0.424962 0
M  V30 4309 H 402.991 2.83615 0.815247 0
M  V30 4310 H 403.072 2.39573 -0.896563 0
M  V30 4311 H 402.716 4.84596 -1.52082 0
M  V30 4312 H 402.646 5.26181 0.210068 0
M  V30 4313 H 405.137 3.7705 -0.253373 0
M  V30 4314 H 405.45 7.64341 -1.14032 0
M  V30 4315 H 403.795 6.87494 -1.01865 0
M  V30 4316 H 406.986 4.66406 -0.397863 0
M  V30 4317 H 407.159 6.43017 -0.802093 0
M  V30 4318 N 400.565 -0.0233959 1.57583 0
M  V30 4319 C 401.793 -0.724682 1.93794 0
M  V30 4320 C 402.208 -1.68588 0.849912 0
M  V30 4321 O 401.565 -1.81676 -0.173204 0
M  V30 4322 C 401.616 -1.47684 3.29957 0
M  V30 4323 O 401.337 -0.554222 4.3458 0
M  V30 4324 C 402.838 -2.27477 3.80485 0
M  V30 4325 H 400.058 -0.203317 0.639455 0
M  V30 4326 H 402.602 0.0207653 2.04489 0
M  V30 4327 H 400.757 -2.17412 3.20641 0
M  V30 4328 H 401.171 -1.08232 5.13212 0
M  V30 4329 H 402.645 -2.7564 4.78254 0
M  V30 4330 H 403.122 -3.09144 3.11972 0
M  V30 4331 H 403.728 -1.62813 3.92902 0
M  V30 4332 N 402.043 -1.548 -0.295768 0
M  V30 4333 C 403.291 -1.73985 -1.02828 0
M  V30 4334 C 403.612 -0.531406 -1.87619 0
M  V30 4335 O 402.882 0.454221 -1.90561 0
M  V30 4336 H 401.462 -0.641556 -0.382642 0
M  V30 4337 H 404.124 -1.92163 -0.325489 0
M  V30 4338 H 403.22 -2.63129 -1.67838 0
M  V30 4339 N 403.521 0.559213 -1.47345 0
M  V30 4340 C 404.431 1.69388 -1.62311 0
M  V30 4341 C 405.447 1.6648 -0.505993 0
M  V30 4342 O 406.623 1.85964 -0.773262 0
M  V30 4343 C 403.688 3.05894 -1.63185 0
M  V30 4344 C 402.749 3.19885 -2.86307 0
M  V30 4345 C 401.982 4.49879 -2.87131 0
M  V30 4346 O 402.205 5.35217 -1.97229 0
M  V30 4347 O 401.139 4.67618 -3.78968 0
M  V30 4348 H 404.965 1.59706 -2.58317 0
M  V30 4349 H 402.55 0.728989 -1.30407 0
M  V30 4350 H 404.432 3.87133 -1.66451 0
M  V30 4351 H 403.107 3.15964 -0.70345 0
M  V30 4352 H 402.014 2.38052 -2.88587 0
M  V30 4353 H 403.347 3.14718 -3.78435 0
M  V30 4354 N 404.999 1.35443 0.805782 0
M  V30 4355 C 406.248 1.28097 1.55801 0
M  V30 4356 C 406.561 -0.142428 1.95081 0
M  V30 4357 O 407.767 -0.33817 2.69386 0
M  V30 4358 C 406.223 2.24653 2.81174 0
M  V30 4359 C 405.831 3.72342 2.49129 0
M  V30 4360 C 407.575 2.2625 3.59181 0
M  V30 4361 C 405.482 4.60719 3.70799 0
M  V30 4362 H 404.412 0.475937 0.584808 0
M  V30 4363 H 407.063 1.60712 0.885661 0
M  V30 4364 H 405.445 1.85011 3.50124 0
M  V30 4365 H 406.619 4.20624 1.88181 0
M  V30 4366 H 404.934 3.73361 1.84366 0
M  V30 4367 H 407.531 2.89495 4.49552 0
M  V30 4368 H 407.874 1.26647 3.96568 0
M  V30 4369 H 408.407 2.64426 2.97193 0
M  V30 4370 H 405.146 5.61324 3.3852 0
M  V30 4371 H 404.666 4.17163 4.3097 0
M  V30 4372 H 406.345 4.76182 4.38018 0
M  V30 4373 N 406.477 -1.02803 1.19454 0
M  V30 4374 C 407.407 -2.12999 0.956758 0
M  V30 4375 C 408.388 -1.69743 -0.110188 0
M  V30 4376 O 409.573 -1.94148 0.0450038 0
M  V30 4377 C 406.703 -3.43746 0.495553 0
M  V30 4378 C 405.657 -4.00688 1.50443 0
M  V30 4379 C 404.983 -5.27067 0.900275 0
M  V30 4380 C 406.283 -4.35397 2.8849 0
M  V30 4381 H 407.977 -2.33148 1.87836 0
M  V30 4382 H 405.523 -1.12045 0.904539 0
M  V30 4383 H 407.476 -4.2021 0.316493 0
M  V30 4384 H 406.2 -3.23321 -0.461646 0
M  V30 4385 H 404.859 -3.2632 1.67065 0
M  V30 4386 H 404.507 -5.02959 -0.064503 0
M  V30 4387 H 404.207 -5.66127 1.57397 0
M  V30 4388 H 405.731 -6.06196 0.73203 0
M  V30 4389 H 407.145 -5.02795 2.75446 0
M  V30 4390 H 405.542 -4.85541 3.52661 0
M  V30 4391 H 406.612 -3.44662 3.41081 0
M  V30 4392 N 407.956 -0.998596 -1.21925 0
M  V30 4393 C 408.919 -0.558679 -2.22287 0
M  V30 4394 C 409.919 0.361525 -1.56683 0
M  V30 4395 O 411.109 0.152695 -1.73529 0
M  V30 4396 C 408.241 0.18661 -3.40389 0
M  V30 4397 H 409.434 -1.4463 -2.62721 0
M  V30 4398 H 406.987 -0.786413 -1.35075 0
M  V30 4399 H 407.722 1.08996 -3.05435 0
M  V30 4400 H 407.507 -0.474188 -3.89222 0
M  V30 4401 H 408.997 0.482367 -4.14805 0
M  V30 4402 N 409.434 1.37368 -0.772513 0
M  V30 4403 C 410.364 2.32856 -0.173304 0
M  V30 4404 C 411.345 1.55818 0.682262 0
M  V30 4405 O 412.53 1.84052 0.619566 0
M  V30 4406 C 409.66 3.40048 0.706007 0
M  V30 4407 C 408.614 4.27973 -0.0483144 0
M  V30 4408 C 407.94 5.26184 0.950491 0
M  V30 4409 C 409.24 5.07665 -1.22776 0
M  V30 4410 H 410.934 2.83217 -0.971002 0
M  V30 4411 H 408.48 1.3617 -0.468377 0
M  V30 4412 H 410.433 4.05827 1.13501 0
M  V30 4413 H 409.157 2.88214 1.53623 0
M  V30 4414 H 407.816 3.63726 -0.458107 0
M  V30 4415 H 407.464 4.7063 1.77529 0
M  V30 4416 H 407.164 5.85872 0.450314 0
M  V30 4417 H 408.688 5.94838 1.37842 0
M  V30 4418 H 410.102 5.66578 -0.875366 0
M  V30 4419 H 408.499 5.76681 -1.66007 0
M  V30 4420 H 409.569 4.40294 -2.03149 0
M  V30 4421 N 410.912 0.523116 1.48665 0
M  V30 4422 C 411.875 -0.232592 2.28017 0
M  V30 4423 C 412.875 -0.874021 1.34972 0
M  V30 4424 O 414.065 -0.735132 1.57929 0
M  V30 4425 C 411.197 -1.33586 3.13636 0
M  V30 4426 H 412.39 0.464008 2.96289 0
M  V30 4427 H 409.943 0.278816 1.53793 0
M  V30 4428 H 410.678 -2.06593 2.4998 0
M  V30 4429 H 410.463 -0.881125 3.82071 0
M  V30 4430 H 411.953 -1.86759 3.73511 0
M  V30 4431 N 412.39 -1.55475 0.257931 0
M  V30 4432 C 413.338 -2.23244 -0.653076 0
M  V30 4433 C 414.332 -1.22366 -1.17144 0
M  V30 4434 O 415.538 -1.40347 -1.12706 0
M  V30 4435 H 411.913 -0.716247 -0.229117 0
M  V30 4436 H 413.884 -2.98343 -0.0584788 0
M  V30 4437 C 412.633 -2.95401 -1.83395 0
M  V30 4438 H 411.956 -3.72802 -1.44424 0
M  V30 4439 H 413.396 -3.46165 -2.44838 0
M  V30 4440 C 411.855 -1.99895 -2.71189 0
M  V30 4441 O 412.385 -1.53909 -3.71046 0
M  V30 4442 N 410.591 -1.6676 -2.3799 0
M  V30 4443 H 410.138 -2.04352 -1.56837 0
M  V30 4444 H 410.096 -1.03127 -2.97005 0
M  V30 4445 N 413.868 0.0150385 -1.57593 0
M  V30 4446 C 415.096 0.714395 -1.94175 0
M  V30 4447 C 415.511 1.68135 -0.858841 0
M  V30 4448 O 414.868 1.81766 0.163567 0
M  V30 4449 C 414.919 1.45933 -3.30735 0
M  V30 4450 O 414.64 0.531167 -4.34868 0
M  V30 4451 C 416.141 2.25456 -3.81686 0
M  V30 4452 H 413.361 0.199923 -0.640525 0
M  V30 4453 H 415.905 -0.0316096 -2.04476 0
M  V30 4454 H 414.06 2.15709 -3.21789 0
M  V30 4455 H 414.474 1.05509 -5.13778 0
M  V30 4456 H 415.948 2.731 -4.79709 0
M  V30 4457 H 416.425 3.07485 -3.13607 0
M  V30 4458 H 417.031 1.60727 -3.9376 0
M  V30 4459 N 415.346 1.54954 0.287554 0
M  V30 4460 C 416.757 1.65732 0.859634 0
M  V30 4461 C 417.108 0.574767 1.87592 0
M  V30 4462 O 416.233 -0.286299 2.14498 0
M  V30 4463 C 416.828 3.00438 1.56597 0
M  V30 4464 C 415.387 3.13292 2.08627 0
M  V30 4465 C 414.534 2.61473 0.923416 0
M  V30 4466 H 417.485 1.5857 0.0642338 0
M  V30 4467 H 417.506 2.92613 2.43224 0
M  V30 4468 H 417.018 3.79207 0.826053 0
M  V30 4469 H 415.119 2.39268 2.85625 0
M  V30 4470 H 415.232 4.19647 2.31157 0
M  V30 4471 H 413.596 2.18264 1.31275 0
M  V30 4472 H 414.379 3.42733 0.197241 0
M  V30 4473 N 416.824 -0.551391 1.4764 0
M  V30 4474 C 417.787 -1.64007 1.60107 0
M  V30 4475 C 418.787 -1.53601 0.47576 0
M  V30 4476 O 419.977 -1.57655 0.740988 0
M  V30 4477 C 417.109 -3.03569 1.55108 0
M  V30 4478 H 418.302 -1.543 2.57161 0
M  V30 4479 H 415.855 -0.771776 1.35917 0
M  V30 4480 H 416.59 -3.18804 0.594519 0
M  V30 4481 H 416.375 -3.12532 2.36783 0
M  V30 4482 H 417.865 -3.82762 1.66982 0
M  V30 4483 N 418.302 -1.35869 -0.798587 0
M  V30 4484 C 419.532 -1.32529 -1.58491 0
M  V30 4485 C 419.94 0.0975405 -1.88948 0
M  V30 4486 O 419.283 1.06224 -1.49874 0
M  V30 4487 C 419.345 -2.07247 -2.9375 0
M  V30 4488 C 419.009 -3.56391 -2.86068 0
M  V30 4489 C 420.006 -4.50824 -2.58947 0
M  V30 4490 C 417.691 -3.9915 -3.04933 0
M  V30 4491 C 419.685 -5.85993 -2.5078 0
M  V30 4492 C 417.372 -5.34413 -2.96389 0
M  V30 4493 C 418.37 -6.27646 -2.69349 0
M  V30 4494 O 418.058 -7.60426 -2.60782 0
M  V30 4495 H 417.79 -0.456529 -0.498556 0
M  V30 4496 H 420.344 -1.79425 -0.999799 0
M  V30 4497 H 418.574 -1.55001 -3.54276 0
M  V30 4498 H 420.263 -1.96883 -3.54954 0
M  V30 4499 H 421.029 -4.19104 -2.44084 0
M  V30 4500 H 416.908 -3.26961 -3.24989 0
M  V30 4501 H 420.452 -6.58735 -2.29595 0
M  V30 4502 H 416.349 -5.65743 -3.10813 0
M  V30 4503 H 417.117 -7.70444 -2.76331 0
M  V30 4504 N 419.78 1.02168 -1.19998 0
M  V30 4505 C 421.057 1.72816 -0.916191 0
M  V30 4506 C 421.437 2.03081 0.576325 0
M  V30 4507 O 420.785 1.69122 1.53656 0
M  V30 4508 C 420.995 2.9997 -1.78378 0
M  V30 4509 C 422.343 3.73336 -2.02251 0
M  V30 4510 O 423.367 3.09914 -1.75589 0
M  V30 4511 O 422.226 4.87371 -2.47249 0
M  V30 4512 H 419.32 0.752924 -0.342103 0
M  V30 4513 H 421.866 1.08062 -1.30846 0
M  V30 4514 H 420.638 2.73888 -2.79466 0
M  V30 4515 H 420.261 3.72464 -1.39126 0
M  V30 4516 N 421.258 1.00505 1.21394 0
M  V30 4517 C 422.669 0.721082 1.72213 0
M  V30 4518 C 423.02 -0.761263 1.80829 0
M  V30 4519 O 422.145 -1.59464 1.46288 0
M  V30 4520 C 422.74 1.30228 3.12772 0
M  V30 4521 C 421.299 1.06743 3.60947 0
M  V30 4522 C 420.446 1.41507 2.38477 0
M  V30 4523 H 423.397 1.17594 1.06571 0
M  V30 4524 H 423.418 0.686955 3.74247 0
M  V30 4525 H 422.93 2.38115 3.06468 0
M  V30 4526 H 421.031 0.00572162 3.726 0
M  V30 4527 H 421.144 1.73936 4.46411 0
M  V30 4528 H 419.508 0.833852 2.40664 0
M  V30 4529 H 420.291 2.50424 2.34824 0
M  V30 4530 N 422.737 -1.36956 0.779787 0
M  V30 4531 C 423.685 -2.32053 0.15942 0
M  V30 4532 C 424.679 -1.55333 -0.675878 0
M  V30 4533 O 425.885 -1.70668 -0.57204 0
M  V30 4534 H 422.26 -0.751286 0.0327707 0
M  V30 4535 H 424.231 -2.8195 0.977078 0
M  V30 4536 C 422.98 -3.40602 -0.698977 0
M  V30 4537 H 422.303 -3.99746 -0.0655966 0
M  V30 4538 H 423.743 -4.09486 -1.09989 0
M  V30 4539 C 422.202 -2.81359 -1.85307 0
M  V30 4540 O 422.732 -2.72751 -2.94906 0
M  V30 4541 N 420.938 -2.38786 -1.65619 0
M  V30 4542 H 420.485 -2.45987 -0.764725 0
M  V30 4543 H 420.443 -1.99493 -2.43002 0
M  V30 4544 N 424.215 -0.530993 -1.48385 0
M  V30 4545 C 425.631 -0.188919 -1.58478 0
M  V30 4546 C 425.831 1.30786 -1.53288 0
M  V30 4547 O 424.887 2.08619 -1.42248 0
M  V30 4548 C 426.2 -0.792343 -2.90073 0
M  V30 4549 C 427.748 -0.76117 -3.03604 0
M  V30 4550 C 428.223 -1.34319 -4.37861 0
M  V30 4551 N 429.714 -1.3052 -4.44431 0
M  V30 4552 C 430.449 -1.72543 -5.46824 0
M  V30 4553 N 429.945 -2.22299 -6.56167 0
M  V30 4554 N 431.738 -1.63773 -5.37712 0
M  V30 4555 H 423.889 -1.50377 -1.50002 0
M  V30 4556 H 426.152 -0.625559 -0.712306 0
M  V30 4557 H 425.858 -1.84323 -2.99529 0
M  V30 4558 H 425.732 -0.270026 -3.76232 0
M  V30 4559 H 428.119 0.280957 -2.93759 0
M  V30 4560 H 428.2 -1.32097 -2.19053 0
M  V30 4561 H 427.844 -2.38425 -4.4846 0
M  V30 4562 H 427.774 -0.759064 -5.21101 0
M  V30 4563 H 430.265 -0.940973 -3.65997 0
M  V30 4564 H 430.578 -2.52356 -7.30436 0
M  V30 4565 H 428.923 -2.26293 -6.57127 0
M  V30 4566 H 432.114 -1.24698 -4.51185 0
M  V30 4567 H 432.287 -1.96844 -6.17379 0
M  V30 4568 N 425.693 1.55336 -0.266172 0
M  V30 4569 C 427.104 1.85236 0.233315 0
M  V30 4570 C 427.455 1.18816 1.56132 0
M  V30 4571 O 426.58 0.473307 2.11161 0
M  V30 4572 C 427.175 3.36059 0.430113 0
M  V30 4573 C 425.734 3.66116 0.873842 0
M  V30 4574 C 424.881 2.77274 -0.0380016 0
M  V30 4575 H 427.832 1.51004 -0.488214 0
M  V30 4576 H 427.853 3.58681 1.26998 0
M  V30 4577 H 427.365 3.84373 -0.536588 0
M  V30 4578 H 425.466 3.23295 1.85233 0
M  V30 4579 H 425.579 4.73699 0.717358 0
M  V30 4580 H 423.943 2.50198 0.476759 0
M  V30 4581 H 424.726 3.284 -1.00042 0
M  V30 4582 N 427.171 -0.0066808 1.57599 0
M  V30 4583 C 428.419 -0.691552 1.899 0
M  V30 4584 C 428.74 -1.74682 0.866672 0
M  V30 4585 O 428.01 -1.95661 -0.0968189 0
M  V30 4586 H 426.59 -0.258416 0.700878 0
M  V30 4587 H 429.252 0.0326655 1.94873 0
M  V30 4588 H 428.348 -1.16702 2.8946 0
M  V30 4589 N 428.649 -1.55105 -0.279332 0
M  V30 4590 C 430.065 -1.46803 -0.626187 0
M  V30 4591 C 430.265 -0.676939 -1.89789 0
M  V30 4592 O 429.321 -0.19326 -2.51759 0
M  V30 4593 C 430.634 -2.90962 -0.759034 0
M  V30 4594 C 432.182 -3.01138 -0.853504 0
M  V30 4595 C 432.657 -4.46539 -1.01818 0
M  V30 4596 N 434.148 -4.50341 -1.08386 0
M  V30 4597 C 434.883 -5.60053 -1.22996 0
M  V30 4598 N 434.379 -6.79645 -1.34366 0
M  V30 4599 N 436.172 -5.47783 -1.26056 0
M  V30 4600 H 428.323 -2.04996 0.555921 0
M  V30 4601 H 430.586 -0.929325 0.187239 0
M  V30 4602 H 430.292 -3.51544 0.104852 0
M  V30 4603 H 430.166 -3.39619 -1.64131 0
M  V30 4604 H 432.553 -2.40658 -1.70786 0
M  V30 4605 H 432.634 -2.55745 0.0532466 0
M  V30 4606 H 432.278 -5.0762 -0.168504 0
M  V30 4607 H 432.208 -4.89583 -1.93948 0
M  V30 4608 H 434.699 -3.64191 -1.00864 0
M  V30 4609 H 435.012 -7.59012 -1.4533 0
M  V30 4610 H 433.357 -6.82469 -1.31382 0
M  V30 4611 H 436.548 -4.53294 -1.168 0
M  V30 4612 H 436.721 -6.33331 -1.37098 0
M  V30 4613 N 430.127 0.543554 -1.4793 0
M  V30 4614 C 431.09 1.63156 -1.60975 0
M  V30 4615 C 432.09 1.53346 -0.483899 0
M  V30 4616 O 433.28 1.5726 -0.749339 0
M  V30 4617 C 430.412 3.02743 -1.56716 0
M  V30 4618 H 431.605 1.52934 -2.57975 0
M  V30 4619 H 429.158 0.764557 -1.36324 0
M  V30 4620 H 429.893 3.18484 -0.611418 0
M  V30 4621 H 429.678 3.11272 -2.38438 0
M  V30 4622 H 431.168 3.81871 -1.6901 0
M  V30 4623 N 431.605 1.3629 0.791371 0
M  V30 4624 C 432.882 1.20962 1.53712 0
M  V30 4625 C 433.262 -0.205021 2.10102 0
M  V30 4626 O 432.61 -1.21042 1.93807 0
M  V30 4627 C 432.82 2.29002 2.63361 0
M  V30 4628 C 434.168 2.65572 3.31295 0
M  V30 4629 O 435.192 2.2803 2.73643 0
M  V30 4630 O 434.051 3.3018 4.35481 0
M  V30 4631 H 431.145 0.47086 0.679867 0
M  V30 4632 H 433.691 1.48016 0.830021 0
M  V30 4633 H 432.463 3.2382 2.19674 0
M  V30 4634 H 432.086 2.03303 3.41692 0
M  V30 4635 N 433.083 -1.0153 1.20538 0
M  V30 4636 C 434.308 -1.79283 1.04271 0
M  V30 4637 C 434.733 -1.8372 -0.403544 0
M  V30 4638 O 434.091 -1.27321 -1.2907 0
M  V30 4639 C 434.139 -3.21535 1.63241 0
M  V30 4640 O 433.243 -4.03099 0.870908 0
M  V30 4641 H 432.584 -0.55293 0.367647 0
M  V30 4642 H 435.114 -1.27696 1.59859 0
M  V30 4643 H 435.124 -3.72243 1.6703 0
M  V30 4644 H 433.799 -3.1762 2.68497 0
M  V30 4645 H 432.376 -3.61693 0.907323 0
M  V30 4646 N 434.561 -1.01147 -1.20859 0
M  V30 4647 C 435.471 -0.58686 -2.27141 0
M  V30 4648 C 436.487 0.373198 -1.69951 0
M  V30 4649 O 437.663 0.235423 -2.00019 0
M  V30 4650 C 434.728 0.0733602 -3.46622 0
M  V30 4651 C 433.789 -0.931995 -4.19061 0
M  V30 4652 C 433.022 -0.303186 -5.32838 0
M  V30 4653 O 433.245 0.898395 -5.63281 0
M  V30 4654 O 432.179 -1.01735 -5.9324 0
M  V30 4655 H 436.005 -1.47155 -2.65667 0
M  V30 4656 H 433.59 -0.780689 -1.2738 0
M  V30 4657 H 435.472 0.442333 -4.19072 0
M  V30 4658 H 434.147 0.932329 -3.09983 0
M  V30 4659 H 433.054 -1.35224 -3.48805 0
M  V30 4660 H 434.387 -1.76076 -4.59628 0
M  V30 4661 N 436.039 1.36541 -0.78704 0
M  V30 4662 C 436.971 2.28761 -0.141773 0
M  V30 4663 C 437.984 1.49365 0.647599 0
M  V30 4664 O 439.173 1.71836 0.483173 0
M  V30 4665 C 436.273 3.28771 0.822368 0
M  V30 4666 C 435.446 4.3732 0.0835594 0
M  V30 4667 C 434.505 5.17307 0.963296 0
M  V30 4668 O 433.531 5.67638 0.421419 0
M  V30 4669 N 434.733 5.33515 2.28784 0
M  V30 4670 H 437.498 2.84777 -0.933919 0
M  V30 4671 H 435.059 1.48682 -0.640735 0
M  V30 4672 H 437.051 3.79169 1.41468 0
M  V30 4673 H 435.621 2.73412 1.5154 0
M  V30 4674 H 434.841 3.88118 -0.689809 0
M  V30 4675 H 436.129 5.0701 -0.426358 0
M  V30 4676 H 435.527 4.94234 2.75226 0
M  V30 4677 H 434.084 5.87165 2.82985 0
M  V30 4678 N 437.518 0.538854 1.48102 0
M  V30 4679 C 438.934 0.19732 1.58376 0
M  V30 4680 C 439.134 -1.29971 1.5398 0
M  V30 4681 O 438.19 -2.07861 1.43352 0
M  V30 4682 C 439.503 0.807716 2.89649 0
M  V30 4683 C 441.051 0.77726 3.03196 0
M  V30 4684 C 441.526 1.36639 4.37143 0
M  V30 4685 N 443.017 1.32875 4.43732 0
M  V30 4686 C 443.752 1.7544 5.45901 0
M  V30 4687 N 443.248 2.25776 6.54979 0
M  V30 4688 N 445.041 1.66623 5.36836 0
M  V30 4689 H 437.192 1.5117 1.49202 0
M  V30 4690 H 439.455 0.629327 0.708979 0
M  V30 4691 H 439.161 1.85909 2.98548 0
M  V30 4692 H 439.035 0.289975 3.76084 0
M  V30 4693 H 441.422 -0.265374 2.93904 0
M  V30 4694 H 441.503 1.33256 2.18349 0
M  V30 4695 H 441.147 2.408 4.47189 0
M  V30 4696 H 441.077 0.786689 5.20691 0
M  V30 4697 H 443.568 0.96037 3.65493 0
M  V30 4698 H 443.881 2.56226 7.29087 0
M  V30 4699 H 442.226 2.29775 6.55918 0
M  V30 4700 H 445.417 1.27089 4.50517 0
M  V30 4701 H 445.59 2.00115 6.16326 0
M  V30 4702 N 438.996 -1.55193 0.274407 0
M  V30 4703 C 440.412 -1.59401 -0.0797543 0
M  V30 4704 C 440.612 -1.29162 -1.54659 0
M  V30 4705 O 439.668 -1.05215 -2.29534 0
M  V30 4706 C 440.981 -2.99257 0.294238 0
M  V30 4707 C 442.529 -3.12072 0.240796 0
M  V30 4708 C 443.004 -4.54194 0.589218 0
M  V30 4709 N 444.495 -4.60033 0.540744 0
M  V30 4710 C 445.23 -5.68027 0.783147 0
M  V30 4711 N 444.726 -6.8417 1.09013 0
M  V30 4712 N 446.519 -5.57572 0.711993 0
M  V30 4713 H 438.67 -1.73113 1.23067 0
M  V30 4714 H 440.933 -0.807197 0.497129 0
M  V30 4715 H 440.639 -3.26217 1.31435 0
M  V30 4716 H 440.513 -3.75427 -0.365281 0
M  V30 4717 H 442.9 -2.84877 -0.770024 0
M  V30 4718 H 442.981 -2.38117 0.934563 0
M  V30 4719 H 442.625 -4.82115 1.59772 0
M  V30 4720 H 442.555 -5.26448 -0.126331 0
M  V30 4721 H 445.046 -3.76599 0.313327 0
M  V30 4722 H 445.359 -7.6243 1.26178 0
M  V30 4723 H 443.704 -6.85787 1.12789 0
M  V30 4724 H 446.895 -4.65714 0.472014 0
M  V30 4725 H 447.068 -6.41659 0.90429 0
M  V30 4726 N 440.474 -0.00167713 -1.576 0
M  V30 4727 C 441.422 1.0074 -2.09652 0
M  V30 4728 C 442.416 1.35483 -1.01689 0
M  V30 4729 O 443.622 1.34028 -1.20152 0
M  V30 4730 H 439.997 0.342537 -0.669457 0
M  V30 4731 H 441.968 0.542841 -2.93421 0
M  V30 4732 C 440.717 2.2899 -2.61647 0
M  V30 4733 H 440.04 2.03124 -3.44355 0
M  V30 4734 H 441.48 2.9787 -3.01744 0
M  V30 4735 C 439.939 3.00085 -1.53136 0
M  V30 4736 O 440.469 3.91135 -0.91524 0
M  V30 4737 N 438.675 2.6194 -1.25841 0
M  V30 4738 H 438.222 1.8798 -1.76129 0
M  V30 4739 H 438.18 3.09822 -0.534576 0
M  V30 4740 N 441.952 1.55251 0.271103 0
M  V30 4741 C 443.368 1.47133 0.618393 0
M  V30 4742 C 443.568 0.686994 1.89427 0
M  V30 4743 O 442.624 0.206609 2.51653 0
M  V30 4744 C 443.937 2.91361 0.743593 0
M  V30 4745 C 445.485 3.01587 0.837522 0
M  V30 4746 C 445.96 4.47073 0.994483 0
M  V30 4747 N 447.451 4.50909 1.05996 0
M  V30 4748 C 448.186 5.60698 1.20024 0
M  V30 4749 N 447.682 6.80348 1.30759 0
M  V30 4750 N 449.475 5.48444 1.23149 0
M  V30 4751 H 441.626 2.04698 -0.566784 0
M  V30 4752 H 443.889 0.928319 -0.192165 0
M  V30 4753 H 443.595 3.51483 -0.123493 0
M  V30 4754 H 443.469 3.40484 1.62328 0
M  V30 4755 H 445.856 2.4156 1.69507 0
M  V30 4756 H 445.937 2.55713 -0.0668086 0
M  V30 4757 H 445.581 5.07703 0.141582 0
M  V30 4758 H 445.511 4.90605 1.91349 0
M  V30 4759 H 448.002 3.6472 0.989316 0
M  V30 4760 H 448.315 7.59772 1.41303 0
M  V30 4761 H 446.66 6.83156 1.27761 0
M  V30 4762 H 449.851 4.53907 1.14394 0
M  V30 4763 H 450.024 6.34049 1.33738 0
M  V30 4764 N 443.43 -0.535701 1.48216 0
M  V30 4765 C 444.393 -1.623 1.61838 0
M  V30 4766 C 445.393 -1.53087 0.492024 0
M  V30 4767 O 446.583 -1.5686 0.757668 0
M  V30 4768 C 443.715 -3.01907 1.58319 0
M  V30 4769 H 444.908 -1.51564 2.58783 0
M  V30 4770 H 442.461 -0.757317 1.36727 0
M  V30 4771 H 443.196 -3.18155 0.628299 0
M  V30 4772 H 442.981 -3.10003 2.40085 0
M  V30 4773 H 444.471 -3.80969 1.71033 0
M  V30 4774 N 444.908 -1.36708 -0.784132 0
M  V30 4775 C 446.154 -1.31426 -1.54451 0
M  V30 4776 C 446.487 0.10476 -1.93917 0
M  V30 4777 O 445.762 1.05934 -1.6312 0
M  V30 4778 C 446.045 -2.24189 -2.818 0
M  V30 4779 C 445.898 -3.74813 -2.48667 0
M  V30 4780 C 447.217 -2.15626 -3.83658 0
M  V30 4781 H 444.336 -0.478739 -0.560337 0
M  V30 4782 H 446.978 -1.67305 -0.900498 0
M  V30 4783 H 445.128 -1.93722 -3.36755 0
M  V30 4784 H 446.8 -4.15823 -1.99722 0
M  V30 4785 H 445.043 -3.93989 -1.81535 0
M  V30 4786 H 445.714 -4.35138 -3.39646 0
M  V30 4787 H 448.19 -2.42456 -3.38163 0
M  V30 4788 H 447.066 -2.82694 -4.70506 0
M  V30 4789 H 447.327 -1.14522 -4.27009 0
M  V30 4790 N 446.386 1.0089 -1.21074 0
M  V30 4791 C 447.614 1.78191 -1.05145 0
M  V30 4792 C 448.029 1.84537 0.398952 0
M  V30 4793 O 447.386 1.30393 1.27687 0
M  V30 4794 C 447.437 3.22288 -1.63746 0
M  V30 4795 O 447.158 3.16315 -3.03111 0
M  V30 4796 C 448.659 4.16106 -1.52875 0
M  V30 4797 H 445.879 0.560129 -0.369454 0
M  V30 4798 H 448.423 1.26945 -1.60328 0
M  V30 4799 H 446.578 3.70655 -1.12664 0
M  V30 4800 H 446.992 4.06817 -3.31059 0
M  V30 4801 H 448.466 5.15026 -1.98626 0
M  V30 4802 H 448.943 4.36541 -0.482521 0
M  V30 4803 H 449.549 3.73625 -2.03185 0
M  V30 4804 N 447.864 1.01787 1.20321 0
M  V30 4805 C 449.141 0.622978 1.85414 0
M  V30 4806 C 449.521 -0.898887 1.91006 0
M  V30 4807 O 448.869 -1.79112 1.41884 0
M  V30 4808 C 449.079 1.27226 3.24984 0
M  V30 4809 C 450.427 1.3885 4.01255 0
M  V30 4810 O 451.451 1.22857 3.34342 0
M  V30 4811 O 450.31 1.64705 5.2109 0
M  V30 4812 H 447.404 0.215116 0.798533 0
M  V30 4813 H 449.95 1.11533 1.27901 0
M  V30 4814 H 448.722 2.31209 3.15687 0
M  V30 4815 H 448.345 0.767069 3.90131 0
M  V30 4816 N 449.342 -1.36122 0.79427 0
M  V30 4817 C 450.275 -2.27759 0.141845 0
M  V30 4818 C 451.253 -1.47471 -0.684921 0
M  V30 4819 O 452.437 -1.76759 -0.654857 0
M  V30 4820 C 449.564 -3.29008 -0.804446 0
M  V30 4821 C 448.61 -4.26459 -0.0588617 0
M  V30 4822 S 449.443 -5.20253 1.26873 0
M  V30 4823 C 450.599 -6.25048 0.326562 0
M  V30 4824 H 450.832 -2.82746 0.918818 0
M  V30 4825 H 448.365 -1.42736 0.588722 0
M  V30 4826 H 450.323 -3.87842 -1.34495 0
M  V30 4827 H 448.984 -2.72924 -1.5547 0
M  V30 4828 H 448.177 -4.97973 -0.777087 0
M  V30 4829 H 447.779 -3.71731 0.411309 0
M  V30 4830 H 450.071 -6.75705 -0.492795 0
M  V30 4831 H 451.014 -7.00852 1.01053 0
M  V30 4832 H 451.422 -5.64454 -0.0722627 0
M  V30 4833 N 450.82 -0.546701 -1.47814 0
M  V30 4834 C 452.069 -0.0166497 -2.01693 0
M  V30 4835 C 452.382 1.33721 -1.42752 0
M  V30 4836 O 453.588 1.95658 -1.8823 0
M  V30 4837 C 452.044 0.0206769 -3.59894 0
M  V30 4838 C 451.652 -1.3293 -4.27824 0
M  V30 4839 C 453.396 0.498674 -4.21561 0
M  V30 4840 C 451.303 -1.25165 -5.78003 0
M  V30 4841 H 450.233 -0.0024541 -0.753996 0
M  V30 4842 H 452.884 -0.692984 -1.69912 0
M  V30 4843 H 451.266 0.76244 -3.88591 0
M  V30 4844 H 452.44 -2.08795 -4.10781 0
M  V30 4845 H 450.755 -1.74438 -3.78101 0
M  V30 4846 H 453.352 0.575 -5.31599 0
M  V30 4847 H 453.695 1.5083 -3.88016 0
M  V30 4848 H 454.228 -0.18791 -3.97356 0
M  V30 4849 H 450.967 -2.23695 -6.1615 0
M  V30 4850 H 450.487 -0.53464 -5.97412 0
M  V30 4851 H 452.166 -0.949299 -6.39998 0
M  V30 4852 N 452.299 1.55045 -0.282633 0
M  V30 4853 C 453.209 2.26491 0.61147 0
M  V30 4854 C 454.225 1.29348 1.16384 0
M  V30 4855 O 455.401 1.62298 1.19253 0
M  V30 4856 C 452.466 2.97779 1.77563 0
M  V30 4857 C 451.527 4.10418 1.25919 0
M  V30 4858 C 450.76 4.78297 2.36786 0
M  V30 4859 O 450.983 4.45426 3.56303 0
M  V30 4860 O 449.917 5.66089 2.04517 0
M  V30 4861 H 453.743 3.03683 0.0324615 0
M  V30 4862 H 451.328 1.49317 -0.0497576 0
M  V30 4863 H 453.21 3.42554 2.45427 0
M  V30 4864 H 451.885 2.23498 2.34159 0
M  V30 4865 H 450.792 3.70082 0.546797 0
M  V30 4866 H 452.125 4.86622 0.738887 0
M  V30 4867 N 453.777 0.010035 1.57597 0
M  V30 4868 C 455.188 -0.531426 1.78977 0
M  V30 4869 C 455.539 -1.73375 0.918454 0
M  V30 4870 O 454.664 -2.16047 0.123635 0
M  V30 4871 C 455.259 -0.97086 3.24592 0
M  V30 4872 C 453.818 -1.45756 3.47033 0
M  V30 4873 C 452.965 -0.413384 2.74201 0
M  V30 4874 H 455.916 0.236166 1.56933 0
M  V30 4875 H 455.937 -1.83633 3.33255 0
M  V30 4876 H 455.449 -0.0955893 3.87982 0
M  V30 4877 H 453.55 -2.35339 2.88871 0
M  V30 4878 H 453.663 -1.4781 4.55729 0
M  V30 4879 H 452.027 -0.877266 2.39115 0
M  V30 4880 H 452.81 0.453092 3.40297 0
M  V30 4881 N 455.255 -1.55392 -0.262866 0
M  V30 4882 C 456.503 -1.76127 -0.991147 0
M  V30 4883 C 456.824 -0.571083 -1.8645 0
M  V30 4884 O 456.094 0.413698 -1.91482 0
M  V30 4885 H 454.674 -0.649528 -0.368948 0
M  V30 4886 H 457.336 -1.9281 -0.284655 0
M  V30 4887 H 456.432 -2.6663 -1.62219 0
M  V30 4888 N 456.733 0.527833 -1.48498 0
M  V30 4889 C 457.958 1.313 -1.60546 0
M  V30 4890 C 458.383 1.86199 -0.26672 0
M  V30 4891 O 457.741 1.64513 0.761918 0
M  V30 4892 C 457.789 2.43818 -2.65678 0
M  V30 4893 O 456.893 3.46916 -2.22987 0
M  V30 4894 H 456.234 0.388784 -0.538277 0
M  V30 4895 H 458.764 0.634896 -1.945 0
M  V30 4896 H 458.774 2.89973 -2.87018 0
M  V30 4897 H 457.449 2.03222 -3.62869 0
M  V30 4898 H 456.026 3.06864 -2.11869 0
M  V30 4899 N 458.211 1.37122 0.776871 0
M  V30 4900 C 459.174 1.32301 1.8716 0
M  V30 4901 C 460.174 0.228099 1.59174 0
M  V30 4902 O 461.364 0.483642 1.67352 0
M  V30 4903 C 458.496 1.054 3.24197 0
M  V30 4904 H 459.689 2.29673 1.92848 0
M  V30 4905 H 457.242 1.22077 0.97606 0
M  V30 4906 H 457.977 0.0853872 3.24188 0
M  V30 4907 H 457.762 1.84648 3.45901 0
M  V30 4908 H 459.252 1.04664 4.04271 0
M  V30 4909 N 459.689 -1.00246 1.21608 0
M  V30 4910 C 460.938 -1.73476 1.02902 0
M  V30 4911 C 461.251 -1.90643 -0.437561 0
M  V30 4912 O 462.457 -2.61105 -0.74407 0
M  V30 4913 C 460.913 -3.12079 1.79261 0
M  V30 4914 C 460.521 -3.02877 3.30106 0
M  V30 4915 C 462.265 -3.89421 1.68972 0
M  V30 4916 C 460.172 -4.36575 3.98944 0
M  V30 4917 H 459.102 -0.650408 0.381425 0
M  V30 4918 H 461.753 -1.11985 1.45367 0
M  V30 4919 H 460.135 -3.74196 1.2959 0
M  V30 4920 H 461.309 -2.49983 3.87098 0
M  V30 4921 H 459.624 -2.39022 3.40965 0
M  V30 4922 H 462.221 -4.88362 2.17731 0
M  V30 4923 H 462.564 -4.1122 0.648397 0
M  V30 4924 H 463.097 -3.33963 2.16133 0
M  V30 4925 H 459.836 -4.19978 5.03288 0
M  V30 4926 H 459.356 -4.8942 3.4674 0
M  V30 4927 H 461.035 -5.05364 4.04 0
M  V30 4928 N 461.167 -1.02423 -1.1978 0
M  V30 4929 C 462.114 -0.601023 -2.22837 0
M  V30 4930 C 463.084 0.382801 -1.61629 0
M  V30 4931 O 464.269 0.280514 -1.88727 0
M  V30 4932 C 461.409 0.0467755 -3.45068 0
M  V30 4933 C 460.522 -0.98253 -4.20678 0
M  V30 4934 C 459.657 -0.304982 -5.30324 0
M  V30 4935 C 458.696 -1.32052 -5.97686 0
M  V30 4936 N 457.833 -0.669105 -6.98904 0
M  V30 4937 H 462.673 -1.48444 -2.58396 0
M  V30 4938 H 460.21 -0.742936 -1.2696 0
M  V30 4939 H 462.168 0.439556 -4.14878 0
M  V30 4940 H 460.798 0.893796 -3.10179 0
M  V30 4941 H 459.85 -1.49341 -3.49859 0
M  V30 4942 H 461.162 -1.75455 -4.66923 0
M  V30 4943 H 460.316 0.142893 -6.06532 0
M  V30 4944 H 459.055 0.499283 -4.85138 0
M  V30 4945 H 458.06 -1.7787 -5.20233 0
M  V30 4946 H 459.285 -2.1262 -6.44957 0
M  V30 4947 H 457.231 0.115152 -6.55899 0
M  V30 4948 H 457.148 -1.37908 -7.43315 0
M  V30 4949 H 458.416 -0.245076 -7.79115 0
M  V30 4950 N 462.645 1.35699 -0.801477 0
M  V30 4951 C 464.056 1.81415 -0.441073 0
M  V30 4952 C 464.407 1.66595 1.03636 0
M  V30 4953 O 463.532 1.19369 1.80499 0
M  V30 4954 C 464.127 3.29369 -0.793819 0
M  V30 4955 C 462.686 3.73248 -0.486083 0
M  V30 4956 C 461.833 2.57775 -1.02213 0
M  V30 4957 H 464.784 1.23749 -0.993572 0
M  V30 4958 H 464.805 3.80395 -0.0894158 0
M  V30 4959 H 464.317 3.40123 -1.86917 0
M  V30 4960 H 462.418 3.68046 0.580735 0
M  V30 4961 H 462.531 4.68222 -1.01513 0
M  V30 4962 H 460.895 2.50788 -0.444712 0
M  V30 4963 H 461.678 2.71309 -2.10348 0
M  V30 4964 N 464.123 0.554532 1.47522 0
M  V30 4965 C 465.37 0.029479 2.02479 0
M  V30 4966 C 465.698 -1.31929 1.42916 0
M  V30 4967 O 464.953 -1.87112 0.573385 0
M  V30 4968 C 465.252 -0.115927 3.57212 0
M  V30 4969 C 464.918 1.16161 4.3568 0
M  V30 4970 C 463.58 1.51168 4.56839 0
M  V30 4971 C 465.932 2.0083 4.80954 0
M  V30 4972 C 463.26 2.70696 5.2052 0
M  V30 4973 C 465.612 3.19559 5.45953 0
M  V30 4974 C 464.276 3.54882 5.65345 0
M  V30 4975 H 463.546 0.0107871 0.740921 0
M  V30 4976 H 466.193 0.725506 1.77225 0
M  V30 4977 H 464.498 -0.894902 3.81443 0
M  V30 4978 H 466.195 -0.53749 3.97381 0
M  V30 4979 H 462.785 0.879026 4.19489 0
M  V30 4980 H 466.969 1.75093 4.64388 0
M  V30 4981 H 462.225 2.98236 5.33728 0
M  V30 4982 H 466.399 3.85456 5.79997 0
M  V30 4983 H 464.026 4.47596 6.1446 0
M  V30 4984 N 465.601 -1.54893 0.290851 0
M  V30 4985 C 466.847 -2.0023 -0.321867 0
M  V30 4986 C 467.18 -1.179 -1.54316 0
M  V30 4987 O 466.455 -0.25293 -1.92848 0
M  V30 4988 C 466.738 -3.53456 -0.688515 0
M  V30 4989 C 466.591 -4.46532 0.541209 0
M  V30 4990 C 467.91 -4.13057 -1.51895 0
M  V30 4991 H 465.029 -0.727891 -0.115515 0
M  V30 4992 H 467.671 -1.85722 0.400931 0
M  V30 4993 H 465.821 -3.6595 -1.30433 0
M  V30 4994 H 467.493 -4.4596 1.17973 0
M  V30 4995 H 465.736 -4.17545 1.17636 0
M  V30 4996 H 466.407 -5.51475 0.240675 0
M  V30 4997 H 468.883 -4.03937 -0.99872 0
M  V30 4998 H 467.759 -5.20448 -1.74429 0
M  V30 4999 H 468.02 -3.64284 -2.50498 0
M  V30 5000 N 467.08 -0.0183926 -1.57589 0
M  V30 5001 C 468.329 0.66185 -1.90532 0
M  V30 5002 C 468.642 1.73904 -0.895366 0
M  V30 5003 O 469.848 2.47518 -1.11566 0
M  V30 5004 C 468.304 1.22844 -3.38286 0
M  V30 5005 C 467.912 0.185103 -4.47617 0
M  V30 5006 C 469.656 1.88581 -3.80312 0
M  V30 5007 C 467.563 0.762723 -5.86461 0
M  V30 5008 H 466.493 0.250972 -0.711006 0
M  V30 5009 H 469.144 -0.0819435 -1.83317 0
M  V30 5010 H 467.526 2.0235 -3.40398 0
M  V30 5011 H 468.7 -0.58671 -4.5705 0
M  V30 5012 H 467.015 -0.372889 -4.14727 0
M  V30 5013 H 469.612 2.32735 -4.81392 0
M  V30 5014 H 469.955 2.72408 -3.14801 0
M  V30 5015 H 470.488 1.15782 -3.80578 0
M  V30 5016 H 467.227 -0.0371713 -6.55489 0
M  V30 5017 H 466.747 1.50327 -5.80656 0
M  V30 5018 H 468.426 1.25576 -6.34697 0
M  V30 5019 N 468.558 1.5553 0.254621 0
M  V30 5020 C 469.521 1.88872 1.29846 0
M  V30 5021 C 470.521 0.764591 1.41459 0
M  V30 5022 O 471.711 1.03265 1.40293 0
M  V30 5023 C 468.843 2.11032 2.67728 0
M  V30 5024 H 470.036 2.82201 1.01502 0
M  V30 5025 H 467.589 1.48303 0.493556 0
M  V30 5026 H 468.324 1.20146 3.01223 0
M  V30 5027 H 468.109 2.92895 2.60682 0
M  V30 5028 H 469.599 2.38038 3.43115 0
M  V30 5029 N 470.036 -0.519951 1.48776 0
M  V30 5030 C 470.983 -1.62352 1.64044 0
M  V30 5031 C 471.953 -1.58945 0.482251 0
M  V30 5032 O 473.138 -1.77219 0.706971 0
M  V30 5033 C 470.278 -3.00579 1.69547 0
M  V30 5034 C 469.391 -3.14145 2.96541 0
M  V30 5035 C 468.526 -4.42991 2.93142 0
M  V30 5036 C 467.565 -4.50122 4.14797 0
M  V30 5037 N 466.702 -5.7037 4.09418 0
M  V30 5038 H 471.542 -1.48643 2.58281 0
M  V30 5039 H 469.079 -0.723516 1.28077 0
M  V30 5040 H 471.037 -3.80671 1.70719 0
M  V30 5041 H 469.667 -3.13036 0.787918 0
M  V30 5042 H 468.719 -2.27239 3.05068 0
M  V30 5043 H 470.031 -3.15275 3.86527 0
M  V30 5044 H 469.185 -5.31385 2.92772 0
M  V30 5045 H 467.924 -4.44398 2.00902 0
M  V30 5046 H 466.929 -3.60133 4.15433 0
M  V30 5047 H 468.154 -4.50445 5.08208 0
M  V30 5048 H 466.1 -5.72655 3.20004 0
M  V30 5049 H 466.017 -5.73036 4.93119 0
M  V30 5050 H 467.285 -6.61023 4.13121 0
M  V30 5051 N 471.514 -1.37532 -0.769588 0
M  V30 5052 C 472.477 -1.33292 -1.86456 0
M  V30 5053 C 473.477 -0.236537 -1.59051 0
M  V30 5054 O 474.667 -0.492511 -1.67093 0
M  V30 5055 C 471.799 -1.07118 -3.23633 0
M  V30 5056 H 472.992 -2.30692 -1.91628 0
M  V30 5057 H 470.545 -1.22593 -0.969572 0
M  V30 5058 H 471.28 -0.102578 -3.24138 0
M  V30 5059 H 471.065 -1.86479 -3.44917 0
M  V30 5060 H 472.555 -1.06806 -4.03711 0
M  V30 5061 N 472.992 0.995999 -1.22138 0
M  V30 5062 C 473.922 2.10387 -1.01289 0
M  V30 5063 C 474.903 1.69975 0.0651454 0
M  V30 5064 O 476.088 1.9396 -0.0964628 0
M  V30 5065 C 473.218 3.42312 -0.586517 0
M  V30 5066 C 472.172 3.96558 -1.61014 0
M  V30 5067 C 471.498 5.24494 -1.0397 0
M  V30 5068 C 472.798 4.27595 -2.99933 0
M  V30 5069 H 474.492 2.28086 -1.93951 0
M  V30 5070 H 472.038 1.09607 -0.933928 0
M  V30 5071 H 473.991 4.19223 -0.427793 0
M  V30 5072 H 472.715 3.24431 0.375761 0
M  V30 5073 H 471.374 3.21776 -1.75658 0
M  V30 5074 H 471.022 5.02953 -0.0688703 0
M  V30 5075 H 470.722 5.61755 -1.72352 0
M  V30 5076 H 472.246 6.04042 -0.892494 0
M  V30 5077 H 473.66 4.95315 -2.8868 0
M  V30 5078 H 472.057 4.76021 -3.6541 0
M  V30 5079 H 473.127 3.35498 -3.50099 0
M  V30 5080 N 474.47 1.03057 1.19235 0
M  V30 5081 C 475.747 0.642608 1.84743 0
M  V30 5082 C 476.127 -0.878577 1.91948 0
M  V30 5083 O 475.475 -1.77597 1.43776 0
M  V30 5084 C 475.685 1.30665 3.23616 0
M  V30 5085 C 477.033 1.43098 3.9976 0
M  V30 5086 O 478.057 1.26396 3.3302 0
M  V30 5087 O 476.916 1.70223 5.19313 0
M  V30 5088 H 474.01 0.223573 0.796206 0
M  V30 5089 H 476.556 1.12883 1.26711 0
M  V30 5090 H 475.328 2.34544 3.13217 0
M  V30 5091 H 474.951 0.808405 3.89295 0
M  V30 5092 N 475.948 -1.35272 0.808662 0
M  V30 5093 C 476.911 -2.28082 0.226093 0
M  V30 5094 C 477.911 -1.49673 -0.587762 0
M  V30 5095 O 479.101 -1.69404 -0.405943 0
M  V30 5096 C 476.233 -3.33955 -0.684596 0
M  V30 5097 H 477.426 -2.81116 1.04469 0
M  V30 5098 H 474.979 -1.45162 0.579466 0
M  V30 5099 H 475.714 -2.86111 -1.5268 0
M  V30 5100 H 475.499 -3.91965 -0.102699 0
M  V30 5101 H 476.989 -4.03219 -1.08646 0
M  V30 5102 N 477.426 -0.562348 -1.47226 0
M  V30 5103 C 478.674 -0.0401371 -2.0206 0
M  V30 5104 C 478.995 1.3165 -1.43852 0
M  V30 5105 O 478.265 1.85976 -0.615599 0
M  V30 5106 H 476.845 -0.0118479 -0.746906 0
M  V30 5107 H 479.507 -0.73352 -1.8057 0
M  V30 5108 H 478.603 0.0441254 -3.12069 0
M  V30 5109 N 478.904 1.54736 -0.299062 0
M  V30 5110 C 479.851 2.23448 0.577899 0
M  V30 5111 C 480.821 1.21637 1.13109 0
M  V30 5112 O 482.006 1.50252 1.17597 0
M  V30 5113 C 479.146 2.9774 1.74484 0
M  V30 5114 C 478.259 4.1432 1.22323 0
M  V30 5115 C 477.394 4.76199 2.35388 0
M  V30 5116 C 476.433 5.84927 1.80351 0
M  V30 5117 N 475.57 6.4077 2.86982 0
M  V30 5118 H 480.41 2.97996 -0.0146545 0
M  V30 5119 H 477.947 1.47088 -0.0190013 0
M  V30 5120 H 479.905 3.39045 2.43114 0
M  V30 5121 H 478.535 2.25572 2.30905 0
M  V30 5122 H 477.587 3.7797 0.429249 0
M  V30 5123 H 478.899 4.92659 0.780309 0
M  V30 5124 H 478.053 5.20346 3.11969 0
M  V30 5125 H 476.792 3.97188 2.83006 0
M  V30 5126 H 475.797 5.40207 1.02259 0
M  V30 5127 H 477.022 6.65821 1.3364 0
M  V30 5128 H 474.968 5.64643 3.33938 0
M  V30 5129 H 474.885 7.1445 2.4718 0
M  V30 5130 H 476.153 6.89574 3.63466 0
M  V30 5131 N 480.382 0.0267497 1.57577 0
M  V30 5132 C 481.61 -0.662661 1.96001 0
M  V30 5133 C 482.025 -1.65799 0.903117 0
M  V30 5134 O 481.382 -1.82135 -0.115317 0
M  V30 5135 C 481.433 -1.37112 3.34488 0
M  V30 5136 O 481.154 -0.415683 4.36123 0
M  V30 5137 C 482.655 -2.15257 3.8753 0
M  V30 5138 H 479.875 -0.18287 0.6456 0
M  V30 5139 H 482.419 0.0858116 2.0432 0
M  V30 5140 H 480.574 -2.07101 3.27395 0
M  V30 5141 H 480.988 -0.918496 5.16395 0
M  V30 5142 H 482.462 -2.60285 4.86781 0
M  V30 5143 H 482.939 -2.99063 3.21649 0
M  V30 5144 H 483.545 -1.50231 3.97883 0
M  V30 5145 N 481.861 -1.55662 -0.24637 0
M  V30 5146 C 483.138 -1.68272 -0.997198 0
M  V30 5147 C 483.518 -0.566785 -2.03349 0
M  V30 5148 O 482.866 0.429688 -2.24424 0
M  V30 5149 C 483.076 -3.08594 -1.63006 0
M  V30 5150 C 484.424 -3.6721 -2.13171 0
M  V30 5151 O 485.448 -3.11397 -1.72946 0
M  V30 5152 O 484.307 -4.65054 -2.87031 0
M  V30 5153 H 481.401 -0.684429 -0.464205 0
M  V30 5154 H 483.947 -1.67993 -0.240114 0
M  V30 5155 H 482.719 -3.81264 -0.880527 0
M  V30 5156 H 482.342 -3.12886 -2.45333 0
M  V30 5157 N 483.339 0.512053 -1.4905 0
M  V30 5158 C 484.269 1.62365 -1.67809 0
M  V30 5159 C 485.25 1.61737 -0.526809 0
M  V30 5160 O 486.435 1.78651 -0.761404 0
M  V30 5161 C 483.565 3.00895 -1.73435 0
M  V30 5162 C 482.519 3.16387 -2.88242 0
M  V30 5163 C 481.845 4.56157 -2.78971 0
M  V30 5164 C 483.145 2.97457 -4.29321 0
M  V30 5165 H 484.839 1.46921 -2.60873 0
M  V30 5166 H 482.385 0.705379 -1.2554 0
M  V30 5167 H 484.338 3.78549 -1.85145 0
M  V30 5168 H 483.062 3.17403 -0.769619 0
M  V30 5169 H 481.721 2.41155 -2.76116 0
M  V30 5170 H 481.369 4.69525 -1.8043 0
M  V30 5171 H 481.069 4.67465 -3.5602 0
M  V30 5172 H 482.593 5.35886 -2.92675 0
M  V30 5173 H 484.007 3.64888 -4.42187 0
M  V30 5174 H 482.404 3.20245 -5.07507 0
M  V30 5175 H 483.474 1.93692 -4.44535 0
M  V30 5176 N 484.817 1.37938 0.762283 0
M  V30 5177 C 485.765 1.34569 1.89721 0
M  V30 5178 C 486.759 0.232929 1.67791 0
M  V30 5179 O 487.965 0.401485 1.75465 0
M  V30 5180 H 484.34 0.419594 0.624055 0
M  V30 5181 H 486.311 2.30357 1.8968 0
M  V30 5182 C 485.06 1.17898 3.27101 0
M  V30 5183 H 484.383 2.02781 3.44558 0
M  V30 5184 H 485.823 1.19593 4.06784 0
M  V30 5185 C 484.282 -0.114728 3.36705 0
M  V30 5186 O 484.812 -1.0949 3.8649 0
M  V30 5187 N 483.018 -0.16863 2.9011 0
M  V30 5188 H 482.565 0.62967 2.49786 0
M  V30 5189 H 482.523 -1.03383 2.96916 0
M  V30 5190 N 486.295 -0.989507 1.22664 0
M  V30 5191 C 487.205 -2.11449 1.01619 0
M  V30 5192 C 488.221 -1.73962 -0.036545 0
M  V30 5193 O 489.397 -2.00788 0.156924 0
M  V30 5194 C 486.462 -3.41465 0.600204 0
M  V30 5195 C 485.523 -3.93033 1.72695 0
M  V30 5196 C 484.756 -5.16844 1.33071 0
M  V30 5197 O 484.979 -5.7001 0.210975 0
M  V30 5198 O 483.913 -5.6225 2.14845 0
M  V30 5199 H 487.739 -2.32088 1.9588 0
M  V30 5200 H 485.324 -1.09823 1.01289 0
M  V30 5201 H 487.206 -4.19695 0.37873 0
M  V30 5202 H 485.881 -3.22178 -0.313511 0
M  V30 5203 H 484.788 -3.15961 2.00298 0
M  V30 5204 H 486.121 -4.16758 2.61865 0
M  V30 5205 N 487.773 -1.03688 -1.18687 0
M  V30 5206 C 489.189 -0.755413 -1.4059 0
M  V30 5207 C 489.389 0.656659 -1.905 0
M  V30 5208 O 488.445 1.42144 -2.08689 0
M  V30 5209 C 489.758 -1.7983 -2.41001 0
M  V30 5210 C 491.306 -1.81877 -2.54735 0
M  V30 5211 C 491.781 -2.85148 -3.58406 0
M  V30 5212 N 493.272 -2.84015 -3.6591 0
M  V30 5213 C 494.007 -3.60573 -4.45841 0
M  V30 5214 N 493.503 -4.46871 -5.29413 0
M  V30 5215 N 495.296 -3.49079 -4.40568 0
M  V30 5216 H 487.447 -1.94818 -0.846148 0
M  V30 5217 H 489.71 -0.842727 -0.434184 0
M  V30 5218 H 489.416 -2.81097 -2.1137 0
M  V30 5219 H 489.29 -1.62727 -3.40294 0
M  V30 5220 H 491.677 -0.812836 -2.83685 0
M  V30 5221 H 491.758 -2.03057 -1.55568 0
M  V30 5222 H 491.402 -3.85918 -3.30197 0
M  V30 5223 H 491.332 -2.61224 -4.57241 0
M  V30 5224 H 493.823 -2.21431 -3.0623 0
M  V30 5225 H 494.136 -5.02007 -5.87545 0
M  V30 5226 H 492.481 -4.5094 -5.28846 0
M  V30 5227 H 495.672 -2.81066 -3.74325 0
M  V30 5228 H 495.845 -4.08994 -5.02621 0
M  V30 5229 N 489.251 1.34841 -0.815825 0
M  V30 5230 C 490.181 2.32187 -0.247298 0
M  V30 5231 C 491.162 1.5791 0.632344 0
M  V30 5232 O 492.347 1.8593 0.560698 0
M  V30 5233 C 489.477 3.42122 0.597466 0
M  V30 5234 C 488.431 4.27602 -0.184446 0
M  V30 5235 C 487.757 5.28942 0.782609 0
M  V30 5236 C 489.057 5.03502 -1.38865 0
M  V30 5237 H 490.751 2.79985 -1.06061 0
M  V30 5238 H 488.297 1.34611 -0.511461 0
M  V30 5239 H 490.25 4.09232 1.00533 0
M  V30 5240 H 488.974 2.92956 1.44376 0
M  V30 5241 H 487.633 3.62085 -0.573592 0
M  V30 5242 H 487.281 4.7604 1.62466 0
M  V30 5243 H 486.981 5.87008 0.263695 0
M  V30 5244 H 488.505 5.98922 1.18848 0
M  V30 5245 H 489.919 5.63506 -1.05518 0
M  V30 5246 H 488.316 5.71108 -1.8427 0
M  V30 5247 H 489.386 4.33608 -2.17054 0
M  V30 5248 N 490.729 0.570148 1.46925 0
M  V30 5249 C 491.677 -0.183181 2.31878 0
M  V30 5250 C 492.671 -0.896721 1.43719 0
M  V30 5251 O 493.877 -0.816536 1.60414 0
M  V30 5252 H 490.252 -0.077944 0.74795 0
M  V30 5253 H 492.223 0.552312 2.93244 0
M  V30 5254 C 490.972 -1.19172 3.2664 0
M  V30 5255 H 490.295 -0.652088 3.94446 0
M  V30 5256 H 491.735 -1.68946 3.88887 0
M  V30 5257 C 490.194 -2.24627 2.51086 0
M  V30 5258 O 490.724 -3.31773 2.26472 0
M  V30 5259 N 488.93 -1.98898 2.11867 0
M  V30 5260 H 488.477 -1.11777 2.32086 0
M  V30 5261 H 488.435 -2.6967 1.61634 0
M  V30 5262 N 492.207 -1.54576 0.307264 0
M  V30 5263 C 493.435 -2.04675 -0.302597 0
M  V30 5264 C 493.85 -1.18425 -1.47041 0
M  V30 5265 O 493.207 -0.211257 -1.81273 0
M  V30 5266 C 493.258 -3.53575 -0.752801 0
M  V30 5267 O 492.979 -4.36547 0.368536 0
M  V30 5268 C 494.48 -4.19699 -1.42717 0
M  V30 5269 H 491.7 -0.66786 -0.0648374 0
M  V30 5270 H 494.244 -1.99516 0.448716 0
M  V30 5271 H 492.399 -3.59074 -1.45412 0
M  V30 5272 H 492.813 -5.24497 0.0168937 0
M  V30 5273 H 494.287 -5.25388 -1.69327 0
M  V30 5274 H 494.764 -3.69815 -2.36925 0
M  V30 5275 H 495.37 -4.18293 -0.768856 0
M  V30 5276 N 493.685 -0.035106 -1.57561 0
M  V30 5277 C 494.617 0.973604 -2.07494 0
M  V30 5278 C 495.63 1.28504 -0.999534 0
M  V30 5279 O 496.819 1.24864 -1.27559 0
M  V30 5280 C 493.919 2.29945 -2.48955 0
M  V30 5281 C 493.092 2.1723 -3.79644 0
M  V30 5282 C 492.151 3.328 -4.07592 0
M  V30 5283 O 491.177 3.09418 -4.77754 0
M  V30 5284 N 492.379 4.56779 -3.58236 0
M  V30 5285 H 495.144 0.547525 -2.94656 0
M  V30 5286 H 492.705 0.151515 -1.61189 0
M  V30 5287 H 494.697 3.06097 -2.64739 0
M  V30 5288 H 493.267 2.64173 -1.67126 0
M  V30 5289 H 492.487 1.25768 -3.73599 0
M  V30 5290 H 493.775 2.05945 -4.65257 0
M  V30 5291 H 493.173 4.78668 -3.01485 0
M  V30 5292 H 491.73 5.30079 -3.79288 0
M  V30 5293 N 495.163 1.55791 0.238111 0
M  V30 5294 C 496.574 1.68383 0.806472 0
M  V30 5295 C 496.925 0.634157 1.85669 0
M  V30 5296 O 496.05 -0.217913 2.153 0
M  V30 5297 C 496.645 3.05268 1.46959 0
M  V30 5298 C 495.204 3.1977 1.98555 0
M  V30 5299 C 494.351 2.64279 0.839763 0
M  V30 5300 H 497.302 1.58694 0.0137535 0
M  V30 5301 H 497.323 3.00203 2.33792 0
M  V30 5302 H 496.835 3.81643 0.704993 0
M  V30 5303 H 494.936 2.48234 2.77868 0
M  V30 5304 H 495.049 4.26788 2.17689 0
M  V30 5305 H 493.413 2.22329 1.24265 0
M  V30 5306 H 494.196 3.43187 0.0881032 0
M  V30 5307 N 496.642 -0.504142 1.49319 0
M  V30 5308 C 497.872 -1.28071 1.62116 0
M  V30 5309 C 498.28 -1.86955 0.290566 0
M  V30 5310 O 497.623 -1.68415 -0.733616 0
M  V30 5311 C 497.685 -2.4521 2.62893 0
M  V30 5312 C 497.349 -2.07218 4.0732 0
M  V30 5313 C 498.346 -1.61375 4.94221 0
M  V30 5314 C 496.031 -2.16949 4.53033 0
M  V30 5315 C 498.025 -1.25763 6.2487 0
M  V30 5316 C 495.712 -1.80949 5.83696 0
M  V30 5317 C 496.71 -1.3543 6.69438 0
M  V30 5318 O 496.398 -0.99915 7.97667 0
M  V30 5319 H 496.13 -0.394763 0.54876 0
M  V30 5320 H 498.684 -0.612118 1.96067 0
M  V30 5321 H 496.914 -3.15134 2.24115 0
M  V30 5322 H 498.603 -3.0724 2.65252 0
M  V30 5323 H 499.369 -1.53306 4.60133 0
M  V30 5324 H 495.248 -2.5133 3.86463 0
M  V30 5325 H 498.792 -0.901631 6.91749 0
M  V30 5326 H 494.689 -1.88667 6.17313 0
M  V30 5327 H 495.457 -1.13089 8.1065 0
M  V30 5328 N 498.12 -1.38341 -0.754957 0
M  V30 5329 C 499.067 -1.3546 -1.86867 0
M  V30 5330 C 500.037 -0.217369 -1.64672 0
M  V30 5331 O 501.222 -0.409383 -1.86356 0
M  V30 5332 C 498.362 -1.18413 -3.24149 0
M  V30 5333 C 497.475 -2.41511 -3.58185 0
M  V30 5334 C 496.61 -2.17205 -4.84763 0
M  V30 5335 C 495.649 -3.36081 -5.11582 0
M  V30 5336 N 494.786 -3.11219 -6.29354 0
M  V30 5337 H 499.626 -2.30672 -1.88664 0
M  V30 5338 H 497.163 -1.14607 -0.922154 0
M  V30 5339 H 499.121 -1.06545 -4.03366 0
M  V30 5340 H 497.751 -0.268397 -3.21682 0
M  V30 5341 H 496.803 -2.64056 -2.73822 0
M  V30 5342 H 498.115 -3.30115 -3.73932 0
M  V30 5343 H 497.269 -2.02465 -5.7192 0
M  V30 5344 H 496.008 -1.25964 -4.71152 0
M  V30 5345 H 495.013 -3.51341 -4.22894 0
M  V30 5346 H 496.238 -4.28196 -5.27091 0
M  V30 5347 H 494.184 -2.22624 -6.17069 0
M  V30 5348 H 494.101 -3.93373 -6.45596 0
M  V30 5349 H 495.369 -3.00132 -7.19403 0
M  V30 5350 N 499.598 0.982988 -1.23187 0
M  V30 5351 C 500.847 1.71817 -1.05649 0
M  V30 5352 C 501.16 1.91315 0.407176 0
M  V30 5353 O 502.366 2.62256 0.702436 0
M  V30 5354 C 500.822 3.09188 -1.84203 0
M  V30 5355 C 500.43 2.97586 -3.34882 0
M  V30 5356 C 502.174 3.86684 -1.75146 0
M  V30 5357 C 500.081 4.30173 -4.05839 0
M  V30 5358 H 499.011 0.644258 -0.391724 0
M  V30 5359 H 501.662 1.09659 -1.4713 0
M  V30 5360 H 500.044 3.72087 -1.35527 0
M  V30 5361 H 501.218 2.43793 -3.91026 0
M  V30 5362 H 499.533 2.33567 -3.44725 0
M  V30 5363 H 502.13 4.84836 -2.25473 0
M  V30 5364 H 502.473 4.10136 -0.713737 0
M  V30 5365 H 503.006 3.30482 -2.21419 0
M  V30 5366 H 499.745 4.11918 -5.09906 0
M  V30 5367 H 499.265 4.83841 -3.54482 0
M  V30 5368 H 500.944 4.98873 -4.11989 0
M  V30 5369 N 501.076 1.04316 1.18135 0
M  V30 5370 C 502.324 0.746542 1.87806 0
M  V30 5371 C 502.645 -0.728082 1.80898 0
M  V30 5372 O 501.915 -1.52554 1.22899 0
M  V30 5373 H 500.495 0.273157 0.695265 0
M  V30 5374 H 503.157 1.32044 1.43354 0
M  V30 5375 H 502.253 1.05362 2.93778 0
M  V30 5376 N 502.554 -1.34406 0.822964 0
M  V30 5377 C 503.965 -1.8069 0.469879 0
M  V30 5378 C 504.316 -1.68223 -1.00972 0
M  V30 5379 O 503.441 -1.22226 -1.78577 0
M  V30 5380 C 504.036 -3.28064 0.846118 0
M  V30 5381 C 502.595 -3.72428 0.545402 0
M  V30 5382 C 501.742 -2.56116 1.06301 0
M  V30 5383 H 504.693 -1.22153 1.01313 0
M  V30 5384 H 504.714 -3.80205 0.149922 0
M  V30 5385 H 504.226 -3.37107 1.92304 0
M  V30 5386 H 502.327 -3.68924 -0.522109 0
M  V30 5387 H 502.44 -4.66548 1.0895 0
M  V30 5388 H 500.804 -2.50048 0.484554 0
M  V30 5389 H 501.587 -2.67928 2.14638 0
M  V30 5390 N 504.032 -0.577932 -1.46621 0
M  V30 5391 C 505.257 -0.0652536 -2.07297 0
M  V30 5392 C 505.682 1.22828 -1.4246 0
M  V30 5393 O 505.04 1.74075 -0.506718 0
M  V30 5394 C 505.088 0.0920589 -3.60482 0
M  V30 5395 O 504.192 1.14972 -3.96049 0
M  V30 5396 H 503.533 -0.06065 -0.661224 0
M  V30 5397 H 506.063 -0.799515 -1.88332 0
M  V30 5398 H 506.073 0.299741 -4.06897 0
M  V30 5399 H 504.748 -0.852612 -4.07067 0
M  V30 5400 H 503.325 0.920879 -3.61351 0
M  V30 5401 N 505.51 1.54411 -0.315457 0
M  V30 5402 C 506.921 1.85885 0.174265 0
M  V30 5403 C 507.272 1.23723 1.52273 0
M  V30 5404 O 506.397 0.540246 2.09548 0
M  V30 5405 C 506.992 3.37257 0.322981 0
M  V30 5406 C 505.551 3.68711 0.756922 0
M  V30 5407 C 504.698 2.77013 -0.126195 0
M  V30 5408 H 507.649 1.49374 -0.536007 0
M  V30 5409 H 507.67 3.62539 1.15522 0
M  V30 5410 H 507.182 3.82471 -0.658602 0
M  V30 5411 H 505.283 3.29024 1.74854 0
M  V30 5412 H 505.396 4.75741 0.566291 0
M  V30 5413 H 503.76 2.51588 0.39692 0
M  V30 5414 H 504.543 3.25051 -1.1044 0
M  V30 5415 N 506.988 0.0434614 1.5754 0
M  V30 5416 C 508.234 -0.632971 1.92669 0
M  V30 5417 C 508.567 -1.70947 0.921446 0
M  V30 5418 O 507.842 -1.94426 -0.0537202 0
M  V30 5419 C 508.125 -1.23619 3.38216 0
M  V30 5420 C 507.978 -0.168274 4.49485 0
M  V30 5421 C 509.297 -2.15008 3.84005 0
M  V30 5422 H 506.416 -0.228629 0.700641 0
M  V30 5423 H 509.058 0.103651 1.89717 0
M  V30 5424 H 507.208 -1.864 3.40863 0
M  V30 5425 H 508.88 0.463196 4.58969 0
M  V30 5426 H 507.123 0.504581 4.30855 0
M  V30 5427 H 507.794 -0.630218 5.48391 0
M  V30 5428 H 510.27 -1.62198 3.83185 0
M  V30 5429 H 509.146 -2.54161 4.86511 0
M  V30 5430 H 509.407 -3.04707 3.20322 0
M  V30 5431 N 508.466 -1.55915 -0.229846 0
M  V30 5432 C 509.882 -1.48721 -0.579166 0
M  V30 5433 C 510.082 -0.736976 -1.87539 0
M  V30 5434 O 509.138 -0.273258 -2.51017 0
M  V30 5435 C 510.451 -2.9323 -0.666082 0
M  V30 5436 C 511.999 -3.03701 -0.757267 0
M  V30 5437 C 512.474 -4.49552 -0.8756 0
M  V30 5438 N 513.965 -4.53561 -0.940035 0
M  V30 5439 C 514.7 -5.63683 -1.05116 0
M  V30 5440 N 514.196 -6.83576 -1.12675 0
M  V30 5441 N 515.989 -5.51516 -1.08565 0
M  V30 5442 H 508.14 -2.03123 0.620857 0
M  V30 5443 H 510.403 -0.922898 0.21671 0
M  V30 5444 H 510.109 -3.51032 0.21664 0
M  V30 5445 H 509.983 -3.44668 -1.53243 0
M  V30 5446 H 512.37 -2.45969 -1.63043 0
M  V30 5447 H 512.451 -2.55446 0.134583 0
M  V30 5448 H 512.095 -5.079 -0.00692351 0
M  V30 5449 H 512.025 -4.95506 -1.78274 0
M  V30 5450 H 514.516 -3.67215 -0.892269 0
M  V30 5451 H 514.829 -7.63251 -1.21109 0
M  V30 5452 H 513.174 -6.86303 -1.09603 0
M  V30 5453 H 516.365 -4.5678 -1.02319 0
M  V30 5454 H 516.538 -6.37372 -1.1688 0
M  V30 5455 N 509.944 0.496216 -1.49584 0
M  V30 5456 C 511.221 1.25755 -1.49816 0
M  V30 5457 C 511.601 2.09859 -0.228572 0
M  V30 5458 O 510.949 2.14449 0.788908 0
M  V30 5459 C 511.159 2.11017 -2.7798 0
M  V30 5460 C 512.507 2.70047 -3.27658 0
M  V30 5461 O 513.531 2.21281 -2.79129 0
M  V30 5462 O 512.39 3.58834 -4.1219 0
M  V30 5463 H 509.484 0.569322 -0.599834 0
M  V30 5464 H 512.03 0.510094 -1.61852 0
M  V30 5465 H 510.802 1.48879 -3.61871 0
M  V30 5466 H 510.425 2.92947 -2.68827 0
M  V30 5467 N 511.423 1.38739 0.74761 0
M  V30 5468 C 512.651 1.38521 1.53686 0
M  V30 5469 C 513.066 -0.0235129 1.88785 0
M  V30 5470 O 512.423 -0.991662 1.53207 0
M  V30 5471 C 512.474 2.24641 2.83229 0
M  V30 5472 O 512.195 3.60026 2.49625 0
M  V30 5473 C 513.696 2.32669 3.77333 0
M  V30 5474 H 510.916 0.473589 0.475347 0
M  V30 5475 H 513.46 1.82395 0.924786 0
M  V30 5476 H 511.615 1.84213 3.40799 0
M  V30 5477 H 512.029 4.05435 3.3275 0
M  V30 5478 H 513.503 2.97201 4.65162 0
M  V30 5479 H 513.98 1.3421 4.18192 0
M  V30 5480 H 514.586 2.73512 3.25685 0
M  V30 5481 N 512.901 -0.976442 1.23707 0
M  V30 5482 C 513.851 -2.0544 0.988851 0
M  V30 5483 C 514.835 -1.60762 -0.0665901 0
M  V30 5484 O 516.027 -1.76396 0.14604 0
M  V30 5485 C 513.156 -3.38258 0.586223 0
M  V30 5486 C 512.242 -3.89523 1.67728 0
M  V30 5487 N 512.633 -4.13823 2.90834 0
M  V30 5488 C 510.931 -4.18097 1.55277 0
M  V30 5489 C 511.632 -4.55731 3.61502 0
M  V30 5490 N 510.608 -4.60394 2.8903 0
M  V30 5491 H 514.41 -2.22191 1.92376 0
M  V30 5492 H 511.924 -1.15954 1.13704 0
M  V30 5493 H 513.921 -4.15075 0.389658 0
M  V30 5494 H 512.581 -3.22898 -0.341594 0
M  V30 5495 H 513.592 -4.01529 3.271 0
M  V30 5496 H 510.269 -4.11719 0.692351 0
M  V30 5497 H 511.659 -4.83018 4.67059 0
M  V30 5498 N 514.379 -1.04941 -1.1758 0
M  V30 5499 C 515.625 -0.759112 -1.88057 0
M  V30 5500 C 515.958 0.711918 -1.8068 0
M  V30 5501 O 515.233 1.52035 -1.21308 0
M  V30 5502 C 515.516 -1.237 -3.38187 0
M  V30 5503 C 515.369 -2.77078 -3.54327 0
M  V30 5504 C 516.688 -0.834014 -4.32125 0
M  V30 5505 H 513.807 -0.277237 -0.682868 0
M  V30 5506 H 516.449 -1.30296 -1.38286 0
M  V30 5507 H 514.599 -0.774337 -3.80705 0
M  V30 5508 H 516.271 -3.31449 -3.20842 0
M  V30 5509 H 514.514 -3.16477 -2.96689 0
M  V30 5510 H 515.185 -3.05577 -4.59703 0
M  V30 5511 H 517.661 -1.23228 -3.97434 0
M  V30 5512 H 516.537 -1.19603 -5.35711 0
M  V30 5513 H 516.798 0.262195 -4.41322 0
M  V30 5514 N 515.857 1.33968 -0.830081 0
M  V30 5515 C 517.087 2.01987 -0.434142 0
M  V30 5516 C 517.495 1.62639 0.96671 0
M  V30 5517 O 516.838 0.831151 1.63822 0
M  V30 5518 C 516.9 3.5648 -0.465018 0
M  V30 5519 C 516.564 4.19176 -1.82045 0
M  V30 5520 C 517.561 4.39181 -2.78237 0
M  V30 5521 C 515.246 4.55792 -2.11089 0
M  V30 5522 C 517.24 4.94937 -4.01642 0
M  V30 5523 C 514.927 5.11258 -3.34752 0
M  V30 5524 C 515.925 5.30775 -4.29845 0
M  V30 5525 O 515.613 5.85064 -5.51322 0
M  V30 5526 H 515.345 0.653847 -0.171639 0
M  V30 5527 H 517.899 1.72066 -1.12171 0
M  V30 5528 H 516.129 3.8569 0.279284 0
M  V30 5529 H 517.818 4.05804 -0.0881334 0
M  V30 5530 H 518.584 4.11249 -2.57097 0
M  V30 5531 H 514.463 4.39901 -1.3787 0
M  V30 5532 H 518.007 5.10086 -4.75876 0
M  V30 5533 H 513.904 5.38619 -3.55753 0
M  V30 5534 H 514.672 6.03489 -5.5294 0
M  V30 5535 N 517.335 0.585699 1.46312 0
M  V30 5536 C 518.746 0.159938 1.86014 0
M  V30 5537 C 519.097 -1.27775 1.48889 0
M  V30 5538 O 518.222 -1.96559 0.90519 0
M  V30 5539 C 518.817 0.283485 3.37612 0
M  V30 5540 C 517.376 -0.0874256 3.76298 0
M  V30 5541 C 516.523 0.618055 2.70325 0
M  V30 5542 H 519.474 0.793737 1.37425 0
M  V30 5543 H 519.495 -0.490348 3.77327 0
M  V30 5544 H 519.007 1.32995 3.64601 0
M  V30 5545 H 517.108 -1.13391 3.54927 0
M  V30 5546 H 517.221 0.290975 4.78216 0
M  V30 5547 H 515.585 0.057993 2.54634 0
M  V30 5548 H 516.368 1.66623 3.00153 0
M  V30 5549 N 518.813 -1.54241 0.323641 0
M  V30 5550 C 520.038 -2.05452 -0.283605 0
M  V30 5551 C 520.463 -1.19823 -1.44997 0
M  V30 5552 O 519.821 -0.207358 -1.8011 0
M  V30 5553 C 519.869 -3.53823 -0.695795 0
M  V30 5554 O 518.973 -3.71134 -1.79815 0
M  V30 5555 H 518.314 -0.662024 -0.0511917 0
M  V30 5556 H 520.844 -1.99079 0.472073 0
M  V30 5557 H 520.854 -3.96094 -0.978434 0
M  V30 5558 H 519.529 -4.15602 0.157287 0
M  V30 5559 H 518.106 -3.40768 -1.51431 0
M  V30 5560 N 520.291 -0.0518155 -1.57515 0
M  V30 5561 C 521.221 0.920283 -2.146 0
M  V30 5562 C 522.202 1.32406 -1.06783 0
M  V30 5563 O 523.387 1.39866 -1.34726 0
M  V30 5564 C 520.517 2.1949 -2.6915 0
M  V30 5565 C 519.471 1.93116 -3.81956 0
M  V30 5566 C 518.797 3.27037 -4.23026 0
M  V30 5567 C 520.097 1.25225 -5.07066 0
M  V30 5568 H 521.791 0.444801 -2.96077 0
M  V30 5569 H 519.337 0.212508 -1.42423 0
M  V30 5570 H 521.29 2.87894 -3.07725 0
M  V30 5571 H 520.014 2.69244 -1.84865 0
M  V30 5572 H 518.673 1.27123 -3.43854 0
M  V30 5573 H 518.321 3.74595 -3.3569 0
M  V30 5574 H 518.021 3.10189 -4.99056 0
M  V30 5575 H 519.545 3.96673 -4.64202 0
M  V30 5576 H 520.959 1.83666 -5.43083 0
M  V30 5577 H 519.356 1.18702 -5.88243 0
M  V30 5578 H 520.426 0.228382 -4.84362 0
M  V30 5579 N 521.769 1.56035 0.221574 0
M  V30 5580 C 523.046 1.69837 0.970301 0
M  V30 5581 C 523.426 0.599065 2.02421 0
M  V30 5582 O 522.774 -0.393929 2.25079 0
M  V30 5583 C 522.984 3.11148 1.58076 0
M  V30 5584 C 524.332 3.70555 2.07302 0
M  V30 5585 O 525.356 3.14109 1.6797 0
M  V30 5586 O 524.215 4.69562 2.79596 0
M  V30 5587 H 521.309 0.691727 0.453257 0
M  V30 5588 H 523.855 1.68353 0.213358 0
M  V30 5589 H 522.627 3.82617 0.819759 0
M  V30 5590 H 522.25 3.16749 2.40324 0
M  V30 5591 N 523.247 -0.488276 1.49845 0
M  V30 5592 C 524.493 -1.24341 1.6021 0
M  V30 5593 C 524.826 -1.91967 0.293651 0
M  V30 5594 O 524.101 -1.81323 -0.703718 0
M  V30 5595 C 524.384 -2.3005 2.77036 0
M  V30 5596 C 524.237 -1.66842 4.17713 0
M  V30 5597 C 525.556 -3.31509 2.89464 0
M  V30 5598 H 522.675 -0.450704 0.583125 0
M  V30 5599 H 525.317 -0.539673 1.82174 0
M  V30 5600 H 523.467 -2.90071 2.58439 0
M  V30 5601 H 525.139 -1.1055 4.47858 0
M  V30 5602 H 523.382 -0.972079 4.22768 0
M  V30 5603 H 524.053 -2.43576 4.95353 0
M  V30 5604 H 526.529 -2.81493 3.06433 0
M  V30 5605 H 525.405 -4.02822 3.72861 0
M  V30 5606 H 525.666 -3.94603 1.99351 0
M  V30 5607 N 524.725 -1.39134 -0.740242 0
M  V30 5608 C 526.141 -1.20623 -1.0451 0
M  V30 5609 C 526.341 -0.0641651 -2.01398 0
M  V30 5610 O 525.397 0.585843 -2.4561 0
M  V30 5611 C 526.71 -2.53815 -1.6124 0
M  V30 5612 C 528.258 -2.60615 -1.73346 0
M  V30 5613 C 528.733 -3.94015 -2.33486 0
M  V30 5614 N 530.224 -3.95627 -2.40902 0
M  V30 5615 C 530.959 -4.95616 -2.88361 0
M  V30 5616 N 530.455 -6.06003 -3.35756 0
M  V30 5617 N 532.248 -4.82998 -2.87523 0
M  V30 5618 H 524.399 -2.12176 -0.0975576 0
M  V30 5619 H 526.662 -0.942066 -0.105904 0
M  V30 5620 H 526.368 -3.37911 -0.975144 0
M  V30 5621 H 526.242 -2.73162 -2.6012 0
M  V30 5622 H 528.629 -1.76906 -2.36195 0
M  V30 5623 H 528.71 -2.45123 -0.731336 0
M  V30 5624 H 528.354 -4.78153 -1.71267 0
M  V30 5625 H 528.284 -4.06825 -3.34366 0
M  V30 5626 H 530.775 -3.15903 -2.07398 0
M  V30 5627 H 531.088 -6.78215 -3.70464 0
M  V30 5628 H 529.433 -6.09604 -3.33778 0
M  V30 5629 H 532.624 -3.95866 -2.49816 0
M  V30 5630 H 532.797 -5.61072 -3.24196 0
M  V30 5631 N 526.204 0.969867 -1.24223 0
M  V30 5632 C 527.452 1.70918 -1.0785 0
M  V30 5633 C 527.773 1.91186 0.383763 0
M  V30 5634 O 527.043 1.48806 1.27411 0
M  V30 5635 H 525.623 0.633334 -0.396103 0
M  V30 5636 H 528.285 1.16689 -1.56108 0
M  V30 5637 H 527.381 2.69455 -1.57482 0
M  V30 5638 N 527.682 1.05563 1.17022 0
M  V30 5639 C 528.931 0.763036 1.8671 0
M  V30 5640 C 529.244 -0.712857 1.82147 0
M  V30 5641 O 530.45 -1.11955 2.47343 0
M  V30 5642 C 528.906 1.31474 3.35026 0
M  V30 5643 C 528.514 2.82034 3.48081 0
M  V30 5644 C 530.258 1.09935 4.10018 0
M  V30 5645 C 528.165 3.30486 4.90442 0
M  V30 5646 H 527.095 0.281747 0.699382 0
M  V30 5647 H 529.746 1.2734 1.32124 0
M  V30 5648 H 528.128 0.732171 3.89173 0
M  V30 5649 H 529.302 3.46178 3.04133 0
M  V30 5650 H 527.617 3.02156 2.86515 0
M  V30 5651 H 530.214 1.43632 5.15048 0
M  V30 5652 H 530.557 0.0373072 4.16283 0
M  V30 5653 H 531.09 1.64732 3.62089 0
M  V30 5654 H 527.829 4.36137 4.89352 0
M  V30 5655 H 527.349 2.71086 5.35044 0
M  V30 5656 H 529.028 3.25382 5.59227 0
M  V30 5657 N 529.16 -1.33526 0.837174 0
M  V30 5658 C 530.093 -2.27192 0.214233 0
M  V30 5659 C 531.071 -1.49575 -0.637657 0
M  V30 5660 O 532.255 -1.78753 -0.598291 0
M  V30 5661 C 529.382 -3.31401 -0.699367 0
M  V30 5662 C 528.428 -4.26431 0.0768429 0
M  V30 5663 S 529.261 -5.15954 1.4336 0
M  V30 5664 C 530.417 -6.23692 0.525251 0
M  V30 5665 H 530.65 -2.79679 1.00831 0
M  V30 5666 H 528.183 -1.4079 0.633834 0
M  V30 5667 H 530.141 -3.91924 -1.22088 0
M  V30 5668 H 528.802 -2.77732 -1.46709 0
M  V30 5669 H 527.995 -5.00193 -0.618268 0
M  V30 5670 H 527.597 -3.70235 0.529364 0
M  V30 5671 H 529.889 -6.76931 -0.277575 0
M  V30 5672 H 530.832 -6.97283 1.23299 0
M  V30 5673 H 531.24 -5.64398 0.107351 0
M  V30 5674 N 530.638 -0.59345 -1.46 0
M  V30 5675 C 531.57 0.171569 -2.28557 0
M  V30 5676 C 532.583 0.845273 -1.39137 0
M  V30 5677 O 533.772 0.713033 -1.6364 0
M  V30 5678 C 530.872 1.26311 -3.14482 0
M  V30 5679 C 530.045 0.679258 -4.32094 0
M  V30 5680 C 529.104 1.65987 -4.99334 0
M  V30 5681 O 528.13 1.19171 -5.56585 0
M  V30 5682 N 529.332 2.99414 -4.97324 0
M  V30 5683 H 532.097 -0.536771 -2.94854 0
M  V30 5684 H 529.658 -0.431954 -1.56031 0
M  V30 5685 H 531.65 1.91863 -3.5633 0
M  V30 5686 H 530.22 1.87416 -2.50188 0
M  V30 5687 H 529.44 -0.153992 -3.93899 0
M  V30 5688 H 530.728 0.26916 -5.08088 0
M  V30 5689 H 530.126 3.40064 -4.52076 0
M  V30 5690 H 528.683 3.60426 -5.4308 0
M  V30 5691 N 532.116 1.54067 -0.331816 0
M  V30 5692 C 533.063 2.24623 0.530372 0
M  V30 5693 C 534.033 1.24009 1.10503 0
M  V30 5694 O 535.218 1.52712 1.14384 0
M  V30 5695 C 532.358 3.01374 1.68129 0
M  V30 5696 C 531.471 4.16821 1.13507 0
M  V30 5697 C 530.606 4.81085 2.25234 0
M  V30 5698 C 529.645 5.88621 1.67903 0
M  V30 5699 N 528.782 6.46713 2.73326 0
M  V30 5700 H 533.622 2.97898 -0.0778607 0
M  V30 5701 H 531.159 1.47014 -0.0501965 0
M  V30 5702 H 533.117 3.44125 2.35868 0
M  V30 5703 H 531.747 2.30419 2.26069 0
M  V30 5704 H 530.799 3.78796 0.348979 0
M  V30 5705 H 532.111 4.94203 0.675633 0
M  V30 5706 H 531.265 5.26846 3.00862 0
M  V30 5707 H 530.004 4.03102 2.74518 0
M  V30 5708 H 529.009 5.42254 0.907773 0
M  V30 5709 H 530.234 6.68506 1.19487 0
M  V30 5710 H 528.18 5.71599 3.21886 0
M  V30 5711 H 528.097 7.19532 2.3197 0
M  V30 5712 H 529.365 6.97129 3.48758 0
M  V30 5713 N 533.594 0.0601682 1.57485 0
M  V30 5714 C 534.819 -0.624416 1.97777 0
M  V30 5715 C 535.244 -1.63051 0.937867 0
M  V30 5716 O 534.602 -1.81036 -0.0978845 0
M  V30 5717 C 534.65 -1.27979 3.37126 0
M  V30 5718 O 533.754 -2.39556 3.35688 0
M  V30 5719 H 533.095 -0.161581 0.64404 0
M  V30 5720 H 535.625 0.131237 2.04179 0
M  V30 5721 H 535.635 -1.62937 3.74053 0
M  V30 5722 H 534.31 -0.542501 4.12347 0
M  V30 5723 H 532.887 -2.06478 3.10517 0
M  V30 5724 N 535.072 -1.5615 -0.213296 0
M  V30 5725 C 536.297 -1.83986 -0.957282 0
M  V30 5726 C 536.722 -0.641526 -1.76822 0
M  V30 5727 O 536.08 0.409722 -1.7661 0
M  V30 5728 C 536.128 -3.09889 -1.84393 0
M  V30 5729 O 535.232 -2.89163 -2.94038 0
M  V30 5730 H 534.573 -0.606357 -0.270605 0
M  V30 5731 H 537.103 -2.03369 -0.224111 0
M  V30 5732 H 537.113 -3.40209 -2.25215 0
M  V30 5733 H 535.788 -3.96735 -1.24795 0
M  V30 5734 H 534.365 -2.70097 -2.57103 0
M  V30 5735 N 536.55 0.480323 -1.50102 0
M  V30 5736 C 537.498 1.60024 -1.68805 0
M  V30 5737 C 538.492 1.60089 -0.553888 0
M  V30 5738 O 539.698 1.64349 -0.734127 0
M  V30 5739 H 536.073 0.530841 -0.532646 0
M  V30 5740 H 538.044 1.41408 -2.62767 0
M  V30 5741 C 536.793 2.98029 -1.79092 0
M  V30 5742 H 536.116 2.98694 -2.65748 0
M  V30 5743 H 537.556 3.75871 -1.96206 0
M  V30 5744 C 536.015 3.32538 -0.540388 0
M  V30 5745 O 536.545 4.00386 0.324637 0
M  V30 5746 N 534.751 2.87873 -0.397154 0
M  V30 5747 H 534.298 2.32834 -1.1021 0
M  V30 5748 H 534.256 3.11328 0.438425 0
M  V30 5749 N 538.028 1.39524 0.732853 0
M  V30 5750 C 539.274 1.37068 1.49467 0
M  V30 5751 C 539.607 -0.0327166 1.94172 0
M  V30 5752 O 538.882 -0.998071 1.66939 0
M  V30 5753 C 539.165 2.34494 2.73285 0
M  V30 5754 C 539.018 3.83784 2.34585 0
M  V30 5755 C 540.337 2.29717 3.75391 0
M  V30 5756 H 537.456 0.499206 0.542183 0
M  V30 5757 H 540.098 1.70532 0.837783 0
M  V30 5758 H 538.248 2.06087 3.29333 0
M  V30 5759 H 539.92 4.22949 1.84151 0
M  V30 5760 H 538.163 4.00455 1.66787 0
M  V30 5761 H 538.834 4.47444 3.23262 0
M  V30 5762 H 541.31 2.54839 3.28932 0
M  V30 5763 H 540.186 2.99962 4.59689 0
M  V30 5764 H 540.447 1.30291 4.22465 0
M  V30 5765 N 539.506 -0.963266 1.24736 0
M  V30 5766 C 540.754 -1.70343 1.08755 0
M  V30 5767 C 541.075 -1.91387 -0.373619 0
M  V30 5768 O 540.345 -1.4948 -1.2662 0
M  V30 5769 H 538.925 -0.631224 0.399456 0
M  V30 5770 H 541.587 -1.15859 1.56725 0
M  V30 5771 H 540.683 -2.68616 1.58909 0
M  V30 5772 N 540.985 -1.06182 -1.16461 0
M  V30 5773 C 542.213 -0.798583 -1.90867 0
M  V30 5774 C 542.628 0.646921 -1.77371 0
M  V30 5775 O 541.985 1.44279 -1.11758 0
M  V30 5776 C 542.036 -1.18258 -3.4161 0
M  V30 5777 O 541.757 -2.57135 -3.54701 0
M  V30 5778 C 543.258 -0.946917 -4.33069 0
M  V30 5779 H 540.478 -0.289603 -0.605286 0
M  V30 5780 H 543.022 -1.41515 -1.47627 0
M  V30 5781 H 541.177 -0.610562 -3.82558 0
M  V30 5782 H 541.591 -2.72477 -4.4817 0
M  V30 5783 H 543.065 -1.26523 -5.37304 0
M  V30 5784 H 543.542 0.117406 -4.39043 0
M  V30 5785 H 544.148 -1.50326 -3.97847 0
M  V30 5786 N 542.463 1.3308 -0.844243 0
M  V30 5787 C 543.688 2.02341 -0.455282 0
M  V30 5788 C 544.113 1.6308 0.93737 0
M  V30 5789 O 543.471 0.826118 1.61385 0
M  V30 5790 C 543.519 3.55743 -0.58988 0
M  V30 5791 O 542.623 4.1063 0.38166 0
M  V30 5792 H 541.964 0.637898 -0.184343 0
M  V30 5793 H 544.494 1.6986 -1.14056 0
M  V30 5794 H 544.504 4.05243 -0.473522 0
M  V30 5795 H 543.179 3.83662 -1.60549 0
M  V30 5796 H 541.756 3.72236 0.22241 0
M  V30 5797 N 543.941 0.601185 1.45683 0
M  V30 5798 C 544.888 -0.121396 2.30481 0
M  V30 5799 C 545.858 -0.866232 1.41724 0
M  V30 5800 O 547.043 -0.85324 1.70659 0
M  V30 5801 C 544.183 -1.11704 3.26521 0
M  V30 5802 C 543.296 -0.373741 4.3038 0
M  V30 5803 C 542.431 -1.35854 5.13534 0
M  V30 5804 C 541.47 -0.602689 6.09126 0
M  V30 5805 N 540.607 -1.53645 6.85082 0
M  V30 5806 H 545.447 0.607732 2.91737 0
M  V30 5807 H 542.984 0.311502 1.43764 0
M  V30 5808 H 544.942 -1.70735 3.80664 0
M  V30 5809 H 543.572 -1.81366 2.67032 0
M  V30 5810 H 542.624 0.331962 3.78949 0
M  V30 5811 H 543.936 0.2163 4.98331 0
M  V30 5812 H 543.09 -2.02111 5.72046 0
M  V30 5813 H 541.829 -1.98251 4.45587 0
M  V30 5814 H 540.834 0.0735482 5.49751 0
M  V30 5815 H 542.059 0.0161467 6.79098 0
M  V30 5816 H 540.005 -2.14819 6.1983 0
M  V30 5817 H 539.922 -0.999688 7.49361 0
M  V30 5818 H 541.19 -2.1888 7.48139 0
M  V30 5819 N 545.419 -1.53889 0.339982 0
M  V30 5820 C 546.349 -2.27843 -0.510856 0
M  V30 5821 C 547.33 -1.29267 -1.10563 0
M  V30 5822 O 548.515 -1.58104 -1.12768 0
M  V30 5823 C 545.645 -3.04857 -1.66372 0
M  V30 5824 C 544.599 -4.10907 -1.19746 0
M  V30 5825 C 543.925 -4.75855 -2.43857 0
M  V30 5826 C 545.225 -5.21435 -0.300501 0
M  V30 5827 H 546.919 -2.99212 0.106067 0
M  V30 5828 H 544.465 -1.43904 0.0524533 0
M  V30 5829 H 546.418 -3.5533 -2.26537 0
M  V30 5830 H 545.142 -2.31133 -2.30749 0
M  V30 5831 H 543.801 -3.61342 -0.618654 0
M  V30 5832 H 543.449 -3.9873 -3.06633 0
M  V30 5833 H 543.149 -5.47502 -2.13343 0
M  V30 5834 H 544.673 -5.2911 -3.04754 0
M  V30 5835 H 546.087 -5.67565 -0.80889 0
M  V30 5836 H 544.484 -6.00036 -0.0874076 0
M  V30 5837 H 545.554 -4.80328 0.664321 0
M  V30 5838 N 546.897 -0.0685191 -1.57451 0
M  V30 5839 C 548.122 0.613919 -1.98106 0
M  V30 5840 C 548.547 1.62551 -0.946501 0
M  V30 5841 O 547.905 1.81085 0.0882824 0
M  V30 5842 C 547.953 1.26189 -3.378 0
M  V30 5843 O 547.057 2.37773 -3.36954 0
M  V30 5844 H 546.398 0.158163 -0.644888 0
M  V30 5845 H 548.928 -0.142063 -2.04106 0
M  V30 5846 H 548.938 1.60951 -3.74912 0
M  V30 5847 H 547.613 0.520625 -4.12629 0
M  V30 5848 H 546.19 2.04829 -3.11608 0
M  V30 5849 N 548.375 1.56261 0.205012 0
M  V30 5850 C 549.338 1.92908 1.23771 0
M  V30 5851 C 550.338 0.809208 1.38955 0
M  V30 5852 O 551.528 1.07676 1.36936 0
M  V30 5853 C 548.66 2.19442 2.60879 0
M  V30 5854 H 549.853 2.85287 0.924728 0
M  V30 5855 H 547.406 1.49798 0.446125 0
M  V30 5856 H 548.141 1.29668 2.97248 0
M  V30 5857 H 547.926 3.0104 2.51232 0
M  V30 5858 H 549.416 2.48833 3.35368 0
M  V30 5859 N 549.853 -0.472356 1.50355 0
M  V30 5860 C 551.269 -0.806001 1.37753 0
M  V30 5861 C 551.469 -1.968 0.432649 0
M  V30 5862 O 550.525 -2.52189 -0.12519 0
M  V30 5863 C 551.838 -1.11926 2.79093 0
M  V30 5864 C 553.386 -1.22579 2.87999 0
M  V30 5865 C 553.861 -1.57218 4.3017 0
M  V30 5866 N 555.352 -1.64212 4.33115 0
M  V30 5867 C 556.087 -1.92517 5.40116 0
M  V30 5868 N 555.583 -2.1885 6.57325 0
M  V30 5869 N 557.376 -1.94008 5.27558 0
M  V30 5870 H 549.527 0.293451 2.10363 0
M  V30 5871 H 551.79 0.0687672 0.945503 0
M  V30 5872 H 551.496 -0.338504 3.50067 0
M  V30 5873 H 551.37 -2.05577 3.16256 0
M  V30 5874 H 553.757 -1.99722 2.17245 0
M  V30 5875 H 553.838 -0.269107 2.54381 0
M  V30 5876 H 553.482 -0.806154 5.01461 0
M  V30 5877 H 553.412 -2.54034 4.61275 0
M  V30 5878 H 555.903 -1.45906 3.48597 0
M  V30 5879 H 556.216 -2.39718 7.3468 0
M  V30 5880 H 554.561 -2.16245 6.60502 0
M  V30 5881 H 557.752 -1.72931 4.34986 0
M  V30 5882 H 557.925 -2.15731 6.11035 0
M  V30 5883 N 551.331 -1.39911 -0.725443 0
M  V30 5884 C 552.578 -1.37654 -1.48518 0
M  V30 5885 C 552.906 0.0243982 -1.94485 0
M  V30 5886 O 552.161 1.00708 -1.67799 0
M  V30 5887 C 552.46 -2.30368 -2.7325 0
M  V30 5888 C 552.126 -3.77817 -2.461 0
M  V30 5889 C 550.788 -4.17991 -2.38405 0
M  V30 5890 C 553.14 -4.71036 -2.23103 0
M  V30 5891 C 550.468 -5.49433 -2.05768 0
M  V30 5892 C 552.82 -6.02766 -1.9198 0
M  V30 5893 C 551.484 -6.41993 -1.82761 0
M  V30 5894 H 550.754 -0.503713 -0.543465 0
M  V30 5895 H 553.401 -1.7249 -0.831822 0
M  V30 5896 H 551.706 -1.88683 -3.43375 0
M  V30 5897 H 553.403 -2.2591 -3.31309 0
M  V30 5898 H 549.993 -3.45982 -2.52972 0
M  V30 5899 H 554.177 -4.40823 -2.2801 0
M  V30 5900 H 549.433 -5.78738 -1.9716 0
M  V30 5901 H 553.607 -6.74519 -1.73197 0
M  V30 5902 H 551.234 -7.43761 -1.57237 0
M  V30 5903 N 552.809 0.956637 -1.25245 0
M  V30 5904 C 554.057 1.69764 -1.09657 0
M  V30 5905 C 554.378 1.91583 0.363464 0
M  V30 5906 O 553.648 1.50149 1.25825 0
M  V30 5907 H 552.228 0.629097 -0.402798 0
M  V30 5908 H 554.89 1.15026 -1.57337 0
M  V30 5909 H 553.986 2.67769 -1.60331 0
M  V30 5910 N 554.287 1.06798 1.15896 0
M  V30 5911 C 555.25 0.687328 2.18651 0
M  V30 5912 C 556.25 -0.269559 1.58524 0
M  V30 5913 O 557.44 -0.0512627 1.74125 0
M  V30 5914 C 554.572 0.0121642 3.40898 0
M  V30 5915 H 555.765 1.59701 2.53842 0
M  V30 5916 H 553.318 0.863828 1.3026 0
M  V30 5917 H 554.053 -0.910025 3.1127 0
M  V30 5918 H 553.838 0.700309 3.85795 0
M  V30 5919 H 555.328 -0.239703 4.16911 0
M  V30 5920 N 555.766 -1.3263 0.851289 0
M  V30 5921 C 556.676 -2.32722 0.296268 0
M  V30 5922 C 557.692 -1.63901 -0.584162 0
M  V30 5923 O 558.868 -1.95465 -0.485334 0
M  V30 5924 C 555.933 -3.42942 -0.509103 0
M  V30 5925 C 554.994 -4.2746 0.397069 0
M  V30 5926 C 554.227 -5.32416 -0.36996 0
M  V30 5927 O 554.45 -5.47491 -1.6003 0
M  V30 5928 O 553.384 -6.01327 0.262493 0
M  V30 5929 H 557.21 -2.82078 1.12543 0
M  V30 5930 H 554.795 -1.36194 0.614135 0
M  V30 5931 H 556.677 -4.1017 -0.96634 0
M  V30 5932 H 555.352 -2.95781 -1.31512 0
M  V30 5933 H 554.259 -3.63053 0.902411 0
M  V30 5934 H 555.592 -4.78136 1.16818 0
M  V30 5935 N 557.244 -0.608902 -1.45362 0
M  V30 5936 C 558.154 0.110969 -2.34337 0
M  V30 5937 C 559.17 0.859007 -1.51318 0
M  V30 5938 O 560.346 0.816296 -1.84116 0
M  V30 5939 C 557.411 1.09494 -3.28956 0
M  V30 5940 C 556.472 0.348718 -4.27881 0
M  V30 5941 C 555.705 1.28582 -5.17979 0
M  V30 5942 O 555.928 2.52369 -5.11533 0
M  V30 5943 O 554.862 0.782172 -5.96796 0
M  V30 5944 H 558.688 -0.620258 -2.97299 0
M  V30 5945 H 556.273 -0.36916 -1.44767 0
M  V30 5946 H 558.155 1.66163 -3.87257 0
M  V30 5947 H 556.83 1.80717 -2.68557 0
M  V30 5948 H 555.737 -0.260465 -3.73192 0
M  V30 5949 H 557.07 -0.323049 -4.91139 0
M  V30 5950 N 558.722 1.53707 -0.348139 0
M  V30 5951 C 559.655 2.21481 0.549667 0
M  V30 5952 C 560.633 1.20046 1.09671 0
M  V30 5953 O 561.817 1.48883 1.15612 0
M  V30 5954 C 558.944 2.89585 1.75664 0
M  V30 5955 C 557.99 4.04948 1.33864 0
M  V30 5956 S 558.823 5.34325 0.354577 0
M  V30 5957 C 559.979 6.05934 1.56828 0
M  V30 5958 H 560.212 2.97289 -0.0259755 0
M  V30 5959 H 557.745 1.53833 -0.132216 0
M  V30 5960 H 559.703 3.29441 2.44906 0
M  V30 5961 H 558.364 2.13535 2.30351 0
M  V30 5962 H 557.557 4.51552 2.23868 0
M  V30 5963 H 557.159 3.66893 0.725651 0
M  V30 5964 H 559.451 6.29606 2.50205 0
M  V30 5965 H 560.394 6.98799 1.14395 0
M  V30 5966 H 560.802 5.36151 1.76642 0
M  V30 5967 N 560.2 0.0768682 1.57412 0
M  V30 5968 C 561.43 -0.5991 1.97723 0
M  V30 5969 C 561.838 -1.63378 0.954166 0
M  V30 5970 O 561.181 -1.83578 -0.0668706 0
M  V30 5971 C 561.243 -1.32078 3.34358 0
M  V30 5972 C 560.907 -0.438985 4.54887 0
M  V30 5973 C 561.904 0.305492 5.19002 0
M  V30 5974 C 559.589 -0.362378 5.00991 0
M  V30 5975 C 561.583 1.11475 6.27576 0
M  V30 5976 C 559.27 0.450543 6.09437 0
M  V30 5977 C 560.268 1.18777 6.72593 0
M  V30 5978 O 559.956 1.98727 7.7895 0
M  V30 5979 H 559.688 -0.166725 0.655117 0
M  V30 5980 H 562.242 0.147337 2.04871 0
M  V30 5981 H 560.472 -2.1134 3.2384 0
M  V30 5982 H 562.161 -1.88949 3.5924 0
M  V30 5983 H 562.927 0.25593 4.84324 0
M  V30 5984 H 558.806 -0.925832 4.51608 0
M  V30 5985 H 562.35 1.69068 6.76803 0
M  V30 5986 H 558.247 0.501651 6.43548 0
M  V30 5987 H 559.015 1.91214 7.95851 0
M  V30 5988 N 561.678 -1.56367 -0.196722 0
M  V30 5989 C 562.955 -1.71359 -0.943159 0
M  V30 5990 C 563.335 -0.631192 -2.01443 0
M  V30 5991 O 562.683 0.358071 -2.25677 0
M  V30 5992 C 562.893 -3.13623 -1.53106 0
M  V30 5993 C 564.241 -3.73806 -2.01381 0
M  V30 5994 O 565.265 -3.16742 -1.62951 0
M  V30 5995 O 564.124 -4.73951 -2.7209 0
M  V30 5996 H 561.218 -0.698851 -0.442195 0
M  V30 5997 H 563.764 -1.68672 -0.186547 0
M  V30 5998 H 562.536 -3.83873 -0.758785 0
M  V30 5999 H 562.159 -3.20532 -2.35255 0
M  V30 6000 N 563.156 0.464375 -1.50603 0
M  V30 6001 C 564.403 1.21596 -1.61928 0
M  V30 6002 C 564.731 1.91804 -0.322737 0
M  V30 6003 O 563.986 1.83065 0.691776 0
M  V30 6004 C 564.285 2.278 -2.75394 0
M  V30 6005 C 563.951 1.74797 -4.1564 0
M  V30 6006 C 562.613 1.60063 -4.53799 0
M  V30 6007 C 564.965 1.35548 -5.03266 0
M  V30 6008 C 562.293 1.04514 -5.77316 0
M  V30 6009 C 564.645 0.814381 -6.27336 0
M  V30 6010 C 563.309 0.653726 -6.64291 0
M  V30 6011 H 562.579 0.444951 -0.592536 0
M  V30 6012 H 565.226 0.510964 -1.84557 0
M  V30 6013 H 563.531 3.04233 -2.46879 0
M  V30 6014 H 565.228 2.85723 -2.81359 0
M  V30 6015 H 561.818 1.87234 -3.8554 0
M  V30 6016 H 566.002 1.45763 -4.74412 0
M  V30 6017 H 561.258 0.908186 -6.04617 0
M  V30 6018 H 565.432 0.501626 -6.94591 0
M  V30 6019 H 563.059 0.22114 -7.59878 0
M  V30 6020 N 564.634 1.40294 0.718013 0
M  V30 6021 C 565.864 1.41544 1.50495 0
M  V30 6022 C 566.272 0.0127877 1.89196 0
M  V30 6023 O 565.615 -0.97305 1.55812 0
M  V30 6024 C 565.677 2.24021 2.81167 0
M  V30 6025 C 565.341 3.72463 2.64803 0
M  V30 6026 C 566.338 4.65154 2.32223 0
M  V30 6027 C 564.023 4.1625 2.81143 0
M  V30 6028 C 566.017 5.99618 2.16189 0
M  V30 6029 C 563.704 5.50784 2.64727 0
M  V30 6030 C 564.702 6.42283 2.32297 0
M  V30 6031 O 564.39 7.74337 2.16004 0
M  V30 6032 H 564.122 0.484819 0.471091 0
M  V30 6033 H 566.676 1.84948 0.893488 0
M  V30 6034 H 564.906 1.75393 3.44636 0
M  V30 6035 H 566.595 2.17243 3.42871 0
M  V30 6036 H 567.361 4.32622 2.19234 0
M  V30 6037 H 563.24 3.45352 3.05373 0
M  V30 6038 H 566.784 6.71 1.90799 0
M  V30 6039 H 562.681 5.82902 2.773 0
M  V30 6040 H 563.449 7.85244 2.30942 0
M  V30 6041 N 566.112 -0.949982 1.2575 0
M  V30 6042 C 567.062 -2.03297 1.03221 0
M  V30 6043 C 568.046 -1.60867 -0.0324751 0
M  V30 6044 O 569.238 -1.76047 0.183423 0
M  V30 6045 C 566.367 -3.36938 0.657841 0
M  V30 6046 C 565.453 -3.85878 1.75952 0
M  V30 6047 N 565.844 -4.0756 2.99547 0
M  V30 6048 C 564.142 -4.14709 1.64111 0
M  V30 6049 C 564.843 -4.47961 3.71087 0
M  V30 6050 N 563.819 -4.5416 2.98731 0
M  V30 6051 H 567.621 -2.1806 1.97045 0
M  V30 6052 H 565.135 -1.13516 1.16138 0
M  V30 6053 H 567.132 -4.14155 0.477614 0
M  V30 6054 H 565.792 -3.2355 -0.273025 0
M  V30 6055 H 566.803 -3.94501 3.35544 0
M  V30 6056 H 563.48 -4.10158 0.779527 0
M  V30 6057 H 564.87 -4.73002 4.77199 0
M  V30 6058 N 567.59 -1.07411 -1.15328 0
M  V30 6059 C 568.5 -0.706438 -2.23711 0
M  V30 6060 C 569.516 0.282586 -1.7169 0
M  V30 6061 O 570.692 0.129066 -2.00986 0
M  V30 6062 C 567.757 -0.11048 -3.46524 0
M  V30 6063 C 566.818 -1.15282 -4.13532 0
M  V30 6064 C 566.051 -0.585205 -5.30482 0
M  V30 6065 O 566.274 0.598549 -5.67251 0
M  V30 6066 O 565.208 -1.33039 -5.87013 0
M  V30 6067 H 569.034 -1.61031 -2.57493 0
M  V30 6068 H 566.619 -0.847113 -1.23062 0
M  V30 6069 H 568.501 0.21957 -4.20828 0
M  V30 6070 H 567.176 0.766703 -3.14489 0
M  V30 6071 H 566.083 -1.53523 -3.41147 0
M  V30 6072 H 567.416 -2.00192 -4.49649 0
M  V30 6073 N 569.068 1.32177 -0.85831 0
M  V30 6074 C 569.998 2.31282 -0.321041 0
M  V30 6075 C 570.979 1.59841 0.581786 0
M  V30 6076 O 572.164 1.87619 0.501262 0
M  V30 6077 C 569.294 3.4385 0.48832 0
M  V30 6078 C 568.248 4.26799 -0.320391 0
M  V30 6079 C 567.574 5.31164 0.613934 0
M  V30 6080 C 568.874 4.98829 -1.54813 0
M  V30 6081 H 570.568 2.76469 -1.14915 0
M  V30 6082 H 568.114 1.32916 -0.554028 0
M  V30 6083 H 570.067 4.12224 0.874626 0
M  V30 6084 H 568.791 2.97401 1.34983 0
M  V30 6085 H 567.45 3.60077 -0.688497 0
M  V30 6086 H 567.098 4.80967 1.47239 0
M  V30 6087 H 566.798 5.8755 0.0768097 0
M  V30 6088 H 568.322 6.024 0.997336 0
M  V30 6089 H 569.736 5.59864 -1.23392 0
M  V30 6090 H 568.133 5.64957 -2.02346 0
M  V30 6091 H 569.203 4.26483 -2.30739 0
M  V30 6092 N 570.547 0.616602 1.45037 0
M  V30 6093 C 571.795 0.115103 2.01772 0
M  V30 6094 C 572.116 -1.2622 1.48639 0
M  V30 6095 O 571.386 -1.83563 0.684199 0
M  V30 6096 H 569.966 0.0395607 0.745952 0
M  V30 6097 H 572.628 0.800032 1.77723 0
M  V30 6098 H 571.724 0.0717274 3.12018 0
M  V30 6099 N 572.025 -1.5352 0.356285 0
M  V30 6100 C 573.274 -2.00298 -0.237373 0
M  V30 6101 C 573.587 -1.24784 -1.50627 0
M  V30 6102 O 574.793 -1.62103 -2.17795 0
M  V30 6103 C 573.249 -3.56771 -0.473545 0
M  V30 6104 C 572.857 -4.41154 0.780183 0
M  V30 6105 C 574.601 -4.1193 -1.02537 0
M  V30 6106 C 572.508 -5.89161 0.514108 0
M  V30 6107 H 571.438 -0.748307 -0.092478 0
M  V30 6108 H 574.089 -1.77283 0.473588 0
M  V30 6109 H 572.471 -3.75902 -1.24553 0
M  V30 6110 H 573.645 -4.33797 1.55425 0
M  V30 6111 H 571.96 -3.97052 1.25455 0
M  V30 6112 H 574.557 -5.20133 -1.2396 0
M  V30 6113 H 574.9 -3.65943 -1.98473 0
M  V30 6114 H 575.433 -3.96561 -0.313775 0
M  V30 6115 H 572.172 -6.39408 1.44355 0
M  V30 6116 H 571.692 -5.9939 -0.221632 0
M  V30 6117 H 573.371 -6.46857 0.136122 0
M  V30 6118 N 573.503 -0.0852151 -1.57369 0
M  V30 6119 C 574.751 0.579658 -1.93609 0
M  V30 6120 C 575.072 1.69332 -0.967043 0
M  V30 6121 O 574.342 1.95892 -0.0174215 0
M  V30 6122 H 572.922 0.217113 -0.714752 0
M  V30 6123 H 575.584 -0.146226 -1.94351 0
M  V30 6124 H 574.68 0.996276 -2.95771 0
M  V30 6125 N 574.981 1.5647 0.188427 0
M  V30 6126 C 576.227 1.81281 0.909124 0
M  V30 6127 C 576.56 0.66034 1.82628 0
M  V30 6128 O 575.835 -0.338737 1.91528 0
M  V30 6129 C 576.118 3.16388 1.7196 0
M  V30 6130 C 575.971 4.42137 0.826714 0
M  V30 6131 C 577.29 3.48256 2.69083 0
M  V30 6132 H 574.409 0.659457 0.329068 0
M  V30 6133 H 577.051 1.89182 0.176156 0
M  V30 6134 H 575.201 3.09784 2.34448 0
M  V30 6135 H 576.873 4.60794 0.216025 0
M  V30 6136 H 575.116 4.33594 0.133792 0
M  V30 6137 H 575.787 5.33184 1.42893 0
M  V30 6138 H 578.263 3.55203 2.16726 0
M  V30 6139 H 577.139 4.43899 3.2287 0
M  V30 6140 H 577.4 2.72088 3.48455 0
M  V30 6141 N 576.459 -0.456382 1.50847 0
M  V30 6142 C 577.875 -0.791345 1.386 0
M  V30 6143 C 578.075 -1.9633 0.453498 0
M  V30 6144 O 577.131 -2.52308 -0.0984353 0
M  V30 6145 C 578.444 -1.08959 2.80265 0
M  V30 6146 C 579.992 -1.19517 2.89283 0
M  V30 6147 C 580.467 -1.52647 4.31814 0
M  V30 6148 N 581.958 -1.59609 4.34832 0
M  V30 6149 C 582.693 -1.86777 5.42127 0
M  V30 6150 N 582.189 -2.11866 6.59609 0
M  V30 6151 N 583.982 -1.88402 5.29586 0
M  V30 6152 H 576.133 0.315746 2.1004 0
M  V30 6153 H 578.396 0.0787916 0.94472 0
M  V30 6154 H 578.102 -0.301355 3.50407 0
M  V30 6155 H 577.976 -2.02211 3.18419 0
M  V30 6156 H 580.363 -1.97406 2.19351 0
M  V30 6157 H 580.444 -0.242111 2.54652 0
M  V30 6158 H 580.088 -0.752922 5.02288 0
M  V30 6159 H 580.018 -2.49127 4.63943 0
M  V30 6160 H 582.509 -1.42201 3.50125 0
M  V30 6161 H 582.822 -2.31912 7.37182 0
M  V30 6162 H 581.167 -2.09228 6.62758 0
M  V30 6163 H 584.358 -1.68307 4.36795 0
M  V30 6164 H 584.531 -2.09238 6.13289 0
M  V30 6165 N 577.937 -1.40673 -0.710563 0
M  V30 6166 C 578.87 -1.35742 -1.83438 0
M  V30 6167 C 579.848 -0.226997 -1.61008 0
M  V30 6168 O 581.032 -0.411477 -1.83954 0
M  V30 6169 C 578.159 -1.11374 -3.19865 0
M  V30 6170 C 577.205 -2.26935 -3.61113 0
M  V30 6171 S 578.038 -3.89352 -3.67648 0
M  V30 6172 C 579.194 -3.67258 -5.06826 0
M  V30 6173 H 579.427 -2.30848 -1.87341 0
M  V30 6174 H 576.96 -1.27018 -0.877831 0
M  V30 6175 H 578.918 -0.980004 -3.9863 0
M  V30 6176 H 577.579 -0.179135 -3.13589 0
M  V30 6177 H 576.772 -2.0554 -4.60184 0
M  V30 6178 H 576.374 -2.36638 -2.89618 0
M  V30 6179 H 578.666 -3.26036 -5.93891 0
M  V30 6180 H 579.609 -4.65878 -5.33257 0
M  V30 6181 H 580.017 -3.0084 -4.77656 0
M  V30 6182 N 579.415 0.9433 -1.26252 0
M  V30 6183 C 580.365 2.02746 -1.04297 0
M  V30 6184 C 581.349 1.60882 0.0239435 0
M  V30 6185 O 582.541 1.75947 -0.192757 0
M  V30 6186 C 579.67 3.36585 -0.6757 0
M  V30 6187 C 578.756 3.84939 -1.77996 0
M  V30 6188 N 579.147 4.05966 -3.01704 0
M  V30 6189 C 577.445 4.13833 -1.66308 0
M  V30 6190 C 578.146 4.45987 -3.73458 0
M  V30 6191 N 577.122 4.52569 -3.01135 0
M  V30 6192 H 580.924 2.17012 -1.98199 0
M  V30 6193 H 578.438 1.12898 -1.16738 0
M  V30 6194 H 580.435 4.13896 -0.499571 0
M  V30 6195 H 579.095 3.2369 0.255863 0
M  V30 6196 H 580.106 3.92716 -3.37631 0
M  V30 6197 H 576.783 4.09739 -0.801267 0
M  V30 6198 H 578.173 4.70465 -4.79701 0
M  V30 6199 N 580.893 1.08022 1.14757 0
M  V30 6200 C 582.118 0.82895 1.90114 0
M  V30 6201 C 582.543 -0.612772 1.77839 0
M  V30 6202 O 581.901 -1.42895 1.11583 0
M  V30 6203 C 581.949 1.25062 3.38219 0
M  V30 6204 O 581.053 0.400119 4.10454 0
M  V30 6205 H 580.394 0.301412 0.591648 0
M  V30 6206 H 582.924 1.44062 1.45284 0
M  V30 6207 H 582.934 1.22977 3.89025 0
M  V30 6208 H 581.609 2.30067 3.46471 0
M  V30 6209 H 580.186 0.484052 3.69745 0
M  V30 6210 N 582.371 -1.3172 0.865308 0
M  V30 6211 C 583.619 -1.96487 0.472995 0
M  V30 6212 C 583.94 -1.68761 -0.976975 0
M  V30 6213 O 583.21 -1.00051 -1.68424 0
M  V30 6214 H 581.79 -0.726947 0.171922 0
M  V30 6215 H 584.452 -1.60612 1.10407 0
M  V30 6216 H 583.548 -3.0574 0.62687 0
M  V30 6217 N 583.85 -0.624285 -1.44708 0
M  V30 6218 C 585.096 -0.126051 -2.02107 0
M  V30 6219 C 585.425 1.2496 -1.49048 0
M  V30 6220 O 584.68 1.84163 -0.662005 0
M  V30 6221 C 584.979 -0.0546353 -3.57358 0
M  V30 6222 C 584.644 -1.36815 -4.29642 0
M  V30 6223 C 583.307 -1.72792 -4.49106 0
M  V30 6224 C 585.659 -2.23549 -4.70824 0
M  V30 6225 C 582.986 -2.95222 -5.07012 0
M  V30 6226 C 585.339 -3.45243 -5.30085 0
M  V30 6227 C 584.003 -3.81452 -5.47769 0
M  V30 6228 H 583.273 -0.0461252 -0.739563 0
M  V30 6229 H 585.92 -0.809236 -1.73562 0
M  V30 6230 H 584.225 0.711891 -3.85278 0
M  V30 6231 H 585.922 0.347282 -3.99493 0
M  V30 6232 H 582.512 -1.07817 -4.14817 0
M  V30 6233 H 586.696 -1.9705 -4.55505 0
M  V30 6234 H 581.952 -3.23361 -5.18891 0
M  V30 6235 H 586.125 -4.12689 -5.60946 0
M  V30 6236 H 583.753 -4.76403 -5.92405 0
M  V30 6237 N 585.328 1.53329 -0.364422 0
M  V30 6238 C 586.739 1.86345 0.115039 0
M  V30 6239 C 587.09 1.28505 1.4826 0
M  V30 6240 O 586.215 0.606639 2.07723 0
M  V30 6241 C 586.81 3.38114 0.215522 0
M  V30 6242 C 585.369 3.70932 0.639237 0
M  V30 6243 C 584.516 2.76471 -0.214261 0
M  V30 6244 H 587.467 1.47593 -0.583258 0
M  V30 6245 H 587.488 3.66031 1.0393 0
M  V30 6246 H 587 3.80182 -0.779948 0
M  V30 6247 H 585.101 3.3442 1.64298 0
M  V30 6248 H 585.214 4.77302 0.41465 0
M  V30 6249 H 583.578 2.52724 0.316678 0
M  V30 6250 H 584.361 3.21373 -1.20725 0
M  V30 6251 N 586.806 0.0935595 1.57322 0
M  V30 6252 C 588.054 -0.569383 1.93913 0
M  V30 6253 C 588.375 -1.68817 0.976009 0
M  V30 6254 O 587.645 -1.9588 0.0278099 0
M  V30 6255 H 586.225 -0.21332 0.715894 0
M  V30 6256 H 588.887 0.156531 1.9427 0
M  V30 6257 H 587.983 -0.980577 2.96296 0
M  V30 6258 N 588.284 -1.56567 -0.180126 0
M  V30 6259 C 589.194 -1.98947 -1.24327 0
M  V30 6260 C 590.21 -0.899446 -1.4895 0
M  V30 6261 O 591.386 -1.20639 -1.61271 0
M  V30 6262 C 588.451 -2.33328 -2.56435 0
M  V30 6263 C 587.512 -3.56114 -2.39752 0
M  V30 6264 C 586.745 -3.88845 -3.65561 0
M  V30 6265 O 586.968 -3.22662 -4.70368 0
M  V30 6266 O 585.902 -4.82226 -3.60197 0
M  V30 6267 H 589.728 -2.89634 -0.913565 0
M  V30 6268 H 587.313 -1.44319 -0.386306 0
M  V30 6269 H 589.195 -2.5645 -3.34382 0
M  V30 6270 H 587.87 -1.45806 -2.89002 0
M  V30 6271 H 586.777 -3.38221 -1.59866 0
M  V30 6272 H 588.11 -4.4415 -2.12113 0
M  V30 6273 N 589.762 0.448376 -1.51087 0
M  V30 6274 C 590.99 1.22143 -1.66999 0
M  V30 6275 C 591.405 1.85283 -0.362699 0
M  V30 6276 O 590.762 1.70236 0.65772 0
M  V30 6277 C 590.813 2.31357 -2.7777 0
M  V30 6278 O 590.534 1.70801 -4.03434 0
M  V30 6279 C 592.035 3.21836 -3.04855 0
M  V30 6280 H 589.255 0.368558 -0.560719 0
M  V30 6281 H 591.799 0.532618 -1.97442 0
M  V30 6282 H 589.954 2.95973 -2.49958 0
M  V30 6283 H 590.368 2.42895 -4.64868 0
M  V30 6284 H 591.842 3.94627 -3.85971 0
M  V30 6285 H 592.319 3.81949 -2.16821 0
M  V30 6286 H 592.925 2.62933 -3.34285 0
M  V30 6287 N 591.24 1.41047 0.703093 0
M  V30 6288 C 592.203 1.42036 1.79884 0
M  V30 6289 C 593.203 0.312153 1.57741 0
M  V30 6290 O 594.393 0.571672 1.64553 0
M  V30 6291 C 591.525 1.22437 3.18154 0
M  V30 6292 H 592.718 2.39572 1.80403 0
M  V30 6293 H 590.271 1.27079 0.909977 0
M  V30 6294 H 591.006 0.257112 3.23279 0
M  V30 6295 H 590.791 2.02723 3.35627 0
M  V30 6296 H 592.281 1.25946 3.98155 0
M  V30 6297 N 592.718 -0.936591 1.26751 0
M  V30 6298 C 593.966 -1.67998 1.12343 0
M  V30 6299 C 594.287 -1.92137 -0.332938 0
M  V30 6300 O 593.557 -1.52132 -1.23421 0
M  V30 6301 H 592.137 -0.622609 0.412756 0
M  V30 6302 H 594.799 -1.12509 1.59147 0
M  V30 6303 H 593.895 -2.65185 1.64571 0
M  V30 6304 N 594.196 -1.08629 -1.14182 0
M  V30 6305 C 595.126 -0.740003 -2.21464 0
M  V30 6306 C 596.107 0.278591 -1.67803 0
M  V30 6307 O 597.292 0.148461 -1.93632 0
M  V30 6308 C 594.422 -0.150952 -3.46972 0
M  V30 6309 C 593.376 -1.09815 -4.13672 0
M  V30 6310 C 592.702 -0.3712 -5.3341 0
M  V30 6311 C 594.002 -2.43722 -4.61949 0
M  V30 6312 H 595.696 -1.63697 -2.50686 0
M  V30 6313 H 593.242 -0.788526 -1.20492 0
M  V30 6314 H 595.195 0.103325 -4.21273 0
M  V30 6315 H 593.919 0.781164 -3.1712 0
M  V30 6316 H 592.578 -1.33756 -3.41328 0
M  V30 6317 H 592.226 0.564792 -4.99819 0
M  V30 6318 H 591.926 -1.00267 -5.78982 0
M  V30 6319 H 593.45 -0.12503 -6.10472 0
M  V30 6320 H 594.864 -2.24034 -5.27714 0
M  V30 6321 H 593.261 -3.02582 -5.18232 0
M  V30 6322 H 594.331 -3.05082 -3.76899 0
M  V30 6323 N 595.674 1.31259 -0.872281 0
M  V30 6324 C 596.604 2.30929 -0.345554 0
M  V30 6325 C 597.585 1.60449 0.5648 0
M  V30 6326 O 598.77 1.8814 0.481335 0
M  V30 6327 C 595.9 3.44348 0.451823 0
M  V30 6328 C 594.854 4.26435 -0.365641 0
M  V30 6329 C 594.18 5.31785 0.557562 0
M  V30 6330 C 595.48 4.97159 -1.60095 0
M  V30 6331 H 597.174 2.75234 -1.17841 0
M  V30 6332 H 594.72 1.3232 -0.568094 0
M  V30 6333 H 596.673 4.13128 0.830854 0
M  V30 6334 H 595.397 2.98816 1.31821 0
M  V30 6335 H 594.056 3.59326 -0.726649 0
M  V30 6336 H 593.704 4.82502 1.4213 0
M  V30 6337 H 593.404 5.87598 0.0144878 0
M  V30 6338 H 594.928 6.03424 0.933387 0
M  V30 6339 H 596.342 5.58523 -1.29323 0
M  V30 6340 H 594.739 5.62779 -2.08327 0
M  V30 6341 H 595.809 4.24012 -2.35249 0
M  V30 6342 N 597.152 0.631951 1.44375 0
M  V30 6343 C 598.568 0.297642 1.568 0
M  V30 6344 C 598.768 -1.19916 1.61934 0
M  V30 6345 O 597.824 -1.98324 1.56281 0
M  V30 6346 C 599.137 0.990286 2.83926 0
M  V30 6347 C 600.685 0.968507 2.97639 0
M  V30 6348 C 601.16 1.64163 4.27568 0
M  V30 6349 N 602.651 1.60826 4.34384 0
M  V30 6350 C 603.386 2.09802 5.33639 0
M  V30 6351 N 602.882 2.66973 6.39294 0
M  V30 6352 N 604.675 2.00426 5.25153 0
M  V30 6353 H 596.826 1.60353 1.39286 0
M  V30 6354 H 599.089 0.673142 0.667521 0
M  V30 6355 H 598.795 2.04519 2.8612 0
M  V30 6356 H 598.669 0.528563 3.73478 0
M  V30 6357 H 601.056 -0.0779247 2.94997 0
M  V30 6358 H 601.137 1.46873 2.09433 0
M  V30 6359 H 600.781 2.68752 4.3097 0
M  V30 6360 H 600.711 1.11624 5.14634 0
M  V30 6361 H 603.202 1.19087 3.58646 0
M  V30 6362 H 603.515 3.02074 7.11316 0
M  V30 6363 H 601.86 2.71024 6.39977 0
M  V30 6364 H 605.051 1.55483 4.41523 0
M  V30 6365 H 605.224 2.38906 6.02352 0
M  V30 6366 N 598.631 -1.53133 0.372548 0
M  V30 6367 C 599.579 -2.27473 -0.485681 0
M  V30 6368 C 600.573 -1.30719 -1.07745 0
M  V30 6369 O 601.779 -1.48321 -1.01985 0
M  V30 6370 H 598.154 -0.731269 -0.175356 0
M  V30 6371 H 600.125 -2.97955 0.162986 0
M  V30 6372 C 598.874 -3.08191 -1.60978 0
M  V30 6373 H 598.197 -3.82488 -1.16373 0
M  V30 6374 H 599.637 -3.63373 -2.18485 0
M  V30 6375 C 598.096 -2.19461 -2.55614 0
M  V30 6376 O 598.626 -1.81008 -3.58607 0
M  V30 6377 N 596.832 -1.83955 -2.24965 0
M  V30 6378 H 596.379 -2.15423 -1.41247 0
M  V30 6379 H 596.337 -1.24874 -2.88538 0
M  V30 6380 N 600.109 -0.101901 -1.5727 0
M  V30 6381 C 601.355 0.554864 -1.95686 0
M  V30 6382 C 601.71 1.65368 -0.983415 0
M  V30 6383 O 601.003 1.91597 -0.0105374 0
M  V30 6384 C 601.197 1.14898 -3.38427 0
M  V30 6385 C 601.026 0.109251 -4.49567 0
M  V30 6386 C 599.796 -0.316633 -5.04307 0
M  V30 6387 C 601.994 -0.665196 -5.0998 0
M  V30 6388 N 599.976 -1.34393 -5.99009 0
M  V30 6389 C 601.347 -1.54413 -6.00464 0
M  V30 6390 C 603.402 -0.717966 -4.92696 0
M  V30 6391 C 602.105 -2.47122 -6.75517 0
M  V30 6392 C 604.131 -1.63268 -5.68417 0
M  V30 6393 C 603.493 -2.49923 -6.58572 0
M  V30 6394 H 599.592 0.17317 -0.762585 0
M  V30 6395 H 602.176 -0.18605 -1.93809 0
M  V30 6396 H 600.347 1.85969 -3.40984 0
M  V30 6397 H 602.079 1.76867 -3.64006 0
M  V30 6398 H 598.834 0.0724419 -4.73545 0
M  V30 6399 H 599.258 -1.85598 -6.51062 0
M  V30 6400 H 603.9 -0.0621637 -4.22754 0
M  V30 6401 H 601.618 -3.13724 -7.44717 0
M  V30 6402 H 605.204 -1.67874 -5.57054 0
M  V30 6403 H 604.084 -3.19553 -7.16139 0
M  V30 6404 N 601.587 1.56661 0.17182 0
M  V30 6405 C 603.003 1.50768 0.52357 0
M  V30 6406 C 603.203 0.806072 1.84675 0
M  V30 6407 O 602.259 0.366233 2.4983 0
M  V30 6408 C 603.572 2.955 0.556793 0
M  V30 6409 C 605.12 3.06303 0.644029 0
M  V30 6410 C 605.595 4.52492 0.708148 0
M  V30 6411 N 607.086 4.56737 0.771051 0
M  V30 6412 C 607.821 5.67196 0.841229 0
M  V30 6413 N 607.317 6.87287 0.872272 0
M  V30 6414 N 609.11 5.55165 0.88021 0
M  V30 6415 H 601.261 2.00679 -0.695817 0
M  V30 6416 H 603.524 0.914219 -0.250814 0
M  V30 6417 H 603.23 3.49986 -0.346774 0
M  V30 6418 H 603.104 3.50119 1.40346 0
M  V30 6419 H 605.491 2.51851 1.53802 0
M  V30 6420 H 605.572 2.5477 -0.229297 0
M  V30 6421 H 605.216 5.07575 -0.181585 0
M  V30 6422 H 605.146 5.01781 1.59761 0
M  V30 6423 H 607.637 3.70274 0.755364 0
M  V30 6424 H 607.95 7.6722 0.92698 0
M  V30 6425 H 606.295 6.89898 0.840557 0
M  V30 6426 H 609.486 4.60263 0.852956 0
M  V30 6427 H 609.659 6.41271 0.931439 0
M  V30 6428 N 603.065 -0.440357 1.51323 0
M  V30 6429 C 604.481 -0.7766 1.39431 0
M  V30 6430 C 604.681 -1.95838 0.474296 0
M  V30 6431 O 603.737 -2.52398 -0.0716692 0
M  V30 6432 C 605.05 -1.05981 2.81405 0
M  V30 6433 C 606.598 -1.16442 2.90534 0
M  V30 6434 C 607.073 -1.48058 4.33408 0
M  V30 6435 N 608.564 -1.54988 4.36501 0
M  V30 6436 C 609.299 -1.81017 5.44078 0
M  V30 6437 N 608.795 -2.04858 6.61819 0
M  V30 6438 N 610.588 -1.82774 5.31554 0
M  V30 6439 H 602.739 0.338006 2.09693 0
M  V30 6440 H 605.002 0.0888072 0.943831 0
M  V30 6441 H 604.708 -0.264173 3.50706 0
M  V30 6442 H 604.582 -1.98822 3.20546 0
M  V30 6443 H 606.969 -1.95068 2.21432 0
M  V30 6444 H 607.05 -0.215088 2.54894 0
M  V30 6445 H 606.694 -0.699605 5.03059 0
M  V30 6446 H 606.624 -2.44192 4.66559 0
M  V30 6447 H 609.115 -1.38479 3.51613 0
M  V30 6448 H 609.428 -2.2408 7.396 0
M  V30 6449 H 607.773 -2.02187 6.6494 0
M  V30 6450 H 610.964 -1.63665 4.38556 0
M  V30 6451 H 611.137 -2.02722 6.15474 0
M  V30 6452 N 604.543 -1.41418 -0.695603 0
M  V30 6453 C 605.789 -1.41983 -1.45645 0
M  V30 6454 C 606.144 -0.0282216 -1.92379 0
M  V30 6455 O 605.437 0.945916 -1.66622 0
M  V30 6456 C 605.631 -2.36112 -2.68302 0
M  V30 6457 C 605.46 -3.84288 -2.33566 0
M  V30 6458 C 604.23 -4.52971 -2.23932 0
M  V30 6459 C 606.428 -4.75264 -1.96543 0
M  V30 6460 N 604.41 -5.86276 -1.82081 0
M  V30 6461 C 605.781 -5.97517 -1.6545 0
M  V30 6462 C 607.836 -4.62911 -1.83352 0
M  V30 6463 C 606.539 -7.08793 -1.22492 0
M  V30 6464 C 608.565 -5.74149 -1.41799 0
M  V30 6465 C 607.927 -6.95501 -1.11617 0
M  V30 6466 H 604.026 -0.574771 -0.530247 0
M  V30 6467 H 606.61 -1.77289 -0.804788 0
M  V30 6468 H 604.781 -2.02902 -3.31188 0
M  V30 6469 H 606.513 -2.27397 -3.34773 0
M  V30 6470 H 603.268 -4.06909 -2.42327 0
M  V30 6471 H 603.692 -6.56926 -1.63638 0
M  V30 6472 H 608.334 -3.69588 -2.05341 0
M  V30 6473 H 606.052 -8.01982 -0.992482 0
M  V30 6474 H 609.638 -5.66595 -1.32143 0
M  V30 6475 H 608.518 -7.80114 -0.799493 0
M  V30 6476 N 606.021 0.929856 -1.27246 0
M  V30 6477 C 607.437 1.20542 -1.04603 0
M  V30 6478 C 607.637 2.00276 0.221754 0
M  V30 6479 O 606.693 2.34835 0.927833 0
M  V30 6480 C 608.006 1.95566 -2.28417 0
M  V30 6481 C 609.554 2.08513 -2.33433 0
M  V30 6482 C 610.029 2.86943 -3.5697 0
M  V30 6483 N 611.52 2.94512 -3.57515 0
M  V30 6484 C 612.255 3.55656 -4.49774 0
M  V30 6485 N 611.751 4.18209 -5.52334 0
M  V30 6486 N 613.544 3.53038 -4.37402 0
M  V30 6487 H 605.695 0.397113 -2.08655 0
M  V30 6488 H 607.958 0.238277 -0.917566 0
M  V30 6489 H 607.664 1.44395 -3.20691 0
M  V30 6490 H 607.538 2.9619 -2.33563 0
M  V30 6491 H 609.925 2.58872 -1.41666 0
M  V30 6492 H 610.006 1.07117 -2.32292 0
M  V30 6493 H 609.65 2.37268 -4.49072 0
M  V30 6494 H 609.58 3.8862 -3.55362 0
M  V30 6495 H 612.071 2.50053 -2.83341 0
M  V30 6496 H 612.384 4.62796 -6.18902 0
M  V30 6497 H 610.729 4.16761 -5.56179 0
M  V30 6498 H 613.92 3.0337 -3.56489 0
M  V30 6499 H 614.093 4.004 -5.09493 0
M  V30 6500 N 607.499 1.09233 1.13605 0
M  V30 6501 C 608.91 0.846839 1.6639 0
M  V30 6502 C 609.261 -0.625031 1.85978 0
M  V30 6503 O 608.386 -1.48173 1.57714 0
M  V30 6504 C 608.981 1.5307 3.0225 0
M  V30 6505 C 607.54 1.33223 3.52035 0
M  V30 6506 C 606.687 1.58806 2.27323 0
M  V30 6507 H 609.638 1.25175 0.975541 0
M  V30 6508 H 609.659 0.96267 3.68121 0
M  V30 6509 H 609.171 2.60192 2.87961 0
M  V30 6510 H 607.272 0.282091 3.71531 0
M  V30 6511 H 607.385 2.0657 4.32279 0
M  V30 6512 H 605.749 1.01007 2.33815 0
M  V30 6513 H 606.532 2.67153 2.15602 0
M  V30 6514 N 608.977 -1.30795 0.87923 0
M  V30 6515 C 610.226 -1.95636 0.490875 0
M  V30 6516 C 610.539 -1.70214 -0.963674 0
M  V30 6517 O 611.745 -2.28991 -1.45861 0
M  V30 6518 C 610.201 -3.50271 0.826929 0
M  V30 6519 C 609.809 -3.84521 2.29886 0
M  V30 6520 C 611.553 -4.21456 0.507494 0
M  V30 6521 C 609.46 -5.32309 2.57685 0
M  V30 6522 H 608.39 -0.732238 0.179841 0
M  V30 6523 H 611.041 -1.48829 1.07341 0
M  V30 6524 H 609.423 -3.9562 0.173542 0
M  V30 6525 H 610.597 -3.50102 2.99609 0
M  V30 6526 H 608.912 -3.26425 2.58526 0
M  V30 6527 H 611.509 -5.30199 0.692293 0
M  V30 6528 H 611.852 -4.12614 -0.552718 0
M  V30 6529 H 612.385 -3.81772 1.11782 0
M  V30 6530 H 609.124 -5.46195 3.62424 0
M  V30 6531 H 608.644 -5.68048 1.92566 0
M  V30 6532 H 610.323 -5.99678 2.42889 0
M  V30 6533 N 610.455 -0.639598 -1.44038 0
M  V30 6534 C 611.365 0.0612377 -2.3452 0
M  V30 6535 C 612.381 0.826717 -1.53106 0
M  V30 6536 O 613.557 0.777059 -1.85806 0
M  V30 6537 C 610.622 1.02492 -3.31204 0
M  V30 6538 C 609.683 0.25788 -4.28525 0
M  V30 6539 C 608.916 1.17566 -5.2059 0
M  V30 6540 O 609.139 2.41461 -5.16771 0
M  V30 6541 O 608.073 0.655407 -5.98321 0
M  V30 6542 H 611.899 -0.68318 -2.95916 0
M  V30 6543 H 609.484 -0.399784 -1.43952 0
M  V30 6544 H 611.366 1.57911 -3.90694 0
M  V30 6545 H 610.041 1.7498 -2.7233 0
M  V30 6546 H 608.948 -0.339566 -3.72556 0
M  V30 6547 H 610.281 -0.427154 -4.90343 0
M  V30 6548 N 611.933 1.52934 -0.380664 0
M  V30 6549 C 612.865 2.23822 0.493581 0
M  V30 6550 C 613.878 1.25761 1.03383 0
M  V30 6551 O 615.067 1.5189 0.937633 0
M  V30 6552 C 612.167 2.9342 1.69582 0
M  V30 6553 C 611.34 4.18115 1.28445 0
M  V30 6554 C 610.399 4.70788 2.35042 0
M  V30 6555 O 609.425 5.34093 1.96807 0
M  V30 6556 N 610.627 4.49899 3.66839 0
M  V30 6557 H 613.392 2.99484 -0.11371 0
M  V30 6558 H 610.953 1.60577 -0.206587 0
M  V30 6559 H 612.945 3.2556 2.40401 0
M  V30 6560 H 611.515 2.21119 2.20965 0
M  V30 6561 H 610.735 3.92109 0.405503 0
M  V30 6562 H 612.023 4.99152 0.986132 0
M  V30 6563 H 611.421 3.99349 4.0067 0
M  V30 6564 H 609.978 4.86551 4.33718 0
M  V30 6565 N 613.412 0.11024 1.57214 0
M  V30 6566 C 614.375 -0.828808 2.1369 0
M  V30 6567 C 615.375 -1.20059 1.06969 0
M  V30 6568 O 616.565 -1.12754 1.32786 0
M  V30 6569 C 613.697 -2.11959 2.66994 0
M  V30 6570 H 614.89 -0.338146 2.97988 0
M  V30 6571 H 612.443 -0.138913 1.55681 0
M  V30 6572 H 613.178 -2.65476 1.8626 0
M  V30 6573 H 612.963 -1.86258 3.45037 0
M  V30 6574 H 614.453 -2.79105 3.10629 0
M  V30 6575 N 614.89 -1.56749 -0.16351 0
M  V30 6576 C 616.118 -1.86577 -0.894233 0
M  V30 6577 C 616.533 -0.696543 -1.75481 0
M  V30 6578 O 615.89 0.334161 -1.79415 0
M  V30 6579 C 615.941 -3.15508 -1.76456 0
M  V30 6580 O 615.662 -4.27926 -0.938685 0
M  V30 6581 C 617.163 -3.58737 -2.60428 0
M  V30 6582 H 614.383 -0.618829 -0.259405 0
M  V30 6583 H 616.927 -2.03863 -0.161259 0
M  V30 6584 H 615.082 -3.00025 -2.45079 0
M  V30 6585 H 615.496 -5.01546 -1.53465 0
M  V30 6586 H 616.97 -4.51832 -3.17099 0
M  V30 6587 H 617.447 -2.83229 -3.35675 0
M  V30 6588 H 618.053 -3.76858 -1.97125 0
M  V30 6589 N 616.368 0.432326 -1.51554 0
M  V30 6590 C 617.301 1.54525 -1.6792 0
M  V30 6591 C 618.279 1.53831 -0.526764 0
M  V30 6592 O 619.463 1.72884 -0.751233 0
M  V30 6593 C 616.59 2.931 -1.69736 0
M  V30 6594 C 615.636 3.11799 -2.91005 0
M  V30 6595 S 616.469 2.87565 -4.51737 0
M  V30 6596 C 617.625 4.28412 -4.56305 0
M  V30 6597 H 617.858 1.4041 -2.62054 0
M  V30 6598 H 615.391 0.622357 -1.41301 0
M  V30 6599 H 617.349 3.72974 -1.71467 0
M  V30 6600 H 616.01 3.04574 -0.767705 0
M  V30 6601 H 615.203 4.13127 -2.8869 0
M  V30 6602 H 614.805 2.39757 -2.87041 0
M  V30 6603 H 617.097 5.21692 -4.32254 0
M  V30 6604 H 618.04 4.35758 -5.58141 0
M  V30 6605 H 618.448 4.12301 -3.85576 0
M  V30 6606 N 617.846 1.41785 0.688094 0
M  V30 6607 C 619.071 1.45117 1.48175 0
M  V30 6608 C 619.496 0.060129 1.88004 0
M  V30 6609 O 618.854 -0.938385 1.55126 0
M  V30 6610 C 618.902 2.37224 2.71583 0
M  V30 6611 O 618.006 1.83443 3.69354 0
M  V30 6612 H 617.347 0.492208 0.445676 0
M  V30 6613 H 619.877 1.86329 0.845145 0
M  V30 6614 H 619.887 2.53353 3.19806 0
M  V30 6615 H 618.562 3.38293 2.41931 0
M  V30 6616 H 617.139 1.76802 3.28322 0
M  V30 6617 N 619.324 -0.923095 1.27737 0
M  V30 6618 C 620.571 -1.67127 1.14345 0
M  V30 6619 C 620.899 -1.92017 -0.30982 0
M  V30 6620 O 620.154 -1.51185 -1.24264 0
M  V30 6621 C 620.453 -3.04125 1.8773 0
M  V30 6622 C 620.119 -2.98929 3.37568 0
M  V30 6623 C 618.781 -2.9722 3.78436 0
M  V30 6624 C 621.133 -2.89875 4.33154 0
M  V30 6625 C 618.461 -2.84244 5.13247 0
M  V30 6626 C 620.813 -2.7844 5.68026 0
M  V30 6627 C 619.477 -2.75083 6.08182 0
M  V30 6628 H 618.747 -0.611562 0.418417 0
M  V30 6629 H 621.394 -1.07618 1.584 0
M  V30 6630 H 619.699 -3.67366 1.36196 0
M  V30 6631 H 621.396 -3.609 1.74792 0
M  V30 6632 H 617.986 -3.0105 3.05069 0
M  V30 6633 H 622.17 -2.9029 4.02548 0
M  V30 6634 H 617.426 -2.80034 5.43499 0
M  V30 6635 H 621.6 -2.70401 6.4176 0
M  V30 6636 H 619.227 -2.64786 7.12596 0
M  V30 6637 N 620.802 -1.09834 -1.13024 0
M  V30 6638 C 622.05 -0.835297 -1.8403 0
M  V30 6639 C 622.371 0.640944 -1.84165 0
M  V30 6640 O 621.641 1.46517 -1.30037 0
M  V30 6641 H 620.221 -0.306018 -0.681441 0
M  V30 6642 H 622.883 -1.38734 -1.36891 0
M  V30 6643 H 621.979 -1.19258 -2.88416 0
M  V30 6644 N 622.28 1.30327 -0.886154 0
M  V30 6645 C 623.51 1.99964 -0.519421 0
M  V30 6646 C 623.918 1.66593 0.89686 0
M  V30 6647 O 623.261 0.899886 1.60149 0
M  V30 6648 C 623.323 3.54187 -0.615795 0
M  V30 6649 C 622.987 4.11078 -1.9966 0
M  V30 6650 C 623.984 4.26985 -2.96614 0
M  V30 6651 C 621.669 4.46429 -2.30231 0
M  V30 6652 C 623.663 4.77456 -4.22273 0
M  V30 6653 C 621.35 4.966 -3.56135 0
M  V30 6654 C 622.348 5.12066 -4.5197 0
M  V30 6655 O 622.036 5.61154 -5.7564 0
M  V30 6656 H 621.768 0.645979 -0.199217 0
M  V30 6657 H 624.322 1.67154 -1.19368 0
M  V30 6658 H 622.552 3.86528 0.115448 0
M  V30 6659 H 624.241 4.05065 -0.26017 0
M  V30 6660 H 625.007 3.99975 -2.74308 0
M  V30 6661 H 620.886 4.33658 -1.56404 0
M  V30 6662 H 624.43 4.89444 -4.97082 0
M  V30 6663 H 620.327 5.23045 -3.78277 0
M  V30 6664 H 621.095 5.79494 -5.78039 0
M  V30 6665 N 623.758 0.647228 1.43697 0
M  V30 6666 C 625.006 0.157876 2.01482 0
M  V30 6667 C 625.327 -1.23039 1.51282 0
M  V30 6668 O 624.597 -1.82071 0.722982 0
M  V30 6669 H 623.177 0.0553745 0.744945 0
M  V30 6670 H 625.839 0.83755 1.75986 0
M  V30 6671 H 624.935 0.137895 3.11795 0
M  V30 6672 N 625.236 -1.5273 0.388769 0
M  V30 6673 C 626.166 -2.29353 -0.438111 0
M  V30 6674 C 627.147 -1.32719 -1.06394 0
M  V30 6675 O 628.332 -1.61612 -1.07681 0
M  V30 6676 C 625.462 -3.09995 -1.56589 0
M  V30 6677 C 624.416 -4.14509 -1.06613 0
M  V30 6678 C 623.742 -4.83372 -2.28594 0
M  V30 6679 C 625.042 -5.22127 -0.134459 0
M  V30 6680 H 626.736 -2.98723 0.201206 0
M  V30 6681 H 624.282 -1.43665 0.0982089 0
M  V30 6682 H 626.235 -3.62357 -2.15118 0
M  V30 6683 H 624.959 -2.38357 -2.23279 0
M  V30 6684 H 623.618 -3.63128 -0.503383 0
M  V30 6685 H 623.266 -4.08283 -2.93792 0
M  V30 6686 H 622.966 -5.54012 -1.95817 0
M  V30 6687 H 624.49 -5.38538 -2.87766 0
M  V30 6688 H 625.904 -5.69851 -0.627914 0
M  V30 6689 H 624.301 -6.00011 0.103534 0
M  V30 6690 H 625.371 -4.77971 0.816798 0
M  V30 6691 N 626.714 -0.118576 -1.57153 0
M  V30 6692 C 627.646 0.862247 -2.12363 0
M  V30 6693 C 628.659 1.23025 -1.06625 0
M  V30 6694 O 629.848 1.17927 -1.33998 0
M  V30 6695 C 626.948 2.16425 -2.60794 0
M  V30 6696 C 626.121 1.96801 -3.90626 0
M  V30 6697 C 625.18 3.10726 -4.2466 0
M  V30 6698 O 624.206 2.83659 -4.93484 0
M  V30 6699 N 625.408 4.37147 -3.81946 0
M  V30 6700 H 628.173 0.390564 -2.97144 0
M  V30 6701 H 625.734 0.0658591 -1.61766 0
M  V30 6702 H 627.726 2.91633 -2.80593 0
M  V30 6703 H 626.296 2.54943 -1.80895 0
M  V30 6704 H 625.516 1.05787 -3.7974 0
M  V30 6705 H 626.804 1.80993 -4.7552 0
M  V30 6706 H 626.202 4.62014 -3.26435 0
M  V30 6707 H 624.759 5.09229 -4.06853 0
M  V30 6708 N 628.193 1.56834 0.155195 0
M  V30 6709 C 629.123 2.00678 1.19376 0
M  V30 6710 C 630.104 0.884973 1.45266 0
M  V30 6711 O 631.289 1.1522 1.56326 0
M  V30 6712 C 628.419 2.38042 2.5289 0
M  V30 6713 C 627.373 3.53332 2.41538 0
M  V30 6714 C 626.699 3.76485 3.79688 0
M  V30 6715 C 627.999 4.86265 1.9064 0
M  V30 6716 H 629.693 2.87688 0.829232 0
M  V30 6717 H 627.239 1.38407 0.397445 0
M  V30 6718 H 629.192 2.67314 3.25763 0
M  V30 6719 H 627.916 1.4796 2.91162 0
M  V30 6720 H 626.575 3.24213 1.71117 0
M  V30 6721 H 626.223 2.83667 4.15382 0
M  V30 6722 H 625.923 4.54068 3.72956 0
M  V30 6723 H 627.447 4.08174 4.54122 0
M  V30 6724 H 628.861 5.14308 2.53299 0
M  V30 6725 H 627.258 5.67597 1.94818 0
M  V30 6726 H 628.328 4.77184 0.861596 0
M  V30 6727 N 629.671 -0.424282 1.51781 0
M  V30 6728 C 630.896 -1.19928 1.6921 0
M  V30 6729 C 631.321 -1.8392 0.394355 0
M  V30 6730 O 630.679 -1.69371 -0.646778 0
M  V30 6731 C 630.727 -2.24937 2.81843 0
M  V30 6732 O 629.831 -3.3073 2.46356 0
M  V30 6733 H 629.172 -0.35078 0.563781 0
M  V30 6734 H 631.702 -0.499401 1.98412 0
M  V30 6735 H 631.712 -2.69512 3.06312 0
M  V30 6736 H 630.387 -1.77742 3.76006 0
M  V30 6737 H 628.964 -2.9154 2.32505 0
M  V30 6738 N 631.149 -1.42148 -0.680565 0
M  V30 6739 C 632.079 -1.4796 -1.80638 0
M  V30 6740 C 633.06 -0.336728 -1.66734 0
M  V30 6741 O 634.245 -0.550247 -1.86242 0
M  V30 6742 C 631.375 -1.37569 -3.18892 0
M  V30 6743 C 630.329 -2.49823 -3.47524 0
M  V30 6744 C 629.655 -2.24491 -4.85291 0
M  V30 6745 C 630.955 -3.92144 -3.44994 0
M  V30 6746 H 632.649 -2.42184 -1.76032 0
M  V30 6747 H 630.195 -1.16566 -0.845481 0
M  V30 6748 H 632.148 -1.40243 -3.97379 0
M  V30 6749 H 630.872 -0.398357 -3.24162 0
M  V30 6750 H 629.531 -2.46455 -2.71395 0
M  V30 6751 H 629.179 -1.25066 -4.87204 0
M  V30 6752 H 628.879 -2.99722 -5.05411 0
M  V30 6753 H 630.403 -2.28906 -5.66069 0
M  V30 6754 H 631.817 -3.97145 -4.13459 0
M  V30 6755 H 630.214 -4.67179 -3.76648 0
M  V30 6756 H 631.284 -4.19225 -2.43676 0
M  V30 6757 N 632.627 0.916307 -1.28225 0
M  V30 6758 C 633.557 2.0352 -1.14464 0
M  V30 6759 C 634.538 1.70045 -0.0430844 0
M  V30 6760 O 635.723 1.92954 -0.219619 0
M  V30 6761 C 632.853 3.37889 -0.803027 0
M  V30 6762 C 631.807 3.85516 -1.85908 0
M  V30 6763 C 631.133 5.1682 -1.37116 0
M  V30 6764 C 632.433 4.07655 -3.26519 0
M  V30 6765 H 634.127 2.1529 -2.08064 0
M  V30 6766 H 631.673 1.03446 -1.00174 0
M  V30 6767 H 633.626 4.15654 -0.693537 0
M  V30 6768 H 632.35 3.26164 0.168674 0
M  V30 6769 H 631.009 3.09953 -1.95767 0
M  V30 6770 H 630.657 5.01497 -0.38859 0
M  V30 6771 H 630.357 5.49657 -2.07728 0
M  V30 6772 H 631.881 5.97143 -1.27484 0
M  V30 6773 H 633.295 4.75953 -3.19596 0
M  V30 6774 H 631.692 4.51818 -3.94943 0
M  V30 6775 H 632.762 3.12553 -3.70727 0
M  V30 6776 N 634.105 1.10431 1.1244 0
M  V30 6777 C 635.037 0.710945 2.17895 0
M  V30 6778 C 636.05 -0.252315 1.60833 0
M  V30 6779 O 637.239 -0.03679 1.78462 0
M  V30 6780 C 634.339 0.0284262 3.38888 0
M  V30 6781 C 633.512 1.01585 4.2544 0
M  V30 6782 C 632.571 0.364826 5.24934 0
M  V30 6783 O 631.597 1.01561 5.60066 0
M  V30 6784 N 632.799 -0.87674 5.73841 0
M  V30 6785 H 635.564 1.61826 2.52255 0
M  V30 6786 H 633.125 0.993132 1.27861 0
M  V30 6787 H 635.117 -0.418568 4.0253 0
M  V30 6788 H 633.687 -0.781294 3.02679 0
M  V30 6789 H 632.907 1.64111 3.58415 0
M  V30 6790 H 634.195 1.68425 4.80115 0
M  V30 6791 H 633.593 -1.42483 5.47462 0
M  V30 6792 H 632.15 -1.26688 6.39369 0
M  V30 6793 N 635.583 -1.29855 0.893053 0
M  V30 6794 C 636.513 -2.3035 0.382249 0
M  V30 6795 C 637.494 -1.61328 -0.539203 0
M  V30 6796 O 638.679 -1.88882 -0.451342 0
M  V30 6797 C 635.809 -3.45024 -0.396983 0
M  V30 6798 C 634.763 -4.258 0.433437 0
M  V30 6799 C 634.089 -5.32605 -0.472889 0
M  V30 6800 C 635.389 -4.94549 1.67984 0
M  V30 6801 H 637.083 -2.73325 1.22205 0
M  V30 6802 H 634.629 -1.314 0.589073 0
M  V30 6803 H 636.582 -4.14398 -0.765024 0
M  V30 6804 H 635.306 -3.00875 -1.2705 0
M  V30 6805 H 633.965 -3.58125 0.783723 0
M  V30 6806 H 633.613 -4.84702 -1.34435 0
M  V30 6807 H 633.313 -5.87547 0.0789958 0
M  V30 6808 H 634.837 -6.04832 -0.837269 0
M  V30 6809 H 636.251 -5.56395 1.38192 0
M  V30 6810 H 634.648 -5.59393 2.17254 0
M  V30 6811 H 635.718 -4.20215 2.41965 0
M  V30 6812 N 637.061 -0.65484 -1.43351 0
M  V30 6813 C 638.024 0.0263562 -2.29185 0
M  V30 6814 C 639.024 0.748951 -1.42293 0
M  V30 6815 O 640.214 0.589957 -1.63906 0
M  V30 6816 C 637.346 1.04806 -3.2439 0
M  V30 6817 H 638.539 -0.728883 -2.90908 0
M  V30 6818 H 636.092 -0.416149 -1.50658 0
M  V30 6819 H 636.827 1.83247 -2.67565 0
M  V30 6820 H 636.612 0.533554 -3.88453 0
M  V30 6821 H 638.102 1.52372 -3.88809 0
M  V30 6822 N 638.539 1.52521 -0.396863 0
M  V30 6823 C 639.955 1.5953 -0.0471659 0
M  V30 6824 C 640.155 1.41044 1.43906 0
M  V30 6825 O 639.211 1.23122 2.20448 0
M  V30 6826 C 640.524 2.95972 -0.531113 0
M  V30 6827 C 642.072 3.09172 -0.488024 0
M  V30 6828 C 642.547 4.48075 -0.948281 0
M  V30 6829 N 644.038 4.54281 -0.9046 0
M  V30 6830 C 644.773 5.60007 -1.23205 0
M  V30 6831 N 644.269 6.73343 -1.63036 0
M  V30 6832 N 646.062 5.50151 -1.15282 0
M  V30 6833 H 638.213 1.62786 -1.36435 0
M  V30 6834 H 640.476 0.76514 -0.559701 0
M  V30 6835 H 640.182 3.14741 -1.56942 0
M  V30 6836 H 640.056 3.77143 0.0657922 0
M  V30 6837 H 642.443 2.90095 0.541211 0
M  V30 6838 H 642.524 2.29937 -1.12083 0
M  V30 6839 H 642.168 4.67894 -1.97578 0
M  V30 6840 H 642.098 5.25788 -0.292412 0
M  V30 6841 H 644.589 3.72918 -0.6116 0
M  V30 6842 H 644.902 7.49992 -1.86365 0
M  V30 6843 H 643.247 6.74655 -1.66929 0
M  V30 6844 H 646.438 4.6049 -0.840602 0
M  V30 6845 H 646.611 6.32444 -1.41133 0
M  V30 6846 N 640.017 0.126909 1.57088 0
M  V30 6847 C 640.98 -0.806097 2.14557 0
M  V30 6848 C 641.98 -1.18918 1.08236 0
M  V30 6849 O 643.17 -1.11339 1.33975 0
M  V30 6850 C 640.302 -2.09116 2.69227 0
M  V30 6851 H 641.495 -0.306522 2.98329 0
M  V30 6852 H 639.048 -0.122393 1.5582 0
M  V30 6853 H 639.783 -2.63486 1.89065 0
M  V30 6854 H 639.568 -1.82588 3.46993 0
M  V30 6855 H 641.058 -2.75794 3.13572 0
M  V30 6856 N 641.495 -1.56914 -0.146875 0
M  V30 6857 C 642.725 -1.87243 -0.873126 0
M  V30 6858 C 643.133 -0.713127 -1.75246 0
M  V30 6859 O 642.476 0.326228 -1.8078 0
M  V30 6860 C 642.538 -3.12279 -1.78107 0
M  V30 6861 C 642.202 -4.44082 -1.07889 0
M  V30 6862 C 643.199 -5.18096 -0.432734 0
M  V30 6863 C 640.884 -4.90807 -1.06836 0
M  V30 6864 C 642.878 -6.37039 0.214569 0
M  V30 6865 C 640.565 -6.09674 -0.417243 0
M  V30 6866 C 641.563 -6.82636 0.223093 0
M  V30 6867 O 641.251 -7.99245 0.863884 0
M  V30 6868 H 640.983 -0.624896 -0.257839 0
M  V30 6869 H 643.537 -2.04892 -0.14434 0
M  V30 6870 H 641.767 -2.90639 -2.5508 0
M  V30 6871 H 643.456 -3.28854 -2.37929 0
M  V30 6872 H 644.222 -4.83066 -0.432677 0
M  V30 6873 H 640.101 -4.3394 -1.55618 0
M  V30 6874 H 643.645 -6.93927 0.714965 0
M  V30 6875 H 639.542 -6.44165 -0.414967 0
M  V30 6876 H 640.31 -8.14912 0.765564 0
M  V30 6877 N 642.974 0.416227 -1.52004 0
M  V30 6878 C 644.202 1.18573 -1.69553 0
M  V30 6879 C 644.617 1.84472 -0.401919 0
M  V30 6880 O 643.974 1.71593 0.621463 0
M  V30 6881 C 644.025 2.25413 -2.82615 0
M  V30 6882 O 643.746 1.62205 -4.06966 0
M  V30 6883 C 645.247 3.15297 -3.11613 0
M  V30 6884 H 642.467 0.356582 -0.56841 0
M  V30 6885 H 645.011 0.490618 -1.98528 0
M  V30 6886 H 643.166 2.90604 -2.56179 0
M  V30 6887 H 643.58 2.3298 -4.69916 0
M  V30 6888 H 645.054 3.86351 -3.94255 0
M  V30 6889 H 645.531 3.77264 -2.24874 0
M  V30 6890 H 646.137 2.55783 -3.39787 0
M  V30 6891 N 644.452 1.42507 0.673017 0
M  V30 6892 C 645.415 1.4582 1.76831 0
M  V30 6893 C 646.415 0.345542 1.57043 0
M  V30 6894 O 647.605 0.606447 1.63303 0
M  V30 6895 C 644.737 1.29158 3.15485 0
M  V30 6896 H 645.93 2.43345 1.7528 0
M  V30 6897 H 643.483 1.28981 0.882817 0
M  V30 6898 H 644.218 0.325626 3.22661 0
M  V30 6899 H 644.003 2.09797 3.31252 0
M  V30 6900 H 645.493 1.34363 3.95394 0
M  V30 6901 N 645.93 -0.909495 1.28709 0
M  V30 6902 C 646.86 -2.0291 1.15542 0
M  V30 6903 C 647.841 -1.7002 0.0521017 0
M  V30 6904 O 649.026 -1.92835 0.229849 0
M  V30 6905 C 646.156 -3.37458 0.820935 0
M  V30 6906 C 645.11 -3.84524 1.87949 0
M  V30 6907 C 644.436 -5.16086 1.39854 0
M  V30 6908 C 645.736 -4.05918 3.28676 0
M  V30 6909 H 647.43 -2.14183 2.09203 0
M  V30 6910 H 644.976 -1.02913 1.00722 0
M  V30 6911 H 646.929 -4.1528 0.715571 0
M  V30 6912 H 645.653 -3.26249 -0.151374 0
M  V30 6913 H 644.312 -3.08911 1.97408 0
M  V30 6914 H 643.96 -5.01284 0.41518 0
M  V30 6915 H 643.66 -5.48547 2.1064 0
M  V30 6916 H 645.184 -5.96459 1.30649 0
M  V30 6917 H 646.598 -4.74252 3.22115 0
M  V30 6918 H 644.995 -4.49717 3.97334 0
M  V30 6919 H 646.065 -3.10583 3.72379 0
M  V30 6920 N 647.408 -1.11026 -1.11852 0
M  V30 6921 C 648.636 -0.878818 -1.87308 0
M  V30 6922 C 649.051 0.57111 -1.79955 0
M  V30 6923 O 648.408 1.39409 -1.17777 0
M  V30 6924 C 648.459 -1.3264 -3.36287 0
M  V30 6925 O 648.18 -2.71948 -3.43476 0
M  V30 6926 C 649.681 -1.12974 -4.28663 0
M  V30 6927 H 646.901 -0.315015 -0.592458 0
M  V30 6928 H 649.445 -1.47649 -1.41492 0
M  V30 6929 H 647.6 -0.772269 -3.79625 0
M  V30 6930 H 648.014 -2.91241 -4.3621 0
M  V30 6931 H 649.488 -1.49198 -5.31454 0
M  V30 6932 H 649.965 -0.0689127 -4.39146 0
M  V30 6933 H 650.571 -1.67064 -3.91113 0
M  V30 6934 N 648.886 1.2938 -0.899927 0
M  V30 6935 C 649.836 2.25311 -0.349165 0
M  V30 6936 C 650.82 1.51889 0.530892 0
M  V30 6937 O 652.012 1.73028 0.372872 0
M  V30 6938 C 649.141 3.40696 0.422055 0
M  V30 6939 C 648.227 4.21455 -0.472935 0
M  V30 6940 N 648.618 4.8048 -1.58026 0
M  V30 6941 C 646.916 4.45177 -0.270767 0
M  V30 6942 C 647.617 5.41117 -2.13465 0
M  V30 6943 N 646.593 5.24518 -1.42766 0
M  V30 6944 H 650.395 2.68507 -1.19505 0
M  V30 6945 H 647.909 1.43992 -0.751006 0
M  V30 6946 H 649.906 4.08486 0.833369 0
M  V30 6947 H 648.566 2.99037 1.2652 0
M  V30 6948 H 649.577 4.79257 -1.96299 0
M  V30 6949 H 646.254 4.14071 0.533988 0
M  V30 6950 H 647.644 5.979 -3.06537 0
M  V30 6951 N 650.364 0.662433 1.43002 0
M  V30 6952 C 651.641 0.109096 1.95296 0
M  V30 6953 C 652.021 -1.37313 1.60338 0
M  V30 6954 O 651.369 -2.1032 0.893187 0
M  V30 6955 C 651.579 0.365096 3.47085 0
M  V30 6956 C 652.927 0.274964 4.23709 0
M  V30 6957 O 653.951 0.29816 3.5495 0
M  V30 6958 O 652.81 0.206549 5.4611 0
M  V30 6959 H 649.904 -0.00429724 0.826989 0
M  V30 6960 H 652.45 0.736308 1.52894 0
M  V30 6961 H 651.222 1.39237 3.65689 0
M  V30 6962 H 650.845 -0.294733 3.96506 0
M  V30 6963 N 651.842 -1.52309 0.404946 0
M  V30 6964 C 653.09 -2.01368 -0.17186 0
M  V30 6965 C 653.411 -1.29261 -1.46002 0
M  V30 6966 O 652.681 -0.41729 -1.91404 0
M  V30 6967 H 651.261 -0.744034 -0.0664993 0
M  V30 6968 H 653.923 -1.87263 0.540228 0
M  V30 6969 H 653.019 -3.09888 -0.370957 0
M  V30 6970 N 653.32 -0.135238 -1.57019 0
M  V30 6971 C 654.566 0.519563 -1.96032 0
M  V30 6972 C 654.899 1.65284 -1.01955 0
M  V30 6973 O 654.174 1.94408 -0.059727 0
M  V30 6974 C 654.457 1.0369 -3.44848 0
M  V30 6975 C 654.31 -0.0940754 -4.49702 0
M  V30 6976 C 655.629 1.92254 -3.95887 0
M  V30 6977 H 652.748 0.18739 -0.712779 0
M  V30 6978 H 655.39 -0.214086 -1.8879 0
M  V30 6979 H 653.54 1.66209 -3.5115 0
M  V30 6980 H 655.212 -0.73 -4.55487 0
M  V30 6981 H 653.455 -0.754924 -4.27181 0
M  V30 6982 H 654.126 0.309419 -5.51132 0
M  V30 6983 H 656.602 1.39581 -3.9199 0
M  V30 6984 H 655.478 2.25364 -5.00502 0
M  V30 6985 H 655.739 2.85513 -3.37543 0
M  V30 6986 N 654.798 1.5699 0.138552 0
M  V30 6987 C 655.728 2.01933 1.17241 0
M  V30 6988 C 656.709 0.90033 1.44319 0
M  V30 6989 O 657.894 1.16872 1.55095 0
M  V30 6990 C 655.024 2.40711 2.50351 0
M  V30 6991 C 653.978 3.55874 2.37776 0
M  V30 6992 C 653.304 3.80491 3.75674 0
M  V30 6993 C 654.604 4.8826 1.85472 0
M  V30 6994 H 656.298 2.88551 0.798672 0
M  V30 6995 H 653.844 1.3882 0.382743 0
M  V30 6996 H 655.797 2.70754 3.22909 0
M  V30 6997 H 654.521 1.5104 2.89576 0
M  V30 6998 H 653.18 3.2601 1.67669 0
M  V30 6999 H 652.828 2.88057 4.12349 0
M  V30 7000 H 652.528 4.57998 3.68119 0
M  V30 7001 H 654.052 4.12967 4.49767 0
M  V30 7002 H 655.466 5.16965 2.4783 0
M  V30 7003 H 653.863 5.69631 1.88787 0
M  V30 7004 H 654.933 4.78071 0.810935 0
M  V30 7005 N 656.276 -0.40816 1.52223 0
M  V30 7006 C 657.206 -1.5042 1.78595 0
M  V30 7007 C 658.187 -1.57723 0.636974 0
M  V30 7008 O 659.372 -1.72982 0.882664 0
M  V30 7009 C 656.502 -2.88232 1.93751 0
M  V30 7010 C 655.456 -2.95779 3.09352 0
M  V30 7011 C 654.782 -4.35855 3.09732 0
M  V30 7012 C 656.082 -2.67175 4.48793 0
M  V30 7013 H 657.776 -1.28601 2.70374 0
M  V30 7014 H 655.322 -0.617221 1.30101 0
M  V30 7015 H 657.275 -3.64895 2.10783 0
M  V30 7016 H 655.999 -3.11347 0.986443 0
M  V30 7017 H 654.658 -2.21561 2.92072 0
M  V30 7018 H 654.306 -4.55981 2.12346 0
M  V30 7019 H 654.006 -4.41829 3.87377 0
M  V30 7020 H 655.53 -5.14451 3.28895 0
M  V30 7021 H 656.944 -3.3356 4.66273 0
M  V30 7022 H 655.341 -2.84523 5.28362 0
M  V30 7023 H 656.411 -1.62609 4.56822 0
M  V30 7024 N 657.755 -1.42862 -0.66545 0
M  V30 7025 C 659.166 -1.3901 -1.24632 0
M  V30 7026 C 659.517 -0.0880285 -1.96002 0
M  V30 7027 O 658.642 0.812947 -2.0055 0
M  V30 7028 C 659.237 -2.51806 -2.2667 0
M  V30 7029 C 657.796 -2.51257 -2.80262 0
M  V30 7030 C 656.943 -2.30124 -1.5472 0
M  V30 7031 H 659.894 -1.5194 -0.458237 0
M  V30 7032 H 659.915 -2.22593 -3.08598 0
M  V30 7033 H 659.427 -3.46558 -1.74697 0
M  V30 7034 H 657.528 -1.60349 -3.36332 0
M  V30 7035 H 657.641 -3.48614 -3.28641 0
M  V30 7036 H 656.005 -1.7856 -1.81627 0
M  V30 7037 H 656.788 -3.26945 -1.04699 0
M  V30 7038 N 659.233 0.902656 -1.29189 0
M  V30 7039 C 660.163 2.02294 -1.16616 0
M  V30 7040 C 661.144 1.6999 -0.0611175 0
M  V30 7041 O 662.329 1.9271 -0.240072 0
M  V30 7042 C 659.459 3.37018 -0.83882 0
M  V30 7043 C 658.413 3.83522 -1.89986 0
M  V30 7044 C 657.739 5.15337 -1.42589 0
M  V30 7045 C 659.039 4.04169 -3.30824 0
M  V30 7046 H 660.733 2.13071 -2.10336 0
M  V30 7047 H 658.279 1.02378 -1.01266 0
M  V30 7048 H 660.232 4.14895 -0.737584 0
M  V30 7049 H 658.956 3.26325 0.134071 0
M  V30 7050 H 657.615 3.07859 -1.99043 0
M  V30 7051 H 657.263 5.01056 -0.441759 0
M  V30 7052 H 656.963 5.47423 -2.13547 0
M  V30 7053 H 658.487 5.95758 -1.3381 0
M  V30 7054 H 659.901 4.72537 -3.24626 0
M  V30 7055 H 658.298 4.47604 -3.99713 0
M  V30 7056 H 659.368 3.08604 -3.74021 0
M  V30 7057 N 660.711 1.11618 1.11262 0
M  V30 7058 C 661.936 0.889013 1.8738 0
M  V30 7059 C 662.361 -0.555884 1.79698 0
M  V30 7060 O 661.719 -1.39272 1.16073 0
M  V30 7061 C 661.767 1.35759 3.34069 0
M  V30 7062 O 660.871 0.530499 4.08974 0
M  V30 7063 H 660.212 0.320082 0.581759 0
M  V30 7064 H 662.742 1.48611 1.40627 0
M  V30 7065 H 662.752 1.35291 3.84916 0
M  V30 7066 H 661.427 2.40973 3.38976 0
M  V30 7067 H 660.004 0.601439 3.68018 0
M  V30 7068 N 662.189 -1.289 0.906776 0
M  V30 7069 C 663.436 -1.95269 0.536326 0
M  V30 7070 C 663.764 -1.71435 -0.918711 0
M  V30 7071 O 663.019 -1.02431 -1.66752 0
M  V30 7072 C 663.318 -3.48704 0.783617 0
M  V30 7073 C 662.984 -3.92626 2.21711 0
M  V30 7074 C 661.646 -4.04329 2.60906 0
M  V30 7075 C 663.998 -4.15218 3.15029 0
M  V30 7076 C 661.326 -4.35998 3.92584 0
M  V30 7077 C 663.678 -4.48365 4.46264 0
M  V30 7078 C 662.342 -4.58278 4.85322 0
M  V30 7079 H 661.612 -0.714538 0.196256 0
M  V30 7080 H 664.259 -1.53366 1.14678 0
M  V30 7081 H 662.564 -3.91696 0.0903048 0
M  V30 7082 H 664.261 -3.98162 0.476267 0
M  V30 7083 H 660.851 -3.84038 1.90296 0
M  V30 7084 H 665.035 -4.05636 2.8596 0
M  V30 7085 H 660.291 -4.41878 4.22557 0
M  V30 7086 H 664.465 -4.64795 5.18593 0
M  V30 7087 H 662.092 -4.82573 5.87391 0
M  V30 7088 N 663.667 -0.670007 -1.42649 0
M  V30 7089 C 664.577 0.0114788 -2.34597 0
M  V30 7090 C 665.593 0.794055 -1.54825 0
M  V30 7091 O 666.769 0.737472 -1.87412 0
M  V30 7092 C 663.834 0.954436 -3.33304 0
M  V30 7093 C 662.895 0.166925 -4.28975 0
M  V30 7094 C 662.128 1.06497 -5.22967 0
M  V30 7095 O 662.351 2.30446 -5.21777 0
M  V30 7096 O 661.285 0.528347 -5.99577 0
M  V30 7097 H 665.111 -0.745794 -2.944 0
M  V30 7098 H 662.696 -0.430228 -1.43071 0
M  V30 7099 H 664.578 1.49589 -3.93956 0
M  V30 7100 H 663.253 1.69164 -2.7598 0
M  V30 7101 H 662.16 -0.418515 -3.71752 0
M  V30 7102 H 663.493 -0.531067 -4.89327 0
M  V30 7103 N 665.145 1.52092 -0.413018 0
M  V30 7104 C 666.092 2.27119 0.410558 0
M  V30 7105 C 667.062 1.29692 1.03774 0
M  V30 7106 O 668.247 1.58561 1.06128 0
M  V30 7107 C 665.387 3.09863 1.51918 0
M  V30 7108 C 664.5 4.22252 0.912528 0
M  V30 7109 C 663.635 4.92348 1.99417 0
M  V30 7110 C 662.674 5.96694 1.36466 0
M  V30 7111 N 661.811 6.60292 2.38661 0
M  V30 7112 H 666.651 2.97067 -0.235661 0
M  V30 7113 H 664.188 1.46542 -0.128055 0
M  V30 7114 H 666.146 3.56144 2.17295 0
M  V30 7115 H 664.776 2.42078 2.13537 0
M  V30 7116 H 663.828 3.80113 0.147697 0
M  V30 7117 H 665.14 4.9709 0.412717 0
M  V30 7118 H 664.294 5.42054 2.72512 0
M  V30 7119 H 663.033 4.17087 2.52764 0
M  V30 7120 H 662.038 5.46304 0.61906 0
M  V30 7121 H 663.263 6.73899 0.838827 0
M  V30 7122 H 661.209 5.87858 2.91134 0
M  V30 7123 H 661.126 7.30816 1.93503 0
M  V30 7124 H 662.394 7.14635 3.11314 0
M  V30 7125 N 666.623 0.143563 1.56945 0
M  V30 7126 C 667.555 -0.828353 2.13708 0
M  V30 7127 C 668.568 -1.21313 1.08568 0
M  V30 7128 O 669.757 -1.1578 1.35857 0
M  V30 7129 C 666.857 -2.12248 2.64204 0
M  V30 7130 C 666.03 -1.90561 3.93707 0
M  V30 7131 C 665.089 -3.03931 4.29549 0
M  V30 7132 O 664.115 -2.75772 4.97934 0
M  V30 7133 N 665.317 -4.31016 3.88852 0
M  V30 7134 H 668.082 -0.343242 2.97728 0
M  V30 7135 H 665.643 -0.0401152 1.6185 0
M  V30 7136 H 667.635 -2.87132 2.85197 0
M  V30 7137 H 666.205 -2.52033 1.84928 0
M  V30 7138 H 665.425 -0.997327 3.81375 0
M  V30 7139 H 666.713 -1.73405 4.78339 0
M  V30 7140 H 666.111 -4.56762 3.33743 0
M  V30 7141 H 664.668 -5.02691 4.14903 0
M  V30 7142 N 668.101 -1.57061 -0.130224 0
M  V30 7143 C 669.064 -1.98593 -1.14426 0
M  V30 7144 C 670.064 -0.874584 -1.34936 0
M  V30 7145 O 671.254 -1.14086 -1.31643 0
M  V30 7146 C 668.386 -2.31639 -2.50112 0
M  V30 7147 H 669.579 -2.89374 -0.787561 0
M  V30 7148 H 667.132 -1.51756 -0.374146 0
M  V30 7149 H 667.867 -1.43703 -2.90723 0
M  V30 7150 H 667.652 -3.12684 -2.36583 0
M  V30 7151 H 669.142 -2.64551 -3.23114 0
M  V30 7152 N 669.579 0.400081 -1.52437 0
M  V30 7153 C 670.825 1.14788 -1.67187 0
M  V30 7154 C 671.158 1.89928 -0.405074 0
M  V30 7155 O 670.433 1.85118 0.596804 0
M  V30 7156 C 670.716 2.13507 -2.89977 0
M  V30 7157 C 670.569 1.42204 -4.2673 0
M  V30 7158 C 671.888 3.14069 -3.083 0
M  V30 7159 H 669.007 0.415939 -0.608411 0
M  V30 7160 H 671.649 0.432542 -1.85011 0
M  V30 7161 H 669.799 2.7451 -2.74912 0
M  V30 7162 H 671.471 0.842503 -4.53541 0
M  V30 7163 H 669.714 0.723939 -4.27717 0
M  V30 7164 H 670.385 2.14281 -5.08712 0
M  V30 7165 H 672.861 2.63148 -3.22323 0
M  V30 7166 H 671.737 3.80398 -3.95713 0
M  V30 7167 H 671.998 3.82309 -2.22018 0
M  V30 7168 N 671.057 1.43213 0.657864 0
M  V30 7169 C 672.02 1.47687 1.75275 0
M  V30 7170 C 673.02 0.362179 1.56668 0
M  V30 7171 O 674.21 0.623734 1.62651 0
M  V30 7172 C 671.342 1.32497 3.14098 0
M  V30 7173 H 672.535 2.4519 1.7269 0
M  V30 7174 H 670.088 1.2991 0.869087 0
M  V30 7175 H 670.823 0.359831 3.22298 0
M  V30 7176 H 670.608 2.13299 3.29008 0
M  V30 7177 H 672.098 1.38549 3.93946 0
M  V30 7178 N 672.536 -0.895792 1.29666 0
M  V30 7179 C 673.947 -1.46195 1.1612 0
M  V30 7180 C 674.298 -1.94699 -0.242195 0
M  V30 7181 O 673.423 -1.8406 -1.13802 0
M  V30 7182 C 674.018 -2.65718 2.10189 0
M  V30 7183 C 672.577 -3.18458 2.00653 0
M  V30 7184 C 671.724 -1.91149 2.00891 0
M  V30 7185 H 674.675 -0.706756 1.42094 0
M  V30 7186 H 674.696 -3.4158 1.6764 0
M  V30 7187 H 674.208 -2.30386 3.12321 0
M  V30 7188 H 672.309 -3.58474 1.01623 0
M  V30 7189 H 672.422 -3.82491 2.88509 0
M  V30 7190 H 670.786 -2.09021 1.45542 0
M  V30 7191 H 671.569 -1.58089 3.04734 0
M  V30 7192 N 674.014 -1.12206 -1.10668 0
M  V30 7193 C 674.946 -0.74552 -2.16736 0
M  V30 7194 C 675.959 0.226696 -1.61214 0
M  V30 7195 O 677.148 0.0083936 -1.78498 0
M  V30 7196 C 674.248 -0.0823368 -3.388 0
M  V30 7197 C 673.421 -1.08341 -4.2377 0
M  V30 7198 C 672.48 -0.448292 -5.24287 0
M  V30 7199 O 671.506 -1.10458 -5.58379 0
M  V30 7200 N 672.708 0.785336 -5.75163 0
M  V30 7201 H 675.473 -1.65818 -2.49649 0
M  V30 7202 H 673.034 -1.01335 -1.26265 0
M  V30 7203 H 675.026 0.354476 -4.03145 0
M  V30 7204 H 673.596 0.733041 -3.03884 0
M  V30 7205 H 672.816 -1.69792 -3.55759 0
M  V30 7206 H 674.104 -1.76042 -4.77375 0
M  V30 7207 H 673.502 1.33755 -5.4966 0
M  V30 7208 H 672.059 1.16501 -6.41304 0
M  V30 7209 N 675.492 1.28418 -0.913599 0
M  V30 7210 C 676.74 1.94596 -0.545594 0
M  V30 7211 C 677.061 1.7227 0.913668 0
M  V30 7212 O 676.331 1.06233 1.64595 0
M  V30 7213 H 674.911 0.720065 -0.198783 0
M  V30 7214 H 677.573 1.56404 -1.16292 0
M  V30 7215 H 676.669 3.03202 -0.739911 0
M  V30 7216 N 676.97 0.677563 1.42291 0
M  V30 7217 C 677.917 0.000947061 2.308 0
M  V30 7218 C 678.887 -0.789889 1.46116 0
M  V30 7219 O 680.072 -0.761578 1.74942 0
M  V30 7220 C 677.212 -0.942387 3.31984 0
M  V30 7221 C 676.325 -0.14508 4.31756 0
M  V30 7222 C 675.46 -1.08442 5.20013 0
M  V30 7223 C 674.499 -0.278958 6.11464 0
M  V30 7224 N 673.636 -1.17115 6.92263 0
M  V30 7225 H 678.476 0.761521 2.88106 0
M  V30 7226 H 676.013 0.38727 1.41911 0
M  V30 7227 H 677.971 -1.50317 3.89179 0
M  V30 7228 H 676.601 -1.66956 2.76271 0
M  V30 7229 H 675.653 0.532368 3.76656 0
M  V30 7230 H 676.965 0.48015 4.96484 0
M  V30 7231 H 676.119 -1.71504 5.81955 0
M  V30 7232 H 674.858 -1.74353 4.55469 0
M  V30 7233 H 673.863 0.364856 5.48588 0
M  V30 7234 H 675.088 0.376099 6.78058 0
M  V30 7235 H 673.034 -1.81661 6.30345 0
M  V30 7236 H 672.951 -0.601063 7.53607 0
M  V30 7237 H 674.219 -1.78915 7.58689 0
M  V30 7238 N 678.448 -1.51871 0.421078 0
M  V30 7239 C 679.864 -1.59435 0.0725398 0
M  V30 7240 C 680.064 -1.43315 -1.41644 0
M  V30 7241 O 679.12 -1.26614 -2.18461 0
M  V30 7242 C 680.433 -2.9509 0.578132 0
M  V30 7243 C 681.981 -3.08356 0.537149 0
M  V30 7244 C 682.456 -4.4651 1.01945 0
M  V30 7245 N 683.947 -4.52784 0.976758 0
M  V30 7246 C 684.682 -5.57976 1.32099 0
M  V30 7247 N 684.178 -6.70664 1.73727 0
M  V30 7248 N 685.971 -5.48248 1.2402 0
M  V30 7249 H 678.122 -1.60595 1.39007 0
M  V30 7250 H 680.385 -0.756138 0.571803 0
M  V30 7251 H 680.091 -3.12205 1.61929 0
M  V30 7252 H 679.965 -3.772 -0.00578374 0
M  V30 7253 H 682.352 -2.90919 -0.494991 0
M  V30 7254 H 682.433 -2.28125 1.15727 0
M  V30 7255 H 682.077 -4.64692 2.04997 0
M  V30 7256 H 682.007 -5.25256 0.376023 0
M  V30 7257 H 684.498 -3.71898 0.670851 0
M  V30 7258 H 684.811 -7.46932 1.98274 0
M  V30 7259 H 683.156 -6.71914 1.77641 0
M  V30 7260 H 686.347 -4.59095 0.913756 0
M  V30 7261 H 686.52 -6.30119 1.51176 0
M  V30 7262 N 679.926 -0.151884 -1.56866 0
M  V30 7263 C 681.175 0.497992 -1.95456 0
M  V30 7264 C 681.488 1.6569 -1.03953 0
M  V30 7265 O 682.694 2.37173 -1.32142 0
M  V30 7266 C 681.15 0.93732 -3.4748 0
M  V30 7267 C 680.758 -0.194921 -4.47576 0
M  V30 7268 C 682.502 1.55671 -3.94926 0
M  V30 7269 C 680.409 0.26295 -5.90815 0
M  V30 7270 H 679.339 0.189811 -0.729717 0
M  V30 7271 H 681.99 -0.237011 -1.81963 0
M  V30 7272 H 680.372 1.72773 -3.56322 0
M  V30 7273 H 681.546 -0.971951 -4.50433 0
M  V30 7274 H 679.861 -0.72303 -4.10075 0
M  V30 7275 H 682.458 1.91099 -4.99385 0
M  V30 7276 H 682.801 2.44748 -3.36755 0
M  V30 7277 H 683.334 0.831109 -3.89021 0
M  V30 7278 H 680.073 -0.592568 -6.52816 0
M  V30 7279 H 679.593 1.00575 -5.91308 0
M  V30 7280 H 681.272 0.713333 -6.43056 0
M  V30 7281 N 681.404 1.57128 0.121893 0
M  V30 7282 C 682.651 1.847 0.830188 0
M  V30 7283 C 682.979 0.736543 1.80015 0
M  V30 7284 O 682.234 -0.272358 1.93796 0
M  V30 7285 C 682.533 3.1874 1.61677 0
M  V30 7286 C 682.199 4.43901 0.791361 0
M  V30 7287 C 680.861 4.77887 0.563731 0
M  V30 7288 C 683.213 5.20753 0.215823 0
M  V30 7289 C 680.541 5.86168 -0.249737 0
M  V30 7290 C 682.893 6.29891 -0.584821 0
M  V30 7291 C 681.557 6.6241 -0.822794 0
M  V30 7292 H 680.827 0.675866 0.303787 0
M  V30 7293 H 683.474 1.91276 0.0926894 0
M  V30 7294 H 681.779 3.07728 2.42509 0
M  V30 7295 H 683.476 3.37295 2.16872 0
M  V30 7296 H 680.066 4.17272 0.978867 0
M  V30 7297 H 684.25 4.94851 0.378907 0
M  V30 7298 H 679.506 6.0979 -0.44336 0
M  V30 7299 H 683.68 6.88624 -1.03779 0
M  V30 7300 H 681.307 7.46147 -1.45496 0
M  V30 7301 N 682.882 -0.391992 1.52647 0
M  V30 7302 C 683.829 -1.47866 1.77213 0
M  V30 7303 C 684.799 -1.54286 0.615223 0
M  V30 7304 O 685.984 -1.7059 0.854622 0
M  V30 7305 C 683.124 -2.85129 1.94411 0
M  V30 7306 C 682.237 -2.87883 3.22098 0
M  V30 7307 C 681.372 -4.16553 3.29631 0
M  V30 7308 C 680.411 -4.13348 4.51453 0
M  V30 7309 N 679.548 -5.33619 4.56284 0
M  V30 7310 H 684.388 -1.26219 2.6995 0
M  V30 7311 H 681.925 -0.612367 1.33748 0
M  V30 7312 H 683.883 -3.64833 2.02367 0
M  V30 7313 H 682.513 -3.05232 1.05038 0
M  V30 7314 H 681.565 -2.00567 3.23229 0
M  V30 7315 H 682.877 -2.81382 4.11856 0
M  V30 7316 H 682.031 -5.0466 3.36753 0
M  V30 7317 H 680.77 -4.25773 2.37842 0
M  V30 7318 H 679.775 -3.23629 4.44459 0
M  V30 7319 H 681 -4.05754 5.44555 0
M  V30 7320 H 678.946 -5.43474 3.67385 0
M  V30 7321 H 678.863 -5.29182 5.3991 0
M  V30 7322 H 680.131 -6.23632 4.67657 0
M  V30 7323 N 684.36 -1.4356 -0.65026 0
M  V30 7324 C 685.27 -1.514 -1.79207 0
M  V30 7325 C 686.286 -0.400895 -1.69319 0
M  V30 7326 O 687.462 -0.655458 -1.90436 0
M  V30 7327 C 684.527 -1.43737 -3.155 0
M  V30 7328 C 683.588 -2.65743 -3.37163 0
M  V30 7329 C 682.821 -2.58436 -4.66954 0
M  V30 7330 O 683.044 -1.63374 -5.46503 0
M  V30 7331 O 681.978 -3.48984 -4.90402 0
M  V30 7332 H 685.804 -2.47825 -1.75547 0
M  V30 7333 H 683.389 -1.25594 -0.809111 0
M  V30 7334 H 685.271 -1.41916 -3.96784 0
M  V30 7335 H 683.946 -0.504488 -3.19745 0
M  V30 7336 H 682.853 -2.73136 -2.55632 0
M  V30 7337 H 684.186 -3.58014 -3.37768 0
M  V30 7338 N 685.838 0.888903 -1.30139 0
M  V30 7339 C 687.063 1.67884 -1.21777 0
M  V30 7340 C 687.488 1.86848 0.216689 0
M  V30 7341 O 686.846 1.39659 1.15608 0
M  V30 7342 C 686.894 3.03483 -1.94757 0
M  V30 7343 O 685.998 3.92294 -1.27198 0
M  V30 7344 H 685.339 0.513144 -0.421402 0
M  V30 7345 H 687.869 1.10968 -1.71893 0
M  V30 7346 H 687.879 3.53553 -2.03627 0
M  V30 7347 H 686.554 2.89 -2.99085 0
M  V30 7348 H 685.131 3.50732 -1.26655 0
M  V30 7349 N 687.317 1.12792 1.10072 0
M  V30 7350 C 688.545 0.908506 1.85886 0
M  V30 7351 C 688.96 -0.542408 1.80841 0
M  V30 7352 O 688.317 -1.37517 1.1998 0
M  V30 7353 C 688.368 1.37973 3.34134 0
M  V30 7354 O 688.089 2.77378 3.39106 0
M  V30 7355 C 689.59 1.1978 4.26811 0
M  V30 7356 H 686.81 0.3244 0.587372 0
M  V30 7357 H 689.354 1.49882 1.39125 0
M  V30 7358 H 687.509 0.832566 3.78348 0
M  V30 7359 H 687.923 2.98144 4.31521 0
M  V30 7360 H 689.397 1.57635 5.29014 0
M  V30 7361 H 689.874 0.138768 4.38981 0
M  V30 7362 H 690.48 1.73266 3.88406 0
M  V30 7363 N 688.795 -1.27931 0.920396 0
M  V30 7364 C 689.758 -2.25345 0.41858 0
M  V30 7365 C 690.758 -1.54116 -0.458798 0
M  V30 7366 O 691.948 -1.72235 -0.260912 0
M  V30 7367 C 689.08 -3.38556 -0.399104 0
M  V30 7368 H 690.273 -2.71251 1.27918 0
M  V30 7369 H 687.826 -1.39728 0.700406 0
M  V30 7370 H 688.561 -2.98021 -1.27882 0
M  V30 7371 H 688.346 -3.91426 0.229863 0
M  V30 7372 H 689.836 -4.10976 -0.740817 0
M  V30 7373 N 690.273 -0.685099 -1.4193 0
M  V30 7374 C 691.689 -0.355632 -1.55587 0
M  V30 7375 C 691.889 1.13823 -1.66273 0
M  V30 7376 O 690.945 1.92387 -1.63534 0
M  V30 7377 C 692.258 -1.09498 -2.80055 0
M  V30 7378 C 693.806 -1.07831 -2.93839 0
M  V30 7379 C 694.281 -1.79919 -4.21181 0
M  V30 7380 N 695.772 -1.76837 -4.28115 0
M  V30 7381 C 696.507 -2.29463 -5.25485 0
M  V30 7382 N 696.003 -2.90516 -6.28945 0
M  V30 7383 N 697.796 -2.19779 -5.17353 0
M  V30 7384 H 689.947 -1.65412 -1.33239 0
M  V30 7385 H 692.21 -0.697453 -0.642078 0
M  V30 7386 H 691.916 -2.14997 -2.78333 0
M  V30 7387 H 691.79 -0.666813 -3.71259 0
M  V30 7388 H 694.177 -0.0316152 -2.95083 0
M  V30 7389 H 694.258 -1.54545 -2.03837 0
M  V30 7390 H 693.902 -2.84562 -4.20698 0
M  V30 7391 H 693.832 -1.30647 -5.10136 0
M  V30 7392 H 696.323 -1.32315 -3.53979 0
M  V30 7393 H 696.636 -3.28266 -6.99615 0
M  V30 7394 H 694.981 -2.94589 -6.29478 0
M  V30 7395 H 698.172 -1.71763 -4.35448 0
M  V30 7396 H 698.345 -2.61097 -5.9307 0
M  V30 7397 N 691.751 1.51645 -0.429126 0
M  V30 7398 C 692.661 2.31288 0.392809 0
M  V30 7399 C 693.677 1.39852 1.03525 0
M  V30 7400 O 694.853 1.72926 1.03241 0
M  V30 7401 C 691.918 3.13347 1.48372 0
M  V30 7402 C 690.979 4.20551 0.862268 0
M  V30 7403 C 690.212 4.98688 1.9012 0
M  V30 7404 O 690.435 4.77359 3.12225 0
M  V30 7405 O 689.369 5.83005 1.4963 0
M  V30 7406 H 693.195 3.02609 -0.257138 0
M  V30 7407 H 690.78 1.48163 -0.191851 0
M  V30 7408 H 692.662 3.64387 2.1166 0
M  V30 7409 H 691.337 2.44799 2.1179 0
M  V30 7410 H 690.244 3.73609 0.191568 0
M  V30 7411 H 691.577 4.91449 0.271704 0
M  V30 7412 N 693.229 0.160201 1.56784 0
M  V30 7413 C 694.475 -0.48831 1.96833 0
M  V30 7414 C 694.808 -1.63641 1.04571 0
M  V30 7415 O 694.083 -1.94289 0.0906481 0
M  V30 7416 C 694.366 -0.981908 3.46454 0
M  V30 7417 C 694.219 0.165607 4.49495 0
M  V30 7418 C 695.538 -1.85931 3.98896 0
M  V30 7419 H 692.657 -0.176027 0.71567 0
M  V30 7420 H 695.299 0.244093 1.88426 0
M  V30 7421 H 693.449 -1.60602 3.5375 0
M  V30 7422 H 695.121 0.802372 4.54268 0
M  V30 7423 H 693.364 0.822789 4.25926 0
M  V30 7424 H 694.035 -0.221699 5.51555 0
M  V30 7425 H 696.511 -1.33327 3.94161 0
M  V30 7426 H 695.387 -2.17373 5.04024 0
M  V30 7427 H 695.648 -2.80106 3.42042 0
M  V30 7428 N 694.707 -1.5719 -0.113559 0
M  V30 7429 C 696.123 -1.52607 -0.467253 0
M  V30 7430 C 696.323 -0.874058 -1.81556 0
M  V30 7431 O 695.379 -0.458703 -2.48299 0
M  V30 7432 C 696.692 -2.97363 -0.446736 0
M  V30 7433 C 698.24 -3.08482 -0.529903 0
M  V30 7434 C 698.715 -4.54809 -0.539721 0
M  V30 7435 N 700.206 -4.59284 -0.601005 0
M  V30 7436 C 700.941 -5.69927 -0.630138 0
M  V30 7437 N 700.437 -6.90051 -0.616589 0
M  V30 7438 N 702.23 -5.5805 -0.673558 0
M  V30 7439 H 694.381 -1.97958 0.769819 0
M  V30 7440 H 696.644 -0.90428 0.284572 0
M  V30 7441 H 696.35 -3.48458 0.47643 0
M  V30 7442 H 696.224 -3.55086 -1.27254 0
M  V30 7443 H 698.611 -2.57386 -1.44349 0
M  V30 7444 H 698.692 -2.53744 0.323695 0
M  V30 7445 H 698.336 -5.06552 0.369843 0
M  V30 7446 H 698.266 -5.07364 -1.41028 0
M  V30 7447 H 700.757 -3.72822 -0.617419 0
M  V30 7448 H 701.07 -7.70132 -0.641592 0
M  V30 7449 H 699.415 -6.92543 -0.583927 0
M  V30 7450 H 702.606 -4.63112 -0.681544 0
M  V30 7451 H 702.779 -6.44286 -0.692794 0
M  V30 7452 N 696.185 0.383891 -1.52853 0
M  V30 7453 C 697.133 1.48965 -1.7864 0
M  V30 7454 C 698.127 1.56242 -0.654577 0
M  V30 7455 O 699.333 1.59347 -0.83716 0
M  V30 7456 H 695.708 0.495892 -0.565328 0
M  V30 7457 H 697.679 1.24411 -2.71228 0
M  V30 7458 C 696.428 2.86036 -1.97683 0
M  V30 7459 H 695.751 2.81188 -2.84206 0
M  V30 7460 H 697.191 3.62632 -2.19713 0
M  V30 7461 C 695.65 3.28428 -0.750776 0
M  V30 7462 O 696.18 4.0164 0.0693491 0
M  V30 7463 N 694.386 2.84765 -0.579427 0
M  V30 7464 H 693.933 2.25353 -1.24795 0
M  V30 7465 H 693.891 3.13486 0.239544 0
M  V30 7466 N 697.663 1.43903 0.642637 0
M  V30 7467 C 698.593 1.52697 1.76652 0
M  V30 7468 C 699.574 0.380816 1.65782 0
M  V30 7469 O 700.759 0.599432 1.84717 0
M  V30 7470 C 697.889 1.45975 3.15133 0
M  V30 7471 C 696.843 2.58949 3.40778 0
M  V30 7472 C 696.169 2.37279 4.79169 0
M  V30 7473 C 697.469 4.01153 3.34475 0
M  V30 7474 H 699.163 2.46766 1.69549 0
M  V30 7475 H 696.709 1.18767 0.814279 0
M  V30 7476 H 698.662 1.5073 3.93521 0
M  V30 7477 H 697.386 0.484162 3.22991 0
M  V30 7478 H 696.045 2.53564 2.64765 0
M  V30 7479 H 695.693 1.37939 4.83717 0
M  V30 7480 H 695.393 3.13016 4.97287 0
M  V30 7481 H 696.917 2.43834 5.59801 0
M  V30 7482 H 698.331 4.07968 4.02784 0
M  V30 7483 H 696.728 4.77001 3.64129 0
M  V30 7484 H 697.798 4.25539 2.32475 0
M  V30 7485 N 699.141 -0.881989 1.30609 0
M  V30 7486 C 700.074 -1.99066 1.11571 0
M  V30 7487 C 701.052 -1.62584 0.022516 0
M  V30 7488 O 702.236 -1.87671 0.176644 0
M  V30 7489 C 699.363 -3.3134 0.702237 0
M  V30 7490 C 698.409 -3.86807 1.79673 0
M  V30 7491 S 699.242 -4.13735 3.39976 0
M  V30 7492 C 700.398 -5.49024 3.00538 0
M  V30 7493 H 700.631 -2.1491 2.05429 0
M  V30 7494 H 698.164 -1.03074 1.14957 0
M  V30 7495 H 700.122 -4.07796 0.470415 0
M  V30 7496 H 698.783 -3.13349 -0.217034 0
M  V30 7497 H 697.976 -4.82397 1.45977 0
M  V30 7498 H 697.578 -3.17102 1.98298 0
M  V30 7499 H 699.87 -6.30208 2.48684 0
M  V30 7500 H 700.813 -5.8766 3.95046 0
M  V30 7501 H 701.221 -5.11726 2.3832 0
M  V30 7502 N 700.619 -1.13374 -1.09472 0
M  V30 7503 C 701.865 -0.896516 -1.81908 0
M  V30 7504 C 702.198 0.575933 -1.85463 0
M  V30 7505 O 701.473 1.42618 -1.32251 0
M  V30 7506 C 701.756 -1.48445 -3.28079 0
M  V30 7507 C 701.609 -3.02598 -3.32798 0
M  V30 7508 C 702.928 -1.15226 -4.24748 0
M  V30 7509 H 700.047 -0.327127 -0.660422 0
M  V30 7510 H 702.689 -1.40195 -1.2824 0
M  V30 7511 H 700.839 -1.0546 -3.73912 0
M  V30 7512 H 702.511 -3.54335 -2.95372 0
M  V30 7513 H 700.754 -3.37613 -2.72397 0
M  V30 7514 H 701.425 -3.38835 -4.3577 0
M  V30 7515 H 703.901 -1.52369 -3.87199 0
M  V30 7516 H 702.777 -1.59012 -5.25363 0
M  V30 7517 H 703.038 -0.0658891 -4.42051 0
M  V30 7518 N 702.098 1.27442 -0.927168 0
M  V30 7519 C 703.323 1.99036 -0.583042 0
M  V30 7520 C 703.748 1.68711 0.83176 0
M  V30 7521 O 703.106 0.927081 1.55804 0
M  V30 7522 C 703.154 3.51271 -0.814925 0
M  V30 7523 O 702.258 4.12226 0.119742 0
M  V30 7524 H 701.599 0.624883 -0.224538 0
M  V30 7525 H 704.129 1.62263 -1.24628 0
M  V30 7526 H 704.139 4.01411 -0.730282 0
M  V30 7527 H 702.814 3.72676 -1.84623 0
M  V30 7528 H 701.391 3.72897 -0.0147688 0
M  V30 7529 N 703.576 0.692616 1.41565 0
M  V30 7530 C 704.822 0.222664 2.01574 0
M  V30 7531 C 705.155 -1.1737 1.54719 0
M  V30 7532 O 704.43 -1.79161 0.757084 0
M  V30 7533 C 704.713 0.277064 3.59033 0
M  V30 7534 C 704.566 1.71016 4.16021 0
M  V30 7535 C 705.885 -0.36479 4.38586 0
M  V30 7536 H 703.004 0.0823839 0.732381 0
M  V30 7537 H 705.646 0.880778 1.68352 0
M  V30 7538 H 703.796 -0.283288 3.87466 0
M  V30 7539 H 705.468 2.32413 3.98475 0
M  V30 7540 H 703.711 2.24525 3.71175 0
M  V30 7541 H 704.382 1.69978 5.25178 0
M  V30 7542 H 706.858 0.112404 4.15948 0
M  V30 7543 H 705.734 -0.296169 5.481 0
M  V30 7544 H 705.995 -1.44506 4.17816 0
M  V30 7545 N 705.054 -1.51416 0.437162 0
M  V30 7546 C 706.282 -2.06503 -0.128045 0
M  V30 7547 C 706.697 -1.30461 -1.36475 0
M  V30 7548 O 706.054 -0.364127 -1.78831 0
M  V30 7549 C 706.105 -3.58683 -0.450437 0
M  V30 7550 O 705.826 -4.31853 0.737186 0
M  V30 7551 C 707.327 -4.30284 -1.06633 0
M  V30 7552 H 704.547 -0.670952 -0.00800269 0
M  V30 7553 H 707.091 -1.94996 0.616193 0
M  V30 7554 H 705.246 -3.70106 -1.14457 0
M  V30 7555 H 705.66 -5.22467 0.461347 0
M  V30 7556 H 707.134 -5.37848 -1.24191 0
M  V30 7557 H 707.611 -3.88564 -2.0473 0
M  V30 7558 H 708.217 -4.23304 -0.411585 0
M  V30 7559 N 706.532 -0.168513 -1.56696 0
M  V30 7560 C 707.442 0.775435 -2.21414 0
M  V30 7561 C 708.458 1.25529 -1.20492 0
M  V30 7562 O 709.634 1.30801 -1.53144 0
M  V30 7563 C 706.699 1.9886 -2.83999 0
M  V30 7564 C 705.76 1.5559 -4.00113 0
M  V30 7565 C 704.993 2.71124 -4.59704 0
M  V30 7566 O 705.216 3.87917 -4.18182 0
M  V30 7567 O 704.15 2.4536 -5.4962 0
M  V30 7568 H 707.976 0.254416 -3.02632 0
M  V30 7569 H 705.561 0.0595507 -1.49281 0
M  V30 7570 H 707.443 2.69816 -3.23693 0
M  V30 7571 H 706.118 2.49874 -2.05779 0
M  V30 7572 H 705.025 0.815924 -3.65094 0
M  V30 7573 H 706.358 1.09271 -4.79917 0
M  V30 7574 N 708.01 1.57248 0.105221 0
M  V30 7575 C 709.421 1.74612 0.660865 0
M  V30 7576 C 709.772 0.789231 1.79626 0
M  V30 7577 O 708.897 -0.0346611 2.16372 0
M  V30 7578 C 709.492 3.16624 1.20559 0
M  V30 7579 C 708.051 3.35447 1.7074 0
M  V30 7580 C 707.198 2.70445 0.612764 0
M  V30 7581 H 710.149 1.5824 -0.12079 0
M  V30 7582 H 710.17 3.18937 2.07508 0
M  V30 7583 H 709.682 3.86245 0.379012 0
M  V30 7584 H 707.783 2.7089 2.5583 0
M  V30 7585 H 707.896 4.43702 1.80736 0
M  V30 7586 H 706.26 2.32061 1.04975 0
M  V30 7587 H 707.043 3.42699 -0.203066 0
M  V30 7588 N 709.488 -0.375779 1.53054 0
M  V30 7589 C 710.736 -1.11727 1.68409 0
M  V30 7590 C 711.057 -1.90127 0.43323 0
M  V30 7591 O 710.327 -1.87945 -0.552595 0
M  V30 7592 H 708.907 -0.415451 0.620813 0
M  V30 7593 H 711.569 -0.424869 1.90213 0
M  V30 7594 H 710.665 -1.8128 2.54055 0
M  V30 7595 N 710.966 -1.44241 -0.634997 0
M  V30 7596 C 712.214 -1.46531 -1.39187 0
M  V30 7597 C 712.535 -0.0976441 -1.94755 0
M  V30 7598 O 711.805 0.869528 -1.75545 0
M  V30 7599 H 710.385 -0.539544 -0.516625 0
M  V30 7600 H 713.047 -1.79989 -0.747655 0
M  V30 7601 H 712.143 -2.18848 -2.22513 0
M  V30 7602 N 712.444 0.87505 -1.31075 0
M  V30 7603 C 713.672 1.66058 -1.23419 0
M  V30 7604 C 714.087 1.87723 0.201347 0
M  V30 7605 O 713.444 1.43178 1.13165 0
M  V30 7606 C 713.495 3.03142 -1.96945 0
M  V30 7607 O 713.216 2.82448 -3.34895 0
M  V30 7608 C 714.717 3.97583 -1.96067 0
M  V30 7609 H 711.937 0.517868 -0.426677 0
M  V30 7610 H 714.481 1.09258 -1.72867 0
M  V30 7611 H 712.636 3.56645 -1.51271 0
M  V30 7612 H 713.05 3.69483 -3.72267 0
M  V30 7613 H 714.524 4.91104 -2.52034 0
M  V30 7614 H 715.001 4.2898 -0.941961 0
M  V30 7615 H 715.607 3.50015 -2.41597 0
M  V30 7616 N 713.922 1.13953 1.08869 0
M  V30 7617 C 715.17 0.903023 1.80803 0
M  V30 7618 C 715.491 -0.572151 1.86417 0
M  V30 7619 O 714.761 -1.41589 1.35386 0
M  V30 7620 H 713.341 0.331099 0.669614 0
M  V30 7621 H 716.003 1.43719 1.31647 0
M  V30 7622 H 715.099 1.29881 2.83791 0
M  V30 7623 N 715.4 -1.26948 0.933913 0
M  V30 7624 C 716.628 -1.98186 0.59414 0
M  V30 7625 C 717.043 -1.69614 -0.829257 0
M  V30 7626 O 716.4 -0.960213 -1.55197 0
M  V30 7627 C 716.451 -3.52123 0.818026 0
M  V30 7628 O 716.172 -3.79698 2.18543 0
M  V30 7629 C 717.673 -4.40608 0.48781 0
M  V30 7630 H 714.893 -0.632305 0.224569 0
M  V30 7631 H 717.437 -1.61646 1.25263 0
M  V30 7632 H 715.592 -3.86851 0.206246 0
M  V30 7633 H 716.006 -4.7426 2.24005 0
M  V30 7634 H 717.48 -5.47606 0.695126 0
M  V30 7635 H 717.957 -4.35394 -0.576913 0
M  V30 7636 H 718.563 -4.11411 1.078 0
M  V30 7637 N 716.879 -0.700114 -1.41195 0
M  V30 7638 C 717.842 -0.0465706 -2.29153 0
M  V30 7639 C 718.842 0.703302 -1.44604 0
M  V30 7640 O 720.032 0.537513 -1.657 0
M  V30 7641 C 717.164 0.944324 -3.2756 0
M  V30 7642 H 718.357 -0.821064 -2.88442 0
M  V30 7643 H 715.91 -0.463869 -1.49258 0
M  V30 7644 H 716.645 1.74642 -2.73259 0
M  V30 7645 H 716.43 0.409701 -3.89954 0
M  V30 7646 H 717.92 1.39925 -3.9346 0
M  V30 7647 N 718.357 1.51182 -0.445186 0
M  V30 7648 C 719.605 2.01753 0.11841 0
M  V30 7649 C 719.926 1.33087 1.42523 0
M  V30 7650 O 719.196 0.467891 1.9023 0
M  V30 7651 H 717.776 0.745536 0.0467492 0
M  V30 7652 H 720.438 1.85765 -0.589688 0
M  V30 7653 H 719.534 3.10762 0.288665 0
M  V30 7654 N 719.835 0.176821 1.56605 0
M  V30 7655 C 720.798 -0.737429 2.17013 0
M  V30 7656 C 721.798 -1.15414 1.11965 0
M  V30 7657 O 722.988 -1.0702 1.37449 0
M  V30 7658 C 720.12 -2.00445 2.75744 0
M  V30 7659 H 721.313 -0.211455 2.99154 0
M  V30 7660 H 718.866 -0.0727582 1.56131 0
M  V30 7661 H 719.601 -2.57338 1.97352 0
M  V30 7662 H 719.386 -1.71456 3.52626 0
M  V30 7663 H 720.876 -2.65679 3.22187 0
M  V30 7664 N 721.313 -1.57302 -0.09688 0
M  V30 7665 C 722.559 -1.86273 -0.801885 0
M  V30 7666 C 722.892 -0.765694 -1.78468 0
M  V30 7667 O 722.167 0.226495 -1.93177 0
M  V30 7668 C 722.45 -3.25876 -1.53221 0
M  V30 7669 C 722.303 -4.46205 -0.567529 0
M  V30 7670 C 723.622 -3.63352 -2.48321 0
M  V30 7671 H 720.741 -0.67752 -0.29006 0
M  V30 7672 H 723.383 -1.89887 -0.0655577 0
M  V30 7673 H 721.533 -3.22926 -2.15988 0
M  V30 7674 H 723.205 -4.6127 0.0529982 0
M  V30 7675 H 721.448 -4.33636 0.119233 0
M  V30 7676 H 722.119 -5.40608 -1.11564 0
M  V30 7677 H 724.595 -3.67234 -1.95648 0
M  V30 7678 H 723.471 -4.61968 -2.9644 0
M  V30 7679 H 723.732 -2.91941 -3.31998 0
M  V30 7680 N 722.791 0.367657 -1.53252 0
M  V30 7681 C 724.068 1.12606 -1.59935 0
M  V30 7682 C 724.448 2.07167 -0.405606 0
M  V30 7683 O 723.796 2.20364 0.604323 0
M  V30 7684 C 724.006 1.86699 -2.94863 0
M  V30 7685 C 725.354 2.41306 -3.49366 0
M  V30 7686 O 726.378 1.96828 -2.96879 0
M  V30 7687 O 725.237 3.2261 -4.41118 0
M  V30 7688 H 722.331 0.516438 -0.645926 0
M  V30 7689 H 724.877 0.371088 -1.65593 0
M  V30 7690 H 723.649 1.17674 -3.73187 0
M  V30 7691 H 723.272 2.6911 -2.92687 0
M  V30 7692 N 724.269 1.44576 0.627338 0
M  V30 7693 C 725.517 1.47267 1.38408 0
M  V30 7694 C 725.838 0.107971 1.94701 0
M  V30 7695 O 725.108 -0.860206 1.76004 0
M  V30 7696 H 723.688 0.542276 0.513756 0
M  V30 7697 H 726.35 1.80383 0.738099 0
M  V30 7698 H 725.446 2.20025 2.21349 0
M  V30 7699 N 725.747 -0.868086 1.31537 0
M  V30 7700 C 726.994 -1.62127 1.2133 0
M  V30 7701 C 727.322 -1.93158 -0.2281 0
M  V30 7702 O 726.577 -1.5632 -1.1774 0
M  V30 7703 C 726.876 -2.95889 2.0046 0
M  V30 7704 C 726.542 -2.84343 3.49943 0
M  V30 7705 C 725.204 -2.80901 3.90702 0
M  V30 7706 C 727.556 -2.71243 4.45058 0
M  V30 7707 C 724.884 -2.6222 5.24841 0
M  V30 7708 C 727.236 -2.54098 5.79325 0
M  V30 7709 C 725.9 -2.4904 6.19302 0
M  V30 7710 H 725.17 -0.593265 0.443979 0
M  V30 7711 H 727.817 -1.00803 1.62822 0
M  V30 7712 H 726.122 -3.61259 1.51655 0
M  V30 7713 H 727.819 -3.53161 1.89942 0
M  V30 7714 H 724.409 -2.8784 3.17563 0
M  V30 7715 H 728.593 -2.72956 4.14498 0
M  V30 7716 H 723.849 -2.56731 5.54887 0
M  V30 7717 H 728.023 -2.42938 6.52652 0
M  V30 7718 H 725.65 -2.34324 7.23185 0
M  V30 7719 N 727.225 -1.14528 -1.08264 0
M  V30 7720 C 728.502 -0.825185 -1.77342 0
M  V30 7721 C 728.882 0.681037 -1.99813 0
M  V30 7722 O 728.23 1.62234 -1.60912 0
M  V30 7723 C 728.44 -1.62556 -3.08831 0
M  V30 7724 C 729.788 -1.82585 -3.83338 0
M  V30 7725 O 730.812 -1.59254 -3.18617 0
M  V30 7726 O 729.671 -2.21598 -4.99556 0
M  V30 7727 H 726.765 -0.302531 -0.769678 0
M  V30 7728 H 729.311 -1.25056 -1.14713 0
M  V30 7729 H 728.083 -2.64862 -2.88035 0
M  V30 7730 H 727.706 -1.1959 -3.79189 0
M  V30 7731 N 728.703 1.26451 -0.940633 0
M  V30 7732 C 729.949 1.94065 -0.58878 0
M  V30 7733 C 730.282 1.7363 0.869853 0
M  V30 7734 O 729.557 1.073 1.62225 0
M  V30 7735 C 729.84 3.47852 -0.931199 0
M  V30 7736 C 729.693 3.77575 -2.44453 0
M  V30 7737 C 731.012 4.37832 -0.446229 0
M  V30 7738 H 728.131 0.704827 -0.21538 0
M  V30 7739 H 730.773 1.4933 -1.17475 0
M  V30 7740 H 728.923 3.86085 -0.432539 0
M  V30 7741 H 730.595 3.49059 -3.01588 0
M  V30 7742 H 728.838 3.23671 -2.88825 0
M  V30 7743 H 729.509 4.85068 -2.63464 0
M  V30 7744 H 731.985 4.06822 -0.873778 0
M  V30 7745 H 730.861 5.44228 -0.714648 0
M  V30 7746 H 731.122 4.37239 0.653815 0
M  V30 7747 N 730.181 0.707592 1.40822 0
M  V30 7748 C 731.429 0.243189 2.00632 0
M  V30 7749 C 731.75 -1.16512 1.56365 0
M  V30 7750 O 731.02 -1.78841 0.799553 0
M  V30 7751 H 729.6 0.0869203 0.741926 0
M  V30 7752 H 732.262 0.911438 1.72275 0
M  V30 7753 H 731.358 0.270014 3.1093 0
M  V30 7754 N 731.66 -1.50943 0.453197 0
M  V30 7755 C 732.623 -2.26684 -0.338705 0
M  V30 7756 C 733.623 -1.30748 -0.936032 0
M  V30 7757 O 734.813 -1.54327 -0.808002 0
M  V30 7758 C 731.945 -3.07063 -1.48071 0
M  V30 7759 H 733.138 -2.98131 0.325289 0
M  V30 7760 H 730.691 -1.54926 0.206771 0
M  V30 7761 H 731.426 -2.4007 -2.18029 0
M  V30 7762 H 731.211 -3.77545 -1.0584 0
M  V30 7763 H 732.701 -3.64393 -2.0398 0
M  V30 7764 N 733.138 -0.185124 -1.56509 0
M  V30 7765 C 734.085 0.739729 -2.18624 0
M  V30 7766 C 735.055 1.217 -1.13042 0
M  V30 7767 O 736.24 1.28268 -1.41251 0
M  V30 7768 C 733.38 1.95787 -2.84186 0
M  V30 7769 C 732.493 1.52289 -4.04267 0
M  V30 7770 C 731.628 2.69576 -4.57714 0
M  V30 7771 C 730.667 2.22636 -5.70175 0
M  V30 7772 N 729.804 3.33065 -6.18071 0
M  V30 7773 H 734.644 0.203269 -2.97306 0
M  V30 7774 H 732.181 0.0885946 -1.46833 0
M  V30 7775 H 734.139 2.67253 -3.20361 0
M  V30 7776 H 732.769 2.4678 -2.08085 0
M  V30 7777 H 731.821 0.704458 -3.7382 0
M  V30 7778 H 733.133 1.13843 -4.85635 0
M  V30 7779 H 732.287 3.4918 -4.96143 0
M  V30 7780 H 731.026 3.1129 -3.75433 0
M  V30 7781 H 730.031 1.41483 -5.31284 0
M  V30 7782 H 731.256 1.81964 -6.54267 0
M  V30 7783 H 729.202 3.74328 -5.38715 0
M  V30 7784 H 729.119 2.98756 -6.94464 0
M  V30 7785 H 730.387 4.12912 -6.61153 0
M  V30 7786 N 734.616 1.57351 0.0885366 0
M  V30 7787 C 735.844 1.90631 0.804196 0
M  V30 7788 C 736.259 0.779474 1.71958 0
M  V30 7789 O 735.616 -0.248179 1.80805 0
M  V30 7790 C 735.667 3.23568 1.61202 0
M  V30 7791 O 735.388 4.31917 0.733447 0
M  V30 7792 C 736.889 3.70753 2.43016 0
M  V30 7793 H 734.109 0.630501 0.229585 0
M  V30 7794 H 736.653 2.044 0.0638092 0
M  V30 7795 H 734.808 3.11377 2.30485 0
M  V30 7796 H 735.222 5.08297 1.29361 0
M  V30 7797 H 736.696 4.66447 2.9518 0
M  V30 7798 H 737.173 2.98922 3.2178 0
M  V30 7799 H 737.779 3.85834 1.7892 0
M  V30 7800 N 736.094 -0.359525 1.53444 0
M  V30 7801 C 737.342 -1.09935 1.69584 0
M  V30 7802 C 737.663 -1.89656 0.453371 0
M  V30 7803 O 736.933 -1.8852 -0.53263 0
M  V30 7804 H 735.513 -0.408843 0.625185 0
M  V30 7805 H 738.175 -0.40467 1.90653 0
M  V30 7806 H 737.271 -1.78575 2.55964 0
M  V30 7807 N 737.572 -1.44907 -0.619662 0
M  V30 7808 C 738.8 -1.51795 -1.40591 0
M  V30 7809 C 739.215 -0.146553 -1.8823 0
M  V30 7810 O 738.572 0.849698 -1.61513 0
M  V30 7811 C 738.623 -2.49229 -2.61853 0
M  V30 7812 O 738.344 -3.81039 -2.16197 0
M  V30 7813 C 739.845 -2.65696 -3.54853 0
M  V30 7814 H 737.065 -0.514463 -0.430777 0
M  V30 7815 H 739.609 -1.8998 -0.756813 0
M  V30 7816 H 737.764 -2.14149 -3.2283 0
M  V30 7817 H 738.178 -4.33747 -2.94896 0
M  V30 7818 H 739.652 -3.37874 -4.36515 0
M  V30 7819 H 740.129 -1.71316 -4.0441 0
M  V30 7820 H 740.735 -3.01724 -2.99737 0
M  V30 7821 N 739.05 0.861098 -1.31996 0
M  V30 7822 C 740.013 1.95068 -1.20338 0
M  V30 7823 C 741.013 1.60289 -0.128114 0
M  V30 7824 O 742.203 1.70048 -0.378044 0
M  V30 7825 C 739.335 3.30153 -0.849205 0
M  V30 7826 H 740.528 2.06833 -2.17164 0
M  V30 7827 H 738.081 1.05049 -1.15734 0
M  V30 7828 H 738.816 3.24087 0.117508 0
M  V30 7829 H 738.601 3.56771 -1.62655 0
M  V30 7830 H 740.091 4.10025 -0.791782 0
M  V30 7831 N 740.528 1.15101 1.07655 0
M  V30 7832 C 741.944 0.893004 1.32279 0
M  V30 7833 C 742.144 -0.461701 1.96139 0
M  V30 7834 O 741.2 -1.20431 2.21929 0
M  V30 7835 C 742.513 2.03161 2.21689 0
M  V30 7836 C 744.061 2.06579 2.35147 0
M  V30 7837 C 744.536 3.19754 3.27905 0
M  V30 7838 N 746.027 3.19382 3.35484 0
M  V30 7839 C 746.762 4.03592 4.07309 0
M  V30 7840 N 746.258 4.97859 4.81776 0
M  V30 7841 N 748.051 3.91626 4.03219 0
M  V30 7842 H 740.202 2.02341 0.645886 0
M  V30 7843 H 742.465 0.882127 0.347211 0
M  V30 7844 H 742.171 3.00934 1.82021 0
M  V30 7845 H 742.045 1.96132 3.22199 0
M  V30 7846 H 744.432 1.09408 2.74069 0
M  V30 7847 H 744.513 2.17676 1.34353 0
M  V30 7848 H 744.157 4.17175 2.89702 0
M  V30 7849 H 744.087 3.05893 4.28645 0
M  V30 7850 H 746.578 2.51112 2.82403 0
M  V30 7851 H 746.891 5.58563 5.34067 0
M  V30 7852 H 745.236 5.0185 4.80803 0
M  V30 7853 H 748.427 3.17295 3.44154 0
M  V30 7854 H 748.6 4.57479 4.5893 0
M  V30 7855 N 742.006 -1.2595 0.947325 0
M  V30 7856 C 742.953 -2.26159 0.460497 0
M  V30 7857 C 743.923 -1.58919 -0.483125 0
M  V30 7858 O 745.108 -1.86603 -0.397983 0
M  V30 7859 C 742.248 -3.441 -0.26247 0
M  V30 7860 C 741.361 -4.25999 0.717539 0
M  V30 7861 C 740.496 -5.31193 -0.0272486 0
M  V30 7862 C 739.535 -6.04774 0.944177 0
M  V30 7863 N 738.672 -7.01721 0.230741 0
M  V30 7864 H 743.512 -2.67173 1.31995 0
M  V30 7865 H 741.049 -1.31358 0.662088 0
M  V30 7866 H 743.007 -4.11317 -0.698137 0
M  V30 7867 H 741.637 -3.03983 -1.08602 0
M  V30 7868 H 740.689 -3.58513 1.27171 0
M  V30 7869 H 742.001 -4.76981 1.45913 0
M  V30 7870 H 741.155 -6.04451 -0.521903 0
M  V30 7871 H 739.894 -4.81066 -0.801682 0
M  V30 7872 H 738.899 -5.30338 1.4499 0
M  V30 7873 H 740.124 -6.56991 1.71872 0
M  V30 7874 H 738.07 -6.53895 -0.525088 0
M  V30 7875 H 737.987 -7.50484 0.911556 0
M  V30 7876 H 739.255 -7.79122 -0.242616 0
M  V30 7877 N 743.484 -0.715051 -1.40445 0
M  V30 7878 C 744.731 -0.254328 -2.00897 0
M  V30 7879 C 745.059 1.15228 -1.56693 0
M  V30 7880 O 744.314 1.7958 -0.777786 0
M  V30 7881 C 744.613 -0.281791 -3.56287 0
M  V30 7882 C 744.279 -1.63862 -4.20071 0
M  V30 7883 C 742.941 -2.01003 -4.37208 0
M  V30 7884 C 745.293 -2.53039 -4.55654 0
M  V30 7885 C 742.621 -3.26869 -4.8721 0
M  V30 7886 C 744.973 -3.78256 -5.07055 0
M  V30 7887 C 743.637 -4.15515 -5.22401 0
M  V30 7888 H 742.907 -0.0930652 -0.735133 0
M  V30 7889 H 745.554 -0.917977 -1.68064 0
M  V30 7890 H 743.859 0.465428 -3.89026 0
M  V30 7891 H 745.556 0.0925158 -4.00893 0
M  V30 7892 H 742.146 -1.33979 -4.07121 0
M  V30 7893 H 746.33 -2.2562 -4.42051 0
M  V30 7894 H 741.586 -3.55706 -4.97276 0
M  V30 7895 H 745.76 -4.47528 -5.33565 0
M  V30 7896 H 743.387 -5.13114 -5.60909 0
M  V30 7897 N 744.962 1.50701 -0.461195 0
M  V30 7898 C 746.208 2.02566 0.0973411 0
M  V30 7899 C 746.541 1.3432 1.40257 0
M  V30 7900 O 745.816 0.465692 1.88843 0
M  V30 7901 C 746.099 3.58919 0.291423 0
M  V30 7902 C 745.952 4.37751 -1.03413 0
M  V30 7903 C 747.271 4.27379 1.05048 0
M  V30 7904 H 744.39 0.73622 0.0339026 0
M  V30 7905 H 747.032 1.80115 -0.604855 0
M  V30 7906 H 745.182 3.78179 0.889539 0
M  V30 7907 H 746.854 4.30085 -1.66806 0
M  V30 7908 H 745.097 4.01885 -1.63313 0
M  V30 7909 H 745.768 5.45384 -0.852085 0
M  V30 7910 H 748.244 4.12534 0.543603 0
M  V30 7911 H 747.12 5.36609 1.15506 0
M  V30 7912 H 747.381 3.89868 2.0846 0
M  V30 7913 N 746.441 0.193421 1.56409 0
M  V30 7914 C 747.389 -0.744829 2.20352 0
M  V30 7915 C 748.383 -1.22104 1.17418 0
M  V30 7916 O 749.589 -1.18413 1.35567 0
M  V30 7917 H 745.964 -0.258538 0.70616 0
M  V30 7918 H 747.935 -0.181794 2.97846 0
M  V30 7919 C 746.684 -1.95453 2.87565 0
M  V30 7920 H 746.007 -1.59716 3.66512 0
M  V30 7921 H 747.447 -2.58942 3.35745 0
M  V30 7922 C 745.906 -2.79223 1.8851 0
M  V30 7923 O 746.436 -3.77093 1.38434 0
M  V30 7924 N 744.642 -2.44682 1.56777 0
M  V30 7925 H 744.189 -1.65153 1.97692 0
M  V30 7926 H 744.147 -3.01016 0.907573 0
M  V30 7927 N 747.919 -1.57396 -0.0801906 0
M  V30 7928 C 749.167 -1.86467 -0.779384 0
M  V30 7929 C 749.488 -0.784243 -1.78535 0
M  V30 7930 O 748.758 0.187986 -1.94996 0
M  V30 7931 H 747.338 -0.68806 -0.29083 0
M  V30 7932 H 750 -1.94813 -0.0582749 0
M  V30 7933 H 749.096 -2.83701 -1.30078 0
M  V30 7934 N 749.397 0.351382 -1.53633 0
M  V30 7935 C 750.813 0.693987 -1.43722 0
M  V30 7936 C 751.013 1.9274 -0.587669 0
M  V30 7937 O 750.069 2.52387 -0.0756082 0
M  V30 7938 C 751.382 0.893937 -2.87105 0
M  V30 7939 C 752.93 0.993051 -2.96829 0
M  V30 7940 C 753.405 1.22537 -4.41303 0
M  V30 7941 N 754.896 1.29275 -4.44795 0
M  V30 7942 C 755.631 1.48988 -5.53706 0
M  V30 7943 N 755.127 1.65924 -6.72637 0
M  V30 7944 N 756.92 1.51472 -5.41306 0
M  V30 7945 H 749.071 -0.459688 -2.07366 0
M  V30 7946 H 751.334 -0.143684 -0.937048 0
M  V30 7947 H 751.04 0.0592517 -3.5165 0
M  V30 7948 H 750.914 1.79795 -3.31592 0
M  V30 7949 H 753.301 1.81827 -2.32429 0
M  V30 7950 H 753.382 0.0661119 -2.55715 0
M  V30 7951 H 753.026 0.405117 -5.06282 0
M  V30 7952 H 752.956 2.16575 -4.80003 0
M  V30 7953 H 755.447 1.17743 -3.59089 0
M  V30 7954 H 755.76 1.80578 -7.51406 0
M  V30 7955 H 754.105 1.63075 -6.75597 0
M  V30 7956 H 757.296 1.37818 -4.47352 0
M  V30 7957 H 757.469 1.66493 -6.26246 0
M  V30 7958 N 750.875 1.45233 0.611969 0
M  V30 7959 C 752.105 1.52318 1.39581 0
M  V30 7960 C 752.513 0.153093 1.8858 0
M  V30 7961 O 751.856 -0.854792 1.62601 0
M  V30 7962 C 751.918 2.4426 2.63775 0
M  V30 7963 C 751.582 3.91079 2.36445 0
M  V30 7964 C 752.579 4.81099 1.97079 0
M  V30 7965 C 750.264 4.35958 2.49492 0
M  V30 7966 C 752.258 6.14002 1.71115 0
M  V30 7967 C 749.945 5.68903 2.23142 0
M  V30 7968 C 750.943 6.57744 1.84015 0
M  V30 7969 O 750.631 7.88226 1.5797 0
M  V30 7970 H 750.363 0.518428 0.43383 0
M  V30 7971 H 752.917 1.91067 0.753837 0
M  V30 7972 H 751.147 2.00474 3.30677 0
M  V30 7973 H 752.836 2.42077 3.25812 0
M  V30 7974 H 753.602 4.47692 1.86539 0
M  V30 7975 H 749.481 3.67053 2.78914 0
M  V30 7976 H 753.025 6.83305 1.405 0
M  V30 7977 H 748.922 6.01866 2.33297 0
M  V30 7978 H 749.69 8.00211 1.72058 0
M  V30 7979 N 752.353 -0.854086 1.3245 0
M  V30 7980 C 753.316 -1.94427 1.21371 0
M  V30 7981 C 754.316 -1.60219 0.136613 0
M  V30 7982 O 755.506 -1.69846 0.387057 0
M  V30 7983 C 752.638 -3.29698 0.866701 0
M  V30 7984 H 753.831 -2.05679 2.18257 0
M  V30 7985 H 751.384 -1.04434 1.1629 0
M  V30 7986 H 752.119 -3.24145 -0.100319 0
M  V30 7987 H 751.904 -3.55903 1.64545 0
M  V30 7988 H 753.394 -4.09599 0.813515 0
M  V30 7989 N 753.831 -1.1567 -1.07043 0
M  V30 7990 C 755.108 -0.843948 -1.76456 0
M  V30 7991 C 755.488 0.659806 -2.00524 0
M  V30 7992 O 754.836 1.60518 -1.62623 0
M  V30 7993 C 755.046 -1.65822 -3.0709 0
M  V30 7994 C 756.394 -1.8664 -3.8138 0
M  V30 7995 O 757.418 -1.62624 -3.1691 0
M  V30 7996 O 756.277 -2.26884 -4.97178 0
M  V30 7997 H 753.371 -0.310677 -0.766426 0
M  V30 7998 H 755.917 -1.26266 -1.1338 0
M  V30 7999 H 754.689 -2.67902 -2.85209 0
M  V30 8000 H 754.312 -1.23605 -3.77899 0
M  V30 8001 N 755.309 1.25446 -0.953992 0
M  V30 8002 C 756.257 2.27909 -0.46478 0
M  V30 8003 C 757.251 1.62904 0.464607 0
M  V30 8004 O 758.457 1.76733 0.341407 0
M  V30 8005 H 754.832 0.74036 -0.131798 0
M  V30 8006 H 756.803 2.66559 -1.34122 0
M  V30 8007 C 755.552 3.46853 0.242589 0
M  V30 8008 H 754.875 3.97105 -0.463418 0
M  V30 8009 H 756.315 4.20432 0.548919 0
M  V30 8010 C 754.774 3.03386 1.46487 0
M  V30 8011 O 755.304 3.09342 2.56262 0
M  V30 8012 N 753.51 2.58584 1.32599 0
M  V30 8013 H 753.057 2.53938 0.432834 0
M  V30 8014 H 753.015 2.29866 2.14497 0
M  V30 8015 N 756.787 0.722489 1.40064 0
M  V30 8016 C 757.734 0.0743738 2.3068 0
M  V30 8017 C 758.704 -0.743004 1.48555 0
M  V30 8018 O 759.889 -0.705536 1.77276 0
M  V30 8019 C 757.029 -0.836292 3.34814 0
M  V30 8020 C 756.142 -0.00764663 4.31999 0
M  V30 8021 C 755.277 -0.918428 5.232 0
M  V30 8022 C 754.316 -0.0842838 6.12042 0
M  V30 8023 N 753.453 -0.950316 6.95639 0
M  V30 8024 H 758.293 0.852794 2.85537 0
M  V30 8025 H 755.83 0.432222 1.40607 0
M  V30 8026 H 757.788 -1.3786 3.93765 0
M  V30 8027 H 756.418 -1.58082 2.81443 0
M  V30 8028 H 755.47 0.651928 3.74772 0
M  V30 8029 H 756.782 0.63786 4.94705 0
M  V30 8030 H 755.936 -1.52902 5.87116 0
M  V30 8031 H 754.675 -1.59774 4.60786 0
M  V30 8032 H 753.68 0.5392 5.4715 0
M  V30 8033 H 754.905 0.591628 6.76518 0
M  V30 8034 H 752.851 -1.61515 6.35806 0
M  V30 8035 H 752.768 -0.361004 7.55138 0
M  V30 8036 H 754.036 -1.54687 7.63997 0
M  V30 8037 N 758.265 -1.50454 0.469181 0
M  V30 8038 C 759.215 -2.25381 -0.344582 0
M  V30 8039 C 760.199 -1.28892 -0.963098 0
M  V30 8040 O 761.391 -1.53805 -0.875964 0
M  V30 8041 C 758.52 -3.12232 -1.4271 0
M  V30 8042 C 757.606 -4.16168 -0.816411 0
M  V30 8043 N 757.997 -5.05762 0.0621424 0
M  V30 8044 C 756.295 -4.32712 -1.08056 0
M  V30 8045 C 756.996 -5.80264 0.408519 0
M  V30 8046 N 755.972 -5.43171 -0.215827 0
M  V30 8047 H 759.774 -2.92016 0.332237 0
M  V30 8048 H 757.288 -1.59911 0.283209 0
M  V30 8049 H 759.285 -3.64514 -2.02324 0
M  V30 8050 H 757.945 -2.47145 -2.10593 0
M  V30 8051 H 758.956 -5.16105 0.430841 0
M  V30 8052 H 755.633 -3.78844 -1.75452 0
M  V30 8053 H 757.023 -6.62408 1.12539 0
M  V30 8054 N 759.743 -0.201713 -1.56304 0
M  V30 8055 C 760.989 0.435952 -1.98059 0
M  V30 8056 C 761.322 1.60811 -1.08873 0
M  V30 8057 O 760.597 1.9398 -0.142128 0
M  V30 8058 C 760.88 0.889706 -3.48936 0
M  V30 8059 C 760.733 -0.284725 -4.48898 0
M  V30 8060 C 762.052 1.7529 -4.03685 0
M  V30 8061 H 759.171 0.15699 -0.720085 0
M  V30 8062 H 761.813 -0.293965 -1.87712 0
M  V30 8063 H 759.963 1.51166 -3.57884 0
M  V30 8064 H 761.635 -0.922531 -4.51981 0
M  V30 8065 H 759.878 -0.935427 -4.23594 0
M  V30 8066 H 760.549 0.0753865 -5.51949 0
M  V30 8067 H 763.025 1.2283 -3.97558 0
M  V30 8068 H 761.901 2.03933 -5.0961 0
M  V30 8069 H 762.162 2.70939 -3.49348 0
M  V30 8070 N 761.222 1.57436 0.0718424 0
M  V30 8071 C 762.185 2.02703 1.06977 0
M  V30 8072 C 763.185 0.924062 1.31597 0
M  V30 8073 O 764.375 1.18894 1.27318 0
M  V30 8074 C 761.507 2.40763 2.41342 0
M  V30 8075 H 762.7 2.92098 0.679619 0
M  V30 8076 H 760.253 1.5304 0.317565 0
M  V30 8077 H 760.988 1.54394 2.8519 0
M  V30 8078 H 760.773 3.21249 2.24814 0
M  V30 8079 H 762.263 2.76361 3.13073 0
M  V30 8080 N 762.7 -0.34323 1.53817 0
M  V30 8081 C 763.928 -1.10348 1.75017 0
M  V30 8082 C 764.343 -1.82345 0.489475 0
M  V30 8083 O 763.7 -1.74362 -0.538886 0
M  V30 8084 C 763.751 -2.11672 2.93048 0
M  V30 8085 O 763.472 -1.42603 4.14241 0
M  V30 8086 C 764.973 -3.0007 3.26301 0
M  V30 8087 H 762.193 -0.329056 0.584776 0
M  V30 8088 H 764.737 -0.395339 2.00642 0
M  V30 8089 H 762.892 -2.78051 2.69753 0
M  V30 8090 H 763.306 -2.10294 4.80496 0
M  V30 8091 H 764.78 -3.67101 4.12239 0
M  V30 8092 H 765.257 -3.66105 2.42618 0
M  V30 8093 H 765.863 -2.3928 3.51604 0
M  V30 8094 N 764.178 -1.45556 -0.604258 0
M  V30 8095 C 765.425 -1.49746 -1.36317 0
M  V30 8096 C 765.753 -0.140516 -1.93992 0
M  V30 8097 O 765.008 0.861244 -1.7573 0
M  V30 8098 C 765.307 -2.52697 -2.52743 0
M  V30 8099 C 764.973 -3.97315 -2.13195 0
M  V30 8100 C 763.635 -4.36692 -2.02123 0
M  V30 8101 C 765.987 -4.88249 -1.8238 0
M  V30 8102 C 763.315 -5.64895 -1.58463 0
M  V30 8103 C 765.667 -6.16867 -1.40205 0
M  V30 8104 C 764.331 -6.55172 -1.27694 0
M  V30 8105 H 763.601 -0.54796 -0.49882 0
M  V30 8106 H 766.248 -1.7892 -0.682643 0
M  V30 8107 H 764.553 -2.17105 -3.26148 0
M  V30 8108 H 766.25 -2.53176 -3.10971 0
M  V30 8109 H 762.84 -3.66176 -2.22739 0
M  V30 8110 H 767.024 -4.58561 -1.89829 0
M  V30 8111 H 762.28 -5.93365 -1.47402 0
M  V30 8112 H 766.454 -6.86771 -1.15408 0
M  V30 8113 H 764.081 -7.54411 -0.936375 0
M  V30 8114 N 765.656 0.84705 -1.32902 0
M  V30 8115 C 766.905 1.59667 -1.23245 0
M  V30 8116 C 767.218 1.94551 0.202349 0
M  V30 8117 O 768.424 2.68218 0.420847 0
M  V30 8118 C 766.88 2.8795 -2.15901 0
M  V30 8119 C 766.488 2.60461 -3.64505 0
M  V30 8120 C 768.232 3.65968 -2.15098 0
M  V30 8121 C 766.139 3.84791 -4.49099 0
M  V30 8122 H 765.069 0.599167 -0.457728 0
M  V30 8123 H 767.72 0.934662 -1.57912 0
M  V30 8124 H 766.102 3.55648 -1.74157 0
M  V30 8125 H 767.276 2.01026 -4.14639 0
M  V30 8126 H 765.591 1.9576 -3.67515 0
M  V30 8127 H 768.188 4.58241 -2.75534 0
M  V30 8128 H 768.531 4.00275 -1.14392 0
M  V30 8129 H 769.064 3.05184 -2.55162 0
M  V30 8130 H 765.803 3.55621 -5.50649 0
M  V30 8131 H 765.323 4.43594 -4.03713 0
M  V30 8132 H 767.002 4.52454 -4.62487 0
M  V30 8133 N 767.134 1.16236 1.06428 0
M  V30 8134 C 768.382 0.941171 1.78847 0
M  V30 8135 C 768.703 -0.53248 1.87589 0
M  V30 8136 O 767.973 -1.38686 1.38358 0
M  V30 8137 H 766.553 0.345228 0.66244 0
M  V30 8138 H 769.215 1.46479 1.28569 0
M  V30 8139 H 768.311 1.35871 2.80972 0
M  V30 8140 N 768.612 -1.24939 0.960631 0
M  V30 8141 C 769.859 -1.92818 0.618663 0
M  V30 8142 C 770.187 -1.75177 -0.845173 0
M  V30 8143 O 769.442 -1.09412 -1.62258 0
M  V30 8144 C 769.741 -3.45066 0.930809 0
M  V30 8145 C 769.407 -3.82869 2.38164 0
M  V30 8146 C 768.069 -3.92899 2.7782 0
M  V30 8147 C 770.421 -4.01483 3.32356 0
M  V30 8148 C 767.749 -4.18955 4.10723 0
M  V30 8149 C 770.101 -4.29033 4.6488 0
M  V30 8150 C 768.765 -4.37282 5.04322 0
M  V30 8151 H 768.035 -0.705571 0.226385 0
M  V30 8152 H 770.682 -1.48365 1.21079 0
M  V30 8153 H 768.987 -3.9096 0.256355 0
M  V30 8154 H 770.684 -3.95783 0.644712 0
M  V30 8155 H 767.274 -3.75622 2.06413 0
M  V30 8156 H 771.458 -3.93143 3.02907 0
M  V30 8157 H 766.714 -4.23558 4.40918 0
M  V30 8158 H 770.888 -4.42381 5.3784 0
M  V30 8159 H 768.515 -4.57225 6.0733 0
M  V30 8160 N 770.09 -0.729906 -1.39679 0
M  V30 8161 C 771.053 -0.0951668 -2.29002 0
M  V30 8162 C 772.053 0.672471 -1.46063 0
M  V30 8163 O 773.243 0.502245 -1.66803 0
M  V30 8164 C 770.375 0.874631 -3.29489 0
M  V30 8165 H 771.568 -0.882062 -2.86635 0
M  V30 8166 H 769.121 -0.495424 -1.4824 0
M  V30 8167 H 769.856 1.68807 -2.76902 0
M  V30 8168 H 769.641 0.326893 -3.90735 0
M  V30 8169 H 771.131 1.31548 -3.96339 0
M  V30 8170 N 771.568 1.50203 -0.477153 0
M  V30 8171 C 772.979 1.86685 -0.0235041 0
M  V30 8172 C 773.33 1.39148 1.38319 0
M  V30 8173 O 772.455 0.759051 2.02651 0
M  V30 8174 C 773.05 3.38781 -0.0358767 0
M  V30 8175 C 771.609 3.74652 0.362327 0
M  V30 8176 C 770.756 2.7412 -0.41875 0
M  V30 8177 H 773.707 1.4286 -0.691133 0
M  V30 8178 H 773.728 3.72732 0.764924 0
M  V30 8179 H 773.24 3.73349 -1.05981 0
M  V30 8180 H 771.341 3.45686 1.39039 0
M  V30 8181 H 771.454 4.79063 0.059457 0
M  V30 8182 H 769.818 2.54376 0.128341 0
M  V30 8183 H 770.601 3.11532 -1.44231 0
M  V30 8184 N 773.046 0.209999 1.56195 0
M  V30 8185 C 774.009 -0.691232 2.18528 0
M  V30 8186 C 775.009 -1.13013 1.14388 0
M  V30 8187 O 776.199 -1.04081 1.39688 0
M  V30 8188 C 773.331 -1.94551 2.79934 0
M  V30 8189 H 774.524 -0.147953 2.99535 0
M  V30 8190 H 772.077 -0.0396243 1.5625 0
M  V30 8191 H 772.812 -2.53094 2.02766 0
M  V30 8192 H 772.597 -1.63938 3.56184 0
M  V30 8193 H 774.087 -2.58785 3.2775 0
M  V30 8194 N 774.524 -1.57472 -0.0634922 0
M  V30 8195 C 775.471 -2.04258 -1.07457 0
M  V30 8196 C 776.441 -0.924804 -1.37973 0
M  V30 8197 O 777.626 -1.19305 -1.48899 0
M  V30 8198 C 774.766 -2.49832 -2.38071 0
M  V30 8199 C 773.879 -3.75263 -2.14014 0
M  V30 8200 C 773.014 -4.09585 -3.38251 0
M  V30 8201 C 772.053 -5.28032 -3.09594 0
M  V30 8202 N 771.19 -5.57953 -4.26185 0
M  V30 8203 H 776.03 -2.90402 -0.668626 0
M  V30 8204 H 773.567 -1.43609 -0.318572 0
M  V30 8205 H 775.525 -2.7431 -3.14341 0
M  V30 8206 H 774.155 -1.66654 -2.76453 0
M  V30 8207 H 773.207 -3.58075 -1.28399 0
M  V30 8208 H 774.519 -4.61667 -1.88852 0
M  V30 8209 H 773.673 -4.35008 -4.2291 0
M  V30 8210 H 772.412 -3.21765 -3.66495 0
M  V30 8211 H 771.417 -5.02397 -2.23332 0
M  V30 8212 H 772.642 -6.17477 -2.82663 0
M  V30 8213 H 770.588 -4.73092 -4.54445 0
M  V30 8214 H 770.505 -6.38793 -4.04326 0
M  V30 8215 H 771.773 -5.87931 -5.11817 0
M  V30 8216 N 776.003 0.335068 -1.53997 0
M  V30 8217 C 776.951 1.43206 -1.83289 0
M  V30 8218 C 777.945 1.54081 -0.703953 0
M  V30 8219 O 779.151 1.56603 -0.887432 0
M  V30 8220 H 775.526 0.477655 -0.580818 0
M  V30 8221 H 777.497 1.15719 -2.75049 0
M  V30 8222 C 776.246 2.79602 -2.06683 0
M  V30 8223 H 775.569 2.72004 -2.93008 0
M  V30 8224 H 777.009 3.55459 -2.31139 0
M  V30 8225 C 775.468 3.25873 -0.854883 0
M  V30 8226 O 775.998 4.01657 -0.0584648 0
M  V30 8227 N 774.204 2.82777 -0.669729 0
M  V30 8228 H 773.751 2.21269 -1.31901 0
M  V30 8229 H 773.709 3.1409 0.13969 0
M  V30 8230 N 777.481 1.45874 0.596531 0
M  V30 8231 C 778.892 1.44798 1.17857 0
M  V30 8232 C 779.243 0.181443 1.95359 0
M  V30 8233 O 778.368 -0.716336 2.042 0
M  V30 8234 C 778.963 2.62333 2.14398 0
M  V30 8235 C 777.522 2.64342 2.67955 0
M  V30 8236 C 776.669 2.37244 1.43564 0
M  V30 8237 H 779.62 1.53954 0.385222 0
M  V30 8238 H 779.641 2.37063 2.97626 0
M  V30 8239 H 779.153 3.54499 1.57963 0
M  V30 8240 H 777.254 1.76213 3.28298 0
M  V30 8241 H 777.367 3.63897 3.11634 0
M  V30 8242 H 775.731 1.87022 1.72901 0
M  V30 8243 H 776.514 3.31568 0.889805 0
M  V30 8244 N 778.959 -0.83999 1.33349 0
M  V30 8245 C 780.375 -1.13049 1.12659 0
M  V30 8246 C 780.575 -2.01328 -0.0832613 0
M  V30 8247 O 779.631 -2.40669 -0.763856 0
M  V30 8248 C 780.944 -1.79366 2.41347 0
M  V30 8249 C 782.492 -1.91937 2.47243 0
M  V30 8250 C 782.967 -2.6167 3.75889 0
M  V30 8251 N 784.458 -2.69184 3.76954 0
M  V30 8252 C 785.193 -3.23827 4.73206 0
M  V30 8253 N 784.689 -3.79166 5.79832 0
M  V30 8254 N 786.482 -3.22068 4.60683 0
M  V30 8255 H 778.633 -0.252432 2.10895 0
M  V30 8256 H 780.896 -0.174501 0.931801 0
M  V30 8257 H 780.602 -1.2196 3.29877 0
M  V30 8258 H 780.476 -2.79396 2.53412 0
M  V30 8259 H 782.863 -2.48498 1.59163 0
M  V30 8260 H 782.944 -0.908604 2.39119 0
M  V30 8261 H 782.588 -2.05769 4.64351 0
M  V30 8262 H 782.518 -3.63217 3.81289 0
M  V30 8263 H 785.009 -2.2994 2.99893 0
M  V30 8264 H 785.322 -4.19061 6.49313 0
M  V30 8265 H 783.667 -3.77457 5.83568 0
M  V30 8266 H 786.858 -2.78092 3.7654 0
M  V30 8267 H 787.031 -3.64351 5.35866 0
M  V30 8268 N 780.437 -1.16799 -1.0581 0
M  V30 8269 C 781.683 -0.953935 -1.78963 0
M  V30 8270 C 782.016 0.516638 -1.87202 0
M  V30 8271 O 781.291 1.38338 -1.36721 0
M  V30 8272 C 781.574 -1.58808 -3.23191 0
M  V30 8273 C 781.427 -3.13032 -3.23003 0
M  V30 8274 C 782.746 -1.2868 -4.20867 0
M  V30 8275 H 779.865 -0.347972 -0.64968 0
M  V30 8276 H 782.507 -1.44204 -1.23715 0
M  V30 8277 H 780.657 -1.17303 -3.70368 0
M  V30 8278 H 782.329 -3.63553 -2.83949 0
M  V30 8279 H 780.572 -3.46108 -2.61518 0
M  V30 8280 H 781.243 -3.52527 -4.24769 0
M  V30 8281 H 783.719 -1.6461 -3.82155 0
M  V30 8282 H 782.595 -1.75645 -5.20038 0
M  V30 8283 H 782.856 -0.206491 -4.41618 0
M  V30 8284 N 781.915 1.24427 -0.967243 0
M  V30 8285 C 783.164 1.91789 -0.624478 0
M  V30 8286 C 783.477 1.76448 0.844129 0
M  V30 8287 O 784.683 2.38495 1.2974 0
M  V30 8288 C 783.139 3.43743 -1.06626 0
M  V30 8289 C 782.747 3.67771 -2.55829 0
M  V30 8290 C 784.491 4.16958 -0.79662 0
M  V30 8291 C 782.398 5.13293 -2.93742 0
M  V30 8292 H 781.328 0.71811 -0.229856 0
M  V30 8293 H 783.979 1.41081 -1.17339 0
M  V30 8294 H 782.361 3.93484 -0.445663 0
M  V30 8295 H 783.535 3.28631 -3.23015 0
M  V30 8296 H 781.85 3.07841 -2.80398 0
M  V30 8297 H 784.447 5.24171 -1.05589 0
M  V30 8298 H 784.79 4.15442 0.267163 0
M  V30 8299 H 785.323 3.73164 -1.37816 0
M  V30 8300 H 782.062 5.19931 -3.9919 0
M  V30 8301 H 781.582 5.53433 -2.3124 0
M  V30 8302 H 783.261 5.81521 -2.83623 0
M  V30 8303 N 783.393 0.737304 1.3929 0
M  V30 8304 C 784.639 0.286681 2.00763 0
M  V30 8305 C 784.972 -1.12388 1.58375 0
M  V30 8306 O 784.247 -1.76661 0.813699 0
M  V30 8307 C 784.53 0.391147 3.57969 0
M  V30 8308 C 784.383 1.84165 4.1037 0
M  V30 8309 C 785.702 -0.225072 4.39524 0
M  V30 8310 H 782.821 0.105642 0.729389 0
M  V30 8311 H 785.463 0.933892 1.65464 0
M  V30 8312 H 783.613 -0.159875 3.88171 0
M  V30 8313 H 785.285 2.44972 3.90879 0
M  V30 8314 H 783.528 2.3622 3.63844 0
M  V30 8315 H 784.199 1.866 5.19504 0
M  V30 8316 H 786.675 0.244677 4.1538 0
M  V30 8317 H 785.551 -0.121646 5.48765 0
M  V30 8318 H 785.812 -1.31141 4.22202 0
M  V30 8319 N 784.871 -1.49948 0.485112 0
M  V30 8320 C 785.834 -2.27351 -0.290546 0
M  V30 8321 C 786.834 -1.32704 -0.908087 0
M  V30 8322 O 788.024 -1.56007 -0.775085 0
M  V30 8323 C 785.156 -3.10135 -1.41524 0
M  V30 8324 H 786.349 -2.97374 0.388454 0
M  V30 8325 H 783.902 -1.54453 0.239586 0
M  V30 8326 H 784.637 -2.44641 -2.12888 0
M  V30 8327 H 784.422 -3.79705 -0.978074 0
M  V30 8328 H 785.912 -3.68638 -1.96204 0
M  V30 8329 N 786.349 -0.21828 -1.56081 0
M  V30 8330 C 787.595 0.414921 -1.9851 0
M  V30 8331 C 787.928 1.59648 -1.10573 0
M  V30 8332 O 787.203 1.93818 -0.162695 0
M  V30 8333 C 787.486 0.852647 -3.4986 0
M  V30 8334 C 787.339 -0.33232 -4.48571 0
M  V30 8335 C 788.658 1.70998 -4.05521 0
M  V30 8336 H 785.777 0.149344 -0.72171 0
M  V30 8337 H 788.419 -0.313858 -1.8739 0
M  V30 8338 H 786.569 1.47362 -3.59467 0
M  V30 8339 H 788.241 -0.970418 -4.50977 0
M  V30 8340 H 786.484 -0.980302 -4.22578 0
M  V30 8341 H 787.155 0.0168407 -5.51997 0
M  V30 8342 H 789.631 1.18606 -3.98838 0
M  V30 8343 H 788.507 1.98517 -5.11744 0
M  V30 8344 H 788.768 2.67219 -3.52202 0
M  V30 8345 N 787.827 1.57504 0.0551401 0
M  V30 8346 C 789.055 1.92294 0.76358 0
M  V30 8347 C 789.47 0.815774 1.70266 0
M  V30 8348 O 788.827 -0.209772 1.8129 0
M  V30 8349 C 788.878 3.26914 1.54302 0
M  V30 8350 O 788.599 4.33375 0.641666 0
M  V30 8351 C 790.1 3.75825 2.35097 0
M  V30 8352 H 787.32 0.635229 0.216159 0
M  V30 8353 H 789.864 2.0449 0.0204385 0
M  V30 8354 H 788.019 3.16196 2.23828 0
M  V30 8355 H 788.433 5.10927 1.1855 0
M  V30 8356 H 789.907 4.72603 2.8522 0
M  V30 8357 H 790.384 3.0568 3.15367 0
M  V30 8358 H 790.99 3.89542 1.70696 0
M  V30 8359 N 789.305 -0.326896 1.54172 0
M  V30 8360 C 790.554 -1.06274 1.71431 0
M  V30 8361 C 790.867 -1.89282 0.493123 0
M  V30 8362 O 792.073 -2.65933 0.54699 0
M  V30 8363 C 790.529 -1.93892 3.03206 0
M  V30 8364 C 790.137 -1.16011 4.32719 0
M  V30 8365 C 791.881 -2.67232 3.29829 0
M  V30 8366 C 789.788 -2.02755 5.55558 0
M  V30 8367 H 788.718 -0.400475 0.638855 0
M  V30 8368 H 791.369 -0.321184 1.80667 0
M  V30 8369 H 789.751 -2.71933 2.87869 0
M  V30 8370 H 790.925 -0.427643 4.58811 0
M  V30 8371 H 789.24 -0.54367 4.12836 0
M  V30 8372 H 791.837 -3.32434 4.18798 0
M  V30 8373 H 792.18 -3.34692 2.47562 0
M  V30 8374 H 792.713 -1.96255 3.46018 0
M  V30 8375 H 789.452 -1.3981 6.40417 0
M  V30 8376 H 788.972 -2.73745 5.33689 0
M  V30 8377 H 790.651 -2.61419 5.91835 0
M  V30 8378 N 790.784 -1.46188 -0.588786 0
M  V30 8379 C 792.061 -1.41659 -1.34878 0
M  V30 8380 C 792.441 -0.0968913 -2.10878 0
M  V30 8381 O 791.789 0.921468 -2.09096 0
M  V30 8382 C 791.999 -2.6424 -2.27988 0
M  V30 8383 C 793.347 -3.1013 -2.90008 0
M  V30 8384 O 794.371 -2.64745 -2.38303 0
M  V30 8385 O 793.23 -3.88944 -3.83908 0
M  V30 8386 H 790.324 -0.563058 -0.605718 0
M  V30 8387 H 792.87 -1.58346 -0.610309 0
M  V30 8388 H 791.642 -3.51853 -1.71217 0
M  V30 8389 H 791.265 -2.49982 -3.09184 0
M  V30 8390 N 792.262 0.832906 -1.33792 0
M  V30 8391 C 793.172 1.97514 -1.26592 0
M  V30 8392 C 794.188 1.73114 -0.175391 0
M  V30 8393 O 795.364 1.97387 -0.400062 0
M  V30 8394 C 792.429 3.31625 -1.01121 0
M  V30 8395 C 791.49 3.69101 -2.19233 0
M  V30 8396 C 790.723 4.96813 -1.94968 0
M  V30 8397 O 790.946 5.63208 -0.902955 0
M  V30 8398 O 789.88 5.31932 -2.8166 0
M  V30 8399 H 793.706 2.0653 -2.22664 0
M  V30 8400 H 791.291 0.966826 -1.13898 0
M  V30 8401 H 793.173 4.11968 -0.886571 0
M  V30 8402 H 791.848 3.23599 -0.080822 0
M  V30 8403 H 790.755 2.89243 -2.37253 0
M  V30 8404 H 792.088 3.818 -3.10628 0
M  V30 8405 N 793.74 1.17359 1.05189 0
M  V30 8406 C 795.151 0.96793 1.5965 0
M  V30 8407 C 795.502 -0.485355 1.90102 0
M  V30 8408 O 794.627 -1.36066 1.6827 0
M  V30 8409 C 795.222 1.75068 2.90063 0
M  V30 8410 C 793.781 1.58969 3.41183 0
M  V30 8411 C 792.928 1.75231 2.14917 0
M  V30 8412 H 795.879 1.32067 0.880001 0
M  V30 8413 H 795.9 1.23308 3.59966 0
M  V30 8414 H 795.412 2.80835 2.67868 0
M  V30 8415 H 793.513 0.556906 3.68415 0
M  V30 8416 H 793.626 2.38067 4.15766 0
M  V30 8417 H 791.99 1.18073 2.25679 0
M  V30 8418 H 792.773 2.8241 1.95191 0
M  V30 8419 N 795.218 -1.23913 0.973828 0
M  V30 8420 C 796.446 -1.96195 0.656891 0
M  V30 8421 C 796.861 -1.72166 -0.774876 0
M  V30 8422 O 796.218 -1.0091 -1.52064 0
M  V30 8423 C 796.269 -3.49342 0.929638 0
M  V30 8424 O 795.99 -3.72553 2.30512 0
M  V30 8425 C 797.491 -4.38833 0.627739 0
M  V30 8426 H 794.711 -0.624841 0.244572 0
M  V30 8427 H 797.255 -1.57579 1.30343 0
M  V30 8428 H 795.41 -3.85999 0.329216 0
M  V30 8429 H 795.824 -4.66893 2.3898 0
M  V30 8430 H 797.298 -5.45117 0.868991 0
M  V30 8431 H 797.775 -4.37009 -0.438104 0
M  V30 8432 H 798.381 -4.07773 1.20834 0
M  V30 8433 N 796.696 -0.74468 -1.38897 0
M  V30 8434 C 797.659 -0.11945 -2.28889 0
M  V30 8435 C 798.659 0.656942 -1.46768 0
M  V30 8436 O 799.849 0.484525 -1.67326 0
M  V30 8437 C 796.981 0.839635 -3.30398 0
M  V30 8438 H 798.174 -0.912414 -2.85683 0
M  V30 8439 H 795.727 -0.511119 -1.47707 0
M  V30 8440 H 796.462 1.6586 -2.78677 0
M  V30 8441 H 796.247 0.285432 -3.9106 0
M  V30 8442 H 797.737 1.27337 -3.97712 0
M  V30 8443 N 798.174 1.49689 -0.493057 0
M  V30 8444 C 799.124 2.25901 0.308682 0
M  V30 8445 C 800.108 1.30408 0.94247 0
M  V30 8446 O 801.3 1.55179 0.851384 0
M  V30 8447 C 798.429 3.14463 1.37725 0
M  V30 8448 C 797.515 4.17414 0.7501 0
M  V30 8449 N 797.906 5.05599 -0.142597 0
M  V30 8450 C 796.204 4.34377 1.01159 0
M  V30 8451 C 796.905 5.7954 -0.500782 0
M  V30 8452 N 795.881 5.43446 0.129386 0
M  V30 8453 H 799.683 2.91451 -0.378652 0
M  V30 8454 H 797.197 1.59441 -0.308614 0
M  V30 8455 H 799.194 3.67687 1.965 0
M  V30 8456 H 797.854 2.50464 2.06635 0
M  V30 8457 H 798.865 5.15354 -0.512894 0
M  V30 8458 H 795.542 3.81588 1.69402 0
M  V30 8459 H 796.932 6.60534 -1.23063 0
M  V30 8460 N 799.652 0.226554 1.55963 0
M  V30 8461 C 800.9 -0.402991 1.98041 0
M  V30 8462 C 801.221 -1.59938 1.11557 0
M  V30 8463 O 800.491 -1.9494 0.193719 0
M  V30 8464 H 799.071 -0.15188 0.731397 0
M  V30 8465 H 801.733 0.320613 1.92245 0
M  V30 8466 H 800.829 -0.725937 3.0354 0
M  V30 8467 N 801.13 -1.57531 -0.0467866 0
M  V30 8468 C 802.36 -1.92417 -0.752279 0
M  V30 8469 C 802.768 -0.823134 -1.70356 0
M  V30 8470 O 802.111 0.210598 -1.82489 0
M  V30 8471 C 802.173 -3.22974 -1.57887 0
M  V30 8472 C 801.837 -4.50045 -0.794285 0
M  V30 8473 C 802.834 -5.19799 -0.102368 0
M  V30 8474 C 800.519 -4.96608 -0.754061 0
M  V30 8475 C 802.513 -6.34385 0.619267 0
M  V30 8476 C 800.2 -6.11093 -0.0286682 0
M  V30 8477 C 801.198 -6.79835 0.656772 0
M  V30 8478 O 800.886 -7.92133 1.37042 0
M  V30 8479 H 800.618 -0.640029 -0.217576 0
M  V30 8480 H 803.172 -2.05395 -0.0137438 0
M  V30 8481 H 801.402 -3.06273 -2.3608 0
M  V30 8482 H 803.091 -3.43319 -2.16533 0
M  V30 8483 H 803.857 -4.8484 -0.124589 0
M  V30 8484 H 799.736 -4.42958 -1.27706 0
M  V30 8485 H 803.28 -6.87975 1.15483 0
M  V30 8486 H 799.177 -6.455 -0.00446214 0
M  V30 8487 H 799.945 -8.08394 1.28227 0
M  V30 8488 N 802.608 0.318715 -1.54344 0
M  V30 8489 C 803.838 1.07394 -1.76494 0
M  V30 8490 C 804.246 1.82031 -0.515881 0
M  V30 8491 O 803.589 1.7609 0.52325 0
M  V30 8492 C 803.651 2.11401 -2.90775 0
M  V30 8493 C 803.315 1.56118 -4.29507 0
M  V30 8494 C 804.312 1.00043 -5.10184 0
M  V30 8495 C 801.997 1.60215 -4.76063 0
M  V30 8496 C 803.991 0.487993 -6.35529 0
M  V30 8497 C 801.678 1.08584 -6.01376 0
M  V30 8498 C 802.676 0.529714 -6.80943 0
M  V30 8499 O 802.364 0.0211823 -8.03897 0
M  V30 8500 H 802.096 0.325061 -0.592715 0
M  V30 8501 H 804.65 0.36901 -2.02058 0
M  V30 8502 H 802.88 2.85524 -2.60793 0
M  V30 8503 H 804.569 2.72683 -3.00664 0
M  V30 8504 H 805.335 0.961811 -4.75367 0
M  V30 8505 H 801.214 2.02441 -4.14172 0
M  V30 8506 H 804.758 0.0532608 -6.9758 0
M  V30 8507 H 800.655 1.12155 -6.35682 0
M  V30 8508 H 801.423 0.136151 -8.18387 0
M  V30 8509 N 804.086 1.46499 0.581025 0
M  V30 8510 C 805.334 1.51596 1.33653 0
M  V30 8511 C 805.655 0.169859 1.94259 0
M  V30 8512 O 804.925 -0.803776 1.78651 0
M  V30 8513 H 803.505 0.558346 0.496244 0
M  V30 8514 H 806.167 1.8264 0.680338 0
M  V30 8515 H 805.263 2.26956 2.14237 0
M  V30 8516 N 805.565 -0.825799 1.34232 0
M  V30 8517 C 806.813 -1.57873 1.26177 0
M  V30 8518 C 807.134 -1.94267 -0.168904 0
M  V30 8519 O 806.404 -1.62045 -1.10084 0
M  V30 8520 H 804.984 -0.585388 0.464037 0
M  V30 8521 H 807.646 -0.986163 1.6811 0
M  V30 8522 H 806.742 -2.50283 1.86453 0
M  V30 8523 N 807.043 -1.17915 -1.04565 0
M  V30 8524 C 808.289 -0.972863 -1.77942 0
M  V30 8525 C 808.622 0.496753 -1.87739 0
M  V30 8526 O 807.897 1.3688 -1.38181 0
M  V30 8527 C 808.18 -1.62227 -3.21488 0
M  V30 8528 C 808.033 -3.16441 -3.19664 0
M  V30 8529 C 809.352 -1.33137 -4.19479 0
M  V30 8530 H 806.471 -0.354843 -0.645953 0
M  V30 8531 H 809.113 -1.45508 -1.22178 0
M  V30 8532 H 807.263 -1.21224 -3.69103 0
M  V30 8533 H 808.935 -3.66544 -2.80077 0
M  V30 8534 H 807.178 -3.48863 -2.57832 0
M  V30 8535 H 807.849 -3.57012 -4.21006 0
M  V30 8536 H 810.325 -1.68654 -3.80388 0
M  V30 8537 H 809.201 -1.81151 -5.18146 0
M  V30 8538 H 809.462 -0.253319 -4.41374 0
M  V30 8539 N 808.521 1.23394 -0.980386 0
M  V30 8540 C 809.767 1.92094 -0.650223 0
M  V30 8541 C 810.1 1.76309 0.814173 0
M  V30 8542 O 809.375 1.12406 1.5873 0
M  V30 8543 C 809.658 3.44713 -1.04139 0
M  V30 8544 C 809.511 3.69606 -2.56342 0
M  V30 8545 C 810.83 4.36191 -0.585296 0
M  V30 8546 H 807.949 0.697618 -0.237695 0
M  V30 8547 H 810.591 1.45517 -1.22167 0
M  V30 8548 H 808.741 3.84513 -0.55515 0
M  V30 8549 H 810.413 3.39288 -3.1254 0
M  V30 8550 H 808.656 3.14318 -2.98976 0
M  V30 8551 H 809.327 4.76441 -2.78762 0
M  V30 8552 H 811.803 4.03836 -1.00276 0
M  V30 8553 H 810.679 5.41679 -0.887428 0
M  V30 8554 H 810.94 4.39097 0.51438 0
M  V30 8555 N 809.999 0.752036 1.385 0
M  V30 8556 C 810.962 0.131587 2.28822 0
M  V30 8557 C 811.962 -0.649149 1.47115 0
M  V30 8558 O 813.152 -0.475645 1.67581 0
M  V30 8559 C 810.284 -0.822101 3.30839 0
M  V30 8560 H 811.477 0.927551 2.85196 0
M  V30 8561 H 809.03 0.518945 1.47434 0
M  V30 8562 H 809.765 -1.6438 2.79553 0
M  V30 8563 H 809.55 -0.264689 3.91206 0
M  V30 8564 H 811.04 -1.25226 3.98382 0
M  V30 8565 N 811.477 -1.49425 0.500989 0
M  V30 8566 C 812.725 -2.02053 -0.0434495 0
M  V30 8567 C 813.046 -1.38285 -1.37486 0
M  V30 8568 O 812.316 -0.538171 -1.88363 0
M  V30 8569 H 810.896 -0.746757 -0.0190469 0
M  V30 8570 H 813.558 -1.83449 0.658227 0
M  V30 8571 H 812.654 -3.11619 -0.173129 0
M  V30 8572 N 812.955 -0.234822 -1.55841 0
M  V30 8573 C 814.366 0.270588 -1.84729 0
M  V30 8574 C 814.717 1.58494 -1.15646 0
M  V30 8575 O 813.842 2.12071 -0.430667 0
M  V30 8576 C 814.437 0.497733 -3.35124 0
M  V30 8577 C 812.996 0.947428 -3.64281 0
M  V30 8578 C 812.143 0.01787 -2.77294 0
M  V30 8579 H 815.094 -0.457691 -1.51957 0
M  V30 8580 H 815.115 1.34199 -3.56049 0
M  V30 8581 H 814.627 -0.459037 -3.85376 0
M  V30 8582 H 812.728 1.91709 -3.19497 0
M  V30 8583 H 812.841 0.812651 -4.72158 0
M  V30 8584 H 811.205 0.527071 -2.49187 0
M  V30 8585 H 811.988 -0.934056 -3.30349 0
M  V30 8586 N 814.433 1.57553 0.0384317 0
M  V30 8587 C 815.844 1.77258 0.586211 0
M  V30 8588 C 816.195 0.864706 1.76117 0
M  V30 8589 O 815.32 0.057141 2.16325 0
M  V30 8590 C 815.915 3.21453 1.07021 0
M  V30 8591 C 814.474 3.42387 1.56358 0
M  V30 8592 C 813.621 2.72801 0.497508 0
M  V30 8593 H 816.572 1.57585 -0.187796 0
M  V30 8594 H 816.593 3.27451 1.93794 0
M  V30 8595 H 816.105 3.87505 0.214851 0
M  V30 8596 H 814.206 2.81497 2.44111 0
M  V30 8597 H 814.319 4.50968 1.61754 0
M  V30 8598 H 812.683 2.36305 0.95038 0
M  V30 8599 H 813.466 3.41529 -0.348234 0
M  V30 8600 N 815.911 -0.310526 1.54511 0
M  V30 8601 C 817.158 -1.04691 1.73338 0
M  V30 8602 C 817.486 -1.87584 0.514038 0
M  V30 8603 O 816.741 -1.89096 -0.504119 0
M  V30 8604 C 817.04 -1.98942 2.96912 0
M  V30 8605 C 816.706 -1.321 4.31115 0
M  V30 8606 C 815.368 -1.13603 4.67598 0
M  V30 8607 C 817.72 -0.842362 5.14348 0
M  V30 8608 C 815.048 -0.459102 5.84901 0
M  V30 8609 C 817.4 -0.179202 6.32346 0
M  V30 8610 C 816.064 0.0178111 6.67498 0
M  V30 8611 H 815.334 -0.38309 0.634289 0
M  V30 8612 H 817.981 -0.322723 1.88761 0
M  V30 8613 H 816.286 -2.77856 2.76231 0
M  V30 8614 H 817.983 -2.55972 3.08674 0
M  V30 8615 H 814.573 -1.47502 4.02419 0
M  V30 8616 H 818.757 -0.973013 4.86668 0
M  V30 8617 H 814.013 -0.295385 6.10686 0
M  V30 8618 H 818.187 0.199619 6.96114 0
M  V30 8619 H 815.814 0.544356 7.58249 0
M  V30 8620 N 817.389 -1.46805 -0.573248 0
M  V30 8621 C 818.336 -1.58084 -1.68161 0
M  V30 8622 C 819.306 -0.424636 -1.6058 0
M  V30 8623 O 820.491 -0.642623 -1.79652 0
M  V30 8624 C 817.631 -1.58601 -3.06496 0
M  V30 8625 C 816.744 -2.85023 -3.24632 0
M  V30 8626 C 815.879 -2.76981 -4.53271 0
M  V30 8627 C 814.918 -3.983 -4.64783 0
M  V30 8628 N 814.055 -3.88589 -5.84759 0
M  V30 8629 H 818.895 -2.52755 -1.57858 0
M  V30 8630 H 816.432 -1.25385 -0.769218 0
M  V30 8631 H 818.39 -1.56885 -3.86579 0
M  V30 8632 H 817.02 -0.674553 -3.15673 0
M  V30 8633 H 816.072 -2.96678 -2.38089 0
M  V30 8634 H 817.384 -3.7491 -3.29004 0
M  V30 8635 H 816.538 -2.73424 -5.41594 0
M  V30 8636 H 815.277 -1.84751 -4.51352 0
M  V30 8637 H 814.282 -4.02179 -3.74876 0
M  V30 8638 H 815.507 -4.91639 -4.68474 0
M  V30 8639 H 813.453 -2.99151 -5.83819 0
M  V30 8640 H 813.37 -4.7214 -5.90441 0
M  V30 8641 H 814.638 -3.89022 -6.75486 0
M  V30 8642 N 818.867 0.818669 -1.34668 0
M  V30 8643 C 819.814 1.92983 -1.26595 0
M  V30 8644 C 820.784 1.65506 -0.140315 0
M  V30 8645 O 821.969 1.88063 -0.322005 0
M  V30 8646 C 819.109 3.2932 -1.03163 0
M  V30 8647 C 818.222 3.69061 -2.24539 0
M  V30 8648 C 817.357 4.94368 -1.94355 0
M  V30 8649 C 816.396 5.26702 -3.11851 0
M  V30 8650 N 815.533 6.43187 -2.81522 0
M  V30 8651 H 820.373 1.99219 -2.2162 0
M  V30 8652 H 817.91 0.974612 -1.1018 0
M  V30 8653 H 819.868 4.07897 -0.87613 0
M  V30 8654 H 818.498 3.22584 -0.118045 0
M  V30 8655 H 817.55 2.85842 -2.50995 0
M  V30 8656 H 818.862 3.88924 -3.12313 0
M  V30 8657 H 818.016 5.80742 -1.75566 0
M  V30 8658 H 816.755 4.76515 -1.03848 0
M  V30 8659 H 815.76 4.38823 -3.31231 0
M  V30 8660 H 816.985 5.46492 -4.03142 0
M  V30 8661 H 814.931 6.26783 -1.93596 0
M  V30 8662 H 814.848 6.63243 -3.62829 0
M  V30 8663 H 816.116 7.32621 -2.66247 0
M  V30 8664 N 820.346 1.18468 1.03938 0
M  V30 8665 C 821.595 0.975193 1.76558 0
M  V30 8666 C 821.908 -0.495978 1.89207 0
M  V30 8667 O 823.114 -0.824009 2.58694 0
M  V30 8668 C 821.57 1.69579 3.17444 0
M  V30 8669 C 821.178 3.20636 3.12884 0
M  V30 8670 C 822.922 1.56917 3.94433 0
M  V30 8671 C 820.829 3.8533 4.48636 0
M  V30 8672 H 819.759 0.361244 0.66183 0
M  V30 8673 H 822.41 1.41854 1.16403 0
M  V30 8674 H 820.792 1.18022 3.78004 0
M  V30 8675 H 821.966 3.79228 2.61768 0
M  V30 8676 H 820.281 3.33454 2.49394 0
M  V30 8677 H 822.878 2.02611 4.94826 0
M  V30 8678 H 823.221 0.521638 4.13019 0
M  V30 8679 H 823.754 2.05762 3.40451 0
M  V30 8680 H 820.493 4.90136 4.35255 0
M  V30 8681 H 820.013 3.31526 4.99851 0
M  V30 8682 H 821.692 3.88269 5.17549 0
M  V30 8683 N 821.824 -1.22873 0.986916 0
M  V30 8684 C 822.757 -2.23154 0.477245 0
M  V30 8685 C 823.735 -1.55981 -0.459206 0
M  V30 8686 O 824.919 -1.84503 -0.386141 0
M  V30 8687 C 822.046 -3.37289 -0.308838 0
M  V30 8688 C 821.092 -4.22637 0.572717 0
M  V30 8689 S 821.925 -4.95758 2.02446 0
M  V30 8690 C 823.081 -6.13338 1.2477 0
M  V30 8691 H 823.314 -2.6604 1.32702 0
M  V30 8692 H 820.847 -1.32455 0.793415 0
M  V30 8693 H 822.805 -4.03472 -0.756351 0
M  V30 8694 H 821.466 -2.92922 -1.13381 0
M  V30 8695 H 820.659 -5.0399 -0.0318024 0
M  V30 8696 H 820.261 -3.61555 0.956746 0
M  V30 8697 H 822.553 -6.7556 0.51231 0
M  V30 8698 H 823.496 -6.78189 2.03629 0
M  V30 8699 H 823.904 -5.59311 0.763622 0
M  V30 8700 N 823.302 -0.75937 -1.38099 0
M  V30 8701 C 824.55 -0.317485 -1.99591 0
M  V30 8702 C 824.871 1.10628 -1.60581 0
M  V30 8703 O 824.141 1.7575 -0.865378 0
M  V30 8704 H 822.721 -0.114397 -0.738189 0
M  V30 8705 H 825.383 -0.974749 -1.68774 0
M  V30 8706 H 824.479 -0.385227 -3.09713 0
M  V30 8707 N 824.78 1.49157 -0.508906 0
M  V30 8708 C 826.028 2.02073 0.0327335 0
M  V30 8709 C 826.349 1.39012 1.3675 0
M  V30 8710 O 825.619 0.548153 1.88075 0
M  V30 8711 H 824.199 0.746848 0.0150864 0
M  V30 8712 H 826.861 1.83097 -0.667946 0
M  V30 8713 H 825.957 3.11707 0.1566 0
M  V30 8714 N 826.258 0.243083 1.55714 0
M  V30 8715 C 827.483 -0.389944 2.03701 0
M  V30 8716 C 827.908 -1.51025 1.12129 0
M  V30 8717 O 827.266 -1.80944 0.11352 0
M  V30 8718 C 827.314 -0.878649 3.49731 0
M  V30 8719 O 826.418 -1.98851 3.61292 0
M  V30 8720 H 825.759 -0.0855115 0.658471 0
M  V30 8721 H 828.289 0.368023 2.01263 0
M  V30 8722 H 828.299 -1.18287 3.90477 0
M  V30 8723 H 826.974 -0.0588107 4.15858 0
M  V30 8724 H 825.551 -1.68928 3.32442 0
M  V30 8725 N 827.736 -1.57571 -0.0300757 0
M  V30 8726 C 828.666 -2.0953 -1.03051 0
M  V30 8727 C 829.647 -0.99761 -1.37774 0
M  V30 8728 O 830.832 -1.27279 -1.46676 0
M  V30 8729 C 827.962 -2.57385 -2.33174 0
M  V30 8730 C 826.916 -3.71409 -2.12696 0
M  V30 8731 C 826.242 -4.05467 -3.4857 0
M  V30 8732 C 827.542 -4.99877 -1.51396 0
M  V30 8733 H 829.236 -2.93367 -0.597999 0
M  V30 8734 H 826.782 -1.41127 -0.286203 0
M  V30 8735 H 828.735 -2.92355 -3.03491 0
M  V30 8736 H 827.459 -1.70629 -2.78484 0
M  V30 8737 H 826.118 -3.36786 -1.44813 0
M  V30 8738 H 825.766 -3.15779 -3.91526 0
M  V30 8739 H 825.466 -4.82269 -3.35694 0
M  V30 8740 H 826.99 -4.4297 -4.2025 0
M  V30 8741 H 828.404 -5.3281 -2.11629 0
M  V30 8742 H 826.801 -5.81283 -1.49098 0
M  V30 8743 H 827.871 -4.82522 -0.479676 0
M  V30 8744 N 829.214 0.302327 -1.54673 0
M  V30 8745 C 830.162 1.39286 -1.86285 0
M  V30 8746 C 831.156 1.52553 -0.736478 0
M  V30 8747 O 832.362 1.54686 -0.92045 0
M  V30 8748 H 828.737 0.465228 -0.590819 0
M  V30 8749 H 830.708 1.09859 -2.77441 0
M  V30 8750 C 829.457 2.75155 -2.12567 0
M  V30 8751 H 828.78 2.65728 -2.98712 0
M  V30 8752 H 830.22 3.50476 -2.38627 0
M  V30 8753 C 828.679 3.23987 -0.923813 0
M  V30 8754 O 829.209 4.01443 -0.143649 0
M  V30 8755 N 827.415 2.81293 -0.72956 0
M  V30 8756 H 826.962 2.18421 -1.36565 0
M  V30 8757 H 826.92 3.14315 0.0730351 0
M  V30 8758 N 830.692 1.47107 0.565454 0
M  V30 8759 C 831.941 1.5257 1.31929 0
M  V30 8760 C 832.254 0.189092 1.94684 0
M  V30 8761 O 833.46 0.121657 2.71227 0
M  V30 8762 C 831.916 2.68914 2.39193 0
M  V30 8763 C 831.524 4.09069 1.82665 0
M  V30 8764 C 833.268 2.83663 3.1581 0
M  V30 8765 C 831.175 5.16726 2.87661 0
M  V30 8766 H 830.105 0.567869 0.496025 0
M  V30 8767 H 832.756 1.73361 0.60151 0
M  V30 8768 H 831.138 2.41486 3.13848 0
M  V30 8769 H 832.312 4.46364 1.14438 0
M  V30 8770 H 830.627 3.99135 1.1866 0
M  V30 8771 H 833.224 3.61261 3.94201 0
M  V30 8772 H 833.567 1.91804 3.69482 0
M  V30 8773 H 834.1 3.10821 2.48265 0
M  V30 8774 H 830.839 6.10433 2.38854 0
M  V30 8775 H 830.359 4.83957 3.54324 0
M  V30 8776 H 832.038 5.43319 3.51303 0
M  V30 8777 N 832.17 -0.811516 1.35101 0
M  V30 8778 C 833.1 -1.9378 1.30275 0
M  V30 8779 C 834.081 -1.69165 0.178075 0
M  V30 8780 O 835.266 -1.90599 0.372256 0
M  V30 8781 C 832.396 -3.30439 1.06899 0
M  V30 8782 C 831.35 -3.69523 2.15955 0
M  V30 8783 C 830.676 -5.0429 1.77751 0
M  V30 8784 C 831.976 -3.80419 3.57881 0
M  V30 8785 H 833.67 -1.98075 2.24514 0
M  V30 8786 H 831.216 -0.951586 1.08078 0
M  V30 8787 H 833.169 -4.08828 1.02164 0
M  V30 8788 H 831.893 -3.26473 0.0910462 0
M  V30 8789 H 830.552 -2.93416 2.19778 0
M  V30 8790 H 830.2 -4.96823 0.785876 0
M  V30 8791 H 829.9 -5.31411 2.5075 0
M  V30 8792 H 831.424 -5.85125 1.74533 0
M  V30 8793 H 832.838 -4.49051 3.56407 0
M  V30 8794 H 831.235 -4.19005 4.29598 0
M  V30 8795 H 832.305 -2.82105 3.94391 0
M  V30 8796 N 833.648 -1.19017 -1.03309 0
M  V30 8797 C 834.896 -0.988258 -1.76289 0
M  V30 8798 C 835.217 0.482557 -1.88935 0
M  V30 8799 O 834.487 1.34969 -1.41987 0
M  V30 8800 H 833.067 -0.36267 -0.653054 0
M  V30 8801 H 835.729 -1.49836 -1.2464 0
M  V30 8802 H 834.825 -1.43273 -2.77271 0
M  V30 8803 N 835.127 1.22348 -0.993418 0
M  V30 8804 C 836.376 1.90422 -0.665019 0
M  V30 8805 C 836.689 1.78199 0.806512 0
M  V30 8806 O 837.895 2.41193 1.24652 0
M  V30 8807 C 836.351 3.41403 -1.13893 0
M  V30 8808 C 835.959 3.62262 -2.63572 0
M  V30 8809 C 837.703 4.15175 -0.884884 0
M  V30 8810 C 835.61 5.06947 -3.04564 0
M  V30 8811 H 834.54 0.713073 -0.245037 0
M  V30 8812 H 837.191 1.3856 -1.20305 0
M  V30 8813 H 835.573 3.9245 -0.529027 0
M  V30 8814 H 836.747 3.21705 -3.29913 0
M  V30 8815 H 835.062 3.01824 -2.86865 0
M  V30 8816 H 837.659 5.21813 -1.16684 0
M  V30 8817 H 838.002 4.15915 0.178982 0
M  V30 8818 H 838.535 3.70157 -1.45701 0
M  V30 8819 H 835.274 5.11346 -4.10128 0
M  V30 8820 H 834.794 5.48404 -2.42927 0
M  V30 8821 H 836.473 5.75374 -2.95894 0
M  V30 8822 N 836.605 0.766683 1.37694 0
M  V30 8823 C 837.83 0.338715 2.04615 0
M  V30 8824 C 838.255 -1.02918 1.57447 0
M  V30 8825 O 837.613 -1.65849 0.732386 0
M  V30 8826 C 837.661 0.385284 3.58536 0
M  V30 8827 O 836.765 -0.616081 4.07772 0
M  V30 8828 H 836.106 0.147527 0.647404 0
M  V30 8829 H 838.636 1.04146 1.7611 0
M  V30 8830 H 838.646 0.240782 4.07289 0
M  V30 8831 H 837.321 1.38325 3.92223 0
M  V30 8832 H 835.898 -0.435115 3.70353 0
M  V30 8833 N 838.083 -1.48885 0.516809 0
M  V30 8834 C 839.494 -1.86557 0.0729921 0
M  V30 8835 C 839.845 -1.42767 -1.34581 0
M  V30 8836 O 838.97 -0.812514 -2.00567 0
M  V30 8837 C 839.565 -3.38567 0.125686 0
M  V30 8838 C 838.124 -3.75481 -0.262867 0
M  V30 8839 C 837.271 -2.72913 0.491281 0
M  V30 8840 H 840.222 -1.40978 0.728767 0
M  V30 8841 H 840.243 -3.74629 -0.665831 0
M  V30 8842 H 839.755 -3.70408 1.15842 0
M  V30 8843 H 837.856 -3.49251 -1.29824 0
M  V30 8844 H 837.969 -4.79052 0.067579 0
M  V30 8845 H 836.333 -2.54627 -0.0608525 0
M  V30 8846 H 837.116 -3.07599 1.5244 0
M  V30 8847 N 839.561 -0.251338 -1.55583 0
M  V30 8848 C 840.789 0.376187 -2.03451 0
M  V30 8849 C 841.204 1.51215 -1.13047 0
M  V30 8850 O 840.561 1.81917 -0.145769 0
M  V30 8851 C 840.612 0.879779 -3.50631 0
M  V30 8852 O 840.333 -0.210917 -4.37592 0
M  V30 8853 C 841.834 1.57754 -4.14281 0
M  V30 8854 H 839.054 0.0888722 -0.665089 0
M  V30 8855 H 841.598 -0.376497 -2.01004 0
M  V30 8856 H 839.753 1.58263 -3.53598 0
M  V30 8857 H 840.167 0.172203 -5.24217 0
M  V30 8858 H 841.641 1.88158 -5.18942 0
M  V30 8859 H 842.118 2.50103 -3.61034 0
M  V30 8860 H 842.724 0.919154 -4.15249 0
M  V30 8861 N 841.039 1.57585 0.0217189 0
M  V30 8862 C 841.986 2.07036 1.02004 0
M  V30 8863 C 842.956 0.96106 1.35473 0
M  V30 8864 O 844.141 1.23211 1.45684 0
M  V30 8865 C 841.281 2.56056 2.31364 0
M  V30 8866 C 840.394 3.80805 2.03989 0
M  V30 8867 C 839.529 4.18409 3.27272 0
M  V30 8868 C 838.568 5.36055 2.95486 0
M  V30 8869 N 837.705 5.69056 4.11242 0
M  V30 8870 H 842.545 2.92073 0.591396 0
M  V30 8871 H 840.082 1.44403 0.280384 0
M  V30 8872 H 842.04 2.82548 3.06957 0
M  V30 8873 H 840.67 1.73925 2.71937 0
M  V30 8874 H 839.722 3.61354 1.1886 0
M  V30 8875 H 841.034 4.66512 1.76546 0
M  V30 8876 H 840.188 4.46068 4.11228 0
M  V30 8877 H 838.927 3.31369 3.57835 0
M  V30 8878 H 837.932 5.08142 2.09933 0
M  V30 8879 H 839.157 6.24755 2.66193 0
M  V30 8880 H 837.103 4.84974 4.41742 0
M  V30 8881 H 837.02 6.49288 3.87247 0
M  V30 8882 H 838.288 6.01295 4.96049 0
M  V30 8883 N 842.517 -0.29412 1.54831 0
M  V30 8884 C 843.928 -0.866651 1.65366 0
M  V30 8885 C 844.279 -1.87834 0.56681 0
M  V30 8886 O 843.404 -2.14374 -0.295389 0
M  V30 8887 C 843.999 -1.57869 2.99771 0
M  V30 8888 C 842.558 -2.09954 3.12404 0
M  V30 8889 C 841.705 -0.934492 2.6108 0
M  V30 8890 H 844.656 -0.0709551 1.58541 0
M  V30 8891 H 844.677 -2.44462 2.91579 0
M  V30 8892 H 844.189 -0.84212 3.78853 0
M  V30 8893 H 842.29 -2.86637 2.38055 0
M  V30 8894 H 842.403 -2.32934 4.18663 0
M  V30 8895 H 840.767 -1.32199 2.17705 0
M  V30 8896 H 841.55 -0.211768 3.42646 0
M  V30 8897 N 843.995 -1.47404 -0.557645 0
M  V30 8898 C 844.925 -1.62736 -1.67449 0
M  V30 8899 C 845.906 -0.476824 -1.6328 0
M  V30 8900 O 847.091 -0.706108 -1.80908 0
M  V30 8901 C 844.221 -1.641 -3.06086 0
M  V30 8902 C 843.175 -2.78377 -3.25101 0
M  V30 8903 C 842.501 -2.64812 -4.6452 0
M  V30 8904 C 843.801 -4.19971 -3.10518 0
M  V30 8905 H 845.495 -2.56232 -1.54873 0
M  V30 8906 H 843.041 -1.23312 -0.743649 0
M  V30 8907 H 844.994 -1.73417 -3.84063 0
M  V30 8908 H 843.718 -0.671652 -3.19619 0
M  V30 8909 H 842.377 -2.6857 -2.49531 0
M  V30 8910 H 842.025 -1.65906 -4.74852 0
M  V30 8911 H 841.725 -3.41477 -4.78191 0
M  V30 8912 H 843.249 -2.76057 -5.44633 0
M  V30 8913 H 844.663 -4.30757 -3.78313 0
M  V30 8914 H 843.06 -4.97419 -3.35699 0
M  V30 8915 H 844.13 -4.38369 -2.0727 0
M  V30 8916 N 845.473 0.80434 -1.35529 0
M  V30 8917 C 846.701 1.59283 -1.32048 0
M  V30 8918 C 847.116 1.88527 0.101556 0
M  V30 8919 O 846.473 1.48975 1.05417 0
M  V30 8920 C 846.524 2.92276 -2.12737 0
M  V30 8921 O 846.245 2.64299 -3.49396 0
M  V30 8922 C 847.746 3.86631 -2.16867 0
M  V30 8923 H 844.966 0.494523 -0.453528 0
M  V30 8924 H 847.51 0.999415 -1.78415 0
M  V30 8925 H 845.665 3.48125 -1.69964 0
M  V30 8926 H 846.079 3.4923 -3.91329 0
M  V30 8927 H 847.553 4.77053 -2.77712 0
M  V30 8928 H 848.03 4.23384 -1.16803 0
M  V30 8929 H 848.636 3.36717 -2.59811 0
M  V30 8930 N 846.951 1.19563 1.02676 0
M  V30 8931 C 847.914 0.937182 2.09164 0
M  V30 8932 C 848.914 -0.0831927 1.60585 0
M  V30 8933 O 850.104 0.15178 1.73538 0
M  V30 8934 C 847.236 0.408912 3.38439 0
M  V30 8935 H 848.429 1.88164 2.33526 0
M  V30 8936 H 845.982 1.00959 1.19319 0
M  V30 8937 H 846.717 -0.541497 3.19747 0
M  V30 8938 H 846.502 1.14464 3.7502 0
M  V30 8939 H 847.992 0.247242 4.16867 0
M  V30 8940 N 848.429 -1.21819 0.999893 0
M  V30 8941 C 849.392 -2.22227 0.561044 0
M  V30 8942 C 850.392 -1.56722 -0.359858 0
M  V30 8943 O 851.582 -1.73546 -0.150848 0
M  V30 8944 C 848.714 -3.40409 -0.182987 0
M  V30 8945 H 849.907 -2.62567 1.44909 0
M  V30 8946 H 847.46 -1.34991 0.78785 0
M  V30 8947 H 848.195 -3.05551 -1.08671 0
M  V30 8948 H 847.98 -3.89171 0.47833 0
M  V30 8949 H 849.47 -4.14856 -0.477952 0
M  V30 8950 N 849.908 -0.773975 -1.37286 0
M  V30 8951 C 850.871 -0.167974 -2.28584 0
M  V30 8952 C 851.871 0.625662 -1.48129 0
M  V30 8953 O 853.061 0.448924 -1.68316 0
M  V30 8954 C 850.193 0.769364 -3.32105 0
M  V30 8955 H 851.386 -0.972806 -2.83684 0
M  V30 8956 H 848.939 -0.542335 -1.46589 0
M  V30 8957 H 849.674 1.59912 -2.82132 0
M  V30 8958 H 849.459 0.202419 -3.91577 0
M  V30 8959 H 850.949 1.18872 -4.00324 0
M  V30 8960 N 851.386 1.48609 -0.524698 0
M  V30 8961 C 852.632 2.02797 0.0113382 0
M  V30 8962 C 852.965 1.40147 1.34433 0
M  V30 8963 O 852.24 0.545368 1.86698 0
M  V30 8964 C 852.523 3.59832 0.138931 0
M  V30 8965 C 852.376 4.32971 -1.21886 0
M  V30 8966 C 853.695 4.3145 0.868265 0
M  V30 8967 H 850.814 0.736995 0.00264645 0
M  V30 8968 H 853.456 1.77388 -0.680704 0
M  V30 8969 H 851.606 3.81612 0.72834 0
M  V30 8970 H 853.278 4.22624 -1.84897 0
M  V30 8971 H 851.521 3.94597 -1.80211 0
M  V30 8972 H 852.192 5.41279 -1.08263 0
M  V30 8973 H 854.668 4.14468 0.368145 0
M  V30 8974 H 853.544 5.41025 0.926428 0
M  V30 8975 H 853.805 3.98358 1.91737 0
M  V30 8976 N 852.864 0.259585 1.55447 0
M  V30 8977 C 853.811 -0.634578 2.21905 0
M  V30 8978 C 854.781 -1.16168 1.18719 0
M  V30 8979 O 855.966 -1.21383 1.4721 0
M  V30 8980 C 853.106 -1.82005 2.93203 0
M  V30 8981 C 852.219 -1.32828 4.11073 0
M  V30 8982 C 851.354 -2.47431 4.70055 0
M  V30 8983 C 850.393 -1.95179 5.80148 0
M  V30 8984 N 849.53 -3.03197 6.33258 0
M  V30 8985 H 854.37 -0.0611886 2.97937 0
M  V30 8986 H 851.907 -0.0184378 1.47088 0
M  V30 8987 H 853.865 -2.51664 3.32748 0
M  V30 8988 H 852.495 -2.36571 2.19622 0
M  V30 8989 H 851.547 -0.525301 3.76756 0
M  V30 8990 H 852.859 -0.905435 4.90513 0
M  V30 8991 H 852.013 -3.25111 5.12238 0
M  V30 8992 H 850.752 -2.93023 3.89857 0
M  V30 8993 H 849.757 -1.15974 5.37429 0
M  V30 8994 H 850.982 -1.50541 6.62204 0
M  V30 8995 H 848.928 -3.48199 5.55961 0
M  V30 8996 H 848.845 -2.65282 7.07928 0
M  V30 8997 H 850.113 -3.80898 6.80101 0
M  V30 8998 N 854.342 -1.57594 -0.0133615 0
M  V30 8999 C 855.57 -1.94251 -0.712328 0
M  V30 9000 C 855.985 -0.86063 -1.68043 0
M  V30 9001 O 855.342 0.161632 -1.81783 0
M  V30 9002 C 855.393 -3.30891 -1.45581 0
M  V30 9003 O 855.114 -4.34924 -0.526539 0
M  V30 9004 C 856.615 -3.81926 -2.2505 0
M  V30 9005 H 853.835 -0.640737 -0.199241 0
M  V30 9006 H 856.379 -2.04472 0.0337855 0
M  V30 9007 H 854.534 -3.22019 -2.15366 0
M  V30 9008 H 854.948 -5.1389 -1.04962 0
M  V30 9009 H 856.422 -4.79999 -2.72589 0
M  V30 9010 H 856.899 -3.13934 -3.07152 0
M  V30 9011 H 857.505 -3.93931 -1.60308 0
M  V30 9012 N 855.82 0.285905 -1.54985 0
M  V30 9013 C 857.231 0.857869 -1.65824 0
M  V30 9014 C 857.582 1.87531 -0.576763 0
M  V30 9015 O 856.707 2.14528 0.284016 0
M  V30 9016 C 857.302 1.56277 -3.00604 0
M  V30 9017 C 855.861 2.08294 -3.13513 0
M  V30 9018 C 855.008 0.920633 -2.61571 0
M  V30 9019 H 857.959 0.0625463 -1.58577 0
M  V30 9020 H 857.98 2.42912 -2.92872 0
M  V30 9021 H 857.492 0.822017 -3.79295 0
M  V30 9022 H 855.593 2.8537 -2.39572 0
M  V30 9023 H 855.706 2.3071 -4.19892 0
M  V30 9024 H 854.07 1.31043 -2.18403 0
M  V30 9025 H 854.853 0.193594 -3.42754 0
M  V30 9026 N 857.298 1.47698 0.54982 0
M  V30 9027 C 858.523 1.58579 1.33669 0
M  V30 9028 C 858.948 0.239049 1.86575 0
M  V30 9029 O 858.306 -0.786256 1.63364 0
M  V30 9030 C 858.354 2.62029 2.47736 0
M  V30 9031 O 857.458 2.17813 3.50188 0
M  V30 9032 H 856.799 0.532447 0.396732 0
M  V30 9033 H 859.329 1.93536 0.6637 0
M  V30 9034 H 859.339 2.82682 2.94202 0
M  V30 9035 H 858.014 3.59812 2.08586 0
M  V30 9036 H 856.591 2.07291 3.09976 0
M  V30 9037 O 858.815 -0.694561 1.45802 0
M  V30 9038 H 859.506 -1.34642 1.39252 0
M  V30 END ATOM
M  V30 BEGIN BOND
M  V30 END BOND
M  V30 END CTAB
M  END
$$$$
